
#######################################################################
#
#                 Cambridge Crystallographic Data Centre
#                                CCDC 
#
#######################################################################
#
# If this CIF has been generated from an entry in the Cambridge 
# Structural Database, then it will include bibliographic, chemical, 
# crystal, experimental, refinement or atomic coordinate data resulting 
# from the CCDC's data processing and validation procedures.
#
#######################################################################

data_SIYXOO
_chemical_formula_moiety         'C16 H10 O8,H2 O1'
_chemical_name_systematic        
"1,1'-Biphenyl-2,3,3',4'-tetracarboxylic acid monohydrate"
_symmetry_cell_setting           triclinic
_symmetry_space_group_name_H-M   'P -1'
_symmetry_Int_Tables_number      2
_space_group_name_Hall           '-P 1'
loop_
_symmetry_equiv_pos_site_id
_symmetry_equiv_pos_as_xyz
1 x,y,z
2 -x,-y,-z
_cell_length_a                   6.860(3)
_cell_length_b                   11.339(5)
_cell_length_c                   11.562(4)
_cell_angle_alpha                118.14(3)
_cell_angle_beta                 97.34(3)
_cell_angle_gamma                94.47(4)
_cell_volume                     776.671
_exptl_crystal_colour            colorless
_exptl_crystal_description       block
_chemical_melting_point          '468-470 K'
_cell_formula_units_Z            2
loop_
_atom_site_label
_atom_site_type_symbol
_atom_site_fract_x
_atom_site_fract_y
_atom_site_fract_z
O1 O 0.3911(3) 0.4576(2) 0.0916(2)
O2 O 0.3354(3) 0.6316(2) 0.0600(2)
H1 H 0.4355 0.6160 0.0268
O3 O 0.0748(3) 0.25686(17) 0.03658(17)
H2 H 0.1426 0.1961 0.0167
O4 O 0.2316(3) 0.32664(18) 0.24633(18)
O5 O -0.5242(3) -0.05309(17) 0.10577(18)
H3 H -0.6058 -0.0072 0.1442
O6 O -0.2050(3) -0.02764(18) 0.10600(19)
O7 O -0.3954(3) -0.00002(18) 0.37645(19)
O8 O -0.4933(3) 0.17283(19) 0.54348(19)
H4 H -0.5046 0.1186 0.5713
C1 C 0.0408(3) 0.4734(2) 0.2032(2)
C2 C 0.1241(4) 0.5721(2) 0.1745(2)
C3 C 0.0495(4) 0.6933(3) 0.2149(3)
H5 H 0.1048 0.7582 0.1958
C4 C -0.1069(5) 0.7174(3) 0.2834(3)
H6 H -0.1573 0.7983 0.3103
C5 C -0.1882(4) 0.6206(3) 0.3119(3)
H7 H -0.2929 0.6380 0.3584
C6 C -0.1176(4) 0.4980(2) 0.2728(2)
C7 C -0.2085(3) 0.3987(2) 0.3089(2)
C8 C -0.2530(4) 0.4447(2) 0.4356(2)
H8 H -0.2322 0.5371 0.4954
C9 C -0.3284(4) 0.3537(2) 0.4735(2)
H9 H -0.3589 0.3860 0.5583
C10 C -0.3590(3) 0.2150(2) 0.3867(2)
C11 C -0.3206(3) 0.1679(2) 0.2579(2)
C12 C -0.2489(3) 0.2590(2) 0.2192(2)
H10 H -0.2273 0.2271 0.1324
C13 C 0.2963(4) 0.5479(3) 0.1050(3)
C14 C 0.1296(3) 0.3453(2) 0.1646(2)
C15 C -0.3477(4) 0.0196(2) 0.1528(2)
C16 C -0.4193(4) 0.1204(2) 0.4366(2)
O9 O 0.2047(4) 0.0732(2) 0.2263(2)
H11 H 0.211(5) 0.159(4) 0.235(3)
H12 H 0.081(7) 0.041(4) 0.191(4)
loop_
_geom_bond_atom_site_label_1
_geom_bond_atom_site_label_2
_geom_bond_site_symmetry_1
_geom_bond_site_symmetry_2
O1 C13 1_555 1_555
O2 H1 1_555 1_555
O3 H2 1_555 1_555
O4 C14 1_555 1_555
O5 H3 1_555 1_555
O6 C15 1_555 1_555
O7 C16 1_555 1_555
O8 H4 1_555 1_555
C1 C2 1_555 1_555
C2 C3 1_555 1_555
C3 H5 1_555 1_555
C4 C3 1_555 1_555
H6 C4 1_555 1_555
C5 C4 1_555 1_555
H7 C5 1_555 1_555
C6 C1 1_555 1_555
C7 C6 1_555 1_555
C8 C7 1_555 1_555
H8 C8 1_555 1_555
C9 C8 1_555 1_555
H9 C9 1_555 1_555
C10 C9 1_555 1_555
C11 C10 1_555 1_555
C12 C7 1_555 1_555
H10 C12 1_555 1_555
C13 O2 1_555 1_555
C14 O3 1_555 1_555
C15 O5 1_555 1_555
C16 O8 1_555 1_555
O9 H11 1_555 1_555
H12 O9 1_555 1_555
C1 C14 1_555 1_555
C2 C13 1_555 1_555
C5 C6 1_555 1_555
C10 C16 1_555 1_555
C11 C12 1_555 1_555
C11 C15 1_555 1_555

#END
