
#######################################################################
#
#                 Cambridge Crystallographic Data Centre
#                                CCDC 
#
#######################################################################
#
# If this CIF has been generated from an entry in the Cambridge 
# Structural Database, then it will include bibliographic, chemical, 
# crystal, experimental, refinement or atomic coordinate data resulting 
# from the CCDC's data processing and validation procedures.
#
#######################################################################

data_SIYZIK
_chemical_formula_moiety         'C17 H12 O4'
_chemical_name_systematic        
'3-Methyl-4-oxo-2-phenyl-4H-chromene-8-carboxylic acid'
_symmetry_cell_setting           triclinic
_symmetry_space_group_name_H-M   'P -1'
_symmetry_Int_Tables_number      2
_space_group_name_Hall           '-P 1'
loop_
_symmetry_equiv_pos_site_id
_symmetry_equiv_pos_as_xyz
1 x,y,z
2 -x,-y,-z
_cell_length_a                   7.2760(8)
_cell_length_b                   9.6551(10)
_cell_length_c                   11.3095(12)
_cell_angle_alpha                65.965(2)
_cell_angle_beta                 79.748(2)
_cell_angle_gamma                68.286(2)
_cell_volume                     673.776
_exptl_crystal_colour            colorless
_exptl_crystal_description       block
_chemical_melting_point          '500.6-501.2 K'
_cell_formula_units_Z            2
_exptl_crystal_recrystallization_method ethanol/dichloromethane
loop_
_atom_site_label
_atom_site_type_symbol
_atom_site_fract_x
_atom_site_fract_y
_atom_site_fract_z
O1 O 0.2307(3) 0.48247(18) 0.52007(15)
H1 H 0.2521 0.5681 0.4842
O2 O 0.3009(3) 0.4730(2) 0.32507(15)
O3 O 0.2390(2) 0.22602(15) 0.30232(13)
O4 O 0.2514(3) -0.23584(17) 0.47596(17)
C1 C 0.2644(3) 0.4115(2) 0.43715(19)
C2 C 0.2526(3) 0.2451(2) 0.50288(18)
C3 C 0.2552(3) 0.1725(2) 0.63616(19)
H2 H 0.2558 0.2307 0.6844
C4 C 0.2568(3) 0.0150(2) 0.7004(2)
H3 H 0.2597 -0.0311 0.7903
C5 C 0.2543(3) -0.0720(2) 0.6318(2)
H4 H 0.2562 -0.1776 0.6750
C6 C 0.2490(3) -0.0033(2) 0.49658(19)
C7 C 0.2471(3) 0.1545(2) 0.43312(18)
C8 C 0.2394(3) 0.1420(2) 0.2298(2)
C9 C 0.2489(3) -0.0139(2) 0.2816(2)
C10 C 0.2678(4) -0.1097(3) 0.2009(3)
H5 H 0.1433 -0.1234 0.2021
H6 H 0.3672 -0.2131 0.2357
H7 H 0.3050 -0.0539 0.1134
C11 C 0.2487(3) -0.0952(2) 0.4206(2)
C12 C 0.2342(3) 0.2459(2) 0.0909(2)
C13 C 0.3714(4) 0.3244(3) 0.0379(2)
H8 H 0.4675 0.3111 0.0896
C14 C 0.3666(5) 0.4226(3) -0.0916(3)
H9 H 0.4607 0.4738 -0.1270
C15 C 0.2250(6) 0.4448(4) -0.1677(3)
H10 H 0.2233 0.5103 -0.2550
C16 C 0.0850(6) 0.3712(4) -0.1163(3)
H11 H -0.0139 0.3893 -0.1681
C17 C 0.0903(4) 0.2697(3) 0.0127(2)
H12 H -0.0030 0.2176 0.0469
loop_
_geom_bond_atom_site_label_1
_geom_bond_atom_site_label_2
_geom_bond_site_symmetry_1
_geom_bond_site_symmetry_2
O1 H1 1_555 1_555
O2 C1 1_555 1_555
O3 C7 1_555 1_555
O4 C11 1_555 1_555
C1 O1 1_555 1_555
C2 C1 1_555 1_555
C3 C2 1_555 1_555
H2 C3 1_555 1_555
C4 C3 1_555 1_555
H3 C4 1_555 1_555
C5 C4 1_555 1_555
H4 C5 1_555 1_555
C6 C5 1_555 1_555
C7 C2 1_555 1_555
C8 O3 1_555 1_555
C9 C8 1_555 1_555
C10 C9 1_555 1_555
H5 C10 1_555 1_555
H6 C10 1_555 1_555
H7 C10 1_555 1_555
C11 C6 1_555 1_555
C12 C8 1_555 1_555
C13 C12 1_555 1_555
H8 C13 1_555 1_555
C14 C13 1_555 1_555
H9 C14 1_555 1_555
C15 C14 1_555 1_555
H10 C15 1_555 1_555
C16 C15 1_555 1_555
H11 C16 1_555 1_555
C17 C12 1_555 1_555
H12 C17 1_555 1_555
C6 C7 1_555 1_555
C9 C11 1_555 1_555
C16 C17 1_555 1_555

#END
