
#######################################################################
#
#                 Cambridge Crystallographic Data Centre
#                                CCDC 
#
#######################################################################
#
# If this CIF has been generated from an entry in the Cambridge 
# Structural Database, then it will include bibliographic, chemical, 
# crystal, experimental, refinement or atomic coordinate data resulting 
# from the CCDC's data processing and validation procedures.
#
#######################################################################

data_SIYZOQ
_chemical_formula_moiety         'C14 H9 F6 N3 S1'
_chemical_name_systematic        
1-(3,5-bis(Trifluoromethyl)phenyl)-3-(2-pyridyl)thiourea
_symmetry_cell_setting           orthorhombic
_symmetry_space_group_name_H-M   'P b c n'
_symmetry_Int_Tables_number      60
_space_group_name_Hall           '-P 2n 2ab'
loop_
_symmetry_equiv_pos_site_id
_symmetry_equiv_pos_as_xyz
1 x,y,z
2 1/2-x,1/2-y,1/2+z
3 -x,y,1/2-z
4 1/2+x,1/2-y,-z
5 -x,-y,-z
6 1/2+x,1/2+y,1/2-z
7 x,-y,1/2+z
8 1/2-x,1/2+y,z
_cell_length_a                   15.0907(17)
_cell_length_b                   7.7491(9)
_cell_length_c                   26.709(3)
_cell_angle_alpha                90
_cell_angle_beta                 90
_cell_angle_gamma                90
_cell_volume                     3123.33
_exptl_crystal_colour            colorless
_exptl_crystal_description       prismatic
_chemical_melting_point          '431-433 K'
_cell_formula_units_Z            8
_exptl_crystal_recrystallization_method acetonitrile
loop_
_atom_site_label
_atom_site_type_symbol
_atom_site_fract_x
_atom_site_fract_y
_atom_site_fract_z
S1 S 0.44883(4) 1.05153(11) 0.42753(2)
N1 N 0.37456(12) 0.8647(3) 0.49769(7)
N2 N 0.28358(12) 0.9220(3) 0.43161(6)
N3 N 0.22735(11) 0.7940(2) 0.51757(6)
C1 C 0.36381(13) 0.9414(3) 0.45239(8)
C2 C 0.25117(14) 0.9797(3) 0.38500(7)
C3 C 0.30288(14) 1.0050(3) 0.34296(7)
H1 H 0.3640 0.9898 0.3445
C4 C 0.26236(15) 1.0534(3) 0.29841(7)
C5 C 0.17215(15) 1.0763(3) 0.29537(8)
H2 H 0.1459 1.1092 0.2653
C6 C 0.12109(14) 1.0495(3) 0.33762(8)
C7 C 0.15999(14) 1.0010(3) 0.38225(8)
H3 H 0.1251 0.9825 0.4104
C8 C 0.31247(13) 0.7912(3) 0.53057(7)
C9 C 0.34218(16) 0.7222(3) 0.57550(8)
H4 H 0.4023 0.7189 0.5830
C10 C 0.28091(17) 0.6595(3) 0.60830(9)
H5 H 0.2989 0.6127 0.6387
C11 C 0.19245(17) 0.6658(3) 0.59626(9)
H6 H 0.1496 0.6260 0.6184
C12 C 0.16964(15) 0.7320(3) 0.55103(9)
H7 H 0.1098 0.7343 0.5427
C13 C 0.31954(17) 1.0781(3) 0.25314(8)
C14 C 0.02309(17) 1.0700(4) 0.33485(10)
F1 F 0.3600(6) 1.2197(7) 0.2520(3)
F2 F 0.3770(6) 0.9559(14) 0.2476(4)
F3 F 0.2703(4) 1.0759(17) 0.21099(16)
F4 F -0.0158(11) 0.927(2) 0.3219(7)
F5 F -0.0038(9) 1.1890(19) 0.3061(5)
F6 F -0.0122(7) 1.1014(17) 0.3796(3)
H8 H 0.4219(13) 0.877(3) 0.5105(9)
H9 H 0.2456(16) 0.882(3) 0.4511(9)
F7? F 0.3995(6) 1.140(2) 0.2647(2)
F8? F 0.3344(11) 0.9413(13) 0.2292(4)
F9? F 0.2887(7) 1.1881(17) 0.2217(4)
F10? F -0.0137(13) 0.957(3) 0.3042(8)
F11? F 0.0011(10) 1.2244(16) 0.3174(6)
F12? F -0.0171(6) 1.0587(17) 0.3773(3)
loop_
_geom_bond_atom_site_label_1
_geom_bond_atom_site_label_2
_geom_bond_site_symmetry_1
_geom_bond_site_symmetry_2
S1 C1 1_555 1_555
N1 C1 1_555 1_555
N2 C1 1_555 1_555
N3 C8 1_555 1_555
C2 N2 1_555 1_555
C3 C2 1_555 1_555
H1 C3 1_555 1_555
C4 C3 1_555 1_555
C5 C4 1_555 1_555
H2 C5 1_555 1_555
C6 C5 1_555 1_555
C7 C2 1_555 1_555
H3 C7 1_555 1_555
C8 N1 1_555 1_555
C9 C8 1_555 1_555
H4 C9 1_555 1_555
C10 C9 1_555 1_555
H5 C10 1_555 1_555
C11 C10 1_555 1_555
H6 C11 1_555 1_555
C12 N3 1_555 1_555
H7 C12 1_555 1_555
C13 C4 1_555 1_555
C14 C6 1_555 1_555
F1 C13 1_555 1_555
F2 C13 1_555 1_555
F3 C13 1_555 1_555
F4 C14 1_555 1_555
F5 C14 1_555 1_555
F6 C14 1_555 1_555
H8 N1 1_555 1_555
H9 N2 1_555 1_555
C6 C7 1_555 1_555
C11 C12 1_555 1_555

#END
