
#######################################################################
#
#                 Cambridge Crystallographic Data Centre
#                                CCDC 
#
#######################################################################
#
# If this CIF has been generated from an entry in the Cambridge 
# Structural Database, then it will include bibliographic, chemical, 
# crystal, experimental, refinement or atomic coordinate data resulting 
# from the CCDC's data processing and validation procedures.
#
#######################################################################

data_SIYZEG
_chemical_formula_moiety         'C11 H14 N2 O4'
_chemical_name_systematic        'Dimethyl 2,2-bis(2-cyanoethyl)malonate'
_symmetry_cell_setting           monoclinic
_symmetry_space_group_name_H-M   'C 2/c'
_symmetry_Int_Tables_number      15
_space_group_name_Hall           '-C 2yn'
loop_
_symmetry_equiv_pos_site_id
_symmetry_equiv_pos_as_xyz
1 x,y,z
2 1/2+x,1/2+y,z
3 -x,y,1/2-z
4 1/2-x,1/2+y,1/2-z
5 -x,-y,-z
6 1/2-x,1/2-y,-z
7 x,-y,1/2+z
8 1/2+x,1/2-y,1/2+z
_cell_length_a                   13.071(3)
_cell_length_b                   8.5060(17)
_cell_length_c                   10.914(2)
_cell_angle_alpha                90
_cell_angle_beta                 90.55(3)
_cell_angle_gamma                90
_cell_volume                     1213.38
_exptl_crystal_colour            colorless
_exptl_crystal_description       Block
_cell_formula_units_Z            4
loop_
_atom_site_label
_atom_site_type_symbol
_atom_site_fract_x
_atom_site_fract_y
_atom_site_fract_z
N1 N -0.1143(3) 0.5595(3) 0.4119(3)
C1 C -0.1098(2) 0.6248(3) 0.5039(3)
O1 O 0.15852(15) 1.0070(2) 0.6705(2)
O2 O 0.09191(13) 1.1101(2) 0.84034(16)
C2 C -0.1041(3) 0.7072(4) 0.6228(3)
H1 H -0.1056 0.6311 0.6890
H2 H -0.1628 0.7760 0.6312
C3 C -0.00519(19) 0.8043(3) 0.6315(2)
H3 H -0.0013 0.8737 0.5612
H4 H 0.0532 0.7340 0.6293
C4 C 0.0000 0.9032(4) 0.7500
C5 C 0.09365(19) 1.0115(3) 0.7444(2)
C6 C 0.1753(2) 1.2212(4) 0.8494(3)
H5 H 0.1667 1.2853 0.9209
H6 H 0.1756 1.2867 0.7778
H7 H 0.2390 1.1653 0.8555
N1B N 0.1143(3) 0.5595(3) 1.0881(3)
C1B C 0.1098(2) 0.6248(3) 0.9961(3)
O1B O -0.15852(15) 1.0070(2) 0.8295(2)
O2B O -0.09191(13) 1.1101(2) 0.65966(16)
C2B C 0.1041(3) 0.7072(4) 0.8772(3)
H1B H 0.1056 0.6311 0.8110
H2B H 0.1628 0.7760 0.8688
C3B C 0.00519(19) 0.8043(3) 0.8685(2)
H3B H 0.0013 0.8737 0.9388
H4B H -0.0532 0.7340 0.8707
C5B C -0.09365(19) 1.0115(3) 0.7556(2)
C6B C -0.1753(2) 1.2212(4) 0.6506(3)
H5B H -0.1667 1.2853 0.5791
H6B H -0.1756 1.2867 0.7222
H7B H -0.2390 1.1653 0.6445
loop_
_geom_bond_atom_site_label_1
_geom_bond_atom_site_label_2
_geom_bond_site_symmetry_1
_geom_bond_site_symmetry_2
N1 C1 1_555 1_555
C1 C2 1_555 1_555
O1 C5 1_555 1_555
O2 C5 1_555 1_555
C2 H1 1_555 1_555
H2 C2 1_555 1_555
C3 C2 1_555 1_555
H3 C3 1_555 1_555
H4 C3 1_555 1_555
C4 C3 1_555 1_555
C5 C4 1_555 1_555
C6 O2 1_555 1_555
H5 C6 1_555 1_555
H6 C6 1_555 1_555
H7 C6 1_555 1_555
N1B C1B 1_555 1_555
C1B C2B 1_555 1_555
O1B C5B 1_555 1_555
O2B C5B 1_555 1_555
C2B H1B 1_555 1_555
H2B C2B 1_555 1_555
C3B C4 1_555 1_555
H3B C3B 1_555 1_555
H4B C3B 1_555 1_555
C5B C4 1_555 1_555
C6B O2B 1_555 1_555
H5B C6B 1_555 1_555
H6B C6B 1_555 1_555
H7B C6B 1_555 1_555
C2B C3B 1_555 1_555

#END
