
#######################################################################
#
#                 Cambridge Crystallographic Data Centre
#                                CCDC 
#
#######################################################################
#
# If this CIF has been generated from an entry in the Cambridge 
# Structural Database, then it will include bibliographic, chemical, 
# crystal, experimental, refinement or atomic coordinate data resulting 
# from the CCDC's data processing and validation procedures.
#
#######################################################################

data_SIZCUC
_chemical_formula_moiety         'C28 H17 F1 N2 O2'
_chemical_name_systematic        
(5-fluoro-2-hydroxyphenyl)[2-(quinolin-2-yl)pyrrolo[1,2-a]quinolin-1-yl]methanone
_symmetry_cell_setting           monoclinic
_symmetry_space_group_name_H-M   'P 21/c'
_symmetry_Int_Tables_number      14
_space_group_name_Hall           '-P 2ybc'
loop_
_symmetry_equiv_pos_site_id
_symmetry_equiv_pos_as_xyz
1 x,y,z
2 -x,1/2+y,1/2-z
3 -x,-y,-z
4 x,1/2-y,1/2+z
_cell_length_a                   18.3082(12)
_cell_length_b                   7.4274(4)
_cell_length_c                   15.8200(11)
_cell_angle_alpha                90
_cell_angle_beta                 105.707(2)
_cell_angle_gamma                90
_cell_volume                     2070.91
_exptl_crystal_colour            yellow
_exptl_crystal_description       tabular
_cell_formula_units_Z            4
loop_
_atom_site_label
_atom_site_type_symbol
_atom_site_fract_x
_atom_site_fract_y
_atom_site_fract_z
F1 F 0.23328(6) 1.05622(15) 0.30218(7)
O1 O 0.29837(8) 0.62802(16) 0.01423(8)
O2 O 0.23800(8) 0.43552(17) 0.11861(9)
H1 H 0.2580(13) 0.460(3) 0.0754(16)
N1 N 0.15376(8) 0.89626(19) -0.04374(9)
N2 N 0.38628(7) 1.01566(19) 0.05385(9)
C1 C -0.07976(11) 0.8201(3) -0.12573(14)
H2 H -0.1330 0.8003 -0.1429
C2 C -0.05179(10) 0.9866(3) -0.13426(14)
H3 H -0.0857 1.0822 -0.1577
C3 C 0.02740(10) 1.0192(2) -0.10864(12)
C4 C 0.07692(9) 0.8760(2) -0.07201(11)
C5 C 0.18259(9) 1.0565(2) -0.05107(11)
C6 C 0.26587(9) 1.0742(2) -0.01803(11)
C7 C 0.31405(9) 0.9449(2) 0.02937(11)
C8 C 0.29123(9) 0.7640(2) 0.05566(12)
C9 C 0.26191(9) 0.7558(2) 0.13385(11)
C10 C 0.23740(9) 0.5927(2) 0.16171(11)
C11 C 0.21206(10) 0.5884(3) 0.23722(13)
H4 H 0.1950 0.4783 0.2558
C12 C 0.21160(10) 0.7436(3) 0.28504(12)
H5 H 0.1950 0.7410 0.3369
C13 C 0.06084(10) 1.1875(3) -0.11624(13)
H6 H 0.0299 1.2872 -0.1409
C14 C 0.13779(10) 1.2064(2) -0.08797(12)
H7 H 0.1609 1.3190 -0.0930
C15 C 0.04621(10) 0.7039(3) -0.06512(13)
H8 H 0.0790 0.6062 -0.0419
C16 C -0.03045(11) 0.6776(3) -0.09176(14)
H9 H -0.0506 0.5612 -0.0872
C17 C 0.45565(9) 0.9419(2) 0.10634(11)
C18 C 0.52065(10) 1.0516(3) 0.11974(11)
C19 C 0.51646(10) 1.2299(3) 0.08322(12)
H10 H 0.5611 1.3009 0.0931
C20 C 0.45024(10) 1.2966(2) 0.03546(12)
H11 H 0.4480 1.4148 0.0119
C21 C 0.38344(10) 1.1909(2) 0.01994(11)
C22 C 0.30955(9) 1.2265(2) -0.02521(11)
H12 H 0.2912 1.3345 -0.0558
C23 C 0.59008(10) 0.9840(3) 0.17114(12)
H13 H 0.6343 1.0564 0.1805
C24 C 0.59549(11) 0.8164(3) 0.20808(13)
H14 H 0.6430 0.7727 0.2425
C25 C 0.53032(11) 0.7097(3) 0.19468(13)
H15 H 0.5336 0.5935 0.2206
C26 C 0.46143(10) 0.7720(3) 0.14423(12)
H16 H 0.4176 0.6983 0.1353
C27 C 0.23564(10) 0.9026(2) 0.25635(11)
C28 C 0.26031(9) 0.9127(2) 0.18247(11)
H17 H 0.2762 1.0245 0.1643
loop_
_geom_bond_atom_site_label_1
_geom_bond_atom_site_label_2
_geom_bond_site_symmetry_1
_geom_bond_site_symmetry_2
F1 C27 1_555 1_555
O1 C8 1_555 1_555
O2 H1 1_555 1_555
N1 C4 1_555 1_555
N2 C7 1_555 1_555
C1 H2 1_555 1_555
C2 C1 1_555 1_555
H3 C2 1_555 1_555
C3 C2 1_555 1_555
C4 C3 1_555 1_555
C5 N1 1_555 1_555
C6 C5 1_555 1_555
C7 C6 1_555 1_555
C8 C7 1_555 1_555
C9 C8 1_555 1_555
C10 O2 1_555 1_555
C11 C10 1_555 1_555
H4 C11 1_555 1_555
C12 C11 1_555 1_555
H5 C12 1_555 1_555
C13 C3 1_555 1_555
H6 C13 1_555 1_555
C14 C5 1_555 1_555
H7 C14 1_555 1_555
C15 C4 1_555 1_555
H8 C15 1_555 1_555
C16 C1 1_555 1_555
H9 C16 1_555 1_555
C17 N2 1_555 1_555
C18 C17 1_555 1_555
C19 C18 1_555 1_555
H10 C19 1_555 1_555
C20 C19 1_555 1_555
H11 C20 1_555 1_555
C21 N2 1_555 1_555
C22 C6 1_555 1_555
H12 C22 1_555 1_555
C23 C18 1_555 1_555
H13 C23 1_555 1_555
C24 C23 1_555 1_555
H14 C24 1_555 1_555
C25 C24 1_555 1_555
H15 C25 1_555 1_555
C26 C17 1_555 1_555
H16 C26 1_555 1_555
C27 C12 1_555 1_555
C28 C9 1_555 1_555
H17 C28 1_555 1_555
C9 C10 1_555 1_555
C13 C14 1_555 1_555
C15 C16 1_555 1_555
C20 C21 1_555 1_555
C21 C22 1_555 1_555
C25 C26 1_555 1_555
C27 C28 1_555 1_555

#END
