
#######################################################################
#
#                 Cambridge Crystallographic Data Centre
#                                CCDC 
#
#######################################################################
#
# If this CIF has been generated from an entry in the Cambridge 
# Structural Database, then it will include bibliographic, chemical, 
# crystal, experimental, refinement or atomic coordinate data resulting 
# from the CCDC's data processing and validation procedures.
#
#######################################################################

data_SIZCEK
_chemical_formula_moiety         'C18 H20 N4'
_chemical_name_systematic        
(S,S)-N,N'-bis(Pyrid-2-ylmethylene)cyclohexane-1,2-diamine
_symmetry_cell_setting           orthorhombic
_symmetry_space_group_name_H-M   'P 21 21 21'
_symmetry_Int_Tables_number      19
_space_group_name_Hall           'P 2ac 2ab'
loop_
_symmetry_equiv_pos_site_id
_symmetry_equiv_pos_as_xyz
1 x,y,z
2 1/2-x,-y,1/2+z
3 -x,1/2+y,1/2-z
4 1/2+x,1/2-y,-z
_cell_length_a                   8.749(5)
_cell_length_b                   8.893(5)
_cell_length_c                   21.565(13)
_cell_angle_alpha                90
_cell_angle_beta                 90
_cell_angle_gamma                90
_cell_volume                     1677.86
_exptl_crystal_colour            colorless
_exptl_crystal_description       block
_chemical_melting_point          '138-140 deg.C'
_cell_formula_units_Z            4
_exptl_crystal_recrystallization_method methanol
loop_
_atom_site_label
_atom_site_type_symbol
_atom_site_fract_x
_atom_site_fract_y
_atom_site_fract_z
N1 N 0.9379(3) 0.7869(2) 0.04707(11)
N2 N 1.0745(3) 0.6112(3) 0.18351(10)
N3 N 0.7298(3) 1.0344(2) 0.07527(9)
N4 N 0.3786(3) 0.9632(3) 0.15137(11)
C1 C 0.9480(3) 0.9346(3) 0.01739(12)
H1 H 1.0131 1.0003 0.0426
C2 C 1.0190(3) 0.9163(3) -0.04635(12)
H2 H 1.1226 0.8792 -0.0418
H3 H 0.9614 0.8420 -0.0695
C3 C 1.0220(4) 1.0623(3) -0.08253(13)
H4 H 1.0635 1.0443 -0.1236
H5 H 1.0878 1.1340 -0.0616
C4 C 0.8622(3) 1.1271(3) -0.08817(12)
H6 H 0.7985 1.0593 -0.1121
H7 H 0.8664 1.2228 -0.1097
C5 C 0.7930(3) 1.1492(3) -0.02381(12)
H8 H 0.8530 1.2229 -0.0013
H9 H 0.6901 1.1883 -0.0280
C6 C 0.7882(3) 1.0031(3) 0.01313(11)
H10 H 0.7198 0.9319 -0.0077
C7 C 1.0082(3) 0.7642(3) 0.09654(13)
H11 H 1.0645 0.8423 0.1139
C8 C 1.0049(3) 0.6172(3) 0.12839(12)
C9 C 0.9357(3) 0.4936(3) 0.10149(12)
H12 H 0.8893 0.5009 0.0628
C10 C 0.9369(3) 0.3584(3) 0.13356(13)
H13 H 0.8905 0.2735 0.1168
C11 C 1.0073(4) 0.3517(4) 0.19001(14)
H14 H 1.0103 0.2623 0.2124
C12 C 1.0735(4) 0.4797(4) 0.21290(13)
H15 H 1.1207 0.4743 0.2515
C13 C 0.5970(3) 0.9897(3) 0.08758(12)
H16 H 0.5447 0.9346 0.0577
C14 C 0.5201(3) 1.0199(3) 0.14675(12)
C15 C 0.5852(4) 1.1039(3) 0.19335(13)
H17 H 0.6837 1.1415 0.1887
C16 C 0.5042(5) 1.1322(4) 0.24677(16)
H18 H 0.5469 1.1875 0.2790
C17 C 0.3579(4) 1.0762(4) 0.25100(15)
H19 H 0.2980 1.0955 0.2857
C18 C 0.3031(4) 0.9921(4) 0.20319(16)
H20 H 0.2054 0.9519 0.2072
loop_
_geom_bond_atom_site_label_1
_geom_bond_atom_site_label_2
_geom_bond_site_symmetry_1
_geom_bond_site_symmetry_2
N1 C1 1_555 1_555
N2 C8 1_555 1_555
N3 C6 1_555 1_555
N4 C14 1_555 1_555
C1 H1 1_555 1_555
C2 C1 1_555 1_555
H2 C2 1_555 1_555
H3 C2 1_555 1_555
C3 C2 1_555 1_555
H4 C3 1_555 1_555
H5 C3 1_555 1_555
C4 C3 1_555 1_555
H6 C4 1_555 1_555
H7 C4 1_555 1_555
C5 C4 1_555 1_555
H8 C5 1_555 1_555
H9 C5 1_555 1_555
C6 C1 1_555 1_555
H10 C6 1_555 1_555
C7 N1 1_555 1_555
H11 C7 1_555 1_555
C8 C7 1_555 1_555
C9 C8 1_555 1_555
H12 C9 1_555 1_555
C10 C9 1_555 1_555
H13 C10 1_555 1_555
C11 C10 1_555 1_555
H14 C11 1_555 1_555
C12 N2 1_555 1_555
H15 C12 1_555 1_555
C13 N3 1_555 1_555
H16 C13 1_555 1_555
C14 C13 1_555 1_555
C15 C14 1_555 1_555
H17 C15 1_555 1_555
C16 C15 1_555 1_555
H18 C16 1_555 1_555
C17 C16 1_555 1_555
H19 C17 1_555 1_555
C18 N4 1_555 1_555
H20 C18 1_555 1_555
C5 C6 1_555 1_555
C11 C12 1_555 1_555
C17 C18 1_555 1_555

#END
