
#######################################################################
#
#                 Cambridge Crystallographic Data Centre
#                                CCDC 
#
#######################################################################
#
# If this CIF has been generated from an entry in the Cambridge 
# Structural Database, then it will include bibliographic, chemical, 
# crystal, experimental, refinement or atomic coordinate data resulting 
# from the CCDC's data processing and validation procedures.
#
#######################################################################

data_SIZCEM
_chemical_formula_moiety         'C14 H8 Br1 N1 O2'
_chemical_name_systematic        
2-[(6-bromopyridin-2-yl)methylidene]-1-benzofuran-3(2H)-one
_symmetry_cell_setting           monoclinic
_symmetry_space_group_name_H-M   'P 21/c'
_symmetry_Int_Tables_number      14
_space_group_name_Hall           '-P 2ybc'
loop_
_symmetry_equiv_pos_site_id
_symmetry_equiv_pos_as_xyz
1 x,y,z
2 -x,1/2+y,1/2-z
3 -x,-y,-z
4 x,1/2-y,1/2+z
_cell_length_a                   8.0534(4)
_cell_length_b                   19.6802(10)
_cell_length_c                   7.3808(4)
_cell_angle_alpha                90
_cell_angle_beta                 98.570(3)
_cell_angle_gamma                90
_cell_volume                     1156.74
_exptl_crystal_colour            colorless
_exptl_crystal_description       lamellar
_cell_formula_units_Z            4
loop_
_atom_site_label
_atom_site_type_symbol
_atom_site_fract_x
_atom_site_fract_y
_atom_site_fract_z
Br1 Br 1.38841(3) 0.48880(2) 0.69393(4)
O1 O 0.66864(19) 0.64306(7) 0.9550(2)
O2 O 0.8891(2) 0.79601(8) 0.9197(2)
N1 N 1.1268(2) 0.56606(9) 0.7742(3)
C1 C 0.3082(3) 0.73267(13) 1.0919(3)
H1 H 0.2003 0.7249 1.1254
C2 C 0.4025(3) 0.67726(12) 1.0497(3)
H2 H 0.3619 0.6320 1.0520
C3 C 0.5584(3) 0.69200(11) 1.0042(3)
C4 C 0.8077(3) 0.67777(11) 0.9134(3)
C5 C 0.9383(3) 0.64931(11) 0.8501(3)
H3 H 1.0251 0.6799 0.8305
C6 C 0.9683(3) 0.57857(11) 0.8064(3)
C7 C 1.1622(3) 0.50327(11) 0.7322(3)
C8 C 1.0513(3) 0.44920(11) 0.7124(3)
H4 H 1.0842 0.4052 0.6783
C9 C 0.7864(3) 0.75210(11) 0.9421(3)
C10 C 0.6209(3) 0.75760(11) 0.9988(3)
C11 C 0.5232(3) 0.81244(12) 1.0397(3)
H5 H 0.5635 0.8577 1.0353
C12 C 0.3668(3) 0.79948(13) 1.0867(3)
H6 H 0.2985 0.8361 1.1157
C13 C 0.8899(3) 0.46274(12) 0.7450(3)
H7 H 0.8083 0.4275 0.7333
C14 C 0.8469(3) 0.52763(11) 0.7947(3)
H8 H 0.7371 0.5372 0.8202
loop_
_geom_bond_atom_site_label_1
_geom_bond_atom_site_label_2
_geom_bond_site_symmetry_1
_geom_bond_site_symmetry_2
Br1 C7 1_555 1_555
O1 C3 1_555 1_555
O2 C9 1_555 1_555
N1 C6 1_555 1_555
C1 H1 1_555 1_555
C2 C1 1_555 1_555
H2 C2 1_555 1_555
C3 C2 1_555 1_555
C4 O1 1_555 1_555
C5 C4 1_555 1_555
H3 C5 1_555 1_555
C6 C5 1_555 1_555
C7 N1 1_555 1_555
C8 C7 1_555 1_555
H4 C8 1_555 1_555
C9 C4 1_555 1_555
C10 C3 1_555 1_555
C11 C10 1_555 1_555
H5 C11 1_555 1_555
C12 C1 1_555 1_555
H6 C12 1_555 1_555
C13 C8 1_555 1_555
H7 C13 1_555 1_555
C14 C6 1_555 1_555
H8 C14 1_555 1_555
C9 C10 1_555 1_555
C11 C12 1_555 1_555
C13 C14 1_555 1_555

#END
