
#######################################################################
#
#                 Cambridge Crystallographic Data Centre
#                                CCDC 
#
#######################################################################
#
# If this CIF has been generated from an entry in the Cambridge 
# Structural Database, then it will include bibliographic, chemical, 
# crystal, experimental, refinement or atomic coordinate data resulting 
# from the CCDC's data processing and validation procedures.
#
#######################################################################

data_SIZCOW
_chemical_formula_moiety         'C18 H9 F2 N1 O2'
_chemical_name_systematic        
6,8-difluoro-2-(quinolin-2-yl)-4H-1-benzopyran-4-one
_symmetry_cell_setting           orthorhombic
_symmetry_space_group_name_H-M   'P n a 21'
_symmetry_Int_Tables_number      33
_space_group_name_Hall           'P 2c -2n'
loop_
_symmetry_equiv_pos_site_id
_symmetry_equiv_pos_as_xyz
1 x,y,z
2 -x,-y,1/2+z
3 1/2-x,1/2+y,1/2+z
4 1/2+x,1/2-y,z
_cell_length_a                   7.4945(9)
_cell_length_b                   29.594(4)
_cell_length_c                   5.8859(7)
_cell_angle_alpha                90
_cell_angle_beta                 90
_cell_angle_gamma                90
_cell_volume                     1305.45
_exptl_crystal_colour            colorless
_exptl_crystal_description       Columnar
_cell_formula_units_Z            4
loop_
_atom_site_label
_atom_site_type_symbol
_atom_site_fract_x
_atom_site_fract_y
_atom_site_fract_z
F1 F 0.7840(2) 0.18220(5) 0.0841(3)
F2 F 0.9703(2) 0.30671(5) 0.5174(3)
O1 O 0.8270(3) 0.36405(6) 0.2222(4)
O2 O 0.5835(3) 0.32063(6) -0.3600(4)
N1 N 0.7072(3) 0.47132(7) 0.0035(4)
C1 C 0.7944(4) 0.22781(8) 0.1095(6)
C2 C 0.7252(4) 0.25496(9) -0.0539(5)
H1 H 0.6724 0.2426 -0.1869
C3 C 0.7342(3) 0.30193(9) -0.0201(5)
C4 C 0.8144(3) 0.31889(9) 0.1751(5)
C5 C 0.7528(3) 0.39331(9) 0.0725(5)
C6 C 0.7671(3) 0.44084(9) 0.1500(5)
C7 C 0.7176(3) 0.51564(9) 0.0650(5)
C8 C 0.6568(4) 0.54853(10) -0.0933(5)
H2 H 0.6051 0.5394 -0.2333
C9 C 0.6732(4) 0.59333(9) -0.0426(5)
H3 H 0.6331 0.6153 -0.1487
C10 C 0.7486(4) 0.60747(9) 0.1645(6)
H4 H 0.7614 0.6388 0.1945
C11 C 0.6737(4) 0.38060(9) -0.1228(5)
H5 H 0.6274 0.4031 -0.2216
C12 C 0.6574(4) 0.33371(9) -0.1857(5)
C13 C 0.8036(4) 0.57678(10) 0.3229(5)
H6 H 0.8511 0.5868 0.4638
C14 C 0.7893(3) 0.52971(10) 0.2756(5)
C15 C 0.8462(3) 0.49597(9) 0.4286(5)
H7 H 0.8907 0.5041 0.5741
C16 C 0.8370(3) 0.45145(9) 0.3662(5)
H8 H 0.8766 0.4283 0.4659
C17 C 0.8869(4) 0.28931(9) 0.3340(5)
C18 C 0.8769(4) 0.24338(9) 0.3061(5)
H9 H 0.9241 0.2231 0.4159
loop_
_geom_bond_atom_site_label_1
_geom_bond_atom_site_label_2
_geom_bond_site_symmetry_1
_geom_bond_site_symmetry_2
F1 C1 1_555 1_555
F2 C17 1_555 1_555
O1 C4 1_555 1_555
O2 C12 1_555 1_555
N1 C6 1_555 1_555
C1 C2 1_555 1_555
C2 H1 1_555 1_555
C3 C2 1_555 1_555
C4 C3 1_555 1_555
C5 O1 1_555 1_555
C6 C5 1_555 1_555
C7 N1 1_555 1_555
C8 C7 1_555 1_555
H2 C8 1_555 1_555
C9 C8 1_555 1_555
H3 C9 1_555 1_555
C10 C9 1_555 1_555
H4 C10 1_555 1_555
C11 C5 1_555 1_555
H5 C11 1_555 1_555
C12 C3 1_555 1_555
C13 C10 1_555 1_555
H6 C13 1_555 1_555
C14 C7 1_555 1_555
C15 C14 1_555 1_555
H7 C15 1_555 1_555
C16 C6 1_555 1_555
H8 C16 1_555 1_555
C17 C4 1_555 1_555
C18 C1 1_555 1_555
H9 C18 1_555 1_555
C11 C12 1_555 1_555
C13 C14 1_555 1_555
C15 C16 1_555 1_555
C17 C18 1_555 1_555

#END
