
#######################################################################
#
#                 Cambridge Crystallographic Data Centre
#                                CCDC 
#
#######################################################################
#
# If this CIF has been generated from an entry in the Cambridge 
# Structural Database, then it will include bibliographic, chemical, 
# crystal, experimental, refinement or atomic coordinate data resulting 
# from the CCDC's data processing and validation procedures.
#
#######################################################################

data_SIZDAI
_chemical_formula_moiety         'C17 H18 N2 O6'
_chemical_name_systematic        
3-(8-(2-Hydroxy-4-methoxyphenyl)-3,6-dioxa-2,7-diazaocta-1,7-dien-1-yl)benzene-1,2-diol
_symmetry_cell_setting           monoclinic
_symmetry_space_group_name_H-M   'P 21/n'
_symmetry_Int_Tables_number      14
_space_group_name_Hall           '-P 2yn'
loop_
_symmetry_equiv_pos_site_id
_symmetry_equiv_pos_as_xyz
1 x,y,z
2 1/2-x,1/2+y,1/2-z
3 -x,-y,-z
4 1/2+x,1/2-y,1/2+z
_cell_length_a                   4.8429(4)
_cell_length_b                   10.2315(8)
_cell_length_c                   33.291(3)
_cell_angle_alpha                90
_cell_angle_beta                 92.1540(10)
_cell_angle_gamma                90
_cell_volume                     1648.41
_exptl_crystal_colour            colorless
_exptl_crystal_description       prism
_cell_formula_units_Z            4
loop_
_atom_site_label
_atom_site_type_symbol
_atom_site_fract_x
_atom_site_fract_y
_atom_site_fract_z
N1 N 0.8379(7) 0.7719(3) 0.50825(8)
N2 N 0.6357(7) 0.6638(3) 0.37850(8)
O1 O 1.0245(5) 0.8150(2) 0.47952(7)
O2 O 0.8516(5) 0.7208(2) 0.40178(7)
O3 O 0.5751(5) 0.6156(2) 0.55636(7)
H1 H 0.6787 0.6350 0.5384
O4 O -0.0071(6) 0.7978(2) 0.64857(8)
O5 O 0.2595(5) 0.4919(2) 0.35288(6)
H2 H 0.3823 0.5200 0.3682
O6 O -0.1286(6) 0.4294(3) 0.29820(8)
H3 H -0.0697 0.3912 0.3184
C1 C 1.1372(8) 0.7035(3) 0.46011(10)
H4 H 1.2076 0.6430 0.4805
H5 H 1.2916 0.7313 0.4445
C2 C 0.9333(8) 0.6340(3) 0.43319(9)
H6 H 1.0163 0.5562 0.4222
H7 H 0.7741 0.6081 0.4481
C3 C 0.7219(8) 0.8673(3) 0.52501(10)
H8 H 0.7652 0.9518 0.5171
C4 C 0.5268(8) 0.8496(3) 0.55570(10)
C5 C 0.4603(8) 0.7262(3) 0.57125(10)
C6 C 0.2797(8) 0.7131(3) 0.60145(11)
H9 H 0.2383 0.6305 0.6112
C7 C 0.1594(8) 0.8214(4) 0.61736(11)
C8 C 0.2091(8) 0.9445(3) 0.60205(11)
H10 H 0.1201 1.0177 0.6119
C9 C 0.3927(8) 0.9555(3) 0.57205(10)
H11 H 0.4295 1.0384 0.5621
C10 C -0.1410(9) 0.9040(4) 0.66657(11)
H12 H -0.0062 0.9587 0.6801
H13 H -0.2687 0.8718 0.6856
H14 H -0.2394 0.9538 0.6462
C11 C 0.5689(9) 0.7315(3) 0.34751(11)
H15 H 0.6659 0.8083 0.3431
C12 C 0.3538(9) 0.6960(4) 0.31926(10)
C13 C 0.2093(8) 0.5792(4) 0.32265(10)
C14 C 0.0055(9) 0.5458(4) 0.29477(12)
C15 C -0.0667(9) 0.6290(5) 0.26402(12)
H16 H -0.2087 0.6072 0.2457
C16 C 0.0733(11) 0.7457(5) 0.26051(12)
H17 H 0.0242 0.8024 0.2396
C17 C 0.2852(9) 0.7798(4) 0.28748(11)
H18 H 0.3808 0.8577 0.2844
loop_
_geom_bond_atom_site_label_1
_geom_bond_atom_site_label_2
_geom_bond_site_symmetry_1
_geom_bond_site_symmetry_2
N1 O1 1_555 1_555
N2 O2 1_555 1_555
O1 C1 1_555 1_555
O2 C2 1_555 1_555
O3 H1 1_555 1_555
O4 C7 1_555 1_555
O5 H2 1_555 1_555
O6 H3 1_555 1_555
C1 H4 1_555 1_555
H5 C1 1_555 1_555
C2 C1 1_555 1_555
H6 C2 1_555 1_555
H7 C2 1_555 1_555
C3 N1 1_555 1_555
H8 C3 1_555 1_555
C4 C3 1_555 1_555
C5 O3 1_555 1_555
C6 C5 1_555 1_555
H9 C6 1_555 1_555
C7 C6 1_555 1_555
C8 C7 1_555 1_555
H10 C8 1_555 1_555
C9 C4 1_555 1_555
H11 C9 1_555 1_555
C10 O4 1_555 1_555
H12 C10 1_555 1_555
H13 C10 1_555 1_555
H14 C10 1_555 1_555
C11 N2 1_555 1_555
H15 C11 1_555 1_555
C12 C11 1_555 1_555
C13 O5 1_555 1_555
C14 O6 1_555 1_555
C15 C14 1_555 1_555
H16 C15 1_555 1_555
C16 C15 1_555 1_555
H17 C16 1_555 1_555
C17 C12 1_555 1_555
H18 C17 1_555 1_555
C4 C5 1_555 1_555
C8 C9 1_555 1_555
C12 C13 1_555 1_555
C13 C14 1_555 1_555
C16 C17 1_555 1_555

#END
