
#######################################################################
#
#                 Cambridge Crystallographic Data Centre
#                                CCDC 
#
#######################################################################
#
# If this CIF has been generated from an entry in the Cambridge 
# Structural Database, then it will include bibliographic, chemical, 
# crystal, experimental, refinement or atomic coordinate data resulting 
# from the CCDC's data processing and validation procedures.
#
#######################################################################

data_SIZFOZ
_chemical_formula_moiety         'C42 H6 F20 N4 O4,C1 H2 Cl2'
_chemical_name_systematic        
'2,7,12,17-tetrakis(pentafluorophenyl)-4,20-dioxa-21,22,23,24-tetra-azapentacyclo[16.2.1.1^3,6^.1^8,11^.1^13,16^]tetracosa-1(21),2,6(24),7,9,11,13,15,17-nonaene-5,19-dione dichloromethane solvate'
_symmetry_cell_setting           monoclinic
_symmetry_space_group_name_H-M   'P 21/n'
_symmetry_Int_Tables_number      14
_space_group_name_Hall           '-P 2yn'
loop_
_symmetry_equiv_pos_site_id
_symmetry_equiv_pos_as_xyz
1 x,y,z
2 1/2-x,1/2+y,1/2-z
3 -x,-y,-z
4 1/2+x,1/2-y,1/2+z
_cell_length_a                   12.6745(6)
_cell_length_b                   12.0132(5)
_cell_length_c                   26.3857(11)
_cell_angle_alpha                90
_cell_angle_beta                 99.5245(17)
_cell_angle_gamma                90
_cell_volume                     3962.14
_exptl_crystal_colour            black
_exptl_crystal_description       plate
_cell_formula_units_Z            4
loop_
_atom_site_label
_atom_site_type_symbol
_atom_site_fract_x
_atom_site_fract_y
_atom_site_fract_z
C1 C 0.2481(2) 0.2956(2) 0.23320(10)
O1 O 0.12397(19) 0.1691(2) 0.26917(9)
C2 C 0.2073(5) 0.2210(5) 0.2704(2)
C3 C 0.3711(2) 0.2815(2) 0.30006(10)
C4 C 0.4633(2) 0.2902(2) 0.33678(10)
C5 C 0.5566(2) 0.3441(2) 0.32775(10)
O2 O 0.80771(18) 0.4159(2) 0.37657(9)
C6 C 0.7226(7) 0.4023(6) 0.3494(2)
O3 O 0.6420(3) 0.3416(5) 0.3670(2)
C7 C 0.6761(2) 0.4401(2) 0.29698(10)
C8 C 0.7245(2) 0.5085(2) 0.26540(10)
C9 C 0.6721(2) 0.5484(2) 0.21760(10)
C10 C 0.7165(3) 0.6127(3) 0.18096(14)
H1 H 0.788393 0.637697 0.184358
C11 C 0.6375(3) 0.6319(6) 0.1401(2)
H2 H 0.644868 0.672444 0.110007
C12 C 0.5413(2) 0.5801(2) 0.15067(10)
C13 C 0.4414(2) 0.5789(2) 0.11820(10)
C14 C 0.3488(2) 0.5210(2) 0.12465(10)
C15 C 0.2495(4) 0.5209(4) 0.08969(17)
H3 H 0.235181 0.562494 0.058699
C16 C 0.1784(5) 0.4518(4) 0.10775(17)
H4 H 0.107008 0.436217 0.091966
C17 C 0.2329(2) 0.4079(2) 0.15490(10)
C18 C 0.1907(2) 0.3322(2) 0.18693(10)
C19 C 0.4589(2) 0.2502(2) 0.38992(10)
C20 C 0.3857(2) 0.2970(2) 0.41805(11)
C21 C 0.3824(2) 0.2665(2) 0.46790(11)
C22 C 0.4535(2) 0.1881(2) 0.49165(10)
C23 C 0.5264(2) 0.1396(2) 0.46505(10)
C24 C 0.5283(2) 0.1707(2) 0.41472(10)
C25 C 0.8366(2) 0.5464(2) 0.28313(10)
C26 C 0.9232(2) 0.4745(2) 0.28700(10)
C27 C 1.0263(2) 0.5090(2) 0.30508(11)
C28 C 1.0442(2) 0.6169(3) 0.32196(12)
C29 C 0.9599(2) 0.6910(2) 0.31854(11)
C30 C 0.8580(2) 0.6558(2) 0.29836(10)
C31 C 0.4339(2) 0.6492(2) 0.07099(10)
C32 C 0.4163(2) 0.6056(2) 0.02144(11)
C33 C 0.4148(2) 0.6705(3) -0.02166(11)
C34 C 0.4313(2) 0.7842(3) -0.01630(11)
C35 C 0.4459(2) 0.8308(2) 0.03211(12)
C36 C 0.4470(2) 0.7643(2) 0.07469(11)
C37 C 0.0804(2) 0.2915(2) 0.16873(10)
C38 C 0.0601(2) 0.1848(2) 0.14960(11)
C39 C -0.0416(2) 0.1495(3) 0.12925(11)
C40 C -0.1271(2) 0.2211(3) 0.12826(11)
C41 C -0.1104(2) 0.3273(3) 0.14777(11)
C42 C -0.0079(2) 0.3607(2) 0.16762(10)
N1 N 0.34997(19) 0.3270(2) 0.25320(9)
N2 N 0.57422(18) 0.3989(2) 0.28610(9)
N3 N 0.56695(17) 0.5296(2) 0.19794(9)
H5 H 0.522258 0.490995 0.213236
N4 N 0.33389(19) 0.45074(19) 0.16394(9)
H6 H 0.382373 0.435628 0.190974
F1 F 0.31625(14) 0.37445(15) 0.39665(7)
F2 F 0.31161(14) 0.31228(16) 0.49430(7)
F3 F 0.45158(15) 0.15925(15) 0.54055(6)
F4 F 0.59521(14) 0.06300(14) 0.48777(6)
F5 F 0.59929(13) 0.12043(14) 0.39004(6)
F6 F 0.90738(14) 0.36805(14) 0.27210(7)
F7 F 1.10936(14) 0.43942(17) 0.30634(8)
F8 F 1.14278(15) 0.65060(18) 0.34176(9)
F9 F 0.97751(16) 0.79578(16) 0.33524(8)
F10 F 0.77819(13) 0.72992(14) 0.29425(7)
F11 F 0.40062(14) 0.49559(14) 0.01464(7)
F12 F 0.40002(16) 0.62444(17) -0.06834(7)
F13 F 0.43248(16) 0.84801(17) -0.05768(7)
F14 F 0.45834(16) 0.94117(15) 0.03795(8)
F15 F 0.46076(15) 0.81295(15) 0.12101(7)
F16 F 0.14113(15) 0.11302(16) 0.15012(8)
F17 F -0.05794(16) 0.04720(16) 0.10941(8)
F18 F -0.22542(14) 0.18703(18) 0.10765(7)
F19 F -0.19296(14) 0.39713(16) 0.14674(8)
F20 F 0.00649(14) 0.46526(14) 0.18593(7)
O4 O 0.2885(3) 0.2167(4) 0.31246(18)
C43 C 0.7536(4) 0.3953(5) 0.5047(3)
H7 H 0.766093 0.427852 0.471685
H8 H 0.800323 0.434710 0.532801
Cl1 Cl 0.6185(6) 0.4155(10) 0.5112(7)
Cl2 Cl 0.78788(19) 0.2539(3) 0.5063(2)
C44? C 0.213(6) 0.206(4) 0.263(2)
H9? H 0.150070 0.162824 0.254991
C45? C 0.292(4) 0.198(4) 0.305(3)
H10? H 0.293305 0.147045 0.332508
C46? C 0.731(4) 0.418(4) 0.3481(11)
H11? H 0.800314 0.440841 0.364908
C47? C 0.655(3) 0.356(5) 0.3649(16)
H12? H 0.664094 0.322346 0.397977
O5? O 0.793(3) 0.679(3) 0.1869(13)
C48? C 0.709(4) 0.633(6) 0.184(2)
O6? O 0.627(4) 0.641(7) 0.143(2)
O7? O 0.098(2) 0.465(2) 0.0889(11)
C49? C 0.190(3) 0.4728(17) 0.1088(7)
O8? O 0.2597(18) 0.542(2) 0.0899(9)
C50? C 0.7453(15) 0.3978(14) 0.5348(12)
H13? H 0.787447 0.445047 0.514719
H14? H 0.763391 0.420870 0.571186
Cl3? Cl 0.6092(18) 0.424(3) 0.514(2)
Cl4? Cl 0.7856(8) 0.2596(8) 0.5298(6)
O9? O 0.196(2) 0.234(3) 0.2632(11)
O10? O 0.2500(16) 0.1741(18) 0.3432(7)
C51? C 0.270(2) 0.228(5) 0.3075(16)
O11? O 0.188(3) 0.4535(17) 0.1090(6)
O12? O 0.2243(15) 0.5717(17) 0.0460(7)
C52? C 0.2508(19) 0.5247(19) 0.0861(7)
loop_
_geom_bond_atom_site_label_1
_geom_bond_atom_site_label_2
_geom_bond_site_symmetry_1
_geom_bond_site_symmetry_2
C1 C2 1_555 1_555
O1 C2 1_555 1_555
C2 O4 1_555 1_555
C3 C4 1_555 1_555
C4 C5 1_555 1_555
C5 O3 1_555 1_555
O2 C6 1_555 1_555
C6 O3 1_555 1_555
C7 C6 1_555 1_555
C8 C7 1_555 1_555
C9 C8 1_555 1_555
C10 C9 1_555 1_555
H1 C10 1_555 1_555
C11 C10 1_555 1_555
H2 C11 1_555 1_555
C12 C11 1_555 1_555
C13 C12 1_555 1_555
C14 C13 1_555 1_555
C15 C14 1_555 1_555
H3 C15 1_555 1_555
C16 C15 1_555 1_555
H4 C16 1_555 1_555
C17 C16 1_555 1_555
C18 C1 1_555 1_555
C19 C4 1_555 1_555
C20 C19 1_555 1_555
C21 C20 1_555 1_555
C22 C21 1_555 1_555
C23 C22 1_555 1_555
C24 C19 1_555 1_555
C25 C8 1_555 1_555
C26 C25 1_555 1_555
C27 C26 1_555 1_555
C28 C27 1_555 1_555
C29 C28 1_555 1_555
C30 C25 1_555 1_555
C31 C13 1_555 1_555
C32 C31 1_555 1_555
C33 C32 1_555 1_555
C34 C33 1_555 1_555
C35 C34 1_555 1_555
C36 C31 1_555 1_555
C37 C18 1_555 1_555
C38 C37 1_555 1_555
C39 C38 1_555 1_555
C40 C39 1_555 1_555
C41 C40 1_555 1_555
C42 C37 1_555 1_555
N1 C1 1_555 1_555
N2 C5 1_555 1_555
N3 C9 1_555 1_555
H5 N3 1_555 1_555
N4 C14 1_555 1_555
H6 N4 1_555 1_555
F1 C20 1_555 1_555
F2 C21 1_555 1_555
F3 C22 1_555 1_555
F4 C23 1_555 1_555
F5 C24 1_555 1_555
F6 C26 1_555 1_555
F7 C27 1_555 1_555
F8 C28 1_555 1_555
F9 C29 1_555 1_555
F10 C30 1_555 1_555
F11 C32 1_555 1_555
F12 C33 1_555 1_555
F13 C34 1_555 1_555
F14 C35 1_555 1_555
F15 C36 1_555 1_555
F16 C38 1_555 1_555
F17 C39 1_555 1_555
F18 C40 1_555 1_555
F19 C41 1_555 1_555
F20 C42 1_555 1_555
O4 C3 1_555 1_555
C43 H7 1_555 1_555
H8 C43 1_555 1_555
Cl1 C43 1_555 1_555
Cl2 C43 1_555 1_555
C3 N1 1_555 1_555
C7 N2 1_555 1_555
C12 N3 1_555 1_555
C17 C18 1_555 1_555
C17 N4 1_555 1_555
C23 C24 1_555 1_555
C29 C30 1_555 1_555
C35 C36 1_555 1_555
C41 C42 1_555 1_555

#END
