
#######################################################################
#
#                 Cambridge Crystallographic Data Centre
#                                CCDC 
#
#######################################################################
#
# If this CIF has been generated from an entry in the Cambridge 
# Structural Database, then it will include bibliographic, chemical, 
# crystal, experimental, refinement or atomic coordinate data resulting 
# from the CCDC's data processing and validation procedures.
#
#######################################################################

data_SIZGAL
_chemical_formula_moiety         'C20 H19 N1 O2'
_chemical_name_systematic        
"ethyl 2'-methyl-3-phenylspiro[cyclopropane-1,3'-indole]-2-carboxylate"
_symmetry_cell_setting           monoclinic
_symmetry_space_group_name_H-M   'P 21/n'
_symmetry_Int_Tables_number      14
_space_group_name_Hall           '-P 2yn'
loop_
_symmetry_equiv_pos_site_id
_symmetry_equiv_pos_as_xyz
1 x,y,z
2 1/2-x,1/2+y,1/2-z
3 -x,-y,-z
4 1/2+x,1/2-y,1/2+z
_cell_length_a                   15.0835(8)
_cell_length_b                   6.1625(3)
_cell_length_c                   18.5351(11)
_cell_angle_alpha                90
_cell_angle_beta                 100.954(6)
_cell_angle_gamma                90
_cell_volume                     1691.49
_exptl_crystal_colour            colorless
_exptl_crystal_description       block
_cell_formula_units_Z            4
loop_
_atom_site_label
_atom_site_type_symbol
_atom_site_fract_x
_atom_site_fract_y
_atom_site_fract_z
O1 O 0.37822(12) 0.8946(3) 0.33845(9)
O2 O 0.29975(12) 0.5952(3) 0.30135(10)
N1 N 0.60766(12) 0.7200(3) 0.19512(11)
C1 C 0.51045(14) 0.5073(3) 0.24986(12)
C2 C 0.45725(13) 0.6724(3) 0.20266(12)
C3 C 0.36171(14) 0.6231(4) 0.15988(12)
H1 H 0.3372 0.4865 0.1747
C4 C 0.34462(14) 0.7455(4) 0.28906(12)
C5 C 0.33395(14) 0.6688(4) 0.07987(12)
C6 C 0.59971(15) 0.5414(4) 0.24183(13)
C7 C 0.37291(14) 0.7900(4) 0.21786(12)
H2 H 0.3657 0.9404 0.2006
C8 C 0.52756(15) 0.7953(4) 0.17246(12)
C9 C 0.48928(16) 0.3346(4) 0.29114(13)
H3 H 0.4301 0.3092 0.2964
C10 C 0.36344(18) 0.5347(4) 0.02934(14)
H4 H 0.4018 0.4194 0.0458
C11 C 0.27720(19) 0.8367(5) 0.05357(15)
H5 H 0.2561 0.9285 0.0864
C12 C 0.2509(2) 0.8715(5) -0.02121(16)
H6 H 0.2125 0.9863 -0.0382
C13 C 0.66873(17) 0.4088(5) 0.27549(15)
H7 H 0.7280 0.4335 0.2704
C14 C 0.55906(19) 0.2001(4) 0.32444(15)
H8 H 0.5463 0.0825 0.3522
C15 C 0.51103(19) 0.9880(4) 0.12348(15)
H9 H 0.4849 1.1021 0.1479
H10 H 0.4703 0.9496 0.0790
H11 H 0.5672 1.0369 0.1120
C16 C 0.3367(2) 0.5699(5) -0.04502(15)
H12 H 0.3569 0.4780 -0.0783
C17 C 0.3659(2) 0.8628(5) 0.41332(14)
H13 H 0.3073 0.7975 0.4130
H14 H 0.3674 1.0021 0.4379
C18 C 0.2810(2) 0.7377(5) -0.07011(16)
H15 H 0.2635 0.7615 -0.1203
C19 C 0.64711(19) 0.2384(5) 0.31695(16)
H16 H 0.6927 0.1471 0.3404
C20 C 0.4370(2) 0.7219(7) 0.45382(18)
H17 H 0.4305 0.5783 0.4334
H18 H 0.4318 0.7165 0.5046
H19 H 0.4951 0.7788 0.4499
loop_
_geom_bond_atom_site_label_1
_geom_bond_atom_site_label_2
_geom_bond_site_symmetry_1
_geom_bond_site_symmetry_2
O1 C4 1_555 1_555
O2 C4 1_555 1_555
N1 C6 1_555 1_555
C1 C2 1_555 1_555
C2 C3 1_555 1_555
C3 H1 1_555 1_555
C4 C7 1_555 1_555
C5 C3 1_555 1_555
C6 C1 1_555 1_555
C7 C2 1_555 1_555
H2 C7 1_555 1_555
C8 N1 1_555 1_555
C9 C1 1_555 1_555
H3 C9 1_555 1_555
C10 C5 1_555 1_555
H4 C10 1_555 1_555
C11 C5 1_555 1_555
H5 C11 1_555 1_555
C12 C11 1_555 1_555
H6 C12 1_555 1_555
C13 C6 1_555 1_555
H7 C13 1_555 1_555
C14 C9 1_555 1_555
H8 C14 1_555 1_555
C15 C8 1_555 1_555
H9 C15 1_555 1_555
H10 C15 1_555 1_555
H11 C15 1_555 1_555
C16 C10 1_555 1_555
H12 C16 1_555 1_555
C17 O1 1_555 1_555
H13 C17 1_555 1_555
H14 C17 1_555 1_555
C18 C12 1_555 1_555
H15 C18 1_555 1_555
C19 C13 1_555 1_555
H16 C19 1_555 1_555
C20 C17 1_555 1_555
H17 C20 1_555 1_555
H18 C20 1_555 1_555
H19 C20 1_555 1_555
C2 C8 1_555 1_555
C3 C7 1_555 1_555
C14 C19 1_555 1_555
C16 C18 1_555 1_555

#END
