
#######################################################################
#
#                 Cambridge Crystallographic Data Centre
#                                CCDC 
#
#######################################################################
#
# If this CIF has been generated from an entry in the Cambridge 
# Structural Database, then it will include bibliographic, chemical, 
# crystal, experimental, refinement or atomic coordinate data resulting 
# from the CCDC's data processing and validation procedures.
#
#######################################################################

data_SIZJAP
_chemical_formula_moiety         'C24 H14 Br2 O2'
_chemical_name_systematic        (+-)-2,15-dibromotetraphenylene-1,16-diol
_symmetry_cell_setting           monoclinic
_symmetry_space_group_name_H-M   'C 2/c'
_symmetry_Int_Tables_number      15
_space_group_name_Hall           '-C 2yn'
loop_
_symmetry_equiv_pos_site_id
_symmetry_equiv_pos_as_xyz
1 x,y,z
2 -x,y,1/2-z
3 1/2+x,1/2+y,z
4 1/2-x,1/2+y,1/2-z
5 -x,-y,-z
6 x,-y,1/2+z
7 1/2-x,1/2-y,-z
8 1/2+x,1/2-y,1/2+z
_cell_length_a                   22.832(8)
_cell_length_b                   13.024(5)
_cell_length_c                   20.260(8)
_cell_angle_alpha                90
_cell_angle_beta                 104.866(7)
_cell_angle_gamma                90
_cell_volume                     5822.94
_exptl_crystal_colour            colorless
_exptl_crystal_description       block
_cell_formula_units_Z            12
loop_
_atom_site_label
_atom_site_type_symbol
_atom_site_fract_x
_atom_site_fract_y
_atom_site_fract_z
Br1 Br 0.38450(3) -0.10295(6) 0.01014(4)
Br2 Br 0.02993(4) -0.03458(5) -0.16577(4)
O1 O 0.24867(17) -0.1412(3) -0.0163(2)
O2 O 0.15934(18) 0.0230(3) -0.0934(2)
C1 C 0.2234(2) 0.0032(4) 0.0411(3)
C2 C 0.2668(3) -0.0550(4) 0.0213(3)
C3 C 0.3265(3) -0.0236(5) 0.0388(3)
C4 C 0.3437(3) 0.0632(5) 0.0773(3)
H1 H 0.3842 0.0828 0.0899
C5 C 0.3012(3) 0.1206(4) 0.0968(3)
H2 H 0.3128 0.1801 0.1222
C6 C 0.2408(2) 0.0912(4) 0.0793(3)
C7 C 0.1943(2) 0.1535(4) 0.0999(3)
C8 C 0.1840(3) 0.2536(5) 0.0734(3)
H3 H 0.2062 0.2790 0.0444
C9 C 0.1406(3) 0.3133(5) 0.0907(4)
H4 H 0.1337 0.3794 0.0731
C10 C 0.1075(3) 0.2778(5) 0.1332(4)
H5 H 0.0776 0.3186 0.1436
C11 C 0.1187(2) 0.1816(5) 0.1601(3)
H6 H 0.0969 0.1584 0.1901
C12 C 0.1615(2) 0.1173(4) 0.1442(3)
C13 C 0.1725(2) 0.0147(5) 0.1755(3)
C14 C 0.1950(3) 0.0052(5) 0.2446(4)
H7 H 0.2045 0.0640 0.2711
C15 C 0.2037(3) -0.0896(7) 0.2757(4)
H8 H 0.2198 -0.0942 0.3227
C16 C 0.1888(4) -0.1775(6) 0.2373(4)
H9 H 0.1955 -0.2417 0.2580
C17 C 0.1644(3) -0.1694(5) 0.1693(4)
H10 H 0.1525 -0.2287 0.1438
C18 C 0.1567(3) -0.0746(5) 0.1365(3)
C19 C 0.1290(3) -0.0689(4) 0.0630(3)
C20 C 0.0695(3) -0.1037(4) 0.0374(4)
H11 H 0.0494 -0.1335 0.0671
C21 C 0.0403(3) -0.0946(5) -0.0307(4)
H12 H 0.0006 -0.1170 -0.0471
C22 C 0.0705(3) -0.0523(4) -0.0733(3)
C23 C 0.1297(3) -0.0191(4) -0.0505(3)
C24 C 0.1589(2) -0.0286(4) 0.0178(3)
Br3 Br 0.32805(3) -0.25015(5) 0.14529(4)
O3 O 0.46373(16) -0.2061(3) 0.1763(2)
C25 C 0.4660(2) -0.0587(4) 0.2446(3)
C26 C 0.4335(3) -0.1370(4) 0.2051(3)
C27 C 0.3720(3) -0.1405(4) 0.1972(3)
C28 C 0.3425(3) -0.0698(5) 0.2262(3)
H13 H 0.3008 -0.0746 0.2203
C29 C 0.3748(3) 0.0089(4) 0.2643(3)
H14 H 0.3547 0.0587 0.2830
C30 C 0.4368(3) 0.0141(4) 0.2746(3)
C31 C 0.4724(3) 0.0970(4) 0.3168(3)
C32 C 0.4765(3) 0.1008(5) 0.3853(4)
H15 H 0.4564 0.0519 0.4048
C33 C 0.5094(3) 0.1749(6) 0.4252(4)
H16 H 0.5120 0.1763 0.4718
C34 C 0.5393(3) 0.2485(5) 0.3967(4)
H17 H 0.5620 0.2994 0.4239
C35 C 0.5352(3) 0.2458(4) 0.3292(4)
H18 H 0.5549 0.2959 0.3103
C36 C 0.5023(3) 0.1705(4) 0.2869(3)
Br3A Br 0.67195(3) -0.25015(5) 0.35471(4)
O3A O 0.53627(16) -0.2061(3) 0.3237(2)
C25A C 0.5340(2) -0.0587(4) 0.2554(3)
C26A C 0.5665(3) -0.1370(4) 0.2949(3)
C27A C 0.6280(3) -0.1405(4) 0.3028(3)
C28A C 0.6575(3) -0.0698(5) 0.2738(3)
H13A H 0.6992 -0.0746 0.2797
C29A C 0.6252(3) 0.0089(4) 0.2357(3)
H14A H 0.6453 0.0587 0.2170
C30A C 0.5632(3) 0.0141(4) 0.2254(3)
C31A C 0.5276(3) 0.0970(4) 0.1832(3)
C32A C 0.5235(3) 0.1008(5) 0.1147(4)
H15A H 0.5436 0.0519 0.0952
C33A C 0.4906(3) 0.1749(6) 0.0748(4)
H16A H 0.4880 0.1763 0.0282
C34A C 0.4607(3) 0.2485(5) 0.1033(4)
H17A H 0.4380 0.2994 0.0761
C35A C 0.4648(3) 0.2458(4) 0.1708(4)
H18A H 0.4451 0.2959 0.1897
C36A C 0.4977(3) 0.1705(4) 0.2131(3)
loop_
_geom_bond_atom_site_label_1
_geom_bond_atom_site_label_2
_geom_bond_site_symmetry_1
_geom_bond_site_symmetry_2
Br1 C3 1_555 1_555
Br2 C22 1_555 1_555
O1 C2 1_555 1_555
O2 C23 1_555 1_555
C1 C2 1_555 1_555
C2 C3 1_555 1_555
C3 C4 1_555 1_555
C4 H1 1_555 1_555
C5 C4 1_555 1_555
H2 C5 1_555 1_555
C6 C1 1_555 1_555
C7 C6 1_555 1_555
C8 C7 1_555 1_555
H3 C8 1_555 1_555
C9 C8 1_555 1_555
H4 C9 1_555 1_555
C10 C9 1_555 1_555
H5 C10 1_555 1_555
C11 C10 1_555 1_555
H6 C11 1_555 1_555
C12 C7 1_555 1_555
C13 C12 1_555 1_555
C14 C13 1_555 1_555
H7 C14 1_555 1_555
C15 C14 1_555 1_555
H8 C15 1_555 1_555
C16 C15 1_555 1_555
H9 C16 1_555 1_555
C17 C16 1_555 1_555
H10 C17 1_555 1_555
C18 C13 1_555 1_555
C19 C18 1_555 1_555
C20 C19 1_555 1_555
H11 C20 1_555 1_555
C21 C20 1_555 1_555
H12 C21 1_555 1_555
C22 C21 1_555 1_555
C23 C22 1_555 1_555
C24 C1 1_555 1_555
Br3 C27 1_555 1_555
O3 C26 1_555 1_555
C25 C26 1_555 1_555
C26 C27 1_555 1_555
C27 C28 1_555 1_555
C28 H13 1_555 1_555
C29 C28 1_555 1_555
H14 C29 1_555 1_555
C30 C25 1_555 1_555
C31 C30 1_555 1_555
C32 C31 1_555 1_555
H15 C32 1_555 1_555
C33 C32 1_555 1_555
H16 C33 1_555 1_555
C34 C33 1_555 1_555
H17 C34 1_555 1_555
C35 C34 1_555 1_555
H18 C35 1_555 1_555
C36 C31 1_555 1_555
Br3A C27A 1_555 1_555
O3A C26A 1_555 1_555
C25A C25 1_555 1_555
C26A C25A 1_555 1_555
C27A C26A 1_555 1_555
C28A C27A 1_555 1_555
H13A C28A 1_555 1_555
C29A C28A 1_555 1_555
H14A C29A 1_555 1_555
C30A C25A 1_555 1_555
C31A C30A 1_555 1_555
C32A C31A 1_555 1_555
H15A C32A 1_555 1_555
C33A C32A 1_555 1_555
H16A C33A 1_555 1_555
C34A C33A 1_555 1_555
H17A C34A 1_555 1_555
C35A C34A 1_555 1_555
H18A C35A 1_555 1_555
C36A C36 1_555 1_555
C5 C6 1_555 1_555
C11 C12 1_555 1_555
C17 C18 1_555 1_555
C19 C24 1_555 1_555
C23 C24 1_555 1_555
C29 C30 1_555 1_555
C35 C36 1_555 1_555
C29A C30A 1_555 1_555
C31A C36A 1_555 1_555
C35A C36A 1_555 1_555

#END
