
#######################################################################
#
#                 Cambridge Crystallographic Data Centre
#                                CCDC 
#
#######################################################################
#
# If this CIF has been generated from an entry in the Cambridge 
# Structural Database, then it will include bibliographic, chemical, 
# crystal, experimental, refinement or atomic coordinate data resulting 
# from the CCDC's data processing and validation procedures.
#
#######################################################################

data_SIZJIX
_chemical_formula_moiety         'C25 H16 F3 N1'
_chemical_name_systematic        
1-{phenyl[2-(trifluoromethyl)-1H-inden-1-ylidene]methyl}-1H-indole
_symmetry_cell_setting           monoclinic
_symmetry_space_group_name_H-M   'P 21/c'
_symmetry_Int_Tables_number      14
_space_group_name_Hall           '-P 2ybc'
loop_
_symmetry_equiv_pos_site_id
_symmetry_equiv_pos_as_xyz
1 x,y,z
2 -x,1/2+y,1/2-z
3 -x,-y,-z
4 x,1/2-y,1/2+z
_cell_length_a                   19.469(10)
_cell_length_b                   9.394(5)
_cell_length_c                   20.403(11)
_cell_angle_alpha                90
_cell_angle_beta                 92.166(9)
_cell_angle_gamma                90
_cell_volume                     3728.87
_exptl_crystal_colour            red
_exptl_crystal_description       Block
_cell_formula_units_Z            8
loop_
_atom_site_label
_atom_site_type_symbol
_atom_site_fract_x
_atom_site_fract_y
_atom_site_fract_z
F1 F 0.30141(8) 0.1957(2) 0.31991(9)
F2 F 0.28703(7) 0.39073(19) 0.27125(11)
F3 F 0.31446(7) 0.20945(18) 0.21836(8)
N1 N 0.38939(8) 0.40058(17) 0.14389(8)
C1 C 0.35938(9) 0.3417(2) 0.08841(9)
C2 C 0.37662(11) 0.2216(2) 0.05421(11)
H1 H 0.4147 0.1667 0.0667
C3 C 0.33539(14) 0.1867(3) 0.00116(12)
H2 H 0.3456 0.1061 -0.0230
C4 C 0.27872(14) 0.2681(4) -0.01772(13)
H3 H 0.2520 0.2413 -0.0544
C5 C 0.26154(12) 0.3852(4) 0.01599(13)
H4 H 0.2232 0.4386 0.0031
C6 C 0.30217(10) 0.4250(3) 0.07053(11)
C7 C 0.29954(11) 0.5373(3) 0.11577(13)
H5 H 0.2673 0.6105 0.1153
C8 C 0.35171(11) 0.5202(2) 0.15969(12)
H6 H 0.3612 0.5795 0.1954
C9 C 0.45075(9) 0.3581(2) 0.17643(9)
C10 C 0.45441(9) 0.3410(2) 0.24260(9)
C11 C 0.40022(10) 0.3094(2) 0.28790(10)
C12 C 0.42749(12) 0.2951(3) 0.34858(11)
H7 H 0.4031 0.2703 0.3852
C13 C 0.49975(11) 0.3238(2) 0.34891(10)
C14 C 0.51764(10) 0.3495(2) 0.28476(10)
C15 C 0.58419(11) 0.3892(2) 0.27250(11)
H8 H 0.5967 0.4103 0.2300
C16 C 0.63203(12) 0.3972(2) 0.32409(13)
H9 H 0.6771 0.4226 0.3160
C17 C 0.61408(14) 0.3682(3) 0.38672(13)
H10 H 0.6474 0.3726 0.4206
C18 C 0.54778(14) 0.3328(3) 0.40078(11)
H11 H 0.5355 0.3154 0.4436
C19 C 0.50946(9) 0.3382(2) 0.13449(9)
C20 C 0.52585(10) 0.4409(3) 0.08988(10)
H12 H 0.4987 0.5220 0.0853
C21 C 0.58182(12) 0.4247(3) 0.05230(11)
H13 H 0.5935 0.4964 0.0233
C22 C 0.62076(12) 0.3040(3) 0.05693(12)
H14 H 0.6586 0.2929 0.0309
C23 C 0.60396(12) 0.2004(3) 0.09968(13)
H15 H 0.6302 0.1178 0.1024
C24 C 0.54857(11) 0.2157(2) 0.13927(11)
H16 H 0.5377 0.1445 0.1688
C25 C 0.32700(12) 0.2758(3) 0.27392(13)
F4 F -0.02681(7) 0.88113(17) 0.08248(7)
F5 F -0.09057(8) 0.69871(18) 0.07593(7)
F6 F -0.13335(8) 0.8977(2) 0.09919(8)
N2 N 0.07777(8) 0.71255(17) 0.13617(8)
C26 C 0.12446(10) 0.7762(2) 0.09572(9)
C27 C 0.16389(11) 0.8971(3) 0.10501(12)
H17 H 0.1633 0.9483 0.1440
C28 C 0.20376(13) 0.9389(3) 0.05498(15)
H18 H 0.2310 1.0197 0.0601
C29 C 0.20454(14) 0.8639(4) -0.00288(14)
H19 H 0.2325 0.8950 -0.0360
C30 C 0.16530(15) 0.7453(4) -0.01285(12)
H20 H 0.1659 0.6962 -0.0524
C31 C 0.12417(11) 0.6989(3) 0.03734(10)
C32 C 0.07702(13) 0.5854(3) 0.04463(12)
H21 H 0.0667 0.5155 0.0135
C33 C 0.05023(11) 0.5956(2) 0.10306(11)
H22 H 0.0178 0.5336 0.1195
C34 C 0.06235(9) 0.7533(2) 0.19958(9)
C35 C -0.00301(9) 0.7631(2) 0.21960(9)
C36 C -0.06702(10) 0.7896(2) 0.18131(10)
C37 C -0.11865(10) 0.8035(2) 0.22222(12)
H23 H -0.1637 0.8259 0.2094
C38 C -0.09477(10) 0.7792(2) 0.28870(11)
C39 C -0.02381(9) 0.7554(2) 0.28788(9)
C40 C 0.01110(12) 0.7185(2) 0.34580(10)
H24 H 0.0580 0.6997 0.3465
C41 C -0.02537(14) 0.7101(3) 0.40249(11)
H25 H -0.0023 0.6855 0.4416
C42 C -0.09430(14) 0.7370(3) 0.40273(13)
H26 H -0.1172 0.7321 0.4418
C43 C -0.12967(12) 0.7710(3) 0.34585(13)
H27 H -0.1767 0.7883 0.3458
C44 C 0.12248(9) 0.7853(2) 0.24325(9)
C45 C 0.17838(10) 0.6960(2) 0.24703(11)
H28 H 0.1781 0.6118 0.2230
C46 C 0.23454(11) 0.7312(3) 0.28624(12)
H29 H 0.2719 0.6696 0.2894
C47 C 0.23614(11) 0.8547(3) 0.32046(12)
H30 H 0.2747 0.8777 0.3466
C48 C 0.18147(11) 0.9457(2) 0.31670(11)
H31 H 0.1827 1.0305 0.3402
C49 C 0.12477(10) 0.9111(2) 0.27804(10)
H32 H 0.0875 0.9731 0.2753
C50 C -0.07824(11) 0.8171(3) 0.11067(11)
loop_
_geom_bond_atom_site_label_1
_geom_bond_atom_site_label_2
_geom_bond_site_symmetry_1
_geom_bond_site_symmetry_2
F1 C25 1_555 1_555
F2 C25 1_555 1_555
F3 C25 1_555 1_555
N1 C1 1_555 1_555
C1 C2 1_555 1_555
C2 H1 1_555 1_555
C3 C2 1_555 1_555
H2 C3 1_555 1_555
C4 C3 1_555 1_555
H3 C4 1_555 1_555
C5 C4 1_555 1_555
H4 C5 1_555 1_555
C6 C1 1_555 1_555
C7 C6 1_555 1_555
H5 C7 1_555 1_555
C8 N1 1_555 1_555
H6 C8 1_555 1_555
C9 N1 1_555 1_555
C10 C9 1_555 1_555
C11 C10 1_555 1_555
C12 C11 1_555 1_555
H7 C12 1_555 1_555
C13 C12 1_555 1_555
C14 C10 1_555 1_555
C15 C14 1_555 1_555
H8 C15 1_555 1_555
C16 C15 1_555 1_555
H9 C16 1_555 1_555
C17 C16 1_555 1_555
H10 C17 1_555 1_555
C18 C13 1_555 1_555
H11 C18 1_555 1_555
C19 C9 1_555 1_555
C20 C19 1_555 1_555
H12 C20 1_555 1_555
C21 C20 1_555 1_555
H13 C21 1_555 1_555
C22 C21 1_555 1_555
H14 C22 1_555 1_555
C23 C22 1_555 1_555
H15 C23 1_555 1_555
C24 C19 1_555 1_555
H16 C24 1_555 1_555
C25 C11 1_555 1_555
F4 C50 1_555 1_555
F5 C50 1_555 1_555
F6 C50 1_555 1_555
N2 C26 1_555 1_555
C26 C27 1_555 1_555
C27 H17 1_555 1_555
C28 C27 1_555 1_555
H18 C28 1_555 1_555
C29 C28 1_555 1_555
H19 C29 1_555 1_555
C30 C29 1_555 1_555
H20 C30 1_555 1_555
C31 C26 1_555 1_555
C32 C31 1_555 1_555
H21 C32 1_555 1_555
C33 N2 1_555 1_555
H22 C33 1_555 1_555
C34 N2 1_555 1_555
C35 C34 1_555 1_555
C36 C35 1_555 1_555
C37 C36 1_555 1_555
H23 C37 1_555 1_555
C38 C37 1_555 1_555
C39 C35 1_555 1_555
C40 C39 1_555 1_555
H24 C40 1_555 1_555
C41 C40 1_555 1_555
H25 C41 1_555 1_555
C42 C41 1_555 1_555
H26 C42 1_555 1_555
C43 C38 1_555 1_555
H27 C43 1_555 1_555
C44 C34 1_555 1_555
C45 C44 1_555 1_555
H28 C45 1_555 1_555
C46 C45 1_555 1_555
H29 C46 1_555 1_555
C47 C46 1_555 1_555
H30 C47 1_555 1_555
C48 C47 1_555 1_555
H31 C48 1_555 1_555
C49 C44 1_555 1_555
H32 C49 1_555 1_555
C50 C36 1_555 1_555
C5 C6 1_555 1_555
C7 C8 1_555 1_555
C13 C14 1_555 1_555
C17 C18 1_555 1_555
C23 C24 1_555 1_555
C30 C31 1_555 1_555
C32 C33 1_555 1_555
C38 C39 1_555 1_555
C42 C43 1_555 1_555
C48 C49 1_555 1_555

#END
