
#######################################################################
#
#                 Cambridge Crystallographic Data Centre
#                                CCDC 
#
#######################################################################
#
# If this CIF has been generated from an entry in the Cambridge 
# Structural Database, then it will include bibliographic, chemical, 
# crystal, experimental, refinement or atomic coordinate data resulting 
# from the CCDC's data processing and validation procedures.
#
#######################################################################

data_SIZKOE
_chemical_formula_moiety         'C19 H17 N1 O3'
_chemical_name_systematic        
9b-phenyl-3-isopropyl[1,3]oxazolo[2,3-a]isoindole-2,5(3H,9bH)-dione
_symmetry_cell_setting           triclinic
_symmetry_space_group_name_H-M   'P -1'
_symmetry_Int_Tables_number      2
_space_group_name_Hall           '-P 1'
loop_
_symmetry_equiv_pos_site_id
_symmetry_equiv_pos_as_xyz
1 x,y,z
2 -x,-y,-z
_cell_length_a                   8.5464(3)
_cell_length_b                   9.7090(4)
_cell_length_c                   11.3017(4)
_cell_angle_alpha                66.561(4)
_cell_angle_beta                 85.785(3)
_cell_angle_gamma                69.576(3)
_cell_volume                     803.982
_exptl_crystal_description       block
_cell_formula_units_Z            2
loop_
_atom_site_label
_atom_site_type_symbol
_atom_site_fract_x
_atom_site_fract_y
_atom_site_fract_z
O1 O 0.25222(17) 0.38424(15) 0.44415(11)
O2 O -0.08133(17) 0.76551(16) 0.12913(14)
O3 O 0.0560(2) 0.29916(17) 0.55891(14)
N1 N 0.11613(17) 0.51613(16) 0.24049(13)
C1 C 0.4106(2) 0.3277(2) 0.27136(18)
C2 C 0.2810(2) 0.45429(19) 0.30839(16)
C3 C 0.3258(2) 0.6019(2) 0.27479(17)
C4 C 0.0580(2) 0.6835(2) 0.17959(16)
C5 C 0.1981(2) 0.7336(2) 0.19328(17)
C6 C 0.1013(3) 0.3639(2) 0.45533(18)
C7 C 0.0091(3) 0.4352(2) 0.32382(19)
H1 H -0.0961 0.5186 0.3247
C8 C 0.4209(3) 0.3530(3) 0.1426(2)
H2 H 0.3485 0.4466 0.0806
C9 C 0.2107(3) 0.8847(2) 0.1420(2)
H3 H 0.1252 0.9735 0.0869
C10 C 0.4692(3) 0.6165(3) 0.3087(2)
H4 H 0.5551 0.5278 0.3634
C11 C 0.5201(3) 0.1903(3) 0.3615(2)
H5 H 0.5168 0.1713 0.4489
C12 C 0.6438(3) 0.1044(3) 0.1938(3)
H6 H 0.7213 0.0286 0.1682
C13 C 0.5369(3) 0.2416(3) 0.1044(3)
H7 H 0.5419 0.2603 0.0171
C14 C 0.3547(3) 0.8985(3) 0.1758(3)
H8 H 0.3669 0.9983 0.1422
C15 C 0.4813(3) 0.7670(3) 0.2588(3)
H9 H 0.5760 0.7801 0.2813
C16 C 0.6366(3) 0.0792(3) 0.3203(3)
H10 H 0.7109 -0.0141 0.3813
C17 C -0.0360(5) 0.3185(4) 0.2888(3)
H11 H -0.1168 0.2859 0.3498
C18 C -0.1277(7) 0.4008(6) 0.1555(3)
H12 H -0.2156 0.4983 0.1489
H13 H -0.1750 0.3313 0.1422
H14 H -0.0507 0.4250 0.0910
C19 C 0.0890(6) 0.1791(6) 0.2971(5)
H15 H 0.0430 0.1163 0.2725
H16 H 0.1382 0.1193 0.3844
H17 H 0.1733 0.2042 0.2402
H18? H 0.0743 0.2641 0.2658
H19? H -0.0953 0.4911 0.1043
H20? H -0.2463 0.4368 0.1635
H21? H -0.0997 0.3267 0.1143
C20? C -0.0615(13) 0.1782(11) 0.3909(10)
H22? H -0.0879 0.1160 0.3525
H23? H -0.1521 0.2130 0.4397
H24? H 0.0389 0.1138 0.4472
loop_
_geom_bond_atom_site_label_1
_geom_bond_atom_site_label_2
_geom_bond_site_symmetry_1
_geom_bond_site_symmetry_2
O1 C2 1_555 1_555
O2 C4 1_555 1_555
O3 C6 1_555 1_555
N1 C2 1_555 1_555
C1 C2 1_555 1_555
C2 C3 1_555 1_555
C3 C5 1_555 1_555
C4 N1 1_555 1_555
C5 C4 1_555 1_555
C6 O1 1_555 1_555
C7 N1 1_555 1_555
H1 C7 1_555 1_555
C8 C1 1_555 1_555
H2 C8 1_555 1_555
C9 C5 1_555 1_555
H3 C9 1_555 1_555
C10 C3 1_555 1_555
H4 C10 1_555 1_555
C11 C1 1_555 1_555
H5 C11 1_555 1_555
C12 H6 1_555 1_555
C13 C8 1_555 1_555
H7 C13 1_555 1_555
C14 C9 1_555 1_555
H8 C14 1_555 1_555
C15 C10 1_555 1_555
H9 C15 1_555 1_555
C16 C11 1_555 1_555
H10 C16 1_555 1_555
C17 C7 1_555 1_555
H11 C17 1_555 1_555
C18 C17 1_555 1_555
H12 C18 1_555 1_555
H13 C18 1_555 1_555
H14 C18 1_555 1_555
C19 C17 1_555 1_555
H15 C19 1_555 1_555
H16 C19 1_555 1_555
H17 C19 1_555 1_555
C6 C7 1_555 1_555
C12 C13 1_555 1_555
C12 C16 1_555 1_555
C14 C15 1_555 1_555

#END
