
#######################################################################
#
#                 Cambridge Crystallographic Data Centre
#                                CCDC 
#
#######################################################################
#
# If this CIF has been generated from an entry in the Cambridge 
# Structural Database, then it will include bibliographic, chemical, 
# crystal, experimental, refinement or atomic coordinate data resulting 
# from the CCDC's data processing and validation procedures.
#
#######################################################################

data_SIZKER
_chemical_formula_moiety         'C18 H24 N1 O2 1+,Cl1 1-'
_chemical_name_systematic        
'(RS)-2,3,5,6,8,9-Hexahydro-11,12-dimethoxy-4H-cyclopenta(a)pyrrolo(2,1-b)(3)benzazepinium chloride'
_symmetry_cell_setting           monoclinic
_symmetry_space_group_name_H-M   'P 21/c'
_symmetry_Int_Tables_number      14
_space_group_name_Hall           '-P 2ybc'
loop_
_symmetry_equiv_pos_site_id
_symmetry_equiv_pos_as_xyz
1 x,y,z
2 -x,1/2+y,1/2-z
3 -x,-y,-z
4 x,1/2-y,1/2+z
_cell_length_a                   8.070(2)
_cell_length_b                   8.376(1)
_cell_length_c                   24.211(6)
_cell_angle_alpha                90
_cell_angle_beta                 92.49(2)
_cell_angle_gamma                90
_cell_volume                     1634.98
_exptl_crystal_colour            'light yellow'
_cell_formula_units_Z            4
loop_
_atom_site_label
_atom_site_type_symbol
_atom_site_fract_x
_atom_site_fract_y
_atom_site_fract_z
Cl1 Cl 0.2724(1) 0.8342(1) 0.4419(1)
O1 O 0.2621(3) 0.6543(3) 0.2662(1)
O2 O 0.3170(3) 0.3739(3) 0.2274(1)
N1 N -0.2389(3) 0.1876(3) 0.4346(1)
C1 C -0.3780(5) 0.4520(5) 0.4478(2)
C2 C -0.2571(5) 0.5731(5) 0.4748(2)
C3 C -0.1111(5) 0.5662(5) 0.4380(2)
C4 C -0.1199(4) 0.4487(4) 0.4018(1)
C5 C -0.2772(4) 0.3515(4) 0.4079(1)
C6 C -0.3777(5) 0.3039(5) 0.3555(1)
C7 C -0.4853(5) 0.1666(6) 0.3744(2)
C8 C -0.3730(5) 0.0737(5) 0.4146(2)
C9 C -0.0675(5) 0.1242(5) 0.4265(2)
C10 C -0.0199(5) 0.1115(4) 0.3665(2)
C11 C 0.0391(4) 0.2648(4) 0.3400(1)
C12 C 0.0013(4) 0.4167(4) 0.3583(1)
C13 C 0.0766(4) 0.5503(4) 0.3344(1)
C14 C 0.1824(4) 0.5324(4) 0.2917(1)
C15 C 0.2148(4) 0.3789(4) 0.2713(1)
C16 C 0.1451(4) 0.2495(4) 0.2958(1)
C17 C 0.2373(5) 0.8116(4) 0.2874(2)
C18 C 0.3446(5) 0.2217(5) 0.2033(2)
H1 H -0.2391 0.2004 0.4740
H2 H -0.4233 0.3847 0.4755
H3 H -0.4664 0.5065 0.4278
H4 H -0.2254 0.5422 0.5120
H5 H -0.3048 0.6780 0.4750
H6 H -0.0204 0.6405 0.4407
H7 H -0.3060 0.2695 0.3272
H8 H -0.4449 0.3912 0.3419
H9 H -0.5208 0.1009 0.3437
H10 H -0.5806 0.2063 0.3925
H11 H -0.3253 -0.0159 0.3964
H12 H -0.4344 0.0367 0.4452
H13 H 0.0105 0.1939 0.4454
H14 H -0.0602 0.0196 0.4426
H15 H 0.0676 0.0343 0.3648
H16 H -0.1154 0.0744 0.3452
H17 H 0.0538 0.6552 0.3481
H18 H 0.1694 0.1447 0.2824
H19 H 0.2987 0.8870 0.2665
H20 H 0.2751 0.8156 0.3255
H21 H 0.1214 0.8377 0.2843
H22 H 0.4174 0.2333 0.1732
H23 H 0.2407 0.1778 0.1897
H24 H 0.3943 0.1516 0.2306
loop_
_geom_bond_atom_site_label_1
_geom_bond_atom_site_label_2
_geom_bond_site_symmetry_1
_geom_bond_site_symmetry_2
O1 C14 1_555 1_555
O2 C15 1_555 1_555
N1 C5 1_555 1_555
C1 C2 1_555 1_555
C2 C3 1_555 1_555
C3 C4 1_555 1_555
C4 C5 1_555 1_555
C5 C1 1_555 1_555
C6 C5 1_555 1_555
C7 C6 1_555 1_555
C8 N1 1_555 1_555
C9 N1 1_555 1_555
C10 C9 1_555 1_555
C11 C10 1_555 1_555
C12 C4 1_555 1_555
C13 C12 1_555 1_555
C14 C13 1_555 1_555
C15 C14 1_555 1_555
C16 C11 1_555 1_555
C17 O1 1_555 1_555
C18 O2 1_555 1_555
H1 N1 1_555 1_555
H2 C1 1_555 1_555
H3 C1 1_555 1_555
H4 C2 1_555 1_555
H5 C2 1_555 1_555
H6 C3 1_555 1_555
H7 C6 1_555 1_555
H8 C6 1_555 1_555
H9 C7 1_555 1_555
H10 C7 1_555 1_555
H11 C8 1_555 1_555
H12 C8 1_555 1_555
H13 C9 1_555 1_555
H14 C9 1_555 1_555
H15 C10 1_555 1_555
H16 C10 1_555 1_555
H17 C13 1_555 1_555
H18 C16 1_555 1_555
H19 C17 1_555 1_555
H20 C17 1_555 1_555
H21 C17 1_555 1_555
H22 C18 1_555 1_555
H23 C18 1_555 1_555
H24 C18 1_555 1_555
C7 C8 1_555 1_555
C11 C12 1_555 1_555
C15 C16 1_555 1_555

#END
