
#######################################################################
#
#                 Cambridge Crystallographic Data Centre
#                                CCDC 
#
#######################################################################
#
# If this CIF has been generated from an entry in the Cambridge 
# Structural Database, then it will include bibliographic, chemical, 
# crystal, experimental, refinement or atomic coordinate data resulting 
# from the CCDC's data processing and validation procedures.
#
#######################################################################

data_SIZLOF
_chemical_formula_moiety         'C9 H7 Cl1 N2 O2'
_chemical_name_systematic        4-chloro-2-nitro-N-(prop-2-yn-1-yl)aniline
_symmetry_cell_setting           triclinic
_symmetry_space_group_name_H-M   'P -1'
_symmetry_Int_Tables_number      2
_space_group_name_Hall           '-P 1'
loop_
_symmetry_equiv_pos_site_id
_symmetry_equiv_pos_as_xyz
1 x,y,z
2 -x,-y,-z
_cell_length_a                   6.1027(5)
_cell_length_b                   8.5357(9)
_cell_length_c                   10.1750(11)
_cell_angle_alpha                112.463(10)
_cell_angle_beta                 95.209(9)
_cell_angle_gamma                99.616(8)
_cell_volume                     475.923
_exptl_crystal_colour            yellow
_exptl_crystal_description       plate
_cell_formula_units_Z            2
loop_
_atom_site_label
_atom_site_type_symbol
_atom_site_fract_x
_atom_site_fract_y
_atom_site_fract_z
Cl1 Cl 0.33824(8) 0.47455(7) 0.76486(7)
O1 O 1.1047(3) 0.7204(2) 1.09871(15)
O2 O 1.3294(2) 0.87921(19) 1.02549(14)
N1 N 1.1960(3) 0.9363(2) 0.79910(17)
N2 N 1.1444(3) 0.7871(2) 1.01345(15)
C1 C 0.7655(3) 0.6481(2) 0.88744(19)
H1 H 0.7494 0.5995 0.9546
C2 C 1.0025(3) 0.8325(2) 0.79583(17)
C3 C 1.2299(3) 0.8914(3) 0.5499(2)
C4 C 0.8125(3) 0.7933(2) 0.68852(19)
H2 H 0.8237 0.8418 0.6209
C5 C 1.2310(3) 1.0160(2) 0.6974(2)
H3 H 1.3745 1.0993 0.7315
H4 H 1.1137 1.0793 0.6952
C6 C 0.9682(3) 0.7568(2) 0.89592(17)
C7 C 0.5911(3) 0.6135(2) 0.7803(2)
C8 C 0.6149(3) 0.6875(2) 0.6810(2)
H5 H 0.4944 0.6645 0.6086
C9 C 1.2272(4) 0.7947(4) 0.4326(3)
H6 H 1.2250 0.7171 0.3386
H7 H 1.303(4) 0.957(3) 0.857(2)
loop_
_geom_bond_atom_site_label_1
_geom_bond_atom_site_label_2
_geom_bond_site_symmetry_1
_geom_bond_site_symmetry_2
Cl1 C7 1_555 1_555
O1 N2 1_555 1_555
O2 N2 1_555 1_555
N1 C2 1_555 1_555
N2 C6 1_555 1_555
C1 H1 1_555 1_555
C2 C4 1_555 1_555
C3 C5 1_555 1_555
C4 H2 1_555 1_555
C5 N1 1_555 1_555
H3 C5 1_555 1_555
H4 C5 1_555 1_555
C6 C1 1_555 1_555
C7 C1 1_555 1_555
C8 C4 1_555 1_555
H5 C8 1_555 1_555
C9 C3 1_555 1_555
H6 C9 1_555 1_555
H7 N1 1_555 1_555
C2 C6 1_555 1_555
C7 C8 1_555 1_555

#END
