
#######################################################################
#
#                 Cambridge Crystallographic Data Centre
#                                CCDC 
#
#######################################################################
#
# If this CIF has been generated from an entry in the Cambridge 
# Structural Database, then it will include bibliographic, chemical, 
# crystal, experimental, refinement or atomic coordinate data resulting 
# from the CCDC's data processing and validation procedures.
#
#######################################################################

data_SIZLAO
_chemical_formula_moiety         'C17 H13 N1 O3'
_chemical_name_systematic        
10-Hydroxy-4,5-dimethoxy-9-anthracenecarbonitrile
_symmetry_cell_setting           monoclinic
_symmetry_space_group_name_H-M   'P 21/c'
_symmetry_Int_Tables_number      14
_space_group_name_Hall           '-P 2ybc'
loop_
_symmetry_equiv_pos_site_id
_symmetry_equiv_pos_as_xyz
1 x,y,z
2 -x,1/2+y,1/2-z
3 -x,-y,-z
4 x,1/2-y,1/2+z
_cell_length_a                   9.142(3)
_cell_length_b                   18.426(5)
_cell_length_c                   8.306(2)
_cell_angle_alpha                90
_cell_angle_beta                 109.00(2)
_cell_angle_gamma                90
_cell_volume                     1322.92
_exptl_crystal_colour            yellow
_chemical_melting_point          261-262deg.C
_cell_formula_units_Z            4
loop_
_atom_site_label
_atom_site_type_symbol
_atom_site_fract_x
_atom_site_fract_y
_atom_site_fract_z
O1 O 0.7154(2) 0.4160(1) 0.0502(2)
O2 O 0.7250(2) 0.5358(1) 0.2014(2)
O3 O 0.7056(2) 0.3145(1) -0.1542(2)
N1 N 1.4897(3) 0.4144(1) 0.2872(3)
C1 C 0.8694(2) 0.4206(1) 0.0892(3)
C2 C 0.8834(2) 0.5345(1) 0.2609(3)
C3 C 0.9700(3) 0.5852(1) 0.3700(3)
C4 C 1.1322(3) 0.5816(1) 0.4210(3)
C5 C 1.2056(3) 0.5295(1) 0.3619(3)
C6 C 1.1921(2) 0.4195(1) 0.1876(3)
C7 C 1.1864(3) 0.3090(1) 0.0197(3)
C8 C 1.1052(3) 0.2571(1) -0.0860(3)
C9 C 0.9423(3) 0.2572(1) -0.1451(3)
C10 C 0.8622(3) 0.3103(1) -0.0953(3)
C11 C 0.9536(2) 0.4763(1) 0.1967(3)
C12 C 1.1187(2) 0.4755(1) 0.2479(3)
C13 C 1.1082(2) 0.3654(1) 0.0765(3)
C14 C 0.9427(2) 0.3662(1) 0.0224(3)
C15 C 1.3570(3) 0.4172(1) 0.2429(3)
C16 C 0.6450(3) 0.5902(2) 0.2641(4)
C17 C 0.6250(4) 0.2653(2) -0.2865(5)
H1 H 0.6818(31) 0.4562(16) 0.0974(36)
H2 H 0.9203(30) 0.6247(16) 0.4119(34)
H3 H 1.1894(31) 0.6169(16) 0.5001(35)
H4 H 1.3165(31) 0.5251(14) 0.3949(33)
H5 H 1.2975(32) 0.3113(14) 0.0576(34)
H6 H 1.1557(31) 0.2189(15) -0.1238(34)
H7 H 0.8908(59) 0.2172(15) -0.2268(36)
H8 H 0.5359(34) 0.5818(15) 0.2004(36)
H9 H 0.6684(32) 0.5846(15) 0.3896(38)
H10 H 0.6747(30) 0.6404(16) 0.2365(34)
H11 H 0.5193(35) 0.2769(15) -0.3055(35)
H12 H 0.6699(33) 0.2704(16) -0.3808(37)
H13 H 0.6367(31) 0.2115(16) -0.2437(36)
loop_
_geom_bond_atom_site_label_1
_geom_bond_atom_site_label_2
_geom_bond_site_symmetry_1
_geom_bond_site_symmetry_2
O1 C1 1_555 1_555
O2 C2 1_555 1_555
O3 C10 1_555 1_555
N1 C15 1_555 1_555
C1 C11 1_555 1_555
C2 C3 1_555 1_555
C3 C4 1_555 1_555
C4 C5 1_555 1_555
C5 C12 1_555 1_555
C6 C12 1_555 1_555
C7 C8 1_555 1_555
C8 C9 1_555 1_555
C9 C10 1_555 1_555
C10 C14 1_555 1_555
C11 C2 1_555 1_555
C12 C11 1_555 1_555
C13 C6 1_555 1_555
C14 C1 1_555 1_555
C15 C6 1_555 1_555
C16 O2 1_555 1_555
C17 O3 1_555 1_555
H1 O1 1_555 1_555
H2 C3 1_555 1_555
H3 C4 1_555 1_555
H4 C5 1_555 1_555
H5 C7 1_555 1_555
H6 C8 1_555 1_555
H7 C9 1_555 1_555
H8 C16 1_555 1_555
H9 C16 1_555 1_555
H10 C16 1_555 1_555
H11 C17 1_555 1_555
H12 C17 1_555 1_555
H13 C17 1_555 1_555
C7 C13 1_555 1_555
C13 C14 1_555 1_555

#END
