
#######################################################################
#
#                 Cambridge Crystallographic Data Centre
#                                CCDC 
#
#######################################################################
#
# If this CIF has been generated from an entry in the Cambridge 
# Structural Database, then it will include bibliographic, chemical, 
# crystal, experimental, refinement or atomic coordinate data resulting 
# from the CCDC's data processing and validation procedures.
#
#######################################################################

data_SIZLIZ
_chemical_formula_moiety         'C23 H22 F1 N3 O3'
_chemical_name_systematic        
2-fluoro-1-(morpholin-4-yl)-3-phenyl-4-(1-phenyl-1H-imidazol-2-yl)butane-1,4-dione
_symmetry_cell_setting           orthorhombic
_symmetry_space_group_name_H-M   'P 21 21 21'
_symmetry_Int_Tables_number      19
_space_group_name_Hall           'P 2ac 2ab'
loop_
_symmetry_equiv_pos_site_id
_symmetry_equiv_pos_as_xyz
1 x,y,z
2 1/2-x,-y,1/2+z
3 1/2+x,1/2-y,-z
4 -x,1/2+y,1/2-z
_cell_length_a                   7.00151(15)
_cell_length_b                   9.9401(3)
_cell_length_c                   29.1848(8)
_cell_angle_alpha                90
_cell_angle_beta                 90
_cell_angle_gamma                90
_cell_volume                     2031.14
_exptl_crystal_colour            colorless
_exptl_crystal_description       block
_cell_formula_units_Z            4
loop_
_atom_site_label
_atom_site_type_symbol
_atom_site_fract_x
_atom_site_fract_y
_atom_site_fract_z
F1 F 0.08181(19) 0.87243(12) 0.16256(4)
O1 O 0.2610(2) 0.95327(17) 0.07283(5)
O2 O -0.0351(2) 1.04904(19) 0.22528(5)
O3 O 0.51712(19) 1.27215(14) 0.28966(5)
N1 N -0.03036(19) 1.02100(14) 0.00538(5)
N2 N -0.1668(2) 1.14203(17) 0.06053(5)
N3 N 0.2720(2) 1.09648(16) 0.24156(5)
C1 C 0.0939(2) 0.93412(17) -0.02071(6)
C2 C 0.2745(3) 0.9764(2) -0.03289(7)
H1 H 0.3214 1.0583 -0.0223
C3 C 0.3844(3) 0.8965(2) -0.06076(8)
H2 H 0.5063 0.9245 -0.0691
C4 C 0.3156(3) 0.7749(2) -0.07654(7)
H3 H 0.3902 0.7216 -0.0957
C5 C 0.1374(3) 0.7333(2) -0.06392(7)
H4 H 0.0917 0.6509 -0.0743
C6 C 0.0238(3) 0.81243(18) -0.03585(6)
H5 H -0.0976 0.7839 -0.0274
C7 C -0.1935(2) 1.0757(2) -0.01224(7)
H6 H -0.2399 1.0648 -0.0419
C8 C -0.2750(3) 1.1489(2) 0.02175(7)
H7 H -0.3884 1.1969 0.0190
C9 C -0.0198(2) 1.06424(17) 0.04997(6)
C10 C 0.1303(2) 1.0270(2) 0.08271(6)
C11 C 0.1118(2) 1.08947(17) 0.13040(6)
H8 H -0.0237 1.1071 0.1363
C12 C 0.2182(3) 1.22240(18) 0.13217(6)
C13 C 0.5066(4) 1.3513(3) 0.12127(7)
H9 H 0.6341 1.3553 0.1124
C14 C 0.4086(3) 1.2310(2) 0.11917(6)
H10 H 0.4712 1.1542 0.1089
C15 C 0.4149(4) 1.4650(2) 0.13650(8)
H11 H 0.4801 1.5465 0.1378
C16 C 0.2285(4) 1.4585(2) 0.14970(8)
H12 H 0.1674 1.5357 0.1601
C17 C 0.1283(3) 1.3377(2) 0.14784(7)
H13 H 0.0012 1.3344 0.1571
C18 C 0.1843(3) 0.99239(18) 0.16691(6)
H14 H 0.3220 0.9771 0.1640
C19 C 0.1333(3) 1.0480(2) 0.21431(6)
C20 C 0.2185(3) 1.1504(2) 0.28659(6)
H15 H 0.2548 1.0870 0.3103
H16 H 0.0811 1.1625 0.2880
C21 C 0.3153(3) 1.2816(2) 0.29471(8)
H17 H 0.2664 1.3476 0.2732
H18 H 0.2858 1.3127 0.3254
C22 C 0.5633(3) 1.2298(2) 0.24441(7)
H19 H 0.7010 1.2256 0.2411
H20 H 0.5150 1.2950 0.2226
C23 C 0.4787(3) 1.09392(19) 0.23424(7)
H21 H 0.5058 1.0694 0.2027
H22 H 0.5363 1.0269 0.2541
loop_
_geom_bond_atom_site_label_1
_geom_bond_atom_site_label_2
_geom_bond_site_symmetry_1
_geom_bond_site_symmetry_2
F1 C18 1_555 1_555
O1 C10 1_555 1_555
O2 C19 1_555 1_555
O3 C21 1_555 1_555
N1 C1 1_555 1_555
N2 C8 1_555 1_555
N3 C19 1_555 1_555
C1 C2 1_555 1_555
C2 H1 1_555 1_555
C3 C2 1_555 1_555
H2 C3 1_555 1_555
C4 C3 1_555 1_555
H3 C4 1_555 1_555
C5 C4 1_555 1_555
H4 C5 1_555 1_555
C6 C1 1_555 1_555
H5 C6 1_555 1_555
C7 N1 1_555 1_555
H6 C7 1_555 1_555
C8 C7 1_555 1_555
H7 C8 1_555 1_555
C9 N1 1_555 1_555
C10 C9 1_555 1_555
C11 C10 1_555 1_555
H8 C11 1_555 1_555
C12 C11 1_555 1_555
C13 H9 1_555 1_555
C14 C12 1_555 1_555
H10 C14 1_555 1_555
C15 C13 1_555 1_555
H11 C15 1_555 1_555
C16 C15 1_555 1_555
H12 C16 1_555 1_555
C17 C12 1_555 1_555
H13 C17 1_555 1_555
C18 C11 1_555 1_555
H14 C18 1_555 1_555
C19 C18 1_555 1_555
C20 N3 1_555 1_555
H15 C20 1_555 1_555
H16 C20 1_555 1_555
C21 C20 1_555 1_555
H17 C21 1_555 1_555
H18 C21 1_555 1_555
C22 O3 1_555 1_555
H19 C22 1_555 1_555
H20 C22 1_555 1_555
C23 N3 1_555 1_555
H21 C23 1_555 1_555
H22 C23 1_555 1_555
N2 C9 1_555 1_555
C5 C6 1_555 1_555
C13 C14 1_555 1_555
C16 C17 1_555 1_555
C22 C23 1_555 1_555

#END
