
#######################################################################
#
#                 Cambridge Crystallographic Data Centre
#                                CCDC 
#
#######################################################################
#
# If this CIF has been generated from an entry in the Cambridge 
# Structural Database, then it will include bibliographic, chemical, 
# crystal, experimental, refinement or atomic coordinate data resulting 
# from the CCDC's data processing and validation procedures.
#
#######################################################################

data_SIZMIA
_chemical_formula_moiety         'C25 H20 F3 N3 O5 S1'
_chemical_name_systematic        
4,4,4-trifluoro-3-{1-[(4-methylphenyl)sulfonyl]-1H-indol-3-yl}-3-(nitromethyl)-1-(pyridin-2-yl)butan-1-one
_symmetry_cell_setting           monoclinic
_symmetry_space_group_name_H-M   'P 21'
_symmetry_Int_Tables_number      4
_space_group_name_Hall           'P 2yb'
loop_
_symmetry_equiv_pos_site_id
_symmetry_equiv_pos_as_xyz
1 x,y,z
2 -x,1/2+y,-z
_cell_length_a                   10.21201(18)
_cell_length_b                   8.56525(17)
_cell_length_c                   13.5471(3)
_cell_angle_alpha                90
_cell_angle_beta                 93.5862(17)
_cell_angle_gamma                90
_cell_volume                     1182.62
_exptl_crystal_colour            colorless
_exptl_crystal_description       prism
_cell_formula_units_Z            2
_exptl_crystal_recrystallization_method 
'Re-crystallisation from solvent: dichloromethane/acetonitrile'
loop_
_atom_site_label
_atom_site_type_symbol
_atom_site_fract_x
_atom_site_fract_y
_atom_site_fract_z
C1 C 0.3961(3) 0.4771(4) 0.3363(2)
C2 C 0.4917(4) 0.4034(6) 0.3966(3)
H1 H 0.5588 0.3479 0.3693
C3 C 0.4858(5) 0.4140(6) 0.4976(4)
H2 H 0.5502 0.3649 0.5381
C4 C 0.3882(4) 0.4944(5) 0.5405(3)
C5 C 0.2970(4) 0.5720(5) 0.4793(3)
H3 H 0.2318 0.6309 0.5067
C6 C 0.3014(3) 0.5633(5) 0.3775(3)
H4 H 0.2395 0.6166 0.3370
C7 C 0.3806(6) 0.4955(6) 0.6512(3)
H5 H 0.4568 0.5464 0.6812
H6 H 0.3768 0.3901 0.6750
H7 H 0.3033 0.5508 0.6680
C8 C 0.6987(3) 0.8632(4) 0.0929(3)
H8 H 0.7855 0.8844 0.0808
C9 C 0.6044(4) 0.9779(4) 0.0809(3)
H9 H 0.6289 1.0774 0.0616
C10 C 0.4738(4) 0.9485(4) 0.0968(3)
H10 H 0.4123 1.0280 0.0873
C11 C 0.4339(3) 0.8037(4) 0.1265(3)
H11 H 0.3466 0.7837 0.1378
C12 C 0.5289(3) 0.6884(4) 0.1391(2)
C13 C 0.6619(3) 0.7142(4) 0.1236(2)
C14 C 0.7308(3) 0.5678(4) 0.1414(2)
C15 C 0.6407(3) 0.4617(4) 0.1656(2)
H12 H 0.6587 0.3578 0.1811
C16 C 0.8771(3) 0.5366(4) 0.1345(2)
C17 C 0.9018(3) 0.5219(5) 0.0235(3)
C18 C 0.9207(3) 0.3755(5) 0.1774(3)
H13 H 0.8608 0.2964 0.1502
H14 H 1.0072 0.3516 0.1559
C19 C 0.9662(3) 0.6687(4) 0.1756(2)
H15 H 1.0559 0.6310 0.1799
H16 H 0.9614 0.7540 0.1284
C20 C 0.9359(3) 0.7331(4) 0.2761(2)
C21 C 1.0255(3) 0.8630(4) 0.3146(2)
C22 C 1.0232(4) 0.9096(5) 0.4113(3)
H17 H 0.9652 0.8648 0.4534
C23 C 1.1097(5) 1.0250(6) 0.4445(3)
H18 H 1.1119 1.0582 0.5100
C24 C 1.1916(5) 1.0893(5) 0.3806(4)
H19 H 1.2504 1.1675 0.4011
C25 C 1.1854(5) 1.0357(6) 0.2844(4)
H20 H 1.2409 1.0806 0.2405
F1 F 0.8431(2) 0.3953(3) -0.01672(17)
F2 F 0.8587(2) 0.6441(3) -0.02886(15)
F3 F 1.02983(19) 0.5068(3) 0.00954(16)
N1 N 0.5170(2) 0.5301(3) 0.1639(2)
N2 N 0.9248(3) 0.3663(4) 0.2878(2)
N3 N 1.1052(3) 0.9244(5) 0.2512(2)
O1 O 0.2746(2) 0.5137(4) 0.16410(18)
O2 O 0.4129(3) 0.2793(3) 0.1948(2)
O3 O 0.8326(3) 0.3073(4) 0.3259(3)
O4 O 1.0219(3) 0.4157(4) 0.3333(2)
O5 O 0.8499(2) 0.6853(3) 0.32431(18)
S1 S 0.38843(7) 0.44076(10) 0.20837(6)
loop_
_geom_bond_atom_site_label_1
_geom_bond_atom_site_label_2
_geom_bond_site_symmetry_1
_geom_bond_site_symmetry_2
C1 C2 1_555 1_555
C2 H1 1_555 1_555
C3 C2 1_555 1_555
H2 C3 1_555 1_555
C4 C3 1_555 1_555
C5 C4 1_555 1_555
H3 C5 1_555 1_555
C6 C1 1_555 1_555
H4 C6 1_555 1_555
C7 C4 1_555 1_555
H5 C7 1_555 1_555
H6 C7 1_555 1_555
H7 C7 1_555 1_555
C8 H8 1_555 1_555
C9 C8 1_555 1_555
H9 C9 1_555 1_555
C10 C9 1_555 1_555
H10 C10 1_555 1_555
C11 C10 1_555 1_555
H11 C11 1_555 1_555
C12 C11 1_555 1_555
C13 C8 1_555 1_555
C14 C13 1_555 1_555
C15 C14 1_555 1_555
H12 C15 1_555 1_555
C16 C14 1_555 1_555
C17 C16 1_555 1_555
C18 C16 1_555 1_555
H13 C18 1_555 1_555
H14 C18 1_555 1_555
C19 C16 1_555 1_555
H15 C19 1_555 1_555
H16 C19 1_555 1_555
C20 C19 1_555 1_555
C21 C20 1_555 1_555
C22 C21 1_555 1_555
H17 C22 1_555 1_555
C23 C22 1_555 1_555
H18 C23 1_555 1_555
C24 C23 1_555 1_555
H19 C24 1_555 1_555
C25 C24 1_555 1_555
H20 C25 1_555 1_555
F1 C17 1_555 1_555
F2 C17 1_555 1_555
F3 C17 1_555 1_555
N1 C12 1_555 1_555
N2 C18 1_555 1_555
N3 C21 1_555 1_555
O1 S1 1_555 1_555
O2 S1 1_555 1_555
O3 N2 1_555 1_555
O4 N2 1_555 1_555
O5 C20 1_555 1_555
S1 C1 1_555 1_555
C5 C6 1_555 1_555
C12 C13 1_555 1_555
C15 N1 1_555 1_555
C25 N3 1_555 1_555
N1 S1 1_555 1_555

#END
