
#######################################################################
#
#                 Cambridge Crystallographic Data Centre
#                                CCDC 
#
#######################################################################
#
# If this CIF has been generated from an entry in the Cambridge 
# Structural Database, then it will include bibliographic, chemical, 
# crystal, experimental, refinement or atomic coordinate data resulting 
# from the CCDC's data processing and validation procedures.
#
#######################################################################

data_SIZRIE
_chemical_formula_moiety         'C34 H47 K1 O7 Si1'
_chemical_name_systematic        
(18-crown-6)-(tetrahydrofuran)-(triphenylsilyl)-potassium
_symmetry_cell_setting           monoclinic
_symmetry_space_group_name_H-M   'C c'
_symmetry_Int_Tables_number      9
_space_group_name_Hall           'C -2yc'
loop_
_symmetry_equiv_pos_site_id
_symmetry_equiv_pos_as_xyz
1 x,y,z
2 x,-y,1/2+z
3 1/2+x,1/2+y,z
4 1/2+x,1/2-y,1/2+z
_cell_length_a                   19.801(6)
_cell_length_b                   14.731(4)
_cell_length_c                   12.752(4)
_cell_angle_alpha                90
_cell_angle_beta                 112.535(5)
_cell_angle_gamma                90
_cell_volume                     3435.6
_exptl_crystal_colour            brown
_exptl_crystal_description       block
_cell_formula_units_Z            4
loop_
_atom_site_label
_atom_site_type_symbol
_atom_site_fract_x
_atom_site_fract_y
_atom_site_fract_z
K1 K 0.13614(9) 0.25764(10) -0.04277(13)
Si1 Si 0.01081(11) 0.22851(14) 0.08264(17)
O1 O 0.1054(3) 0.0852(4) -0.1413(5)
O2 O 0.2484(3) 0.2922(4) -0.1194(5)
O3 O 0.0528(3) 0.2400(4) -0.2772(5)
O4 O 0.0668(3) 0.4099(4) -0.1700(5)
O5 O 0.2233(3) 0.1055(4) 0.0724(5)
O6 O 0.2390(3) 0.2772(4) 0.1730(5)
O7 O 0.1847(3) 0.4331(4) 0.0443(5)
C1 C 0.0471(4) 0.2071(5) 0.2455(7)
C2 C -0.0435(4) 0.3386(5) 0.0783(7)
C3 C -0.0686(4) 0.1425(5) 0.0311(6)
C4 C -0.0646(4) 0.3694(5) 0.1660(8)
H1 H -0.0502 0.3361 0.2349
C5 C -0.1061(5) 0.4476(6) 0.1531(9)
H2 H -0.1193 0.4667 0.2138
C6 C -0.1872(4) 0.0816(5) 0.0160(7)
H3 H -0.2303 0.0885 0.0311
C7 C 0.0126(4) 0.1563(5) 0.3028(7)
H4 H -0.0316 0.1255 0.2602
C8 C -0.1288(4) 0.4982(6) 0.0548(8)
H5 H -0.1576 0.5513 0.0472
C9 C -0.1086(5) 0.4697(6) -0.0328(8)
H6 H -0.1236 0.5033 -0.1016
C10 C 0.1055(5) 0.1924(5) 0.4846(7)
H7 H 0.1244 0.1881 0.5651
C11 C -0.1772(4) 0.0037(5) -0.0373(7)
H8 H -0.2130 -0.0430 -0.0586
C12 C 0.1423(5) 0.2418(6) 0.4307(8)
H9 H 0.1871 0.2713 0.4737
C13 C 0.2850(5) 0.2025(6) -0.2400(8)
H10 H 0.2615 0.1438 -0.2370
H11 H 0.2971 0.2041 -0.3084
C14 C 0.3188(5) 0.2551(6) -0.0520(7)
H12 H 0.3136 0.2055 -0.0033
H13 H 0.3506 0.3027 -0.0027
C15 C 0.2836(5) 0.2025(6) 0.2313(7)
H14 H 0.2985 0.2097 0.3144
H15 H 0.3282 0.1994 0.2140
C16 C 0.2171(5) 0.4344(5) 0.1643(7)
H16 H 0.1792 0.4238 0.1958
H17 H 0.2394 0.4946 0.1906
C17 C 0.0069(4) 0.3145(6) -0.3274(7)
H18 H -0.0360 0.3142 -0.3055
H19 H -0.0109 0.3101 -0.4112
C18 C 0.2376(5) 0.2820(7) -0.2366(8)
H20 H 0.2527 0.3377 -0.2653
H21 H 0.1856 0.2696 -0.2835
C19 C 0.1003(5) 0.4950(5) -0.1272(7)
H22 H 0.0649 0.5448 -0.1599
H23 H 0.1426 0.5047 -0.1492
C20 C 0.0407(4) 0.1493(6) 0.4197(7)
H24 H 0.0155 0.1146 0.4560
C21 C -0.1143(5) -0.0049(6) -0.0588(8)
H25 H -0.1069 -0.0574 -0.0964
C22 C 0.0493(5) 0.4006(6) -0.2880(7)
H26 H 0.0946 0.3985 -0.3033
H27 H 0.0198 0.4531 -0.3292
C23 C -0.1342(4) 0.1504(5) 0.0479(7)
H28 H -0.1431 0.2041 0.0819
C24 C 0.3517(5) 0.2193(6) -0.1330(8)
H29 H 0.3846 0.2646 -0.1460
H30 H 0.3792 0.1624 -0.1042
C25 C 0.2745(5) 0.3621(6) 0.2056(7)
H31 H 0.3113 0.3704 0.1713
H32 H 0.2997 0.3653 0.2892
C26 C 0.1251(5) 0.4954(6) -0.0016(8)
H33 H 0.1409 0.5572 0.0280
H34 H 0.0844 0.4771 0.0208
C27 C 0.2390(5) 0.1178(6) 0.1915(7)
H35 H 0.2664 0.0648 0.2350
H36 H 0.1928 0.1231 0.2040
C28 C 0.0694(5) 0.0783(6) -0.2601(7)
H37 H 0.0441 0.0191 -0.2808
H38 H 0.1052 0.0830 -0.2969
C29 C 0.1619(5) 0.0188(6) -0.0947(7)
H39 H 0.2033 0.0322 -0.1175
H40 H 0.1429 -0.0424 -0.1228
C30 C 0.0142(5) 0.1556(6) -0.2994(7)
H41 H -0.0153 0.1497 -0.3817
H42 H -0.0192 0.1532 -0.2583
C31 C 0.1864(5) 0.0223(6) 0.0309(7)
H43 H 0.1436 0.0171 0.0525
H44 H 0.2196 -0.0292 0.0652
C32 C -0.0666(5) 0.3923(6) -0.0199(7)
H45 H -0.0528 0.3746 -0.0805
C33 C 0.1130(5) 0.2477(6) 0.3129(7)
H46 H 0.1391 0.2810 0.2768
C34 C -0.0611(4) 0.0641(5) -0.0253(7)
H47 H -0.0184 0.0571 -0.0415
loop_
_geom_bond_atom_site_label_1
_geom_bond_atom_site_label_2
_geom_bond_site_symmetry_1
_geom_bond_site_symmetry_2
K1 Si1 1_555 1_555
Si1 C1 1_555 1_555
O1 K1 1_555 1_555
O2 K1 1_555 1_555
O3 K1 1_555 1_555
O4 K1 1_555 1_555
O5 K1 1_555 1_555
O6 K1 1_555 1_555
O7 K1 1_555 1_555
C1 C7 1_555 1_555
C2 Si1 1_555 1_555
C3 Si1 1_555 1_555
C4 C2 1_555 1_555
H1 C4 1_555 1_555
C5 C4 1_555 1_555
H2 C5 1_555 1_555
C6 H3 1_555 1_555
C7 H4 1_555 1_555
C8 C5 1_555 1_555
H5 C8 1_555 1_555
C9 C8 1_555 1_555
H6 C9 1_555 1_555
C10 H7 1_555 1_555
C11 C6 1_555 1_555
H8 C11 1_555 1_555
C12 C10 1_555 1_555
H9 C12 1_555 1_555
C13 H10 1_555 1_555
H11 C13 1_555 1_555
C14 O2 1_555 1_555
H12 C14 1_555 1_555
H13 C14 1_555 1_555
C15 O6 1_555 1_555
H14 C15 1_555 1_555
H15 C15 1_555 1_555
C16 O7 1_555 1_555
H16 C16 1_555 1_555
H17 C16 1_555 1_555
C17 O3 1_555 1_555
H18 C17 1_555 1_555
H19 C17 1_555 1_555
C18 O2 1_555 1_555
H20 C18 1_555 1_555
H21 C18 1_555 1_555
C19 O4 1_555 1_555
H22 C19 1_555 1_555
H23 C19 1_555 1_555
C20 C7 1_555 1_555
H24 C20 1_555 1_555
C21 C11 1_555 1_555
H25 C21 1_555 1_555
C22 O4 1_555 1_555
H26 C22 1_555 1_555
H27 C22 1_555 1_555
C23 C3 1_555 1_555
H28 C23 1_555 1_555
C24 C13 1_555 1_555
H29 C24 1_555 1_555
H30 C24 1_555 1_555
C25 O6 1_555 1_555
H31 C25 1_555 1_555
H32 C25 1_555 1_555
C26 O7 1_555 1_555
H33 C26 1_555 1_555
H34 C26 1_555 1_555
C27 O5 1_555 1_555
H35 C27 1_555 1_555
H36 C27 1_555 1_555
C28 O1 1_555 1_555
H37 C28 1_555 1_555
H38 C28 1_555 1_555
C29 O1 1_555 1_555
H39 C29 1_555 1_555
H40 C29 1_555 1_555
C30 O3 1_555 1_555
H41 C30 1_555 1_555
H42 C30 1_555 1_555
C31 O5 1_555 1_555
H43 C31 1_555 1_555
H44 C31 1_555 1_555
C32 C2 1_555 1_555
H45 C32 1_555 1_555
C33 C1 1_555 1_555
H46 C33 1_555 1_555
C34 C3 1_555 1_555
H47 C34 1_555 1_555
C6 C23 1_555 1_555
C9 C32 1_555 1_555
C10 C20 1_555 1_555
C12 C33 1_555 1_555
C13 C18 1_555 1_555
C14 C24 1_555 1_555
C15 C27 1_555 1_555
C16 C25 1_555 1_555
C17 C22 1_555 1_555
C19 C26 1_555 1_555
C21 C34 1_555 1_555
C28 C30 1_555 1_555
C29 C31 1_555 1_555

#END
