
#######################################################################
#
#                 Cambridge Crystallographic Data Centre
#                                CCDC 
#
#######################################################################
#
# If this CIF has been generated from an entry in the Cambridge 
# Structural Database, then it will include bibliographic, chemical, 
# crystal, experimental, refinement or atomic coordinate data resulting 
# from the CCDC's data processing and validation procedures.
#
#######################################################################

data_SIZRAW
_chemical_formula_moiety         'C26 H31 Li1 O4 Si1,0.5(C4 H8 O1)'
_chemical_name_systematic        
'(triphenylsilyl)-(12-crown-4)-lithium tetrahydrofuran solvate'
_symmetry_cell_setting           trigonal
_symmetry_space_group_name_H-M   'P -3 c 1'
_symmetry_Int_Tables_number      165
_space_group_name_Hall           '-P 3 2"c'
loop_
_symmetry_equiv_pos_site_id
_symmetry_equiv_pos_as_xyz
1 x,y,z
2 -y,x-y,z
3 -x+y,-x,z
4 y,x,1/2-z
5 -x,-x+y,1/2-z
6 x-y,-y,1/2-z
7 -x,-y,-z
8 y,-x+y,-z
9 x-y,x,-z
10 -y,-x,1/2+z
11 x,x-y,1/2+z
12 -x+y,y,1/2+z
_cell_length_a                   11.9898(9)
_cell_length_b                   11.9898(9)
_cell_length_c                   21.5449(17)
_cell_angle_alpha                90
_cell_angle_beta                 90
_cell_angle_gamma                120
_cell_volume                     2682.25
_exptl_crystal_colour            yellow
_exptl_crystal_description       block
_cell_formula_units_Z            4
loop_
_atom_site_label
_atom_site_type_symbol
_atom_site_fract_x
_atom_site_fract_y
_atom_site_fract_z
Si1 Si 0.6667 0.3333 0.13890(6)
C1 C 0.5056(4) 0.2868(4) 0.09917(14)
C2 C 0.4878(5) 0.3427(5) 0.04606(18)
H1 H 0.5605 0.4076 0.0255
C3 C 0.3662(5) 0.3056(5) 0.0226(2)
H2 H 0.3581 0.3468 -0.0128
C4 C 0.2592(5) 0.2108(5) 0.0502(2)
H3 H 0.1772 0.1860 0.0341
C5 C 0.2719(4) 0.1511(4) 0.1019(2)
H4 H 0.1985 0.0837 0.1208
C6 C 0.3928(4) 0.1904(4) 0.12601(18)
H5 H 0.3991 0.1502 0.1622
Li1 Li 0.6667 0.3333 0.2619(4)
O1 O 0.8318(11) 0.4978(11) 0.3126(5)
O2 O 0.7533(11) 0.2373(10) 0.3007(5)
O3 O 0.5094(10) 0.1736(10) 0.2983(5)
O4 O 0.5678(11) 0.4160(11) 0.3028(4)
C7 C 0.8836(15) 0.4364(12) 0.3497(7)
H6 H 0.8821 0.4632 0.3925
H7 H 0.9746 0.4761 0.3380
C8 C 0.8341(15) 0.2946(12) 0.3524(6)
H8 H 0.9061 0.2778 0.3514
H9 H 0.7858 0.2587 0.3909
C9 C 0.6652(11) 0.1045(11) 0.3098(8)
H10 H 0.6981 0.0702 0.3417
H11 H 0.6551 0.0572 0.2712
C10 C 0.5375(13) 0.0867(14) 0.3296(7)
H12 H 0.4698 -0.0019 0.3208
H13 H 0.5384 0.1005 0.3745
C11 C 0.4187(12) 0.2029(13) 0.3244(8)
H14 H 0.3685 0.1398 0.3566
H15 H 0.3592 0.1993 0.2923
C12 C 0.4896(14) 0.3352(11) 0.3519(6)
H16 H 0.4293 0.3623 0.3663
H17 H 0.5430 0.3378 0.3870
C13 C 0.6473(14) 0.5211(14) 0.3416(7)
H18 H 0.5996 0.5133 0.3798
H19 H 0.6630 0.6003 0.3208
C14 C 0.7749(13) 0.5360(16) 0.3593(6)
H20 H 0.8341 0.6265 0.3696
H21 H 0.7637 0.4849 0.3967
C1A C 0.7132(4) 0.2188(6) 0.09917(14)
C2A C 0.6573(5) 0.1451(7) 0.04606(18)
H1A H 0.5924 0.1529 0.0255
C3A C 0.6944(5) 0.0606(7) 0.0226(2)
H2A H 0.6532 0.0113 -0.0128
C4A C 0.7892(5) 0.0484(7) 0.0502(2)
H3A H 0.8140 -0.0088 0.0341
C5A C 0.8489(4) 0.1208(6) 0.1019(2)
H4A H 0.9163 0.1148 0.1208
C6A C 0.8096(4) 0.2024(6) 0.12601(18)
H5A H 0.8498 0.2489 0.1622
C1B C 0.7812(6) 0.4944(4) 0.09917(14)
C2B C 0.8549(7) 0.5122(5) 0.04606(18)
H1B H 0.8471 0.4395 0.0255
C3B C 0.9394(7) 0.6338(5) 0.0226(2)
H2B H 0.9887 0.6419 -0.0128
C4B C 0.9516(7) 0.7408(5) 0.0502(2)
H3B H 1.0088 0.8228 0.0341
C5B C 0.8792(6) 0.7281(4) 0.1019(2)
H4B H 0.8852 0.8015 0.1208
C6B C 0.7976(6) 0.6072(4) 0.12601(18)
H5B H 0.7511 0.6009 0.1622
O1A O 0.5022(11) 0.3340(16) 0.3126(5)
O2A O 0.7627(10) 0.5160(15) 0.3007(5)
O3A O 0.8264(10) 0.3358(14) 0.2983(5)
O4A O 0.5840(11) 0.1518(16) 0.3028(4)
C7A C 0.5636(12) 0.4472(19) 0.3497(7)
H6A H 0.5368 0.4189 0.3925
H7A H 0.5239 0.4985 0.3380
C8A C 0.7054(12) 0.5395(19) 0.3524(6)
H8A H 0.7222 0.6283 0.3514
H9A H 0.7413 0.5271 0.3909
C9A C 0.8955(11) 0.5607(16) 0.3098(8)
H10A H 0.9298 0.6279 0.3417
H11A H 0.9428 0.5979 0.2712
C10A C 0.9133(14) 0.4508(19) 0.3296(7)
H12A H 1.0019 0.4717 0.3208
H13A H 0.8995 0.4379 0.3745
C11A C 0.7971(13) 0.2158(18) 0.3244(8)
H14A H 0.8602 0.2287 0.3566
H15A H 0.8007 0.1599 0.2923
C12A C 0.6648(11) 0.1544(18) 0.3519(6)
H16A H 0.6377 0.0670 0.3663
H17A H 0.6622 0.2052 0.3870
C13A C 0.4789(14) 0.1262(20) 0.3416(7)
H18A H 0.4867 0.0863 0.3798
H19A H 0.3997 0.0627 0.3208
C14A C 0.4640(16) 0.2389(21) 0.3593(6)
H20A H 0.3735 0.2076 0.3696
H21A H 0.5151 0.2788 0.3967
O1B O 0.6660(16) 0.1682(11) 0.3126(5)
O2B O 0.4840(15) 0.2467(11) 0.3007(5)
O3B O 0.6642(14) 0.4906(10) 0.2983(5)
O4B O 0.8482(16) 0.4322(11) 0.3028(4)
C7B C 0.5528(19) 0.1164(15) 0.3497(7)
H6B H 0.5811 0.1179 0.3925
H7B H 0.5015 0.0254 0.3380
C8B C 0.4605(19) 0.1659(15) 0.3524(6)
H8B H 0.3717 0.0939 0.3514
H9B H 0.4729 0.2142 0.3909
C9B C 0.4393(16) 0.3348(11) 0.3098(8)
H10B H 0.3721 0.3019 0.3417
H11B H 0.4021 0.3449 0.2712
C10B C 0.5492(19) 0.4625(13) 0.3296(7)
H12B H 0.5283 0.5302 0.3208
H13B H 0.5621 0.4616 0.3745
C11B C 0.7842(18) 0.5813(12) 0.3244(8)
H14B H 0.7713 0.6315 0.3566
H15B H 0.8401 0.6408 0.2923
C12B C 0.8456(18) 0.5104(14) 0.3519(6)
H16B H 0.9330 0.5707 0.3663
H17B H 0.7948 0.4570 0.3870
C13B C 0.8738(20) 0.3527(14) 0.3416(7)
H18B H 0.9137 0.4004 0.3798
H19B H 0.9373 0.3370 0.3208
C14B C 0.7611(21) 0.2251(13) 0.3593(6)
H20B H 0.7924 0.1659 0.3696
H21B H 0.7212 0.2363 0.3967
O5 O 0.138(4) 0.036(3) 0.253(2)
C15 C 0.054(4) -0.094(4) 0.235(4)
H22 H 0.0781 -0.1534 0.2534
H23 H 0.0470 -0.1051 0.1896
C16 C -0.066(6) -0.106(6) 0.263(3)
H24 H -0.0815 -0.1484 0.3037
H25 H -0.1403 -0.1594 0.2365
C17 C -0.052(4) 0.025(5) 0.271(3)
H26 H -0.1182 0.0317 0.2474
H27 H -0.0563 0.0441 0.3145
C18 C 0.080(5) 0.113(5) 0.244(5)
H28 H 0.0756 0.1324 0.2005
H29 H 0.1250 0.1939 0.2679
O5A O -0.036(3) 0.102(5) 0.253(2)
C15A C 0.094(4) 0.148(6) 0.235(4)
H22A H 0.1534 0.2315 0.2534
H23A H 0.1051 0.1521 0.1896
C16A C 0.106(6) 0.040(8) 0.263(3)
H24A H 0.1484 0.0669 0.3037
H25A H 0.1594 0.0191 0.2365
C17A C -0.025(5) -0.077(6) 0.271(3)
H26A H -0.0317 -0.1499 0.2474
H27A H -0.0441 -0.1004 0.3145
C18A C -0.113(5) -0.033(7) 0.244(5)
H28A H -0.1324 -0.0568 0.2005
H29A H -0.1939 -0.0689 0.2679
O5B O -0.102(5) -0.138(4) 0.253(2)
C15B C -0.148(6) -0.054(4) 0.235(4)
H22B H -0.2315 -0.0781 0.2534
H23B H -0.1521 -0.0470 0.1896
C16B C -0.040(8) 0.066(6) 0.263(3)
H24B H -0.0669 0.0815 0.3037
H25B H -0.0191 0.1403 0.2365
C17B C 0.077(6) 0.052(4) 0.271(3)
H26B H 0.1499 0.1182 0.2474
H27B H 0.1004 0.0563 0.3145
C18B C 0.033(7) -0.080(5) 0.244(5)
H28B H 0.0568 -0.0756 0.2005
H29B H 0.0689 -0.1250 0.2679
O5C O 0.036(3) 0.138(4) 0.247(2)
C15C C -0.094(4) 0.054(4) 0.265(4)
H22C H -0.1534 0.0781 0.2466
H23C H -0.1051 0.0470 0.3104
C16C C -0.106(6) -0.066(6) 0.237(3)
H24C H -0.1484 -0.0815 0.1963
H25C H -0.1594 -0.1403 0.2635
C17C C 0.025(5) -0.052(4) 0.229(3)
H26C H 0.0317 -0.1182 0.2526
H27C H 0.0441 -0.0563 0.1855
C18C C 0.113(5) 0.080(5) 0.256(5)
H28C H 0.1324 0.0756 0.2995
H29C H 0.1939 0.1250 0.2321
O5D O -0.138(4) -0.102(5) 0.247(2)
C15D C -0.054(4) -0.148(6) 0.265(4)
H22D H -0.0781 -0.2315 0.2466
H23D H -0.0470 -0.1521 0.3104
C16D C 0.066(6) -0.040(8) 0.237(3)
H24D H 0.0815 -0.0669 0.1963
H25D H 0.1403 -0.0191 0.2635
C17D C 0.052(4) 0.077(6) 0.229(3)
H26D H 0.1182 0.1499 0.2526
H27D H 0.0563 0.1004 0.1855
C18D C -0.080(5) 0.033(7) 0.256(5)
H28D H -0.0756 0.0568 0.2995
H29D H -0.1250 0.0689 0.2321
O5E O 0.102(5) -0.036(3) 0.247(2)
C15E C 0.148(6) 0.094(4) 0.265(4)
H22E H 0.2315 0.1534 0.2466
H23E H 0.1521 0.1051 0.3104
C16E C 0.040(8) 0.106(6) 0.237(3)
H24E H 0.0669 0.1484 0.1963
H25E H 0.0191 0.1594 0.2635
C17E C -0.077(6) -0.025(5) 0.229(3)
H26E H -0.1499 -0.0317 0.2526
H27E H -0.1004 -0.0441 0.1855
C18E C -0.033(7) -0.113(5) 0.256(5)
H28E H -0.0568 -0.1324 0.2995
H29E H -0.0689 -0.1939 0.2321
loop_
_geom_bond_atom_site_label_1
_geom_bond_atom_site_label_2
_geom_bond_site_symmetry_1
_geom_bond_site_symmetry_2
Si1 C1 1_555 1_555
C1 C2 1_555 1_555
C2 H1 1_555 1_555
C3 C2 1_555 1_555
H2 C3 1_555 1_555
C4 C3 1_555 1_555
H3 C4 1_555 1_555
C5 C4 1_555 1_555
H4 C5 1_555 1_555
C6 C1 1_555 1_555
H5 C6 1_555 1_555
Li1 Si1 1_555 1_555
O1 Li1 1_555 1_555
O2 Li1 1_555 1_555
O3 Li1 1_555 1_555
O4 Li1 1_555 1_555
C7 O1 1_555 1_555
H6 C7 1_555 1_555
H7 C7 1_555 1_555
C8 O2 1_555 1_555
H8 C8 1_555 1_555
H9 C8 1_555 1_555
C9 O2 1_555 1_555
H10 C9 1_555 1_555
H11 C9 1_555 1_555
C10 O3 1_555 1_555
H12 C10 1_555 1_555
H13 C10 1_555 1_555
C11 O3 1_555 1_555
H14 C11 1_555 1_555
H15 C11 1_555 1_555
C12 O4 1_555 1_555
H16 C12 1_555 1_555
H17 C12 1_555 1_555
C13 O4 1_555 1_555
H18 C13 1_555 1_555
H19 C13 1_555 1_555
C14 O1 1_555 1_555
H20 C14 1_555 1_555
H21 C14 1_555 1_555
O5 C15 1_555 1_555
C15 H22 1_555 1_555
H22 C18B 1_555 1_555
H23 C15 1_555 1_555
C16 C15 1_555 1_555
H24 C16 1_555 1_555
H25 C16 1_555 1_555
C17 C16 1_555 1_555
H26 C17 1_555 1_555
H27 C17 1_555 1_555
C18 O5 1_555 1_555
H28 C18 1_555 1_555
H29 C18 1_555 1_555
C1A Si1 1_555 1_555
C2A C1A 1_555 1_555
H1A C2A 1_555 1_555
C3A C2A 1_555 1_555
H2A C3A 1_555 1_555
C4A C3A 1_555 1_555
H3A C4A 1_555 1_555
C5A C4A 1_555 1_555
H4A C5A 1_555 1_555
C6A C1A 1_555 1_555
H5A C6A 1_555 1_555
C1B Si1 1_555 1_555
C2B C1B 1_555 1_555
H1B C2B 1_555 1_555
C3B C2B 1_555 1_555
H2B C3B 1_555 1_555
C4B C3B 1_555 1_555
H3B C4B 1_555 1_555
C5B C4B 1_555 1_555
H4B C5B 1_555 1_555
C6B C1B 1_555 1_555
H5B C6B 1_555 1_555
O1A Li1 1_555 1_555
O2A Li1 1_555 1_555
O3A Li1 1_555 1_555
O4A Li1 1_555 1_555
C7A O4 1_555 1_555
H6A C12 1_555 1_555
H7A C7A 1_555 1_555
C8A C13 1_555 1_555
H8A C13 1_555 1_555
H9A C14 1_555 1_555
C9A O1 1_555 1_555
H10A C9A 1_555 1_555
H11A C9A 1_555 1_555
C10A O1 1_555 1_555
H12A C10A 1_555 1_555
H13A C7 1_555 1_555
C11A O2 1_555 1_555
H14A C8 1_555 1_555
H15A O2 1_555 1_555
C12A O2 1_555 1_555
H16A C9 1_555 1_555
H17A C12A 1_555 1_555
C13A O3 1_555 1_555
H18A C10 1_555 1_555
H19A C13A 1_555 1_555
C14A O3 1_555 1_555
H20A C11 1_555 1_555
H21A C12 1_555 1_555
O1B Li1 1_555 1_555
O2B Li1 1_555 1_555
O3B Li1 1_555 1_555
O4B Li1 1_555 1_555
C7B O3 1_555 1_555
H6B C12A 1_555 1_555
H7B C10 1_555 1_555
C8B O3 1_555 1_555
H8B C11 1_555 1_555
H9B C14A 1_555 1_555
C9B O4 1_555 1_555
H10B C12 1_555 1_555
H11B C9B 1_555 1_555
C10B O4 1_555 1_555
H12B C10B 1_555 1_555
H13B C13 1_555 1_555
C11B O1 1_555 1_555
H14B C14 1_555 1_555
H15B O2A 1_555 1_555
C12B O1 1_555 1_555
H16B C9A 1_555 1_555
H17B C14 1_555 1_555
C13B O2 1_555 1_555
H18B C7 1_555 1_555
H19B C8 1_555 1_555
C14B O2 1_555 1_555
H20B C11A 1_555 1_555
H21B C12A 1_555 1_555
O5A C17 1_555 1_555
C15A O5 1_555 1_555
H22A C18 1_555 1_555
H23A C18 1_555 1_555
C16A C15 1_555 1_555
H24A O5 1_555 1_555
H25A C15 1_555 1_555
C17A O5 1_555 1_555
H26A C15 1_555 1_555
H27A C16 1_555 1_555
C18A C16 1_555 1_555
H28A C18A 1_555 1_555
H29A C18A 1_555 1_555
O5B C15 1_555 1_555
C15B C16 1_555 1_555
H22B C18A 1_555 1_555
H23B C18A 1_555 1_555
C16B H26 1_555 1_555
H24B C17 1_555 1_555
H25B C15A 1_555 1_555
C17B O5 1_555 1_555
H26B O5 1_555 1_555
H27B C16A 1_555 1_555
C18B O5 1_555 1_555
H28B C15 1_555 1_555
H29B C15 1_555 1_555
O5C C17 1_555 1_555
C15C C17 1_555 1_555
H22C O5A 1_555 1_555
H23C C17 1_555 1_555
C16C C16 1_555 1_555
H24C C18A 1_555 1_555
H25C C16 1_555 1_555
C17C O5 1_555 1_555
H26C C16 1_555 1_555
H27C C15 1_555 1_555
C18C O5 1_555 1_555
H28C O5 1_555 1_555
H29C O5 1_555 1_555
O5D C16 1_555 1_555
C15D C15 1_555 1_555
H22D O5B 1_555 1_555
H23D C16 1_555 1_555
C16D O5 1_555 1_555
H24D C15 1_555 1_555
H25D O5 1_555 1_555
C17D O5 1_555 1_555
H26D C16A 1_555 1_555
H27D C18 1_555 1_555
C18D C16 1_555 1_555
H28D C17 1_555 1_555
H29D O5A 1_555 1_555
O5E O5 1_555 1_555
C15E O5 1_555 1_555
H22E O5 1_555 1_555
H23E C16A 1_555 1_555
C16E O5 1_555 1_555
H24E C18 1_555 1_555
H25E C18 1_555 1_555
C17E C16 1_555 1_555
H26E C17 1_555 1_555
H27E C18A 1_555 1_555
C18E C15 1_555 1_555
H28E C16 1_555 1_555
H29E C15 1_555 1_555
C5 C6 1_555 1_555
O1 O2A 1_555 1_555
O1 O4B 1_555 1_555
O2 O3A 1_555 1_555
O2 O4A 1_555 1_555
O2 O1B 1_555 1_555
O3 O4A 1_555 1_555
O3 O2B 1_555 1_555
O4 O1A 1_555 1_555
O4 O2B 1_555 1_555
O4 O3B 1_555 1_555
C7 C8 1_555 1_555
C7 O3A 1_555 1_555
C7 C9A 1_555 1_555
C7 O4B 1_555 1_555
C7 C12B 1_555 1_555
C7 C13B 1_555 1_555
H6 C12B 1_555 1_555
H7 C10A 1_555 1_555
C8 O3A 1_555 1_555
C8 C10A 1_555 1_555
C8 C11A 1_555 1_555
C8 C13B 1_555 1_555
C8 H18B 1_555 1_555
C8 C14B 1_555 1_555
H8 C11A 1_555 1_555
H8 C13B 1_555 1_555
H9 C14B 1_555 1_555
C9 C10 1_555 1_555
C9 O4A 1_555 1_555
C9 C11A 1_555 1_555
C9 C12A 1_555 1_555
C9 O1B 1_555 1_555
C9 C7B 1_555 1_555
C9 C14B 1_555 1_555
H10 C12A 1_555 1_555
C10 O4A 1_555 1_555
C10 C12A 1_555 1_555
C10 C13A 1_555 1_555
C10 O1B 1_555 1_555
C10 C8B 1_555 1_555
H13 C13A 1_555 1_555
H13 C7B 1_555 1_555
C11 C12 1_555 1_555
C11 O1A 1_555 1_555
C11 C13A 1_555 1_555
C11 C14A 1_555 1_555
C11 O2B 1_555 1_555
C11 C8B 1_555 1_555
C11 C9B 1_555 1_555
H14 C14A 1_555 1_555
H14 C8B 1_555 1_555
H15 O2B 1_555 1_555
C12 O1A 1_555 1_555
C12 C7A 1_555 1_555
C12 C14A 1_555 1_555
C12 O2B 1_555 1_555
C12 C9B 1_555 1_555
C12 C10B 1_555 1_555
H16 C9B 1_555 1_555
H17 C14A 1_555 1_555
C13 C14 1_555 1_555
C13 O2A 1_555 1_555
C13 C7A 1_555 1_555
C13 O3B 1_555 1_555
C13 C10B 1_555 1_555
C13 C11B 1_555 1_555
H18 C7A 1_555 1_555
H18 C8A 1_555 1_555
H18 C10B 1_555 1_555
H19 C8A 1_555 1_555
C14 O2A 1_555 1_555
C14 C8A 1_555 1_555
C14 C9A 1_555 1_555
C14 O3B 1_555 1_555
C14 C11B 1_555 1_555
C14 C12B 1_555 1_555
H20 C11B 1_555 1_555
H21 C12B 1_555 1_555
C15 C17A 1_555 1_555
C15 C17B 1_555 1_555
C15 C17C 1_555 1_555
C15 C16D 1_555 1_555
C15 H25D 1_555 1_555
C15 O5E 1_555 1_555
H22 O5E 1_555 1_555
H23 C18B 1_555 1_555
H23 C17C 1_555 1_555
H23 C16D 1_555 1_555
C16 H26A 1_555 1_555
C16 C18B 1_555 1_555
C16 C17C 1_555 1_555
C16 C15D 1_555 1_555
C16 C16D 1_555 1_555
C16 O5E 1_555 1_555
C16 H29E 1_555 1_555
H24 C17A 1_555 1_555
H24 O5B 1_555 1_555
H24 C15D 1_555 1_555
H24 C18E 1_555 1_555
H25 C15B 1_555 1_555
H25 C16C 1_555 1_555
H25 O5D 1_555 1_555
H25 C15D 1_555 1_555
H25 C18E 1_555 1_555
C17 C18 1_555 1_555
C17 C15A 1_555 1_555
C17 C17A 1_555 1_555
C17 C18A 1_555 1_555
C17 O5B 1_555 1_555
C17 C15B 1_555 1_555
C17 C17B 1_555 1_555
C17 C16C 1_555 1_555
C17 C18C 1_555 1_555
C17 O5D 1_555 1_555
C17 C17D 1_555 1_555
C17 C16E 1_555 1_555
C17 C17E 1_555 1_555
C17 C18E 1_555 1_555
H26 O5A 1_555 1_555
H26 C18A 1_555 1_555
H26 C15B 1_555 1_555
H26 C16C 1_555 1_555
H26 C17E 1_555 1_555
H27 C16B 1_555 1_555
H27 C15C 1_555 1_555
H27 C18D 1_555 1_555
C18 O5A 1_555 1_555
C18 C16A 1_555 1_555
C18 C16B 1_555 1_555
C18 C17B 1_555 1_555
C18 H26B 1_555 1_555
C18 O5C 1_555 1_555
C18 C17C 1_555 1_555
C18 C18C 1_555 1_555
C18 H29C 1_555 1_555
C18 C16D 1_555 1_555
C18 C18D 1_555 1_555
C18 C15E 1_555 1_555
C18 C17E 1_555 1_555
H28 C15A 1_555 1_555
H28 O5C 1_555 1_555
H28 C17D 1_555 1_555
H28 C16E 1_555 1_555
H29 C15A 1_555 1_555
H29 O5C 1_555 1_555
H29 C18C 1_555 1_555
H29 C15E 1_555 1_555
H29 C16E 1_555 1_555
C5A C6A 1_555 1_555
C5B C6B 1_555 1_555
O1A C7A 1_555 1_555
O1A C14A 1_555 1_555
O1A O2B 1_555 1_555
O1A C9B 1_555 1_555
O1A C10B 1_555 1_555
O2A C8A 1_555 1_555
O2A C9A 1_555 1_555
O2A O3B 1_555 1_555
O2A O4B 1_555 1_555
O2A C11B 1_555 1_555
O2A C12B 1_555 1_555
O3A C10A 1_555 1_555
O3A C11A 1_555 1_555
O3A O4B 1_555 1_555
O3A C13B 1_555 1_555
O3A C14B 1_555 1_555
O4A C12A 1_555 1_555
O4A C13A 1_555 1_555
O4A O1B 1_555 1_555
O4A C7B 1_555 1_555
C7A H6A 1_555 1_555
C7A C8A 1_555 1_555
C7A O3B 1_555 1_555
C7A C9B 1_555 1_555
C7A H13B 1_555 1_555
H7A C10B 1_555 1_555
C8A H8A 1_555 1_555
C8A H9A 1_555 1_555
C8A O3B 1_555 1_555
C8A C10B 1_555 1_555
C8A C11B 1_555 1_555
C8A H14B 1_555 1_555
H8A C11B 1_555 1_555
C9A C10A 1_555 1_555
C9A O4B 1_555 1_555
C9A C11B 1_555 1_555
C9A C12B 1_555 1_555
H10A C12B 1_555 1_555
C10A H13A 1_555 1_555
C10A O4B 1_555 1_555
C10A C12B 1_555 1_555
C10A C13B 1_555 1_555
C10A H18B 1_555 1_555
H13A C13B 1_555 1_555
C11A H14A 1_555 1_555
C11A H15A 1_555 1_555
C11A C12A 1_555 1_555
C11A O1B 1_555 1_555
C11A C13B 1_555 1_555
C11A C14B 1_555 1_555
H14A C14B 1_555 1_555
C12A H16A 1_555 1_555
C12A O1B 1_555 1_555
C12A C7B 1_555 1_555
C12A C14B 1_555 1_555
H17A C14B 1_555 1_555
C13A H18A 1_555 1_555
C13A C14A 1_555 1_555
C13A O2B 1_555 1_555
C13A C7B 1_555 1_555
C13A C8B 1_555 1_555
C13A H8B 1_555 1_555
H18A C7B 1_555 1_555
H18A C8B 1_555 1_555
H19A C8B 1_555 1_555
C14A H20A 1_555 1_555
C14A H21A 1_555 1_555
C14A O2B 1_555 1_555
C14A C8B 1_555 1_555
C14A C9B 1_555 1_555
O1B C7B 1_555 1_555
O1B C14B 1_555 1_555
O2B C8B 1_555 1_555
O2B C9B 1_555 1_555
O3B C10B 1_555 1_555
O3B C11B 1_555 1_555
O4B C12B 1_555 1_555
O4B C13B 1_555 1_555
C7B H6B 1_555 1_555
C7B H7B 1_555 1_555
C7B C8B 1_555 1_555
C8B H8B 1_555 1_555
C8B H9B 1_555 1_555
C9B H10B 1_555 1_555
C9B C10B 1_555 1_555
C10B H13B 1_555 1_555
C11B H14B 1_555 1_555
C11B H15B 1_555 1_555
C11B C12B 1_555 1_555
C12B H16B 1_555 1_555
C12B H17B 1_555 1_555
C13B H18B 1_555 1_555
C13B H19B 1_555 1_555
C13B C14B 1_555 1_555
C14B H20B 1_555 1_555
C14B H21B 1_555 1_555
O5A C15A 1_555 1_555
O5A C18A 1_555 1_555
O5A C15B 1_555 1_555
O5A H24B 1_555 1_555
O5A C17B 1_555 1_555
O5A O5C 1_555 1_555
O5A C15C 1_555 1_555
O5A C16C 1_555 1_555
O5A C17D 1_555 1_555
O5A C18D 1_555 1_555
O5A H28D 1_555 1_555
O5A C16E 1_555 1_555
O5A H25E 1_555 1_555
O5A C17E 1_555 1_555
C15A H22A 1_555 1_555
C15A H23A 1_555 1_555
C15A C16A 1_555 1_555
C15A C16B 1_555 1_555
C15A C17B 1_555 1_555
C15A H26B 1_555 1_555
C15A O5C 1_555 1_555
C15A C18C 1_555 1_555
C15A H29C 1_555 1_555
C15A C17D 1_555 1_555
C15A H27D 1_555 1_555
C15A C15E 1_555 1_555
C15A C16E 1_555 1_555
C15A H24E 1_555 1_555
C15A H25E 1_555 1_555
H22A O5C 1_555 1_555
H23A C17D 1_555 1_555
H23A C16E 1_555 1_555
C16A H24A 1_555 1_555
C16A H25A 1_555 1_555
C16A C17A 1_555 1_555
C16A H26B 1_555 1_555
C16A C18B 1_555 1_555
C16A O5C 1_555 1_555
C16A C17C 1_555 1_555
C16A H28C 1_555 1_555
C16A H29C 1_555 1_555
C16A C16D 1_555 1_555
C16A H25D 1_555 1_555
C16A C17D 1_555 1_555
C16A O5E 1_555 1_555
C16A C15E 1_555 1_555
C16A C16E 1_555 1_555
C16A C18E 1_555 1_555
H24A C17B 1_555 1_555
H24A C18C 1_555 1_555
H24A C15E 1_555 1_555
H25A C18C 1_555 1_555
H25A C16D 1_555 1_555
H25A O5E 1_555 1_555
H25A C15E 1_555 1_555
C17A H26A 1_555 1_555
C17A H27A 1_555 1_555
C17A C18A 1_555 1_555
C17A O5B 1_555 1_555
C17A C15B 1_555 1_555
C17A C17B 1_555 1_555
C17A C18B 1_555 1_555
C17A C16C 1_555 1_555
C17A C17C 1_555 1_555
C17A H26C 1_555 1_555
C17A C18C 1_555 1_555
C17A O5D 1_555 1_555
C17A C15D 1_555 1_555
C17A H23D 1_555 1_555
C17A C16D 1_555 1_555
C17A C18D 1_555 1_555
C17A O5E 1_555 1_555
C17A C17E 1_555 1_555
C17A H28E 1_555 1_555
H26A O5B 1_555 1_555
H26A C18B 1_555 1_555
H26A C17C 1_555 1_555
H26A C16D 1_555 1_555
H27A C15D 1_555 1_555
H27A C18E 1_555 1_555
C18A O5B 1_555 1_555
C18A C16B 1_555 1_555
C18A C15C 1_555 1_555
C18A H25C 1_555 1_555
C18A C17C 1_555 1_555
C18A O5D 1_555 1_555
C18A C17D 1_555 1_555
C18A C18D 1_555 1_555
C18A H29D 1_555 1_555
C18A C16E 1_555 1_555
C18A C18E 1_555 1_555
H28A C15B 1_555 1_555
H28A C16C 1_555 1_555
H28A O5D 1_555 1_555
H28A C17E 1_555 1_555
H29A C15B 1_555 1_555
H29A C15C 1_555 1_555
H29A C16C 1_555 1_555
H29A O5D 1_555 1_555
H29A C18D 1_555 1_555
O5B C15B 1_555 1_555
O5B C18B 1_555 1_555
O5B C16C 1_555 1_555
O5B H25C 1_555 1_555
O5B C17C 1_555 1_555
O5B O5D 1_555 1_555
O5B C15D 1_555 1_555
O5B C16D 1_555 1_555
O5B C17E 1_555 1_555
O5B C18E 1_555 1_555
O5B H28E 1_555 1_555
O5B H29E 1_555 1_555
C15B H22B 1_555 1_555
C15B H23B 1_555 1_555
C15B C16B 1_555 1_555
C15B C15C 1_555 1_555
C15B C16C 1_555 1_555
C15B H24C 1_555 1_555
C15B H25C 1_555 1_555
C15B O5D 1_555 1_555
C15B C18D 1_555 1_555
C15B H29D 1_555 1_555
C15B C17E 1_555 1_555
C15B H27E 1_555 1_555
H22B O5D 1_555 1_555
H23B C16C 1_555 1_555
H23B C17E 1_555 1_555
C16B H24B 1_555 1_555
C16B H25B 1_555 1_555
C16B C17B 1_555 1_555
C16B O5C 1_555 1_555
C16B C15C 1_555 1_555
C16B H23C 1_555 1_555
C16B C16C 1_555 1_555
C16B C18C 1_555 1_555
C16B O5D 1_555 1_555
C16B C17D 1_555 1_555
C16B H28D 1_555 1_555
C16B H29D 1_555 1_555
C16B C16E 1_555 1_555
C16B H25E 1_555 1_555
C16B C17E 1_555 1_555
C16B H26E 1_555 1_555
H24B C15C 1_555 1_555
H24B C18D 1_555 1_555
H25B O5C 1_555 1_555
H25B C15C 1_555 1_555
H25B C18D 1_555 1_555
H25B C16E 1_555 1_555
C17B H26B 1_555 1_555
C17B H27B 1_555 1_555
C17B C18B 1_555 1_555
C17B O5C 1_555 1_555
C17B C17C 1_555 1_555
C17B H28C 1_555 1_555
C17B C16D 1_555 1_555
C17B C17D 1_555 1_555
C17B H26D 1_555 1_555
C17B C18D 1_555 1_555
C17B O5E 1_555 1_555
C17B C15E 1_555 1_555
C17B H23E 1_555 1_555
C17B C16E 1_555 1_555
C17B C18E 1_555 1_555
H26B C17D 1_555 1_555
H26B C16E 1_555 1_555
H27B C18C 1_555 1_555
H27B C15E 1_555 1_555
C18B H28B 1_555 1_555
C18B H29B 1_555 1_555
C18B C16C 1_555 1_555
C18B H27C 1_555 1_555
C18B C18C 1_555 1_555
C18B C15D 1_555 1_555
C18B H24D 1_555 1_555
C18B H25D 1_555 1_555
C18B C17D 1_555 1_555
C18B O5E 1_555 1_555
C18B C17E 1_555 1_555
C18B C18E 1_555 1_555
C18B H29E 1_555 1_555
H28B C17C 1_555 1_555
H28B C16D 1_555 1_555
H28B O5E 1_555 1_555
H29B C15D 1_555 1_555
H29B C16D 1_555 1_555
H29B O5E 1_555 1_555
H29B C18E 1_555 1_555
O5C C15C 1_555 1_555
O5C C18C 1_555 1_555
O5C C17D 1_555 1_555
O5C H26D 1_555 1_555
O5C C18D 1_555 1_555
O5C C15E 1_555 1_555
O5C H24E 1_555 1_555
O5C C17E 1_555 1_555
C15C H22C 1_555 1_555
C15C H23C 1_555 1_555
C15C C16C 1_555 1_555
C15C O5D 1_555 1_555
C15C C17D 1_555 1_555
C15C H28D 1_555 1_555
C15C H29D 1_555 1_555
C15C C16E 1_555 1_555
C15C H25E 1_555 1_555
C15C C17E 1_555 1_555
C15C H26E 1_555 1_555
H22C C18D 1_555 1_555
H23C C18D 1_555 1_555
C16C H24C 1_555 1_555
C16C H25C 1_555 1_555
C16C C17C 1_555 1_555
C16C C15D 1_555 1_555
C16C C18D 1_555 1_555
C16C H26E 1_555 1_555
C16C H27E 1_555 1_555
C16C C18E 1_555 1_555
H24C O5D 1_555 1_555
H24C C17E 1_555 1_555
H25C C15D 1_555 1_555
C17C H26C 1_555 1_555
C17C H27C 1_555 1_555
C17C C18C 1_555 1_555
C17C O5D 1_555 1_555
C17C C15D 1_555 1_555
C17C H24D 1_555 1_555
C17C C17D 1_555 1_555
C17C O5E 1_555 1_555
C17C C15E 1_555 1_555
C17C C17E 1_555 1_555
C17C C18E 1_555 1_555
H26C C15D 1_555 1_555
H26C C16D 1_555 1_555
H26C O5E 1_555 1_555
H26C C18E 1_555 1_555
H27C C16D 1_555 1_555
C18C H28C 1_555 1_555
C18C H29C 1_555 1_555
C18C C16D 1_555 1_555
C18C C17D 1_555 1_555
C18C H26D 1_555 1_555
C18C O5E 1_555 1_555
C18C H22E 1_555 1_555
C18C H23E 1_555 1_555
C18C C16E 1_555 1_555
H28C C15E 1_555 1_555
H29C C15E 1_555 1_555
O5D C15D 1_555 1_555
O5D C18D 1_555 1_555
O5D C17E 1_555 1_555
O5D H26E 1_555 1_555
O5D C18E 1_555 1_555
C15D H22D 1_555 1_555
C15D H23D 1_555 1_555
C15D C16D 1_555 1_555
C15D O5E 1_555 1_555
C15D C17E 1_555 1_555
C15D H28E 1_555 1_555
C15D H29E 1_555 1_555
H22D C18E 1_555 1_555
H23D C18E 1_555 1_555
C16D H24D 1_555 1_555
C16D H25D 1_555 1_555
C16D C17D 1_555 1_555
C16D C15E 1_555 1_555
C16D C18E 1_555 1_555
H24D O5E 1_555 1_555
H25D C15E 1_555 1_555
C17D H26D 1_555 1_555
C17D H27D 1_555 1_555
C17D C18D 1_555 1_555
C17D O5E 1_555 1_555
C17D C15E 1_555 1_555
C17D H24E 1_555 1_555
C17D C17E 1_555 1_555
H26D C15E 1_555 1_555
H26D C16E 1_555 1_555
H27D C16E 1_555 1_555
C18D H28D 1_555 1_555
C18D H29D 1_555 1_555
C18D C16E 1_555 1_555
C18D C17E 1_555 1_555
C18D H26E 1_555 1_555
O5E C15E 1_555 1_555
O5E C18E 1_555 1_555
C15E H22E 1_555 1_555
C15E H23E 1_555 1_555
C15E C16E 1_555 1_555
C16E H24E 1_555 1_555
C16E H25E 1_555 1_555
C16E C17E 1_555 1_555
C17E H26E 1_555 1_555
C17E H27E 1_555 1_555
C17E C18E 1_555 1_555
C18E H28E 1_555 1_555
C18E H29E 1_555 1_555

#END
