
#######################################################################
#
#                 Cambridge Crystallographic Data Centre
#                                CCDC 
#
#######################################################################
#
# If this CIF has been generated from an entry in the Cambridge 
# Structural Database, then it will include bibliographic, chemical, 
# crystal, experimental, refinement or atomic coordinate data resulting 
# from the CCDC's data processing and validation procedures.
#
#######################################################################

data_SIZREA
_chemical_formula_moiety         'C28 H35 Na1 O5 Si1,0.5(C4 H8 O1)'
_chemical_name_systematic        
'(triphenylsilyl)-(15-crown-5)-sodium tetrahydrofuran solvate'
_symmetry_cell_setting           trigonal
_symmetry_space_group_name_H-M   'P -3'
_symmetry_Int_Tables_number      147
_space_group_name_Hall           '-P 3'
loop_
_symmetry_equiv_pos_site_id
_symmetry_equiv_pos_as_xyz
1 x,y,z
2 -y,x-y,z
3 -x+y,-x,z
4 -x,-y,-z
5 y,-x+y,-z
6 x-y,x,-z
_cell_length_a                   12.858(5)
_cell_length_b                   12.858(5)
_cell_length_c                   10.756(5)
_cell_angle_alpha                90
_cell_angle_beta                 90
_cell_angle_gamma                120
_cell_volume                     1540.03
_exptl_crystal_colour            yellow
_exptl_crystal_description       block
_cell_formula_units_Z            2
loop_
_atom_site_label
_atom_site_type_symbol
_atom_site_fract_x
_atom_site_fract_y
_atom_site_fract_z
Si1 Si 0.3333 0.6667 0.2608(2)
C1 C 0.4824(6) 0.7744(5) 0.1814(5)
C2 C 0.5855(6) 0.7864(5) 0.2308(6)
H1 H 0.5795 0.7403 0.3012
C3 C 0.6985(6) 0.8628(6) 0.1829(7)
H2 H 0.7663 0.8650 0.2184
C4 C 0.5000(7) 0.8495(7) 0.0811(6)
H3 H 0.4326 0.8471 0.0440
C5 C 0.7116(8) 0.9345(6) 0.0848(7)
H4 H 0.7882 0.9881 0.0531
C6 C 0.6125(8) 0.9276(8) 0.0336(7)
H5 H 0.6201 0.9764 -0.0349
Na1 Na 0.3333 0.6667 0.5381(3)
O1 O 0.2913(11) 0.8310(8) 0.6026(15)
O2 O 0.1634(11) 0.6745(14) 0.6472(14)
O3 O 0.3697(10) 0.8758(13) 0.5785(14)
O4 O 0.2367(13) 0.7563(9) 0.6721(13)
O5 O 0.4778(14) 0.8698(8) 0.6293(15)
C7 C 0.4056(15) 0.9320(8) 0.6405(19)
H6 H 0.3932 0.9944 0.6780
H7 H 0.4581 0.9664 0.5680
C8 C 0.1871(13) 0.7967(15) 0.635(2)
H8 H 0.1265 0.8077 0.6787
H9 H 0.1888 0.8185 0.5473
C9 C 0.4932(14) 0.9465(18) 0.6200(19)
H10 H 0.4989 1.0119 0.6715
H11 H 0.5430 0.9833 0.5462
C10 C 0.2929(12) 0.8821(9) 0.6380(17)
H12 H 0.2547 0.9240 0.6757
H13 H 0.3022 0.8960 0.5481
C11 C 0.5974(17) 0.8895(10) 0.6058(18)
H14 H 0.6615 0.9706 0.6271
H15 H 0.6080 0.8677 0.5214
C1A C 0.2256(5) 0.7080(8) 0.1814(5)
C2A C 0.2136(5) 0.7991(8) 0.2308(6)
H1A H 0.2597 0.8392 0.3012
C3A C 0.1372(6) 0.8357(8) 0.1829(7)
H2A H 0.1350 0.9013 0.2184
C4A C 0.1505(7) 0.6505(10) 0.0811(6)
H3A H 0.1529 0.5855 0.0440
C5A C 0.0655(6) 0.7771(10) 0.0848(7)
H4A H 0.0119 0.8001 0.0531
C6A C 0.0724(8) 0.6849(11) 0.0336(7)
H5A H 0.0236 0.6437 -0.0349
C1B C 0.2920(8) 0.5176(6) 0.1814(5)
C2B C 0.2009(8) 0.4145(6) 0.2308(6)
H1B H 0.1608 0.4205 0.3012
C3B C 0.1643(8) 0.3015(6) 0.1829(7)
H2B H 0.0987 0.2337 0.2184
C4B C 0.3495(10) 0.5000(7) 0.0811(6)
H3B H 0.4145 0.5674 0.0440
C5B C 0.2229(10) 0.2884(8) 0.0848(7)
H4B H 0.1999 0.2118 0.0531
C6B C 0.3151(11) 0.3875(8) 0.0336(7)
H5B H 0.3563 0.3799 -0.0349
O1A O 0.1690(8) 0.4603(14) 0.6026(15)
C7A C 0.0680(8) 0.4736(17) 0.6405(19)
H6A H 0.0056 0.3988 0.6780
H7A H 0.0336 0.4917 0.5680
O2A O 0.3255(14) 0.4889(18) 0.6472(14)
C8A C 0.2033(15) 0.3904(20) 0.635(2)
H8A H 0.1923 0.3188 0.6787
H9A H 0.1815 0.3703 0.5473
O3A O 0.1242(13) 0.4939(16) 0.5785(14)
C9A C 0.0535(18) 0.5467(23) 0.6200(19)
H10A H -0.0119 0.4870 0.6715
H11A H 0.0167 0.5597 0.5462
O4A O 0.2437(9) 0.4804(16) 0.6721(13)
C10A C 0.1179(9) 0.4108(15) 0.6380(17)
H12A H 0.0760 0.3307 0.6757
H13A H 0.1040 0.4062 0.5481
O5A O 0.1302(8) 0.6080(16) 0.6293(15)
C11A C 0.1105(10) 0.7079(20) 0.6058(18)
H14A H 0.0294 0.6909 0.6271
H15A H 0.1323 0.7403 0.5214
O1B O 0.5397(14) 0.7087(11) 0.6026(15)
C7B C 0.5264(17) 0.5944(15) 0.6405(19)
H6B H 0.6012 0.6068 0.6780
H7B H 0.5083 0.5419 0.5680
O2B O 0.5111(18) 0.8366(11) 0.6472(14)
C8B C 0.6096(20) 0.8129(13) 0.635(2)
H8B H 0.6812 0.8735 0.6787
H9B H 0.6297 0.8112 0.5473
O3B O 0.5061(16) 0.6303(10) 0.5785(14)
C9B C 0.4533(23) 0.5068(14) 0.6200(19)
H10B H 0.5130 0.5011 0.6715
H11B H 0.4403 0.4570 0.5462
O4B O 0.5196(16) 0.7633(13) 0.6721(13)
C10B C 0.5892(15) 0.7071(12) 0.6380(17)
H12B H 0.6693 0.7453 0.6757
H13B H 0.5938 0.6978 0.5481
O5B O 0.3920(16) 0.5222(14) 0.6293(15)
C11B C 0.2921(20) 0.4026(17) 0.6058(18)
H14B H 0.3091 0.3385 0.6271
H15B H 0.2597 0.3920 0.5214
O6 O 0.1002(12) 0.0055(15) 0.484(2)
C12 C -0.0085(10) -0.083(2) 0.4278(18)
H16 H -0.0094 -0.1596 0.4234
H17 H -0.0143 -0.0586 0.3430
C13 C -0.1130(11) -0.098(2) 0.5035(16)
H18 H -0.1619 -0.0730 0.4558
H19 H -0.1638 -0.1817 0.5290
C14 C -0.0583(15) -0.018(2) 0.6146(14)
H20 H -0.1042 0.0200 0.6407
H21 H -0.0492 -0.0616 0.6849
C15 C 0.0603(13) 0.0698(15) 0.558(2)
H22 H 0.0516 0.1281 0.5072
H23 H 0.1190 0.1134 0.6239
O6A O -0.0055(15) 0.0947(19) 0.484(2)
C12A C 0.083(2) 0.0745(22) 0.4278(18)
H16A H 0.1596 0.1502 0.4234
H17A H 0.0586 0.0443 0.3430
C13A C 0.098(2) -0.0150(23) 0.5035(16)
H18A H 0.0730 -0.0889 0.4558
H19A H 0.1817 0.0179 0.5290
C14A C 0.018(2) -0.0403(25) 0.6146(14)
H20A H -0.0200 -0.1242 0.6407
H21A H 0.0616 0.0124 0.6849
C15A C -0.0698(15) -0.0095(20) 0.558(2)
H22A H -0.1281 -0.0765 0.5072
H23A H -0.1134 0.0056 0.6239
O6B O -0.0947(19) -0.1002(12) 0.484(2)
C12B C -0.0745(22) 0.0085(10) 0.4278(18)
H16B H -0.1502 0.0094 0.4234
H17B H -0.0443 0.0143 0.3430
C13B C 0.0150(23) 0.1130(11) 0.5035(16)
H18B H 0.0889 0.1619 0.4558
H19B H -0.0179 0.1638 0.5290
C14B C 0.0403(25) 0.0583(15) 0.6146(14)
H20B H 0.1242 0.1042 0.6407
H21B H -0.0124 0.0492 0.6849
C15B C 0.0095(20) -0.0603(13) 0.558(2)
H22B H 0.0765 -0.0516 0.5072
H23B H -0.0056 -0.1190 0.6239
O6C O -0.1002(12) -0.0055(15) 0.516(2)
C12C C 0.0085(10) 0.083(2) 0.5722(18)
H16C H 0.0094 0.1596 0.5766
H17C H 0.0143 0.0586 0.6570
C13C C 0.1130(11) 0.098(2) 0.4965(16)
H18C H 0.1619 0.0730 0.5442
H19C H 0.1638 0.1817 0.4710
C14C C 0.0583(15) 0.018(2) 0.3854(14)
H20C H 0.1042 -0.0200 0.3593
H21C H 0.0492 0.0616 0.3151
C15C C -0.0603(13) -0.0698(15) 0.442(2)
H22C H -0.0516 -0.1281 0.4928
H23C H -0.1190 -0.1134 0.3761
O6D O 0.0055(15) -0.0947(19) 0.516(2)
C12D C -0.083(2) -0.0745(22) 0.5722(18)
H16D H -0.1596 -0.1502 0.5766
H17D H -0.0586 -0.0443 0.6570
C13D C -0.098(2) 0.0150(23) 0.4965(16)
H18D H -0.0730 0.0889 0.5442
H19D H -0.1817 -0.0179 0.4710
C14D C -0.018(2) 0.0403(25) 0.3854(14)
H20D H 0.0200 0.1242 0.3593
H21D H -0.0616 -0.0124 0.3151
C15D C 0.0698(15) 0.0095(20) 0.442(2)
H22D H 0.1281 0.0765 0.4928
H23D H 0.1134 -0.0056 0.3761
O6E O 0.0947(19) 0.1002(12) 0.516(2)
C12E C 0.0745(22) -0.0085(10) 0.5722(18)
H16E H 0.1502 -0.0094 0.5766
H17E H 0.0443 -0.0143 0.6570
C13E C -0.0150(23) -0.1130(11) 0.4965(16)
H18E H -0.0889 -0.1619 0.5442
H19E H 0.0179 -0.1638 0.4710
C14E C -0.0403(25) -0.0583(15) 0.3854(14)
H20E H -0.1242 -0.1042 0.3593
H21E H 0.0124 -0.0492 0.3151
C15E C -0.0095(20) 0.0603(13) 0.442(2)
H22E H -0.0765 0.0516 0.4928
H23E H 0.0056 0.1190 0.3761
C16? C 0.4626(14) 0.8885(12) 0.7330(14)
H24? H 0.5258 0.9546 0.7812
H25? H 0.4034 0.8283 0.7896
C17? C 0.5610(12) 0.6916(16) 0.6939(15)
H26? H 0.6239 0.6759 0.7236
H27? H 0.5026 0.6763 0.7599
C18? C 0.3378(13) 0.4513(15) 0.692(2)
H28? H 0.3004 0.3643 0.6801
H29? H 0.3599 0.4669 0.7796
C19? C 0.0946(12) 0.5006(13) 0.7024(18)
H30? H 0.0087 0.4629 0.7213
H31? H 0.1384 0.5234 0.7814
C20? C 0.2031(15) 0.7817(16) 0.7017(15)
H32? H 0.1886 0.8411 0.7431
H33? H 0.2184 0.7341 0.7623
loop_
_geom_bond_atom_site_label_1
_geom_bond_atom_site_label_2
_geom_bond_site_symmetry_1
_geom_bond_site_symmetry_2
Si1 C1 1_555 1_555
C1 C2 1_555 1_555
C2 H1 1_555 1_555
C3 C2 1_555 1_555
H2 C3 1_555 1_555
C4 C1 1_555 1_555
H3 C4 1_555 1_555
C5 C3 1_555 1_555
H4 C5 1_555 1_555
C6 C4 1_555 1_555
H5 C6 1_555 1_555
Na1 Si1 1_555 1_555
O1 Na1 1_555 1_555
O2 Na1 1_555 1_555
O3 Na1 1_555 1_555
O4 Na1 1_555 1_555
O5 Na1 1_555 1_555
C7 O1 1_555 1_555
H6 C7 1_555 1_555
H7 O3 1_555 1_555
C8 O1 1_555 1_555
H8 C8 1_555 1_555
H9 C8 1_555 1_555
C9 O3 1_555 1_555
H10 C7 1_555 1_555
H11 C9 1_555 1_555
C10 O1 1_555 1_555
H12 C10 1_555 1_555
H13 O1 1_555 1_555
C11 O5 1_555 1_555
H14 C11 1_555 1_555
H15 C11 1_555 1_555
O6 C12 1_555 1_555
C12 H16 1_555 1_555
H16 O6D 1_555 1_555
H17 C12 1_555 1_555
C13 C12 1_555 1_555
H18 C13 1_555 1_555
H19 C13 1_555 1_555
C14 C13 1_555 1_555
H20 C14 1_555 1_555
H21 C14 1_555 1_555
C15 O6 1_555 1_555
H22 C15 1_555 1_555
H23 C15 1_555 1_555
C1A Si1 1_555 1_555
C2A C1A 1_555 1_555
H1A C2A 1_555 1_555
C3A C2A 1_555 1_555
H2A C3A 1_555 1_555
C4A C1A 1_555 1_555
H3A C4A 1_555 1_555
C5A C3A 1_555 1_555
H4A C5A 1_555 1_555
C6A C4A 1_555 1_555
H5A C6A 1_555 1_555
C1B Si1 1_555 1_555
C2B C1B 1_555 1_555
H1B C2B 1_555 1_555
C3B C2B 1_555 1_555
H2B C3B 1_555 1_555
C4B C1B 1_555 1_555
H3B C4B 1_555 1_555
C5B C3B 1_555 1_555
H4B C5B 1_555 1_555
C6B C4B 1_555 1_555
H5B C6B 1_555 1_555
O1A Na1 1_555 1_555
C7A O1A 1_555 1_555
H6A C7A 1_555 1_555
H7A C7A 1_555 1_555
O2A Na1 1_555 1_555
C8A O1A 1_555 1_555
H8A C8A 1_555 1_555
H9A C8A 1_555 1_555
O3A Na1 1_555 1_555
C9A O2 1_555 1_555
H10A C7A 1_555 1_555
H11A C9A 1_555 1_555
O4A Na1 1_555 1_555
C10A O1A 1_555 1_555
H12A C10A 1_555 1_555
H13A O1A 1_555 1_555
O5A Na1 1_555 1_555
C11A O2 1_555 1_555
H14A C11A 1_555 1_555
H15A C11A 1_555 1_555
O1B Na1 1_555 1_555
C7B O1B 1_555 1_555
H6B C7B 1_555 1_555
H7B C7B 1_555 1_555
O2B Na1 1_555 1_555
C8B C11 1_555 1_555
H8B C8B 1_555 1_555
H9B C8B 1_555 1_555
O3B Na1 1_555 1_555
C9B O2A 1_555 1_555
H10B C7B 1_555 1_555
H11B C9B 1_555 1_555
O4B Na1 1_555 1_555
C10B O1B 1_555 1_555
H12B C10B 1_555 1_555
H13B O1B 1_555 1_555
O5B Na1 1_555 1_555
C11B O2A 1_555 1_555
H14B C11B 1_555 1_555
H15B C11B 1_555 1_555
O6A C15 1_555 1_555
C12A O6 1_555 1_555
H16A C12A 1_555 1_555
H17A C12A 1_555 1_555
C13A C12 1_555 1_555
H18A O6 1_555 1_555
H19A O6 1_555 1_555
C14A O6 1_555 1_555
H20A C14A 1_555 1_555
H21A C14A 1_555 1_555
C15A C13 1_555 1_555
H22A C15A 1_555 1_555
H23A C14 1_555 1_555
O6B C12 1_555 1_555
C12B C12 1_555 1_555
H16B C12B 1_555 1_555
H17B C12B 1_555 1_555
C13B C15 1_555 1_555
H18B O6A 1_555 1_555
H19B O6A 1_555 1_555
C14B C14 1_555 1_555
H20B C15 1_555 1_555
H21B C14 1_555 1_555
C15B O6 1_555 1_555
H22B O6 1_555 1_555
H23B C14A 1_555 1_555
O6C C13 1_555 1_555
C12C C14 1_555 1_555
H16C O6A 1_555 1_555
H17C C14 1_555 1_555
C13C O6 1_555 1_555
H18C O6 1_555 1_555
H19C C12A 1_555 1_555
C14C O6 1_555 1_555
H20C C14C 1_555 1_555
H21C C12A 1_555 1_555
C15C C12 1_555 1_555
H22C C12 1_555 1_555
H23C O6B 1_555 1_555
O6D O6 1_555 1_555
C12D C13 1_555 1_555
H16D C13 1_555 1_555
H17D C14 1_555 1_555
C13D C13 1_555 1_555
H18D O6A 1_555 1_555
H19D C12B 1_555 1_555
C14D C12 1_555 1_555
H20D C14D 1_555 1_555
H21D C12B 1_555 1_555
C15D O6 1_555 1_555
H22D O6 1_555 1_555
H23D O6 1_555 1_555
O6E O6 1_555 1_555
C12E O6 1_555 1_555
H16E O6 1_555 1_555
H17E C14A 1_555 1_555
C13E O6 1_555 1_555
H18E C13 1_555 1_555
H19E C12 1_555 1_555
C14E C12 1_555 1_555
H20E C15C 1_555 1_555
H21E C12 1_555 1_555
C15E C15 1_555 1_555
H22E O6A 1_555 1_555
H23E O6A 1_555 1_555
C5 C6 1_555 1_555
O1 O3 1_555 1_555
O1 O4 1_555 1_555
O2 O4 1_555 1_555
O2 C8 1_555 1_555
O2 O5A 1_555 1_555
O3 O5 1_555 1_555
O3 C7 1_555 1_555
O3 C10 1_555 1_555
O3 H13 1_555 1_555
O4 C8 1_555 1_555
O4 C10 1_555 1_555
O4 O5A 1_555 1_555
O4 C11A 1_555 1_555
O5 C7 1_555 1_555
O5 C9 1_555 1_555
O5 O2B 1_555 1_555
O5 O4B 1_555 1_555
C7 H7 1_555 1_555
C7 C9 1_555 1_555
C7 C10 1_555 1_555
H7 C9 1_555 1_555
C8 C10 1_555 1_555
C8 C11A 1_555 1_555
C9 H10 1_555 1_555
C9 O2B 1_555 1_555
C10 H13 1_555 1_555
C11 O2B 1_555 1_555
C11 O4B 1_555 1_555
C12 C12A 1_555 1_555
C12 H18A 1_555 1_555
C12 C15B 1_555 1_555
C12 H22B 1_555 1_555
C12 C14C 1_555 1_555
C12 O6D 1_555 1_555
C12 C15D 1_555 1_555
C12 C13E 1_555 1_555
H16 C13E 1_555 1_555
H17 C14C 1_555 1_555
H17 C15C 1_555 1_555
H17 C14E 1_555 1_555
C13 C12B 1_555 1_555
C13 C15B 1_555 1_555
C13 C15C 1_555 1_555
C13 H22C 1_555 1_555
C13 O6D 1_555 1_555
C13 C13E 1_555 1_555
C13 C14E 1_555 1_555
H18 O6B 1_555 1_555
H18 C12B 1_555 1_555
H18 O6C 1_555 1_555
H18 C15C 1_555 1_555
H18 C13D 1_555 1_555
H19 O6B 1_555 1_555
H19 C12D 1_555 1_555
C14 C15 1_555 1_555
C14 C14A 1_555 1_555
C14 C15A 1_555 1_555
C14 O6B 1_555 1_555
C14 C15B 1_555 1_555
C14 O6C 1_555 1_555
C14 C12D 1_555 1_555
C14 C13D 1_555 1_555
C14 C12E 1_555 1_555
H20 C15A 1_555 1_555
H21 C14A 1_555 1_555
H21 C12D 1_555 1_555
C15 C12A 1_555 1_555
C15 C13A 1_555 1_555
C15 C14A 1_555 1_555
C15 C15A 1_555 1_555
C15 C14B 1_555 1_555
C15 C15B 1_555 1_555
C15 C12C 1_555 1_555
C15 H17C 1_555 1_555
C15 C13C 1_555 1_555
C15 H18C 1_555 1_555
C15 C15D 1_555 1_555
C15 H22D 1_555 1_555
C15 O6E 1_555 1_555
C15 C12E 1_555 1_555
H22 O6A 1_555 1_555
H22 C12A 1_555 1_555
H22 C12C 1_555 1_555
H22 C13C 1_555 1_555
H22 O6E 1_555 1_555
H22 C15E 1_555 1_555
H23 C14B 1_555 1_555
H23 O6E 1_555 1_555
C5A C6A 1_555 1_555
C5B C6B 1_555 1_555
O1A O3A 1_555 1_555
O1A O4A 1_555 1_555
C7A O3A 1_555 1_555
C7A C9A 1_555 1_555
C7A C10A 1_555 1_555
C7A O5A 1_555 1_555
H7A O3A 1_555 1_555
H7A C9A 1_555 1_555
O2A C8A 1_555 1_555
O2A O4A 1_555 1_555
O2A O5B 1_555 1_555
C8A O4A 1_555 1_555
C8A C10A 1_555 1_555
C8A C11B 1_555 1_555
O3A C9A 1_555 1_555
O3A C10A 1_555 1_555
O3A H13A 1_555 1_555
O3A O5A 1_555 1_555
C9A H10A 1_555 1_555
C9A O5A 1_555 1_555
O4A C10A 1_555 1_555
O4A O5B 1_555 1_555
O4A C11B 1_555 1_555
C10A H13A 1_555 1_555
O5A C11A 1_555 1_555
O1B C8B 1_555 1_555
O1B O3B 1_555 1_555
O1B O4B 1_555 1_555
C7B O3B 1_555 1_555
C7B C9B 1_555 1_555
C7B C10B 1_555 1_555
C7B O5B 1_555 1_555
H7B O3B 1_555 1_555
H7B C9B 1_555 1_555
O2B C8B 1_555 1_555
O2B O4B 1_555 1_555
C8B O4B 1_555 1_555
C8B C10B 1_555 1_555
O3B C9B 1_555 1_555
O3B C10B 1_555 1_555
O3B H13B 1_555 1_555
O3B O5B 1_555 1_555
C9B H10B 1_555 1_555
C9B O5B 1_555 1_555
O4B C10B 1_555 1_555
C10B H13B 1_555 1_555
O5B C11B 1_555 1_555
O6A C12A 1_555 1_555
O6A C15A 1_555 1_555
O6A C12B 1_555 1_555
O6A C14B 1_555 1_555
O6A O6C 1_555 1_555
O6A C12C 1_555 1_555
O6A C13C 1_555 1_555
O6A C13D 1_555 1_555
O6A C14D 1_555 1_555
O6A O6E 1_555 1_555
O6A C15E 1_555 1_555
C12A C13A 1_555 1_555
C12A C12B 1_555 1_555
C12A C13B 1_555 1_555
C12A H18B 1_555 1_555
C12A C13C 1_555 1_555
C12A C14C 1_555 1_555
C12A C14D 1_555 1_555
C12A C15D 1_555 1_555
C12A H22D 1_555 1_555
C12A O6E 1_555 1_555
C12A C14E 1_555 1_555
C12A C15E 1_555 1_555
H16A C13C 1_555 1_555
H16A O6E 1_555 1_555
H17A C14C 1_555 1_555
H17A C14D 1_555 1_555
H17A C15D 1_555 1_555
C13A H18A 1_555 1_555
C13A H19A 1_555 1_555
C13A C14A 1_555 1_555
C13A C15B 1_555 1_555
C13A C13C 1_555 1_555
C13A H18C 1_555 1_555
C13A C14C 1_555 1_555
C13A O6D 1_555 1_555
C13A C15D 1_555 1_555
C13A H22D 1_555 1_555
C13A O6E 1_555 1_555
C13A C12E 1_555 1_555
C13A H16E 1_555 1_555
C13A C13E 1_555 1_555
H18A O6D 1_555 1_555
H18A C15D 1_555 1_555
H18A C13E 1_555 1_555
H19A C12E 1_555 1_555
C14A C15A 1_555 1_555
C14A C14B 1_555 1_555
C14A C15B 1_555 1_555
C14A C12C 1_555 1_555
C14A O6D 1_555 1_555
C14A C12D 1_555 1_555
C14A H17D 1_555 1_555
C14A C12E 1_555 1_555
C14A C13E 1_555 1_555
H20A C15B 1_555 1_555
H21A C14B 1_555 1_555
H21A C12E 1_555 1_555
C15A H23A 1_555 1_555
C15A O6B 1_555 1_555
C15A C12B 1_555 1_555
C15A C13B 1_555 1_555
C15A C14B 1_555 1_555
C15A C15B 1_555 1_555
C15A O6C 1_555 1_555
C15A C12C 1_555 1_555
C15A C15C 1_555 1_555
C15A C12D 1_555 1_555
C15A H17D 1_555 1_555
C15A C13D 1_555 1_555
C15A H18D 1_555 1_555
C15A C15E 1_555 1_555
C15A H22E 1_555 1_555
H22A O6B 1_555 1_555
H22A C12B 1_555 1_555
H22A O6C 1_555 1_555
H22A C15C 1_555 1_555
H22A C12D 1_555 1_555
H22A C13D 1_555 1_555
H23A O6C 1_555 1_555
O6B C12B 1_555 1_555
O6B C15B 1_555 1_555
O6B O6C 1_555 1_555
O6B C15C 1_555 1_555
O6B H22C 1_555 1_555
O6B O6D 1_555 1_555
O6B C12D 1_555 1_555
O6B H16D 1_555 1_555
O6B C13D 1_555 1_555
O6B C13E 1_555 1_555
O6B H18E 1_555 1_555
O6B C14E 1_555 1_555
C12B C13B 1_555 1_555
C12B O6C 1_555 1_555
C12B C14C 1_555 1_555
C12B C15C 1_555 1_555
C12B C13D 1_555 1_555
C12B C14D 1_555 1_555
C12B C14E 1_555 1_555
C12B C15E 1_555 1_555
C12B H22E 1_555 1_555
H16B O6C 1_555 1_555
H16B C13D 1_555 1_555
H17B C14D 1_555 1_555
H17B C14E 1_555 1_555
H17B C15E 1_555 1_555
C13B H18B 1_555 1_555
C13B H19B 1_555 1_555
C13B C14B 1_555 1_555
C13B O6C 1_555 1_555
C13B C12C 1_555 1_555
C13B H16C 1_555 1_555
C13B C13C 1_555 1_555
C13B C13D 1_555 1_555
C13B H18D 1_555 1_555
C13B C14D 1_555 1_555
C13B O6E 1_555 1_555
C13B C15E 1_555 1_555
C13B H22E 1_555 1_555
H18B C13C 1_555 1_555
H18B O6E 1_555 1_555
H18B C15E 1_555 1_555
H19B C12C 1_555 1_555
C14B H20B 1_555 1_555
C14B H21B 1_555 1_555
C14B C15B 1_555 1_555
C14B C12C 1_555 1_555
C14B H17C 1_555 1_555
C14B C13C 1_555 1_555
C14B C12D 1_555 1_555
C14B O6E 1_555 1_555
C14B C12E 1_555 1_555
C14B H17E 1_555 1_555
H21B C12C 1_555 1_555
C15B H22B 1_555 1_555
C15B H23B 1_555 1_555
C15B C15C 1_555 1_555
C15B H22C 1_555 1_555
C15B O6D 1_555 1_555
C15B C12D 1_555 1_555
C15B C15D 1_555 1_555
C15B C12E 1_555 1_555
C15B H17E 1_555 1_555
C15B C13E 1_555 1_555
C15B H18E 1_555 1_555
H22B O6D 1_555 1_555
H22B C15D 1_555 1_555
H22B C12E 1_555 1_555
H22B C13E 1_555 1_555
H23B O6D 1_555 1_555
O6C C12C 1_555 1_555
O6C C15C 1_555 1_555
O6C C12D 1_555 1_555
O6C H18D 1_555 1_555
O6C H19D 1_555 1_555
O6C C14D 1_555 1_555
O6C C15E 1_555 1_555
O6C H22E 1_555 1_555
C12C H16C 1_555 1_555
C12C H17C 1_555 1_555
C12C C13C 1_555 1_555
C12C C12D 1_555 1_555
C12C C13D 1_555 1_555
C12C H18D 1_555 1_555
C12C O6E 1_555 1_555
C12C C12E 1_555 1_555
C12C C15E 1_555 1_555
C12C H22E 1_555 1_555
C13C H18C 1_555 1_555
C13C H19C 1_555 1_555
C13C C14C 1_555 1_555
C13C C15D 1_555 1_555
C13C C12E 1_555 1_555
C13C C15E 1_555 1_555
H18C O6E 1_555 1_555
H18C C12E 1_555 1_555
H19C O6E 1_555 1_555
C14C H21C 1_555 1_555
C14C C15C 1_555 1_555
C14C C14D 1_555 1_555
C14C C15D 1_555 1_555
C14C H23D 1_555 1_555
C14C O6E 1_555 1_555
C14C C14E 1_555 1_555
C14C H21E 1_555 1_555
C14C C15E 1_555 1_555
H20C C15D 1_555 1_555
H21C C14D 1_555 1_555
C15C H22C 1_555 1_555
C15C H23C 1_555 1_555
C15C O6D 1_555 1_555
C15C C12D 1_555 1_555
C15C C13D 1_555 1_555
C15C C14D 1_555 1_555
C15C C15D 1_555 1_555
C15C C13E 1_555 1_555
C15C C14E 1_555 1_555
C15C C15E 1_555 1_555
H22C O6D 1_555 1_555
H22C C12D 1_555 1_555
H23C C14E 1_555 1_555
O6D C12D 1_555 1_555
O6D C15D 1_555 1_555
O6D C12E 1_555 1_555
O6D H18E 1_555 1_555
O6D H19E 1_555 1_555
O6D C14E 1_555 1_555
C12D H16D 1_555 1_555
C12D H17D 1_555 1_555
C12D C13D 1_555 1_555
C12D C12E 1_555 1_555
C12D C13E 1_555 1_555
C12D H18E 1_555 1_555
C13D H18D 1_555 1_555
C13D H19D 1_555 1_555
C13D C14D 1_555 1_555
C13D C15E 1_555 1_555
C14D H21D 1_555 1_555
C14D C15D 1_555 1_555
C14D C14E 1_555 1_555
C14D C15E 1_555 1_555
C14D H23E 1_555 1_555
H20D C15E 1_555 1_555
H21D C14E 1_555 1_555
C15D H22D 1_555 1_555
C15D H23D 1_555 1_555
C15D O6E 1_555 1_555
C15D C12E 1_555 1_555
C15D C13E 1_555 1_555
C15D C14E 1_555 1_555
C15D C15E 1_555 1_555
H22D O6E 1_555 1_555
H22D C12E 1_555 1_555
O6E C12E 1_555 1_555
O6E C15E 1_555 1_555
C12E H16E 1_555 1_555
C12E H17E 1_555 1_555
C12E C13E 1_555 1_555
C13E H18E 1_555 1_555
C13E H19E 1_555 1_555
C13E C14E 1_555 1_555
C14E H20E 1_555 1_555
C14E H21E 1_555 1_555
C14E C15E 1_555 1_555
C15E H22E 1_555 1_555
C15E H23E 1_555 1_555

#END
