
#######################################################################
#
#                 Cambridge Crystallographic Data Centre
#                                CCDC 
#
#######################################################################
#
# If this CIF has been generated from an entry in the Cambridge 
# Structural Database, then it will include bibliographic, chemical, 
# crystal, experimental, refinement or atomic coordinate data resulting 
# from the CCDC's data processing and validation procedures.
#
#######################################################################

data_SIZZAE
_chemical_compound_source        'Aspergillus clavatus'
_chemical_formula_moiety         'C28 H33 N1 O5'
_chemical_name_systematic        
15-benzyl-6,8,13,14-tetramethyl-9,11a,14,14a,15,16-hexahydro[1,3]dioxacyclotridecino[4,5-d]isoindole-2,7,17(6H,8H)-trione
_symmetry_cell_setting           orthorhombic
_symmetry_space_group_name_H-M   'P 21 21 21'
_symmetry_Int_Tables_number      19
_space_group_name_Hall           'P 2ac 2ab'
loop_
_symmetry_equiv_pos_site_id
_symmetry_equiv_pos_as_xyz
1 x,y,z
2 1/2-x,-y,1/2+z
3 -x,1/2+y,1/2-z
4 1/2+x,1/2-y,-z
_cell_length_a                   8.22650(10)
_cell_length_b                   12.9489(2)
_cell_length_c                   22.8674(4)
_cell_angle_alpha                90
_cell_angle_beta                 90
_cell_angle_gamma                90
_cell_volume                     2435.93
_exptl_crystal_colour            colorless
_exptl_crystal_description       needle
_cell_formula_units_Z            4
loop_
_atom_site_label
_atom_site_type_symbol
_atom_site_fract_x
_atom_site_fract_y
_atom_site_fract_z
O1 O 0.01477(17) 0.72653(10) 0.22319(6)
O2 O 0.06851(18) 0.42627(11) 0.12861(6)
O3 O 0.48104(16) 0.74402(11) 0.10009(6)
O4 O 0.26292(15) 0.79501(10) 0.14839(6)
O5 O 0.40948(16) 0.90805(10) 0.09307(6)
C1 C 0.3563(2) 0.96320(14) 0.27773(8)
C2 C 0.4942(2) 0.98611(15) 0.24491(8)
H1 H 0.5003 1.0503 0.2249
C3 C 0.6227(2) 0.91749(16) 0.24073(9)
H2 H 0.7151 0.9346 0.2178
C4 C 0.6167(2) 0.82395(16) 0.27000(9)
H3 H 0.7036 0.7760 0.2666
C5 C 0.4823(2) 0.80107(16) 0.30431(9)
H4 H 0.4787 0.7379 0.3254
C6 C 0.3530(2) 0.86962(15) 0.30817(9)
H5 H 0.2616 0.8528 0.3317
C7 C 0.0447(2) 0.81703(14) 0.21311(8)
N1 N 0.01568(19) 0.89755(12) 0.24833(7)
H6 H -0.017(3) 0.8916(18) 0.2812(10)
C8 C 0.0826(2) 0.99643(14) 0.23079(8)
H7 H -0.0068 1.0485 0.2282
C9 C 0.1517(2) 0.97549(14) 0.16853(8)
H8 H 0.2719 0.9869 0.1694
C10 C 0.0775(2) 1.04609(14) 0.12134(8)
H9 H 0.1318 1.0279 0.0836
C11 C -0.1011(2) 1.01824(15) 0.11468(8)
C12 C -0.1333(2) 0.91883(15) 0.10566(8)
H10 H -0.2425 0.8961 0.1013
C13 C 0.0058(2) 0.84182(14) 0.10232(8)
H11 H 0.0703 0.8588 0.0665
C14 C 0.1191(2) 0.86004(14) 0.15612(8)
C15 C 0.2107(2) 1.03316(14) 0.27558(8)
H12 H 0.2465 1.1038 0.2652
H13 H 0.1602 1.0362 0.3148
C16 C 0.1140(2) 1.16009(15) 0.13291(9)
H14 H 0.0682 1.2021 0.1013
H15 H 0.2319 1.1705 0.1346
H16 H 0.0652 1.1807 0.1702
C17 C -0.2314(2) 1.09856(15) 0.12137(9)
H17 H -0.3383 1.0661 0.1168
H18 H -0.2174 1.1520 0.0914
H19 H -0.2237 1.1300 0.1603
C18 C -0.0533(2) 0.73267(15) 0.09573(8)
H20 H -0.1201 0.7053 0.1259
C19 C -0.0188(2) 0.67211(15) 0.05092(8)
H21 H 0.0524 0.6985 0.0218
C20 C -0.0837(2) 0.56470(15) 0.04256(8)
H22 H -0.1612 0.5650 0.0095
H23 H -0.1444 0.5442 0.0781
C21 C 0.0495(2) 0.48355(15) 0.03045(8)
H24 H 0.1270 0.5112 0.0006
C22 C 0.1417(3) 0.45902(14) 0.08647(8)
C23 C 0.3269(2) 0.47146(16) 0.08894(9)
H25 H 0.3629 0.4555 0.1297
C24 C 0.3778(2) 0.57978(16) 0.07521(9)
H26 H 0.3730 0.6028 0.0358
C25 C 0.4288(2) 0.64428(15) 0.11567(9)
H27 H 0.4304 0.6235 0.1555
C26 C 0.3822(2) 0.82411(15) 0.11265(8)
C27 C -0.0276(3) 0.38335(16) 0.00735(9)
H28 H 0.0579 0.3323 -0.0001
H29 H -0.0862 0.3978 -0.0291
H30 H -0.1035 0.3561 0.0365
C28 C 0.4085(3) 0.39318(17) 0.04760(10)
H31 H 0.3808 0.4100 0.0070
H32 H 0.3700 0.3234 0.0568
H33 H 0.5267 0.3963 0.0527
loop_
_geom_bond_atom_site_label_1
_geom_bond_atom_site_label_2
_geom_bond_site_symmetry_1
_geom_bond_site_symmetry_2
O1 C7 1_555 1_555
O2 C22 1_555 1_555
O3 C25 1_555 1_555
O4 C14 1_555 1_555
O5 C26 1_555 1_555
C1 C2 1_555 1_555
C2 H1 1_555 1_555
C3 C2 1_555 1_555
H2 C3 1_555 1_555
C4 C3 1_555 1_555
H3 C4 1_555 1_555
C5 C4 1_555 1_555
H4 C5 1_555 1_555
C6 C1 1_555 1_555
H5 C6 1_555 1_555
C7 N1 1_555 1_555
N1 H6 1_555 1_555
C8 N1 1_555 1_555
H7 C8 1_555 1_555
C9 C8 1_555 1_555
H8 C9 1_555 1_555
C10 C9 1_555 1_555
H9 C10 1_555 1_555
C11 C10 1_555 1_555
C12 C11 1_555 1_555
H10 C12 1_555 1_555
C13 C12 1_555 1_555
H11 C13 1_555 1_555
C14 C7 1_555 1_555
C15 C1 1_555 1_555
H12 C15 1_555 1_555
H13 C15 1_555 1_555
C16 C10 1_555 1_555
H14 C16 1_555 1_555
H15 C16 1_555 1_555
H16 C16 1_555 1_555
C17 C11 1_555 1_555
H17 C17 1_555 1_555
H18 C17 1_555 1_555
H19 C17 1_555 1_555
C18 C13 1_555 1_555
H20 C18 1_555 1_555
C19 C18 1_555 1_555
H21 C19 1_555 1_555
C20 C19 1_555 1_555
H22 C20 1_555 1_555
H23 C20 1_555 1_555
C21 C20 1_555 1_555
H24 C21 1_555 1_555
C22 C21 1_555 1_555
C23 C22 1_555 1_555
H25 C23 1_555 1_555
C24 C23 1_555 1_555
H26 C24 1_555 1_555
C25 C24 1_555 1_555
H27 C25 1_555 1_555
C26 O3 1_555 1_555
C27 C21 1_555 1_555
H28 C27 1_555 1_555
H29 C27 1_555 1_555
H30 C27 1_555 1_555
C28 C23 1_555 1_555
H31 C28 1_555 1_555
H32 C28 1_555 1_555
H33 C28 1_555 1_555
O4 C26 1_555 1_555
C5 C6 1_555 1_555
C8 C15 1_555 1_555
C9 C14 1_555 1_555
C13 C14 1_555 1_555

#END
