
#######################################################################
#
#                 Cambridge Crystallographic Data Centre
#                                CCDC 
#
#######################################################################
#
# If this CIF has been generated from an entry in the Cambridge 
# Structural Database, then it will include bibliographic, chemical, 
# crystal, experimental, refinement or atomic coordinate data resulting 
# from the CCDC's data processing and validation procedures.
#
#######################################################################

data_SMORTS
_chemical_formula_moiety         'C12 H15 N3 O2 S1'
_chemical_name_systematic        Salicylaldehyde-4-morpholinothiosemicarbazone
_symmetry_cell_setting           orthorhombic
_symmetry_space_group_name_H-M   'P n a 21'
_symmetry_Int_Tables_number      33
_space_group_name_Hall           'P 2c -2n'
loop_
_symmetry_equiv_pos_site_id
_symmetry_equiv_pos_as_xyz
1 x,y,z
2 1/2-x,1/2+y,1/2+z
3 1/2+x,1/2-y,z
4 -x,-y,1/2+z
_cell_length_a                   11.85(5)
_cell_length_b                   15.45(5)
_cell_length_c                   7.18(3)
_cell_angle_alpha                90
_cell_angle_beta                 90
_cell_angle_gamma                90
_cell_volume                     1314.53
_cell_formula_units_Z            4
loop_
_atom_site_label
_atom_site_type_symbol
_atom_site_fract_x
_atom_site_fract_y
_atom_site_fract_z
C1 C 0.01600 -0.11200 0.44800
C2 C -0.07300 -0.16300 0.34700
C3 C 0.05900 -0.25300 0.19300
C4 C 0.15700 -0.21000 0.30200
C5 C 0.20200 -0.04900 0.35300
C6 C 0.49900 -0.02500 0.35700
C7 C 0.58100 0.04500 0.33600
C8 C 0.69600 0.02600 0.36700
C9 C 0.78400 0.08900 0.35300
C10 C 0.75100 0.17600 0.31300
C11 C 0.63400 0.20100 0.27400
C12 C 0.55300 0.13000 0.29000
N1 N 0.13000 -0.12100 0.36200
N2 N 0.31600 -0.07500 0.34200
N3 N 0.39400 -0.00800 0.32200
O1 O -0.04100 -0.25020 0.30300
O2 O 0.44200 0.15800 0.25300
S1 S 0.16210 0.05540 0.37100
loop_
_geom_bond_atom_site_label_1
_geom_bond_atom_site_label_2
_geom_bond_site_symmetry_1
_geom_bond_site_symmetry_2
C1 C2 1_555 1_555
C2 O1 1_555 1_555
C3 C4 1_555 1_555
C4 N1 1_555 1_555
C5 N1 1_555 1_555
C6 C7 1_555 1_555
C7 C8 1_555 1_555
C8 C9 1_555 1_555
C9 C10 1_555 1_555
C10 C11 1_555 1_555
C11 C12 1_555 1_555
C12 C7 1_555 1_555
N1 C1 1_555 1_555
N2 C5 1_555 1_555
N3 C6 1_555 1_555
O1 C3 1_555 1_555
O2 C12 1_555 1_555
S1 C5 1_555 1_555
N2 N3 1_555 1_555

#END
