
#######################################################################
#
#                 Cambridge Crystallographic Data Centre
#                                CCDC 
#
#######################################################################
#
# If this CIF has been generated from an entry in the Cambridge 
# Structural Database, then it will include bibliographic, chemical, 
# crystal, experimental, refinement or atomic coordinate data resulting 
# from the CCDC's data processing and validation procedures.
#
#######################################################################

data_SOBBUJ
_chemical_name_common            
'(23R)-5beta-Cholan-23-(4-chlorophenyl)-24-ol n-hexane solvate'
_chemical_formula_moiety         'C30 H45 Cl1 O1,0.5(C6 H14)'
_chemical_name_systematic        
'23-(4-chlorophenyl)cholan-24-ol n-hexane solvate'
_symmetry_cell_setting           monoclinic
_symmetry_space_group_name_H-M   'P 21'
_symmetry_Int_Tables_number      4
_space_group_name_Hall           'P 2yb'
loop_
_symmetry_equiv_pos_site_id
_symmetry_equiv_pos_as_xyz
1 x,y,z
2 -x,1/2+y,-z
_cell_length_a                   18.8512(12)
_cell_length_b                   7.1990(4)
_cell_length_c                   20.6821(12)
_cell_angle_alpha                90
_cell_angle_beta                 97.249(4)
_cell_angle_gamma                90
_cell_volume                     2784.33
_exptl_crystal_colour            colorless
_exptl_crystal_description       needle
_cell_formula_units_Z            4
loop_
_atom_site_label
_atom_site_type_symbol
_atom_site_fract_x
_atom_site_fract_y
_atom_site_fract_z
C31 C 0.6262(2) 0.2672(5) 0.3648(2)
H46 H 0.6781 0.2650 0.3826
C32 C 0.5881(2) 0.1466(5) 0.4098(2)
H47 H 0.6094 0.0207 0.4115
H48 H 0.5372 0.1350 0.3914
C33 C 0.5924(3) 0.2230(6) 0.4789(2)
H49 H 0.5638 0.1437 0.5050
H50 H 0.6427 0.2205 0.4997
C34 C 0.5644(3) 0.4210(7) 0.4781(2)
H51 H 0.5129 0.4224 0.4612
H52 H 0.5700 0.4714 0.5230
C35 C 0.6052(2) 0.5401(5) 0.4354(2)
H53 H 0.6558 0.5452 0.4551
H54 H 0.5860 0.6681 0.4353
C36 C 0.6026(2) 0.4746(4) 0.36464(19)
C37 C 0.52614(18) 0.4943(4) 0.32566(17)
H55 H 0.4935 0.4164 0.3490
C38 C 0.4970(2) 0.6930(4) 0.32531(18)
H56 H 0.4942 0.7317 0.3708
H57 H 0.5311 0.7768 0.3072
C39 C 0.4231(2) 0.7171(5) 0.28592(17)
H58 H 0.4102 0.8505 0.2844
H59 H 0.3871 0.6501 0.3080
C40 C 0.42129(18) 0.6432(4) 0.21606(16)
C41 C 0.34636(19) 0.6162(4) 0.17688(17)
H60 H 0.3148 0.5625 0.2075
C42 C 0.3587(2) 0.4621(5) 0.12743(19)
H61 H 0.3185 0.3726 0.1234
H62 H 0.3620 0.5170 0.0840
C43 C 0.4289(2) 0.3635(5) 0.15285(18)
H63 H 0.4225 0.2271 0.1530
H64 H 0.4671 0.3946 0.1258
C44 C 0.44692(19) 0.4378(4) 0.22194(17)
H65 H 0.4146 0.3725 0.2493
C45 C 0.52254(18) 0.4147(4) 0.25632(17)
H66 H 0.5557 0.4877 0.2320
C46 C 0.5466(2) 0.2110(4) 0.2586(2)
H67 H 0.5121 0.1356 0.2797
H68 H 0.5466 0.1645 0.2135
C47 C 0.6211(2) 0.1880(5) 0.2959(2)
H69 H 0.6563 0.2517 0.2719
H70 H 0.6335 0.0543 0.2984
C48 C 0.6566(2) 0.5921(6) 0.3331(2)
H71 H 0.6470 0.7241 0.3395
H72 H 0.6523 0.5650 0.2863
H73 H 0.7052 0.5622 0.3532
C49 C 0.46837(19) 0.7610(5) 0.17649(18)
H74 H 0.4504 0.8888 0.1735
H75 H 0.4671 0.7088 0.1326
H76 H 0.5177 0.7605 0.1981
C50 C 0.30668(19) 0.7859(4) 0.14367(17)
H77 H 0.3339 0.8317 0.1084
C51 C 0.2991(2) 0.9454(5) 0.1912(2)
H78 H 0.2709 1.0456 0.1686
H79 H 0.3467 0.9925 0.2081
H80 H 0.2750 0.9004 0.2275
C52 C 0.2322(2) 0.7225(5) 0.11276(19)
H81 H 0.2054 0.6801 0.1482
H82 H 0.2384 0.6134 0.0849
C53 C 0.18546(18) 0.8664(5) 0.07125(17)
H83 H 0.1782 0.9744 0.1001
C54 C 0.11279(19) 0.7813(5) 0.05009(18)
H84 H 0.1178 0.6774 0.0196
H85 H 0.0931 0.7308 0.0886
C55 C 0.22111(19) 0.9395(5) 0.01446(17)
C56 C 0.2348(2) 0.8267(8) -0.0362(2)
H86 H 0.2214 0.6995 -0.0370
C57 C 0.2695(3) 0.9040(12) -0.0878(2)
H87 H 0.2794 0.8284 -0.1232
C58 C 0.2880(3) 1.0855(12) -0.0855(3)
C59 C 0.2753(3) 1.1965(9) -0.0377(2)
H88 H 0.2890 1.3235 -0.0376
C60 C 0.2414(2) 1.1244(6) 0.0128(2)
H89 H 0.2319 1.2043 0.0473
O2 O 0.06498(13) 0.9157(4) 0.01902(13)
H90 H 0.0227 0.8824 0.0213
Cl2 Cl 0.32993(9) 1.1717(5) -0.15104(8)
C1 C 0.8019(2) 0.6565(5) 0.63158(17)
H1 H 0.8102 0.6810 0.6795
C2 C 0.7292(2) 0.5640(5) 0.61797(19)
H2 H 0.7293 0.4490 0.6442
H3 H 0.7207 0.5283 0.5714
C3 C 0.6685(2) 0.6886(6) 0.6336(2)
H4 H 0.6739 0.7151 0.6809
H5 H 0.6221 0.6251 0.6216
C4 C 0.6701(2) 0.8706(5) 0.59537(18)
H6 H 0.6615 0.8441 0.5481
H7 H 0.6315 0.9535 0.6064
C5 C 0.7412(2) 0.9660(5) 0.61129(18)
H8 H 0.7474 1.0001 0.6580
H9 H 0.7405 1.0825 0.5858
C6 C 0.8067(2) 0.8480(5) 0.59718(17)
C7 C 0.80702(18) 0.8160(5) 0.52249(17)
H10 H 0.7613 0.7505 0.5069
C8 C 0.8066(2) 0.9962(5) 0.48221(18)
H11 H 0.7640 1.0704 0.4893
H12 H 0.8495 1.0701 0.4983
C9 C 0.8057(2) 0.9628(5) 0.40887(17)
H13 H 0.8091 1.0835 0.3866
H14 H 0.7597 0.9043 0.3913
C10 C 0.86784(18) 0.8367(5) 0.39441(16)
C11 C 0.86352(19) 0.7538(5) 0.32455(17)
H15 H 0.8135 0.7075 0.3129
C12 C 0.9126(2) 0.5791(5) 0.33540(19)
H16 H 0.8921 0.4749 0.3079
H17 H 0.9608 0.6071 0.3238
C13 C 0.9170(2) 0.5276(6) 0.40815(19)
H18 H 0.9036 0.3961 0.4136
H19 H 0.9659 0.5482 0.4308
C14 C 0.8634(2) 0.6583(5) 0.43425(17)
H20 H 0.8151 0.6044 0.4199
C15 C 0.86740(19) 0.6851(5) 0.50779(17)
H21 H 0.9143 0.7441 0.5240
C16 C 0.8623(2) 0.4986(5) 0.54293(18)
H22 H 0.8180 0.4338 0.5246
H23 H 0.9034 0.4195 0.5354
C17 C 0.8621(2) 0.5258(6) 0.61614(19)
H24 H 0.9087 0.5777 0.6351
H25 H 0.8561 0.4036 0.6368
C18 C 0.8742(2) 0.9512(6) 0.6264(2)
H26 H 0.8744 1.0762 0.6076
H27 H 0.9166 0.8831 0.6166
H28 H 0.8749 0.9605 0.6738
C19 C 0.9393(2) 0.9393(6) 0.41068(19)
H29 H 0.9460 0.9730 0.4570
H30 H 0.9390 1.0521 0.3841
H31 H 0.9785 0.8583 0.4013
C20 C 0.8809(2) 0.8751(5) 0.26747(17)
H32 H 0.9300 0.9275 0.2793
C21 C 0.8296(3) 1.0366(6) 0.2525(2)
H33 H 0.8431 1.1070 0.2154
H34 H 0.8317 1.1180 0.2907
H35 H 0.7808 0.9890 0.2418
C22 C 0.8820(2) 0.7538(5) 0.20638(17)
H36 H 0.9152 0.6491 0.2179
H37 H 0.8336 0.7002 0.1950
C23 C 0.90356(19) 0.8481(5) 0.14517(17)
H38 H 0.8625 0.9258 0.1254
C24 C 0.9161(2) 0.6956(5) 0.09681(17)
H39 H 0.9574 0.6190 0.1151
H40 H 0.8736 0.6140 0.0901
C25 C 0.96871(19) 0.9713(5) 0.15753(16)
C26 C 1.03052(19) 0.9126(4) 0.19550(16)
H41 H 1.0313 0.7932 0.2152
C27 C 1.0909(2) 1.0223(5) 0.20558(17)
H42 H 1.1324 0.9795 0.2323
C28 C 1.0903(2) 1.1939(5) 0.17660(17)
C29 C 1.0302(2) 1.2567(5) 0.1374(2)
H43 H 1.0305 1.3739 0.1163
C30 C 0.9700(2) 1.1467(5) 0.12951(19)
H44 H 0.9281 1.1920 0.1041
O1 O 0.92951(13) 0.7698(4) 0.03589(12)
H45 H 0.9360 0.6825 0.0103
Cl1 Cl 1.16602(6) 1.33495(13) 0.18717(5)
loop_
_geom_bond_atom_site_label_1
_geom_bond_atom_site_label_2
_geom_bond_site_symmetry_1
_geom_bond_site_symmetry_2
C1 H1 1_555 1_555
C2 C1 1_555 1_555
H2 C2 1_555 1_555
H3 C2 1_555 1_555
C3 C2 1_555 1_555
H4 C3 1_555 1_555
H5 C3 1_555 1_555
C4 C3 1_555 1_555
H6 C4 1_555 1_555
H7 C4 1_555 1_555
C5 C4 1_555 1_555
H8 C5 1_555 1_555
H9 C5 1_555 1_555
C6 C1 1_555 1_555
C7 C6 1_555 1_555
H10 C7 1_555 1_555
C8 C7 1_555 1_555
H11 C8 1_555 1_555
H12 C8 1_555 1_555
C9 C8 1_555 1_555
H13 C9 1_555 1_555
H14 C9 1_555 1_555
C10 C9 1_555 1_555
C11 C10 1_555 1_555
H15 C11 1_555 1_555
C12 C11 1_555 1_555
H16 C12 1_555 1_555
H17 C12 1_555 1_555
C13 C12 1_555 1_555
H18 C13 1_555 1_555
H19 C13 1_555 1_555
C14 C10 1_555 1_555
H20 C14 1_555 1_555
C15 C7 1_555 1_555
H21 C15 1_555 1_555
C16 C15 1_555 1_555
H22 C16 1_555 1_555
H23 C16 1_555 1_555
C17 C1 1_555 1_555
H24 C17 1_555 1_555
H25 C17 1_555 1_555
C18 C6 1_555 1_555
H26 C18 1_555 1_555
H27 C18 1_555 1_555
H28 C18 1_555 1_555
C19 C10 1_555 1_555
H29 C19 1_555 1_555
H30 C19 1_555 1_555
H31 C19 1_555 1_555
C20 C11 1_555 1_555
H32 C20 1_555 1_555
C21 C20 1_555 1_555
H33 C21 1_555 1_555
H34 C21 1_555 1_555
H35 C21 1_555 1_555
C22 C20 1_555 1_555
H36 C22 1_555 1_555
H37 C22 1_555 1_555
C23 C22 1_555 1_555
H38 C23 1_555 1_555
C24 C23 1_555 1_555
H39 C24 1_555 1_555
H40 C24 1_555 1_555
C25 C23 1_555 1_555
C26 C25 1_555 1_555
H41 C26 1_555 1_555
C27 C26 1_555 1_555
H42 C27 1_555 1_555
C28 C27 1_555 1_555
C29 C28 1_555 1_555
H43 C29 1_555 1_555
C30 C25 1_555 1_555
H44 C30 1_555 1_555
O1 C24 1_555 1_555
H45 O1 1_555 1_555
Cl1 C28 1_555 1_555
C31 H46 1_555 1_555
C32 C31 1_555 1_555
H47 C32 1_555 1_555
H48 C32 1_555 1_555
C33 C32 1_555 1_555
H49 C33 1_555 1_555
H50 C33 1_555 1_555
C34 C33 1_555 1_555
H51 C34 1_555 1_555
H52 C34 1_555 1_555
C35 C34 1_555 1_555
H53 C35 1_555 1_555
H54 C35 1_555 1_555
C36 C31 1_555 1_555
C37 C36 1_555 1_555
H55 C37 1_555 1_555
C38 C37 1_555 1_555
H56 C38 1_555 1_555
H57 C38 1_555 1_555
C39 C38 1_555 1_555
H58 C39 1_555 1_555
H59 C39 1_555 1_555
C40 C39 1_555 1_555
C41 C40 1_555 1_555
H60 C41 1_555 1_555
C42 C41 1_555 1_555
H61 C42 1_555 1_555
H62 C42 1_555 1_555
C43 C42 1_555 1_555
H63 C43 1_555 1_555
H64 C43 1_555 1_555
C44 C40 1_555 1_555
H65 C44 1_555 1_555
C45 C37 1_555 1_555
H66 C45 1_555 1_555
C46 C45 1_555 1_555
H67 C46 1_555 1_555
H68 C46 1_555 1_555
C47 C31 1_555 1_555
H69 C47 1_555 1_555
H70 C47 1_555 1_555
C48 C36 1_555 1_555
H71 C48 1_555 1_555
H72 C48 1_555 1_555
H73 C48 1_555 1_555
C49 C40 1_555 1_555
H74 C49 1_555 1_555
H75 C49 1_555 1_555
H76 C49 1_555 1_555
C50 C41 1_555 1_555
H77 C50 1_555 1_555
C51 C50 1_555 1_555
H78 C51 1_555 1_555
H79 C51 1_555 1_555
H80 C51 1_555 1_555
C52 C50 1_555 1_555
H81 C52 1_555 1_555
H82 C52 1_555 1_555
C53 C52 1_555 1_555
H83 C53 1_555 1_555
C54 C53 1_555 1_555
H84 C54 1_555 1_555
H85 C54 1_555 1_555
C55 C53 1_555 1_555
C56 C55 1_555 1_555
H86 C56 1_555 1_555
C57 C56 1_555 1_555
H87 C57 1_555 1_555
C58 C57 1_555 1_555
C59 C58 1_555 1_555
H88 C59 1_555 1_555
C60 C55 1_555 1_555
H89 C60 1_555 1_555
O2 C54 1_555 1_555
H90 O2 1_555 1_555
Cl2 C58 1_555 1_555
C5 C6 1_555 1_555
C13 C14 1_555 1_555
C14 C15 1_555 1_555
C16 C17 1_555 1_555
C29 C30 1_555 1_555
C35 C36 1_555 1_555
C43 C44 1_555 1_555
C44 C45 1_555 1_555
C46 C47 1_555 1_555
C59 C60 1_555 1_555

#END
