
#######################################################################
#
#                 Cambridge Crystallographic Data Centre
#                                CCDC 
#
#######################################################################
#
# If this CIF has been generated from an entry in the Cambridge 
# Structural Database, then it will include bibliographic, chemical, 
# crystal, experimental, refinement or atomic coordinate data resulting 
# from the CCDC's data processing and validation procedures.
#
#######################################################################

data_SOBCAO
_chemical_formula_moiety         'C21 H18 N4 O1'
_chemical_name_systematic        
3-(1H-Benzo(d)(1,2,3)triazol-1-yl)-N,3-diphenylpropanamide
_symmetry_cell_setting           triclinic
_symmetry_space_group_name_H-M   'P -1'
_symmetry_Int_Tables_number      2
_space_group_name_Hall           '-P 1'
loop_
_symmetry_equiv_pos_site_id
_symmetry_equiv_pos_as_xyz
1 x,y,z
2 -x,-y,-z
_cell_length_a                   8.9595(13)
_cell_length_b                   10.6948(8)
_cell_length_c                   10.7732(7)
_cell_angle_alpha                116.638(4)
_cell_angle_beta                 101.593(6)
_cell_angle_gamma                97.089(6)
_cell_volume                     876.611
_chemical_melting_point          '167-169 deg.C'
_cell_formula_units_Z            2
loop_
_atom_site_label
_atom_site_type_symbol
_atom_site_fract_x
_atom_site_fract_y
_atom_site_fract_z
C1 C 0.15686(15) -0.06690(14) 0.33721(15)
C2 C 0.26668(17) -0.03911(17) 0.46370(17)
H1 H 0.3667 0.0204 0.4959
C3 C 0.2189(2) -0.1046(2) 0.5380(2)
H2 H 0.2882 -0.0892 0.6231
C4 C 0.0675(2) -0.1944(2) 0.4885(2)
H3 H 0.0395 -0.2366 0.5421
C5 C -0.0393(2) -0.22159(18) 0.3651(2)
H4 H -0.1389 -0.2817 0.3331
C6 C 0.00683(16) -0.15538(15) 0.28782(17)
C7 C 0.28340(15) 0.08658(14) 0.24348(14)
H5 H 0.3844 0.0796 0.2922
C8 C 0.28703(16) 0.05389(15) 0.09171(15)
H6 H 0.2824 -0.0476 0.0338
H7 H 0.1966 0.0751 0.0455
C9 C 0.43679(16) 0.14472(14) 0.10060(14)
C10 C 0.53813(15) 0.27945(14) -0.01455(15)
C11 C 0.4954(2) 0.3014(2) -0.1313(2)
H8 H 0.3916 0.2660 -0.1891
C12 C 0.6044(2) 0.3752(3) -0.1639(2)
H9 H 0.5732 0.3905 -0.2427
C13 C 0.7561(2) 0.4257(2) -0.0828(2)
H10 H 0.8297 0.4749 -0.1054
C14 C 0.79924(19) 0.4034(2) 0.0319(2)
H11 H 0.9038 0.4377 0.0878
C15 C 0.69255(17) 0.33132(18) 0.06816(18)
H12 H 0.7248 0.3179 0.1480
C16 C 0.26497(14) 0.23684(14) 0.33470(14)
C17 C 0.15086(18) 0.29101(17) 0.28219(17)
H13 H 0.0833 0.2349 0.1887
C18 C 0.1371(2) 0.42876(19) 0.36877(19)
H14 H 0.0602 0.4648 0.3328
C19 C 0.2355(2) 0.51255(18) 0.50673(19)
H15 H 0.2257 0.6052 0.5642
C20 C 0.3475(2) 0.45964(18) 0.55930(19)
H16 H 0.4141 0.5158 0.6532
C21 C 0.36251(18) 0.32278(16) 0.47348(16)
H17 H 0.4401 0.2879 0.5102
N1 N 0.15970(12) -0.02172(12) 0.23812(12)
N2 N 0.01937(14) -0.07650(14) 0.13594(14)
N3 N -0.07384(14) -0.15774(14) 0.16403(15)
N4 N 0.41911(13) 0.20383(13) 0.01298(13)
H18 H 0.3240 0.1945 -0.0317
O1 O 0.56296(11) 0.15859(12) 0.18015(11)
loop_
_geom_bond_atom_site_label_1
_geom_bond_atom_site_label_2
_geom_bond_site_symmetry_1
_geom_bond_site_symmetry_2
C1 C2 1_555 1_555
C2 H1 1_555 1_555
C3 C2 1_555 1_555
H2 C3 1_555 1_555
C4 C3 1_555 1_555
H3 C4 1_555 1_555
C5 C4 1_555 1_555
H4 C5 1_555 1_555
C6 C1 1_555 1_555
C7 H5 1_555 1_555
C8 C7 1_555 1_555
H6 C8 1_555 1_555
H7 C8 1_555 1_555
C9 C8 1_555 1_555
C10 C11 1_555 1_555
C11 H8 1_555 1_555
C12 C11 1_555 1_555
H9 C12 1_555 1_555
C13 C12 1_555 1_555
H10 C13 1_555 1_555
C14 C13 1_555 1_555
H11 C14 1_555 1_555
C15 C10 1_555 1_555
H12 C15 1_555 1_555
C16 C7 1_555 1_555
C17 C16 1_555 1_555
H13 C17 1_555 1_555
C18 C17 1_555 1_555
H14 C18 1_555 1_555
C19 C18 1_555 1_555
H15 C19 1_555 1_555
C20 C19 1_555 1_555
H16 C20 1_555 1_555
C21 C16 1_555 1_555
H17 C21 1_555 1_555
N1 C1 1_555 1_555
N2 N1 1_555 1_555
N3 C6 1_555 1_555
N4 C9 1_555 1_555
H18 N4 1_555 1_555
O1 C9 1_555 1_555
C5 C6 1_555 1_555
C7 N1 1_555 1_555
C10 N4 1_555 1_555
C14 C15 1_555 1_555
C20 C21 1_555 1_555
N2 N3 1_555 1_555

#END
