
#######################################################################
#
#                 Cambridge Crystallographic Data Centre
#                                CCDC 
#
#######################################################################
#
# If this CIF has been generated from an entry in the Cambridge 
# Structural Database, then it will include bibliographic, chemical, 
# crystal, experimental, refinement or atomic coordinate data resulting 
# from the CCDC's data processing and validation procedures.
#
#######################################################################

data_SOBGUM
_chemical_formula_moiety         'C68 H72 N8 O8 S4,2(C1 H4 O1),C1 H2 Cl2,H2 O1'
_chemical_name_systematic        
'5,11,17,23-Tetra-t-butyl-25,26,27,28-tetrakis((4-pyridyl)carbamoylmethoxy)-2,8,14,20-tetra-thiacalix(4)arene dichloromethane methanol solvate monohydrate'
_symmetry_cell_setting           monoclinic
_symmetry_space_group_name_H-M   'P 21/n'
_symmetry_Int_Tables_number      14
_space_group_name_Hall           '-P 2yn'
loop_
_symmetry_equiv_pos_site_id
_symmetry_equiv_pos_as_xyz
1 x,y,z
2 1/2-x,1/2+y,1/2-z
3 -x,-y,-z
4 1/2+x,1/2-y,1/2+z
_cell_length_a                   13.7252(16)
_cell_length_b                   35.497(4)
_cell_length_c                   15.3054(18)
_cell_angle_alpha                90
_cell_angle_beta                 93.524(2)
_cell_angle_gamma                90
_cell_volume                     7442.74
_exptl_crystal_colour            colorless
_exptl_crystal_description       block
_chemical_melting_point          'above 250deg.C'
_cell_formula_units_Z            4
_exptl_crystal_recrystallization_method dichloromethane/methanol
loop_
_atom_site_label
_atom_site_type_symbol
_atom_site_fract_x
_atom_site_fract_y
_atom_site_fract_z
C1 C 0.4739(3) 0.23415(11) 1.0872(2)
C2 C 0.4605(3) 0.21505(10) 1.0087(2)
C3 C 0.4652(3) 0.23465(10) 0.9311(2)
C4 C 0.4854(3) 0.27299(10) 0.9332(2)
H1 H 0.4879 0.2859 0.8805
C5 C 0.5021(3) 0.29276(10) 1.0114(2)
C6 C 0.4942(3) 0.27268(10) 1.0884(2)
H2 H 0.5026 0.2851 1.1418
C7 C 0.5255(3) 0.33515(11) 1.0120(2)
C8 C 0.6191(9) 0.3404(3) 0.9714(12)
H3 H 0.6217 0.3240 0.9217
H4 H 0.6719 0.3345 1.0132
H5 H 0.6248 0.3661 0.9528
C9 C 0.5287(13) 0.3509(3) 1.1022(4)
H6 H 0.5808 0.3393 1.1372
H7 H 0.4678 0.3461 1.1278
H8 H 0.5394 0.3776 1.0999
C10 C 0.4439(10) 0.3543(3) 0.9574(11)
H9 H 0.4611 0.3802 0.9478
H10 H 0.3848 0.3533 0.9877
H11 H 0.4343 0.3417 0.9021
C11 C 0.5287(3) 0.15455(12) 1.0055(4)
H12 H 0.5747 0.1614 1.0535
H13 H 0.5592 0.1592 0.9510
C12 C 0.5024(4) 0.11312(13) 1.0122(4)
C13 C 0.3661(3) 0.06916(11) 1.0245(3)
C14 C 0.4187(4) 0.03730(12) 1.0477(3)
H14 H 0.4856 0.0384 1.0610
C15 C 0.3687(5) 0.00353(14) 1.0506(4)
H15 H 0.4046 -0.0179 1.0663
C16 C 0.2265(4) 0.03052(15) 1.0112(4)
H16 H 0.1596 0.0286 0.9983
C17 C 0.2687(4) 0.06562(13) 1.0065(3)
H17 H 0.2308 0.0866 0.9912
C18 C 0.3620(3) 0.18085(10) 0.8222(2)
C19 C 0.2669(3) 0.19113(10) 0.8375(2)
C20 C 0.1938(3) 0.16384(10) 0.8297(2)
C21 C 0.2157(3) 0.12768(10) 0.8021(2)
H18 H 0.1662 0.1098 0.7980
C22 C 0.3080(3) 0.11736(10) 0.7806(2)
C23 C 0.3810(3) 0.14449(11) 0.7936(2)
H19 H 0.4448 0.1380 0.7828
C24 C 0.3307(3) 0.07897(11) 0.7403(3)
C25 C 0.3585(7) 0.08434(16) 0.6477(4)
H20 H 0.4131 0.1012 0.6470
H21 H 0.3042 0.0948 0.6133
H22 H 0.3758 0.0605 0.6236
C26 C 0.4161(5) 0.06047(17) 0.7901(5)
H23 H 0.4717 0.0769 0.7908
H24 H 0.4314 0.0372 0.7620
H25 H 0.3996 0.0555 0.8490
C27 C 0.2448(5) 0.05219(15) 0.7426(5)
H26 H 0.2304 0.0477 0.8023
H27 H 0.2607 0.0288 0.7155
H28 H 0.1888 0.0632 0.7116
C28 C 0.2561(4) 0.25977(11) 0.8175(3)
H29 H 0.3218 0.2685 0.8331
H30 H 0.2112 0.2790 0.8356
C29 C 0.2440(3) 0.25561(11) 0.7192(3)
C30 C 0.2623(3) 0.29354(11) 0.5863(3)
C31 C 0.2167(3) 0.27004(12) 0.5263(3)
H31 H 0.1861 0.2482 0.5441
C32 C 0.2167(3) 0.27918(13) 0.4389(3)
H32 H 0.1866 0.2624 0.3991
C33 C 0.2979(4) 0.33269(15) 0.4666(4)
H33 H 0.3255 0.3548 0.4469
C34 C 0.3041(3) 0.32637(13) 0.5561(3)
H34 H 0.3350 0.3435 0.5946
C35 C 0.0576(3) 0.20003(10) 0.9359(2)
C36 C 0.0753(3) 0.18300(10) 1.0172(2)
C37 C 0.0645(3) 0.20428(10) 1.0918(2)
C38 C 0.0293(3) 0.24117(11) 1.0839(2)
H35 H 0.0208 0.2550 1.1346
C39 C 0.0064(3) 0.25795(10) 1.0036(2)
C40 C 0.0238(3) 0.23650(10) 0.9299(2)
H36 H 0.0122 0.2472 0.8748
C41 C -0.0286(3) 0.29855(11) 0.9928(3)
C42 C -0.0398(5) 0.31721(13) 1.0822(3)
H37 H -0.0902 0.3046 1.1117
H38 H -0.0569 0.3432 1.0738
H39 H 0.0207 0.3154 1.1169
C43 C -0.1267(3) 0.29956(13) 0.9388(3)
H40 H -0.1755 0.2869 0.9703
H41 H -0.1200 0.2871 0.8837
H42 H -0.1460 0.3253 0.9285
C44 C 0.0464(3) 0.32084(12) 0.9427(3)
H43 H 0.0293 0.3471 0.9421
H44 H 0.0464 0.3117 0.8837
H45 H 0.1102 0.3177 0.9711
C45 C 0.0517(4) 0.11915(11) 1.0654(3)
H46 H -0.0043 0.1319 1.0876
H47 H 0.0917 0.1099 1.1153
C46 C 0.0164(3) 0.08614(12) 1.0102(3)
C47 C -0.0244(3) 0.06664(13) 0.8565(3)
C48 C -0.0369(4) 0.02841(14) 0.8696(4)
H48 H -0.0271 0.0181 0.9253
C49 C -0.0629(6) 0.00686(18) 0.8017(4)
H49 H -0.0727 -0.0186 0.8128
C50 C -0.0647(5) 0.05480(17) 0.7064(4)
H50 H -0.0740 0.0641 0.6497
C51 C -0.0396(4) 0.07997(14) 0.7723(3)
H51 H -0.0329 0.1055 0.7602
C52 C 0.2104(3) 0.17163(10) 1.2064(2)
C53 C 0.2881(3) 0.19475(10) 1.1854(2)
C54 C 0.3829(3) 0.18152(10) 1.1985(2)
C55 C 0.3999(3) 0.14595(10) 1.2331(2)
H52 H 0.4640 0.1374 1.2407
C56 C 0.3249(3) 0.12244(10) 1.2570(2)
C57 C 0.2297(3) 0.13625(11) 1.2423(2)
H53 H 0.1776 0.1212 1.2571
C58 C 0.3427(3) 0.08402(11) 1.3010(3)
C59 C 0.2703(5) 0.05480(13) 1.2629(4)
H54 H 0.2751 0.0534 1.2007
H55 H 0.2053 0.0620 1.2755
H56 H 0.2852 0.0306 1.2886
C60 C 0.3294(4) 0.08814(13) 1.3977(3)
H57 H 0.3350 0.0639 1.4254
H58 H 0.2660 0.0985 1.4061
H59 H 0.3786 0.1047 1.4233
C61 C 0.4481(4) 0.07054(15) 1.2901(4)
H60 H 0.4570 0.0460 1.3159
H61 H 0.4931 0.0880 1.3186
H62 H 0.4596 0.0692 1.2289
C62 C 0.2653(4) 0.25966(11) 1.2100(3)
H63 H 0.3255 0.2609 1.2464
H64 H 0.2122 0.2549 1.2476
C63 C 0.2485(3) 0.29644(11) 1.1629(3)
C64 C 0.2173(3) 0.36332(12) 1.1950(3)
C65 C 0.2065(4) 0.38889(14) 1.2607(4)
H65 H 0.2147 0.3816 1.3190
C66 C 0.1832(5) 0.42612(17) 1.2382(5)
H66 H 0.1749 0.4429 1.2839
C67 C 0.2065(5) 0.37686(14) 1.1101(4)
H67 H 0.2153 0.3611 1.0628
C68 C 0.1829(6) 0.41386(18) 1.0974(5)
H68 H 0.1735 0.4220 1.0397
N1 N 0.4092(3) 0.10497(9) 1.0192(2)
H69 H 0.3701 0.1239 1.0206
N2 N 0.2751(4) -0.00063(12) 1.0329(4)
N3 N 0.2685(3) 0.28760(10) 0.6769(2)
H70 H 0.2900 0.3060 0.7090
N4 N 0.2563(3) 0.30998(11) 0.4067(3)
N5 N 0.0072(3) 0.09227(9) 0.9227(2)
H71 H 0.0225 0.1144 0.9055
N6 N -0.0765(5) 0.01828(15) 0.7186(4)
N7 N 0.2396(3) 0.32607(9) 1.2175(2)
H72 H 0.2488 0.3214 1.2725
N8 N 0.1720(5) 0.43932(14) 1.1591(5)
O1 O 0.4426(2) 0.17661(7) 1.00863(17)
O2 O 0.5668(3) 0.09041(10) 1.0099(4)
O3 O 0.2395(2) 0.22613(7) 0.86500(17)
O4 O 0.2141(3) 0.22712(8) 0.68296(19)
O5 O 0.1073(2) 0.14587(7) 1.01855(16)
O6 O -0.0033(3) 0.05686(9) 1.0453(2)
O7 O 0.2707(2) 0.23005(7) 1.14900(15)
O8 O 0.2462(3) 0.29885(8) 1.0838(2)
S1 S 0.48676(8) 0.21050(3) 1.18963(6)
S2 S 0.46152(9) 0.21295(3) 0.82626(6)
S3 S 0.06871(8) 0.17542(3) 0.83553(6)
S4 S 0.08701(8) 0.18722(3) 1.20025(6)
O9 O 0.3012(5) 0.35562(14) 0.7724(4)
H73 H 0.3171 0.3359 0.7973
C69 C 0.2142(10) 0.3701(3) 0.8077(11)
H74 H 0.1810 0.3501 0.8360
H75 H 0.1720 0.3803 0.7613
H76 H 0.2312 0.3895 0.8495
O10 O 0.2689(6) 0.42171(18) 0.4971(6)
H77 H 0.293(6) 0.444(3) 0.493(5)
H78 H 0.214(6) 0.424(2) 0.519(6)
O11 O 0.9288(19) 0.9616(4) 0.5622(19)
O12 O 0.839(2) 0.9977(7) 0.5119(19)
C70 C 0.330(3) 0.4215(8) 0.672(3)
Cl1 Cl 0.380(5) 0.4424(19) 0.770(3)
Cl2 Cl 0.274(6) 0.4555(18) 0.602(4)
C71? C 0.6101(13) 0.3438(4) 1.0778(12)
H79? H 0.6657 0.3289 1.0647
H80? H 0.5915 0.3380 1.1358
H81? H 0.6263 0.3701 1.0747
C72? C 0.4384(10) 0.3570(3) 1.0384(18)
H82? H 0.3806 0.3476 1.0072
H83? H 0.4467 0.3831 1.0246
H84? H 0.4321 0.3542 1.1002
C73? C 0.5538(17) 0.3492(4) 0.9242(6)
H85? H 0.5872 0.3729 0.9315
H86? H 0.4961 0.3525 0.8862
H87? H 0.5960 0.3312 0.8990
O13? O 0.5000 1.0000 0.5000
C74? C 0.440(2) 0.9936(4) 0.480(2)
C75? C 0.3603(13) 0.4097(5) 0.6785(12)
Cl3? Cl 0.4516(12) 0.4123(5) 0.7614(11)
Cl4? Cl 0.289(2) 0.4507(8) 0.669(2)
loop_
_geom_bond_atom_site_label_1
_geom_bond_atom_site_label_2
_geom_bond_site_symmetry_1
_geom_bond_site_symmetry_2
C1 C2 1_555 1_555
C2 C3 1_555 1_555
C3 C4 1_555 1_555
C4 H1 1_555 1_555
C5 C4 1_555 1_555
C6 C1 1_555 1_555
H2 C6 1_555 1_555
C7 C5 1_555 1_555
C8 C7 1_555 1_555
H3 C8 1_555 1_555
H4 C8 1_555 1_555
H5 C8 1_555 1_555
C9 C7 1_555 1_555
H6 C9 1_555 1_555
H7 C9 1_555 1_555
H8 C9 1_555 1_555
C10 C7 1_555 1_555
H9 C10 1_555 1_555
H10 C10 1_555 1_555
H11 C10 1_555 1_555
C11 H12 1_555 1_555
H13 C11 1_555 1_555
C12 C11 1_555 1_555
C13 C14 1_555 1_555
C14 H14 1_555 1_555
C15 C14 1_555 1_555
H15 C15 1_555 1_555
C16 H16 1_555 1_555
C17 C13 1_555 1_555
H17 C17 1_555 1_555
C18 C19 1_555 1_555
C19 C20 1_555 1_555
C20 C21 1_555 1_555
C21 H18 1_555 1_555
C22 C21 1_555 1_555
C23 C18 1_555 1_555
H19 C23 1_555 1_555
C24 C22 1_555 1_555
C25 C24 1_555 1_555
H20 C25 1_555 1_555
H21 C25 1_555 1_555
H22 C25 1_555 1_555
C26 C24 1_555 1_555
H23 C26 1_555 1_555
H24 C26 1_555 1_555
H25 C26 1_555 1_555
C27 C24 1_555 1_555
H26 C27 1_555 1_555
H27 C27 1_555 1_555
H28 C27 1_555 1_555
C28 H29 1_555 1_555
H30 C28 1_555 1_555
C29 C28 1_555 1_555
C30 C31 1_555 1_555
C31 H31 1_555 1_555
C32 C31 1_555 1_555
H32 C32 1_555 1_555
C33 H33 1_555 1_555
C34 C30 1_555 1_555
H34 C34 1_555 1_555
C35 C36 1_555 1_555
C36 C37 1_555 1_555
C37 C38 1_555 1_555
C38 H35 1_555 1_555
C39 C38 1_555 1_555
C40 C35 1_555 1_555
H36 C40 1_555 1_555
C41 C39 1_555 1_555
C42 C41 1_555 1_555
H37 C42 1_555 1_555
H38 C42 1_555 1_555
H39 C42 1_555 1_555
C43 C41 1_555 1_555
H40 C43 1_555 1_555
H41 C43 1_555 1_555
H42 C43 1_555 1_555
C44 C41 1_555 1_555
H43 C44 1_555 1_555
H44 C44 1_555 1_555
H45 C44 1_555 1_555
C45 H46 1_555 1_555
H47 C45 1_555 1_555
C46 C45 1_555 1_555
C47 C48 1_555 1_555
C48 H48 1_555 1_555
C49 C48 1_555 1_555
H49 C49 1_555 1_555
C50 H50 1_555 1_555
C51 C47 1_555 1_555
H51 C51 1_555 1_555
C52 C53 1_555 1_555
C53 C54 1_555 1_555
C54 C55 1_555 1_555
C55 H52 1_555 1_555
C56 C55 1_555 1_555
C57 C52 1_555 1_555
H53 C57 1_555 1_555
C58 C56 1_555 1_555
C59 C58 1_555 1_555
H54 C59 1_555 1_555
H55 C59 1_555 1_555
H56 C59 1_555 1_555
C60 C58 1_555 1_555
H57 C60 1_555 1_555
H58 C60 1_555 1_555
H59 C60 1_555 1_555
C61 C58 1_555 1_555
H60 C61 1_555 1_555
H61 C61 1_555 1_555
H62 C61 1_555 1_555
C62 H63 1_555 1_555
H64 C62 1_555 1_555
C63 C62 1_555 1_555
C64 C65 1_555 1_555
C65 H65 1_555 1_555
C66 C65 1_555 1_555
H66 C66 1_555 1_555
C67 C64 1_555 1_555
H67 C67 1_555 1_555
C68 C67 1_555 1_555
H68 C68 1_555 1_555
N1 C12 1_555 1_555
H69 N1 1_555 1_555
N2 C15 1_555 1_555
N3 C29 1_555 1_555
H70 N3 1_555 1_555
N4 C32 1_555 1_555
N5 C46 1_555 1_555
H71 N5 1_555 1_555
N6 C49 1_555 1_555
N7 C63 1_555 1_555
H72 N7 1_555 1_555
N8 C66 1_555 1_555
O1 C2 1_555 1_555
O2 C12 1_555 1_555
O3 C19 1_555 1_555
O4 C29 1_555 1_555
O5 C36 1_555 1_555
O6 C46 1_555 1_555
O7 C53 1_555 1_555
O8 C63 1_555 1_555
S1 C1 1_555 1_555
S2 C3 1_555 1_555
S3 C20 1_555 1_555
S4 C37 1_555 1_555
O9 H73 1_555 1_555
C69 O9 1_555 1_555
H74 C69 1_555 1_555
H75 C69 1_555 1_555
H76 C69 1_555 1_555
O10 H77 1_555 1_555
H78 O10 1_555 1_555
C70 Cl1 1_555 1_555
Cl2 C70 1_555 1_555
C5 C6 1_555 1_555
C11 O1 1_555 1_555
C13 N1 1_555 1_555
C16 C17 1_555 1_555
C16 N2 1_555 1_555
C18 S2 1_555 1_555
C22 C23 1_555 1_555
C28 O3 1_555 1_555
C30 N3 1_555 1_555
C33 C34 1_555 1_555
C33 N4 1_555 1_555
C35 S3 1_555 1_555
C39 C40 1_555 1_555
C45 O5 1_555 1_555
C47 N5 1_555 1_555
C50 C51 1_555 1_555
C50 N6 1_555 1_555
C52 S4 1_555 1_555
C54 S1 1_555 1_555
C56 C57 1_555 1_555
C62 O7 1_555 1_555
C64 N7 1_555 1_555
C68 N8 1_555 1_555

#END
