
#######################################################################
#
#                 Cambridge Crystallographic Data Centre
#                                CCDC 
#
#######################################################################
#
# If this CIF has been generated from an entry in the Cambridge 
# Structural Database, then it will include bibliographic, chemical, 
# crystal, experimental, refinement or atomic coordinate data resulting 
# from the CCDC's data processing and validation procedures.
#
#######################################################################

data_SOBGEV
_chemical_formula_moiety         'C14 H18 N2 O10'
_chemical_name_systematic        1,4-Diformyl-2,3,5,6-tetra-acetoxypiperazine
_symmetry_cell_setting           monoclinic
_symmetry_space_group_name_H-M   'P 21/n'
_symmetry_Int_Tables_number      14
_space_group_name_Hall           '-P 2yn'
loop_
_symmetry_equiv_pos_site_id
_symmetry_equiv_pos_as_xyz
1 x,y,z
2 1/2-x,1/2+y,1/2-z
3 -x,-y,-z
4 1/2+x,1/2-y,1/2+z
_cell_length_a                   7.905(2)
_cell_length_b                   25.691(4)
_cell_length_c                   13.536(2)
_cell_angle_alpha                90
_cell_angle_beta                 98.69(1)
_cell_angle_gamma                90
_cell_volume                     2717.43
_exptl_crystal_colour            colorless
_chemical_melting_point          262-263deg.C(dec.)
_cell_formula_units_Z            6
loop_
_atom_site_label
_atom_site_type_symbol
_atom_site_fract_x
_atom_site_fract_y
_atom_site_fract_z
N1 N -0.0237(5) 0.6980(1) 0.6820(3)
C1 C 0.0776(7) 0.7136(2) 0.7670(4)
O1 O 0.1433(5) 0.7560(2) 0.7800(3)
C2 C -0.1056(6) 0.6478(2) 0.6768(4)
O2 O -0.2874(4) 0.6534(1) 0.6791(2)
C3 C -0.3315(7) 0.6630(2) 0.7706(5)
O3 O -0.2284(5) 0.6665(2) 0.8440(3)
C4 C -0.5200(7) 0.6690(3) 0.7642(5)
C5 C -0.0959(6) 0.6208(2) 0.5791(4)
O4 O 0.0753(4) 0.6011(1) 0.5819(2)
C6 C 0.0983(8) 0.5504(2) 0.6058(4)
O5 O -0.0162(6) 0.5227(2) 0.6221(4)
C7 C 0.2803(7) 0.5342(2) 0.6071(5)
N2 N -0.1308(5) 0.6562(1) 0.4961(3)
C8 C -0.2325(7) 0.6399(2) 0.4099(4)
O6 O -0.3005(6) 0.5982(2) 0.3994(3)
C9 C -0.0493(6) 0.7059(2) 0.5008(4)
O7 O 0.1323(4) 0.7021(1) 0.4989(3)
C10 C 0.1781(9) 0.6909(3) 0.4091(5)
O8 O 0.0801(6) 0.6865(2) 0.3350(3)
C11 C 0.3681(8) 0.6852(3) 0.4199(6)
C12 C -0.0582(7) 0.7331(2) 0.5991(4)
O9 O -0.2271(4) 0.7547(1) 0.5994(3)
C13 C -0.2541(9) 0.8027(2) 0.5607(5)
O10 O -0.1488(7) 0.8240(2) 0.5180(4)
C14 C -0.4252(9) 0.8225(3) 0.5723(5)
H1 H 0.0979(58) 0.6879(18) 0.8150(33)
H2 H -0.0550(55) 0.6262(17) 0.7370(31)
H3 H -0.5327 0.6702 0.8336
H4 H -0.5913 0.6419 0.7315
H5 H -0.5533 0.7018 0.7334
H6 H -0.1746(57) 0.5932(17) 0.5695(32)
H7 H 0.2851 0.4972 0.6162
H8 H 0.3595 0.5506 0.6585
H9 H 0.3101 0.5428 0.5429
H10 H -0.2425(58) 0.6670(17) 0.3597(33)
H11 H -0.0945(57) 0.7291(16) 0.4450(33)
H12 H 0.4032 0.6788 0.3562
H13 H 0.4051 0.6570 0.4645
H14 H 0.4184 0.7171 0.4472
H15 H 0.0142(58) 0.7599(17) 0.6111(34)
H16 H -0.4284 0.8582 0.5513
H17 H -0.4330 0.8208 0.6423
H18 H -0.5197 0.8040 0.5352
C15 C -0.1777(6) 0.5163(2) -0.0076(3)
O11 O -0.1796(4) 0.5646(1) 0.0448(2)
C16 C -0.3131(7) 0.5720(2) 0.0953(4)
O12 O -0.4274(5) 0.5417(2) 0.0945(3)
C17 C -0.2985(8) 0.6227(2) 0.1485(5)
N3 N -0.1063(5) 0.4750(1) 0.0572(3)
C18 C -0.2098(7) 0.4409(2) 0.0971(4)
O13 O -0.1617(5) 0.4093(1) 0.1598(3)
C19 C -0.0746(6) 0.5265(2) -0.0917(3)
O14 O -0.1155(4) 0.4855(1) -0.1645(2)
C20 C -0.2543(7) 0.4953(2) -0.2352(4)
O15 O -0.3308(5) 0.5354(2) -0.2387(3)
C21 C -0.2907(8) 0.4502(2) -0.3024(4)
H19 H -0.2889(58) 0.5063(17) -0.0375(31)
H20 H -0.3859 0.6287 0.1894
H21 H -0.2992 0.6505 0.1011
H22 H -0.1889 0.6212 0.1901
H23 H -0.3297(58) 0.4441(17) 0.0706(32)
H24 H -0.1053(56) 0.5623(17) -0.1213(31)
H25 H -0.3790 0.4588 -0.3567
H26 H -0.1890 0.4402 -0.3285
H27 H -0.3281 0.4218 -0.2650
C19B C 0.0746(6) 0.4735(2) 0.0917(3)
N3B N 0.1063(5) 0.5250(1) -0.0572(3)
C15B C 0.1777(6) 0.4837(2) 0.0076(3)
O14B O 0.1155(4) 0.5145(1) 0.1645(2)
H24B H 0.1053(56) 0.4377(17) 0.1213(31)
C18B C 0.2098(7) 0.5591(2) -0.0971(4)
O11B O 0.1796(4) 0.4354(1) -0.0448(2)
H19B H 0.2889(58) 0.4937(17) 0.0375(31)
C20B C 0.2543(7) 0.5047(2) 0.2352(4)
O13B O 0.1617(5) 0.5907(1) -0.1598(3)
H23B H 0.3297(58) 0.5559(17) -0.0706(32)
C16B C 0.3131(7) 0.4280(2) -0.0953(4)
O15B O 0.3308(5) 0.4646(2) 0.2387(3)
C21B C 0.2907(8) 0.5498(2) 0.3024(4)
O12B O 0.4274(5) 0.4583(2) -0.0945(3)
C17B C 0.2985(8) 0.3773(2) -0.1485(5)
H25B H 0.3790 0.5412 0.3567
H26B H 0.1890 0.5598 0.3285
H27B H 0.3281 0.5782 0.2650
H20B H 0.3859 0.3713 -0.1894
H21B H 0.2992 0.3495 -0.1011
H22B H 0.1889 0.3788 -0.1901
loop_
_geom_bond_atom_site_label_1
_geom_bond_atom_site_label_2
_geom_bond_site_symmetry_1
_geom_bond_site_symmetry_2
N1 C1 1_555 1_555
C1 O1 1_555 1_555
C2 N1 1_555 1_555
O2 C2 1_555 1_555
C3 O2 1_555 1_555
O3 C3 1_555 1_555
C4 C3 1_555 1_555
C5 C2 1_555 1_555
O4 C5 1_555 1_555
C6 O4 1_555 1_555
O5 C6 1_555 1_555
C7 C6 1_555 1_555
N2 C5 1_555 1_555
C8 N2 1_555 1_555
O6 C8 1_555 1_555
C9 N2 1_555 1_555
O7 C9 1_555 1_555
C10 O7 1_555 1_555
O8 C10 1_555 1_555
C11 C10 1_555 1_555
C12 N1 1_555 1_555
O9 C12 1_555 1_555
C13 O9 1_555 1_555
O10 C13 1_555 1_555
C14 C13 1_555 1_555
C15 O11 1_555 1_555
O11 C16 1_555 1_555
C16 O12 1_555 1_555
C17 C16 1_555 1_555
N3 C15 1_555 1_555
C18 N3 1_555 1_555
O13 C18 1_555 1_555
C19 C15 1_555 1_555
O14 C19 1_555 1_555
C20 O14 1_555 1_555
O15 C20 1_555 1_555
C21 C20 1_555 1_555
H1 C1 1_555 1_555
H2 C2 1_555 1_555
H3 C4 1_555 1_555
H4 C4 1_555 1_555
H5 C4 1_555 1_555
H6 C5 1_555 1_555
H7 C7 1_555 1_555
H8 C7 1_555 1_555
H9 C7 1_555 1_555
H10 C8 1_555 1_555
H11 C9 1_555 1_555
H12 C11 1_555 1_555
H13 C11 1_555 1_555
H14 C11 1_555 1_555
H15 C12 1_555 1_555
H16 C14 1_555 1_555
H17 C14 1_555 1_555
H18 C14 1_555 1_555
H19 C15 1_555 1_555
H20 C17 1_555 1_555
H21 C17 1_555 1_555
H22 C17 1_555 1_555
H23 C18 1_555 1_555
H24 C19 1_555 1_555
H25 C21 1_555 1_555
H26 C21 1_555 1_555
H27 C21 1_555 1_555
C19B N3 1_555 1_555
N3B C19 1_555 1_555
C15B C19B 1_555 1_555
O14B C19B 1_555 1_555
H24B C19B 1_555 1_555
C18B N3B 1_555 1_555
O11B C15B 1_555 1_555
H19B C15B 1_555 1_555
C20B O14B 1_555 1_555
O13B C18B 1_555 1_555
H23B C18B 1_555 1_555
C16B O11B 1_555 1_555
O15B C20B 1_555 1_555
C21B C20B 1_555 1_555
O12B C16B 1_555 1_555
C17B C16B 1_555 1_555
H25B C21B 1_555 1_555
H26B C21B 1_555 1_555
H27B C21B 1_555 1_555
H20B C17B 1_555 1_555
H21B C17B 1_555 1_555
H22B C17B 1_555 1_555
C9 C12 1_555 1_555
N3B C15B 1_555 1_555

#END
