
#######################################################################
#
#                 Cambridge Crystallographic Data Centre
#                                CCDC 
#
#######################################################################
#
# If this CIF has been generated from an entry in the Cambridge 
# Structural Database, then it will include bibliographic, chemical, 
# crystal, experimental, refinement or atomic coordinate data resulting 
# from the CCDC's data processing and validation procedures.
#
#######################################################################

data_SOBGOG
_chemical_formula_moiety         'C68 H72 N8 O8 S4,2(C1 H4 O1)'
_chemical_name_systematic        
'5,11,17,23-Tetra-t-butyl-25,26,27,28-tetrakis((3-pyridyl)carbamoylmethoxy)-2,8,14,20-tetra-thiacalix(4)arene methanol solvate'
_symmetry_cell_setting           monoclinic
_symmetry_space_group_name_H-M   'C 2/c'
_symmetry_Int_Tables_number      15
_space_group_name_Hall           '-C 2yn'
loop_
_symmetry_equiv_pos_site_id
_symmetry_equiv_pos_as_xyz
1 x,y,z
2 1/2+x,1/2+y,z
3 -x,y,1/2-z
4 1/2-x,1/2+y,1/2-z
5 -x,-y,-z
6 1/2-x,1/2-y,-z
7 x,-y,1/2+z
8 1/2+x,1/2-y,1/2+z
_cell_length_a                   37.7549(16)
_cell_length_b                   12.7784(6)
_cell_length_c                   30.4133(13)
_cell_angle_alpha                90
_cell_angle_beta                 108.6850(10)
_cell_angle_gamma                90
_cell_volume                     13899.5
_exptl_crystal_colour            colorless
_exptl_crystal_description       block
_chemical_melting_point          'above 280deg.C'
_cell_formula_units_Z            8
_exptl_crystal_recrystallization_method dichloromethane/methanol
loop_
_atom_site_label
_atom_site_type_symbol
_atom_site_fract_x
_atom_site_fract_y
_atom_site_fract_z
C1 C 0.19381(8) 0.5655(2) 0.31766(9)
C2 C 0.19974(9) 0.5756(2) 0.36503(9)
H1 H 0.2229 0.5571 0.3858
C3 C 0.17201(9) 0.6129(2) 0.38250(9)
C4 C 0.13703(9) 0.6288(2) 0.35031(10)
H2 H 0.1172 0.6453 0.3610
C5 C 0.13024(8) 0.6214(2) 0.30270(10)
C6 C 0.15945(8) 0.5971(2) 0.28571(9)
C7 C 0.17974(9) 0.6396(3) 0.43408(10)
C8 C 0.14901(17) 0.6028(6) 0.45138(16)
H3 H 0.1565 0.6113 0.4845
H4 H 0.1440 0.5303 0.4437
H5 H 0.1269 0.6432 0.4371
C9 C 0.1833(2) 0.7562(4) 0.43907(15)
H6 H 0.2032 0.7800 0.4283
H7 H 0.1886 0.7749 0.4711
C10 C 0.21673(17) 0.5966(6) 0.46449(14)
H8 H 0.2209 0.6178 0.4960
H9 H 0.2365 0.6231 0.4541
H10 H 0.2163 0.5216 0.4627
C11 C 0.21692(8) 0.4309(2) 0.25699(10)
C12 C 0.22223(8) 0.4500(2) 0.21485(10)
H11 H 0.2304 0.5159 0.2095
C13 C 0.21578(8) 0.3744(2) 0.17997(10)
C14 C 0.20124(8) 0.2791(2) 0.18853(10)
H12 H 0.1953 0.2283 0.1654
C15 C 0.19537(8) 0.2574(2) 0.23060(10)
C16 C 0.20482(8) 0.3321(2) 0.26586(9)
C17 C 0.22626(9) 0.3933(3) 0.13608(10)
C18 C 0.26884(11) 0.3981(5) 0.15022(14)
H13 H 0.2780 0.4516 0.1732
H14 H 0.2762 0.4139 0.1235
H15 H 0.2792 0.3317 0.1628
C19 C 0.21046(13) 0.4989(3) 0.11360(13)
H16 H 0.1836 0.4970 0.1040
H17 H 0.2185 0.5112 0.0871
H18 H 0.2194 0.5542 0.1357
C20 C 0.21181(14) 0.3087(4) 0.09976(13)
H19 H 0.2228 0.2427 0.1120
H20 H 0.2183 0.3257 0.0726
H21 H 0.1851 0.3039 0.0917
C21 C 0.22984(10) 0.2395(3) 0.33651(11)
H22 H 0.2329 0.1816 0.3174
H23 H 0.2222 0.2114 0.3617
C22 C 0.26646(10) 0.2971(3) 0.35603(12)
C23 C 0.29910(10) 0.4231(3) 0.41735(12)
N1 N 0.34950(16) 0.5380(5) 0.4219(3)
C24 C 0.3454(2) 0.5729(5) 0.4648(3)
H24 H 0.3619 0.6237 0.4814
C25 C 0.32097(17) 0.5401(4) 0.48185(18)
H25 H 0.3187 0.5677 0.5091
C26 C 0.29900(14) 0.4650(4) 0.45898(15)
H26 H 0.2819 0.4376 0.4721
C27 C 0.13999(9) 0.1458(2) 0.25562(10)
C28 C 0.13797(9) 0.0901(2) 0.29363(10)
H27 H 0.1587 0.0518 0.3110
C29 C 0.10587(9) 0.0895(2) 0.30683(10)
C30 C 0.07572(9) 0.1486(2) 0.28060(10)
H28 H 0.0541 0.1502 0.2889
C31 C 0.07706(8) 0.2059(2) 0.24208(10)
C32 C 0.10916(8) 0.2039(2) 0.22940(10)
C33 C 0.10469(10) 0.0227(3) 0.34857(11)
C34 C 0.09933(14) -0.0919(3) 0.33259(14)
H29 H 0.0996 -0.1358 0.3583
H30 H 0.1192 -0.1122 0.3211
H31 H 0.0758 -0.0994 0.3084
C35 C 0.07197(14) 0.0550(4) 0.36539(16)
H32 H 0.0488 0.0420 0.3413
H33 H 0.0739 0.1282 0.3730
H34 H 0.0728 0.0151 0.3924
C36 C 0.14148(13) 0.0329(3) 0.38911(13)
H35 H 0.1472 0.1056 0.3957
H36 H 0.1614 0.0003 0.3808
H37 H 0.1389 -0.0008 0.4161
C37 C 0.09977(12) 0.2072(3) 0.14846(11)
H38 H 0.0751 0.1770 0.1428
H39 H 0.1172 0.1508 0.1493
C38 C 0.09907(11) 0.2820(3) 0.11027(11)
C39 C 0.10788(10) 0.4714(3) 0.09791(11)
C40 C 0.10138(11) 0.4732(3) 0.05042(12)
H40 H 0.0952 0.4125 0.0327
C41 C 0.10435(12) 0.5668(3) 0.03073(13)
H41 H 0.1003 0.5708 -0.0011
C42 C 0.11334(12) 0.6557(3) 0.05737(13)
H42 H 0.1151 0.7188 0.0429
C43 C 0.11682(10) 0.5637(3) 0.12216(11)
H43 H 0.1211 0.5617 0.1540
C44 C 0.04370(8) 0.3962(2) 0.19745(10)
C45 C 0.02447(9) 0.4388(3) 0.15399(10)
H44 H 0.0110 0.3942 0.1304
C46 C 0.02470(9) 0.5448(3) 0.14466(10)
C47 C 0.04683(9) 0.6076(3) 0.17953(11)
H45 H 0.0489 0.6783 0.1735
C48 C 0.06623(8) 0.5692(2) 0.22347(10)
C49 C 0.06420(8) 0.4628(2) 0.23296(9)
C50 C 0.00009(10) 0.5911(3) 0.09819(12)
C51 C 0.01995(17) 0.6792(6) 0.08302(19)
H46 H 0.0058 0.7001 0.0521
H47 H 0.0443 0.6561 0.0836
H48 H 0.0224 0.7375 0.1037
C52 C -0.03544(14) 0.6256(6) 0.10355(19)
H49 H -0.0306 0.6771 0.1277
H50 H -0.0479 0.5666 0.1115
H51 H -0.0510 0.6554 0.0749
C53 C -0.0086(2) 0.5099(5) 0.05972(17)
H52 H -0.0194 0.5438 0.0303
H53 H -0.0259 0.4596 0.0643
H54 H 0.0141 0.4751 0.0602
C54 C 0.05753(9) 0.4156(3) 0.30470(10)
H55 H 0.0369 0.3691 0.2895
H56 H 0.0472 0.4836 0.3080
C55 C 0.07886(10) 0.3731(3) 0.35185(11)
C56 C 0.14254(9) 0.3291(2) 0.40115(10)
C57 C 0.13515(10) 0.2935(3) 0.44018(11)
H57 H 0.1107 0.2871 0.4407
C58 C 0.16538(11) 0.2676(3) 0.47856(12)
H58 H 0.1615 0.2446 0.5057
C59 C 0.20082(11) 0.2757(4) 0.47651(13)
H59 H 0.2207 0.2584 0.5027
N2 N 0.20838(8) 0.3075(3) 0.43861(10)
C60 C 0.17299(9) 0.6901(3) 0.22580(11)
H60 H 0.1768 0.6758 0.1963
H61 H 0.1972 0.7008 0.2490
C61 C 0.14907(9) 0.7884(3) 0.22170(10)
C62 C 0.09516(9) 0.8771(2) 0.16573(11)
C63 C 0.07989(11) 0.9043(3) 0.11942(12)
H62 H 0.0913 0.8805 0.0983
C64 C 0.04888(10) 0.9648(3) 0.10393(12)
H63 H 0.0389 0.9825 0.0727
C65 C 0.03316(11) 0.9980(3) 0.13481(16)
H64 H 0.0117 1.0387 0.1241
C66 C 0.07840(10) 0.9168(3) 0.19655(12)
H65 H 0.0889 0.9029 0.2281
N3 N 0.12501(8) 0.8056(2) 0.17861(8)
H66 H 0.1283 0.7687 0.1566
N4 N 0.04657(10) 0.9764(3) 0.18138(13)
N5 N 0.10636(8) 0.3819(2) 0.12411(9)
H67 H 0.1107 0.3926 0.1533
N6 N 0.11972(9) 0.6554(2) 0.10312(10)
N7 N 0.27148(8) 0.3474(2) 0.39659(9)
H68 H 0.2562 0.3317 0.4114
C67 C 0.32478(14) 0.4603(4) 0.39884(19)
H69 H 0.3259 0.4340 0.3708
N8 N 0.11558(7) 0.3601(2) 0.36018(8)
H70 H 0.1236 0.3726 0.3372
C68 C 0.17912(10) 0.3333(3) 0.40215(11)
H71 H 0.1838 0.3558 0.3755
O1 O 0.15443(6) 0.60247(16) 0.23888(6)
O2 O 0.15154(7) 0.8429(2) 0.25540(8)
O3 O 0.11095(6) 0.26152(16) 0.19181(7)
O4 O 0.09183(11) 0.2534(2) 0.07053(9)
O5 O 0.20162(6) 0.31021(16) 0.30899(6)
O6 O 0.28868(8) 0.3008(2) 0.33426(10)
O7 O 0.08176(5) 0.42519(16) 0.27701(6)
O8 O 0.06294(8) 0.3532(3) 0.37954(9)
S1 S 0.23296(2) 0.52803(6) 0.30090(3)
S2 S 0.18014(2) 0.12825(6) 0.23767(3)
S3 S 0.03481(2) 0.26258(7) 0.20586(3)
S4 S 0.08575(2) 0.66522(6) 0.26686(3)
C69 C 0.0000 0.8450(7) 0.2500
O9 O 0.0000 0.9545(4) 0.2500
O10 O 0.0482(4) 0.9056(11) 0.4857(5)
H72 H 0.0703 0.8887 0.4950
C70 C 0.0435(9) 0.9738(18) 0.5070(5)
H73 H 0.0438 1.0381 0.4908
H74 H 0.0629 0.9750 0.5365
H75 H 0.0197 0.9661 0.5118
C71 C 0.0544(12) 0.190(2) 0.4711(9)
H76 H 0.0557 0.1200 0.4834
H77 H 0.0663 0.2375 0.4956
H78 H 0.0668 0.1915 0.4480
O11 O 0.0210(10) 0.215(2) 0.4531(9)
H79 H 0.0200 0.2790 0.4540
H80? H 0.1602 0.7884 0.4210
H81? H -0.0024 0.8200 0.2194
H82? H -0.0206 0.8200 0.2590
H83? H 0.0230 0.8200 0.2716
H84? H 0.0073 0.9759 0.2289
C72? C 0.0740(9) 0.131(3) 0.4960(13)
H85? H 0.0864 0.1711 0.5233
H86? H 0.0868 0.1401 0.4735
H87? H 0.0743 0.0582 0.5041
O12? O 0.0411(12) 0.161(3) 0.479(2)
H88? H 0.0340 0.1968 0.4973
loop_
_geom_bond_atom_site_label_1
_geom_bond_atom_site_label_2
_geom_bond_site_symmetry_1
_geom_bond_site_symmetry_2
C1 C2 1_555 1_555
C2 H1 1_555 1_555
C3 C2 1_555 1_555
C4 C3 1_555 1_555
H2 C4 1_555 1_555
C5 C4 1_555 1_555
C6 C1 1_555 1_555
C7 C3 1_555 1_555
C8 C7 1_555 1_555
H3 C8 1_555 1_555
H4 C8 1_555 1_555
H5 C8 1_555 1_555
C9 C7 1_555 1_555
H6 C9 1_555 1_555
H7 C9 1_555 1_555
C10 C7 1_555 1_555
H8 C10 1_555 1_555
H9 C10 1_555 1_555
H10 C10 1_555 1_555
C11 C12 1_555 1_555
C12 H11 1_555 1_555
C13 C12 1_555 1_555
C14 C13 1_555 1_555
H12 C14 1_555 1_555
C15 C14 1_555 1_555
C16 C11 1_555 1_555
C17 C13 1_555 1_555
C18 C17 1_555 1_555
H13 C18 1_555 1_555
H14 C18 1_555 1_555
H15 C18 1_555 1_555
C19 C17 1_555 1_555
H16 C19 1_555 1_555
H17 C19 1_555 1_555
H18 C19 1_555 1_555
C20 C17 1_555 1_555
H19 C20 1_555 1_555
H20 C20 1_555 1_555
H21 C20 1_555 1_555
C21 H22 1_555 1_555
H23 C21 1_555 1_555
C22 C21 1_555 1_555
C23 C26 1_555 1_555
N1 C24 1_555 1_555
C24 H24 1_555 1_555
C25 C24 1_555 1_555
H25 C25 1_555 1_555
C26 C25 1_555 1_555
H26 C26 1_555 1_555
C27 C28 1_555 1_555
C28 H27 1_555 1_555
C29 C28 1_555 1_555
C30 C29 1_555 1_555
H28 C30 1_555 1_555
C31 C30 1_555 1_555
C32 C27 1_555 1_555
C33 C29 1_555 1_555
C34 C33 1_555 1_555
H29 C34 1_555 1_555
H30 C34 1_555 1_555
H31 C34 1_555 1_555
C35 C33 1_555 1_555
H32 C35 1_555 1_555
H33 C35 1_555 1_555
H34 C35 1_555 1_555
C36 C33 1_555 1_555
H35 C36 1_555 1_555
H36 C36 1_555 1_555
H37 C36 1_555 1_555
C37 H38 1_555 1_555
H39 C37 1_555 1_555
C38 C37 1_555 1_555
C39 C40 1_555 1_555
C40 H40 1_555 1_555
C41 C40 1_555 1_555
H41 C41 1_555 1_555
C42 C41 1_555 1_555
H42 C42 1_555 1_555
C43 C39 1_555 1_555
H43 C43 1_555 1_555
C44 C45 1_555 1_555
C45 H44 1_555 1_555
C46 C45 1_555 1_555
C47 C46 1_555 1_555
H45 C47 1_555 1_555
C48 C47 1_555 1_555
C49 C44 1_555 1_555
C50 C46 1_555 1_555
C51 C50 1_555 1_555
H46 C51 1_555 1_555
H47 C51 1_555 1_555
H48 C51 1_555 1_555
C52 C50 1_555 1_555
H49 C52 1_555 1_555
H50 C52 1_555 1_555
H51 C52 1_555 1_555
C53 C50 1_555 1_555
H52 C53 1_555 1_555
H53 C53 1_555 1_555
H54 C53 1_555 1_555
C54 H55 1_555 1_555
H56 C54 1_555 1_555
C55 C54 1_555 1_555
C56 C57 1_555 1_555
C57 H57 1_555 1_555
C58 C57 1_555 1_555
H58 C58 1_555 1_555
C59 C58 1_555 1_555
H59 C59 1_555 1_555
N2 C59 1_555 1_555
C60 H60 1_555 1_555
H61 C60 1_555 1_555
C61 C60 1_555 1_555
C62 C63 1_555 1_555
C63 H62 1_555 1_555
C64 C63 1_555 1_555
H63 C64 1_555 1_555
C65 C64 1_555 1_555
H64 C65 1_555 1_555
C66 C62 1_555 1_555
H65 C66 1_555 1_555
N3 C61 1_555 1_555
H66 N3 1_555 1_555
N4 C65 1_555 1_555
N5 C38 1_555 1_555
H67 N5 1_555 1_555
N6 C42 1_555 1_555
N7 C22 1_555 1_555
H68 N7 1_555 1_555
C67 C23 1_555 1_555
H69 C67 1_555 1_555
N8 C55 1_555 1_555
H70 N8 1_555 1_555
C68 C56 1_555 1_555
H71 C68 1_555 1_555
O1 C6 1_555 1_555
O2 C61 1_555 1_555
O3 C32 1_555 1_555
O4 C38 1_555 1_555
O5 C16 1_555 1_555
O6 C22 1_555 1_555
O7 C49 1_555 1_555
O8 C55 1_555 1_555
S1 C1 1_555 1_555
S2 C15 1_555 1_555
S3 C31 1_555 1_555
S4 C5 1_555 1_555
C69 O9 1_555 1_555
O10 H72 1_555 1_555
C70 O10 1_555 1_555
H73 C70 1_555 1_555
H74 C70 1_555 1_555
H75 C70 1_555 1_555
C71 H76 1_555 1_555
H77 C71 1_555 1_555
H78 C71 1_555 1_555
O11 C71 1_555 1_555
H79 O11 1_555 1_555
C5 C6 1_555 1_555
C11 S1 1_555 1_555
C15 C16 1_555 1_555
C21 O5 1_555 1_555
C23 N7 1_555 1_555
N1 C67 1_555 1_555
C27 S2 1_555 1_555
C31 C32 1_555 1_555
C37 O3 1_555 1_555
C39 N5 1_555 1_555
C43 N6 1_555 1_555
C44 S3 1_555 1_555
C48 C49 1_555 1_555
C48 S4 1_555 1_555
C54 O7 1_555 1_555
C56 N8 1_555 1_555
N2 C68 1_555 1_555
C60 O1 1_555 1_555
C62 N3 1_555 1_555
C66 N4 1_555 1_555

#END
