
#######################################################################
#
#                 Cambridge Crystallographic Data Centre
#                                CCDC 
#
#######################################################################
#
# If this CIF has been generated from an entry in the Cambridge 
# Structural Database, then it will include bibliographic, chemical, 
# crystal, experimental, refinement or atomic coordinate data resulting 
# from the CCDC's data processing and validation procedures.
#
#######################################################################

data_SOBLIG
_chemical_formula_moiety         'C31 H41 N1 O8 S1'
_chemical_name_systematic        
3a,11a-Dihydroxy-9,15a-dimethyl-1-(5-oxo-2,5-dihydrofuran-3-yl)-1,2,3,3a,3b,4,5,5a,6,6a,7a,9,10,11a,12a,13,13b,14,15,15a-icosahydro-5'H,13aH-spiro[cyclopenta[7,8]phenanthro[2,3-b]pyrano[3,2-e][1,4]dioxine-11,2'-[1,3]thiazole]-13a-carbaldehyde
_symmetry_cell_setting           orthorhombic
_symmetry_space_group_name_H-M   'P 21 21 21'
_symmetry_Int_Tables_number      19
_space_group_name_Hall           'P 2ac 2ab'
loop_
_symmetry_equiv_pos_site_id
_symmetry_equiv_pos_as_xyz
1 x,y,z
2 1/2-x,-y,1/2+z
3 -x,1/2+y,1/2-z
4 1/2+x,1/2-y,-z
_cell_length_a                   12.5169(4)
_cell_length_b                   12.7791(3)
_cell_length_c                   18.3728(5)
_cell_angle_alpha                90
_cell_angle_beta                 90
_cell_angle_gamma                90
_cell_volume                     2938.82
_exptl_crystal_colour            colorless
_exptl_crystal_description       block
_cell_formula_units_Z            4
loop_
_atom_site_label
_atom_site_type_symbol
_atom_site_fract_x
_atom_site_fract_y
_atom_site_fract_z
S1 S 0.25561(5) 0.43483(4) -0.02437(3)
N1 N 0.07608(14) 0.32328(13) -0.00291(9)
O1 O 0.19298(11) 0.17359(10) 0.18909(7)
O2 O 0.32266(10) 0.30045(10) 0.10019(7)
O3 O 0.45550(14) 0.42016(10) 0.29672(8)
O4 O 0.83795(10) 0.13448(10) 0.39416(7)
H1 H 0.8082 0.1656 0.4275
O5 O 1.20566(12) 0.34745(11) 0.39378(8)
O6 O 1.22519(13) 0.24773(12) 0.49285(8)
O7 O 0.20108(12) 0.11014(10) 0.07440(7)
O8 O 0.16093(11) 0.37852(10) 0.13124(7)
H2 H 0.1741 0.4356 0.1129
C1 C 0.47245(15) 0.28102(14) 0.18051(10)
H3 H 0.4974 0.3512 0.1697
H4 H 0.5032 0.2339 0.1448
C2 C 0.35207(15) 0.27790(14) 0.17440(9)
H5 H 0.3217 0.3318 0.2062
C3 C 0.30774(15) 0.17265(14) 0.19641(10)
H6 H 0.3371 0.1190 0.1640
C4 C 0.33868(15) 0.14683(14) 0.27388(10)
H7 H 0.3085 0.0799 0.2879
H8 H 0.3115 0.2000 0.3067
C5 C 0.46040(15) 0.14246(14) 0.27822(10)
H9 H 0.4831 0.0928 0.2406
C6 C 0.50259(15) 0.09919(14) 0.35013(10)
H10 H 0.4844 0.1467 0.3894
H11 H 0.4694 0.0321 0.3601
C7 C 0.62313(16) 0.08598(14) 0.34643(11)
H12 H 0.6406 0.0343 0.3096
H13 H 0.6490 0.0603 0.3929
C8 C 0.67950(15) 0.18936(14) 0.32813(10)
H14 H 0.6641 0.2382 0.3679
C9 C 0.63567(15) 0.23877(14) 0.25769(10)
H15 H 0.6546 0.1914 0.2177
C10 C 0.51103(15) 0.24930(13) 0.25729(9)
C11 C 0.69320(16) 0.34260(14) 0.24313(11)
H16 H 0.6668 0.3727 0.1981
H17 H 0.6776 0.3913 0.2822
C12 C 0.81341(16) 0.32725(15) 0.23758(10)
H18 H 0.8469 0.3945 0.2288
H19 H 0.8287 0.2827 0.1961
C13 C 0.86306(15) 0.27784(14) 0.30659(10)
C14 C 0.80112(16) 0.17577(14) 0.32514(10)
C15 C 0.84360(15) 0.09833(14) 0.26889(10)
H20 H 0.8283 0.0268 0.2832
H21 H 0.8124 0.1113 0.2214
C16 C 0.96354(17) 0.11874(15) 0.26809(11)
H22 H 0.9933 0.1021 0.2207
H23 H 0.9991 0.0763 0.3045
C17 C 0.97808(16) 0.23731(15) 0.28528(10)
H24 H 0.9993 0.2725 0.2401
C18 C 0.86184(16) 0.35796(15) 0.36875(11)
H25 H 0.7896 0.3790 0.3783
H26 H 0.9033 0.4180 0.3551
H27 H 0.8918 0.3270 0.4117
C19 C 0.47974(15) 0.33249(14) 0.31178(10)
H28 H 0.4794 0.3139 0.3607
C20 C 1.06247(16) 0.25837(14) 0.34099(10)
C21 C 1.13398(17) 0.35101(15) 0.33250(11)
H29 H 1.1734 0.3469 0.2872
H30 H 1.0928 0.4153 0.3329
C22 C 1.09010(16) 0.20922(15) 0.40184(11)
H31 H 1.0581 0.1487 0.4197
C23 C 1.17833(18) 0.26475(15) 0.43638(11)
C24 C 0.16324(17) 0.19483(15) 0.11665(10)
H32 H 0.0852 0.1979 0.1133
C25 C 0.21061(15) 0.29952(14) 0.09063(10)
C26 C 0.19085(16) 0.31360(14) 0.00813(10)
C27 C 0.23137(17) 0.21748(14) -0.03249(10)
H33 H 0.2143 0.2241 -0.0838
H34 H 0.3084 0.2133 -0.0279
C28 C 0.18137(18) 0.11793(15) -0.00272(10)
H35 H 0.1042 0.1190 -0.0116
C29 C 0.2290(2) 0.02034(15) -0.03585(12)
H36 H 0.1943 -0.0402 -0.0159
H37 H 0.3040 0.0175 -0.0250
H38 H 0.2190 0.0217 -0.0876
C30 C 0.1289(2) 0.49091(16) -0.05019(14)
H39 H 0.1152 0.5549 -0.0233
H40 H 0.1272 0.5062 -0.1019
C31 C 0.04921(18) 0.40906(16) -0.03131(12)
H41 H -0.0227 0.4215 -0.0408
loop_
_geom_bond_atom_site_label_1
_geom_bond_atom_site_label_2
_geom_bond_site_symmetry_1
_geom_bond_site_symmetry_2
S1 C26 1_555 1_555
N1 C26 1_555 1_555
O1 C3 1_555 1_555
O2 C2 1_555 1_555
O3 C19 1_555 1_555
O4 H1 1_555 1_555
O5 C21 1_555 1_555
O6 C23 1_555 1_555
O7 C24 1_555 1_555
O8 H2 1_555 1_555
C1 H3 1_555 1_555
H4 C1 1_555 1_555
C2 C1 1_555 1_555
H5 C2 1_555 1_555
C3 C2 1_555 1_555
H6 C3 1_555 1_555
C4 C3 1_555 1_555
H7 C4 1_555 1_555
H8 C4 1_555 1_555
C5 C4 1_555 1_555
H9 C5 1_555 1_555
C6 C5 1_555 1_555
H10 C6 1_555 1_555
H11 C6 1_555 1_555
C7 C6 1_555 1_555
H12 C7 1_555 1_555
H13 C7 1_555 1_555
C8 C7 1_555 1_555
H14 C8 1_555 1_555
C9 C8 1_555 1_555
H15 C9 1_555 1_555
C10 C1 1_555 1_555
C11 C9 1_555 1_555
H16 C11 1_555 1_555
H17 C11 1_555 1_555
C12 C11 1_555 1_555
H18 C12 1_555 1_555
H19 C12 1_555 1_555
C13 C12 1_555 1_555
C14 O4 1_555 1_555
C15 C14 1_555 1_555
H20 C15 1_555 1_555
H21 C15 1_555 1_555
C16 C15 1_555 1_555
H22 C16 1_555 1_555
H23 C16 1_555 1_555
C17 C13 1_555 1_555
H24 C17 1_555 1_555
C18 C13 1_555 1_555
H25 C18 1_555 1_555
H26 C18 1_555 1_555
H27 C18 1_555 1_555
C19 C10 1_555 1_555
H28 C19 1_555 1_555
C20 C17 1_555 1_555
C21 C20 1_555 1_555
H29 C21 1_555 1_555
H30 C21 1_555 1_555
C22 C20 1_555 1_555
H31 C22 1_555 1_555
C23 O5 1_555 1_555
C24 O1 1_555 1_555
H32 C24 1_555 1_555
C25 O2 1_555 1_555
C26 C25 1_555 1_555
C27 C26 1_555 1_555
H33 C27 1_555 1_555
H34 C27 1_555 1_555
C28 O7 1_555 1_555
H35 C28 1_555 1_555
C29 C28 1_555 1_555
H36 C29 1_555 1_555
H37 C29 1_555 1_555
H38 C29 1_555 1_555
C30 S1 1_555 1_555
H39 C30 1_555 1_555
H40 C30 1_555 1_555
C31 N1 1_555 1_555
H41 C31 1_555 1_555
O8 C25 1_555 1_555
C5 C10 1_555 1_555
C8 C14 1_555 1_555
C9 C10 1_555 1_555
C13 C14 1_555 1_555
C16 C17 1_555 1_555
C22 C23 1_555 1_555
C24 C25 1_555 1_555
C27 C28 1_555 1_555
C30 C31 1_555 1_555

#END
