
#######################################################################
#
#                 Cambridge Crystallographic Data Centre
#                                CCDC 
#
#######################################################################
#
# If this CIF has been generated from an entry in the Cambridge 
# Structural Database, then it will include bibliographic, chemical, 
# crystal, experimental, refinement or atomic coordinate data resulting 
# from the CCDC's data processing and validation procedures.
#
#######################################################################

data_SOBMAY
_chemical_name_common            Thieno[3,2-e][1]benzothiophene-4,5-dione
_chemical_formula_moiety         'C10 H4 O2 S2'
_chemical_name_systematic        Benzo(1,2-b;4,3-b')dithiophene-4,5-dione
_chemical_properties_biological  'potent and selective inhibitor of hCE1'
_symmetry_cell_setting           monoclinic
_symmetry_space_group_name_H-M   'P 21/c'
_symmetry_Int_Tables_number      14
_space_group_name_Hall           '-P 2ybc'
loop_
_symmetry_equiv_pos_site_id
_symmetry_equiv_pos_as_xyz
1 x,y,z
2 -x,1/2+y,1/2-z
3 -x,-y,-z
4 x,1/2-y,1/2+z
_cell_length_a                   8.9600(2)
_cell_length_b                   14.8156(3)
_cell_length_c                   6.7569(2)
_cell_angle_alpha                90
_cell_angle_beta                 102.962(2)
_cell_angle_gamma                90
_cell_volume                     874.108
_exptl_crystal_colour            red
_exptl_crystal_description       needle
_chemical_melting_point          241deg.C
_cell_formula_units_Z            4
loop_
_atom_site_label
_atom_site_type_symbol
_atom_site_fract_x
_atom_site_fract_y
_atom_site_fract_z
S1 S 0.46050(5) 0.11559(3) 0.58582(6)
S2 S 0.99347(5) 0.39500(3) 0.73182(7)
C1 C 0.71499(15) 0.33682(9) 0.65671(19)
C2 C 0.62358(15) 0.17981(9) 0.6310(2)
C3 C 0.86563(16) 0.30712(9) 0.6958(2)
O1 O 0.80778(13) 0.06290(7) 0.68273(18)
C4 C 0.59071(15) 0.27117(9) 0.6236(2)
C5 C 0.91029(16) 0.21303(10) 0.7096(2)
C6 C 0.70669(19) 0.43191(10) 0.6574(2)
C7 C 0.77747(17) 0.14322(10) 0.6732(2)
O2 O 1.04234(12) 0.18648(8) 0.74821(18)
C8 C 0.43163(18) 0.28769(12) 0.5821(2)
C9 C 0.8486(2) 0.47128(11) 0.6960(2)
C10 C 0.34931(19) 0.20965(12) 0.5595(2)
H1 H 0.3877(18) 0.3394(12) 0.578(2)
H2 H 0.6180(19) 0.4664(12) 0.643(2)
H3 H 0.241(2) 0.2041(12) 0.527(3)
H4 H 0.876(3) 0.5338(15) 0.701(3)
loop_
_geom_bond_atom_site_label_1
_geom_bond_atom_site_label_2
_geom_bond_site_symmetry_1
_geom_bond_site_symmetry_2
S1 C2 1_555 1_555
S2 C3 1_555 1_555
C1 C3 1_555 1_555
C2 C4 1_555 1_555
C3 C5 1_555 1_555
O1 C7 1_555 1_555
C4 C1 1_555 1_555
C5 C7 1_555 1_555
C6 C1 1_555 1_555
C7 C2 1_555 1_555
O2 C5 1_555 1_555
C8 C4 1_555 1_555
C9 S2 1_555 1_555
C10 S1 1_555 1_555
H1 C8 1_555 1_555
H2 C6 1_555 1_555
H3 C10 1_555 1_555
H4 C9 1_555 1_555
C6 C9 1_555 1_555
C8 C10 1_555 1_555

#END
