
#######################################################################
#
#                 Cambridge Crystallographic Data Centre
#                                CCDC 
#
#######################################################################
#
# If this CIF has been generated from an entry in the Cambridge 
# Structural Database, then it will include bibliographic, chemical, 
# crystal, experimental, refinement or atomic coordinate data resulting 
# from the CCDC's data processing and validation procedures.
#
#######################################################################

data_SOBMUS
_chemical_formula_moiety         'C41 H40 N2 O1'
_chemical_name_systematic        
(S,R)-2-(((2-Dimethylamino-5-methylphenyl)(naphthalen-1-yl)methyl)amino)-1,1,3-triphenylpropan-1-ol
_symmetry_cell_setting           monoclinic
_symmetry_space_group_name_H-M   'P 21'
_symmetry_Int_Tables_number      4
_space_group_name_Hall           'P 2yb'
loop_
_symmetry_equiv_pos_site_id
_symmetry_equiv_pos_as_xyz
1 x,y,z
2 -x,1/2+y,-z
_cell_length_a                   9.3472(15)
_cell_length_b                   10.1789(16)
_cell_length_c                   17.257(3)
_cell_angle_alpha                90
_cell_angle_beta                 91.734(3)
_cell_angle_gamma                90
_cell_volume                     1641.15
_chemical_melting_point          193-194deg.C
_cell_formula_units_Z            2
loop_
_atom_site_label
_atom_site_type_symbol
_atom_site_fract_x
_atom_site_fract_y
_atom_site_fract_z
O1 O 0.2135(2) -0.1661(2) 0.27987(11)
H1 H 0.212(4) -0.095(4) 0.316(2)
N1 N 0.2078(3) -0.0014(2) 0.41965(15)
N2 N 0.2002(2) 0.1001(3) 0.24659(14)
H2 H 0.270(3) 0.144(3) 0.2450(18)
C1 C 0.1505(3) 0.2161(3) 0.36398(15)
C2 C 0.2115(3) 0.1416(3) 0.42407(17)
C3 C 0.2752(3) 0.2054(4) 0.48754(18)
H3 H 0.3132 0.1558 0.5285
C4 C 0.2833(3) 0.3407(4) 0.49095(19)
H4 H 0.3263 0.3808 0.5341
C5 C 0.2283(3) 0.4170(3) 0.43106(18)
C6 C 0.1612(3) 0.3527(3) 0.36874(17)
H5 H 0.1217 0.4030 0.3285
C7 C 0.2427(5) 0.5644(4) 0.4320(2)
H6 H 0.2704 0.5945 0.3820
H7 H 0.3143 0.5893 0.4703
H8 H 0.1527 0.6032 0.4446
C8 C 0.0827(3) 0.1504(3) 0.29167(15)
H9 H 0.0267 0.0751 0.3089
C9 C -0.0194(3) 0.2437(3) 0.24825(15)
C10 C -0.1599(3) 0.2677(3) 0.27698(16)
C11 C -0.2176(3) 0.2002(4) 0.34002(17)
H10 H -0.1625 0.1366 0.3656
C12 C -0.3516(4) 0.2254(4) 0.3644(2)
H11 H -0.3868 0.1781 0.4058
C13 C -0.4376(4) 0.3214(5) 0.3285(2)
H12 H -0.5290 0.3381 0.3459
C14 C -0.3863(4) 0.3898(4) 0.2679(2)
H13 H -0.4432 0.4540 0.2442
C15 C -0.2470(3) 0.3655(3) 0.24003(18)
C16 C -0.1938(4) 0.4359(4) 0.1765(2)
H14 H -0.2497 0.5012 0.1532
C17 C -0.0623(4) 0.4098(3) 0.14914(19)
H15 H -0.0296 0.4554 0.1065
C18 C 0.0246(3) 0.3134(3) 0.18553(16)
H16 H 0.1146 0.2965 0.1663
C19 C 0.1799(3) 0.0055(3) 0.18290(16)
H17 H 0.1088 0.0401 0.1453
C20 C 0.3255(3) -0.0045(3) 0.14440(18)
H18 H 0.3999 -0.0081 0.1848
H19 H 0.3286 -0.0865 0.1159
C21 C 0.3597(3) 0.1063(3) 0.08986(17)
C22 C 0.4703(3) 0.1934(4) 0.1045(2)
H20 H 0.5232 0.1881 0.1510
C23 C 0.5032(4) 0.2886(4) 0.0506(3)
H21 H 0.5792 0.3455 0.0609
C24 C 0.4260(4) 0.3003(4) -0.0172(3)
H22 H 0.4485 0.3652 -0.0527
C25 C 0.3156(4) 0.2162(4) -0.0326(2)
H23 H 0.2623 0.2242 -0.0788
C26 C 0.2820(4) 0.1188(3) 0.01983(18)
H24 H 0.2070 0.0613 0.0083
C27 C 0.1286(3) -0.1326(3) 0.21262(15)
C28 C 0.1536(3) -0.2378(3) 0.15081(16)
C29 C 0.0848(3) -0.2298(3) 0.07855(16)
H25 H 0.0183 -0.1634 0.0689
C30 C 0.1136(4) -0.3188(4) 0.0209(2)
H26 H 0.0670 -0.3115 -0.0273
C31 C 0.2110(4) -0.4185(4) 0.0342(2)
H27 H 0.2313 -0.4777 -0.0050
C32 C 0.2775(4) -0.4296(4) 0.1055(2)
H28 H 0.3415 -0.4981 0.1150
C33 C 0.2506(3) -0.3395(3) 0.1643(2)
H29 H 0.2974 -0.3475 0.2124
C34 C -0.0323(3) -0.1395(3) 0.23121(16)
C35 C -0.0774(4) -0.2389(4) 0.28022(18)
H30 H -0.0102 -0.2948 0.3035
C36 C -0.2216(5) -0.2556(5) 0.2948(2)
H31 H -0.2497 -0.3232 0.3272
C37 C -0.3238(5) -0.1729(5) 0.2618(3)
H32 H -0.4202 -0.1831 0.2723
C38 C -0.2794(4) -0.0756(4) 0.2132(2)
H33 H -0.3469 -0.0196 0.1902
C39 C -0.1363(3) -0.0590(3) 0.19778(19)
H34 H -0.1094 0.0076 0.1643
C40 C 0.0916(4) -0.0564(4) 0.4649(2)
H35 H 0.1125 -0.0432 0.5192
H36 H 0.0830 -0.1488 0.4545
H37 H 0.0033 -0.0133 0.4507
C41 C 0.3457(4) -0.0624(4) 0.4406(2)
H38 H 0.4202 -0.0202 0.4127
H39 H 0.3426 -0.1540 0.4275
H40 H 0.3646 -0.0529 0.4953
loop_
_geom_bond_atom_site_label_1
_geom_bond_atom_site_label_2
_geom_bond_site_symmetry_1
_geom_bond_site_symmetry_2
O1 H1 1_555 1_555
N1 C2 1_555 1_555
N2 H2 1_555 1_555
C1 C2 1_555 1_555
C2 C3 1_555 1_555
C3 H3 1_555 1_555
C4 C3 1_555 1_555
H4 C4 1_555 1_555
C5 C4 1_555 1_555
C6 C1 1_555 1_555
H5 C6 1_555 1_555
C7 C5 1_555 1_555
H6 C7 1_555 1_555
H7 C7 1_555 1_555
H8 C7 1_555 1_555
C8 N2 1_555 1_555
H9 C8 1_555 1_555
C9 C8 1_555 1_555
C10 C9 1_555 1_555
C11 C10 1_555 1_555
H10 C11 1_555 1_555
C12 C11 1_555 1_555
H11 C12 1_555 1_555
C13 C12 1_555 1_555
H12 C13 1_555 1_555
C14 C13 1_555 1_555
H13 C14 1_555 1_555
C15 C10 1_555 1_555
C16 C15 1_555 1_555
H14 C16 1_555 1_555
C17 C16 1_555 1_555
H15 C17 1_555 1_555
C18 C9 1_555 1_555
H16 C18 1_555 1_555
C19 N2 1_555 1_555
H17 C19 1_555 1_555
C20 C19 1_555 1_555
H18 C20 1_555 1_555
H19 C20 1_555 1_555
C21 C20 1_555 1_555
C22 C21 1_555 1_555
H20 C22 1_555 1_555
C23 C22 1_555 1_555
H21 C23 1_555 1_555
C24 C23 1_555 1_555
H22 C24 1_555 1_555
C25 C24 1_555 1_555
H23 C25 1_555 1_555
C26 C21 1_555 1_555
H24 C26 1_555 1_555
C27 O1 1_555 1_555
C28 C27 1_555 1_555
C29 C28 1_555 1_555
H25 C29 1_555 1_555
C30 C29 1_555 1_555
H26 C30 1_555 1_555
C31 C30 1_555 1_555
H27 C31 1_555 1_555
C32 C31 1_555 1_555
H28 C32 1_555 1_555
C33 C28 1_555 1_555
H29 C33 1_555 1_555
C34 C27 1_555 1_555
C35 C34 1_555 1_555
H30 C35 1_555 1_555
C36 C35 1_555 1_555
H31 C36 1_555 1_555
C37 C36 1_555 1_555
H32 C37 1_555 1_555
C38 C37 1_555 1_555
H33 C38 1_555 1_555
C39 C34 1_555 1_555
H34 C39 1_555 1_555
C40 N1 1_555 1_555
H35 C40 1_555 1_555
H36 C40 1_555 1_555
H37 C40 1_555 1_555
C41 N1 1_555 1_555
H38 C41 1_555 1_555
H39 C41 1_555 1_555
H40 C41 1_555 1_555
C1 C8 1_555 1_555
C5 C6 1_555 1_555
C14 C15 1_555 1_555
C17 C18 1_555 1_555
C19 C27 1_555 1_555
C25 C26 1_555 1_555
C32 C33 1_555 1_555
C38 C39 1_555 1_555

#END
