
#######################################################################
#
#                 Cambridge Crystallographic Data Centre
#                                CCDC 
#
#######################################################################
#
# If this CIF has been generated from an entry in the Cambridge 
# Structural Database, then it will include bibliographic, chemical, 
# crystal, experimental, refinement or atomic coordinate data resulting 
# from the CCDC's data processing and validation procedures.
#
#######################################################################

data_SOBVEN
_chemical_formula_moiety         'C32 H23 Br1 Cl1 N1 O3'
_chemical_name_systematic        
4-[1-(3-bromophenyl)-3-(4-hydroxyphenyl)-3-phenylpropadienyl]-2-(4-chlorophenyl)-4-ethyl-1,3-oxazol-5(4H)-one
_symmetry_cell_setting           trigonal
_symmetry_space_group_name_H-M   'P 32 2 1'
_symmetry_Int_Tables_number      154
_space_group_name_Hall           'P 32 2"'
loop_
_symmetry_equiv_pos_site_id
_symmetry_equiv_pos_as_xyz
1 x,y,z
2 -y,x-y,2/3+z
3 -x+y,-x,1/3+z
4 y,x,-z
5 -x,-x+y,2/3-z
6 x-y,-y,1/3-z
_cell_length_a                   10.1477(8)
_cell_length_b                   10.1477(8)
_cell_length_c                   44.984(3)
_cell_angle_alpha                90
_cell_angle_beta                 90
_cell_angle_gamma                120
_cell_volume                     4011.66
_exptl_crystal_colour            colorless
_exptl_crystal_description       block
_cell_formula_units_Z            6
loop_
_atom_site_label
_atom_site_type_symbol
_atom_site_fract_x
_atom_site_fract_y
_atom_site_fract_z
Br1 Br 0.88870(11) 0.81935(11) 0.19492(2)
Cl1 Cl 0.2116(2) -0.27784(18) 0.14428(4)
O1 O 1.2873(5) 1.4472(5) 0.05917(11)
H1 H 1.351793 1.420256 0.062617
O2 O 0.7408(5) 0.4162(5) 0.09803(9)
O3 O 0.9345(5) 0.6446(5) 0.08359(11)
N1 N 0.5359(6) 0.4151(6) 0.07728(10)
C1 C 1.1460(7) 1.3222(7) 0.05789(13)
C2 C 1.0217(7) 1.3409(6) 0.06394(13)
H2 H 1.037593 1.438872 0.068816
C3 C 0.8758(7) 1.2182(7) 0.06290(12)
H3 H 0.791850 1.233092 0.066520
C4 C 0.8497(7) 1.0715(7) 0.05656(12)
C5 C 0.6915(7) 0.9359(6) 0.05817(12)
C6 C 0.6541(6) 0.6911(7) 0.08551(12)
C7 C 0.6692(7) 0.5653(7) 0.06990(12)
C8 C 0.5862(7) 0.3431(7) 0.09277(13)
C9 C 0.4964(7) 0.1897(7) 0.10529(13)
C10 C 0.3383(8) 0.1167(8) 0.10430(15)
H4 H 0.289954 0.166276 0.095355
C11 C 0.2519(8) -0.0257(8) 0.11608(16)
H5 H 0.143994 -0.074949 0.115356
C12 C 0.3230(8) -0.0978(7) 0.12911(13)
C13 C 0.8022(7) 0.5572(7) 0.08396(13)
C14 C 0.6892(8) 0.5857(7) 0.03613(12)
H6 H 0.601853 0.590937 0.027718
H7 H 0.782567 0.683542 0.031847
C15 C 0.7006(9) 0.4584(7) 0.02084(14)
H8 H 0.790801 0.456697 0.028089
H9 H 0.708950 0.475574 -0.000684
H10 H 0.609383 0.360792 0.025244
C16 C 0.5608(7) 0.9439(7) 0.04533(13)
C17 C 0.4122(7) 0.8424(7) 0.05496(12)
H11 H 0.395888 0.770407 0.070080
C18 C 0.2888(8) 0.8461(8) 0.04258(15)
H12 H 0.188875 0.778014 0.049535
C19 C 0.3108(8) 0.9498(8) 0.01989(15)
H13 H 0.226328 0.951173 0.011135
C20 C 0.4564(9) 1.0494(8) 0.01048(15)
H14 H 0.472305 1.120769 -0.004747
C21 C 0.5800(8) 1.0471(7) 0.02290(13)
H15 H 0.679570 1.116890 0.016043
C22 C 1.1218(8) 1.1790(8) 0.05018(14)
H16 H 1.205573 1.166186 0.045099
C23 C 0.9741(8) 1.0538(7) 0.04991(14)
H17 H 0.958426 0.955748 0.045143
C24 C 0.6238(7) 0.6728(7) 0.11850(12)
C25 C 0.4783(8) 0.5844(7) 0.12962(13)
H18 H 0.394547 0.536337 0.116328
C26 C 0.4533(8) 0.5651(8) 0.16037(14)
H19 H 0.352968 0.503397 0.167777
C27 C 0.5747(8) 0.6358(7) 0.18008(13)
H20 H 0.558772 0.623128 0.200939
C28 C 0.7185(8) 0.7244(7) 0.16859(13)
C29 C 0.7458(7) 0.7442(7) 0.13809(13)
H21 H 0.846440 0.805580 0.130778
C30 C 0.5661(7) 0.1146(7) 0.11793(12)
H22 H 0.673972 0.163191 0.118383
C31 C 0.6731(6) 0.8114(7) 0.07128(12)
C32 C 0.4801(8) -0.0301(7) 0.12985(13)
H23 H 0.527795 -0.081533 0.138296
loop_
_geom_bond_atom_site_label_1
_geom_bond_atom_site_label_2
_geom_bond_site_symmetry_1
_geom_bond_site_symmetry_2
Br1 C28 1_555 1_555
Cl1 C12 1_555 1_555
O1 H1 1_555 1_555
O2 C8 1_555 1_555
O3 C13 1_555 1_555
N1 C7 1_555 1_555
C1 O1 1_555 1_555
C2 C1 1_555 1_555
H2 C2 1_555 1_555
C3 C2 1_555 1_555
H3 C3 1_555 1_555
C4 C3 1_555 1_555
C5 C4 1_555 1_555
C6 C7 1_555 1_555
C7 C13 1_555 1_555
C8 N1 1_555 1_555
C9 C8 1_555 1_555
C10 C9 1_555 1_555
H4 C10 1_555 1_555
C11 C10 1_555 1_555
H5 C11 1_555 1_555
C12 C11 1_555 1_555
C13 O2 1_555 1_555
C14 C7 1_555 1_555
H6 C14 1_555 1_555
H7 C14 1_555 1_555
C15 C14 1_555 1_555
H8 C15 1_555 1_555
H9 C15 1_555 1_555
H10 C15 1_555 1_555
C16 C5 1_555 1_555
C17 C16 1_555 1_555
H11 C17 1_555 1_555
C18 C17 1_555 1_555
H12 C18 1_555 1_555
C19 C18 1_555 1_555
H13 C19 1_555 1_555
C20 C19 1_555 1_555
H14 C20 1_555 1_555
C21 C16 1_555 1_555
H15 C21 1_555 1_555
C22 C1 1_555 1_555
H16 C22 1_555 1_555
C23 C4 1_555 1_555
H17 C23 1_555 1_555
C24 C6 1_555 1_555
C25 C24 1_555 1_555
H18 C25 1_555 1_555
C26 C25 1_555 1_555
H19 C26 1_555 1_555
C27 C26 1_555 1_555
H20 C27 1_555 1_555
C28 C27 1_555 1_555
C29 C24 1_555 1_555
H21 C29 1_555 1_555
C30 C9 1_555 1_555
H22 C30 1_555 1_555
C31 C5 1_555 1_555
C32 C12 1_555 1_555
H23 C32 1_555 1_555
C6 C31 1_555 1_555
C20 C21 1_555 1_555
C22 C23 1_555 1_555
C28 C29 1_555 1_555
C30 C32 1_555 1_555

#END
