
#######################################################################
#
#                 Cambridge Crystallographic Data Centre
#                                CCDC 
#
#######################################################################
#
# If this CIF has been generated from an entry in the Cambridge 
# Structural Database, then it will include bibliographic, chemical, 
# crystal, experimental, refinement or atomic coordinate data resulting 
# from the CCDC's data processing and validation procedures.
#
#######################################################################

data_SOBVOX
_chemical_formula_moiety         'C28 H23 N1 O7'
_chemical_name_systematic        
"methyl 9-(4-methoxyphenyl)-1'-methyl-2'-oxo-1',2'-dihydro-2H,9H-spiro[1,3-dioxolo[4,5-h][1]benzoxepine-8,3'-indole]-7-carboxylate"
_symmetry_cell_setting           monoclinic
_symmetry_space_group_name_H-M   'P 21/c'
_symmetry_Int_Tables_number      14
_space_group_name_Hall           '-P 2ybc'
loop_
_symmetry_equiv_pos_site_id
_symmetry_equiv_pos_as_xyz
1 x,y,z
2 -x,1/2+y,1/2-z
3 -x,-y,-z
4 x,1/2-y,1/2+z
_cell_length_a                   10.4860(8)
_cell_length_b                   23.436(2)
_cell_length_c                   10.9650(9)
_cell_angle_alpha                90
_cell_angle_beta                 117.144(3)
_cell_angle_gamma                90
_cell_volume                     2397.87
_cell_formula_units_Z            4
loop_
_atom_site_label
_atom_site_type_symbol
_atom_site_fract_x
_atom_site_fract_y
_atom_site_fract_z
N1 N 0.6687(2) 0.10295(9) 0.2026(2)
O1 O 0.62250(19) 0.08338(7) 0.6338(2)
O2 O 0.54985(19) 0.09006(8) 0.4089(2)
O3 O 1.03408(19) 0.10399(7) 0.75130(16)
O4 O 0.75402(17) 0.02044(7) 0.32813(18)
O5 O 1.29784(17) 0.28152(7) 0.64317(18)
O6 O 1.32623(18) 0.27145(8) 0.86370(18)
O7 O 1.1287(2) 0.08089(8) 0.03991(19)
C1 C 0.6440(3) 0.09164(10) 0.5240(3)
C2 C 0.8910(3) 0.09712(9) 0.6894(3)
H1 H 0.8523 0.0874 0.7478
C3 C 0.7955(3) 0.10204(9) 0.5575(3)
C4 C 0.8247(2) 0.11473(9) 0.4382(2)
C5 C 0.9885(2) 0.10753(9) 0.4781(2)
H2 H 1.0170 0.0711 0.5273
C6 C 1.0781(2) 0.15233(9) 0.5806(2)
C7 C 1.1470(2) 0.19701(10) 0.5492(2)
H3 H 1.1394 0.2013 0.4618
C8 C 1.2255(2) 0.23384(10) 0.6521(3)
C9 C 1.2423(3) 0.22858(11) 0.7817(3)
C10 C 1.1785(3) 0.18575(11) 0.8174(3)
H4 H 1.1890 0.1816 0.9059
C11 C 1.0964(3) 0.14880(10) 0.7119(3)
C12 C 0.7449(3) 0.07214(11) 0.3198(3)
C13 C 0.6759(3) 0.16116(11) 0.2300(3)
C14 C 0.7638(2) 0.17102(10) 0.3675(3)
C15 C 0.7851(2) 0.22575(10) 0.4181(3)
H5 H 0.8417 0.2328 0.5110
C16 C 0.7196(3) 0.27060(11) 0.3263(3)
H6 H 0.7330 0.3080 0.3580
C17 C 0.6357(3) 0.25949(13) 0.1902(3)
H7 H 0.5937 0.2898 0.1305
C18 C 0.6117(3) 0.20481(12) 0.1389(3)
H8 H 0.5543 0.1977 0.0462
C19 C 1.0219(2) 0.10153(10) 0.3577(2)
C20 C 1.0991(2) 0.05476(10) 0.3545(2)
H9 H 1.1259 0.0277 0.4238
C21 C 1.1381(3) 0.04674(10) 0.2512(3)
H10 H 1.1923 0.0151 0.2529
C22 C 1.0974(3) 0.08508(11) 0.1469(3)
C23 C 1.0209(2) 0.13261(10) 0.1482(3)
H11 H 0.9936 0.1592 0.0778
C24 C 0.9846(2) 0.14107(10) 0.2521(2)
H12 H 0.9342 0.1737 0.2521
C25 C 1.3704(3) 0.30314(11) 0.7792(3)
H13 H 1.4732 0.2996 0.8132
H14 H 1.3476 0.3432 0.7804
C26 C 0.4758(3) 0.07264(12) 0.6065(3)
H15 H 0.4182 0.1056 0.5638
H16 H 0.4728 0.0648 0.6911
H17 H 0.4392 0.0404 0.5465
C27 C 0.5889(3) 0.07715(11) 0.0696(3)
H18 H 0.5958 0.0364 0.0784
H19 H 0.6274 0.0895 0.0097
H20 H 0.4901 0.0884 0.0322
C28 C 1.2082(3) 0.03281(12) 0.0346(3)
H21 H 1.2994 0.0322 0.1148
H22 H 1.2226 0.0352 -0.0457
H23 H 1.1564 -0.0014 0.0310
loop_
_geom_bond_atom_site_label_1
_geom_bond_atom_site_label_2
_geom_bond_site_symmetry_1
_geom_bond_site_symmetry_2
N1 C12 1_555 1_555
O1 C1 1_555 1_555
O2 C1 1_555 1_555
O3 C2 1_555 1_555
O4 C12 1_555 1_555
O5 C8 1_555 1_555
O6 C9 1_555 1_555
O7 C22 1_555 1_555
C1 C3 1_555 1_555
C2 H1 1_555 1_555
C3 C2 1_555 1_555
C4 C3 1_555 1_555
C5 C4 1_555 1_555
H2 C5 1_555 1_555
C6 C5 1_555 1_555
C7 C6 1_555 1_555
H3 C7 1_555 1_555
C8 C7 1_555 1_555
C9 C8 1_555 1_555
C10 C9 1_555 1_555
H4 C10 1_555 1_555
C11 O3 1_555 1_555
C12 C4 1_555 1_555
C13 N1 1_555 1_555
C14 C4 1_555 1_555
C15 C14 1_555 1_555
H5 C15 1_555 1_555
C16 C15 1_555 1_555
H6 C16 1_555 1_555
C17 C16 1_555 1_555
H7 C17 1_555 1_555
C18 C13 1_555 1_555
H8 C18 1_555 1_555
C19 C5 1_555 1_555
C20 C19 1_555 1_555
H9 C20 1_555 1_555
C21 C20 1_555 1_555
H10 C21 1_555 1_555
C22 C21 1_555 1_555
C23 C22 1_555 1_555
H11 C23 1_555 1_555
C24 C19 1_555 1_555
H12 C24 1_555 1_555
C25 O5 1_555 1_555
H13 C25 1_555 1_555
H14 C25 1_555 1_555
C26 O1 1_555 1_555
H15 C26 1_555 1_555
H16 C26 1_555 1_555
H17 C26 1_555 1_555
C27 N1 1_555 1_555
H18 C27 1_555 1_555
H19 C27 1_555 1_555
H20 C27 1_555 1_555
C28 O7 1_555 1_555
H21 C28 1_555 1_555
H22 C28 1_555 1_555
H23 C28 1_555 1_555
O6 C25 1_555 1_555
C6 C11 1_555 1_555
C10 C11 1_555 1_555
C13 C14 1_555 1_555
C17 C18 1_555 1_555
C23 C24 1_555 1_555

#END
