
#######################################################################
#
#                 Cambridge Crystallographic Data Centre
#                                CCDC 
#
#######################################################################
#
# If this CIF has been generated from an entry in the Cambridge 
# Structural Database, then it will include bibliographic, chemical, 
# crystal, experimental, refinement or atomic coordinate data resulting 
# from the CCDC's data processing and validation procedures.
#
#######################################################################

data_SOBWUC
_chemical_formula_moiety         
'C196 H181 F5 N36 O32,C4 H11 N1 O1,8(C1 H1 Cl3),9(H2 O1)'
_chemical_name_systematic        
"N,N'-bis(2-(2-(6-(6-(6-(8-(8-(4-isobutoxy-8-nitroquinoline-2-carboxamido)4-isobutoxyquinoline-2-carboxamido)4-isobutoxyquinoline-2-carboxamido)pyridine-2-carbamoyl)pyridine-2-carboxamido)pyridine-2-carbamoyl)8-fluoro-4-isobutoxyquinoline-7-carbamoyl)8-fluoro-4-isobutoxyquinoline-7-yl)1,8-diaza-4,5-di-isobutoxy-9-fluoro-2,7-anthracenedicarboxamide 1-amino-4-butanol clathrate chloroform solvate nonahydrate"
_symmetry_cell_setting           triclinic
_symmetry_space_group_name_H-M   'P -1'
_symmetry_Int_Tables_number      2
_space_group_name_Hall           '-P 1'
loop_
_symmetry_equiv_pos_site_id
_symmetry_equiv_pos_as_xyz
1 x,y,z
2 -x,-y,-z
_cell_length_a                   18.8692(12)
_cell_length_b                   25.2437(14)
_cell_length_c                   27.1316(16)
_cell_angle_alpha                81.545(4)
_cell_angle_beta                 86.193(4)
_cell_angle_gamma                69.820(4)
_cell_volume                     11996.7
_cell_formula_units_Z            2
loop_
_atom_site_label
_atom_site_type_symbol
_atom_site_fract_x
_atom_site_fract_y
_atom_site_fract_z
F1 F 0.3527(3) 0.30282(19) 0.37655(16)
F2 F 0.6771(3) 0.09624(19) 0.26939(14)
F3 F 0.5206(2) 0.24027(17) 0.16033(19)
F4 F 0.3117(2) 0.26088(18) 0.22535(17)
N1 N 0.3397(4) 0.2131(3) 0.1412(2)
F5 F 0.5796(3) 0.16116(18) 0.41307(19)
N2 N 0.2394(4) 0.1232(4) 0.1915(2)
N3 N 0.5948(5) 0.1578(4) 0.1099(2)
O1 O 0.1144(3) 0.2855(2) 0.3493(2)
N4 N 0.4465(4) 0.1151(3) 0.1421(3)
N5 N 0.5632(5) 0.0176(3) 0.3752(3)
N6 N 0.5162(4) 0.0559(3) 0.2058(3)
N7 N 0.1675(4) 0.2116(3) 0.2445(3)
N8 N 0.2097(4) 0.3601(3) 0.2375(3)
N9 N 0.5767(4) 0.0072(3) 0.2762(3)
O2 O 0.3212(3) 0.0243(2) 0.4355(2)
N10 N 0.3302(4) 0.0355(3) 0.2537(3)
N11 N 0.3273(5) 0.1581(4) 0.3743(3)
O3 O -0.0152(4) 0.3466(3) 0.1819(2)
O4 O 0.4284(3) 0.1103(2) 0.0606(2)
N12 N 0.2226(5) 0.2128(3) 0.3320(3)
O5 O 0.0812(3) 0.1798(2) 0.4834(3)
N13 N 0.6944(4) 0.0825(3) 0.1711(4)
O6 O 0.8277(5) 0.0327(3) 0.5541(2)
N14 N 0.3073(4) 0.0316(3) 0.3518(3)
C1 C 0.1288(6) 0.2534(5) 0.2689(3)
O7 O 0.6232(3) 0.1817(2) 0.6237(3)
N15 N 0.7684(4) 0.0310(3) 0.3399(3)
C2 C 0.5025(5) 0.2453(4) 0.1131(4)
C3 C 0.7369(6) 0.0506(4) 0.2559(5)
C4 C 0.1811(5) 0.1703(4) 0.1683(4)
O8 O 0.4982(3) -0.1015(3) 0.1973(3)
C5 C 0.5723(6) 0.0111(4) 0.2250(4)
C6 C 0.1451(6) 0.2143(4) 0.1966(4)
C7 C 0.3816(6) -0.0078(5) 0.2821(4)
N16 N 0.7033(4) 0.2404(3) 0.1904(4)
O9 O 0.6804(4) -0.0734(3) 0.2925(2)
C8 C 0.3937(6) -0.0133(5) 0.1837(4)
N17 N 0.2279(5) 0.3758(3) 0.3274(3)
O10 O 0.2920(3) 0.0748(2) 0.1257(2)
C9 C 0.1820(6) 0.1125(4) 0.4431(3)
O11 O 0.6613(3) 0.1127(2) 0.0431(2)
C10 C 0.5415(6) 0.2037(5) 0.0860(4)
C11 C 0.2838(6) 0.2650(4) 0.1423(3)
C12 C 0.6502(6) 0.1179(4) 0.0886(4)
C13 C 0.2068(7) 0.0880(4) 0.3997(4)
C14 C 0.2405(6) 0.3792(4) 0.3761(4)
C15 C 0.2900(5) 0.0762(4) 0.1707(5)
N18 N 0.7132(5) 0.0751(4) 0.4212(3)
C16 C 0.0819(6) 0.2599(5) 0.1747(4)
O12 O 0.8639(4) -0.0413(3) 0.3846(2)
C17 C 0.2680(5) 0.2904(4) 0.1849(4)
C18 C 0.6253(7) 0.1626(5) 0.5421(4)
C19 C 0.3384(6) 0.0299(4) 0.2061(4)
O13 O 0.0783(4) 0.5055(3) 0.4005(2)
N19 N 0.1646(5) 0.0995(3) 0.3584(3)
C20 C 0.3735(6) -0.0103(4) 0.3368(4)
C21 C 0.0655(6) 0.2993(4) 0.2515(4)
N20 N 0.4091(5) 0.3365(5) 0.1246(3)
C22 C 0.1903(6) 0.4235(4) 0.4025(5)
C23 C 0.2858(6) 0.0452(4) 0.3982(4)
O14 O 0.8786(4) -0.0513(3) 0.1287(3)
N21 N 0.5165(6) 0.2221(4) 0.4863(3)
C24 C 0.3034(7) 0.3433(4) 0.4018(5)
C25 C 0.2169(6) 0.3405(4) 0.1905(4)
N22 N 0.3851(6) 0.3056(4) 0.4690(3)
C26 C 0.4456(7) -0.0567(5) 0.2129(5)
C27 C 0.2661(7) 0.2018(5) 0.3763(4)
C28 C 0.0955(7) 0.1365(4) 0.3607(4)
C29 C 0.2377(5) 0.2319(3) 0.4161(4)
C30 C 0.4108(6) 0.1343(4) 0.0972(4)
C31 C 0.3703(8) 0.1446(5) 0.4128(4)
C32 C 0.6296(7) -0.0328(5) 0.3051(5)
C33 C 0.7799(7) 0.0312(5) 0.4264(4)
O15 O 0.4924(4) 0.0843(3) 0.4852(3)
C34 C 0.5039(5) 0.0653(4) 0.1561(4)
O16 O 0.7793(4) 0.1736(3) 0.1409(3)
C35 C 0.7866(7) 0.0164(5) 0.2921(4)
C36 C 0.1650(6) 0.4128(5) 0.3062(4)
C37 C 0.1614(6) 0.1735(5) 0.1191(3)
N23 N 0.4377(6) 0.0986(4) 0.4076(3)
C38 C 0.7479(6) 0.0448(5) 0.2059(4)
C39 C 0.4426(6) -0.0543(4) 0.2650(5)
C40 C 0.1549(7) 0.2530(5) 0.3200(4)
C41 C 0.7076(6) 0.0737(4) 0.1242(4)
C42 C 0.8213(5) 0.0148(4) 0.4707(4)
N24 N 0.6404(6) 0.3076(5) 0.1117(3)
O17 O 0.2028(4) 0.2979(2) 0.0174(3)
C43 C 0.2373(5) 0.2931(4) 0.1012(4)
C44 C 0.4474(6) 0.2956(5) 0.0936(5)
C45 C 0.6759(6) -0.0651(4) 0.3921(5)
C46 C 0.6215(7) -0.0263(5) 0.3600(5)
C47 C 0.3486(5) 0.1922(4) 0.0985(4)
C48 C 0.6904(6) 0.1189(5) 0.5470(4)
N25 N 0.8050(5) 0.3357(4) 0.1288(5)
O18 O 0.8636(4) 0.2848(3) 0.2504(3)
C49 C 0.3076(6) 0.2175(4) 0.0546(3)
C50 C 0.3173(7) 0.3457(4) 0.4491(5)
N26 N 0.6890(6) 0.2494(4) 0.2715(6)
C51 C 0.7924(7) 0.0433(5) 0.5102(4)
C52 C 0.0645(7) 0.1675(4) 0.4031(4)
C53 C 0.6199(5) -0.0271(4) 0.1956(5)
C54 C 0.0623(5) 0.2636(4) 0.1251(4)
O19 O 0.0980(4) 0.4374(3) 0.2299(3)
C55 C 0.5241(6) 0.2076(4) 0.0340(4)
C56 C 0.6841(7) 0.1027(5) 0.4620(4)
C57 C 0.1268(7) 0.4632(5) 0.3752(5)
N27 N 0.7586(6) 0.3532(4) 0.2206(4)
C58 C 0.4284(6) -0.0495(5) 0.3693(3)
C59 C 0.1232(5) 0.1660(4) 0.5284(4)
C60 C 0.0422(6) 0.3044(5) 0.2036(4)
C61 C 0.1135(7) 0.1515(4) 0.4434(4)
C62 C 0.5835(7) 0.1777(5) 0.4954(5)
C63 C 0.1139(5) 0.4569(4) 0.3284(4)
C64 C 0.8203(7) -0.0078(5) 0.1409(5)
C65 C 0.6158(8) 0.1471(5) 0.4565(4)
O20 O 0.9497(5) 0.1802(6) 0.0950(3)
C66 C 0.4875(5) -0.0918(4) 0.3482(5)
C67 C 0.0439(8) 0.1511(5) 0.3185(4)
C68 C 0.7240(7) 0.0885(5) 0.5084(4)
C69 C 0.5589(7) 0.0228(5) 0.4221(5)
C70 C 0.2505(6) 0.2682(5) 0.0558(4)
C71 C 0.3549(6) 0.1681(5) 0.4569(4)
C72 C 0.8101(6) -0.0010(4) 0.1909(5)
C73 C 0.5970(8) 0.3445(8) 0.0761(5)
N28 N 0.6166(8) 0.4185(4) 0.2130(4)
C74 C 0.7661(7) 0.0296(5) 0.1069(4)
C75 C 0.7006(6) 0.2401(5) 0.0562(6)
O21 O 0.3858(4) 0.3335(3) 0.5462(2)
C76 C 0.4684(7) 0.2566(6) 0.0131(4)
C77 C 0.6114(8) -0.0166(6) 0.4583(4)
C78 C 0.4956(6) -0.0956(4) 0.2974(5)
C79 C 0.1005(6) 0.2222(5) 0.0983(3)
C80 C 0.6855(8) 0.2578(7) 0.1056(6)
C81 C 0.8938(6) 0.2437(6) 0.1571(5)
C82 C 0.8091(6) 0.0012(5) 0.3815(4)
O22 O 0.6566(6) 0.2674(4) -0.0284(4)
C83 C 0.6126(11) 0.4431(6) 0.2992(7)
C84 C 0.5205(7) 0.2393(5) 0.5727(4)
C85 C 0.7231(10) 0.3769(5) 0.2641(6)
C86 C 0.4946(7) 0.0711(5) 0.4433(5)
C87 C 0.8683(10) 0.2731(10) 0.0689(6)
C88 C 0.1693(5) 0.3700(3) 0.1490(4)
C89 C 0.8585(6) -0.0376(4) 0.2287(5)
C90 C 0.4304(7) 0.3004(6) 0.0410(5)
C91 C 0.2882(8) 0.2129(5) 0.4574(3)
C92 C 0.8212(8) 0.3114(6) 0.2159(5)
N29 N 0.0680(7) 0.1180(5) 0.2775(4)
C93 C 0.5068(7) 0.4900(4) 0.2422(8)
C94 C 0.5513(6) 0.0281(5) 0.1252(3)
C95 C 0.6478(10) 0.4139(6) 0.2582(6)
C96 C 0.1553(7) 0.4048(5) 0.2540(4)
N30 N 0.3486(6) 0.4132(5) 0.1832(7)
N31 N 0.5461(5) 0.4147(6) 0.1350(5)
O23 O 0.5014(7) 0.5151(5) 0.3254(3)
C97 C 0.9035(9) 0.2316(9) 0.1075(7)
C98 C 0.5445(8) 0.3994(7) 0.0861(7)
C99 C 0.5917(6) 0.2104(4) 0.6663(4)
C100 C 0.6502(11) 0.2819(9) 0.0186(5)
C101 C 0.8470(6) -0.0274(4) 0.2752(5)
C102 C 0.8414(7) 0.2972(7) 0.1640(5)
C103 C 0.5457(10) 0.4550(7) 0.2072(6)
C104 C 0.5687(8) -0.1590(5) 0.1337(5)
C105 C 0.5879(7) 0.1959(5) 0.5795(4)
C106 C 0.2664(7) 0.3868(5) 0.4747(4)
C107 C 0.4868(6) 0.2505(4) 0.5235(5)
C108 C 0.2062(7) 0.4243(5) 0.4531(4)
C109 C 0.7575(6) 0.3687(4) 0.3075(6)
C110 C 0.6016(9) 0.3322(8) 0.0272(7)
O24 O 0.3602(4) 0.3588(3) -0.0251(4)
C111 C 0.7293(9) 0.2189(7) 0.2372(6)
C112 C 0.6096(6) -0.0182(4) 0.1447(4)
C113 C 0.7285(8) 0.2193(6) 0.1471(7)
O25 O 0.1241(5) 0.0912(5) 0.2689(3)
C114 C 0.4977(5) -0.1073(4) 0.1460(4)
C115 C 0.3715(8) 0.3537(8) 0.0237(7)
C116 C 0.0707(7) 0.2040(5) 0.5655(4)
N32 N 0.3760(9) 0.4199(7) 0.2585(9)
C117 C -0.0074(8) 0.2065(5) 0.4035(5)
C118 C 0.9084(6) -0.0028(4) 0.5570(3)
C119 C -0.0510(6) 0.2182(5) 0.3625(6)
C120 C -0.0568(6) 0.3923(5) 0.2099(4)
C121 C 0.6500(8) 0.1795(7) 0.7088(4)
C122 C 0.1818(5) 0.3470(4) 0.1059(4)
O26 O 0.4522(6) 0.4965(4) 0.1411(5)
C123 C 0.5374(13) 0.4844(9) 0.2893(8)
N33 N 0.6586(8) 0.2699(6) 0.3479(5)
C124 C 0.6470(12) 0.4348(7) 0.3436(6)
C125 C 0.3581(7) 0.3844(6) 0.1024(8)
C126 C 0.4146(7) 0.3000(5) 0.5152(5)
N34 N 0.4159(12) 0.4137(7) 0.3352(8)
C127 C 0.5061(12) 0.4613(7) 0.1578(7)
C128 C 0.8196(9) 0.3247(9) 0.0818(7)
C129 C 0.9363(8) -0.0046(5) 0.6074(4)
C130 C 0.7073(11) 0.2335(8) 0.3200(8)
C131 C 0.8855(6) -0.0636(5) 0.0810(5)
C132 C 1.0186(6) -0.0454(5) 0.6108(4)
O27 O 0.2667(5) 0.4730(4) 0.1224(5)
C133 C -0.0252(8) 0.1900(6) 0.3204(4)
C134 C 0.8795(7) 0.2603(6) 0.0203(6)
C135 C 0.2624(8) 0.4904(8) 0.2269(7)
C136 C 0.3154(11) 0.4314(8) 0.1361(9)
C137 C -0.0484(10) 0.5642(7) 0.4463(7)
C138 C -0.1179(7) 0.4383(5) 0.1783(5)
C139 C 0.6684(7) -0.0615(6) 0.4422(6)
C140 C 0.4984(7) 0.4333(5) 0.0454(8)
C141 C 0.7058(8) 0.2154(8) -0.0410(5)
C142 C 0.7895(10) 0.1695(8) 0.2467(6)
C143 C 0.0164(6) 0.5478(5) 0.3735(4)
C144 C 0.5597(14) 0.3607(9) -0.0156(11)
C145 C 0.1521(11) 0.3083(8) -0.0602(5)
O28 O 0.7637(8) 0.4492(5) 0.0716(5)
C146 C 0.2140(7) 0.2712(4) -0.0263(4)
C147 C 0.8117(10) 0.1511(8) 0.2932(11)
C148 C 0.3267(14) 0.4431(8) 0.2247(10)
C149 C 0.3384(8) 0.3931(6) 0.0553(9)
C150 C 0.603(2) 0.3151(13) 0.4205(7)
C151 C 0.5124(12) 0.4117(10) -0.0033(6)
C152 C 0.8444(10) 0.3004(10) -0.0171(6)
O29 O 0.7224(13) 0.2327(9) 0.4241(6)
C153 C 0.4332(8) 0.5646(7) 0.3154(6)
C154 C 0.3618(16) 0.4424(11) 0.2988(14)
C155 C 0.7159(10) 0.3977(7) 0.3461(6)
C156 C 0.2539(14) 0.5085(8) 0.2772(12)
C157 C 0.9839(8) 0.1354(7) 0.1314(5)
C158 C 0.1157(6) 0.1899(5) 0.6124(4)
C159 C 0.5670(7) -0.1657(5) 0.0801(4)
C160 C 0.7908(10) 0.3561(8) -0.0077(6)
C161 C 0.7819(9) 0.3653(9) 0.0431(7)
N35 N 0.7336(11) 0.4201(8) 0.0563(6)
C162 C 0.4246(15) 0.5937(7) 0.3691(7)
C163 C 0.7745(13) 0.1818(9) 0.3314(8)
C164 C -0.1654(6) 0.4826(4) 0.2129(4)
C165 C 0.5648(7) -0.2099(6) 0.1643(6)
C166 C -0.0785(7) 0.4614(5) 0.1359(5)
O30 O 0.6835(7) 0.4453(5) 0.0343(4)
C167 C 0.9365(7) 0.0531(6) 0.6136(4)
C168 C 0.7189(9) 0.1932(9) 0.6964(6)
C169 C 0.7604(12) 0.1430(9) -0.1030(5)
C170 C 1.0251(11) 0.0789(8) 0.1096(7)
C171 C 0.3109(9) 0.4148(5) -0.0511(7)
C172 C 1.0214(11) -0.1155(10) 0.0875(8)
C173 C 0.3374(13) 0.4150(7) -0.1048(6)
C174 C 0.7000(13) 0.2022(9) -0.0939(5)
C175 C 0.5996(13) 0.3274(8) 0.4718(6)
C176 C 0.0785(11) 0.3010(7) -0.0366(6)
C177 C 0.6077(7) 0.2117(7) 0.7527(5)
C178 C 0.6282(11) 0.1973(8) -0.0981(5)
C179 C 0.4100(19) 0.4140(15) -0.1268(8)
C180 C 0.4929(13) 0.6140(8) 0.3685(8)
O31 O 0.0223(6) 0.1246(7) 0.2508(5)
C181 C 0.6669(16) 0.2667(12) 0.4023(12)
C182 C 0.477(2) 0.4153(14) 0.4603(15)
C183 C 0.2973(15) 0.4889(13) 0.3158(11)
C184 C 0.9555(11) 0.0680(6) 0.0841(7)
C185 C 0.0587(9) 0.2652(6) 0.5444(5)
C186 C -0.0919(12) 0.6354(8) 0.3759(8)
C187 C 0.1653(10) 0.2742(8) -0.1074(5)
C188 C -0.0185(11) 0.5980(8) 0.4056(8)
C189 C 0.4127(17) 0.4294(13) 0.378(2)
C190 C 0.2980(12) 0.3761(7) -0.1198(6)
C191 C 0.9395(19) -0.1497(13) 0.0376(11)
C192 C 0.3415(14) 0.6375(8) 0.3584(10)
C193 C 0.9481(12) -0.1221(7) 0.0803(6)
O32 O 0.3663(9) 0.4659(5) 0.4018(5)
C194 C 0.481(3) 0.3937(14) 0.4082(10)
C195 C 0.5369(15) 0.3721(11) 0.4843(8)
N36 N 0.5460(16) 0.3486(10) 0.3953(5)
C196 C 1.0705(15) 0.0319(8) 0.1531(10)
H1 H 0.2447 0.1231 0.2228
H2 H 0.4306 0.1375 0.1645
H3 H 0.2447 0.3408 0.2584
H4 H 0.5426 0.0327 0.2909
H5 H 0.2425 0.1905 0.3099
H6 H 0.2767 0.0511 0.3284
H7 H 0.6656 0.2718 0.1879
H8 H 0.3953 -0.0125 0.1493
H9 H 0.2123 0.1019 0.4710
H10 H 0.0393 0.3262 0.2721
H11 H 0.4113 0.2814 0.4498
H12 H 0.1913 0.2612 0.4160
H13 H 0.1872 0.1446 0.1001
H14 H 0.4451 0.0858 0.3794
H15 H 0.8674 -0.0149 0.4729
H16 H 0.7167 -0.0930 0.3796
H17 H 0.7139 0.1086 0.5777
H18 H 0.3192 0.2002 0.0258
H19 H 0.6586 -0.0586 0.2099
H20 H 0.0229 0.2947 0.1109
H21 H 0.7351 0.3690 0.1933
H22 H 0.4257 -0.0476 0.4034
H23 H 0.1698 0.1743 0.5225
H24 H 0.1353 0.1260 0.5412
H25 H 0.0714 0.4818 0.3114
H26 H 0.5232 -0.1186 0.3694
H27 H 0.3870 0.1547 0.4839
H28 H 0.7695 0.0247 0.0734
H29 H 0.7376 0.2065 0.0491
H30 H 0.4563 0.2603 -0.0202
H31 H 0.6064 -0.0114 0.4918
H32 H 0.5349 -0.1246 0.2851
H33 H 0.0874 0.2249 0.0653
H34 H 0.9203 0.2180 0.1833
H35 H 0.4972 0.2608 0.5980
H36 H 0.1305 0.4043 0.1517
H37 H 0.8985 -0.0691 0.2206
H38 H 0.2752 0.2315 0.4855
H39 H 0.4600 0.5174 0.2344
H40 H 0.5432 0.0348 0.0911
H41 H 0.3853 0.3813 0.1869
H42 H 0.5792 0.3890 0.1540
H43 H 0.5427 0.2071 0.6756
H44 H 0.5861 0.2505 0.6593
H45 H 0.8818 -0.0511 0.2986
H46 H 0.6151 -0.1523 0.1405
H47 H 0.2751 0.3878 0.5078
H48 H 0.1733 0.4519 0.4709
H49 H 0.8072 0.3445 0.3120
H50 H 0.6416 -0.0431 0.1242
H51 H 0.4989 -0.0727 0.1256
H52 H 0.4519 -0.1138 0.1387
H53 H 0.0229 0.1968 0.5714
H54 H -0.0261 0.2247 0.4314
H55 H 0.9372 0.0131 0.5319
H56 H 0.9148 -0.0410 0.5507
H57 H -0.0990 0.2456 0.3623
H58 H -0.0224 0.4088 0.2212
H59 H -0.0800 0.3772 0.2391
H60 H 0.6595 0.1385 0.7153
H61 H 0.1529 0.3672 0.0784
H62 H 0.6207 0.2964 0.3336
H63 H 0.6234 0.4539 0.3702
H64 H 0.4529 0.3843 0.3283
H65 H 0.9047 -0.0174 0.6333
H66 H 0.8989 -0.0347 0.0586
H67 H 0.8381 -0.0649 0.0703
H68 H 1.0206 -0.0828 0.6058
H69 H 1.0378 -0.0470 0.6431
H70 H 1.0488 -0.0319 0.5856
H71 H -0.0569 0.1984 0.2933
H72 H 0.9109 0.2245 0.0136
H73 H 0.2294 0.5082 0.2007
H74 H -0.0086 0.5422 0.4689
H75 H -0.0672 0.5391 0.4321
H76 H -0.0885 0.5896 0.4640
H77 H -0.1508 0.4210 0.1655
H78 H 0.7012 -0.0888 0.4647
H79 H 0.4609 0.4678 0.0494
H80 H 0.6974 0.1852 -0.0173
H81 H 0.7571 0.2140 -0.0367
H82 H 0.8142 0.1492 0.2209
H83 H -0.0215 0.5315 0.3678
H84 H 0.0340 0.5617 0.3415
H85 H 0.5635 0.3474 -0.0463
H86 H 0.1503 0.3479 -0.0681
H87 H 0.2111 0.2332 -0.0187
H88 H 0.2630 0.2684 -0.0415
H89 H 0.8523 0.1176 0.3004
H90 H 0.3011 0.4270 0.0434
H91 H 0.4848 0.4366 -0.0296
H92 H 0.8545 0.2926 -0.0498
H93 H 0.3900 0.5536 0.3105
H94 H 0.4399 0.5903 0.2866
H95 H 0.7396 0.3899 0.3767
H96 H 0.2103 0.5390 0.2819
H97 H 0.9458 0.1298 0.1554
H98 H 1.0200 0.1451 0.1489
H99 H 0.0862 0.2117 0.6374
H100 H 0.1611 0.1989 0.6054
H101 H 0.1285 0.1500 0.6242
H102 H 0.5734 -0.1332 0.0596
H103 H 0.5194 -0.1686 0.0732
H104 H 0.6071 -0.1996 0.0731
H105 H 0.7646 0.3833 -0.0331
H106 H 0.4252 0.5657 0.3983
H107 H 0.7916 0.1700 0.3639
H108 H -0.1901 0.4644 0.2385
H109 H -0.2027 0.5132 0.1936
H110 H -0.1327 0.4973 0.2279
H111 H 0.5702 -0.2071 0.1987
H112 H 0.6046 -0.2425 0.1546
H113 H 0.5169 -0.2139 0.1600
H114 H -0.1150 0.4911 0.1152
H115 H -0.0510 0.4314 0.1166
H116 H -0.0440 0.4765 0.1483
H117 H 0.8857 0.0795 0.6121
H118 H 0.9665 0.0653 0.5874
H119 H 0.9575 0.0516 0.6452
H120 H 0.7442 0.1746 0.6685
H121 H 0.7516 0.1803 0.7246
H122 H 0.7060 0.2337 0.6880
H123 H 0.8101 0.1435 -0.0983
H124 H 0.7563 0.1361 -0.1364
H125 H 0.7515 0.1132 -0.0798
H126 H 1.0608 0.0852 0.0835
H127 H 0.3169 0.4462 -0.0372
H128 H 0.2582 0.4177 -0.0482
H129 H 1.0207 -0.1022 0.1190
H130 H 1.0299 -0.0884 0.0611
H131 H 1.0611 -0.1515 0.0870
H132 H 0.3044 0.4525 -0.1197
H133 H 0.7062 0.2326 -0.1188
H134 H 0.6371 0.3066 0.4945
H135 H 0.0361 0.3259 -0.0560
H136 H 0.0726 0.3102 -0.0032
H137 H 0.0812 0.2622 -0.0361
H138 H 0.5632 0.2018 0.7616
H139 H 0.5934 0.2520 0.7426
H140 H 0.6402 0.2010 0.7808
H141 H 0.6210 0.1935 -0.1319
H142 H 0.5897 0.2308 -0.0887
H143 H 0.6253 0.1644 -0.0765
H144 H 0.4252 0.4422 -0.1145
H145 H 0.4059 0.4221 -0.1624
H146 H 0.4469 0.3770 -0.1180
H147 H 0.4921 0.6305 0.3983
H148 H 0.4904 0.6420 0.3400
H149 H 0.5388 0.5822 0.3669
H150 H 0.4436 0.4479 0.4718
H151 H 0.2895 0.5014 0.3469
H152 H 0.9328 0.0993 0.0589
H153 H 0.9183 0.0649 0.1092
H154 H 0.9747 0.0334 0.0692
H155 H 0.0318 0.2743 0.5137
H156 H 0.1068 0.2703 0.5381
H157 H 0.0301 0.2898 0.5678
H158 H -0.0787 0.6581 0.3477
H159 H -0.1265 0.6599 0.3973
H160 H -0.1151 0.6111 0.3647
H161 H 0.2094 0.2771 -0.1258
H162 H 0.1222 0.2902 -0.1285
H163 H 0.1724 0.2349 -0.0961
H164 H 0.0148 0.6172 0.4149
H165 H 0.2501 0.3832 -0.1027
H166 H 0.3289 0.3370 -0.1110
H167 H 0.2903 0.3836 -0.1551
H168 H 0.8928 -0.1572 0.0412
H169 H 0.9808 -0.1848 0.0368
H170 H 0.9393 -0.1248 0.0072
H171 H 0.3239 0.6588 0.3861
H172 H 0.3084 0.6171 0.3541
H173 H 0.3422 0.6632 0.3287
H174 H 0.9393 -0.1461 0.1102
H175 H 0.5342 0.3735 0.5184
H176 H 1.1107 0.0426 0.1637
H177 H 1.0913 -0.0043 0.1409
H178 H 1.0369 0.0292 0.1807
Cl1 Cl 0.2941(2) 0.09395(17) 0.97359(13)
Cl2 Cl 0.4073(3) -0.0100(2) 1.01207(15)
Cl3 Cl 0.2520(3) 0.0117(2) 1.03886(14)
C197 C 0.3238(7) 0.0385(6) 1.0263(4)
H179 H 0.3303 0.0556 1.0552
Cl4 Cl 0.7807(3) 0.2117(2) 0.57266(16)
Cl5 Cl 0.8759(3) 0.1564(2) 0.49719(18)
Cl6 Cl 0.8311(4) 0.2755(3) 0.4957(3)
C198 C 0.8058(14) 0.2143(7) 0.5139(6)
H180 H 0.7612 0.2189 0.4949
Cl7 Cl 0.0140(3) 0.3919(2) 0.43359(15)
Cl8 Cl -0.0665(2) 0.4223(2) 0.34252(17)
Cl9 Cl -0.1028(3) 0.35110(19) 0.4213(2)
C199 C -0.0267(7) 0.3702(5) 0.3907(4)
H181 H 0.0101 0.3371 0.3776
Cl10 Cl 0.2572(4) 0.4950(2) 0.5562(2)
Cl11 Cl 0.3605(6) 0.5408(5) 0.5143(3)
Cl12 Cl 0.2201(12) 0.5723(4) 0.4708(4)
C200 C 0.2913(9) 0.5160(7) 0.4999(6)
H182 H 0.3110 0.4847 0.4796
O33 O 0.4391(4) 0.1143(3) 0.2920(2)
N37 N 0.5292(4) 0.3262(3) 0.2734(3)
C201 C 0.5167(10) 0.2304(9) 0.2964(6)
C202 C 0.4838(10) 0.1558(7) 0.2751(8)
C203 C 0.4718(12) 0.1968(10) 0.2989(7)
C204 C 0.4826(10) 0.2859(9) 0.2763(5)
H183 H 0.4222 0.1074 0.2675
H184 H 0.5746 0.3134 0.2841
H185 H 0.5096 0.3614 0.2610
H186 H 0.5617 0.2138 0.2767
H187 H 0.5328 0.2298 0.3298
H188 H 0.5373 0.1338 0.2767
H189 H 0.4725 0.1708 0.2404
H190 H 0.4693 0.1819 0.3338
H191 H 0.4213 0.2226 0.2903
H192 H 0.4370 0.3018 0.2957
H193 H 0.4673 0.2861 0.2429
Cl13 Cl 0.7950(4) 0.8505(2) 0.1738(3)
Cl14 Cl 0.8809(7) 0.7879(6) 0.2514(4)
Cl15 Cl 0.7408(8) 0.7834(5) 0.2374(5)
C205 C 0.7883(9) 0.8259(6) 0.2361(6)
H194 H 0.7649 0.8567 0.2564
Cl16 Cl 0.3161(4) 0.6247(3) 0.1133(3)
Cl17 Cl 0.4191(7) 0.6494(6) 0.1672(5)
Cl18 Cl 0.3045(4) 0.6271(3) 0.2147(3)
C206 C 0.3710(10) 0.5975(11) 0.1688(7)
H195 H 0.4009 0.5569 0.1744
Cl19 Cl 0.7926(5) 0.0445(3) 0.7051(3)
Cl20 Cl 0.7815(6) 0.0474(5) 0.8052(4)
Cl21 Cl 0.9083(6) 0.0620(5) 0.7537(4)
C207 C 0.8522(13) 0.0167(12) 0.7589(8)
H196 H 0.8789 -0.0245 0.7644
Cl22 Cl 0.0436(6) 0.6165(5) 0.2292(5)
Cl23 Cl -0.0895(7) 0.5938(6) 0.2286(9)
Cl24 Cl 0.0139(13) 0.5769(5) 0.1445(5)
C208 C 0.0069(9) 0.5716(6) 0.2109(6)
H197 H 0.0332 0.5325 0.2261
O34 O 0.3242(7) 0.2139(5) 0.5987(5)
O35 O 0.1091(14) 0.5451(13) 0.0268(11)
O36 O 0.3651(12) 0.280(2) 0.6881(14)
O37 O 0.0727(16) 0.4790(8) 0.0079(7)
O38 O 0.8915(19) 0.203(3) 0.747(2)
O39 O 0.8828(16) 0.315(3) 0.6691(19)
O40 O 0.1991(5) 0.6194(4) 0.1488(3)
O41 O 0.299(3) 0.2577(15) 0.6458(15)
O42 O 0.685(4) 0.603(3) 0.304(2)
loop_
_geom_bond_atom_site_label_1
_geom_bond_atom_site_label_2
_geom_bond_site_symmetry_1
_geom_bond_site_symmetry_2
F1 C24 1_555 1_555
F2 C3 1_555 1_555
F3 C2 1_555 1_555
F4 C17 1_555 1_555
N1 C11 1_555 1_555
F5 C65 1_555 1_555
N2 C4 1_555 1_555
N3 C10 1_555 1_555
O1 C40 1_555 1_555
N4 C30 1_555 1_555
N5 C46 1_555 1_555
N6 C5 1_555 1_555
N7 C1 1_555 1_555
N8 C25 1_555 1_555
N9 C5 1_555 1_555
O2 C23 1_555 1_555
N10 C7 1_555 1_555
N11 C27 1_555 1_555
O3 C60 1_555 1_555
O4 C30 1_555 1_555
N12 C27 1_555 1_555
O5 C59 1_555 1_555
N13 C38 1_555 1_555
O6 C51 1_555 1_555
N14 C20 1_555 1_555
C1 C21 1_555 1_555
O7 C99 1_555 1_555
N15 C35 1_555 1_555
C2 C10 1_555 1_555
C3 C35 1_555 1_555
C4 C6 1_555 1_555
O8 C26 1_555 1_555
C5 C53 1_555 1_555
C6 N7 1_555 1_555
C7 C20 1_555 1_555
N16 C111 1_555 1_555
O9 C32 1_555 1_555
C8 C19 1_555 1_555
N17 C14 1_555 1_555
O10 C15 1_555 1_555
C9 C13 1_555 1_555
O11 C12 1_555 1_555
C10 C55 1_555 1_555
C11 C17 1_555 1_555
C12 N3 1_555 1_555
C13 N19 1_555 1_555
C14 C22 1_555 1_555
C15 N2 1_555 1_555
N18 C33 1_555 1_555
C16 C6 1_555 1_555
O12 C82 1_555 1_555
C17 C25 1_555 1_555
C18 C48 1_555 1_555
C19 N10 1_555 1_555
O13 C57 1_555 1_555
N19 C28 1_555 1_555
C20 C58 1_555 1_555
C21 C60 1_555 1_555
N20 C44 1_555 1_555
C22 C57 1_555 1_555
C23 N14 1_555 1_555
O14 C64 1_555 1_555
N21 C62 1_555 1_555
C24 C14 1_555 1_555
C25 C88 1_555 1_555
N22 C50 1_555 1_555
C26 C8 1_555 1_555
C27 C29 1_555 1_555
C28 C52 1_555 1_555
C29 C91 1_555 1_555
C30 C47 1_555 1_555
C31 N11 1_555 1_555
C32 N9 1_555 1_555
C33 C42 1_555 1_555
O15 C86 1_555 1_555
C34 N4 1_555 1_555
O16 C113 1_555 1_555
C35 C101 1_555 1_555
C36 N17 1_555 1_555
C37 C4 1_555 1_555
N23 C31 1_555 1_555
C38 C3 1_555 1_555
C39 C7 1_555 1_555
C40 N12 1_555 1_555
C41 N13 1_555 1_555
C42 C51 1_555 1_555
N24 C73 1_555 1_555
O17 C70 1_555 1_555
C43 C11 1_555 1_555
C44 C2 1_555 1_555
C45 C46 1_555 1_555
C46 C32 1_555 1_555
C47 N1 1_555 1_555
C48 C68 1_555 1_555
N25 C102 1_555 1_555
O18 C92 1_555 1_555
C49 C47 1_555 1_555
C50 C24 1_555 1_555
N26 C111 1_555 1_555
C51 C68 1_555 1_555
C52 C61 1_555 1_555
C53 C112 1_555 1_555
C54 C16 1_555 1_555
O19 C96 1_555 1_555
C55 C76 1_555 1_555
C56 N18 1_555 1_555
C57 C63 1_555 1_555
N27 C85 1_555 1_555
C58 C66 1_555 1_555
C59 C116 1_555 1_555
C60 C16 1_555 1_555
C61 O5 1_555 1_555
C62 C18 1_555 1_555
C63 C36 1_555 1_555
C64 C72 1_555 1_555
C65 C56 1_555 1_555
O20 C97 1_555 1_555
C66 C78 1_555 1_555
C67 C28 1_555 1_555
C68 C56 1_555 1_555
C69 N5 1_555 1_555
C70 C43 1_555 1_555
C71 C31 1_555 1_555
C72 C38 1_555 1_555
C73 C98 1_555 1_555
N28 C95 1_555 1_555
C74 C41 1_555 1_555
C75 C80 1_555 1_555
O21 C126 1_555 1_555
C76 C90 1_555 1_555
C77 C69 1_555 1_555
C78 C39 1_555 1_555
C79 C37 1_555 1_555
C80 N24 1_555 1_555
C81 C97 1_555 1_555
C82 N15 1_555 1_555
O22 C100 1_555 1_555
C83 C95 1_555 1_555
C84 C105 1_555 1_555
C85 C95 1_555 1_555
C86 N23 1_555 1_555
C87 C97 1_555 1_555
C88 C122 1_555 1_555
C89 C72 1_555 1_555
C90 C44 1_555 1_555
C91 C71 1_555 1_555
C92 N27 1_555 1_555
N29 C67 1_555 1_555
C93 C103 1_555 1_555
C94 C34 1_555 1_555
C96 N8 1_555 1_555
N30 C136 1_555 1_555
N31 C98 1_555 1_555
O23 C123 1_555 1_555
C98 C140 1_555 1_555
C99 C121 1_555 1_555
C100 C75 1_555 1_555
C101 C89 1_555 1_555
C102 C81 1_555 1_555
C103 N28 1_555 1_555
C104 C114 1_555 1_555
C105 O7 1_555 1_555
C106 C50 1_555 1_555
C107 N21 1_555 1_555
C108 C22 1_555 1_555
C109 C85 1_555 1_555
C110 C73 1_555 1_555
O24 C115 1_555 1_555
C111 C142 1_555 1_555
C112 C94 1_555 1_555
C113 N16 1_555 1_555
O25 N29 1_555 1_555
C114 O8 1_555 1_555
C115 C90 1_555 1_555
C116 C158 1_555 1_555
N32 C148 1_555 1_555
C117 C52 1_555 1_555
C118 O6 1_555 1_555
C119 C117 1_555 1_555
C120 O3 1_555 1_555
C121 C168 1_555 1_555
C122 C43 1_555 1_555
O26 C127 1_555 1_555
C123 C83 1_555 1_555
N33 C130 1_555 1_555
C124 C83 1_555 1_555
C125 N20 1_555 1_555
C126 N22 1_555 1_555
N34 C154 1_555 1_555
C127 N31 1_555 1_555
C128 N25 1_555 1_555
C129 C118 1_555 1_555
C130 N26 1_555 1_555
C131 O14 1_555 1_555
C132 C129 1_555 1_555
O27 C136 1_555 1_555
C133 C67 1_555 1_555
C134 C87 1_555 1_555
C135 C148 1_555 1_555
C136 C125 1_555 1_555
C137 C188 1_555 1_555
C138 C120 1_555 1_555
C139 C45 1_555 1_555
C140 C151 1_555 1_555
C141 O22 1_555 1_555
C142 C147 1_555 1_555
C143 O13 1_555 1_555
C144 C110 1_555 1_555
C145 C146 1_555 1_555
O28 N35 1_555 1_555
C146 O17 1_555 1_555
C147 C163 1_555 1_555
C148 N30 1_555 1_555
C149 C115 1_555 1_555
C150 C175 1_555 1_555
C151 C144 1_555 1_555
C152 C134 1_555 1_555
O29 C181 1_555 1_555
C153 O23 1_555 1_555
C154 N32 1_555 1_555
C155 C109 1_555 1_555
C156 C135 1_555 1_555
C157 O20 1_555 1_555
C158 H99 1_555 1_555
C159 C104 1_555 1_555
C160 C152 1_555 1_555
C161 C128 1_555 1_555
N35 C161 1_555 1_555
C162 C153 1_555 1_555
C163 C130 1_555 1_555
C164 C138 1_555 1_555
C165 C104 1_555 1_555
C166 C138 1_555 1_555
O30 N35 1_555 1_555
C167 C129 1_555 1_555
C168 H120 1_555 1_555
C169 C174 1_555 1_555
C170 C157 1_555 1_555
C171 O24 1_555 1_555
C172 C193 1_555 1_555
C173 C171 1_555 1_555
C174 C141 1_555 1_555
C175 C195 1_555 1_555
C176 C145 1_555 1_555
C177 C121 1_555 1_555
C178 C174 1_555 1_555
C179 C173 1_555 1_555
C180 C162 1_555 1_555
O31 N29 1_555 1_555
C181 N33 1_555 1_555
C182 C194 1_555 1_555
C183 C154 1_555 1_555
C184 C170 1_555 1_555
C185 C116 1_555 1_555
C186 C188 1_555 1_555
C187 C145 1_555 1_555
C188 C143 1_555 1_555
C189 N34 1_555 1_555
C190 C173 1_555 1_555
C191 C193 1_555 1_555
C192 C162 1_555 1_555
C193 C131 1_555 1_555
O32 C189 1_555 1_555
C194 C189 1_555 1_555
C195 C182 1_555 1_555
N36 C150 1_555 1_555
C196 C170 1_555 1_555
H1 N2 1_555 1_555
H2 N4 1_555 1_555
H3 N8 1_555 1_555
H4 N9 1_555 1_555
H5 N12 1_555 1_555
H6 N14 1_555 1_555
H7 N16 1_555 1_555
H8 C8 1_555 1_555
H9 C9 1_555 1_555
H10 C21 1_555 1_555
H11 N22 1_555 1_555
H12 C29 1_555 1_555
H13 C37 1_555 1_555
H14 N23 1_555 1_555
H15 C42 1_555 1_555
H16 C45 1_555 1_555
H17 C48 1_555 1_555
H18 C49 1_555 1_555
H19 C53 1_555 1_555
H20 C54 1_555 1_555
H21 N27 1_555 1_555
H22 C58 1_555 1_555
H23 C59 1_555 1_555
H24 C59 1_555 1_555
H25 C63 1_555 1_555
H26 C66 1_555 1_555
H27 C71 1_555 1_555
H28 C74 1_555 1_555
H29 C75 1_555 1_555
H30 C76 1_555 1_555
H31 C77 1_555 1_555
H32 C78 1_555 1_555
H33 C79 1_555 1_555
H34 C81 1_555 1_555
H35 C84 1_555 1_555
H36 C88 1_555 1_555
H37 C89 1_555 1_555
H38 C91 1_555 1_555
H39 C93 1_555 1_555
H40 C94 1_555 1_555
H41 N30 1_555 1_555
H42 N31 1_555 1_555
H43 C99 1_555 1_555
H44 C99 1_555 1_555
H45 C101 1_555 1_555
H46 C104 1_555 1_555
H47 C106 1_555 1_555
H48 C108 1_555 1_555
H49 C109 1_555 1_555
H50 C112 1_555 1_555
H51 C114 1_555 1_555
H52 C114 1_555 1_555
H53 C116 1_555 1_555
H54 C117 1_555 1_555
H55 C118 1_555 1_555
H56 C118 1_555 1_555
H57 C119 1_555 1_555
H58 C120 1_555 1_555
H59 C120 1_555 1_555
H60 C121 1_555 1_555
H61 C122 1_555 1_555
H62 N33 1_555 1_555
H63 C124 1_555 1_555
H64 N34 1_555 1_555
H65 C129 1_555 1_555
H66 C131 1_555 1_555
H67 C131 1_555 1_555
H68 C132 1_555 1_555
H69 C132 1_555 1_555
H70 C132 1_555 1_555
H71 C133 1_555 1_555
H72 C134 1_555 1_555
H73 C135 1_555 1_555
H74 C137 1_555 1_555
H75 C137 1_555 1_555
H76 C137 1_555 1_555
H77 C138 1_555 1_555
H78 C139 1_555 1_555
H79 C140 1_555 1_555
H80 C141 1_555 1_555
H81 C141 1_555 1_555
H82 C142 1_555 1_555
H83 C143 1_555 1_555
H84 C143 1_555 1_555
H85 C144 1_555 1_555
H86 C145 1_555 1_555
H87 C146 1_555 1_555
H88 C146 1_555 1_555
H89 C147 1_555 1_555
H90 C149 1_555 1_555
H91 C151 1_555 1_555
H92 C152 1_555 1_555
H93 C153 1_555 1_555
H94 C153 1_555 1_555
H95 C155 1_555 1_555
H96 C156 1_555 1_555
H97 C157 1_555 1_555
H98 C157 1_555 1_555
H100 C158 1_555 1_555
H101 C158 1_555 1_555
H102 C159 1_555 1_555
H103 C159 1_555 1_555
H104 C159 1_555 1_555
H105 C160 1_555 1_555
H106 C162 1_555 1_555
H107 C163 1_555 1_555
H108 C164 1_555 1_555
H109 C164 1_555 1_555
H110 C164 1_555 1_555
H111 C165 1_555 1_555
H112 C165 1_555 1_555
H113 C165 1_555 1_555
H114 C166 1_555 1_555
H115 C166 1_555 1_555
H116 C166 1_555 1_555
H117 C167 1_555 1_555
H118 C167 1_555 1_555
H119 C167 1_555 1_555
H121 C168 1_555 1_555
H122 C168 1_555 1_555
H123 C169 1_555 1_555
H124 C169 1_555 1_555
H125 C169 1_555 1_555
H126 C170 1_555 1_555
H127 C171 1_555 1_555
H128 C171 1_555 1_555
H129 C172 1_555 1_555
H130 C172 1_555 1_555
H131 C172 1_555 1_555
H132 C173 1_555 1_555
H133 C174 1_555 1_555
H134 C175 1_555 1_555
H135 C176 1_555 1_555
H136 C176 1_555 1_555
H137 C176 1_555 1_555
H138 C177 1_555 1_555
H139 C177 1_555 1_555
H140 C177 1_555 1_555
H141 C178 1_555 1_555
H142 C178 1_555 1_555
H143 C178 1_555 1_555
H144 C179 1_555 1_555
H145 C179 1_555 1_555
H146 C179 1_555 1_555
H147 C180 1_555 1_555
H148 C180 1_555 1_555
H149 C180 1_555 1_555
H150 C182 1_555 1_555
H151 C183 1_555 1_555
H152 C184 1_555 1_555
H153 C184 1_555 1_555
H154 C184 1_555 1_555
H155 C185 1_555 1_555
H156 C185 1_555 1_555
H157 C185 1_555 1_555
H158 C186 1_555 1_555
H159 C186 1_555 1_555
H160 C186 1_555 1_555
H161 C187 1_555 1_555
H162 C187 1_555 1_555
H163 C187 1_555 1_555
H164 C188 1_555 1_555
H165 C190 1_555 1_555
H166 C190 1_555 1_555
H167 C190 1_555 1_555
H168 C191 1_555 1_555
H169 C191 1_555 1_555
H170 C191 1_555 1_555
H171 C192 1_555 1_555
H172 C192 1_555 1_555
H173 C192 1_555 1_555
H174 C193 1_555 1_555
H175 C195 1_555 1_555
H176 C196 1_555 1_555
H177 C196 1_555 1_555
H178 C196 1_555 1_555
Cl1 C197 1_555 1_555
Cl2 C197 1_555 1_555
Cl3 C197 1_555 1_555
C197 H179 1_555 1_555
Cl4 C198 1_555 1_555
Cl5 C198 1_555 1_555
Cl6 C198 1_555 1_555
C198 H180 1_555 1_555
Cl7 C199 1_555 1_555
Cl8 C199 1_555 1_555
Cl9 C199 1_555 1_555
C199 H181 1_555 1_555
Cl10 C200 1_555 1_555
Cl11 C200 1_555 1_555
Cl12 C200 1_555 1_555
C200 H182 1_555 1_555
O33 C202 1_555 1_555
N37 C204 1_555 1_555
C201 C203 1_555 1_555
C202 C203 1_555 1_555
C203 H190 1_555 1_555
C204 C201 1_555 1_555
H183 O33 1_555 1_555
H184 N37 1_555 1_555
H185 N37 1_555 1_555
H186 C201 1_555 1_555
H187 C201 1_555 1_555
H188 C202 1_555 1_555
H189 C202 1_555 1_555
H191 C203 1_555 1_555
H192 C204 1_555 1_555
H193 C204 1_555 1_555
Cl13 C205 1_555 1_555
Cl14 C205 1_555 1_555
Cl15 C205 1_555 1_555
C205 H194 1_555 1_555
Cl16 C206 1_555 1_555
Cl17 C206 1_555 1_555
Cl18 C206 1_555 1_555
C206 H195 1_555 1_555
Cl19 C207 1_555 1_555
Cl20 C207 1_555 1_555
Cl21 C207 1_555 1_555
C207 H196 1_555 1_555
Cl22 C208 1_555 1_555
Cl23 C208 1_555 1_555
Cl24 C208 1_555 1_555
C208 H197 1_555 1_555
N6 C34 1_555 1_555
C1 C40 1_555 1_555
C9 C61 1_555 1_555
C12 C41 1_555 1_555
C13 C23 1_555 1_555
C15 C19 1_555 1_555
C18 C105 1_555 1_555
C26 C39 1_555 1_555
C33 C82 1_555 1_555
C36 C96 1_555 1_555
C49 C70 1_555 1_555
C54 C79 1_555 1_555
C62 C65 1_555 1_555
C64 C74 1_555 1_555
C69 C86 1_555 1_555
C77 C139 1_555 1_555
C80 C113 1_555 1_555
C84 C107 1_555 1_555
C87 C128 1_555 1_555
C92 C102 1_555 1_555
C93 C123 1_555 1_555
C100 C110 1_555 1_555
C103 C127 1_555 1_555
C106 C108 1_555 1_555
C107 C126 1_555 1_555
C119 C133 1_555 1_555
C124 C155 1_555 1_555
C125 C149 1_555 1_555
C150 C181 1_555 1_555
C156 C183 1_555 1_555
C160 C161 1_555 1_555
C194 N36 1_555 1_555

#END
