
#######################################################################
#
#                 Cambridge Crystallographic Data Centre
#                                CCDC 
#
#######################################################################
#
# If this CIF has been generated from an entry in the Cambridge 
# Structural Database, then it will include bibliographic, chemical, 
# crystal, experimental, refinement or atomic coordinate data resulting 
# from the CCDC's data processing and validation procedures.
#
#######################################################################

data_SOBWIS
_chemical_formula_moiety         'C19 H16 O2'
_chemical_name_systematic        
1-[5-(4-methylphenyl)-3-phenylfuran-2-yl]ethan-1-one
_symmetry_cell_setting           orthorhombic
_symmetry_space_group_name_H-M   'F d d 2'
_symmetry_Int_Tables_number      43
_space_group_name_Hall           'F 2 -2d'
loop_
_symmetry_equiv_pos_site_id
_symmetry_equiv_pos_as_xyz
1 x,y,z
2 -x,-y,z
3 1/4+x,1/4-y,1/4+z
4 1/4-x,1/4+y,1/4+z
5 x,1/2+y,1/2+z
6 -x,1/2-y,1/2+z
7 1/4+x,3/4-y,3/4+z
8 1/4-x,3/4+y,3/4+z
9 1/2+x,y,1/2+z
10 1/2-x,-y,1/2+z
11 3/4+x,1/4-y,3/4+z
12 3/4-x,1/4+y,3/4+z
13 1/2+x,1/2+y,z
14 1/2-x,1/2-y,z
15 3/4+x,3/4-y,1/4+z
16 3/4-x,3/4+y,1/4+z
_cell_length_a                   23.630(2)
_cell_length_b                   42.848(4)
_cell_length_c                   5.8546(5)
_cell_angle_alpha                90
_cell_angle_beta                 90
_cell_angle_gamma                90
_cell_volume                     5927.77
_exptl_crystal_colour            colorless
_exptl_crystal_description       block
_cell_formula_units_Z            16
loop_
_atom_site_label
_atom_site_type_symbol
_atom_site_fract_x
_atom_site_fract_y
_atom_site_fract_z
C1 C 0.26350(9) -0.09024(5) 0.6122(4)
H1 H 0.2666 -0.1051 0.4898
H2 H 0.2446 -0.0998 0.7395
H3 H 0.3006 -0.0837 0.6580
O1 O 0.13013(4) 0.04143(2) 0.42783(19)
C2 C 0.23008(6) -0.06240(4) 0.5329(3)
O2 O 0.06356(7) 0.11341(3) 0.3241(3)
C3 C 0.22478(7) -0.03608(4) 0.6677(3)
H4 H 0.2438 -0.0353 0.8067
C4 C 0.12500(10) 0.09968(4) 0.6269(4)
H5 H 0.1217 0.1214 0.6652
H6 H 0.1639 0.0947 0.5975
H7 H 0.1114 0.0872 0.7518
C5 C 0.19217(7) -0.01100(4) 0.6022(3)
H8 H 0.1892 0.0064 0.6968
C6 C 0.16359(6) -0.01163(3) 0.3934(3)
C7 C 0.17010(7) -0.03776(4) 0.2559(3)
H9 H 0.1520 -0.0385 0.1150
C8 C 0.20287(7) -0.06270(4) 0.3240(3)
H10 H 0.2067 -0.0799 0.2283
C9 C 0.12696(6) 0.01359(3) 0.3173(3)
C10 C 0.08681(6) 0.01522(3) 0.1520(3)
H11 H 0.0766 -0.0008 0.0532
C11 C 0.06306(6) 0.04571(3) 0.1562(3)
C12 C 0.09127(7) 0.06120(3) 0.3276(3)
C13 C 0.01632(6) 0.05538(3) 0.0047(3)
C14 C 0.01099(7) 0.04106(4) -0.2066(3)
H12 H 0.0384 0.0269 -0.2539
C15 C -0.03447(8) 0.04757(4) -0.3486(3)
H13 H -0.0374 0.0377 -0.4897
C16 C -0.07501(8) 0.06844(4) -0.2814(4)
H14 H -0.1055 0.0728 -0.3764
C17 C -0.07040(7) 0.08298(4) -0.0723(4)
H15 H -0.0980 0.0972 -0.0267
C18 C -0.02518(7) 0.07668(4) 0.0705(3)
H16 H -0.0225 0.0867 0.2110
C19 C 0.09062(7) 0.09299(4) 0.4190(4)
loop_
_geom_bond_atom_site_label_1
_geom_bond_atom_site_label_2
_geom_bond_site_symmetry_1
_geom_bond_site_symmetry_2
C1 H1 1_555 1_555
H2 C1 1_555 1_555
H3 C1 1_555 1_555
O1 C9 1_555 1_555
C2 C1 1_555 1_555
O2 C19 1_555 1_555
C3 C2 1_555 1_555
H4 C3 1_555 1_555
C4 H5 1_555 1_555
H6 C4 1_555 1_555
H7 C4 1_555 1_555
C5 C3 1_555 1_555
H8 C5 1_555 1_555
C6 C5 1_555 1_555
C7 C6 1_555 1_555
H9 C7 1_555 1_555
C8 C2 1_555 1_555
H10 C8 1_555 1_555
C9 C6 1_555 1_555
C10 C9 1_555 1_555
H11 C10 1_555 1_555
C11 C10 1_555 1_555
C12 O1 1_555 1_555
C13 C11 1_555 1_555
C14 C13 1_555 1_555
H12 C14 1_555 1_555
C15 C14 1_555 1_555
H13 C15 1_555 1_555
C16 C15 1_555 1_555
H14 C16 1_555 1_555
C17 C16 1_555 1_555
H15 C17 1_555 1_555
C18 C13 1_555 1_555
H16 C18 1_555 1_555
C19 C4 1_555 1_555
C7 C8 1_555 1_555
C11 C12 1_555 1_555
C12 C19 1_555 1_555
C17 C18 1_555 1_555

#END
