
#######################################################################
#
#                 Cambridge Crystallographic Data Centre
#                                CCDC 
#
#######################################################################
#
# If this CIF has been generated from an entry in the Cambridge 
# Structural Database, then it will include bibliographic, chemical, 
# crystal, experimental, refinement or atomic coordinate data resulting 
# from the CCDC's data processing and validation procedures.
#
#######################################################################

data_SOBWOW
_chemical_formula_moiety         
'C196 H181 F5 N36 O32,6(C1 H1 Cl3),4(C1 H2 Cl2),14.5(H2 O1)'
_chemical_name_systematic        
"N,N'-bis(2-(2-(6-(6-(6-(8-(8-(4-isobutoxy-8-nitroquinoline-2-carboxamido)4-isobutoxyquinoline-2-carboxamido)4-isobutoxyquinoline-2-carboxamido)pyridine-2-carbamoyl)pyridine-2-carboxamido)pyridine-2-carbamoyl)8-fluoro-4-isobutoxyquinoline-7-carbamoyl)8-fluoro-4-isobutoxyquinoline-7-yl)1,8-diaza-4,5-di-isobutoxy-9-fluoro-2,7-anthracenedicarboxamide trihydrate clathrate chloroform dichloromethane solvate hydrate"
_symmetry_cell_setting           triclinic
_symmetry_space_group_name_H-M   'P -1'
_symmetry_Int_Tables_number      2
_space_group_name_Hall           '-P 1'
loop_
_symmetry_equiv_pos_site_id
_symmetry_equiv_pos_as_xyz
1 x,y,z
2 -x,-y,-z
_cell_length_a                   22.460(3)
_cell_length_b                   24.252(4)
_cell_length_c                   24.970(4)
_cell_angle_alpha                76.770(7)
_cell_angle_beta                 89.903(8)
_cell_angle_gamma                73.669(8)
_cell_volume                     12677.4
_exptl_crystal_colour            yellow
_cell_formula_units_Z            2
loop_
_atom_site_label
_atom_site_type_symbol
_atom_site_fract_x
_atom_site_fract_y
_atom_site_fract_z
Cl1 Cl 0.6499(3) 0.9107(3) 0.7741(3)
Cl2 Cl 0.7600(3) 0.8379(3) 0.8438(3)
Cl3 Cl 0.6958(3) 0.7840(3) 0.7823(3)
C196 C 0.6904(9) 0.8430(10) 0.8151(8)
Cl4 Cl 0.6021(4) 0.4176(3) 0.6053(3)
Cl5 Cl 0.6970(4) 0.4231(4) 0.6750(4)
Cl6 Cl 0.6566(5) 0.5110(5) 0.5688(5)
C197 C 0.6389(12) 0.4538(15) 0.6276(8)
Cl7 Cl 0.1936(4) 0.9158(4) 0.4129(4)
Cl8 Cl 0.3018(4) 0.8639(4) 0.3599(4)
Cl9 Cl 0.2475(9) 0.9847(8) 0.3350(8)
C198 C 0.2647(11) 0.9251(13) 0.3872(10)
Cl10 Cl 0.8909(5) 0.9196(4) 0.7681(4)
Cl11 Cl 0.8169(6) 0.8625(5) 0.7203(5)
C199 C 0.8926(11) 0.8527(18) 0.756(2)
Cl12 Cl 0.6933(7) 0.5143(5) 0.8342(6)
C200 C 0.7345(16) 0.526(3) 0.790(2)
Cl13 Cl 0.7935(19) 0.517(2) 0.7486(17)
O33 O 0.3318(8) 0.7266(7) 0.9326(9)
O34 O 0.3062(7) 0.6884(6) 0.6932(8)
C201 C 0.0834(15) 0.9550(13) 0.0868(14)
Cl14 Cl 0.0531(14) 0.9801(11) 0.0419(13)
Cl15 Cl 0.129(2) 0.909(2) 0.110(2)
Cl16 Cl 0.0789(19) 1.0261(17) 0.0984(17)
Cl17 Cl 0.2904(14) 0.3367(13) 0.6522(13)
C202 C 0.265(5) 0.4137(15) 0.6480(16)
Cl18 Cl 0.183(4) 0.432(4) 0.645(5)
O35 O 0.0127(9) 0.9012(7) 0.1439(14)
Cl19 Cl 0.083(2) 0.5445(19) 0.1029(18)
Cl20 Cl -0.060(7) 0.646(7) 0.108(10)
C203 C 0.005(2) 0.5824(19) 0.1132(16)
Cl21 Cl -0.021(2) 0.5943(19) 0.0432(16)
O36 O 0.197(3) 0.717(3) 0.4141(18)
Cl22 Cl 0.841(6) 0.626(11) 0.553(9)
C204 C 0.768(3) 0.625(2) 0.578(4)
Cl23 Cl 0.6928(19) 0.6641(19) 0.5462(18)
O37 O 0.182(2) 0.4089(12) 0.7650(12)
O38 O 0.3343(14) 0.7375(11) 0.818(2)
O39 O 0.143(3) 0.379(4) 0.712(2)
O40 O 0.962(5) 0.565(5) 0.902(4)
O41 O 0.2811(17) 0.2394(12) 0.7269(14)
O42 O 0.156(5) 0.515(4) 0.510(3)
O43 O 0.9845(14) 0.9061(14) 0.0687(17)
Cl24 Cl 0.5945(13) 0.8740(13) 0.4598(13)
Cl25 Cl 0.5157(15) 0.8294(14) 0.4671(14)
Cl26 Cl 0.5113(17) 0.9669(11) 0.3992(13)
C205 C 0.5111(15) 0.9026(10) 0.4497(7)
O44 O 0.023(5) 0.435(8) 0.427(6)
O45 O 0.5000 0.5000 0.5000
O46 O 0.232(4) 0.772(6) 0.328(5)
O47 O 0.052(3) 0.4114(16) 0.722(2)
O48 O 0.117(12) 0.657(8) 0.437(8)
O49 O 0.051(2) 0.218(2) 0.5492(19)
O50 O 0.062(2) 0.537(2) 0.7000(19)
Cl27 Cl 0.3469(2) 0.92826(18) 0.12056(19)
Cl28 Cl 0.2622(3) 0.8932(3) 0.1978(3)
Cl29 Cl 0.2518(4) 1.0145(3) 0.1562(3)
C206 C 0.2706(8) 0.9480(6) 0.1400(8)
F1 F 0.4687(4) 0.7175(2) 0.7585(3)
F2 F 0.3479(3) 0.8666(2) 0.8197(3)
F3 F 0.2224(4) 0.8401(4) 0.7443(3)
N1 N 0.2465(6) 0.9308(4) 0.8584(4)
N2 N 0.4210(5) 0.9135(4) 0.7513(4)
F4 F 0.3685(4) 0.5918(3) 0.8312(3)
N3 N 0.4278(6) 0.8924(4) 0.9179(4)
F5 F 0.1950(4) 0.6995(3) 0.8537(3)
O1 O 0.4642(5) 1.0484(4) 0.8393(4)
N4 N 0.1874(5) 0.8721(5) 0.9262(4)
C1 C 0.4017(8) 1.0013(6) 0.8950(6)
N5 N 0.4816(4) 0.7899(4) 0.8925(4)
N6 N 0.4962(5) 0.8215(5) 0.7266(4)
N7 N 0.2077(5) 0.7721(5) 0.9650(4)
O2 O 0.1971(5) 1.1139(4) 0.8089(4)
C2 C 0.2800(7) 0.9609(6) 0.8254(5)
C3 C 0.3906(7) 0.9480(5) 0.9231(5)
N8 N 0.1250(7) 0.8927(5) 0.7906(5)
N9 N 0.3344(6) 0.8942(4) 0.9875(5)
N10 N 0.5388(6) 0.6157(5) 0.7442(4)
N11 N 0.2373(5) 0.6734(5) 0.9944(5)
O3 O 0.2415(6) 0.9225(6) 1.0270(5)
C4 C 0.2683(7) 1.0215(5) 0.8091(5)
N12 N 0.4765(8) 0.5437(5) 0.7859(5)
C5 C 0.3335(7) 0.9261(6) 0.8055(5)
C6 C 0.3387(7) 0.9503(6) 0.9577(5)
C7 C 0.4742(7) 0.8919(5) 0.8862(5)
N13 N 0.4638(5) 0.7015(5) 0.9094(4)
C8 C 0.4922(7) 0.9420(7) 0.8598(6)
N14 N 0.3567(7) 0.7829(5) 1.0433(5)
O4 O 0.5607(5) 0.8268(4) 0.8522(4)
N15 N 0.1208(7) 0.7789(8) 0.7003(5)
O5 O 0.4758(4) 0.9743(4) 0.7050(4)
C9 C 0.5114(7) 0.8716(6) 0.7079(5)
N16 N 0.1045(6) 0.8003(7) 0.8483(5)
O6 O 0.4818(5) 0.5187(4) 0.9326(4)
O7 O 0.3327(7) 0.3527(6) 0.8728(4)
N17 N 0.2914(9) 0.8949(6) 0.6771(5)
N18 N 0.3370(8) 0.5856(5) 0.9827(5)
O8 O 0.5254(6) 0.3654(5) 0.7855(4)
C10 C 0.3716(7) 0.9508(6) 0.7710(5)
O9 O 0.1128(7) 0.9559(5) 0.9304(5)
N19 N 0.1274(7) 0.8770(6) 0.6312(6)
C11 C 0.3009(7) 1.0026(6) 0.9620(5)
O10 O 0.1922(7) 0.6050(5) 1.0440(5)
C12 C 0.1979(8) 0.9632(6) 0.8757(5)
N20 N 0.3805(7) 0.8281(8) 0.6356(5)
O11 O 0.4558(5) 0.9363(5) 1.0409(4)
N21 N 0.1897(7) 0.5922(7) 0.9055(5)
C13 C 0.5354(8) 0.7721(9) 0.7156(6)
C14 C 0.3572(7) 1.0148(5) 0.7549(5)
C15 C 0.0619(10) 0.8458(9) 0.8478(6)
C16 C 0.2069(8) 0.8978(8) 0.7324(6)
C17 C 0.5000(7) 0.7319(6) 0.8875(6)
N22 N 0.4359(6) 0.6172(4) 0.9339(4)
C18 C 0.3033(9) 0.8185(8) 1.0499(5)
C19 C 0.3598(9) 1.0545(6) 0.8996(6)
C20 C 0.4565(13) 0.4452(7) 0.8095(7)
O12 O 0.2449(5) 1.0794(6) 0.6433(4)
N23 N 0.2915(9) 0.5312(6) 0.8721(5)
C21 C 0.1357(8) 0.7321(9) 1.0229(6)
C22 C 0.2100(8) 1.0547(6) 0.8279(6)
N24 N 0.2456(8) 0.5926(8) 0.7249(5)
C23 C 0.1766(6) 1.0255(7) 0.8613(6)
C24 C 0.5641(7) 0.8755(7) 0.6764(6)
C25 C 0.5476(9) 0.4587(7) 0.7645(7)
C26 C 0.3112(9) 1.0551(6) 0.9307(6)
C27 C 0.2555(8) 0.8033(8) 1.0826(6)
C28 C 0.5601(9) 0.6648(6) 0.7224(6)
N25 N 0.4057(6) 0.7271(9) 0.6383(5)
C29 C 0.3071(7) 1.0475(5) 0.7755(6)
O13 O 0.0241(6) 0.8269(5) 0.7245(5)
N26 N 0.2201(8) 0.8669(7) 0.5624(6)
C30 C 0.4773(8) 0.6460(7) 0.9080(5)
C31 C 0.0975(9) 0.7462(9) 0.8789(5)
C32 C 0.1877(11) 0.9233(12) 0.5678(6)
N27 N 0.5378(7) 0.7843(6) 1.0232(5)
O14 O 0.6539(6) 0.8246(5) 0.6386(5)
C33 C 0.5578(7) 0.7061(7) 0.8638(5)
N28 N 0.4981(7) 0.8908(6) 1.0532(5)
C34 C 0.5146(8) 1.0473(6) 0.8030(6)
C35 C 0.5116(9) 0.8332(6) 0.8754(6)
C36 C 0.3611(11) 0.4396(7) 0.8520(6)
C37 C 0.2394(9) 0.9289(9) 0.6993(7)
C38 C 0.3854(11) 0.5326(7) 0.8297(7)
C39 C 0.5687(8) 0.6484(7) 0.8633(6)
O15 O 0.4176(8) 0.6835(6) 0.4776(5)
O16 O 0.4161(6) 0.9057(6) 0.5947(5)
C40 C 0.1662(8) 0.8254(7) 0.9608(5)
O17 O 0.0101(7) 1.0430(7) 0.6402(5)
C41 C 0.3465(11) 0.5027(7) 0.8520(6)
C42 C 0.5056(9) 1.1113(7) 0.7703(6)
N29 N 0.4680(10) 0.7114(5) 1.0418(5)
C43 C 0.3883(9) 0.5426(6) 0.9738(6)
N30 N 0.4203(6) 0.6297(8) 0.6462(5)
C44 C 0.2223(10) 0.9922(9) 0.6874(6)
C45 C 0.5900(7) 0.7699(7) 0.6860(6)
C46 C 0.1362(7) 0.9896(9) 0.7438(6)
C47 C 0.1417(10) 0.6965(9) 0.8814(7)
O18 O 0.3024(6) 0.8845(6) 0.5135(4)
O19 O 0.5500(6) 0.6349(6) 1.0327(5)
C48 C 0.2908(10) 0.5716(7) 1.0097(7)
C49 C 0.3657(11) 0.7055(10) 0.5035(8)
N31 N 0.1795(9) 0.6835(9) 0.7183(5)
C50 C 0.4386(10) 0.5090(7) 0.8075(6)
C51 C 0.5286(10) 0.5197(7) 0.7644(7)
C52 C 0.2613(13) 0.4383(8) 0.8958(8)
O20 O 0.2191(9) 0.7226(7) 1.1399(5)
C53 C 0.3145(14) 0.7040(10) 1.0957(7)
C54 C 0.4676(7) 0.9249(6) 0.7203(6)
C55 C 0.4562(8) 0.9976(6) 0.8626(6)
C56 C 0.2355(9) 0.6162(7) 1.0188(7)
C57 C 0.3239(10) 0.9227(10) 0.6469(8)
C58 C 0.1398(8) 0.6408(9) 0.9051(6)
C59 C 0.3641(11) 0.7231(7) 1.0684(6)
C60 C 0.1561(8) 0.9262(8) 0.7546(6)
C61 C 0.5222(8) 0.7170(6) 0.7318(6)
C62 C 0.1593(9) 0.9308(7) 0.9145(6)
C63 C 0.3905(9) 0.4811(6) 0.9933(7)
C64 C 0.1931(9) 0.7245(8) 0.9949(6)
C65 C 0.0357(7) 0.9363(10) 0.6676(7)
N32 N 0.3590(10) 0.5496(7) 0.6877(6)
C66 C 0.0995(9) 0.7844(10) 1.0178(7)
C67 C 0.1368(9) 1.1494(6) 0.8198(8)
C68 C 0.2854(11) 0.8857(8) 1.0215(6)
C69 C 0.6143(8) 0.6663(7) 0.6952(7)
C70 C 0.1107(7) 0.8351(7) 0.9868(6)
C71 C 0.4394(10) 0.5570(7) 0.9464(6)
N33 N 0.0729(9) 0.7693(13) 0.5736(7)
O21 O 0.5004(8) 0.5584(7) 0.6257(6)
O22 O 0.6120(7) 0.5429(4) 0.7156(6)
C72 C 0.4212(9) 0.7777(9) 0.6216(6)
C73 C 0.6007(9) 0.8296(8) 0.6626(7)
C74 C 0.5309(8) 0.6165(6) 0.8856(6)
C75 C 0.0774(11) 0.8838(11) 0.6640(7)
C76 C 0.5650(10) 0.5600(9) 0.7397(6)
C77 C 0.0842(9) 0.6980(13) 0.7610(7)
O23 O 0.0328(6) 0.9564(6) 0.8098(5)
C78 C 0.3772(10) 0.8884(9) 0.6239(7)
O24 O 0.5036(6) 0.8556(5) 1.0963(5)
N34 N 0.1790(11) 0.6895(7) 0.5818(5)
C79 C 0.4936(11) 0.6789(9) 0.5994(7)
C80 C 0.0043(9) 0.8512(9) 0.8763(7)
C81 C 0.0189(14) 0.8149(13) 0.5751(8)
C82 C 0.3135(11) 0.9881(9) 0.6320(6)
C83 C 0.5473(7) 0.8817(7) 1.0170(6)
O25 O 0.2368(7) 0.4983(6) 0.7513(5)
C84 C 0.2881(10) 0.5106(7) 1.0284(7)
C85 C 0.5144(11) 0.4228(8) 0.7843(7)
C86 C 0.4198(13) 0.6874(8) 1.0614(6)
C87 C 0.1890(10) 0.6271(11) 0.7402(7)
C88 C 0.4724(12) 0.7814(10) 0.5940(7)
O26 O 0.6998(7) 0.7433(7) 0.9425(7)
C89 C 0.4402(9) 0.6767(10) 0.6276(6)
C90 C -0.0017(8) 0.7984(12) 0.9042(7)
C91 C 0.3494(10) 0.7678(11) 0.5035(6)
O27 O 0.1372(9) 0.6157(7) 0.6191(6)
C92 C 0.2662(12) 0.5338(9) 0.7292(8)
C93 C 0.1369(9) 0.9287(10) 0.6006(8)
C94 C 0.2538(13) 0.5016(9) 0.8919(8)
C95 C 0.0410(10) 0.6845(12) 0.9343(7)
C96 C 0.1718(11) 1.0195(8) 0.7103(10)
C97 C 0.3163(14) 0.4094(8) 0.8741(8)
C98 C 0.0434(10) 0.7430(9) 0.9063(7)
C99 C 0.5115(8) 0.7314(12) 0.5821(7)
O28 O -0.0524(7) 0.7903(7) 0.9351(6)
C100 C 0.2921(11) 0.7862(10) 0.5305(8)
O29 O 0.0683(8) 0.9368(7) 0.4927(7)
C101 C 0.2645(15) 0.7441(11) 1.1055(8)
C102 C 0.0711(11) 0.8256(10) 0.6981(7)
C103 C 0.0951(13) 0.9868(11) 0.6058(8)
C104 C 0.2710(11) 0.8498(10) 0.5349(7)
C105 C -0.0351(14) 0.9233(13) 0.5458(9)
C106 C 0.6288(8) 0.7193(8) 0.6774(6)
C107 C 0.5588(9) 0.7318(11) 1.0152(6)
C108 C 0.2746(13) 0.6955(12) 0.5482(8)
C109 C 0.6243(10) 0.8120(8) 0.9765(9)
C110 C 0.0687(12) 0.9082(12) 0.8132(6)
C111 C 0.1500(12) 0.5997(10) 0.7745(8)
C112 C 0.2636(10) 1.0194(9) 0.6533(8)
C113 C 0.5737(8) 0.9240(7) 0.9956(7)
C114 C 0.3295(15) 0.6717(11) 0.5272(7)
C115 C 0.2016(11) 0.9786(12) 0.5404(6)
N35 N 0.2583(8) 0.7518(10) 0.5490(5)
C116 C 0.6138(14) 0.7112(9) 0.9911(9)
C117 C 0.4341(13) 0.6212(7) 1.0822(8)
C118 C 0.0277(18) 0.7075(11) 0.6336(11)
C119 C 0.4169(11) 0.4148(7) 0.8310(8)
C120 C 0.2586(13) 0.5981(11) 0.5705(8)
O30 O 0.1542(7) 0.5119(6) 0.9343(6)
C121 C 0.3763(15) 0.6074(9) 1.1072(7)
C122 C 0.3264(12) 0.5114(10) 0.7071(7)
C123 C 0.0467(10) 0.9864(12) 0.6394(8)
C124 C 0.5815(10) 0.3377(6) 0.7630(10)
C125 C 0.6233(10) 0.9138(9) 0.9636(10)
C126 C 0.5710(10) 0.8232(8) 1.0046(8)
C127 C 0.1258(11) 0.7214(10) 0.7274(7)
C128 C 0.2869(10) 1.1115(9) 0.6129(10)
O31 O -0.0703(9) 0.7440(11) 0.6671(7)
O32 O 0.0790(9) 0.8496(9) 0.4781(7)
C129 C 0.3452(15) 0.4512(10) 0.7066(9)
C130 C 0.6699(9) 0.8776(9) 0.6163(11)
C131 C 0.4142(13) 0.5318(11) 0.6644(9)
N36 N 0.0610(9) 0.8923(15) 0.5006(7)
C132 C 0.1084(10) 1.0383(12) 0.5800(9)
C133 C 0.0952(11) 0.6409(12) 0.7817(7)
C134 C 0.0122(14) 0.8736(16) 0.5426(9)
C135 C -0.0227(15) 0.749(2) 0.6365(9)
C136 C 0.5621(10) 1.1086(9) 0.7327(8)
C137 C 0.2884(11) 0.3195(7) 0.8865(10)
C138 C 0.6452(9) 0.7487(11) 0.9724(8)
C139 C -0.0707(12) 1.1121(9) 0.6757(8)
C140 C 0.4504(9) 0.7218(9) 0.4498(10)
C141 C 0.1946(12) 0.5346(10) 0.9115(7)
C142 C -0.0400(10) 1.0496(12) 0.6751(8)
C143 C 0.4459(9) 1.1377(6) 0.7369(7)
C144 C 0.3420(12) 0.4664(8) 1.0197(7)
C145 C 0.5778(12) 0.2757(8) 0.7597(10)
C146 C 0.1580(14) 1.0348(10) 0.5473(8)
C147 C 0.316(2) 0.5738(11) 0.5507(9)
C148 C 0.5819(11) 0.2373(8) 0.8150(9)
C149 C 0.4470(12) 0.5739(12) 0.6435(7)
C150 C 0.2386(12) 0.6615(10) 0.5676(8)
C151 C 0.5251(12) 0.6851(8) 1.0310(7)
C152 C 0.0713(16) 0.7159(12) 0.6045(9)
C153 C 0.6510(9) 0.8572(13) 0.9547(9)
C154 C 0.4000(17) 0.4319(10) 0.6846(11)
C155 C -0.0247(17) 0.8062(16) 0.6044(11)
C156 C 0.4360(11) 0.4727(13) 0.6598(8)
C157 C 0.5437(11) 0.6354(12) 0.4561(9)
C158 C -0.0989(10) 0.8488(11) 0.9420(11)
C159 C 0.0854(11) 0.6372(10) 0.9355(8)
C160 C 0.1305(17) 0.6688(19) 0.6018(8)
C161 C -0.0186(16) 1.1342(11) 0.6957(14)
C162 C 0.5020(11) 0.6834(12) 0.4179(10)
C163 C 0.7331(16) 0.8628(14) 0.5909(13)
C164 C 0.2572(13) 1.1788(11) 0.6160(17)
C165 C 0.1648(14) 0.7716(13) 1.1566(11)
C166 C 0.3107(14) 0.2630(10) 0.8696(11)
C167 C 0.5375(14) 0.7272(15) 0.3911(14)
C168 C 0.1284(17) 0.7315(16) 1.2011(10)
C169 C 0.0646(16) 1.2504(10) 0.799(2)
C170 C 0.3257(15) 0.6419(14) 1.1141(11)
C171 C 0.3458(12) 0.6061(11) 0.5295(8)
C172 C -0.0816(17) 0.861(2) 0.6096(11)
C173 C -0.0804(11) 0.9118(18) 0.5776(11)
C174 C 0.8123(12) 0.6015(8) 0.9268(15)
C175 C -0.1252(10) 1.1154(12) 0.7145(9)
C176 C 0.7268(13) 0.6754(13) 0.9461(13)
C177 C 0.2717(18) 0.2253(10) 0.8908(14)
C178 C 0.7954(12) 0.6666(11) 0.9363(19)
C179 C 0.1034(13) 0.6970(14) 1.1726(11)
C180 C -0.1306(16) 0.8256(14) 0.9930(15)
C181 C 0.1925(11) 1.1981(11) 0.5844(13)
C182 C 0.3254(18) 0.2695(12) 0.8120(16)
C183 C 0.3013(13) 1.2149(14) 0.5843(15)
C184 C -0.1925(16) 0.875(3) 0.9865(15)
C185 C 0.1274(12) 1.2161(8) 0.7816(11)
C186 C 0.6346(15) 0.2501(9) 0.7320(12)
C187 C 0.8373(19) 0.673(4) 0.982(3)
C188 C 0.1127(17) 1.2089(12) 0.7260(14)
C189 C 0.177(2) 0.702(2) 1.2492(17)
C190 C 0.742(3) 0.920(3) 0.5592(17)
C191 C 0.744(3) 0.816(4) 0.565(2)
C192 C -0.095(3) 0.792(3) 1.0492(17)
C193 C -0.0667(13) 0.683(2) 0.7030(13)
C194 C -0.127(3) 0.687(2) 0.735(4)
C195 C -0.119(2) 0.626(2) 0.7745(18)
H1 H 0.4222 0.8768 0.7604
H2 H 0.2220 0.8609 0.9114
H3 H 0.4474 0.8004 0.9080
H4 H 0.1446 0.8556 0.8005
H5 H 0.3635 0.8634 0.9848
H6 H 0.5057 0.6218 0.7621
H7 H 0.2698 0.6766 0.9773
H8 H 0.5281 0.9377 0.8406
H9 H 0.1524 0.7855 0.6834
H10 H 0.2684 1.0043 0.9853
H11 H 0.3515 0.8199 0.6556
H12 H 0.2245 0.6004 0.9011
H13 H 0.3817 1.0329 0.7310
H14 H 0.4030 0.6399 0.9437
H15 H 0.3658 1.0902 0.8808
H16 H 0.1255 0.6995 1.0440
H17 H 0.2706 0.6122 0.7107
H18 H 0.1404 1.0458 0.8747
H19 H 0.5723 0.9118 0.6656
H20 H 0.5852 0.4435 0.7499
H21 H 0.2832 1.0912 0.9318
H22 H 0.2201 0.8319 1.0880
H23 H 0.2985 1.0885 0.7668
H24 H 0.2055 0.8389 0.5792
H25 H 0.5850 0.7277 0.8501
H26 H 0.5135 1.0221 0.7782
H27 H 0.5543 1.0321 0.8243
H28 H 0.6036 0.6302 0.8469
H29 H 0.5082 1.1356 0.7961
H30 H 0.4588 0.7493 1.0359
H31 H 0.3859 0.6360 0.6621
H32 H 0.1010 1.0096 0.7586
H33 H 0.2325 0.4192 0.9112
H34 H 0.4250 0.4516 0.9878
H35 H 0.0014 0.9372 0.6887
H36 H 0.0631 0.7886 1.0363
H37 H 0.1355 1.1499 0.8585
H38 H 0.1043 1.1335 0.8102
H39 H 0.6407 0.6316 0.6889
H40 H 0.0834 0.8727 0.9835
H41 H 0.5398 0.5765 0.8862
H42 H 0.0478 0.7237 0.7688
H43 H 0.1714 0.7271 0.5769
H44 H 0.5185 0.6443 0.5917
H45 H -0.0252 0.8872 0.8754
H46 H 0.3394 1.0059 0.6096
H47 H 0.2538 0.5013 1.0448
H48 H 0.4811 0.8175 0.5832
H49 H 0.3727 0.7930 0.4882
H50 H 0.0055 0.6810 0.9524
H51 H 0.1602 1.0605 0.7033
H52 H 0.5474 0.7321 0.5638
H53 H -0.0356 0.9614 0.5275
H54 H 0.6651 0.7200 0.6597
H55 H 0.1598 0.5593 0.7902
H56 H 0.5580 0.9613 1.0025
H57 H 0.2361 0.9782 0.5197
H58 H 0.6278 0.6721 0.9883
H59 H 0.4717 0.5934 1.0801
H60 H 0.0315 0.6693 0.6542
H61 H 0.4276 0.3747 0.8319
H62 H 0.2337 0.5744 0.5854
H63 H 0.3794 0.5674 1.1190
H64 H 0.6174 0.3341 0.7864
H65 H 0.5850 0.3610 0.7266
H66 H 0.6389 0.9449 0.9474
H67 H 0.2881 1.1082 0.5749
H68 H 0.3287 1.0960 0.6302
H69 H 0.3213 0.4261 0.7205
H70 H 0.6720 0.8978 0.6452
H71 H 0.6382 0.9036 0.5883
H72 H 0.0843 1.0747 0.5846
H73 H 0.0651 0.6275 0.8019
H74 H 0.6003 1.0920 0.7553
H75 H 0.5600 1.1478 0.7121
H76 H 0.5604 1.0843 0.7076
H77 H 0.2482 0.3422 0.8676
H78 H 0.2835 0.3117 0.9259
H79 H -0.0865 1.1350 0.6383
H80 H 0.4700 0.7366 0.4758
H81 H 0.4226 0.7551 0.4239
H82 H -0.0246 1.0275 0.7124
H83 H -0.0705 1.0329 0.6630
H84 H 0.4431 1.1776 0.7179
H85 H 0.4123 1.1378 0.7607
H86 H 0.4436 1.1150 0.7106
H87 H 0.3441 0.4266 1.0322
H88 H 0.5398 0.2786 0.7385
H89 H 0.1648 1.0701 0.5283
H90 H 0.3303 0.5333 0.5537
H91 H 0.5460 0.2524 0.8339
H92 H 0.6187 0.2362 0.8353
H93 H 0.5838 0.1980 0.8121
H94 H 0.6862 0.8500 0.9348
H95 H 0.4155 0.3919 0.6852
H96 H 0.4717 0.4599 0.6417
H97 H 0.5218 0.6081 0.4737
H98 H 0.5605 0.6501 0.4833
H99 H 0.5769 0.6155 0.4368
H100 H -0.0775 0.8765 0.9485
H101 H -0.1282 0.8673 0.9102
H102 H 0.0826 0.6008 0.9557
H103 H -0.0351 1.1750 0.6967
H104 H 0.0142 1.1303 0.6709
H105 H -0.0025 1.1110 0.7320
H106 H 0.4830 0.6697 0.3902
H107 H 0.7640 0.8489 0.6223
H108 H 0.2537 1.1824 0.6542
H109 H 0.1373 0.7958 1.1248
H110 H 0.1809 0.7968 1.1740
H111 H 0.3509 0.2431 0.8904
H112 H 0.5099 0.7597 0.3650
H113 H 0.5715 0.7075 0.3724
H114 H 0.5534 0.7417 0.4190
H115 H 0.0935 0.7589 1.2140
H116 H 0.0702 1.2561 0.8354
H117 H 0.0352 1.2282 0.7996
H118 H 0.0492 1.2881 0.7736
H119 H 0.2950 0.6269 1.1316
H120 H 0.3818 0.5895 0.5134
H121 H -0.1131 0.8572 0.6332
H122 H -0.1151 0.9437 0.5770
H123 H 0.8538 0.5909 0.9149
H124 H 0.7836 0.6001 0.8991
H125 H 0.8097 0.5742 0.9607
H126 H -0.1546 1.0984 0.7018
H127 H -0.1454 1.1560 0.7144
H128 H -0.1093 1.0938 0.7513
H129 H 0.2691 0.2217 0.9297
H130 H 0.2894 0.1868 0.8839
H131 H 0.2308 0.2424 0.8726
H132 H 0.7990 0.6940 0.9017
H133 H 0.0759 0.7229 1.1420
H134 H 0.0808 0.6752 1.1973
H135 H 0.1367 0.6701 1.1593
H136 H -0.1438 0.7943 0.9821
H137 H 0.1682 1.1729 0.6018
H138 H 0.1977 1.1949 0.5469
H139 H 0.1715 1.2383 0.5848
H140 H 0.3452 0.2312 0.8056
H141 H 0.3528 0.2939 0.8039
H142 H 0.2878 0.2876 0.7887
H143 H 0.3411 1.2022 0.6044
H144 H 0.2829 1.2563 0.5813
H145 H 0.3066 1.2077 0.5481
H146 H -0.2177 0.8653 1.0163
H147 H -0.2142 0.8792 0.9521
H148 H -0.1843 0.9117 0.9872
H149 H 0.1619 1.2329 0.7843
H150 H 0.6330 0.2739 0.6952
H151 H 0.6363 0.2105 0.7303
H152 H 0.6710 0.2494 0.7525
H153 H 0.8793 0.6659 0.9710
H154 H 0.8360 0.6448 1.0155
H155 H 0.8228 0.7123 0.9876
H156 H 0.1497 1.1870 0.7125
H157 H 0.0969 1.2472 0.7012
H158 H 0.0819 1.1880 0.7284
H159 H 0.1893 0.7312 1.2627
H160 H 0.2131 0.6764 1.2369
H161 H 0.1603 0.6783 1.2782
H162 H 0.7379 0.9469 0.5829
H163 H 0.7120 0.9374 0.5285
H164 H 0.7834 0.9128 0.5458
H165 H 0.7342 0.7828 0.5896
H166 H 0.7863 0.8043 0.5567
H167 H 0.7172 0.8277 0.5319
H168 H -0.1228 0.7789 1.0746
H169 H -0.0774 0.8183 1.0635
H170 H -0.0620 0.7588 1.0445
H171 H -0.0303 0.6686 0.7286
H172 H -0.0633 0.6547 0.6800
Cl30? Cl 0.9089(5) 0.7916(5) 0.8080(5)
Cl31? Cl 0.7332(10) 0.5953(9) 0.7905(9)
Cl32? Cl 0.7549(12) 0.4734(11) 0.8318(11)
Cl33? Cl 0.7886(10) 0.4409(9) 0.7923(9)
Cl34? Cl 0.0258(14) 0.6469(12) 0.0821(11)
Cl35? Cl 0.0999(10) 0.9719(9) 0.1494(9)
Cl36? Cl 0.7677(12) 0.5704(10) 0.7583(11)
Cl37? Cl 0.5398(7) 0.8919(6) 0.5152(6)
Cl38? Cl 0.5359(18) 0.9683(13) 0.4328(19)
Cl39? Cl 0.263(4) 0.423(4) 0.5754(18)
Cl40? Cl 0.016(4) 0.577(3) 0.1850(14)
Cl41? Cl 0.5056(12) 0.8874(10) 0.3910(11)
loop_
_geom_bond_atom_site_label_1
_geom_bond_atom_site_label_2
_geom_bond_site_symmetry_1
_geom_bond_site_symmetry_2
F1 C61 1_555 1_555
F2 C5 1_555 1_555
F3 C16 1_555 1_555
N1 C2 1_555 1_555
N2 C10 1_555 1_555
F4 C38 1_555 1_555
N3 C3 1_555 1_555
F5 C47 1_555 1_555
O1 C34 1_555 1_555
N4 C40 1_555 1_555
C1 C3 1_555 1_555
N5 C17 1_555 1_555
N6 C9 1_555 1_555
N7 C40 1_555 1_555
O2 C22 1_555 1_555
C2 C4 1_555 1_555
C3 C6 1_555 1_555
N8 C60 1_555 1_555
N9 C6 1_555 1_555
N10 C28 1_555 1_555
N11 C56 1_555 1_555
O3 C68 1_555 1_555
C4 C22 1_555 1_555
N12 C50 1_555 1_555
C5 C2 1_555 1_555
C6 C11 1_555 1_555
C7 N3 1_555 1_555
N13 C17 1_555 1_555
C8 C7 1_555 1_555
N14 C18 1_555 1_555
O4 C35 1_555 1_555
N15 C102 1_555 1_555
O5 C54 1_555 1_555
C9 C24 1_555 1_555
N16 C15 1_555 1_555
O6 C71 1_555 1_555
O7 C97 1_555 1_555
N17 C37 1_555 1_555
N18 C43 1_555 1_555
O8 C85 1_555 1_555
C10 C5 1_555 1_555
O9 C62 1_555 1_555
N19 C75 1_555 1_555
C11 C26 1_555 1_555
O10 C56 1_555 1_555
C12 N1 1_555 1_555
N20 C72 1_555 1_555
O11 N28 1_555 1_555
N21 C58 1_555 1_555
C13 N6 1_555 1_555
C14 C10 1_555 1_555
C15 C80 1_555 1_555
C16 C37 1_555 1_555
C17 C33 1_555 1_555
N22 C30 1_555 1_555
C18 C27 1_555 1_555
C19 C1 1_555 1_555
C20 C50 1_555 1_555
O12 C112 1_555 1_555
N23 C41 1_555 1_555
C21 C64 1_555 1_555
C22 C23 1_555 1_555
N24 C87 1_555 1_555
C23 C12 1_555 1_555
C24 C73 1_555 1_555
C25 C51 1_555 1_555
C26 C19 1_555 1_555
C27 C101 1_555 1_555
C28 C61 1_555 1_555
N25 C72 1_555 1_555
C29 C4 1_555 1_555
O13 C102 1_555 1_555
N26 C32 1_555 1_555
C30 N13 1_555 1_555
C31 N16 1_555 1_555
C32 C93 1_555 1_555
N27 C107 1_555 1_555
O14 C73 1_555 1_555
C33 C39 1_555 1_555
N28 O24 1_555 1_555
C34 C42 1_555 1_555
C35 N5 1_555 1_555
C36 C41 1_555 1_555
C37 C44 1_555 1_555
C38 C41 1_555 1_555
C39 C74 1_555 1_555
O15 C49 1_555 1_555
O16 C78 1_555 1_555
C40 C70 1_555 1_555
O17 C123 1_555 1_555
C42 C136 1_555 1_555
N29 C86 1_555 1_555
C43 C63 1_555 1_555
N30 C89 1_555 1_555
C44 C96 1_555 1_555
C45 C13 1_555 1_555
C46 C60 1_555 1_555
C47 C31 1_555 1_555
O18 C104 1_555 1_555
O19 C151 1_555 1_555
C48 N18 1_555 1_555
C49 C91 1_555 1_555
N31 C87 1_555 1_555
C50 C38 1_555 1_555
C51 N12 1_555 1_555
C52 C94 1_555 1_555
O20 C101 1_555 1_555
C53 C59 1_555 1_555
C54 N2 1_555 1_555
C55 O1 1_555 1_555
C56 C48 1_555 1_555
C57 N17 1_555 1_555
C58 C47 1_555 1_555
C59 N14 1_555 1_555
C60 C16 1_555 1_555
C61 C13 1_555 1_555
C62 N4 1_555 1_555
C63 C144 1_555 1_555
C64 N7 1_555 1_555
C65 C75 1_555 1_555
N32 C122 1_555 1_555
C66 C21 1_555 1_555
C67 O2 1_555 1_555
C68 N9 1_555 1_555
C69 C28 1_555 1_555
C70 C66 1_555 1_555
C71 N22 1_555 1_555
N33 C81 1_555 1_555
O21 C149 1_555 1_555
O22 C76 1_555 1_555
C72 C88 1_555 1_555
C73 C45 1_555 1_555
C74 C30 1_555 1_555
C75 C102 1_555 1_555
C76 N10 1_555 1_555
C77 C127 1_555 1_555
O23 C110 1_555 1_555
C78 N20 1_555 1_555
N34 C150 1_555 1_555
C79 C89 1_555 1_555
C80 C90 1_555 1_555
C81 C134 1_555 1_555
C82 C57 1_555 1_555
C83 N28 1_555 1_555
O25 C92 1_555 1_555
C84 C48 1_555 1_555
C85 C20 1_555 1_555
C86 C59 1_555 1_555
C87 C111 1_555 1_555
C88 C99 1_555 1_555
O26 C138 1_555 1_555
C89 N25 1_555 1_555
C90 C98 1_555 1_555
C91 C100 1_555 1_555
O27 C160 1_555 1_555
C92 N24 1_555 1_555
C93 N19 1_555 1_555
C94 N23 1_555 1_555
C95 C98 1_555 1_555
C96 C46 1_555 1_555
C97 C36 1_555 1_555
C98 C31 1_555 1_555
C99 C79 1_555 1_555
O28 C90 1_555 1_555
C100 C104 1_555 1_555
O29 N36 1_555 1_555
C101 C53 1_555 1_555
C103 C93 1_555 1_555
C104 N26 1_555 1_555
C105 C134 1_555 1_555
C106 C45 1_555 1_555
C107 C116 1_555 1_555
C108 C114 1_555 1_555
C109 C126 1_555 1_555
C110 N8 1_555 1_555
C111 C133 1_555 1_555
C112 C44 1_555 1_555
C113 C83 1_555 1_555
C114 C49 1_555 1_555
C115 C32 1_555 1_555
N35 C100 1_555 1_555
C116 C138 1_555 1_555
C117 C86 1_555 1_555
C118 C135 1_555 1_555
C119 C20 1_555 1_555
C120 C147 1_555 1_555
O30 C141 1_555 1_555
C121 C117 1_555 1_555
C122 C92 1_555 1_555
C123 C65 1_555 1_555
C124 O8 1_555 1_555
C125 C113 1_555 1_555
C126 N27 1_555 1_555
C127 N15 1_555 1_555
C128 O12 1_555 1_555
O31 C135 1_555 1_555
O32 N36 1_555 1_555
C129 C122 1_555 1_555
C130 O14 1_555 1_555
C131 N32 1_555 1_555
N36 C134 1_555 1_555
C132 C103 1_555 1_555
C133 C77 1_555 1_555
C135 C155 1_555 1_555
C136 H74 1_555 1_555
C137 O7 1_555 1_555
C138 C109 1_555 1_555
C139 C142 1_555 1_555
C140 O15 1_555 1_555
C141 N21 1_555 1_555
C142 O17 1_555 1_555
C143 C42 1_555 1_555
C144 C84 1_555 1_555
C145 C124 1_555 1_555
C146 C115 1_555 1_555
C147 C171 1_555 1_555
C148 C145 1_555 1_555
C149 N30 1_555 1_555
C150 C108 1_555 1_555
C151 N29 1_555 1_555
C152 N33 1_555 1_555
C153 C109 1_555 1_555
C154 C129 1_555 1_555
C155 C81 1_555 1_555
C156 C131 1_555 1_555
C157 C162 1_555 1_555
C158 O28 1_555 1_555
C159 C58 1_555 1_555
C160 N34 1_555 1_555
C161 C139 1_555 1_555
C162 C140 1_555 1_555
C163 C130 1_555 1_555
C164 C128 1_555 1_555
C165 O20 1_555 1_555
C166 C137 1_555 1_555
C167 C162 1_555 1_555
C168 C165 1_555 1_555
C169 C185 1_555 1_555
C170 C53 1_555 1_555
C171 C114 1_555 1_555
C172 C155 1_555 1_555
C173 C105 1_555 1_555
C174 C178 1_555 1_555
C175 C139 1_555 1_555
C176 O26 1_555 1_555
C177 C166 1_555 1_555
C178 C176 1_555 1_555
C179 C168 1_555 1_555
C180 C158 1_555 1_555
C181 C164 1_555 1_555
C182 C166 1_555 1_555
C183 C164 1_555 1_555
C184 C180 1_555 1_555
C185 C67 1_555 1_555
C186 C145 1_555 1_555
C187 C178 1_555 1_555
C188 C185 1_555 1_555
C189 C168 1_555 1_555
C190 C163 1_555 1_555
C191 C163 1_555 1_555
C192 C180 1_555 1_555
C193 O31 1_555 1_555
C194 C193 1_555 1_555
C195 C194 1_555 1_555
H1 N2 1_555 1_555
H2 N4 1_555 1_555
H3 N5 1_555 1_555
H4 N8 1_555 1_555
H5 N9 1_555 1_555
H6 N10 1_555 1_555
H7 N11 1_555 1_555
H8 C8 1_555 1_555
H9 N15 1_555 1_555
H10 C11 1_555 1_555
H11 N20 1_555 1_555
H12 N21 1_555 1_555
H13 C14 1_555 1_555
H14 N22 1_555 1_555
H15 C19 1_555 1_555
H16 C21 1_555 1_555
H17 N24 1_555 1_555
H18 C23 1_555 1_555
H19 C24 1_555 1_555
H20 C25 1_555 1_555
H21 C26 1_555 1_555
H22 C27 1_555 1_555
H23 C29 1_555 1_555
H24 N26 1_555 1_555
H25 C33 1_555 1_555
H26 C34 1_555 1_555
H27 C34 1_555 1_555
H28 C39 1_555 1_555
H29 C42 1_555 1_555
H30 N29 1_555 1_555
H31 N30 1_555 1_555
H32 C46 1_555 1_555
H33 C52 1_555 1_555
H34 C63 1_555 1_555
H35 C65 1_555 1_555
H36 C66 1_555 1_555
H37 C67 1_555 1_555
H38 C67 1_555 1_555
H39 C69 1_555 1_555
H40 C70 1_555 1_555
H41 C74 1_555 1_555
H42 C77 1_555 1_555
H43 N34 1_555 1_555
H44 C79 1_555 1_555
H45 C80 1_555 1_555
H46 C82 1_555 1_555
H47 C84 1_555 1_555
H48 C88 1_555 1_555
H49 C91 1_555 1_555
H50 C95 1_555 1_555
H51 C96 1_555 1_555
H52 C99 1_555 1_555
H53 C105 1_555 1_555
H54 C106 1_555 1_555
H55 C111 1_555 1_555
H56 C113 1_555 1_555
H57 C115 1_555 1_555
H58 C116 1_555 1_555
H59 C117 1_555 1_555
H60 C118 1_555 1_555
H61 C119 1_555 1_555
H62 C120 1_555 1_555
H63 C121 1_555 1_555
H64 C124 1_555 1_555
H65 C124 1_555 1_555
H66 C125 1_555 1_555
H67 C128 1_555 1_555
H68 C128 1_555 1_555
H69 C129 1_555 1_555
H70 C130 1_555 1_555
H71 C130 1_555 1_555
H72 C132 1_555 1_555
H73 C133 1_555 1_555
H75 C136 1_555 1_555
H76 C136 1_555 1_555
H77 C137 1_555 1_555
H78 C137 1_555 1_555
H79 C139 1_555 1_555
H80 C140 1_555 1_555
H81 C140 1_555 1_555
H82 C142 1_555 1_555
H83 C142 1_555 1_555
H84 C143 1_555 1_555
H85 C143 1_555 1_555
H86 C143 1_555 1_555
H87 C144 1_555 1_555
H88 C145 1_555 1_555
H89 C146 1_555 1_555
H90 C147 1_555 1_555
H91 C148 1_555 1_555
H92 C148 1_555 1_555
H93 C148 1_555 1_555
H94 C153 1_555 1_555
H95 C154 1_555 1_555
H96 C156 1_555 1_555
H97 C157 1_555 1_555
H98 C157 1_555 1_555
H99 C157 1_555 1_555
H100 C158 1_555 1_555
H101 C158 1_555 1_555
H102 C159 1_555 1_555
H103 C161 1_555 1_555
H104 C161 1_555 1_555
H105 C161 1_555 1_555
H106 C162 1_555 1_555
H107 C163 1_555 1_555
H108 C164 1_555 1_555
H109 C165 1_555 1_555
H110 C165 1_555 1_555
H111 C166 1_555 1_555
H112 C167 1_555 1_555
H113 C167 1_555 1_555
H114 C167 1_555 1_555
H115 C168 1_555 1_555
H116 C169 1_555 1_555
H117 C169 1_555 1_555
H118 C169 1_555 1_555
H119 C170 1_555 1_555
H120 C171 1_555 1_555
H121 C172 1_555 1_555
H122 C173 1_555 1_555
H123 C174 1_555 1_555
H124 C174 1_555 1_555
H125 C174 1_555 1_555
H126 C175 1_555 1_555
H127 C175 1_555 1_555
H128 C175 1_555 1_555
H129 C177 1_555 1_555
H130 C177 1_555 1_555
H131 C177 1_555 1_555
H132 C178 1_555 1_555
H133 C179 1_555 1_555
H134 C179 1_555 1_555
H135 C179 1_555 1_555
H136 C180 1_555 1_555
H137 C181 1_555 1_555
H138 C181 1_555 1_555
H139 C181 1_555 1_555
H140 C182 1_555 1_555
H141 C182 1_555 1_555
H142 C182 1_555 1_555
H143 C183 1_555 1_555
H144 C183 1_555 1_555
H145 C183 1_555 1_555
H146 C184 1_555 1_555
H147 C184 1_555 1_555
H148 C184 1_555 1_555
H149 C185 1_555 1_555
H150 C186 1_555 1_555
H151 C186 1_555 1_555
H152 C186 1_555 1_555
H153 C187 1_555 1_555
H154 C187 1_555 1_555
H155 C187 1_555 1_555
H156 C188 1_555 1_555
H157 C188 1_555 1_555
H158 C188 1_555 1_555
H159 C189 1_555 1_555
H160 C189 1_555 1_555
H161 C189 1_555 1_555
H162 C190 1_555 1_555
H163 C190 1_555 1_555
H164 C190 1_555 1_555
H165 C191 1_555 1_555
H166 C191 1_555 1_555
H167 C191 1_555 1_555
H168 C192 1_555 1_555
H169 C192 1_555 1_555
H170 C192 1_555 1_555
H171 C193 1_555 1_555
H172 C193 1_555 1_555
Cl1 C196 1_555 1_555
Cl2 C196 1_555 1_555
Cl3 C196 1_555 1_555
Cl4 C197 1_555 1_555
Cl5 C197 1_555 1_555
Cl6 C197 1_555 1_555
Cl7 C198 1_555 1_555
Cl8 C198 1_555 1_555
Cl9 C198 1_555 1_555
Cl10 C199 1_555 1_555
Cl11 C199 1_555 1_555
Cl12 C200 1_555 1_555
C200 Cl13 1_555 1_555
C201 Cl14 1_555 1_555
Cl15 C201 1_555 1_555
Cl16 C201 1_555 1_555
Cl17 C202 1_555 1_555
C202 Cl18 1_555 1_555
Cl19 C203 1_555 1_555
Cl20 C203 1_555 1_555
C203 Cl21 1_555 1_555
Cl22 C204 1_555 1_555
C204 Cl23 1_555 1_555
Cl24 C205 1_555 1_555
Cl25 C205 1_555 1_555
Cl26 C205 1_555 1_555
Cl27 C206 1_555 1_555
Cl28 C206 1_555 1_555
Cl29 C206 1_555 1_555
C1 C55 1_555 1_555
N11 C64 1_555 1_555
C7 C35 1_555 1_555
C8 C55 1_555 1_555
C9 C54 1_555 1_555
C12 C62 1_555 1_555
C14 C29 1_555 1_555
C15 C110 1_555 1_555
C18 C68 1_555 1_555
C25 C85 1_555 1_555
C36 C119 1_555 1_555
C43 C71 1_555 1_555
N31 C127 1_555 1_555
C51 C76 1_555 1_555
C52 C97 1_555 1_555
C57 C78 1_555 1_555
C69 C106 1_555 1_555
C82 C112 1_555 1_555
C83 C126 1_555 1_555
C94 C141 1_555 1_555
C95 C159 1_555 1_555
C103 C123 1_555 1_555
C107 C151 1_555 1_555
C108 N35 1_555 1_555
C118 C152 1_555 1_555
C120 C150 1_555 1_555
C121 C170 1_555 1_555
C125 C153 1_555 1_555
C131 C149 1_555 1_555
C132 C146 1_555 1_555
C152 C160 1_555 1_555
C154 C156 1_555 1_555
C172 C173 1_555 1_555

#END
