
#######################################################################
#
#                 Cambridge Crystallographic Data Centre
#                                CCDC 
#
#######################################################################
#
# If this CIF has been generated from an entry in the Cambridge 
# Structural Database, then it will include bibliographic, chemical, 
# crystal, experimental, refinement or atomic coordinate data resulting 
# from the CCDC's data processing and validation procedures.
#
#######################################################################

data_SOBYOA
_chemical_formula_moiety         'C20 H18 O3'
_chemical_name_systematic        
4-(1-hydroxyethylidene)-1,3-diphenylhex-2-ene-1,5-dione
_symmetry_cell_setting           monoclinic
_symmetry_space_group_name_H-M   'P 21/c'
_symmetry_Int_Tables_number      14
_space_group_name_Hall           '-P 2ybc'
loop_
_symmetry_equiv_pos_site_id
_symmetry_equiv_pos_as_xyz
1 x,y,z
2 -x,1/2+y,1/2-z
3 -x,-y,-z
4 x,1/2-y,1/2+z
_cell_length_a                   10.476(11)
_cell_length_b                   15.249(18)
_cell_length_c                   11.317(13)
_cell_angle_alpha                90
_cell_angle_beta                 116.28(3)
_cell_angle_gamma                90
_cell_volume                     1621.01
_exptl_crystal_colour            colorless
_exptl_crystal_description       block
_cell_formula_units_Z            4
loop_
_atom_site_label
_atom_site_type_symbol
_atom_site_fract_x
_atom_site_fract_y
_atom_site_fract_z
C1 C 0.1868(3) 0.48579(18) 0.2567(3)
H1 H 0.184431 0.487219 0.173567
C2 C 0.1150(3) 0.5450(2) 0.2953(4)
H2 H 0.061678 0.588656 0.236880
C3 C 0.1198(3) 0.5414(2) 0.4271(4)
H3 H 0.070003 0.583843 0.448668
C4 C 0.1938(3) 0.4789(2) 0.5206(4)
H4 H 0.194465 0.477557 0.603072
C5 C 0.2655(3) 0.4195(2) 0.4835(3)
H5 H 0.316787 0.375521 0.542282
C6 C 0.2648(2) 0.42232(16) 0.3520(3)
C7 C 0.3402(2) 0.35911(15) 0.30499(18)
C8 C 0.5157(3) 0.4441(2) 0.2014(4)
H6 H 0.494666 0.468699 0.268894
H7 H 0.541785 0.490177 0.158511
H8 H 0.593177 0.403374 0.240310
C9 C 0.3915(3) 0.39900(18) 0.1059(3)
C10 C 0.3139(2) 0.35933(15) 0.16204(17)
C11 C 0.1940(2) 0.31175(17) 0.0544(2)
C12 C 0.108(2) 0.2606(12) 0.098(2)
H9 H 0.024319 0.293144 0.084921
H10 H 0.161692 0.247593 0.190444
H11 H 0.080907 0.206855 0.049259
C13 C 0.4330(2) 0.30773(17) 0.4047(2)
H12 H 0.445820 0.315790 0.490711
C14 C 0.5108(3) 0.24058(17) 0.3740(2)
C15 C 0.6361(2) 0.21066(16) 0.4947(2)
C16 C 0.6980(3) 0.1373(2) 0.4758(3)
H13 H 0.665418 0.110416 0.393807
C17 C 0.8111(3) 0.1056(2) 0.5848(3)
H14 H 0.854668 0.054376 0.576349
C18 C 0.8667(3) 0.1474(2) 0.7123(3)
H15 H 0.945244 0.122990 0.782209
C19 C 0.8080(3) 0.2203(3) 0.7324(3)
H16 H 0.843140 0.247717 0.814161
C20 C 0.6926(3) 0.2518(2) 0.6245(3)
H17 H 0.647923 0.301999 0.634493
O1 O 0.3645(2) 0.39929(16) -0.0267(2)
H18 H 0.293469 0.369791 -0.069648
O2 O 0.1645(2) 0.31395(17) -0.07454(19)
O3 O 0.4750(2) 0.20834(14) 0.25708(19)
C21? C 0.119(2) 0.2620(11) 0.115(2)
H19? H 0.028184 0.243060 0.047337
H20? H 0.104026 0.298511 0.176624
H21? H 0.174194 0.211720 0.159338
loop_
_geom_bond_atom_site_label_1
_geom_bond_atom_site_label_2
_geom_bond_site_symmetry_1
_geom_bond_site_symmetry_2
C1 H1 1_555 1_555
C2 C1 1_555 1_555
H2 C2 1_555 1_555
C3 C2 1_555 1_555
H3 C3 1_555 1_555
C4 C3 1_555 1_555
H4 C4 1_555 1_555
C5 C4 1_555 1_555
H5 C5 1_555 1_555
C6 C1 1_555 1_555
C7 C6 1_555 1_555
C8 H6 1_555 1_555
H7 C8 1_555 1_555
H8 C8 1_555 1_555
C9 C8 1_555 1_555
C10 C7 1_555 1_555
C11 C10 1_555 1_555
C12 C11 1_555 1_555
H9 C12 1_555 1_555
H10 C12 1_555 1_555
H11 C12 1_555 1_555
C13 C7 1_555 1_555
H12 C13 1_555 1_555
C14 C13 1_555 1_555
C15 C14 1_555 1_555
C16 C15 1_555 1_555
H13 C16 1_555 1_555
C17 C16 1_555 1_555
H14 C17 1_555 1_555
C18 C17 1_555 1_555
H15 C18 1_555 1_555
C19 C18 1_555 1_555
H16 C19 1_555 1_555
C20 C15 1_555 1_555
H17 C20 1_555 1_555
O1 C9 1_555 1_555
H18 O1 1_555 1_555
O2 C11 1_555 1_555
O3 C14 1_555 1_555
C5 C6 1_555 1_555
C9 C10 1_555 1_555
C19 C20 1_555 1_555

#END
