
#######################################################################
#
#                 Cambridge Crystallographic Data Centre
#                                CCDC 
#
#######################################################################
#
# If this CIF has been generated from an entry in the Cambridge 
# Structural Database, then it will include bibliographic, chemical, 
# crystal, experimental, refinement or atomic coordinate data resulting 
# from the CCDC's data processing and validation procedures.
#
#######################################################################

data_SOCBIX
_chemical_formula_moiety         'C33 H23 N1 O1 S1'
_chemical_name_systematic        
2-(4-(Triphenylvinyl)phenyl)-1,3-benzothiazol-6-ol
_symmetry_cell_setting           monoclinic
_symmetry_space_group_name_H-M   'P 21/c'
_symmetry_Int_Tables_number      14
_space_group_name_Hall           '-P 2ybc'
loop_
_symmetry_equiv_pos_site_id
_symmetry_equiv_pos_as_xyz
1 x,y,z
2 -x,1/2+y,1/2-z
3 -x,-y,-z
4 x,1/2-y,1/2+z
_cell_length_a                   23.642(3)
_cell_length_b                   5.7597(6)
_cell_length_c                   19.018(3)
_cell_angle_alpha                90
_cell_angle_beta                 105.496(4)
_cell_angle_gamma                90
_cell_volume                     2495.56
_exptl_crystal_colour            colorless
_exptl_crystal_description       block
_cell_formula_units_Z            4
loop_
_atom_site_label
_atom_site_type_symbol
_atom_site_fract_x
_atom_site_fract_y
_atom_site_fract_z
S1 S 0.471731(19) 0.74401(7) 0.18505(2)
O1 O 0.63366(6) 0.9572(2) 0.05930(8)
N1 N 0.42797(6) 1.1463(2) 0.13483(7)
C1 C 0.58274(7) 1.0128(3) 0.07737(9)
C2 C 0.56174(7) 0.8521(3) 0.11829(9)
H1 H 0.5818 0.7105 0.1336
C3 C 0.50982(7) 0.9069(3) 0.13616(9)
C4 C 0.47960(7) 1.1173(3) 0.11405(9)
C5 C 0.50283(8) 1.2768(3) 0.07423(9)
H2 H 0.4834 1.4202 0.0595
C6 C 0.55449(8) 1.2244(3) 0.05638(9)
H3 H 0.5708 1.3331 0.0297
C7 C 0.41868(7) 0.9667(3) 0.17239(9)
C8 C 0.36848(7) 0.9439(3) 0.20348(9)
C9 C 0.36318(8) 0.7519(3) 0.24617(9)
H4 H 0.3922 0.6334 0.2546
C10 C 0.31619(8) 0.7324(3) 0.27625(10)
H5 H 0.3137 0.6018 0.3057
C11 C 0.27230(8) 0.9026(3) 0.26384(9)
C12 C 0.27756(8) 1.0936(3) 0.22037(10)
H6 H 0.2480 1.2101 0.2109
C13 C 0.32485(8) 1.1158(3) 0.19107(10)
H7 H 0.3278 1.2480 0.1624
C14 C 0.22437(8) 0.8860(3) 0.30124(10)
C15 C 0.24484(7) 0.8599(3) 0.38278(9)
C16 C 0.28780(8) 1.0088(3) 0.42295(10)
H8 H 0.3030 1.1280 0.3987
C17 C 0.30878(9) 0.9853(4) 0.49822(10)
H9 H 0.3373 1.0904 0.5254
C18 C 0.28764(10) 0.8063(4) 0.53332(11)
H10 H 0.3018 0.7886 0.5847
C19 C 0.24625(10) 0.6549(4) 0.49377(12)
H11 H 0.2325 0.5313 0.5179
C20 C 0.22440(9) 0.6811(3) 0.41898(11)
H12 H 0.1954 0.5768 0.3923
C21 C 0.16711(8) 0.8966(3) 0.26489(9)
C22 C 0.11941(7) 0.9193(3) 0.30237(9)
C23 C 0.11772(9) 1.1032(3) 0.34946(11)
H13 H 0.1491 1.2115 0.3611
C24 C 0.07056(10) 1.1299(4) 0.37968(11)
H14 H 0.0696 1.2582 0.4108
C25 C 0.02503(9) 0.9708(4) 0.36470(11)
H15 H -0.0070 0.9885 0.3857
C26 C 0.02655(9) 0.7863(4) 0.31905(11)
H16 H -0.0043 0.6753 0.3090
C27 C 0.07267(8) 0.7621(3) 0.28786(11)
H17 H 0.0726 0.6356 0.2558
C28 C 0.14601(7) 0.8839(3) 0.18337(9)
C29 C 0.10913(8) 1.0548(3) 0.14458(10)
H18 H 0.0997 1.1857 0.1696
C30 C 0.08589(10) 1.0363(4) 0.06948(11)
H19 H 0.0607 1.1541 0.0434
C31 C 0.09955(11) 0.8449(4) 0.03266(11)
H20 H 0.0839 0.8324 -0.0187
C32 C 0.13555(10) 0.6740(4) 0.07034(11)
H21 H 0.1442 0.5421 0.0451
C33 C 0.15938(9) 0.6930(3) 0.14530(11)
H22 H 0.1849 0.5754 0.1708
H23 H 0.6431(12) 1.066(5) 0.0356(14)
loop_
_geom_bond_atom_site_label_1
_geom_bond_atom_site_label_2
_geom_bond_site_symmetry_1
_geom_bond_site_symmetry_2
S1 C3 1_555 1_555
O1 C1 1_555 1_555
N1 C4 1_555 1_555
C1 C2 1_555 1_555
C2 H1 1_555 1_555
C3 C2 1_555 1_555
C4 C3 1_555 1_555
C5 C4 1_555 1_555
H2 C5 1_555 1_555
C6 C1 1_555 1_555
H3 C6 1_555 1_555
C7 S1 1_555 1_555
C8 C7 1_555 1_555
C9 C8 1_555 1_555
H4 C9 1_555 1_555
C10 C9 1_555 1_555
H5 C10 1_555 1_555
C11 C10 1_555 1_555
C12 C11 1_555 1_555
H6 C12 1_555 1_555
C13 C8 1_555 1_555
H7 C13 1_555 1_555
C14 C11 1_555 1_555
C15 C14 1_555 1_555
C16 C15 1_555 1_555
H8 C16 1_555 1_555
C17 C16 1_555 1_555
H9 C17 1_555 1_555
C18 C17 1_555 1_555
H10 C18 1_555 1_555
C19 C18 1_555 1_555
H11 C19 1_555 1_555
C20 C15 1_555 1_555
H12 C20 1_555 1_555
C21 C14 1_555 1_555
C22 C21 1_555 1_555
C23 C22 1_555 1_555
H13 C23 1_555 1_555
C24 C23 1_555 1_555
H14 C24 1_555 1_555
C25 C24 1_555 1_555
H15 C25 1_555 1_555
C26 C25 1_555 1_555
H16 C26 1_555 1_555
C27 C22 1_555 1_555
H17 C27 1_555 1_555
C28 C21 1_555 1_555
C29 C28 1_555 1_555
H18 C29 1_555 1_555
C30 C29 1_555 1_555
H19 C30 1_555 1_555
C31 C30 1_555 1_555
H20 C31 1_555 1_555
C32 C31 1_555 1_555
H21 C32 1_555 1_555
C33 C28 1_555 1_555
H22 C33 1_555 1_555
H23 O1 1_555 1_555
N1 C7 1_555 1_555
C5 C6 1_555 1_555
C12 C13 1_555 1_555
C19 C20 1_555 1_555
C26 C27 1_555 1_555
C32 C33 1_555 1_555

#END
