
#######################################################################
#
#                 Cambridge Crystallographic Data Centre
#                                CCDC 
#
#######################################################################
#
# If this CIF has been generated from an entry in the Cambridge 
# Structural Database, then it will include bibliographic, chemical, 
# crystal, experimental, refinement or atomic coordinate data resulting 
# from the CCDC's data processing and validation procedures.
#
#######################################################################

data_SOCBOD
_chemical_formula_moiety         'C33 H24 N1 O1 S1 1+,Cl1 1-'
_chemical_name_systematic        
'6-Hydroxy-2-(4-(triphenylvinyl)phenyl)-1,3-benzothiazol-3-ium chloride'
_symmetry_cell_setting           monoclinic
_symmetry_space_group_name_H-M   'P 21/c'
_symmetry_Int_Tables_number      14
_space_group_name_Hall           '-P 2ybc'
loop_
_symmetry_equiv_pos_site_id
_symmetry_equiv_pos_as_xyz
1 x,y,z
2 -x,1/2+y,1/2-z
3 -x,-y,-z
4 x,1/2-y,1/2+z
_cell_length_a                   21.1014(11)
_cell_length_b                   9.2666(6)
_cell_length_c                   13.5115(7)
_cell_angle_alpha                90
_cell_angle_beta                 100.0620(10)
_cell_angle_gamma                90
_cell_volume                     2601.38
_exptl_crystal_colour            'pale yellow'
_exptl_crystal_description       block
_cell_formula_units_Z            4
loop_
_atom_site_label
_atom_site_type_symbol
_atom_site_fract_x
_atom_site_fract_y
_atom_site_fract_z
C1 C 0.57662(11) 0.2538(3) 0.35022(17)
C2 C 0.51385(11) 0.2448(3) 0.36915(17)
H1 H 0.4944 0.1546 0.3787
C3 C 0.48086(11) 0.3755(3) 0.37333(17)
C4 C 0.50947(11) 0.5080(3) 0.36027(16)
C5 C 0.57205(11) 0.5158(3) 0.33992(18)
H2 H 0.5915 0.6059 0.3300
C6 C 0.60458(11) 0.3879(3) 0.33472(18)
H3 H 0.6470 0.3903 0.3203
C7 C 0.41061(11) 0.5883(2) 0.38440(17)
C8 C 0.35838(11) 0.6896(3) 0.39088(17)
C9 C 0.29540(11) 0.6379(3) 0.38448(19)
H4 H 0.2875 0.5371 0.3781
C10 C 0.24464(12) 0.7313(3) 0.38730(19)
H5 H 0.2026 0.6932 0.3845
C11 C 0.25389(11) 0.8797(3) 0.39410(19)
C12 C 0.31726(12) 0.9311(3) 0.40244(19)
H6 H 0.3249 1.0320 0.4088
C13 C 0.13716(12) 1.2103(3) 0.3589(2)
C14 C 0.22210(11) 1.1308(3) 0.2591(2)
C15 C 0.36902(11) 0.8387(3) 0.40166(18)
H7 H 0.4114 0.8763 0.4084
C16 C 0.19762(12) 0.9767(3) 0.3992(2)
C17 C 0.15361(12) 0.9257(3) 0.4680(2)
C18 C 0.17760(15) 0.8878(3) 0.5671(2)
H8 H 0.2222 0.8977 0.5933
C19 C 0.13472(17) 0.8341(4) 0.6289(2)
H9 H 0.1504 0.8096 0.6971
C20 C 0.07056(17) 0.8177(4) 0.5895(3)
H10 H 0.0420 0.7831 0.6312
C21 C 0.04716(15) 0.8503(4) 0.4911(3)
H11 H 0.0030 0.8355 0.4642
C22 C 0.08824(13) 0.9050(3) 0.4311(3)
H12 H 0.0716 0.9290 0.3632
C23 C 0.18607(12) 1.0987(3) 0.3438(2)
C24 C 0.13044(13) 1.2581(3) 0.4547(2)
H13 H 0.1530 1.2097 0.5122
C25 C 0.09151(14) 1.3749(3) 0.4674(3)
H14 H 0.0883 1.4066 0.5332
C26 C 0.05772(14) 1.4448(4) 0.3854(3)
H15 H 0.0311 1.5247 0.3946
C27 C 0.06226(14) 1.3995(3) 0.2897(3)
H16 H 0.0383 1.4472 0.2331
C28 C 0.10221(13) 1.2832(3) 0.2759(2)
H17 H 0.1057 1.2534 0.2098
C29 C 0.25115(12) 1.2637(3) 0.2537(2)
H18 H 0.2494 1.3334 0.3047
C30 C 0.28316(13) 1.2967(4) 0.1738(3)
H19 H 0.3041 1.3871 0.1717
C31 C 0.28392(14) 1.1966(4) 0.0983(2)
H20 H 0.3057 1.2178 0.0442
C32 C 0.25334(15) 1.0671(4) 0.1013(2)
H21 H 0.2529 1.0001 0.0480
C33 C 0.22307(13) 1.0327(3) 0.1810(2)
H22 H 0.2028 0.9414 0.1826
H23 H 0.5939(14) 0.059(4) 0.362(2)
N1 N 0.46906(9) 0.6234(2) 0.36966(14)
H24 H 0.4814 0.7137 0.3661
O1 O 0.61423(8) 0.1361(2) 0.34509(13)
S1 S 0.40254(3) 0.40342(6) 0.39418(5)
Cl1 Cl 0.55596(3) 0.87587(7) 0.42267(5)
loop_
_geom_bond_atom_site_label_1
_geom_bond_atom_site_label_2
_geom_bond_site_symmetry_1
_geom_bond_site_symmetry_2
C1 C2 1_555 1_555
C2 H1 1_555 1_555
C3 C2 1_555 1_555
C4 C3 1_555 1_555
C5 C4 1_555 1_555
H2 C5 1_555 1_555
C6 C1 1_555 1_555
H3 C6 1_555 1_555
C7 C8 1_555 1_555
C8 C9 1_555 1_555
C9 H4 1_555 1_555
C10 C9 1_555 1_555
H5 C10 1_555 1_555
C11 C10 1_555 1_555
C12 C11 1_555 1_555
H6 C12 1_555 1_555
C13 C23 1_555 1_555
C14 C23 1_555 1_555
C15 C8 1_555 1_555
H7 C15 1_555 1_555
C16 C11 1_555 1_555
C17 C16 1_555 1_555
C18 C17 1_555 1_555
H8 C18 1_555 1_555
C19 C18 1_555 1_555
H9 C19 1_555 1_555
C20 C19 1_555 1_555
H10 C20 1_555 1_555
C21 C20 1_555 1_555
H11 C21 1_555 1_555
C22 C17 1_555 1_555
H12 C22 1_555 1_555
C23 C16 1_555 1_555
C24 C13 1_555 1_555
H13 C24 1_555 1_555
C25 C24 1_555 1_555
H14 C25 1_555 1_555
C26 C25 1_555 1_555
H15 C26 1_555 1_555
C27 C26 1_555 1_555
H16 C27 1_555 1_555
C28 C13 1_555 1_555
H17 C28 1_555 1_555
C29 C14 1_555 1_555
H18 C29 1_555 1_555
C30 C29 1_555 1_555
H19 C30 1_555 1_555
C31 C30 1_555 1_555
H20 C31 1_555 1_555
C32 C31 1_555 1_555
H21 C32 1_555 1_555
C33 C14 1_555 1_555
H22 C33 1_555 1_555
H23 O1 1_555 1_555
N1 C4 1_555 1_555
H24 N1 1_555 1_555
O1 C1 1_555 1_555
S1 C3 1_555 1_555
C5 C6 1_555 1_555
C7 N1 1_555 1_555
C7 S1 1_555 1_555
C12 C15 1_555 1_555
C21 C22 1_555 1_555
C27 C28 1_555 1_555
C32 C33 1_555 1_555

#END
