
#######################################################################
#
#                 Cambridge Crystallographic Data Centre
#                                CCDC 
#
#######################################################################
#
# If this CIF has been generated from an entry in the Cambridge 
# Structural Database, then it will include bibliographic, chemical, 
# crystal, experimental, refinement or atomic coordinate data resulting 
# from the CCDC's data processing and validation procedures.
#
#######################################################################

data_SOCGUM
_chemical_formula_moiety         'C9 H10 O2 S3'
_chemical_name_systematic        
'(Z)-6,6-Dimethyl-3-thioxo-6,7-dihydro-3H-1,2-benzodithiol-4(5H)-one S-oxide'
_symmetry_cell_setting           orthorhombic
_symmetry_space_group_name_H-M   'P b c a'
_symmetry_Int_Tables_number      61
_space_group_name_Hall           '-P 2ac 2ab'
loop_
_symmetry_equiv_pos_site_id
_symmetry_equiv_pos_as_xyz
1 x,y,z
2 1/2-x,1/2+y,z
3 x,1/2-y,1/2+z
4 1/2-x,-y,1/2+z
5 -x,-y,-z
6 1/2+x,1/2-y,-z
7 -x,1/2+y,1/2-z
8 1/2+x,y,1/2-z
_cell_length_a                   8.684(3)
_cell_length_b                   9.998(3)
_cell_length_c                   24.778(9)
_cell_angle_alpha                90
_cell_angle_beta                 90
_cell_angle_gamma                90
_cell_volume                     2151.29
_exptl_crystal_colour            orange-red
_cell_formula_units_Z            8
loop_
_atom_site_label
_atom_site_type_symbol
_atom_site_fract_x
_atom_site_fract_y
_atom_site_fract_z
S1 S -0.0226(2) 0.5349(2) 0.0794(1)
S2 S 0.2251(2) 0.6775(2) 0.0284(1)
S3 S 0.4576(2) 0.6511(3) 0.0434(1)
O1 O -0.0924(5) 0.6382(6) 0.0423(2)
O2 O 0.1260(7) 0.3591(6) 0.1568(2)
C1 C 0.1669(8) 0.5571(8) 0.0737(3)
C2 C 0.2871(9) 0.4905(7) 0.1027(3)
C3 C 0.2573(12) 0.3906(8) 0.1443(3)
C4 C 0.3948(11) 0.3283(11) 0.1702(5)
C5 C 0.5434(9) 0.4128(9) 0.1717(3)
C6 C 0.5721(11) 0.4656(12) 0.1151(4)
C7 C 0.4328(9) 0.5283(8) 0.0898(3)
C8 C 0.5209(15) 0.5289(13) 0.2105(5)
C9 C 0.6772(13) 0.3225(14) 0.1892(5)
H1 H 0.4249(65) 0.2464(66) 0.1523(26)
H2 H 0.3769(63) 0.2882(63) 0.2017(28)
H3 H 0.6231(68) 0.3962(65) 0.0957(27)
H4 H 0.6576(71) 0.5270(65) 0.1165(26)
H5 H 0.4922(75) 0.4978(63) 0.2422(29)
H6 H 0.6175(91) 0.5757(95) 0.2159(35)
H7 H 0.4355(88) 0.5834(90) 0.2010(36)
H8 H 0.7693(69) 0.3809(65) 0.1913(24)
H9 H 0.689(11) 0.2384(95) 0.1657(39)
H10 H 0.6646(95) 0.2992(90) 0.2307(39)
loop_
_geom_bond_atom_site_label_1
_geom_bond_atom_site_label_2
_geom_bond_site_symmetry_1
_geom_bond_site_symmetry_2
S1 O1 1_555 1_555
S2 S3 1_555 1_555
S3 C7 1_555 1_555
O2 C3 1_555 1_555
C1 S1 1_555 1_555
C2 C1 1_555 1_555
C3 C2 1_555 1_555
C4 C3 1_555 1_555
C5 C4 1_555 1_555
C6 C5 1_555 1_555
C7 C2 1_555 1_555
C8 C5 1_555 1_555
C9 C5 1_555 1_555
H1 C4 1_555 1_555
H2 C4 1_555 1_555
H3 C6 1_555 1_555
H4 C6 1_555 1_555
H5 C8 1_555 1_555
H6 C8 1_555 1_555
H7 C8 1_555 1_555
H8 C9 1_555 1_555
H9 C9 1_555 1_555
H10 C9 1_555 1_555
S2 C1 1_555 1_555
C6 C7 1_555 1_555

#END
