
#######################################################################
#
#                 Cambridge Crystallographic Data Centre
#                                CCDC 
#
#######################################################################
#
# If this CIF has been generated from an entry in the Cambridge 
# Structural Database, then it will include bibliographic, chemical, 
# crystal, experimental, refinement or atomic coordinate data resulting 
# from the CCDC's data processing and validation procedures.
#
#######################################################################

data_SOCGOG
_chemical_formula_moiety         'C9 H10 O1 S3'
_chemical_name_systematic        
6,6-Dimethyl-3-thioxo-6,7-dihydro-3H-1,2-benzodithiol-4(5H)-one
_symmetry_cell_setting           monoclinic
_symmetry_space_group_name_H-M   'P 21'
_symmetry_Int_Tables_number      4
_space_group_name_Hall           'P 2yb'
loop_
_symmetry_equiv_pos_site_id
_symmetry_equiv_pos_as_xyz
1 x,y,z
2 -x,1/2+y,-z
_cell_length_a                   7.040(2)
_cell_length_b                   10.023(4)
_cell_length_c                   7.364(2)
_cell_angle_alpha                90
_cell_angle_beta                 96.96(3)
_cell_angle_gamma                90
_cell_volume                     515.789
_exptl_crystal_colour            orange
_cell_formula_units_Z            2
loop_
_atom_site_label
_atom_site_type_symbol
_atom_site_fract_x
_atom_site_fract_y
_atom_site_fract_z
S1 S -0.4653(2) -0.0443 -0.4484(2)
S2 S -0.6036(2) -0.0415(3) -0.2183(2)
S3 S -0.5382(2) -0.2078(2) -0.7671(2)
O1 O -0.9015(6) -0.3646(6) -0.6913(4)
C1 C -0.6070(7) -0.1665(6) -0.5673(6)
C2 C -0.7623(6) -0.2097(8) -0.4713(5)
C3 C -0.9092(8) -0.3077(7) -0.5466(7)
C4 C -1.0704(9) -0.3327(9) -0.4338(8)
C5 C -1.0138(8) -0.3264(7) -0.2263(7)
C6 C -0.9228(8) -0.1901(7) -0.1832(7)
C7 C -0.7711(7) -0.1568(6) -0.3013(6)
C8 C -0.8760(12) -0.4372(8) -0.1658(9)
C9 C -1.1939(11) -0.3406(10) -0.1307(10)
H1 H -1.1264(85) -0.4150(74) -0.4708(75)
H2 H -1.1624(65) -0.2616(45) -0.4753(54)
H3 H -0.8519(68) -0.1905(58) -0.0575(65)
H4 H -1.0245(72) -0.1302(51) -0.2082(61)
H5 H -0.8548(79) -0.4331(61) -0.0248(74)
H6 H -0.7401(77) -0.4320(63) -0.2137(70)
H7 H -0.9360(75) -0.5256(75) -0.1930(68)
H8 H -1.2761(82) -0.2742(57) -0.1737(70)
H9 H -1.1606(83) -0.3282(59) -0.0051(78)
H10 H -1.2617(88) -0.4293(79) -0.1506(81)
loop_
_geom_bond_atom_site_label_1
_geom_bond_atom_site_label_2
_geom_bond_site_symmetry_1
_geom_bond_site_symmetry_2
S1 S2 1_555 1_555
S2 C7 1_555 1_555
S3 C1 1_555 1_555
O1 C3 1_555 1_555
C1 S1 1_555 1_555
C2 C1 1_555 1_555
C3 C2 1_555 1_555
C4 C3 1_555 1_555
C5 C4 1_555 1_555
C6 C5 1_555 1_555
C7 C2 1_555 1_555
C8 C5 1_555 1_555
C9 C5 1_555 1_555
H1 C4 1_555 1_555
H2 C4 1_555 1_555
H3 C6 1_555 1_555
H4 C6 1_555 1_555
H5 C8 1_555 1_555
H6 C8 1_555 1_555
H7 C8 1_555 1_555
H8 C9 1_555 1_555
H9 C9 1_555 1_555
H10 C9 1_555 1_555
C6 C7 1_555 1_555

#END
