
#######################################################################
#
#                 Cambridge Crystallographic Data Centre
#                                CCDC 
#
#######################################################################
#
# If this CIF has been generated from an entry in the Cambridge 
# Structural Database, then it will include bibliographic, chemical, 
# crystal, experimental, refinement or atomic coordinate data resulting 
# from the CCDC's data processing and validation procedures.
#
#######################################################################

data_SOCKAW
_chemical_formula_moiety         'C28 H18 O2'
_chemical_name_systematic        
cis-4b,9b-Diphenyl-4b,5,9b,10-tetrahydroindeno(2,1-a)indene-5,10-dione
_symmetry_cell_setting           monoclinic
_symmetry_space_group_name_H-M   'P 21/n'
_symmetry_Int_Tables_number      14
_space_group_name_Hall           '-P 2yn'
loop_
_symmetry_equiv_pos_site_id
_symmetry_equiv_pos_as_xyz
1 x,y,z
2 1/2-x,1/2+y,1/2-z
3 -x,-y,-z
4 1/2+x,1/2-y,1/2+z
_cell_length_a                   8.285(3)
_cell_length_b                   14.708(6)
_cell_length_c                   16.325(6)
_cell_angle_alpha                90
_cell_angle_beta                 92.93(3)
_cell_angle_gamma                90
_cell_volume                     1986.7
_chemical_melting_point          288-289deg.C
_cell_formula_units_Z            4
loop_
_atom_site_label
_atom_site_type_symbol
_atom_site_fract_x
_atom_site_fract_y
_atom_site_fract_z
O1 O 0.5150(1) 0.5046(1) 0.3891(1)
O2 O 0.0333(1) 0.4322(1) 0.1550(1)
C1 C 0.1523(2) 0.4007(1) 0.2923(1)
C2 C 0.3379(2) 0.3910(1) 0.3205(1)
C3 C 0.3796(2) 0.4820(1) 0.3655(1)
C4 C 0.2305(2) 0.5352(1) 0.3703(1)
C5 C 0.1013(2) 0.4900(1) 0.3308(1)
C6 C 0.1536(2) 0.4165(1) 0.1985(1)
C7 C 0.3196(2) 0.4104(1) 0.1729(1)
C8 C 0.4246(2) 0.3921(1) 0.2400(1)
C9 C 0.2105(2) 0.6207(1) 0.4063(1)
C10 C 0.0592(3) 0.6592(1) 0.4013(1)
C11 C -0.0700(2) 0.6148(1) 0.3612(1)
C12 C -0.0514(2) 0.5301(1) 0.3255(1)
C13 C 0.3758(2) 0.4189(1) 0.0935(1)
C14 C 0.5385(2) 0.4082(1) 0.0834(1)
C15 C 0.6436(2) 0.3896(1) 0.1507(1)
C16 C 0.5886(2) 0.3812(1) 0.2294(1)
C17 C 0.0462(2) 0.3191(1) 0.3102(1)
C18 C -0.0470(2) 0.3155(1) 0.3789(1)
C19 C -0.1395(2) 0.2394(1) 0.3939(1)
C20 C -0.1391(2) 0.1656(1) 0.3426(1)
C21 C -0.0468(2) 0.1678(1) 0.2745(1)
C22 C 0.0443(2) 0.2443(1) 0.2582(1)
C23 C 0.3786(2) 0.3100(1) 0.3758(1)
C24 C 0.4129(2) 0.2260(1) 0.3425(1)
C25 C 0.4406(2) 0.1508(1) 0.3924(1)
C26 C 0.4358(2) 0.1588(2) 0.4764(1)
C27 C 0.4040(2) 0.2423(2) 0.5102(1)
C28 C 0.3751(2) 0.3174(1) 0.4608(1)
H1 H 0.3085(28) 0.6507(15) 0.4335(14)
H2 H 0.0420(27) 0.7199(16) 0.4275(13)
H3 H -0.1797(28) 0.6458(16) 0.3570(14)
H4 H -0.1449(28) 0.4967(15) 0.2940(14)
H5 H 0.2955(28) 0.4319(15) 0.0459(15)
H6 H 0.5799(27) 0.4114(14) 0.0269(15)
H7 H 0.7593(30) 0.3815(15) 0.1420(13)
H8 H 0.6653(28) 0.3696(15) 0.2781(14)
H9 H -0.0458(27) 0.3679(15) 0.4160(14)
H10 H -0.2075(28) 0.2390(15) 0.4414(14)
H11 H -0.2040(28) 0.1125(16) 0.3528(14)
H12 H -0.0467(28) 0.1179(16) 0.2378(14)
H13 H 0.1155(27) 0.2436(16) 0.2074(14)
H14 H 0.4119(27) 0.2213(15) 0.2821(15)
H15 H 0.4619(28) 0.0884(16) 0.3669(13)
H16 H 0.4606(27) 0.1052(16) 0.5106(14)
H17 H 0.4034(26) 0.2488(15) 0.5714(15)
H18 H 0.3472(27) 0.3760(16) 0.4869(13)
loop_
_geom_bond_atom_site_label_1
_geom_bond_atom_site_label_2
_geom_bond_site_symmetry_1
_geom_bond_site_symmetry_2
O1 C3 1_555 1_555
O2 C6 1_555 1_555
C1 C2 1_555 1_555
C2 C3 1_555 1_555
C3 C4 1_555 1_555
C4 C5 1_555 1_555
C5 C1 1_555 1_555
C6 C1 1_555 1_555
C7 C6 1_555 1_555
C8 C2 1_555 1_555
C9 C4 1_555 1_555
C10 C9 1_555 1_555
C11 C10 1_555 1_555
C12 C5 1_555 1_555
C13 C7 1_555 1_555
C14 C13 1_555 1_555
C15 C14 1_555 1_555
C16 C8 1_555 1_555
C17 C1 1_555 1_555
C18 C17 1_555 1_555
C19 C18 1_555 1_555
C20 C19 1_555 1_555
C21 C20 1_555 1_555
C22 C17 1_555 1_555
C23 C2 1_555 1_555
C24 C23 1_555 1_555
C25 C24 1_555 1_555
C26 C25 1_555 1_555
C27 C26 1_555 1_555
C28 C23 1_555 1_555
H1 C9 1_555 1_555
H2 C10 1_555 1_555
H3 C11 1_555 1_555
H4 C12 1_555 1_555
H5 C13 1_555 1_555
H6 C14 1_555 1_555
H7 C15 1_555 1_555
H8 C16 1_555 1_555
H9 C18 1_555 1_555
H10 C19 1_555 1_555
H11 C20 1_555 1_555
H12 C21 1_555 1_555
H13 C22 1_555 1_555
H14 C24 1_555 1_555
H15 C25 1_555 1_555
H16 C26 1_555 1_555
H17 C27 1_555 1_555
H18 C28 1_555 1_555
C7 C8 1_555 1_555
C11 C12 1_555 1_555
C15 C16 1_555 1_555
C21 C22 1_555 1_555
C27 C28 1_555 1_555

#END
