
#######################################################################
#
#                 Cambridge Crystallographic Data Centre
#                                CCDC 
#
#######################################################################
#
# If this CIF has been generated from an entry in the Cambridge 
# Structural Database, then it will include bibliographic, chemical, 
# crystal, experimental, refinement or atomic coordinate data resulting 
# from the CCDC's data processing and validation procedures.
#
#######################################################################

data_SOCVEN
_chemical_formula_moiety         'C15 H19 N2 O2 S1 1+,I1 1-'
_chemical_name_systematic        
'2-methyl-6-{[(2,4,6-trimethylphenyl)sulfonyl]amino}pyridinium iodide'
_symmetry_cell_setting           triclinic
_symmetry_space_group_name_H-M   'P -1'
_symmetry_Int_Tables_number      2
_space_group_name_Hall           '-P 1'
loop_
_symmetry_equiv_pos_site_id
_symmetry_equiv_pos_as_xyz
1 x,y,z
2 -x,-y,-z
_cell_length_a                   8.6615(13)
_cell_length_b                   9.2005(14)
_cell_length_c                   11.4927(17)
_cell_angle_alpha                95.719(2)
_cell_angle_beta                 107.982(2)
_cell_angle_gamma                101.265(2)
_cell_volume                     841.682
_exptl_crystal_colour            colorless
_exptl_crystal_description       brick
_chemical_melting_point          '465-467 K'
_cell_formula_units_Z            2
loop_
_atom_site_label
_atom_site_type_symbol
_atom_site_fract_x
_atom_site_fract_y
_atom_site_fract_z
I1 I 0.266660(17) 0.827173(15) -0.114442(13)
S1 S 0.44368(7) 0.60564(6) 0.25298(5)
N1 N 0.6550(2) 0.7449(2) 0.01955(17)
H1 H 0.583(3) 0.789(3) -0.014(2)
N2 N 0.4812(2) 0.6572(2) 0.12759(17)
H2 H 0.416(4) 0.708(3) 0.087(3)
O1 O 0.2801(2) 0.6289(2) 0.23691(15)
O2 O 0.4699(2) 0.45767(19) 0.25925(15)
C1 C 0.6282(3) 0.6598(2) 0.10384(19)
C2 C 0.7905(3) 0.7577(2) -0.01768(19)
C3 C 0.9099(3) 0.6830(3) 0.0352(2)
H3 H 1.0075 0.6917 0.0126
C4 C 0.8859(3) 0.5942(2) 0.1226(2)
H4 H 0.9677 0.5415 0.1588
C5 C 0.7459(3) 0.5813(2) 0.1574(2)
H5 H 0.7302 0.5202 0.2167
C6 C 0.7994(3) 0.8535(3) -0.1135(2)
H6 H 0.7085 0.8078 -0.1915
H7 H 0.9071 0.8618 -0.1266
H8 H 0.7883 0.9538 -0.0853
C7 C 0.5966(3) 0.7353(2) 0.37908(18)
C8 C 0.5947(3) 0.8885(3) 0.38249(19)
C9 C 0.7177(3) 0.9921(3) 0.4782(2)
H9 H 0.7182 1.0958 0.4816
C10 C 0.8403(3) 0.9499(3) 0.5693(2)
C11 C 0.8357(3) 0.7982(3) 0.5651(2)
H10 H 0.9172 0.7685 0.6286
C12 C 0.7167(3) 0.6870(3) 0.4717(2)
C13 C 0.4688(3) 0.9491(3) 0.2896(2)
H11 H 0.4775 1.0542 0.3216
H12 H 0.3559 0.8894 0.2759
H13 H 0.4911 0.9429 0.2109
C14 C 0.9710(3) 1.0674(3) 0.6708(2)
H14 H 1.0262 1.1441 0.6338
H15 H 1.0541 1.0200 0.7214
H16 H 0.9179 1.1145 0.7232
C15 C 0.7273(3) 0.5254(3) 0.4815(2)
H17 H 0.6179 0.4650 0.4759
H18 H 0.8102 0.5229 0.5613
H19 H 0.7608 0.4841 0.4137
loop_
_geom_bond_atom_site_label_1
_geom_bond_atom_site_label_2
_geom_bond_site_symmetry_1
_geom_bond_site_symmetry_2
S1 N2 1_555 1_555
N1 H1 1_555 1_555
N2 H2 1_555 1_555
O1 S1 1_555 1_555
O2 S1 1_555 1_555
C1 N1 1_555 1_555
C2 N1 1_555 1_555
C3 C2 1_555 1_555
H3 C3 1_555 1_555
C4 C3 1_555 1_555
H4 C4 1_555 1_555
C5 C1 1_555 1_555
H5 C5 1_555 1_555
C6 C2 1_555 1_555
H6 C6 1_555 1_555
H7 C6 1_555 1_555
H8 C6 1_555 1_555
C7 S1 1_555 1_555
C8 C7 1_555 1_555
C9 C8 1_555 1_555
H9 C9 1_555 1_555
C10 C9 1_555 1_555
C11 C10 1_555 1_555
H10 C11 1_555 1_555
C12 C7 1_555 1_555
C13 C8 1_555 1_555
H11 C13 1_555 1_555
H12 C13 1_555 1_555
H13 C13 1_555 1_555
C14 C10 1_555 1_555
H14 C14 1_555 1_555
H15 C14 1_555 1_555
H16 C14 1_555 1_555
C15 C12 1_555 1_555
H17 C15 1_555 1_555
H18 C15 1_555 1_555
H19 C15 1_555 1_555
N2 C1 1_555 1_555
C4 C5 1_555 1_555
C11 C12 1_555 1_555

#END
