
#######################################################################
#
#                 Cambridge Crystallographic Data Centre
#                                CCDC 
#
#######################################################################
#
# If this CIF has been generated from an entry in the Cambridge 
# Structural Database, then it will include bibliographic, chemical, 
# crystal, experimental, refinement or atomic coordinate data resulting 
# from the CCDC's data processing and validation procedures.
#
#######################################################################

data_SODBUJ
_chemical_formula_moiety         'C42 H26 I2 N6,0.33(C1 H1 Cl3)'
_chemical_name_systematic        
'5,15-bis(4-Pyridyl)-10,20-bis(4-iodophenyl)porphyrin chloroform solvate'
_symmetry_cell_setting           triclinic
_symmetry_space_group_name_H-M   'P -1'
_symmetry_Int_Tables_number      2
_space_group_name_Hall           '-P 1'
loop_
_symmetry_equiv_pos_site_id
_symmetry_equiv_pos_as_xyz
1 x,y,z
2 -x,-y,-z
_cell_length_a                   10.0647(4)
_cell_length_b                   15.7677(8)
_cell_length_c                   19.5011(9)
_cell_angle_alpha                112.121(4)
_cell_angle_beta                 102.263(3)
_cell_angle_gamma                90.4496(17)
_cell_volume                     2788.33
_exptl_crystal_colour            purple
_exptl_crystal_description       needle
_cell_formula_units_Z            3
_exptl_crystal_recrystallization_method chloroform/methanol/nitrobenzene
loop_
_atom_site_label
_atom_site_type_symbol
_atom_site_fract_x
_atom_site_fract_y
_atom_site_fract_z
C43 C 0.9223(7) 0.7888(5) -0.0615(4)
C44 C 0.9425(8) 0.7125(5) -0.0385(4)
H29 H 0.9036 0.6509 -0.0676
C45 C 1.0277(8) 0.7439(5) 0.0326(4)
H30 H 1.0613 0.7079 0.0609
C46 C 1.0573(8) 0.8428(5) 0.0568(4)
C47 C 1.1354(8) 0.9018(5) 0.1277(4)
C48 C 1.1628(8) 0.9978(5) 0.1502(4)
C49 C 1.2440(7) 1.0580(5) 0.2232(4)
H31 H 1.2853 1.0405 0.2638
C50 C 1.2512(8) 1.1429(5) 0.2236(4)
H32 H 1.2969 1.1969 0.2647
C51 C 1.1764(7) 1.1372(5) 0.1501(4)
C52 C 0.8377(8) 0.7874(5) -0.1280(4)
N7 N 0.9944(6) 0.8676(4) -0.0019(3)
H33 H 0.9988 0.9233 -0.0019
N8 N 1.1243(6) 1.0480(4) 0.1068(3)
C53 C 1.1913(8) 0.8626(5) 0.1852(4)
C54 C 1.1064(9) 0.8233(5) 0.2153(4)
H35 H 1.0103 0.8212 0.1982
C55 C 1.1561(9) 0.7873(6) 0.2689(4)
H36 H 1.0953 0.7599 0.2876
C56 C 1.2960(9) 0.7917(5) 0.2952(4)
C57 C 1.3859(9) 0.8298(6) 0.2666(4)
H37 H 1.4819 0.8310 0.2836
C58 C 1.3325(9) 0.8660(5) 0.2126(4)
H38 H 1.3931 0.8935 0.1940
I3 I 1.38016(6) 0.73560(4) 0.37494(3)
C59 C 0.7550(8) 0.6995(5) -0.1814(4)
C60 C 0.6137(9) 0.6929(6) -0.1904(4)
H39 H 0.5704 0.7438 -0.1629
C61 C 0.5365(9) 0.6105(6) -0.2403(5)
H40 H 0.4411 0.6066 -0.2429
N9 N 0.5850(8) 0.5386(5) -0.2835(4)
C62 C 0.7183(10) 0.5458(6) -0.2744(5)
H41 H 0.7576 0.4939 -0.3038
C63 C 0.8073(9) 0.6236(6) -0.2249(5)
H42 H 0.9028 0.6235 -0.2216
C43A C 1.0777(7) 1.2112(5) 0.0615(4)
C44A C 1.0575(8) 1.2875(5) 0.0385(4)
H29A H 1.0964 1.3491 0.0676
C45A C 0.9723(8) 1.2561(5) -0.0326(4)
H30A H 0.9387 1.2921 -0.0609
C46A C 0.9427(8) 1.1572(5) -0.0568(4)
C47A C 0.8646(8) 1.0982(5) -0.1277(4)
C48A C 0.8372(8) 1.0022(5) -0.1502(4)
C49A C 0.7560(7) 0.9420(5) -0.2232(4)
H31A H 0.7147 0.9595 -0.2638
C50A C 0.7488(8) 0.8571(5) -0.2236(4)
H32A H 0.7031 0.8031 -0.2647
C51A C 0.8236(7) 0.8628(5) -0.1501(4)
C52A C 1.1623(8) 1.2126(5) 0.1280(4)
N7A N 1.0056(6) 1.1324(4) 0.0019(3)
H33A H 1.0012 1.0767 0.0019
N8A N 0.8757(6) 0.9520(4) -0.1068(3)
C53A C 0.8087(8) 1.1374(5) -0.1852(4)
C54A C 0.8936(9) 1.1767(5) -0.2153(4)
H35A H 0.9897 1.1788 -0.1982
C55A C 0.8439(9) 1.2127(6) -0.2689(4)
H36A H 0.9047 1.2401 -0.2876
C56A C 0.7040(9) 1.2083(5) -0.2952(4)
C57A C 0.6141(9) 1.1702(6) -0.2666(4)
H37A H 0.5181 1.1690 -0.2836
C58A C 0.6675(9) 1.1340(5) -0.2126(4)
H38A H 0.6069 1.1065 -0.1940
I3A I 0.61984(6) 1.26440(4) -0.37494(3)
C59A C 1.2450(8) 1.3005(5) 0.1814(4)
C60A C 1.3863(9) 1.3071(6) 0.1904(4)
H39A H 1.4296 1.2562 0.1629
C61A C 1.4635(9) 1.3895(6) 0.2403(5)
H40A H 1.5589 1.3934 0.2429
N9A N 1.4150(8) 1.4614(5) 0.2835(4)
C62A C 1.2817(10) 1.4542(6) 0.2744(5)
H41A H 1.2424 1.5061 0.3038
C63A C 1.1927(9) 1.3764(6) 0.2249(5)
H42A H 1.0972 1.3765 0.2216
C1 C 1.2069(8) 0.4268(5) 0.4937(4)
C2 C 1.2957(8) 0.4129(5) 0.5565(4)
H1 H 1.3584 0.4578 0.5982
C3 C 1.2715(7) 0.3233(5) 0.5440(4)
H2 H 1.3126 0.2936 0.5762
C4 C 1.1700(8) 0.2802(5) 0.4713(4)
C5 C 1.1255(7) 0.1868(5) 0.4363(4)
C6 C 1.0361(8) 0.1432(5) 0.3638(4)
C7 C 0.9878(8) 0.0475(6) 0.3254(4)
H3 H 1.0141 0.0004 0.3433
C8 C 0.8984(8) 0.0360(5) 0.2596(4)
H4 H 0.8488 -0.0204 0.2239
C9 C 0.8912(7) 0.1234(5) 0.2527(4)
C10 C 0.8081(7) 0.1420(5) 0.1941(4)
C11 C 0.7983(7) 0.2267(5) 0.1870(4)
C12 C 0.7120(8) 0.2414(5) 0.1228(4)
H5 H 0.6559 0.1957 0.0785
C13 C 0.7270(7) 0.3317(5) 0.1384(4)
H6 H 0.6838 0.3618 0.1068
C14 C 0.8222(7) 0.3758(5) 0.2130(4)
C15 C 0.8589(8) 0.4692(5) 0.2522(4)
C16 C 0.9526(8) 0.5122(5) 0.3233(4)
C17 C 0.9950(8) 0.6082(5) 0.3621(4)
H7 H 0.9610 0.6557 0.3465
C18 C 1.0916(7) 0.6188(5) 0.4244(4)
H8 H 1.1417 0.6752 0.4595
C19 C 1.1067(7) 0.5309(5) 0.4292(4)
C20 C 1.1994(7) 0.5123(5) 0.4852(4)
N1 N 1.1318(6) 0.3456(4) 0.4424(3)
H9 H 1.0719 0.3375 0.3999
N2 N 0.9767(6) 0.1878(4) 0.3174(3)
N3 N 0.8653(6) 0.3095(4) 0.2396(3)
H11 H 0.9248 0.3182 0.2824
N4 N 1.0187(6) 0.4659(4) 0.3655(3)
C21 C 1.1784(8) 0.1254(5) 0.4760(4)
C22 C 1.1508(9) 0.1350(5) 0.5447(4)
H13 H 1.0935 0.1807 0.5658
C23 C 1.2030(9) 0.0809(6) 0.5848(5)
H14 H 1.1824 0.0892 0.6322
C24 C 1.2868(9) 0.0142(6) 0.5527(4)
C25 C 1.3165(8) 0.0011(5) 0.4832(4)
H15 H 1.3717 -0.0456 0.4613
C26 C 1.2632(8) 0.0581(5) 0.4468(4)
H16 H 1.2854 0.0510 0.4000
I1 I 1.36896(6) -0.07165(4) 0.60890(3)
C27 C 0.7097(8) 0.0614(5) 0.1350(4)
C28 C 0.5789(8) 0.0493(5) 0.1428(4)
H17 H 0.5485 0.0915 0.1846
C29 C 0.4918(8) -0.0260(5) 0.0884(4)
H18 H 0.4009 -0.0327 0.0936
N5 N 0.5293(7) -0.0893(4) 0.0293(3)
C30 C 0.6562(8) -0.0750(5) 0.0232(4)
H19 H 0.6846 -0.1183 -0.0189
C31 C 0.7492(8) -0.0024(5) 0.0729(4)
H20 H 0.8380 0.0040 0.0650
C32 C 0.8020(8) 0.5345(5) 0.2156(4)
C33 C 0.6939(9) 0.5842(6) 0.2354(5)
H21 H 0.6466 0.5712 0.2682
C34 C 0.6526(10) 0.6518(7) 0.2094(5)
H22 H 0.5783 0.6849 0.2243
C35 C 0.7184(9) 0.6709(5) 0.1623(5)
C36 C 0.8257(11) 0.6241(7) 0.1429(6)
H23 H 0.8734 0.6380 0.1107
C37 C 0.8671(10) 0.5558(7) 0.1694(6)
H24 H 0.9424 0.5236 0.1548
I2 I 0.66023(7) 0.77341(4) 0.11971(4)
C38 C 1.2961(8) 0.5921(5) 0.5410(4)
C39 C 1.4176(9) 0.6128(6) 0.5273(5)
H25 H 1.4437 0.5749 0.4823
C40 C 1.5025(10) 0.6900(6) 0.5800(6)
H26 H 1.5864 0.7029 0.5692
N6 N 1.4747(7) 0.7462(4) 0.6436(3)
C41 C 1.3597(11) 0.7237(7) 0.6551(5)
H27 H 1.3362 0.7630 0.7005
C42 C 1.2679(10) 0.6484(6) 0.6080(5)
H28 H 1.1872 0.6361 0.6219
H10? H 0.9909 0.2468 0.3274
H12? H 1.0076 0.4064 0.3544
H34? H 1.0751 1.0269 0.0597
loop_
_geom_bond_atom_site_label_1
_geom_bond_atom_site_label_2
_geom_bond_site_symmetry_1
_geom_bond_site_symmetry_2
C1 C2 1_555 1_555
C2 H1 1_555 1_555
C3 C2 1_555 1_555
H2 C3 1_555 1_555
C4 C3 1_555 1_555
C5 C4 1_555 1_555
C6 C5 1_555 1_555
C7 C6 1_555 1_555
H3 C7 1_555 1_555
C8 C7 1_555 1_555
H4 C8 1_555 1_555
C9 C8 1_555 1_555
C10 C9 1_555 1_555
C11 C10 1_555 1_555
C12 C11 1_555 1_555
H5 C12 1_555 1_555
C13 C12 1_555 1_555
H6 C13 1_555 1_555
C14 C13 1_555 1_555
C15 C14 1_555 1_555
C16 C15 1_555 1_555
C17 C16 1_555 1_555
H7 C17 1_555 1_555
C18 C17 1_555 1_555
H8 C18 1_555 1_555
C19 C18 1_555 1_555
C20 C1 1_555 1_555
N1 C1 1_555 1_555
H9 N1 1_555 1_555
N2 C6 1_555 1_555
N3 C11 1_555 1_555
H11 N3 1_555 1_555
N4 C16 1_555 1_555
C21 C5 1_555 1_555
C22 C21 1_555 1_555
H13 C22 1_555 1_555
C23 C22 1_555 1_555
H14 C23 1_555 1_555
C24 C23 1_555 1_555
C25 C24 1_555 1_555
H15 C25 1_555 1_555
C26 C21 1_555 1_555
H16 C26 1_555 1_555
I1 C24 1_555 1_555
C27 C10 1_555 1_555
C28 C27 1_555 1_555
H17 C28 1_555 1_555
C29 C28 1_555 1_555
H18 C29 1_555 1_555
N5 C29 1_555 1_555
C30 N5 1_555 1_555
H19 C30 1_555 1_555
C31 C27 1_555 1_555
H20 C31 1_555 1_555
C32 C15 1_555 1_555
C33 C32 1_555 1_555
H21 C33 1_555 1_555
C34 C33 1_555 1_555
H22 C34 1_555 1_555
C35 C34 1_555 1_555
C36 C35 1_555 1_555
H23 C36 1_555 1_555
C37 C32 1_555 1_555
H24 C37 1_555 1_555
I2 C35 1_555 1_555
C38 C20 1_555 1_555
C39 C38 1_555 1_555
H25 C39 1_555 1_555
C40 C39 1_555 1_555
H26 C40 1_555 1_555
N6 C40 1_555 1_555
C41 N6 1_555 1_555
H27 C41 1_555 1_555
C42 C38 1_555 1_555
H28 C42 1_555 1_555
C43 C44 1_555 1_555
C44 H29 1_555 1_555
C45 C44 1_555 1_555
H30 C45 1_555 1_555
C46 C45 1_555 1_555
C47 C46 1_555 1_555
C48 C47 1_555 1_555
C49 C48 1_555 1_555
H31 C49 1_555 1_555
C50 C49 1_555 1_555
H32 C50 1_555 1_555
C51 C50 1_555 1_555
C52 C43 1_555 1_555
N7 C43 1_555 1_555
H33 N7 1_555 1_555
N8 C48 1_555 1_555
C53 C47 1_555 1_555
C54 C53 1_555 1_555
H35 C54 1_555 1_555
C55 C54 1_555 1_555
H36 C55 1_555 1_555
C56 C55 1_555 1_555
C57 C56 1_555 1_555
H37 C57 1_555 1_555
C58 C53 1_555 1_555
H38 C58 1_555 1_555
I3 C56 1_555 1_555
C59 C52 1_555 1_555
C60 C59 1_555 1_555
H39 C60 1_555 1_555
C61 C60 1_555 1_555
H40 C61 1_555 1_555
N9 C61 1_555 1_555
C62 N9 1_555 1_555
H41 C62 1_555 1_555
C63 C59 1_555 1_555
H42 C63 1_555 1_555
C43A C44A 1_555 1_555
C44A H29A 1_555 1_555
C45A C44A 1_555 1_555
H30A C45A 1_555 1_555
C46A C45A 1_555 1_555
C47A C46A 1_555 1_555
C48A C47A 1_555 1_555
C49A C48A 1_555 1_555
H31A C49A 1_555 1_555
C50A C49A 1_555 1_555
H32A C50A 1_555 1_555
C51A C52 1_555 1_555
C52A C51 1_555 1_555
N7A C43A 1_555 1_555
H33A N7A 1_555 1_555
N8A C48A 1_555 1_555
C53A C47A 1_555 1_555
C54A C53A 1_555 1_555
H35A C54A 1_555 1_555
C55A C54A 1_555 1_555
H36A C55A 1_555 1_555
C56A C55A 1_555 1_555
C57A C56A 1_555 1_555
H37A C57A 1_555 1_555
C58A C53A 1_555 1_555
H38A C58A 1_555 1_555
I3A C56A 1_555 1_555
C59A C52A 1_555 1_555
C60A C59A 1_555 1_555
H39A C60A 1_555 1_555
C61A C60A 1_555 1_555
H40A C61A 1_555 1_555
N9A C61A 1_555 1_555
C62A N9A 1_555 1_555
H41A C62A 1_555 1_555
C63A C59A 1_555 1_555
H42A C63A 1_555 1_555
C4 N1 1_555 1_555
C9 N2 1_555 1_555
C14 N3 1_555 1_555
C19 C20 1_555 1_555
C19 N4 1_555 1_555
C25 C26 1_555 1_555
C30 C31 1_555 1_555
C36 C37 1_555 1_555
C41 C42 1_555 1_555
C46 N7 1_555 1_555
C51 N8 1_555 1_555
C57 C58 1_555 1_555
C62 C63 1_555 1_555
C43A C52A 1_555 1_555
C46A N7A 1_555 1_555
C50A C51A 1_555 1_555
C51A N8A 1_555 1_555
C57A C58A 1_555 1_555
C62A C63A 1_555 1_555

#END
