
#######################################################################
#
#                 Cambridge Crystallographic Data Centre
#                                CCDC 
#
#######################################################################
#
# If this CIF has been generated from an entry in the Cambridge 
# Structural Database, then it will include bibliographic, chemical, 
# crystal, experimental, refinement or atomic coordinate data resulting 
# from the CCDC's data processing and validation procedures.
#
#######################################################################

data_SODHUP
_chemical_formula_moiety         'C24 H30 N2 O6'
_chemical_name_systematic        
'1^4^,1^6^-Dihydroxy-3-oxa-1(1,2)benzenacyclotridecaphane-6,10-diene-2,12-dione 12-O-(piperidinoylmethyl)oxime'
_chemical_properties_biological  
'potent inhibitor of the heat-shock protein 90 (HSP90); potential anti-cancer agent'
_symmetry_cell_setting           monoclinic
_symmetry_space_group_name_H-M   'P 21/c'
_symmetry_Int_Tables_number      14
_space_group_name_Hall           '-P 2ybc'
loop_
_symmetry_equiv_pos_site_id
_symmetry_equiv_pos_as_xyz
1 x,y,z
2 -x,1/2+y,1/2-z
3 -x,-y,-z
4 x,1/2-y,1/2+z
_cell_length_a                   16.9270(15)
_cell_length_b                   5.5090(3)
_cell_length_c                   28.817(2)
_cell_angle_alpha                90
_cell_angle_beta                 123.906(3)
_cell_angle_gamma                90
_cell_volume                     2230.26
_exptl_crystal_colour            colorless
_exptl_crystal_description       needle
_cell_formula_units_Z            4
loop_
_atom_site_label
_atom_site_type_symbol
_atom_site_fract_x
_atom_site_fract_y
_atom_site_fract_z
C1 C 0.8165(5) 1.1215(11) -0.2275(3)
H1 H 0.7694 1.1302 -0.2174
H2 H 0.8595 1.2630 -0.2104
C2 C 0.7676(5) 1.1336(13) -0.2872(3)
H3 H 0.7358 1.2935 -0.3001
H4 H 0.7174 1.0073 -0.3042
C3 C 0.8313(4) 1.0992(10) -0.3080(2)
H5 H 0.8737 1.2416 -0.2976
H6 H 0.7922 1.0845 -0.3492
C4 C 0.8908(5) 0.8701(11) -0.2819(2)
H7 H 0.8487 0.7267 -0.2983
H8 H 0.9384 0.8603 -0.2916
C5 C 0.9414(4) 0.8604(12) -0.2199(2)
H9 H 0.9731 0.7010 -0.2059
H10 H 0.9908 0.9884 -0.2025
C6 C 0.8780(3) 0.7611(9) -0.1648(2)
C7 C 0.8144(4) 0.8299(9) -0.1453(2)
H11 H 0.8287 0.9991 -0.1314
H12 H 0.7473 0.8243 -0.1777
C8 C 0.7582(3) 0.3571(8) -0.09088(17)
C9 C 0.6901(3) 0.1552(8) -0.11187(18)
H13 H 0.7033 0.0261 -0.0867
C10 C 0.6127(3) 0.1376(9) -0.16245(18)
H14 H 0.6005 0.2647 -0.1879
C11 C 0.5424(3) -0.0641(9) -0.1834(2)
H15 H 0.5674 -0.1941 -0.1549
H16 H 0.5340 -0.1330 -0.2176
C12 C 0.4454(3) 0.0198(10) -0.1967(2)
H17 H 0.4210 0.1530 -0.2245
H18 H 0.3996 -0.1165 -0.2134
C13 C 0.4524(3) 0.1067(10) -0.1451(2)
H19 H 0.4454 -0.0117 -0.1237
C14 C 0.4672(4) 0.3303(11) -0.1272(2)
H20 H 0.4668 0.4503 -0.1510
C15 C 0.4848(4) 0.4177(11) -0.0726(2)
H21 H 0.4309 0.5219 -0.0806
H22 H 0.4862 0.2755 -0.0511
C16 C 0.5759(4) 0.5582(10) -0.0368(2)
H23 H 0.5714 0.7116 -0.0560
H24 H 0.5837 0.6005 -0.0011
C17 C 0.6949(4) 0.2602(9) 0.0166(2)
C18 C 0.7819(3) 0.1412(8) 0.02974(17)
C19 C 0.8141(3) -0.0619(9) 0.06712(18)
C20 C 0.8936(3) -0.1946(9) 0.08167(18)
H25 H 0.9124 -0.3305 0.1059
C21 C 0.9454(3) -0.1253(9) 0.06013(18)
C22 C 0.9187(3) 0.0753(8) 0.02487(19)
H26 H 0.9566 0.1221 0.0115
C23 C 0.8374(3) 0.2079(8) 0.00903(18)
C24 C 0.8196(3) 0.4171(9) -0.02911(19)
H27 H 0.8817 0.4787 -0.0200
H28 H 0.7887 0.5494 -0.0215
O1 O 0.9321(2) 0.5886(7) -0.14450(14)
O2 O 0.8250(2) 0.6778(6) -0.10286(13)
O3 O 0.6600(2) 0.4246(6) -0.02470(13)
O4 O 0.6533(3) 0.2147(7) 0.04011(14)
O5 O 0.7655(2) -0.1379(6) 0.08943(13)
H29 H 0.7183 -0.0469 0.0784
O6 O 1.0239(2) -0.2468(7) 0.07076(14)
H30 H 1.0344 -0.3657 0.0917
N1 N 0.8721(3) 0.8971(8) -0.20463(19)
N2 N 0.7604(3) 0.4798(7) -0.12798(15)
loop_
_geom_bond_atom_site_label_1
_geom_bond_atom_site_label_2
_geom_bond_site_symmetry_1
_geom_bond_site_symmetry_2
C1 H1 1_555 1_555
H2 C1 1_555 1_555
C2 C1 1_555 1_555
H3 C2 1_555 1_555
H4 C2 1_555 1_555
C3 C2 1_555 1_555
H5 C3 1_555 1_555
H6 C3 1_555 1_555
C4 C3 1_555 1_555
H7 C4 1_555 1_555
H8 C4 1_555 1_555
C5 C4 1_555 1_555
H9 C5 1_555 1_555
H10 C5 1_555 1_555
C6 C7 1_555 1_555
C7 H11 1_555 1_555
H12 C7 1_555 1_555
C8 C9 1_555 1_555
C9 H13 1_555 1_555
C10 C9 1_555 1_555
H14 C10 1_555 1_555
C11 C10 1_555 1_555
H15 C11 1_555 1_555
H16 C11 1_555 1_555
C12 C11 1_555 1_555
H17 C12 1_555 1_555
H18 C12 1_555 1_555
C13 C12 1_555 1_555
H19 C13 1_555 1_555
C14 C13 1_555 1_555
H20 C14 1_555 1_555
C15 C14 1_555 1_555
H21 C15 1_555 1_555
H22 C15 1_555 1_555
C16 C15 1_555 1_555
H23 C16 1_555 1_555
H24 C16 1_555 1_555
C17 C18 1_555 1_555
C18 C19 1_555 1_555
C19 C20 1_555 1_555
C20 H25 1_555 1_555
C21 C20 1_555 1_555
C22 C21 1_555 1_555
H26 C22 1_555 1_555
C23 C18 1_555 1_555
C24 C8 1_555 1_555
H27 C24 1_555 1_555
H28 C24 1_555 1_555
O1 C6 1_555 1_555
O2 C7 1_555 1_555
O3 C16 1_555 1_555
O4 C17 1_555 1_555
O5 C19 1_555 1_555
H29 O5 1_555 1_555
O6 C21 1_555 1_555
H30 O6 1_555 1_555
N1 C1 1_555 1_555
N2 C8 1_555 1_555
C5 N1 1_555 1_555
C6 N1 1_555 1_555
C17 O3 1_555 1_555
C22 C23 1_555 1_555
C23 C24 1_555 1_555
O2 N2 1_555 1_555

#END
