
#######################################################################
#
#                 Cambridge Crystallographic Data Centre
#                                CCDC 
#
#######################################################################
#
# If this CIF has been generated from an entry in the Cambridge 
# Structural Database, then it will include bibliographic, chemical, 
# crystal, experimental, refinement or atomic coordinate data resulting 
# from the CCDC's data processing and validation procedures.
#
#######################################################################

data_SODJAX
_chemical_formula_moiety         'C25 H32 N2 O6'
_chemical_name_systematic        
'(Z)-1^4^,1^6^-Dihydroxy-4-methyl-3-oxa-1(1,2)benzenacyclotridecaphane-6,10-diene-2,12-dione 12-O-(piperidinoylmethyl)oxime'
_chemical_properties_biological  
'inhibition of the heat-shock protein 90 (HSP90); potential anti-cancer agent'
_symmetry_cell_setting           monoclinic
_symmetry_space_group_name_H-M   'P 21'
_symmetry_Int_Tables_number      4
_space_group_name_Hall           'P 2yb'
loop_
_symmetry_equiv_pos_site_id
_symmetry_equiv_pos_as_xyz
1 x,y,z
2 -x,1/2+y,-z
_cell_length_a                   9.5970(4)
_cell_length_b                   12.6365(7)
_cell_length_c                   9.9459(3)
_cell_angle_alpha                90
_cell_angle_beta                 110.871(2)
_cell_angle_gamma                90
_cell_volume                     1127.02
_exptl_crystal_colour            colorless
_exptl_crystal_description       block
_cell_formula_units_Z            2
loop_
_atom_site_label
_atom_site_type_symbol
_atom_site_fract_x
_atom_site_fract_y
_atom_site_fract_z
C1 C 0.9490(3) 0.1491(2) 0.1182(3)
H1 H 0.9830 0.1228 0.2185
H2 H 0.9987 0.1067 0.0647
C2 C 0.7815(3) 0.1361(2) 0.0493(3)
H3 H 0.7331 0.1700 0.1112
H4 H 0.7564 0.0599 0.0423
C3 C 0.7207(3) 0.1853(2) -0.1003(2)
H5 H 0.7562 0.1444 -0.1666
H6 H 0.6104 0.1825 -0.1372
C4 C 0.7715(3) 0.2996(2) -0.0955(2)
H7 H 0.7258 0.3424 -0.0388
H8 H 0.7380 0.3286 -0.1944
C5 C 0.9405(3) 0.3069(2) -0.0280(2)
H9 H 0.9867 0.2683 -0.0880
H10 H 0.9720 0.3819 -0.0225
C6 C 1.0700(2) 0.3100(2) 0.2406(2)
C7 C 1.1001(2) 0.4281(2) 0.2414(2)
H11 H 1.0525 0.4569 0.1430
H12 H 1.0565 0.4644 0.3053
C8 C 1.4502(2) 0.41678(17) 0.2210(2)
C9 C 1.5489(2) 0.44675(19) 0.3661(2)
H13 H 1.5075 0.4508 0.4397
C10 C 1.6930(3) 0.46862(19) 0.4006(2)
H14 H 1.7300 0.4761 0.3244
C11 C 1.8010(3) 0.4822(2) 0.5513(2)
H15 H 1.7476 0.4764 0.6198
H16 H 1.8471 0.5533 0.5623
C12 C 1.9229(3) 0.3967(2) 0.5851(3)
H17 H 1.9783 0.4051 0.5186
H18 H 1.9943 0.4072 0.6844
C13 C 1.8608(3) 0.2862(2) 0.5710(2)
H19 H 1.8581 0.2531 0.6558
C14 C 1.8098(3) 0.2317(2) 0.4498(2)
H20 H 1.8221 0.2620 0.3673
C15 C 1.7342(3) 0.1263(2) 0.4313(3)
H21 H 1.7664 0.0903 0.5259
H22 H 1.7680 0.0827 0.3661
C16 C 1.5635(3) 0.1310(2) 0.3709(2)
H23 H 1.5230 0.0573 0.3521
C17 C 1.3968(3) 0.1604(2) 0.1269(2)
C18 C 1.3618(2) 0.22214(19) -0.0063(2)
C19 C 1.2649(2) 0.17483(19) -0.1350(2)
C20 C 1.2386(2) 0.2200(2) -0.2692(2)
H24 H 1.1761 0.1854 -0.3540
C21 C 1.3040(2) 0.3153(2) -0.2780(2)
C22 C 1.3910(2) 0.3682(2) -0.1520(2)
H25 H 1.4301 0.4362 -0.1589
C23 C 1.4208(2) 0.32323(18) -0.0180(2)
C24 C 1.5186(2) 0.38652(19) 0.1108(2)
H26 H 1.6100 0.3450 0.1602
H27 H 1.5493 0.4522 0.0749
C25 C 1.4956(3) 0.1872(2) 0.4674(2)
H28 H 1.5336 0.2598 0.4848
H29 H 1.5224 0.1495 0.5593
H30 H 1.3868 0.1886 0.4206
N1 N 0.9904(2) 0.26076(17) 0.11747(19)
N2 N 1.3076(2) 0.41091(16) 0.17938(18)
O1 O 1.11782(18) 0.26181(15) 0.35690(16)
O2 O 1.25677(16) 0.44704(14) 0.29067(15)
O3 O 1.52077(17) 0.18908(13) 0.23316(15)
O4 O 1.3226(2) 0.08396(15) 0.13872(18)
O5 O 1.19484(18) 0.08102(14) -0.13337(19)
O6 O 1.2890(2) 0.36429(15) -0.40330(17)
H31 H 1.235(4) 0.322(3) -0.472(4)
H32 H 1.211(3) 0.061(3) -0.041(3)
loop_
_geom_bond_atom_site_label_1
_geom_bond_atom_site_label_2
_geom_bond_site_symmetry_1
_geom_bond_site_symmetry_2
C1 H1 1_555 1_555
H2 C1 1_555 1_555
C2 C1 1_555 1_555
H3 C2 1_555 1_555
H4 C2 1_555 1_555
C3 C2 1_555 1_555
H5 C3 1_555 1_555
H6 C3 1_555 1_555
C4 C3 1_555 1_555
H7 C4 1_555 1_555
H8 C4 1_555 1_555
C5 C4 1_555 1_555
H9 C5 1_555 1_555
H10 C5 1_555 1_555
C6 C7 1_555 1_555
C7 H11 1_555 1_555
H12 C7 1_555 1_555
C8 C9 1_555 1_555
C9 H13 1_555 1_555
C10 C9 1_555 1_555
H14 C10 1_555 1_555
C11 C10 1_555 1_555
H15 C11 1_555 1_555
H16 C11 1_555 1_555
C12 C11 1_555 1_555
H17 C12 1_555 1_555
H18 C12 1_555 1_555
C13 C12 1_555 1_555
H19 C13 1_555 1_555
C14 C13 1_555 1_555
H20 C14 1_555 1_555
C15 C14 1_555 1_555
H21 C15 1_555 1_555
H22 C15 1_555 1_555
C16 C15 1_555 1_555
H23 C16 1_555 1_555
C17 C18 1_555 1_555
C18 C19 1_555 1_555
C19 C20 1_555 1_555
C20 H24 1_555 1_555
C21 C20 1_555 1_555
C22 C21 1_555 1_555
H25 C22 1_555 1_555
C23 C18 1_555 1_555
C24 C8 1_555 1_555
H26 C24 1_555 1_555
H27 C24 1_555 1_555
C25 C16 1_555 1_555
H28 C25 1_555 1_555
H29 C25 1_555 1_555
H30 C25 1_555 1_555
N1 C1 1_555 1_555
N2 C8 1_555 1_555
O1 C6 1_555 1_555
O2 C7 1_555 1_555
O3 C16 1_555 1_555
O4 C17 1_555 1_555
O5 C19 1_555 1_555
O6 C21 1_555 1_555
H31 O6 1_555 1_555
H32 O5 1_555 1_555
C5 N1 1_555 1_555
C6 N1 1_555 1_555
C17 O3 1_555 1_555
C22 C23 1_555 1_555
C23 C24 1_555 1_555
N2 O2 1_555 1_555

#END
