
#######################################################################
#
#                 Cambridge Crystallographic Data Centre
#                                CCDC 
#
#######################################################################
#
# If this CIF has been generated from an entry in the Cambridge 
# Structural Database, then it will include bibliographic, chemical, 
# crystal, experimental, refinement or atomic coordinate data resulting 
# from the CCDC's data processing and validation procedures.
#
#######################################################################

data_SODPUY
_chemical_formula_moiety         'C67 H72 N2 O12,0.5(C1 H2 Cl2)'
_chemical_name_systematic        
'((9,14,19,24,26,28,30,32-octamethoxyhexacyclo[21.2.2.2^3,6^.2^8,11^.2^13,16^.2^18,21^]pentatriaconta-1(25),3,5,8,10,13,15,18,20,23,26,28,30,32,34-pentadecaene-4,34-diyl)di-4,1-phenylene)bis((2-(hydroxymethyl)pyrrolidin-1-yl)methanone) dichloromethane solvate'
_symmetry_cell_setting           monoclinic
_symmetry_space_group_name_H-M   'P 21'
_symmetry_Int_Tables_number      4
_space_group_name_Hall           'P 2yb'
loop_
_symmetry_equiv_pos_site_id
_symmetry_equiv_pos_as_xyz
1 x,y,z
2 -x,1/2+y,-z
_cell_length_a                   12.0918(5)
_cell_length_b                   21.3853(9)
_cell_length_c                   26.0509(12)
_cell_angle_alpha                90
_cell_angle_beta                 92.817(3)
_cell_angle_gamma                90
_cell_volume                     6728.28
_exptl_crystal_colour            colorless
_exptl_crystal_description       plate
_cell_formula_units_Z            4
loop_
_atom_site_label
_atom_site_type_symbol
_atom_site_fract_x
_atom_site_fract_y
_atom_site_fract_z
O1 O 0.4327(9) 0.2410(4) -0.1239(3)
O2 O 0.3962(6) 0.0888(3) 0.0463(3)
O3 O 0.6533(8) 0.0562(4) -0.0982(3)
O4 O 0.7319(9) -0.0464(4) 0.0957(3)
O5 O 1.0559(8) 0.0481(4) -0.0248(4)
O6 O 0.9849(9) 0.1555(4) 0.1637(4)
O7 O 1.1025(6) 0.2740(4) 0.0014(3)
O8 O 0.8070(6) 0.3613(4) 0.1401(3)
O9 O 1.0160(9) 0.3938(7) -0.2079(4)
O10 O 1.1374(15) 0.4920(9) -0.2591(6)
H1 H 1.1876 0.5154 -0.2467
O11 O 0.2029(6) 0.2771(3) 0.2288(3)
O12 O -0.0104(7) 0.2696(3) 0.2538(3)
H2 H -0.0016 0.2518 0.2825
N1 N 0.9079(13) 0.4792(6) -0.2366(4)
N2 N 0.1418(7) 0.3776(4) 0.2219(3)
C1 C 0.4479(9) 0.1393(5) -0.0840(4)
H3 H 0.4702 0.1222 -0.1155
C2 C 0.4723(14) 0.2134(6) -0.1680(4)
H4 H 0.4627 0.2424 -0.1970
H5 H 0.4310 0.1748 -0.1757
H6 H 0.5511 0.2035 -0.1621
C3 C 0.3903(9) 0.2292(4) -0.0366(4)
C4 C 0.3719(8) 0.3001(5) -0.0311(4)
H7 H 0.3464 0.3179 -0.0647
H8 H 0.3139 0.3079 -0.0063
C5 C 0.7427(13) 0.0786(7) -0.1250(5)
H9 H 0.7252 0.0755 -0.1621
H10 H 0.8088 0.0537 -0.1160
H11 H 0.7566 0.1225 -0.1158
C6 C 0.4410(9) 0.1001(5) -0.0400(4)
C7 C 0.4221(9) 0.2025(5) -0.0807(4)
C8 C 0.3811(8) 0.1925(4) 0.0057(4)
H12 H 0.3563 0.2107 0.0364
C9 C 0.4074(9) 0.1279(5) 0.0052(4)
C10 C 0.3716(10) 0.1140(5) 0.0931(4)
H13 H 0.3028 0.1381 0.0892
H14 H 0.4320 0.1416 0.1053
H15 H 0.3626 0.0803 0.1180
C11 C 0.4678(9) 0.0336(5) -0.0416(4)
H16 H 0.4589 0.0186 -0.0775
H17 H 0.4150 0.0102 -0.0210
C12 C 0.5851(10) 0.0203(5) -0.0210(4)
C13 C 0.6806(10) 0.0318(5) -0.0504(4)
C14 C 0.7883(11) 0.0163(5) -0.0305(5)
H18 H 0.8501 0.0225 -0.0511
C15 C 0.7130(12) -0.0207(5) 0.0475(5)
C16 C 0.6074(11) -0.0086(5) 0.0284(4)
H19 H 0.5469 -0.0197 0.0484
C17 C 0.8037(11) -0.0069(5) 0.0167(5)
C18 C 0.6484(14) -0.0503(7) 0.1288(5)
H20 H 0.5773 -0.0530 0.1092
H21 H 0.6491 -0.0130 0.1506
H22 H 0.6588 -0.0876 0.1503
C19 C 0.9209(13) -0.0170(6) 0.0383(7)
H23 H 0.9647 -0.0384 0.0124
H24 H 0.9197 -0.0441 0.0691
C20 C 0.9763(11) 0.0462(5) 0.0531(6)
C21 C 1.0430(12) 0.0764(6) 0.0216(6)
C22 C 1.0919(10) 0.1339(6) 0.0355(6)
H25 H 1.1377 0.1557 0.0129
C23 C 1.0699(9) 0.1587(5) 0.0855(5)
C24 C 0.9986(11) 0.1275(6) 0.1151(6)
C25 C 0.9561(10) 0.0698(6) 0.1014(6)
H26 H 0.9137 0.0465 0.1245
C26 C 1.1260(12) 0.0810(6) -0.0612(6)
H27 H 1.1209 0.0597 -0.0945
H28 H 1.2032 0.0808 -0.0477
H29 H 1.1005 0.1242 -0.0654
C27 C 0.8896(15) 0.1420(7) 0.1875(6)
H30 H 0.8297 0.1344 0.1616
H31 H 0.8700 0.1773 0.2092
H32 H 0.9009 0.1046 0.2089
C28 C 1.1155(10) 0.2226(5) 0.0993(5)
H33 H 1.1334 0.2245 0.1368
H34 H 1.1849 0.2296 0.0815
C29 C 1.0349(8) 0.2730(5) 0.0847(4)
C30 C 1.0302(8) 0.2970(5) 0.0341(4)
C31 C 0.9503(8) 0.3448(4) 0.0204(4)
H35 H 0.9474 0.3619 -0.0133
C32 C 0.8763(8) 0.3665(4) 0.0565(4)
C33 C 0.8801(8) 0.3408(4) 0.1041(4)
C34 C 0.9629(8) 0.2962(4) 0.1190(4)
H36 H 0.9682 0.2820 0.1536
C35 C 1.0885(10) 0.2899(6) -0.0504(5)
H37 H 1.1394 0.2653 -0.0704
H38 H 1.1042 0.3345 -0.0547
H39 H 1.0120 0.2812 -0.0625
C36 C 0.7527(9) 0.3153(5) 0.1665(4)
H40 H 0.7164 0.2863 0.1419
H41 H 0.6969 0.3346 0.1875
H42 H 0.8063 0.2924 0.1888
C37 C 0.7908(8) 0.4158(4) 0.0389(4)
H43 H 0.7771 0.4439 0.0681
H44 H 0.8218 0.4413 0.0113
C38 C 0.6836(8) 0.3887(4) 0.0194(4)
C39 C 0.6619(8) 0.3742(4) -0.0336(4)
C40 C 0.5622(8) 0.3462(4) -0.0476(4)
H45 H 0.5475 0.3360 -0.0827
C41 C 0.4804(8) 0.3318(4) -0.0122(4)
C42 C 0.4982(8) 0.3512(4) 0.0386(4)
C43 C 0.6041(8) 0.3757(4) 0.0535(4)
H46 H 0.6207 0.3834 0.0889
C44 C 0.7361(8) 0.3899(5) -0.0747(4)
C45 C 0.7609(8) 0.4516(5) -0.0857(4)
H47 H 0.7341 0.4839 -0.0645
C46 C 0.8254(9) 0.4677(6) -0.1280(4)
H48 H 0.8416 0.5101 -0.1358
C47 C 0.8641(10) 0.4182(7) -0.1576(4)
C48 C 0.8458(11) 0.3573(7) -0.1462(4)
H49 H 0.8771 0.3250 -0.1658
C49 C 0.7788(10) 0.3424(5) -0.1042(4)
H50 H 0.7635 0.3000 -0.0965
C50 C 0.9365(14) 0.4319(11) -0.2025(6)
C51 C 0.805(2) 0.5132(9) -0.2369(7)
H51 H 0.8152 0.5559 -0.2229
H52 H 0.7490 0.4909 -0.2170
C52 C 0.770(2) 0.5146(11) -0.2961(6)
H53 H 0.7355 0.4745 -0.3072
H54 H 0.7167 0.5490 -0.3040
C53 C 0.865(2) 0.5241(12) -0.3188(7)
H55 H 0.8804 0.5694 -0.3205
H56 H 0.8590 0.5075 -0.3543
C54 C 0.9692(19) 0.4868(10) -0.2842(7)
H57 H 0.9880 0.4456 -0.2998
C55 C 1.0550(18) 0.5290(13) -0.2864(9)
H58 H 1.0395 0.5685 -0.2684
H59 H 1.0745 0.5379 -0.3221
C56 C 0.4199(8) 0.3431(4) 0.0800(4)
C57 C 0.3111(8) 0.3708(4) 0.0762(4)
H60 H 0.2857 0.3898 0.0448
C58 C 0.2453(8) 0.3702(4) 0.1161(4)
H61 H 0.1765 0.3917 0.1133
C59 C 0.2762(8) 0.3380(4) 0.1628(4)
C60 C 0.3801(9) 0.3083(5) 0.1664(4)
H62 H 0.4028 0.2864 0.1968
C61 C 0.4491(9) 0.3108(5) 0.1259(4)
H63 H 0.5186 0.2901 0.1290
C62 C 0.2044(9) 0.3289(5) 0.2057(4)
C63 C 0.1471(11) 0.4430(5) 0.2049(4)
H64 H 0.0870 0.4527 0.1790
H65 H 0.2194 0.4525 0.1904
C64 C 0.1322(11) 0.4795(5) 0.2556(4)
H66 H 0.2043 0.4855 0.2746
H67 H 0.0987 0.5211 0.2484
C65 C 0.0578(10) 0.4406(6) 0.2855(4)
H68 H -0.0206 0.4511 0.2767
H69 H 0.0726 0.4474 0.3228
C66 C 0.0830(9) 0.3702(5) 0.2707(4)
H70 H 0.1312 0.3493 0.2978
C67 C -0.0253(10) 0.3355(4) 0.2614(5)
H71 H -0.0716 0.3420 0.2913
H72 H -0.0654 0.3533 0.2308
O13 O -0.0632(9) 0.2800(4) 0.6231(3)
O14 O -0.0954(6) 0.4331(3) 0.4515(3)
O15 O 0.1770(8) 0.4617(4) 0.6018(3)
O16 O 0.2393(8) 0.5641(4) 0.4111(3)
O17 O 0.5737(8) 0.4675(5) 0.5371(4)
O18 O 0.4719(7) 0.3632(4) 0.3469(3)
O19 O 0.5894(6) 0.2423(3) 0.5120(3)
O20 O 0.2774(6) 0.1565(3) 0.3653(3)
O21 O 0.5090(7) 0.0979(4) 0.7269(3)
O22 O 0.6077(6) 0.0002(4) 0.7783(3)
H73 H 0.6025 0.0393 0.7771
O23 O -0.3676(7) 0.2346(4) 0.2706(3)
O24 O -0.6762(6) 0.1611(4) 0.2071(3)
H74 H -0.7400 0.1595 0.2184
N3 N 0.3662(8) 0.0334(4) 0.7461(3)
N4 N -0.4110(8) 0.1327(4) 0.2787(3)
C68 C -0.0395(10) 0.3826(5) 0.5832(4)
H75 H -0.0118 0.4003 0.6147
C69 C 0.2665(12) 0.4304(6) 0.6291(5)
H76 H 0.2973 0.3985 0.6070
H77 H 0.2393 0.4106 0.6600
H78 H 0.3243 0.4609 0.6391
C70 C -0.0264(14) 0.3015(6) 0.6701(5)
H79 H 0.0498 0.3167 0.6682
H80 H -0.0282 0.2675 0.6953
H81 H -0.0741 0.3358 0.6806
C71 C -0.1063(9) 0.2927(4) 0.5355(4)
C72 C -0.1346(9) 0.2241(5) 0.5303(4)
H82 H -0.1986 0.2187 0.5056
H83 H -0.1553 0.2074 0.5640
C73 C -0.0476(9) 0.4198(4) 0.5388(4)
C74 C -0.0717(10) 0.3198(5) 0.5818(4)
C75 C -0.1167(8) 0.3306(4) 0.4910(4)
H84 H -0.1441 0.3130 0.4594
C76 C -0.0866(8) 0.3943(4) 0.4932(4)
C77 C -0.1312(9) 0.4066(5) 0.4019(4)
H85 H -0.1349 0.4398 0.3759
H86 H -0.2046 0.3877 0.4043
H87 H -0.0783 0.3746 0.3920
C78 C -0.0119(10) 0.4890(5) 0.5418(4)
H88 H -0.0655 0.5145 0.5208
H89 H -0.0142 0.5034 0.5778
C79 C 0.1003(10) 0.4997(4) 0.5236(4)
C80 C 0.1918(11) 0.4880(5) 0.5556(5)
C81 C 0.2979(11) 0.4970(5) 0.5365(6)
H90 H 0.3612 0.4839 0.5567
C82 C 0.2237(10) 0.5377(5) 0.4590(5)
C83 C 0.1175(10) 0.5254(5) 0.4747(5)
H91 H 0.0554 0.5345 0.4521
C84 C 0.3122(9) 0.5246(4) 0.4889(5)
C85 C 0.1501(12) 0.5749(6) 0.3780(5)
H92 H 0.1728 0.5714 0.3426
H93 H 0.1214 0.6171 0.3838
H94 H 0.0922 0.5441 0.3840
C86 C 0.4280(11) 0.5356(6) 0.4703(6)
H95 H 0.4238 0.5634 0.4399
H96 H 0.4740 0.5565 0.4977
C87 C 0.4817(9) 0.4739(5) 0.4563(5)
C88 C 0.5490(9) 0.4414(5) 0.4897(5)
C89 C 0.5916(9) 0.3829(5) 0.4761(4)
H97 H 0.6393 0.3607 0.4998
C90 C 0.5634(8) 0.3569(5) 0.4270(4)
C91 C 0.4958(9) 0.3904(5) 0.3932(4)
C92 C 0.4556(10) 0.4499(5) 0.4078(5)
H98 H 0.4103 0.4734 0.3841
C93 C 0.6453(12) 0.4336(7) 0.5714(6)
H99 H 0.7214 0.4368 0.5602
H100 H 0.6227 0.3896 0.5715
H101 H 0.6416 0.4510 0.6060
C94 C 0.3859(11) 0.3931(6) 0.3137(4)
H102 H 0.3655 0.3655 0.2848
H103 H 0.4140 0.4327 0.3007
H104 H 0.3206 0.4012 0.3336
C95 C 0.6004(9) 0.2929(5) 0.4148(4)
H105 H 0.6706 0.2840 0.4345
H106 H 0.6148 0.2905 0.3777
C96 C 0.5138(8) 0.2430(4) 0.4275(4)
C97 C 0.5087(8) 0.2189(4) 0.4769(4)
C98 C 0.4319(8) 0.1739(4) 0.4881(4)
H107 H 0.4322 0.1572 0.5219
C99 C 0.3534(8) 0.1522(4) 0.4510(4)
C100 C 0.3569(8) 0.1776(4) 0.4025(3)
C101 C 0.4347(9) 0.2234(5) 0.3915(4)
H108 H 0.4328 0.2414 0.3581
C102 C 0.5828(9) 0.2229(5) 0.5644(4)
H109 H 0.5841 0.1771 0.5662
H110 H 0.5138 0.2384 0.5780
H111 H 0.6461 0.2398 0.5849
C103 C 0.2186(10) 0.2067(5) 0.3386(4)
H112 H 0.1643 0.1890 0.3135
H113 H 0.2713 0.2327 0.3208
H114 H 0.1804 0.2323 0.3634
C104 C 0.2680(8) 0.1036(4) 0.4638(4)
H115 H 0.2495 0.0782 0.4329
H116 H 0.3002 0.0754 0.4907
C105 C 0.1652(8) 0.1317(4) 0.4822(3)
C106 C 0.1478(8) 0.1458(4) 0.5347(4)
C107 C 0.0502(8) 0.1751(4) 0.5478(4)
H117 H 0.0416 0.1865 0.5826
C108 C -0.0349(8) 0.1881(4) 0.5117(4)
C109 C -0.0213(8) 0.1721(4) 0.4607(4)
C110 C 0.0770(8) 0.1454(4) 0.4473(4)
H118 H 0.0854 0.1357 0.4121
C111 C 0.2289(8) 0.1276(4) 0.5779(3)
C112 C 0.2545(8) 0.0651(4) 0.5878(4)
H119 H 0.2308 0.0340 0.5636
C113 C 0.3130(9) 0.0476(5) 0.6315(4)
H120 H 0.3250 0.0045 0.6386
C114 C 0.3549(9) 0.0921(5) 0.6653(4)
C115 C 0.3365(9) 0.1544(5) 0.6542(4)
H121 H 0.3673 0.1855 0.6766
C116 C 0.2744(9) 0.1722(4) 0.6110(4)
H122 H 0.2626 0.2153 0.6040
C117 C 0.4160(10) 0.0761(6) 0.7153(5)
C118 C 0.2507(10) 0.0127(6) 0.7435(5)
H123 H 0.2447 -0.0306 0.7303
H124 H 0.2049 0.0404 0.7206
C119 C 0.2134(10) 0.0160(6) 0.7975(5)
H125 H 0.1511 -0.0129 0.8028
H126 H 0.1915 0.0591 0.8067
C120 C 0.3193(10) -0.0047(6) 0.8282(4)
H127 H 0.3202 0.0120 0.8637
H128 H 0.3238 -0.0508 0.8298
C121 C 0.4142(9) 0.0216(6) 0.7997(4)
H129 H 0.4393 0.0620 0.8158
C122 C 0.5117(9) -0.0252(6) 0.8004(5)
H130 H 0.5309 -0.0377 0.8363
H131 H 0.4882 -0.0633 0.7811
C123 C -0.1103(8) 0.1785(4) 0.4201(4)
C124 C -0.2140(8) 0.1493(4) 0.4231(4)
H132 H -0.2310 0.1283 0.4539
C125 C -0.2905(8) 0.1504(4) 0.3830(3)
H133 H -0.3589 0.1294 0.3865
C126 C -0.2719(8) 0.1814(4) 0.3368(4)
C127 C -0.1692(8) 0.2118(5) 0.3346(4)
H134 H -0.1535 0.2338 0.3041
C128 C -0.0909(9) 0.2113(5) 0.3743(4)
H135 H -0.0230 0.2330 0.3710
C129 C -0.3517(10) 0.1849(6) 0.2938(4)
C130 C -0.3764(13) 0.0696(6) 0.2946(5)
H136 H -0.4221 0.0527 0.3219
H137 H -0.2971 0.0678 0.3059
C131 C -0.3997(16) 0.0372(7) 0.2433(6)
H138 H -0.3385 0.0448 0.2202
H139 H -0.4070 -0.0085 0.2484
C132 C -0.5059(15) 0.0637(7) 0.2204(6)
H140 H -0.5712 0.0453 0.2362
H141 H -0.5125 0.0575 0.1827
C133 C -0.4919(10) 0.1319(6) 0.2342(4)
H142 H -0.4603 0.1547 0.2048
C134 C -0.5965(9) 0.1636(5) 0.2488(4)
H143 H -0.6258 0.1425 0.2791
H144 H -0.5807 0.2077 0.2580
Cl1 Cl 0.1668(3) 0.36042(18) 0.41455(14)
Cl2 Cl 0.2011(4) 0.30945(19) 0.51548(18)
C135 C 0.2641(12) 0.3430(9) 0.4646(5)
H145 H 0.3204 0.3139 0.4519
H146 H 0.3023 0.3818 0.4761
loop_
_geom_bond_atom_site_label_1
_geom_bond_atom_site_label_2
_geom_bond_site_symmetry_1
_geom_bond_site_symmetry_2
O1 C2 1_555 1_555
O2 C9 1_555 1_555
O3 C5 1_555 1_555
O4 C15 1_555 1_555
O5 C21 1_555 1_555
O6 C24 1_555 1_555
O7 C30 1_555 1_555
O8 C33 1_555 1_555
O9 C50 1_555 1_555
O10 H1 1_555 1_555
O11 C62 1_555 1_555
O12 H2 1_555 1_555
N1 C50 1_555 1_555
N2 C62 1_555 1_555
C1 H3 1_555 1_555
C2 H4 1_555 1_555
H5 C2 1_555 1_555
H6 C2 1_555 1_555
C3 C4 1_555 1_555
C4 H7 1_555 1_555
H8 C4 1_555 1_555
C5 H9 1_555 1_555
H10 C5 1_555 1_555
H11 C5 1_555 1_555
C6 C1 1_555 1_555
C7 O1 1_555 1_555
C8 C3 1_555 1_555
H12 C8 1_555 1_555
C9 C6 1_555 1_555
C10 O2 1_555 1_555
H13 C10 1_555 1_555
H14 C10 1_555 1_555
H15 C10 1_555 1_555
C11 C6 1_555 1_555
H16 C11 1_555 1_555
H17 C11 1_555 1_555
C12 C11 1_555 1_555
C13 O3 1_555 1_555
C14 C13 1_555 1_555
H18 C14 1_555 1_555
C15 C16 1_555 1_555
C16 C12 1_555 1_555
H19 C16 1_555 1_555
C17 C14 1_555 1_555
C18 O4 1_555 1_555
H20 C18 1_555 1_555
H21 C18 1_555 1_555
H22 C18 1_555 1_555
C19 C17 1_555 1_555
H23 C19 1_555 1_555
H24 C19 1_555 1_555
C20 C19 1_555 1_555
C21 C20 1_555 1_555
C22 C21 1_555 1_555
H25 C22 1_555 1_555
C23 C22 1_555 1_555
C24 C23 1_555 1_555
C25 C20 1_555 1_555
H26 C25 1_555 1_555
C26 O5 1_555 1_555
H27 C26 1_555 1_555
H28 C26 1_555 1_555
H29 C26 1_555 1_555
C27 O6 1_555 1_555
H30 C27 1_555 1_555
H31 C27 1_555 1_555
H32 C27 1_555 1_555
C28 C23 1_555 1_555
H33 C28 1_555 1_555
H34 C28 1_555 1_555
C29 C28 1_555 1_555
C30 C29 1_555 1_555
C31 C30 1_555 1_555
H35 C31 1_555 1_555
C32 C31 1_555 1_555
C33 C32 1_555 1_555
C34 C29 1_555 1_555
H36 C34 1_555 1_555
C35 O7 1_555 1_555
H37 C35 1_555 1_555
H38 C35 1_555 1_555
H39 C35 1_555 1_555
C36 O8 1_555 1_555
H40 C36 1_555 1_555
H41 C36 1_555 1_555
H42 C36 1_555 1_555
C37 C32 1_555 1_555
H43 C37 1_555 1_555
H44 C37 1_555 1_555
C38 C37 1_555 1_555
C39 C38 1_555 1_555
C40 C39 1_555 1_555
H45 C40 1_555 1_555
C41 C4 1_555 1_555
C42 C41 1_555 1_555
C43 C38 1_555 1_555
H46 C43 1_555 1_555
C44 C39 1_555 1_555
C45 C44 1_555 1_555
H47 C45 1_555 1_555
C46 C45 1_555 1_555
H48 C46 1_555 1_555
C47 C46 1_555 1_555
C48 C47 1_555 1_555
H49 C48 1_555 1_555
C49 C44 1_555 1_555
H50 C49 1_555 1_555
C50 C47 1_555 1_555
C51 N1 1_555 1_555
H51 C51 1_555 1_555
H52 C51 1_555 1_555
C52 C51 1_555 1_555
H53 C52 1_555 1_555
H54 C52 1_555 1_555
C53 C52 1_555 1_555
H55 C53 1_555 1_555
H56 C53 1_555 1_555
C54 N1 1_555 1_555
H57 C54 1_555 1_555
C55 O10 1_555 1_555
H58 C55 1_555 1_555
H59 C55 1_555 1_555
C56 C42 1_555 1_555
C57 C56 1_555 1_555
H60 C57 1_555 1_555
C58 C57 1_555 1_555
H61 C58 1_555 1_555
C59 C58 1_555 1_555
C60 C59 1_555 1_555
H62 C60 1_555 1_555
C61 C56 1_555 1_555
H63 C61 1_555 1_555
C62 C59 1_555 1_555
C63 N2 1_555 1_555
H64 C63 1_555 1_555
H65 C63 1_555 1_555
C64 C63 1_555 1_555
H66 C64 1_555 1_555
H67 C64 1_555 1_555
C65 C64 1_555 1_555
H68 C65 1_555 1_555
H69 C65 1_555 1_555
C66 N2 1_555 1_555
H70 C66 1_555 1_555
C67 O12 1_555 1_555
H71 C67 1_555 1_555
H72 C67 1_555 1_555
O13 C70 1_555 1_555
O14 C76 1_555 1_555
O15 C69 1_555 1_555
O16 C82 1_555 1_555
O17 C88 1_555 1_555
O18 C91 1_555 1_555
O19 C97 1_555 1_555
O20 C100 1_555 1_555
O21 C117 1_555 1_555
O22 H73 1_555 1_555
O23 C129 1_555 1_555
O24 H74 1_555 1_555
N3 C117 1_555 1_555
N4 C129 1_555 1_555
C68 H75 1_555 1_555
C69 H76 1_555 1_555
H77 C69 1_555 1_555
H78 C69 1_555 1_555
C70 H79 1_555 1_555
H80 C70 1_555 1_555
H81 C70 1_555 1_555
C71 C72 1_555 1_555
C72 H82 1_555 1_555
H83 C72 1_555 1_555
C73 C68 1_555 1_555
C74 O13 1_555 1_555
C75 C71 1_555 1_555
H84 C75 1_555 1_555
C76 C73 1_555 1_555
C77 O14 1_555 1_555
H85 C77 1_555 1_555
H86 C77 1_555 1_555
H87 C77 1_555 1_555
C78 C73 1_555 1_555
H88 C78 1_555 1_555
H89 C78 1_555 1_555
C79 C78 1_555 1_555
C80 O15 1_555 1_555
C81 C80 1_555 1_555
H90 C81 1_555 1_555
C82 C83 1_555 1_555
C83 C79 1_555 1_555
H91 C83 1_555 1_555
C84 C81 1_555 1_555
C85 O16 1_555 1_555
H92 C85 1_555 1_555
H93 C85 1_555 1_555
H94 C85 1_555 1_555
C86 C84 1_555 1_555
H95 C86 1_555 1_555
H96 C86 1_555 1_555
C87 C86 1_555 1_555
C88 C87 1_555 1_555
C89 C88 1_555 1_555
H97 C89 1_555 1_555
C90 C89 1_555 1_555
C91 C90 1_555 1_555
C92 C87 1_555 1_555
H98 C92 1_555 1_555
C93 O17 1_555 1_555
H99 C93 1_555 1_555
H100 C93 1_555 1_555
H101 C93 1_555 1_555
C94 O18 1_555 1_555
H102 C94 1_555 1_555
H103 C94 1_555 1_555
H104 C94 1_555 1_555
C95 C90 1_555 1_555
H105 C95 1_555 1_555
H106 C95 1_555 1_555
C96 C95 1_555 1_555
C97 C96 1_555 1_555
C98 C97 1_555 1_555
H107 C98 1_555 1_555
C99 C98 1_555 1_555
C100 C99 1_555 1_555
C101 C96 1_555 1_555
H108 C101 1_555 1_555
C102 O19 1_555 1_555
H109 C102 1_555 1_555
H110 C102 1_555 1_555
H111 C102 1_555 1_555
C103 O20 1_555 1_555
H112 C103 1_555 1_555
H113 C103 1_555 1_555
H114 C103 1_555 1_555
C104 C99 1_555 1_555
H115 C104 1_555 1_555
H116 C104 1_555 1_555
C105 C104 1_555 1_555
C106 C105 1_555 1_555
C107 C106 1_555 1_555
H117 C107 1_555 1_555
C108 C72 1_555 1_555
C109 C108 1_555 1_555
C110 C105 1_555 1_555
H118 C110 1_555 1_555
C111 C106 1_555 1_555
C112 C111 1_555 1_555
H119 C112 1_555 1_555
C113 C112 1_555 1_555
H120 C113 1_555 1_555
C114 C113 1_555 1_555
C115 C114 1_555 1_555
H121 C115 1_555 1_555
C116 C111 1_555 1_555
H122 C116 1_555 1_555
C117 C114 1_555 1_555
C118 N3 1_555 1_555
H123 C118 1_555 1_555
H124 C118 1_555 1_555
C119 C118 1_555 1_555
H125 C119 1_555 1_555
H126 C119 1_555 1_555
C120 C119 1_555 1_555
H127 C120 1_555 1_555
H128 C120 1_555 1_555
C121 N3 1_555 1_555
H129 C121 1_555 1_555
C122 O22 1_555 1_555
H130 C122 1_555 1_555
H131 C122 1_555 1_555
C123 C109 1_555 1_555
C124 C123 1_555 1_555
H132 C124 1_555 1_555
C125 C124 1_555 1_555
H133 C125 1_555 1_555
C126 C125 1_555 1_555
C127 C126 1_555 1_555
H134 C127 1_555 1_555
C128 C123 1_555 1_555
H135 C128 1_555 1_555
C129 C126 1_555 1_555
C130 N4 1_555 1_555
H136 C130 1_555 1_555
H137 C130 1_555 1_555
C131 C130 1_555 1_555
H138 C131 1_555 1_555
H139 C131 1_555 1_555
C132 C131 1_555 1_555
H140 C132 1_555 1_555
H141 C132 1_555 1_555
C133 N4 1_555 1_555
H142 C133 1_555 1_555
C134 O24 1_555 1_555
H143 C134 1_555 1_555
H144 C134 1_555 1_555
Cl1 C135 1_555 1_555
Cl2 C135 1_555 1_555
C135 H145 1_555 1_555
H146 C135 1_555 1_555
C1 C7 1_555 1_555
C3 C7 1_555 1_555
C8 C9 1_555 1_555
C12 C13 1_555 1_555
C15 C17 1_555 1_555
C24 C25 1_555 1_555
C33 C34 1_555 1_555
C40 C41 1_555 1_555
C42 C43 1_555 1_555
C48 C49 1_555 1_555
C53 C54 1_555 1_555
C54 C55 1_555 1_555
C60 C61 1_555 1_555
C65 C66 1_555 1_555
C66 C67 1_555 1_555
C68 C74 1_555 1_555
C71 C74 1_555 1_555
C75 C76 1_555 1_555
C79 C80 1_555 1_555
C82 C84 1_555 1_555
C91 C92 1_555 1_555
C100 C101 1_555 1_555
C107 C108 1_555 1_555
C109 C110 1_555 1_555
C115 C116 1_555 1_555
C120 C121 1_555 1_555
C121 C122 1_555 1_555
C127 C128 1_555 1_555
C132 C133 1_555 1_555
C133 C134 1_555 1_555

#END
