
#######################################################################
#
#                 Cambridge Crystallographic Data Centre
#                                CCDC 
#
#######################################################################
#
# If this CIF has been generated from an entry in the Cambridge 
# Structural Database, then it will include bibliographic, chemical, 
# crystal, experimental, refinement or atomic coordinate data resulting 
# from the CCDC's data processing and validation procedures.
#
#######################################################################

data_SODQAF
_chemical_formula_moiety         'C67 H72 N2 O12'
_chemical_name_systematic        
((9,14,19,24,26,28,30,32-octamethoxyhexacyclo[21.2.2.2^3,6^.2^8,11^.2^13,16^.2^18,21^]pentatriaconta-1(25),3,5,8,10,13,15,18,20,23,26,28,30,32,34-pentadecaene-4,34-diyl)di-4,1-phenylene)bis((2-(hydroxymethyl)pyrrolidin-1-yl)methanone)
_symmetry_cell_setting           monoclinic
_symmetry_space_group_name_H-M   'P 21'
_symmetry_Int_Tables_number      4
_space_group_name_Hall           'P 2yb'
loop_
_symmetry_equiv_pos_site_id
_symmetry_equiv_pos_as_xyz
1 x,y,z
2 -x,1/2+y,-z
_cell_length_a                   12.9346(18)
_cell_length_b                   11.7299(11)
_cell_length_c                   21.685(3)
_cell_angle_alpha                90
_cell_angle_beta                 97.077(9)
_cell_angle_gamma                90
_cell_volume                     3265.02
_exptl_crystal_colour            colorless
_exptl_crystal_description       plate
_cell_formula_units_Z            2
loop_
_atom_site_label
_atom_site_type_symbol
_atom_site_fract_x
_atom_site_fract_y
_atom_site_fract_z
O1 O -0.0091(9) 0.9691(9) 0.5141(4)
O2 O 0.2069(8) 0.6311(9) 0.6533(5)
O3 O 0.0611(9) 1.3234(9) 0.6294(4)
O4 O 0.3784(8) 1.0077(10) 0.6210(5)
O5 O -0.0744(8) 1.3234(9) 0.8379(4)
O6 O 0.3355(9) 1.2066(10) 0.8107(4)
O7 O -0.2333(9) 0.9160(9) 0.8393(4)
O8 O 0.1475(8) 0.9967(9) 0.9819(5)
O9 O -0.5831(9) 0.7199(11) 0.5275(5)
O10 O -0.7081(12) 0.6815(16) 0.4222(7)
H1 H -0.6841 0.6655 0.4590
O11 O 0.4106(9) 0.6103(9) 1.0190(5)
O12 O 0.5525(8) 0.3346(10) 0.9798(5)
H2 H 0.6070 0.2959 0.9796
N1 N -0.4902(10) 0.8096(12) 0.4657(6)
N2 N 0.3636(10) 0.4269(11) 1.0239(5)
C1 C -0.0117(12) 0.6057(12) 0.6318(6)
H3 H 0.0357 0.5391 0.6358
H4 H -0.0737 0.5856 0.6024
C2 C 0.0435(12) 0.7077(12) 0.6073(6)
C3 C -0.0110(12) 0.7930(12) 0.5739(6)
H5 H -0.0850 0.7901 0.5680
C4 C 0.0394(13) 0.8833(13) 0.5485(7)
C5 C 0.1498(13) 0.8868(13) 0.5566(7)
C6 C 0.2059(13) 0.8083(13) 0.5926(6)
H6 H 0.2796 0.8139 0.6003
C7 C 0.1519(12) 0.7166(13) 0.6189(7)
C8 C -0.1226(12) 0.9712(12) 0.5049(7)
H7 H -0.1474 0.9530 0.4615
H8 H -0.1472 1.0473 0.5149
H9 H -0.1496 0.9147 0.5321
C9 C 0.3056(13) 0.6590(15) 0.6854(9)
H10 H 0.3550 0.6726 0.6553
H11 H 0.3306 0.5958 0.7128
H12 H 0.2996 0.7279 0.7102
C10 C 0.2053(13) 0.9890(14) 0.5319(7)
H13 H 0.2742 0.9646 0.5213
H14 H 0.1641 1.0170 0.4933
C11 C 0.2200(12) 1.0859(13) 0.5790(7)
C12 C 0.1371(13) 1.1665(14) 0.5790(6)
H15 H 0.0781 1.1661 0.5482
C13 C 0.1482(13) 1.2407(13) 0.6241(7)
C14 C 0.2268(12) 1.2487(13) 0.6686(6)
C15 C 0.3067(12) 1.1781(13) 0.6676(7)
H16 H 0.3679 1.1859 0.6964
C16 C 0.2983(13) 1.0929(14) 0.6234(7)
C17 C -0.0409(14) 1.2903(15) 0.6039(7)
H17 H -0.0455 1.2892 0.5585
H18 H -0.0916 1.3447 0.6167
H19 H -0.0559 1.2140 0.6189
C18 C 0.4396(13) 0.9813(14) 0.6805(7)
H20 H 0.4866 0.9175 0.6751
H21 H 0.3927 0.9605 0.7109
H22 H 0.4806 1.0483 0.6954
C19 C 0.2302(12) 1.3465(12) 0.7218(6)
H23 H 0.3034 1.3683 0.7355
H24 H 0.1925 1.4151 0.7045
C20 C 0.1810(12) 1.3030(12) 0.7758(6)
C21 C 0.0786(12) 1.3306(13) 0.7808(7)
H25 H 0.0424 1.3766 0.7491
C22 C 0.0234(13) 1.2946(13) 0.8306(7)
C23 C 0.0845(12) 1.2334(12) 0.8773(6)
C24 C 0.1845(12) 1.1995(12) 0.8695(7)
H26 H 0.2204 1.1514 0.9003
C25 C 0.2353(13) 1.2310(14) 0.8199(7)
C26 C -0.1360(12) 1.3649(15) 0.7833(7)
H27 H -0.1391 1.3070 0.7505
H28 H -0.1045 1.4347 0.7691
H29 H -0.2066 1.3815 0.7927
C27 C 0.3907(15) 1.1205(17) 0.8523(7)
H30 H 0.4509 1.0916 0.8337
H31 H 0.3432 1.0573 0.8581
H32 H 0.4144 1.1554 0.8926
C28 C 0.0326(13) 1.1872(13) 0.9323(7)
H33 H 0.0845 1.1871 0.9699
H34 H -0.0245 1.2393 0.9402
C29 C -0.0113(13) 1.0674(12) 0.9219(7)
C30 C -0.1059(13) 1.0509(13) 0.8859(6)
H35 H -0.1470 1.1133 0.8691
C31 C -0.1374(13) 0.9412(13) 0.8757(7)
C32 C -0.0800(12) 0.8493(13) 0.8970(6)
C33 C 0.0127(13) 0.8605(14) 0.9353(7)
H36 H 0.0492 0.7965 0.9540
C34 C 0.0506(14) 0.9750(14) 0.9454(7)
C35 C -0.2997(13) 1.0058(14) 0.8131(7)
H37 H -0.3443 0.9771 0.7766
H38 H -0.2570 1.0688 0.8007
H39 H -0.3432 1.0329 0.8440
C36 C 0.1998(13) 0.9074(15) 1.0173(8)
H40 H 0.2301 0.8546 0.9895
H41 H 0.1501 0.8665 1.0399
H42 H 0.2554 0.9396 1.0470
C37 C -0.1178(12) 0.7252(12) 0.8807(6)
H43 H -0.0869 0.6731 0.9139
H44 H -0.1945 0.7221 0.8798
C38 C -0.0896(11) 0.6842(11) 0.8197(6)
C39 C -0.1636(12) 0.7034(12) 0.7677(6)
H45 H -0.2274 0.7385 0.7745
C40 C -0.1511(11) 0.6765(12) 0.7106(7)
C41 C -0.0462(11) 0.6363(11) 0.6979(6)
C42 C 0.0229(12) 0.6240(11) 0.7513(6)
H46 H 0.0901 0.5968 0.7453
C43 C 0.0089(11) 0.6447(11) 0.8106(6)
C44 C -0.2343(11) 0.6971(13) 0.6561(6)
C45 C -0.2760(12) 0.6162(14) 0.6209(7)
H47 H -0.2508 0.5409 0.6288
C46 C -0.3553(12) 0.6321(14) 0.5720(7)
H48 H -0.3804 0.5724 0.5446
C47 C -0.3979(13) 0.7521(15) 0.5664(7)
C48 C -0.3573(12) 0.8319(16) 0.6020(7)
H49 H -0.3839 0.9070 0.5952
C49 C -0.2759(11) 0.8152(14) 0.6502(7)
H50 H -0.2494 0.8750 0.6772
C50 C -0.4968(15) 0.7609(16) 0.5190(8)
C51 C -0.3805(13) 0.8655(15) 0.4512(7)
H51 H -0.3468 0.9095 0.4871
H52 H -0.3316 0.8067 0.4395
C52 C -0.4164(14) 0.9399(16) 0.3987(8)
H53 H -0.3610 0.9481 0.3713
H54 H -0.4328 1.0165 0.4140
C53 C -0.5115(15) 0.8885(16) 0.3632(8)
H55 H -0.4915 0.8333 0.3323
H56 H -0.5550 0.9487 0.3410
C54 C -0.5754(14) 0.8250(18) 0.4126(8)
H57 H -0.6290 0.8782 0.4256
C55 C -0.6298(18) 0.708(2) 0.3900(10)
H58 H -0.6569 0.7146 0.3454
H59 H -0.5774 0.6465 0.3946
C56 C 0.0911(11) 0.6166(11) 0.8602(6)
C57 C 0.0752(11) 0.5456(11) 0.9105(6)
H60 H 0.0082 0.5131 0.9118
C58 C 0.1526(12) 0.5218(13) 0.9575(7)
H61 H 0.1374 0.4820 0.9935
C59 C 0.2607(12) 0.5591(13) 0.9517(7)
C60 C 0.2745(13) 0.6289(13) 0.9061(7)
H62 H 0.3409 0.6631 0.9056
C61 C 0.1946(12) 0.6552(12) 0.8578(7)
H63 H 0.2103 0.6993 0.8234
C62 C 0.3505(13) 0.5346(15) 1.0015(7)
C63 C 0.3039(12) 0.3227(14) 1.0042(7)
H64 H 0.2351 0.3231 1.0198
H65 H 0.2932 0.3163 0.9583
C64 C 0.3668(13) 0.2312(15) 1.0310(7)
H66 H 0.4128 0.2023 1.0013
H67 H 0.3225 0.1677 1.0426
C65 C 0.4303(13) 0.2791(13) 1.0878(7)
H68 H 0.3889 0.2830 1.1232
H69 H 0.4933 0.2324 1.0999
C66 C 0.4588(12) 0.3958(14) 1.0679(7)
H70 H 0.4653 0.4484 1.1044
C67 C 0.5592(12) 0.4009(14) 1.0364(7)
H71 H 0.5739 0.4813 1.0267
H72 H 0.6181 0.3724 1.0658
loop_
_geom_bond_atom_site_label_1
_geom_bond_atom_site_label_2
_geom_bond_site_symmetry_1
_geom_bond_site_symmetry_2
O1 C4 1_555 1_555
O2 C7 1_555 1_555
O3 C13 1_555 1_555
O4 C16 1_555 1_555
O5 C22 1_555 1_555
O6 C25 1_555 1_555
O7 C31 1_555 1_555
O8 C34 1_555 1_555
O9 C50 1_555 1_555
O10 H1 1_555 1_555
O11 C62 1_555 1_555
O12 H2 1_555 1_555
N1 C50 1_555 1_555
N2 C62 1_555 1_555
C1 H3 1_555 1_555
H4 C1 1_555 1_555
C2 C1 1_555 1_555
C3 C2 1_555 1_555
H5 C3 1_555 1_555
C4 C3 1_555 1_555
C5 C4 1_555 1_555
C6 C5 1_555 1_555
H6 C6 1_555 1_555
C7 C2 1_555 1_555
C8 O1 1_555 1_555
H7 C8 1_555 1_555
H8 C8 1_555 1_555
H9 C8 1_555 1_555
C9 O2 1_555 1_555
H10 C9 1_555 1_555
H11 C9 1_555 1_555
H12 C9 1_555 1_555
C10 C5 1_555 1_555
H13 C10 1_555 1_555
H14 C10 1_555 1_555
C11 C10 1_555 1_555
C12 C11 1_555 1_555
H15 C12 1_555 1_555
C13 C12 1_555 1_555
C14 C13 1_555 1_555
C15 C14 1_555 1_555
H16 C15 1_555 1_555
C16 C11 1_555 1_555
C17 O3 1_555 1_555
H17 C17 1_555 1_555
H18 C17 1_555 1_555
H19 C17 1_555 1_555
C18 O4 1_555 1_555
H20 C18 1_555 1_555
H21 C18 1_555 1_555
H22 C18 1_555 1_555
C19 C14 1_555 1_555
H23 C19 1_555 1_555
H24 C19 1_555 1_555
C20 C19 1_555 1_555
C21 C20 1_555 1_555
H25 C21 1_555 1_555
C22 C21 1_555 1_555
C23 C22 1_555 1_555
C24 C23 1_555 1_555
H26 C24 1_555 1_555
C25 C20 1_555 1_555
C26 O5 1_555 1_555
H27 C26 1_555 1_555
H28 C26 1_555 1_555
H29 C26 1_555 1_555
C27 O6 1_555 1_555
H30 C27 1_555 1_555
H31 C27 1_555 1_555
H32 C27 1_555 1_555
C28 C23 1_555 1_555
H33 C28 1_555 1_555
H34 C28 1_555 1_555
C29 C28 1_555 1_555
C30 C29 1_555 1_555
H35 C30 1_555 1_555
C31 C30 1_555 1_555
C32 C31 1_555 1_555
C33 C32 1_555 1_555
H36 C33 1_555 1_555
C34 C29 1_555 1_555
C35 O7 1_555 1_555
H37 C35 1_555 1_555
H38 C35 1_555 1_555
H39 C35 1_555 1_555
C36 O8 1_555 1_555
H40 C36 1_555 1_555
H41 C36 1_555 1_555
H42 C36 1_555 1_555
C37 C32 1_555 1_555
H43 C37 1_555 1_555
H44 C37 1_555 1_555
C38 C37 1_555 1_555
C39 C38 1_555 1_555
H45 C39 1_555 1_555
C40 C39 1_555 1_555
C41 C1 1_555 1_555
C42 C41 1_555 1_555
H46 C42 1_555 1_555
C43 C38 1_555 1_555
C44 C40 1_555 1_555
C45 C44 1_555 1_555
H47 C45 1_555 1_555
C46 C45 1_555 1_555
H48 C46 1_555 1_555
C47 C46 1_555 1_555
C48 C47 1_555 1_555
H49 C48 1_555 1_555
C49 C44 1_555 1_555
H50 C49 1_555 1_555
C50 C47 1_555 1_555
C51 N1 1_555 1_555
H51 C51 1_555 1_555
H52 C51 1_555 1_555
C52 C51 1_555 1_555
H53 C52 1_555 1_555
H54 C52 1_555 1_555
C53 C52 1_555 1_555
H55 C53 1_555 1_555
H56 C53 1_555 1_555
C54 N1 1_555 1_555
H57 C54 1_555 1_555
C55 O10 1_555 1_555
H58 C55 1_555 1_555
H59 C55 1_555 1_555
C56 C43 1_555 1_555
C57 C56 1_555 1_555
H60 C57 1_555 1_555
C58 C57 1_555 1_555
H61 C58 1_555 1_555
C59 C58 1_555 1_555
C60 C59 1_555 1_555
H62 C60 1_555 1_555
C61 C56 1_555 1_555
H63 C61 1_555 1_555
C62 C59 1_555 1_555
C63 N2 1_555 1_555
H64 C63 1_555 1_555
H65 C63 1_555 1_555
C64 C63 1_555 1_555
H66 C64 1_555 1_555
H67 C64 1_555 1_555
C65 C64 1_555 1_555
H68 C65 1_555 1_555
H69 C65 1_555 1_555
C66 N2 1_555 1_555
H70 C66 1_555 1_555
C67 O12 1_555 1_555
H71 C67 1_555 1_555
H72 C67 1_555 1_555
C6 C7 1_555 1_555
C15 C16 1_555 1_555
C24 C25 1_555 1_555
C33 C34 1_555 1_555
C40 C41 1_555 1_555
C42 C43 1_555 1_555
C48 C49 1_555 1_555
C53 C54 1_555 1_555
C54 C55 1_555 1_555
C60 C61 1_555 1_555
C65 C66 1_555 1_555
C66 C67 1_555 1_555

#END
