
#######################################################################
#
#                 Cambridge Crystallographic Data Centre
#                                CCDC 
#
#######################################################################
#
# If this CIF has been generated from an entry in the Cambridge 
# Structural Database, then it will include bibliographic, chemical, 
# crystal, experimental, refinement or atomic coordinate data resulting 
# from the CCDC's data processing and validation procedures.
#
#######################################################################

data_SODTOW
_chemical_formula_moiety         'C21 H17 N3 O2 S1'
_chemical_name_systematic        
'ethyl 5-phenyl-1-(4-phenyl-1,3-thiazol-2-yl)-1H-pyrazole-3-carboxylate'
_symmetry_cell_setting           monoclinic
_symmetry_space_group_name_H-M   'P 21/n'
_symmetry_Int_Tables_number      14
_space_group_name_Hall           '-P 2yn'
loop_
_symmetry_equiv_pos_site_id
_symmetry_equiv_pos_as_xyz
1 x,y,z
2 1/2-x,1/2+y,1/2-z
3 -x,-y,-z
4 1/2+x,1/2-y,1/2+z
_cell_length_a                   14.144(4)
_cell_length_b                   9.103(3)
_cell_length_c                   15.524(5)
_cell_angle_alpha                90
_cell_angle_beta                 112.090(3)
_cell_angle_gamma                90
_cell_volume                     1852.04
_exptl_crystal_colour            colorless
_exptl_crystal_description       Block
_cell_formula_units_Z            4
loop_
_atom_site_label
_atom_site_type_symbol
_atom_site_fract_x
_atom_site_fract_y
_atom_site_fract_z
S1 S 0.14903(5) 0.43291(8) 0.18586(4)
N1 N 0.21240(14) 0.4542(2) 0.05110(13)
N2 N 0.05589(13) 0.3210(2) 0.01463(13)
N3 N -0.01028(15) 0.2775(2) 0.05484(14)
O1 O -0.17934(15) 0.1637(3) 0.08154(14)
O2 O -0.22201(14) 0.0447(2) -0.05384(13)
C1 C 0.45231(18) 0.6501(3) 0.19524(18)
H1 H 0.4475 0.6449 0.2533
C2 C 0.5376(2) 0.7108(3) 0.1874(2)
H2 H 0.5904 0.7453 0.2401
C3 C 0.5453(2) 0.7208(4) 0.1021(2)
H3 H 0.6029 0.7624 0.0968
C4 C 0.4673(2) 0.6690(5) 0.0246(2)
H4 H 0.4723 0.6759 -0.0333
C5 C 0.3814(2) 0.6065(4) 0.0318(2)
H5 H 0.3293 0.5714 -0.0211
C6 C 0.37265(17) 0.5961(3) 0.11726(17)
C7 C 0.28271(17) 0.5278(2) 0.12659(16)
C8 C 0.25907(19) 0.5273(3) 0.20350(17)
H6 H 0.2981 0.5729 0.2592
C9 C 0.14066(16) 0.4019(2) 0.07360(15)
C10 C 0.02886(16) 0.2681(2) -0.07484(15)
C11 C -0.05851(18) 0.1881(3) -0.09100(17)
H7 H -0.0962 0.1377 -0.1452
C12 C -0.07967(17) 0.1974(3) -0.00999(16)
C13 C 0.08189(16) 0.2913(2) -0.13927(15)
C14 C 0.11507(17) 0.4280(3) -0.15676(17)
H8 H 0.1080 0.5107 -0.1245
C15 C 0.15874(19) 0.4392(3) -0.22282(19)
H9 H 0.1817 0.5302 -0.2341
C16 C 0.1688(2) 0.3187(4) -0.2721(2)
H10 H 0.1984 0.3283 -0.3161
C17 C 0.1350(2) 0.1846(3) -0.2559(2)
H11 H 0.1413 0.1028 -0.2892
C18 C 0.09185(19) 0.1706(3) -0.19036(18)
H12 H 0.0689 0.0791 -0.1800
C19 C -0.16482(19) 0.1357(3) 0.01239(18)
C20 C -0.3060(3) -0.0230(4) -0.0349(2)
H13 H -0.3514 0.0525 -0.0287
H14 H -0.2793 -0.0776 0.0229
C21 C -0.3622(3) -0.1222(4) -0.1117(2)
H15 H -0.4162 -0.1690 -0.0987
H16 H -0.3166 -0.1956 -0.1182
H17 H -0.3905 -0.0670 -0.1683
loop_
_geom_bond_atom_site_label_1
_geom_bond_atom_site_label_2
_geom_bond_site_symmetry_1
_geom_bond_site_symmetry_2
S1 C8 1_555 1_555
N1 C7 1_555 1_555
N2 N3 1_555 1_555
N3 C12 1_555 1_555
O1 C19 1_555 1_555
O2 C19 1_555 1_555
C1 H1 1_555 1_555
C2 C1 1_555 1_555
H2 C2 1_555 1_555
C3 C2 1_555 1_555
H3 C3 1_555 1_555
C4 C3 1_555 1_555
H4 C4 1_555 1_555
C5 C4 1_555 1_555
H5 C5 1_555 1_555
C6 C1 1_555 1_555
C7 C6 1_555 1_555
C8 C7 1_555 1_555
H6 C8 1_555 1_555
C9 S1 1_555 1_555
C10 N2 1_555 1_555
C11 C10 1_555 1_555
H7 C11 1_555 1_555
C12 C11 1_555 1_555
C13 C10 1_555 1_555
C14 C13 1_555 1_555
H8 C14 1_555 1_555
C15 C14 1_555 1_555
H9 C15 1_555 1_555
C16 C15 1_555 1_555
H10 C16 1_555 1_555
C17 C16 1_555 1_555
H11 C17 1_555 1_555
C18 C13 1_555 1_555
H12 C18 1_555 1_555
C19 C12 1_555 1_555
C20 O2 1_555 1_555
H13 C20 1_555 1_555
H14 C20 1_555 1_555
C21 C20 1_555 1_555
H15 C21 1_555 1_555
H16 C21 1_555 1_555
H17 C21 1_555 1_555
N1 C9 1_555 1_555
N2 C9 1_555 1_555
C5 C6 1_555 1_555
C17 C18 1_555 1_555

#END
