
#######################################################################
#
#                 Cambridge Crystallographic Data Centre
#                                CCDC 
#
#######################################################################
#
# If this CIF has been generated from an entry in the Cambridge 
# Structural Database, then it will include bibliographic, chemical, 
# crystal, experimental, refinement or atomic coordinate data resulting 
# from the CCDC's data processing and validation procedures.
#
#######################################################################

data_SOFLEF
_chemical_formula_moiety         'C16 H14 N2 O3'
_chemical_name_systematic        
'2,4-Dibenzyl-1,2,3-oxadiazol-5(2H)-one 3-oxide'
_symmetry_cell_setting           orthorhombic
_symmetry_space_group_name_H-M   'P b c a'
_symmetry_Int_Tables_number      61
_space_group_name_Hall           '-P 2ac 2ab'
loop_
_symmetry_equiv_pos_site_id
_symmetry_equiv_pos_as_xyz
1 x,y,z
2 1/2-x,-y,1/2+z
3 -x,1/2+y,1/2-z
4 1/2+x,1/2-y,-z
5 -x,-y,-z
6 1/2+x,y,1/2-z
7 x,1/2-y,1/2+z
8 1/2-x,1/2+y,z
_cell_length_a                   10.868(2)
_cell_length_b                   8.8483(18)
_cell_length_c                   28.561(6)
_cell_angle_alpha                90
_cell_angle_beta                 90
_cell_angle_gamma                90
_cell_volume                     2746.52
_cell_formula_units_Z            8
loop_
_atom_site_label
_atom_site_type_symbol
_atom_site_fract_x
_atom_site_fract_y
_atom_site_fract_z
C1 C 0.16901(12) 0.11031(15) 0.61124(5)
C2 C 0.06620(13) 0.01269(15) 0.60091(5)
O1 O 0.00913(9) -0.07294(12) 0.62512(3)
N1 N 0.19727(11) 0.18308(13) 0.57278(4)
O2 O 0.27782(9) 0.28093(11) 0.56468(4)
N2 N 0.12568(11) 0.13185(13) 0.53343(4)
O3 O 0.03792(9) 0.03129(11) 0.55417(3)
C3 C 0.23473(13) 0.12861(17) 0.65638(5)
H1 H 0.3119 0.1803 0.6505
H2 H 0.2541 0.0292 0.6686
C4 C 0.16401(13) 0.21562(15) 0.69346(5)
C5 C 0.20867(15) 0.21705(18) 0.73917(5)
H3 H 0.2792 0.1626 0.7467
C6 C 0.14838(17) 0.2994(2) 0.77349(6)
H4 H 0.1788 0.2998 0.8039
C7 C 0.04393(17) 0.3805(2) 0.76303(5)
H5 H 0.0041 0.4357 0.7862
C8 C -0.00130(15) 0.37930(18) 0.71795(5)
H6 H -0.0718 0.4340 0.7107
C9 C 0.05805(13) 0.29671(16) 0.68334(5)
H7 H 0.0265 0.2957 0.6531
C10 C 0.05726(13) 0.26148(16) 0.51208(5)
H8 H 0.0066 0.2233 0.4867
H9 H 0.1164 0.3311 0.4986
C11 C -0.02343(13) 0.34700(15) 0.54557(5)
C12 C -0.14174(13) 0.29602(16) 0.55556(5)
H10 H -0.1714 0.2090 0.5412
C13 C -0.21555(14) 0.37421(17) 0.58682(6)
H11 H -0.2945 0.3396 0.5933
C14 C -0.17222(14) 0.50347(17) 0.60841(5)
H12 H -0.2219 0.5554 0.6295
C15 C -0.05517(14) 0.55559(16) 0.59871(5)
H13 H -0.0260 0.6426 0.6132
C16 C 0.01880(13) 0.47796(16) 0.56732(5)
H14 H 0.0974 0.5137 0.5607
loop_
_geom_bond_atom_site_label_1
_geom_bond_atom_site_label_2
_geom_bond_site_symmetry_1
_geom_bond_site_symmetry_2
C1 C2 1_555 1_555
C2 O1 1_555 1_555
N1 C1 1_555 1_555
O2 N1 1_555 1_555
N2 N1 1_555 1_555
O3 C2 1_555 1_555
C3 C1 1_555 1_555
H1 C3 1_555 1_555
H2 C3 1_555 1_555
C4 C3 1_555 1_555
C5 C4 1_555 1_555
H3 C5 1_555 1_555
C6 C5 1_555 1_555
H4 C6 1_555 1_555
C7 C6 1_555 1_555
H5 C7 1_555 1_555
C8 C7 1_555 1_555
H6 C8 1_555 1_555
C9 C4 1_555 1_555
H7 C9 1_555 1_555
C10 N2 1_555 1_555
H8 C10 1_555 1_555
H9 C10 1_555 1_555
C11 C10 1_555 1_555
C12 C11 1_555 1_555
H10 C12 1_555 1_555
C13 C12 1_555 1_555
H11 C13 1_555 1_555
C14 C13 1_555 1_555
H12 C14 1_555 1_555
C15 C14 1_555 1_555
H13 C15 1_555 1_555
C16 C11 1_555 1_555
H14 C16 1_555 1_555
N2 O3 1_555 1_555
C8 C9 1_555 1_555
C15 C16 1_555 1_555

#END
