
#######################################################################
#
#                 Cambridge Crystallographic Data Centre
#                                CCDC 
#
#######################################################################
#
# If this CIF has been generated from an entry in the Cambridge 
# Structural Database, then it will include bibliographic, chemical, 
# crystal, experimental, refinement or atomic coordinate data resulting 
# from the CCDC's data processing and validation procedures.
#
#######################################################################

data_SOFSEM
_chemical_formula_moiety         'C27 H26 F6 O1 S2'
_chemical_name_systematic        
1-(2-ethyl-3-benzothienyl)-2-(2-n-heptyl-5-formyl-3-thienyl)-3,3,4,4,5,5-hexafluorocyclopent-1-ene
_symmetry_cell_setting           monoclinic
_symmetry_space_group_name_H-M   'P 21/c'
_symmetry_Int_Tables_number      14
_space_group_name_Hall           '-P 2ybc'
loop_
_symmetry_equiv_pos_site_id
_symmetry_equiv_pos_as_xyz
1 x,y,z
2 -x,1/2+y,1/2-z
3 -x,-y,-z
4 x,1/2-y,1/2+z
_cell_length_a                   13.504(2)
_cell_length_b                   20.624(3)
_cell_length_c                   9.7811(16)
_cell_angle_alpha                90
_cell_angle_beta                 103.513(2)
_cell_angle_gamma                90
_cell_volume                     2648.69
_exptl_crystal_colour            colorless
_exptl_crystal_description       block
_chemical_melting_point          '384 K'
_cell_formula_units_Z            4
loop_
_atom_site_label
_atom_site_type_symbol
_atom_site_fract_x
_atom_site_fract_y
_atom_site_fract_z
S1 S 0.75441(9) -0.00082(5) 0.37696(11)
S2 S 0.56524(7) -0.00078(4) 0.85724(11)
F1 F 1.03974(17) 0.09284(15) 0.7601(3)
F2 F 0.9666(2) 0.18066(17) 0.6797(4)
F3 F 0.9425(3) 0.21603(16) 0.9220(4)
F4 F 1.0710(2) 0.1532(2) 0.9910(4)
F5 F 0.9624(2) 0.06307(18) 1.0550(3)
F6 F 0.8573(2) 0.14279(19) 1.0634(3)
O1 O 0.5689(4) -0.12229(16) 1.0402(4)
C1 C 0.7279(3) 0.0809(2) 0.3515(4)
C2 C 0.6747(3) 0.1105(3) 0.2303(4)
H1 H 0.6488 0.0865 0.1492
C3 C 0.6609(4) 0.1767(3) 0.2329(6)
H2 H 0.6254 0.1977 0.1522
C4 C 0.6992(4) 0.2125(3) 0.3542(6)
H3 H 0.6892 0.2571 0.3530
C5 C 0.7516(3) 0.1830(2) 0.4758(5)
H4 H 0.7767 0.2075 0.5564
C6 C 0.7668(3) 0.11599(18) 0.4771(4)
C7 C 0.8151(2) 0.07404(17) 0.5903(3)
C8 C 0.8149(3) 0.01084(19) 0.5523(4)
C9 C 0.8608(3) -0.0469(2) 0.6390(5)
H5 H 0.8906 -0.0321 0.7338
H6 H 0.8063 -0.0767 0.6442
C10 C 0.9387(5) -0.0825(3) 0.5878(6)
H7 H 0.9085 -0.1018 0.4984
H8 H 0.9669 -0.1159 0.6539
H9 H 0.9918 -0.0533 0.5775
C11 C 0.8616(2) 0.09608(17) 0.7347(4)
C12 C 0.9601(3) 0.1335(2) 0.7678(5)
C13 C 0.9742(3) 0.1551(2) 0.9188(5)
C14 C 0.9043(3) 0.1107(2) 0.9783(4)
C15 C 0.8316(2) 0.08265(18) 0.8525(3)
C16 C 0.7445(2) 0.04286(16) 0.8714(3)
C17 C 0.7563(3) -0.01201(19) 0.9601(4)
H10 H 0.8190 -0.0266 1.0120
C18 C 0.6659(3) -0.04131(18) 0.9615(4)
C19 C 0.6442(2) 0.05607(16) 0.8097(3)
C20 C 0.5993(3) 0.11267(17) 0.7235(4)
H11 H 0.6544 0.1373 0.7005
H12 H 0.5672 0.1403 0.7809
C21 C 0.5229(3) 0.0983(2) 0.5897(4)
H13 H 0.4690 0.0715 0.6103
H14 H 0.5555 0.0739 0.5277
C22 C 0.4769(3) 0.1592(2) 0.5158(5)
H15 H 0.4447 0.1828 0.5795
H16 H 0.5322 0.1860 0.4999
C23 C 0.4028(4) 0.1522(3) 0.3825(6)
H17 H 0.3490 0.1233 0.3956
H18 H 0.4357 0.1322 0.3151
C24 C 0.3557(5) 0.2155(3) 0.3224(7)
H19 H 0.3378 0.2394 0.3986
H20 H 0.4084 0.2402 0.2933
C25 C 0.2684(6) 0.2154(3) 0.2075(9)
H21 H 0.2182 0.1862 0.2302
H22 H 0.2881 0.1979 0.1258
C26 C 0.2202(5) 0.2780(3) 0.1698(7)
H23 H 0.1888 0.2923 0.2430
H24 H 0.1693 0.2740 0.0834
H25 H 0.2706 0.3090 0.1581
C27 C 0.6504(5) -0.0983(2) 1.0392(5)
H26 H 0.7081 -0.1184 1.0933
loop_
_geom_bond_atom_site_label_1
_geom_bond_atom_site_label_2
_geom_bond_site_symmetry_1
_geom_bond_site_symmetry_2
S1 C1 1_555 1_555
S2 C18 1_555 1_555
F1 C12 1_555 1_555
F2 C12 1_555 1_555
F3 C13 1_555 1_555
F4 C13 1_555 1_555
F5 C14 1_555 1_555
F6 C14 1_555 1_555
O1 C27 1_555 1_555
C1 C2 1_555 1_555
C2 H1 1_555 1_555
C3 C2 1_555 1_555
H2 C3 1_555 1_555
C4 C3 1_555 1_555
H3 C4 1_555 1_555
C5 C4 1_555 1_555
H4 C5 1_555 1_555
C6 C1 1_555 1_555
C7 C6 1_555 1_555
C8 S1 1_555 1_555
C9 C8 1_555 1_555
H5 C9 1_555 1_555
H6 C9 1_555 1_555
C10 C9 1_555 1_555
H7 C10 1_555 1_555
H8 C10 1_555 1_555
H9 C10 1_555 1_555
C11 C7 1_555 1_555
C12 C11 1_555 1_555
C13 C12 1_555 1_555
C14 C13 1_555 1_555
C15 C11 1_555 1_555
C16 C15 1_555 1_555
C17 C16 1_555 1_555
H10 C17 1_555 1_555
C18 C17 1_555 1_555
C19 S2 1_555 1_555
C20 C19 1_555 1_555
H11 C20 1_555 1_555
H12 C20 1_555 1_555
C21 C20 1_555 1_555
H13 C21 1_555 1_555
H14 C21 1_555 1_555
C22 C21 1_555 1_555
H15 C22 1_555 1_555
H16 C22 1_555 1_555
C23 C22 1_555 1_555
H17 C23 1_555 1_555
H18 C23 1_555 1_555
C24 C23 1_555 1_555
H19 C24 1_555 1_555
H20 C24 1_555 1_555
C25 C24 1_555 1_555
H21 C25 1_555 1_555
H22 C25 1_555 1_555
C26 C25 1_555 1_555
H23 C26 1_555 1_555
H24 C26 1_555 1_555
H25 C26 1_555 1_555
C27 C18 1_555 1_555
H26 C27 1_555 1_555
C5 C6 1_555 1_555
C7 C8 1_555 1_555
C14 C15 1_555 1_555
C16 C19 1_555 1_555

#END
