
#######################################################################
#
#                 Cambridge Crystallographic Data Centre
#                                CCDC 
#
#######################################################################
#
# If this CIF has been generated from an entry in the Cambridge 
# Structural Database, then it will include bibliographic, chemical, 
# crystal, experimental, refinement or atomic coordinate data resulting 
# from the CCDC's data processing and validation procedures.
#
#######################################################################

data_SOFSAI
_chemical_compound_source        'Leaves of Adinandra nitida'
_chemical_name_common            'Camellianin A methanol solvate monohydrate'
_chemical_formula_moiety         'C29 H32 O15,2(C1 H4 O1),H2 O1'
_chemical_name_systematic        
'(3,4-Dihydroxy-6-(7-hydroxy-2-(4-hydroxyphenyl)-4-oxo-4H-chromen-5-yloxy)-5-(3,4,5-trihydroxy-6-methyltetrahydro-2H-pyran-2-yloxy)tetrahydro-2H-pyran-2-yl)methyl acetate methanol solvate monohydrate'
_symmetry_cell_setting           monoclinic
_symmetry_space_group_name_H-M   'P 21'
_symmetry_Int_Tables_number      4
_space_group_name_Hall           'P 2yb'
loop_
_symmetry_equiv_pos_site_id
_symmetry_equiv_pos_as_xyz
1 x,y,z
2 -x,1/2+y,-z
_cell_length_a                   7.6092(15)
_cell_length_b                   16.180(3)
_cell_length_c                   13.131(3)
_cell_angle_alpha                90
_cell_angle_beta                 102.22(3)
_cell_angle_gamma                90
_cell_volume                     1580.02
_exptl_crystal_colour            colorless
_exptl_crystal_description       block
_cell_formula_units_Z            2
loop_
_atom_site_label
_atom_site_type_symbol
_atom_site_fract_x
_atom_site_fract_y
_atom_site_fract_z
O1 O 0.80778(17) -0.23831(8) -0.30393(9)
H1 H 0.8696 -0.2734 -0.2680
O2 O 0.71075(17) 0.11077(8) -0.12016(8)
O3 O 0.99092(15) 0.14451(8) 0.17864(8)
O4 O 0.47440(19) 0.37995(9) -0.15424(9)
H2 H 0.4714 0.3708 -0.2160
O5 O 0.78597(15) 0.28460(8) 0.18103(8)
O6 O 0.79419(15) 0.42504(8) 0.19360(8)
O7 O 0.68803(16) 0.56294(8) 0.07398(9)
O8 O 0.80926(19) 0.68182(9) 0.03624(9)
O9 O 0.80964(15) 0.57005(8) 0.40877(9)
H3 H 0.8933 0.6024 0.4110
O10 O 0.87637(16) 0.41204(8) 0.51078(8)
H4 H 0.8537 0.4503 0.5470
O11 O 0.71689(15) 0.27621(8) 0.38743(8)
O12 O 0.86424(14) 0.14855(8) 0.40210(8)
O13 O 0.50194(16) 0.01266(8) 0.44806(9)
H5 H 0.4099 0.0359 0.4177
O14 O 0.54500(15) 0.13115(8) 0.61957(8)
H6 H 0.4435 0.1113 0.6070
O15 O 0.90658(15) 0.16201(8) 0.62365(8)
H7 H 0.9343 0.1892 0.6773
C1 C 0.8239(2) -0.10540(12) -0.07785(13)
H8 H 0.8469 -0.1089 -0.0055
C2 C 0.8275(2) -0.17598(12) -0.13583(13)
H9 H 0.8528 -0.2268 -0.1029
C3 C 0.7929(2) -0.17089(12) -0.24463(13)
C4 C 0.7447(2) -0.09607(12) -0.29404(12)
H10 H 0.7139 -0.0936 -0.3664
C5 C 0.7424(2) -0.02511(12) -0.23560(13)
H11 H 0.7118 0.0252 -0.2689
C6 C 0.7863(2) -0.02853(12) -0.12594(12)
C7 C 0.7950(2) 0.04667(12) -0.06355(13)
C8 C 0.8816(2) 0.05674(12) 0.03787(13)
H12 H 0.9390 0.0115 0.0741
C9 C 0.8872(2) 0.13453(12) 0.09055(12)
C10 C 0.7694(2) 0.19821(12) 0.03415(12)
C11 C 0.7235(2) 0.27457(12) 0.07542(12)
C12 C 0.6224(2) 0.33256(12) 0.01156(13)
H13 H 0.5930 0.3820 0.0400
C13 C 0.5631(2) 0.31808(12) -0.09582(13)
C14 C 0.5952(2) 0.24325(12) -0.13869(13)
H14 H 0.5530 0.2324 -0.2092
C15 C 0.6929(2) 0.18478(12) -0.07269(12)
C16 C 0.7239(2) 0.35244(12) 0.23014(12)
H15 H 0.5922 0.3539 0.2156
C17 C 0.8016(2) 0.34372(11) 0.34754(12)
H16 H 0.9306 0.3321 0.3580
C18 C 0.7763(2) 0.42256(12) 0.40566(12)
H17 H 0.6486 0.4294 0.4062
C19 C 0.8414(2) 0.49727(12) 0.35474(13)
H18 H 0.9708 0.4918 0.3582
C20 C 0.7420(2) 0.49837(11) 0.23954(12)
H19 H 0.6119 0.4978 0.2352
C21 C 0.7908(2) 0.57085(12) 0.18102(12)
H20 H 0.7604 0.6220 0.2118
H21 H 0.9188 0.5709 0.1824
C22 C 0.7140(2) 0.62289(13) 0.00876(13)
C23 C 0.6137(3) 0.60625(14) -0.10111(13)
H22 H 0.5486 0.6549 -0.1289
H23 H 0.5309 0.5615 -0.1010
H24 H 0.6976 0.5917 -0.1434
C24 C 0.8365(2) 0.22242(11) 0.45449(12)
H25 H 0.9525 0.2505 0.4760
C25 C 0.7642(2) 0.20369(12) 0.55144(12)
H26 H 0.7332 0.2554 0.5824
C26 C 0.5987(2) 0.14789(12) 0.52507(12)
H27 H 0.5018 0.1777 0.4783
C27 C 0.6452(2) 0.07104(12) 0.47024(12)
H28 H 0.7483 0.0443 0.5157
C28 C 0.7029(2) 0.09850(12) 0.37118(13)
H29 H 0.6073 0.1323 0.3293
C29 C 0.7435(2) 0.02770(12) 0.30673(14)
H30 H 0.7973 0.0481 0.2518
H31 H 0.6341 -0.0009 0.2771
H32 H 0.8251 -0.0096 0.3498
O16 O 0.46835(17) 0.35676(9) 0.64301(9)
H33 H 0.4807 0.4016 0.6163
C30 C 0.3138(3) 0.31544(14) 0.58320(15)
H34 H 0.2876 0.2674 0.6203
H35 H 0.3377 0.2990 0.5172
H36 H 0.2125 0.3522 0.5720
O17 O 1.0287(3) 0.26423(11) 0.78133(11)
H37 H 1.0770 0.2487 0.8400
C31 C 0.9832(3) 0.34849(15) 0.78440(16)
H38 H 0.9071 0.3563 0.8334
H39 H 0.9207 0.3659 0.7165
H40 H 1.0907 0.3807 0.8055
O18 O 0.16753(16) 0.06144(9) 0.35907(10)
H41 H 0.125(3) 0.0701(17) 0.2947(8)
H42 H 0.117(3) 0.0884(16) 0.4011(13)
loop_
_geom_bond_atom_site_label_1
_geom_bond_atom_site_label_2
_geom_bond_site_symmetry_1
_geom_bond_site_symmetry_2
O1 H1 1_555 1_555
O2 C7 1_555 1_555
O3 C9 1_555 1_555
O4 H2 1_555 1_555
O5 C11 1_555 1_555
O6 C16 1_555 1_555
O7 C21 1_555 1_555
O8 C22 1_555 1_555
O9 H3 1_555 1_555
O10 H4 1_555 1_555
O11 C17 1_555 1_555
O12 C24 1_555 1_555
O13 H5 1_555 1_555
O14 H6 1_555 1_555
O15 H7 1_555 1_555
C1 H8 1_555 1_555
C2 C1 1_555 1_555
H9 C2 1_555 1_555
C3 O1 1_555 1_555
C4 C3 1_555 1_555
H10 C4 1_555 1_555
C5 C4 1_555 1_555
H11 C5 1_555 1_555
C6 C1 1_555 1_555
C7 C6 1_555 1_555
C8 C7 1_555 1_555
H12 C8 1_555 1_555
C9 C8 1_555 1_555
C10 C9 1_555 1_555
C11 C10 1_555 1_555
C12 C11 1_555 1_555
H13 C12 1_555 1_555
C13 O4 1_555 1_555
C14 C13 1_555 1_555
H14 C14 1_555 1_555
C15 O2 1_555 1_555
C16 O5 1_555 1_555
H15 C16 1_555 1_555
C17 C16 1_555 1_555
H16 C17 1_555 1_555
C18 O10 1_555 1_555
H17 C18 1_555 1_555
C19 O9 1_555 1_555
H18 C19 1_555 1_555
C20 O6 1_555 1_555
H19 C20 1_555 1_555
C21 C20 1_555 1_555
H20 C21 1_555 1_555
H21 C21 1_555 1_555
C22 O7 1_555 1_555
C23 C22 1_555 1_555
H22 C23 1_555 1_555
H23 C23 1_555 1_555
H24 C23 1_555 1_555
C24 O11 1_555 1_555
H25 C24 1_555 1_555
C25 O15 1_555 1_555
H26 C25 1_555 1_555
C26 O14 1_555 1_555
H27 C26 1_555 1_555
C27 O13 1_555 1_555
H28 C27 1_555 1_555
C28 O12 1_555 1_555
H29 C28 1_555 1_555
C29 C28 1_555 1_555
H30 C29 1_555 1_555
H31 C29 1_555 1_555
H32 C29 1_555 1_555
O16 H33 1_555 1_555
C30 O16 1_555 1_555
H34 C30 1_555 1_555
H35 C30 1_555 1_555
H36 C30 1_555 1_555
O17 H37 1_555 1_555
C31 O17 1_555 1_555
H38 C31 1_555 1_555
H39 C31 1_555 1_555
H40 C31 1_555 1_555
O18 H41 1_555 1_555
H42 O18 1_555 1_555
C2 C3 1_555 1_555
C5 C6 1_555 1_555
C10 C15 1_555 1_555
C12 C13 1_555 1_555
C14 C15 1_555 1_555
C17 C18 1_555 1_555
C18 C19 1_555 1_555
C19 C20 1_555 1_555
C24 C25 1_555 1_555
C25 C26 1_555 1_555
C26 C27 1_555 1_555
C27 C28 1_555 1_555

#END
