
#######################################################################
#
#                 Cambridge Crystallographic Data Centre
#                                CCDC 
#
#######################################################################
#
# If this CIF has been generated from an entry in the Cambridge 
# Structural Database, then it will include bibliographic, chemical, 
# crystal, experimental, refinement or atomic coordinate data resulting 
# from the CCDC's data processing and validation procedures.
#
#######################################################################

data_SOFTEN
_chemical_name_common            N,N'-bis(4-hydroxy-3-methoxybenzyl)oxalamide
_chemical_formula_moiety         'C18 H20 N2 O6'
_chemical_name_systematic        
N,N'-bis(4-hydroxy-3-methoxybenzyl)ethanediamide
_symmetry_cell_setting           hexagonal
_symmetry_space_group_name_H-M   'P 65'
_symmetry_Int_Tables_number      170
_space_group_name_Hall           'P 65'
loop_
_symmetry_equiv_pos_site_id
_symmetry_equiv_pos_as_xyz
1 x,y,z
2 -y,x-y,2/3+z
3 -x+y,-x,1/3+z
4 -x,-y,1/2+z
5 y,-x+y,1/6+z
6 x-y,x,5/6+z
_cell_length_a                   10.58(2)
_cell_length_b                   10.58(2)
_cell_length_c                   26.58(7)
_cell_angle_alpha                90
_cell_angle_beta                 90
_cell_angle_gamma                120
_cell_volume                     2576.66
_exptl_crystal_colour            colorless
_exptl_crystal_description       block
_chemical_melting_point          '212.3-212.6 deg.C'
_cell_formula_units_Z            6
_exptl_crystal_recrystallization_method chloroform
loop_
_atom_site_label
_atom_site_type_symbol
_atom_site_fract_x
_atom_site_fract_y
_atom_site_fract_z
N1 N 0.7638(4) 0.8692(4) -0.01080(15)
H1 H 0.7944 0.8268 -0.0310
N2 N 0.8690(4) 0.7636(4) 0.09912(15)
H2 H 0.8264 0.7937 0.1194
O1 O 1.0104(3) 1.5492(3) -0.02169(15)
H3 H 0.9660 1.5790 -0.0047
O2 O 0.7651(4) 1.4115(3) 0.02746(17)
O3 O 0.7484(3) 0.9222(3) 0.07007(13)
O4 O 0.9217(3) 0.7484(3) 0.01862(13)
O5 O 1.4117(3) 0.7652(4) 0.06139(18)
O6 O 1.5481(3) 1.0102(3) 0.11022(16)
H4 H 1.5790 0.9601 0.0976
C1 C 0.9341(5) 1.4013(5) -0.0231(2)
C2 C 0.9870(5) 1.3281(5) -0.0491(3)
H5 H 1.0767 1.3790 -0.0653
C3 C 0.9077(6) 1.1777(5) -0.0517(2)
H6 H 0.9441 1.1277 -0.0698
C4 C 0.7769(5) 1.1023(4) -0.02801(19)
C5 C 0.7251(5) 1.1779(5) -0.0008(2)
H7 H 0.6360 1.1275 0.0157
C6 C 0.8042(5) 1.3261(4) 0.0018(2)
C7 C 0.6336(5) 1.3463(6) 0.0539(2)
H8 H 0.5541 1.2945 0.0309
H9 H 0.6223 1.4201 0.0709
H10 H 0.6339 1.2793 0.0782
C8 C 0.6893(5) 0.9399(4) -0.0313(2)
H11 H 0.5981 0.9062 -0.0134
H12 H 0.6660 0.9118 -0.0663
C9 C 0.7868(4) 0.8669(4) 0.03759(18)
C10 C 0.8666(4) 0.7879(4) 0.05125(18)
C11 C 0.9397(4) 0.6887(5) 0.1200(2)
H13 H 0.9066 0.5976 0.1021
H14 H 0.9113 0.6654 0.1550
C12 C 1.1014(5) 0.7770(5) 0.11682(19)
C13 C 1.1777(5) 0.9083(5) 0.1406(2)
H15 H 1.1280 0.9451 0.1587
C14 C 1.3263(5) 0.9859(5) 0.1380(2)
H16 H 1.3770 1.0755 0.1542
C15 C 1.4018(5) 0.9336(5) 0.1117(2)
C16 C 1.3260(5) 0.8034(5) 0.08684(19)
C17 C 1.1771(5) 0.7258(5) 0.0897(2)
H17 H 1.1262 0.6370 0.0729
C18 C 1.3470(6) 0.6341(5) 0.0355(3)
H18 H 1.2939 0.5552 0.0586
H19 H 1.4210 0.6216 0.0192
H20 H 1.2813 0.6345 0.0107
loop_
_geom_bond_atom_site_label_1
_geom_bond_atom_site_label_2
_geom_bond_site_symmetry_1
_geom_bond_site_symmetry_2
N1 H1 1_555 1_555
N2 H2 1_555 1_555
O1 H3 1_555 1_555
O2 C6 1_555 1_555
O3 C9 1_555 1_555
O4 C10 1_555 1_555
O5 C16 1_555 1_555
O6 H4 1_555 1_555
C1 O1 1_555 1_555
C2 C1 1_555 1_555
H5 C2 1_555 1_555
C3 C2 1_555 1_555
H6 C3 1_555 1_555
C4 C3 1_555 1_555
C5 C4 1_555 1_555
H7 C5 1_555 1_555
C6 C1 1_555 1_555
C7 O2 1_555 1_555
H8 C7 1_555 1_555
H9 C7 1_555 1_555
H10 C7 1_555 1_555
C8 N1 1_555 1_555
H11 C8 1_555 1_555
H12 C8 1_555 1_555
C9 N1 1_555 1_555
C10 N2 1_555 1_555
C11 N2 1_555 1_555
H13 C11 1_555 1_555
H14 C11 1_555 1_555
C12 C11 1_555 1_555
C13 C12 1_555 1_555
H15 C13 1_555 1_555
C14 C13 1_555 1_555
H16 C14 1_555 1_555
C15 O6 1_555 1_555
C16 C15 1_555 1_555
C17 C12 1_555 1_555
H17 C17 1_555 1_555
C18 O5 1_555 1_555
H18 C18 1_555 1_555
H19 C18 1_555 1_555
H20 C18 1_555 1_555
C4 C8 1_555 1_555
C5 C6 1_555 1_555
C9 C10 1_555 1_555
C14 C15 1_555 1_555
C16 C17 1_555 1_555

#END
