
#######################################################################
#
#                 Cambridge Crystallographic Data Centre
#                                CCDC 
#
#######################################################################
#
# If this CIF has been generated from an entry in the Cambridge 
# Structural Database, then it will include bibliographic, chemical, 
# crystal, experimental, refinement or atomic coordinate data resulting 
# from the CCDC's data processing and validation procedures.
#
#######################################################################

data_SOGFAW
_chemical_formula_moiety         'C11 H9 N5 S1'
_chemical_name_systematic        
4-((E)-(3-Methyl-5-thioxo-4,5-dihydro-1H-1,2,4-triazol-4-yl)iminomethyl)benzonitrile
_symmetry_cell_setting           triclinic
_symmetry_space_group_name_H-M   'P -1'
_symmetry_Int_Tables_number      2
_space_group_name_Hall           '-P 1'
loop_
_symmetry_equiv_pos_site_id
_symmetry_equiv_pos_as_xyz
1 x,y,z
2 -x,-y,-z
_cell_length_a                   6.975(2)
_cell_length_b                   7.682(2)
_cell_length_c                   11.412(2)
_cell_angle_alpha                90.262(7)
_cell_angle_beta                 94.328(14)
_cell_angle_gamma                104.713(17)
_cell_volume                     589.562
_exptl_crystal_colour            colorless
_exptl_crystal_description       Block
_cell_formula_units_Z            2
_exptl_crystal_recrystallization_method ethanol
loop_
_atom_site_label
_atom_site_type_symbol
_atom_site_fract_x
_atom_site_fract_y
_atom_site_fract_z
C1 C 0.2635(2) 1.3033(2) 0.27180(13)
C2 C 0.1665(3) 1.0264(2) 0.18636(14)
C3 C 0.1029(4) 0.8280(3) 0.17603(17)
H1 H 0.0629 0.7922 0.0953
H2 H -0.0070 0.7840 0.2230
H3 H 0.2115 0.7789 0.2030
C4 C 0.2745(2) 1.1001(2) 0.49268(13)
H4 H 0.3196 1.2248 0.4992
C5 C 0.2738(2) 0.9871(2) 0.59672(13)
C6 C 0.3299(3) 1.0685(2) 0.70682(14)
H5 H 0.3678 1.1934 0.7142
C7 C 0.3300(3) 0.9654(3) 0.80588(15)
H6 H 0.3652 1.0206 0.8798
C8 C 0.2773(3) 0.7799(2) 0.79417(15)
C9 C 0.2227(3) 0.6970(2) 0.68453(16)
H7 H 0.1879 0.5721 0.6772
C10 C 0.2200(3) 0.8001(2) 0.58632(15)
H8 H 0.1821 0.7445 0.5127
C11 C 0.2800(3) 0.6704(3) 0.89609(17)
N1 N 0.21505(19) 1.11995(17) 0.29285(10)
N2 N 0.1847(2) 1.1369(2) 0.10000(12)
N3 N 0.2429(2) 1.3038(2) 0.15394(12)
H9 H 0.2647 1.4017 0.1151
N4 N 0.2117(2) 1.02188(17) 0.39419(11)
N5 N 0.2817(3) 0.5822(3) 0.97577(16)
S1 S 0.32744(8) 1.48037(6) 0.36283(4)
loop_
_geom_bond_atom_site_label_1
_geom_bond_atom_site_label_2
_geom_bond_site_symmetry_1
_geom_bond_site_symmetry_2
C1 N1 1_555 1_555
C2 C3 1_555 1_555
C3 H1 1_555 1_555
H2 C3 1_555 1_555
H3 C3 1_555 1_555
C4 H4 1_555 1_555
C5 C4 1_555 1_555
C6 C5 1_555 1_555
H5 C6 1_555 1_555
C7 C6 1_555 1_555
H6 C7 1_555 1_555
C8 C7 1_555 1_555
C9 C8 1_555 1_555
H7 C9 1_555 1_555
C10 C5 1_555 1_555
H8 C10 1_555 1_555
C11 C8 1_555 1_555
N1 C2 1_555 1_555
N2 C2 1_555 1_555
N3 C1 1_555 1_555
H9 N3 1_555 1_555
N4 C4 1_555 1_555
N5 C11 1_555 1_555
S1 C1 1_555 1_555
C9 C10 1_555 1_555
N1 N4 1_555 1_555
N2 N3 1_555 1_555

#END
