
#######################################################################
#
#                 Cambridge Crystallographic Data Centre
#                                CCDC 
#
#######################################################################
#
# If this CIF has been generated from an entry in the Cambridge 
# Structural Database, then it will include bibliographic, chemical, 
# crystal, experimental, refinement or atomic coordinate data resulting 
# from the CCDC's data processing and validation procedures.
#
#######################################################################

data_SOGHIG
_chemical_formula_moiety         'C4 H6 N2 2+,2(C7 H5 O6 S1 1-),2(H2 O1)'
_chemical_name_systematic        
'Pyrazinediium bis(3-carboxy-4-hydroxybenzenesulfonate) dihydrate'
_symmetry_cell_setting           triclinic
_symmetry_space_group_name_H-M   'P -1'
_symmetry_Int_Tables_number      2
_space_group_name_Hall           '-P 1'
loop_
_symmetry_equiv_pos_site_id
_symmetry_equiv_pos_as_xyz
1 x,y,z
2 -x,-y,-z
_cell_length_a                   6.7887(5)
_cell_length_b                   6.9256(6)
_cell_length_c                   13.0349(10)
_cell_angle_alpha                100.663(7)
_cell_angle_beta                 97.761(9)
_cell_angle_gamma                107.735(9)
_cell_volume                     561.521
_exptl_crystal_colour            colorless
_exptl_crystal_description       plate
_cell_formula_units_Z            1
_exptl_crystal_recrystallization_method methanol
loop_
_atom_site_label
_atom_site_type_symbol
_atom_site_fract_x
_atom_site_fract_y
_atom_site_fract_z
C1 C 0.4240(3) 0.7285(3) 0.48381(14)
C2 C 0.6433(3) 0.7939(3) 0.48820(17)
C3 C 0.7816(3) 0.8439(3) 0.58633(18)
H1 H 0.9265 0.8851 0.5895
C4 C 0.7052(3) 0.8328(3) 0.67817(17)
H2 H 0.7985 0.8671 0.7432
C5 C 0.4881(3) 0.7704(3) 0.67421(15)
C6 C 0.3486(3) 0.7183(3) 0.57800(14)
H3 H 0.2040 0.6762 0.5758
C7 C 0.2761(3) 0.6708(3) 0.38006(15)
O1 O 0.0776(2) 0.6158(3) 0.38832(11)
H7 H -0.005(5) 0.578(5) 0.331(2)
O2 O 0.3328(3) 0.6740(3) 0.29528(11)
O3 O 0.7255(3) 0.8128(3) 0.40112(14)
H8 H 0.633(5) 0.788(5) 0.348(3)
O4 O 0.2517(3) 0.8910(3) 0.79365(12)
O5 O 0.2546(2) 0.5428(2) 0.78053(11)
O6 O 0.5615(3) 0.8329(3) 0.88036(11)
S1 S 0.38501(8) 0.76139(8) 0.79128(3)
C8 C 0.9086(4) 0.6243(4) 0.96127(19)
H4 H 0.8459 0.7119 0.9346
C9 C 1.1181(4) 0.6982(4) 1.00709(18)
H5 H 1.1988 0.8359 1.0116
N1 N 0.7935(3) 0.4275(3) 0.95466(13)
H6 H 0.658(4) 0.377(4) 0.928(2)
C8A C 1.0914(4) 0.3757(4) 1.03873(19)
H4A H 1.1541 0.2881 1.0654
C9A C 0.8819(4) 0.3018(4) 0.99291(18)
H5A H 0.8012 0.1641 0.9884
N1A N 1.2065(3) 0.5725(3) 1.04534(13)
H6A H 1.342(4) 0.623(4) 1.072(2)
O7 O 0.3909(3) 0.2940(3) 0.88232(12)
H9 H 0.346(5) 0.362(5) 0.844(2)
H10 H 0.340(5) 0.169(5) 0.849(2)
loop_
_geom_bond_atom_site_label_1
_geom_bond_atom_site_label_2
_geom_bond_site_symmetry_1
_geom_bond_site_symmetry_2
C1 C2 1_555 1_555
C2 C3 1_555 1_555
C3 H1 1_555 1_555
C4 C3 1_555 1_555
H2 C4 1_555 1_555
C5 C4 1_555 1_555
C6 C1 1_555 1_555
H3 C6 1_555 1_555
C7 C1 1_555 1_555
C8 H4 1_555 1_555
C9 C8 1_555 1_555
H5 C9 1_555 1_555
N1 C8 1_555 1_555
H6 N1 1_555 1_555
O1 C7 1_555 1_555
H7 O1 1_555 1_555
O2 C7 1_555 1_555
O3 C2 1_555 1_555
H8 O3 1_555 1_555
O4 S1 1_555 1_555
O5 S1 1_555 1_555
O6 S1 1_555 1_555
O7 H9 1_555 1_555
H10 O7 1_555 1_555
S1 C5 1_555 1_555
C8A H4A 1_555 1_555
C9A N1 1_555 1_555
H5A C9A 1_555 1_555
N1A C9 1_555 1_555
H6A N1A 1_555 1_555
C5 C6 1_555 1_555
C8A C9A 1_555 1_555
C8A N1A 1_555 1_555

#END
