
#######################################################################
#
#                 Cambridge Crystallographic Data Centre
#                                CCDC 
#
#######################################################################
#
# If this CIF has been generated from an entry in the Cambridge 
# Structural Database, then it will include bibliographic, chemical, 
# crystal, experimental, refinement or atomic coordinate data resulting 
# from the CCDC's data processing and validation procedures.
#
#######################################################################

data_SOGJAA
_chemical_formula_moiety         'C16 H13 N1 O2'
_chemical_name_systematic        9-Ethyl-3,6-diformyl-9H-carbazole
_symmetry_cell_setting           monoclinic
_symmetry_space_group_name_H-M   'P 21/n'
_symmetry_Int_Tables_number      14
_space_group_name_Hall           '-P 2yn'
loop_
_symmetry_equiv_pos_site_id
_symmetry_equiv_pos_as_xyz
1 x,y,z
2 1/2-x,1/2+y,1/2-z
3 -x,-y,-z
4 1/2+x,1/2-y,1/2+z
_cell_length_a                   13.5475(3)
_cell_length_b                   6.69540(10)
_cell_length_c                   14.1840(2)
_cell_angle_alpha                90
_cell_angle_beta                 100.5100(10)
_cell_angle_gamma                90
_cell_volume                     1264.99
_exptl_crystal_colour            colorless
_exptl_crystal_description       block
_cell_formula_units_Z            4
_exptl_crystal_recrystallization_method dichloromethane
loop_
_atom_site_label
_atom_site_type_symbol
_atom_site_fract_x
_atom_site_fract_y
_atom_site_fract_z
O1 O 1.02612(11) 0.7739(2) 0.65681(10)
O2 O 0.8577(2) -0.1440(4) 1.19028(19)
N1 N 0.73234(8) 0.68042(17) 0.96028(7)
C1 C 0.55071(11) 0.7452(3) 0.91838(13)
H1 H 0.5513 0.7464 0.8508
H2 H 0.4989 0.8327 0.9318
H3 H 0.5381 0.6119 0.9381
C2 C 0.65035(10) 0.8149(2) 0.97202(11)
H4 H 0.6642 0.9470 0.9495
H5 H 0.6473 0.8252 1.0396
C3 C 0.79421(9) 0.69945(19) 0.89373(9)
C4 C 0.79749(10) 0.8498(2) 0.82587(10)
H6 H 0.7532 0.9571 0.8198
C5 C 0.86839(11) 0.8333(2) 0.76856(10)
H7 H 0.8715 0.9308 0.7225
C6 C 0.93648(10) 0.6734(2) 0.77748(9)
C7 C 0.93244(9) 0.5240(2) 0.84424(8)
H8 H 0.9774 0.4178 0.8501
C8 C 0.86064(9) 0.53478(19) 0.90209(8)
C9 C 0.83555(9) 0.40894(19) 0.97708(8)
C10 C 0.75611(9) 0.5055(2) 1.01106(8)
C11 C 0.71439(11) 0.4259(2) 1.08601(10)
H9 H 0.6627 0.4907 1.1088
C12 C 0.75280(12) 0.2485(2) 1.12461(10)
H10 H 0.7263 0.1923 1.1745
C13 C 0.83086(11) 0.1487(2) 1.09134(9)
C14 C 0.87244(10) 0.2299(2) 1.01732(9)
H11 H 0.9244 0.1646 0.9952
C15 C 1.01501(12) 0.6612(3) 0.71893(11)
H12 H 1.0603 0.5559 0.7315
C16 C 0.87062(18) -0.0411(3) 1.13397(14)
H13 H 0.9220 -0.0876 1.1043
O3? O 0.9276(2) -0.1336(4) 1.1217(2)
H14? H 0.8377 -0.0871 1.1818
loop_
_geom_bond_atom_site_label_1
_geom_bond_atom_site_label_2
_geom_bond_site_symmetry_1
_geom_bond_site_symmetry_2
O1 C15 1_555 1_555
O2 C16 1_555 1_555
N1 C2 1_555 1_555
C1 H1 1_555 1_555
H2 C1 1_555 1_555
H3 C1 1_555 1_555
C2 C1 1_555 1_555
H4 C2 1_555 1_555
H5 C2 1_555 1_555
C3 N1 1_555 1_555
C4 C3 1_555 1_555
H6 C4 1_555 1_555
C5 C4 1_555 1_555
H7 C5 1_555 1_555
C6 C5 1_555 1_555
C7 C6 1_555 1_555
H8 C7 1_555 1_555
C8 C3 1_555 1_555
C9 C8 1_555 1_555
C10 N1 1_555 1_555
C11 C10 1_555 1_555
H9 C11 1_555 1_555
C12 C11 1_555 1_555
H10 C12 1_555 1_555
C13 C12 1_555 1_555
C14 C9 1_555 1_555
H11 C14 1_555 1_555
C15 C6 1_555 1_555
H12 C15 1_555 1_555
C16 C13 1_555 1_555
H13 C16 1_555 1_555
C7 C8 1_555 1_555
C9 C10 1_555 1_555
C13 C14 1_555 1_555

#END
