
#######################################################################
#
#                 Cambridge Crystallographic Data Centre
#                                CCDC 
#
#######################################################################
#
# If this CIF has been generated from an entry in the Cambridge 
# Structural Database, then it will include bibliographic, chemical, 
# crystal, experimental, refinement or atomic coordinate data resulting 
# from the CCDC's data processing and validation procedures.
#
#######################################################################

data_SOGSIS
_chemical_formula_moiety         'C34 H30 N2 O4'
_chemical_name_systematic        
2,8,21,24-tetraoxa-13,32-diazahexacyclo[31.2.2.2^9,12^.1^3,7^.0^15,20^.0^25,30^]tetraconta-1(35),3(40),4,6,9,11,15,17,19,25,27,29,33,36,38-pentadecaene
_symmetry_cell_setting           triclinic
_symmetry_space_group_name_H-M   'P -1'
_symmetry_Int_Tables_number      2
_space_group_name_Hall           '-P 1'
loop_
_symmetry_equiv_pos_site_id
_symmetry_equiv_pos_as_xyz
1 x,y,z
2 -x,-y,-z
_cell_length_a                   11.297(2)
_cell_length_b                   11.802(3)
_cell_length_c                   13.375(3)
_cell_angle_alpha                115.682(6)
_cell_angle_beta                 96.241(7)
_cell_angle_gamma                103.156(6)
_cell_volume                     1520.6
_cell_formula_units_Z            2
loop_
_atom_site_label
_atom_site_type_symbol
_atom_site_fract_x
_atom_site_fract_y
_atom_site_fract_z
C1 C 1.2882(3) -0.0794(3) 0.3800(3)
H1 H 1.3059 -0.1444 0.3184
C2 C 1.3229(3) -0.0629(3) 0.4874(3)
H2 H 1.3671 -0.1153 0.4992
C3 C 1.2938(2) 0.0293(3) 0.5783(3)
H3 H 1.3151 0.0372 0.6507
C4 C 1.2325(2) 0.1105(3) 0.5613(2)
C5 C 1.1989(2) 0.0987(3) 0.4548(2)
H4 H 1.1586 0.1544 0.4438
C6 C 1.2264(2) 0.0020(3) 0.3638(3)
C7 C 1.1474(2) 0.2881(3) 0.6488(2)
C8 C 1.2107(3) 0.4209(3) 0.7026(2)
H5 H 1.2949 0.4509 0.7394
C9 C 1.1509(2) 0.5087(3) 0.7023(2)
H6 H 1.1947 0.5985 0.7408
C10 C 1.0244(2) 0.4675(2) 0.64542(19)
C11 C 0.9625(2) 0.3331(3) 0.5905(2)
H7 H 0.8792 0.3017 0.5511
C12 C 1.0239(2) 0.2448(3) 0.5939(2)
H8 H 0.9805 0.1551 0.5584
C13 C 0.8406(2) 0.5208(3) 0.5834(2)
H9 H 0.8318 0.4534 0.5061
H10 H 0.8263 0.5966 0.5789
C14 C 0.7397(2) 0.4686(2) 0.63196(19)
C15 C 0.7623(3) 0.4873(3) 0.7417(2)
H11 H 0.8419 0.5357 0.7890
C16 C 0.6692(3) 0.4358(3) 0.7842(2)
H12 H 0.6860 0.4503 0.8592
C17 C 0.5519(3) 0.3630(3) 0.7136(3)
H13 H 0.4892 0.3282 0.7413
C18 C 0.5262(3) 0.3409(3) 0.6031(2)
H14 H 0.4469 0.2905 0.5557
C19 C 0.6195(2) 0.3945(2) 0.5625(2)
C20 C 0.4796(2) 0.3099(3) 0.3816(2)
H15 H 0.4180 0.3455 0.4193
H16 H 0.4596 0.2178 0.3635
C21 C 0.4775(2) 0.3219(3) 0.2747(2)
H17 H 0.3920 0.2901 0.2305
H18 H 0.5127 0.4137 0.2934
C22 C 0.5445(2) 0.2283(2) 0.10181(19)
C23 C 0.4741(3) 0.2805(3) 0.0513(2)
H19 H 0.4288 0.3335 0.0925
C24 C 0.4718(3) 0.2536(3) -0.0595(3)
H20 H 0.4243 0.2879 -0.0935
C25 C 0.5383(3) 0.1772(3) -0.1201(3)
H21 H 0.5357 0.1590 -0.1954
C26 C 0.6082(3) 0.1273(3) -0.0712(2)
H22 H 0.6532 0.0752 -0.1140
C27 C 0.6150(2) 0.1516(2) 0.0415(2)
C28 C 0.6948(3) 0.0985(3) 0.0952(2)
H23 H 0.6845 0.1234 0.1723
H24 H 0.6665 0.0028 0.0524
C29 C 0.9128(2) 0.1019(3) 0.1391(2)
C30 C 1.0333(3) 0.1385(3) 0.1269(2)
H25 H 1.0521 0.1899 0.0907
C31 C 1.1264(3) 0.1003(3) 0.1675(2)
H26 H 1.2069 0.1257 0.1581
C32 C 1.1009(3) 0.0261(3) 0.2208(2)
C33 C 0.9818(3) -0.0135(4) 0.2326(3)
H27 H 0.9635 -0.0661 0.2677
C34 C 0.8892(3) 0.0252(3) 0.1920(2)
H28 H 0.8087 -0.0016 0.2008
N1 N 0.9675(2) 0.5595(2) 0.64619(18)
H29 H 1.0088 0.6421 0.6852
N2 N 0.8220(2) 0.1446(3) 0.0992(2)
H30 H 0.8451 0.2019 0.0760
O1 O 1.20977(18) 0.20298(19) 0.65772(15)
O2 O 1.1979(2) -0.0161(3) 0.25432(17)
O3 O 0.60147(16) 0.38147(17) 0.45456(13)
O4 O 0.54931(17) 0.24520(17) 0.21013(13)
loop_
_geom_bond_atom_site_label_1
_geom_bond_atom_site_label_2
_geom_bond_site_symmetry_1
_geom_bond_site_symmetry_2
C1 H1 1_555 1_555
C2 C1 1_555 1_555
H2 C2 1_555 1_555
C3 C2 1_555 1_555
H3 C3 1_555 1_555
C4 C3 1_555 1_555
C5 C4 1_555 1_555
H4 C5 1_555 1_555
C6 C1 1_555 1_555
C7 C8 1_555 1_555
C8 H5 1_555 1_555
C9 C8 1_555 1_555
H6 C9 1_555 1_555
C10 C9 1_555 1_555
C11 C10 1_555 1_555
H7 C11 1_555 1_555
C12 C7 1_555 1_555
H8 C12 1_555 1_555
C13 H9 1_555 1_555
H10 C13 1_555 1_555
C14 C13 1_555 1_555
C15 C14 1_555 1_555
H11 C15 1_555 1_555
C16 C15 1_555 1_555
H12 C16 1_555 1_555
C17 C16 1_555 1_555
H13 C17 1_555 1_555
C18 C17 1_555 1_555
H14 C18 1_555 1_555
C19 C14 1_555 1_555
C20 H15 1_555 1_555
H16 C20 1_555 1_555
C21 C20 1_555 1_555
H17 C21 1_555 1_555
H18 C21 1_555 1_555
C22 C23 1_555 1_555
C23 H19 1_555 1_555
C24 C23 1_555 1_555
H20 C24 1_555 1_555
C25 C24 1_555 1_555
H21 C25 1_555 1_555
C26 C25 1_555 1_555
H22 C26 1_555 1_555
C27 C22 1_555 1_555
C28 C27 1_555 1_555
H23 C28 1_555 1_555
H24 C28 1_555 1_555
C29 C30 1_555 1_555
C30 H25 1_555 1_555
C31 C30 1_555 1_555
H26 C31 1_555 1_555
C32 C31 1_555 1_555
C33 C32 1_555 1_555
H27 C33 1_555 1_555
C34 C29 1_555 1_555
H28 C34 1_555 1_555
N1 C10 1_555 1_555
H29 N1 1_555 1_555
N2 C28 1_555 1_555
H30 N2 1_555 1_555
O1 C4 1_555 1_555
O2 C6 1_555 1_555
O3 C19 1_555 1_555
O4 C21 1_555 1_555
C5 C6 1_555 1_555
C7 O1 1_555 1_555
C11 C12 1_555 1_555
C13 N1 1_555 1_555
C18 C19 1_555 1_555
C20 O3 1_555 1_555
C22 O4 1_555 1_555
C26 C27 1_555 1_555
C29 N2 1_555 1_555
C32 O2 1_555 1_555
C33 C34 1_555 1_555

#END
