
#######################################################################
#
#                 Cambridge Crystallographic Data Centre
#                                CCDC 
#
#######################################################################
#
# If this CIF has been generated from an entry in the Cambridge 
# Structural Database, then it will include bibliographic, chemical, 
# crystal, experimental, refinement or atomic coordinate data resulting 
# from the CCDC's data processing and validation procedures.
#
#######################################################################

data_SOGTIR
_chemical_formula_moiety         'C12 H18 O6'
_chemical_name_systematic        
'cis,cis-Cyclohexane-1,3,5-tricarboxylic acid trimethyl ester'
_symmetry_cell_setting           hexagonal
_symmetry_space_group_name_H-M   'P 63'
_symmetry_Int_Tables_number      173
_space_group_name_Hall           'P 6c'
loop_
_symmetry_equiv_pos_site_id
_symmetry_equiv_pos_as_xyz
1 x,y,z
2 -y,x-y,z
3 -x+y,-x,z
4 -x,-y,1/2+z
5 y,-x+y,1/2+z
6 x-y,x,1/2+z
_cell_length_a                   10.338(3)
_cell_length_b                   10.338(3)
_cell_length_c                   7.521(3)
_cell_angle_alpha                90
_cell_angle_beta                 90
_cell_angle_gamma                120
_cell_volume                     696.112
_exptl_crystal_colour            colorless
_cell_formula_units_Z            2
loop_
_atom_site_label
_atom_site_type_symbol
_atom_site_fract_x
_atom_site_fract_y
_atom_site_fract_z
O1 O -0.0456(9) 0.5478(10) 0.4537
O2 O 0.0158(6) 0.7379(7) 0.2831(23)
C1 C 0.1866(6) 0.6524(7) 0.2992(24)
C2 C 0.3203(7) 0.8015(7) 0.3660(23)
C3 C 0.0388(9) 0.6361(9) 0.3575(26)
C4 C -0.1253(9) 0.7303(10) 0.3306(29)
H1 H 0.1897 0.6526 0.1716
H2 H 0.3201 0.8052 0.4936
H3 H 0.3117 0.8837 0.3208
H4 H -0.1318 0.8093 0.2719
H5 H -0.2065 0.6356 0.2928
H6 H -0.1307 0.7401 0.4569
C2A C 0.1985(7) 0.5188(10) 0.3660(23)
C1B C 0.4658(9) 0.8134(6) 0.2992(24)
C1A C 0.3476(7) 0.5342(9) 0.2992(24)
H2A H 0.1948 0.5149 0.4936
H3A H 0.1163 0.4280 0.3208
C2B C 0.4812(10) 0.6797(7) 0.3660(23)
C3B C 0.5973(13) 0.9612(9) 0.3575(26)
H1B H 0.4629 0.8103 0.1716
C3A C 0.3639(9) 0.4027(13) 0.3575(26)
H1A H 0.3474 0.5371 0.1716
H2B H 0.4851 0.6799 0.4936
H3B H 0.5720 0.6883 0.3208
O1B O 0.5934(13) 1.0456(9) 0.4537
O2B O 0.7221(9) 0.9842(6) 0.2831(23)
O1A O 0.4522(10) 0.4066(13) 0.4537
O2A O 0.2621(7) 0.2779(9) 0.2831(23)
C4B C 0.8556(13) 1.1253(9) 0.3306(29)
C4A C 0.2697(10) 0.1444(13) 0.3306(29)
H4B H 0.9411 1.1318 0.2719
H5B H 0.8421 1.2065 0.2928
H6B H 0.8708 1.1307 0.4569
H4A H 0.1907 0.0589 0.2719
H5A H 0.3644 0.1579 0.2928
H6A H 0.2599 0.1292 0.4569
loop_
_geom_bond_atom_site_label_1
_geom_bond_atom_site_label_2
_geom_bond_site_symmetry_1
_geom_bond_site_symmetry_2
O1 C3 1_555 1_555
O2 C3 1_555 1_555
C1 C2 1_555 1_555
C2 H2 1_555 1_555
C3 C1 1_555 1_555
C4 O2 1_555 1_555
H1 C1 1_555 1_555
H3 C2 1_555 1_555
H4 C4 1_555 1_555
H5 C4 1_555 1_555
H6 C4 1_555 1_555
C2A C1 1_555 1_555
C1B C2 1_555 1_555
C1A C2A 1_555 1_555
H2A C2A 1_555 1_555
H3A C2A 1_555 1_555
C2B C1B 1_555 1_555
C3B C1B 1_555 1_555
H1B C1B 1_555 1_555
C3A C1A 1_555 1_555
H1A C1A 1_555 1_555
H2B C2B 1_555 1_555
H3B C2B 1_555 1_555
O1B C3B 1_555 1_555
O2B C3B 1_555 1_555
O1A C3A 1_555 1_555
O2A C3A 1_555 1_555
C4B O2B 1_555 1_555
C4A O2A 1_555 1_555
H4B C4B 1_555 1_555
H5B C4B 1_555 1_555
H6B C4B 1_555 1_555
H4A C4A 1_555 1_555
H5A C4A 1_555 1_555
H6A C4A 1_555 1_555
C1A C2B 1_555 1_555

#END
