
#######################################################################
#
#                 Cambridge Crystallographic Data Centre
#                                CCDC 
#
#######################################################################
#
# If this CIF has been generated from an entry in the Cambridge 
# Structural Database, then it will include bibliographic, chemical, 
# crystal, experimental, refinement or atomic coordinate data resulting 
# from the CCDC's data processing and validation procedures.
#
#######################################################################

data_SOGVOZ
_chemical_formula_moiety         'C8 H11 N5 O3'
_chemical_name_systematic        
1,2,3,4-Tetrahydro-2,4,4-trimethyl-8-nitroimidazo(1,5-d)(1,2,4)triazine-1-one
_symmetry_cell_setting           monoclinic
_symmetry_space_group_name_H-M   'P 21/c'
_symmetry_Int_Tables_number      14
_space_group_name_Hall           '-P 2ybc'
loop_
_symmetry_equiv_pos_site_id
_symmetry_equiv_pos_as_xyz
1 x,y,z
2 -x,1/2+y,1/2-z
3 -x,-y,-z
4 x,1/2-y,1/2+z
_cell_length_a                   7.425(1)
_cell_length_b                   13.615(2)
_cell_length_c                   10.359(2)
_cell_angle_alpha                90
_cell_angle_beta                 97.66(1)
_cell_angle_gamma                90
_cell_volume                     1037.86
_exptl_crystal_colour            colorless
_chemical_melting_point          218-220deg.C
_cell_formula_units_Z            4
loop_
_atom_site_label
_atom_site_type_symbol
_atom_site_fract_x
_atom_site_fract_y
_atom_site_fract_z
O1 O 0.8579(2) 0.0335(1) 0.1025(2)
O2 O 0.8070(2) 0.2258(1) -0.0052(2)
O3 O 0.9604(3) 0.2880(2) -0.1466(2)
N1 N 0.9484(3) 0.2404(1) -0.0486(2)
N2 N 1.2760(3) 0.2391(2) 0.0002(2)
N3 N 1.3142(2) 0.1214(1) 0.1503(2)
N4 N 1.2509(3) 0.0399(2) 0.3398(2)
N5 N 1.0832(2) 0.0081(1) 0.2706(2)
C1 C 1.0072(3) 0.0545(1) 0.1604(2)
C2 C 1.1312(3) 0.1271(1) 0.1117(2)
C3 C 1.1129(3) 0.2004(2) 0.0206(2)
C4 C 1.3940(3) 0.1889(2) 0.0805(3)
C5 C 1.3915(3) 0.0516(2) 0.2554(2)
C6 C 1.5548(3) 0.0984(3) 0.3361(3)
C7 C 1.4373(4) -0.0445(2) 0.1939(3)
C8 C 0.9922(5) -0.0722(2) 0.3270(3)
H1 H 1.2316(38) 0.1012(25) 0.3751(28)
H2 H 1.5192(42) 0.1975(21) 0.0915(27)
H3 H 1.6477(38) 0.1048(19) 0.2863(25)
H4 H 1.5985(48) 0.0566(28) 0.4127(34)
H5 H 1.5175(43) 0.1621(25) 0.3711(31)
H6 H 1.4681(44) -0.0907(30) 0.2617(33)
H7 H 1.5372(45) -0.0354(22) 0.1399(31)
H8 H 1.3389(37) -0.0712(19) 0.1410(24)
H9 H 1.0739(59) -0.1195(34) 0.3361(42)
H10 H 0.8954(60) -0.0937(33) 0.2672(39)
H11 H 0.9443(51) -0.0554(27) 0.4126(39)
loop_
_geom_bond_atom_site_label_1
_geom_bond_atom_site_label_2
_geom_bond_site_symmetry_1
_geom_bond_site_symmetry_2
O1 C1 1_555 1_555
O2 N1 1_555 1_555
O3 N1 1_555 1_555
N1 C3 1_555 1_555
N2 C3 1_555 1_555
N3 C2 1_555 1_555
N4 N5 1_555 1_555
N5 C1 1_555 1_555
C1 C2 1_555 1_555
C2 C3 1_555 1_555
C4 N2 1_555 1_555
C5 N3 1_555 1_555
C6 C5 1_555 1_555
C7 C5 1_555 1_555
C8 N5 1_555 1_555
H1 N4 1_555 1_555
H2 C4 1_555 1_555
H3 C6 1_555 1_555
H4 C6 1_555 1_555
H5 C6 1_555 1_555
H6 C7 1_555 1_555
H7 C7 1_555 1_555
H8 C7 1_555 1_555
H9 C8 1_555 1_555
H10 C8 1_555 1_555
H11 C8 1_555 1_555
N3 C4 1_555 1_555
N4 C5 1_555 1_555

#END
