
#######################################################################
#
#                 Cambridge Crystallographic Data Centre
#                                CCDC 
#
#######################################################################
#
# If this CIF has been generated from an entry in the Cambridge 
# Structural Database, then it will include bibliographic, chemical, 
# crystal, experimental, refinement or atomic coordinate data resulting 
# from the CCDC's data processing and validation procedures.
#
#######################################################################

data_SOGWOA
_chemical_compound_source        'Magnolia sprengeri Pamp'
_chemical_formula_moiety         'C12 H20 N1 O2 1+,C6 H2 N3 O7 1-'
_chemical_name_systematic        
'2-(3-Hydroxy-4-methoxyphenyl)ethyl(trimethyl)ammonium picrate'
_symmetry_cell_setting           monoclinic
_symmetry_space_group_name_H-M   'P 21/n'
_symmetry_Int_Tables_number      14
_space_group_name_Hall           '-P 2yn'
loop_
_symmetry_equiv_pos_site_id
_symmetry_equiv_pos_as_xyz
1 x,y,z
2 1/2-x,1/2+y,1/2-z
3 -x,-y,-z
4 1/2+x,1/2-y,1/2+z
_cell_length_a                   9.342(3)
_cell_length_b                   22.190(6)
_cell_length_c                   10.043(4)
_cell_angle_alpha                90
_cell_angle_beta                 97.82(3)
_cell_angle_gamma                90
_cell_volume                     2062.54
_exptl_crystal_colour            orange
_cell_formula_units_Z            4
loop_
_atom_site_label
_atom_site_type_symbol
_atom_site_fract_x
_atom_site_fract_y
_atom_site_fract_z
O1 O 0.2769(2) 0.0881(1) 0.1078(2)
O2 O 0.2469(3) 0.2065(1) 0.1620(2)
N1 N 0.1782(2) 0.3063(1) -0.5111(2)
C1 C 0.2972(4) 0.0262(2) 0.0783(3)
C2 C 0.2292(3) 0.1254(1) 0.0014(3)
C3 C 0.1964(4) 0.1066(1) -0.1304(3)
C4 C 0.1519(4) 0.1491(1) -0.2284(3)
C5 C 0.1399(3) 0.2091(1) -0.1990(3)
C6 C 0.1715(3) 0.2268(1) -0.0667(3)
C7 C 0.2156(3) 0.1860(1) 0.0341(3)
C8 C 0.0914(3) 0.2540(1) -0.3093(3)
C9 C 0.2161(3) 0.2673(1) -0.3877(3)
C10 C 0.3115(4) 0.3123(2) -0.5794(3)
C11 C 0.1315(4) 0.3675(1) -0.4718(3)
C12 C 0.0616(3) 0.2778(1) -0.6082(3)
H1 H 0.2476(45) 0.1744(15) 0.2254(36)
H2 H 0.3369(34) 0.0052(13) 0.1646(32)
H3 H 0.1921(38) 0.0101(16) 0.0454(34)
H4 H 0.3645(33) 0.0215(14) 0.0186(30)
H5 H 0.1981(26) 0.0613(10) -0.1538(24)
H6 H 0.1278(26) 0.1338(10) -0.3161(24)
H7 H 0.1644(24) 0.2655(10) -0.0442(20)
H8 H 0.0546(27) 0.2916(11) -0.2727(24)
H9 H 0.0103(28) 0.2366(11) -0.3753(25)
H10 H 0.2504(24) 0.2296(11) -0.4225(21)
H11 H 0.2936(25) 0.2919(11) -0.3333(22)
H12 H 0.3863(30) 0.3363(12) -0.5136(26)
H13 H 0.2904(33) 0.3419(13) -0.6534(32)
H14 H 0.3408(29) 0.2723(13) -0.5957(25)
H15 H 0.2198(33) 0.3875(12) -0.4103(28)
H16 H 0.0321(34) 0.3628(13) -0.4285(30)
H17 H 0.1072(30) 0.3936(12) -0.5529(26)
H18 H -0.0291(32) 0.2846(13) -0.5695(27)
H19 H 0.0510(30) 0.3016(12) -0.6901(26)
H20 H 0.0934(34) 0.2363(13) -0.6240(29)
O3 O 0.2532(3) 0.1469(1) 0.3951(2)
O4 O 0.0030(3) 0.1265(1) 0.2419(3)
O5 O -0.0508(3) 0.0365(1) 0.1935(3)
O6 O 0.1337(3) -0.1264(1) 0.4699(3)
O7 O 0.3119(3) -0.1128(1) 0.6261(3)
O8 O 0.4688(3) 0.1523(1) 0.5882(3)
O9 O 0.5334(3) 0.0750(1) 0.7015(3)
N2 N 0.0216(3) 0.0730(1) 0.2601(3)
N3 N 0.2242(4) -0.0943(1) 0.5337(4)
N4 N 0.4550(3) 0.0995(1) 0.6118(3)
C13 C 0.3395(3) 0.0646(1) 0.5345(3)
C14 C 0.2425(3) 0.0934(1) 0.4277(3)
C15 C 0.1345(3) 0.0516(2) 0.3651(3)
C16 C 0.1295(3) -0.0078(1) 0.3962(3)
C17 C 0.2291(4) -0.0313(1) 0.4994(3)
C18 C 0.3318(3) 0.0052(1) 0.5679(3)
H21 H 0.0579(33) -0.0352(13) 0.3483(30)
H22 H 0.4030(31) -0.0134(12) 0.6319(28)
loop_
_geom_bond_atom_site_label_1
_geom_bond_atom_site_label_2
_geom_bond_site_symmetry_1
_geom_bond_site_symmetry_2
O1 C1 1_555 1_555
O2 C7 1_555 1_555
O3 C14 1_555 1_555
O4 N2 1_555 1_555
O5 N2 1_555 1_555
O6 N3 1_555 1_555
O7 N3 1_555 1_555
O8 N4 1_555 1_555
O9 N4 1_555 1_555
N1 C9 1_555 1_555
N2 C15 1_555 1_555
N3 C17 1_555 1_555
N4 C13 1_555 1_555
C1 H2 1_555 1_555
C2 O1 1_555 1_555
C3 C2 1_555 1_555
C4 C3 1_555 1_555
C5 C4 1_555 1_555
C6 C5 1_555 1_555
C7 C2 1_555 1_555
C8 C5 1_555 1_555
C9 C8 1_555 1_555
C10 N1 1_555 1_555
C11 N1 1_555 1_555
C12 N1 1_555 1_555
C13 C14 1_555 1_555
C14 C15 1_555 1_555
C15 C16 1_555 1_555
C16 C17 1_555 1_555
C17 C18 1_555 1_555
C18 C13 1_555 1_555
H1 O2 1_555 1_555
H3 C1 1_555 1_555
H4 C1 1_555 1_555
H5 C3 1_555 1_555
H6 C4 1_555 1_555
H7 C6 1_555 1_555
H8 C8 1_555 1_555
H9 C8 1_555 1_555
H10 C9 1_555 1_555
H11 C9 1_555 1_555
H12 C10 1_555 1_555
H13 C10 1_555 1_555
H14 C10 1_555 1_555
H15 C11 1_555 1_555
H16 C11 1_555 1_555
H17 C11 1_555 1_555
H18 C12 1_555 1_555
H19 C12 1_555 1_555
H20 C12 1_555 1_555
H21 C16 1_555 1_555
H22 C18 1_555 1_555
C6 C7 1_555 1_555

#END
