
#######################################################################
#
#                 Cambridge Crystallographic Data Centre
#                                CCDC 
#
#######################################################################
#
# If this CIF has been generated from an entry in the Cambridge 
# Structural Database, then it will include bibliographic, chemical, 
# crystal, experimental, refinement or atomic coordinate data resulting 
# from the CCDC's data processing and validation procedures.
#
#######################################################################

data_SOHQAI
_chemical_formula_moiety         'C38 H24 N4 O1'
_chemical_name_systematic        
2,5-bis(2-(9H-Carbazol-9-yl)phenyl)-1,3,4-oxadiazole
_symmetry_cell_setting           monoclinic
_symmetry_space_group_name_H-M   'P 21/n'
_symmetry_Int_Tables_number      14
_space_group_name_Hall           '-P 2yn'
loop_
_symmetry_equiv_pos_site_id
_symmetry_equiv_pos_as_xyz
1 x,y,z
2 1/2-x,1/2+y,1/2-z
3 -x,-y,-z
4 1/2+x,1/2-y,1/2+z
_cell_length_a                   13.9314(10)
_cell_length_b                   11.2500(8)
_cell_length_c                   18.6444(14)
_cell_angle_alpha                90
_cell_angle_beta                 109.8420(10)
_cell_angle_gamma                90
_cell_volume                     2748.63
_exptl_crystal_colour            colorless
_exptl_crystal_description       block
_cell_formula_units_Z            4
_exptl_crystal_recrystallization_method dichloromethane/hexane
_exptl_crystal_preparation       photoluminescent
loop_
_atom_site_label
_atom_site_type_symbol
_atom_site_fract_x
_atom_site_fract_y
_atom_site_fract_z
C1 C 0.28158(9) 0.83163(11) 1.11186(6)
C2 C 0.31385(11) 0.86320(12) 1.05157(7)
H1 H 0.3736 0.8324 1.0473
C3 C 0.25396(12) 0.94182(13) 0.99836(8)
H2 H 0.2731 0.9627 0.9569
C4 C 0.16590(12) 0.99066(13) 1.00496(8)
H3 H 0.1273 1.0435 0.9681
C5 C 0.13505(11) 0.96177(12) 1.06549(8)
H4 H 0.0765 0.9956 1.0701
C6 C 0.19291(9) 0.88096(11) 1.11978(7)
C7 C 0.18237(9) 0.83034(11) 1.18799(7)
C8 C 0.11219(10) 0.84628(13) 1.22558(8)
H5 H 0.0587 0.9000 1.2071
C9 C 0.12329(11) 0.78124(13) 1.29057(8)
H6 H 0.0777 0.7923 1.3167
C10 C 0.20201(10) 0.69928(13) 1.31745(7)
H7 H 0.2071 0.6550 1.3607
C11 C 0.27283(10) 0.68181(12) 1.28164(7)
H8 H 0.3250 0.6263 1.2998
C12 C 0.26344(9) 0.75010(11) 1.21750(6)
C13 C 0.41655(9) 0.68511(11) 1.18604(7)
C14 C 0.49095(10) 0.69274(13) 1.25792(7)
H9 H 0.4803 0.7414 1.2948
C15 C 0.58036(10) 0.62867(15) 1.27491(8)
H10 H 0.6288 0.6330 1.3236
C16 C 0.59848(10) 0.55841(15) 1.22048(9)
H11 H 0.6590 0.5156 1.2323
C17 C 0.52682(10) 0.55154(13) 1.14839(8)
H12 H 0.5399 0.5055 1.1113
C18 C 0.43470(9) 0.61323(11) 1.13055(7)
C19 C 0.36194(9) 0.60097(11) 1.05302(7)
C20 C 0.21844(9) 0.58615(10) 0.96432(6)
C21 C 0.10715(9) 0.57531(10) 0.93237(6)
C22 C 0.05859(9) 0.49283(10) 0.87550(6)
C23 C -0.04731(9) 0.48637(12) 0.84898(7)
H13 H -0.0800 0.4299 0.8124
C24 C -0.10448(10) 0.56253(13) 0.87621(7)
H14 H -0.1754 0.5588 0.8569
C25 C -0.05655(10) 0.64445(13) 0.93211(8)
H15 H -0.0951 0.6961 0.9503
C26 C 0.04819(10) 0.64943(12) 0.96083(7)
H16 H 0.0802 0.7028 0.9997
C27 C 0.19326(9) 0.33768(11) 0.88229(7)
C28 C 0.24211(10) 0.32034(11) 0.96002(7)
H17 H 0.2206 0.3597 0.9957
C29 C 0.32352(11) 0.24298(13) 0.98239(8)
H18 H 0.3585 0.2318 1.0341
C30 C 0.35470(11) 0.18130(13) 0.92961(8)
H19 H 0.4106 0.1305 0.9465
C31 C 0.30394(10) 0.19441(12) 0.85283(8)
H20 H 0.3236 0.1510 0.8177
C32 C 0.22255(9) 0.27370(11) 0.82847(7)
C33 C 0.15779(9) 0.31302(11) 0.75406(7)
C34 C 0.15020(10) 0.28049(13) 0.68031(7)
H21 H 0.1917 0.2211 0.6720
C35 C 0.08033(10) 0.33785(13) 0.62002(7)
H22 H 0.0736 0.3159 0.5705
C36 C 0.01947(10) 0.42831(12) 0.63203(7)
H23 H -0.0262 0.4668 0.5902
C37 C 0.02513(9) 0.46244(11) 0.70449(7)
H24 H -0.0153 0.5235 0.7122
C38 C 0.09367(9) 0.40183(11) 0.76533(6)
N1 N 0.32459(7) 0.75149(9) 1.17144(5)
N2 N 0.28584(8) 0.58810(10) 0.93159(6)
N3 N 0.38096(8) 0.59794(10) 0.99016(6)
N4 N 0.11425(7) 0.41561(9) 0.84372(5)
O1 O 0.26009(6) 0.59347(7) 1.04180(4)
loop_
_geom_bond_atom_site_label_1
_geom_bond_atom_site_label_2
_geom_bond_site_symmetry_1
_geom_bond_site_symmetry_2
C1 C2 1_555 1_555
C2 H1 1_555 1_555
C3 C2 1_555 1_555
H2 C3 1_555 1_555
C4 C3 1_555 1_555
H3 C4 1_555 1_555
C5 C4 1_555 1_555
H4 C5 1_555 1_555
C6 C1 1_555 1_555
C7 C6 1_555 1_555
C8 C7 1_555 1_555
H5 C8 1_555 1_555
C9 C8 1_555 1_555
H6 C9 1_555 1_555
C10 C9 1_555 1_555
H7 C10 1_555 1_555
C11 C10 1_555 1_555
H8 C11 1_555 1_555
C12 C7 1_555 1_555
C13 C14 1_555 1_555
C14 H9 1_555 1_555
C15 C14 1_555 1_555
H10 C15 1_555 1_555
C16 C15 1_555 1_555
H11 C16 1_555 1_555
C17 C16 1_555 1_555
H12 C17 1_555 1_555
C18 C13 1_555 1_555
C19 C18 1_555 1_555
C20 C21 1_555 1_555
C21 C22 1_555 1_555
C22 C23 1_555 1_555
C23 H13 1_555 1_555
C24 C23 1_555 1_555
H14 C24 1_555 1_555
C25 C24 1_555 1_555
H15 C25 1_555 1_555
C26 C21 1_555 1_555
H16 C26 1_555 1_555
C27 C28 1_555 1_555
C28 H17 1_555 1_555
C29 C28 1_555 1_555
H18 C29 1_555 1_555
C30 C29 1_555 1_555
H19 C30 1_555 1_555
C31 C30 1_555 1_555
H20 C31 1_555 1_555
C32 C27 1_555 1_555
C33 C32 1_555 1_555
C34 C33 1_555 1_555
H21 C34 1_555 1_555
C35 C34 1_555 1_555
H22 C35 1_555 1_555
C36 C35 1_555 1_555
H23 C36 1_555 1_555
C37 C36 1_555 1_555
H24 C37 1_555 1_555
C38 C33 1_555 1_555
N1 C1 1_555 1_555
N2 C20 1_555 1_555
N3 C19 1_555 1_555
N4 C22 1_555 1_555
O1 C19 1_555 1_555
C5 C6 1_555 1_555
C11 C12 1_555 1_555
C12 N1 1_555 1_555
C13 N1 1_555 1_555
C17 C18 1_555 1_555
C20 O1 1_555 1_555
C25 C26 1_555 1_555
C27 N4 1_555 1_555
C31 C32 1_555 1_555
C37 C38 1_555 1_555
C38 N4 1_555 1_555
N2 N3 1_555 1_555

#END
