
#######################################################################
#
#                 Cambridge Crystallographic Data Centre
#                                CCDC 
#
#######################################################################
#
# If this CIF has been generated from an entry in the Cambridge 
# Structural Database, then it will include bibliographic, chemical, 
# crystal, experimental, refinement or atomic coordinate data resulting 
# from the CCDC's data processing and validation procedures.
#
#######################################################################

data_SOHVIW
_chemical_formula_moiety         'C25 H18 N2 O1,0.5(C1 H2 Cl2)'
_chemical_name_systematic        
'3-(4,5-diphenyl-1H-imidazol-2-yl)-2-naphthol dichloromethane solvate'
_symmetry_cell_setting           triclinic
_symmetry_space_group_name_H-M   'P -1'
_symmetry_Int_Tables_number      2
_space_group_name_Hall           '-P 1'
loop_
_symmetry_equiv_pos_site_id
_symmetry_equiv_pos_as_xyz
1 x,y,z
2 -x,-y,-z
_cell_length_a                   12.0614(10)
_cell_length_b                   12.2502(10)
_cell_length_c                   14.7645(13)
_cell_angle_alpha                87.449(7)
_cell_angle_beta                 85.384(7)
_cell_angle_gamma                72.203(7)
_cell_volume                     2069.93
_cell_formula_units_Z            4
loop_
_atom_site_label
_atom_site_type_symbol
_atom_site_fract_x
_atom_site_fract_y
_atom_site_fract_z
C1 C 0.47929(17) 0.82348(18) 0.36746(13)
C2 C 0.46753(16) 0.82280(18) 0.46679(13)
C3 C 0.54123(18) 0.8564(2) 0.51758(14)
H1 H 0.5990 0.8834 0.4879
C4 C 0.37726(17) 0.7839(2) 0.51303(14)
C5 C 0.3683(2) 0.7761(2) 0.60579(15)
H2 H 0.3103 0.7490 0.6348
C6 C 0.44516(19) 0.8082(2) 0.65817(14)
C7 C 0.53222(19) 0.85132(19) 0.61339(14)
C8 C 0.55376(18) 0.82526(18) 0.22620(13)
C9 C 0.3718(2) 0.8079(2) 0.15228(14)
C10 C 0.44165(18) 0.81815(18) 0.22708(13)
C11 C 0.64311(19) 0.83316(19) 0.15392(14)
C12 C 0.6134(2) 0.9066(2) 0.07937(16)
H3 H 0.5356 0.9471 0.0724
C13 C 0.4399(3) 0.8001(3) 0.75459(16)
H4 H 0.3843 0.7710 0.7853
C14 C 0.6080(2) 0.8864(2) 0.66587(18)
H5 H 0.6647 0.9154 0.6370
C15 C 0.2510(2) 0.8556(3) 0.1611(2)
H6 H 0.2156 0.8967 0.2127
C16 C 0.6989(3) 0.9201(3) 0.01541(19)
H7 H 0.6779 0.9687 -0.0347
C17 C 0.7603(2) 0.7735(3) 0.16215(18)
H8 H 0.7819 0.7235 0.2114
C18 C 0.5142(3) 0.8338(3) 0.80261(16)
H9 H 0.5089 0.8275 0.8657
C19 C 0.4233(3) 0.7468(3) 0.07486(17)
H10 H 0.5038 0.7141 0.0677
C20 C 0.8452(3) 0.7875(3) 0.0981(2)
H11 H 0.9232 0.7466 0.1039
C21 C 0.5985(3) 0.8779(3) 0.75879(19)
H12 H 0.6484 0.9016 0.7927
C22 C 0.8134(3) 0.8628(3) 0.0252(2)
H13 H 0.8704 0.8742 -0.0171
C23 C 0.3521(5) 0.7351(4) 0.0078(2)
H14 H 0.3859 0.6950 -0.0445
C24 C 0.1833(3) 0.8423(4) 0.0936(3)
H15 H 0.1027 0.8750 0.1000
C25 C 0.2335(4) 0.7819(4) 0.0182(3)
H16 H 0.1872 0.7724 -0.0264
N1 N 0.39659(15) 0.81655(16) 0.31549(11)
N2 N 0.57500(15) 0.82799(16) 0.31586(11)
H17 H 0.635(3) 0.823(3) 0.338(2)
O1 O 0.30119(15) 0.7528(2) 0.46450(11)
H18 H 0.308(3) 0.774(3) 0.403(2)
C26 C 0.96357(17) 0.84795(19) 0.42564(14)
C27 C 1.01292(19) 1.00391(19) 0.34130(16)
C28 C 0.86351(18) 0.8688(2) 0.37461(15)
C29 C 0.96632(18) 0.61661(19) 0.58426(14)
C30 C 0.98785(18) 0.75336(19) 0.49237(14)
C31 C 0.90129(19) 0.54400(19) 0.63097(14)
C32 C 1.03408(19) 0.9166(2) 0.40953(16)
H19 H 1.0977 0.9055 0.4444
C33 C 1.07996(18) 0.61727(19) 0.58693(14)
C34 C 0.8421(2) 0.9508(2) 0.30724(17)
H20 H 0.7774 0.9621 0.2736
C35 C 0.9172(2) 1.0187(2) 0.28805(16)
C36 C 0.9563(2) 0.4394(2) 0.67245(17)
H21 H 1.0373 0.4136 0.6718
C37 C 0.7798(2) 0.5795(2) 0.6329(2)
H22 H 0.7412 0.6490 0.6053
C38 C 1.1819(2) 0.55535(19) 0.63817(17)
C39 C 1.0846(3) 1.0763(3) 0.3247(2)
H23 H 1.1468 1.0684 0.3604
C40 C 0.8916(3) 0.3731(2) 0.7148(2)
H24 H 0.9298 0.3034 0.7424
C41 C 0.8994(3) 1.1027(2) 0.21598(19)
H25 H 0.8381 1.1123 0.1789
C42 C 0.9724(3) 1.1689(3) 0.2015(2)
H26 H 0.9611 1.2225 0.1539
C43 C 1.1745(3) 0.5465(3) 0.7317(2)
H27 H 1.1020 0.5705 0.7640
C44 C 0.7159(3) 0.5128(3) 0.6751(3)
H28 H 0.6349 0.5378 0.6756
C45 C 0.7717(3) 0.4090(3) 0.7165(2)
H29 H 0.7287 0.3643 0.7451
C46 C 1.2918(2) 0.5145(3) 0.5920(2)
H30 H 1.2983 0.5177 0.5288
C47 C 1.0634(3) 1.1571(3) 0.2569(2)
H31 H 1.1101 1.2051 0.2475
C48 C 1.3908(3) 0.4696(3) 0.6388(3)
H32 H 1.4633 0.4422 0.6071
C49 C 1.3822(4) 0.4653(3) 0.7328(4)
H33 H 1.4491 0.4378 0.7645
C50 C 1.2760(4) 0.5015(3) 0.7782(3)
H34 H 1.2702 0.4963 0.8413
N3 N 0.91036(15) 0.70209(16) 0.52447(12)
N4 N 1.09104(15) 0.70413(17) 0.52810(12)
H35 H 1.157(3) 0.725(2) 0.5177(19)
O2 O 0.78963(14) 0.80425(18) 0.39151(13)
H36 H 0.817(3) 0.764(4) 0.436(3)
C51 C 0.2346(8) 0.3834(8) 0.1017(7)
Cl1 Cl 0.3239(3) 0.4562(3) 0.05654(18)
Cl2 Cl 0.0924(3) 0.4420(4) 0.0807(2)
loop_
_geom_bond_atom_site_label_1
_geom_bond_atom_site_label_2
_geom_bond_site_symmetry_1
_geom_bond_site_symmetry_2
C1 C2 1_555 1_555
C2 C3 1_555 1_555
C3 H1 1_555 1_555
C4 C2 1_555 1_555
C5 C4 1_555 1_555
H2 C5 1_555 1_555
C6 C5 1_555 1_555
C7 C3 1_555 1_555
C8 C10 1_555 1_555
C9 C10 1_555 1_555
C10 N1 1_555 1_555
C11 C8 1_555 1_555
C12 C11 1_555 1_555
H3 C12 1_555 1_555
C13 C6 1_555 1_555
H4 C13 1_555 1_555
C14 C7 1_555 1_555
H5 C14 1_555 1_555
C15 C9 1_555 1_555
H6 C15 1_555 1_555
C16 C12 1_555 1_555
H7 C16 1_555 1_555
C17 C11 1_555 1_555
H8 C17 1_555 1_555
C18 C13 1_555 1_555
H9 C18 1_555 1_555
C19 C9 1_555 1_555
H10 C19 1_555 1_555
C20 C17 1_555 1_555
H11 C20 1_555 1_555
C21 C14 1_555 1_555
H12 C21 1_555 1_555
C22 C16 1_555 1_555
H13 C22 1_555 1_555
C23 C19 1_555 1_555
H14 C23 1_555 1_555
C24 C15 1_555 1_555
H15 C24 1_555 1_555
C25 C23 1_555 1_555
H16 C25 1_555 1_555
N1 C1 1_555 1_555
N2 C1 1_555 1_555
H17 N2 1_555 1_555
O1 C4 1_555 1_555
H18 O1 1_555 1_555
C26 C28 1_555 1_555
C27 C32 1_555 1_555
C28 C34 1_555 1_555
C29 C31 1_555 1_555
C30 C26 1_555 1_555
C31 C36 1_555 1_555
C32 C26 1_555 1_555
H19 C32 1_555 1_555
C33 C29 1_555 1_555
C34 H20 1_555 1_555
C35 C27 1_555 1_555
C36 H21 1_555 1_555
C37 C31 1_555 1_555
H22 C37 1_555 1_555
C38 C33 1_555 1_555
C39 C27 1_555 1_555
H23 C39 1_555 1_555
C40 C36 1_555 1_555
H24 C40 1_555 1_555
C41 C35 1_555 1_555
H25 C41 1_555 1_555
C42 C41 1_555 1_555
H26 C42 1_555 1_555
C43 C38 1_555 1_555
H27 C43 1_555 1_555
C44 C37 1_555 1_555
H28 C44 1_555 1_555
C45 C40 1_555 1_555
H29 C45 1_555 1_555
C46 C38 1_555 1_555
H30 C46 1_555 1_555
C47 C39 1_555 1_555
H31 C47 1_555 1_555
C48 C46 1_555 1_555
H32 C48 1_555 1_555
C49 C48 1_555 1_555
H33 C49 1_555 1_555
C50 C43 1_555 1_555
H34 C50 1_555 1_555
N3 C29 1_555 1_555
N4 C30 1_555 1_555
H35 N4 1_555 1_555
O2 C28 1_555 1_555
H36 O2 1_555 1_555
C51 Cl1 1_555 1_555
Cl2 C51 1_555 1_555
C6 C7 1_555 1_555
C8 N2 1_555 1_555
C18 C21 1_555 1_555
C20 C22 1_555 1_555
C24 C25 1_555 1_555
C30 N3 1_555 1_555
C33 N4 1_555 1_555
C34 C35 1_555 1_555
C42 C47 1_555 1_555
C44 C45 1_555 1_555
C49 C50 1_555 1_555

#END
