
#######################################################################
#
#                 Cambridge Crystallographic Data Centre
#                                CCDC 
#
#######################################################################
#
# If this CIF has been generated from an entry in the Cambridge 
# Structural Database, then it will include bibliographic, chemical, 
# crystal, experimental, refinement or atomic coordinate data resulting 
# from the CCDC's data processing and validation procedures.
#
#######################################################################

data_SOHVAM01
_chemical_formula_moiety         'C18 H17 N1 O3'
_chemical_name_systematic        
'1,2-Dimethyl-3-indolylmethylidene succinic fulgide anhydride'
_symmetry_cell_setting           orthorhombic
_symmetry_space_group_name_H-M   'P b c a'
_symmetry_Int_Tables_number      61
_space_group_name_Hall           '-P 2ac 2ab'
loop_
_symmetry_equiv_pos_site_id
_symmetry_equiv_pos_as_xyz
1 x,y,z
2 1/2-x,-y,1/2+z
3 1/2+x,1/2-y,-z
4 -x,1/2+y,1/2-z
5 -x,-y,-z
6 1/2+x,y,1/2-z
7 1/2-x,1/2+y,z
8 x,1/2-y,1/2+z
_cell_length_a                   10.084(3)
_cell_length_b                   13.966(4)
_cell_length_c                   20.945(6)
_cell_angle_alpha                90
_cell_angle_beta                 90
_cell_angle_gamma                90
_cell_volume                     2949.75
_cell_formula_units_Z            8
loop_
_atom_site_label
_atom_site_type_symbol
_atom_site_fract_x
_atom_site_fract_y
_atom_site_fract_z
C1 C -0.1154(4) 0.1230(3) 0.5900(2)
C2 C -0.2325(5) 0.1378(2) 0.5571(2)
C3 C -0.2319(5) 0.1513(3) 0.4912(2)
C4 C -0.1159(4) 0.1483(2) 0.4566(1)
C5 C 0.0010(3) 0.1327(2) 0.4901(1)
C6 C 0.0040(3) 0.1218(2) 0.5566(1)
C7 C 0.1406(3) 0.1043(2) 0.5738(1)
C8 C 0.2127(3) 0.1038(2) 0.5171(1)
C9 C 0.1984(4) 0.0805(3) 0.6344(2)
C10 C 0.1618(3) 0.1000(2) 0.6957(1)
C11 C 0.0664(3) 0.1629(2) 0.7276(1)
C12 C 0.0548(3) 0.1261(2) 0.7935(1)
C13 C 0.2242(3) 0.0424(2) 0.7458(2)
C14 C 0.1666(5) 0.1268(3) 0.4001(2)
C15 C 0.3570(4) 0.0913(3) 0.5077(2)
C16 C 0.0200(3) 0.2500(3) 0.7109(2)
C17 C 0.0703(4) 0.3011(3) 0.6531(2)
C18 C -0.0775(4) 0.3060(3) 0.7501(2)
N1 N 0.1292(3) 0.1219(2) 0.4674(1)
O1 O 0.1524(2) 0.0563(2) 0.8024(1)
O2 O -0.0122(2) 0.1487(2) 0.8382(1)
O3 O 0.3173(2) -0.0106(2) 0.7461(1)
loop_
_geom_bond_atom_site_label_1
_geom_bond_atom_site_label_2
_geom_bond_site_symmetry_1
_geom_bond_site_symmetry_2
C1 C2 1_555 1_555
C2 C3 1_555 1_555
C3 C4 1_555 1_555
C4 C5 1_555 1_555
C5 C6 1_555 1_555
C6 C1 1_555 1_555
C7 C6 1_555 1_555
C8 C7 1_555 1_555
C9 C7 1_555 1_555
C10 C9 1_555 1_555
C11 C10 1_555 1_555
C12 C11 1_555 1_555
C13 C10 1_555 1_555
C14 N1 1_555 1_555
C15 C8 1_555 1_555
C16 C11 1_555 1_555
C17 C16 1_555 1_555
C18 C16 1_555 1_555
N1 C5 1_555 1_555
O1 C12 1_555 1_555
O2 C12 1_555 1_555
O3 C13 1_555 1_555
C8 N1 1_555 1_555
C13 O1 1_555 1_555

#END
