
#######################################################################
#
#                 Cambridge Crystallographic Data Centre
#                                CCDC 
#
#######################################################################
#
# If this CIF has been generated from an entry in the Cambridge 
# Structural Database, then it will include bibliographic, chemical, 
# crystal, experimental, refinement or atomic coordinate data resulting 
# from the CCDC's data processing and validation procedures.
#
#######################################################################

data_SOHYOD
_chemical_formula_moiety         'C22 H25 N5 O4'
_chemical_name_systematic        
cis,syn-4a-(Spiro(cyclopropane-1,3'-indolin)-2'-yl)-1,3,6,8-tetramethyl-4a,4b,8a,8b-tetrahydrocyclobuta(1,2-d:4,3-d')dipyrimidine-2,4,5,7(1H,3H,6H,8H)-tetraone
_symmetry_cell_setting           monoclinic
_symmetry_space_group_name_H-M   'P 21/c'
_symmetry_Int_Tables_number      14
_space_group_name_Hall           '-P 2ybc'
loop_
_symmetry_equiv_pos_site_id
_symmetry_equiv_pos_as_xyz
1 x,y,z
2 -x,1/2+y,1/2-z
3 -x,-y,-z
4 x,1/2-y,1/2+z
_cell_length_a                   7.868(4)
_cell_length_b                   14.167(4)
_cell_length_c                   18.340(6)
_cell_angle_alpha                90
_cell_angle_beta                 92.69(4)
_cell_angle_gamma                90
_cell_volume                     2042.03
_cell_formula_units_Z            4
loop_
_atom_site_label
_atom_site_type_symbol
_atom_site_fract_x
_atom_site_fract_y
_atom_site_fract_z
N1 N 0.9840(3) 0.4681(1) 0.2821(1)
C1 C 0.8840(3) 0.5386(2) 0.2559(1)
N2 N 0.7162(3) 0.5153(1) 0.2323(1)
C2 C 0.6422(3) 0.4276(2) 0.2376(1)
C3 C 0.7542(3) 0.3460(2) 0.2628(1)
C4 C 0.9439(3) 0.3705(2) 0.2666(1)
N3 N 0.9529(3) 0.4001(1) 0.1312(1)
C5 C 0.8175(3) 0.4158(2) 0.0849(1)
N4 N 0.6828(3) 0.3498(2) 0.0831(1)
C6 C 0.6660(3) 0.2779(2) 0.1326(2)
C7 C 0.7917(3) 0.2792(3) 0.1961(1)
C8 C 0.9630(3) 0.3297(2) 0.1879(1)
N5 N 0.7856(3) 0.2213(2) 0.3592(1)
C9 C 0.6764(3) 0.2985(2) 0.3299(1)
C10 C 0.6651(3) 0.3625(2) 0.3970(1)
C11 C 0.8196(3) 0.3402(2) 0.4428(1)
C12 C 0.8948(4) 0.3860(2) 0.5026(2)
C13 C 1.0375(4) 0.3459(2) 0.5382(2)
C14 C 1.1018(4) 0.2621(3) 0.5133(2)
C15 C 1.0275(4) 0.2148(2) 0.4536(2)
C16 C 0.8854(3) 0.2558(2) 0.4190(1)
O1 O 0.9313(3) 0.6210(1) 0.2532(1)
O2 O 0.8089(3) 0.4832(1) 0.0436(1)
O3 O 0.4919(2) 0.4153(1) 0.2219(1)
O4 O 0.5535(3) 0.2192(2) 0.1264(1)
C17 C 1.1541(3) 0.4901(2) 0.3130(2)
C18 C 1.1072(3) 0.4569(2) 0.1212(2)
C19 C 0.6075(4) 0.5935(2) 0.2051(2)
C20 C 0.5498(4) 0.3622(2) 0.0252(2)
C21 C 0.5763(4) 0.4569(2) 0.3995(2)
C22 C 0.4983(4) 0.3728(2) 0.4350(2)
H1 H 1.0032 0.3310 0.3019
H2 H 0.8114 0.2159 0.2132
H3 H 1.0574 0.2873 0.1842
H4 H 0.7862 0.1617 0.3422
H5 H 0.5652 0.2748 0.3161
H6 H 0.8469 0.4440 0.5194
H7 H 1.0929 0.3779 0.5789
H8 H 1.1990 0.2346 0.5388
H9 H 1.0725 0.1560 0.4371
H10 H 1.1634 0.5570 0.3202
H11 H 1.1724 0.4585 0.3590
H12 H 1.2380 0.4696 0.2801
H13 H 1.0852 0.5012 0.0823
H14 H 1.1367 0.4904 0.1655
H15 H 1.1996 0.4164 0.1092
H16 H 0.4967 0.5698 0.1906
H17 H 0.5973 0.6392 0.2434
H18 H 0.6575 0.6227 0.1641
H19 H 0.4639 0.3146 0.0290
H20 H 0.4992 0.4235 0.0297
H21 H 0.6002 0.3572 -0.0213
H22 H 0.5237 0.4808 0.3549
H23 H 0.6268 0.5041 0.4312
H24 H 0.5015 0.3698 0.4874
H25 H 0.3982 0.3464 0.4110
loop_
_geom_bond_atom_site_label_1
_geom_bond_atom_site_label_2
_geom_bond_site_symmetry_1
_geom_bond_site_symmetry_2
N1 C1 1_555 1_555
C1 N2 1_555 1_555
N2 C2 1_555 1_555
C2 C3 1_555 1_555
C3 C4 1_555 1_555
C4 N1 1_555 1_555
N3 C5 1_555 1_555
C5 N4 1_555 1_555
N4 C6 1_555 1_555
C6 C7 1_555 1_555
C7 C3 1_555 1_555
C8 C4 1_555 1_555
N5 C9 1_555 1_555
C9 C3 1_555 1_555
C10 C9 1_555 1_555
C11 C10 1_555 1_555
C12 C11 1_555 1_555
C13 C12 1_555 1_555
C14 C13 1_555 1_555
C15 C14 1_555 1_555
C16 N5 1_555 1_555
O1 C1 1_555 1_555
O2 C5 1_555 1_555
O3 C2 1_555 1_555
O4 C6 1_555 1_555
C17 N1 1_555 1_555
C18 N3 1_555 1_555
C19 N2 1_555 1_555
C20 N4 1_555 1_555
C21 C10 1_555 1_555
C22 C10 1_555 1_555
H1 C4 1_555 1_555
H2 C7 1_555 1_555
H3 C8 1_555 1_555
H4 N5 1_555 1_555
H5 C9 1_555 1_555
H6 C12 1_555 1_555
H7 C13 1_555 1_555
H8 C14 1_555 1_555
H9 C15 1_555 1_555
H10 C17 1_555 1_555
H11 C17 1_555 1_555
H12 C17 1_555 1_555
H13 C18 1_555 1_555
H14 C18 1_555 1_555
H15 C18 1_555 1_555
H16 C19 1_555 1_555
H17 C19 1_555 1_555
H18 C19 1_555 1_555
H19 C20 1_555 1_555
H20 C20 1_555 1_555
H21 C20 1_555 1_555
H22 C21 1_555 1_555
H23 C21 1_555 1_555
H24 C22 1_555 1_555
H25 C22 1_555 1_555
N3 C8 1_555 1_555
C7 C8 1_555 1_555
C11 C16 1_555 1_555
C15 C16 1_555 1_555
C21 C22 1_555 1_555

#END
