
#######################################################################
#
#                 Cambridge Crystallographic Data Centre
#                                CCDC 
#
#######################################################################
#
# If this CIF has been generated from an entry in the Cambridge 
# Structural Database, then it will include bibliographic, chemical, 
# crystal, experimental, refinement or atomic coordinate data resulting 
# from the CCDC's data processing and validation procedures.
#
#######################################################################

data_SOHYET
_chemical_formula_moiety         'C9 H11 Br1 N2 O4'
_chemical_name_systematic        5-Bromo-2',3'-dideoxyuridine
_symmetry_cell_setting           monoclinic
_symmetry_space_group_name_H-M   'P 21'
_symmetry_Int_Tables_number      4
_space_group_name_Hall           'P 2yb'
loop_
_symmetry_equiv_pos_site_id
_symmetry_equiv_pos_as_xyz
1 x,y,z
2 -x,1/2+y,-z
_cell_length_a                   11.307(1)
_cell_length_b                   5.954(1)
_cell_length_c                   15.829(2)
_cell_angle_alpha                90
_cell_angle_beta                 93.25(1)
_cell_angle_gamma                90
_cell_volume                     1063.92
_cell_formula_units_Z            4
loop_
_atom_site_label
_atom_site_type_symbol
_atom_site_fract_x
_atom_site_fract_y
_atom_site_fract_z
Br1 Br 0.46752(7) 0.241 0.57240(4)
N1 N 0.4793(5) 0.650(1) 0.7826(3)
C1 C 0.3969(5) 0.818(1) 0.7652(4)
N2 N 0.3335(5) 0.797(1) 0.6892(3)
C2 C 0.3448(5) 0.639(1) 0.6271(4)
C3 C 0.4361(5) 0.471(5) 0.6494(4)
C4 C 0.4965(5) 0.484(1) 0.7266(4)
O1 O 0.3792(4) 0.970(1) 0.8147(3)
O2 O 0.2882(4) 0.643(1) 0.5606(3)
C5 C 0.5509(6) 0.658(2) 0.8626(4)
C6 C 0.5268(6) 0.460(2) 0.9216(4)
C7 C 0.6464(6) 0.439(2) 0.9690(4)
C8 C 0.7337(6) 0.494(2) 0.9063(4)
O3 O 0.6713(4) 0.631(1) 0.8432(3)
C9 C 0.7886(6) 0.298(2) 0.8632(4)
O4 O 0.7014(5) 0.175(1) 0.8180(4)
H1 H 0.310(5) 0.88(1) 0.671(4)
H2 H 0.55(1) 0.38(3) 0.755(7)
H4 H 0.517(6) 0.32(2) 0.892(4)
H5 H 0.461(6) 0.54(1) 0.960(4)
H6 H 0.685(7) 0.24(2) 0.986(5)
H7 H 0.656(8) 0.53(2) 1.021(5)
H8 H 0.815(7) 0.60(2) 0.909(5)
H9 H 0.840(6) 0.25(2) 0.900(4)
H10 H 0.832(7) 0.25(2) 0.818(4)
H11 H 0.736(6) 0.07(2) 0.787(4)
Br2 Br 0.95680(8) 0.3467(2) 0.08536(5)
N3 N 0.9303(4) -0.022(1) 0.3022(3)
C10 C 0.8488(5) -0.187(1) 0.2813(4)
N4 N 0.7996(4) -0.179(1) 0.2014(3)
C11 C 0.8286(6) -0.035(1) 0.1353(4)
C12 C 0.9135(6) 0.134(1) 0.1635(4)
C13 C 0.9594(5) 0.139(1) 0.2429(4)
O5 O 0.8237(4) -0.326(1) 0.3326(3)
O6 O 0.7795(5) -0.055(1) 0.0655(3)
C14 C 0.9872(5) -0.022(1) 0.3906(4)
C15 C 1.0721(6) -0.212(1) 0.4037(4)
C16 C 1.1906(5) -0.106(1) 0.3822(4)
C17 C 1.1780(5) 0.129(1) 0.4176(4)
O7 O 1.0492(3) 0.1783(9) 0.4053(3)
C18 C 1.2474(6) 0.308(1) 0.3769(4)
O8 O 1.2165(4) 0.342(1) 0.2907(3)
H12 H 0.743(6) -0.31(1) 0.186(4)
H13 H 1.034(5) 0.23(1) 0.257(3)
H14 H 0.906(8) -0.03(3) 0.445(6)
H15 H 0.993(8) -0.35(3) 0.376(6)
H16 H 1.069(5) -0.19(1) 0.458(4)
H17 H 1.183(5) -0.10(1) 0.316(3)
H18 H 1.264(5) -0.19(1) 0.409(3)
H19 H 1.166(9) 0.16(3) 0.489(6)
H20 H 1.238(6) 0.49(1) 0.401(4)
H21 H 1.302(9) 0.29(3) 0.418(7)
H22 H 1.251(9) 0.26(3) 0.227(6)
H3? H 0.582(7) 0.87(2) 0.885(5)
loop_
_geom_bond_atom_site_label_1
_geom_bond_atom_site_label_2
_geom_bond_site_symmetry_1
_geom_bond_site_symmetry_2
Br1 C3 1_555 1_555
N1 C1 1_555 1_555
C1 N2 1_555 1_555
N2 C2 1_555 1_555
C2 C3 1_555 1_555
C3 C4 1_555 1_555
C4 N1 1_555 1_555
O1 C1 1_555 1_555
O2 C2 1_555 1_555
C5 N1 1_555 1_555
C6 C5 1_555 1_555
C7 C6 1_555 1_555
C8 C7 1_555 1_555
O3 C5 1_555 1_555
C9 C8 1_555 1_555
O4 C9 1_555 1_555
Br2 C12 1_555 1_555
N3 C10 1_555 1_555
C10 N4 1_555 1_555
N4 C11 1_555 1_555
C11 C12 1_555 1_555
C12 C13 1_555 1_555
C13 N3 1_555 1_555
O5 C10 1_555 1_555
O6 C11 1_555 1_555
C14 N3 1_555 1_555
C15 C14 1_555 1_555
C16 C15 1_555 1_555
C17 C16 1_555 1_555
O7 C14 1_555 1_555
C18 C17 1_555 1_555
O8 C18 1_555 1_555
H1 N2 1_555 1_555
H2 C4 1_555 1_555
H4 C6 1_555 1_555
H5 C6 1_555 1_555
H6 C7 1_555 1_555
H7 C7 1_555 1_555
H8 C8 1_555 1_555
H9 C9 1_555 1_555
H10 C9 1_555 1_555
H11 O4 1_555 1_555
H12 N4 1_555 1_555
H13 C13 1_555 1_555
H14 C14 1_555 1_555
H15 C15 1_555 1_555
H16 C15 1_555 1_555
H17 C16 1_555 1_555
H18 C16 1_555 1_555
H19 C17 1_555 1_555
H20 C18 1_555 1_555
H21 C18 1_555 1_555
H22 O8 1_555 1_555
C8 O3 1_555 1_555
C17 O7 1_555 1_555

#END
