
#######################################################################
#
#                 Cambridge Crystallographic Data Centre
#                                CCDC 
#
#######################################################################
#
# If this CIF has been generated from an entry in the Cambridge 
# Structural Database, then it will include bibliographic, chemical, 
# crystal, experimental, refinement or atomic coordinate data resulting 
# from the CCDC's data processing and validation procedures.
#
#######################################################################

data_SOHZOE01
_chemical_formula_moiety         'C5 H4 S5'
_chemical_name_systematic        
3-Thio-5,6-dihydro-1,2-dithiolo(4,5-b)(1,4)dithiine
_symmetry_cell_setting           monoclinic
_symmetry_space_group_name_H-M   'P 21/a'
_symmetry_Int_Tables_number      14
_space_group_name_Hall           '-P 2yab'
loop_
_symmetry_equiv_pos_site_id
_symmetry_equiv_pos_as_xyz
1 x,y,z
2 1/2-x,1/2+y,-z
3 -x,-y,-z
4 1/2+x,1/2-y,z
_cell_length_a                   8.205(1)
_cell_length_b                   17.610(4)
_cell_length_c                   12.086(1)
_cell_angle_alpha                90
_cell_angle_beta                 108.36(1)
_cell_angle_gamma                90
_cell_volume                     1657.41
_cell_formula_units_Z            8
loop_
_atom_site_label
_atom_site_type_symbol
_atom_site_fract_x
_atom_site_fract_y
_atom_site_fract_z
S1 S 0.35729(16) 0.64169(8) 0.13530(13)
S2 S 0.09966(15) 0.66033(7) -0.09379(12)
S3 S 0.00226(15) 0.76064(7) -0.17288(11)
S4 S 0.10581(16) 0.91264(7) -0.08992(12)
S5 S 0.39208(13) 0.82199(7) 0.15416(11)
C1 C 0.24127(48) 0.69922(25) 0.03121(40)
C2 C 0.13556(47) 0.81642(24) -0.06287(38)
C3 C 0.20937(56) 0.95129(27) 0.05533(46)
C4 C 0.38703(55) 0.91968(28) 0.11352(47)
C5 C 0.24510(45) 0.77998(23) 0.03149(37)
H1 H 0.13903(56) 0.93979(27) 0.10333(46)
H2 H 0.21823(56) 1.00536(27) 0.04891(46)
H3 H 0.45230(55) 0.92520(28) 0.06058(47)
H4 H 0.43968(55) 0.94888(28) 0.18265(47)
S6 S 0.21880(16) 0.59062(8) 0.64547(12)
S7 S 0.26388(14) 0.59774(7) 0.41427(12)
S8 S 0.29265(14) 0.50770(7) 0.31459(11)
S9 S 0.29023(16) 0.34770(7) 0.36958(12)
S10 S 0.23803(16) 0.40992(7) 0.63308(11)
C6 C 0.24487(43) 0.54597(24) 0.53132(38)
C7 C 0.27625(44) 0.44045(24) 0.41505(37)
C8 C 0.2181(12) 0.29645(36) 0.47218(67)
C9 C 0.2728(11) 0.31583(37) 0.58832(62)
C10 C 0.25521(43) 0.46548(23) 0.51746(37)
H5 H 0.2508(12) 0.24448(36) 0.46785(67)
H6 H 0.0951(12) 0.30029(36) 0.44646(67)
H7 H 0.2171(11) 0.28167(37) 0.62685(62)
H8 H 0.3945(11) 0.30724(37) 0.61608(62)
loop_
_geom_bond_atom_site_label_1
_geom_bond_atom_site_label_2
_geom_bond_site_symmetry_1
_geom_bond_site_symmetry_2
S1 C1 1_555 1_555
S2 S3 1_555 1_555
S3 C2 1_555 1_555
S4 C2 1_555 1_555
S5 C4 1_555 1_555
S6 C6 1_555 1_555
S7 S8 1_555 1_555
S8 C7 1_555 1_555
S9 C7 1_555 1_555
S10 C9 1_555 1_555
C1 S2 1_555 1_555
C2 C5 1_555 1_555
C3 S4 1_555 1_555
C4 C3 1_555 1_555
C5 S5 1_555 1_555
C6 S7 1_555 1_555
C7 C10 1_555 1_555
C8 S9 1_555 1_555
C9 C8 1_555 1_555
C10 S10 1_555 1_555
H1 C3 1_555 1_555
H2 C3 1_555 1_555
H3 C4 1_555 1_555
H4 C4 1_555 1_555
H5 C8 1_555 1_555
H6 C8 1_555 1_555
H7 C9 1_555 1_555
H8 C9 1_555 1_555
C1 C5 1_555 1_555
C6 C10 1_555 1_555

#END
