
#######################################################################
#
#                 Cambridge Crystallographic Data Centre
#                                CCDC 
#
#######################################################################
#
# If this CIF has been generated from an entry in the Cambridge 
# Structural Database, then it will include bibliographic, chemical, 
# crystal, experimental, refinement or atomic coordinate data resulting 
# from the CCDC's data processing and validation procedures.
#
#######################################################################

data_SOJRAL
_chemical_formula_moiety         'C29 H30 B1 N1'
_chemical_name_systematic        Dimesityl-(2-(2-pyridyl)phenyl)-boron
_symmetry_cell_setting           monoclinic
_symmetry_space_group_name_H-M   'P 21/c'
_symmetry_Int_Tables_number      14
_space_group_name_Hall           '-P 2ybc'
loop_
_symmetry_equiv_pos_site_id
_symmetry_equiv_pos_as_xyz
1 x,y,z
2 -x,1/2+y,1/2-z
3 -x,-y,-z
4 x,1/2-y,1/2+z
_cell_length_a                   11.3972(7)
_cell_length_b                   12.7454(8)
_cell_length_c                   15.7096(10)
_cell_angle_alpha                90
_cell_angle_beta                 92.6770(10)
_cell_angle_gamma                90
_cell_volume                     2279.52
_exptl_crystal_colour            'pale yellow'
_exptl_crystal_description       block
_cell_formula_units_Z            4
_chemical_properties_physical    light-sensitive
_exptl_crystal_recrystallization_method dichloromethane/pentane
_exptl_crystal_preparation       luminescent
loop_
_atom_site_label
_atom_site_type_symbol
_atom_site_fract_x
_atom_site_fract_y
_atom_site_fract_z
N1 N 0.82582(11) 0.36957(9) 0.01345(7)
B1 B 0.79112(14) 0.27959(12) 0.08376(9)
C1 C 0.91262(14) 0.36855(13) -0.04269(10)
H1 H 0.9615 0.3103 -0.0447
C2 C 0.93023(16) 0.45105(15) -0.09647(11)
H2 H 0.9885 0.4474 -0.1359
C3 C 0.86123(16) 0.53953(15) -0.09194(11)
H3 H 0.8731 0.5962 -0.1279
C4 C 0.77483(15) 0.54336(13) -0.03396(10)
H4 H 0.7285 0.6030 -0.0296
C5 C 0.75737(13) 0.45694(11) 0.01822(9)
C6 C 0.66708(12) 0.44122(11) 0.07941(9)
C7 C 0.57642(14) 0.51036(14) 0.09713(11)
H5 H 0.5711 0.5757 0.0708
C8 C 0.49556(15) 0.48012(17) 0.15398(12)
H6 H 0.4358 0.5258 0.1679
C9 C 0.50297(15) 0.38143(17) 0.19066(11)
H7 H 0.4465 0.3604 0.2279
C10 C 0.59341(14) 0.31370(14) 0.17258(10)
H8 H 0.5962 0.2473 0.1971
C11 C 0.67977(12) 0.34380(11) 0.11841(8)
C12 C 0.73699(12) 0.16872(11) 0.04563(9)
C13 C 0.73481(13) 0.07889(11) 0.09855(10)
C14 C 0.69311(15) -0.01648(13) 0.06572(12)
H9 H 0.6933 -0.0744 0.1017
C15 C 0.65146(14) -0.02903(13) -0.01773(12)
C16 C 0.64579(14) 0.05985(13) -0.06737(11)
H10 H 0.6154 0.0545 -0.1232
C17 C 0.68382(13) 0.15763(12) -0.03730(9)
C18 C 0.65877(18) 0.24975(15) -0.09602(10)
H11 H 0.6020 0.2296 -0.1401
H12 H 0.7300 0.2712 -0.1212
H13 H 0.6283 0.3070 -0.0640
C19 C 0.60822(19) -0.13400(15) -0.05157(16)
H14 H 0.6176 -0.1371 -0.1119
H15 H 0.5267 -0.1423 -0.0402
H16 H 0.6529 -0.1893 -0.0241
C20 C 0.77496(17) 0.07771(14) 0.19172(11)
H17 H 0.7307 0.0263 0.2213
H18 H 0.7627 0.1457 0.2161
H19 H 0.8569 0.0603 0.1969
C21 C 0.91227(12) 0.26748(10) 0.14516(8)
C22 C 0.93466(13) 0.32440(10) 0.22203(8)
C23 C 1.03538(14) 0.30539(12) 0.27373(9)
H20 H 1.0461 0.3427 0.3244
C24 C 1.11974(14) 0.23333(12) 0.25253(11)
C25 C 1.10256(14) 0.18252(12) 0.17547(11)
H21 H 1.1600 0.1363 0.1582
C26 C 1.00244(13) 0.19758(11) 0.12234(9)
C27 C 0.99887(16) 0.13056(14) 0.04260(11)
H22 H 1.0726 0.1358 0.0158
H23 H 0.9369 0.1546 0.0039
H24 H 0.9848 0.0588 0.0576
C28 C 1.22671(18) 0.21110(17) 0.31054(15)
H25 H 1.2529 0.1406 0.3015
H26 H 1.2067 0.2194 0.3689
H27 H 1.2883 0.2593 0.2981
C29 C 0.85507(15) 0.40924(13) 0.25322(10)
H28 H 0.8924 0.4436 0.3017
H29 H 0.7824 0.3786 0.2692
H30 H 0.8398 0.4595 0.2086
loop_
_geom_bond_atom_site_label_1
_geom_bond_atom_site_label_2
_geom_bond_site_symmetry_1
_geom_bond_site_symmetry_2
N1 B1 1_555 1_555
B1 C11 1_555 1_555
C1 N1 1_555 1_555
H1 C1 1_555 1_555
C2 C1 1_555 1_555
H2 C2 1_555 1_555
C3 C2 1_555 1_555
H3 C3 1_555 1_555
C4 C3 1_555 1_555
H4 C4 1_555 1_555
C5 N1 1_555 1_555
C6 C5 1_555 1_555
C7 C6 1_555 1_555
H5 C7 1_555 1_555
C8 C7 1_555 1_555
H6 C8 1_555 1_555
C9 C8 1_555 1_555
H7 C9 1_555 1_555
C10 C9 1_555 1_555
H8 C10 1_555 1_555
C11 C6 1_555 1_555
C12 B1 1_555 1_555
C13 C12 1_555 1_555
C14 C13 1_555 1_555
H9 C14 1_555 1_555
C15 C14 1_555 1_555
C16 C15 1_555 1_555
H10 C16 1_555 1_555
C17 C12 1_555 1_555
C18 C17 1_555 1_555
H11 C18 1_555 1_555
H12 C18 1_555 1_555
H13 C18 1_555 1_555
C19 C15 1_555 1_555
H14 C19 1_555 1_555
H15 C19 1_555 1_555
H16 C19 1_555 1_555
C20 C13 1_555 1_555
H17 C20 1_555 1_555
H18 C20 1_555 1_555
H19 C20 1_555 1_555
C21 B1 1_555 1_555
C22 C21 1_555 1_555
C23 C22 1_555 1_555
H20 C23 1_555 1_555
C24 C23 1_555 1_555
C25 C24 1_555 1_555
H21 C25 1_555 1_555
C26 C21 1_555 1_555
C27 C26 1_555 1_555
H22 C27 1_555 1_555
H23 C27 1_555 1_555
H24 C27 1_555 1_555
C28 C24 1_555 1_555
H25 C28 1_555 1_555
H26 C28 1_555 1_555
H27 C28 1_555 1_555
C29 C22 1_555 1_555
H28 C29 1_555 1_555
H29 C29 1_555 1_555
H30 C29 1_555 1_555
C4 C5 1_555 1_555
C10 C11 1_555 1_555
C16 C17 1_555 1_555
C25 C26 1_555 1_555

#END
