
#######################################################################
#
#                 Cambridge Crystallographic Data Centre
#                                CCDC 
#
#######################################################################
#
# If this CIF has been generated from an entry in the Cambridge 
# Structural Database, then it will include bibliographic, chemical, 
# crystal, experimental, refinement or atomic coordinate data resulting 
# from the CCDC's data processing and validation procedures.
#
#######################################################################

data_SOJVET
_chemical_formula_moiety         'C76 H80 N4 O6,Cs1 1+,F1 1-,C1 H4 O1,H2 O1'
_chemical_name_systematic        
'25,27-Dipropoxy-26,28-((5,10,10,15,20,20-hexamethylporphyrin-5,15-diyl)bis(1,4-phenyleneoxyethoxy))calix(4)arene cesium fluoride methanol solvate monohydrate'
_symmetry_cell_setting           monoclinic
_symmetry_space_group_name_H-M   'P 21/c'
_symmetry_Int_Tables_number      14
_space_group_name_Hall           '-P 2ybc'
loop_
_symmetry_equiv_pos_site_id
_symmetry_equiv_pos_as_xyz
1 x,y,z
2 -x,1/2+y,1/2-z
3 -x,-y,-z
4 x,1/2-y,1/2+z
_cell_length_a                   13.4993(2)
_cell_length_b                   26.0185(7)
_cell_length_c                   19.6409(5)
_cell_angle_alpha                90
_cell_angle_beta                 100.663(2)
_cell_angle_gamma                90
_cell_volume                     6779.38
_exptl_crystal_colour            colorless
_exptl_crystal_description       plates
_cell_formula_units_Z            4
loop_
_atom_site_label
_atom_site_type_symbol
_atom_site_fract_x
_atom_site_fract_y
_atom_site_fract_z
Cs1 Cs 0.758343(13) 0.633753(7) 0.298227(8)
O1 O 0.63275(18) 0.52893(9) 0.30366(14)
H1 H 0.6016 0.5075 0.2794
H2 H 0.6726 0.5109 0.3279
N1 N 0.59276(16) 0.35141(8) 0.24153(11)
H3 H 0.5869 0.3851 0.2429
N2 N 0.48356(16) 0.39529(9) 0.36433(11)
H4 H 0.4994 0.4165 0.3332
N3 N 0.32012(16) 0.45777(8) 0.24986(11)
H5 H 0.3858 0.4554 0.2530
N4 N 0.42674(16) 0.41489(8) 0.12598(11)
H6 H 0.4672 0.4304 0.1602
O2 O 0.92272(14) 0.50868(7) 0.40254(9)
O3 O 0.96769(12) 0.61876(6) 0.39023(8)
O4 O 0.72277(12) 0.71704(6) 0.19252(8)
O5 O 0.57215(14) 0.64426(7) 0.13778(11)
O6 O 1.04005(13) 0.65809(7) 0.17968(9)
O7 O 0.95425(13) 0.79535(7) 0.35352(9)
C1 C 0.57509(19) 0.32205(10) 0.18208(13)
C2 C 0.5901(2) 0.27208(11) 0.20220(15)
H7 H 0.5816 0.2430 0.1725
C3 C 0.6206(2) 0.27112(10) 0.27485(14)
H8 H 0.6379 0.2414 0.3025
C4 C 0.6208(2) 0.32031(10) 0.29829(13)
C5 C 0.6413(2) 0.34192(10) 0.37151(13)
C6 C 0.5425(2) 0.35475(10) 0.39315(13)
C7 C 0.4918(2) 0.33123(11) 0.43857(14)
H9 H 0.5139 0.3020 0.4661
C8 C 0.4005(3) 0.35812(12) 0.43734(15)
H10 H 0.3506 0.3500 0.4640
C9 C 0.3962(2) 0.39785(11) 0.39135(13)
C10 C 0.3239(2) 0.44298(11) 0.37844(14)
C11 C 0.2699(2) 0.45011(10) 0.30397(14)
C12 C 0.1696(2) 0.45691(10) 0.27785(15)
H11 H 0.1163 0.4538 0.3032
C13 C 0.1587(2) 0.46927(10) 0.20679(15)
H12 H 0.0971 0.4761 0.1760
C14 C 0.2530(2) 0.46962(10) 0.19015(14)
C15 C 0.28702(19) 0.47987(10) 0.12219(13)
C16 C 0.33142(19) 0.43128(10) 0.09759(13)
C17 C 0.2930(2) 0.39678(10) 0.04703(13)
H13 H 0.2278 0.3979 0.0187
C18 C 0.3677(2) 0.35910(10) 0.04447(13)
H14 H 0.3615 0.3305 0.0139
C19 C 0.45030(19) 0.37087(10) 0.09349(12)
C20 C 0.5534(2) 0.34646(11) 0.11031(13)
C21 C 0.6962(2) 0.30074(11) 0.42129(15)
H15 H 0.7087 0.3141 0.4687
H16 H 0.7605 0.2921 0.4078
H17 H 0.6542 0.2698 0.4189
C22 C 0.2428(2) 0.43496(13) 0.42359(15)
H18 H 0.2054 0.4033 0.4094
H19 H 0.1963 0.4642 0.4176
H20 H 0.2754 0.4323 0.4724
C23 C 0.3823(2) 0.49300(12) 0.40222(16)
H21 H 0.4125 0.4903 0.4515
H22 H 0.3358 0.5223 0.3952
H23 H 0.4355 0.4981 0.3751
C24 C 0.1946(2) 0.49561(11) 0.06723(15)
H24 H 0.1443 0.4680 0.0620
H25 H 0.2158 0.5016 0.0228
H26 H 0.1651 0.5272 0.0821
C25 C 0.5591(2) 0.30431(13) 0.05613(15)
H27 H 0.5070 0.2785 0.0581
H28 H 0.6257 0.2880 0.0660
H29 H 0.5484 0.3197 0.0098
C26 C 0.6348(2) 0.38709(13) 0.10546(16)
H30 H 0.6230 0.4019 0.0588
H31 H 0.7015 0.3709 0.1150
H32 H 0.6317 0.4143 0.1395
C27 C 0.7125(2) 0.38841(10) 0.37796(13)
C28 C 0.7089(2) 0.42636(11) 0.42717(13)
H33 H 0.6583 0.4245 0.4549
C29 C 0.7770(2) 0.46698(11) 0.43712(13)
H34 H 0.7723 0.4926 0.4708
C30 C 0.8523(2) 0.46980(10) 0.39741(13)
C31 C 0.8586(2) 0.43157(10) 0.34875(14)
H35 H 0.9104 0.4329 0.3220
C32 C 0.7896(2) 0.39174(10) 0.33935(14)
H36 H 0.7946 0.3660 0.3058
C33 C 0.9192(2) 0.54749(10) 0.45338(13)
H37 H 0.9299 0.5320 0.5002
H38 H 0.8525 0.5645 0.4446
C34 C 1.0007(2) 0.58606(10) 0.44900(13)
H39 H 1.0145 0.6069 0.4919
H40 H 1.0635 0.5681 0.4439
C35 C 1.04591(18) 0.65042(10) 0.37636(13)
C36 C 1.1040(2) 0.63295(11) 0.32909(13)
C37 C 1.1836(2) 0.66376(13) 0.31857(15)
H41 H 1.2253 0.6527 0.2874
C38 C 1.2036(2) 0.71006(13) 0.35227(16)
H42 H 1.2587 0.7305 0.3444
C39 C 1.1437(2) 0.72667(12) 0.39714(14)
H43 H 1.1580 0.7587 0.4200
C40 C 1.06248(19) 0.69772(10) 0.41000(12)
C41 C 0.9964(2) 0.71826(10) 0.45821(13)
H44 H 1.0296 0.7489 0.4822
H45 H 0.9923 0.6919 0.4939
C42 C 0.8902(2) 0.73294(10) 0.42394(13)
C43 C 0.8064(2) 0.71120(11) 0.44517(14)
H46 H 0.8159 0.6875 0.4826
C44 C 0.7095(2) 0.72371(12) 0.41228(15)
H47 H 0.6532 0.7101 0.4288
C45 C 0.6948(2) 0.75617(11) 0.35518(15)
H48 H 0.6282 0.7629 0.3313
C46 C 0.7762(2) 0.77904(10) 0.33244(14)
C47 C 0.87260(19) 0.76901(10) 0.37015(13)
C48 C 0.7601(2) 0.81289(10) 0.26822(14)
H49 H 0.7800 0.8485 0.2821
H50 H 0.6874 0.8131 0.2474
C49 C 0.8199(2) 0.79512(10) 0.21381(13)
C50 C 0.80226(19) 0.74779(10) 0.18008(13)
C51 C 0.8622(2) 0.72938(10) 0.13463(12)
C52 C 0.9405(2) 0.76044(11) 0.12234(14)
H51 H 0.9834 0.7486 0.0924
C53 C 0.9574(2) 0.80831(11) 0.15282(15)
H52 H 1.0099 0.8295 0.1424
C54 C 0.8980(2) 0.82531(11) 0.19834(14)
H53 H 0.9105 0.8581 0.2194
C55 C 0.8431(2) 0.67765(10) 0.09819(13)
H54 H 0.7709 0.6758 0.0765
H55 H 0.8826 0.6764 0.0605
C56 C 0.8689(2) 0.63036(10) 0.14347(13)
C57 C 0.7980(2) 0.59106(11) 0.14294(13)
H56 H 0.7343 0.5935 0.1130
C58 C 0.8198(2) 0.54845(11) 0.18581(14)
H57 H 0.7733 0.5208 0.1828
C59 C 0.9102(2) 0.54652(10) 0.23317(14)
H58 H 0.9227 0.5185 0.2647
C60 C 0.9826(2) 0.58481(10) 0.23524(13)
C61 C 0.9631(2) 0.62445(10) 0.18632(13)
C62 C 1.0799(2) 0.58337(11) 0.28887(14)
H59 H 1.0751 0.5552 0.3221
H60 H 1.1364 0.5752 0.2650
C63 C 0.62751(19) 0.73047(10) 0.14989(14)
H61 H 0.6330 0.7293 0.1003
H62 H 0.6081 0.7658 0.1609
C64 C 0.5502(2) 0.69322(10) 0.16373(15)
H63 H 0.5511 0.6910 0.2142
H64 H 0.4823 0.7047 0.1406
C65 C 0.5002(2) 0.60614(10) 0.13600(14)
C66 C 0.4350(2) 0.60318(11) 0.18270(14)
H65 H 0.4361 0.6289 0.2172
C67 C 0.3675(2) 0.56194(10) 0.17863(14)
H66 H 0.3230 0.5600 0.2108
C68 C 0.3642(2) 0.52403(10) 0.12887(13)
C69 C 0.4297(2) 0.52888(11) 0.08204(14)
H67 H 0.4279 0.5038 0.0467
C70 C 0.4972(2) 0.56920(11) 0.08550(14)
H68 H 0.5414 0.5714 0.0531
C71 C 0.9720(2) 0.84390(11) 0.38925(16)
H69 H 0.9875 0.8380 0.4399
H70 H 0.9107 0.8655 0.3787
C72 C 1.0585(3) 0.87092(13) 0.36666(19)
H71 H 1.0396 0.8797 0.3169
H72 H 1.1171 0.8474 0.3722
C73 C 1.0889(3) 0.92001(13) 0.4082(2)
H73 H 1.0299 0.9423 0.4059
H74 H 1.1409 0.9381 0.3887
H75 H 1.1155 0.9111 0.4566
C74 C 1.0935(2) 0.64027(11) 0.12692(15)
H76 H 1.0470 0.6391 0.0816
H77 H 1.1194 0.6051 0.1383
C75 C 1.1790(2) 0.67538(13) 0.12247(17)
H78 H 1.2293 0.6732 0.1660
H79 H 1.1540 0.7112 0.1173
C76 C 1.2293(2) 0.66178(13) 0.06159(16)
H80 H 1.2533 0.6262 0.0663
H81 H 1.2865 0.6849 0.0610
H82 H 1.1805 0.6655 0.0183
F1 F 0.52885(11) 0.45258(6) 0.25337(8)
O8 O 0.5654(2) 0.61690(11) 0.35465(17)
H83 H 0.6008 0.5937 0.3769
C77 C 0.4783(3) 0.62317(16) 0.3808(2)
H84 H 0.4611 0.6590 0.3784
H85 H 0.4871 0.6119 0.4280
H86 H 0.4242 0.6039 0.3539
loop_
_geom_bond_atom_site_label_1
_geom_bond_atom_site_label_2
_geom_bond_site_symmetry_1
_geom_bond_site_symmetry_2
O1 H1 1_555 1_555
H2 O1 1_555 1_555
N1 H3 1_555 1_555
N2 H4 1_555 1_555
N3 H5 1_555 1_555
N4 H6 1_555 1_555
O2 C30 1_555 1_555
O3 C34 1_555 1_555
O4 C50 1_555 1_555
O5 C64 1_555 1_555
O6 C61 1_555 1_555
O7 C47 1_555 1_555
C1 N1 1_555 1_555
C2 C1 1_555 1_555
H7 C2 1_555 1_555
C3 C2 1_555 1_555
H8 C3 1_555 1_555
C4 N1 1_555 1_555
C5 C4 1_555 1_555
C6 N2 1_555 1_555
C7 C6 1_555 1_555
H9 C7 1_555 1_555
C8 C7 1_555 1_555
H10 C8 1_555 1_555
C9 N2 1_555 1_555
C10 C9 1_555 1_555
C11 N3 1_555 1_555
C12 C11 1_555 1_555
H11 C12 1_555 1_555
C13 C12 1_555 1_555
H12 C13 1_555 1_555
C14 N3 1_555 1_555
C15 C14 1_555 1_555
C16 N4 1_555 1_555
C17 C16 1_555 1_555
H13 C17 1_555 1_555
C18 C17 1_555 1_555
H14 C18 1_555 1_555
C19 N4 1_555 1_555
C20 C1 1_555 1_555
C21 C5 1_555 1_555
H15 C21 1_555 1_555
H16 C21 1_555 1_555
H17 C21 1_555 1_555
C22 C10 1_555 1_555
H18 C22 1_555 1_555
H19 C22 1_555 1_555
H20 C22 1_555 1_555
C23 C10 1_555 1_555
H21 C23 1_555 1_555
H22 C23 1_555 1_555
H23 C23 1_555 1_555
C24 C15 1_555 1_555
H24 C24 1_555 1_555
H25 C24 1_555 1_555
H26 C24 1_555 1_555
C25 C20 1_555 1_555
H27 C25 1_555 1_555
H28 C25 1_555 1_555
H29 C25 1_555 1_555
C26 C20 1_555 1_555
H30 C26 1_555 1_555
H31 C26 1_555 1_555
H32 C26 1_555 1_555
C27 C5 1_555 1_555
C28 C27 1_555 1_555
H33 C28 1_555 1_555
C29 C28 1_555 1_555
H34 C29 1_555 1_555
C30 C29 1_555 1_555
C31 C30 1_555 1_555
H35 C31 1_555 1_555
C32 C27 1_555 1_555
H36 C32 1_555 1_555
C33 O2 1_555 1_555
H37 C33 1_555 1_555
H38 C33 1_555 1_555
C34 C33 1_555 1_555
H39 C34 1_555 1_555
H40 C34 1_555 1_555
C35 O3 1_555 1_555
C36 C35 1_555 1_555
C37 C36 1_555 1_555
H41 C37 1_555 1_555
C38 C37 1_555 1_555
H42 C38 1_555 1_555
C39 C38 1_555 1_555
H43 C39 1_555 1_555
C40 C35 1_555 1_555
C41 C40 1_555 1_555
H44 C41 1_555 1_555
H45 C41 1_555 1_555
C42 C41 1_555 1_555
C43 C42 1_555 1_555
H46 C43 1_555 1_555
C44 C43 1_555 1_555
H47 C44 1_555 1_555
C45 C44 1_555 1_555
H48 C45 1_555 1_555
C46 C45 1_555 1_555
C47 C42 1_555 1_555
C48 C46 1_555 1_555
H49 C48 1_555 1_555
H50 C48 1_555 1_555
C49 C48 1_555 1_555
C50 C49 1_555 1_555
C51 C50 1_555 1_555
C52 C51 1_555 1_555
H51 C52 1_555 1_555
C53 C52 1_555 1_555
H52 C53 1_555 1_555
C54 C49 1_555 1_555
H53 C54 1_555 1_555
C55 C51 1_555 1_555
H54 C55 1_555 1_555
H55 C55 1_555 1_555
C56 C55 1_555 1_555
C57 C56 1_555 1_555
H56 C57 1_555 1_555
C58 C57 1_555 1_555
H57 C58 1_555 1_555
C59 C58 1_555 1_555
H58 C59 1_555 1_555
C60 C59 1_555 1_555
C61 C56 1_555 1_555
C62 C36 1_555 1_555
H59 C62 1_555 1_555
H60 C62 1_555 1_555
C63 O4 1_555 1_555
H61 C63 1_555 1_555
H62 C63 1_555 1_555
C64 C63 1_555 1_555
H63 C64 1_555 1_555
H64 C64 1_555 1_555
C65 O5 1_555 1_555
C66 C65 1_555 1_555
H65 C66 1_555 1_555
C67 C66 1_555 1_555
H66 C67 1_555 1_555
C68 C15 1_555 1_555
C69 C68 1_555 1_555
H67 C69 1_555 1_555
C70 C65 1_555 1_555
H68 C70 1_555 1_555
C71 O7 1_555 1_555
H69 C71 1_555 1_555
H70 C71 1_555 1_555
C72 C71 1_555 1_555
H71 C72 1_555 1_555
H72 C72 1_555 1_555
C73 C72 1_555 1_555
H73 C73 1_555 1_555
H74 C73 1_555 1_555
H75 C73 1_555 1_555
C74 O6 1_555 1_555
H76 C74 1_555 1_555
H77 C74 1_555 1_555
C75 C74 1_555 1_555
H78 C75 1_555 1_555
H79 C75 1_555 1_555
C76 C75 1_555 1_555
H80 C76 1_555 1_555
H81 C76 1_555 1_555
H82 C76 1_555 1_555
O8 H83 1_555 1_555
C77 O8 1_555 1_555
H84 C77 1_555 1_555
H85 C77 1_555 1_555
H86 C77 1_555 1_555
C3 C4 1_555 1_555
C5 C6 1_555 1_555
C8 C9 1_555 1_555
C10 C11 1_555 1_555
C13 C14 1_555 1_555
C15 C16 1_555 1_555
C18 C19 1_555 1_555
C19 C20 1_555 1_555
C31 C32 1_555 1_555
C39 C40 1_555 1_555
C46 C47 1_555 1_555
C53 C54 1_555 1_555
C60 C61 1_555 1_555
C60 C62 1_555 1_555
C67 C68 1_555 1_555
C69 C70 1_555 1_555

#END
