
#######################################################################
#
#                 Cambridge Crystallographic Data Centre
#                                CCDC 
#
#######################################################################
#
# If this CIF has been generated from an entry in the Cambridge 
# Structural Database, then it will include bibliographic, chemical, 
# crystal, experimental, refinement or atomic coordinate data resulting 
# from the CCDC's data processing and validation procedures.
#
#######################################################################

data_SOKREQ
_chemical_formula_moiety         'C20 H35 N4 O3 S1'
_chemical_name_systematic        
2,2,6,6-Tetramethyl-1-oxo-4-([6-(2-oxohexahydro-1H-thieno[3,4-d]imidazol-4-yl)hexanoyl]amino)piperidinium
_symmetry_cell_setting           tetragonal
_symmetry_space_group_name_H-M   'P 43 21 2'
_symmetry_Int_Tables_number      96
_space_group_name_Hall           'P 4nw 2abw'
loop_
_symmetry_equiv_pos_site_id
_symmetry_equiv_pos_as_xyz
1 x,y,z
2 1/2+x,1/2-y,1/4-z
3 -x,-y,1/2+z
4 1/2-x,1/2+y,3/4-z
5 y,x,-z
6 1/2+y,1/2-x,1/4+z
7 1/2-y,1/2+x,3/4+z
8 -y,-x,1/2-z
_cell_length_a                   16.144(2)
_cell_length_b                   16.144(2)
_cell_length_c                   17.645(4)
_cell_angle_alpha                90
_cell_angle_beta                 90
_cell_angle_gamma                90
_cell_volume                     4598.79
_exptl_crystal_colour            orange
_exptl_crystal_description       block
_cell_formula_units_Z            8
loop_
_atom_site_label
_atom_site_type_symbol
_atom_site_fract_x
_atom_site_fract_y
_atom_site_fract_z
S1 S 0.07801(3) 0.03460(3) 0.13085(3)
O1 O 0.18389(8) 0.28333(8) 0.07703(7)
O2 O 0.32407(9) 0.02374(9) -0.65587(7)
O3 O 0.28837(9) 0.07467(8) -0.28292(7)
N1 N 0.31964(10) 0.00713(9) -0.58483(8)
C1 C 0.19849(11) 0.21756(11) 0.11124(10)
C2 C 0.23615(12) 0.08002(11) 0.13026(10)
H1 H 0.2926(11) 0.0618(10) 0.1371(9)
N2 N 0.29692(11) -0.04251(12) -0.35061(9)
H2 H 0.3025(12) -0.0896(12) -0.3495(10)
N3 N 0.18376(10) 0.20250(10) 0.18494(8)
H3 H 0.1510(13) 0.2351(13) 0.2163(11)
N4 N 0.23254(9) 0.14993(9) 0.07921(9)
H4 H 0.2499(12) 0.1518(12) 0.0290(11)
C3 C 0.19773(13) 0.11607(12) 0.20448(10)
H5 H 0.2352(10) 0.1075(10) 0.2491(10)
C4 C 0.29611(13) -0.00138(12) -0.28539(11)
C5 C 0.25203(14) -0.06605(14) -0.47909(11)
H6 H 0.1992(13) -0.0843(12) -0.4610(10)
H7 H 0.2858(15) -0.1144(15) -0.4825(12)
C6 C 0.19275(13) -0.01433(13) 0.02042(11)
H8 H 0.1542(13) -0.0577(14) 0.0060(11)
H9 H 0.1750(10) 0.0319(12) -0.0102(10)
C7 C 0.30629(18) -0.05446(14) -0.21601(12)
H10 H 0.3639(15) -0.0630(14) -0.2148(12)
H11 H 0.2720(14) -0.1064(14) -0.2282(11)
C8 C 0.24130(12) -0.03301(13) -0.55919(10)
C9 C 0.28022(16) -0.01619(13) -0.14151(11)
H12 H 0.2200(14) -0.0023(12) -0.1463(11)
H13 H 0.3134(13) 0.0314(14) -0.1366(12)
C10 C 0.29016(13) -0.00497(12) -0.42495(11)
H14 H 0.2586(11) 0.0445(12) -0.4188(9)
C11 C 0.37461(13) 0.01931(14) -0.45498(11)
H15 H 0.4119(12) -0.0321(13) -0.4575(10)
H16 H 0.4017(12) 0.0562(13) -0.4221(11)
C12 C 0.11716(14) 0.06996(15) 0.22097(11)
H17 H 0.1257(13) 0.0221(14) 0.2534(12)
H18 H 0.0787(14) 0.1056(14) 0.2489(13)
C13 C 0.28063(14) -0.04075(15) 0.00207(11)
H19 H 0.2978(13) -0.0826(14) 0.0414(12)
H20 H 0.3157(14) 0.0094(15) 0.0080(12)
C14 C 0.37426(13) 0.05664(12) -0.53396(11)
C15 C 0.22438(15) -0.10525(16) -0.61255(13)
H21 H 0.2710(14) -0.1445(13) -0.6156(11)
H22 H 0.2143(13) -0.0831(13) -0.6658(12)
H23 H 0.1766(15) -0.1396(14) -0.5910(12)
C16 C 0.18321(12) 0.00705(11) 0.10346(10)
H24 H 0.1990(9) -0.0404(11) 0.1351(9)
C17 C 0.29243(17) -0.07685(15) -0.07680(11)
H25 H 0.2526(14) -0.1208(13) -0.0812(11)
H26 H 0.3472(16) -0.0987(15) -0.0816(13)
C18 C 0.3447(2) 0.14688(15) -0.53346(14)
H27 H 0.3875(16) 0.1814(17) -0.5054(14)
H28 H 0.2930(14) 0.1566(12) -0.5058(12)
H29 H 0.3361(15) 0.1657(16) -0.5889(16)
C19 C 0.46178(16) 0.05286(17) -0.56621(14)
H30 H 0.4644(13) 0.0773(14) -0.6187(14)
H31 H 0.4830(14) -0.0054(15) -0.5713(13)
H32 H 0.4982(16) 0.0817(16) -0.5291(14)
C20 C 0.17095(16) 0.03031(18) -0.56399(14)
H33 H 0.1221(18) 0.0032(17) -0.5540(15)
H34 H 0.1778(15) 0.0741(16) -0.5241(14)
H35 H 0.1780(17) 0.0578(17) -0.6210(17)
loop_
_geom_bond_atom_site_label_1
_geom_bond_atom_site_label_2
_geom_bond_site_symmetry_1
_geom_bond_site_symmetry_2
S1 C12 1_555 1_555
O1 C1 1_555 1_555
O2 N1 1_555 1_555
O3 C4 1_555 1_555
N1 C8 1_555 1_555
C1 N3 1_555 1_555
C2 H1 1_555 1_555
N2 H2 1_555 1_555
N3 H3 1_555 1_555
N4 C1 1_555 1_555
H4 N4 1_555 1_555
C3 C2 1_555 1_555
H5 C3 1_555 1_555
C4 N2 1_555 1_555
C5 H6 1_555 1_555
H7 C5 1_555 1_555
C6 H8 1_555 1_555
H9 C6 1_555 1_555
C7 C4 1_555 1_555
H10 C7 1_555 1_555
H11 C7 1_555 1_555
C8 C5 1_555 1_555
C9 C7 1_555 1_555
H12 C9 1_555 1_555
H13 C9 1_555 1_555
C10 N2 1_555 1_555
H14 C10 1_555 1_555
C11 C10 1_555 1_555
H15 C11 1_555 1_555
H16 C11 1_555 1_555
C12 C3 1_555 1_555
H17 C12 1_555 1_555
H18 C12 1_555 1_555
C13 C6 1_555 1_555
H19 C13 1_555 1_555
H20 C13 1_555 1_555
C14 N1 1_555 1_555
C15 C8 1_555 1_555
H21 C15 1_555 1_555
H22 C15 1_555 1_555
H23 C15 1_555 1_555
C16 S1 1_555 1_555
H24 C16 1_555 1_555
C17 C9 1_555 1_555
H25 C17 1_555 1_555
H26 C17 1_555 1_555
C18 C14 1_555 1_555
H27 C18 1_555 1_555
H28 C18 1_555 1_555
H29 C18 1_555 1_555
C19 C14 1_555 1_555
H30 C19 1_555 1_555
H31 C19 1_555 1_555
H32 C19 1_555 1_555
C20 C8 1_555 1_555
H33 C20 1_555 1_555
H34 C20 1_555 1_555
H35 C20 1_555 1_555
C2 N4 1_555 1_555
C2 C16 1_555 1_555
N3 C3 1_555 1_555
C5 C10 1_555 1_555
C6 C16 1_555 1_555
C11 C14 1_555 1_555
C13 C17 1_555 1_555

#END
