
#######################################################################
#
#                 Cambridge Crystallographic Data Centre
#                                CCDC 
#
#######################################################################
#
# If this CIF has been generated from an entry in the Cambridge 
# Structural Database, then it will include bibliographic, chemical, 
# crystal, experimental, refinement or atomic coordinate data resulting 
# from the CCDC's data processing and validation procedures.
#
#######################################################################

data_SOLFUW
_chemical_formula_moiety         '2(C7 H7 N1 O2),C6 H6 N2 O1'
_chemical_name_systematic        '4-aminobenzoic acid isonicotinamide'
_symmetry_cell_setting           monoclinic
_symmetry_space_group_name_H-M   'P 21/c'
_symmetry_Int_Tables_number      14
_space_group_name_Hall           '-P 2ybc'
loop_
_symmetry_equiv_pos_site_id
_symmetry_equiv_pos_as_xyz
1 x,y,z
2 -x,1/2+y,1/2-z
3 -x,-y,-z
4 x,1/2-y,1/2+z
_cell_length_a                   17.085(19)
_cell_length_b                   5.193(5)
_cell_length_c                   22.891(16)
_cell_angle_alpha                90
_cell_angle_beta                 112.28(6)
_cell_angle_gamma                90
_cell_volume                     1879.32
_cell_formula_units_Z            4
loop_
_atom_site_label
_atom_site_type_symbol
_atom_site_fract_x
_atom_site_fract_y
_atom_site_fract_z
C1 C 0.43464(19) -0.4605(6) -0.23653(14)
H1 H 0.4387 -0.5751 -0.2665
C2 C 0.48844(18) -0.4952(5) -0.17430(14)
H2 H 0.5263 -0.6321 -0.1628
C3 C 0.48461(17) -0.3208(5) -0.12934(13)
C4 C 0.42555(18) -0.1202(5) -0.14902(14)
H3 H 0.4217 0.0012 -0.1204
C5 C 0.37315(19) -0.1071(6) -0.21217(15)
H4 H 0.3329 0.0235 -0.2247
C6 C 0.54226(17) -0.3618(5) -0.06184(13)
N1 N 0.37661(15) -0.2701(5) -0.25635(12)
N2 N 0.56455(15) -0.1604(4) -0.02359(11)
H5 H 0.6070 -0.1903 0.0168
H6 H 0.5623 -0.0075 -0.0361
O1 O 0.56767(14) -0.5861(4) -0.04364(9)
C7 C -0.14349(17) 0.0083(5) -0.54353(13)
C8 C -0.16857(18) -0.1274(6) -0.50048(14)
H7 H -0.1452 -0.0839 -0.4579
C9 C -0.22686(18) -0.3231(6) -0.51997(14)
H8 H -0.2429 -0.4087 -0.4906
C10 C -0.26243(17) -0.3949(5) -0.58356(13)
C11 C -0.23898(18) -0.2575(6) -0.62703(14)
H9 H -0.2630 -0.2999 -0.6696
C12 C -0.18060(18) -0.0598(6) -0.60748(14)
H10 H -0.1658 0.0290 -0.6371
C13 C -0.07998(17) 0.2154(5) -0.52405(13)
N3 N -0.32130(15) -0.5905(5) -0.60384(12)
H11 H -0.3228 -0.6625 -0.6400
H12 H -0.3162 -0.7004 -0.5734
O2 O -0.04942(13) 0.2703(4) -0.46284(9)
H13 H -0.0163 0.4013 -0.4509
O3 O -0.05554(13) 0.3298(4) -0.56148(9)
C14 C 0.21173(18) -0.3632(5) -0.16439(13)
C15 C 0.19344(19) -0.4874(6) -0.22241(14)
H14 H 0.2241 -0.6328 -0.2244
C16 C 0.13041(19) -0.3966(6) -0.27677(14)
H15 H 0.1194 -0.4802 -0.3150
C17 C 0.08286(18) -0.1782(6) -0.27446(14)
C18 C 0.09976(19) -0.0588(6) -0.21599(14)
H16 H 0.0676 0.0820 -0.2134
C19 C 0.16345(18) -0.1482(6) -0.16249(14)
H17 H 0.1747 -0.0641 -0.1243
C20 C 0.28273(18) -0.4573(5) -0.10812(13)
N4 N 0.01880(16) -0.0863(5) -0.32808(12)
H18 H 0.0246 -0.1258 -0.3555
H19 H -0.0018 0.0757 -0.3204
O4 O 0.32214(14) -0.6568(4) -0.10541(10)
O5 O 0.30221(14) -0.2968(4) -0.05894(10)
H20 H 0.3275 -0.3449 -0.0188
loop_
_geom_bond_atom_site_label_1
_geom_bond_atom_site_label_2
_geom_bond_site_symmetry_1
_geom_bond_site_symmetry_2
C1 H1 1_555 1_555
C2 C1 1_555 1_555
H2 C2 1_555 1_555
C3 C2 1_555 1_555
C4 C3 1_555 1_555
H3 C4 1_555 1_555
C5 C4 1_555 1_555
H4 C5 1_555 1_555
C6 C3 1_555 1_555
N1 C1 1_555 1_555
N2 C6 1_555 1_555
H5 N2 1_555 1_555
H6 N2 1_555 1_555
O1 C6 1_555 1_555
C7 C8 1_555 1_555
C8 H7 1_555 1_555
C9 C8 1_555 1_555
H8 C9 1_555 1_555
C10 C9 1_555 1_555
C11 C10 1_555 1_555
H9 C11 1_555 1_555
C12 C7 1_555 1_555
H10 C12 1_555 1_555
C13 C7 1_555 1_555
N3 C10 1_555 1_555
H11 N3 1_555 1_555
H12 N3 1_555 1_555
O2 C13 1_555 1_555
H13 O2 1_555 1_555
O3 C13 1_555 1_555
C14 C15 1_555 1_555
C15 H14 1_555 1_555
C16 C15 1_555 1_555
H15 C16 1_555 1_555
C17 C16 1_555 1_555
C18 C17 1_555 1_555
H16 C18 1_555 1_555
C19 C14 1_555 1_555
H17 C19 1_555 1_555
C20 C14 1_555 1_555
N4 C17 1_555 1_555
H18 N4 1_555 1_555
H19 N4 1_555 1_555
O4 C20 1_555 1_555
O5 C20 1_555 1_555
H20 O5 1_555 1_555
C5 N1 1_555 1_555
C11 C12 1_555 1_555
C18 C19 1_555 1_555

#END
