
#######################################################################
#
#                 Cambridge Crystallographic Data Centre
#                                CCDC 
#
#######################################################################
#
# If this CIF has been generated from an entry in the Cambridge 
# Structural Database, then it will include bibliographic, chemical, 
# crystal, experimental, refinement or atomic coordinate data resulting 
# from the CCDC's data processing and validation procedures.
#
#######################################################################

data_SOLFEG
_chemical_formula_moiety         'C7 H6 O3,C6 H4 N2'
_chemical_name_systematic        '4-hydroxybenzoic acid isonicotinonitrile'
_symmetry_cell_setting           monoclinic
_symmetry_space_group_name_H-M   'P 21/c'
_symmetry_Int_Tables_number      14
_space_group_name_Hall           '-P 2ybc'
loop_
_symmetry_equiv_pos_site_id
_symmetry_equiv_pos_as_xyz
1 x,y,z
2 -x,1/2+y,1/2-z
3 -x,-y,-z
4 x,1/2-y,1/2+z
_cell_length_a                   7.279(4)
_cell_length_b                   11.601(6)
_cell_length_c                   13.669(7)
_cell_angle_alpha                90
_cell_angle_beta                 100.809(8)
_cell_angle_gamma                90
_cell_volume                     1133.78
_cell_formula_units_Z            4
loop_
_atom_site_label
_atom_site_type_symbol
_atom_site_fract_x
_atom_site_fract_y
_atom_site_fract_z
H1 H 0.097(3) 0.750(2) 0.0089(17)
H2 H 0.247(3) 1.087(2) 0.5025(19)
C1 C 0.0782(2) 0.84360(13) 0.11523(11)
C2 C 0.1558(2) 0.76810(13) 0.19065(12)
H3 H 0.1861 0.6933 0.1751
C3 C 0.1882(2) 0.80420(14) 0.28916(11)
H4 H 0.2382 0.7529 0.3395
C4 C 0.1466(2) 0.91585(13) 0.31314(11)
C5 C 0.0683(2) 0.99049(13) 0.23687(11)
H5 H 0.0401 1.0657 0.2523
C6 C 0.0317(2) 0.95495(14) 0.13860(11)
H6 H -0.0236 1.0052 0.0886
C7 C 0.1907(2) 0.95383(14) 0.41862(12)
O1 O 0.04364(18) 0.81333(11) 0.01734(8)
O2 O 0.21275(17) 1.06561(10) 0.43041(9)
O3 O 0.20983(19) 0.88743(10) 0.48928(9)
C8 C 0.6051(2) 0.97439(14) 0.32076(12)
H7 H 0.5793 1.0416 0.3527
C9 C 0.5535(2) 0.96904(15) 0.21837(12)
H8 H 0.4946 1.0309 0.1821
C10 C 0.5921(2) 0.86857(14) 0.17137(11)
C11 C 0.6780(2) 0.77782(14) 0.22783(12)
H9 H 0.7035 0.7092 0.1979
C12 C 0.7249(2) 0.79174(14) 0.33011(12)
H10 H 0.7832 0.7310 0.3683
C13 C 0.5432(3) 0.85845(15) 0.06391(13)
N1 N 0.69020(19) 0.88824(12) 0.37627(10)
N2 N 0.5051(3) 0.85037(15) -0.02056(12)
loop_
_geom_bond_atom_site_label_1
_geom_bond_atom_site_label_2
_geom_bond_site_symmetry_1
_geom_bond_site_symmetry_2
H1 O1 1_555 1_555
H2 O2 1_555 1_555
C1 C2 1_555 1_555
C2 H3 1_555 1_555
C3 C2 1_555 1_555
H4 C3 1_555 1_555
C4 C3 1_555 1_555
C5 C4 1_555 1_555
H5 C5 1_555 1_555
C6 C1 1_555 1_555
H6 C6 1_555 1_555
C7 C4 1_555 1_555
O1 C1 1_555 1_555
O2 C7 1_555 1_555
O3 C7 1_555 1_555
C8 H7 1_555 1_555
C9 C8 1_555 1_555
H8 C9 1_555 1_555
C10 C9 1_555 1_555
C11 C10 1_555 1_555
H9 C11 1_555 1_555
C12 C11 1_555 1_555
H10 C12 1_555 1_555
C13 C10 1_555 1_555
N1 C8 1_555 1_555
N2 C13 1_555 1_555
C5 C6 1_555 1_555
C12 N1 1_555 1_555

#END
