
#######################################################################
#
#                 Cambridge Crystallographic Data Centre
#                                CCDC 
#
#######################################################################
#
# If this CIF has been generated from an entry in the Cambridge 
# Structural Database, then it will include bibliographic, chemical, 
# crystal, experimental, refinement or atomic coordinate data resulting 
# from the CCDC's data processing and validation procedures.
#
#######################################################################

data_SOLFAC
_chemical_formula_moiety         'C7 H7 N1 O2,C6 H4 N2'
_chemical_name_systematic        '4-aminobenzoic acid isonicotinonitrile'
_symmetry_cell_setting           monoclinic
_symmetry_space_group_name_H-M   'C 2/c'
_symmetry_Int_Tables_number      15
_space_group_name_Hall           '-C 2yn'
loop_
_symmetry_equiv_pos_site_id
_symmetry_equiv_pos_as_xyz
1 x,y,z
2 -x,y,1/2-z
3 1/2+x,1/2+y,z
4 1/2-x,1/2+y,1/2-z
5 -x,-y,-z
6 x,-y,1/2+z
7 1/2-x,1/2-y,-z
8 1/2+x,1/2-y,1/2+z
_cell_length_a                   13.2990(16)
_cell_length_b                   8.0627(10)
_cell_length_c                   22.101(3)
_cell_angle_alpha                90
_cell_angle_beta                 100.795(7)
_cell_angle_gamma                90
_cell_volume                     2327.86
_cell_formula_units_Z            8
loop_
_atom_site_label
_atom_site_type_symbol
_atom_site_fract_x
_atom_site_fract_y
_atom_site_fract_z
H1 H 0.1644(14) 0.105(2) 0.2788(9)
H2 H 0.1549(15) 0.000(2) 0.3342(10)
H3 H 0.6341(17) 0.342(3) 0.5276(10)
C1 C 0.28381(10) 0.12177(17) 0.34185(6)
C2 C 0.41534(10) 0.12956(17) 0.43331(6)
H4 H 0.4438 0.0864 0.4728
O1 O 0.57489(8) 0.28980(14) 0.50506(5)
N1 N 0.19470(10) 0.05121(17) 0.30970(6)
O2 O 0.60397(8) 0.45184(13) 0.42758(5)
C3 C 0.46266(10) 0.26463(17) 0.41016(6)
C4 C 0.42040(10) 0.32357(18) 0.35149(6)
H5 H 0.4525 0.4130 0.3346
C5 C 0.33262(11) 0.25396(17) 0.31766(6)
H6 H 0.3051 0.2957 0.2778
C6 C 0.32814(10) 0.05801(17) 0.39979(6)
H7 H 0.2980 -0.0348 0.4160
C7 C 0.55356(10) 0.34500(17) 0.44744(6)
N2 N 0.73982(9) 0.43175(15) 0.57786(5)
C8 C 0.91318(10) 0.58946(17) 0.64104(6)
C9 C 0.87014(11) 0.45806(18) 0.66824(6)
H8 H 0.8993 0.4208 0.7085
C10 C 1.00505(11) 0.67054(18) 0.67282(6)
C11 C 0.86762(11) 0.64319(18) 0.58274(6)
H9 H 0.8947 0.7343 0.5638
C12 C 0.78134(11) 0.55986(18) 0.55310(6)
H10 H 0.7500 0.5957 0.5130
C13 C 0.78324(11) 0.38332(18) 0.63464(6)
H11 H 0.7533 0.2937 0.6528
N3 N 1.07750(10) 0.73500(18) 0.69806(6)
loop_
_geom_bond_atom_site_label_1
_geom_bond_atom_site_label_2
_geom_bond_site_symmetry_1
_geom_bond_site_symmetry_2
H1 N1 1_555 1_555
H2 N1 1_555 1_555
H3 O1 1_555 1_555
C1 N1 1_555 1_555
C2 H4 1_555 1_555
O1 C7 1_555 1_555
O2 C7 1_555 1_555
C3 C2 1_555 1_555
C4 C3 1_555 1_555
H5 C4 1_555 1_555
C5 C1 1_555 1_555
H6 C5 1_555 1_555
C6 C1 1_555 1_555
H7 C6 1_555 1_555
C7 C3 1_555 1_555
N2 C12 1_555 1_555
C8 C9 1_555 1_555
C9 H8 1_555 1_555
C10 C8 1_555 1_555
C11 C8 1_555 1_555
H9 C11 1_555 1_555
C12 C11 1_555 1_555
H10 C12 1_555 1_555
C13 N2 1_555 1_555
H11 C13 1_555 1_555
N3 C10 1_555 1_555
C2 C6 1_555 1_555
C4 C5 1_555 1_555
C9 C13 1_555 1_555

#END
