
#######################################################################
#
#                 Cambridge Crystallographic Data Centre
#                                CCDC 
#
#######################################################################
#
# If this CIF has been generated from an entry in the Cambridge 
# Structural Database, then it will include bibliographic, chemical, 
# crystal, experimental, refinement or atomic coordinate data resulting 
# from the CCDC's data processing and validation procedures.
#
#######################################################################

data_SOLGUX01
_chemical_formula_moiety         'C7 H11 N2 1+,C7 H5 O3 1-'
_chemical_name_systematic        '4-(Dimethylamino)pyridinium 4-hydroxybenzoate'
_symmetry_cell_setting           triclinic
_symmetry_space_group_name_H-M   'P -1'
_symmetry_Int_Tables_number      2
_space_group_name_Hall           '-P 1'
loop_
_symmetry_equiv_pos_site_id
_symmetry_equiv_pos_as_xyz
1 x,y,z
2 -x,-y,-z
_cell_length_a                   7.9039(8)
_cell_length_b                   9.2691(9)
_cell_length_c                   9.6989(9)
_cell_angle_alpha                70.6850(10)
_cell_angle_beta                 77.4010(10)
_cell_angle_gamma                79.7770(10)
_cell_volume                     650.126
_exptl_crystal_colour            colorless
_exptl_crystal_description       block
_cell_formula_units_Z            2
loop_
_atom_site_label
_atom_site_type_symbol
_atom_site_fract_x
_atom_site_fract_y
_atom_site_fract_z
O1 O 0.61747(13) 0.76047(14) 0.51305(14)
O2 O 0.54274(14) 0.72954(16) 0.31785(15)
O3 O 1.36135(14) 0.75132(13) 0.11306(13)
C1 C 0.65258(18) 0.74489(16) 0.38513(19)
C2 C 0.84030(17) 0.74465(15) 0.31196(16)
C3 C 0.97021(17) 0.69653(16) 0.39826(15)
H1 H 0.9386 0.6640 0.5032
C4 C 1.14529(17) 0.69475(16) 0.33490(16)
H2 H 1.2327 0.6583 0.3957
C5 C 0.88901(19) 0.79191(17) 0.15869(17)
H3 H 0.8018 0.8225 0.0978
C6 C 1.0630(2) 0.79505(17) 0.09363(16)
H4 H 1.0945 0.8303 -0.0113
C7 C 1.19163(18) 0.74680(16) 0.18155(16)
H5 H 1.430(3) 0.740(2) 0.182(2)
N1 N 0.29456(17) 0.75368(15) 0.64489(15)
N2 N -0.23205(15) 0.75939(14) 0.81828(14)
C8 C 0.19307(19) 0.88798(17) 0.63667(16)
H6 H 0.2442 0.9813 0.5893
C9 C 0.01953(18) 0.89492(17) 0.69394(16)
H7 H -0.0478 0.9919 0.6873
C10 C 0.22326(19) 0.62140(17) 0.71197(17)
H8 H 0.2956 0.5268 0.7178
C11 C 0.05087(18) 0.61809(16) 0.77193(16)
H9 H 0.0052 0.5222 0.8195
C12 C -0.06073(18) 0.75759(16) 0.76353(14)
C13 C -0.3478(2) 0.90362(18) 0.79768(19)
H10 H -0.3010 0.9746 0.8316
H11 H -0.4640 0.8832 0.8553
H12 H -0.3559 0.9498 0.6924
C14 C -0.3142(2) 0.61705(18) 0.87637(19)
H13 H -0.3136 0.5765 0.7949
H14 H -0.4349 0.6380 0.9237
H15 H -0.2494 0.5412 0.9495
H16 H 0.418(3) 0.754(2) 0.598(2)
loop_
_geom_bond_atom_site_label_1
_geom_bond_atom_site_label_2
_geom_bond_site_symmetry_1
_geom_bond_site_symmetry_2
O1 C1 1_555 1_555
O2 C1 1_555 1_555
O3 C7 1_555 1_555
C1 C2 1_555 1_555
C2 C3 1_555 1_555
C3 H1 1_555 1_555
C4 C3 1_555 1_555
H2 C4 1_555 1_555
C5 C2 1_555 1_555
H3 C5 1_555 1_555
C6 C5 1_555 1_555
H4 C6 1_555 1_555
C7 C4 1_555 1_555
H5 O3 1_555 1_555
N1 C8 1_555 1_555
N2 C12 1_555 1_555
C8 H6 1_555 1_555
C9 C8 1_555 1_555
H7 C9 1_555 1_555
C10 N1 1_555 1_555
H8 C10 1_555 1_555
C11 C10 1_555 1_555
H9 C11 1_555 1_555
C12 C9 1_555 1_555
C13 N2 1_555 1_555
H10 C13 1_555 1_555
H11 C13 1_555 1_555
H12 C13 1_555 1_555
C14 N2 1_555 1_555
H13 C14 1_555 1_555
H14 C14 1_555 1_555
H15 C14 1_555 1_555
H16 N1 1_555 1_555
C6 C7 1_555 1_555
C11 C12 1_555 1_555

#END
