
#######################################################################
#
#                 Cambridge Crystallographic Data Centre
#                                CCDC 
#
#######################################################################
#
# If this CIF has been generated from an entry in the Cambridge 
# Structural Database, then it will include bibliographic, chemical, 
# crystal, experimental, refinement or atomic coordinate data resulting 
# from the CCDC's data processing and validation procedures.
#
#######################################################################

data_SOLGAD
_chemical_formula_moiety         'C12 H12 N2,2(C7 H5 N1 O4)'
_chemical_name_systematic        
"4-nitrobenzoic acid 4,4'-ethane-1,2-diyldipyridine"
_symmetry_cell_setting           monoclinic
_symmetry_space_group_name_H-M   'P 21/c'
_symmetry_Int_Tables_number      14
_space_group_name_Hall           '-P 2ybc'
loop_
_symmetry_equiv_pos_site_id
_symmetry_equiv_pos_as_xyz
1 x,y,z
2 -x,1/2+y,1/2-z
3 -x,-y,-z
4 x,1/2-y,1/2+z
_cell_length_a                   8.874(5)
_cell_length_b                   6.631(4)
_cell_length_c                   21.677(10)
_cell_angle_alpha                90
_cell_angle_beta                 110.720(18)
_cell_angle_gamma                90
_cell_volume                     1193.05
_cell_formula_units_Z            2
loop_
_atom_site_label
_atom_site_type_symbol
_atom_site_fract_x
_atom_site_fract_y
_atom_site_fract_z
N1 N 0.80908(13) 0.04106(17) 0.61065(5)
C1 C 0.72324(16) -0.0645(2) 0.63959(6)
H1 H 0.7122 -0.0130 0.6777
C2 C 0.65027(15) -0.2473(2) 0.61510(6)
H2 H 0.5926 -0.3166 0.6368
C3 C 0.66396(14) -0.3262(2) 0.55774(6)
C4 C 0.75421(16) -0.2166(2) 0.52798(6)
H3 H 0.7674 -0.2647 0.4899
C5 C 0.82400(16) -0.0354(2) 0.55571(6)
H4 H 0.8837 0.0362 0.5354
C6 C 0.58087(15) -0.52124(19) 0.52819(6)
H5 H 0.5613 -0.6006 0.5622
H6 H 0.6504 -0.5988 0.5112
N1B N 0.19092(13) -1.04106(17) 0.38935(5)
C1B C 0.27676(16) -0.9355(2) 0.36041(6)
H1B H 0.2878 -0.9870 0.3223
C2B C 0.34973(15) -0.7527(2) 0.38490(6)
H2B H 0.4074 -0.6834 0.3632
C3B C 0.33604(14) -0.6738(2) 0.44226(6)
C4B C 0.24579(16) -0.7834(2) 0.47202(6)
H3B H 0.2326 -0.7353 0.5101
C5B C 0.17600(16) -0.9646(2) 0.44429(6)
H4B H 0.1163 -1.0362 0.4646
C6B C 0.41913(15) -0.47876(19) 0.47181(6)
H5B H 0.4387 -0.3994 0.4378
H6B H 0.3496 -0.4012 0.4888
O1 O 1.44561(13) 1.25249(17) 0.65706(5)
O2 O 1.36849(13) 1.28721(16) 0.74067(5)
O3 O 1.03926(14) 0.34866(16) 0.57429(5)
O4 O 0.95295(11) 0.37640(15) 0.65914(4)
N2 N 1.37267(13) 1.19376(17) 0.69237(5)
C7 C 1.12015(15) 0.63847(19) 0.64291(6)
C8 C 1.19764(16) 0.7192(2) 0.60255(6)
H7 H 1.1939 0.6506 0.5646
C9 C 1.28005(16) 0.9006(2) 0.61853(6)
H8 H 1.3320 0.9545 0.5918
C10 C 1.28319(15) 1.0001(2) 0.67552(6)
C11 C 1.20608(15) 0.9254(2) 0.71630(6)
H9 H 1.2091 0.9955 0.7539
C12 C 1.12381(15) 0.7424(2) 0.69959(6)
H10 H 1.0712 0.6894 0.7262
C13 C 1.03266(15) 0.4396(2) 0.62234(6)
H11 H 0.893(3) 0.228(4) 0.6372(11)
loop_
_geom_bond_atom_site_label_1
_geom_bond_atom_site_label_2
_geom_bond_site_symmetry_1
_geom_bond_site_symmetry_2
N1 C1 1_555 1_555
C1 H1 1_555 1_555
C2 C1 1_555 1_555
H2 C2 1_555 1_555
C3 C2 1_555 1_555
C4 C3 1_555 1_555
H3 C4 1_555 1_555
C5 N1 1_555 1_555
H4 C5 1_555 1_555
C6 C3 1_555 1_555
H5 C6 1_555 1_555
H6 C6 1_555 1_555
O1 N2 1_555 1_555
O2 N2 1_555 1_555
O3 C13 1_555 1_555
O4 C13 1_555 1_555
N2 C10 1_555 1_555
C7 C8 1_555 1_555
C8 H7 1_555 1_555
C9 C8 1_555 1_555
H8 C9 1_555 1_555
C10 C9 1_555 1_555
C11 C10 1_555 1_555
H9 C11 1_555 1_555
C12 C7 1_555 1_555
H10 C12 1_555 1_555
C13 C7 1_555 1_555
H11 O4 1_555 1_555
N1B C1B 1_555 1_555
C1B H1B 1_555 1_555
C2B C1B 1_555 1_555
H2B C2B 1_555 1_555
C3B C2B 1_555 1_555
C4B C3B 1_555 1_555
H3B C4B 1_555 1_555
C5B N1B 1_555 1_555
H4B C5B 1_555 1_555
C6B C6 1_555 1_555
H5B C6B 1_555 1_555
H6B C6B 1_555 1_555
C4 C5 1_555 1_555
C11 C12 1_555 1_555
C3B C6B 1_555 1_555
C4B C5B 1_555 1_555

#END
