
#######################################################################
#
#                 Cambridge Crystallographic Data Centre
#                                CCDC 
#
#######################################################################
#
# If this CIF has been generated from an entry in the Cambridge 
# Structural Database, then it will include bibliographic, chemical, 
# crystal, experimental, refinement or atomic coordinate data resulting 
# from the CCDC's data processing and validation procedures.
#
#######################################################################

data_SOLGIL
_chemical_formula_moiety         'C8 H7 O2 1-,C5 H7 N2 1+,2(H2 O1)'
_chemical_name_systematic        '4-aminopyridinium 4-methylbenzoate dihydrate'
_symmetry_cell_setting           triclinic
_symmetry_space_group_name_H-M   'P -1'
_symmetry_Int_Tables_number      2
_space_group_name_Hall           '-P 1'
loop_
_symmetry_equiv_pos_site_id
_symmetry_equiv_pos_as_xyz
1 x,y,z
2 -x,-y,-z
_cell_length_a                   8.968
_cell_length_b                   9.451
_cell_length_c                   9.637
_cell_angle_alpha                108.53
_cell_angle_beta                 105.05
_cell_angle_gamma                103.40
_cell_volume                     702.458
_cell_formula_units_Z            2
loop_
_atom_site_label
_atom_site_type_symbol
_atom_site_fract_x
_atom_site_fract_y
_atom_site_fract_z
O1 O 0.34273(16) 0.06155(15) 0.11649(15)
O2 O 0.54103(15) 0.04629(13) 0.29904(14)
C1 C 0.7799(3) 0.8125(2) 0.5167(2)
H1 H 0.7607 0.8517 0.6129
H2 H 0.7332 0.8581 0.4480
H3 H 0.8961 0.8412 0.5387
C2 C 0.7012(2) 0.6345(2) 0.43906(19)
C3 C 0.7920(2) 0.5375(2) 0.46419(19)
H4 H 0.9033 0.5837 0.5261
C4 C 0.7192(2) 0.37371(19) 0.39849(19)
H5 H 0.7814 0.3114 0.4189
C5 C 0.55432(19) 0.30152(19) 0.30232(18)
C6 C 0.4642(2) 0.3981(2) 0.27424(19)
H6 H 0.3542 0.3519 0.2085
C7 C 0.5361(2) 0.5615(2) 0.3429(2)
H7 H 0.4732 0.6238 0.3245
C8 C 0.4741(2) 0.1244(2) 0.23402(19)
N1 N 0.77653(19) 0.25899(19) 0.01776(17)
N2 N 0.97619(18) 0.74543(18) 0.23031(18)
H8 H 1.0916 0.7880 0.2841
H9 H 0.9075 0.8052 0.2183
C9 C 0.9382(2) 0.3306(2) 0.1064(2)
H10 H 1.0031 0.2683 0.1182
C10 C 1.0084(2) 0.4909(2) 0.17877(19)
H11 H 1.1201 0.5374 0.2388
C11 C 0.9112(2) 0.5876(2) 0.16271(18)
C12 C 0.7418(2) 0.5079(2) 0.0698(2)
H12 H 0.6726 0.5661 0.0567
C13 C 0.6808(2) 0.3473(2) 0.0001(2)
H13 H 0.5697 0.2966 -0.0616
H14 H 0.732(3) 0.143(3) -0.033(3)
O3 O 0.67599(14) 0.16629(14) 0.62942(14)
H15 H 0.6370 0.1398 0.5306
H16 H 0.6083 0.1051 0.6625
O4 O 0.25983(19) 0.10169(19) 0.83820(17)
H17 H 0.2927 0.0895 0.9261
H18 H 0.3145 0.0495 0.7846
loop_
_geom_bond_atom_site_label_1
_geom_bond_atom_site_label_2
_geom_bond_site_symmetry_1
_geom_bond_site_symmetry_2
O1 C8 1_555 1_555
O2 C8 1_555 1_555
C1 H1 1_555 1_555
H2 C1 1_555 1_555
H3 C1 1_555 1_555
C2 C1 1_555 1_555
C3 C2 1_555 1_555
H4 C3 1_555 1_555
C4 C3 1_555 1_555
H5 C4 1_555 1_555
C5 C4 1_555 1_555
C6 C5 1_555 1_555
H6 C6 1_555 1_555
C7 C2 1_555 1_555
H7 C7 1_555 1_555
C8 C5 1_555 1_555
N1 C9 1_555 1_555
N2 H8 1_555 1_555
H9 N2 1_555 1_555
C9 H10 1_555 1_555
C10 C9 1_555 1_555
H11 C10 1_555 1_555
C11 N2 1_555 1_555
C12 C11 1_555 1_555
H12 C12 1_555 1_555
C13 N1 1_555 1_555
H13 C13 1_555 1_555
H14 N1 1_555 1_555
O3 H15 1_555 1_555
H16 O3 1_555 1_555
O4 H17 1_555 1_555
H18 O4 1_555 1_555
C6 C7 1_555 1_555
C10 C11 1_555 1_555
C12 C13 1_555 1_555

#END
