
#######################################################################
#
#                 Cambridge Crystallographic Data Centre
#                                CCDC 
#
#######################################################################
#
# If this CIF has been generated from an entry in the Cambridge 
# Structural Database, then it will include bibliographic, chemical, 
# crystal, experimental, refinement or atomic coordinate data resulting 
# from the CCDC's data processing and validation procedures.
#
#######################################################################

data_SOLGUX
_chemical_formula_moiety         'C7 H11 N2 1+,C7 H5 O3 1-'
_chemical_name_systematic        '4-(dimethylamino)pyridinium 4-hydroxybenzoate'
_symmetry_cell_setting           triclinic
_symmetry_space_group_name_H-M   'P -1'
_symmetry_Int_Tables_number      2
_space_group_name_Hall           '-P 1'
loop_
_symmetry_equiv_pos_site_id
_symmetry_equiv_pos_as_xyz
1 x,y,z
2 -x,-y,-z
_cell_length_a                   7.9027(16)
_cell_length_b                   9.251(2)
_cell_length_c                   9.692(2)
_cell_angle_alpha                70.636(5)
_cell_angle_beta                 77.528(7)
_cell_angle_gamma                79.727(7)
_cell_volume                     648.308
_cell_formula_units_Z            2
loop_
_atom_site_label
_atom_site_type_symbol
_atom_site_fract_x
_atom_site_fract_y
_atom_site_fract_z
H1 H 1.420(4) 0.752(3) 0.094(3)
N1 N 0.7672(2) 0.75950(18) 0.31806(18)
C1 C 0.9388(2) 0.7575(2) 0.2637(2)
N2 N 1.2946(2) 0.7541(2) 0.14496(19)
C2 C 1.0508(2) 0.6180(2) 0.2722(2)
H2 H 1.0065 0.5238 0.3189
C3 C 1.0193(2) 0.8952(2) 0.1939(2)
H3 H 0.9534 0.9904 0.1873
C4 C 1.2236(3) 0.6215(2) 0.2121(2)
H4 H 1.2946 0.5287 0.2178
C5 C 1.1928(3) 0.8883(2) 0.1366(2)
H5 H 1.2424 0.9799 0.0899
C6 C 0.6851(3) 0.6171(2) 0.3758(3)
H6 H 0.7484 0.5425 0.4480
H7 H 0.6862 0.5772 0.2959
H8 H 0.5668 0.6377 0.4217
C7 C 0.6519(3) 0.9038(2) 0.2973(3)
H9 H 0.6451 0.9500 0.1939
H10 H 0.6970 0.9728 0.3319
H11 H 0.5376 0.8838 0.3525
H12 H -0.426(4) 0.267(4) 0.323(4)
O1 O -0.36109(19) 0.24884(18) 0.38731(18)
C8 C 0.0295(2) 0.3035(2) 0.1013(2)
H13 H 0.0599 0.3350 -0.0015
C9 C 0.1600(2) 0.2554(2) 0.1879(2)
O2 O 0.38241(17) 0.23930(19) -0.01344(18)
C10 C -0.1451(2) 0.3053(2) 0.1653(2)
H14 H -0.2310 0.3412 0.1059
O3 O 0.45802(19) 0.2710(2) 0.1814(2)
C11 C -0.0625(3) 0.2045(2) 0.4071(2)
H15 H -0.0928 0.1697 0.5098
C12 C -0.1915(2) 0.2531(2) 0.3190(2)
C13 C 0.1113(3) 0.2079(2) 0.3415(2)
H16 H 0.1970 0.1780 0.4011
C14 C 0.3479(2) 0.2553(2) 0.1145(2)
loop_
_geom_bond_atom_site_label_1
_geom_bond_atom_site_label_2
_geom_bond_site_symmetry_1
_geom_bond_site_symmetry_2
H1 N2 1_555 1_555
N1 C1 1_555 1_555
C1 C2 1_555 1_555
N2 C4 1_555 1_555
C2 H2 1_555 1_555
C3 C1 1_555 1_555
H3 C3 1_555 1_555
C4 C2 1_555 1_555
H4 C4 1_555 1_555
C5 N2 1_555 1_555
H5 C5 1_555 1_555
C6 N1 1_555 1_555
H6 C6 1_555 1_555
H7 C6 1_555 1_555
H8 C6 1_555 1_555
C7 N1 1_555 1_555
H9 C7 1_555 1_555
H10 C7 1_555 1_555
H11 C7 1_555 1_555
H12 O1 1_555 1_555
O1 C12 1_555 1_555
C8 H13 1_555 1_555
C9 C8 1_555 1_555
O2 C14 1_555 1_555
C10 C8 1_555 1_555
H14 C10 1_555 1_555
O3 C14 1_555 1_555
C11 H15 1_555 1_555
C12 C10 1_555 1_555
C13 C9 1_555 1_555
H16 C13 1_555 1_555
C14 C9 1_555 1_555
C3 C5 1_555 1_555
C11 C12 1_555 1_555
C11 C13 1_555 1_555

#END
