
#######################################################################
#
#                 Cambridge Crystallographic Data Centre
#                                CCDC 
#
#######################################################################
#
# If this CIF has been generated from an entry in the Cambridge 
# Structural Database, then it will include bibliographic, chemical, 
# crystal, experimental, refinement or atomic coordinate data resulting 
# from the CCDC's data processing and validation procedures.
#
#######################################################################

data_SOLHAE
_chemical_formula_moiety         'C7 H11 N2 1+,C8 H8 O3,C8 H7 O3 1-'
_chemical_name_systematic        
'4-hydroxybenzoate 4-methoxybenzoate 4-methoxybenzoic acid'
_symmetry_cell_setting           triclinic
_symmetry_space_group_name_H-M   'P -1'
_symmetry_Int_Tables_number      2
_space_group_name_Hall           '-P 1'
loop_
_symmetry_equiv_pos_site_id
_symmetry_equiv_pos_as_xyz
1 x,y,z
2 -x,-y,-z
_cell_length_a                   9.612(2)
_cell_length_b                   10.0841(2)
_cell_length_c                   12.239(3)
_cell_angle_alpha                72.85(4)
_cell_angle_beta                 84.64(6)
_cell_angle_gamma                71.17(5)
_cell_volume                     1072.89
_cell_formula_units_Z            2
loop_
_atom_site_label
_atom_site_type_symbol
_atom_site_fract_x
_atom_site_fract_y
_atom_site_fract_z
H1 H 0.179(4) 0.588(4) 0.413(3)
C1 C 0.2928(3) 0.6803(3) 0.4770(2)
H2 H 0.3837 0.6422 0.4458
C2 C 0.2808(3) 0.7721(3) 0.5416(2)
H3 H 0.3623 0.7972 0.5529
C3 C 0.1443(3) 0.8297(3) 0.5920(2)
C4 C 0.0266(3) 0.7868(3) 0.5685(2)
H4 H -0.0655 0.8213 0.5994
C5 C 0.0459(3) 0.6962(3) 0.5018(2)
H5 H -0.0337 0.6707 0.4870
C6 C 0.2519(4) 0.9668(4) 0.6758(3)
H6 H 0.3221 0.8877 0.7271
H7 H 0.2154 1.0474 0.7083
H8 H 0.2984 0.9969 0.6040
C7 C -0.0075(3) 0.9676(3) 0.7161(3)
H9 H -0.0840 1.0249 0.6608
H10 H 0.0036 1.0257 0.7623
H11 H -0.0327 0.8843 0.7640
N1 N 0.1776(3) 0.6424(3) 0.4565(2)
N2 N 0.1296(3) 0.9188(2) 0.65762(19)
H12 H 0.330(6) 0.283(6) 0.567(5)
C8 C 0.2556(3) 0.4545(3) 0.7728(2)
C9 C 0.3849(3) 0.4784(3) 0.7928(2)
H13 H 0.4709 0.4405 0.7556
C10 C 0.3867(3) 0.5577(3) 0.8674(2)
H14 H 0.4738 0.5718 0.8809
C11 C 0.2574(3) 0.6165(3) 0.9224(2)
C12 C 0.1287(3) 0.5944(3) 0.9028(2)
H15 H 0.0425 0.6333 0.9394
C13 C 0.1282(3) 0.5138(3) 0.8284(2)
H16 H 0.0411 0.4993 0.8155
C14 C 0.2476(3) 0.3730(3) 0.6913(2)
C15 C 0.1478(4) 0.7518(4) 1.0573(3)
H17 H 0.0696 0.8165 1.0054
H18 H 0.1730 0.8046 1.1020
H19 H 0.1164 0.6735 1.1071
O1 O 0.2732(2) 0.6934(2) 0.99392(18)
O2 O 0.3664(2) 0.3448(2) 0.62728(16)
O3 O 0.1402(2) 0.3365(3) 0.68377(19)
C16 C 0.3264(3) 0.2243(3) 0.2863(2)
C17 C 0.2836(3) 0.2954(3) 0.1723(2)
H20 H 0.2501 0.3969 0.1486
C18 C 0.2898(3) 0.2193(3) 0.0942(2)
H21 H 0.2625 0.2691 0.0185
C19 C 0.3375(3) 0.0662(3) 0.1298(2)
C20 C 0.3832(3) -0.0071(3) 0.2430(2)
H22 H 0.4173 -0.1086 0.2665
C21 C 0.3777(3) 0.0703(3) 0.3193(2)
H23 H 0.4084 0.0204 0.3943
C22 C 0.3142(3) 0.3081(3) 0.3700(2)
C23 C 0.3011(4) 0.0492(4) -0.0553(2)
H24 H 0.1987 0.1047 -0.0590
H25 H 0.3173 -0.0233 -0.0953
H26 H 0.3581 0.1132 -0.0902
O4 O 0.3444(2) -0.0209(2) 0.06169(17)
O5 O 0.2598(3) 0.4464(2) 0.33606(19)
O6 O 0.3588(2) 0.2345(2) 0.47144(17)
loop_
_geom_bond_atom_site_label_1
_geom_bond_atom_site_label_2
_geom_bond_site_symmetry_1
_geom_bond_site_symmetry_2
H1 N1 1_555 1_555
C1 H2 1_555 1_555
C2 C1 1_555 1_555
H3 C2 1_555 1_555
C3 C2 1_555 1_555
C4 C3 1_555 1_555
H4 C4 1_555 1_555
C5 C4 1_555 1_555
H5 C5 1_555 1_555
C6 H6 1_555 1_555
H7 C6 1_555 1_555
H8 C6 1_555 1_555
C7 H9 1_555 1_555
H10 C7 1_555 1_555
H11 C7 1_555 1_555
N1 C1 1_555 1_555
N2 C3 1_555 1_555
H12 O2 1_555 1_555
C8 C9 1_555 1_555
C9 H13 1_555 1_555
C10 C9 1_555 1_555
H14 C10 1_555 1_555
C11 C10 1_555 1_555
C12 C11 1_555 1_555
H15 C12 1_555 1_555
C13 C8 1_555 1_555
H16 C13 1_555 1_555
C14 C8 1_555 1_555
C15 H17 1_555 1_555
H18 C15 1_555 1_555
H19 C15 1_555 1_555
O1 C11 1_555 1_555
O2 C14 1_555 1_555
O3 C14 1_555 1_555
C16 C17 1_555 1_555
C17 H20 1_555 1_555
C18 C17 1_555 1_555
H21 C18 1_555 1_555
C19 C18 1_555 1_555
C20 C19 1_555 1_555
H22 C20 1_555 1_555
C21 C16 1_555 1_555
H23 C21 1_555 1_555
C22 C16 1_555 1_555
C23 H24 1_555 1_555
H25 C23 1_555 1_555
H26 C23 1_555 1_555
O4 C19 1_555 1_555
O5 C22 1_555 1_555
O6 C22 1_555 1_555
C5 N1 1_555 1_555
C6 N2 1_555 1_555
C7 N2 1_555 1_555
C12 C13 1_555 1_555
C15 O1 1_555 1_555
C20 C21 1_555 1_555
C23 O4 1_555 1_555

#END
