
#######################################################################
#
#                 Cambridge Crystallographic Data Centre
#                                CCDC 
#
#######################################################################
#
# If this CIF has been generated from an entry in the Cambridge 
# Structural Database, then it will include bibliographic, chemical, 
# crystal, experimental, refinement or atomic coordinate data resulting 
# from the CCDC's data processing and validation procedures.
#
#######################################################################

data_SOLJAG
_chemical_formula_moiety         'C12 H12 N2,2(C8 H8 O3)'
_chemical_name_systematic        
"4-methoxybenzoic acid 4,4'-ethane-1,2-diyldipyridine"
_symmetry_cell_setting           triclinic
_symmetry_space_group_name_H-M   'P -1'
_symmetry_Int_Tables_number      2
_space_group_name_Hall           '-P 1'
loop_
_symmetry_equiv_pos_site_id
_symmetry_equiv_pos_as_xyz
1 x,y,z
2 -x,-y,-z
_cell_length_a                   11.481(4)
_cell_length_b                   17.733(5)
_cell_length_c                   18.570(6)
_cell_angle_alpha                76.543(5)
_cell_angle_beta                 88.680(6)
_cell_angle_gamma                81.754(6)
_cell_volume                     3638.69
_cell_formula_units_Z            6
loop_
_atom_site_label
_atom_site_type_symbol
_atom_site_fract_x
_atom_site_fract_y
_atom_site_fract_z
N1 N 1.0484(2) 0.01972(14) 0.32634(13)
N2 N 0.3198(2) 0.19282(14) 0.50716(13)
C1 C 0.3240(3) 0.12953(17) 0.47982(16)
H1 H 0.2566 0.1057 0.4819
C2 C 0.4233(3) 0.09767(18) 0.44862(17)
H2 H 0.4222 0.0536 0.4298
C3 C 0.5253(3) 0.13196(18) 0.44556(18)
C4 C 0.5202(3) 0.19835(17) 0.47337(17)
H3 H 0.5858 0.2240 0.4716
C5 C 0.4170(3) 0.22586(16) 0.50362(16)
H4 H 0.4153 0.2701 0.5227
C6 C 0.6348(3) 0.0954(2) 0.4143(3)
H5 H 0.6573 0.0435 0.4456
H6 H 0.6150 0.0886 0.3659
C7 C 0.7356(3) 0.1349(2) 0.4061(2)
H7 H 0.7536 0.1448 0.4536
H8 H 0.7160 0.1854 0.3717
C8 C 0.8442(3) 0.09188(19) 0.37901(19)
C9 C 0.8429(3) 0.06264(18) 0.31620(17)
H9 H 0.7726 0.0667 0.2908
C10 C 0.9457(3) 0.02754(17) 0.29133(16)
H10 H 0.9434 0.0086 0.2488
C11 C 1.0494(3) 0.04620(18) 0.38825(17)
H11 H 1.1204 0.0399 0.4136
C12 C 0.9515(3) 0.08182(19) 0.41572(18)
H12 H 0.9561 0.0994 0.4589
N3 N 1.1814(2) 0.32612(14) -0.02262(14)
N4 N 0.4497(2) 0.50956(14) 0.14717(13)
C13 C 0.4541(3) 0.44910(18) 0.11529(17)
H13 H 0.3882 0.4236 0.1176
C14 C 0.5517(3) 0.42310(18) 0.07939(17)
H14 H 0.5508 0.3813 0.0572
C15 C 0.5465(3) 0.54371(17) 0.14568(17)
H15 H 0.5457 0.5847 0.1691
C16 C 0.6469(3) 0.52014(18) 0.11060(17)
H16 H 0.7124 0.5456 0.1101
C17 C 0.6512(3) 0.45881(19) 0.07615(18)
C18 C 0.7570(3) 0.4332(2) 0.0340(2)
H17 H 0.7431 0.3875 0.0168
H18 H 0.7661 0.4747 -0.0092
C19 C 0.8671(3) 0.4138(2) 0.07760(19)
H19 H 0.8556 0.3740 0.1218
H20 H 0.8809 0.4602 0.0935
C20 C 0.9758(3) 0.38517(18) 0.04019(16)
C21 C 0.9742(3) 0.36468(18) -0.02745(16)
H21 H 0.9035 0.3707 -0.0531
C22 C 1.0776(3) 0.33535(18) -0.05644(16)
H22 H 1.0749 0.3214 -0.1016
C23 C 1.1834(3) 0.34668(17) 0.04213(17)
H23 H 1.2556 0.3411 0.0660
C24 C 1.0844(3) 0.37564(18) 0.07513(18)
H24 H 1.0899 0.3888 0.1205
N5 N 0.6153(2) 0.15460(15) 0.16657(13)
N6 N -0.1117(2) 0.32356(14) 0.35423(14)
C25 C -0.1151(3) 0.29569(18) 0.29280(17)
H25 H -0.1869 0.3018 0.2685
C26 C -0.0168(3) 0.25848(18) 0.26414(17)
H26 H -0.0230 0.2396 0.2218
C27 C -0.0071(2) 0.31579(17) 0.38711(16)
H27 H -0.0027 0.3355 0.4291
C28 C 0.0951(3) 0.27980(17) 0.36150(16)
H28 H 0.1664 0.2758 0.3859
C29 C 0.0905(3) 0.24975(17) 0.29935(17)
C30 C 0.1982(3) 0.20786(19) 0.27043(18)
H29 H 0.2180 0.1564 0.3030
H30 H 0.1802 0.2006 0.2219
C31 C 0.3031(3) 0.25043(19) 0.26445(19)
H31 H 0.3238 0.2542 0.3137
H32 H 0.2804 0.3034 0.2354
C32 C 0.4114(3) 0.21469(17) 0.23041(16)
C33 C 0.4160(3) 0.14841(17) 0.20281(17)
H33 H 0.3506 0.1225 0.2055
C34 C 0.5187(3) 0.12110(17) 0.17127(18)
H34 H 0.5201 0.0768 0.1523
C35 C 0.5118(3) 0.24999(18) 0.22418(17)
H35 H 0.5126 0.2951 0.2415
C36 C 0.6108(3) 0.21859(19) 0.19230(17)
H36 H 0.6775 0.2434 0.1887
O1 O 0.71962(16) 0.62514(11) 0.28823(11)
O2 O 1.24904(18) 0.56664(12) 0.19228(12)
O3 O 1.19813(17) 0.44880(11) 0.19743(11)
C37 C 1.0559(2) 0.54669(16) 0.22792(15)
C38 C 0.9676(2) 0.49889(16) 0.24059(15)
H37 H 0.9844 0.4474 0.2360
C39 C 0.8564(2) 0.52672(16) 0.25982(15)
H38 H 0.7979 0.4945 0.2678
C40 C 0.8317(2) 0.60390(16) 0.26737(14)
C41 C 0.9188(2) 0.65153(16) 0.25676(15)
H39 H 0.9028 0.7026 0.2627
C42 C 1.0304(2) 0.62211(16) 0.23721(15)
H40 H 1.0894 0.6540 0.2302
C43 C 1.1739(2) 0.51524(17) 0.20463(15)
C44 C 0.6894(3) 0.70451(16) 0.29446(18)
H41 H 0.7409 0.7149 0.3298
H42 H 0.6095 0.7125 0.3106
H43 H 0.6976 0.7393 0.2471
H44 H 1.333(4) 0.537(2) 0.176(2)
O4 O 0.09144(16) 0.81277(11) 0.15593(10)
O5 O 0.54351(18) 0.71856(13) -0.02183(11)
O6 O 0.62571(18) 0.72417(12) 0.08451(11)
C45 C 0.5341(2) 0.72905(16) 0.04060(16)
C46 C 0.4192(2) 0.74744(15) 0.07521(15)
C47 C 0.3165(2) 0.75687(15) 0.03320(16)
H45 H 0.3212 0.7495 -0.0148
C48 C 0.2091(2) 0.77692(16) 0.06224(15)
H46 H 0.1409 0.7821 0.0344
C49 C 0.2020(2) 0.78951(15) 0.13333(15)
C50 C 0.3030(2) 0.77875(15) 0.17705(15)
H47 H 0.2981 0.7858 0.2252
C51 C 0.4102(2) 0.75737(16) 0.14715(15)
H48 H 0.4781 0.7494 0.1759
C52 C 0.0825(2) 0.83262(17) 0.22706(15)
H49 H 0.1099 0.7871 0.2651
H50 H 0.0018 0.8510 0.2360
H51 H 0.1296 0.8730 0.2275
H52 H 0.703(3) 0.702(2) 0.0616(19)
O7 O 0.15541(16) 0.46411(12) 0.47543(11)
O8 O 0.69164(18) 0.37404(13) 0.41067(11)
O9 O 0.61477(18) 0.37467(13) 0.30112(12)
C53 C 0.4862(2) 0.40373(16) 0.39669(15)
C54 C 0.4766(2) 0.41445(15) 0.46755(15)
H53 H 0.5442 0.4083 0.4962
C55 C 0.3664(2) 0.43456(16) 0.49737(15)
H54 H 0.3600 0.4422 0.5453
C56 C 0.2668(2) 0.44281(16) 0.45334(16)
C57 C 0.2763(2) 0.43056(16) 0.38216(16)
H55 H 0.2089 0.4349 0.3539
C58 C 0.3855(2) 0.41201(16) 0.35332(16)
H56 H 0.3920 0.4050 0.3052
C59 C 0.6026(3) 0.38317(17) 0.36433(17)
C60 C 0.1424(3) 0.4764(2) 0.54856(16)
H57 H 0.1718 0.4290 0.5837
H58 H 0.0606 0.4913 0.5577
H59 H 0.1859 0.5174 0.5534
H60 H 0.774(4) 0.348(3) 0.383(2)
O10 O 0.21905(16) 0.12329(11) 0.79273(10)
O11 O 0.67764(17) 0.03236(12) 0.61936(11)
O12 O 0.75448(18) 0.02418(12) 0.73147(11)
C61 C 0.5506(2) 0.06125(15) 0.71463(15)
C62 C 0.4503(2) 0.07433(16) 0.67018(15)
H61 H 0.4576 0.0696 0.6214
C63 C 0.3400(2) 0.09419(16) 0.69752(15)
H62 H 0.2733 0.1023 0.6677
C64 C 0.3301(2) 0.10204(15) 0.77137(15)
C65 C 0.4292(2) 0.08995(16) 0.81573(16)
H63 H 0.4226 0.0953 0.8644
C66 C 0.5384(2) 0.06977(15) 0.78683(15)
H64 H 0.6052 0.0618 0.8166
C67 C 0.6665(2) 0.03810(15) 0.68362(16)
C68 C 0.2045(3) 0.12847(18) 0.86840(15)
H65 H 0.2286 0.0779 0.9004
H66 H 0.1233 0.1456 0.8769
H67 H 0.2519 0.1653 0.8785
H68 H 0.830(5) 0.007(3) 0.706(3)
O13 O 0.40772(16) 0.67884(10) 0.35418(10)
O14 O -0.06402(17) 0.86005(12) 0.44797(12)
O15 O -0.12326(18) 0.74732(12) 0.44144(11)
C69 C 0.2971(2) 0.70094(16) 0.37691(14)
C70 C 0.2071(2) 0.65497(16) 0.38552(15)
H69 H 0.2202 0.6049 0.3769
C71 C 0.0969(2) 0.68550(16) 0.40739(14)
H70 H 0.0364 0.6549 0.4143
C72 C 0.0759(2) 0.76007(16) 0.41894(14)
C73 C 0.1676(2) 0.80503(16) 0.41052(14)
H71 H 0.1544 0.8554 0.4186
C74 C 0.2772(2) 0.77541(16) 0.39040(15)
H72 H 0.3384 0.8053 0.3858
C75 C -0.0429(3) 0.79441(17) 0.43728(15)
C76 C 0.4267(3) 0.60588(16) 0.33259(16)
H73 H 0.4156 0.5642 0.3745
H74 H 0.5056 0.5973 0.3148
H75 H 0.3718 0.6070 0.2940
H76 H -0.199(3) 0.7713(19) 0.4569(18)
O16 O -0.12849(17) 0.20607(12) 0.12303(11)
O17 O -0.18631(18) 0.09170(12) 0.12235(11)
O18 O 0.34452(16) 0.02602(11) 0.03048(11)
C77 C 0.2332(2) 0.04859(16) 0.05250(15)
C78 C 0.1458(2) 0.00093(16) 0.06416(15)
H77 H 0.1612 -0.0503 0.0585
C79 C 0.0348(2) 0.03091(16) 0.08439(15)
H78 H -0.0247 -0.0005 0.0917
C80 C 0.0112(2) 0.10598(16) 0.09375(14)
C81 C 0.1001(2) 0.15300(17) 0.08172(15)
H79 H 0.0846 0.2042 0.0875
C82 C 0.2105(3) 0.12482(16) 0.06142(16)
H80 H 0.2696 0.1565 0.0537
C83 C -0.1075(3) 0.13998(17) 0.11429(15)
C84 C 0.3676(2) -0.05020(16) 0.01554(16)
H81 H 0.3572 -0.0890 0.0599
H82 H 0.4470 -0.0590 -0.0012
H83 H 0.3141 -0.0538 -0.0221
H84 H -0.264(4) 0.116(2) 0.131(2)
loop_
_geom_bond_atom_site_label_1
_geom_bond_atom_site_label_2
_geom_bond_site_symmetry_1
_geom_bond_site_symmetry_2
N1 C10 1_555 1_555
N2 C1 1_555 1_555
C1 H1 1_555 1_555
C2 C1 1_555 1_555
H2 C2 1_555 1_555
C3 C2 1_555 1_555
C4 C3 1_555 1_555
H3 C4 1_555 1_555
C5 N2 1_555 1_555
H4 C5 1_555 1_555
C6 C3 1_555 1_555
H5 C6 1_555 1_555
H6 C6 1_555 1_555
C7 C6 1_555 1_555
H7 C7 1_555 1_555
H8 C7 1_555 1_555
C8 C7 1_555 1_555
C9 C8 1_555 1_555
H9 C9 1_555 1_555
C10 C9 1_555 1_555
H10 C10 1_555 1_555
C11 N1 1_555 1_555
H11 C11 1_555 1_555
C12 C8 1_555 1_555
H12 C12 1_555 1_555
N3 C22 1_555 1_555
N4 C13 1_555 1_555
C13 H13 1_555 1_555
C14 C13 1_555 1_555
H14 C14 1_555 1_555
C15 N4 1_555 1_555
H15 C15 1_555 1_555
C16 C15 1_555 1_555
H16 C16 1_555 1_555
C17 C14 1_555 1_555
C18 C17 1_555 1_555
H17 C18 1_555 1_555
H18 C18 1_555 1_555
C19 C18 1_555 1_555
H19 C19 1_555 1_555
H20 C19 1_555 1_555
C20 C19 1_555 1_555
C21 C20 1_555 1_555
H21 C21 1_555 1_555
C22 C21 1_555 1_555
H22 C22 1_555 1_555
C23 N3 1_555 1_555
H23 C23 1_555 1_555
C24 C20 1_555 1_555
H24 C24 1_555 1_555
N5 C34 1_555 1_555
N6 C25 1_555 1_555
C25 H25 1_555 1_555
C26 C25 1_555 1_555
H26 C26 1_555 1_555
C27 N6 1_555 1_555
H27 C27 1_555 1_555
C28 C27 1_555 1_555
H28 C28 1_555 1_555
C29 C26 1_555 1_555
C30 C29 1_555 1_555
H29 C30 1_555 1_555
H30 C30 1_555 1_555
C31 C30 1_555 1_555
H31 C31 1_555 1_555
H32 C31 1_555 1_555
C32 C31 1_555 1_555
C33 C32 1_555 1_555
H33 C33 1_555 1_555
C34 C33 1_555 1_555
H34 C34 1_555 1_555
C35 C32 1_555 1_555
H35 C35 1_555 1_555
C36 N5 1_555 1_555
H36 C36 1_555 1_555
O1 C40 1_555 1_555
O2 C43 1_555 1_555
O3 C43 1_555 1_555
C37 C38 1_555 1_555
C38 H37 1_555 1_555
C39 C38 1_555 1_555
H38 C39 1_555 1_555
C40 C39 1_555 1_555
C41 C40 1_555 1_555
H39 C41 1_555 1_555
C42 C37 1_555 1_555
H40 C42 1_555 1_555
C43 C37 1_555 1_555
C44 O1 1_555 1_555
H41 C44 1_555 1_555
H42 C44 1_555 1_555
H43 C44 1_555 1_555
H44 O2 1_555 1_555
O4 C49 1_555 1_555
O5 C45 1_555 1_555
O6 C45 1_555 1_555
C45 C46 1_555 1_555
C46 C47 1_555 1_555
C47 H45 1_555 1_555
C48 C47 1_555 1_555
H46 C48 1_555 1_555
C49 C48 1_555 1_555
C50 C49 1_555 1_555
H47 C50 1_555 1_555
C51 C46 1_555 1_555
H48 C51 1_555 1_555
C52 O4 1_555 1_555
H49 C52 1_555 1_555
H50 C52 1_555 1_555
H51 C52 1_555 1_555
H52 O6 1_555 1_555
O7 C56 1_555 1_555
O8 C59 1_555 1_555
O9 C59 1_555 1_555
C53 C54 1_555 1_555
C54 H53 1_555 1_555
C55 C54 1_555 1_555
H54 C55 1_555 1_555
C56 C55 1_555 1_555
C57 C56 1_555 1_555
H55 C57 1_555 1_555
C58 C53 1_555 1_555
H56 C58 1_555 1_555
C59 C53 1_555 1_555
C60 O7 1_555 1_555
H57 C60 1_555 1_555
H58 C60 1_555 1_555
H59 C60 1_555 1_555
H60 O8 1_555 1_555
O10 C64 1_555 1_555
O11 C67 1_555 1_555
O12 C67 1_555 1_555
C61 C62 1_555 1_555
C62 H61 1_555 1_555
C63 C62 1_555 1_555
H62 C63 1_555 1_555
C64 C63 1_555 1_555
C65 C64 1_555 1_555
H63 C65 1_555 1_555
C66 C61 1_555 1_555
H64 C66 1_555 1_555
C67 C61 1_555 1_555
C68 O10 1_555 1_555
H65 C68 1_555 1_555
H66 C68 1_555 1_555
H67 C68 1_555 1_555
H68 O12 1_555 1_555
O13 C69 1_555 1_555
O14 C75 1_555 1_555
O15 C75 1_555 1_555
C69 C70 1_555 1_555
C70 H69 1_555 1_555
C71 C70 1_555 1_555
H70 C71 1_555 1_555
C72 C71 1_555 1_555
C73 C72 1_555 1_555
H71 C73 1_555 1_555
C74 C69 1_555 1_555
H72 C74 1_555 1_555
C75 C72 1_555 1_555
C76 O13 1_555 1_555
H73 C76 1_555 1_555
H74 C76 1_555 1_555
H75 C76 1_555 1_555
H76 O15 1_555 1_555
O16 C83 1_555 1_555
O17 C83 1_555 1_555
O18 C77 1_555 1_555
C77 C78 1_555 1_555
C78 H77 1_555 1_555
C79 C78 1_555 1_555
H78 C79 1_555 1_555
C80 C79 1_555 1_555
C81 C80 1_555 1_555
H79 C81 1_555 1_555
C82 C77 1_555 1_555
H80 C82 1_555 1_555
C83 C80 1_555 1_555
C84 O18 1_555 1_555
H81 C84 1_555 1_555
H82 C84 1_555 1_555
H83 C84 1_555 1_555
H84 O17 1_555 1_555
C4 C5 1_555 1_555
C11 C12 1_555 1_555
C16 C17 1_555 1_555
C23 C24 1_555 1_555
C28 C29 1_555 1_555
C35 C36 1_555 1_555
C41 C42 1_555 1_555
C50 C51 1_555 1_555
C57 C58 1_555 1_555
C65 C66 1_555 1_555
C73 C74 1_555 1_555
C81 C82 1_555 1_555

#END
