
#######################################################################
#
#                 Cambridge Crystallographic Data Centre
#                                CCDC 
#
#######################################################################
#
# If this CIF has been generated from an entry in the Cambridge 
# Structural Database, then it will include bibliographic, chemical, 
# crystal, experimental, refinement or atomic coordinate data resulting 
# from the CCDC's data processing and validation procedures.
#
#######################################################################

data_SOLJEK
_chemical_formula_moiety         'C10 H14 N4,0.5(C8 H14 O4)'
_chemical_name_systematic        
"3,3',5,5'-tetramethyl-1H,1'H-4,4'-bipyrazole hemikis(octanedioic acid)"
_symmetry_cell_setting           orthorhombic
_symmetry_space_group_name_H-M   'P b c n'
_symmetry_Int_Tables_number      60
_space_group_name_Hall           '-P 2n 2ab'
loop_
_symmetry_equiv_pos_site_id
_symmetry_equiv_pos_as_xyz
1 x,y,z
2 1/2-x,1/2-y,1/2+z
3 -x,y,1/2-z
4 1/2+x,1/2-y,-z
5 -x,-y,-z
6 1/2+x,1/2+y,1/2-z
7 x,-y,1/2+z
8 1/2-x,1/2+y,z
_cell_length_a                   22.389(3)
_cell_length_b                   8.2386(11)
_cell_length_c                   16.762(14)
_cell_angle_alpha                90
_cell_angle_beta                 90
_cell_angle_gamma                90
_cell_volume                     3091.82
_exptl_crystal_colour            colorless
_exptl_crystal_description       block
_cell_formula_units_Z            8
loop_
_atom_site_label
_atom_site_type_symbol
_atom_site_fract_x
_atom_site_fract_y
_atom_site_fract_z
C1 C 0.57439(19) 1.2211(5) 0.7025(2)
H1 H 0.5417 1.1510 0.6888
H2 H 0.5939 1.2571 0.6546
H3 H 0.5596 1.3134 0.7313
C2 C 0.61749(15) 1.1317(4) 0.75269(19)
C3 C 0.65392(14) 1.0049(3) 0.73265(17)
C4 C 0.68430(16) 0.9671(4) 0.80158(18)
C5 C 0.7296(2) 0.8431(5) 0.8175(2)
H4 H 0.7561 0.8350 0.7726
H5 H 0.7105 0.7404 0.8262
H6 H 0.7520 0.8727 0.8641
C6 C 0.7049(2) 1.1602(4) 0.5715(2)
H7 H 0.6741 1.2362 0.5576
H8 H 0.7334 1.1535 0.5289
H9 H 0.7246 1.1958 0.6193
C7 C 0.67808(14) 0.9988(4) 0.58511(17)
C8 C 0.65815(14) 0.9296(4) 0.65443(17)
C9 C 0.63799(16) 0.7798(4) 0.63224(19)
C10 C 0.6117(2) 0.6494(5) 0.6825(2)
H10 H 0.6431 0.5869 0.7064
H11 H 0.5873 0.5800 0.6500
H12 H 0.5876 0.6973 0.7237
N1 N 0.62477(13) 1.1676(3) 0.82829(16)
N2 N 0.66555(14) 1.0663(4) 0.85824(16)
H13 H 0.6777 1.0657 0.9069
N3 N 0.64557(13) 0.7622(3) 0.55542(15)
H14 H 0.6361 0.6773 0.5284
N4 N 0.67015(12) 0.8962(3) 0.52560(15)
C11 C 0.4176(2) 0.5442(5) 0.5758(3)
C12 C 0.4425(3) 0.7064(5) 0.5899(3)
H15 H 0.4123 0.7716 0.6162
H16 H 0.4758 0.6959 0.6266
C13 C 0.46311(18) 0.7943(4) 0.5193(2)
H17 H 0.4294 0.8091 0.4836
H18 H 0.4922 0.7274 0.4917
C14 C 0.49021(17) 0.9543(4) 0.5348(2)
H19 H 0.4614 1.0198 0.5637
H20 H 0.5244 0.9387 0.5695
O1 O 0.38983(18) 0.5154(4) 0.5159(2)
O2 O 0.42725(19) 0.4442(4) 0.6286(2)
H21 H 0.4121 0.3571 0.6163
C11D C 0.5824(2) 1.4558(5) 0.4242(3)
C12D C 0.5575(3) 1.2936(5) 0.4101(3)
H15D H 0.5877 1.2284 0.3838
H16D H 0.5242 1.3041 0.3734
C13D C 0.53689(18) 1.2057(4) 0.4807(2)
H17D H 0.5706 1.1909 0.5164
H18D H 0.5078 1.2726 0.5083
C14D C 0.50979(17) 1.0457(4) 0.4652(2)
H19D H 0.5386 0.9802 0.4363
H20D H 0.4756 1.0613 0.4305
O1D O 0.61017(18) 1.4846(4) 0.4841(2)
O2D O 0.57275(19) 1.5558(4) 0.3714(2)
H21D H 0.5879 1.6429 0.3837
loop_
_geom_bond_atom_site_label_1
_geom_bond_atom_site_label_2
_geom_bond_site_symmetry_1
_geom_bond_site_symmetry_2
C1 H1 1_555 1_555
H2 C1 1_555 1_555
H3 C1 1_555 1_555
C2 C1 1_555 1_555
C3 C2 1_555 1_555
C4 C3 1_555 1_555
C5 C4 1_555 1_555
H4 C5 1_555 1_555
H5 C5 1_555 1_555
H6 C5 1_555 1_555
C6 H7 1_555 1_555
H8 C6 1_555 1_555
H9 C6 1_555 1_555
C7 C6 1_555 1_555
C8 C3 1_555 1_555
C9 C8 1_555 1_555
C10 C9 1_555 1_555
H10 C10 1_555 1_555
H11 C10 1_555 1_555
H12 C10 1_555 1_555
N1 C2 1_555 1_555
N2 C4 1_555 1_555
H13 N2 1_555 1_555
N3 C9 1_555 1_555
H14 N3 1_555 1_555
N4 C7 1_555 1_555
C11 C12 1_555 1_555
C12 H15 1_555 1_555
H16 C12 1_555 1_555
C13 C12 1_555 1_555
H17 C13 1_555 1_555
H18 C13 1_555 1_555
C14 C13 1_555 1_555
H19 C14 1_555 1_555
H20 C14 1_555 1_555
O1 C11 1_555 1_555
O2 C11 1_555 1_555
H21 O2 1_555 1_555
C11D C12D 1_555 1_555
C12D H15D 1_555 1_555
H16D C12D 1_555 1_555
C13D C12D 1_555 1_555
H17D C13D 1_555 1_555
H18D C13D 1_555 1_555
C14D C14 1_555 1_555
H19D C14D 1_555 1_555
H20D C14D 1_555 1_555
O1D C11D 1_555 1_555
O2D C11D 1_555 1_555
H21D O2D 1_555 1_555
C7 C8 1_555 1_555
N1 N2 1_555 1_555
N3 N4 1_555 1_555
C13D C14D 1_555 1_555

#END
