
#######################################################################
#
#                 Cambridge Crystallographic Data Centre
#                                CCDC 
#
#######################################################################
#
# If this CIF has been generated from an entry in the Cambridge 
# Structural Database, then it will include bibliographic, chemical, 
# crystal, experimental, refinement or atomic coordinate data resulting 
# from the CCDC's data processing and validation procedures.
#
#######################################################################

data_SOLLEL
_chemical_formula_moiety         'C13 H18 O4'
_chemical_name_systematic        'Methyl 4-butoxy-3-methoxybenzoate'
_symmetry_cell_setting           triclinic
_symmetry_space_group_name_H-M   'P -1'
_symmetry_Int_Tables_number      2
_space_group_name_Hall           '-P 1'
loop_
_symmetry_equiv_pos_site_id
_symmetry_equiv_pos_as_xyz
1 x,y,z
2 -x,-y,-z
_cell_length_a                   7.9660(16)
_cell_length_b                   9.1630(18)
_cell_length_c                   10.143(2)
_cell_angle_alpha                64.80(2)
_cell_angle_beta                 70.96(3)
_cell_angle_gamma                79.26(3)
_cell_volume                     632.275
_exptl_crystal_colour            colorless
_exptl_crystal_description       block
_chemical_melting_point          '317 K'
_cell_formula_units_Z            2
_exptl_crystal_recrystallization_method 'ethyl acetate'
loop_
_atom_site_label
_atom_site_type_symbol
_atom_site_fract_x
_atom_site_fract_y
_atom_site_fract_z
O1 O 0.3147(2) 0.6241(2) 0.05115(19)
O2 O 0.0656(2) 0.4271(2) 0.15700(19)
O3 O 0.0117(3) 0.1304(3) 0.7289(2)
O4 O 0.1887(2) 0.2708(2) 0.75552(19)
C1 C 0.6296(5) 1.0667(4) -0.4050(3)
H1 H 0.7158 1.1438 -0.4358
H2 H 0.5201 1.1226 -0.4245
H3 H 0.6732 0.9990 -0.4612
C2 C 0.5977(4) 0.9645(4) -0.2387(3)
H4 H 0.5569 1.0348 -0.1838
H5 H 0.7101 0.9117 -0.2204
C3 C 0.4645(3) 0.8369(3) -0.1746(3)
H6 H 0.3493 0.8884 -0.1865
H7 H 0.5016 0.7675 -0.2305
C4 C 0.4487(4) 0.7377(3) -0.0111(3)
H8 H 0.5619 0.6806 0.0002
H9 H 0.4189 0.8078 0.0438
C5 C 0.2767(3) 0.5331(3) 0.2032(3)
C6 C 0.3595(3) 0.5399(3) 0.3000(3)
H10 H 0.4504 0.6098 0.2622
C7 C 0.3085(3) 0.4438(3) 0.4524(3)
H11 H 0.3639 0.4505 0.5172
C8 C 0.1752(3) 0.3373(3) 0.5099(3)
C9 C 0.0934(3) 0.3285(3) 0.4133(3)
H12 H 0.0051 0.2559 0.4516
C10 C 0.1400(3) 0.4256(3) 0.2606(3)
C11 C -0.0929(4) 0.3439(4) 0.2120(3)
H13 H -0.1314 0.3542 0.1278
H14 H -0.1841 0.3895 0.2749
H15 H -0.0703 0.2317 0.2702
C12 C 0.1161(3) 0.2332(3) 0.6753(3)
C13 C 0.1295(4) 0.1866(4) 0.9164(3)
H16 H 0.1890 0.2239 0.9638
H17 H 0.1562 0.0729 0.9425
H18 H 0.0034 0.2066 0.9511
loop_
_geom_bond_atom_site_label_1
_geom_bond_atom_site_label_2
_geom_bond_site_symmetry_1
_geom_bond_site_symmetry_2
O1 C4 1_555 1_555
O2 C10 1_555 1_555
O3 C12 1_555 1_555
O4 C12 1_555 1_555
C1 H1 1_555 1_555
H2 C1 1_555 1_555
H3 C1 1_555 1_555
C2 C1 1_555 1_555
H4 C2 1_555 1_555
H5 C2 1_555 1_555
C3 C2 1_555 1_555
H6 C3 1_555 1_555
H7 C3 1_555 1_555
C4 C3 1_555 1_555
H8 C4 1_555 1_555
H9 C4 1_555 1_555
C5 O1 1_555 1_555
C6 C5 1_555 1_555
H10 C6 1_555 1_555
C7 C6 1_555 1_555
H11 C7 1_555 1_555
C8 C7 1_555 1_555
C9 C8 1_555 1_555
H12 C9 1_555 1_555
C10 C5 1_555 1_555
C11 O2 1_555 1_555
H13 C11 1_555 1_555
H14 C11 1_555 1_555
H15 C11 1_555 1_555
C12 C8 1_555 1_555
C13 O4 1_555 1_555
H16 C13 1_555 1_555
H17 C13 1_555 1_555
H18 C13 1_555 1_555
C9 C10 1_555 1_555

#END
