
#######################################################################
#
#                 Cambridge Crystallographic Data Centre
#                                CCDC 
#
#######################################################################
#
# If this CIF has been generated from an entry in the Cambridge 
# Structural Database, then it will include bibliographic, chemical, 
# crystal, experimental, refinement or atomic coordinate data resulting 
# from the CCDC's data processing and validation procedures.
#
#######################################################################

data_SOLMUC
_chemical_formula_moiety         'C16 H24 N4 O9 S2,H2 O1'
_chemical_name_systematic        
'1-(2,3,4,6-Tetra-O-acetyl-\b-D-glucopyranosyl)-3-thioureidothiourea monohydrate'
_symmetry_cell_setting           monoclinic
_symmetry_space_group_name_H-M   'C 2'
_symmetry_Int_Tables_number      5
_space_group_name_Hall           'C 2y'
loop_
_symmetry_equiv_pos_site_id
_symmetry_equiv_pos_as_xyz
1 x,y,z
2 -x,y,-z
3 1/2+x,1/2+y,z
4 1/2-x,1/2+y,-z
_cell_length_a                   22.286(2)
_cell_length_b                   7.2005(7)
_cell_length_c                   15.8772(17)
_cell_angle_alpha                90
_cell_angle_beta                 110.119(2)
_cell_angle_gamma                90
_cell_volume                     2392.35
_exptl_crystal_colour            colorless
_exptl_crystal_description       block
_cell_formula_units_Z            4
_exptl_crystal_recrystallization_method 'ethyl acetate/acetonitrile'
loop_
_atom_site_label
_atom_site_type_symbol
_atom_site_fract_x
_atom_site_fract_y
_atom_site_fract_z
O1 O 0.04566(19) 0.2431(4) 0.3623(3)
H1 H 0.0696 0.2068 0.3324
H2 H 0.0081 0.1989 0.3326
S1 S 1.01347(2) 0.93435(9) 0.17557(4)
S2 S 1.09337(3) 0.55270(10) 0.56718(4)
O2 O 0.87018(5) 0.96965(19) 0.28335(8)
O3 O 0.79214(6) 1.1141(2) 0.37750(8)
O4 O 0.69454(7) 1.2284(3) 0.35021(12)
O5 O 0.69665(5) 0.9278(2) 0.18081(8)
O6 O 0.67103(7) 0.7889(3) 0.29010(12)
O7 O 0.73826(6) 0.57855(19) 0.14484(8)
O8 O 0.71022(8) 0.5906(3) -0.00504(10)
O9 O 0.86479(6) 0.59442(19) 0.12679(8)
O10 O 0.91309(9) 0.3602(3) 0.21595(12)
N1 N 0.95483(7) 0.7895(2) 0.28196(10)
H3 H 0.9581 0.7245 0.3288
N2 N 1.06246(7) 0.7630(3) 0.32887(10)
H4 H 1.0986 0.7962 0.3256
N3 N 1.06226(7) 0.6481(3) 0.39865(11)
H5 H 1.0509 0.5341 0.3875
N4 N 1.08515(9) 0.8907(3) 0.49757(13)
H6 H 1.0779 0.9648 0.4527
H7 H 1.0961 0.9346 0.5511
C1 C 0.89170(8) 0.8502(3) 0.22782(12)
H8 H 0.8939 0.9198 0.1759
C2 C 0.84785(8) 0.6836(3) 0.19586(12)
H9 H 0.8538 0.5973 0.2458
C3 C 0.77756(8) 0.7408(3) 0.15615(12)
H10 H 0.7693 0.8027 0.0983
C4 C 0.76210(8) 0.8694(3) 0.22039(12)
H11 H 0.7681 0.8045 0.2769
C5 C 0.80664(9) 1.0374(3) 0.23772(13)
H12 H 0.8047 1.0900 0.1799
C6 C 0.79265(9) 1.1886(3) 0.29361(14)
H13 H 0.8249 1.2848 0.3050
H14 H 0.7515 1.2440 0.2613
C7 C 0.74009(10) 1.1453(3) 0.39769(15)
C8 C 0.74643(17) 1.0652(5) 0.4878(2)
H15 H 0.7080 1.0889 0.5005
H16 H 0.7820 1.1219 0.5331
H17 H 0.7533 0.9337 0.4873
C9 C 0.65533(9) 0.8750(3) 0.22132(15)
C10 C 0.58864(9) 0.9374(5) 0.16888(17)
H18 H 0.5600 0.8955 0.1983
H19 H 0.5758 0.8859 0.1095
H20 H 0.5875 1.0705 0.1652
C11 C 0.70501(9) 0.5238(3) 0.06077(14)
C12 C 0.66163(11) 0.3659(4) 0.06142(17)
H21 H 0.6390 0.3272 0.0009
H22 H 0.6316 0.4051 0.0891
H23 H 0.6864 0.2640 0.0947
C13 C 0.89850(9) 0.4364(3) 0.14495(13)
C14 C 0.91502(10) 0.3742(4) 0.06729(15)
H24 H 0.9387 0.2602 0.0819
H25 H 0.9405 0.4673 0.0524
H26 H 0.8766 0.3543 0.0170
C15 C 1.00861(8) 0.8252(3) 0.26587(12)
C16 C 1.07960(9) 0.7110(3) 0.48437(13)
loop_
_geom_bond_atom_site_label_1
_geom_bond_atom_site_label_2
_geom_bond_site_symmetry_1
_geom_bond_site_symmetry_2
O1 H1 1_555 1_555
H2 O1 1_555 1_555
S1 C15 1_555 1_555
S2 C16 1_555 1_555
O2 C1 1_555 1_555
O3 C6 1_555 1_555
O4 C7 1_555 1_555
O5 C4 1_555 1_555
O6 C9 1_555 1_555
O7 C3 1_555 1_555
O8 C11 1_555 1_555
O9 C2 1_555 1_555
O10 C13 1_555 1_555
N1 H3 1_555 1_555
N2 H4 1_555 1_555
N3 N2 1_555 1_555
H5 N3 1_555 1_555
N4 H6 1_555 1_555
H7 N4 1_555 1_555
C1 N1 1_555 1_555
H8 C1 1_555 1_555
C2 C1 1_555 1_555
H9 C2 1_555 1_555
C3 C2 1_555 1_555
H10 C3 1_555 1_555
C4 C3 1_555 1_555
H11 C4 1_555 1_555
C5 O2 1_555 1_555
H12 C5 1_555 1_555
C6 C5 1_555 1_555
H13 C6 1_555 1_555
H14 C6 1_555 1_555
C7 O3 1_555 1_555
C8 C7 1_555 1_555
H15 C8 1_555 1_555
H16 C8 1_555 1_555
H17 C8 1_555 1_555
C9 O5 1_555 1_555
C10 C9 1_555 1_555
H18 C10 1_555 1_555
H19 C10 1_555 1_555
H20 C10 1_555 1_555
C11 O7 1_555 1_555
C12 C11 1_555 1_555
H21 C12 1_555 1_555
H22 C12 1_555 1_555
H23 C12 1_555 1_555
C13 O9 1_555 1_555
C14 C13 1_555 1_555
H24 C14 1_555 1_555
H25 C14 1_555 1_555
H26 C14 1_555 1_555
C15 N1 1_555 1_555
C16 N3 1_555 1_555
N2 C15 1_555 1_555
N4 C16 1_555 1_555
C4 C5 1_555 1_555

#END
