
#######################################################################
#
#                 Cambridge Crystallographic Data Centre
#                                CCDC 
#
#######################################################################
#
# If this CIF has been generated from an entry in the Cambridge 
# Structural Database, then it will include bibliographic, chemical, 
# crystal, experimental, refinement or atomic coordinate data resulting 
# from the CCDC's data processing and validation procedures.
#
#######################################################################

data_SOLMOW
_chemical_formula_moiety         'C12 H12 N4'
_chemical_name_systematic        
1,2,3,6,7,8-hexahydro-cinnolino(5,4,3-cde)cinnoline
_symmetry_cell_setting           monoclinic
_symmetry_space_group_name_H-M   'P 21/c'
_symmetry_Int_Tables_number      14
_space_group_name_Hall           '-P 2ybc'
loop_
_symmetry_equiv_pos_site_id
_symmetry_equiv_pos_as_xyz
1 x,y,z
2 -x,1/2+y,1/2-z
3 -x,-y,-z
4 x,1/2-y,1/2+z
_cell_length_a                   9.698(5)
_cell_length_b                   5.875(3)
_cell_length_c                   10.023(5)
_cell_angle_alpha                90
_cell_angle_beta                 117.314(6)
_cell_angle_gamma                90
_cell_volume                     507.397
_exptl_crystal_colour            colorless
_exptl_crystal_description       block
_chemical_melting_point          '543-544 K'
_cell_formula_units_Z            2
loop_
_atom_site_label
_atom_site_type_symbol
_atom_site_fract_x
_atom_site_fract_y
_atom_site_fract_z
N1 N 0.7159(2) -0.2597(3) 0.65617(19)
N2 N 0.5861(2) -0.3398(3) 0.66438(18)
C1 C 0.7050(2) -0.0820(4) 0.5729(2)
C2 C 0.56377(19) 0.0384(3) 0.49395(18)
C3 C 0.4526(2) -0.2352(3) 0.5938(2)
C4 C 0.3136(3) -0.3211(5) 0.6051(3)
C5 C 0.1646(3) -0.2567(4) 0.4674(3)
C6 C 0.8445(3) 0.0004(4) 0.5597(3)
H1 H 0.318(2) -0.250(4) 0.695(3)
H2 H 0.322(2) -0.487(4) 0.618(2)
H3 H 0.070(3) -0.308(4) 0.478(3)
H4 H 0.161(3) -0.340(4) 0.377(3)
H5 H 0.846(2) -0.086(4) 0.470(2)
H6 H 0.936(3) -0.039(4) 0.649(3)
N1B N 0.2841(2) 0.2597(3) 0.34383(19)
N2B N 0.4139(2) 0.3398(3) 0.33562(18)
C1B C 0.2950(2) 0.0820(4) 0.4271(2)
C2B C 0.43623(19) -0.0384(3) 0.50605(18)
C3B C 0.5474(2) 0.2352(3) 0.4062(2)
C4B C 0.6864(3) 0.3211(5) 0.3949(3)
C5B C 0.8354(3) 0.2567(4) 0.5326(3)
C6B C 0.1555(3) -0.0004(4) 0.4403(3)
H1B H 0.682(2) 0.250(4) 0.305(3)
H2B H 0.678(2) 0.487(4) 0.382(2)
H3B H 0.930(3) 0.308(4) 0.522(3)
H4B H 0.839(3) 0.340(4) 0.623(3)
H5B H 0.154(2) 0.086(4) 0.530(2)
H6B H 0.064(3) 0.039(4) 0.351(3)
loop_
_geom_bond_atom_site_label_1
_geom_bond_atom_site_label_2
_geom_bond_site_symmetry_1
_geom_bond_site_symmetry_2
N1 N2 1_555 1_555
N2 C3 1_555 1_555
C1 N1 1_555 1_555
C2 C1 1_555 1_555
C3 C4 1_555 1_555
C4 C5 1_555 1_555
C5 H3 1_555 1_555
C6 C1 1_555 1_555
H1 C4 1_555 1_555
H2 C4 1_555 1_555
H4 C5 1_555 1_555
H5 C6 1_555 1_555
H6 C6 1_555 1_555
N1B N2B 1_555 1_555
N2B C3B 1_555 1_555
C1B N1B 1_555 1_555
C2B C2 1_555 1_555
C3B C2 1_555 1_555
C4B C3B 1_555 1_555
C5B C6 1_555 1_555
C6B C5 1_555 1_555
H1B C4B 1_555 1_555
H2B C4B 1_555 1_555
H3B C5B 1_555 1_555
H4B C5B 1_555 1_555
H5B C6B 1_555 1_555
H6B C6B 1_555 1_555
C3 C2B 1_555 1_555
C1B C2B 1_555 1_555
C1B C6B 1_555 1_555
C4B C5B 1_555 1_555

#END
