
#######################################################################
#
#                 Cambridge Crystallographic Data Centre
#                                CCDC 
#
#######################################################################
#
# If this CIF has been generated from an entry in the Cambridge 
# Structural Database, then it will include bibliographic, chemical, 
# crystal, experimental, refinement or atomic coordinate data resulting 
# from the CCDC's data processing and validation procedures.
#
#######################################################################

data_SOLNIR
_chemical_formula_moiety         'C18 H14 N2 O3'
_chemical_name_systematic        
2-Hydroxy-N'-((E)-(2-hydroxy-1-naphthyl)methylene)benzohydrazide
_symmetry_cell_setting           orthorhombic
_symmetry_space_group_name_H-M   'P n a 21'
_symmetry_Int_Tables_number      33
_space_group_name_Hall           'P 2c -2n'
loop_
_symmetry_equiv_pos_site_id
_symmetry_equiv_pos_as_xyz
1 x,y,z
2 -x,-y,1/2+z
3 1/2+x,1/2-y,z
4 1/2-x,1/2+y,1/2+z
_cell_length_a                   21.124(2)
_cell_length_b                   11.6212(13)
_cell_length_c                   5.9826(8)
_cell_angle_alpha                90
_cell_angle_beta                 90
_cell_angle_gamma                90
_cell_volume                     1468.65
_exptl_crystal_colour            yellow
_exptl_crystal_description       block
_cell_formula_units_Z            4
_exptl_crystal_recrystallization_method ethanol
loop_
_atom_site_label
_atom_site_type_symbol
_atom_site_fract_x
_atom_site_fract_y
_atom_site_fract_z
N1 N 0.22372(14) 0.9393(3) 0.7322(5)
H1 H 0.2172 0.8711 0.7830
N2 N 0.19131(16) 0.9753(3) 0.5433(5)
O1 O 0.27672(13) 1.1074(2) 0.7748(5)
O2 O 0.25277(11) 0.7726(2) 1.0077(5)
H2 H 0.2526 0.7108 1.0740
O3 O 0.16003(12) 1.1066(2) 0.2044(5)
H3 H 0.1786 1.0891 0.3198
C1 C 0.26489(18) 1.0077(4) 0.8376(7)
C2 C 0.29552(17) 0.9611(3) 1.0402(6)
C3 C 0.28909(17) 0.8498(3) 1.1228(6)
C4 C 0.31857(18) 0.8180(3) 1.3196(7)
H4 H 0.3136 0.7436 1.3740
C5 C 0.35489(19) 0.8949(4) 1.4348(7)
H5 H 0.3751 0.8720 1.5656
C6 C 0.36187(19) 1.0052(4) 1.3595(8)
H6 H 0.3864 1.0576 1.4389
C7 C 0.33219(19) 1.0377(3) 1.1647(8)
H7 H 0.3367 1.1130 1.1145
C8 C 0.15370(18) 0.8993(4) 0.4641(7)
H8 H 0.1508 0.8286 0.5362
C9 C 0.11521(18) 0.9189(3) 0.2659(7)
C10 C 0.12098(18) 1.0193(4) 0.1429(7)
C11 C 0.08679(18) 1.0370(4) -0.0546(6)
H9 H 0.0914 1.1054 -0.1335
C12 C 0.04686(18) 0.9542(4) -0.1313(7)
H10 H 0.0258 0.9652 -0.2660
C13 C 0.03685(19) 0.8510(4) -0.0088(8)
C14 C 0.07096(17) 0.8332(3) 0.1920(7)
C15 C 0.05672(19) 0.7319(4) 0.3133(8)
H11 H 0.0780 0.7171 0.4463
C16 C 0.0127(2) 0.6561(4) 0.2396(9)
H12 H 0.0043 0.5907 0.3240
C17 C -0.0203(2) 0.6736(4) 0.0412(10)
H13 H -0.0500 0.6201 -0.0073
C18 C -0.0082(2) 0.7702(4) -0.0811(8)
H14 H -0.0301 0.7827 -0.2137
loop_
_geom_bond_atom_site_label_1
_geom_bond_atom_site_label_2
_geom_bond_site_symmetry_1
_geom_bond_site_symmetry_2
N1 H1 1_555 1_555
N2 N1 1_555 1_555
O1 C1 1_555 1_555
O2 H2 1_555 1_555
O3 H3 1_555 1_555
C1 N1 1_555 1_555
C2 C1 1_555 1_555
C3 O2 1_555 1_555
C4 C3 1_555 1_555
H4 C4 1_555 1_555
C5 C4 1_555 1_555
H5 C5 1_555 1_555
C6 C5 1_555 1_555
H6 C6 1_555 1_555
C7 C2 1_555 1_555
H7 C7 1_555 1_555
C8 N2 1_555 1_555
H8 C8 1_555 1_555
C9 C8 1_555 1_555
C10 O3 1_555 1_555
C11 C10 1_555 1_555
H9 C11 1_555 1_555
C12 C11 1_555 1_555
H10 C12 1_555 1_555
C13 C12 1_555 1_555
C14 C9 1_555 1_555
C15 C14 1_555 1_555
H11 C15 1_555 1_555
C16 C15 1_555 1_555
H12 C16 1_555 1_555
C17 C16 1_555 1_555
H13 C17 1_555 1_555
C18 C13 1_555 1_555
H14 C18 1_555 1_555
C2 C3 1_555 1_555
C6 C7 1_555 1_555
C9 C10 1_555 1_555
C13 C14 1_555 1_555
C17 C18 1_555 1_555

#END
