
#######################################################################
#
#                 Cambridge Crystallographic Data Centre
#                                CCDC 
#
#######################################################################
#
# If this CIF has been generated from an entry in the Cambridge 
# Structural Database, then it will include bibliographic, chemical, 
# crystal, experimental, refinement or atomic coordinate data resulting 
# from the CCDC's data processing and validation procedures.
#
#######################################################################

data_SOLSOD
_chemical_formula_moiety         'C21 H15 N1 O4'
_chemical_name_systematic        
4-((2-ethyl-1,3-dioxo-2,3-dihydro-1H-benzo[de]isoquinolin-6-yl)oxy)benzaldehyde
_symmetry_cell_setting           monoclinic
_symmetry_space_group_name_H-M   'P 21/c'
_symmetry_Int_Tables_number      14
_space_group_name_Hall           '-P 2ybc'
loop_
_symmetry_equiv_pos_site_id
_symmetry_equiv_pos_as_xyz
1 x,y,z
2 -x,1/2+y,1/2-z
3 -x,-y,-z
4 x,1/2-y,1/2+z
_cell_length_a                   11.7133(12)
_cell_length_b                   9.4523(10)
_cell_length_c                   14.6266(14)
_cell_angle_alpha                90
_cell_angle_beta                 97.133(5)
_cell_angle_gamma                90
_cell_volume                     1606.89
_cell_formula_units_Z            4
loop_
_atom_site_label
_atom_site_type_symbol
_atom_site_fract_x
_atom_site_fract_y
_atom_site_fract_z
O1 O -0.00634(6) 0.44530(8) 0.20184(5)
O2 O -0.23267(7) 0.25393(8) -0.26015(5)
C1 C -0.15587(8) 0.40085(10) -0.02979(6)
O3 O -0.29348(7) 0.71311(9) 0.05063(5)
C2 C -0.23305(8) 0.51622(11) -0.03133(6)
C3 C -0.07618(8) 0.37389(10) 0.04947(6)
N1 N -0.15214(7) 0.57706(9) 0.12683(6)
C4 C -0.15590(8) 0.31285(10) -0.10841(6)
C5 C -0.23701(8) 0.34397(11) -0.18731(6)
C6 C -0.07515(8) 0.20124(10) -0.10670(7)
H1 H -0.0740 0.1435 -0.1581
C7 C -0.07378(8) 0.46507(11) 0.13194(6)
C8 C -0.31420(9) 0.45385(11) -0.18736(7)
H2 H -0.3681 0.4702 -0.2385
C9 C 0.00128(8) 0.26366(11) 0.04968(7)
H3 H 0.0531 0.2462 0.1019
C10 C -0.31050(8) 0.54108(11) -0.10910(7)
H4 H -0.3611 0.6170 -0.1096
C11 C 0.00213(8) 0.17788(11) -0.02855(7)
H5 H 0.0552 0.1046 -0.0279
C12 C -0.15094(9) 0.67056(11) 0.20788(7)
H6 H -0.1646 0.7674 0.1874
H7 H -0.0758 0.6665 0.2441
C13 C -0.26171(9) 0.40672(11) -0.39372(7)
H8 H -0.2034 0.4666 -0.3679
C14 C -0.23060(8) 0.60983(11) 0.04929(7)
C15 C -0.37891(9) 0.19678(12) -0.38180(7)
H9 H -0.3989 0.1191 -0.3482
C16 C -0.24220(9) 0.62704(12) 0.26752(7)
H10 H -0.2397 0.6895 0.3195
H11 H -0.2279 0.5318 0.2888
H12 H -0.3167 0.6323 0.2320
C17 C -0.40555(8) 0.34100(12) -0.51951(7)
O4 O -0.45080(7) 0.46367(11) -0.66248(6)
C18 C -0.29314(8) 0.28865(11) -0.34560(6)
C19 C -0.31910(9) 0.43329(12) -0.48104(7)
H13 H -0.3001 0.5123 -0.5139
C20 C -0.43476(9) 0.22346(12) -0.47015(7)
H14 H -0.4919 0.1622 -0.4961
C21 C -0.46841(9) 0.36601(14) -0.61247(7)
H15 H -0.5257 0.3019 -0.6340
loop_
_geom_bond_atom_site_label_1
_geom_bond_atom_site_label_2
_geom_bond_site_symmetry_1
_geom_bond_site_symmetry_2
O1 C7 1_555 1_555
O2 C5 1_555 1_555
C1 C2 1_555 1_555
O3 C14 1_555 1_555
C2 C10 1_555 1_555
C3 C1 1_555 1_555
N1 C7 1_555 1_555
C4 C1 1_555 1_555
C5 C4 1_555 1_555
C6 C4 1_555 1_555
H1 C6 1_555 1_555
C7 C3 1_555 1_555
C8 C5 1_555 1_555
H2 C8 1_555 1_555
C9 C3 1_555 1_555
H3 C9 1_555 1_555
C10 C8 1_555 1_555
H4 C10 1_555 1_555
C11 C6 1_555 1_555
H5 C11 1_555 1_555
C12 N1 1_555 1_555
H6 C12 1_555 1_555
H7 C12 1_555 1_555
C13 H8 1_555 1_555
C14 C2 1_555 1_555
C15 H9 1_555 1_555
C16 C12 1_555 1_555
H10 C16 1_555 1_555
H11 C16 1_555 1_555
H12 C16 1_555 1_555
C17 C19 1_555 1_555
O4 C21 1_555 1_555
C18 O2 1_555 1_555
C19 C13 1_555 1_555
H13 C19 1_555 1_555
C20 C15 1_555 1_555
H14 C20 1_555 1_555
C21 C17 1_555 1_555
H15 C21 1_555 1_555
N1 C14 1_555 1_555
C9 C11 1_555 1_555
C13 C18 1_555 1_555
C15 C18 1_555 1_555
C17 C20 1_555 1_555

#END
