
#######################################################################
#
#                 Cambridge Crystallographic Data Centre
#                                CCDC 
#
#######################################################################
#
# If this CIF has been generated from an entry in the Cambridge 
# Structural Database, then it will include bibliographic, chemical, 
# crystal, experimental, refinement or atomic coordinate data resulting 
# from the CCDC's data processing and validation procedures.
#
#######################################################################

data_SOLTIY
_chemical_formula_moiety         'C17 H14 Cl1 N3 O2 S1'
_chemical_name_systematic        
N-(4-chloro-2-methyl-6-(5-(2-thienyl)-1,3,4-oxadiazol-2-yl)phenyl)-2-methylacrylamide
_symmetry_cell_setting           triclinic
_symmetry_space_group_name_H-M   'P -1'
_symmetry_Int_Tables_number      2
_space_group_name_Hall           '-P 1'
loop_
_symmetry_equiv_pos_site_id
_symmetry_equiv_pos_as_xyz
1 x,y,z
2 -x,-y,-z
_cell_length_a                   9.774(2)
_cell_length_b                   9.830(2)
_cell_length_c                   9.908(2)
_cell_angle_alpha                91.70(3)
_cell_angle_beta                 110.52(3)
_cell_angle_gamma                106.41(3)
_cell_volume                     846.406
_exptl_crystal_colour            colorless
_exptl_crystal_description       block
_cell_formula_units_Z            2
loop_
_atom_site_label
_atom_site_type_symbol
_atom_site_fract_x
_atom_site_fract_y
_atom_site_fract_z
Cl1 Cl 1.09950(10) 0.33123(8) 0.27740(9)
S1 S 0.5891(3) 0.0933(3) 0.8850(2)
O1 O 0.7834(4) 0.0937(4) 0.5975(4)
N1 N 0.6410(6) -0.1292(5) 0.5099(6)
C1 C 0.6521(10) 0.2399(10) 0.9905(7)
H1 H 0.6205 0.2577 1.0656
O2 O 0.8732(5) -0.3690(5) 0.2837(5)
N2 N 0.6143(6) -0.0794(5) 0.6333(6)
C2 C 0.7714(10) 0.3461(9) 0.9503(8)
H2 H 0.8188 0.4398 0.9979
C3 C 0.8049(6) 0.2983(6) 0.8433(6)
H3 H 0.8760 0.3499 0.8062
N3 N 0.6997(5) -0.2585(5) 0.2947(5)
H4 H 0.6106 -0.2714 0.2989
C4 C 0.7053(7) 0.1438(7) 0.7929(6)
C5 C 0.6953(6) 0.0467(6) 0.6767(6)
C6 C 0.7434(6) -0.0214(6) 0.4983(6)
C7 C 0.8132(6) -0.0037(6) 0.3874(6)
C8 C 0.9065(7) 0.1278(6) 0.3875(6)
H5 H 0.9314 0.2030 0.4599
C9 C 0.9649(6) 0.1482(5) 0.2764(7)
C10 C 0.9269(6) 0.0404(6) 0.1686(6)
H6 H 0.9635 0.0578 0.0938
C11 C 0.8344(7) -0.0953(7) 0.1685(6)
C12 C 0.7821(7) -0.1205(6) 0.2822(6)
C13 C 0.7803(9) -0.2099(7) 0.0368(7)
H7 H 0.7173 -0.2976 0.0524
H8 H 0.8680 -0.2255 0.0243
H9 H 0.7216 -0.1783 -0.0489
C14 C 0.7534(8) -0.3753(7) 0.3008(7)
C15 C 0.6582(8) -0.5094(7) 0.3277(7)
C16 C 0.4932(9) -0.5305(8) 0.2911(10)
H10 H 0.4468 -0.6204 0.3169
H11 H 0.4441 -0.5305 0.1885
H12 H 0.4812 -0.4542 0.3441
C17 C 0.7208(10) -0.6152(8) 0.3676(11)
H13 H 0.6593 -0.7049 0.3726
H14 H 0.8254 -0.5984 0.3900
loop_
_geom_bond_atom_site_label_1
_geom_bond_atom_site_label_2
_geom_bond_site_symmetry_1
_geom_bond_site_symmetry_2
Cl1 C9 1_555 1_555
S1 C1 1_555 1_555
O1 C5 1_555 1_555
N1 N2 1_555 1_555
C1 H1 1_555 1_555
O2 C14 1_555 1_555
N2 C5 1_555 1_555
C2 C1 1_555 1_555
H2 C2 1_555 1_555
C3 C2 1_555 1_555
H3 C3 1_555 1_555
N3 H4 1_555 1_555
C4 S1 1_555 1_555
C5 C4 1_555 1_555
C6 O1 1_555 1_555
C7 C6 1_555 1_555
C8 C7 1_555 1_555
H5 C8 1_555 1_555
C9 C8 1_555 1_555
C10 C9 1_555 1_555
H6 C10 1_555 1_555
C11 C10 1_555 1_555
C12 N3 1_555 1_555
C13 C11 1_555 1_555
H7 C13 1_555 1_555
H8 C13 1_555 1_555
H9 C13 1_555 1_555
C14 N3 1_555 1_555
C15 C14 1_555 1_555
C16 C15 1_555 1_555
H10 C16 1_555 1_555
H11 C16 1_555 1_555
H12 C16 1_555 1_555
C17 C15 1_555 1_555
H13 C17 1_555 1_555
H14 C17 1_555 1_555
N1 C6 1_555 1_555
C3 C4 1_555 1_555
C7 C12 1_555 1_555
C11 C12 1_555 1_555

#END
