
#######################################################################
#
#                 Cambridge Crystallographic Data Centre
#                                CCDC 
#
#######################################################################
#
# If this CIF has been generated from an entry in the Cambridge 
# Structural Database, then it will include bibliographic, chemical, 
# crystal, experimental, refinement or atomic coordinate data resulting 
# from the CCDC's data processing and validation procedures.
#
#######################################################################

data_SOLVUL
_chemical_formula_moiety         'C18 H14 O2'
_chemical_name_systematic        2-Benzyloxy-1-naphthaldehyde
_symmetry_cell_setting           monoclinic
_symmetry_space_group_name_H-M   'P 21/c'
_symmetry_Int_Tables_number      14
_space_group_name_Hall           '-P 2ybc'
loop_
_symmetry_equiv_pos_site_id
_symmetry_equiv_pos_as_xyz
1 x,y,z
2 -x,1/2+y,1/2-z
3 -x,-y,-z
4 x,1/2-y,1/2+z
_cell_length_a                   10.427(7)
_cell_length_b                   8.128(6)
_cell_length_c                   15.787(11)
_cell_angle_alpha                90
_cell_angle_beta                 94.746(11)
_cell_angle_gamma                90
_cell_volume                     1333.37
_exptl_crystal_colour            colorless
_exptl_crystal_description       block
_chemical_melting_point          '393.0 K'
_cell_formula_units_Z            4
loop_
_atom_site_label
_atom_site_type_symbol
_atom_site_fract_x
_atom_site_fract_y
_atom_site_fract_z
O1 O 0.6120(3) 0.2057(4) 0.65206(15)
O2 O 0.6321(2) 0.1063(4) 0.41483(14)
C1 C 0.4002(3) 0.3376(5) 0.5290(2)
C2 C 0.3808(4) 0.4033(5) 0.6101(2)
H1 H 0.4423 0.3837 0.6551
C3 C 0.2749(4) 0.4942(6) 0.6241(3)
H2 H 0.2641 0.5335 0.6784
C4 C 0.1821(4) 0.5289(7) 0.5572(3)
H3 H 0.1103 0.5918 0.5671
C5 C 0.1967(4) 0.4710(5) 0.4783(3)
H4 H 0.1349 0.4952 0.4343
C6 C 0.3053(3) 0.3737(6) 0.4616(2)
C7 C 0.3228(3) 0.3153(5) 0.3794(2)
H5 H 0.2608 0.3395 0.3354
C8 C 0.4275(3) 0.2244(6) 0.3622(2)
H6 H 0.4354 0.1851 0.3075
C9 C 0.5238(3) 0.1904(5) 0.4280(2)
C10 C 0.5100(3) 0.2424(5) 0.5110(2)
C11 C 0.6122(3) 0.1927(6) 0.5756(2)
H7 H 0.6853 0.1459 0.5556
C12 C 0.6621(3) 0.0652(6) 0.3305(2)
H8 H 0.6381 0.1548 0.2918
H9 H 0.6154 -0.0326 0.3108
C13 C 0.8049(3) 0.0350(5) 0.3337(2)
C14 C 0.8757(4) 0.1189(6) 0.2765(2)
H10 H 0.8348 0.1902 0.2368
C15 C 1.0079(4) 0.0954(7) 0.2792(3)
H11 H 1.0549 0.1484 0.2397
C16 C 1.0699(4) -0.0047(6) 0.3390(3)
H12 H 1.1589 -0.0163 0.3412
C17 C 1.0006(4) -0.0884(6) 0.3960(3)
H13 H 1.0423 -0.1582 0.4360
C18 C 0.8681(4) -0.0675(6) 0.3932(2)
H14 H 0.8214 -0.1232 0.4319
loop_
_geom_bond_atom_site_label_1
_geom_bond_atom_site_label_2
_geom_bond_site_symmetry_1
_geom_bond_site_symmetry_2
O1 C11 1_555 1_555
O2 C9 1_555 1_555
C1 C2 1_555 1_555
C2 H1 1_555 1_555
C3 C2 1_555 1_555
H2 C3 1_555 1_555
C4 C3 1_555 1_555
H3 C4 1_555 1_555
C5 C4 1_555 1_555
H4 C5 1_555 1_555
C6 C1 1_555 1_555
C7 C6 1_555 1_555
H5 C7 1_555 1_555
C8 C7 1_555 1_555
H6 C8 1_555 1_555
C9 C8 1_555 1_555
C10 C1 1_555 1_555
C11 C10 1_555 1_555
H7 C11 1_555 1_555
C12 O2 1_555 1_555
H8 C12 1_555 1_555
H9 C12 1_555 1_555
C13 C12 1_555 1_555
C14 C13 1_555 1_555
H10 C14 1_555 1_555
C15 C14 1_555 1_555
H11 C15 1_555 1_555
C16 C15 1_555 1_555
H12 C16 1_555 1_555
C17 C16 1_555 1_555
H13 C17 1_555 1_555
C18 C13 1_555 1_555
H14 C18 1_555 1_555
C5 C6 1_555 1_555
C9 C10 1_555 1_555
C17 C18 1_555 1_555

#END
