
#######################################################################
#
#                 Cambridge Crystallographic Data Centre
#                                CCDC 
#
#######################################################################
#
# If this CIF has been generated from an entry in the Cambridge 
# Structural Database, then it will include bibliographic, chemical, 
# crystal, experimental, refinement or atomic coordinate data resulting 
# from the CCDC's data processing and validation procedures.
#
#######################################################################

data_SOMFOR01
_chemical_formula_moiety         'C19 H25 N6 1+,Cl1 1-'
_chemical_name_systematic        
'4-t-butyl-2-(4-t-butyl-6-(1H-tetrazol-5-yl)pyridin-2-yl)pyridin-1-ium chloride'
_symmetry_cell_setting           monoclinic
_symmetry_space_group_name_H-M   'P 21/n'
_symmetry_Int_Tables_number      14
_space_group_name_Hall           '-P 2yn'
loop_
_symmetry_equiv_pos_site_id
_symmetry_equiv_pos_as_xyz
1 x,y,z
2 1/2-x,1/2+y,1/2-z
3 -x,-y,-z
4 1/2+x,1/2-y,1/2+z
_cell_length_a                   11.0538(11)
_cell_length_b                   14.4067(9)
_cell_length_c                   13.0173(11)
_cell_angle_alpha                90
_cell_angle_beta                 103.335(7)
_cell_angle_gamma                90
_cell_volume                     2017.1
_exptl_crystal_colour            colorless
_exptl_crystal_description       plate
_cell_formula_units_Z            4
loop_
_atom_site_label
_atom_site_type_symbol
_atom_site_fract_x
_atom_site_fract_y
_atom_site_fract_z
Cl1 Cl 0.22173(7) 0.42592(5) 0.74124(6)
C1 C 0.2304(2) 0.07481(18) 0.47960(19)
N1 N -0.18189(19) 0.21205(15) 0.42630(15)
N2 N -0.0339(2) -0.04294(16) 0.29671(17)
C2 C 0.2558(2) 0.15544(17) 0.53974(18)
N3 N 0.01277(18) 0.11126(14) 0.42961(14)
C3 C 0.0778(2) -0.02632(17) 0.35919(18)
C4 C -0.0812(2) 0.32233(17) 0.54936(19)
N4 N 0.1541(2) -0.09546(14) 0.35045(16)
C5 C -0.2994(2) 0.33259(19) 0.47626(19)
C6 C 0.1088(2) 0.05636(16) 0.42632(17)
N5 N -0.0284(3) -0.12439(16) 0.24740(17)
C7 C -0.0756(2) 0.24419(16) 0.49001(17)
C8 C 0.1551(2) 0.21240(17) 0.54424(18)
C9 C 0.0364(2) 0.18827(16) 0.48917(17)
C10 C 0.3870(2) 0.18235(18) 0.5985(2)
N6 N 0.0849(3) -0.15545(16) 0.27975(18)
C11 C -0.1937(2) 0.36878(17) 0.54482(17)
C12 C -0.3307(3) 0.4943(3) 0.5935(3)
C13 C -0.1991(2) 0.45400(18) 0.61250(19)
C14 C -0.1555(4) 0.4253(3) 0.7289(2)
C15 C -0.2908(2) 0.25450(19) 0.4181(2)
C16 C -0.1134(3) 0.5286(2) 0.5857(3)
C17 C 0.4157(3) 0.2799(3) 0.5642(3)
C18 C 0.3918(3) 0.1834(3) 0.7166(2)
C19 C 0.4843(3) 0.1148(3) 0.5767(3)
H1 H -0.179(3) 0.159(2) 0.383(2)
H2 H -0.108(3) -0.010(2) 0.283(2)
H3 H -0.010(2) 0.3443(16) 0.5942(18)
H4 H -0.023(3) 0.510(2) 0.602(2)
H5 H 0.1664(19) 0.2658(16) 0.5857(17)
H6 H 0.500(3) 0.297(2) 0.601(2)
H7 H -0.359(3) 0.226(2) 0.372(2)
H8 H 0.473(3) 0.2018(19) 0.757(2)
H9 H -0.167(3) 0.479(2) 0.772(2)
H10 H -0.122(3) 0.584(2) 0.626(2)
H11 H -0.378(2) 0.3611(18) 0.4682(19)
H12 H 0.295(2) 0.0316(17) 0.4764(18)
H13 H 0.467(3) 0.044(2) 0.605(2)
H14 H 0.565(3) 0.133(2) 0.617(2)
H15 H 0.332(3) 0.229(2) 0.732(2)
H16 H -0.068(4) 0.408(2) 0.745(3)
H17 H 0.354(3) 0.329(2) 0.585(3)
H18 H 0.481(3) 0.117(2) 0.503(3)
H19 H -0.137(3) 0.544(2) 0.510(3)
H20 H -0.362(3) 0.508(2) 0.519(3)
H21 H -0.389(4) 0.452(3) 0.615(3)
H22 H 0.413(3) 0.281(2) 0.491(3)
H23 H -0.326(2) 0.549(2) 0.638(2)
H24 H -0.209(3) 0.377(3) 0.745(3)
H25 H 0.371(3) 0.118(3) 0.743(3)
loop_
_geom_bond_atom_site_label_1
_geom_bond_atom_site_label_2
_geom_bond_site_symmetry_1
_geom_bond_site_symmetry_2
C1 C2 1_555 1_555
N1 C7 1_555 1_555
N2 C3 1_555 1_555
C2 C8 1_555 1_555
N3 C6 1_555 1_555
C3 N4 1_555 1_555
C4 C7 1_555 1_555
N4 N6 1_555 1_555
C5 C11 1_555 1_555
C6 C1 1_555 1_555
N5 N2 1_555 1_555
C7 C9 1_555 1_555
C8 C9 1_555 1_555
C9 N3 1_555 1_555
C10 C2 1_555 1_555
N6 N5 1_555 1_555
C11 C4 1_555 1_555
C12 C13 1_555 1_555
C13 C11 1_555 1_555
C14 C13 1_555 1_555
C15 N1 1_555 1_555
C16 C13 1_555 1_555
C17 C10 1_555 1_555
C18 C10 1_555 1_555
C19 C10 1_555 1_555
H1 N1 1_555 1_555
H2 N2 1_555 1_555
H3 C4 1_555 1_555
H4 C16 1_555 1_555
H5 C8 1_555 1_555
H6 C17 1_555 1_555
H7 C15 1_555 1_555
H8 C18 1_555 1_555
H9 C14 1_555 1_555
H10 C16 1_555 1_555
H11 C5 1_555 1_555
H12 C1 1_555 1_555
H13 C19 1_555 1_555
H14 C19 1_555 1_555
H15 C18 1_555 1_555
H16 C14 1_555 1_555
H17 C17 1_555 1_555
H18 C19 1_555 1_555
H19 C16 1_555 1_555
H20 C12 1_555 1_555
H21 C12 1_555 1_555
H22 C17 1_555 1_555
H23 C12 1_555 1_555
H24 C14 1_555 1_555
H25 C18 1_555 1_555
C3 C6 1_555 1_555
C5 C15 1_555 1_555

#END
