
#######################################################################
#
#                 Cambridge Crystallographic Data Centre
#                                CCDC 
#
#######################################################################
#
# If this CIF has been generated from an entry in the Cambridge 
# Structural Database, then it will include bibliographic, chemical, 
# crystal, experimental, refinement or atomic coordinate data resulting 
# from the CCDC's data processing and validation procedures.
#
#######################################################################

data_SOMROC
_chemical_formula_moiety         '2(C16 H36 N1 1+),C58 H58 B2 F2 2-'
_chemical_name_systematic        
'bis(Tetra-n-butylammonium) (naphthalene-1,8-diyldibenzene-4,1-diyl)-bis(fluoro(dimesityl)borate)'
_symmetry_cell_setting           orthorhombic
_symmetry_space_group_name_H-M   'P b c n'
_symmetry_Int_Tables_number      60
_space_group_name_Hall           '-P 2n 2ab'
loop_
_symmetry_equiv_pos_site_id
_symmetry_equiv_pos_as_xyz
1 x,y,z
2 1/2-x,1/2-y,1/2+z
3 -x,y,1/2-z
4 1/2+x,1/2-y,-z
5 -x,-y,-z
6 1/2+x,1/2+y,1/2-z
7 x,-y,1/2+z
8 1/2-x,1/2+y,z
_cell_length_a                   18.9303(13)
_cell_length_b                   23.0165(15)
_cell_length_c                   19.0849(13)
_cell_angle_alpha                90
_cell_angle_beta                 90
_cell_angle_gamma                90
_cell_volume                     8315.47
_cell_formula_units_Z            4
_exptl_crystal_recrystallization_method dichloromethane
loop_
_atom_site_label
_atom_site_type_symbol
_atom_site_fract_x
_atom_site_fract_y
_atom_site_fract_z
F1 F 0.77521(11) 0.18216(9) 0.10337(11)
B1 B 0.8318(3) 0.1641(2) 0.1534(3)
C1 C 0.9387(4) 0.5232(2) 0.2350(3)
H1 H 0.9405 0.5636 0.2350
C2 C 0.8775(3) 0.4961(3) 0.2207(3)
H2 H 0.8363 0.5172 0.2132
C3 C 0.8769(3) 0.4357(3) 0.2174(3)
H3 H 0.8347 0.4174 0.2059
C4 C 0.9348(3) 0.4013(2) 0.2302(2)
C5 C 1.0000 0.4286(4) 0.2500
C6 C 1.0000 0.4914(4) 0.2500
C7 C 0.9212(2) 0.3383(2) 0.2145(3)
C8 C 0.9191(2) 0.2933(3) 0.2624(2)
H4 H 0.9359 0.2993 0.3076
C9 C 0.8924(2) 0.2392(2) 0.2440(3)
H5 H 0.8910 0.2104 0.2782
C10 C 0.8676(2) 0.2258(2) 0.1775(3)
C11 C 0.8720(2) 0.2713(3) 0.1301(2)
H6 H 0.8568 0.2649 0.0844
C12 C 0.8975(2) 0.3255(3) 0.1471(3)
H7 H 0.8990 0.3542 0.1128
C13 C 0.7941(3) 0.1338(2) 0.2216(2)
C14 C 0.7256(3) 0.14868(19) 0.2441(3)
C15 C 0.6951(3) 0.1213(3) 0.3021(4)
H8 H 0.6495 0.1316 0.3151
C16 C 0.7299(4) 0.0796(3) 0.3411(3)
C17 C 0.7973(4) 0.0673(2) 0.3209(3)
H9 H 0.8226 0.0401 0.3469
C18 C 0.8304(3) 0.0928(2) 0.2637(3)
C19 C 0.6811(2) 0.1940(2) 0.2067(2)
H10 H 0.6416 0.2045 0.2356
H11 H 0.6643 0.1784 0.1632
H12 H 0.7094 0.2279 0.1977
C20 C 0.6926(3) 0.0494(3) 0.4018(3)
H13 H 0.7272 0.0334 0.4332
H14 H 0.6633 0.0188 0.3840
H15 H 0.6640 0.0770 0.4265
C21 C 0.9053(3) 0.0749(2) 0.2486(2)
H16 H 0.9246 0.0553 0.2887
H17 H 0.9331 0.1087 0.2384
H18 H 0.9060 0.0492 0.2090
C22 C 0.8792(3) 0.1219(2) 0.1011(2)
C23 C 0.8443(3) 0.0755(2) 0.0661(3)
C24 C 0.8735(4) 0.0483(2) 0.0079(3)
H19 H 0.8482 0.0188 -0.0138
C25 C 0.9390(4) 0.0635(3) -0.0192(3)
C26 C 0.9759(2) 0.1043(3) 0.0192(3)
H20 H 1.0216 0.1134 0.0051
C27 C 0.9485(3) 0.1326(2) 0.0780(3)
C28 C 0.7741(2) 0.05255(19) 0.0918(2)
H21 H 0.7549 0.0263 0.0578
H22 H 0.7421 0.0843 0.0987
H23 H 0.7809 0.0324 0.1354
C29 C 0.9693(3) 0.0363(2) -0.0852(3)
H24 H 1.0196 0.0323 -0.0803
H25 H 0.9591 0.0607 -0.1247
H26 H 0.9485 -0.0013 -0.0923
C30 C 0.9997(2) 0.1737(2) 0.1152(2)
H27 H 1.0471 0.1592 0.1106
H28 H 0.9875 0.1762 0.1639
H29 H 0.9968 0.2116 0.0943
F1B F 1.22479(11) 0.18216(9) 0.39663(11)
B1B B 1.1682(3) 0.1641(2) 0.3466(3)
C1B C 1.0613(4) 0.5232(2) 0.2650(3)
H1B H 1.0595 0.5636 0.2650
C2B C 1.1225(3) 0.4961(3) 0.2793(3)
H2B H 1.1637 0.5172 0.2868
C3B C 1.1231(3) 0.4357(3) 0.2826(3)
H3B H 1.1653 0.4174 0.2941
C4B C 1.0652(3) 0.4013(2) 0.2698(2)
C7B C 1.0788(2) 0.3383(2) 0.2855(3)
C8B C 1.0809(2) 0.2933(3) 0.2376(2)
H4B H 1.0641 0.2993 0.1924
C9B C 1.1076(2) 0.2392(2) 0.2560(3)
H5B H 1.1090 0.2104 0.2218
C10B C 1.1324(2) 0.2258(2) 0.3225(3)
C11B C 1.1280(2) 0.2713(3) 0.3699(2)
H6B H 1.1432 0.2649 0.4156
C12B C 1.1025(2) 0.3255(3) 0.3529(3)
H7B H 1.1010 0.3542 0.3872
C13B C 1.2059(3) 0.1338(2) 0.2784(2)
C14B C 1.2744(3) 0.14868(19) 0.2559(3)
C15B C 1.3049(3) 0.1213(3) 0.1979(4)
H8B H 1.3505 0.1316 0.1849
C16B C 1.2701(4) 0.0796(3) 0.1589(3)
C17B C 1.2027(4) 0.0673(2) 0.1791(3)
H9B H 1.1774 0.0401 0.1531
C18B C 1.1696(3) 0.0928(2) 0.2363(3)
C19B C 1.3189(2) 0.1940(2) 0.2933(2)
H10B H 1.3584 0.2045 0.2644
H11B H 1.3357 0.1784 0.3368
H12B H 1.2906 0.2279 0.3023
C20B C 1.3074(3) 0.0494(3) 0.0982(3)
H13B H 1.2728 0.0334 0.0668
H14B H 1.3367 0.0188 0.1160
H15B H 1.3360 0.0770 0.0735
C21B C 1.0947(3) 0.0749(2) 0.2514(2)
H16B H 1.0754 0.0553 0.2113
H17B H 1.0669 0.1087 0.2616
H18B H 1.0940 0.0492 0.2910
C22B C 1.1208(3) 0.1219(2) 0.3989(2)
C23B C 1.1557(3) 0.0755(2) 0.4339(3)
C24B C 1.1265(4) 0.0483(2) 0.4921(3)
H19B H 1.1518 0.0188 0.5138
C25B C 1.0610(4) 0.0635(3) 0.5192(3)
C26B C 1.0241(2) 0.1043(3) 0.4808(3)
H20B H 0.9784 0.1134 0.4949
C27B C 1.0515(3) 0.1326(2) 0.4220(3)
C28B C 1.2259(2) 0.05255(19) 0.4082(2)
H21B H 1.2451 0.0263 0.4422
H22B H 1.2579 0.0843 0.4013
H23B H 1.2191 0.0324 0.3646
C29B C 1.0307(3) 0.0363(2) 0.5852(3)
H24B H 0.9804 0.0323 0.5803
H25B H 1.0409 0.0607 0.6247
H26B H 1.0515 -0.0013 0.5923
C30B C 1.0003(2) 0.1737(2) 0.3848(2)
H27B H 0.9529 0.1592 0.3894
H28B H 1.0125 0.1762 0.3361
H29B H 1.0032 0.2116 0.4057
N1 N 0.7382(2) 0.30973(18) 0.40501(19)
C31 C 0.7359(3) 0.3279(3) 0.3290(3)
H30 H 0.7033 0.3029 0.3039
H31 H 0.7824 0.3229 0.3085
C32 C 0.7104(18) 0.3976(13) 0.3195(19)
H32 H 0.6722 0.4064 0.3517
H33 H 0.7496 0.4235 0.3295
C33 C 0.6858(12) 0.4061(17) 0.2446(18)
H34 H 0.7200 0.3889 0.2130
H35 H 0.6833 0.4473 0.2344
C34 C 0.6031(9) 0.3747(9) 0.2297(7)
H36 H 0.5877 0.3838 0.1831
H37 H 0.5697 0.3896 0.2630
H38 H 0.6065 0.3333 0.2349
C35 C 0.6639(2) 0.3043(2) 0.4348(2)
H39 H 0.6677 0.2939 0.4839
H40 H 0.6415 0.3421 0.4324
C36 C 0.6163(3) 0.2606(2) 0.3991(3)
H41 H 0.6131 0.2705 0.3498
H42 H 0.6380 0.2225 0.4024
C37 C 0.5443(3) 0.2571(3) 0.4280(3)
H43 H 0.5240 0.2958 0.4278
H44 H 0.5476 0.2447 0.4765
C38 C 0.4953(3) 0.2173(4) 0.3906(4)
H45 H 0.4509 0.2160 0.4148
H46 H 0.5154 0.1790 0.3890
H47 H 0.4880 0.2311 0.3437
C39 C 0.7757(2) 0.2511(2) 0.4069(3)
H48 H 0.7506 0.2242 0.3767
H49 H 0.8229 0.2558 0.3881
C40 C 0.7808(3) 0.2252(3) 0.4792(3)
H50 H 0.7629 0.2436 0.5188
C41 C 0.8151(4) 0.1709(3) 0.4819(3)
H51 H 0.8634 0.1763 0.4663
H52 H 0.7923 0.1453 0.4485
C42 C 0.8170(4) 0.1404(3) 0.5516(4)
H53 H 0.8470 0.1069 0.5484
H54 H 0.7701 0.1285 0.5642
H55 H 0.8350 0.1664 0.5866
C43 C 0.7760(2) 0.3544(2) 0.4492(2)
H56 H 0.7541 0.3738 0.4861
C44 C 0.8527(3) 0.3654(2) 0.4289(2)
H57 H 0.8781 0.3288 0.4283
H58 H 0.8545 0.3817 0.3821
C45 C 0.8878(3) 0.4063(2) 0.4794(3)
H59 H 0.8857 0.3898 0.5261
H60 H 0.8619 0.4426 0.4800
C46 C 0.9640(3) 0.4187(3) 0.4612(3)
H61 H 0.9843 0.4435 0.4962
H62 H 0.9663 0.4375 0.4163
H63 H 0.9899 0.3828 0.4594
C47? C 0.698(2) 0.3738(14) 0.312(2)
C48? C 0.671(3) 0.3788(10) 0.2360(16)
C49? C 0.639(3) 0.4246(13) 0.2216(12)
H64? H 0.7262 0.4081 0.3215
H65? H 0.6574 0.3751 0.3427
H66? H 0.7106 0.3749 0.2044
H67? H 0.6392 0.3464 0.2270
H68? H 0.5954 0.4261 0.2472
H69? H 0.6294 0.4258 0.1723
H70? H 0.6679 0.4572 0.2343
loop_
_geom_bond_atom_site_label_1
_geom_bond_atom_site_label_2
_geom_bond_site_symmetry_1
_geom_bond_site_symmetry_2
F1 B1 1_555 1_555
N1 C31 1_555 1_555
B1 C10 1_555 1_555
C1 H1 1_555 1_555
C2 C1 1_555 1_555
H2 C2 1_555 1_555
C3 C2 1_555 1_555
H3 C3 1_555 1_555
C4 C3 1_555 1_555
C5 C4 1_555 1_555
C6 C1 1_555 1_555
C7 C4 1_555 1_555
C8 C7 1_555 1_555
H4 C8 1_555 1_555
C9 C8 1_555 1_555
H5 C9 1_555 1_555
C10 C9 1_555 1_555
C11 C10 1_555 1_555
H6 C11 1_555 1_555
C12 C7 1_555 1_555
H7 C12 1_555 1_555
C13 B1 1_555 1_555
C14 C13 1_555 1_555
C15 C14 1_555 1_555
H8 C15 1_555 1_555
C16 C15 1_555 1_555
C17 C16 1_555 1_555
H9 C17 1_555 1_555
C18 C13 1_555 1_555
C19 C14 1_555 1_555
H10 C19 1_555 1_555
H11 C19 1_555 1_555
H12 C19 1_555 1_555
C20 C16 1_555 1_555
H13 C20 1_555 1_555
H14 C20 1_555 1_555
H15 C20 1_555 1_555
C21 C18 1_555 1_555
H16 C21 1_555 1_555
H17 C21 1_555 1_555
H18 C21 1_555 1_555
C22 B1 1_555 1_555
C23 C22 1_555 1_555
C24 C23 1_555 1_555
H19 C24 1_555 1_555
C25 C24 1_555 1_555
C26 C25 1_555 1_555
H20 C26 1_555 1_555
C27 C22 1_555 1_555
C28 C23 1_555 1_555
H21 C28 1_555 1_555
H22 C28 1_555 1_555
H23 C28 1_555 1_555
C29 C25 1_555 1_555
H24 C29 1_555 1_555
H25 C29 1_555 1_555
H26 C29 1_555 1_555
C30 C27 1_555 1_555
H27 C30 1_555 1_555
H28 C30 1_555 1_555
H29 C30 1_555 1_555
C31 H30 1_555 1_555
H31 C31 1_555 1_555
C32 C31 1_555 1_555
H32 C32 1_555 1_555
H33 C32 1_555 1_555
C33 C32 1_555 1_555
H34 C33 1_555 1_555
H35 C33 1_555 1_555
C34 C33 1_555 1_555
H36 C34 1_555 1_555
H37 C34 1_555 1_555
H38 C34 1_555 1_555
C35 N1 1_555 1_555
H39 C35 1_555 1_555
H40 C35 1_555 1_555
C36 C35 1_555 1_555
H41 C36 1_555 1_555
H42 C36 1_555 1_555
C37 C36 1_555 1_555
H43 C37 1_555 1_555
H44 C37 1_555 1_555
C38 C37 1_555 1_555
H45 C38 1_555 1_555
H46 C38 1_555 1_555
H47 C38 1_555 1_555
C39 N1 1_555 1_555
H48 C39 1_555 1_555
H49 C39 1_555 1_555
C40 C39 1_555 1_555
H50 C40 1_555 1_555
C41 C40 1_555 1_555
H51 C41 1_555 1_555
H52 C41 1_555 1_555
C42 C41 1_555 1_555
H53 C42 1_555 1_555
H54 C42 1_555 1_555
H55 C42 1_555 1_555
C43 N1 1_555 1_555
H56 C43 1_555 1_555
C44 C43 1_555 1_555
H57 C44 1_555 1_555
H58 C44 1_555 1_555
C45 C44 1_555 1_555
H59 C45 1_555 1_555
H60 C45 1_555 1_555
C46 C45 1_555 1_555
H61 C46 1_555 1_555
H62 C46 1_555 1_555
H63 C46 1_555 1_555
F1B B1B 1_555 1_555
B1B C10B 1_555 1_555
C1B C6 1_555 1_555
H1B C1B 1_555 1_555
C2B C1B 1_555 1_555
H2B C2B 1_555 1_555
C3B C2B 1_555 1_555
H3B C3B 1_555 1_555
C4B C5 1_555 1_555
C7B C4B 1_555 1_555
C8B C7B 1_555 1_555
H4B C8B 1_555 1_555
C9B C8B 1_555 1_555
H5B C9B 1_555 1_555
C10B C9B 1_555 1_555
C11B C10B 1_555 1_555
H6B C11B 1_555 1_555
C12B C7B 1_555 1_555
H7B C12B 1_555 1_555
C13B B1B 1_555 1_555
C14B C13B 1_555 1_555
C15B C14B 1_555 1_555
H8B C15B 1_555 1_555
C16B C15B 1_555 1_555
C17B C16B 1_555 1_555
H9B C17B 1_555 1_555
C18B C13B 1_555 1_555
C19B C14B 1_555 1_555
H10B C19B 1_555 1_555
H11B C19B 1_555 1_555
H12B C19B 1_555 1_555
C20B C16B 1_555 1_555
H13B C20B 1_555 1_555
H14B C20B 1_555 1_555
H15B C20B 1_555 1_555
C21B C18B 1_555 1_555
H16B C21B 1_555 1_555
H17B C21B 1_555 1_555
H18B C21B 1_555 1_555
C22B B1B 1_555 1_555
C23B C22B 1_555 1_555
C24B C23B 1_555 1_555
H19B C24B 1_555 1_555
C25B C24B 1_555 1_555
C26B C25B 1_555 1_555
H20B C26B 1_555 1_555
C27B C22B 1_555 1_555
C28B C23B 1_555 1_555
H21B C28B 1_555 1_555
H22B C28B 1_555 1_555
H23B C28B 1_555 1_555
C29B C25B 1_555 1_555
H24B C29B 1_555 1_555
H25B C29B 1_555 1_555
H26B C29B 1_555 1_555
C30B C27B 1_555 1_555
H27B C30B 1_555 1_555
H28B C30B 1_555 1_555
H29B C30B 1_555 1_555
C5 C6 1_555 1_555
C11 C12 1_555 1_555
C17 C18 1_555 1_555
C26 C27 1_555 1_555
C3B C4B 1_555 1_555
C11B C12B 1_555 1_555
C17B C18B 1_555 1_555
C26B C27B 1_555 1_555

#END
