
#######################################################################
#
#                 Cambridge Crystallographic Data Centre
#                                CCDC 
#
#######################################################################
#
# If this CIF has been generated from an entry in the Cambridge 
# Structural Database, then it will include bibliographic, chemical, 
# crystal, experimental, refinement or atomic coordinate data resulting 
# from the CCDC's data processing and validation procedures.
#
#######################################################################

data_SOMZAW
_chemical_formula_moiety         'C27 H25 N1 O5'
_chemical_name_systematic        
'Dimethyl 5-benzylidene-2,3-diphenyl-1,2-oxazinane-4,4-dicarboxylate'
_symmetry_cell_setting           triclinic
_symmetry_space_group_name_H-M   'P -1'
_symmetry_Int_Tables_number      2
_space_group_name_Hall           '-P 1'
loop_
_symmetry_equiv_pos_site_id
_symmetry_equiv_pos_as_xyz
1 x,y,z
2 -x,-y,-z
_cell_length_a                   9.4825(19)
_cell_length_b                   11.438(2)
_cell_length_c                   11.959(2)
_cell_angle_alpha                65.33(3)
_cell_angle_beta                 84.61(3)
_cell_angle_gamma                72.85(3)
_cell_volume                     1125.65
_exptl_crystal_colour            white
_chemical_melting_point          '137-138 deg.C'
_cell_formula_units_Z            2
loop_
_atom_site_label
_atom_site_type_symbol
_atom_site_fract_x
_atom_site_fract_y
_atom_site_fract_z
O1 O 0.66116(13) 0.53157(11) 0.09024(12)
O2 O 0.83764(14) 0.48583(13) 0.42608(13)
O3 O 0.98317(13) 0.53218(11) 0.26338(12)
O4 O 0.57241(14) 0.85086(13) 0.26286(15)
O5 O 0.81572(14) 0.79384(13) 0.29335(14)
N1 N 0.65697(16) 0.47842(13) 0.22255(14)
C1 C 0.59860(18) 0.59335(16) 0.25837(17)
H1 H 0.5922 0.5545 0.3482
C2 C 0.72755(18) 0.65892(16) 0.22940(17)
C3 C 0.77088(18) 0.69500(16) 0.09620(17)
C4 C 0.7880(2) 0.58255(16) 0.05600(18)
H2 H 0.7979 0.6155 -0.0325
H3 H 0.8766 0.5110 0.0947
C5 C 0.57990(18) 0.37919(16) 0.26483(18)
C6 C 0.5258(2) 0.33953(17) 0.18651(19)
H4 H 0.5324 0.3830 0.1017
C7 C 0.4619(2) 0.23472(17) 0.2355(2)
H5 H 0.4265 0.2077 0.1830
C8 C 0.4501(2) 0.17019(17) 0.3607(2)
H6 H 0.4063 0.1005 0.3926
C9 C 0.5037(2) 0.20975(18) 0.4389(2)
H7 H 0.4958 0.1667 0.5236
C10 C 0.5690(2) 0.31291(17) 0.39149(18)
H8 H 0.6059 0.3383 0.4445
C11 C 0.44347(19) 0.67763(16) 0.20736(18)
C12 C 0.3294(2) 0.66234(17) 0.2895(2)
H9 H 0.3519 0.6077 0.3725
C13 C 0.1836(2) 0.72650(18) 0.2505(2)
H10 H 0.1089 0.7163 0.3070
C14 C 0.1491(2) 0.80604(19) 0.1269(2)
H11 H 0.0510 0.8481 0.0998
C15 C 0.2609(2) 0.82280(19) 0.0439(2)
H12 H 0.2379 0.8766 -0.0392
C16 C 0.4082(2) 0.75944(17) 0.08416(19)
H13 H 0.4830 0.7722 0.0280
C17 C 0.69244(19) 0.77866(17) 0.26377(18)
C18 C 0.8000(2) 0.90486(19) 0.3265(2)
H14 H 0.7321 0.9838 0.2693
H15 H 0.8944 0.9208 0.3241
H16 H 0.7632 0.8838 0.4081
C19 C 0.85562(19) 0.54827(17) 0.31865(18)
C20 C 1.1082(2) 0.42864(18) 0.3408(2)
H17 H 1.1208 0.4468 0.4101
H18 H 1.1961 0.4283 0.2939
H19 H 1.0900 0.3427 0.3694
C21 C 0.78857(19) 0.81401(17) 0.02062(18)
H20 H 0.7621 0.8821 0.0485
C22 C 0.84706(19) 0.84532(16) -0.10373(17)
C23 C 0.7752(2) 0.95863(17) -0.20551(18)
H21 H 0.6899 1.0186 -0.1953
C24 C 0.8307(2) 0.98215(18) -0.3221(2)
H22 H 0.7816 1.0572 -0.3899
C25 C 0.9589(2) 0.89423(19) -0.3380(2)
H23 H 0.9944 0.9090 -0.4165
C26 C 1.0335(2) 0.78503(18) -0.2375(2)
H24 H 1.1212 0.7274 -0.2477
C27 C 0.9784(2) 0.76103(17) -0.12145(19)
H25 H 1.0298 0.6872 -0.0539
loop_
_geom_bond_atom_site_label_1
_geom_bond_atom_site_label_2
_geom_bond_site_symmetry_1
_geom_bond_site_symmetry_2
O1 N1 1_555 1_555
O2 C19 1_555 1_555
O3 C19 1_555 1_555
O4 C17 1_555 1_555
O5 C17 1_555 1_555
N1 C1 1_555 1_555
C1 H1 1_555 1_555
C2 C1 1_555 1_555
C3 C2 1_555 1_555
C4 O1 1_555 1_555
H2 C4 1_555 1_555
H3 C4 1_555 1_555
C5 N1 1_555 1_555
C6 C5 1_555 1_555
H4 C6 1_555 1_555
C7 C6 1_555 1_555
H5 C7 1_555 1_555
C8 C7 1_555 1_555
H6 C8 1_555 1_555
C9 C8 1_555 1_555
H7 C9 1_555 1_555
C10 C5 1_555 1_555
H8 C10 1_555 1_555
C11 C1 1_555 1_555
C12 C11 1_555 1_555
H9 C12 1_555 1_555
C13 C12 1_555 1_555
H10 C13 1_555 1_555
C14 C13 1_555 1_555
H11 C14 1_555 1_555
C15 C14 1_555 1_555
H12 C15 1_555 1_555
C16 C11 1_555 1_555
H13 C16 1_555 1_555
C17 C2 1_555 1_555
C18 O5 1_555 1_555
H14 C18 1_555 1_555
H15 C18 1_555 1_555
H16 C18 1_555 1_555
C19 C2 1_555 1_555
C20 O3 1_555 1_555
H17 C20 1_555 1_555
H18 C20 1_555 1_555
H19 C20 1_555 1_555
C21 C3 1_555 1_555
H20 C21 1_555 1_555
C22 C21 1_555 1_555
C23 C22 1_555 1_555
H21 C23 1_555 1_555
C24 C23 1_555 1_555
H22 C24 1_555 1_555
C25 C24 1_555 1_555
H23 C25 1_555 1_555
C26 C25 1_555 1_555
H24 C26 1_555 1_555
C27 C22 1_555 1_555
H25 C27 1_555 1_555
C3 C4 1_555 1_555
C9 C10 1_555 1_555
C15 C16 1_555 1_555
C26 C27 1_555 1_555

#END
