
#######################################################################
#
#                 Cambridge Crystallographic Data Centre
#                                CCDC 
#
#######################################################################
#
# If this CIF has been generated from an entry in the Cambridge 
# Structural Database, then it will include bibliographic, chemical, 
# crystal, experimental, refinement or atomic coordinate data resulting 
# from the CCDC's data processing and validation procedures.
#
#######################################################################

data_SONHOT
_chemical_name_common            
2-Amino-5-(phenylsulfonyl)-2-cyclohexene-1,1,3-tricarbonitrile
_chemical_formula_moiety         'C15 H12 N4 O2 S1'
_chemical_name_systematic        
trans-2-Amino-5-(phenylsulfonyl)cyclohex-2-ene-1,1,3-tricarbonitrile
_symmetry_cell_setting           orthorhombic
_symmetry_space_group_name_H-M   'P b c a'
_symmetry_Int_Tables_number      61
_space_group_name_Hall           '-P 2ac 2ab'
loop_
_symmetry_equiv_pos_site_id
_symmetry_equiv_pos_as_xyz
1 x,y,z
2 1/2+x,1/2-y,-z
3 -x,1/2+y,1/2-z
4 1/2-x,-y,1/2+z
5 -x,-y,-z
6 1/2-x,1/2+y,z
7 x,1/2-y,1/2+z
8 1/2+x,y,1/2-z
_cell_length_a                   22.477(6)
_cell_length_b                   21.042(6)
_cell_length_c                   6.398(5)
_cell_angle_alpha                90
_cell_angle_beta                 90
_cell_angle_gamma                90
_cell_volume                     3026
_exptl_crystal_colour            colorless
_exptl_crystal_description       prismatic
_cell_formula_units_Z            8
loop_
_atom_site_label
_atom_site_type_symbol
_atom_site_fract_x
_atom_site_fract_y
_atom_site_fract_z
S1 S 0.30310(2) 0.95459(3) 0.13850(9)
O1 O 0.34083(7) 0.95340(7) -0.0428(2)
O2 O 0.27523(7) 1.01302(7) 0.1973(3)
N1 N 0.49201(9) 0.88320(9) 0.7533(3)
N2 N 0.46955(9) 1.04899(9) 0.8408(3)
N3 N 0.50913(9) 0.77714(10) 0.3147(3)
N4 N 0.3583(1) 0.77829(10) 0.7055(4)
C1 C 0.42571(9) 0.85071(9) 0.4709(3)
C2 C 0.45085(9) 0.90320(10) 0.6110(3)
C3 C 0.42968(9) 0.96289(10) 0.5947(3)
C4 C 0.38298(10) 0.9847(1) 0.4399(4)
C5 C 0.34774(9) 0.92872(10) 0.3574(3)
C6 C 0.38938(9) 0.87668(10) 0.2843(3)
C7 C 0.45191(10) 1.0102(1) 0.7332(3)
C8 C 0.47447(10) 0.8099(1) 0.3845(4)
C9 C 0.3882(1) 0.8092(1) 0.6032(4)
C10 C 0.24747(9) 0.89581(9) 0.1096(3)
C11 C 0.2012(1) 0.8931(1) 0.2519(4)
C12 C 0.1557(1) 0.8498(1) 0.2152(5)
C13 C 0.1573(1) 0.8112(1) 0.0437(5)
C14 C 0.2039(1) 0.8141(1) -0.0935(5)
C15 C 0.2493(1) 0.8568(1) -0.0604(4)
H1 H 0.4016 1.0079 0.3140
H2 H 0.3583 1.0130 0.5122
H3 H 0.3195 0.9100 0.4740
H4 H 0.3710 0.8395 0.2144
H5 H 0.4146 0.8938 0.1798
H6 H 0.2011 0.9212 0.3784
H7 H 0.1203 0.8466 0.3318
H8 H 0.1205 0.7839 0.0125
H9 H 0.2052 0.7817 -0.2323
H10 H 0.2837 0.8586 -0.1309
H11 H 0.5022 0.8383 0.7676
H12 H 0.5019 0.9101 0.8712
loop_
_geom_bond_atom_site_label_1
_geom_bond_atom_site_label_2
_geom_bond_site_symmetry_1
_geom_bond_site_symmetry_2
S1 O1 1_555 1_555
O2 S1 1_555 1_555
N1 C2 1_555 1_555
N2 C7 1_555 1_555
N3 C8 1_555 1_555
N4 C9 1_555 1_555
C1 C2 1_555 1_555
C2 C3 1_555 1_555
C3 C4 1_555 1_555
C4 C5 1_555 1_555
C5 S1 1_555 1_555
C6 C1 1_555 1_555
C7 C3 1_555 1_555
C8 C1 1_555 1_555
C9 C1 1_555 1_555
C10 S1 1_555 1_555
C11 C10 1_555 1_555
C12 C11 1_555 1_555
C13 C12 1_555 1_555
C14 C13 1_555 1_555
C15 C10 1_555 1_555
H1 C4 1_555 1_555
H2 C4 1_555 1_555
H3 C5 1_555 1_555
H4 C6 1_555 1_555
H5 C6 1_555 1_555
H6 C11 1_555 1_555
H7 C12 1_555 1_555
H8 C13 1_555 1_555
H9 C14 1_555 1_555
H10 C15 1_555 1_555
H11 N1 1_555 1_555
H12 N1 1_555 1_555
C5 C6 1_555 1_555
C14 C15 1_555 1_555

#END
