
#######################################################################
#
#                 Cambridge Crystallographic Data Centre
#                                CCDC 
#
#######################################################################
#
# If this CIF has been generated from an entry in the Cambridge 
# Structural Database, then it will include bibliographic, chemical, 
# crystal, experimental, refinement or atomic coordinate data resulting 
# from the CCDC's data processing and validation procedures.
#
#######################################################################

data_SONKUC
_chemical_formula_moiety         'C56 Cl10'
_chemical_name_systematic        Decachloro-C56fullerene
_symmetry_cell_setting           orthorhombic
_symmetry_space_group_name_H-M   'C m c m'
_symmetry_Int_Tables_number      63
_space_group_name_Hall           '-C 2n 2'
loop_
_symmetry_equiv_pos_site_id
_symmetry_equiv_pos_as_xyz
1 x,y,z
2 -x,-y,1/2+z
3 -x,y,1/2-z
4 x,-y,-z
5 1/2+x,1/2+y,z
6 1/2-x,1/2-y,1/2+z
7 1/2-x,1/2+y,1/2-z
8 1/2+x,1/2-y,-z
9 -x,-y,-z
10 x,y,1/2-z
11 x,-y,1/2+z
12 -x,y,z
13 1/2-x,1/2-y,-z
14 1/2+x,1/2+y,1/2-z
15 1/2+x,1/2-y,1/2+z
16 1/2-x,1/2+y,z
_cell_length_a                   18.7599(13)
_cell_length_b                   13.4186(9)
_cell_length_c                   13.8694(8)
_cell_angle_alpha                90
_cell_angle_beta                 90
_cell_angle_gamma                90
_cell_volume                     3491.37
_exptl_crystal_colour            'dark red'
_exptl_crystal_description       prism
_cell_formula_units_Z            2
_exptl_crystal_recrystallization_method 'carbon disulfide'
loop_
_atom_site_label
_atom_site_type_symbol
_atom_site_fract_x
_atom_site_fract_y
_atom_site_fract_z
Cl1 Cl 0.17165(5) 0.14337(7) 0.43798(5)
Cl2 Cl 0.26402(5) 0.08380(6) 0.61694(6)
Cl3 Cl 0.0000 0.27456(10) 0.36362(8)
C1 C 0.06421(17) 0.0654(2) 0.6499(2)
C2 C 0.06355(17) 0.1266(2) 0.5679(2)
C3 C 0.18105(17) 0.1417(2) 0.6437(2)
C4 C 0.13771(18) 0.4040(2) 0.6981(2)
C5 C 0.16121(17) 0.3192(2) 0.6498(2)
C6 C 0.13501(18) 0.1748(2) 0.5528(2)
C7 C 0.0000 0.1673(3) 0.5336(3)
C8 C 0.13055(17) 0.0764(2) 0.7009(2)
C9 C 0.0371(3) 0.4888(3) 0.7500
C10 C 0.03909(17) 0.4173(2) 0.5870(2)
C11 C 0.19008(16) 0.2374(2) 0.7012(2)
C12 C 0.0000 0.0414(3) 0.6976(3)
C13 C 0.12425(18) 0.2856(2) 0.5649(2)
C14 C 0.0000 0.2737(3) 0.4941(3)
C15 C 0.07583(18) 0.4550(2) 0.6660(2)
C16 C 0.06351(18) 0.3306(2) 0.5363(2)
Cl1B Cl -0.17165(5) 0.14337(7) 1.06202(5)
Cl1I Cl 0.17165(5) 0.14337(7) 1.06202(5)
Cl1K Cl -0.17165(5) 0.14337(7) 0.43798(5)
Cl2B Cl -0.26402(5) 0.08380(6) 0.88306(6)
Cl2I Cl 0.26402(5) 0.08380(6) 0.88306(6)
Cl2K Cl -0.26402(5) 0.08380(6) 0.61694(6)
Cl3B Cl 0.0000 0.27456(10) 1.13638(8)
C1B C -0.06421(17) 0.0654(2) 0.8501(2)
C1I C 0.06421(17) 0.0654(2) 0.8501(2)
C1K C -0.06421(17) 0.0654(2) 0.6499(2)
C2B C -0.06355(17) 0.1266(2) 0.9321(2)
C2I C 0.06355(17) 0.1266(2) 0.9321(2)
C2K C -0.06355(17) 0.1266(2) 0.5679(2)
C3B C -0.18105(17) 0.1417(2) 0.8563(2)
C3I C 0.18105(17) 0.1417(2) 0.8563(2)
C3K C -0.18105(17) 0.1417(2) 0.6437(2)
C4B C -0.13771(18) 0.4040(2) 0.8019(2)
C4I C 0.13771(18) 0.4040(2) 0.8019(2)
C4K C -0.13771(18) 0.4040(2) 0.6981(2)
C5B C -0.16121(17) 0.3192(2) 0.8502(2)
C5I C 0.16121(17) 0.3192(2) 0.8502(2)
C5K C -0.16121(17) 0.3192(2) 0.6498(2)
C6B C -0.13501(18) 0.1748(2) 0.9472(2)
C6I C 0.13501(18) 0.1748(2) 0.9472(2)
C6K C -0.13501(18) 0.1748(2) 0.5528(2)
C7B C 0.0000 0.1673(3) 0.9664(3)
C8B C -0.13055(17) 0.0764(2) 0.7991(2)
C8I C 0.13055(17) 0.0764(2) 0.7991(2)
C8K C -0.13055(17) 0.0764(2) 0.7009(2)
C9B C -0.0371(3) 0.4888(3) 0.7500
C10B C -0.03909(17) 0.4173(2) 0.9130(2)
C10I C 0.03909(17) 0.4173(2) 0.9130(2)
C10K C -0.03909(17) 0.4173(2) 0.5870(2)
C11B C -0.19008(16) 0.2374(2) 0.7988(2)
C11I C 0.19008(16) 0.2374(2) 0.7988(2)
C11K C -0.19008(16) 0.2374(2) 0.7012(2)
C12B C 0.0000 0.0414(3) 0.8024(3)
C13B C -0.12425(18) 0.2856(2) 0.9351(2)
C13I C 0.12425(18) 0.2856(2) 0.9351(2)
C13K C -0.12425(18) 0.2856(2) 0.5649(2)
C14B C 0.0000 0.2737(3) 1.0059(3)
C15B C -0.07583(18) 0.4550(2) 0.8340(2)
C15I C 0.07583(18) 0.4550(2) 0.8340(2)
C15K C -0.07583(18) 0.4550(2) 0.6660(2)
C16B C -0.06351(18) 0.3306(2) 0.9637(2)
C16I C 0.06351(18) 0.3306(2) 0.9637(2)
C16K C -0.06351(18) 0.3306(2) 0.5363(2)
loop_
_geom_bond_atom_site_label_1
_geom_bond_atom_site_label_2
_geom_bond_site_symmetry_1
_geom_bond_site_symmetry_2
Cl1 C6 1_555 1_555
Cl2 C3 1_555 1_555
Cl3 C14 1_555 1_555
C1 C2 1_555 1_555
C2 C6 1_555 1_555
C3 C6 1_555 1_555
C4 C5 1_555 1_555
C5 C11 1_555 1_555
C6 C13 1_555 1_555
C7 C2 1_555 1_555
C8 C1 1_555 1_555
C9 C15 1_555 1_555
C10 C15 1_555 1_555
C11 C3 1_555 1_555
C12 C1 1_555 1_555
C13 C5 1_555 1_555
C14 C7 1_555 1_555
C15 C4 1_555 1_555
C16 C10 1_555 1_555
Cl1B C6B 1_555 1_555
Cl1I C6I 1_555 1_555
Cl1K C6K 1_555 1_555
Cl2B C3B 1_555 1_555
Cl2I C3I 1_555 1_555
Cl2K C3K 1_555 1_555
Cl3B C14B 1_555 1_555
C1B C2B 1_555 1_555
C1I C2I 1_555 1_555
C1K C12 1_555 1_555
C2B C6B 1_555 1_555
C2I C6I 1_555 1_555
C2K C7 1_555 1_555
C3B C6B 1_555 1_555
C3I C6I 1_555 1_555
C3K C6K 1_555 1_555
C4B C4K 1_555 1_555
C4I C4 1_555 1_555
C4K C5K 1_555 1_555
C5B C4B 1_555 1_555
C5I C4I 1_555 1_555
C5K C11K 1_555 1_555
C6B C13B 1_555 1_555
C6I C13I 1_555 1_555
C6K C2K 1_555 1_555
C7B C2B 1_555 1_555
C8B C1B 1_555 1_555
C8I C8 1_555 1_555
C8K C1K 1_555 1_555
C9B C9 1_555 1_555
C10B C10I 1_555 1_555
C10I C15I 1_555 1_555
C10K C10 1_555 1_555
C11B C3B 1_555 1_555
C11I C11 1_555 1_555
C11K C3K 1_555 1_555
C12B C12 1_555 1_555
C13B C5B 1_555 1_555
C13I C5I 1_555 1_555
C13K C5K 1_555 1_555
C14B C7B 1_555 1_555
C15B C4B 1_555 1_555
C15I C9 1_555 1_555
C15K C4K 1_555 1_555
C16B C10B 1_555 1_555
C16I C10I 1_555 1_555
C16K C14 1_555 1_555
C3 C8 1_555 1_555
C13 C16 1_555 1_555
C14 C16 1_555 1_555
C1B C12B 1_555 1_555
C1I C8I 1_555 1_555
C1I C12B 1_555 1_555
C1K C2K 1_555 1_555
C2I C7B 1_555 1_555
C3B C8B 1_555 1_555
C3I C8I 1_555 1_555
C3I C11I 1_555 1_555
C3K C8K 1_555 1_555
C4I C15I 1_555 1_555
C5B C11B 1_555 1_555
C5I C11I 1_555 1_555
C6K C13K 1_555 1_555
C8B C8K 1_555 1_555
C9B C15B 1_555 1_555
C9B C15K 1_555 1_555
C10B C15B 1_555 1_555
C10K C15K 1_555 1_555
C10K C16K 1_555 1_555
C11B C11K 1_555 1_555
C13B C16B 1_555 1_555
C13I C16I 1_555 1_555
C13K C16K 1_555 1_555
C14B C16B 1_555 1_555
C14B C16I 1_555 1_555

#END
