
#######################################################################
#
#                 Cambridge Crystallographic Data Centre
#                                CCDC 
#
#######################################################################
#
# If this CIF has been generated from an entry in the Cambridge 
# Structural Database, then it will include bibliographic, chemical, 
# crystal, experimental, refinement or atomic coordinate data resulting 
# from the CCDC's data processing and validation procedures.
#
#######################################################################

data_SONLUD
_chemical_formula_moiety         'C78 H26 Si2'
_chemical_name_systematic        
1,7-bis(Dimethyl(phenyl)silylmethyl)-1,7-dihydro-C60(5,6)fullerene
_symmetry_cell_setting           monoclinic
_symmetry_space_group_name_H-M   'P 21/n'
_symmetry_Int_Tables_number      14
_space_group_name_Hall           '-P 2yn'
loop_
_symmetry_equiv_pos_site_id
_symmetry_equiv_pos_as_xyz
1 x,y,z
2 1/2-x,1/2+y,1/2-z
3 -x,-y,-z
4 1/2+x,1/2-y,1/2+z
_cell_length_a                   10.3603(2)
_cell_length_b                   19.0203(4)
_cell_length_c                   22.6651(5)
_cell_angle_alpha                90
_cell_angle_beta                 97.1369(11)
_cell_angle_gamma                90
_cell_volume                     4431.69
_exptl_crystal_colour            black
_exptl_crystal_description       needle
_chemical_melting_point          '498 K'
_cell_formula_units_Z            4
_exptl_crystal_recrystallization_method 'ethanol/carbon disulfide'
loop_
_atom_site_label
_atom_site_type_symbol
_atom_site_fract_x
_atom_site_fract_y
_atom_site_fract_z
Si1 Si 1.1602(2) 0.14405(10) 0.13765(10)
Si2 Si 0.7763(2) 0.24928(11) -0.07770(11)
C1 C 0.9359(6) 0.2419(3) 0.1497(3)
C2 C 1.0183(7) 0.3011(3) 0.1309(3)
C3 C 0.9875(6) 0.3405(3) 0.0804(3)
C4 C 0.8672(7) 0.3275(3) 0.0362(3)
C5 C 0.7677(7) 0.2909(3) 0.0698(3)
C6 C 0.7979(8) 0.2532(3) 0.1198(3)
C7 C 0.6910(10) 0.2515(4) 0.1538(5)
C8 C 0.5796(8) 0.2944(5) 0.1194(5)
C9 C 0.6374(7) 0.3194(3) 0.0661(3)
C10 C 0.6136(13) 0.3844(5) 0.0418(4)
C11 C 0.7002(16) 0.4322(7) 0.0268(5)
C12 C 0.8193(10) 0.4033(4) 0.0257(4)
C13 C 0.9275(14) 0.4550(4) 0.0476(5)
C14 C 1.0358(7) 0.4116(3) 0.0822(4)
C15 C 1.1113(8) 0.4326(6) 0.1352(5)
C16 C 1.1331(11) 0.4048(8) 0.1909(7)
C17 C 1.0927(8) 0.3364(4) 0.1877(7)
C18 C 1.0317(9) 0.3044(4) 0.2403(5)
C19 C 0.9316(8) 0.2567(3) 0.2173(3)
C20 C 0.8185(10) 0.2558(4) 0.2408(5)
C21 C 0.6899(16) 0.2554(6) 0.2105(7)
C22 C 0.5968(16) 0.3011(6) 0.2383(8)
C23 C 0.5055(13) 0.3404(9) 0.2059(6)
C24 C 0.4980(12) 0.3333(7) 0.1427(7)
C25 C 0.4692(9) 0.3992(7) 0.1206(6)
C26 C 0.5221(12) 0.4317(6) 0.0737(6)
C27 C 0.5644(17) 0.5010(9) 0.0744(7)
C28 C 0.6756(17) 0.5058(5) 0.0458(4)
C29 C 0.7818(14) 0.5457(6) 0.0628(5)
C30 C 0.9093(16) 0.5220(8) 0.0663(7)
C31 C 1.0031(17) 0.5389(7) 0.1155(9)
C32 C 1.0950(15) 0.5054(9) 0.1533(6)
C33 C 1.0844(12) 0.5183(6) 0.2150(8)
C34 C 1.1241(11) 0.4495(9) 0.2417(5)
C35 C 1.0670(11) 0.4155(5) 0.2894(5)
C36 C 1.0187(17) 0.3451(7) 0.2874(7)
C37 C 0.905(2) 0.3442(6) 0.3145(5)
C38 C 0.8045(15) 0.3001(6) 0.2929(5)
C39 C 0.6744(16) 0.3255(6) 0.2891(6)
C40 C 0.6522(11) 0.3910(4) 0.3075(4)
C41 C 0.5592(8) 0.4371(4) 0.2765(4)
C42 C 0.4867(10) 0.4113(8) 0.2270(5)
C43 C 0.4545(11) 0.4458(6) 0.1740(7)
C44 C 0.5006(8) 0.5139(4) 0.1759(6)
C45 C 0.5549(13) 0.5414(6) 0.1198(6)
C46 C 0.6674(10) 0.5917(3) 0.1418(4)
C47 C 0.7878(15) 0.5957(3) 0.1194(5)
C48 C 0.9193(16) 0.5871(8) 0.1409(7)
C49 C 0.9048(10) 0.5996(4) 0.2012(6)
C50 C 1.0077(11) 0.5563(5) 0.2392(7)
C51 C 0.9593(9) 0.5287(4) 0.2944(4)
C52 C 0.9792(9) 0.4624(4) 0.3182(4)
C53 C 0.8759(17) 0.4247(9) 0.3352(5)
C54 C 0.7655(13) 0.4380(7) 0.3297(5)
C55 C 0.7360(11) 0.5134(4) 0.3086(4)
C56 C 0.6053(9) 0.5081(4) 0.2771(4)
C57 C 0.5756(8) 0.5488(4) 0.2252(4)
C58 C 0.6708(8) 0.5929(3) 0.2054(3)
C59 C 0.7975(9) 0.5972(3) 0.2359(4)
C60 C 0.8297(9) 0.5581(4) 0.2879(3)
C61 C 0.9854(7) 0.1653(3) 0.1404(3)
C62 C 1.2724(8) 0.1817(3) 0.2001(3)
C63 C 1.1694(8) 0.0461(3) 0.1375(3)
C64 C 1.1991(7) 0.1787(3) 0.0642(3)
C65 C 1.1649(8) 0.1414(4) 0.0125(4)
C66 C 1.1833(9) 0.1659(4) -0.0423(4)
C67 C 1.2395(8) 0.2315(4) -0.0471(4)
C68 C 1.2775(8) 0.2706(4) 0.0029(4)
C69 C 1.2573(7) 0.2435(3) 0.0588(4)
C70 C 0.9038(7) 0.2901(3) -0.0206(3)
C71 C 0.8631(8) 0.2180(4) -0.1396(3)
C72 C 0.6461(8) 0.3107(4) -0.1078(3)
C73 C 0.7088(7) 0.1732(3) -0.0407(3)
C74 C 0.7863(9) 0.1177(4) -0.0207(4)
C75 C 0.7397(11) 0.0628(4) 0.0137(4)
C76 C 0.6167(12) 0.0641(5) 0.0275(4)
C77 C 0.5352(9) 0.1200(5) 0.0072(4)
C78 C 0.5783(9) 0.1725(4) -0.0260(4)
H1 H 0.9373 0.1480 0.1027
H2 H 0.9566 0.1362 0.1726
H3 H 1.3003 0.2287 0.1890
H4 H 1.3487 0.1512 0.2085
H5 H 1.2274 0.1852 0.2355
H6 H 1.1857 0.0290 0.1785
H7 H 1.2404 0.0311 0.1156
H8 H 1.0870 0.0268 0.1184
H9 H 1.1266 0.0963 0.0152
H10 H 1.1581 0.1384 -0.0768
H11 H 1.2516 0.2495 -0.0851
H12 H 1.3170 0.3153 -0.0002
H13 H 1.2842 0.2702 0.0935
H14 H 0.9663 0.2524 -0.0069
H15 H 0.9519 0.3248 -0.0420
H16 H 0.8650 0.2556 -0.1690
H17 H 0.8177 0.1770 -0.1584
H18 H 0.9523 0.2049 -0.1240
H19 H 0.5753 0.3091 -0.0829
H20 H 0.6129 0.2969 -0.1485
H21 H 0.6812 0.3585 -0.1079
H22 H 0.8731 0.1158 -0.0300
H23 H 0.7956 0.0249 0.0270
H24 H 0.5858 0.0276 0.0507
H25 H 0.4485 0.1212 0.0168
H26 H 0.5207 0.2096 -0.0397
loop_
_geom_bond_atom_site_label_1
_geom_bond_atom_site_label_2
_geom_bond_site_symmetry_1
_geom_bond_site_symmetry_2
Si1 C61 1_555 1_555
Si2 C70 1_555 1_555
C1 C2 1_555 1_555
C2 C3 1_555 1_555
C3 C4 1_555 1_555
C4 C5 1_555 1_555
C5 C6 1_555 1_555
C6 C1 1_555 1_555
C7 C6 1_555 1_555
C8 C7 1_555 1_555
C9 C5 1_555 1_555
C10 C9 1_555 1_555
C11 C10 1_555 1_555
C12 C4 1_555 1_555
C13 C12 1_555 1_555
C14 C3 1_555 1_555
C15 C14 1_555 1_555
C16 C15 1_555 1_555
C17 C2 1_555 1_555
C18 C17 1_555 1_555
C19 C1 1_555 1_555
C20 C19 1_555 1_555
C21 C7 1_555 1_555
C22 C21 1_555 1_555
C23 C22 1_555 1_555
C24 C8 1_555 1_555
C25 C24 1_555 1_555
C26 C10 1_555 1_555
C27 C26 1_555 1_555
C28 C11 1_555 1_555
C29 C28 1_555 1_555
C30 C13 1_555 1_555
C31 C30 1_555 1_555
C32 C15 1_555 1_555
C33 C32 1_555 1_555
C34 C16 1_555 1_555
C35 C34 1_555 1_555
C36 C18 1_555 1_555
C37 C36 1_555 1_555
C38 C20 1_555 1_555
C39 C22 1_555 1_555
C40 C39 1_555 1_555
C41 C40 1_555 1_555
C42 C23 1_555 1_555
C43 C25 1_555 1_555
C44 C43 1_555 1_555
C45 C27 1_555 1_555
C46 C45 1_555 1_555
C47 C29 1_555 1_555
C48 C31 1_555 1_555
C49 C48 1_555 1_555
C50 C33 1_555 1_555
C51 C50 1_555 1_555
C52 C35 1_555 1_555
C53 C37 1_555 1_555
C54 C40 1_555 1_555
C55 C54 1_555 1_555
C56 C41 1_555 1_555
C57 C44 1_555 1_555
C58 C46 1_555 1_555
C59 C49 1_555 1_555
C60 C51 1_555 1_555
C61 C1 1_555 1_555
C62 Si1 1_555 1_555
C63 Si1 1_555 1_555
C64 Si1 1_555 1_555
C65 C64 1_555 1_555
C66 C65 1_555 1_555
C67 C66 1_555 1_555
C68 C67 1_555 1_555
C69 C64 1_555 1_555
C70 C4 1_555 1_555
C71 Si2 1_555 1_555
C72 Si2 1_555 1_555
C73 Si2 1_555 1_555
C74 C73 1_555 1_555
C75 C74 1_555 1_555
C76 C75 1_555 1_555
C77 C76 1_555 1_555
C78 C73 1_555 1_555
H1 C61 1_555 1_555
H2 C61 1_555 1_555
H3 C62 1_555 1_555
H4 C62 1_555 1_555
H5 C62 1_555 1_555
H6 C63 1_555 1_555
H7 C63 1_555 1_555
H8 C63 1_555 1_555
H9 C65 1_555 1_555
H10 C66 1_555 1_555
H11 C67 1_555 1_555
H12 C68 1_555 1_555
H13 C69 1_555 1_555
H14 C70 1_555 1_555
H15 C70 1_555 1_555
H16 C71 1_555 1_555
H17 C71 1_555 1_555
H18 C71 1_555 1_555
H19 C72 1_555 1_555
H20 C72 1_555 1_555
H21 C72 1_555 1_555
H22 C74 1_555 1_555
H23 C75 1_555 1_555
H24 C76 1_555 1_555
H25 C77 1_555 1_555
H26 C78 1_555 1_555
C8 C9 1_555 1_555
C11 C12 1_555 1_555
C13 C14 1_555 1_555
C16 C17 1_555 1_555
C18 C19 1_555 1_555
C20 C21 1_555 1_555
C23 C24 1_555 1_555
C25 C26 1_555 1_555
C27 C28 1_555 1_555
C29 C30 1_555 1_555
C31 C32 1_555 1_555
C33 C34 1_555 1_555
C35 C36 1_555 1_555
C37 C38 1_555 1_555
C38 C39 1_555 1_555
C41 C42 1_555 1_555
C42 C43 1_555 1_555
C44 C45 1_555 1_555
C46 C47 1_555 1_555
C47 C48 1_555 1_555
C49 C50 1_555 1_555
C51 C52 1_555 1_555
C52 C53 1_555 1_555
C53 C54 1_555 1_555
C55 C56 1_555 1_555
C55 C60 1_555 1_555
C56 C57 1_555 1_555
C57 C58 1_555 1_555
C58 C59 1_555 1_555
C59 C60 1_555 1_555
C68 C69 1_555 1_555
C77 C78 1_555 1_555

#END
