
#######################################################################
#
#                 Cambridge Crystallographic Data Centre
#                                CCDC 
#
#######################################################################
#
# If this CIF has been generated from an entry in the Cambridge 
# Structural Database, then it will include bibliographic, chemical, 
# crystal, experimental, refinement or atomic coordinate data resulting 
# from the CCDC's data processing and validation procedures.
#
#######################################################################

data_SONMIT
_chemical_formula_moiety         'C22 H26 N6 O4'
_chemical_name_systematic        
N,1-dibutyl-N',3-bis(4-nitrophenyl)-1,3-diazetidine-2,4-diimine
_symmetry_cell_setting           triclinic
_symmetry_space_group_name_H-M   'P -1'
_symmetry_Int_Tables_number      2
_space_group_name_Hall           '-P 1'
loop_
_symmetry_equiv_pos_site_id
_symmetry_equiv_pos_as_xyz
1 x,y,z
2 -x,-y,-z
_cell_length_a                   9.3830(6)
_cell_length_b                   11.5671(8)
_cell_length_c                   11.8220(8)
_cell_angle_alpha                82.403(5)
_cell_angle_beta                 77.878(5)
_cell_angle_gamma                69.245(6)
_cell_volume                     1170.72
_exptl_crystal_colour            'light yellow'
_exptl_crystal_description       prism
_cell_formula_units_Z            2
loop_
_atom_site_label
_atom_site_type_symbol
_atom_site_fract_x
_atom_site_fract_y
_atom_site_fract_z
O1 O 1.3090(3) 0.1995(2) -0.2158(3)
O2 O 1.3009(3) 0.1140(2) -0.0439(3)
O3 O 0.0929(3) 0.7508(3) 0.6671(2)
O4 O 0.0080(4) 0.6136(3) 0.6317(3)
N1 N 0.6749(3) 0.5562(2) 0.02488(19)
N2 N 1.2446(3) 0.1944(3) -0.1155(3)
N3 N 0.5816(3) 0.5313(2) 0.2299(2)
N4 N 0.0999(4) 0.6690(3) 0.6102(2)
N5 N 0.4699(3) 0.6832(2) 0.07733(19)
N6 N 0.5865(3) 0.7016(2) -0.1325(2)
C1 C 0.5739(3) 0.6603(3) -0.0303(3)
C2 C 0.5713(3) 0.5830(3) 0.1308(2)
C3 C 0.8155(3) 0.4657(2) -0.0109(2)
C4 C 0.8945(3) 0.4727(2) -0.1224(2)
H1 H 0.8531 0.5380 -0.1741
C5 C 1.0340(3) 0.3837(3) -0.1570(2)
H2 H 1.0869 0.3875 -0.2325
C6 C 1.0956(3) 0.2883(2) -0.0792(3)
C7 C 1.0185(3) 0.2808(3) 0.0325(3)
H3 H 1.0615 0.2163 0.0843
C8 C 0.8782(3) 0.3688(2) 0.0671(2)
H4 H 0.8249 0.3640 0.1424
C9 C 0.4590(3) 0.5702(3) 0.3237(2)
C10 C 0.4595(4) 0.6495(3) 0.3999(3)
H5 H 0.5404 0.6808 0.3888
C11 C 0.3410(4) 0.6829(3) 0.4928(3)
H6 H 0.3400 0.7385 0.5433
C12 C 0.2251(3) 0.6344(3) 0.5104(2)
C13 C 0.2244(4) 0.5527(3) 0.4375(3)
H7 H 0.1458 0.5186 0.4514
C14 C 0.3409(4) 0.5213(3) 0.3434(3)
H8 H 0.3404 0.4666 0.2925
C15 C 0.3722(5) 0.8070(4) 0.1251(4)
H9 H 0.3993 0.8120 0.1987
H10 H 0.3942 0.8725 0.0721
C16 C 0.2026(5) 0.8261(5) 0.1424(5)
H11 H 0.1825 0.7534 0.1830
H12 H 0.1699 0.8387 0.0678
C17 C 0.1112(9) 0.9407(9) 0.2137(7)
H13 H 0.1385 0.9247 0.2904
H14 H 0.1395 1.0112 0.1764
C18 C -0.0586(7) 0.9705(7) 0.2246(8)
H15 H -0.0898 1.0069 0.1520
H16 H -0.1119 1.0278 0.2838
H17 H -0.0836 0.8959 0.2448
C19 C 0.4562(14) 0.8001(11) -0.1763(10)
H18 H 0.3708 0.7697 -0.1708
H19 H 0.4208 0.8705 -0.1288
C20 C 0.5034(9) 0.8395(8) -0.2976(7)
H20 H 0.4166 0.9049 -0.3240
H21 H 0.5323 0.7702 -0.3458
C21 C 0.6448(9) 0.8878(7) -0.3118(7)
H22 H 0.6173 0.9512 -0.2573
H23 H 0.7320 0.8196 -0.2894
C22 C 0.6942(11) 0.9369(9) -0.4225(8)
H24 H 0.6672 0.9014 -0.4805
H25 H 0.8044 0.9175 -0.4354
H26 H 0.6445 1.0252 -0.4271
C23? C 0.3050(11) 0.7564(8) 0.1152(9)
H27? H 0.2509 0.7713 0.0504
H28? H 0.2591 0.7085 0.1758
C24? C 0.2834(11) 0.8744(9) 0.1582(9)
H29? H 0.3395 0.9198 0.1029
H30? H 0.3198 0.8620 0.2313
C25? C 0.0996(16) 0.9487(17) 0.1753(12)
H31? H 0.0791 1.0374 0.1691
H32? H 0.0547 0.9286 0.1169
C26? C 0.0308(14) 0.9068(11) 0.2979(10)
H33? H 0.0529 0.8189 0.3028
H34? H -0.0792 0.9482 0.3125
H35? H 0.0762 0.9276 0.3546
C27? C 0.482(2) 0.8261(17) -0.1609(16)
H36? H 0.3807 0.8211 -0.1606
H37? H 0.4703 0.8793 -0.1003
C28? C 0.5281(18) 0.8802(13) -0.2648(11)
H38? H 0.5689 0.9394 -0.2445
H39? H 0.4321 0.9296 -0.2912
C29? C 0.6310(13) 0.8308(11) -0.3683(10)
H40? H 0.7122 0.7656 -0.3352
H41? H 0.5731 0.7874 -0.3938
C30? C 0.7145(17) 0.8574(15) -0.4734(11)
H42? H 0.6446 0.9123 -0.5214
H43? H 0.7727 0.7821 -0.5113
H44? H 0.7841 0.8963 -0.4604
loop_
_geom_bond_atom_site_label_1
_geom_bond_atom_site_label_2
_geom_bond_site_symmetry_1
_geom_bond_site_symmetry_2
O1 N2 1_555 1_555
O2 N2 1_555 1_555
O3 N4 1_555 1_555
O4 N4 1_555 1_555
N1 C1 1_555 1_555
N2 C6 1_555 1_555
N3 C2 1_555 1_555
N4 C12 1_555 1_555
N5 C1 1_555 1_555
N6 C1 1_555 1_555
C2 N1 1_555 1_555
C3 N1 1_555 1_555
C4 C3 1_555 1_555
H1 C4 1_555 1_555
C5 C4 1_555 1_555
H2 C5 1_555 1_555
C6 C5 1_555 1_555
C7 C6 1_555 1_555
H3 C7 1_555 1_555
C8 C3 1_555 1_555
H4 C8 1_555 1_555
C9 N3 1_555 1_555
C10 C9 1_555 1_555
H5 C10 1_555 1_555
C11 C10 1_555 1_555
H6 C11 1_555 1_555
C12 C11 1_555 1_555
C13 C12 1_555 1_555
H7 C13 1_555 1_555
C14 C9 1_555 1_555
H8 C14 1_555 1_555
C15 N5 1_555 1_555
H9 C15 1_555 1_555
H10 C15 1_555 1_555
C16 C15 1_555 1_555
H11 C16 1_555 1_555
H12 C16 1_555 1_555
C17 C16 1_555 1_555
H13 C17 1_555 1_555
H14 C17 1_555 1_555
C18 C17 1_555 1_555
H15 C18 1_555 1_555
H16 C18 1_555 1_555
H17 C18 1_555 1_555
C19 N6 1_555 1_555
H18 C19 1_555 1_555
H19 C19 1_555 1_555
C20 C19 1_555 1_555
H20 C20 1_555 1_555
H21 C20 1_555 1_555
C21 C20 1_555 1_555
H22 C21 1_555 1_555
H23 C21 1_555 1_555
C22 C21 1_555 1_555
H24 C22 1_555 1_555
H25 C22 1_555 1_555
H26 C22 1_555 1_555
N5 C2 1_555 1_555
C7 C8 1_555 1_555
C13 C14 1_555 1_555

#END
