
#######################################################################
#
#                 Cambridge Crystallographic Data Centre
#                                CCDC 
#
#######################################################################
#
# If this CIF has been generated from an entry in the Cambridge 
# Structural Database, then it will include bibliographic, chemical, 
# crystal, experimental, refinement or atomic coordinate data resulting 
# from the CCDC's data processing and validation procedures.
#
#######################################################################

data_SONMOZ
_chemical_formula_moiety         'C20 H24 N4 O2 S1'
_chemical_name_systematic        
(2-(t-butylamino)-4-methylquinazolin-3-ium-3-yl)((4-methylphenyl)sulfonyl)amide
_symmetry_cell_setting           triclinic
_symmetry_space_group_name_H-M   'P -1'
_symmetry_Int_Tables_number      2
_space_group_name_Hall           '-P 1'
loop_
_symmetry_equiv_pos_site_id
_symmetry_equiv_pos_as_xyz
1 x,y,z
2 -x,-y,-z
_cell_length_a                   9.4527(6)
_cell_length_b                   11.1088(6)
_cell_length_c                   11.2283(6)
_cell_angle_alpha                62.283(6)
_cell_angle_beta                 78.366(5)
_cell_angle_gamma                71.090(5)
_cell_volume                     985.611
_exptl_crystal_colour            'light yellow'
_exptl_crystal_description       block
_cell_formula_units_Z            2
loop_
_atom_site_label
_atom_site_type_symbol
_atom_site_fract_x
_atom_site_fract_y
_atom_site_fract_z
S1 S -0.07468(4) 0.78237(4) 0.09109(4)
O1 O -0.09273(13) 0.64791(13) 0.11771(13)
O2 O -0.17481(15) 0.90900(14) 0.00362(14)
N1 N 0.38676(14) 0.52217(14) 0.23861(13)
N2 N 0.20035(14) 0.66919(14) 0.07847(12)
N3 N 0.09095(15) 0.79853(14) 0.02889(13)
N4 N 0.27120(15) 0.75326(14) 0.20545(13)
H1 H 0.2081 0.8306 0.1594
C1 C 0.40834(17) 0.42127(18) 0.19498(16)
C2 C 0.50762(19) 0.28840(19) 0.26137(19)
H2 H 0.5528 0.2687 0.3370
C3 C 0.5379(2) 0.1880(2) 0.2149(2)
H3 H 0.6046 0.1008 0.2589
C4 C 0.4702(2) 0.2143(2) 0.1022(2)
H4 H 0.4932 0.1451 0.0715
C5 C 0.37083(19) 0.34067(19) 0.03721(18)
H5 H 0.3251 0.3571 -0.0369
C6 C 0.33697(17) 0.44725(17) 0.08262(15)
C7 C 0.23040(17) 0.57786(17) 0.02369(15)
C8 C 0.1517(2) 0.6207(2) -0.09818(17)
H6 H 0.0665 0.5827 -0.0715
H7 H 0.2190 0.5852 -0.1579
H8 H 0.1190 0.7217 -0.1435
C9 C 0.29123(16) 0.64402(17) 0.17861(14)
C10 C -0.10150(16) 0.78600(17) 0.25074(16)
C11 C -0.10160(19) 0.90704(17) 0.25873(18)
H9 H -0.0935 0.9878 0.1807
C12 C -0.11381(19) 0.90617(19) 0.38334(18)
H10 H -0.1143 0.9875 0.3884
C13 C -0.12551(17) 0.78667(18) 0.50232(17)
C14 C -0.13073(19) 0.66928(18) 0.49105(18)
H11 H -0.1429 0.5897 0.5688
C15 C -0.11828(18) 0.66739(18) 0.36719(17)
H12 H -0.1211 0.5871 0.3620
C16 C -0.1278(2) 0.7838(2) 0.6381(2)
H13 H -0.2278 0.8258 0.6635
H14 H -0.0616 0.8358 0.6335
H15 H -0.0954 0.6879 0.7038
C17 C 0.34883(17) 0.75292(17) 0.30860(16)
C18 C 0.51760(19) 0.7234(2) 0.27521(19)
H16 H 0.5554 0.6318 0.2760
H17 H 0.5655 0.7264 0.3412
H18 H 0.5381 0.7936 0.1875
C19 C 0.3110(2) 0.6438(2) 0.44764(17)
H19 H 0.2044 0.6648 0.4660
H20 H 0.3575 0.6463 0.5147
H21 H 0.3474 0.5515 0.4497
C20 C 0.2883(2) 0.8997(2) 0.3038(2)
H22 H 0.3070 0.9685 0.2147
H23 H 0.3374 0.9056 0.3672
H24 H 0.1825 0.9176 0.3266
loop_
_geom_bond_atom_site_label_1
_geom_bond_atom_site_label_2
_geom_bond_site_symmetry_1
_geom_bond_site_symmetry_2
S1 O1 1_555 1_555
O2 S1 1_555 1_555
N1 C1 1_555 1_555
N2 N3 1_555 1_555
N3 S1 1_555 1_555
N4 H1 1_555 1_555
C1 C2 1_555 1_555
C2 H2 1_555 1_555
C3 C2 1_555 1_555
H3 C3 1_555 1_555
C4 C3 1_555 1_555
H4 C4 1_555 1_555
C5 C4 1_555 1_555
H5 C5 1_555 1_555
C6 C1 1_555 1_555
C7 N2 1_555 1_555
C8 C7 1_555 1_555
H6 C8 1_555 1_555
H7 C8 1_555 1_555
H8 C8 1_555 1_555
C9 N1 1_555 1_555
C10 S1 1_555 1_555
C11 C10 1_555 1_555
H9 C11 1_555 1_555
C12 C11 1_555 1_555
H10 C12 1_555 1_555
C13 C12 1_555 1_555
C14 C13 1_555 1_555
H11 C14 1_555 1_555
C15 C10 1_555 1_555
H12 C15 1_555 1_555
C16 C13 1_555 1_555
H13 C16 1_555 1_555
H14 C16 1_555 1_555
H15 C16 1_555 1_555
C17 N4 1_555 1_555
C18 C17 1_555 1_555
H16 C18 1_555 1_555
H17 C18 1_555 1_555
H18 C18 1_555 1_555
C19 C17 1_555 1_555
H19 C19 1_555 1_555
H20 C19 1_555 1_555
H21 C19 1_555 1_555
C20 C17 1_555 1_555
H22 C20 1_555 1_555
H23 C20 1_555 1_555
H24 C20 1_555 1_555
N2 C9 1_555 1_555
N4 C9 1_555 1_555
C5 C6 1_555 1_555
C6 C7 1_555 1_555
C14 C15 1_555 1_555

#END
