
#######################################################################
#
#                 Cambridge Crystallographic Data Centre
#                                CCDC 
#
#######################################################################
#
# If this CIF has been generated from an entry in the Cambridge 
# Structural Database, then it will include bibliographic, chemical, 
# crystal, experimental, refinement or atomic coordinate data resulting 
# from the CCDC's data processing and validation procedures.
#
#######################################################################

data_SONNAM
_chemical_formula_moiety         'C25 H18 N2 O4'
_chemical_name_systematic        
3-methyl-1-phenyl-7,8-dihydro-1H-spiro[chromeno[2,3-c]pyrazole-4,2'-indene]-1',3',5(6H)-trione
_symmetry_cell_setting           triclinic
_symmetry_space_group_name_H-M   'P -1'
_symmetry_Int_Tables_number      2
_space_group_name_Hall           '-P 1'
loop_
_symmetry_equiv_pos_site_id
_symmetry_equiv_pos_as_xyz
1 x,y,z
2 -x,-y,-z
_cell_length_a                   8.2667(4)
_cell_length_b                   10.2113(5)
_cell_length_c                   12.2305(6)
_cell_angle_alpha                98.507(2)
_cell_angle_beta                 99.326(2)
_cell_angle_gamma                97.391(2)
_cell_volume                     995.172
_exptl_crystal_description       Needle
_cell_formula_units_Z            2
loop_
_atom_site_label
_atom_site_type_symbol
_atom_site_fract_x
_atom_site_fract_y
_atom_site_fract_z
C1 C 0.3649(3) 0.2021(3) 0.23795(19)
H1 H 0.3619 0.2936 0.2436
C2 C 0.3871(3) 0.1279(3) 0.1386(2)
H2 H 0.3978 0.1696 0.0769
C3 C 0.3934(3) -0.0071(3) 0.1307(2)
H3 H 0.4084 -0.0563 0.0638
C4 C 0.3778(3) -0.0691(3) 0.2209(2)
H4 H 0.3833 -0.1602 0.2154
C5 C 0.3537(3) 0.0032(2) 0.3208(2)
H5 H 0.3421 -0.0391 0.3820
C6 C 0.3472(2) 0.1390(2) 0.32835(17)
C7 C 0.2706(3) 0.1774(2) 0.52148(16)
C8 C 0.2396(3) 0.2849(2) 0.58985(17)
C9 C 0.2700(3) 0.3925(2) 0.53117(18)
C10 C 0.2571(4) 0.5372(2) 0.5644(2)
H6 H 0.2766 0.5843 0.5043
H7 H 0.3382 0.5752 0.6307
H8 H 0.1480 0.5449 0.5796
C11 C 0.1803(3) 0.2702(2) 0.69790(16)
C12 C 0.2927(3) 0.3658(2) 0.80005(18)
C13 C 0.1945(3) 0.4662(2) 0.84403(16)
C14 C 0.2434(3) 0.5725(2) 0.93409(18)
H9 H 0.3519 0.5914 0.9739
C15 C 0.1254(4) 0.6485(2) 0.96207(18)
H10 H 0.1550 0.7196 1.0222
C16 C -0.0359(3) 0.6217(2) 0.90303(19)
H11 H -0.1125 0.6752 0.9239
C17 C -0.0850(3) 0.5170(2) 0.81357(18)
H12 H -0.1934 0.4991 0.7736
C18 C 0.0326(3) 0.4394(2) 0.78541(16)
C19 C 0.0097(3) 0.3183(2) 0.69806(16)
C20 C 0.1706(3) 0.1237(2) 0.71012(16)
C21 C 0.2045(3) 0.0261(2) 0.63474(16)
C22 C 0.1947(3) -0.1178(2) 0.64418(18)
H13 H 0.1419 -0.1717 0.5721
H14 H 0.3063 -0.1385 0.6620
C23 C 0.1022(5) -0.1542(3) 0.7300(3)
H15 H 0.1377 -0.2345 0.7529
H16 H -0.0142 -0.1773 0.6953
C24 C 0.1158(4) -0.0545(2) 0.8314(2)
H17 H 0.2155 -0.0607 0.8833
H18 H 0.0219 -0.0772 0.8671
C25 C 0.1220(3) 0.0876(2) 0.81317(17)
N1 N 0.3179(2) 0.21624(17) 0.42874(14)
N2 N 0.3163(2) 0.35193(18) 0.43466(16)
O1 O 0.2565(2) 0.04797(14) 0.53666(12)
O2 O 0.4345(2) 0.3580(2) 0.83483(16)
O3 O -0.11719(19) 0.26548(15) 0.63556(13)
O4 O 0.0925(3) 0.17463(18) 0.88372(14)
loop_
_geom_bond_atom_site_label_1
_geom_bond_atom_site_label_2
_geom_bond_site_symmetry_1
_geom_bond_site_symmetry_2
C1 H1 1_555 1_555
C2 C1 1_555 1_555
H2 C2 1_555 1_555
C3 C2 1_555 1_555
H3 C3 1_555 1_555
C4 C3 1_555 1_555
H4 C4 1_555 1_555
C5 C4 1_555 1_555
H5 C5 1_555 1_555
C6 C1 1_555 1_555
C7 C8 1_555 1_555
C8 C9 1_555 1_555
C9 C10 1_555 1_555
C10 H6 1_555 1_555
H7 C10 1_555 1_555
H8 C10 1_555 1_555
C11 C8 1_555 1_555
C12 C11 1_555 1_555
C13 C12 1_555 1_555
C14 C13 1_555 1_555
H9 C14 1_555 1_555
C15 C14 1_555 1_555
H10 C15 1_555 1_555
C16 C15 1_555 1_555
H11 C16 1_555 1_555
C17 C16 1_555 1_555
H12 C17 1_555 1_555
C18 C13 1_555 1_555
C19 C11 1_555 1_555
C20 C11 1_555 1_555
C21 C20 1_555 1_555
C22 C21 1_555 1_555
H13 C22 1_555 1_555
H14 C22 1_555 1_555
C23 C22 1_555 1_555
H15 C23 1_555 1_555
H16 C23 1_555 1_555
C24 C23 1_555 1_555
H17 C24 1_555 1_555
H18 C24 1_555 1_555
C25 C20 1_555 1_555
N1 C6 1_555 1_555
N2 C9 1_555 1_555
O1 C7 1_555 1_555
O2 C12 1_555 1_555
O3 C19 1_555 1_555
O4 C25 1_555 1_555
C5 C6 1_555 1_555
C7 N1 1_555 1_555
C17 C18 1_555 1_555
C18 C19 1_555 1_555
C21 O1 1_555 1_555
C24 C25 1_555 1_555
N1 N2 1_555 1_555

#END
