
#######################################################################
#
#                 Cambridge Crystallographic Data Centre
#                                CCDC 
#
#######################################################################
#
# If this CIF has been generated from an entry in the Cambridge 
# Structural Database, then it will include bibliographic, chemical, 
# crystal, experimental, refinement or atomic coordinate data resulting 
# from the CCDC's data processing and validation procedures.
#
#######################################################################

data_SONNEQ
_chemical_formula_moiety         'C9 H17 B10 N1 S1'
_chemical_name_systematic        
N-phenyl-1,2-dicarba-closo-dodecaborane-1-thiocarboxamide
_symmetry_cell_setting           monoclinic
_symmetry_space_group_name_H-M   'P 21/c'
_symmetry_Int_Tables_number      14
_space_group_name_Hall           '-P 2ybc'
loop_
_symmetry_equiv_pos_site_id
_symmetry_equiv_pos_as_xyz
1 x,y,z
2 -x,1/2+y,1/2-z
3 -x,-y,-z
4 x,1/2-y,1/2+z
_cell_length_a                   13.159(3)
_cell_length_b                   21.825(5)
_cell_length_c                   11.630(2)
_cell_angle_alpha                90
_cell_angle_beta                 111.039(3)
_cell_angle_gamma                90
_cell_volume                     3117.42
_exptl_crystal_colour            orange
_exptl_crystal_description       block
_cell_formula_units_Z            8
loop_
_atom_site_label
_atom_site_type_symbol
_atom_site_fract_x
_atom_site_fract_y
_atom_site_fract_z
S1 S 1.04403(5) 0.45646(3) 0.16049(6)
N1 N 1.05312(14) 0.57746(8) 0.18415(18)
B1 B 0.7791(2) 0.54110(14) 0.0919(2)
H1 H 0.7715 0.5441 -0.0070
B2 B 0.8339(2) 0.60124(12) 0.1994(2)
H2 H 0.8624 0.6451 0.1708
B3 B 0.9033(2) 0.56893(12) 0.3462(2)
H3 H 0.9774 0.5912 0.4139
B4 B 0.8920(2) 0.48822(12) 0.3332(2)
H4 H 0.9576 0.4568 0.3911
B5 B 0.7525(2) 0.46924(15) 0.2862(3)
H5 H 0.7256 0.4247 0.3137
B6 B 0.6830(2) 0.50170(17) 0.1388(3)
H6 H 0.6105 0.4788 0.0698
B7 B 0.6943(2) 0.58221(15) 0.1527(3)
H7 H 0.6287 0.6133 0.0933
B8 B 0.7709(2) 0.59986(14) 0.3102(3)
H8 H 0.7560 0.6427 0.3547
B9 B 0.8068(3) 0.52970(14) 0.3928(3)
H9 H 0.8155 0.5261 0.4920
B10 B 0.6776(2) 0.53748(15) 0.2734(3)
H10 H 0.6008 0.5388 0.2940
C1 C 0.90019(15) 0.53295(9) 0.21445(18)
C2 C 0.81359(18) 0.47674(11) 0.1817(2)
C3 C 1.00366(15) 0.52442(9) 0.18581(18)
C4 C 1.15606(15) 0.58579(9) 0.16902(19)
C5 C 1.16175(17) 0.62662(10) 0.0825(2)
H11 H 1.0982 0.6474 0.0312
C6 C 1.2616(2) 0.63739(12) 0.0704(2)
H12 H 1.2666 0.6657 0.0106
C7 C 1.35314(19) 0.60707(12) 0.1448(3)
H13 H 1.4212 0.6140 0.1358
C8 C 1.34613(18) 0.56674(11) 0.2322(3)
H14 H 1.4096 0.5461 0.2840
C9 C 1.24791(18) 0.55595(10) 0.2456(2)
H15 H 1.2434 0.5283 0.3066
H16 H 0.8284(18) 0.4432(10) 0.141(2)
H17 H 1.0214(17) 0.6106(8) 0.189(2)
S2 S 0.14203(5) 0.29480(3) 0.05636(5)
N2 N 0.13177(14) 0.29097(9) 0.28040(18)
B11 B 0.4037(2) 0.26255(12) 0.2730(3)
H18 H 0.3848 0.2170 0.2256
B12 B 0.3818(2) 0.27816(12) 0.4121(2)
H19 H 0.3485 0.2425 0.4581
B13 B 0.3461(2) 0.35607(12) 0.4127(2)
H20 H 0.2894 0.3717 0.4592
B14 B 0.3431(2) 0.39003(11) 0.2739(2)
H21 H 0.2845 0.4274 0.2271
B15 B 0.4774(2) 0.38667(14) 0.2715(3)
H22 H 0.5080 0.4224 0.2229
B16 B 0.5141(2) 0.30883(15) 0.2722(3)
H23 H 0.5696 0.2936 0.2239
B17 B 0.5158(2) 0.27456(13) 0.4089(3)
H24 H 0.5728 0.2361 0.4532
B18 B 0.4806(2) 0.33204(13) 0.4968(2)
H25 H 0.5144 0.3318 0.6000
B19 B 0.4569(2) 0.40133(12) 0.4106(3)
H26 H 0.4751 0.4473 0.4562
B20 B 0.5621(2) 0.35083(13) 0.4102(3)
H27 H 0.6501 0.3632 0.4562
C10 C 0.30786(14) 0.31459(8) 0.27972(16)
C11 C 0.38409(17) 0.33206(11) 0.2013(2)
C12 C 0.18911(15) 0.29910(8) 0.20686(17)
C13 C 0.01913(16) 0.27614(10) 0.2478(2)
C14 C -0.0369(2) 0.30553(12) 0.3116(3)
H28 H -0.0025 0.3362 0.3708
C15 C -0.1456(2) 0.28925(16) 0.2872(3)
H29 H -0.1856 0.3093 0.3300
C16 C -0.1951(2) 0.24466(18) 0.2022(3)
H30 H -0.2686 0.2335 0.1870
C17 C -0.1387(2) 0.21669(15) 0.1400(3)
H31 H -0.1734 0.1862 0.0805
C18 C -0.0307(2) 0.23180(12) 0.1618(2)
H32 H 0.0082 0.2118 0.1179
H33 H 0.3536(18) 0.3299(10) 0.1138(15)
H34 H 0.1638(19) 0.2999(10) 0.356(2)
loop_
_geom_bond_atom_site_label_1
_geom_bond_atom_site_label_2
_geom_bond_site_symmetry_1
_geom_bond_site_symmetry_2
S1 C3 1_555 1_555
N1 C3 1_555 1_555
B1 H1 1_555 1_555
B2 B1 1_555 1_555
H2 B2 1_555 1_555
B3 B2 1_555 1_555
H3 B3 1_555 1_555
B4 B3 1_555 1_555
H4 B4 1_555 1_555
B5 B4 1_555 1_555
H5 B5 1_555 1_555
B6 B1 1_555 1_555
H6 B6 1_555 1_555
B7 B1 1_555 1_555
H7 B7 1_555 1_555
B8 B2 1_555 1_555
H8 B8 1_555 1_555
B9 B3 1_555 1_555
H9 B9 1_555 1_555
B10 B5 1_555 1_555
H10 B10 1_555 1_555
C1 B1 1_555 1_555
C2 B1 1_555 1_555
C3 C1 1_555 1_555
C4 N1 1_555 1_555
C5 C4 1_555 1_555
H11 C5 1_555 1_555
C6 C5 1_555 1_555
H12 C6 1_555 1_555
C7 C6 1_555 1_555
H13 C7 1_555 1_555
C8 C7 1_555 1_555
H14 C8 1_555 1_555
C9 C4 1_555 1_555
H15 C9 1_555 1_555
H16 C2 1_555 1_555
H17 N1 1_555 1_555
S2 C12 1_555 1_555
N2 C12 1_555 1_555
B11 H18 1_555 1_555
B12 B11 1_555 1_555
H19 B12 1_555 1_555
B13 B12 1_555 1_555
H20 B13 1_555 1_555
B14 B13 1_555 1_555
H21 B14 1_555 1_555
B15 B14 1_555 1_555
H22 B15 1_555 1_555
B16 B11 1_555 1_555
H23 B16 1_555 1_555
B17 B11 1_555 1_555
H24 B17 1_555 1_555
B18 B12 1_555 1_555
H25 B18 1_555 1_555
B19 B13 1_555 1_555
H26 B19 1_555 1_555
B20 B15 1_555 1_555
H27 B20 1_555 1_555
C10 B11 1_555 1_555
C11 B11 1_555 1_555
C12 C10 1_555 1_555
C13 N2 1_555 1_555
C14 C13 1_555 1_555
H28 C14 1_555 1_555
C15 C14 1_555 1_555
H29 C15 1_555 1_555
C16 C15 1_555 1_555
H30 C16 1_555 1_555
C17 C16 1_555 1_555
H31 C17 1_555 1_555
C18 C13 1_555 1_555
H32 C18 1_555 1_555
H33 C11 1_555 1_555
H34 N2 1_555 1_555
B2 B7 1_555 1_555
B2 C1 1_555 1_555
B3 B8 1_555 1_555
B3 C1 1_555 1_555
B4 B9 1_555 1_555
B4 C1 1_555 1_555
B4 C2 1_555 1_555
B5 B6 1_555 1_555
B5 B9 1_555 1_555
B5 C2 1_555 1_555
B6 B7 1_555 1_555
B6 B10 1_555 1_555
B6 C2 1_555 1_555
B7 B8 1_555 1_555
B7 B10 1_555 1_555
B8 B9 1_555 1_555
B8 B10 1_555 1_555
B9 B10 1_555 1_555
C1 C2 1_555 1_555
C8 C9 1_555 1_555
B12 B17 1_555 1_555
B12 C10 1_555 1_555
B13 B18 1_555 1_555
B13 C10 1_555 1_555
B14 B19 1_555 1_555
B14 C10 1_555 1_555
B14 C11 1_555 1_555
B15 B16 1_555 1_555
B15 B19 1_555 1_555
B15 C11 1_555 1_555
B16 B17 1_555 1_555
B16 B20 1_555 1_555
B16 C11 1_555 1_555
B17 B18 1_555 1_555
B17 B20 1_555 1_555
B18 B19 1_555 1_555
B18 B20 1_555 1_555
B19 B20 1_555 1_555
C10 C11 1_555 1_555
C17 C18 1_555 1_555

#END
