
#######################################################################
#
#                 Cambridge Crystallographic Data Centre
#                                CCDC 
#
#######################################################################
#
# If this CIF has been generated from an entry in the Cambridge 
# Structural Database, then it will include bibliographic, chemical, 
# crystal, experimental, refinement or atomic coordinate data resulting 
# from the CCDC's data processing and validation procedures.
#
#######################################################################

data_SOPNIU
_chemical_formula_moiety         'C7 H10 N1 1+,O4 S1 2-,H3 O1 1+'
_chemical_name_systematic        'o-Toluidinium oxonium sulfate'
_symmetry_cell_setting           monoclinic
_symmetry_space_group_name_H-M   'P 21/c'
_symmetry_Int_Tables_number      14
_space_group_name_Hall           '-P 2ybc'
loop_
_symmetry_equiv_pos_site_id
_symmetry_equiv_pos_as_xyz
1 x,y,z
2 -x,1/2+y,1/2-z
3 -x,-y,-z
4 x,1/2-y,1/2+z
_cell_length_a                   9.449(1)
_cell_length_b                   10.496(2)
_cell_length_c                   10.086(2)
_cell_angle_alpha                90
_cell_angle_beta                 90.61(2)
_cell_angle_gamma                90
_cell_volume                     1000.24
_cell_formula_units_Z            4
loop_
_atom_site_label
_atom_site_type_symbol
_atom_site_fract_x
_atom_site_fract_y
_atom_site_fract_z
S1 S 0.5101(4) 0.1399(2) 0.2636(2)
O1 O 0.6078(9) 0.0534(7) 0.3438(7)
O2 O 0.3693(9) 0.0780(8) 0.2482(7)
O3 O 0.5759(8) 0.1564(7) 0.1339(6)
O4 O 0.4996(9) 0.2640(7) 0.3311(7)
O5 O 0.6651(8) 0.3858(7) 0.0719(7)
H1 H 0.617 0.310 0.102
N1 N 0.6894(10) -0.0790(7) 0.0419(8)
C1 C 0.8362(14) -0.1071(10) 0.0815(9)
C2 C 0.8930(15) -0.2199(9) 0.0399(10)
C3 C 1.0317(18) -0.2448(11) 0.0784(12)
C4 C 1.1072(14) -0.1562(16) 0.1533(12)
C5 C 1.0466(19) -0.0450(12) 0.1922(10)
C6 C 0.9080(15) -0.0186(11) 0.1558(9)
C7 C 0.8092(13) -0.3162(11) -0.0409(11)
H2 H 0.681 -0.081 -0.058
H3 H 0.658 0.006 0.074
H4 H 0.627 -0.148 0.078
H5 H 1.085 -0.332 0.055
H6 H 1.210 -0.170 0.160
H7 H 1.110 0.029 0.233
H8 H 0.860 0.057 0.171
H9 H 0.714 -0.338 0.007
H10 H 0.780 -0.270 -0.132
H11 H 0.870 -0.394 -0.066
loop_
_geom_bond_atom_site_label_1
_geom_bond_atom_site_label_2
_geom_bond_site_symmetry_1
_geom_bond_site_symmetry_2
S1 O1 1_555 1_555
O2 S1 1_555 1_555
O3 S1 1_555 1_555
O4 S1 1_555 1_555
O5 H1 1_555 1_555
N1 C1 1_555 1_555
C1 C2 1_555 1_555
C2 C3 1_555 1_555
C3 C4 1_555 1_555
C4 C5 1_555 1_555
C5 C6 1_555 1_555
C6 C1 1_555 1_555
C7 C2 1_555 1_555
H2 N1 1_555 1_555
H3 N1 1_555 1_555
H4 N1 1_555 1_555
H5 C3 1_555 1_555
H6 C4 1_555 1_555
H7 C5 1_555 1_555
H8 C6 1_555 1_555
H9 C7 1_555 1_555
H10 C7 1_555 1_555
H11 C7 1_555 1_555

#END
