
#######################################################################
#
#                 Cambridge Crystallographic Data Centre
#                                CCDC 
#
#######################################################################
#
# If this CIF has been generated from an entry in the Cambridge 
# Structural Database, then it will include bibliographic, chemical, 
# crystal, experimental, refinement or atomic coordinate data resulting 
# from the CCDC's data processing and validation procedures.
#
#######################################################################

data_SOPQAR
_chemical_formula_moiety         'C16 H12 Cl2 O4'
_chemical_name_systematic        
'2-((4-Chlorobenzoyl)oxy)ethyl 2-chlorobenzoate'
_symmetry_cell_setting           triclinic
_symmetry_space_group_name_H-M   'P -1'
_symmetry_Int_Tables_number      2
_space_group_name_Hall           '-P 1'
loop_
_symmetry_equiv_pos_site_id
_symmetry_equiv_pos_as_xyz
1 x,y,z
2 -x,-y,-z
_cell_length_a                   7.7369(15)
_cell_length_b                   7.9449(16)
_cell_length_c                   12.788(3)
_cell_angle_alpha                104.35(3)
_cell_angle_beta                 97.85(3)
_cell_angle_gamma                92.83(3)
_cell_volume                     751.561
_cell_formula_units_Z            2
loop_
_atom_site_label
_atom_site_type_symbol
_atom_site_fract_x
_atom_site_fract_y
_atom_site_fract_z
Cl1 Cl -0.45583(6) 0.45292(7) -0.20333(4)
Cl2 Cl 0.15218(7) 1.16679(7) 0.69569(4)
O1 O 0.36164(16) 0.81860(19) -0.00702(11)
O2 O 0.22296(15) 0.92717(17) 0.13423(9)
O3 O 0.31129(16) 1.00195(15) 0.36396(10)
O4 O 0.2795(2) 1.22204(17) 0.50319(12)
C1 C 0.0520(2) 0.6094(2) -0.11834(14)
H1 H 0.1576 0.5825 -0.1466
C2 C -0.1052(2) 0.5199(2) -0.17396(15)
H2 H -0.1083 0.4315 -0.2398
C3 C -0.2574(2) 0.5616(2) -0.13179(15)
C4 C -0.2558(2) 0.6869(2) -0.03593(15)
H3 H -0.3616 0.7127 -0.0077
C5 C -0.0978(2) 0.7752(2) 0.01907(14)
H4 H -0.0952 0.8621 0.0855
C6 C 0.0572(2) 0.7377(2) -0.02217(13)
C7 C 0.2293(2) 0.8294(2) 0.03348(15)
C8 C 0.3873(2) 1.0202(2) 0.19376(14)
H5 H 0.4341 1.0982 0.1528
H6 H 0.4748 0.9369 0.2047
C9 C 0.3497(2) 1.1241(2) 0.30124(15)
H7 H 0.4523 1.2058 0.3400
H8 H 0.2483 1.1925 0.2904
C10 C 0.2786(2) 1.0694(2) 0.46487(14)
C11 C 0.2441(2) 0.9289(2) 0.52065(14)
C12 C 0.2710(2) 0.7576(2) 0.46958(15)
H9 H 0.3129 0.7336 0.4014
C13 C 0.2380(3) 0.6225(2) 0.51609(17)
H10 H 0.2566 0.5066 0.4800
C14 C 0.1778(3) 0.6565(3) 0.61518(17)
H11 H 0.1531 0.5634 0.6468
C15 C 0.1534(2) 0.8237(3) 0.66847(16)
H12 H 0.1143 0.8465 0.7375
C16 C 0.1857(2) 0.9600(2) 0.62160(14)
loop_
_geom_bond_atom_site_label_1
_geom_bond_atom_site_label_2
_geom_bond_site_symmetry_1
_geom_bond_site_symmetry_2
Cl1 C3 1_555 1_555
Cl2 C16 1_555 1_555
O1 C7 1_555 1_555
O2 C7 1_555 1_555
O3 C9 1_555 1_555
O4 C10 1_555 1_555
C1 H1 1_555 1_555
C2 C1 1_555 1_555
H2 C2 1_555 1_555
C3 C2 1_555 1_555
C4 C3 1_555 1_555
H3 C4 1_555 1_555
C5 C4 1_555 1_555
H4 C5 1_555 1_555
C6 C1 1_555 1_555
C7 C6 1_555 1_555
C8 O2 1_555 1_555
H5 C8 1_555 1_555
H6 C8 1_555 1_555
C9 C8 1_555 1_555
H7 C9 1_555 1_555
H8 C9 1_555 1_555
C10 O3 1_555 1_555
C11 C10 1_555 1_555
C12 C11 1_555 1_555
H9 C12 1_555 1_555
C13 C12 1_555 1_555
H10 C13 1_555 1_555
C14 C13 1_555 1_555
H11 C14 1_555 1_555
C15 C14 1_555 1_555
H12 C15 1_555 1_555
C16 C11 1_555 1_555
C5 C6 1_555 1_555
C15 C16 1_555 1_555

#END
