
#######################################################################
#
#                 Cambridge Crystallographic Data Centre
#                                CCDC 
#
#######################################################################
#
# If this CIF has been generated from an entry in the Cambridge 
# Structural Database, then it will include bibliographic, chemical, 
# crystal, experimental, refinement or atomic coordinate data resulting 
# from the CCDC's data processing and validation procedures.
#
#######################################################################

data_SOPTAU
_chemical_formula_moiety         'C36 H44 O10 S6,C12 H14 N2 2+,2(F6 P1 1-)'
_chemical_name_systematic        
"1,1'-dimethyl-4,4'-bipyridinium 4,7,10,13,16,22,25,28,31,34-decaoxa-38,41,44,47,49,50-hexathiahexacyclo[17.17.12.1^3,35^.1^17,21^.1^39,42^.1^43,46^]dopentaconta-1,3(51),17(52),18,20,35,39,42,45-nonaene bis(hexafluorophosphate) unknown solvate"
_symmetry_cell_setting           monoclinic
_symmetry_space_group_name_H-M   'P c'
_symmetry_Int_Tables_number      7
_space_group_name_Hall           'P -2yc'
loop_
_symmetry_equiv_pos_site_id
_symmetry_equiv_pos_as_xyz
1 x,y,z
2 x,-y,1/2+z
_cell_length_a                   11.7180(2)
_cell_length_b                   25.4446(4)
_cell_length_c                   26.3628(3)
_cell_angle_alpha                90
_cell_angle_beta                 105.6740(10)
_cell_angle_gamma                90
_cell_volume                     7568.04
_exptl_crystal_colour            yellow
_exptl_crystal_description       block
_cell_formula_units_Z            4
loop_
_atom_site_label
_atom_site_type_symbol
_atom_site_fract_x
_atom_site_fract_y
_atom_site_fract_z
S1 S 0.33189(8) 0.75203(4) 0.91677(4)
S2 S 0.56448(7) 0.71664(3) 0.90026(3)
S3 S 0.50532(8) 0.75596(4) 0.79137(3)
S4 S 0.84256(8) 0.70948(4) 0.90081(3)
S5 S 0.78193(8) 0.74744(4) 0.79157(3)
S6 S 1.03412(8) 0.77503(4) 0.79635(3)
O1 O 0.4007(2) 0.96005(10) 0.90037(9)
O2 O 0.3384(2) 1.02132(9) 0.80926(10)
O3 O 0.4430(3) 1.08315(10) 0.74628(13)
O4 O 0.68848(19) 1.08918(8) 0.77279(10)
O5 O 0.87108(19) 1.01495(8) 0.79759(8)
O6 O 0.6332(2) 0.92688(10) 1.07477(10)
O7 O 0.8496(2) 0.96134(16) 1.13548(10)
O8 O 1.0881(2) 0.95652(11) 1.14415(9)
O9 O 1.16210(18) 0.91876(9) 1.05649(7)
O10 O 1.10134(17) 0.92385(7) 0.94622(7)
C1 C 0.4127(3) 0.86957(14) 0.93523(13)
H1 H 0.3647 0.8567 0.9036
C2 C 0.4531(3) 0.83581(12) 0.97556(11)
C3 C 0.5267(3) 0.85767(13) 1.02375(12)
H2 H 0.5521 0.8360 1.0530
C4 C 0.5607(3) 0.90948(13) 1.02792(13)
C5 C 0.5115(3) 0.94441(13) 0.98256(13)
H3 H 0.5295 0.9801 0.9841
C6 C 0.4401(3) 0.92301(13) 0.93903(12)
C7 C 0.3199(3) 0.94151(15) 0.85154(14)
H4 H 0.2634 0.9168 0.8590
H5 H 0.3636 0.9240 0.8300
C8 C 0.2564(3) 0.98884(17) 0.82320(17)
H6 H 0.1963 0.9779 0.7919
H7 H 0.2177 1.0077 0.8459
C9 C 0.2927(4) 1.0731(2) 0.7896(2)
H8 H 0.2643 1.0919 0.8157
H9 H 0.2283 1.0698 0.7576
C10 C 0.3944(5) 1.10036(18) 0.7789(3)
H10 H 0.3689 1.1359 0.7682
H11 H 0.4549 1.1031 0.8122
C11 C 0.4987(4) 1.11131(16) 0.71805(17)
H12 H 0.4488 1.1408 0.7029
H13 H 0.5086 1.0898 0.6892
C12 C 0.6195(3) 1.13228(12) 0.74813(19)
H14 H 0.6575 1.1495 0.7242
H15 H 0.6111 1.1576 0.7743
C13 C 0.8103(3) 1.10375(12) 0.79666(15)
H16 H 0.8136 1.1357 0.8171
H17 H 0.8507 1.1101 0.7696
C14 C 0.8673(3) 1.06082(11) 0.83067(14)
H18 H 0.9471 1.0709 0.8500
H19 H 0.8231 1.0526 0.8559
C15 C 0.6473(5) 0.9792(2) 1.0811(2)
H20 H 0.5745 0.9965 1.0826
H21 H 0.6762 0.9950 1.0534
C16 C 0.7482(4) 0.9806(3) 1.13846(18)
H22 H 0.7596 1.0166 1.1509
H23 H 0.7199 0.9605 1.1639
C17 C 0.9388(3) 0.9744(2) 1.18347(14)
H24 H 0.9643 0.9431 1.2045
H25 H 0.9077 0.9993 1.2042
C18 C 1.0381(3) 0.99750(19) 1.16714(15)
H26 H 1.0102 1.0255 1.1418
H27 H 1.0964 1.0119 1.1973
C19 C 1.1920(4) 0.97122(19) 1.13020(18)
H28 H 1.1745 1.0010 1.1064
H29 H 1.2518 0.9821 1.1616
C20 C 1.2380(3) 0.9294(2) 1.10551(14)
H30 H 1.2473 0.8982 1.1274
H31 H 1.3153 0.9391 1.1017
C21 C 1.2235(3) 0.88777(13) 1.02556(11)
H32 H 1.2510 0.8549 1.0434
H33 H 1.2916 0.9069 1.0210
C22 C 1.1409(3) 0.87745(12) 0.97472(10)
H34 H 1.1790 0.8552 0.9543
H35 H 1.0731 0.8585 0.9799
C23 C 1.0366(2) 0.87978(12) 0.86231(10)
H36 H 1.0761 0.8491 0.8760
C24 C 0.9761(2) 0.88213(11) 0.81039(10)
C25 C 0.9207(2) 0.92801(13) 0.79018(11)
H37 H 0.8784 0.9297 0.7549
C26 C 0.9273(2) 0.97239(12) 0.82234(11)
C27 C 0.9860(2) 0.96755(12) 0.87438(11)
H38 H 0.9894 0.9961 0.8967
C28 C 1.0396(2) 0.92171(10) 0.89421(11)
C29 C 0.9759(3) 0.83756(13) 0.77108(12)
H39 H 1.0203 0.8495 0.7471
H40 H 0.8947 0.8323 0.7504
C30 C 0.9261(3) 0.75391(12) 0.82787(11)
C31 C 0.9557(3) 0.73606(12) 0.87717(12)
H41 H 1.0334 0.7377 0.8982
C32 C 0.7286(3) 0.72952(11) 0.84621(11)
C33 C 0.6150(3) 0.73352(11) 0.84427(11)
C34 C 0.4026(3) 0.76869(13) 0.82709(12)
H42 H 0.3330 0.7869 0.8117
C35 C 0.4258(3) 0.75176(12) 0.87707(13)
C36 C 0.4196(3) 0.77877(12) 0.97527(13)
H43 H 0.3784 0.7737 1.0022
H44 H 0.4923 0.7585 0.9857
S7 S -0.20614(8) 0.25628(4) 0.85259(3)
S8 S 0.03576(7) 0.22306(4) 0.84663(3)
S9 S -0.03150(7) 0.22636(3) 0.73089(3)
S10 S 0.31432(8) 0.22981(4) 0.84850(3)
S11 S 0.24533(7) 0.23238(3) 0.73247(3)
S12 S 0.48986(7) 0.26380(3) 0.72782(3)
O11 O -0.21673(19) 0.44616(8) 0.76353(7)
O12 O -0.29018(17) 0.47833(9) 0.65724(7)
O13 O -0.2094(2) 0.53345(9) 0.57955(8)
O14 O 0.0387(2) 0.54841(10) 0.59587(9)
O15 O 0.23261(18) 0.47903(8) 0.63775(7)
O16 O 0.0362(2) 0.47788(9) 0.93423(8)
O17 O 0.2276(2) 0.54963(12) 0.97298(9)
O18 O 0.46935(19) 0.55135(9) 0.98308(8)
O19 O 0.55764(18) 0.49034(10) 0.91433(7)
O20 O 0.48696(18) 0.45549(8) 0.81091(7)
C37 C 0.3078(2) 0.44981(11) 0.67737(10)
C38 C 0.3619(2) 0.46730(12) 0.72699(11)
H45 H 0.3507 0.5017 0.7366
C39 C 0.4332(2) 0.43352(11) 0.76274(10)
C40 C 0.4431(2) 0.38048(11) 0.75019(10)
H46 H 0.4846 0.3568 0.7754
C41 C 0.3888(2) 0.36410(10) 0.69852(10)
C42 C 0.3206(2) 0.39807(11) 0.66276(10)
H47 H 0.2829 0.3867 0.6289
C43 C 0.2285(3) 0.53356(12) 0.64388(13)
H48 H 0.3078 0.5481 0.6510
H49 H 0.1971 0.5418 0.6734
C44 C 0.1545(3) 0.55615(14) 0.59664(13)
H50 H 0.1706 0.5935 0.5956
H51 H 0.1706 0.5397 0.5661
C45 C -0.0505(2) 0.56393(18) 0.55009(12)
H52 H -0.0227 0.5931 0.5329
H53 H -0.0703 0.5349 0.5254
C46 C -0.1537(3) 0.57954(15) 0.56703(15)
H54 H -0.2085 0.5989 0.5391
H55 H -0.1298 0.6021 0.5977
C47 C -0.3113(3) 0.54509(17) 0.59364(15)
H56 H -0.2927 0.5715 0.6212
H57 H -0.3678 0.5605 0.5635
C48 C -0.3652(3) 0.50265(18) 0.61132(14)
H58 H -0.3874 0.4767 0.5834
H59 H -0.4371 0.5147 0.6192
C49 C -0.3575(3) 0.44068(15) 0.67807(12)
H60 H -0.3967 0.4162 0.6507
H61 H -0.4177 0.4586 0.6906
C50 C -0.2716(3) 0.41034(12) 0.72439(11)
H62 H -0.3156 0.3846 0.7387
H63 H -0.2123 0.3919 0.7117
C51 C 0.5504(3) 0.42296(15) 0.85210(11)
H64 H 0.5991 0.3986 0.8388
H65 H 0.4954 0.4028 0.8660
C52 C 0.6249(3) 0.45499(16) 0.89358(12)
H66 H 0.6697 0.4323 0.9215
H67 H 0.6809 0.4744 0.8796
C53 C 0.6292(3) 0.52308(16) 0.95198(13)
H68 H 0.6951 0.5355 0.9395
H69 H 0.6612 0.5035 0.9843
C54 C 0.5600(3) 0.56878(16) 0.96276(14)
H70 H 0.6117 0.5922 0.9878
H71 H 0.5271 0.5881 0.9304
C55 C 0.4124(4) 0.59458(14) 0.99726(18)
H72 H 0.3880 0.6185 0.9676
H73 H 0.4664 0.6132 1.0260
C56 C 0.3099(3) 0.57735(17) 1.01323(14)
H74 H 0.3357 0.5549 1.0439
H75 H 0.2711 0.6077 1.0233
C57 C 0.1146(3) 0.56130(16) 0.96979(14)
H76 H 0.1024 0.5989 0.9654
H77 H 0.0959 0.5509 1.0020
C58 C 0.0311(3) 0.53172(13) 0.92177(14)
H78 H -0.0495 0.5445 0.9154
H79 H 0.0572 0.5376 0.8903
C59 C -0.0908(3) 0.46057(12) 0.84737(11)
H80 H -0.0856 0.4954 0.8375
C60 C -0.1560(3) 0.42650(12) 0.81245(11)
C61 C -0.1689(3) 0.37507(12) 0.82783(11)
H81 H -0.2145 0.3514 0.8038
C62 C -0.1154(2) 0.35921(12) 0.87763(10)
C63 C -0.0435(3) 0.39510(13) 0.91189(11)
H82 H -0.0029 0.3841 0.9456
C64 C -0.0314(3) 0.44494(12) 0.89767(10)
C65 C -0.1274(3) 0.30449(12) 0.89782(12)
H83 H -0.1658 0.3075 0.9260
H84 H -0.0482 0.2911 0.9134
C66 C -0.1110(3) 0.24591(11) 0.81303(11)
C67 C -0.1327(3) 0.24644(11) 0.76200(12)
H85 H -0.2062 0.2582 0.7419
C68 C 0.0837(3) 0.22608(11) 0.78895(11)
C69 C 0.1974(3) 0.22866(11) 0.78976(10)
C70 C 0.3878(3) 0.25186(11) 0.76591(11)
C71 C 0.4173(3) 0.25097(11) 0.81701(11)
H86 H 0.4924 0.2615 0.8363
C72 C 0.4103(3) 0.31009(11) 0.67928(11)
H87 H 0.4536 0.3142 0.6529
H88 H 0.3340 0.2948 0.6618
N1 N 0.60142(19) 0.94353(9) 0.78775(9)
N2 N 0.8783(2) 0.85809(9) 1.04285(9)
C73 C 0.6115(3) 0.97567(12) 0.82601(12)
H89 H 0.5837 1.0099 0.8189
C74 C 0.6416(3) 0.89491(12) 0.79717(12)
H90 H 0.6352 0.8720 0.7691
C75 C 0.6915(3) 0.87782(12) 0.84659(12)
H91 H 0.7149 0.8429 0.8519
C76 C 0.7085(2) 0.91009(10) 0.88858(11)
C77 C 0.6631(3) 0.96074(12) 0.87822(13)
H92 H 0.6670 0.9843 0.9056
C78 C 0.5429(4) 0.96299(14) 0.73239(13)
H93 H 0.4584 0.9595 0.7252
H94 H 0.5704 0.9425 0.7075
H95 H 0.5627 0.9993 0.7295
C79 C 0.8847(3) 0.90856(12) 1.02999(11)
H96 H 0.9261 0.9322 1.0552
C80 C 0.8313(3) 0.92553(11) 0.98070(11)
H97 H 0.8395 0.9606 0.9726
C81 C 0.7651(2) 0.89286(10) 0.94186(11)
C82 C 0.7626(3) 0.83942(10) 0.95684(11)
H98 H 0.7237 0.8149 0.9320
C83 C 0.8161(3) 0.82331(11) 1.00678(11)
H99 H 0.8101 0.7884 1.0162
C84 C 0.9362(3) 0.84063(15) 1.09679(10)
H100 H 1.0157 0.8295 1.0989
H101 H 0.8926 0.8118 1.1058
H102 H 0.9383 0.8692 1.1208
N3 N -0.00841(19) 0.41164(9) 0.65134(9)
N4 N 0.2865(2) 0.41867(10) 0.91914(8)
C85 C 0.2811(3) 0.46151(12) 0.88928(11)
H103 H 0.3171 0.4923 0.9048
C86 C 0.2252(2) 0.46167(11) 0.83762(10)
H104 H 0.2242 0.4919 0.8176
C87 C 0.1663(2) 0.41397(10) 0.81319(10)
C88 C 0.1752(2) 0.37034(11) 0.84423(11)
H105 H 0.1423 0.3386 0.8299
C89 C 0.2355(3) 0.37416(13) 0.89869(12)
H106 H 0.2392 0.3450 0.9203
C90 C 0.3540(4) 0.42447(16) 0.97716(11)
H107 H 0.4154 0.3984 0.9862
H108 H 0.3003 0.4197 0.9986
H109 H 0.3886 0.4589 0.9831
C91 C 0.1035(2) 0.41390(10) 0.75708(10)
C92 C 0.0510(3) 0.45783(11) 0.73176(11)
H110 H 0.0548 0.4892 0.7502
C93 C -0.0088(2) 0.45591(12) 0.67804(10)
H111 H -0.0485 0.4854 0.6612
C94 C 0.0404(3) 0.36786(12) 0.67554(11)
H112 H 0.0374 0.3371 0.6562
C95 C 0.0938(2) 0.36762(11) 0.72721(11)
H113 H 0.1249 0.3364 0.7436
C96 C -0.0651(3) 0.41171(14) 0.59374(11)
H114 H -0.1331 0.4344 0.5861
H115 H -0.0894 0.3767 0.5823
H116 H -0.0095 0.4241 0.5756
P1 P 0.59055(10) 0.29245(5) 0.98018(4)
F1 F 0.4681(3) 0.30515(17) 0.95168(14)
F2 F 0.5810(4) 0.24838(15) 1.0111(2)
F3 F 0.7152(3) 0.2891(3) 1.00227(15)
F4 F 0.6062(5) 0.34035(18) 0.9537(2)
F5 F 0.6037(3) 0.26212(17) 0.93433(12)
F6 F 0.5740(4) 0.32158(19) 1.02601(12)
P2 P 0.69037(9) 0.28905(4) 0.60578(4)
F7 F 0.6952(2) 0.27250(15) 0.54993(8)
F8 F 0.7110(3) 0.23314(12) 0.62512(14)
F9 F 0.5515(2) 0.28461(15) 0.58624(9)
F10 F 0.6795(2) 0.30224(10) 0.66172(7)
F11 F 0.6755(3) 0.34889(10) 0.58932(10)
F12 F 0.82569(19) 0.29680(12) 0.62749(9)
P3 P 0.12205(9) 0.27922(4) 0.54206(4)
F13 F -0.0166(4) 0.29469(18) 0.52742(19)
F14 F 0.1153(4) 0.30035(16) 0.49082(12)
F15 F 0.0543(3) 0.23069(10) 0.51687(13)
F16 F 0.2350(3) 0.2625(2) 0.56324(14)
F17 F 0.1580(4) 0.32816(12) 0.56892(12)
F18 F 0.1050(4) 0.27133(16) 0.59589(11)
P4 P 0.25354(11) 0.85535(5) 0.68527(5)
F19 F 0.2413(6) 0.8262(2) 0.63457(18)
F20 F 0.2818(4) 0.90458(16) 0.65802(17)
F21 F 0.3805(3) 0.84475(16) 0.71113(16)
F22 F 0.2277(4) 0.81093(15) 0.71540(15)
F23 F 0.1222(3) 0.86761(19) 0.65931(17)
F24 F 0.2655(6) 0.8794(3) 0.73133(18)
loop_
_geom_bond_atom_site_label_1
_geom_bond_atom_site_label_2
_geom_bond_site_symmetry_1
_geom_bond_site_symmetry_2
S1 C35 1_555 1_555
S2 C33 1_555 1_555
S3 C33 1_555 1_555
S4 C31 1_555 1_555
S5 C30 1_555 1_555
S6 C29 1_555 1_555
O1 C6 1_555 1_555
O2 C8 1_555 1_555
O3 C10 1_555 1_555
O4 C12 1_555 1_555
O5 C14 1_555 1_555
O6 C4 1_555 1_555
O7 C16 1_555 1_555
O8 C18 1_555 1_555
O9 C20 1_555 1_555
O10 C22 1_555 1_555
C1 H1 1_555 1_555
C2 C1 1_555 1_555
C3 C2 1_555 1_555
H2 C3 1_555 1_555
C4 C3 1_555 1_555
C5 C4 1_555 1_555
H3 C5 1_555 1_555
C6 C1 1_555 1_555
C7 O1 1_555 1_555
H4 C7 1_555 1_555
H5 C7 1_555 1_555
C8 C7 1_555 1_555
H6 C8 1_555 1_555
H7 C8 1_555 1_555
C9 O2 1_555 1_555
H8 C9 1_555 1_555
H9 C9 1_555 1_555
C10 C9 1_555 1_555
H10 C10 1_555 1_555
H11 C10 1_555 1_555
C11 O3 1_555 1_555
H12 C11 1_555 1_555
H13 C11 1_555 1_555
C12 C11 1_555 1_555
H14 C12 1_555 1_555
H15 C12 1_555 1_555
C13 O4 1_555 1_555
H16 C13 1_555 1_555
H17 C13 1_555 1_555
C14 C13 1_555 1_555
H18 C14 1_555 1_555
H19 C14 1_555 1_555
C15 O6 1_555 1_555
H20 C15 1_555 1_555
H21 C15 1_555 1_555
C16 C15 1_555 1_555
H22 C16 1_555 1_555
H23 C16 1_555 1_555
C17 O7 1_555 1_555
H24 C17 1_555 1_555
H25 C17 1_555 1_555
C18 C17 1_555 1_555
H26 C18 1_555 1_555
H27 C18 1_555 1_555
C19 O8 1_555 1_555
H28 C19 1_555 1_555
H29 C19 1_555 1_555
C20 C19 1_555 1_555
H30 C20 1_555 1_555
H31 C20 1_555 1_555
C21 O9 1_555 1_555
H32 C21 1_555 1_555
H33 C21 1_555 1_555
C22 C21 1_555 1_555
H34 C22 1_555 1_555
H35 C22 1_555 1_555
C23 H36 1_555 1_555
C24 C23 1_555 1_555
C25 C24 1_555 1_555
H37 C25 1_555 1_555
C26 O5 1_555 1_555
C27 C26 1_555 1_555
H38 C27 1_555 1_555
C28 O10 1_555 1_555
C29 C24 1_555 1_555
H39 C29 1_555 1_555
H40 C29 1_555 1_555
C30 S6 1_555 1_555
C31 C30 1_555 1_555
H41 C31 1_555 1_555
C32 S4 1_555 1_555
C33 C32 1_555 1_555
C34 S3 1_555 1_555
H42 C34 1_555 1_555
C35 S2 1_555 1_555
C36 S1 1_555 1_555
H43 C36 1_555 1_555
H44 C36 1_555 1_555
S7 C65 1_555 1_555
S8 C66 1_555 1_555
S9 C67 1_555 1_555
S10 C69 1_555 1_555
S11 C69 1_555 1_555
S12 C70 1_555 1_555
O11 C50 1_555 1_555
O12 C48 1_555 1_555
O13 C46 1_555 1_555
O14 C44 1_555 1_555
O15 C37 1_555 1_555
O16 C58 1_555 1_555
O17 C56 1_555 1_555
O18 C54 1_555 1_555
O19 C52 1_555 1_555
O20 C39 1_555 1_555
C37 C38 1_555 1_555
C38 H45 1_555 1_555
C39 C38 1_555 1_555
C40 C39 1_555 1_555
H46 C40 1_555 1_555
C41 C40 1_555 1_555
C42 C37 1_555 1_555
H47 C42 1_555 1_555
C43 O15 1_555 1_555
H48 C43 1_555 1_555
H49 C43 1_555 1_555
C44 C43 1_555 1_555
H50 C44 1_555 1_555
H51 C44 1_555 1_555
C45 O14 1_555 1_555
H52 C45 1_555 1_555
H53 C45 1_555 1_555
C46 C45 1_555 1_555
H54 C46 1_555 1_555
H55 C46 1_555 1_555
C47 O13 1_555 1_555
H56 C47 1_555 1_555
H57 C47 1_555 1_555
C48 C47 1_555 1_555
H58 C48 1_555 1_555
H59 C48 1_555 1_555
C49 O12 1_555 1_555
H60 C49 1_555 1_555
H61 C49 1_555 1_555
C50 C49 1_555 1_555
H62 C50 1_555 1_555
H63 C50 1_555 1_555
C51 O20 1_555 1_555
H64 C51 1_555 1_555
H65 C51 1_555 1_555
C52 C51 1_555 1_555
H66 C52 1_555 1_555
H67 C52 1_555 1_555
C53 O19 1_555 1_555
H68 C53 1_555 1_555
H69 C53 1_555 1_555
C54 C53 1_555 1_555
H70 C54 1_555 1_555
H71 C54 1_555 1_555
C55 O18 1_555 1_555
H72 C55 1_555 1_555
H73 C55 1_555 1_555
C56 C55 1_555 1_555
H74 C56 1_555 1_555
H75 C56 1_555 1_555
C57 O17 1_555 1_555
H76 C57 1_555 1_555
H77 C57 1_555 1_555
C58 C57 1_555 1_555
H78 C58 1_555 1_555
H79 C58 1_555 1_555
C59 H80 1_555 1_555
C60 O11 1_555 1_555
C61 C60 1_555 1_555
H81 C61 1_555 1_555
C62 C61 1_555 1_555
C63 C62 1_555 1_555
H82 C63 1_555 1_555
C64 O16 1_555 1_555
C65 C62 1_555 1_555
H83 C65 1_555 1_555
H84 C65 1_555 1_555
C66 S7 1_555 1_555
C67 C66 1_555 1_555
H85 C67 1_555 1_555
C68 S8 1_555 1_555
C69 C68 1_555 1_555
C70 S11 1_555 1_555
C71 S10 1_555 1_555
H86 C71 1_555 1_555
C72 S12 1_555 1_555
H87 C72 1_555 1_555
H88 C72 1_555 1_555
N1 C73 1_555 1_555
N2 C79 1_555 1_555
C73 H89 1_555 1_555
C74 N1 1_555 1_555
H90 C74 1_555 1_555
C75 C74 1_555 1_555
H91 C75 1_555 1_555
C76 C75 1_555 1_555
C77 C73 1_555 1_555
H92 C77 1_555 1_555
C78 N1 1_555 1_555
H93 C78 1_555 1_555
H94 C78 1_555 1_555
H95 C78 1_555 1_555
C79 H96 1_555 1_555
C80 C79 1_555 1_555
H97 C80 1_555 1_555
C81 C76 1_555 1_555
C82 C81 1_555 1_555
H98 C82 1_555 1_555
C83 N2 1_555 1_555
H99 C83 1_555 1_555
C84 N2 1_555 1_555
H100 C84 1_555 1_555
H101 C84 1_555 1_555
H102 C84 1_555 1_555
N3 C93 1_555 1_555
N4 C85 1_555 1_555
C85 H103 1_555 1_555
C86 C85 1_555 1_555
H104 C86 1_555 1_555
C87 C86 1_555 1_555
C88 C87 1_555 1_555
H105 C88 1_555 1_555
C89 N4 1_555 1_555
H106 C89 1_555 1_555
C90 N4 1_555 1_555
H107 C90 1_555 1_555
H108 C90 1_555 1_555
H109 C90 1_555 1_555
C91 C87 1_555 1_555
C92 C91 1_555 1_555
H110 C92 1_555 1_555
C93 C92 1_555 1_555
H111 C93 1_555 1_555
C94 N3 1_555 1_555
H112 C94 1_555 1_555
C95 C91 1_555 1_555
H113 C95 1_555 1_555
C96 N3 1_555 1_555
H114 C96 1_555 1_555
H115 C96 1_555 1_555
H116 C96 1_555 1_555
P1 F1 1_555 1_555
F2 P1 1_555 1_555
F3 P1 1_555 1_555
F4 P1 1_555 1_555
F5 P1 1_555 1_555
F6 P1 1_555 1_555
P2 F7 1_555 1_555
F8 P2 1_555 1_555
F9 P2 1_555 1_555
F10 P2 1_555 1_555
F11 P2 1_555 1_555
F12 P2 1_555 1_555
P3 F13 1_555 1_555
F14 P3 1_555 1_555
F15 P3 1_555 1_555
F16 P3 1_555 1_555
F17 P3 1_555 1_555
F18 P3 1_555 1_555
P4 F19 1_555 1_555
F20 P4 1_555 1_555
F21 P4 1_555 1_555
F22 P4 1_555 1_555
F23 P4 1_555 1_555
F24 P4 1_555 1_555
S5 C32 1_555 1_555
C2 C36 1_555 1_555
C5 C6 1_555 1_555
C23 C28 1_555 1_555
C25 C26 1_555 1_555
C27 C28 1_555 1_555
C34 C35 1_555 1_555
S9 C68 1_555 1_555
C41 C42 1_555 1_555
C41 C72 1_555 1_555
C59 C60 1_555 1_555
C59 C64 1_555 1_555
C63 C64 1_555 1_555
C70 C71 1_555 1_555
C76 C77 1_555 1_555
C80 C81 1_555 1_555
C82 C83 1_555 1_555
C88 C89 1_555 1_555
C94 C95 1_555 1_555

#END
