
#######################################################################
#
#                 Cambridge Crystallographic Data Centre
#                                CCDC 
#
#######################################################################
#
# If this CIF has been generated from an entry in the Cambridge 
# Structural Database, then it will include bibliographic, chemical, 
# crystal, experimental, refinement or atomic coordinate data resulting 
# from the CCDC's data processing and validation procedures.
#
#######################################################################

data_SOPTOI
_chemical_formula_moiety         'C34 H38 N4 O2'
_chemical_name_systematic        
3,3'-(2,5-dimethoxy-1,4-phenylene)bis(2-(4-(diethylamino)phenyl)acrylonitrile)
_symmetry_cell_setting           triclinic
_symmetry_space_group_name_H-M   'P -1'
_symmetry_Int_Tables_number      2
_space_group_name_Hall           '-P 1'
loop_
_symmetry_equiv_pos_site_id
_symmetry_equiv_pos_as_xyz
1 x,y,z
2 -x,-y,-z
_cell_length_a                   4.7039(2)
_cell_length_b                   9.3029(3)
_cell_length_c                   16.8491(6)
_cell_angle_alpha                100.068(2)
_cell_angle_beta                 92.587(2)
_cell_angle_gamma                99.396(2)
_cell_volume                     714.158
_exptl_crystal_colour            red
_exptl_crystal_description       Plate
_cell_formula_units_Z            1
_exptl_crystal_recrystallization_method 'Methanol/ THF'
loop_
_atom_site_label
_atom_site_type_symbol
_atom_site_fract_x
_atom_site_fract_y
_atom_site_fract_z
O1 O 0.0155(2) 0.70190(10) -0.01026(7)
N1 N 0.6725(4) 1.24677(15) 0.21546(11)
N2 N 1.2869(3) 0.67329(15) 0.35101(8)
C1 C 0.1855(3) 1.10151(14) 0.05638(8)
H1 H 0.3127 1.1725 0.0949
C2 C 0.1970(3) 0.95053(14) 0.05210(8)
C3 C 0.0039(3) 0.84948(14) -0.00661(8)
C4 C -0.1850(4) 0.59856(15) -0.06733(11)
H2 H -0.1556 0.4975 -0.0648
H3 H -0.1544 0.6182 -0.1219
H4 H -0.3826 0.6090 -0.0545
C5 C 0.3919(3) 0.89347(14) 0.10327(8)
H5 H 0.3802 0.7889 0.0911
C6 C 0.5877(3) 0.96290(14) 0.16536(8)
C7 C 0.6302(3) 1.12118(16) 0.19197(10)
C8 C 0.7711(3) 0.88696(14) 0.21178(8)
C9 C 0.7656(3) 0.73370(15) 0.19408(9)
H6 H 0.6422 0.6761 0.1497
C10 C 0.9332(3) 0.66340(16) 0.23890(9)
H7 H 0.9208 0.5590 0.2248
C11 C 1.1220(3) 0.74277(16) 0.30501(9)
C12 C 1.1309(3) 0.89681(17) 0.32205(9)
H8 H 1.2572 0.9552 0.3656
C13 C 0.9600(3) 0.96567(15) 0.27691(9)
H9 H 0.9717 1.0700 0.2908
C14 C 1.3164(5) 0.5186(2) 0.32742(12)
H10 H 1.5245 0.5129 0.3260
H11 H 1.2251 0.4810 0.2720
C15 C 1.1864(6) 0.4212(2) 0.38139(15)
H12 H 1.2172 0.3197 0.3621
H13 H 0.9786 0.4227 0.3816
H14 H 1.2772 0.4565 0.4364
C16 C 1.4758(4) 0.7589(2) 0.41949(12)
H15 H 1.5758 0.8509 0.4040
H16 H 1.6250 0.7009 0.4322
C17 C 1.3211(5) 0.8000(2) 0.49459(11)
H17 H 1.4613 0.8569 0.5382
H18 H 1.2247 0.7096 0.5112
H19 H 1.1769 0.8602 0.4831
O1A O -0.0155(2) 1.29810(10) 0.01026(7)
N1A N -0.6725(4) 0.75323(15) -0.21546(11)
N2A N -1.2869(3) 1.32671(15) -0.35101(8)
C1A C -0.1855(3) 0.89849(14) -0.05638(8)
H1A H -0.3127 0.8275 -0.0949
C2A C -0.1970(3) 1.04947(14) -0.05210(8)
C3A C -0.0039(3) 1.15052(14) 0.00661(8)
C4A C 0.1850(4) 1.40144(15) 0.06733(11)
H2A H 0.1556 1.5025 0.0648
H3A H 0.1544 1.3818 0.1219
H4A H 0.3826 1.3910 0.0545
C5A C -0.3919(3) 1.10653(14) -0.10327(8)
H5A H -0.3802 1.2111 -0.0911
C6A C -0.5877(3) 1.03710(14) -0.16536(8)
C7A C -0.6302(3) 0.87882(16) -0.19197(10)
C8A C -0.7711(3) 1.11304(14) -0.21178(8)
C9A C -0.7656(3) 1.26630(15) -0.19408(9)
H6A H -0.6422 1.3239 -0.1497
C10A C -0.9332(3) 1.33660(16) -0.23890(9)
H7A H -0.9208 1.4410 -0.2248
C11A C -1.1220(3) 1.25723(16) -0.30501(9)
C12A C -1.1309(3) 1.10319(17) -0.32205(9)
H8A H -1.2572 1.0448 -0.3656
C13A C -0.9600(3) 1.03433(15) -0.27691(9)
H9A H -0.9717 0.9300 -0.2908
C14A C -1.3164(5) 1.4814(2) -0.32742(12)
H10A H -1.5245 1.4871 -0.3260
H11A H -1.2251 1.5190 -0.2720
C15A C -1.1864(6) 1.5788(2) -0.38139(15)
H12A H -1.2172 1.6803 -0.3621
H13A H -0.9786 1.5773 -0.3816
H14A H -1.2772 1.5435 -0.4364
C16A C -1.4758(4) 1.2411(2) -0.41949(12)
H15A H -1.5758 1.1491 -0.4040
H16A H -1.6250 1.2991 -0.4322
C17A C -1.3211(5) 1.2000(2) -0.49459(11)
H17A H -1.4613 1.1431 -0.5382
H18A H -1.2247 1.2904 -0.5112
H19A H -1.1769 1.1398 -0.4831
loop_
_geom_bond_atom_site_label_1
_geom_bond_atom_site_label_2
_geom_bond_site_symmetry_1
_geom_bond_site_symmetry_2
O1 C3 1_555 1_555
N1 C7 1_555 1_555
N2 C11 1_555 1_555
C1 H1 1_555 1_555
C2 C1 1_555 1_555
C3 C2 1_555 1_555
C4 O1 1_555 1_555
H2 C4 1_555 1_555
H3 C4 1_555 1_555
H4 C4 1_555 1_555
C5 C2 1_555 1_555
H5 C5 1_555 1_555
C6 C5 1_555 1_555
C7 C6 1_555 1_555
C8 C6 1_555 1_555
C9 C8 1_555 1_555
H6 C9 1_555 1_555
C10 C9 1_555 1_555
H7 C10 1_555 1_555
C11 C10 1_555 1_555
C12 C11 1_555 1_555
H8 C12 1_555 1_555
C13 C8 1_555 1_555
H9 C13 1_555 1_555
C14 N2 1_555 1_555
H10 C14 1_555 1_555
H11 C14 1_555 1_555
C15 C14 1_555 1_555
H12 C15 1_555 1_555
H13 C15 1_555 1_555
H14 C15 1_555 1_555
C16 N2 1_555 1_555
H15 C16 1_555 1_555
H16 C16 1_555 1_555
C17 C16 1_555 1_555
H17 C17 1_555 1_555
H18 C17 1_555 1_555
H19 C17 1_555 1_555
O1A C3A 1_555 1_555
N1A C7A 1_555 1_555
N2A C11A 1_555 1_555
C1A C3 1_555 1_555
H1A C1A 1_555 1_555
C2A C1A 1_555 1_555
C3A C1 1_555 1_555
C4A O1A 1_555 1_555
H2A C4A 1_555 1_555
H3A C4A 1_555 1_555
H4A C4A 1_555 1_555
C5A C2A 1_555 1_555
H5A C5A 1_555 1_555
C6A C5A 1_555 1_555
C7A C6A 1_555 1_555
C8A C6A 1_555 1_555
C9A C8A 1_555 1_555
H6A C9A 1_555 1_555
C10A C9A 1_555 1_555
H7A C10A 1_555 1_555
C11A C10A 1_555 1_555
C12A C11A 1_555 1_555
H8A C12A 1_555 1_555
C13A C8A 1_555 1_555
H9A C13A 1_555 1_555
C14A N2A 1_555 1_555
H10A C14A 1_555 1_555
H11A C14A 1_555 1_555
C15A C14A 1_555 1_555
H12A C15A 1_555 1_555
H13A C15A 1_555 1_555
H14A C15A 1_555 1_555
C16A N2A 1_555 1_555
H15A C16A 1_555 1_555
H16A C16A 1_555 1_555
C17A C16A 1_555 1_555
H17A C17A 1_555 1_555
H18A C17A 1_555 1_555
H19A C17A 1_555 1_555
C12 C13 1_555 1_555
C2A C3A 1_555 1_555
C12A C13A 1_555 1_555

#END
