
#######################################################################
#
#                 Cambridge Crystallographic Data Centre
#                                CCDC 
#
#######################################################################
#
# If this CIF has been generated from an entry in the Cambridge 
# Structural Database, then it will include bibliographic, chemical, 
# crystal, experimental, refinement or atomic coordinate data resulting 
# from the CCDC's data processing and validation procedures.
#
#######################################################################

data_SOPZIH
_chemical_formula_moiety         'C45 H57 N12 Na1 O6 1+,Cl1 O4 1-'
_chemical_name_systematic        
'tris(2-(1-Methyl-1H-benzimidazol-2-yl)-4,4,5,5-tetramethylimidazolin-1-oxyl-3-oxide radical)-sodium(i) perchlorate'
_symmetry_cell_setting           trigonal
_symmetry_space_group_name_H-M   'P -3'
_symmetry_Int_Tables_number      147
_space_group_name_Hall           '-P 3'
loop_
_symmetry_equiv_pos_site_id
_symmetry_equiv_pos_as_xyz
1 x,y,z
2 -y,x-y,z
3 -x+y,-x,z
4 -x,-y,-z
5 y,-x+y,-z
6 x-y,x,-z
_cell_length_a                   13.9411(8)
_cell_length_b                   13.9411(8)
_cell_length_c                   14.8622(16)
_cell_angle_alpha                90
_cell_angle_beta                 90
_cell_angle_gamma                120
_cell_volume                     2501.54
_exptl_crystal_colour            pink
_exptl_crystal_description       block
_cell_formula_units_Z            2
loop_
_atom_site_label
_atom_site_type_symbol
_atom_site_fract_x
_atom_site_fract_y
_atom_site_fract_z
Cl1 Cl 0.3333 0.6667 0.46546(12)
O3 O 0.3366(6) 0.5780(5) 0.4973(6)
O4 O 0.3333 0.6667 0.3798(6)
O3A O 0.4220(5) 0.7586(8) 0.4973(6)
O3B O 0.2414(8) 0.6634(6) 0.4973(6)
Na1 Na 0.0000 1.0000 0.26477(18)
O1 O 0.0458(2) 0.6220(2) 0.1800(2)
O2 O 0.0153(3) 0.8705(2) 0.36455(19)
N1 N 0.2371(2) 0.8723(2) 0.1880(2)
N2 N 0.1222(2) 0.9411(2) 0.1792(2)
N3 N 0.0152(2) 0.6600(2) 0.2453(2)
N4 N -0.0007(2) 0.7784(2) 0.3318(2)
C1 C 0.2922(3) 0.9696(3) 0.1393(2)
C2 C 0.3974(3) 1.0235(3) 0.1010(3)
H1 H 0.4451 0.9952 0.1047
C3 C 0.4265(3) 1.1213(4) 0.0574(3)
H2 H 0.4962 1.1603 0.0309
C4 C 0.3551(4) 1.1636(4) 0.0515(3)
H3 H 0.3786 1.2304 0.0217
C5 C 0.2515(3) 1.1096(3) 0.0883(2)
H4 H 0.2037 1.1377 0.0829
C6 C 0.2196(3) 1.0109(3) 0.1343(2)
C7 C 0.1366(3) 0.8604(3) 0.2095(2)
C8 C 0.2815(4) 0.8009(4) 0.2128(3)
H5 H 0.2599 0.7750 0.2734
H6 H 0.3608 0.8419 0.2088
H7 H 0.2530 0.7387 0.1726
C9 C 0.0537(3) 0.7681(3) 0.2613(2)
C10 C -0.0884(3) 0.6685(3) 0.3683(3)
C11 C -0.0651(3) 0.5867(3) 0.3158(3)
C12 C -0.1996(3) 0.6606(4) 0.3453(3)
H8 H -0.1998 0.7253 0.3673
H9 H -0.2588 0.5958 0.3731
H10 H -0.2097 0.6558 0.2813
C13 C -0.0750(5) 0.6704(4) 0.4696(3)
H11 H -0.0013 0.6864 0.4839
H12 H -0.1277 0.5996 0.4940
H13 H -0.0875 0.7266 0.4950
C14 C -0.1658(4) 0.4925(4) 0.2689(4)
H14 H -0.1977 0.5229 0.2288
H15 H -0.2197 0.4472 0.3132
H16 H -0.1432 0.4483 0.2354
C15 C -0.0054(5) 0.5390(5) 0.3699(4)
H17 H 0.0132 0.4958 0.3310
H18 H -0.0530 0.4928 0.4172
H19 H 0.0610 0.5984 0.3955
O1A O 0.3780(2) 1.4238(3) 0.1800(2)
O1B O -0.4238(3) 0.9542(2) 0.1800(2)
O2A O 0.1295(2) 1.1448(4) 0.36455(19)
O2B O -0.1448(4) 0.9847(3) 0.36455(19)
N1A N 0.1277(2) 1.3648(3) 0.1880(2)
N1B N -0.3648(3) 0.7629(2) 0.1880(2)
N2A N 0.0589(2) 1.1811(3) 0.1792(2)
N2B N -0.1811(3) 0.8778(2) 0.1792(2)
N3A N 0.3400(2) 1.3552(3) 0.2453(2)
N3B N -0.3552(3) 0.9848(2) 0.2453(2)
N4A N 0.2216(2) 1.2209(3) 0.3318(2)
N4B N -0.2209(3) 1.0007(2) 0.3318(2)
C1A C 0.0304(3) 1.3226(4) 0.1393(2)
C1B C -0.3226(4) 0.7078(3) 0.1393(2)
C2A C -0.0235(3) 1.3739(4) 0.1010(3)
C2B C -0.3739(4) 0.6026(3) 0.1010(3)
H1A H 0.0048 1.4499 0.1047
H1B H -0.4499 0.5549 0.1047
C3A C -0.1213(4) 1.3052(5) 0.0574(3)
C3B C -0.3052(5) 0.5735(3) 0.0574(3)
H2A H -0.1603 1.3359 0.0309
H2B H -0.3359 0.5038 0.0309
C4A C -0.1636(4) 1.1915(6) 0.0515(3)
C4B C -0.1915(6) 0.6449(4) 0.0515(3)
H3A H -0.2304 1.1482 0.0217
H3B H -0.1482 0.6214 0.0217
C5A C -0.1096(3) 1.1419(4) 0.0883(2)
C5B C -0.1419(4) 0.7485(3) 0.0883(2)
H4A H -0.1377 1.0660 0.0829
H4B H -0.0660 0.7963 0.0829
C6A C -0.0109(3) 1.2087(4) 0.1343(2)
C6B C -0.2087(4) 0.7804(3) 0.1343(2)
C7A C 0.1396(3) 1.2762(4) 0.2095(2)
C7B C -0.2762(4) 0.8634(3) 0.2095(2)
C8A C 0.1991(4) 1.4806(6) 0.2128(3)
C8B C -0.4806(6) 0.7185(4) 0.2128(3)
H5A H 0.2250 1.4849 0.2734
H5B H -0.4849 0.7401 0.2734
H6A H 0.1581 1.5189 0.2088
H6B H -0.5189 0.6392 0.2088
H7A H 0.2613 1.5143 0.1726
H7B H -0.5143 0.7470 0.1726
C9A C 0.2319(3) 1.2856(4) 0.2613(2)
C9B C -0.2856(4) 0.9463(3) 0.2613(2)
C10A C 0.3315(3) 1.2431(4) 0.3683(3)
C10B C -0.2431(4) 1.0884(3) 0.3683(3)
C11A C 0.4133(3) 1.3482(4) 0.3158(3)
C11B C -0.3482(4) 1.0651(3) 0.3158(3)
C12A C 0.3394(4) 1.1398(5) 0.3453(3)
C12B C -0.1398(5) 1.1996(3) 0.3453(3)
H8A H 0.2747 1.0749 0.3673
H8B H -0.0749 1.1998 0.3673
H9A H 0.4042 1.1454 0.3731
H9B H -0.1454 1.2588 0.3731
H10A H 0.3442 1.1345 0.2813
H10B H -0.1345 1.2097 0.2813
C13A C 0.3296(4) 1.2546(6) 0.4696(3)
C13B C -0.2546(6) 1.0750(5) 0.4696(3)
H11A H 0.3136 1.3123 0.4839
H11B H -0.3123 1.0013 0.4839
H12A H 0.4004 1.2727 0.4940
H12B H -0.2727 1.1277 0.4940
H13A H 0.2734 1.1859 0.4950
H13B H -0.1859 1.0875 0.4950
C14A C 0.5075(4) 1.3417(6) 0.2689(4)
C14B C -0.3417(6) 1.1658(4) 0.2689(4)
H14A H 0.4771 1.2794 0.2288
H14B H -0.2794 1.1977 0.2288
H15A H 0.5528 1.3331 0.3132
H15B H -0.3331 1.2197 0.3132
H16A H 0.5517 1.4085 0.2354
H16B H -0.4085 1.1432 0.2354
C15A C 0.4610(5) 1.4556(7) 0.3699(4)
C15B C -0.4556(7) 1.0054(5) 0.3699(4)
H17A H 0.5042 1.5174 0.3310
H17B H -0.5174 0.9868 0.3310
H18A H 0.5072 1.4542 0.4172
H18B H -0.4542 1.0530 0.4172
H19A H 0.4016 1.4626 0.3955
H19B H -0.4626 0.9390 0.3955
loop_
_geom_bond_atom_site_label_1
_geom_bond_atom_site_label_2
_geom_bond_site_symmetry_1
_geom_bond_site_symmetry_2
Cl1 O3 1_555 1_555
Na1 O2 1_555 1_555
O1 N3 1_555 1_555
O2 N4 1_555 1_555
O4 Cl1 1_555 1_555
N1 C1 1_555 1_555
N2 Na1 1_555 1_555
N3 C9 1_555 1_555
N4 C9 1_555 1_555
C1 C2 1_555 1_555
C2 H1 1_555 1_555
C3 C2 1_555 1_555
H2 C3 1_555 1_555
C4 C3 1_555 1_555
H3 C4 1_555 1_555
C5 C4 1_555 1_555
H4 C5 1_555 1_555
C6 N2 1_555 1_555
C7 N1 1_555 1_555
C8 N1 1_555 1_555
H5 C8 1_555 1_555
H6 C8 1_555 1_555
H7 C8 1_555 1_555
C9 C7 1_555 1_555
C10 N4 1_555 1_555
C11 N3 1_555 1_555
C12 C10 1_555 1_555
H8 C12 1_555 1_555
H9 C12 1_555 1_555
H10 C12 1_555 1_555
C13 C10 1_555 1_555
H11 C13 1_555 1_555
H12 C13 1_555 1_555
H13 C13 1_555 1_555
C14 C11 1_555 1_555
H14 C14 1_555 1_555
H15 C14 1_555 1_555
H16 C14 1_555 1_555
C15 C11 1_555 1_555
H17 C15 1_555 1_555
H18 C15 1_555 1_555
H19 C15 1_555 1_555
O1A N3A 1_555 1_555
O1B N3B 1_555 1_555
O2A Na1 1_555 1_555
O2B Na1 1_555 1_555
O3A Cl1 1_555 1_555
O3B Cl1 1_555 1_555
N1A C1A 1_555 1_555
N1B C1B 1_555 1_555
N2A Na1 1_555 1_555
N2B Na1 1_555 1_555
N3A C9A 1_555 1_555
N3B C9B 1_555 1_555
N4A O2A 1_555 1_555
N4B O2B 1_555 1_555
C1A C2A 1_555 1_555
C1B C2B 1_555 1_555
C2A H1A 1_555 1_555
C2B H1B 1_555 1_555
C3A C2A 1_555 1_555
C3B C2B 1_555 1_555
H2A C3A 1_555 1_555
H2B C3B 1_555 1_555
C4A C3A 1_555 1_555
C4B C3B 1_555 1_555
H3A C4A 1_555 1_555
H3B C4B 1_555 1_555
C5A C4A 1_555 1_555
C5B C4B 1_555 1_555
H4A C5A 1_555 1_555
H4B C5B 1_555 1_555
C6A N2A 1_555 1_555
C6B N2B 1_555 1_555
C7A N1A 1_555 1_555
C7B N1B 1_555 1_555
C8A N1A 1_555 1_555
C8B N1B 1_555 1_555
H5A C8A 1_555 1_555
H5B C8B 1_555 1_555
H6A C8A 1_555 1_555
H6B C8B 1_555 1_555
H7A C8A 1_555 1_555
H7B C8B 1_555 1_555
C9A N4A 1_555 1_555
C9B N4B 1_555 1_555
C10A N4A 1_555 1_555
C10B N4B 1_555 1_555
C11A N3A 1_555 1_555
C11B N3B 1_555 1_555
C12A C10A 1_555 1_555
C12B C10B 1_555 1_555
H8A C12A 1_555 1_555
H8B C12B 1_555 1_555
H9A C12A 1_555 1_555
H9B C12B 1_555 1_555
H10A C12A 1_555 1_555
H10B C12B 1_555 1_555
C13A C10A 1_555 1_555
C13B C10B 1_555 1_555
H11A C13A 1_555 1_555
H11B C13B 1_555 1_555
H12A C13A 1_555 1_555
H12B C13B 1_555 1_555
H13A C13A 1_555 1_555
H13B C13B 1_555 1_555
C14A C11A 1_555 1_555
C14B C11B 1_555 1_555
H14A C14A 1_555 1_555
H14B C14B 1_555 1_555
H15A C14A 1_555 1_555
H15B C14B 1_555 1_555
H16A C14A 1_555 1_555
H16B C14B 1_555 1_555
C15A C11A 1_555 1_555
C15B C11B 1_555 1_555
H17A C15A 1_555 1_555
H17B C15B 1_555 1_555
H18A C15A 1_555 1_555
H18B C15B 1_555 1_555
H19A C15A 1_555 1_555
H19B C15B 1_555 1_555
N2 C7 1_555 1_555
C1 C6 1_555 1_555
C5 C6 1_555 1_555
C10 C11 1_555 1_555
N2A C7A 1_555 1_555
N2B C7B 1_555 1_555
C1A C6A 1_555 1_555
C1B C6B 1_555 1_555
C5A C6A 1_555 1_555
C5B C6B 1_555 1_555
C7A C9A 1_555 1_555
C7B C9B 1_555 1_555
C10A C11A 1_555 1_555
C10B C11B 1_555 1_555

#END
