
#######################################################################
#
#                 Cambridge Crystallographic Data Centre
#                                CCDC 
#
#######################################################################
#
# If this CIF has been generated from an entry in the Cambridge 
# Structural Database, then it will include bibliographic, chemical, 
# crystal, experimental, refinement or atomic coordinate data resulting 
# from the CCDC's data processing and validation procedures.
#
#######################################################################

data_SOQHOX
_chemical_formula_moiety         'C22 H18 N2 O2 S1,C2 H3 N1'
_chemical_name_systematic        
'10-(1,3-Benzothiazol-2-yl)-2,3,6,7-tetrahydro-1H,5H,11H-pyrano[2,3-f]pyrido[3,2,1-ij]quinolin-11-one acetonitrile solvate'
_symmetry_cell_setting           monoclinic
_symmetry_space_group_name_H-M   'P 21/c'
_symmetry_Int_Tables_number      14
_space_group_name_Hall           '-P 2ybc'
loop_
_symmetry_equiv_pos_site_id
_symmetry_equiv_pos_as_xyz
1 x,y,z
2 -x,1/2+y,1/2-z
3 -x,-y,-z
4 x,1/2-y,1/2+z
_cell_length_a                   8.2348(3)
_cell_length_b                   15.7586(8)
_cell_length_c                   15.4982(8)
_cell_angle_alpha                90
_cell_angle_beta                 99.879(5)
_cell_angle_gamma                90
_cell_volume                     1981.36
_exptl_crystal_colour            'light brown'
_exptl_crystal_description       block
_cell_formula_units_Z            4
loop_
_atom_site_label
_atom_site_type_symbol
_atom_site_fract_x
_atom_site_fract_y
_atom_site_fract_z
S1 S -0.11689(6) 0.55902(4) 0.26770(4)
O1 O 0.22703(17) 0.61394(10) 0.52075(10)
O2 O 0.03140(18) 0.65201(10) 0.41158(10)
N1 N 0.0031(2) 0.40704(12) 0.30214(12)
N2 N 0.6272(2) 0.54613(12) 0.77080(12)
C1 C 0.0080(2) 0.48422(14) 0.33285(14)
C2 C 0.2162(2) 0.44823(14) 0.46197(14)
H1 H 0.2140 0.3926 0.4419
C3 C 0.3293(2) 0.55460(14) 0.56791(14)
C4 C 0.5323(2) 0.43575(14) 0.66574(14)
C5 C -0.1023(2) 0.40237(15) 0.22169(14)
C6 C 0.4318(2) 0.58349(13) 0.64204(14)
C7 C 0.1168(2) 0.59406(14) 0.44569(14)
C8 C 0.5310(2) 0.52277(14) 0.69412(14)
C9 C 0.4423(3) 0.67581(14) 0.66709(15)
H2 H 0.3570 0.6894 0.7009
H3 H 0.4254 0.7107 0.6147
C10 C -0.1786(2) 0.47907(14) 0.19186(14)
C11 C -0.2440(3) 0.33254(15) 0.09312(15)
H4 H -0.2680 0.2837 0.0596
C12 C -0.3197(3) 0.40960(15) 0.06388(15)
H5 H -0.3930 0.4111 0.0111
C13 C 0.4298(2) 0.41161(14) 0.59053(14)
H6 H 0.4303 0.3553 0.5725
C14 C -0.2873(2) 0.48332(15) 0.11210(14)
H7 H -0.3365 0.5344 0.0920
C15 C -0.1339(3) 0.32850(15) 0.17127(14)
H8 H -0.0820 0.2777 0.1900
C16 C 0.6123(2) 0.69441(14) 0.72152(14)
H9 H 0.6966 0.6872 0.6855
H10 H 0.6162 0.7527 0.7420
C17 C 0.6440(3) 0.37439(15) 0.72177(14)
H11 H 0.7549 0.3785 0.7088
H12 H 0.6051 0.3168 0.7097
C18 C 0.1143(2) 0.50750(14) 0.41492(14)
C19 C 0.6449(3) 0.63474(14) 0.79910(14)
H13 H 0.7557 0.6440 0.8308
H14 H 0.5681 0.6467 0.8385
C20 C 0.3235(2) 0.46981(14) 0.53967(14)
C21 C 0.6445(3) 0.39577(15) 0.81749(15)
H15 H 0.7139 0.3559 0.8547
H16 H 0.5335 0.3916 0.8303
C22 C 0.7095(3) 0.48554(15) 0.83556(14)
H17 H 0.6929 0.5028 0.8935
H18 H 0.8271 0.4863 0.8348
N3 N 0.6471(3) 0.79452(15) 0.52582(16)
C23 C 0.7865(3) 0.79212(15) 0.54475(16)
C24 C 0.9652(3) 0.78751(19) 0.5706(2)
H19 H 1.0137 0.7705 0.5212
H20 H 0.9924 0.7468 0.6169
H21 H 1.0070 0.8422 0.5907
loop_
_geom_bond_atom_site_label_1
_geom_bond_atom_site_label_2
_geom_bond_site_symmetry_1
_geom_bond_site_symmetry_2
S1 C1 1_555 1_555
O1 C3 1_555 1_555
O2 C7 1_555 1_555
N1 C1 1_555 1_555
N2 C8 1_555 1_555
C1 C18 1_555 1_555
C2 H1 1_555 1_555
C3 C6 1_555 1_555
C4 C8 1_555 1_555
C5 N1 1_555 1_555
C6 C8 1_555 1_555
C7 O1 1_555 1_555
C9 C6 1_555 1_555
H2 C9 1_555 1_555
H3 C9 1_555 1_555
C10 S1 1_555 1_555
C11 H4 1_555 1_555
C12 C11 1_555 1_555
H5 C12 1_555 1_555
C13 C4 1_555 1_555
H6 C13 1_555 1_555
C14 C10 1_555 1_555
H7 C14 1_555 1_555
C15 C5 1_555 1_555
H8 C15 1_555 1_555
C16 C9 1_555 1_555
H9 C16 1_555 1_555
H10 C16 1_555 1_555
C17 C4 1_555 1_555
H11 C17 1_555 1_555
H12 C17 1_555 1_555
C18 C2 1_555 1_555
C19 N2 1_555 1_555
H13 C19 1_555 1_555
H14 C19 1_555 1_555
C20 C2 1_555 1_555
C21 C17 1_555 1_555
H15 C21 1_555 1_555
H16 C21 1_555 1_555
C22 N2 1_555 1_555
H17 C22 1_555 1_555
H18 C22 1_555 1_555
N3 C23 1_555 1_555
C23 C24 1_555 1_555
C24 H19 1_555 1_555
H20 C24 1_555 1_555
H21 C24 1_555 1_555
C3 C20 1_555 1_555
C5 C10 1_555 1_555
C7 C18 1_555 1_555
C11 C15 1_555 1_555
C12 C14 1_555 1_555
C13 C20 1_555 1_555
C16 C19 1_555 1_555
C21 C22 1_555 1_555

#END
