
#######################################################################
#
#                 Cambridge Crystallographic Data Centre
#                                CCDC 
#
#######################################################################
#
# If this CIF has been generated from an entry in the Cambridge 
# Structural Database, then it will include bibliographic, chemical, 
# crystal, experimental, refinement or atomic coordinate data resulting 
# from the CCDC's data processing and validation procedures.
#
#######################################################################

data_SOQKOZ
_chemical_compound_source        
'vines and leaves of Momordica charantia L. (Cucurbitaceae)'
_chemical_name_common            'Kuguacin P'
_chemical_formula_moiety         'C27 H40 O4'
_chemical_name_systematic        
5,9,17,17-Tetramethyl-8-(4-oxo-2-pentanyl)-18-oxapentacyclo[10.5.2.0^1,13^.0^4,12^.0^5,9^]nonadecane-3,16-dione
_chemical_properties_biological  'weak anti-HIV-1 activity'
_symmetry_cell_setting           orthorhombic
_symmetry_space_group_name_H-M   'P 21 21 21'
_symmetry_Int_Tables_number      19
_space_group_name_Hall           'P 2ac 2ab'
loop_
_symmetry_equiv_pos_site_id
_symmetry_equiv_pos_as_xyz
1 x,y,z
2 1/2-x,-y,1/2+z
3 -x,1/2+y,1/2-z
4 1/2+x,1/2-y,-z
_cell_length_a                   8.7413(8)
_cell_length_b                   11.5522(10)
_cell_length_c                   23.232(2)
_cell_angle_alpha                90
_cell_angle_beta                 90
_cell_angle_gamma                90
_cell_volume                     2346
_exptl_crystal_colour            colorless
_exptl_crystal_description       irregular
_chemical_melting_point          '229-231 deg.C'
_cell_formula_units_Z            4
loop_
_atom_site_label
_atom_site_type_symbol
_atom_site_fract_x
_atom_site_fract_y
_atom_site_fract_z
C1 C 0.85859(14) 0.90617(12) 0.30627(5)
H1 H 0.9087 0.8376 0.3212
H2 H 0.9370 0.9633 0.2981
C2 C 0.75067(15) 0.95405(12) 0.35197(5)
H3 H 0.8067 0.9705 0.3871
H4 H 0.7040 1.0253 0.3385
C3 C 0.62960(14) 0.86432(11) 0.36322(5)
C4 C 0.52786(14) 0.83508(10) 0.31212(5)
C5 C 0.63041(12) 0.80274(9) 0.25956(5)
C6 C 0.53796(13) 0.79975(11) 0.20367(5)
H5 H 0.4529 0.7467 0.2087
H6 H 0.4956 0.8762 0.1970
C7 C 0.62709(13) 0.76364(10) 0.15082(5)
C8 C 0.79970(13) 0.77883(9) 0.14973(5)
H7 H 0.8404 0.7061 0.1344
C9 C 0.86873(12) 0.79031(10) 0.21139(5)
C10 C 0.77574(12) 0.87503(9) 0.25004(4)
H8 H 0.7510 0.9456 0.2285
C11 C 1.04302(13) 0.81049(12) 0.20765(5)
H9 H 1.0792 0.8339 0.2454
H10 H 1.0917 0.7373 0.1985
C12 C 1.09609(12) 0.90053(10) 0.16375(4)
H11 H 1.2070 0.9012 0.1623
H12 H 1.0622 0.9767 0.1758
C13 C 1.03299(12) 0.87468(9) 0.10372(5)
C14 C 0.85354(11) 0.87440(9) 0.10719(4)
C15 C 0.81145(13) 0.85808(11) 0.04365(4)
H13 H 0.7075 0.8834 0.0362
H14 H 0.8218 0.7777 0.0322
C16 C 0.92821(14) 0.93530(12) 0.01179(5)
H15 H 0.8793 1.0058 -0.0015
H16 H 0.9694 0.8947 -0.0213
C17 C 1.05828(12) 0.96460(10) 0.05502(4)
H17 H 1.0353 1.0410 0.0712
C18 C 1.09727(14) 0.75755(10) 0.08279(5)
H18 H 1.0716 0.7466 0.0430
H19 H 1.0537 0.6960 0.1052
H20 H 1.2065 0.7571 0.0871
C19 C 0.83722(14) 0.67723(11) 0.24408(6)
H21 H 0.8384 0.6122 0.2177
H22 H 0.9152 0.6647 0.2731
C20 C 1.21612(14) 0.97356(10) 0.02533(5)
H23 H 1.2343 0.9016 0.0041
C21 C 1.34885(15) 0.99176(15) 0.06689(6)
H24 H 1.4421 1.0004 0.0455
H25 H 1.3570 0.9261 0.0920
H26 H 1.3310 1.0603 0.0893
C22 C 1.21040(16) 1.07394(12) -0.01815(6)
H27 H 1.1231 1.0627 -0.0433
H28 H 1.1945 1.1457 0.0027
C23 C 1.35141(16) 1.08582(12) -0.05441(6)
C24 C 1.4441(2) 1.19293(14) -0.04784(7)
H29 H 1.5416 1.1825 -0.0662
H30 H 1.4592 1.2088 -0.0077
H31 H 1.3914 1.2567 -0.0654
C25 C 0.43060(15) 0.94427(11) 0.29933(5)
H32 H 0.3487 0.9244 0.2736
H33 H 0.4939 1.0023 0.2818
H34 H 0.3889 0.9738 0.3346
C26 C 0.41956(16) 0.73582(12) 0.32786(6)
H35 H 0.4780 0.6669 0.3349
H36 H 0.3498 0.7224 0.2966
H37 H 0.3630 0.7559 0.3618
C27 C 0.78683(13) 0.99431(9) 0.12381(5)
H38 H 0.6808 0.9860 0.1337
H39 H 0.7965 1.0464 0.0918
H40 H 0.8419 1.0247 0.1562
O1 O 0.61711(11) 0.81744(9) 0.40961(4)
O2 O 0.68952(9) 0.68743(6) 0.27068(4)
O3 O 0.55905(11) 0.72308(9) 0.11011(4)
O4 O 1.38715(12) 1.01244(9) -0.08900(4)
loop_
_geom_bond_atom_site_label_1
_geom_bond_atom_site_label_2
_geom_bond_site_symmetry_1
_geom_bond_site_symmetry_2
C1 H1 1_555 1_555
H2 C1 1_555 1_555
C2 C1 1_555 1_555
H3 C2 1_555 1_555
H4 C2 1_555 1_555
C3 C2 1_555 1_555
C4 C3 1_555 1_555
C5 C4 1_555 1_555
C6 C5 1_555 1_555
H5 C6 1_555 1_555
H6 C6 1_555 1_555
C7 C6 1_555 1_555
C8 C7 1_555 1_555
H7 C8 1_555 1_555
C9 C8 1_555 1_555
C10 C1 1_555 1_555
H8 C10 1_555 1_555
C11 C9 1_555 1_555
H9 C11 1_555 1_555
H10 C11 1_555 1_555
C12 C11 1_555 1_555
H11 C12 1_555 1_555
H12 C12 1_555 1_555
C13 C12 1_555 1_555
C14 C8 1_555 1_555
C15 C14 1_555 1_555
H13 C15 1_555 1_555
H14 C15 1_555 1_555
C16 C15 1_555 1_555
H15 C16 1_555 1_555
H16 C16 1_555 1_555
C17 C13 1_555 1_555
H17 C17 1_555 1_555
C18 C13 1_555 1_555
H18 C18 1_555 1_555
H19 C18 1_555 1_555
H20 C18 1_555 1_555
C19 C9 1_555 1_555
H21 C19 1_555 1_555
H22 C19 1_555 1_555
C20 C17 1_555 1_555
H23 C20 1_555 1_555
C21 C20 1_555 1_555
H24 C21 1_555 1_555
H25 C21 1_555 1_555
H26 C21 1_555 1_555
C22 C20 1_555 1_555
H27 C22 1_555 1_555
H28 C22 1_555 1_555
C23 C22 1_555 1_555
C24 C23 1_555 1_555
H29 C24 1_555 1_555
H30 C24 1_555 1_555
H31 C24 1_555 1_555
C25 C4 1_555 1_555
H32 C25 1_555 1_555
H33 C25 1_555 1_555
H34 C25 1_555 1_555
C26 C4 1_555 1_555
H35 C26 1_555 1_555
H36 C26 1_555 1_555
H37 C26 1_555 1_555
C27 C14 1_555 1_555
H38 C27 1_555 1_555
H39 C27 1_555 1_555
H40 C27 1_555 1_555
O1 C3 1_555 1_555
O2 C5 1_555 1_555
O3 C7 1_555 1_555
O4 C23 1_555 1_555
C5 C10 1_555 1_555
C9 C10 1_555 1_555
C13 C14 1_555 1_555
C16 C17 1_555 1_555
C19 O2 1_555 1_555

#END
