
#######################################################################
#
#                 Cambridge Crystallographic Data Centre
#                                CCDC 
#
#######################################################################
#
# If this CIF has been generated from an entry in the Cambridge 
# Structural Database, then it will include bibliographic, chemical, 
# crystal, experimental, refinement or atomic coordinate data resulting 
# from the CCDC's data processing and validation procedures.
#
#######################################################################

data_SOQLUG
_chemical_formula_moiety         'C22 H24 N2 O3'
_chemical_name_systematic        
1-Ethoxy-4-ethyl-1,4a,5,5a,12,14a-hexahydro-14H-pyrano(3',4':6,7)indolizino(1,2-b)quinolin-14-one
_symmetry_cell_setting           triclinic
_symmetry_space_group_name_H-M   'P -1'
_symmetry_Int_Tables_number      2
_space_group_name_Hall           '-P 1'
loop_
_symmetry_equiv_pos_site_id
_symmetry_equiv_pos_as_xyz
1 x,y,z
2 -x,-y,-z
_cell_length_a                   5.8419(7)
_cell_length_b                   13.0316(15)
_cell_length_c                   13.2205(16)
_cell_angle_alpha                93.581(2)
_cell_angle_beta                 102.518(2)
_cell_angle_gamma                101.213(2)
_cell_volume                     958.018
_exptl_crystal_colour            colorless
_exptl_crystal_description       prismatic
_cell_formula_units_Z            2
loop_
_atom_site_label
_atom_site_type_symbol
_atom_site_fract_x
_atom_site_fract_y
_atom_site_fract_z
N1 N 0.4161(3) 0.11315(14) 0.68896(12)
N2 N 0.7308(3) -0.09435(14) 0.67484(13)
O1 O 0.1840(3) 0.22970(12) 0.70533(12)
O2 O 0.5091(3) 0.43256(13) 0.79436(12)
O3 O 0.7694(3) 0.41183(13) 0.93999(13)
C1 C 0.5552(4) 0.36117(19) 0.86400(18)
H1 H 0.4214 0.3435 0.8980
C2 C 0.8779(5) 0.3466(2) 1.00193(19)
H2 H 0.9922 0.3787 1.0616
C3 C 0.8386(4) 0.2434(2) 0.98661(17)
C4 C 0.6621(4) 0.18489(17) 0.88910(15)
H3 H 0.5154 0.1525 0.9096
C5 C 0.5948(4) 0.26284(16) 0.81081(15)
H4 H 0.7279 0.2828 0.7769
C6 C 0.3774(4) 0.20340(18) 0.72866(15)
C7 C 0.6460(4) 0.08064(16) 0.71803(15)
H5 H 0.7605 0.1238 0.6853
C8 C 0.7488(4) 0.09717(18) 0.83658(15)
H6 H 0.7012 0.0322 0.8659
H7 H 0.9227 0.1144 0.8508
C9 C 0.2359(4) 0.04019(17) 0.60799(15)
H8 H 0.2040 0.0714 0.5430
H9 H 0.0868 0.0192 0.6297
C10 C 0.3513(4) -0.05028(17) 0.59730(15)
C11 C 0.5845(4) -0.02963(17) 0.66430(15)
C12 C 0.6538(4) -0.18853(18) 0.61180(16)
C13 C 0.4276(4) -0.21372(18) 0.53823(15)
C14 C 0.2757(4) -0.14216(17) 0.53398(16)
H10 H 0.1251 -0.1575 0.4883
C15 C 0.3715(5) -0.30714(19) 0.46968(18)
H11 H 0.2245 -0.3246 0.4214
C16 C 0.5270(5) -0.3716(2) 0.4729(2)
H12 H 0.4893 -0.4314 0.4253
C17 C 0.7449(5) -0.3488(2) 0.5477(2)
H13 H 0.8492 -0.3946 0.5507
C18 C 0.8058(5) -0.25954(19) 0.61636(19)
H14 H 0.9498 -0.2460 0.6666
C19 C 0.3792(7) 0.5053(3) 0.8237(2)
H15 H 0.4817 0.5542 0.8815
H16 H 0.2440 0.4678 0.8477
C20 C 0.2932(9) 0.5629(3) 0.7419(3)
H17 H 0.4242 0.5957 0.7139
H18 H 0.2213 0.6159 0.7682
H19 H 0.1755 0.5161 0.6880
C21 C 0.9558(5) 0.1795(2) 1.06629(17)
H20 H 1.0416 0.1359 1.0330
H21 H 1.0724 0.2271 1.1212
C22 C 0.7795(6) 0.1096(2) 1.1145(2)
H22 H 0.6912 0.1519 1.1463
H23 H 0.8651 0.0738 1.1664
H24 H 0.6702 0.0589 1.0613
loop_
_geom_bond_atom_site_label_1
_geom_bond_atom_site_label_2
_geom_bond_site_symmetry_1
_geom_bond_site_symmetry_2
N1 C6 1_555 1_555
N2 C11 1_555 1_555
O1 C6 1_555 1_555
O2 C1 1_555 1_555
O3 C1 1_555 1_555
C1 H1 1_555 1_555
C2 O3 1_555 1_555
H2 C2 1_555 1_555
C3 C2 1_555 1_555
C4 C3 1_555 1_555
H3 C4 1_555 1_555
C5 C1 1_555 1_555
H4 C5 1_555 1_555
C6 C5 1_555 1_555
C7 N1 1_555 1_555
H5 C7 1_555 1_555
C8 C4 1_555 1_555
H6 C8 1_555 1_555
H7 C8 1_555 1_555
C9 N1 1_555 1_555
H8 C9 1_555 1_555
H9 C9 1_555 1_555
C10 C9 1_555 1_555
C11 C7 1_555 1_555
C12 N2 1_555 1_555
C13 C12 1_555 1_555
C14 C10 1_555 1_555
H10 C14 1_555 1_555
C15 C13 1_555 1_555
H11 C15 1_555 1_555
C16 C15 1_555 1_555
H12 C16 1_555 1_555
C17 C16 1_555 1_555
H13 C17 1_555 1_555
C18 C12 1_555 1_555
H14 C18 1_555 1_555
C19 O2 1_555 1_555
H15 C19 1_555 1_555
H16 C19 1_555 1_555
C20 C19 1_555 1_555
H17 C20 1_555 1_555
H18 C20 1_555 1_555
H19 C20 1_555 1_555
C21 C3 1_555 1_555
H20 C21 1_555 1_555
H21 C21 1_555 1_555
C22 C21 1_555 1_555
H22 C22 1_555 1_555
H23 C22 1_555 1_555
H24 C22 1_555 1_555
C4 C5 1_555 1_555
C7 C8 1_555 1_555
C10 C11 1_555 1_555
C13 C14 1_555 1_555
C17 C18 1_555 1_555

#END
