
#######################################################################
#
#                 Cambridge Crystallographic Data Centre
#                                CCDC 
#
#######################################################################
#
# If this CIF has been generated from an entry in the Cambridge 
# Structural Database, then it will include bibliographic, chemical, 
# crystal, experimental, refinement or atomic coordinate data resulting 
# from the CCDC's data processing and validation procedures.
#
#######################################################################

data_SOQLOB
_chemical_formula_moiety         'C3 N7 O4 1-,Na1 1+,3(H2 O1)'
_chemical_name_systematic        
'Sodium 7-nitro[1,2,4]triazolo[5,1-d][1,2,3,5]tetrazin-4-olate 2-oxide trihydrate'
_symmetry_cell_setting           orthorhombic
_symmetry_space_group_name_H-M   'P n m a'
_symmetry_Int_Tables_number      62
_space_group_name_Hall           '-P 2ac 2n'
loop_
_symmetry_equiv_pos_site_id
_symmetry_equiv_pos_as_xyz
1 x,y,z
2 1/2-x,-y,1/2+z
3 -x,1/2+y,-z
4 1/2+x,1/2-y,1/2-z
5 -x,-y,-z
6 1/2+x,y,1/2-z
7 x,1/2-y,z
8 1/2-x,1/2+y,1/2+z
_cell_length_a                   17.882(5)
_cell_length_b                   6.0919(18)
_cell_length_c                   9.281(3)
_cell_angle_alpha                90
_cell_angle_beta                 90
_cell_angle_gamma                90
_cell_volume                     1011.03
_exptl_crystal_colour            colorless
_exptl_crystal_description       Chunk
_cell_formula_units_Z            4
loop_
_atom_site_label
_atom_site_type_symbol
_atom_site_fract_x
_atom_site_fract_y
_atom_site_fract_z
Na1 Na 0.0000 0.5000 0.0000
O1 O 0.10430(6) 0.2500 0.00129(10)
O2 O 0.35392(6) 0.2500 0.03660(14)
O3 O 0.11796(8) 0.2500 0.67881(13)
O4 O 0.01780(7) 0.2500 0.54622(14)
N1 N 0.23161(7) 0.2500 0.01114(13)
N2 N 0.29198(6) 0.2500 0.09821(14)
N3 N 0.29326(6) 0.2500 0.24223(14)
N4 N 0.20725(7) 0.2500 0.44177(13)
N5 N 0.09938(6) 0.2500 0.30699(13)
N6 N 0.16111(6) 0.2500 0.22129(12)
N7 N 0.08597(8) 0.2500 0.56345(13)
C1 C 0.16220(7) 0.2500 0.07100(14)
C2 C 0.22475(7) 0.2500 0.30167(15)
C3 C 0.13213(8) 0.2500 0.43400(14)
O5 O 0.04796(6) 0.7500 -0.17047(12)
H1 H 0.0918(15) 0.7500 -0.202(3)
H2 H 0.0209(18) 0.7500 -0.244(3)
O6 O 0.05435(7) 0.7500 0.16555(12)
H3 H 0.1004(15) 0.7500 0.184(3)
H4 H 0.0347(17) 0.7500 0.243(3)
O7 O 0.29445(7) 0.2500 0.70922(14)
H5 H 0.2639(15) 0.2500 0.644(3)
H6 H 0.2722(15) 0.2500 0.785(3)
loop_
_geom_bond_atom_site_label_1
_geom_bond_atom_site_label_2
_geom_bond_site_symmetry_1
_geom_bond_site_symmetry_2
O1 C1 1_555 1_555
O2 N2 1_555 1_555
O3 N7 1_555 1_555
O4 N7 1_555 1_555
N1 N2 1_555 1_555
N2 N3 1_555 1_555
N3 C2 1_555 1_555
N4 C2 1_555 1_555
N5 N6 1_555 1_555
N6 C1 1_555 1_555
N7 C3 1_555 1_555
C1 N1 1_555 1_555
C2 N6 1_555 1_555
C3 N4 1_555 1_555
O5 H1 1_555 1_555
H2 O5 1_555 1_555
O6 H3 1_555 1_555
H4 O6 1_555 1_555
O7 H5 1_555 1_555
H6 O7 1_555 1_555
N5 C3 1_555 1_555

#END
