
#######################################################################
#
#                 Cambridge Crystallographic Data Centre
#                                CCDC 
#
#######################################################################
#
# If this CIF has been generated from an entry in the Cambridge 
# Structural Database, then it will include bibliographic, chemical, 
# crystal, experimental, refinement or atomic coordinate data resulting 
# from the CCDC's data processing and validation procedures.
#
#######################################################################

data_SORBEG01
_chemical_formula_moiety         'C9 H7 N3 O2'
_chemical_name_systematic        1-(4-nitrophenyl)-1H-pyrazole
_symmetry_cell_setting           monoclinic
_symmetry_space_group_name_H-M   'P 21/n'
_symmetry_Int_Tables_number      14
_space_group_name_Hall           '-P 2yn'
loop_
_symmetry_equiv_pos_site_id
_symmetry_equiv_pos_as_xyz
1 x,y,z
2 1/2-x,1/2+y,1/2-z
3 -x,-y,-z
4 1/2+x,1/2-y,1/2+z
_cell_length_a                   6.9199(2)
_cell_length_b                   10.2568(4)
_cell_length_c                   11.5010(4)
_cell_angle_alpha                90
_cell_angle_beta                 93.857(2)
_cell_angle_gamma                90
_cell_volume                     814.446
_exptl_crystal_colour            brown
_exptl_crystal_description       plate
_cell_formula_units_Z            4
loop_
_atom_site_label
_atom_site_type_symbol
_atom_site_fract_x
_atom_site_fract_y
_atom_site_fract_z
O1 O 0.39681(19) 0.25971(12) 0.81659(10)
O2 O 0.22650(19) 0.43754(13) 0.81544(11)
N1 N 0.33592(19) 0.38693(13) 0.27878(11)
N2 N 0.4169(2) 0.28987(14) 0.21638(12)
N3 N 0.3143(2) 0.35168(14) 0.76572(12)
C1 C 0.4026(2) 0.33327(17) 0.10737(14)
H1 H 0.447116 0.286341 0.043165
C2 C 0.3144(2) 0.45610(17) 0.09775(15)
H2 H 0.289018 0.506407 0.029068
C3 C 0.2731(2) 0.48767(16) 0.20858(14)
H3 H 0.212010 0.565244 0.232412
C4 C 0.3302(2) 0.37644(15) 0.40103(14)
C5 C 0.4119(2) 0.26890(16) 0.45964(14)
H4 H 0.471106 0.201798 0.417576
C6 C 0.4063(2) 0.26020(16) 0.57981(14)
H5 H 0.459797 0.186743 0.620695
C7 C 0.3215(2) 0.36034(16) 0.63920(14)
C8 C 0.2422(2) 0.46858(16) 0.58253(14)
H6 H 0.186018 0.536473 0.625171
C9 C 0.2462(2) 0.47632(16) 0.46257(14)
H7 H 0.191720 0.549772 0.422141
loop_
_geom_bond_atom_site_label_1
_geom_bond_atom_site_label_2
_geom_bond_site_symmetry_1
_geom_bond_site_symmetry_2
O1 N3 1_555 1_555
O2 N3 1_555 1_555
N1 N2 1_555 1_555
N2 C1 1_555 1_555
N3 C7 1_555 1_555
C1 H1 1_555 1_555
C2 C1 1_555 1_555
H2 C2 1_555 1_555
C3 N1 1_555 1_555
H3 C3 1_555 1_555
C4 N1 1_555 1_555
C5 C4 1_555 1_555
H4 C5 1_555 1_555
C6 C5 1_555 1_555
H5 C6 1_555 1_555
C7 C6 1_555 1_555
C8 C7 1_555 1_555
H6 C8 1_555 1_555
C9 C4 1_555 1_555
H7 C9 1_555 1_555
C2 C3 1_555 1_555
C8 C9 1_555 1_555

#END
