
#######################################################################
#
#                 Cambridge Crystallographic Data Centre
#                                CCDC 
#
#######################################################################
#
# If this CIF has been generated from an entry in the Cambridge 
# Structural Database, then it will include bibliographic, chemical, 
# crystal, experimental, refinement or atomic coordinate data resulting 
# from the CCDC's data processing and validation procedures.
#
#######################################################################

data_SORCOT
_chemical_formula_moiety         'C32 H28 N2 O2'
_chemical_name_systematic        
5-benzyl-5-(2-(4-methylphenyl)-1,2,3,4-tetrahydroisoquinolin-1-yl)-2-phenyl-1,3-oxazol-4(5H)-one
_symmetry_cell_setting           monoclinic
_symmetry_space_group_name_H-M   'P 21/c'
_symmetry_Int_Tables_number      14
_space_group_name_Hall           '-P 2ybc'
loop_
_symmetry_equiv_pos_site_id
_symmetry_equiv_pos_as_xyz
1 x,y,z
2 -x,1/2+y,1/2-z
3 -x,-y,-z
4 x,1/2-y,1/2+z
_cell_length_a                   6.5198(3)
_cell_length_b                   16.3244(7)
_cell_length_c                   24.2413(9)
_cell_angle_alpha                90
_cell_angle_beta                 94.884(4)
_cell_angle_gamma                90
_cell_volume                     2570.68
_exptl_crystal_colour            'light colorless'
_exptl_crystal_description       block
_cell_formula_units_Z            4
_exptl_crystal_recrystallization_method dichloromethane/n-pentane
loop_
_atom_site_label
_atom_site_type_symbol
_atom_site_fract_x
_atom_site_fract_y
_atom_site_fract_z
O1 O 0.1282(2) 0.68600(10) 0.15336(6)
O2 O 0.6514(3) 0.73053(13) 0.17341(8)
N1 N 0.2060(3) 0.67336(13) 0.28703(8)
N2 N 0.4059(3) 0.68851(14) 0.10373(8)
C1 C -0.0063(4) 0.6461(2) 0.27662(12)
H1 H -0.0656 0.6702 0.2423
H2 H -0.0850 0.6652 0.3063
C2 C -0.0222(5) 0.5557(2) 0.27278(14)
H3 H -0.1605 0.5409 0.2583
H4 H 0.0021 0.5323 0.3095
C3 C 0.1301(5) 0.5202(2) 0.23592(12)
C4 C 0.1074(8) 0.4409(3) 0.21567(17)
H5 H -0.0084 0.4109 0.2231
C5 C 0.2504(10) 0.4054(3) 0.18506(19)
H6 H 0.2308 0.3521 0.1721
C6 C 0.4219(8) 0.4480(3) 0.17338(15)
H7 H 0.5203 0.4236 0.1531
C7 C 0.4483(5) 0.5287(2) 0.19217(11)
H8 H 0.5640 0.5583 0.1841
C8 C 0.3019(4) 0.56488(16) 0.22298(10)
C9 C 0.3304(3) 0.65283(15) 0.24179(9)
H9 H 0.4747 0.6586 0.2562
C10 C 0.2995(4) 0.67505(16) 0.34168(9)
C11 C 0.1980(4) 0.64970(19) 0.38679(11)
H10 H 0.0637 0.6302 0.3814
C12 C 0.2962(5) 0.6533(2) 0.43993(11)
H11 H 0.2244 0.6364 0.4695
C13 C 0.4942(5) 0.68069(18) 0.45069(11)
C14 C 0.5916(4) 0.70748(18) 0.40594(11)
H12 H 0.7251 0.7276 0.4117
C15 C 0.4970(4) 0.70536(17) 0.35251(10)
H13 H 0.5676 0.7247 0.3234
C16 C 0.6022(6) 0.6806(2) 0.50861(12)
H14 H 0.7446 0.6946 0.5068
H15 H 0.5923 0.6271 0.5246
H16 H 0.5383 0.7200 0.5310
C17 C 0.2948(3) 0.71370(14) 0.19255(9)
C18 C 0.2472(4) 0.80047(15) 0.21108(10)
H17 H 0.1165 0.7997 0.2274
H18 H 0.3521 0.8168 0.2398
C19 C 0.2365(4) 0.86415(15) 0.16611(10)
C20 C 0.4013(4) 0.91550(18) 0.15959(12)
H19 H 0.5210 0.9099 0.1830
C21 C 0.3917(6) 0.97484(19) 0.11909(15)
H20 H 0.5034 1.0093 0.1156
C22 C 0.2173(6) 0.9829(2) 0.08411(13)
H21 H 0.2108 1.0223 0.0563
C23 C 0.0526(6) 0.93297(19) 0.08991(13)
H22 H -0.0662 0.9390 0.0662
C24 C 0.0603(4) 0.87356(17) 0.13061(12)
H23 H -0.0529 0.8399 0.1342
C25 C 0.4755(4) 0.71308(16) 0.15704(10)
C26 C 0.2115(4) 0.67397(15) 0.10536(9)
C27 C 0.0727(4) 0.64465(16) 0.05917(10)
C28 C 0.1397(5) 0.6421(2) 0.00634(12)
H24 H 0.2713 0.6600 0.0003
C29 C 0.0104(7) 0.6128(3) -0.03709(13)
H25 H 0.0545 0.6114 -0.0726
C30 C -0.1828(7) 0.5856(3) -0.02830(16)
H26 H -0.2685 0.5650 -0.0577
C31 C -0.2504(5) 0.5885(2) 0.02377(15)
H27 H -0.3817 0.5701 0.0297
C32 C -0.1225(4) 0.61911(19) 0.06748(12)
H28 H -0.1692 0.6223 0.1026
loop_
_geom_bond_atom_site_label_1
_geom_bond_atom_site_label_2
_geom_bond_site_symmetry_1
_geom_bond_site_symmetry_2
O1 C17 1_555 1_555
O2 C25 1_555 1_555
N1 C1 1_555 1_555
N2 C25 1_555 1_555
C1 H1 1_555 1_555
H2 C1 1_555 1_555
C2 C1 1_555 1_555
H3 C2 1_555 1_555
H4 C2 1_555 1_555
C3 C2 1_555 1_555
C4 C3 1_555 1_555
H5 C4 1_555 1_555
C5 C4 1_555 1_555
H6 C5 1_555 1_555
C6 C5 1_555 1_555
H7 C6 1_555 1_555
C7 C6 1_555 1_555
H8 C7 1_555 1_555
C8 C3 1_555 1_555
C9 N1 1_555 1_555
H9 C9 1_555 1_555
C10 N1 1_555 1_555
C11 C10 1_555 1_555
H10 C11 1_555 1_555
C12 C11 1_555 1_555
H11 C12 1_555 1_555
C13 C12 1_555 1_555
C14 C13 1_555 1_555
H12 C14 1_555 1_555
C15 C10 1_555 1_555
H13 C15 1_555 1_555
C16 C13 1_555 1_555
H14 C16 1_555 1_555
H15 C16 1_555 1_555
H16 C16 1_555 1_555
C17 C9 1_555 1_555
C18 C17 1_555 1_555
H17 C18 1_555 1_555
H18 C18 1_555 1_555
C19 C18 1_555 1_555
C20 C19 1_555 1_555
H19 C20 1_555 1_555
C21 C20 1_555 1_555
H20 C21 1_555 1_555
C22 C21 1_555 1_555
H21 C22 1_555 1_555
C23 C22 1_555 1_555
H22 C23 1_555 1_555
C24 C19 1_555 1_555
H23 C24 1_555 1_555
C25 C17 1_555 1_555
C26 O1 1_555 1_555
C27 C26 1_555 1_555
C28 C27 1_555 1_555
H24 C28 1_555 1_555
C29 C28 1_555 1_555
H25 C29 1_555 1_555
C30 C29 1_555 1_555
H26 C30 1_555 1_555
C31 C30 1_555 1_555
H27 C31 1_555 1_555
C32 C27 1_555 1_555
H28 C32 1_555 1_555
N2 C26 1_555 1_555
C7 C8 1_555 1_555
C8 C9 1_555 1_555
C14 C15 1_555 1_555
C23 C24 1_555 1_555
C31 C32 1_555 1_555

#END
