
#######################################################################
#
#                 Cambridge Crystallographic Data Centre
#                                CCDC 
#
#######################################################################
#
# If this CIF has been generated from an entry in the Cambridge 
# Structural Database, then it will include bibliographic, chemical, 
# crystal, experimental, refinement or atomic coordinate data resulting 
# from the CCDC's data processing and validation procedures.
#
#######################################################################

data_SORFAH
_chemical_formula_moiety         'C14 H9 N1 O3'
_chemical_name_systematic        3-Hydroxy-2-(2-pyridinyl)-4H-chromen-4-one
_symmetry_cell_setting           monoclinic
_symmetry_space_group_name_H-M   'P 21/c'
_symmetry_Int_Tables_number      14
_space_group_name_Hall           '-P 2ybc'
loop_
_symmetry_equiv_pos_site_id
_symmetry_equiv_pos_as_xyz
1 x,y,z
2 -x,1/2+y,1/2-z
3 -x,-y,-z
4 x,1/2-y,1/2+z
_cell_length_a                   11.4213(3)
_cell_length_b                   12.9119(4)
_cell_length_c                   7.4058(2)
_cell_angle_alpha                90
_cell_angle_beta                 99.8483(16)
_cell_angle_gamma                90
_cell_volume                     1076.04
_exptl_crystal_colour            yellow
_exptl_crystal_description       needle
_cell_formula_units_Z            4
_exptl_crystal_recrystallization_method ethanol
_exptl_crystal_preparation       fluorescent
loop_
_atom_site_label
_atom_site_type_symbol
_atom_site_fract_x
_atom_site_fract_y
_atom_site_fract_z
O1 O 0.15406(8) 0.33476(7) 0.33457(13)
O2 O 0.10188(9) 0.05736(7) 0.35615(15)
H1 H 0.0318(19) 0.0766(15) 0.393(3)
O3 O 0.32102(9) 0.06183(8) 0.25926(15)
N1 N -0.07348(10) 0.16553(9) 0.43490(15)
C1 C 0.26521(12) 0.33610(11) 0.28935(18)
C2 C 0.31376(13) 0.43362(11) 0.2721(2)
H2 H 0.2702 0.4943 0.2904
C3 C 0.42566(13) 0.44098(12) 0.2283(2)
H3 H 0.4601 0.5072 0.2173
C4 C 0.48901(13) 0.35144(13) 0.1997(2)
H4 H 0.5663 0.3571 0.1695
C5 C 0.44005(13) 0.25569(11) 0.2152(2)
H5 H 0.4835 0.1954 0.1944
C6 C 0.32629(12) 0.24574(10) 0.26155(19)
C7 C 0.27203(12) 0.14457(11) 0.28234(19)
C8 C 0.15402(12) 0.14925(10) 0.33367(18)
C9 C 0.10060(12) 0.24142(10) 0.35566(18)
C10 C -0.01812(12) 0.25429(10) 0.40144(18)
C11 C -0.07175(12) 0.35110(11) 0.40661(19)
H6 H -0.0305 0.4126 0.3854
C12 C -0.18626(13) 0.35544(12) 0.44322(19)
H7 H -0.2261 0.4200 0.4432
C13 C -0.24222(13) 0.26478(12) 0.47982(19)
H8 H -0.3205 0.2664 0.5073
C14 C -0.18264(12) 0.17173(12) 0.47592(19)
H9 H -0.2209 0.1098 0.5035
loop_
_geom_bond_atom_site_label_1
_geom_bond_atom_site_label_2
_geom_bond_site_symmetry_1
_geom_bond_site_symmetry_2
O1 C1 1_555 1_555
O2 H1 1_555 1_555
O3 C7 1_555 1_555
N1 C10 1_555 1_555
C1 C2 1_555 1_555
C2 H2 1_555 1_555
C3 C2 1_555 1_555
H3 C3 1_555 1_555
C4 C3 1_555 1_555
H4 C4 1_555 1_555
C5 C4 1_555 1_555
H5 C5 1_555 1_555
C6 C1 1_555 1_555
C7 C6 1_555 1_555
C8 O2 1_555 1_555
C9 O1 1_555 1_555
C10 C9 1_555 1_555
C11 C10 1_555 1_555
H6 C11 1_555 1_555
C12 C11 1_555 1_555
H7 C12 1_555 1_555
C13 C12 1_555 1_555
H8 C13 1_555 1_555
C14 N1 1_555 1_555
H9 C14 1_555 1_555
C5 C6 1_555 1_555
C7 C8 1_555 1_555
C8 C9 1_555 1_555
C13 C14 1_555 1_555

#END
