
#######################################################################
#
#                 Cambridge Crystallographic Data Centre
#                                CCDC 
#
#######################################################################
#
# If this CIF has been generated from an entry in the Cambridge 
# Structural Database, then it will include bibliographic, chemical, 
# crystal, experimental, refinement or atomic coordinate data resulting 
# from the CCDC's data processing and validation procedures.
#
#######################################################################

data_SORLUH
_chemical_formula_moiety         'C26 H33 N3 O2'
_chemical_name_systematic        
'(1R,2R)-(2-(4-Benzylpiperazin-1-yl)-1,2-dihydronaphthalene-1-yl)carbamic acid t-butyl ester'
_symmetry_cell_setting           monoclinic
_symmetry_space_group_name_H-M   'P 21/n'
_symmetry_Int_Tables_number      14
_space_group_name_Hall           '-P 2yn'
loop_
_symmetry_equiv_pos_site_id
_symmetry_equiv_pos_as_xyz
1 x,y,z
2 1/2-x,1/2+y,1/2-z
3 -x,-y,-z
4 1/2+x,1/2-y,1/2+z
_cell_length_a                   14.1529(4)
_cell_length_b                   9.9514(3)
_cell_length_c                   17.2621(5)
_cell_angle_alpha                90
_cell_angle_beta                 93.840(1)
_cell_angle_gamma                90
_cell_volume                     2425.76
_cell_formula_units_Z            4
_exptl_crystal_recrystallization_method 'dichloromethane/petroleum ether'
loop_
_atom_site_label
_atom_site_type_symbol
_atom_site_fract_x
_atom_site_fract_y
_atom_site_fract_z
C1 C 0.2763(2) 0.7039(5) 0.3594(1)
C2 C 0.3708(2) 0.6847(5) 0.3843(2)
C3 C 0.3966(2) 0.6708(5) 0.4630(2)
C4 C 0.3280(3) 0.6759(5) 0.5168(1)
C5 C 0.2335(2) 0.6951(4) 0.4920(2)
C6 C 0.2077(2) 0.7091(4) 0.4133(2)
C7 C 0.1123(5) 0.7460(6) 0.3935(4)
C8 C 0.1678(5) 0.7302(7) 0.5481(3)
C9 C 0.0480(5) 0.7763(8) 0.4485(4)
C10 C 0.0770(5) 0.7683(8) 0.5245(4)
N1 N 0.4415(3) 0.6446(4) 0.3287(2)
N2 N 0.6059(3) 0.5152(5) 0.2757(3)
C11 C 0.4529(4) 0.4999(5) 0.3331(3)
C12 C 0.5922(4) 0.6599(6) 0.2696(4)
C13 C 0.5113(4) 0.4502(6) 0.2701(4)
C14 C 0.5331(4) 0.7078(6) 0.3341(4)
C15 C 0.7639(5) 0.5065(6) 0.2242(3)
C16 C 0.8144(5) 0.5347(7) 0.1606(4)
C17 C 0.6641(5) 0.4634(7) 0.2151(4)
C18 C 0.9109(6) 0.5393(9) 0.3011(5)
C19 C 0.9091(6) 0.5652(7) 0.1646(6)
C20 C 0.8130(5) 0.5146(7) 0.2960(4)
C21 C 0.9602(6) 0.5680(7) 0.2367(6)
N3 N 0.2496(3) 0.7327(4) 0.2793(2)
C22 C 0.2427(4) 0.6617(6) 0.2139(3)
O1 O 0.2421(3) 0.7443(3) 0.1523(2)
O2 O 0.2366(3) 0.5382(4) 0.2100(2)
C23 C 0.2379(4) 0.6906(5) 0.0721(3)
C24 C 0.1445(5) 0.6257(9) 0.0537(3)
C25 C 0.2483(7) 0.8195(7) 0.0254(4)
C26 C 0.3189(5) 0.5978(8) 0.0615(4)
H1 H 0.2665 0.6073 0.3514
H2 H 0.3868 0.7805 0.3827
H3 H 0.4599 0.6579 0.4796
H4 H 0.3453 0.6666 0.5695
H5 H 0.0918 0.7501 0.3412
H6 H 0.1865 0.7272 0.6007
H7 H -0.0138 0.8015 0.4332
H8 H 0.0347 0.7891 0.5617
H9 H 0.3912 0.4573 0.3284
H10 H 0.4833 0.4759 0.3833
H11 H 0.5605 0.6818 0.2197
H12 H 0.6531 0.7049 0.2734
H13 H 0.5188 0.3535 0.2745
H14 H 0.4793 0.4698 0.2200
H15 H 0.5655 0.6870 0.3840
H16 H 0.5254 0.8046 0.3307
H17 H 0.7823 0.5328 0.1118
H18 H 0.6371 0.4933 0.1649
H19 H 0.6617 0.3660 0.2157
H20 H 0.9438 0.5362 0.3495
H21 H 0.9392 0.5839 0.1196
H22 H 0.7811 0.5038 0.3410
H23 H 1.0245 0.5883 0.2411
H24 H 0.2344 0.8156 0.2719
H25 H 0.1406 0.5447 0.0834
H26 H 0.1377 0.6047 -0.0007
H27 H 0.0949 0.6860 0.0664
H28 H 0.2050 0.8860 0.0422
H29 H 0.2345 0.8010 -0.0288
H30 H 0.3120 0.8524 0.0334
H31 H 0.3774 0.6427 0.0765
H32 H 0.3187 0.5716 0.0080
H33 H 0.3128 0.5194 0.0932
loop_
_geom_bond_atom_site_label_1
_geom_bond_atom_site_label_2
_geom_bond_site_symmetry_1
_geom_bond_site_symmetry_2
C1 C2 1_555 1_555
C2 C3 1_555 1_555
C3 C4 1_555 1_555
C4 C5 1_555 1_555
C5 C6 1_555 1_555
C6 C1 1_555 1_555
C7 C6 1_555 1_555
C8 C5 1_555 1_555
C9 C7 1_555 1_555
C10 C8 1_555 1_555
N1 C2 1_555 1_555
N2 C12 1_555 1_555
C11 N1 1_555 1_555
C12 C14 1_555 1_555
C13 N2 1_555 1_555
C14 N1 1_555 1_555
C15 C16 1_555 1_555
C16 C19 1_555 1_555
C17 N2 1_555 1_555
C18 C20 1_555 1_555
C19 C21 1_555 1_555
C20 C15 1_555 1_555
C21 C18 1_555 1_555
N3 C1 1_555 1_555
C22 N3 1_555 1_555
O1 C22 1_555 1_555
O2 C22 1_555 1_555
C23 O1 1_555 1_555
C24 C23 1_555 1_555
C25 C23 1_555 1_555
C26 C23 1_555 1_555
H1 C1 1_555 1_555
H2 C2 1_555 1_555
H3 C3 1_555 1_555
H4 C4 1_555 1_555
H5 C7 1_555 1_555
H6 C8 1_555 1_555
H7 C9 1_555 1_555
H8 C10 1_555 1_555
H9 C11 1_555 1_555
H10 C11 1_555 1_555
H11 C12 1_555 1_555
H12 C12 1_555 1_555
H13 C13 1_555 1_555
H14 C13 1_555 1_555
H15 C14 1_555 1_555
H16 C14 1_555 1_555
H17 C16 1_555 1_555
H18 C17 1_555 1_555
H19 C17 1_555 1_555
H20 C18 1_555 1_555
H21 C19 1_555 1_555
H22 C20 1_555 1_555
H23 C21 1_555 1_555
H24 N3 1_555 1_555
H25 C24 1_555 1_555
H26 C24 1_555 1_555
H27 C24 1_555 1_555
H28 C25 1_555 1_555
H29 C25 1_555 1_555
H30 C25 1_555 1_555
H31 C26 1_555 1_555
H32 C26 1_555 1_555
H33 C26 1_555 1_555
C9 C10 1_555 1_555
C11 C13 1_555 1_555
C15 C17 1_555 1_555

#END
