
#######################################################################
#
#                 Cambridge Crystallographic Data Centre
#                                CCDC 
#
#######################################################################
#
# If this CIF has been generated from an entry in the Cambridge 
# Structural Database, then it will include bibliographic, chemical, 
# crystal, experimental, refinement or atomic coordinate data resulting 
# from the CCDC's data processing and validation procedures.
#
#######################################################################

data_SORPUL
_chemical_formula_moiety         'C21 H15 Br1 O3'
_chemical_name_systematic        
'(S)-Methyl 8-bromo-1-phenyl-1H-benzo[f]chromene-3-carboxylate'
_symmetry_cell_setting           monoclinic
_symmetry_space_group_name_H-M   'C 2'
_symmetry_Int_Tables_number      5
_space_group_name_Hall           'C 2y'
loop_
_symmetry_equiv_pos_site_id
_symmetry_equiv_pos_as_xyz
1 x,y,z
2 -x,y,-z
3 1/2+x,1/2+y,z
4 1/2-x,1/2+y,-z
_cell_length_a                   18.798(4)
_cell_length_b                   5.7602(12)
_cell_length_c                   16.688(3)
_cell_angle_alpha                90
_cell_angle_beta                 108.979(2)
_cell_angle_gamma                90
_cell_volume                     1708.75
_exptl_crystal_colour            colorless
_exptl_crystal_description       sheet
_chemical_melting_point          224-225deg.C
_cell_formula_units_Z            4
loop_
_atom_site_label
_atom_site_type_symbol
_atom_site_fract_x
_atom_site_fract_y
_atom_site_fract_z
Br1 Br 0.44287(3) 0.4072(2) 0.06383(4)
C1 C 0.2434(3) 0.4420(12) 0.1190(3)
C2 C 0.3006(3) 0.3780(14) 0.0853(3)
H1 H 0.2946 0.2474 0.0510
C3 C 0.1765(3) 0.3109(9) 0.1023(3)
H2 H 0.1685 0.1843 0.0659
C4 C 0.3734(3) 0.7118(12) 0.1508(4)
H3 H 0.4160 0.8033 0.1595
C5 C 0.2523(3) 0.6429(10) 0.1704(3)
C6 C 0.1360(3) 0.5533(10) 0.1933(3)
C7 C 0.3184(3) 0.7748(10) 0.1843(3)
H4 H 0.3250 0.9085 0.2171
C8 C 0.3639(3) 0.5074(11) 0.1033(3)
C9 C 0.1970(3) 0.6954(9) 0.2109(3)
C10 C 0.1242(3) 0.3659(12) 0.1380(3)
H5 H 0.0803 0.2789 0.1259
C11 C 0.2068(2) 0.8961(13) 0.2695(2)
H6 H 0.2188 1.0324 0.2411
C12 C 0.0795(3) 0.7882(10) 0.2693(3)
C13 C 0.1336(2) 0.9449(11) 0.2861(3)
H7 H 0.1267 1.0877 0.3085
O1 O 0.07959(19) 0.5827(6) 0.2292(2)
O2 O 0.0088(2) 1.0113(8) 0.3317(3)
O3 O -0.0330(2) 0.6553(8) 0.2901(3)
C14 C 0.0110(3) 0.8054(13) 0.2973(4)
C15 C 0.2677(3) 0.8736(11) 0.3558(3)
C16 C 0.3704(3) 0.8384(12) 0.5187(4)
H8 H 0.4040 0.8280 0.5736
C17 C 0.2698(3) 0.6765(10) 0.4051(3)
H9 H 0.2365 0.5550 0.3834
C18 C 0.3204(3) 0.6604(11) 0.4853(4)
H10 H 0.3211 0.5283 0.5176
C19 C 0.3700(3) 1.0280(12) 0.4709(4)
H11 H 0.4044 1.1468 0.4926
C20 C 0.3184(3) 1.0475(10) 0.3889(4)
H12 H 0.3185 1.1794 0.3568
C21 C -0.0518(3) 1.0434(11) 0.3667(4)
H13 H -0.0985 0.9959 0.3257
H14 H -0.0548 1.2042 0.3804
H15 H -0.0422 0.9513 0.4170
loop_
_geom_bond_atom_site_label_1
_geom_bond_atom_site_label_2
_geom_bond_site_symmetry_1
_geom_bond_site_symmetry_2
Br1 C8 1_555 1_555
C1 C2 1_555 1_555
C2 H1 1_555 1_555
C3 C1 1_555 1_555
H2 C3 1_555 1_555
C4 H3 1_555 1_555
C5 C1 1_555 1_555
C6 C9 1_555 1_555
C7 C4 1_555 1_555
H4 C7 1_555 1_555
C8 C2 1_555 1_555
C9 C5 1_555 1_555
C10 C3 1_555 1_555
H5 C10 1_555 1_555
C11 C9 1_555 1_555
H6 C11 1_555 1_555
C12 C13 1_555 1_555
C13 C11 1_555 1_555
H7 C13 1_555 1_555
O1 C6 1_555 1_555
O2 C14 1_555 1_555
O3 C14 1_555 1_555
C14 C12 1_555 1_555
C15 C11 1_555 1_555
C16 H8 1_555 1_555
C17 C15 1_555 1_555
H9 C17 1_555 1_555
C18 C16 1_555 1_555
H10 C18 1_555 1_555
C19 C16 1_555 1_555
H11 C19 1_555 1_555
C20 C15 1_555 1_555
H12 C20 1_555 1_555
C21 O2 1_555 1_555
H13 C21 1_555 1_555
H14 C21 1_555 1_555
H15 C21 1_555 1_555
C4 C8 1_555 1_555
C5 C7 1_555 1_555
C6 C10 1_555 1_555
C12 O1 1_555 1_555
C17 C18 1_555 1_555
C19 C20 1_555 1_555

#END
