
#######################################################################
#
#                 Cambridge Crystallographic Data Centre
#                                CCDC 
#
#######################################################################
#
# If this CIF has been generated from an entry in the Cambridge 
# Structural Database, then it will include bibliographic, chemical, 
# crystal, experimental, refinement or atomic coordinate data resulting 
# from the CCDC's data processing and validation procedures.
#
#######################################################################

data_SORTUQ
_chemical_formula_moiety         'C23 H16 F3 N1'
_chemical_name_systematic        
1-methyl-3,4-diphenyl-7-(trifluoromethyl)isoquinoline
_symmetry_cell_setting           monoclinic
_symmetry_space_group_name_H-M   'P 21/n'
_symmetry_Int_Tables_number      14
_space_group_name_Hall           '-P 2yn'
loop_
_symmetry_equiv_pos_site_id
_symmetry_equiv_pos_as_xyz
1 x,y,z
2 1/2-x,1/2+y,1/2-z
3 -x,-y,-z
4 1/2+x,1/2-y,1/2+z
_cell_length_a                   9.4764(7)
_cell_length_b                   19.8693(12)
_cell_length_c                   10.0714(7)
_cell_angle_alpha                90
_cell_angle_beta                 103.553(8)
_cell_angle_gamma                90
_cell_volume                     1843.53
_exptl_crystal_colour            yellow
_exptl_crystal_description       block
_cell_formula_units_Z            4
loop_
_atom_site_label
_atom_site_type_symbol
_atom_site_fract_x
_atom_site_fract_y
_atom_site_fract_z
F1 F 0.35028(19) -0.06963(9) 0.25323(18)
F2 F 0.30887(17) 0.00016(9) 0.09324(17)
F3 F 0.46691(18) -0.07506(9) 0.0991(2)
N1 N 1.02237(17) 0.08891(8) 0.39491(16)
C1 C 0.9789(2) 0.14221(9) 0.46263(17)
C2 C 0.8368(2) 0.15151(9) 0.46952(17)
C3 C 0.73080(19) 0.10421(9) 0.40183(17)
C4 C 0.7751(2) 0.05153(9) 0.32642(18)
C5 C 0.9254(2) 0.04608(9) 0.3288(2)
C6 C 1.10062(19) 0.18765(10) 0.52714(18)
C7 C 1.2362(2) 0.16024(11) 0.58576(19)
H1 H 1.2494 0.1139 0.5847
C8 C 1.3515(2) 0.20146(14) 0.6457(2)
H2 H 1.4411 0.1825 0.6856
C9 C 1.3347(2) 0.26979(14) 0.6465(2)
H3 H 1.4122 0.2972 0.6876
C10 C 1.2029(2) 0.29771(12) 0.5864(2)
H4 H 1.1914 0.3442 0.5857
C11 C 1.0874(2) 0.25718(10) 0.5270(2)
H5 H 0.9989 0.2768 0.4859
C12 C 0.7898(2) 0.20876(9) 0.54439(19)
C13 C 0.8290(2) 0.21174(11) 0.6855(2)
H6 H 0.8829 0.1770 0.7346
C14 C 0.7888(3) 0.26566(14) 0.7535(3)
H7 H 0.8161 0.2673 0.8484
C15 C 0.7088(3) 0.31700(14) 0.6827(3)
H8 H 0.6825 0.3535 0.7293
C16 C 0.6674(3) 0.31454(12) 0.5424(3)
H9 H 0.6129 0.3494 0.4941
C17 C 0.7066(2) 0.26042(10) 0.4737(2)
H10 H 0.6769 0.2585 0.3789
C18 C 0.5828(2) 0.10741(10) 0.4070(2)
H11 H 0.5528 0.1407 0.4592
C19 C 0.4844(2) 0.06309(11) 0.3376(2)
H12 H 0.3881 0.0658 0.3433
C20 C 0.5273(2) 0.01301(10) 0.2572(2)
C21 C 0.6690(2) 0.00704(9) 0.2525(2)
H13 H 0.6964 -0.0268 0.1999
C22 C 0.4153(3) -0.03230(13) 0.1768(3)
C23 C 0.9825(3) -0.00961(11) 0.2545(3)
H14 H 0.9488 -0.0032 0.1578
H15 H 0.9485 -0.0522 0.2797
H16 H 1.0867 -0.0090 0.2786
loop_
_geom_bond_atom_site_label_1
_geom_bond_atom_site_label_2
_geom_bond_site_symmetry_1
_geom_bond_site_symmetry_2
F1 C22 1_555 1_555
F2 C22 1_555 1_555
F3 C22 1_555 1_555
N1 C1 1_555 1_555
C1 C2 1_555 1_555
C2 C3 1_555 1_555
C3 C4 1_555 1_555
C4 C5 1_555 1_555
C5 N1 1_555 1_555
C6 C1 1_555 1_555
C7 C6 1_555 1_555
H1 C7 1_555 1_555
C8 C7 1_555 1_555
H2 C8 1_555 1_555
C9 C8 1_555 1_555
H3 C9 1_555 1_555
C10 C9 1_555 1_555
H4 C10 1_555 1_555
C11 C6 1_555 1_555
H5 C11 1_555 1_555
C12 C2 1_555 1_555
C13 C12 1_555 1_555
H6 C13 1_555 1_555
C14 C13 1_555 1_555
H7 C14 1_555 1_555
C15 C14 1_555 1_555
H8 C15 1_555 1_555
C16 C15 1_555 1_555
H9 C16 1_555 1_555
C17 C12 1_555 1_555
H10 C17 1_555 1_555
C18 C3 1_555 1_555
H11 C18 1_555 1_555
C19 C18 1_555 1_555
H12 C19 1_555 1_555
C20 C19 1_555 1_555
C21 C4 1_555 1_555
H13 C21 1_555 1_555
C22 C20 1_555 1_555
C23 C5 1_555 1_555
H14 C23 1_555 1_555
H15 C23 1_555 1_555
H16 C23 1_555 1_555
C10 C11 1_555 1_555
C16 C17 1_555 1_555
C20 C21 1_555 1_555

#END
