
#######################################################################
#
#                 Cambridge Crystallographic Data Centre
#                                CCDC 
#
#######################################################################
#
# If this CIF has been generated from an entry in the Cambridge 
# Structural Database, then it will include bibliographic, chemical, 
# crystal, experimental, refinement or atomic coordinate data resulting 
# from the CCDC's data processing and validation procedures.
#
#######################################################################

data_SORVOM
_chemical_formula_moiety         'C8 H2 Br4 O4,C8 Br4 O4 2-,2(C6 H6 N3 1+)'
_chemical_name_systematic        
'bis(1H-benzotriazol-3-ium) 2,3,5,6-tetrabromoterephthalic acid 2,3,5,6-tetrabromoterephthalate'
_symmetry_cell_setting           monoclinic
_symmetry_space_group_name_H-M   'P 21/c'
_symmetry_Int_Tables_number      14
_space_group_name_Hall           '-P 2ybc'
loop_
_symmetry_equiv_pos_site_id
_symmetry_equiv_pos_as_xyz
1 x,y,z
2 -x,1/2+y,1/2-z
3 -x,-y,-z
4 x,1/2-y,1/2+z
_cell_length_a                   11.5626(5)
_cell_length_b                   13.4148(4)
_cell_length_c                   11.3223(5)
_cell_angle_alpha                90
_cell_angle_beta                 100.498(5)
_cell_angle_gamma                90
_cell_volume                     1726.8
_exptl_crystal_colour            colorless
_exptl_crystal_description       block
_cell_formula_units_Z            2
loop_
_atom_site_label
_atom_site_type_symbol
_atom_site_fract_x
_atom_site_fract_y
_atom_site_fract_z
Br1 Br 0.28354(4) 0.10283(3) 0.60621(4)
Br2 Br 0.30207(4) -0.14410(3) 0.58359(4)
O1 O 0.5177(3) 0.25445(19) 0.6164(3)
O2 O 0.4386(3) 0.26029(18) 0.4201(3)
C1 C 0.4168(4) -0.0599(3) 0.5373(3)
C2 C 0.4068(4) 0.0430(3) 0.5448(3)
C3 C 0.4822(4) 0.2163(3) 0.5156(4)
C4 C 0.4915(4) 0.1036(3) 0.5079(3)
Br1B Br 0.71646(4) -0.10283(3) 0.39379(4)
Br2B Br 0.69793(4) 0.14410(3) 0.41641(4)
O1B O 0.4823(3) -0.25445(19) 0.3836(3)
O2B O 0.5614(3) -0.26029(18) 0.5799(3)
C1B C 0.5832(4) 0.0599(3) 0.4627(3)
C2B C 0.5932(4) -0.0430(3) 0.4552(3)
C3B C 0.5178(4) -0.2163(3) 0.4844(4)
C4B C 0.5085(4) -0.1036(3) 0.4921(3)
Br3 Br -0.01068(5) 0.25715(3) 0.50992(5)
Br4 Br -0.19987(5) 0.39576(4) 0.62896(5)
O3 O 0.2628(3) 0.3693(2) 0.4623(3)
O4 O 0.1328(3) 0.3431(2) 0.2929(3)
C5 C -0.0062(4) 0.3974(3) 0.5037(3)
C6 C -0.0844(4) 0.4550(3) 0.5544(3)
C7 C 0.0778(4) 0.4418(3) 0.4485(3)
C8 C 0.1611(5) 0.3788(3) 0.3923(4)
H1 H 0.325(6) 0.328(4) 0.439(5)
Br3B Br 0.01068(5) 0.74285(3) 0.49008(5)
Br4B Br 0.19987(5) 0.60424(4) 0.37104(5)
O3B O -0.2628(3) 0.6307(2) 0.5377(3)
O4B O -0.1328(3) 0.6569(2) 0.7071(3)
C5B C 0.0062(4) 0.6026(3) 0.4963(3)
C6B C 0.0844(4) 0.5450(3) 0.4456(3)
C7B C -0.0778(4) 0.5582(3) 0.5515(3)
C8B C -0.1611(5) 0.6212(3) 0.6077(4)
H1B H -0.325(6) 0.672(4) 0.561(5)
N1 N -0.4422(4) 0.4142(3) 0.3307(3)
N2 N -0.5026(4) 0.4913(2) 0.3564(3)
N3 N -0.4451(4) 0.5693(2) 0.3312(3)
C9 C -0.1676(5) 0.5480(4) 0.2195(4)
H2 H -0.1060 0.5824 0.1956
C10 C -0.2566(5) 0.6003(3) 0.2542(4)
H3 H -0.2577 0.6696 0.2544
C11 C -0.2537(5) 0.3877(3) 0.2527(4)
H4 H -0.2523 0.3184 0.2519
C12 C -0.3446(4) 0.4406(3) 0.2886(3)
C13 C -0.1666(5) 0.4429(4) 0.2188(4)
H5 H -0.1042 0.4102 0.1943
C14 C -0.3454(4) 0.5446(3) 0.2893(3)
H6 H -0.468(5) 0.358(4) 0.343(5)
H7 H -0.476(5) 0.637(4) 0.349(5)
loop_
_geom_bond_atom_site_label_1
_geom_bond_atom_site_label_2
_geom_bond_site_symmetry_1
_geom_bond_site_symmetry_2
Br1 C2 1_555 1_555
Br2 C1 1_555 1_555
O1 C3 1_555 1_555
O2 C3 1_555 1_555
C1 C2 1_555 1_555
C2 C4 1_555 1_555
C3 C4 1_555 1_555
C4 C1B 1_555 1_555
Br3 C5 1_555 1_555
Br4 C6 1_555 1_555
O3 C8 1_555 1_555
O4 C8 1_555 1_555
C5 C6 1_555 1_555
C6 C7B 1_555 1_555
C7 C5 1_555 1_555
C8 C7 1_555 1_555
H1 O3 1_555 1_555
N1 N2 1_555 1_555
N2 N3 1_555 1_555
N3 C14 1_555 1_555
C9 H2 1_555 1_555
C10 C9 1_555 1_555
H3 C10 1_555 1_555
C11 H4 1_555 1_555
C12 N1 1_555 1_555
C13 C9 1_555 1_555
H5 C13 1_555 1_555
C14 C10 1_555 1_555
H6 N1 1_555 1_555
H7 N3 1_555 1_555
Br1B C2B 1_555 1_555
Br2B C1B 1_555 1_555
O1B C3B 1_555 1_555
O2B C3B 1_555 1_555
C1B C2B 1_555 1_555
C2B C4B 1_555 1_555
C3B C4B 1_555 1_555
C4B C1 1_555 1_555
Br3B C5B 1_555 1_555
Br4B C6B 1_555 1_555
O3B C8B 1_555 1_555
O4B C8B 1_555 1_555
C5B C6B 1_555 1_555
C6B C7 1_555 1_555
C7B C5B 1_555 1_555
C8B C7B 1_555 1_555
H1B O3B 1_555 1_555
C11 C12 1_555 1_555
C11 C13 1_555 1_555
C12 C14 1_555 1_555

#END
