
#######################################################################
#
#                 Cambridge Crystallographic Data Centre
#                                CCDC 
#
#######################################################################
#
# If this CIF has been generated from an entry in the Cambridge 
# Structural Database, then it will include bibliographic, chemical, 
# crystal, experimental, refinement or atomic coordinate data resulting 
# from the CCDC's data processing and validation procedures.
#
#######################################################################

data_SORVUS
_chemical_formula_moiety         
'C8 H2 Br4 O4,C8 Br4 O4 2-,2(C7 H7 N2 1+),2(H2 O1)'
_chemical_name_systematic        
'bis(1H-3,1-benzimidazol-3-ium) 2,3,5,6-tetrabromoterephthalic acid 2,3,5,6-tetrabromoterephthalate dihydrate'
_symmetry_cell_setting           triclinic
_symmetry_space_group_name_H-M   'P -1'
_symmetry_Int_Tables_number      2
_space_group_name_Hall           '-P 1'
loop_
_symmetry_equiv_pos_site_id
_symmetry_equiv_pos_as_xyz
1 x,y,z
2 -x,-y,-z
_cell_length_a                   8.9459(10)
_cell_length_b                   9.0271(9)
_cell_length_c                   12.5435(11)
_cell_angle_alpha                72.408(9)
_cell_angle_beta                 87.358(9)
_cell_angle_gamma                73.572(10)
_cell_volume                     925.305
_exptl_crystal_colour            colorless
_exptl_crystal_description       block
_cell_formula_units_Z            1
loop_
_atom_site_label
_atom_site_type_symbol
_atom_site_fract_x
_atom_site_fract_y
_atom_site_fract_z
Br1 Br -0.37817(6) 0.15624(5) 0.48781(4)
Br2 Br -0.13817(6) 0.39547(5) 0.42789(5)
O1 O 0.2322(4) 0.2565(4) 0.3377(2)
O2 O 0.2683(4) 0.2412(4) 0.5148(2)
C1 C -0.0594(5) 0.1669(5) 0.4665(3)
C2 C 0.2096(5) 0.2088(5) 0.4412(3)
C3 C -0.1597(5) 0.0677(5) 0.4934(3)
C4 C 0.1008(5) 0.1002(5) 0.4732(3)
Br1A Br 0.37817(6) -0.15624(5) 0.51219(4)
Br2A Br 0.13817(6) -0.39547(5) 0.57211(5)
O1A O -0.2322(4) -0.2565(4) 0.6623(2)
O2A O -0.2683(4) -0.2412(4) 0.4852(2)
C1A C 0.0594(5) -0.1669(5) 0.5335(3)
C2A C -0.2096(5) -0.2088(5) 0.5588(3)
C3A C 0.1597(5) -0.0677(5) 0.5066(3)
C4A C -0.1008(5) -0.1002(5) 0.5268(3)
Br3 Br 0.04148(7) 0.81306(7) 0.26896(4)
Br4 Br 0.13199(7) 1.31558(6) -0.10130(4)
O3 O 0.0733(4) 1.2021(4) 0.1959(3)
H1 H 0.1264 1.2264 0.2359
C5 C 0.0753(5) 1.0526(5) 0.0704(3)
C6 C 0.0568(5) 1.1327(5) -0.0440(3)
O4 O 0.3041(4) 1.0562(5) 0.1569(3)
C7 C 0.0181(5) 0.9200(5) 0.1133(3)
C8 C 0.1639(6) 1.1039(6) 0.1468(4)
Br3A Br -0.04148(7) 1.18694(7) -0.26896(4)
Br4A Br -0.13199(7) 0.68442(6) 0.10130(4)
O3A O -0.0733(4) 0.7979(4) -0.1959(3)
H1A H -0.1264 0.7736 -0.2359
C5A C -0.0753(5) 0.9474(5) -0.0704(3)
C6A C -0.0568(5) 0.8673(5) 0.0440(3)
O4A O -0.3041(4) 0.9438(5) -0.1569(3)
C7A C -0.0181(5) 1.0800(5) -0.1133(3)
C8A C -0.1639(6) 0.8961(6) -0.1468(4)
O5 O 0.6007(5) 0.9019(4) 0.2683(3)
H2 H 0.5173 0.9700 0.2775
H3 H 0.6553 0.8593 0.3293
N1 N 0.4796(5) 0.6874(5) 0.2135(4)
H4 H 0.5282 0.7523 0.2233
C9 C 0.2831(6) 0.5318(6) 0.0523(4)
H5 H 0.2409 0.4448 0.0679
N2 N 0.3770(5) 0.4878(5) 0.2500(3)
H6 H 0.3485 0.4038 0.2867
C10 C 0.2785(7) 0.6342(6) -0.0536(4)
H7 H 0.2311 0.6170 -0.1115
C11 C 0.3537(5) 0.5642(5) 0.1355(4)
C12 C 0.4195(6) 0.6931(5) 0.1118(4)
C13 C 0.3432(7) 0.7649(6) -0.0778(4)
H8 H 0.3370 0.8322 -0.1511
C14 C 0.4154(7) 0.7956(6) 0.0038(4)
H9 H 0.4595 0.8812 -0.0125
C15 C 0.4499(6) 0.5658(6) 0.2926(4)
H10 H 0.4768 0.5390 0.3682
loop_
_geom_bond_atom_site_label_1
_geom_bond_atom_site_label_2
_geom_bond_site_symmetry_1
_geom_bond_site_symmetry_2
Br1 C3 1_555 1_555
Br2 C1 1_555 1_555
O1 C2 1_555 1_555
O2 C2 1_555 1_555
C1 C3 1_555 1_555
C2 C4 1_555 1_555
C3 C4A 1_555 1_555
C4 C1 1_555 1_555
Br3 C7 1_555 1_555
Br4 C6 1_555 1_555
O3 H1 1_555 1_555
C5 C6 1_555 1_555
C6 C7A 1_555 1_555
O4 C8 1_555 1_555
C7 C5 1_555 1_555
C8 O3 1_555 1_555
O5 H2 1_555 1_555
H3 O5 1_555 1_555
N1 H4 1_555 1_555
C9 H5 1_555 1_555
N2 H6 1_555 1_555
C10 C9 1_555 1_555
H7 C10 1_555 1_555
C11 C9 1_555 1_555
C12 N1 1_555 1_555
C13 C10 1_555 1_555
H8 C13 1_555 1_555
C14 C12 1_555 1_555
H9 C14 1_555 1_555
C15 N1 1_555 1_555
H10 C15 1_555 1_555
Br1A C3A 1_555 1_555
Br2A C1A 1_555 1_555
O1A C2A 1_555 1_555
O2A C2A 1_555 1_555
C1A C3A 1_555 1_555
C2A C4A 1_555 1_555
C3A C4 1_555 1_555
C4A C1A 1_555 1_555
Br3A C7A 1_555 1_555
Br4A C6A 1_555 1_555
O3A H1A 1_555 1_555
C5A C6A 1_555 1_555
C6A C7 1_555 1_555
O4A C8A 1_555 1_555
C7A C5A 1_555 1_555
C8A O3A 1_555 1_555
C5 C8 1_555 1_555
N2 C11 1_555 1_555
N2 C15 1_555 1_555
C11 C12 1_555 1_555
C13 C14 1_555 1_555
C5A C8A 1_555 1_555

#END
