
#######################################################################
#
#                 Cambridge Crystallographic Data Centre
#                                CCDC 
#
#######################################################################
#
# If this CIF has been generated from an entry in the Cambridge 
# Structural Database, then it will include bibliographic, chemical, 
# crystal, experimental, refinement or atomic coordinate data resulting 
# from the CCDC's data processing and validation procedures.
#
#######################################################################

data_SORWAZ
_chemical_formula_moiety         '2(C9 H8 N1 O1 1+),C8 Br4 O4 2-,3(H2 O1)'
_chemical_name_systematic        
'bis(8-hydroxyquinolinium) 2,3,5,6-tetrabromoterephthalate trihydrate'
_symmetry_cell_setting           triclinic
_symmetry_space_group_name_H-M   'P -1'
_symmetry_Int_Tables_number      2
_space_group_name_Hall           '-P 1'
loop_
_symmetry_equiv_pos_site_id
_symmetry_equiv_pos_as_xyz
1 x,y,z
2 -x,-y,-z
_cell_length_a                   10.2368(6)
_cell_length_b                   11.7277(7)
_cell_length_c                   12.9747(7)
_cell_angle_alpha                72.509(5)
_cell_angle_beta                 86.189(5)
_cell_angle_gamma                73.802(5)
_cell_volume                     1426.41
_exptl_crystal_colour            colorless
_exptl_crystal_description       block
_cell_formula_units_Z            2
loop_
_atom_site_label
_atom_site_type_symbol
_atom_site_fract_x
_atom_site_fract_y
_atom_site_fract_z
Br1 Br 0.60987(4) 0.36249(4) -0.25017(3)
Br2 Br 0.40149(4) 0.25718(3) -0.35758(3)
O1 O 0.8106(3) 0.5607(2) -0.43638(18)
O2 O 0.6460(2) 0.6467(2) -0.34024(18)
C1 C 0.4562(3) 0.3993(3) -0.4382(2)
C2 C 0.5896(3) 0.5433(3) -0.4546(2)
C3 C 0.6914(4) 0.5876(3) -0.4064(3)
C4 C 0.5442(3) 0.4429(3) -0.3938(2)
Br1A Br 0.39013(4) 0.63751(4) -0.74983(3)
Br2A Br 0.59851(4) 0.74282(3) -0.64242(3)
O1A O 0.1894(3) 0.4393(2) -0.56362(18)
O2A O 0.3540(2) 0.3533(2) -0.65976(18)
C1A C 0.5438(3) 0.6007(3) -0.5618(2)
C2A C 0.4104(3) 0.4567(3) -0.5454(2)
C3A C 0.3086(4) 0.4124(3) -0.5936(3)
C4A C 0.4558(3) 0.5571(3) -0.6062(2)
Br3 Br 0.39174(5) 0.07093(4) 0.22137(3)
Br4 Br 0.19632(4) -0.01849(4) 0.08327(4)
O3 O 0.6546(3) 0.1956(2) 0.0956(2)
C5 C 0.3723(3) -0.0083(3) 0.0362(3)
C6 C 0.5813(3) 0.0385(3) 0.0577(2)
O4 O 0.7433(3) -0.0008(3) 0.1927(2)
C7 C 0.4533(4) 0.0302(3) 0.0929(2)
C8 C 0.6685(4) 0.0826(4) 0.1204(3)
Br3A Br 0.60826(5) -0.07093(4) -0.22137(3)
Br4A Br 0.80368(4) 0.01849(4) -0.08327(4)
O3A O 0.3454(3) -0.1956(2) -0.0956(2)
C5A C 0.6277(3) 0.0083(3) -0.0362(3)
C6A C 0.4187(3) -0.0385(3) -0.0577(2)
O4A O 0.2567(3) 0.0008(3) -0.1927(2)
C7A C 0.5467(4) -0.0302(3) -0.0929(2)
C8A C 0.3315(4) -0.0826(4) -0.1204(3)
O5 O 0.1173(3) 0.6701(3) -0.2803(2)
H1 H 0.114(4) 0.619(3) -0.302(3)
H2 H 0.191(5) 0.679(4) -0.287(3)
O6 O 0.1533(3) 0.3733(2) 0.21326(17)
H3 H 0.2176 0.3625 0.2529
N1 N -0.0024(3) 0.3234(3) 0.0838(2)
C9 C 0.1539(4) 0.3499(3) -0.0600(3)
C10 C 0.1149(4) 0.3512(3) 0.0455(2)
C11 C 0.1978(4) 0.3786(3) 0.1122(3)
C12 C 0.2752(4) 0.3789(4) -0.0988(3)
H4 H 0.3023 0.3797 -0.1688
C13 C -0.0833(4) 0.2943(3) 0.0261(3)
H5 H -0.1631 0.2762 0.0556
C14 C 0.0667(5) 0.3187(3) -0.1217(3)
H6 H 0.0889 0.3173 -0.1920
C15 C 0.3142(4) 0.4070(3) 0.0720(3)
H7 H 0.3684 0.4271 0.1147
C16 C 0.3535(4) 0.4061(4) -0.0332(3)
H8 H 0.4345 0.4245 -0.0589
C17 C -0.0488(5) 0.2911(4) -0.0779(3)
H9 H -0.1050 0.2699 -0.1182
H10 H -0.034(4) 0.325(3) 0.149(3)
O7 O -0.0909(3) 0.0737(2) 0.2718(2)
H11 H -0.1447 0.0507 0.2441
C18 C 0.0961(3) -0.0007(3) 0.3904(2)
C19 C 0.2046(4) -0.2200(3) 0.4625(3)
H12 H 0.2706 -0.2856 0.5058
C20 C 0.1992(4) -0.0967(3) 0.4553(2)
C21 C 0.1126(4) -0.2423(3) 0.4056(3)
H13 H 0.1173 -0.3241 0.4106
C22 C 0.2887(4) -0.0625(4) 0.5096(3)
H14 H 0.3583 -0.1239 0.5529
N2 N 0.0851(3) 0.1194(3) 0.3858(2)
C23 C 0.0005(4) -0.0246(3) 0.3310(2)
C24 C 0.1706(4) 0.1490(3) 0.4386(3)
H15 H 0.1596 0.2318 0.4341
C25 C 0.2760(4) 0.0582(4) 0.5001(3)
H16 H 0.3379 0.0797 0.5350
C26 C 0.0113(4) -0.1468(3) 0.3399(3)
H17 H -0.0494 -0.1661 0.3019
H18 H 0.025(4) 0.181(3) 0.349(3)
O8 O 0.3742(3) 0.6877(3) -0.2593(3)
H19 H 0.3653 0.7271 -0.2128
H20 H 0.4567 0.6706 -0.2785
O9 O 0.0837(4) 0.4931(3) -0.3678(2)
H21 H 0.017(4) 0.513(4) -0.382(3)
H22 H 0.124(5) 0.475(4) -0.423(4)
loop_
_geom_bond_atom_site_label_1
_geom_bond_atom_site_label_2
_geom_bond_site_symmetry_1
_geom_bond_site_symmetry_2
Br1 C4 1_555 1_555
Br2 C1 1_555 1_555
O1 C3 1_555 1_555
O2 C3 1_555 1_555
C1 C4 1_555 1_555
C2 C3 1_555 1_555
C4 C2 1_555 1_555
Br3 C7 1_555 1_555
Br4 C5 1_555 1_555
O3 C8 1_555 1_555
C5 C7 1_555 1_555
C6 C7 1_555 1_555
O4 C8 1_555 1_555
C8 C6 1_555 1_555
O5 H1 1_555 1_555
H2 O5 1_555 1_555
O6 H3 1_555 1_555
N1 C10 1_555 1_555
C9 C10 1_555 1_555
C10 C11 1_555 1_555
C11 O6 1_555 1_555
C12 C9 1_555 1_555
H4 C12 1_555 1_555
C13 N1 1_555 1_555
H5 C13 1_555 1_555
C14 C9 1_555 1_555
H6 C14 1_555 1_555
C15 C11 1_555 1_555
H7 C15 1_555 1_555
C16 C12 1_555 1_555
H8 C16 1_555 1_555
C17 C13 1_555 1_555
H9 C17 1_555 1_555
H10 N1 1_555 1_555
O7 H11 1_555 1_555
C18 C20 1_555 1_555
C19 H12 1_555 1_555
C20 C19 1_555 1_555
C21 C19 1_555 1_555
H13 C21 1_555 1_555
C22 C20 1_555 1_555
H14 C22 1_555 1_555
N2 C18 1_555 1_555
C23 O7 1_555 1_555
C24 N2 1_555 1_555
H15 C24 1_555 1_555
C25 C22 1_555 1_555
H16 C25 1_555 1_555
C26 C21 1_555 1_555
H17 C26 1_555 1_555
H18 N2 1_555 1_555
O8 H19 1_555 1_555
H20 O8 1_555 1_555
O9 H21 1_555 1_555
H22 O9 1_555 1_555
Br1A C4A 1_555 1_555
Br2A C1A 1_555 1_555
O1A C3A 1_555 1_555
O2A C3A 1_555 1_555
C1A C2 1_555 1_555
C2A C1 1_555 1_555
C3A C2A 1_555 1_555
C4A C1A 1_555 1_555
Br3A C7A 1_555 1_555
Br4A C5A 1_555 1_555
O3A C8A 1_555 1_555
C5A C6 1_555 1_555
C6A C5 1_555 1_555
O4A C8A 1_555 1_555
C7A C5A 1_555 1_555
C8A C6A 1_555 1_555
C14 C17 1_555 1_555
C15 C16 1_555 1_555
C18 C23 1_555 1_555
C23 C26 1_555 1_555
C24 C25 1_555 1_555
C2A C4A 1_555 1_555
C6A C7A 1_555 1_555

#END
