
#######################################################################
#
#                 Cambridge Crystallographic Data Centre
#                                CCDC 
#
#######################################################################
#
# If this CIF has been generated from an entry in the Cambridge 
# Structural Database, then it will include bibliographic, chemical, 
# crystal, experimental, refinement or atomic coordinate data resulting 
# from the CCDC's data processing and validation procedures.
#
#######################################################################

data_SORWON
_chemical_formula_moiety         '2(C8 H2 Br4 O4),C8 Br4 O4 2-,2(C5 H9 N2 1+)'
_chemical_name_systematic        
'bis(2,5-dimethyl-1H-imidazol-3-ium) bis(2,3,5,6-tetrabromoterephthalic acid) 2,3,5,6-tetrabromoterephthalate'
_symmetry_cell_setting           triclinic
_symmetry_space_group_name_H-M   'P -1'
_symmetry_Int_Tables_number      2
_space_group_name_Hall           '-P 1'
loop_
_symmetry_equiv_pos_site_id
_symmetry_equiv_pos_as_xyz
1 x,y,z
2 -x,-y,-z
_cell_length_a                   9.0669(4)
_cell_length_b                   11.1569(4)
_cell_length_c                   12.8684(4)
_cell_angle_alpha                106.546(3)
_cell_angle_beta                 106.524(4)
_cell_angle_gamma                100.289(4)
_cell_volume                     1147.58
_exptl_crystal_colour            colorless
_exptl_crystal_description       block
_cell_formula_units_Z            1
loop_
_atom_site_label
_atom_site_type_symbol
_atom_site_fract_x
_atom_site_fract_y
_atom_site_fract_z
Br1 Br 0.77649(6) 0.40714(5) 0.40692(4)
Br2 Br 0.40446(7) 0.21121(5) 0.30216(4)
O1 O 0.9240(4) 0.6499(4) 0.6784(2)
O2 O 0.8678(4) 0.7532(3) 0.5566(2)
H1 H 0.7928 0.7426 0.4982
C1 C 0.6571(5) 0.5809(4) 0.5462(3)
C2 C 0.4602(6) 0.3792(4) 0.4145(3)
C3 C 0.6167(5) 0.4596(4) 0.4597(3)
C4 C 0.8291(6) 0.6651(5) 0.6010(3)
Br1A Br 0.22351(6) 0.59286(5) 0.59308(4)
Br2A Br 0.59554(7) 0.78879(5) 0.69784(4)
O1A O 0.0760(4) 0.3501(4) 0.3216(2)
O2A O 0.1322(4) 0.2468(3) 0.4434(2)
H1A H 0.2072 0.2574 0.5018
C1A C 0.3429(5) 0.4191(4) 0.4538(3)
C2A C 0.5398(6) 0.6208(4) 0.5855(3)
C3A C 0.3833(5) 0.5404(4) 0.5403(3)
C4A C 0.1709(6) 0.3349(5) 0.3990(3)
Br3 Br 1.00544(7) 0.08616(5) -0.22175(3)
Br4 Br 1.26304(7) -0.06853(5) -0.11981(4)
O3 O 0.6485(4) 0.0655(3) -0.1637(2)
H2 H 0.5912 0.1103 -0.1831
O4 O 0.8197(4) 0.2591(3) -0.0431(2)
C5 C 0.8953(5) 0.0666(4) -0.0414(3)
C6 C 1.1113(5) -0.0288(4) -0.0518(3)
C7 C 0.7833(6) 0.1406(4) -0.0833(3)
C8 C 1.0039(5) 0.0360(4) -0.0941(3)
Br3A Br 0.99456(7) -0.08616(5) 0.22175(3)
Br4A Br 0.73696(7) 0.06853(5) 0.11981(4)
O3A O 1.3515(4) -0.0655(3) 0.1637(2)
H2A H 1.4088 -0.1103 0.1831
O4A O 1.1803(4) -0.2591(3) 0.0431(2)
C5A C 1.1047(5) -0.0666(4) 0.0414(3)
C6A C 0.8887(5) 0.0288(4) 0.0518(3)
C7A C 1.2167(6) -0.1406(4) 0.0833(3)
C8A C 0.9961(5) -0.0360(4) 0.0941(3)
Br5 Br 0.83561(6) 0.07621(5) 0.45535(4)
Br6 Br 0.74781(6) 0.29038(4) 0.64981(3)
O5 O 0.5295(4) -0.1966(3) 0.22823(19)
O6 O 0.6466(4) -0.2674(3) 0.36465(19)
C9 C 0.6047(5) 0.1222(4) 0.5624(3)
C10 C 0.6432(5) 0.0320(4) 0.4826(3)
C11 C 0.5764(5) -0.1923(4) 0.3316(3)
C12 C 0.5370(5) -0.0908(4) 0.4194(3)
Br5A Br 0.16439(6) -0.07621(5) 0.54465(4)
Br6A Br 0.25219(6) -0.29038(4) 0.35019(3)
O5A O 0.4705(4) 0.1966(3) 0.77177(19)
O6A O 0.3534(4) 0.2674(3) 0.63535(19)
C9A C 0.3953(5) -0.1222(4) 0.4376(3)
C10A C 0.3568(5) -0.0320(4) 0.5174(3)
C11A C 0.4236(5) 0.1923(4) 0.6684(3)
C12A C 0.4630(5) 0.0908(4) 0.5806(3)
N1 N 0.5544(5) 0.4996(3) 0.1716(3)
H3 H 0.5704 0.5652 0.2324
N2 N 0.5972(5) 0.3625(4) 0.0404(3)
H4 H 0.6452 0.3217 -0.0006
C13 C 0.6686(6) 0.4675(4) 0.1346(3)
C14 C 0.4053(6) 0.4139(4) 0.0995(3)
C15 C 0.4355(7) 0.3278(4) 0.0175(4)
H5 H 0.3599 0.2569 -0.0442
C16 C 0.8398(7) 0.5364(5) 0.1875(4)
H6 H 0.8597 0.6051 0.2591
H7 H 0.8724 0.5728 0.1357
H8 H 0.8996 0.4765 0.2026
C17 C 0.2528(7) 0.4259(5) 0.1162(4)
H9 H 0.2338 0.5051 0.1078
H10 H 0.2595 0.4274 0.1924
H11 H 0.1662 0.3529 0.0591
loop_
_geom_bond_atom_site_label_1
_geom_bond_atom_site_label_2
_geom_bond_site_symmetry_1
_geom_bond_site_symmetry_2
Br1 C3 1_555 1_555
Br2 C2 1_555 1_555
O1 C4 1_555 1_555
O2 H1 1_555 1_555
C1 C3 1_555 1_555
C2 C3 1_555 1_555
C4 O2 1_555 1_555
Br3 C8 1_555 1_555
Br4 C6 1_555 1_555
O3 H2 1_555 1_555
O4 C7 1_555 1_555
C5 C7 1_555 1_555
C6 C8 1_555 1_555
C7 O3 1_555 1_555
C8 C5 1_555 1_555
Br5 C10 1_555 1_555
Br6 C9 1_555 1_555
O5 C11 1_555 1_555
O6 C11 1_555 1_555
C9 C10 1_555 1_555
C10 C12 1_555 1_555
C11 C12 1_555 1_555
C12 C9A 1_555 1_555
N1 H3 1_555 1_555
N2 H4 1_555 1_555
C13 N1 1_555 1_555
C14 N1 1_555 1_555
C15 N2 1_555 1_555
H5 C15 1_555 1_555
C16 C13 1_555 1_555
H6 C16 1_555 1_555
H7 C16 1_555 1_555
H8 C16 1_555 1_555
C17 C14 1_555 1_555
H9 C17 1_555 1_555
H10 C17 1_555 1_555
H11 C17 1_555 1_555
Br1A C3A 1_555 1_555
Br2A C2A 1_555 1_555
O1A C4A 1_555 1_555
O2A H1A 1_555 1_555
C1A C2 1_555 1_555
C2A C1 1_555 1_555
C3A C1A 1_555 1_555
C4A O2A 1_555 1_555
Br3A C8A 1_555 1_555
Br4A C6A 1_555 1_555
O3A H2A 1_555 1_555
O4A C7A 1_555 1_555
C5A C6 1_555 1_555
C6A C5 1_555 1_555
C7A O3A 1_555 1_555
C8A C5A 1_555 1_555
Br5A C10A 1_555 1_555
Br6A C9A 1_555 1_555
O5A C11A 1_555 1_555
O6A C11A 1_555 1_555
C9A C10A 1_555 1_555
C10A C12A 1_555 1_555
C11A C12A 1_555 1_555
C12A C9 1_555 1_555
C1 C4 1_555 1_555
N2 C13 1_555 1_555
C14 C15 1_555 1_555
C1A C4A 1_555 1_555
C2A C3A 1_555 1_555
C5A C7A 1_555 1_555
C6A C8A 1_555 1_555

#END
