
#######################################################################
#
#                 Cambridge Crystallographic Data Centre
#                                CCDC 
#
#######################################################################
#
# If this CIF has been generated from an entry in the Cambridge 
# Structural Database, then it will include bibliographic, chemical, 
# crystal, experimental, refinement or atomic coordinate data resulting 
# from the CCDC's data processing and validation procedures.
#
#######################################################################

data_SOSDEK
_chemical_formula_moiety         'C19 H26 F1 N1 O4 Si1'
_chemical_name_systematic        
'2,5-Dioxopyrrolidin-1-yl 4-(di-t-butyl(fluoro)silyl)benzoate'
_symmetry_cell_setting           monoclinic
_symmetry_space_group_name_H-M   'P 21/n'
_symmetry_Int_Tables_number      14
_space_group_name_Hall           '-P 2yn'
loop_
_symmetry_equiv_pos_site_id
_symmetry_equiv_pos_as_xyz
1 x,y,z
2 1/2-x,1/2+y,1/2-z
3 -x,-y,-z
4 1/2+x,1/2-y,1/2+z
_cell_length_a                   14.384(3)
_cell_length_b                   6.4800(13)
_cell_length_c                   21.935(4)
_cell_angle_alpha                90
_cell_angle_beta                 101.68(3)
_cell_angle_gamma                90
_cell_volume                     2002.19
_exptl_crystal_colour            colorless
_exptl_crystal_description       needle
_chemical_melting_point          '43-44 deg.C'
_cell_formula_units_Z            4
_exptl_crystal_recrystallization_method n-hexane
loop_
_atom_site_label
_atom_site_type_symbol
_atom_site_fract_x
_atom_site_fract_y
_atom_site_fract_z
Si1 Si 0.26996(4) -0.00701(9) 0.11402(3)
F1 F 0.24809(7) 0.22401(15) 0.13447(5)
O1 O -0.15497(11) -0.8166(2) 0.21441(8)
O2 O -0.32362(10) -0.2566(2) 0.12687(7)
O3 O -0.13709(10) -0.6057(2) 0.08102(7)
O4 O -0.14118(10) -0.4160(2) 0.16723(7)
N1 N -0.22515(11) -0.5211(3) 0.16801(8)
C1 C 0.15560(14) -0.1483(3) 0.11249(10)
C2 C 0.13546(14) -0.3407(3) 0.08399(10)
H1 H 0.1804 -0.4021 0.0632
C3 C 0.05168(14) -0.4435(3) 0.08532(10)
H2 H 0.0391 -0.5730 0.0650
C4 C -0.01401(14) -0.3578(3) 0.11624(10)
C5 C 0.00380(14) -0.1668(3) 0.14520(10)
H3 H -0.0408 -0.1075 0.1667
C6 C 0.08761(15) -0.0637(3) 0.14237(10)
H4 H 0.0989 0.0682 0.1613
C7 C -0.10198(14) -0.4761(3) 0.11667(10)
C8 C 0.29777(14) 0.0242(3) 0.03445(10)
C9 C 0.20442(15) 0.0797(3) -0.01096(10)
H5 H 0.2174 0.1048 -0.0525
H6 H 0.1772 0.2043 0.0037
H7 H 0.1594 -0.0347 -0.0129
C10 C 0.36845(15) 0.2046(3) 0.03434(11)
H8 H 0.3772 0.2289 -0.0082
H9 H 0.4296 0.1693 0.0610
H10 H 0.3433 0.3297 0.0502
C11 C 0.33991(15) -0.1702(3) 0.00979(10)
H11 H 0.3520 -0.1425 -0.0318
H12 H 0.2949 -0.2848 0.0076
H13 H 0.3996 -0.2069 0.0379
C12 C 0.36443(14) -0.1112(3) 0.17910(10)
C13 C 0.33517(15) -0.0582(3) 0.24106(10)
H14 H 0.3817 -0.1162 0.2757
H15 H 0.2724 -0.1168 0.2412
H16 H 0.3328 0.0920 0.2456
C14 C 0.46226(14) -0.0120(3) 0.17997(10)
H17 H 0.5075 -0.0585 0.2170
H18 H 0.4564 0.1386 0.1809
H19 H 0.4849 -0.0531 0.1425
C15 C 0.37394(14) -0.3466(3) 0.17473(11)
H20 H 0.4218 -0.3961 0.2100
H21 H 0.3934 -0.3822 0.1357
H22 H 0.3127 -0.4115 0.1756
C16 C -0.22502(17) -0.7186(4) 0.19286(11)
C17 C -0.32818(14) -0.7735(3) 0.18645(11)
H23 H -0.3431 -0.8007 0.2278
H24 H -0.3436 -0.8983 0.1604
C18 C -0.38498(14) -0.5876(3) 0.15561(10)
H25 H -0.4245 -0.6273 0.1149
H26 H -0.4269 -0.5331 0.1825
C19 C -0.31271(15) -0.4295(4) 0.14708(10)
loop_
_geom_bond_atom_site_label_1
_geom_bond_atom_site_label_2
_geom_bond_site_symmetry_1
_geom_bond_site_symmetry_2
Si1 F1 1_555 1_555
O1 C16 1_555 1_555
O2 C19 1_555 1_555
O3 C7 1_555 1_555
O4 N1 1_555 1_555
N1 C16 1_555 1_555
C1 Si1 1_555 1_555
C2 C1 1_555 1_555
H1 C2 1_555 1_555
C3 C2 1_555 1_555
H2 C3 1_555 1_555
C4 C3 1_555 1_555
C5 C4 1_555 1_555
H3 C5 1_555 1_555
C6 C1 1_555 1_555
H4 C6 1_555 1_555
C7 O4 1_555 1_555
C8 Si1 1_555 1_555
C9 C8 1_555 1_555
H5 C9 1_555 1_555
H6 C9 1_555 1_555
H7 C9 1_555 1_555
C10 C8 1_555 1_555
H8 C10 1_555 1_555
H9 C10 1_555 1_555
H10 C10 1_555 1_555
C11 C8 1_555 1_555
H11 C11 1_555 1_555
H12 C11 1_555 1_555
H13 C11 1_555 1_555
C12 Si1 1_555 1_555
C13 C12 1_555 1_555
H14 C13 1_555 1_555
H15 C13 1_555 1_555
H16 C13 1_555 1_555
C14 C12 1_555 1_555
H17 C14 1_555 1_555
H18 C14 1_555 1_555
H19 C14 1_555 1_555
C15 C12 1_555 1_555
H20 C15 1_555 1_555
H21 C15 1_555 1_555
H22 C15 1_555 1_555
C16 C17 1_555 1_555
C17 H23 1_555 1_555
H24 C17 1_555 1_555
C18 C17 1_555 1_555
H25 C18 1_555 1_555
H26 C18 1_555 1_555
C19 N1 1_555 1_555
C4 C7 1_555 1_555
C5 C6 1_555 1_555
C18 C19 1_555 1_555

#END
