
#######################################################################
#
#                 Cambridge Crystallographic Data Centre
#                                CCDC 
#
#######################################################################
#
# If this CIF has been generated from an entry in the Cambridge 
# Structural Database, then it will include bibliographic, chemical, 
# crystal, experimental, refinement or atomic coordinate data resulting 
# from the CCDC's data processing and validation procedures.
#
#######################################################################

data_SOSLAP
_chemical_formula_moiety         'C42 H30 N2'
_chemical_name_systematic        
8-(biphenyl-4-yl)-6-(2-(biphenyl-4-yl)pyridin-3-yl)-10-methylpyrido[1,2-a]indole
_symmetry_cell_setting           triclinic
_symmetry_space_group_name_H-M   'P -1'
_symmetry_Int_Tables_number      2
_space_group_name_Hall           '-P 1'
loop_
_symmetry_equiv_pos_site_id
_symmetry_equiv_pos_as_xyz
1 x,y,z
2 -x,-y,-z
_cell_length_a                   11.0719(10)
_cell_length_b                   11.9763(11)
_cell_length_c                   12.7664(9)
_cell_angle_alpha                95.060(7)
_cell_angle_beta                 92.632(6)
_cell_angle_gamma                117.362(9)
_cell_volume                     1490.41
_exptl_crystal_colour            yellow
_exptl_crystal_description       block
_cell_formula_units_Z            2
loop_
_atom_site_label
_atom_site_type_symbol
_atom_site_fract_x
_atom_site_fract_y
_atom_site_fract_z
C1 C 0.16374(19) 0.30279(18) 0.40339(15)
H1 H 0.0828 0.2507 0.4305
C2 C 0.1991(2) 0.2615(2) 0.32057(19)
C3 C 0.2458(2) 0.4250(2) 0.45288(18)
C4 C 0.3649(2) 0.5039(2) 0.41492(18)
H2 H 0.4190 0.5851 0.4495
C5 C 0.4059(2) 0.4614(2) 0.32253(18)
C6 C 0.0226(2) 0.5666(2) 0.81343(18)
C7 C 0.1906(2) 0.4635(2) 0.54523(18)
C8 C 0.0960(2) 0.0221(2) 0.30049(18)
C9 C 0.0803(2) 0.5320(2) 0.72064(19)
C10 C 0.3525(2) 0.0434(2) 0.57459(19)
C11 C 0.2707(2) 0.5718(2) 0.61646(19)
H3 H 0.3617 0.6223 0.6061
C12 C 0.1861(2) 0.0273(2) 0.39292(19)
C13 C -0.1174(2) 0.5279(2) 0.81214(19)
H4 H -0.1747 0.4820 0.7514
C14 C 0.1293(2) -0.0378(2) 0.4784(2)
H5 H 0.0353 -0.0885 0.4750
C15 C -0.1726(3) 0.5562(2) 0.89898(19)
H6 H -0.2662 0.5288 0.8966
C16 C 0.4398(3) 0.0547(2) 0.6713(2)
C17 C 0.2103(3) -0.0282(2) 0.5676(2)
H7 H 0.1694 -0.0702 0.6242
C18 C 0.0014(3) 0.4241(2) 0.6491(2)
H8 H -0.0896 0.3734 0.6594
C19 C 0.3280(2) 0.0963(2) 0.3986(2)
H9 H 0.3687 0.1382 0.3419
C20 C 0.3303(2) 0.2045(2) 0.11028(19)
H10 H 0.2516 0.1301 0.1167
C21 C 0.0157(2) 0.1254(2) 0.18026(19)
H11 H 0.0212 0.1993 0.1580
C22 C 0.1040(2) 0.1326(2) 0.26497(17)
C23 C 0.4094(2) 0.1034(2) 0.4871(2)
H12 H 0.5039 0.1490 0.4884
N1 N -0.0039(3) -0.0962(2) 0.2485(2)
C24 C 0.1056(2) 0.6375(2) 0.90545(19)
H13 H 0.1993 0.6655 0.9086
C25 C 0.0550(2) 0.3907(2) 0.56339(19)
H14 H -0.0006 0.3183 0.5171
C26 C 0.5262(3) 0.3243(3) 0.0167(2)
H15 H 0.5760 0.3274 -0.0407
C27 C -0.0801(3) 0.0091(2) 0.1290(2)
H16 H -0.1375 0.0048 0.0716
C28 C 0.4079(2) 0.2127(3) 0.0271(2)
H17 H 0.3811 0.1425 -0.0232
C29 C 0.5700(3) 0.4295(3) 0.0900(2)
H18 H 0.6493 0.5030 0.0828
C30 C 0.5129(2) 0.5177(2) 0.26250(19)
C31 C 0.0499(3) 0.6666(3) 0.9919(2)
H19 H 0.1067 0.7146 1.0523
C32 C -0.0903(3) -0.1006(2) 0.1634(2)
H20 H -0.1557 -0.1787 0.1293
C33 C 0.4937(2) 0.4249(2) 0.17617(19)
C34 C -0.0888(3) 0.6252(2) 0.9895(2)
H21 H -0.1258 0.6437 1.0484
C35 C 0.3950(3) -0.0371(3) 0.7403(2)
H22 H 0.3084 -0.1062 0.7260
C36 C 0.5684(3) 0.1574(3) 0.6974(2)
H23 H 0.6009 0.2215 0.6541
C37 C 0.6289(3) 0.6496(2) 0.2838(2)
H24 H 0.6173 0.6921 0.3469
H25 H 0.6302 0.6952 0.2253
H26 H 0.7136 0.6461 0.2928
C38 C 0.4760(3) -0.0281(3) 0.8293(2)
H27 H 0.4439 -0.0911 0.8737
C39 C 0.6034(3) 0.0733(3) 0.8527(2)
H28 H 0.6583 0.0793 0.9126
C40 C 0.6490(3) 0.1658(3) 0.7868(3)
H29 H 0.7352 0.2352 0.8024
C41 C 0.2168(2) 0.6048(2) 0.7018(2)
H30 H 0.2725 0.6772 0.7480
C42 C 0.3737(2) 0.3116(2) 0.18459(18)
N2 N 0.31815(18) 0.33473(18) 0.27557(15)
loop_
_geom_bond_atom_site_label_1
_geom_bond_atom_site_label_2
_geom_bond_site_symmetry_1
_geom_bond_site_symmetry_2
C1 H1 1_555 1_555
C2 C1 1_555 1_555
C3 C1 1_555 1_555
C4 C3 1_555 1_555
H2 C4 1_555 1_555
C5 C4 1_555 1_555
C6 C9 1_555 1_555
C7 C3 1_555 1_555
C8 C12 1_555 1_555
C9 C18 1_555 1_555
C10 C16 1_555 1_555
C11 C7 1_555 1_555
H3 C11 1_555 1_555
C12 C14 1_555 1_555
C13 C6 1_555 1_555
H4 C13 1_555 1_555
C14 H5 1_555 1_555
C15 C13 1_555 1_555
H6 C15 1_555 1_555
C16 C35 1_555 1_555
C17 C10 1_555 1_555
H7 C17 1_555 1_555
C18 H8 1_555 1_555
C19 C12 1_555 1_555
H9 C19 1_555 1_555
C20 H10 1_555 1_555
C21 H11 1_555 1_555
C22 C2 1_555 1_555
C23 C10 1_555 1_555
H12 C23 1_555 1_555
N1 C8 1_555 1_555
C24 C6 1_555 1_555
H13 C24 1_555 1_555
C25 C7 1_555 1_555
H14 C25 1_555 1_555
C26 H15 1_555 1_555
C27 C21 1_555 1_555
H16 C27 1_555 1_555
C28 C20 1_555 1_555
H17 C28 1_555 1_555
C29 C26 1_555 1_555
H18 C29 1_555 1_555
C30 C5 1_555 1_555
C31 C24 1_555 1_555
H19 C31 1_555 1_555
C32 N1 1_555 1_555
H20 C32 1_555 1_555
C33 C29 1_555 1_555
C34 C15 1_555 1_555
H21 C34 1_555 1_555
C35 H22 1_555 1_555
C36 C16 1_555 1_555
H23 C36 1_555 1_555
C37 C30 1_555 1_555
H24 C37 1_555 1_555
H25 C37 1_555 1_555
H26 C37 1_555 1_555
C38 C35 1_555 1_555
H27 C38 1_555 1_555
C39 C38 1_555 1_555
H28 C39 1_555 1_555
C40 C36 1_555 1_555
H29 C40 1_555 1_555
C41 C9 1_555 1_555
H30 C41 1_555 1_555
C42 C20 1_555 1_555
N2 C2 1_555 1_555
C5 N2 1_555 1_555
C8 C22 1_555 1_555
C11 C41 1_555 1_555
C14 C17 1_555 1_555
C18 C25 1_555 1_555
C19 C23 1_555 1_555
C21 C22 1_555 1_555
C26 C28 1_555 1_555
C27 C32 1_555 1_555
C30 C33 1_555 1_555
C31 C34 1_555 1_555
C33 C42 1_555 1_555
C39 C40 1_555 1_555
C42 N2 1_555 1_555

#END
