
#######################################################################
#
#                 Cambridge Crystallographic Data Centre
#                                CCDC 
#
#######################################################################
#
# If this CIF has been generated from an entry in the Cambridge 
# Structural Database, then it will include bibliographic, chemical, 
# crystal, experimental, refinement or atomic coordinate data resulting 
# from the CCDC's data processing and validation procedures.
#
#######################################################################

data_SOSLIX
_chemical_formula_moiety         'C30 H21 Cl1 N2'
_chemical_name_systematic        
2-chloro-6-(5-methyl-2-phenylpyridin-3-yl)-8-phenylpyrido[1,2-a]indole
_symmetry_cell_setting           triclinic
_symmetry_space_group_name_H-M   'P -1'
_symmetry_Int_Tables_number      2
_space_group_name_Hall           '-P 1'
loop_
_symmetry_equiv_pos_site_id
_symmetry_equiv_pos_as_xyz
1 x,y,z
2 -x,-y,-z
_cell_length_a                   8.8053(4)
_cell_length_b                   11.2771(10)
_cell_length_c                   12.0975(13)
_cell_angle_alpha                67.401(9)
_cell_angle_beta                 89.113(7)
_cell_angle_gamma                83.151(6)
_cell_volume                     1100.51
_exptl_crystal_colour            yellow
_exptl_crystal_description       block
_cell_formula_units_Z            2
loop_
_atom_site_label
_atom_site_type_symbol
_atom_site_fract_x
_atom_site_fract_y
_atom_site_fract_z
Cl1 Cl 1.14884(8) 0.37852(6) 0.10019(6)
N1 N 0.8305(2) 0.61229(19) 0.41087(19)
C1 C 0.7494(3) 0.5076(2) 0.4790(2)
N2 N 0.8970(3) 1.0013(3) 0.1455(3)
C2 C 0.7851(3) 0.4079(2) 0.4418(2)
H1 H 0.7467 0.3286 0.4719
C3 C 0.8913(3) 0.4471(2) 0.3490(2)
C4 C 0.9642(3) 0.3852(2) 0.2780(2)
H2 H 0.9471 0.3017 0.2888
C5 C 1.0607(3) 0.4502(3) 0.1930(2)
C6 C 1.0916(3) 0.5762(3) 0.1760(3)
H3 H 1.1589 0.6172 0.1177
C7 C 1.0230(3) 0.6382(2) 0.2449(2)
H4 H 1.0443 0.7204 0.2351
C8 C 0.9200(3) 0.5745(2) 0.3304(2)
C9 C 0.8033(3) 0.7279(2) 0.4271(2)
C10 C 0.7172(2) 0.7424(2) 0.5090(2)
H5 H 0.7054 0.8208 0.5189
C11 C 0.6416(3) 0.6403(2) 0.5827(2)
C12 C 0.6539(3) 0.5262(2) 0.5677(2)
H6 H 0.5995 0.4603 0.6157
C13 C 0.8731(3) 0.8408(2) 0.3429(2)
C14 C 0.8202(3) 0.9014(2) 0.2226(2)
C15 C 1.0194(3) 1.0417(3) 0.1883(3)
H7 H 1.0694 1.1079 0.1352
C16 C 1.0688(3) 0.9858(2) 0.3081(3)
C17 C 0.9935(3) 0.8845(2) 0.3843(2)
H8 H 1.0244 0.8450 0.4647
C18 C 1.2002(3) 1.0308(3) 0.3531(3)
H9 H 1.2155 0.9830 0.4379
H10 H 1.1774 1.1214 0.3373
H11 H 1.2914 1.0168 0.3131
C19 C 0.5401(3) 0.6669(3) 0.6710(2)
C20 C 0.4982(3) 0.5677(3) 0.7724(2)
H12 H 0.5404 0.4829 0.7882
C21 C 0.3946(3) 0.5927(3) 0.8505(3)
H13 H 0.3677 0.5251 0.9182
C22 C 0.3315(3) 0.7186(3) 0.8272(3)
H14 H 0.2609 0.7357 0.8789
C23 C 0.3731(3) 0.8192(3) 0.7273(3)
H15 H 0.3307 0.9037 0.7120
C24 C 0.4777(3) 0.7942(3) 0.6502(3)
H16 H 0.5069 0.8624 0.5840
C25 C 0.6849(3) 0.8626(2) 0.1784(2)
C26 C 0.6922(3) 0.8374(3) 0.0736(3)
H17 H 0.7836 0.8416 0.0333
C27 C 0.5658(4) 0.8063(3) 0.0292(3)
H18 H 0.5722 0.7898 -0.0405
C28 C 0.4294(3) 0.7997(3) 0.0885(3)
H19 H 0.3442 0.7788 0.0587
C29 C 0.4197(3) 0.8242(3) 0.1924(3)
H20 H 0.3279 0.8202 0.2320
C30 C 0.5472(3) 0.8547(2) 0.2373(3)
H21 H 0.5404 0.8701 0.3075
loop_
_geom_bond_atom_site_label_1
_geom_bond_atom_site_label_2
_geom_bond_site_symmetry_1
_geom_bond_site_symmetry_2
Cl1 C5 1_555 1_555
N1 C1 1_555 1_555
C1 C2 1_555 1_555
N2 C14 1_555 1_555
C2 H1 1_555 1_555
C3 C2 1_555 1_555
C4 C3 1_555 1_555
H2 C4 1_555 1_555
C5 C4 1_555 1_555
C6 C5 1_555 1_555
H3 C6 1_555 1_555
C7 C6 1_555 1_555
H4 C7 1_555 1_555
C8 N1 1_555 1_555
C9 N1 1_555 1_555
C10 C9 1_555 1_555
H5 C10 1_555 1_555
C11 C10 1_555 1_555
C12 C1 1_555 1_555
H6 C12 1_555 1_555
C13 C9 1_555 1_555
C14 C13 1_555 1_555
C15 N2 1_555 1_555
H7 C15 1_555 1_555
C16 C15 1_555 1_555
C17 C13 1_555 1_555
H8 C17 1_555 1_555
C18 C16 1_555 1_555
H9 C18 1_555 1_555
H10 C18 1_555 1_555
H11 C18 1_555 1_555
C19 C11 1_555 1_555
C20 C19 1_555 1_555
H12 C20 1_555 1_555
C21 C20 1_555 1_555
H13 C21 1_555 1_555
C22 C21 1_555 1_555
H14 C22 1_555 1_555
C23 C22 1_555 1_555
H15 C23 1_555 1_555
C24 C19 1_555 1_555
H16 C24 1_555 1_555
C25 C14 1_555 1_555
C26 C25 1_555 1_555
H17 C26 1_555 1_555
C27 C26 1_555 1_555
H18 C27 1_555 1_555
C28 C27 1_555 1_555
H19 C28 1_555 1_555
C29 C28 1_555 1_555
H20 C29 1_555 1_555
C30 C25 1_555 1_555
H21 C30 1_555 1_555
C3 C8 1_555 1_555
C7 C8 1_555 1_555
C11 C12 1_555 1_555
C16 C17 1_555 1_555
C23 C24 1_555 1_555
C29 C30 1_555 1_555

#END
