
#######################################################################
#
#                 Cambridge Crystallographic Data Centre
#                                CCDC 
#
#######################################################################
#
# If this CIF has been generated from an entry in the Cambridge 
# Structural Database, then it will include bibliographic, chemical, 
# crystal, experimental, refinement or atomic coordinate data resulting 
# from the CCDC's data processing and validation procedures.
#
#######################################################################

data_SOSMUK
_chemical_formula_moiety         'C17 H25 F3 N2 O2 S1'
_chemical_name_systematic        
N-(1-isopropyl-3-(trifluoromethyl)azepan-3-yl)-4-methylbenzenesulfonamide
_symmetry_cell_setting           monoclinic
_symmetry_space_group_name_H-M   'P 21/c'
_symmetry_Int_Tables_number      14
_space_group_name_Hall           '-P 2ybc'
loop_
_symmetry_equiv_pos_site_id
_symmetry_equiv_pos_as_xyz
1 x,y,z
2 -x,1/2+y,1/2-z
3 -x,-y,-z
4 x,1/2-y,1/2+z
_cell_length_a                   7.7447(14)
_cell_length_b                   28.031(2)
_cell_length_c                   12.181(2)
_cell_angle_alpha                90
_cell_angle_beta                 134.77(3)
_cell_angle_gamma                90
_cell_volume                     1877.36
_exptl_crystal_colour            colorless
_exptl_crystal_description       plate
_cell_formula_units_Z            4
loop_
_atom_site_label
_atom_site_type_symbol
_atom_site_fract_x
_atom_site_fract_y
_atom_site_fract_z
C1 C 0.5581(7) 0.93953(14) 0.4032(4)
C2 C 0.4604(7) 0.89636(14) 0.4193(4)
C3 C 0.3097(8) 0.91262(16) 0.4503(5)
H1 H 0.4097 0.9344 0.5404
H2 H 0.1678 0.9309 0.3598
C4 C 0.2190(9) 0.87201(19) 0.4818(5)
H3 H 0.0991 0.8850 0.4810
H4 H 0.1334 0.8485 0.3967
C5 C 0.4175(9) 0.8462(2) 0.6344(6)
H5 H 0.3449 0.8329 0.6697
H6 H 0.5412 0.8700 0.7123
C6 C 0.5458(8) 0.80587(17) 0.6303(5)
H7 H 0.6975 0.7978 0.7379
H8 H 0.4399 0.7773 0.5843
C7 C 0.6839(7) 0.86518(13) 0.5558(4)
H9 H 0.8088 0.8654 0.5532
H10 H 0.7572 0.8789 0.6558
C8 C 0.7690(8) 0.77946(15) 0.5657(4)
H11 H 0.7005 0.7479 0.5576
C9 C 1.0317(8) 0.78072(17) 0.7251(5)
H12 H 1.1097 0.8104 0.7361
H13 H 1.1214 0.7534 0.7354
H14 H 1.0323 0.7792 0.8057
C10 C 0.7579(10) 0.78094(18) 0.4362(5)
H15 H 0.5920 0.7737 0.3376
H16 H 0.8703 0.7572 0.4561
H17 H 0.8042 0.8128 0.4313
C11 C 0.1552(7) 0.90078(15) 0.0165(4)
C12 C 0.3151(7) 0.87797(16) 0.0176(4)
H18 H 0.3835 0.8481 0.0685
C13 C 0.3755(7) 0.89832(16) -0.0545(4)
H19 H 0.4826 0.8821 -0.0551
C14 C 0.2793(7) 0.94289(15) -0.1271(4)
C15 C 0.1222(7) 0.96522(15) -0.1248(4)
H20 H 0.0572 0.9956 -0.1723
C16 C 0.0579(7) 0.94429(15) -0.0549(4)
H21 H -0.0525 0.9599 -0.0562
C17 C 0.3451(8) 0.96559(17) -0.2057(4)
H22 H 0.2300 0.9551 -0.3138
H23 H 0.5101 0.9560 -0.1527
H24 H 0.3379 1.0004 -0.2018
F1 F 0.3824(4) 0.96956(7) 0.2910(2)
F2 F 0.7098(4) 0.96536(8) 0.5338(2)
F3 F 0.6849(4) 0.92827(8) 0.3690(3)
N1 N 0.6073(6) 0.81677(12) 0.5427(3)
N2 N 0.3321(6) 0.86575(12) 0.2843(4)
H25 H 0.333(8) 0.8395(16) 0.309(5)
O1 O -0.0139(6) 0.82775(11) 0.0446(3)
O2 O -0.0785(5) 0.90779(12) 0.0960(3)
S1 S 0.0754(2) 0.87433(4) 0.10689(11)
loop_
_geom_bond_atom_site_label_1
_geom_bond_atom_site_label_2
_geom_bond_site_symmetry_1
_geom_bond_site_symmetry_2
C1 C2 1_555 1_555
C2 C3 1_555 1_555
C3 H1 1_555 1_555
H2 C3 1_555 1_555
C4 C3 1_555 1_555
H3 C4 1_555 1_555
H4 C4 1_555 1_555
C5 C4 1_555 1_555
H5 C5 1_555 1_555
H6 C5 1_555 1_555
C6 C5 1_555 1_555
H7 C6 1_555 1_555
H8 C6 1_555 1_555
C7 C2 1_555 1_555
H9 C7 1_555 1_555
H10 C7 1_555 1_555
C8 H11 1_555 1_555
C9 C8 1_555 1_555
H12 C9 1_555 1_555
H13 C9 1_555 1_555
H14 C9 1_555 1_555
C10 C8 1_555 1_555
H15 C10 1_555 1_555
H16 C10 1_555 1_555
H17 C10 1_555 1_555
C11 C12 1_555 1_555
C12 H18 1_555 1_555
C13 C12 1_555 1_555
H19 C13 1_555 1_555
C14 C13 1_555 1_555
C15 C14 1_555 1_555
H20 C15 1_555 1_555
C16 C11 1_555 1_555
H21 C16 1_555 1_555
C17 C14 1_555 1_555
H22 C17 1_555 1_555
H23 C17 1_555 1_555
H24 C17 1_555 1_555
F1 C1 1_555 1_555
F2 C1 1_555 1_555
F3 C1 1_555 1_555
N1 C6 1_555 1_555
N2 C2 1_555 1_555
H25 N2 1_555 1_555
O1 S1 1_555 1_555
O2 S1 1_555 1_555
S1 C11 1_555 1_555
C7 N1 1_555 1_555
C8 N1 1_555 1_555
C15 C16 1_555 1_555
N2 S1 1_555 1_555

#END
