
#######################################################################
#
#                 Cambridge Crystallographic Data Centre
#                                CCDC 
#
#######################################################################
#
# If this CIF has been generated from an entry in the Cambridge 
# Structural Database, then it will include bibliographic, chemical, 
# crystal, experimental, refinement or atomic coordinate data resulting 
# from the CCDC's data processing and validation procedures.
#
#######################################################################

data_SOSXUV
_chemical_formula_moiety         'C25 H36 O6'
_chemical_name_systematic        
'11,21-dihydroxy-3,20-dioxopregn-4-en-17-yl butyrate'
_symmetry_cell_setting           orthorhombic
_symmetry_space_group_name_H-M   'P 21 21 21'
_symmetry_Int_Tables_number      19
_space_group_name_Hall           'P 2ac 2ab'
loop_
_symmetry_equiv_pos_site_id
_symmetry_equiv_pos_as_xyz
1 x,y,z
2 1/2-x,-y,1/2+z
3 1/2+x,1/2-y,-z
4 -x,1/2+y,1/2-z
_cell_length_a                   9.05738(8)
_cell_length_b                   11.87633(9)
_cell_length_c                   21.13465(15)
_cell_angle_alpha                90
_cell_angle_beta                 90
_cell_angle_gamma                90
_cell_volume                     2273.42
_exptl_crystal_colour            colorless
_exptl_crystal_description       block
_cell_formula_units_Z            4
loop_
_atom_site_label
_atom_site_type_symbol
_atom_site_fract_x
_atom_site_fract_y
_atom_site_fract_z
O1 O -0.36156(14) 0.73133(12) 0.93301(6)
O2 O 0.38389(14) 0.61706(12) 0.87774(6)
H1 H 0.4512 0.6572 0.8906
O3 O 0.70484(17) 0.51666(13) 0.64786(8)
O4 O 0.8532(2) 0.7026(2) 0.67034(11)
H2 H 0.866(3) 0.638(2) 0.6577(13)
O5 O 0.39480(15) 0.69247(10) 0.63513(5)
O6 O 0.5163(2) 0.66663(14) 0.54407(7)
C1 C 0.02943(18) 0.72375(15) 0.90894(8)
H3 H 0.1177 0.7472 0.9314
H4 H 0.0142 0.7759 0.8743
C2 C -0.1022(2) 0.73130(18) 0.95395(9)
H5 H -0.0831 0.6860 0.9912
H6 H -0.1154 0.8087 0.9674
C3 C -0.24009(18) 0.69069(14) 0.92219(7)
C4 C -0.22232(18) 0.59526(15) 0.87958(8)
H7 H -0.3071 0.5621 0.8632
C5 C -0.09161(18) 0.55240(13) 0.86262(7)
C6 C -0.0827(2) 0.44526(14) 0.82502(9)
H8 H -0.1814 0.4225 0.8126
H9 H -0.0415 0.3862 0.8513
C7 C 0.0122(2) 0.45906(15) 0.76617(9)
H10 H -0.0378 0.5087 0.7367
H11 H 0.0237 0.3864 0.7458
C8 C 0.16479(17) 0.50722(13) 0.78101(7)
H12 H 0.2217 0.4516 0.8051
C9 C 0.15146(16) 0.61680(12) 0.82020(7)
H13 H 0.0957 0.6684 0.7930
C10 C 0.05504(16) 0.60493(14) 0.88151(7)
C11 C 0.30159(18) 0.67602(13) 0.83072(7)
H14 H 0.2813 0.7517 0.8471
C12 C 0.39077(18) 0.68924(12) 0.76887(7)
H15 H 0.3440 0.7461 0.7427
H16 H 0.4893 0.7156 0.7791
C13 C 0.40305(17) 0.57970(12) 0.73084(7)
C14 C 0.24614(18) 0.53463(12) 0.71963(7)
H17 H 0.1906 0.5951 0.6989
C15 C 0.2669(2) 0.44163(14) 0.67029(8)
H18 H 0.1773 0.4307 0.6459
H19 H 0.2934 0.3710 0.6903
C16 C 0.3930(2) 0.48456(16) 0.62797(8)
H20 H 0.3556 0.5039 0.5864
H21 H 0.4679 0.4268 0.6232
C17 C 0.4592(2) 0.58969(13) 0.66039(7)
C18 C 0.1214(2) 0.52665(18) 0.93282(8)
H22 H 0.0463 0.5073 0.9630
H23 H 0.2007 0.5648 0.9540
H24 H 0.1583 0.4593 0.9133
C19 C 0.5017(2) 0.49307(15) 0.76391(8)
H25 H 0.5989 0.5239 0.7693
H26 H 0.5073 0.4261 0.7386
H27 H 0.4607 0.4750 0.8045
C20 C 0.6275(2) 0.59745(15) 0.65638(8)
C21 C 0.7000(3) 0.7106(2) 0.66925(12)
H28 H 0.672(3) 0.740(3) 0.7116(14)
H29 H 0.656(4) 0.773(3) 0.6395(17)
C22 C 0.4291(3) 0.71949(17) 0.57472(9)
C23 C 0.3459(4) 0.8215(2) 0.55363(12)
H30 H 0.2414 0.8036 0.5535
H31 H 0.3612 0.8807 0.5846
C24 C 0.3861(5) 0.8661(3) 0.49010(13)
H32 H 0.3902 0.8041 0.4602
H33 H 0.3098 0.9176 0.4760
C25 C 0.5263(6) 0.9239(4) 0.4900(2)
H34 H 0.5190 0.9910 0.5151
H35 H 0.5522 0.9436 0.4474
H36 H 0.6008 0.8755 0.5074
H37? H 0.4756 0.8270 0.4776
H38? H 0.3093 0.8410 0.4614
C26? C 0.4109(19) 0.9858(11) 0.4760(7)
H39? H 0.3263 1.0159 0.4545
H40? H 0.4965 0.9935 0.4496
H41? H 0.4262 1.0263 0.5148
loop_
_geom_bond_atom_site_label_1
_geom_bond_atom_site_label_2
_geom_bond_site_symmetry_1
_geom_bond_site_symmetry_2
O1 C3 1_555 1_555
O2 H1 1_555 1_555
O3 C20 1_555 1_555
O4 H2 1_555 1_555
O5 C17 1_555 1_555
O6 C22 1_555 1_555
C1 H3 1_555 1_555
H4 C1 1_555 1_555
C2 C1 1_555 1_555
H5 C2 1_555 1_555
H6 C2 1_555 1_555
C3 C2 1_555 1_555
C4 C3 1_555 1_555
H7 C4 1_555 1_555
C5 C4 1_555 1_555
C6 C5 1_555 1_555
H8 C6 1_555 1_555
H9 C6 1_555 1_555
C7 C6 1_555 1_555
H10 C7 1_555 1_555
H11 C7 1_555 1_555
C8 C7 1_555 1_555
H12 C8 1_555 1_555
C9 C8 1_555 1_555
H13 C9 1_555 1_555
C10 C1 1_555 1_555
C11 O2 1_555 1_555
H14 C11 1_555 1_555
C12 C11 1_555 1_555
H15 C12 1_555 1_555
H16 C12 1_555 1_555
C13 C12 1_555 1_555
C14 C8 1_555 1_555
H17 C14 1_555 1_555
C15 C14 1_555 1_555
H18 C15 1_555 1_555
H19 C15 1_555 1_555
C16 C15 1_555 1_555
H20 C16 1_555 1_555
H21 C16 1_555 1_555
C17 C13 1_555 1_555
C18 C10 1_555 1_555
H22 C18 1_555 1_555
H23 C18 1_555 1_555
H24 C18 1_555 1_555
C19 C13 1_555 1_555
H25 C19 1_555 1_555
H26 C19 1_555 1_555
H27 C19 1_555 1_555
C20 C17 1_555 1_555
C21 O4 1_555 1_555
H28 C21 1_555 1_555
H29 C21 1_555 1_555
C22 O5 1_555 1_555
C23 C22 1_555 1_555
H30 C23 1_555 1_555
H31 C23 1_555 1_555
C24 C23 1_555 1_555
H32 C24 1_555 1_555
H33 C24 1_555 1_555
C25 C24 1_555 1_555
H34 C25 1_555 1_555
H35 C25 1_555 1_555
H36 C25 1_555 1_555
C5 C10 1_555 1_555
C9 C10 1_555 1_555
C9 C11 1_555 1_555
C13 C14 1_555 1_555
C16 C17 1_555 1_555
C20 C21 1_555 1_555

#END
