
#######################################################################
#
#                 Cambridge Crystallographic Data Centre
#                                CCDC 
#
#######################################################################
#
# If this CIF has been generated from an entry in the Cambridge 
# Structural Database, then it will include bibliographic, chemical, 
# crystal, experimental, refinement or atomic coordinate data resulting 
# from the CCDC's data processing and validation procedures.
#
#######################################################################

data_SOTFEM
_chemical_formula_moiety         'C21 H19 N4 O4 1-,C8 H16 N1 O2 1+'
_chemical_name_systematic        
'(2-(2-Methylacryloyloxy)ethyl)(dimethyl)ammonium 5-cyano-3-(3-(5-cyano-1-ethyl-4-methyl-2,6-dioxo-1,2,3,6-tetrahydropyridin-4-ylidene)prop-1-enyl)-1-ethyl-4-methyl-6-oxo-1,6-dihydropyridin-2-olate'
_symmetry_cell_setting           monoclinic
_symmetry_space_group_name_H-M   'C 2/c'
_symmetry_Int_Tables_number      15
_space_group_name_Hall           '-C 2yn'
loop_
_symmetry_equiv_pos_site_id
_symmetry_equiv_pos_as_xyz
1 x,y,z
2 1/2+x,1/2+y,z
3 -x,y,1/2-z
4 1/2-x,1/2+y,1/2-z
5 -x,-y,-z
6 1/2-x,1/2-y,-z
7 x,-y,1/2+z
8 1/2+x,1/2-y,1/2+z
_cell_length_a                   31.313(5)
_cell_length_b                   7.436(3)
_cell_length_c                   25.495(4)
_cell_angle_alpha                90
_cell_angle_beta                 100.63(7)
_cell_angle_gamma                90
_cell_volume                     5834.47
_exptl_crystal_colour            blue
_chemical_melting_point          217deg.C
_cell_formula_units_Z            8
loop_
_atom_site_label
_atom_site_type_symbol
_atom_site_fract_x
_atom_site_fract_y
_atom_site_fract_z
C1 C 0.6909(5) 0.0387(21) 0.4699(6)
C2 C 0.6818(4) 0.1980(20) 0.4939(5)
C3 C 0.6615(3) 0.0872(14) 0.5791(5)
C4 C 0.6297(3) 0.0627(12) 0.6107(4)
C5 C 0.6455(4) -0.0120(14) 0.6629(5)
C6 C 0.5865(3) 0.1035(12) 0.5929(4)
C7 C 0.5556(3) 0.0795(14) 0.6311(4)
C8 C 0.5724(3) 0.1652(11) 0.5398(4)
C9 C 0.6033(3) 0.1860(13) 0.5057(5)
C10 C 0.5276(3) 0.2068(12) 0.5215(5)
C11 C 0.5078(3) 0.2675(12) 0.4715(5)
C12 C 0.4622(3) 0.3050(13) 0.4668(5)
C13 C 0.4342(3) 0.3668(12) 0.4211(4)
C14 C 0.3893(3) 0.3931(12) 0.4243(5)
C15 C 0.3718(3) 0.3556(13) 0.4735(4)
C16 C 0.3617(3) 0.4549(13) 0.3786(5)
C17 C 0.3160(3) 0.4902(13) 0.3775(5)
C18 C 0.3754(3) 0.4913(13) 0.3293(5)
C19 C 0.4342(4) 0.4932(15) 0.2774(5)
C20 C 0.4371(4) 0.3188(17) 0.2479(5)
C21 C 0.4490(4) 0.4024(14) 0.3720(5)
N1 N 0.6476(3) 0.1495(12) 0.5273(4)
N2 N 0.6593(3) -0.0689(12) 0.7044(4)
N3 N 0.2797(3) 0.5155(13) 0.3768(5)
N4 N 0.4186(3) 0.4648(11) 0.3275(4)
O1 O 0.7015(2) 0.0522(9) 0.5937(3)
O2 O 0.5952(2) 0.2303(11) 0.4582(3)
O3 O 0.4865(2) 0.3886(12) 0.3653(3)
O4 O 0.3495(2) 0.5415(10) 0.2883(3)
H1 H 0.7132(5) 0.0535(21) 0.4473(6)
H2 H 0.7010(5) -0.0514(21) 0.4980(6)
H3 H 0.6634(5) -0.0025(21) 0.4476(6)
H4 H 0.5261(3) 0.1139(14) 0.6125(4)
H5 H 0.5644(3) 0.1579(14) 0.6626(4)
H6 H 0.5554(3) -0.0474(14) 0.6428(4)
H7 H 0.3403(3) 0.3816(13) 0.4667(4)
H8 H 0.3867(3) 0.4338(13) 0.5026(4)
H9 H 0.3767(3) 0.2279(13) 0.4839(4)
H10 H 0.4479(4) 0.3411(17) 0.2143(5)
H11 H 0.4572(4) 0.2359(17) 0.2709(5)
H12 H 0.4078(4) 0.2641(17) 0.2395(5)
H22 H 0.7085(4) 0.2419(20) 0.5174(5)
H23 H 0.6710(4) 0.2908(20) 0.4669(5)
H24 H 0.4635(4) 0.5477(15) 0.2857(5)
H25 H 0.4142(4) 0.5759(15) 0.2543(5)
H32 H 0.5079(3) 0.1959(12) 0.5476(5)
H33 H 0.5232(3) 0.2820(12) 0.4412(5)
H34 H 0.4502(3) 0.2859(13) 0.4997(5)
C22 C 0.7561(3) 0.1676(14) 0.7217(4)
C23 C 0.8112(3) 0.2169(14) 0.6670(5)
C24 C 0.7792(3) -0.0884(14) 0.6737(4)
C25 C 0.7900(3) -0.1550(15) 0.6218(5)
C26 C 0.8624(3) -0.2684(15) 0.6426(5)
C27 C 0.9089(4) -0.2446(20) 0.6394(6)
C28 C 0.9220(4) -0.0988(18) 0.6203(5)
C29 C 0.9375(4) -0.3968(48) 0.6617(7)
N5 N 0.7720(2) 0.1124(10) 0.6723(4)
O5 O 0.8355(2) -0.1379(9) 0.6183(3)
O6 O 0.8487(3) -0.3929(12) 0.6664(4)
H13 H 0.7297(3) 0.0981(14) 0.7247(4)
H14 H 0.7792(3) 0.1410(14) 0.7528(4)
H15 H 0.7494(3) 0.2977(14) 0.7209(4)
H16 H 0.8208(3) 0.1816(14) 0.6337(5)
H17 H 0.8345(3) 0.1905(14) 0.6979(5)
H18 H 0.8046(3) 0.3473(14) 0.6661(5)
H19 H 0.9680(4) -0.3727(18) 0.6583(7)
H20 H 0.9357(4) -0.4075(18) 0.6999(7)
H21 H 0.9276(4) -0.5105(18) 0.6431(7)
H26 H 0.8046(3) -0.1165(14) 0.7018(4)
H27 H 0.7532(3) -0.1506(14) 0.6819(4)
H28 H 0.7810(3) -0.2819(15) 0.6153(5)
H29 H 0.7728(3) -0.0777(15) 0.5941(5)
H30 H 0.9532(4) -0.0788(18) 0.6201(5)
H31 H 0.9004(4) -0.0069(18) 0.6050(5)
H35 H 0.7510(2) 0.1463(10) 0.6399(4)
loop_
_geom_bond_atom_site_label_1
_geom_bond_atom_site_label_2
_geom_bond_site_symmetry_1
_geom_bond_site_symmetry_2
C1 C2 1_555 1_555
C2 N1 1_555 1_555
C3 C4 1_555 1_555
C4 C5 1_555 1_555
C5 N2 1_555 1_555
C6 C4 1_555 1_555
C7 C6 1_555 1_555
C8 C6 1_555 1_555
C9 C8 1_555 1_555
C10 C8 1_555 1_555
C11 C10 1_555 1_555
C12 C11 1_555 1_555
C13 C12 1_555 1_555
C14 C13 1_555 1_555
C15 C14 1_555 1_555
C16 C14 1_555 1_555
C17 C16 1_555 1_555
C18 C16 1_555 1_555
C19 C20 1_555 1_555
C20 H10 1_555 1_555
C21 C13 1_555 1_555
C22 N5 1_555 1_555
C23 N5 1_555 1_555
C24 C25 1_555 1_555
C25 O5 1_555 1_555
C26 C27 1_555 1_555
C27 C28 1_555 1_555
C28 H30 1_555 1_555
C29 C27 1_555 1_555
N1 C3 1_555 1_555
N3 C17 1_555 1_555
N4 C18 1_555 1_555
N5 C24 1_555 1_555
O1 C3 1_555 1_555
O2 C9 1_555 1_555
O3 C21 1_555 1_555
O4 C18 1_555 1_555
O5 C26 1_555 1_555
O6 C26 1_555 1_555
H1 C1 1_555 1_555
H2 C1 1_555 1_555
H3 C1 1_555 1_555
H4 C7 1_555 1_555
H5 C7 1_555 1_555
H6 C7 1_555 1_555
H7 C15 1_555 1_555
H8 C15 1_555 1_555
H9 C15 1_555 1_555
H11 C20 1_555 1_555
H12 C20 1_555 1_555
H13 C22 1_555 1_555
H14 C22 1_555 1_555
H15 C22 1_555 1_555
H16 C23 1_555 1_555
H17 C23 1_555 1_555
H18 C23 1_555 1_555
H19 C29 1_555 1_555
H20 C29 1_555 1_555
H21 C29 1_555 1_555
H22 C2 1_555 1_555
H23 C2 1_555 1_555
H24 C19 1_555 1_555
H25 C19 1_555 1_555
H26 C24 1_555 1_555
H27 C24 1_555 1_555
H28 C25 1_555 1_555
H29 C25 1_555 1_555
H31 C28 1_555 1_555
H32 C10 1_555 1_555
H33 C11 1_555 1_555
H34 C12 1_555 1_555
H35 N5 1_555 1_555
C9 N1 1_555 1_555
C19 N4 1_555 1_555
C21 N4 1_555 1_555

#END
