
#######################################################################
#
#                 Cambridge Crystallographic Data Centre
#                                CCDC 
#
#######################################################################
#
# If this CIF has been generated from an entry in the Cambridge 
# Structural Database, then it will include bibliographic, chemical, 
# crystal, experimental, refinement or atomic coordinate data resulting 
# from the CCDC's data processing and validation procedures.
#
#######################################################################

data_SOTFEN
_chemical_formula_moiety         'C36 H42 F2 N2 O2'
_chemical_name_systematic        
2,9-Difluoro-5,12-di(n-octyl)-5,12-dihydroquino[2,3-b]acridine-7,14-dione
_symmetry_cell_setting           triclinic
_symmetry_space_group_name_H-M   'P -1'
_symmetry_Int_Tables_number      2
_space_group_name_Hall           '-P 1'
loop_
_symmetry_equiv_pos_site_id
_symmetry_equiv_pos_as_xyz
1 x,y,z
2 -x,-y,-z
_cell_length_a                   8.0930(16)
_cell_length_b                   8.8966(18)
_cell_length_c                   12.017(2)
_cell_angle_alpha                110.82(3)
_cell_angle_beta                 101.89(3)
_cell_angle_gamma                99.42(3)
_cell_volume                     764.371
_exptl_crystal_colour            red
_exptl_crystal_description       block
_cell_formula_units_Z            1
_exptl_crystal_recrystallization_method 'chloroform/petroleum ether'
_exptl_crystal_preparation       photoluminescent
loop_
_atom_site_label
_atom_site_type_symbol
_atom_site_fract_x
_atom_site_fract_y
_atom_site_fract_z
C1 C 0.0704(2) 0.1979(2) 0.14110(15)
C2 C 0.1525(2) 0.1154(2) 0.20832(18)
H1 H 0.2736 0.1472 0.2406
C3 C 0.0565(3) -0.0106(2) 0.22666(19)
H2 H 0.1119 -0.0656 0.2698
C4 C -0.1241(3) -0.0555(2) 0.18043(18)
C5 C -0.2104(2) 0.0225(2) 0.11856(16)
H3 H -0.3319 -0.0084 0.0904
C6 C -0.1141(2) 0.15073(19) 0.09745(15)
C7 C -0.20737(19) 0.2275(2) 0.02494(15)
C8 C -0.09845(19) 0.36801(19) 0.01358(15)
C9 C 0.08615(19) 0.41027(19) 0.06040(15)
C10 C 0.18049(19) 0.5446(2) 0.04524(15)
H4 H 0.3018 0.5760 0.0756
C11 C 0.35841(19) 0.3428(2) 0.13940(16)
H5 H 0.3922 0.3724 0.0755
H6 H 0.3839 0.2370 0.1305
C12 C 0.4695(2) 0.4738(2) 0.26547(16)
H7 H 0.4407 0.4438 0.3306
H8 H 0.4452 0.5805 0.2762
C13 C 0.6623(2) 0.4877(2) 0.27566(16)
H9 H 0.6851 0.3814 0.2685
H10 H 0.6864 0.5084 0.2059
C14 C 0.7884(2) 0.6225(2) 0.39470(17)
H11 H 0.7706 0.5990 0.4649
H12 H 0.7635 0.7288 0.4046
C15 C 0.9777(2) 0.6345(2) 0.39497(18)
H13 H 1.0032 0.5297 0.3895
H14 H 0.9925 0.6502 0.3214
C16 C 1.1093(2) 0.7739(2) 0.50829(18)
H15 H 1.0831 0.8788 0.5149
H16 H 1.0969 0.7572 0.5819
C17 C 1.2968(3) 0.7852(3) 0.5049(2)
H17 H 1.3245 0.6820 0.5019
H18 H 1.3080 0.7971 0.4294
C18 C 1.4278(3) 0.9288(3) 0.6153(2)
H19 H 1.3997 1.0313 0.6203
H20 H 1.5431 0.9326 0.6057
H21 H 1.4238 0.9137 0.6900
F1 F -0.21572(17) -0.18255(15) 0.19914(13)
N1 N 0.16834(16) 0.32098(16) 0.11777(13)
O1 O -0.36659(14) 0.18089(15) -0.02210(13)
C1A C -0.0704(2) 0.8021(2) -0.14110(15)
C2A C -0.1525(2) 0.8846(2) -0.20832(18)
H1A H -0.2736 0.8528 -0.2406
C3A C -0.0565(3) 1.0106(2) -0.22666(19)
H2A H -0.1119 1.0656 -0.2698
C4A C 0.1241(3) 1.0555(2) -0.18043(18)
C5A C 0.2104(2) 0.9775(2) -0.11856(16)
H3A H 0.3319 1.0084 -0.0904
C6A C 0.1141(2) 0.84927(19) -0.09745(15)
C7A C 0.20737(19) 0.7725(2) -0.02494(15)
C8A C 0.09845(19) 0.63199(19) -0.01358(15)
C9A C -0.08615(19) 0.58973(19) -0.06040(15)
C10A C -0.18049(19) 0.4554(2) -0.04524(15)
H4A H -0.3018 0.4240 -0.0756
C11A C -0.35841(19) 0.6572(2) -0.13940(16)
H5A H -0.3922 0.6276 -0.0755
H6A H -0.3839 0.7630 -0.1305
C12A C -0.4695(2) 0.5262(2) -0.26547(16)
H7A H -0.4407 0.5562 -0.3306
H8A H -0.4452 0.4195 -0.2762
C13A C -0.6623(2) 0.5123(2) -0.27566(16)
H9A H -0.6851 0.6186 -0.2685
H10A H -0.6864 0.4916 -0.2059
C14A C -0.7884(2) 0.3775(2) -0.39470(17)
H11A H -0.7706 0.4010 -0.4649
H12A H -0.7635 0.2712 -0.4046
C15A C -0.9777(2) 0.3655(2) -0.39497(18)
H13A H -1.0032 0.4703 -0.3895
H14A H -0.9925 0.3498 -0.3214
C16A C -1.1093(2) 0.2261(2) -0.50829(18)
H15A H -1.0831 0.1212 -0.5149
H16A H -1.0969 0.2428 -0.5819
C17A C -1.2968(3) 0.2148(3) -0.5049(2)
H17A H -1.3245 0.3180 -0.5019
H18A H -1.3080 0.2029 -0.4294
C18A C -1.4278(3) 0.0712(3) -0.6153(2)
H19A H -1.3997 -0.0313 -0.6203
H20A H -1.5431 0.0674 -0.6057
H21A H -1.4238 0.0863 -0.6900
F1A F 0.21572(17) 1.18255(15) -0.19914(13)
N1A N -0.16834(16) 0.67902(16) -0.11777(13)
O1A O 0.36659(14) 0.81911(15) 0.02210(13)
loop_
_geom_bond_atom_site_label_1
_geom_bond_atom_site_label_2
_geom_bond_site_symmetry_1
_geom_bond_site_symmetry_2
C1 C2 1_555 1_555
C2 H1 1_555 1_555
C3 C2 1_555 1_555
H2 C3 1_555 1_555
C4 C3 1_555 1_555
C5 C4 1_555 1_555
H3 C5 1_555 1_555
C6 C1 1_555 1_555
C7 C6 1_555 1_555
C8 C7 1_555 1_555
C9 C8 1_555 1_555
C10 C9 1_555 1_555
H4 C10 1_555 1_555
C11 H5 1_555 1_555
H6 C11 1_555 1_555
C12 C11 1_555 1_555
H7 C12 1_555 1_555
H8 C12 1_555 1_555
C13 C12 1_555 1_555
H9 C13 1_555 1_555
H10 C13 1_555 1_555
C14 C13 1_555 1_555
H11 C14 1_555 1_555
H12 C14 1_555 1_555
C15 C14 1_555 1_555
H13 C15 1_555 1_555
H14 C15 1_555 1_555
C16 C15 1_555 1_555
H15 C16 1_555 1_555
H16 C16 1_555 1_555
C17 C16 1_555 1_555
H17 C17 1_555 1_555
H18 C17 1_555 1_555
C18 C17 1_555 1_555
H19 C18 1_555 1_555
H20 C18 1_555 1_555
H21 C18 1_555 1_555
F1 C4 1_555 1_555
N1 C1 1_555 1_555
O1 C7 1_555 1_555
C1A C2A 1_555 1_555
C2A H1A 1_555 1_555
C3A C2A 1_555 1_555
H2A C3A 1_555 1_555
C4A C3A 1_555 1_555
C5A C4A 1_555 1_555
H3A C5A 1_555 1_555
C6A C1A 1_555 1_555
C7A C6A 1_555 1_555
C8A C10 1_555 1_555
C9A C8A 1_555 1_555
C10A C8 1_555 1_555
H4A C10A 1_555 1_555
C11A H5A 1_555 1_555
H6A C11A 1_555 1_555
C12A C11A 1_555 1_555
H7A C12A 1_555 1_555
H8A C12A 1_555 1_555
C13A C12A 1_555 1_555
H9A C13A 1_555 1_555
H10A C13A 1_555 1_555
C14A C13A 1_555 1_555
H11A C14A 1_555 1_555
H12A C14A 1_555 1_555
C15A C14A 1_555 1_555
H13A C15A 1_555 1_555
H14A C15A 1_555 1_555
C16A C15A 1_555 1_555
H15A C16A 1_555 1_555
H16A C16A 1_555 1_555
C17A C16A 1_555 1_555
H17A C17A 1_555 1_555
H18A C17A 1_555 1_555
C18A C17A 1_555 1_555
H19A C18A 1_555 1_555
H20A C18A 1_555 1_555
H21A C18A 1_555 1_555
F1A C4A 1_555 1_555
N1A C1A 1_555 1_555
O1A C7A 1_555 1_555
C5 C6 1_555 1_555
C9 N1 1_555 1_555
C11 N1 1_555 1_555
C5A C6A 1_555 1_555
C7A C8A 1_555 1_555
C9A C10A 1_555 1_555
C9A N1A 1_555 1_555
C11A N1A 1_555 1_555

#END
