
#######################################################################
#
#                 Cambridge Crystallographic Data Centre
#                                CCDC 
#
#######################################################################
#
# If this CIF has been generated from an entry in the Cambridge 
# Structural Database, then it will include bibliographic, chemical, 
# crystal, experimental, refinement or atomic coordinate data resulting 
# from the CCDC's data processing and validation procedures.
#
#######################################################################

data_SOTNEW
_chemical_formula_moiety         'C50 H30 N2,C1 H2 Cl2'
_chemical_name_systematic        
'9,11,14,16-tetraphenylbenzo[8,9]triphenyleno[2,3-g]phthalazine dichloromethane solvate'
_symmetry_cell_setting           triclinic
_symmetry_space_group_name_H-M   'P -1'
_symmetry_Int_Tables_number      2
_space_group_name_Hall           '-P 1'
loop_
_symmetry_equiv_pos_site_id
_symmetry_equiv_pos_as_xyz
1 x,y,z
2 -x,-y,-z
_cell_length_a                   10.9885(4)
_cell_length_b                   11.6518(4)
_cell_length_c                   15.3264(6)
_cell_angle_alpha                85.393(3)
_cell_angle_beta                 89.268(3)
_cell_angle_gamma                73.761(3)
_cell_volume                     1877.85
_exptl_crystal_colour            orange
_exptl_crystal_description       flake
_cell_formula_units_Z            2
loop_
_atom_site_label
_atom_site_type_symbol
_atom_site_fract_x
_atom_site_fract_y
_atom_site_fract_z
C1 C 1.4128(4) 0.8814(5) 0.5591(2)
C2 C 1.4050(3) 0.7655(5) 0.5778(2)
C3 C 0.6972(3) 0.8362(4) -0.01847(19)
C4 C 0.5856(3) 0.5904(3) 0.3113(2)
H1 H 0.5223 0.5640 0.2867
C5 C 1.3160(4) 0.9658(4) 0.5161(2)
C6 C 0.5540(3) 0.6886(3) 0.3593(2)
C7 C 1.5212(3) 0.9097(4) 0.1829(2)
C8 C 1.5034(3) 1.0050(4) 0.2327(2)
C9 C 0.6717(3) 0.7298(4) 0.0045(2)
C10 C 1.4206(3) 0.8644(3) 0.16407(19)
C11 C 0.7478(3) 0.6475(4) 0.0643(2)
C12 C 0.7109(3) 0.5309(3) 0.29934(18)
C13 C 1.2966(3) 0.7348(3) 0.55363(17)
C14 C 1.2089(3) 0.9368(3) 0.49185(18)
C15 C 0.8446(3) 0.5691(3) 0.82674(18)
C16 C 1.3843(3) 1.0573(3) 0.2651(2)
C17 C 0.7352(3) 0.4793(3) 0.62158(18)
C18 C 0.6478(2) 0.7282(3) 0.39666(18)
C19 C 1.0673(3) 0.8664(3) 0.76090(17)
C20 C 1.0215(3) 0.7952(3) 0.82100(17)
C21 C 0.8496(3) 0.6733(3) 0.10276(17)
C22 C 0.9095(3) 0.6411(3) 0.85396(18)
C23 C 0.7995(3) 0.8627(3) 0.01878(17)
C24 C 1.2850(3) 1.0115(2) 0.24917(17)
C25 C 0.8045(3) 0.5695(2) 0.33643(17)
C26 C 0.8227(3) 0.5614(2) 0.73577(16)
C27 C 1.0057(2) 0.7708(2) 0.63972(14)
C28 C 0.7522(3) 0.4883(3) 0.70883(18)
C29 C 0.7738(2) 0.6684(2) 0.38666(14)
C30 C 0.7862(3) 0.5457(2) 0.55897(17)
C31 C 0.8762(2) 0.7815(2) 0.07998(14)
C32 C 1.3014(2) 0.9155(2) 0.19767(15)
C33 C 1.0586(2) 0.8550(2) 0.67199(16)
C34 C 0.9229(2) 0.7733(2) 0.27403(14)
C35 C 0.9612(2) 0.7139(2) 0.79230(15)
C36 C 0.8518(2) 0.6255(2) 0.58132(15)
C37 C 0.9859(2) 0.8111(2) 0.11943(15)
C38 C 0.8749(2) 0.6305(2) 0.67179(15)
C39 C 1.1914(2) 0.8719(2) 0.17512(15)
C40 C 1.1979(2) 0.8205(2) 0.51167(14)
C41 C 1.0817(2) 0.78865(19) 0.48521(14)
C42 C 0.8776(2) 0.7090(2) 0.42589(14)
C43 C 0.9473(2) 0.7050(2) 0.70138(14)
C44 C 1.0001(2) 0.75307(19) 0.54578(14)
C45 C 1.0040(2) 0.8062(2) 0.21234(14)
C46 C 0.9069(2) 0.69695(19) 0.51488(14)
C47 C 1.0591(2) 0.79139(19) 0.39365(14)
C48 C 1.1396(2) 0.8261(2) 0.33056(14)
C49 C 1.1136(2) 0.8341(2) 0.24204(14)
C50 C 0.9504(2) 0.7603(2) 0.36367(14)
N1 N 1.1685(2) 0.8735(2) 0.09173(13)
N2 N 1.0655(2) 0.8394(2) 0.06247(14)
H2 H 0.846(3) 0.758(3) 0.254(2)
H3 H 1.213(3) 0.843(3) 0.3525(19)
H4 H 1.020(3) 0.809(3) 0.886(2)
H5 H 0.687(3) 0.425(3) 0.598(2)
H6 H 1.293(3) 0.656(3) 0.568(2)
H7 H 0.779(3) 0.533(3) 0.502(2)
H8 H 1.103(3) 0.920(3) 0.778(2)
H9 H 0.889(4) 0.529(3) 0.331(2)
H10 H 0.823(4) 0.520(4) 0.875(3)
H11 H 0.902(3) 0.616(3) 0.144(2)
H12 H 1.082(3) 0.916(3) 0.633(2)
H13 H 0.620(3) 0.796(3) 0.424(2)
H14 H 0.809(4) 0.933(4) 0.003(2)
H15 H 1.435(3) 0.791(3) 0.127(2)
H16 H 1.574(4) 1.039(3) 0.243(2)
H17 H 1.205(3) 1.051(3) 0.267(2)
H18 H 0.740(3) 0.450(3) 0.265(2)
H19 H 0.928(3) 0.639(3) 0.915(2)
H20 H 0.608(4) 0.705(4) -0.024(3)
H21 H 1.367(3) 1.133(3) 0.295(2)
H22 H 1.132(3) 1.005(3) 0.465(2)
H23 H 1.478(4) 0.916(4) 0.576(3)
H24 H 1.596(4) 0.874(4) 0.160(3)
H25 H 1.477(4) 0.696(4) 0.603(3)
H26 H 0.733(4) 0.556(4) 0.080(3)
H27 H 0.634(4) 0.899(4) -0.063(3)
H28 H 1.323(4) 1.050(4) 0.502(2)
H29 H 0.721(4) 0.452(3) 0.762(2)
H30 H 0.469(4) 0.736(4) 0.371(3)
Cl1 Cl 1.3643(2) 0.61105(16) 1.02340(15)
Cl2 Cl 1.4010(2) 0.6930(2) 0.84514(13)
C51 C 1.3228(5) 0.7327(8) 0.9393(4)
loop_
_geom_bond_atom_site_label_1
_geom_bond_atom_site_label_2
_geom_bond_site_symmetry_1
_geom_bond_site_symmetry_2
C1 C2 1_555 1_555
C2 C13 1_555 1_555
C3 C9 1_555 1_555
C4 H1 1_555 1_555
C5 C1 1_555 1_555
C6 C4 1_555 1_555
C7 C8 1_555 1_555
C8 C16 1_555 1_555
C9 C11 1_555 1_555
C10 C7 1_555 1_555
C11 C21 1_555 1_555
C12 C4 1_555 1_555
C13 C40 1_555 1_555
C14 C5 1_555 1_555
C15 C22 1_555 1_555
C16 C24 1_555 1_555
C17 C28 1_555 1_555
C18 C6 1_555 1_555
C19 C20 1_555 1_555
C20 C35 1_555 1_555
C21 C31 1_555 1_555
C22 C35 1_555 1_555
C23 C3 1_555 1_555
C24 C32 1_555 1_555
C25 C12 1_555 1_555
C26 C15 1_555 1_555
C27 C33 1_555 1_555
C28 C26 1_555 1_555
C29 C18 1_555 1_555
C30 C17 1_555 1_555
C31 C23 1_555 1_555
C32 C10 1_555 1_555
C33 C19 1_555 1_555
C34 C45 1_555 1_555
C35 C43 1_555 1_555
C36 C30 1_555 1_555
C37 C31 1_555 1_555
C38 C26 1_555 1_555
C39 C32 1_555 1_555
C40 C14 1_555 1_555
C41 C40 1_555 1_555
C42 C29 1_555 1_555
C43 C27 1_555 1_555
C44 C27 1_555 1_555
C45 C37 1_555 1_555
C46 C36 1_555 1_555
C47 C41 1_555 1_555
C48 C47 1_555 1_555
C49 C39 1_555 1_555
C50 C34 1_555 1_555
N1 C39 1_555 1_555
N2 C37 1_555 1_555
H2 C34 1_555 1_555
H3 C48 1_555 1_555
H4 C20 1_555 1_555
H5 C17 1_555 1_555
H6 C13 1_555 1_555
H7 C30 1_555 1_555
H8 C19 1_555 1_555
H9 C25 1_555 1_555
H10 C15 1_555 1_555
H11 C21 1_555 1_555
H12 C33 1_555 1_555
H13 C18 1_555 1_555
H14 C23 1_555 1_555
H15 C10 1_555 1_555
H16 C8 1_555 1_555
H17 C24 1_555 1_555
H18 C12 1_555 1_555
H19 C22 1_555 1_555
H20 C9 1_555 1_555
H21 C16 1_555 1_555
H22 C14 1_555 1_555
H23 C1 1_555 1_555
H24 C7 1_555 1_555
H25 C2 1_555 1_555
H26 C11 1_555 1_555
H27 C3 1_555 1_555
H28 C5 1_555 1_555
H29 C28 1_555 1_555
H30 C6 1_555 1_555
Cl1 C51 1_555 1_555
Cl2 C51 1_555 1_555
C25 C29 1_555 1_555
C36 C38 1_555 1_555
C38 C43 1_555 1_555
C41 C44 1_555 1_555
C42 C46 1_555 1_555
C42 C50 1_555 1_555
C44 C46 1_555 1_555
C45 C49 1_555 1_555
C47 C50 1_555 1_555
C48 C49 1_555 1_555
N1 N2 1_555 1_555

#END
