
#######################################################################
#
#                 Cambridge Crystallographic Data Centre
#                                CCDC 
#
#######################################################################
#
# If this CIF has been generated from an entry in the Cambridge 
# Structural Database, then it will include bibliographic, chemical, 
# crystal, experimental, refinement or atomic coordinate data resulting 
# from the CCDC's data processing and validation procedures.
#
#######################################################################

data_SOTNOG
_chemical_formula_moiety         'C46 H26 N2 S2'
_chemical_name_systematic        
9,16-diphenyl-11,14-bis(2-thienyl)benzo[8,9]triphenyleno[2,3-g]phthalazine
_symmetry_cell_setting           triclinic
_symmetry_space_group_name_H-M   'P -1'
_symmetry_Int_Tables_number      2
_space_group_name_Hall           '-P 1'
loop_
_symmetry_equiv_pos_site_id
_symmetry_equiv_pos_as_xyz
1 x,y,z
2 -x,-y,-z
_cell_length_a                   10.3831(6)
_cell_length_b                   13.0198(5)
_cell_length_c                   13.2997(6)
_cell_angle_alpha                81.765(3)
_cell_angle_beta                 78.203(4)
_cell_angle_gamma                70.812(4)
_cell_volume                     1656.55
_exptl_crystal_colour            orange
_exptl_crystal_description       block
_cell_formula_units_Z            2
loop_
_atom_site_label
_atom_site_type_symbol
_atom_site_fract_x
_atom_site_fract_y
_atom_site_fract_z
S1 S 0.41406(8) 0.09837(6) 0.39753(5)
S2 S 0.88190(9) 0.02985(8) -0.08000(9)
C1 C 0.71356(10) 0.20956(8) -0.16875(9)
C2 C 0.72488(19) 0.11292(16) -0.07566(17)
C3 C 0.9502(3) 0.0805(3) -0.1796(3)
C4 C 0.8671(3) 0.1695(3) -0.2255(2)
C5 C 0.27353(17) 0.23644(13) -0.08080(13)
C6 C 0.18158(17) 0.23701(13) 0.01485(13)
C7 C 0.37845(18) 0.13678(13) 0.10045(14)
C8 C 0.07622(18) 0.33680(13) -0.16654(13)
C9 C 0.23758(18) 0.18283(14) 0.10299(14)
C10 C 0.03750(17) 0.29635(13) 0.02103(13)
C11 C 0.47066(17) 0.14253(13) 0.00645(14)
C12 C -0.01308(17) 0.35372(13) -0.06740(14)
C13 C -0.1251(2) 0.44311(15) -0.25393(16)
C14 C 0.21853(18) 0.28730(13) -0.17211(13)
C15 C 0.41673(18) 0.18797(13) -0.08252(14)
N1 N 0.57431(17) 0.04960(14) 0.18776(14)
C16 C 0.32111(18) 0.29782(14) -0.26649(13)
C17 C 0.43988(19) 0.08612(14) 0.19058(15)
C18 C 0.01175(19) 0.37060(14) -0.26076(14)
C19 C -0.04997(17) 0.28602(14) 0.12388(14)
C20 C 0.61676(18) 0.10425(14) 0.01189(15)
C21 C 0.3567(2) 0.07609(15) 0.29309(15)
N2 N 0.66325(17) 0.06120(14) 0.09822(14)
C22 C -0.15256(18) 0.43595(14) -0.06389(15)
C23 C -0.20376(18) 0.47948(14) -0.15705(16)
C24 C -0.2326(2) 0.47878(16) 0.02688(18)
C25 C 0.0762(2) 0.32596(19) -0.35407(16)
C26 C -0.13957(19) 0.22397(16) 0.13635(16)
C27 C -0.4154(2) 0.59423(17) -0.0604(2)
C28 C -0.3373(2) 0.55828(16) -0.15441(19)
C29 C -0.1858(2) 0.47788(18) -0.34500(18)
C30 C 0.4107(2) 0.20871(17) -0.31856(15)
C31 C -0.3629(2) 0.55602(16) 0.0285(2)
C32 C 0.3359(2) 0.40008(16) -0.29902(15)
C33 C -0.0366(2) 0.32935(19) 0.20968(17)
C34 C -0.2125(3) 0.2033(2) 0.2320(2)
C35 C 0.0122(3) 0.3556(2) -0.44117(18)
C36 C -0.3194(3) 0.5586(2) -0.3386(3)
C37 C 0.5116(3) 0.2233(2) -0.39983(17)
C38 C -0.3896(3) 0.5979(2) -0.2498(3)
C39 C -0.1152(3) 0.4328(2) -0.4367(2)
C40 C 0.2371(3) 0.0483(2) 0.32317(18)
C41 C 0.4370(3) 0.4139(2) -0.37953(19)
C42 C -0.1970(3) 0.2445(3) 0.3162(2)
C43 C -0.1120(3) 0.3073(3) 0.30611(19)
C44 C 0.2790(4) 0.0733(3) 0.4802(2)
C45 C 0.5256(3) 0.3243(2) -0.42979(19)
C46 C 0.1939(3) 0.0478(3) 0.4315(2)
H1 H 0.177(2) 0.1778(17) 0.1674(18)
H2 H 0.483(2) 0.1896(17) -0.1464(17)
H3 H -0.206(2) 0.4629(19) 0.088(2)
H4 H 0.162(2) 0.2756(19) -0.3584(17)
H5 H 0.027(2) 0.3732(18) 0.1990(17)
H6 H 0.400(2) 0.138(2) -0.2933(18)
H7 H -0.411(2) 0.5805(18) 0.0953(18)
H8 H -0.504(3) 0.645(2) -0.0634(19)
H9 H 0.280(2) 0.4561(18) -0.2627(17)
H10 H -0.146(2) 0.1955(19) 0.0796(18)
H11 H -0.474(3) 0.652(2) -0.241(2)
H12 H 0.070(3) 0.324(2) -0.503(2)
H13 H 0.569(3) 0.165(2) -0.430(2)
H14 H 0.191(3) 0.030(2) 0.283(2)
H15 H -0.160(3) 0.455(2) -0.491(2)
H16 H 0.270(3) 0.078(3) 0.550(3)
H17 H -0.101(3) 0.331(2) 0.359(2)
H18 H 0.599(4) 0.331(3) -0.479(3)
H19 H -0.345(3) 0.585(3) -0.399(3)
H20 H 0.443(3) 0.490(3) -0.397(2)
H21 H -0.267(3) 0.154(3) 0.243(2)
H22 H -0.246(3) 0.218(3) 0.373(3)
H23 H 0.116(4) 0.029(3) 0.464(3)
C47? C 0.88190(9) 0.02985(8) -0.08000(9)
S3? S 0.71356(10) 0.20956(8) -0.16875(9)
loop_
_geom_bond_atom_site_label_1
_geom_bond_atom_site_label_2
_geom_bond_site_symmetry_1
_geom_bond_site_symmetry_2
S1 C21 1_555 1_555
S2 C2 1_555 1_555
C1 C2 1_555 1_555
C2 C20 1_555 1_555
C3 S2 1_555 1_555
C4 C1 1_555 1_555
C5 C6 1_555 1_555
C6 C9 1_555 1_555
C7 C9 1_555 1_555
C8 C12 1_555 1_555
C9 H1 1_555 1_555
C10 C6 1_555 1_555
C11 C7 1_555 1_555
C12 C10 1_555 1_555
C13 C18 1_555 1_555
C14 C5 1_555 1_555
C15 C5 1_555 1_555
N1 C17 1_555 1_555
C16 C14 1_555 1_555
C17 C7 1_555 1_555
C18 C8 1_555 1_555
C19 C10 1_555 1_555
C20 C11 1_555 1_555
C21 C17 1_555 1_555
N2 N1 1_555 1_555
C22 C12 1_555 1_555
C23 C13 1_555 1_555
C24 C22 1_555 1_555
C25 C18 1_555 1_555
C26 C19 1_555 1_555
C27 C28 1_555 1_555
C28 C23 1_555 1_555
C29 C13 1_555 1_555
C30 C16 1_555 1_555
C31 C24 1_555 1_555
C32 C16 1_555 1_555
C33 C19 1_555 1_555
C34 C26 1_555 1_555
C35 C25 1_555 1_555
C36 C29 1_555 1_555
C37 C30 1_555 1_555
C38 C28 1_555 1_555
C39 C29 1_555 1_555
C40 C21 1_555 1_555
C41 C32 1_555 1_555
C42 C34 1_555 1_555
C43 C33 1_555 1_555
C44 S1 1_555 1_555
C45 C37 1_555 1_555
C46 C40 1_555 1_555
H2 C15 1_555 1_555
H3 C24 1_555 1_555
H4 C25 1_555 1_555
H5 C33 1_555 1_555
H6 C30 1_555 1_555
H7 C31 1_555 1_555
H8 C27 1_555 1_555
H9 C32 1_555 1_555
H10 C26 1_555 1_555
H11 C38 1_555 1_555
H12 C35 1_555 1_555
H13 C37 1_555 1_555
H14 C40 1_555 1_555
H15 C39 1_555 1_555
H16 C44 1_555 1_555
H17 C43 1_555 1_555
H18 C45 1_555 1_555
H19 C36 1_555 1_555
H20 C41 1_555 1_555
H21 C34 1_555 1_555
H22 C42 1_555 1_555
H23 C46 1_555 1_555
C3 C4 1_555 1_555
C8 C14 1_555 1_555
C11 C15 1_555 1_555
C20 N2 1_555 1_555
C22 C23 1_555 1_555
C27 C31 1_555 1_555
C35 C39 1_555 1_555
C36 C38 1_555 1_555
C41 C45 1_555 1_555
C42 C43 1_555 1_555
C44 C46 1_555 1_555

#END
