
#######################################################################
#
#                 Cambridge Crystallographic Data Centre
#                                CCDC 
#
#######################################################################
#
# If this CIF has been generated from an entry in the Cambridge 
# Structural Database, then it will include bibliographic, chemical, 
# crystal, experimental, refinement or atomic coordinate data resulting 
# from the CCDC's data processing and validation procedures.
#
#######################################################################

data_SOTYAD
_chemical_name_common            
'Ethyl (3S,4S,R!S$)-4,5-isopropylidenedioxy-3-(t-butylsulfinylamino)-2,2-difluoropentanoate'
_chemical_formula_moiety         'C14 H25 F2 N1 O5 S1'
_chemical_name_systematic        
'Ethyl (3S,4S,R~S~)-3-((t-butylsulfinyl)amino)-3-(2,2-dimethyl-1,3-dioxolan-4-yl)-2,2-difluoropropanoate'
_symmetry_cell_setting           orthorhombic
_symmetry_space_group_name_H-M   'P 21 21 21'
_symmetry_Int_Tables_number      19
_space_group_name_Hall           'P 2ac 2ab'
loop_
_symmetry_equiv_pos_site_id
_symmetry_equiv_pos_as_xyz
1 x,y,z
2 1/2-x,-y,1/2+z
3 -x,1/2+y,1/2-z
4 1/2+x,1/2-y,-z
_cell_length_a                   8.329(6)
_cell_length_b                   9.292(7)
_cell_length_c                   23.430(16)
_cell_angle_alpha                90
_cell_angle_beta                 90
_cell_angle_gamma                90
_cell_volume                     1813.32
_exptl_crystal_colour            colorless
_exptl_crystal_description       Prism
_cell_formula_units_Z            4
loop_
_atom_site_label
_atom_site_type_symbol
_atom_site_fract_x
_atom_site_fract_y
_atom_site_fract_z
S1 S 0.67138(11) 0.03170(11) 0.11524(3)
F1 F 1.1232(2) 0.3441(3) 0.12121(9)
F2 F 0.9954(3) 0.2131(3) 0.18465(9)
O1 O 0.7252(3) 0.4758(3) 0.07417(9)
O2 O 0.5937(4) 0.3844(4) -0.00075(12)
O3 O 0.5644(3) 0.0046(3) 0.06558(10)
O4 O 0.7973(4) 0.4457(3) 0.20655(11)
O5 O 0.9844(3) 0.5694(3) 0.15638(10)
N1 N 0.7181(4) 0.2043(4) 0.12100(13)
H1 H 0.650(7) 0.267(6) 0.122(3)
C1 C 0.6757(9) 0.6371(6) -0.00415(19)
H2 H 0.6958 0.7201 0.0206
H3 H 0.5964 0.6631 -0.0333
H4 H 0.7761 0.6082 -0.0227
C2 C 0.4543(6) 0.5453(6) 0.0601(2)
H5 H 0.4216 0.4623 0.0831
H6 H 0.3724 0.5646 0.0310
H7 H 0.4663 0.6298 0.0847
C3 C 0.6121(6) 0.5131(5) 0.03128(16)
C4 C 0.7442(5) 0.3129(5) -0.00244(15)
H8 H 0.8029 0.3361 -0.0380
H9 H 0.7301 0.2073 0.0001
C5 C 0.8343(5) 0.3712(4) 0.05026(13)
H10 H 0.9370 0.4184 0.0385
C6 C 0.8658(4) 0.2577(4) 0.09642(14)
H11 H 0.9226 0.1748 0.0781
C7 C 0.5414(4) 0.0199(5) 0.17924(14)
C8 C 0.6476(5) 0.0408(5) 0.23189(14)
H12 H 0.6948 0.1374 0.2311
H13 H 0.7336 -0.0312 0.2318
H14 H 0.5826 0.0296 0.2665
C9 C 0.4071(5) 0.1289(5) 0.17651(17)
H15 H 0.3513 0.1202 0.1399
H16 H 0.4517 0.2260 0.1802
H17 H 0.3312 0.1112 0.2077
C10 C 0.4746(5) -0.1320(5) 0.17794(17)
H18 H 0.4107 -0.1491 0.2124
H19 H 0.5635 -0.2011 0.1764
H20 H 0.4066 -0.1440 0.1441
C11 C 0.9739(5) 0.3167(5) 0.14370(15)
C12 C 0.9083(4) 0.4520(5) 0.17353(14)
C13 C 0.9143(5) 0.7057(5) 0.17436(19)
H21 H 0.8767 0.6989 0.2143
H22 H 0.8215 0.7302 0.1498
C14 C 1.0411(5) 0.8182(5) 0.16923(19)
H23 H 1.1250 0.8007 0.1977
H24 H 0.9935 0.9133 0.1757
H25 H 1.0882 0.8146 0.1309
loop_
_geom_bond_atom_site_label_1
_geom_bond_atom_site_label_2
_geom_bond_site_symmetry_1
_geom_bond_site_symmetry_2
S1 O3 1_555 1_555
F1 C11 1_555 1_555
F2 C11 1_555 1_555
O1 C3 1_555 1_555
O2 C3 1_555 1_555
O4 C12 1_555 1_555
O5 C12 1_555 1_555
N1 S1 1_555 1_555
H1 N1 1_555 1_555
C1 H2 1_555 1_555
H3 C1 1_555 1_555
H4 C1 1_555 1_555
C2 H5 1_555 1_555
H6 C2 1_555 1_555
H7 C2 1_555 1_555
C3 C1 1_555 1_555
C4 O2 1_555 1_555
H8 C4 1_555 1_555
H9 C4 1_555 1_555
C5 O1 1_555 1_555
H10 C5 1_555 1_555
C6 N1 1_555 1_555
H11 C6 1_555 1_555
C7 S1 1_555 1_555
C8 C7 1_555 1_555
H12 C8 1_555 1_555
H13 C8 1_555 1_555
H14 C8 1_555 1_555
C9 C7 1_555 1_555
H15 C9 1_555 1_555
H16 C9 1_555 1_555
H17 C9 1_555 1_555
C10 C7 1_555 1_555
H18 C10 1_555 1_555
H19 C10 1_555 1_555
H20 C10 1_555 1_555
C11 C6 1_555 1_555
C12 C11 1_555 1_555
C13 O5 1_555 1_555
H21 C13 1_555 1_555
H22 C13 1_555 1_555
C14 C13 1_555 1_555
H23 C14 1_555 1_555
H24 C14 1_555 1_555
H25 C14 1_555 1_555
C2 C3 1_555 1_555
C4 C5 1_555 1_555
C5 C6 1_555 1_555

#END
