
#######################################################################
#
#                 Cambridge Crystallographic Data Centre
#                                CCDC 
#
#######################################################################
#
# If this CIF has been generated from an entry in the Cambridge 
# Structural Database, then it will include bibliographic, chemical, 
# crystal, experimental, refinement or atomic coordinate data resulting 
# from the CCDC's data processing and validation procedures.
#
#######################################################################

data_SOTYOR01
_chemical_formula_moiety         'C24 H16 N2 O1'
_chemical_name_systematic        
3-Benzylidene-2-(quinolin-8-yl)isoindolin-1-one
_symmetry_cell_setting           orthorhombic
_symmetry_space_group_name_H-M   'P b c a'
_symmetry_Int_Tables_number      61
_space_group_name_Hall           '-P 2ac 2ab'
loop_
_symmetry_equiv_pos_site_id
_symmetry_equiv_pos_as_xyz
1 x,y,z
2 1/2-x,-y,1/2+z
3 1/2+x,1/2-y,-z
4 -x,1/2+y,1/2-z
5 -x,-y,-z
6 1/2+x,y,1/2-z
7 1/2-x,1/2+y,z
8 x,1/2-y,1/2+z
_cell_length_a                   14.5887(7)
_cell_length_b                   8.7526(5)
_cell_length_c                   27.4588(14)
_cell_angle_alpha                90
_cell_angle_beta                 90
_cell_angle_gamma                90
_cell_volume                     3506.19
_exptl_crystal_colour            colorless
_exptl_crystal_description       block
_cell_formula_units_Z            8
loop_
_atom_site_label
_atom_site_type_symbol
_atom_site_fract_x
_atom_site_fract_y
_atom_site_fract_z
O1 O 0.17775(7) 0.49710(11) 0.33378(3)
N1 N -0.08921(8) 0.65317(13) 0.35253(4)
N2 N 0.09625(7) 0.68090(12) 0.37643(4)
C1 C -0.17693(10) 0.64583(17) 0.34127(5)
H1 H -0.2145 0.5797 0.3601
C2 C -0.21882(10) 0.72846(19) 0.30361(5)
H2 H -0.2829 0.7206 0.2981
C3 C -0.16585(10) 0.82011(18) 0.27518(5)
H3 H -0.1926 0.8771 0.2494
C4 C -0.07092(10) 0.82975(16) 0.28436(5)
C5 C -0.03562(9) 0.74580(14) 0.32442(5)
C6 C 0.05963(9) 0.75659(15) 0.33446(5)
C7 C 0.11676(10) 0.83588(16) 0.30436(5)
H4 H 0.1808 0.8375 0.3106
C8 C 0.08104(11) 0.91529(18) 0.26402(5)
H5 H 0.1213 0.9698 0.2431
C9 C -0.01063(11) 0.91478(17) 0.25471(5)
H6 H -0.0341 0.9720 0.2281
C10 C 0.14840(9) 0.54870(15) 0.37200(5)
C11 C 0.15784(9) 0.48710(15) 0.42162(5)
C12 C 0.20393(10) 0.35856(17) 0.43777(5)
H7 H 0.2376 0.2961 0.4158
C13 C 0.19951(11) 0.32396(19) 0.48671(6)
H8 H 0.2303 0.2361 0.4988
C14 C 0.15046(10) 0.41622(19) 0.51853(6)
H9 H 0.1480 0.3898 0.5521
C15 C 0.10513(10) 0.54579(17) 0.50256(5)
H10 H 0.0724 0.6090 0.5246
C16 C 0.10906(9) 0.58048(15) 0.45319(5)
C17 C 0.07045(9) 0.70893(15) 0.42554(5)
C18 C 0.02575(10) 0.82862(16) 0.44439(5)
H11 H 0.0105 0.8199 0.4779
C19 C -0.00314(10) 0.97146(16) 0.42091(5)
C20 C -0.08988(11) 1.03220(18) 0.43013(6)
H12 H -0.1306 0.9802 0.4515
C21 C -0.11714(12) 1.16753(19) 0.40848(6)
H13 H -0.1764 1.2077 0.4151
C22 C -0.05905(13) 1.24439(19) 0.37749(6)
H14 H -0.0786 1.3359 0.3621
C23 C 0.02761(13) 1.18766(18) 0.36897(6)
H15 H 0.0682 1.2410 0.3479
C24 C 0.05577(11) 1.05346(16) 0.39094(5)
H16 H 0.1162 1.0168 0.3855
loop_
_geom_bond_atom_site_label_1
_geom_bond_atom_site_label_2
_geom_bond_site_symmetry_1
_geom_bond_site_symmetry_2
O1 C10 1_555 1_555
N1 C1 1_555 1_555
N2 C6 1_555 1_555
C1 H1 1_555 1_555
C2 C1 1_555 1_555
H2 C2 1_555 1_555
C3 C2 1_555 1_555
H3 C3 1_555 1_555
C4 C3 1_555 1_555
C5 N1 1_555 1_555
C6 C5 1_555 1_555
C7 C6 1_555 1_555
H4 C7 1_555 1_555
C8 C7 1_555 1_555
H5 C8 1_555 1_555
C9 C4 1_555 1_555
H6 C9 1_555 1_555
C10 N2 1_555 1_555
C11 C10 1_555 1_555
C12 C11 1_555 1_555
H7 C12 1_555 1_555
C13 C12 1_555 1_555
H8 C13 1_555 1_555
C14 C13 1_555 1_555
H9 C14 1_555 1_555
C15 C14 1_555 1_555
H10 C15 1_555 1_555
C16 C11 1_555 1_555
C17 N2 1_555 1_555
C18 C17 1_555 1_555
H11 C18 1_555 1_555
C19 C18 1_555 1_555
C20 C19 1_555 1_555
H12 C20 1_555 1_555
C21 C20 1_555 1_555
H13 C21 1_555 1_555
C22 C21 1_555 1_555
H14 C22 1_555 1_555
C23 C22 1_555 1_555
H15 C23 1_555 1_555
C24 C19 1_555 1_555
H16 C24 1_555 1_555
C4 C5 1_555 1_555
C8 C9 1_555 1_555
C15 C16 1_555 1_555
C16 C17 1_555 1_555
C23 C24 1_555 1_555

#END
