
#######################################################################
#
#                 Cambridge Crystallographic Data Centre
#                                CCDC 
#
#######################################################################
#
# If this CIF has been generated from an entry in the Cambridge 
# Structural Database, then it will include bibliographic, chemical, 
# crystal, experimental, refinement or atomic coordinate data resulting 
# from the CCDC's data processing and validation procedures.
#
#######################################################################

data_SOTYOR02
_chemical_formula_moiety         'C24 H16 N2 O1'
_chemical_name_systematic        
3-benzylidene-2-(quinolin-8-yl)isoindolin-1-one
_symmetry_cell_setting           orthorhombic
_symmetry_space_group_name_H-M   'P b c a'
_symmetry_Int_Tables_number      61
_space_group_name_Hall           '-P 2ac 2ab'
loop_
_symmetry_equiv_pos_site_id
_symmetry_equiv_pos_as_xyz
1 x,y,z
2 1/2+x,1/2-y,-z
3 -x,1/2+y,1/2-z
4 1/2-x,-y,1/2+z
5 -x,-y,-z
6 1/2-x,1/2+y,z
7 x,1/2-y,1/2+z
8 1/2+x,y,1/2-z
_cell_length_a                   14.690(4)
_cell_length_b                   8.800(2)
_cell_length_c                   27.615(6)
_cell_angle_alpha                90
_cell_angle_beta                 90
_cell_angle_gamma                90
_cell_volume                     3569.85
_cell_formula_units_Z            8
loop_
_atom_site_label
_atom_site_type_symbol
_atom_site_fract_x
_atom_site_fract_y
_atom_site_fract_z
O1 O 0.67708(8) 0.00058(13) 0.66561(4)
N1 N 0.59634(8) 0.18372(14) 0.62356(4)
N2 N 0.41267(8) 0.15674(14) 0.64767(4)
C1 C 0.44001(18) 0.7429(2) 0.62216(8)
H1 H 0.4207 0.8324 0.6368
C2 C 0.52616(16) 0.6886(2) 0.63048(7)
H2 H 0.5654 0.7414 0.6508
C3 C 0.55466(13) 0.5558(2) 0.60876(7)
H3 H 0.6138 0.5216 0.6140
C4 C 0.49692(11) 0.47217(19) 0.57930(6)
C5 C 0.52626(11) 0.33079(19) 0.55626(5)
H4 H 0.5115 0.3223 0.5236
C6 C 0.57087(10) 0.21207(18) 0.57469(5)
C7 C 0.56043(10) 0.25882(17) 0.66531(5)
C8 C 0.46610(10) 0.24847(17) 0.67552(5)
C9 C 0.43149(11) 0.33147(18) 0.71555(5)
C10 C 0.33733(12) 0.3216(2) 0.72466(6)
H5 H 0.3115 0.3768 0.7499
C11 C 0.28467(12) 0.2316(2) 0.69653(7)
H6 H 0.2224 0.2241 0.7020
C12 C 0.38284(16) 0.6645(3) 0.59216(8)
H7 H 0.3246 0.7015 0.5863
C13 C 0.41056(13) 0.5310(2) 0.57046(7)
H8 H 0.3712 0.4799 0.5497
C14 C 0.64804(10) 0.05203(19) 0.62771(6)
C15 C 0.65713(9) -0.00871(19) 0.57836(5)
C16 C 0.60875(9) 0.08410(18) 0.54724(5)
C17 C 0.60498(11) 0.0498(2) 0.49818(6)
H9 H 0.5734 0.1117 0.4767
C18 C 0.64959(12) -0.0791(2) 0.48239(7)
H10 H 0.6470 -0.1049 0.4498
C19 C 0.69788(12) -0.1706(2) 0.51373(7)
H11 H 0.7276 -0.2563 0.5019
C20 C 0.70261(11) -0.1366(2) 0.56222(7)
H12 H 0.7354 -0.1976 0.5835
C21 C 0.32592(11) 0.1501(2) 0.65909(6)
H13 H 0.2891 0.0861 0.6408
C22 C 0.49180(13) 0.4154(2) 0.74463(6)
H14 H 0.4693 0.4710 0.7706
C23 C 0.58211(14) 0.4163(2) 0.73525(6)
H15 H 0.6214 0.4695 0.7555
C24 C 0.61709(11) 0.33760(19) 0.69514(6)
H16 H 0.6793 0.3393 0.6889
loop_
_geom_bond_atom_site_label_1
_geom_bond_atom_site_label_2
_geom_bond_site_symmetry_1
_geom_bond_site_symmetry_2
O1 C14 1_555 1_555
N1 C6 1_555 1_555
N2 C8 1_555 1_555
C1 H1 1_555 1_555
C2 C1 1_555 1_555
H2 C2 1_555 1_555
C3 C2 1_555 1_555
H3 C3 1_555 1_555
C4 C3 1_555 1_555
C5 C4 1_555 1_555
H4 C5 1_555 1_555
C6 C5 1_555 1_555
C7 N1 1_555 1_555
C8 C7 1_555 1_555
C9 C8 1_555 1_555
C10 C9 1_555 1_555
H5 C10 1_555 1_555
C11 C10 1_555 1_555
H6 C11 1_555 1_555
C12 C1 1_555 1_555
H7 C12 1_555 1_555
C13 C4 1_555 1_555
H8 C13 1_555 1_555
C14 N1 1_555 1_555
C15 C14 1_555 1_555
C16 C6 1_555 1_555
C17 C16 1_555 1_555
H9 C17 1_555 1_555
C18 C17 1_555 1_555
H10 C18 1_555 1_555
C19 C18 1_555 1_555
H11 C19 1_555 1_555
C20 C15 1_555 1_555
H12 C20 1_555 1_555
C21 N2 1_555 1_555
H13 C21 1_555 1_555
C22 C9 1_555 1_555
H14 C22 1_555 1_555
C23 C22 1_555 1_555
H15 C23 1_555 1_555
C24 C7 1_555 1_555
H16 C24 1_555 1_555
C11 C21 1_555 1_555
C12 C13 1_555 1_555
C15 C16 1_555 1_555
C19 C20 1_555 1_555
C23 C24 1_555 1_555

#END
