
#######################################################################
#
#                 Cambridge Crystallographic Data Centre
#                                CCDC 
#
#######################################################################
#
# If this CIF has been generated from an entry in the Cambridge 
# Structural Database, then it will include bibliographic, chemical, 
# crystal, experimental, refinement or atomic coordinate data resulting 
# from the CCDC's data processing and validation procedures.
#
#######################################################################

data_SOVCUB
_chemical_formula_moiety         'C20 H30 O9'
_chemical_name_systematic        
(4R,5R,6R,7R,8S,9R,10R)-(+)-6,7:8,9:10,11-Tri-O-isopropylidene-2,3-dideoxy-D-arabino-L-allo-undec-2-enono-1,4-lactone
_symmetry_cell_setting           orthorhombic
_symmetry_space_group_name_H-M   'P 21 21 21'
_symmetry_Int_Tables_number      19
_space_group_name_Hall           'P 2ac 2ab'
loop_
_symmetry_equiv_pos_site_id
_symmetry_equiv_pos_as_xyz
1 x,y,z
2 1/2+x,1/2-y,-z
3 -x,1/2+y,1/2-z
4 1/2-x,-y,1/2+z
_cell_length_a                   15.581(3)
_cell_length_b                   14.047(2)
_cell_length_c                   9.888(2)
_cell_angle_alpha                90
_cell_angle_beta                 90
_cell_angle_gamma                90
_cell_volume                     2164.15
_exptl_crystal_colour            colorless
_chemical_melting_point          110-112deg.C
_cell_formula_units_Z            4
loop_
_atom_site_label
_atom_site_type_symbol
_atom_site_fract_x
_atom_site_fract_y
_atom_site_fract_z
O1 O 0.8833(3) 1.0773(3) -0.1246(5)
O2 O 0.8192(2) 0.9340(2) -0.1182(4)
O3 O 0.8670(2) 0.8139(2) 0.1012(4)
O4 O 0.6568(2) 0.7184(2) 0.0143(4)
O5 O 0.6715(2) 0.5930(2) 0.1614(3)
O6 O 0.8939(2) 0.6212(2) 0.0540(4)
O7 O 0.9164(2) 0.4755(2) 0.1459(4)
O8 O 0.7173(2) 0.3881(2) -0.0084(4)
O9 O 0.7540(3) 0.2735(2) 0.1470(4)
C1 C 0.8360(4) 1.0230(4) -0.0657(7)
C2 C 0.7859(4) 1.0354(4) 0.0590(7)
C3 C 0.7402(4) 0.9577(4) 0.0779(6)
C4 C 0.7581(3) 0.8871(3) -0.0310(5)
C5 C 0.7957(3) 0.7928(3) 0.0179(5)
C6 C 0.7296(3) 0.7380(3) 0.0993(5)
C7 C 0.7538(3) 0.6371(3) 0.1505(5)
C8 C 0.8102(3) 0.5774(3) 0.0569(5)
C9 C 0.8268(3) 0.4768(3) 0.1127(5)
C10 C 0.8083(3) 0.3954(3) 0.0160(5)
C11 C 0.8302(4) 0.2986(4) 0.0788(7)
C12 C 0.6834(4) 0.3094(4) 0.0698(6)
C13 C 0.6174(4) 0.3467(5) 0.1689(8)
C14 C 0.6492(5) 0.2350(4) -0.0257(7)
C15 C 0.9594(3) 0.5541(3) 0.0858(6)
C16 C 1.0034(4) 0.5262(5) -0.0440(7)
C17 C 1.0208(4) 0.5960(5) 0.1913(8)
C18 C 0.6091(3) 0.6435(3) 0.0790(5)
C19 C 0.5728(3) 0.5790(4) -0.0273(6)
C20 C 0.5415(3) 0.6861(4) 0.1717(7)
H1 H 0.8906 0.7672 0.1012
H2 H 0.7803 1.0980 0.1313
H3 H 0.6994 0.9475 0.1571
H4 H 0.6934 0.8719 -0.1043
H5 H 0.8213 0.7636 -0.0645
H6 H 0.7137 0.7868 0.1844
H7 H 0.7767 0.6326 0.2470
H8 H 0.7923 0.5759 -0.0422
H9 H 0.7901 0.4698 0.2201
H10 H 0.8365 0.4031 -0.0894
H11 H 0.8855 0.2983 0.1304
H12 H 0.8421 0.2656 0.0144
H13 H 0.6027 0.2939 0.2370
H14 H 0.5588 0.3769 0.1028
H15 H 0.6413 0.4240 0.2241
H16 H 0.6233 0.1755 0.0322
H17 H 0.7003 0.2095 -0.0894
H18 H 0.5988 0.2650 -0.0869
H19 H 1.0432 0.5685 -0.0930
H20 H 1.0474 0.4777 -0.0223
H21 H 0.9694 0.4798 -0.1378
H22 H 0.9850 0.6187 0.2845
H23 H 1.0729 0.5526 0.1943
H24 H 1.0557 0.6554 0.1373
H25 H 0.5395 0.5304 0.0107
H26 H 0.5337 0.5942 -0.0861
H27 H 0.6344 0.5596 -0.0885
H28 H 0.4884 0.7089 0.1236
H29 H 0.5138 0.6416 0.2295
H30 H 0.5550 0.7280 0.2207
loop_
_geom_bond_atom_site_label_1
_geom_bond_atom_site_label_2
_geom_bond_site_symmetry_1
_geom_bond_site_symmetry_2
O1 C1 1_555 1_555
O2 C1 1_555 1_555
O3 C5 1_555 1_555
O4 C6 1_555 1_555
O5 C7 1_555 1_555
O6 C8 1_555 1_555
O7 C9 1_555 1_555
O8 C10 1_555 1_555
O9 C11 1_555 1_555
C1 C2 1_555 1_555
C2 C3 1_555 1_555
C3 C4 1_555 1_555
C4 O2 1_555 1_555
C5 C4 1_555 1_555
C6 C5 1_555 1_555
C7 C6 1_555 1_555
C8 C7 1_555 1_555
C9 C8 1_555 1_555
C10 C9 1_555 1_555
C11 C10 1_555 1_555
C12 O8 1_555 1_555
C13 C12 1_555 1_555
C14 C12 1_555 1_555
C15 O6 1_555 1_555
C16 C15 1_555 1_555
C17 C15 1_555 1_555
C18 O4 1_555 1_555
C19 C18 1_555 1_555
C20 C18 1_555 1_555
H1 O3 1_555 1_555
H2 C2 1_555 1_555
H3 C3 1_555 1_555
H4 C4 1_555 1_555
H5 C5 1_555 1_555
H6 C6 1_555 1_555
H7 C7 1_555 1_555
H8 C8 1_555 1_555
H9 C9 1_555 1_555
H10 C10 1_555 1_555
H11 C11 1_555 1_555
H12 C11 1_555 1_555
H13 C13 1_555 1_555
H14 C13 1_555 1_555
H15 C13 1_555 1_555
H16 C14 1_555 1_555
H17 C14 1_555 1_555
H18 C14 1_555 1_555
H19 C16 1_555 1_555
H20 C16 1_555 1_555
H21 C16 1_555 1_555
H22 C17 1_555 1_555
H23 C17 1_555 1_555
H24 C17 1_555 1_555
H25 C19 1_555 1_555
H26 C19 1_555 1_555
H27 C19 1_555 1_555
H28 C20 1_555 1_555
H29 C20 1_555 1_555
H30 C20 1_555 1_555
O5 C18 1_555 1_555
O7 C15 1_555 1_555
O9 C12 1_555 1_555

#END
