
#######################################################################
#
#                 Cambridge Crystallographic Data Centre
#                                CCDC 
#
#######################################################################
#
# If this CIF has been generated from an entry in the Cambridge 
# Structural Database, then it will include bibliographic, chemical, 
# crystal, experimental, refinement or atomic coordinate data resulting 
# from the CCDC's data processing and validation procedures.
#
#######################################################################

data_SOVDUE
_chemical_formula_moiety         'C43 H32 F6 O6,0.25(C1 H2 Cl2)'
_chemical_name_systematic        
"t-Butyl 2-(1,1'',3,3''-tetraoxo-2',6'-bis(3-(trifluoromethyl)phenyl)-1,1'',3,3''-tetrahydrodispiro[indene-2,1'-cyclohexane-3',2''-inden]-4'-yl)acrylate dichloromethane solvate"
_symmetry_cell_setting           monoclinic
_symmetry_space_group_name_H-M   'P 21/c'
_symmetry_Int_Tables_number      14
_space_group_name_Hall           '-P 2ybc'
loop_
_symmetry_equiv_pos_site_id
_symmetry_equiv_pos_as_xyz
1 x,y,z
2 -x,1/2+y,1/2-z
3 -x,-y,-z
4 x,1/2-y,1/2+z
_cell_length_a                   12.174(2)
_cell_length_b                   21.206(4)
_cell_length_c                   14.570(3)
_cell_angle_alpha                90
_cell_angle_beta                 92.65(3)
_cell_angle_gamma                90
_cell_volume                     3757.4
_cell_formula_units_Z            4
loop_
_atom_site_label
_atom_site_type_symbol
_atom_site_fract_x
_atom_site_fract_y
_atom_site_fract_z
Cl1 Cl 0.5000 1.0000 0.5000
Cl2 Cl 0.6221(3) 1.00715(17) 0.6705(3)
C44 C 0.6247(15) 0.9863(10) 0.5545(14)
H33 H 0.6819 1.0111 0.5246
H34 H 0.6436 0.9411 0.5492
Cl2B Cl 0.3779(3) 0.99285(17) 0.3295(3)
C44B C 0.3753(15) 1.0137(10) 0.4455(14)
H33B H 0.3181 0.9889 0.4754
H34B H 0.3564 1.0589 0.4508
F1 F 0.65061(12) 0.19175(6) 1.31821(12)
F2 F 0.52970(11) 0.11958(7) 1.30923(12)
F3 F 0.65064(14) 0.11911(8) 1.41967(11)
F4 F 0.9120(7) 0.0747(3) 0.5052(4)
F5 F 0.9797(5) 0.0142(3) 0.6155(7)
F6 F 0.8153(4) 0.0098(2) 0.5669(4)
O1 O 0.71508(12) 0.19469(7) 1.01328(12)
O2 O 0.87151(14) -0.00088(7) 0.93253(12)
O3 O 0.87935(13) 0.27956(7) 0.94816(12)
O4 O 1.15071(13) 0.13908(7) 0.85264(12)
O5 O 1.27945(13) 0.18801(9) 1.02567(14)
O6 O 1.29275(13) 0.28197(8) 1.09724(13)
C1 C 0.90127(17) 0.10406(10) 1.07490(15)
H1 H 0.9633 0.0736 1.0689
C2 C 0.83033(17) 0.07739(10) 1.14890(16)
C3 C 0.83391(19) 0.01355(11) 1.16852(17)
H2 H 0.8762 -0.0135 1.1321
C4 C 0.7772(2) -0.01176(11) 1.23998(18)
H3 H 0.7818 -0.0557 1.2525
C5 C 0.71449(19) 0.02629(11) 1.29292(18)
H4 H 0.6760 0.0090 1.3423
C6 C 0.70787(17) 0.09015(11) 1.27350(16)
C7 C 0.76571(17) 0.11580(10) 1.20258(16)
H5 H 0.7613 0.1598 1.1905
C8 C 0.63655(19) 0.13002(11) 1.32950(18)
C9 C 0.84302(16) 0.10888(10) 0.97807(15)
C10 C 0.73161(17) 0.14313(11) 0.98069(15)
C11 C 0.64480(18) 0.10015(12) 0.94332(17)
C12 C 0.53277(19) 0.11195(14) 0.9297(2)
H6 H 0.5028 0.1522 0.9427
C13 C 0.4667(2) 0.06343(17) 0.8969(2)
H7 H 0.3901 0.0704 0.8865
C14 C 0.5108(3) 0.00394(17) 0.8785(2)
H8 H 0.4635 -0.0289 0.8567
C15 C 0.6217(2) -0.00752(14) 0.8917(2)
H9 H 0.6518 -0.0477 0.8789
C16 C 0.68842(19) 0.04177(12) 0.92428(17)
C17 C 0.80838(19) 0.04255(11) 0.94339(16)
C18 C 0.92875(17) 0.13278(10) 0.90895(15)
H10 H 0.9810 0.0966 0.9051
C19 C 0.87993(17) 0.13856(10) 0.81123(15)
C20 C 0.80418(17) 0.18517(10) 0.78410(16)
H11 H 0.7800 0.2145 0.8282
C21 C 0.76391(18) 0.18929(11) 0.69407(17)
H12 H 0.7135 0.2219 0.6769
C22 C 0.7956(2) 0.14702(11) 0.62893(17)
H13 H 0.7674 0.1500 0.5672
C23 C 0.8699(2) 0.09969(11) 0.65513(17)
C24 C 0.91138(19) 0.09591(10) 0.74518(16)
H14 H 0.9623 0.0635 0.7620
C25 C 0.9080(3) 0.05497(14) 0.5856(2)
C26 C 1.00453(17) 0.18896(10) 0.93747(15)
C27 C 0.96382(18) 0.25698(10) 0.92172(15)
C28 C 1.04813(19) 0.29187(11) 0.87217(16)
C29 C 1.0520(2) 0.35602(11) 0.84970(18)
H15 H 0.9945 0.3839 0.8649
C30 C 1.1414(3) 0.37712(13) 0.8051(2)
H16 H 1.1457 0.4204 0.7887
C31 C 1.2263(3) 0.33658(14) 0.7834(2)
H17 H 1.2880 0.3529 0.7535
C32 C 1.2224(2) 0.27346(12) 0.80423(19)
H18 H 1.2800 0.2458 0.7887
C33 C 1.13210(19) 0.25160(11) 0.84847(16)
C34 C 1.10512(18) 0.18644(11) 0.87620(16)
C35 C 1.04885(17) 0.18163(10) 1.04001(16)
H19 H 1.0983 0.1439 1.0423
C36 C 1.11701(17) 0.23710(11) 1.07522(16)
C37 C 1.07657(19) 0.28591(12) 1.11834(18)
H20 H 1.1243 0.3182 1.1415
H21 H 0.9997 0.2888 1.1263
C38 C 1.23800(18) 0.23243(12) 1.06256(17)
C39 C 1.4143(2) 0.28628(14) 1.0927(2)
C40 C 1.4433(3) 0.29054(16) 0.9929(3)
H22 H 1.4187 0.2522 0.9605
H23 H 1.5231 0.2949 0.9893
H24 H 1.4068 0.3273 0.9644
C41 C 1.4384(3) 0.34654(18) 1.1449(4)
H25 H 1.4035 0.3820 1.1118
H26 H 1.5181 0.3533 1.1503
H27 H 1.4093 0.3434 1.2063
C42 C 1.4683(2) 0.23070(16) 1.1409(2)
H28 H 1.4484 0.2302 1.2053
H29 H 1.5483 0.2342 1.1379
H30 H 1.4432 0.1916 1.1108
C43 C 0.95392(16) 0.16708(10) 1.10142(15)
H31 H 0.9815 0.1656 1.1664
H32 H 0.8981 0.2010 1.0952
F7? F 1.0176(3) 0.07725(17) 0.5566(3)
F8? F 0.9361(6) 0.0013(3) 0.6139(6)
F9? F 0.8573(5) 0.0567(4) 0.5075(4)
loop_
_geom_bond_atom_site_label_1
_geom_bond_atom_site_label_2
_geom_bond_site_symmetry_1
_geom_bond_site_symmetry_2
F1 C8 1_555 1_555
F2 C8 1_555 1_555
F3 C8 1_555 1_555
F4 C25 1_555 1_555
F5 C25 1_555 1_555
F6 C25 1_555 1_555
O1 C10 1_555 1_555
O2 C17 1_555 1_555
O3 C27 1_555 1_555
O4 C34 1_555 1_555
O5 C38 1_555 1_555
O6 C38 1_555 1_555
C1 H1 1_555 1_555
C2 C1 1_555 1_555
C3 C2 1_555 1_555
H2 C3 1_555 1_555
C4 C3 1_555 1_555
H3 C4 1_555 1_555
C5 C4 1_555 1_555
H4 C5 1_555 1_555
C6 C5 1_555 1_555
C7 C2 1_555 1_555
H5 C7 1_555 1_555
C8 C6 1_555 1_555
C9 C1 1_555 1_555
C10 C9 1_555 1_555
C11 C10 1_555 1_555
C12 C11 1_555 1_555
H6 C12 1_555 1_555
C13 C12 1_555 1_555
H7 C13 1_555 1_555
C14 C13 1_555 1_555
H8 C14 1_555 1_555
C15 C14 1_555 1_555
H9 C15 1_555 1_555
C16 C11 1_555 1_555
C17 C9 1_555 1_555
C18 C9 1_555 1_555
H10 C18 1_555 1_555
C19 C18 1_555 1_555
C20 C19 1_555 1_555
H11 C20 1_555 1_555
C21 C20 1_555 1_555
H12 C21 1_555 1_555
C22 C21 1_555 1_555
H13 C22 1_555 1_555
C23 C22 1_555 1_555
C24 C19 1_555 1_555
H14 C24 1_555 1_555
C25 C23 1_555 1_555
C26 C18 1_555 1_555
C27 C26 1_555 1_555
C28 C27 1_555 1_555
C29 C28 1_555 1_555
H15 C29 1_555 1_555
C30 C29 1_555 1_555
H16 C30 1_555 1_555
C31 C30 1_555 1_555
H17 C31 1_555 1_555
C32 C31 1_555 1_555
H18 C32 1_555 1_555
C33 C28 1_555 1_555
C34 C26 1_555 1_555
C35 C26 1_555 1_555
H19 C35 1_555 1_555
C36 C35 1_555 1_555
C37 C36 1_555 1_555
H20 C37 1_555 1_555
H21 C37 1_555 1_555
C38 C36 1_555 1_555
C39 O6 1_555 1_555
C40 C39 1_555 1_555
H22 C40 1_555 1_555
H23 C40 1_555 1_555
H24 C40 1_555 1_555
C41 C39 1_555 1_555
H25 C41 1_555 1_555
H26 C41 1_555 1_555
H27 C41 1_555 1_555
C42 C39 1_555 1_555
H28 C42 1_555 1_555
H29 C42 1_555 1_555
H30 C42 1_555 1_555
C43 C1 1_555 1_555
H31 C43 1_555 1_555
H32 C43 1_555 1_555
Cl1 C44 1_555 1_555
Cl2 C44 1_555 1_555
C44 H33 1_555 1_555
H34 C44 1_555 1_555
Cl2B C44B 1_555 1_555
C44B Cl1 1_555 1_555
H33B C44B 1_555 1_555
H34B C44B 1_555 1_555
C6 C7 1_555 1_555
C15 C16 1_555 1_555
C16 C17 1_555 1_555
C23 C24 1_555 1_555
C32 C33 1_555 1_555
C33 C34 1_555 1_555
C35 C43 1_555 1_555

#END
