
#######################################################################
#
#                 Cambridge Crystallographic Data Centre
#                                CCDC 
#
#######################################################################
#
# If this CIF has been generated from an entry in the Cambridge 
# Structural Database, then it will include bibliographic, chemical, 
# crystal, experimental, refinement or atomic coordinate data resulting 
# from the CCDC's data processing and validation procedures.
#
#######################################################################

data_SOVFOA
_chemical_formula_moiety         'C5 H12 N1 O2 1+,C2 Cl1 F2 O2 1-'
_chemical_name_systematic        'Betainium chloro(difluoro)acetate'
_symmetry_cell_setting           monoclinic
_symmetry_space_group_name_H-M   'P 21/c'
_symmetry_Int_Tables_number      14
_space_group_name_Hall           '-P 2ybc'
loop_
_symmetry_equiv_pos_site_id
_symmetry_equiv_pos_as_xyz
1 x,y,z
2 -x,1/2+y,1/2-z
3 -x,-y,-z
4 x,1/2-y,1/2+z
_cell_length_a                   5.8555(5)
_cell_length_b                   7.4803(6)
_cell_length_c                   24.756(2)
_cell_angle_alpha                90
_cell_angle_beta                 97.081(8)
_cell_angle_gamma                90
_cell_volume                     1076.06
_exptl_crystal_colour            colorless
_exptl_crystal_description       plate
_cell_formula_units_Z            4
_exptl_crystal_recrystallization_method water/ethanol
loop_
_atom_site_label
_atom_site_type_symbol
_atom_site_fract_x
_atom_site_fract_y
_atom_site_fract_z
O1 O 0.3114(3) 0.2025(3) 0.23026(8)
O2 O -0.0647(3) 0.1984(3) 0.23889(8)
N1 N 0.4235(4) 0.1960(3) 0.34738(10)
C1 C 0.1556(5) 0.1966(4) 0.25785(13)
C2 C 0.1809(5) 0.1869(4) 0.31959(12)
H1 H 0.0923 0.2865 0.3332
H2 H 0.1108 0.0738 0.3302
C3 C 0.5648(5) 0.0409(4) 0.33120(13)
H3 H 0.4844 -0.0713 0.3367
H4 H 0.7149 0.0409 0.3536
H5 H 0.5869 0.0524 0.2928
C4 C 0.4115(5) 0.1849(4) 0.40769(12)
H6 H 0.3177 0.2837 0.4188
H7 H 0.5672 0.1931 0.4273
H8 H 0.3419 0.0709 0.4162
C5 C 0.5356(5) 0.3690(4) 0.33498(13)
H9 H 0.5592 0.3715 0.2965
H10 H 0.6845 0.3795 0.3576
H11 H 0.4364 0.4689 0.3427
H12 H -0.1107 0.2045 0.2022
Cl1 Cl 0.33058(14) 0.19738(12) 0.04735(4)
F1 F -0.0912(3) 0.2048(3) 0.00861(7)
F2 F 0.0337(3) 0.4385(2) 0.05450(7)
O3 O -0.0385(3) 0.0093(3) 0.10665(8)
O4 O -0.1035(4) 0.2848(3) 0.13856(9)
C6 C -0.0411(5) 0.1742(4) 0.10518(12)
C7 C 0.0420(6) 0.2582(4) 0.05404(13)
loop_
_geom_bond_atom_site_label_1
_geom_bond_atom_site_label_2
_geom_bond_site_symmetry_1
_geom_bond_site_symmetry_2
O1 C1 1_555 1_555
O2 C1 1_555 1_555
N1 C2 1_555 1_555
C1 C2 1_555 1_555
C2 H1 1_555 1_555
H2 C2 1_555 1_555
C3 N1 1_555 1_555
H3 C3 1_555 1_555
H4 C3 1_555 1_555
H5 C3 1_555 1_555
C4 N1 1_555 1_555
H6 C4 1_555 1_555
H7 C4 1_555 1_555
H8 C4 1_555 1_555
C5 N1 1_555 1_555
H9 C5 1_555 1_555
H10 C5 1_555 1_555
H11 C5 1_555 1_555
H12 O2 1_555 1_555
Cl1 C7 1_555 1_555
F1 C7 1_555 1_555
F2 C7 1_555 1_555
O3 C6 1_555 1_555
O4 C6 1_555 1_555
C6 C7 1_555 1_555

#END
