
#######################################################################
#
#                 Cambridge Crystallographic Data Centre
#                                CCDC 
#
#######################################################################
#
# If this CIF has been generated from an entry in the Cambridge 
# Structural Database, then it will include bibliographic, chemical, 
# crystal, experimental, refinement or atomic coordinate data resulting 
# from the CCDC's data processing and validation procedures.
#
#######################################################################

data_SOVJAQ
_chemical_formula_moiety         'C25 H25 Br1 N4 O4'
_chemical_name_systematic        
't-Butyl (5-bromo-1-methyl-2-oxo-3-(2-oxo-1-phenyl-2-(1H-pyrazol-1-yl)ethyl)-2,3-dihydro-1H-indol-3-yl)carbamate'
_symmetry_cell_setting           monoclinic
_symmetry_space_group_name_H-M   'C 2'
_symmetry_Int_Tables_number      5
_space_group_name_Hall           'C 2y'
loop_
_symmetry_equiv_pos_site_id
_symmetry_equiv_pos_as_xyz
1 x,y,z
2 -x,y,-z
3 1/2+x,1/2+y,z
4 1/2-x,1/2+y,-z
_cell_length_a                   41.527(6)
_cell_length_b                   11.0922(17)
_cell_length_c                   26.113(4)
_cell_angle_alpha                90
_cell_angle_beta                 123.323(3)
_cell_angle_gamma                90
_cell_volume                     10050.7
_exptl_crystal_colour            colorless
_exptl_crystal_description       prismatic
_cell_formula_units_Z            16
loop_
_atom_site_label
_atom_site_type_symbol
_atom_site_fract_x
_atom_site_fract_y
_atom_site_fract_z
Br1 Br 0.58959(2) 0.59378(8) -0.10805(4)
N1 N 0.65294(13) 1.0416(4) 0.0430(2)
N2 N 0.67224(13) 0.8579(4) 0.2083(2)
N3 N 0.70816(14) 0.8492(5) 0.2585(2)
N4 N 0.72756(12) 0.8439(4) 0.0875(2)
H1 H 0.7435 0.7913 0.1130
O1 O 0.71256(11) 1.0740(4) 0.13038(17)
O2 O 0.63180(12) 0.8556(4) 0.10676(18)
O3 O 0.71559(14) 0.9795(5) 0.0154(2)
O4 O 0.76772(13) 0.8575(4) 0.0571(2)
C1 C 0.68855(17) 1.0090(6) 0.0901(3)
C2 C 0.69321(14) 0.8704(5) 0.0861(2)
C3 C 0.65617(15) 0.8414(5) 0.0255(2)
C4 C 0.63397(16) 0.9446(5) 0.0037(2)
C5 C 0.59752(16) 0.9436(6) -0.0496(2)
H2 H 0.5821 1.0121 -0.0634
C6 C 0.58508(18) 0.8355(7) -0.0817(3)
H3 H 0.5609 0.8311 -0.1180
C7 C 0.60766(18) 0.7374(6) -0.0608(3)
C8 C 0.64395(16) 0.7365(6) -0.0070(2)
H4 H 0.6592 0.6677 0.0063
C9 C 0.63905(17) 1.1643(6) 0.0332(3)
H5 H 0.6583 1.2146 0.0656
H6 H 0.6159 1.1672 0.0330
H7 H 0.6338 1.1927 -0.0054
C10 C 0.69826(15) 0.8137(5) 0.1443(2)
H8 H 0.7212 0.8506 0.1797
C11 C 0.66462(18) 0.8445(5) 0.1492(3)
C12 C 0.64601(18) 0.8896(5) 0.2218(3)
H9 H 0.6197 0.9013 0.1941
C13 C 0.6653(2) 0.9006(6) 0.2823(3)
H10 H 0.6554 0.9218 0.3055
C14 C 0.7027(2) 0.8746(7) 0.3035(3)
H11 H 0.7224 0.8744 0.3448
C15 C 0.70468(18) 0.6780(6) 0.1502(3)
C16 C 0.7416(2) 0.6328(7) 0.1842(3)
H12 H 0.7625 0.6851 0.2050
C17 C 0.7477(3) 0.5084(9) 0.1873(4)
H13 H 0.7727 0.4780 0.2093
C18 C 0.7171(3) 0.4314(8) 0.1582(4)
H14 H 0.7212 0.3486 0.1607
C19 C 0.6805(3) 0.4757(8) 0.1257(4)
H15 H 0.6598 0.4226 0.1063
C20 C 0.6738(2) 0.5977(7) 0.1210(3)
H16 H 0.6487 0.6268 0.0984
C21 C 0.73522(19) 0.9000(7) 0.0494(3)
C22 C 0.7808(4) 0.8983(11) 0.0188(6)
C23 C 0.8179(3) 0.8291(10) 0.0450(5)
H17 H 0.8307 0.8229 0.0887
H18 H 0.8344 0.8706 0.0356
H19 H 0.8124 0.7498 0.0275
C24 C 0.7894(3) 1.0269(10) 0.0267(6)
H20 H 0.7703 1.0692 -0.0095
H21 H 0.8144 1.0402 0.0337
H22 H 0.7893 1.0560 0.0612
C25 C 0.7504(4) 0.8588(12) -0.0467(6)
H23 H 0.7494 0.7724 -0.0489
H24 H 0.7571 0.8895 -0.0741
H25 H 0.7257 0.8898 -0.0584
Br2 Br 0.91285(3) 0.57545(9) 0.64488(4)
N5 N 0.87617(13) 1.0478(5) 0.5134(2)
N6 N 0.86452(15) 0.8686(5) 0.3406(3)
N7 N 0.82980(17) 0.8482(5) 0.2873(3)
N8 N 0.79663(12) 0.8686(4) 0.44102(19)
H26 H 0.7816 0.8173 0.4133
O5 O 0.82759(11) 1.0955(4) 0.41525(18)
O6 O 0.90041(12) 0.8895(5) 0.4430(2)
O7 O 0.79945(11) 1.0155(4) 0.5033(2)
O8 O 0.74994(11) 0.8820(4) 0.45703(17)
C26 C 0.84408(16) 1.0239(6) 0.4570(3)
C27 C 0.83527(15) 0.8873(6) 0.4540(2)
C28 C 0.86665(15) 0.8462(6) 0.5173(2)
C29 C 0.88913(15) 0.9446(6) 0.5493(3)
C30 C 0.92024(16) 0.9335(6) 0.6098(2)
H27 H 0.9359 0.9989 0.6316
C31 C 0.92658(18) 0.8211(7) 0.6358(3)
H28 H 0.9474 0.8106 0.6760
C32 C 0.90409(18) 0.7254(6) 0.6056(3)
C33 C 0.87225(16) 0.7365(6) 0.5444(2)
H29 H 0.8559 0.6719 0.5236
C34 C 0.89080(19) 1.1668(7) 0.5339(3)
H30 H 0.8842 1.2163 0.4993
H31 H 0.9183 1.1636 0.5615
H32 H 0.8797 1.2003 0.5548
C35 C 0.83384(16) 0.8320(6) 0.3973(3)
H33 H 0.8116 0.8676 0.3604
C36 C 0.86971(18) 0.8672(6) 0.3983(3)
C37 C 0.8922(2) 0.9000(6) 0.3293(4)
H34 H 0.9179 0.9182 0.3584
C38 C 0.8749(2) 0.8992(7) 0.2686(3)
H35 H 0.8860 0.9158 0.2467
C39 C 0.8369(2) 0.8685(7) 0.2451(4)
H36 H 0.8183 0.8628 0.2033
C40 C 0.82850(18) 0.6974(6) 0.3917(3)
C41 C 0.79119(18) 0.6519(7) 0.3534(3)
H37 H 0.7704 0.7038 0.3306
C42 C 0.7856(2) 0.5270(7) 0.3498(3)
H38 H 0.7607 0.4961 0.3256
C43 C 0.8158(2) 0.4499(8) 0.3813(3)
H39 H 0.8116 0.3671 0.3778
C44 C 0.8517(2) 0.4936(7) 0.4174(4)
H40 H 0.8722 0.4402 0.4389
C45 C 0.85895(19) 0.6165(6) 0.4235(3)
H41 H 0.8841 0.6449 0.4488
C46 C 0.78361(18) 0.9297(6) 0.4714(3)
C47 C 0.73009(19) 0.9257(6) 0.4869(3)
C48 C 0.7566(2) 0.9137(8) 0.5549(3)
H42 H 0.7692 0.8367 0.5647
H43 H 0.7421 0.9202 0.5733
H44 H 0.7756 0.9766 0.5703
C49 C 0.7162(2) 1.0541(7) 0.4652(3)
H45 H 0.7379 1.1076 0.4833
H46 H 0.6991 1.0779 0.4773
H47 H 0.7028 1.0575 0.4214
C50 C 0.69619(19) 0.8427(7) 0.4611(3)
H48 H 0.6813 0.8474 0.4171
H49 H 0.6805 0.8660 0.4759
H50 H 0.7051 0.7615 0.4736
Br3 Br 0.94237(2) 1.15117(9) 0.96274(4)
N9 N 0.94434(12) 0.6232(5) 0.9140(2)
N10 N 0.81629(13) 0.6849(4) 0.7429(2)
N11 N 0.80515(15) 0.6891(5) 0.6833(2)
N12 N 0.94607(13) 0.7771(4) 0.8014(2)
H51 H 0.9355 0.8217 0.7692
O9 O 0.92788(12) 0.5292(4) 0.8245(2)
O10 O 0.86207(11) 0.6942(4) 0.84326(18)
O11 O 1.00108(11) 0.6801(4) 0.87288(18)
O12 O 0.99443(10) 0.7675(4) 0.78931(16)
C51 C 0.93272(15) 0.6186(6) 0.8539(3)
C52 C 0.92422(15) 0.7469(5) 0.8289(2)
C53 C 0.93481(14) 0.8214(6) 0.8845(2)
C54 C 0.94538(15) 0.7420(7) 0.9322(3)
C55 C 0.95530(17) 0.7854(9) 0.9895(3)
H52 H 0.9624 0.7329 1.0218
C56 C 0.95421(19) 0.9079(9) 0.9966(3)
H53 H 0.9601 0.9380 1.0340
C57 C 0.94500(17) 0.9843(7) 0.9513(3)
C58 C 0.93541(15) 0.9434(6) 0.8945(3)
H54 H 0.9294 0.9978 0.8634
C59 C 0.9486(2) 0.5194(7) 0.9499(3)
H55 H 0.9245 0.5025 0.9455
H56 H 0.9680 0.5349 0.9922
H57 H 0.9561 0.4514 0.9360
C60 C 0.88049(15) 0.7531(5) 0.7737(2)
H58 H 0.8778 0.6971 0.7426
C61 C 0.85375(17) 0.7078(5) 0.7915(3)
C62 C 0.78633(17) 0.6591(7) 0.7484(3)
H59 H 0.7874 0.6511 0.7848
C63 C 0.75500(19) 0.6473(8) 0.6917(3)
H60 H 0.7300 0.6298 0.6802
C64 C 0.76842(19) 0.6676(7) 0.6531(3)
H61 H 0.7526 0.6657 0.6105
C65 C 0.86727(14) 0.8742(5) 0.7428(2)
C66 C 0.86710(15) 0.8976(6) 0.6909(2)
H62 H 0.8758 0.8394 0.6756
C67 C 0.85416(18) 1.0064(7) 0.6617(3)
H63 H 0.8547 1.0226 0.6272
C68 C 0.84031(19) 1.0920(7) 0.6833(3)
H64 H 0.8316 1.1660 0.6636
C69 C 0.83952(18) 1.0678(7) 0.7337(3)
H65 H 0.8296 1.1244 0.7477
C70 C 0.85336(17) 0.9599(6) 0.7640(3)
H66 H 0.8533 0.9447 0.7990
C71 C 0.98235(17) 0.7362(6) 0.8258(3)
C72 C 1.03057(17) 0.7145(7) 0.7988(3)
C73 C 1.02742(18) 0.5808(7) 0.7948(3)
H67 H 1.0239 0.5509 0.8259
H68 H 1.0505 0.5472 0.8007
H69 H 1.0058 0.5579 0.7552
C74 C 1.0314(2) 0.7699(8) 0.7460(3)
H70 H 1.0542 0.7435 0.7483
H71 H 1.0316 0.8562 0.7489
H72 H 1.0090 0.7447 0.7077
C75 C 1.06437(17) 0.7594(7) 0.8600(3)
H73 H 1.0617 0.7318 0.8923
H74 H 1.0648 0.8460 0.8599
H75 H 1.0880 0.7290 0.8664
Br4 Br 0.47426(3) 1.15161(12) 0.55228(5)
N13 N 0.50539(16) 0.6237(7) 0.6035(3)
N14 N 0.64088(14) 0.6924(4) 0.7245(2)
N15 N 0.66035(16) 0.6826(5) 0.7864(2)
N16 N 0.53224(13) 0.7689(4) 0.7368(2)
H76 H 0.5490 0.8050 0.7702
O13 O 0.54324(15) 0.5279(5) 0.6959(3)
O14 O 0.58451(12) 0.7183(4) 0.6338(2)
O15 O 0.47194(12) 0.6907(4) 0.68119(19)
O16 O 0.49786(10) 0.7618(4) 0.77749(17)
C76 C 0.5301(2) 0.6176(7) 0.6654(4)
C77 C 0.54112(16) 0.7457(6) 0.6909(3)
C78 C 0.51647(17) 0.8198(8) 0.6330(3)
C79 C 0.49680(19) 0.7414(9) 0.5844(3)
C80 C 0.4710(2) 0.7858(12) 0.5247(4)
H77 H 0.4584 0.7335 0.4915
C81 C 0.4651(3) 0.9045(14) 0.5170(4)
H78 H 0.4476 0.9346 0.4779
C82 C 0.4840(2) 0.9836(8) 0.5653(4)
C83 C 0.50922(18) 0.9408(8) 0.6244(3)
H79 H 0.5210 0.9936 0.6575
C84 C 0.4899(2) 0.5186(9) 0.5656(4)
H80 H 0.5027 0.5059 0.5446
H81 H 0.4628 0.5298 0.5361
H82 H 0.4937 0.4497 0.5906
C85 C 0.58523(15) 0.7569(5) 0.7258(2)
H83 H 0.5958 0.6990 0.7597
C86 C 0.60187(17) 0.7222(6) 0.6885(3)
C87 C 0.6649(2) 0.6686(8) 0.7043(4)
H84 H 0.6582 0.6683 0.6640
C88 C 0.6997(2) 0.6464(11) 0.7543(4)
H85 H 0.7221 0.6288 0.7560
C89 C 0.6954(2) 0.6547(8) 0.8028(3)
H86 H 0.7154 0.6417 0.8433
C90 C 0.60234(16) 0.8794(6) 0.7549(3)
C91 C 0.6037(2) 0.9718(7) 0.7211(4)
H87 H 0.5927 0.9612 0.6794
C92 C 0.6207(2) 1.0780(8) 0.7476(4)
H88 H 0.6211 1.1394 0.7238
C93 C 0.6372(2) 1.0959(9) 0.8085(5)
H89 H 0.6489 1.1692 0.8263
C94 C 0.6364(2) 1.0052(9) 0.8439(4)
H90 H 0.6470 1.0176 0.8855
C95 C 0.61981(17) 0.8965(7) 0.8173(3)
H91 H 0.6203 0.8338 0.8414
C96 C 0.49763(18) 0.7342(6) 0.7276(3)
C97 C 0.46579(18) 0.7232(6) 0.7828(3)
C98 C 0.4794(2) 0.7657(7) 0.8469(3)
H92 H 0.5030 0.7255 0.8762
H93 H 0.4601 0.7473 0.8552
H94 H 0.4836 0.8512 0.8497
C99 C 0.42971(18) 0.7910(7) 0.7359(3)
H95 H 0.4338 0.8759 0.7439
H96 H 0.4086 0.7654 0.7384
H97 H 0.4239 0.7746 0.6955
C100 C 0.4619(2) 0.5881(7) 0.7774(3)
H98 H 0.4510 0.5648 0.7356
H99 H 0.4454 0.5616 0.7903
H100 H 0.4869 0.5518 0.8030
loop_
_geom_bond_atom_site_label_1
_geom_bond_atom_site_label_2
_geom_bond_site_symmetry_1
_geom_bond_site_symmetry_2
Br1 C7 1_555 1_555
N1 C1 1_555 1_555
N2 N3 1_555 1_555
N3 C14 1_555 1_555
N4 H1 1_555 1_555
O1 C1 1_555 1_555
O2 C11 1_555 1_555
O3 C21 1_555 1_555
O4 C21 1_555 1_555
C1 C2 1_555 1_555
C2 N4 1_555 1_555
C3 C2 1_555 1_555
C4 N1 1_555 1_555
C5 C4 1_555 1_555
H2 C5 1_555 1_555
C6 C5 1_555 1_555
H3 C6 1_555 1_555
C7 C6 1_555 1_555
C8 C3 1_555 1_555
H4 C8 1_555 1_555
C9 N1 1_555 1_555
H5 C9 1_555 1_555
H6 C9 1_555 1_555
H7 C9 1_555 1_555
C10 C2 1_555 1_555
H8 C10 1_555 1_555
C11 N2 1_555 1_555
C12 N2 1_555 1_555
H9 C12 1_555 1_555
C13 C12 1_555 1_555
H10 C13 1_555 1_555
C14 C13 1_555 1_555
H11 C14 1_555 1_555
C15 C10 1_555 1_555
C16 C15 1_555 1_555
H12 C16 1_555 1_555
C17 C16 1_555 1_555
H13 C17 1_555 1_555
C18 C17 1_555 1_555
H14 C18 1_555 1_555
C19 C18 1_555 1_555
H15 C19 1_555 1_555
C20 C15 1_555 1_555
H16 C20 1_555 1_555
C21 N4 1_555 1_555
C22 O4 1_555 1_555
C23 C22 1_555 1_555
H17 C23 1_555 1_555
H18 C23 1_555 1_555
H19 C23 1_555 1_555
C24 C22 1_555 1_555
H20 C24 1_555 1_555
H21 C24 1_555 1_555
H22 C24 1_555 1_555
C25 C22 1_555 1_555
H23 C25 1_555 1_555
H24 C25 1_555 1_555
H25 C25 1_555 1_555
Br2 C32 1_555 1_555
N5 C26 1_555 1_555
N6 N7 1_555 1_555
N7 C39 1_555 1_555
N8 H26 1_555 1_555
O5 C26 1_555 1_555
O6 C36 1_555 1_555
O7 C46 1_555 1_555
O8 C46 1_555 1_555
C26 C27 1_555 1_555
C27 N8 1_555 1_555
C28 C27 1_555 1_555
C29 N5 1_555 1_555
C30 C29 1_555 1_555
H27 C30 1_555 1_555
C31 C30 1_555 1_555
H28 C31 1_555 1_555
C32 C31 1_555 1_555
C33 C28 1_555 1_555
H29 C33 1_555 1_555
C34 N5 1_555 1_555
H30 C34 1_555 1_555
H31 C34 1_555 1_555
H32 C34 1_555 1_555
C35 C27 1_555 1_555
H33 C35 1_555 1_555
C36 N6 1_555 1_555
C37 N6 1_555 1_555
H34 C37 1_555 1_555
C38 C37 1_555 1_555
H35 C38 1_555 1_555
C39 C38 1_555 1_555
H36 C39 1_555 1_555
C40 C35 1_555 1_555
C41 C40 1_555 1_555
H37 C41 1_555 1_555
C42 C41 1_555 1_555
H38 C42 1_555 1_555
C43 C42 1_555 1_555
H39 C43 1_555 1_555
C44 C43 1_555 1_555
H40 C44 1_555 1_555
C45 C40 1_555 1_555
H41 C45 1_555 1_555
C46 N8 1_555 1_555
C47 O8 1_555 1_555
C48 C47 1_555 1_555
H42 C48 1_555 1_555
H43 C48 1_555 1_555
H44 C48 1_555 1_555
C49 C47 1_555 1_555
H45 C49 1_555 1_555
H46 C49 1_555 1_555
H47 C49 1_555 1_555
C50 C47 1_555 1_555
H48 C50 1_555 1_555
H49 C50 1_555 1_555
H50 C50 1_555 1_555
Br3 C57 1_555 1_555
N9 C51 1_555 1_555
N10 N11 1_555 1_555
N11 C64 1_555 1_555
N12 H51 1_555 1_555
O9 C51 1_555 1_555
O10 C61 1_555 1_555
O11 C71 1_555 1_555
O12 C71 1_555 1_555
C51 C52 1_555 1_555
C52 N12 1_555 1_555
C53 C52 1_555 1_555
C54 N9 1_555 1_555
C55 C54 1_555 1_555
H52 C55 1_555 1_555
C56 C55 1_555 1_555
H53 C56 1_555 1_555
C57 C56 1_555 1_555
C58 C53 1_555 1_555
H54 C58 1_555 1_555
C59 N9 1_555 1_555
H55 C59 1_555 1_555
H56 C59 1_555 1_555
H57 C59 1_555 1_555
C60 C52 1_555 1_555
H58 C60 1_555 1_555
C61 N10 1_555 1_555
C62 N10 1_555 1_555
H59 C62 1_555 1_555
C63 C62 1_555 1_555
H60 C63 1_555 1_555
C64 C63 1_555 1_555
H61 C64 1_555 1_555
C65 C60 1_555 1_555
C66 C65 1_555 1_555
H62 C66 1_555 1_555
C67 C66 1_555 1_555
H63 C67 1_555 1_555
C68 C67 1_555 1_555
H64 C68 1_555 1_555
C69 C68 1_555 1_555
H65 C69 1_555 1_555
C70 C65 1_555 1_555
H66 C70 1_555 1_555
C71 N12 1_555 1_555
C72 O12 1_555 1_555
C73 C72 1_555 1_555
H67 C73 1_555 1_555
H68 C73 1_555 1_555
H69 C73 1_555 1_555
C74 C72 1_555 1_555
H70 C74 1_555 1_555
H71 C74 1_555 1_555
H72 C74 1_555 1_555
C75 C72 1_555 1_555
H73 C75 1_555 1_555
H74 C75 1_555 1_555
H75 C75 1_555 1_555
Br4 C82 1_555 1_555
N13 C76 1_555 1_555
N14 N15 1_555 1_555
N15 C89 1_555 1_555
N16 H76 1_555 1_555
O13 C76 1_555 1_555
O14 C86 1_555 1_555
O15 C96 1_555 1_555
O16 C96 1_555 1_555
C76 C77 1_555 1_555
C77 N16 1_555 1_555
C78 C77 1_555 1_555
C79 N13 1_555 1_555
C80 C79 1_555 1_555
H77 C80 1_555 1_555
C81 C80 1_555 1_555
H78 C81 1_555 1_555
C82 C81 1_555 1_555
C83 C78 1_555 1_555
H79 C83 1_555 1_555
C84 N13 1_555 1_555
H80 C84 1_555 1_555
H81 C84 1_555 1_555
H82 C84 1_555 1_555
C85 C77 1_555 1_555
H83 C85 1_555 1_555
C86 N14 1_555 1_555
C87 N14 1_555 1_555
H84 C87 1_555 1_555
C88 C87 1_555 1_555
H85 C88 1_555 1_555
C89 C88 1_555 1_555
H86 C89 1_555 1_555
C90 C85 1_555 1_555
C91 C90 1_555 1_555
H87 C91 1_555 1_555
C92 C91 1_555 1_555
H88 C92 1_555 1_555
C93 C92 1_555 1_555
H89 C93 1_555 1_555
C94 C93 1_555 1_555
H90 C94 1_555 1_555
C95 C90 1_555 1_555
H91 C95 1_555 1_555
C96 N16 1_555 1_555
C97 O16 1_555 1_555
C98 C97 1_555 1_555
H92 C98 1_555 1_555
H93 C98 1_555 1_555
H94 C98 1_555 1_555
C99 C97 1_555 1_555
H95 C99 1_555 1_555
H96 C99 1_555 1_555
H97 C99 1_555 1_555
C100 C97 1_555 1_555
H98 C100 1_555 1_555
H99 C100 1_555 1_555
H100 C100 1_555 1_555
C3 C4 1_555 1_555
C7 C8 1_555 1_555
C10 C11 1_555 1_555
C19 C20 1_555 1_555
C28 C29 1_555 1_555
C32 C33 1_555 1_555
C35 C36 1_555 1_555
C44 C45 1_555 1_555
C53 C54 1_555 1_555
C57 C58 1_555 1_555
C60 C61 1_555 1_555
C69 C70 1_555 1_555
C78 C79 1_555 1_555
C82 C83 1_555 1_555
C85 C86 1_555 1_555
C94 C95 1_555 1_555

#END
