
#######################################################################
#
#                 Cambridge Crystallographic Data Centre
#                                CCDC 
#
#######################################################################
#
# If this CIF has been generated from an entry in the Cambridge 
# Structural Database, then it will include bibliographic, chemical, 
# crystal, experimental, refinement or atomic coordinate data resulting 
# from the CCDC's data processing and validation procedures.
#
#######################################################################

data_SOVJUJ
_chemical_formula_moiety         
'2(C42 H44 N24 O12),C22 H34 N2 2+,2(H3 O1 1+),4(Cl1 1-),44(H2 O1)'
_chemical_name_systematic        
"bis(m-bis(trimethylene)cucurbit(6)uril) N,N'-dihexyl-4,4'-bipyridinium clathrate dioxonium tetrachloride hydrate"
_symmetry_cell_setting           monoclinic
_symmetry_space_group_name_H-M   'C 2/m'
_symmetry_Int_Tables_number      12
_space_group_name_Hall           '-C 2y'
loop_
_symmetry_equiv_pos_site_id
_symmetry_equiv_pos_as_xyz
1 x,y,z
2 -x,y,-z
3 1/2+x,1/2+y,z
4 1/2-x,1/2+y,-z
5 -x,-y,-z
6 x,-y,z
7 1/2-x,1/2-y,-z
8 1/2+x,1/2-y,z
_cell_length_a                   18.066(4)
_cell_length_b                   16.992(3)
_cell_length_c                   25.485(7)
_cell_angle_alpha                90
_cell_angle_beta                 101.950(4)
_cell_angle_gamma                90
_cell_volume                     7653.78
_cell_formula_units_Z            2
loop_
_atom_site_label
_atom_site_type_symbol
_atom_site_fract_x
_atom_site_fract_y
_atom_site_fract_z
O1 O 0.5688(6) 0.0000 0.4911(4)
O2 O -0.1461(5) 0.2265(8) 0.0155(4)
O3 O 0.5946(8) 0.0000 0.3460(8)
O4 O 0.0973(7) 0.5000 0.2548(9)
O5 O 0.3351(5) 0.1556(6) 0.0844(4)
O6 O 0.1727(9) 0.2054(9) 0.4900(5)
O7 O -0.0505(6) 0.4148(7) 0.1560(4)
O8 O 0.2447(7) 0.3819(12) 0.0682(6)
O9 O 0.2081(8) 0.0601(11) 0.5392(7)
O10 O 0.6274(12) -0.1035(10) 0.4143(5)
O11 O 0.2620(8) 0.4307(15) -0.0237(5)
Cl2 Cl 0.5000 0.241(2) 0.5000
O12 O 0.2285(16) 0.5000 0.1950(17)
O13 O 0.237(2) 0.5000 0.1148(11)
O14 O 0.0794(11) 0.3536(10) 0.0534(7)
C1 C 0.0445(6) 0.0000 0.0662(4)
C2 C -0.0663(4) 0.0465(4) 0.0930(3)
H1 H -0.1089 0.0684 0.0670
C3 C -0.0799(5) 0.0000 0.1767(5)
C4 C 0.0313(4) 0.1448(5) 0.0695(3)
H2 H 0.0665 0.1428 0.0455
H3 H -0.0129 0.1739 0.0513
C5 C -0.0833(4) 0.1434(5) 0.1644(3)
H4 H -0.1108 0.1400 0.1932
H5 H -0.1150 0.1713 0.1349
C6 C 0.1407(5) 0.2032(5) 0.1272(3)
C7 C 0.0224(5) 0.2335(5) 0.1451(4)
H6 H -0.0130 0.2683 0.1216
C8 C 0.0828(5) 0.2803(5) 0.1859(4)
H7 H 0.0759 0.3372 0.1806
C9 C 0.0169(5) 0.2073(6) 0.2356(3)
C10 C 0.2276(5) 0.2921(5) 0.1900(4)
H8 H 0.2576 0.2847 0.1629
H9 H 0.2205 0.3482 0.1939
C11 C 0.1146(5) 0.2891(5) 0.2862(4)
H10 H 0.0856 0.2816 0.3139
H11 H 0.1199 0.3454 0.2816
C12 C 0.3278(5) 0.2107(5) 0.2429(4)
C13 C 0.2570(5) 0.2844(5) 0.2926(4)
C14 C 0.3206(4) 0.2363(5) 0.3311(3)
C15 C 0.2039(6) 0.2054(6) 0.3489(4)
C16 C 0.4218(4) 0.1466(5) 0.3107(3)
H12 H 0.4557 0.1734 0.3397
H13 H 0.4468 0.1438 0.2806
C17 C 0.3133(4) 0.1432(5) 0.4101(3)
H14 H 0.3581 0.1697 0.4296
H15 H 0.2776 0.1395 0.4336
C18 C 0.4177(5) 0.0000 0.2976(5)
C19 C 0.4037(3) 0.0450(4) 0.3826(3)
H16 H 0.4468 0.0659 0.4087
C20 C 0.2971(6) 0.0000 0.4090(3)
C21 C 0.2729(7) 0.3761(7) 0.3083(5)
H17 H 0.2605 0.4084 0.2763
H18 H 0.2413 0.3926 0.3328
C22 C 0.3526(8) 0.3862(12) 0.3336(10)
H19 H 0.3591 0.4286 0.3596
H20 H 0.3826 0.3975 0.3070
C23 C 0.3775(8) 0.2994(7) 0.3637(5)
H21 H 0.4294 0.2865 0.3624
H22 H 0.3728 0.3011 0.4009
N1 N 0.0080(3) 0.0643(4) 0.07872(19)
N2 N 0.0658(4) 0.1872(4) 0.1162(2)
N3 N -0.0707(3) 0.0644(4) 0.1467(2)
N4 N -0.0147(4) 0.1892(4) 0.1832(3)
N5 N 0.1522(4) 0.2541(4) 0.1714(3)
N6 N 0.2693(4) 0.2606(4) 0.2410(3)
N7 N 0.0733(4) 0.2577(5) 0.2379(3)
N8 N 0.1902(4) 0.2554(4) 0.3051(3)
N9 N 0.3546(3) 0.1922(4) 0.2954(3)
N10 N 0.4090(3) 0.0656(4) 0.3282(2)
N11 N 0.2797(4) 0.1912(4) 0.3635(2)
N12 N 0.3338(3) 0.0648(4) 0.3969(2)
O15 O 0.0996(4) 0.0000 0.0459(2)
O16 O 0.1877(3) 0.1830(4) 0.1031(2)
O17 O 0.3505(3) 0.1864(3) 0.2035(2)
O18 O 0.4323(4) 0.0000 0.2548(3)
O19 O -0.0950(3) 0.0000 0.2207(3)
O20 O -0.0101(3) 0.1818(3) 0.2723(2)
O21 O 0.1578(3) 0.1808(3) 0.3732(2)
O22 O 0.2408(4) 0.0000 0.4287(2)
C2E C -0.0663(4) -0.0465(4) 0.0930(3)
H1E H -0.1089 -0.0684 0.0670
C4E C 0.0313(4) -0.1448(5) 0.0695(3)
H2E H 0.0665 -0.1428 0.0455
H3E H -0.0129 -0.1739 0.0513
C5E C -0.0833(4) -0.1434(5) 0.1644(3)
H4E H -0.1108 -0.1400 0.1932
H5E H -0.1150 -0.1713 0.1349
C6E C 0.1407(5) -0.2032(5) 0.1272(3)
C7E C 0.0224(5) -0.2335(5) 0.1451(4)
H6E H -0.0130 -0.2683 0.1216
C8E C 0.0828(5) -0.2803(5) 0.1859(4)
H7E H 0.0759 -0.3372 0.1806
C9E C 0.0169(5) -0.2073(6) 0.2356(3)
C10E C 0.2276(5) -0.2921(5) 0.1900(4)
H8E H 0.2576 -0.2847 0.1629
H9E H 0.2205 -0.3482 0.1939
C11E C 0.1146(5) -0.2891(5) 0.2862(4)
H10E H 0.0856 -0.2816 0.3139
H11E H 0.1199 -0.3454 0.2816
C12E C 0.3278(5) -0.2107(5) 0.2429(4)
C13E C 0.2570(5) -0.2844(5) 0.2926(4)
C14E C 0.3206(4) -0.2363(5) 0.3311(3)
C15E C 0.2039(6) -0.2054(6) 0.3489(4)
C16E C 0.4218(4) -0.1466(5) 0.3107(3)
H12E H 0.4557 -0.1734 0.3397
H13E H 0.4468 -0.1438 0.2806
C17E C 0.3133(4) -0.1432(5) 0.4101(3)
H14E H 0.3581 -0.1697 0.4296
H15E H 0.2776 -0.1395 0.4336
C19E C 0.4037(3) -0.0450(4) 0.3826(3)
H16E H 0.4468 -0.0659 0.4087
C21E C 0.2729(7) -0.3761(7) 0.3083(5)
H17E H 0.2605 -0.4084 0.2763
H18E H 0.2413 -0.3926 0.3328
C22E C 0.3526(8) -0.3862(12) 0.3336(10)
H19E H 0.3591 -0.4286 0.3596
H20E H 0.3826 -0.3975 0.3070
C23E C 0.3775(8) -0.2994(7) 0.3637(5)
H21E H 0.4294 -0.2865 0.3624
H22E H 0.3728 -0.3011 0.4009
N1E N 0.0080(3) -0.0643(4) 0.07872(19)
N2E N 0.0658(4) -0.1872(4) 0.1162(2)
N3E N -0.0707(3) -0.0644(4) 0.1467(2)
N4E N -0.0147(4) -0.1892(4) 0.1832(3)
N5E N 0.1522(4) -0.2541(4) 0.1714(3)
N6E N 0.2693(4) -0.2606(4) 0.2410(3)
N7E N 0.0733(4) -0.2577(5) 0.2379(3)
N8E N 0.1902(4) -0.2554(4) 0.3051(3)
N9E N 0.3546(3) -0.1922(4) 0.2954(3)
N10E N 0.4090(3) -0.0656(4) 0.3282(2)
N11E N 0.2797(4) -0.1912(4) 0.3635(2)
N12E N 0.3338(3) -0.0648(4) 0.3969(2)
O16E O 0.1877(3) -0.1830(4) 0.1031(2)
O17E O 0.3505(3) -0.1864(3) 0.2035(2)
O20E O -0.0101(3) -0.1818(3) 0.2723(2)
O21E O 0.1578(3) -0.1808(3) 0.3732(2)
C24 C 0.2710(10) 0.0000 0.1611(6)
H23 H 0.2617 0.0000 0.1227
H24 H 0.2993 -0.0461 0.1746
C25 C 0.2048(10) 0.0000 0.1771(6)
H25 H 0.1764 -0.0460 0.1620
C26 C 0.2085(11) 0.0000 0.2349(6)
H26 H 0.2356 0.0462 0.2509
C27 C 0.1244(7) 0.0000 0.2467(5)
H27 H 0.0975 0.0461 0.2303
C28 C 0.1237(7) 0.0000 0.3093(4)
H28 H 0.1496 -0.0463 0.3263
C29 C 0.0486(6) 0.0000 0.3148(4)
H29 H 0.0236 -0.0461 0.2968
N13 N 0.0385(5) 0.0000 0.3704(3)
C30 C 0.0345(6) -0.0696(7) 0.3959(4)
H30 H 0.0444 -0.1169 0.3803
C31 C 0.0151(6) -0.0686(5) 0.4460(3)
H31 H 0.0062 -0.1161 0.4617
C32 C 0.0088(5) 0.0000 0.4729(4)
C24A C -0.2710(10) 0.0000 0.8389(6)
H23A H -0.2617 0.0000 0.8773
H24E H 0.2993 0.0461 0.1746
H24A H -0.2993 -0.0461 0.8254
H24D H -0.2993 0.0461 0.8254
C25A C -0.2048(10) 0.0000 0.8229(6)
H25E H 0.1764 0.0460 0.1620
H25A H -0.1764 -0.0460 0.8380
H25D H -0.1764 0.0460 0.8380
C26A C -0.2085(11) 0.0000 0.7651(6)
H26E H 0.2356 -0.0462 0.2509
H26A H -0.2356 0.0462 0.7491
H26D H -0.2356 -0.0462 0.7491
C27A C -0.1244(7) 0.0000 0.7533(5)
H27E H 0.0975 -0.0461 0.2303
H27A H -0.0975 0.0461 0.7697
H27D H -0.0975 -0.0461 0.7697
C28A C -0.1237(7) 0.0000 0.6907(4)
H28E H 0.1496 0.0463 0.3263
H28A H -0.1496 -0.0463 0.6737
H28D H -0.1496 0.0463 0.6737
C29A C -0.0486(6) 0.0000 0.6852(4)
H29E H 0.0236 0.0461 0.2968
H29A H -0.0236 -0.0461 0.7032
H29D H -0.0236 0.0461 0.7032
N13A N -0.0385(5) 0.0000 0.6296(3)
C30E C 0.0345(6) 0.0696(7) 0.3959(4)
C30A C -0.0345(6) -0.0696(7) 0.6041(4)
C30D C -0.0345(6) 0.0696(7) 0.6041(4)
H30E H 0.0444 0.1169 0.3803
H30D H -0.0444 0.1169 0.6197
H30A H -0.0444 -0.1169 0.6197
C31E C 0.0151(6) 0.0686(5) 0.4460(3)
C31A C -0.0151(6) -0.0686(5) 0.5540(3)
C31D C -0.0151(6) 0.0686(5) 0.5540(3)
H31E H 0.0062 0.1161 0.4617
H31D H -0.0062 0.1161 0.5383
H31A H -0.0062 -0.1161 0.5383
C32A C -0.0088(5) 0.0000 0.5271(4)
Cl1? Cl 0.5278(5) 0.2106(4) 0.4656(3)
loop_
_geom_bond_atom_site_label_1
_geom_bond_atom_site_label_2
_geom_bond_site_symmetry_1
_geom_bond_site_symmetry_2
C1 N1 1_555 1_555
C2 H1 1_555 1_555
C3 N3 1_555 1_555
C4 H2 1_555 1_555
H3 C4 1_555 1_555
C5 H4 1_555 1_555
H5 C5 1_555 1_555
C6 N2 1_555 1_555
C7 H6 1_555 1_555
C8 C7 1_555 1_555
H7 C8 1_555 1_555
C9 N4 1_555 1_555
C10 H8 1_555 1_555
H9 C10 1_555 1_555
C11 H10 1_555 1_555
H11 C11 1_555 1_555
C12 N6 1_555 1_555
C13 C14 1_555 1_555
C14 C23 1_555 1_555
C15 N8 1_555 1_555
C16 H12 1_555 1_555
H13 C16 1_555 1_555
C17 H14 1_555 1_555
H15 C17 1_555 1_555
C18 N10 1_555 1_555
C19 H16 1_555 1_555
C20 N12 1_555 1_555
C21 C13 1_555 1_555
H17 C21 1_555 1_555
H18 C21 1_555 1_555
C22 C21 1_555 1_555
H19 C22 1_555 1_555
H20 C22 1_555 1_555
C23 C22 1_555 1_555
H21 C23 1_555 1_555
H22 C23 1_555 1_555
N1 C2 1_555 1_555
N2 C4 1_555 1_555
N3 C2 1_555 1_555
N4 C5 1_555 1_555
N5 C6 1_555 1_555
N6 C10 1_555 1_555
N7 C8 1_555 1_555
N8 C11 1_555 1_555
N9 C12 1_555 1_555
N10 C16 1_555 1_555
N11 C14 1_555 1_555
N12 C17 1_555 1_555
O15 C1 1_555 1_555
O16 C6 1_555 1_555
O17 C12 1_555 1_555
O18 C18 1_555 1_555
O19 C3 1_555 1_555
O20 C9 1_555 1_555
O21 C15 1_555 1_555
O22 C20 1_555 1_555
C24 H23 1_555 1_555
H24 C24 1_555 1_555
C25 C24 1_555 1_555
H25 C25 1_555 1_555
C26 C25 1_555 1_555
H26 C26 1_555 1_555
C27 C26 1_555 1_555
H27 C27 1_555 1_555
C28 C27 1_555 1_555
H28 C28 1_555 1_555
C29 C28 1_555 1_555
H29 C29 1_555 1_555
N13 C29 1_555 1_555
C30 N13 1_555 1_555
H30 C30 1_555 1_555
C31 C30 1_555 1_555
H31 C31 1_555 1_555
C32 C31 1_555 1_555
C2E C2 1_555 1_555
H1E C2E 1_555 1_555
C4E H2E 1_555 1_555
H3E C4E 1_555 1_555
C5E H4E 1_555 1_555
H5E C5E 1_555 1_555
C6E N2E 1_555 1_555
C7E H6E 1_555 1_555
C8E C7E 1_555 1_555
H7E C8E 1_555 1_555
C9E N4E 1_555 1_555
C10E H8E 1_555 1_555
H9E C10E 1_555 1_555
C11E H10E 1_555 1_555
H11E C11E 1_555 1_555
C12E N6E 1_555 1_555
C13E C14E 1_555 1_555
C14E C23E 1_555 1_555
C15E N8E 1_555 1_555
C16E H12E 1_555 1_555
H13E C16E 1_555 1_555
C17E H14E 1_555 1_555
H15E C17E 1_555 1_555
C19E C19 1_555 1_555
H16E C19E 1_555 1_555
C21E C13E 1_555 1_555
H17E C21E 1_555 1_555
H18E C21E 1_555 1_555
C22E C21E 1_555 1_555
H19E C22E 1_555 1_555
H20E C22E 1_555 1_555
C23E C22E 1_555 1_555
H21E C23E 1_555 1_555
H22E C23E 1_555 1_555
N1E C1 1_555 1_555
N2E C4E 1_555 1_555
N3E C3 1_555 1_555
N4E C5E 1_555 1_555
N5E C6E 1_555 1_555
N6E C10E 1_555 1_555
N7E C8E 1_555 1_555
N8E C11E 1_555 1_555
N9E C12E 1_555 1_555
N10E C18 1_555 1_555
N11E C14E 1_555 1_555
N12E C20 1_555 1_555
O16E C6E 1_555 1_555
O17E C12E 1_555 1_555
O20E C9E 1_555 1_555
O21E C15E 1_555 1_555
C24A H23A 1_555 1_555
H24E C24 1_555 1_555
H24A C24A 1_555 1_555
H24D C24A 1_555 1_555
C25A C24A 1_555 1_555
H25E C25 1_555 1_555
H25A C25A 1_555 1_555
H25D C25A 1_555 1_555
C26A C25A 1_555 1_555
H26E C26 1_555 1_555
H26A C26A 1_555 1_555
H26D C26A 1_555 1_555
C27A C26A 1_555 1_555
H27E C27 1_555 1_555
H27A C27A 1_555 1_555
H27D C27A 1_555 1_555
C28A C27A 1_555 1_555
H28E C28 1_555 1_555
H28A C28A 1_555 1_555
H28D C28A 1_555 1_555
C29A C28A 1_555 1_555
H29E C29 1_555 1_555
H29A C29A 1_555 1_555
H29D C29A 1_555 1_555
N13A C29A 1_555 1_555
C30E N13 1_555 1_555
C30A N13A 1_555 1_555
C30D N13A 1_555 1_555
H30E C30E 1_555 1_555
H30D C30D 1_555 1_555
H30A C30A 1_555 1_555
C31E C32 1_555 1_555
C31A C30A 1_555 1_555
C31D C30D 1_555 1_555
H31E C31E 1_555 1_555
H31D C31D 1_555 1_555
H31A C31A 1_555 1_555
C32A C32 1_555 1_555
C4 N1 1_555 1_555
C5 N3 1_555 1_555
C7 N2 1_555 1_555
C7 N4 1_555 1_555
C8 N5 1_555 1_555
C9 N7 1_555 1_555
C10 N5 1_555 1_555
C11 N7 1_555 1_555
C13 N6 1_555 1_555
C13 N8 1_555 1_555
C14 N9 1_555 1_555
C15 N11 1_555 1_555
C16 N9 1_555 1_555
C17 N11 1_555 1_555
C19 N10 1_555 1_555
C19 N12 1_555 1_555
C2E N1E 1_555 1_555
C2E N3E 1_555 1_555
C4E N1E 1_555 1_555
C5E N3E 1_555 1_555
C7E N2E 1_555 1_555
C7E N4E 1_555 1_555
C8E N5E 1_555 1_555
C9E N7E 1_555 1_555
C10E N5E 1_555 1_555
C11E N7E 1_555 1_555
C13E N6E 1_555 1_555
C13E N8E 1_555 1_555
C14E N9E 1_555 1_555
C15E N11E 1_555 1_555
C16E N9E 1_555 1_555
C16E N10E 1_555 1_555
C17E N11E 1_555 1_555
C17E N12E 1_555 1_555
C19E N10E 1_555 1_555
C19E N12E 1_555 1_555
C30E C31E 1_555 1_555
C31A C32A 1_555 1_555
C31D C32A 1_555 1_555

#END
