
#######################################################################
#
#                 Cambridge Crystallographic Data Centre
#                                CCDC 
#
#######################################################################
#
# If this CIF has been generated from an entry in the Cambridge 
# Structural Database, then it will include bibliographic, chemical, 
# crystal, experimental, refinement or atomic coordinate data resulting 
# from the CCDC's data processing and validation procedures.
#
#######################################################################

data_SOVKAQ
_chemical_formula_moiety         'C45 H48 N24 O12,23(H2 O1)'
_chemical_name_systematic        
'm-tris(Trimethylene)cucurbit(6)uril dihydrate clathrate hydrate'
_symmetry_cell_setting           orthorhombic
_symmetry_space_group_name_H-M   'C m c m'
_symmetry_Int_Tables_number      63
_space_group_name_Hall           '-C 2n 2'
loop_
_symmetry_equiv_pos_site_id
_symmetry_equiv_pos_as_xyz
1 x,y,z
2 -x,-y,1/2+z
3 -x,y,1/2-z
4 x,-y,-z
5 1/2+x,1/2+y,z
6 1/2-x,1/2-y,1/2+z
7 1/2-x,1/2+y,1/2-z
8 1/2+x,1/2-y,-z
9 -x,-y,-z
10 x,y,1/2-z
11 x,-y,1/2+z
12 -x,y,z
13 1/2-x,1/2-y,-z
14 1/2+x,1/2+y,1/2-z
15 1/2+x,1/2-y,1/2+z
16 1/2-x,1/2+y,z
_cell_length_a                   17.844(2)
_cell_length_b                   28.448(2)
_cell_length_c                   13.3891(13)
_cell_angle_alpha                90
_cell_angle_beta                 90
_cell_angle_gamma                90
_cell_volume                     6796.66
_cell_formula_units_Z            4
loop_
_atom_site_label
_atom_site_type_symbol
_atom_site_fract_x
_atom_site_fract_y
_atom_site_fract_z
O2 O 0.0000 0.2288(7) 0.045(2)
O3 O 0.5000 0.2659(11) 0.2500
O4 O 0.3759(15) -0.0681(5) 0.0691(17)
O6 O 0.3002(8) -0.0481(3) -0.2500
O7 O 0.5000 -0.0516(5) -0.0643(13)
O8 O 0.3748(6) -0.0141(4) -0.0744(9)
O9 O 0.2383(14) -0.0720(10) -0.362(2)
O10 O 0.0549(12) 0.3426(9) 0.1658(13)
O11 O 0.5000 0.3550(17) 0.2500
C1 C 0.5000 0.4636(4) 0.1078(10)
C2 C 0.6373(8) 0.4699(3) 0.1207(6)
H1 H 0.6665 0.4977 0.1354
H2 H 0.6341 0.4670 0.0486
C3 C 0.6849(6) 0.3881(3) 0.1072(6)
C4 C 0.7188(10) 0.4308(3) 0.2500
H3 H 0.7554 0.4565 0.2500
C5 C 0.7590(8) 0.3799(3) 0.2500
H4 H 0.8138 0.3821 0.2500
C6 C 0.7597(5) 0.3168(2) 0.1155(6)
H5 H 0.7478 0.3167 0.0448
H6 H 0.8139 0.3176 0.1217
C7 C 0.6843(4) 0.2448(2) 0.1057(5)
C8 C 0.7233(5) 0.2027(3) 0.2500
C9 C 0.7610(5) 0.2522(3) 0.2500
C10 C 0.8478(12) 0.2441(6) 0.2500
C11 C 0.8587(12) 0.1925(6) 0.283(4)
C12 C 0.7883(11) 0.1663(8) 0.2500
C13 C 0.6373(4) 0.1630(2) 0.1202(5)
H7 H 0.6345 0.1654 0.0480
H8 H 0.6656 0.1349 0.1361
C14 C 0.5437(5) 0.1326(3) 0.2500
H9 H 0.5644 0.1007 0.2500
C15 C 0.5000 0.1704(4) 0.1051(9)
C16 C 0.5448(8) 0.5012(3) 0.2500
C17 C 0.5693(13) 0.5543(5) 0.2500
H10 H 0.5991 0.5611 0.1912
C18 C 0.5000 0.5836(13) 0.2500
H11 H 0.5000 0.6037 0.1914
N1 N 0.5622(6) 0.4764(2) 0.1601(4)
N2 N 0.6765(5) 0.42946(18) 0.1593(4)
N3 N 0.7294(4) 0.35857(19) 0.1594(4)
N4 N 0.7322(3) 0.27321(17) 0.1599(4)
N5 N 0.6778(3) 0.20367(18) 0.1584(4)
N6 N 0.5616(3) 0.15786(19) 0.1595(4)
O13 O 0.5000 0.4443(3) 0.0262(5)
O14 O 0.6571(5) 0.38037(18) 0.0241(4)
O15 O 0.6571(3) 0.25313(16) 0.0261(3)
O16 O 0.5000 0.1886(3) 0.0233(5)
C1B C 0.5000 0.4636(4) 0.3922(10)
C2I C 0.6373(8) 0.4699(3) 0.3793(6)
C2B C 0.3627(8) 0.4699(3) 0.3793(6)
C2K C 0.3627(8) 0.4699(3) 0.1207(6)
H1I H 0.6665 0.4977 0.3646
H1B H 0.3335 0.4977 0.3646
H1K H 0.3335 0.4977 0.1354
H2I H 0.6341 0.4670 0.4514
H2B H 0.3659 0.4670 0.4514
H2K H 0.3659 0.4670 0.0486
C3B C 0.3151(6) 0.3881(3) 0.3928(6)
C3K C 0.3151(6) 0.3881(3) 0.1072(6)
C3I C 0.6849(6) 0.3881(3) 0.3928(6)
C4B C 0.2812(10) 0.4308(3) 0.2500
H3B H 0.2446 0.4565 0.2500
C5B C 0.2410(8) 0.3799(3) 0.2500
H4B H 0.1862 0.3821 0.2500
C6K C 0.2403(5) 0.3168(2) 0.1155(6)
C6B C 0.2403(5) 0.3168(2) 0.3845(6)
C6I C 0.7597(5) 0.3168(2) 0.3845(6)
H5K H 0.2522 0.3167 0.0448
H5B H 0.2522 0.3167 0.4552
H5I H 0.7478 0.3167 0.4552
H6K H 0.1861 0.3176 0.1217
H6B H 0.1861 0.3176 0.3783
H6I H 0.8139 0.3176 0.3783
C7K C 0.3157(4) 0.2448(2) 0.1057(5)
C7B C 0.3157(4) 0.2448(2) 0.3943(5)
C7I C 0.6843(4) 0.2448(2) 0.3943(5)
C8B C 0.2767(5) 0.2027(3) 0.2500
C9B C 0.2390(5) 0.2522(3) 0.2500
C10B C 0.1522(12) 0.2441(6) 0.2500
C11K C 0.1413(12) 0.1925(6) 0.283(4)
C11B C 0.1413(12) 0.1925(6) 0.217(4)
C11I C 0.8587(12) 0.1925(6) 0.217(4)
C12B C 0.2117(11) 0.1663(8) 0.2500
C13B C 0.3627(4) 0.1630(2) 0.3798(5)
C13I C 0.6373(4) 0.1630(2) 0.3798(5)
C13K C 0.3627(4) 0.1630(2) 0.1202(5)
H7B H 0.3655 0.1654 0.4520
H7I H 0.6345 0.1654 0.4520
H7K H 0.3655 0.1654 0.0480
H8B H 0.3344 0.1349 0.3639
H8I H 0.6656 0.1349 0.3639
H8K H 0.3344 0.1349 0.1361
C14B C 0.4563(5) 0.1326(3) 0.2500
H9B H 0.4356 0.1007 0.2500
C15B C 0.5000 0.1704(4) 0.3949(9)
C16B C 0.4552(8) 0.5012(3) 0.2500
C17B C 0.4307(13) 0.5543(5) 0.2500
H10I H 0.5991 0.5611 0.3088
H10B H 0.4009 0.5611 0.3088
H10K H 0.4009 0.5611 0.1912
H11B H 0.5000 0.6037 0.3086
N1I N 0.5622(6) 0.4764(2) 0.3399(4)
N1B N 0.4378(6) 0.4764(2) 0.3399(4)
N1K N 0.4378(6) 0.4764(2) 0.1601(4)
N2I N 0.6765(5) 0.42946(18) 0.3407(4)
N2B N 0.3235(5) 0.42946(18) 0.3407(4)
N2K N 0.3235(5) 0.42946(18) 0.1593(4)
N3B N 0.2706(4) 0.35857(19) 0.3406(4)
N3K N 0.2706(4) 0.35857(19) 0.1594(4)
N3I N 0.7294(4) 0.35857(19) 0.3406(4)
N4K N 0.2678(3) 0.27321(17) 0.1599(4)
N4B N 0.2678(3) 0.27321(17) 0.3401(4)
N4I N 0.7322(3) 0.27321(17) 0.3401(4)
N5K N 0.3222(3) 0.20367(18) 0.1584(4)
N5B N 0.3222(3) 0.20367(18) 0.3416(4)
N5I N 0.6778(3) 0.20367(18) 0.3416(4)
N6B N 0.4384(3) 0.15786(19) 0.3405(4)
N6I N 0.5616(3) 0.15786(19) 0.3405(4)
N6K N 0.4384(3) 0.15786(19) 0.1595(4)
O13B O 0.5000 0.4443(3) 0.4738(5)
O14I O 0.6571(5) 0.38037(18) 0.4759(4)
O14K O 0.3429(5) 0.38037(18) 0.0241(4)
O14B O 0.3429(5) 0.38037(18) 0.4759(4)
O15B O 0.3429(3) 0.25313(16) 0.4739(3)
O15I O 0.6571(3) 0.25313(16) 0.4739(3)
O15K O 0.3429(3) 0.25313(16) 0.0261(3)
O16B O 0.5000 0.1886(3) 0.4767(5)
O1 O 0.5000 0.6435(8) 0.0327(19)
O5? O 0.3051(13) -0.0469(6) -0.008(2)
O12? O 0.5000 0.3093(17) 0.2500
loop_
_geom_bond_atom_site_label_1
_geom_bond_atom_site_label_2
_geom_bond_site_symmetry_1
_geom_bond_site_symmetry_2
C1 N1 1_555 1_555
C2 H1 1_555 1_555
H2 C2 1_555 1_555
C3 N2 1_555 1_555
C4 H3 1_555 1_555
C5 C4 1_555 1_555
H4 C5 1_555 1_555
C6 H5 1_555 1_555
H6 C6 1_555 1_555
C7 N4 1_555 1_555
C8 C9 1_555 1_555
C9 C10 1_555 1_555
C10 C11 1_555 1_555
C11 C12 1_555 1_555
C12 C8 1_555 1_555
C13 H7 1_555 1_555
H8 C13 1_555 1_555
C14 H9 1_555 1_555
C15 N6 1_555 1_555
C16 C17 1_555 1_555
C17 H10 1_555 1_555
C18 C17 1_555 1_555
H11 C18 1_555 1_555
N1 C2 1_555 1_555
N2 C2 1_555 1_555
N3 C3 1_555 1_555
N4 C6 1_555 1_555
N5 C7 1_555 1_555
N6 C13 1_555 1_555
O13 C1 1_555 1_555
O14 C3 1_555 1_555
O15 C7 1_555 1_555
O16 C15 1_555 1_555
C1B N1I 1_555 1_555
C2I H1I 1_555 1_555
C2B H1B 1_555 1_555
C2K H1K 1_555 1_555
H2I C2I 1_555 1_555
H2B C2B 1_555 1_555
H2K C2K 1_555 1_555
C3B N2B 1_555 1_555
C3K N2K 1_555 1_555
C3I N2I 1_555 1_555
C4B H3B 1_555 1_555
C5B C4B 1_555 1_555
H4B C5B 1_555 1_555
C6K H5K 1_555 1_555
C6B H5B 1_555 1_555
C6I H5I 1_555 1_555
H6K C6K 1_555 1_555
H6B C6B 1_555 1_555
H6I C6I 1_555 1_555
C7K N4K 1_555 1_555
C7B N4B 1_555 1_555
C7I N4I 1_555 1_555
C8B C9B 1_555 1_555
C9B C10B 1_555 1_555
C10B C11K 1_555 1_555
C11K C11B 1_555 1_555
C11B C10B 1_555 1_555
C11I C10 1_555 1_555
C12B C8B 1_555 1_555
C13B H7B 1_555 1_555
C13I H7I 1_555 1_555
C13K H7K 1_555 1_555
H8B C13B 1_555 1_555
H8I C13I 1_555 1_555
H8K C13K 1_555 1_555
C14B C14 1_555 1_555
H9B C14B 1_555 1_555
C15B N6B 1_555 1_555
C16B C16 1_555 1_555
C17B C18 1_555 1_555
H10I C17 1_555 1_555
H10B C17B 1_555 1_555
H10K C17B 1_555 1_555
H11B C18 1_555 1_555
N1I C16 1_555 1_555
N1B C1B 1_555 1_555
N1K C1 1_555 1_555
N2I C4 1_555 1_555
N2B C2B 1_555 1_555
N2K C2K 1_555 1_555
N3B C3B 1_555 1_555
N3K C3K 1_555 1_555
N3I C5 1_555 1_555
N4K C6K 1_555 1_555
N4B C6B 1_555 1_555
N4I C9 1_555 1_555
N5K C7K 1_555 1_555
N5B C7B 1_555 1_555
N5I C8 1_555 1_555
N6B C13B 1_555 1_555
N6I C14 1_555 1_555
N6K C15 1_555 1_555
O13B C1B 1_555 1_555
O14I C3I 1_555 1_555
O14K C3K 1_555 1_555
O14B C3B 1_555 1_555
O15B C7B 1_555 1_555
O15I C7I 1_555 1_555
O15K C7K 1_555 1_555
O16B C15B 1_555 1_555
C4 N2 1_555 1_555
C5 N3 1_555 1_555
C6 N3 1_555 1_555
C8 N5 1_555 1_555
C9 N4 1_555 1_555
C11 C11I 1_555 1_555
C12 C11I 1_555 1_555
C13 N5 1_555 1_555
C14 N6 1_555 1_555
C16 N1 1_555 1_555
C2I N1I 1_555 1_555
C2I N2I 1_555 1_555
C2B N1B 1_555 1_555
C2K N1K 1_555 1_555
C3I N3I 1_555 1_555
C4B N2B 1_555 1_555
C4B N2K 1_555 1_555
C5B N3B 1_555 1_555
C5B N3K 1_555 1_555
C6K N3K 1_555 1_555
C6B N3B 1_555 1_555
C6I N3I 1_555 1_555
C6I N4I 1_555 1_555
C7I N5I 1_555 1_555
C8B N5K 1_555 1_555
C8B N5B 1_555 1_555
C9B N4K 1_555 1_555
C9B N4B 1_555 1_555
C11K C12B 1_555 1_555
C11B C12B 1_555 1_555
C13B N5B 1_555 1_555
C13I N5I 1_555 1_555
C13I N6I 1_555 1_555
C13K N5K 1_555 1_555
C13K N6K 1_555 1_555
C14B N6B 1_555 1_555
C14B N6K 1_555 1_555
C15B N6I 1_555 1_555
C16B C17B 1_555 1_555
C16B N1B 1_555 1_555
C16B N1K 1_555 1_555

#END
