
#######################################################################
#
#                 Cambridge Crystallographic Data Centre
#                                CCDC 
#
#######################################################################
#
# If this CIF has been generated from an entry in the Cambridge 
# Structural Database, then it will include bibliographic, chemical, 
# crystal, experimental, refinement or atomic coordinate data resulting 
# from the CCDC's data processing and validation procedures.
#
#######################################################################

data_SOVKEU
_chemical_formula_moiety         'C48 H52 N24 O12,25.5(H2 O1)'
_chemical_name_systematic        
'tetrakis(Trimethylene)cucurbit(6)uril dihydrate clathrate hydrate'
_symmetry_cell_setting           tetragonal
_symmetry_space_group_name_H-M   'I 4/m'
_symmetry_Int_Tables_number      87
_space_group_name_Hall           '-I 4'
loop_
_symmetry_equiv_pos_site_id
_symmetry_equiv_pos_as_xyz
1 x,y,z
2 -x,-y,z
3 -y,x,z
4 y,-x,z
5 1/2+x,1/2+y,1/2+z
6 1/2-x,1/2-y,1/2+z
7 1/2-y,1/2+x,1/2+z
8 1/2+y,1/2-x,1/2+z
9 -x,-y,-z
10 x,y,-z
11 y,-x,-z
12 -y,x,-z
13 1/2-x,1/2-y,1/2-z
14 1/2+x,1/2+y,1/2-z
15 1/2+y,1/2-x,1/2-z
16 1/2-y,1/2+x,1/2-z
_cell_length_a                   14.535(2)
_cell_length_b                   14.535(2)
_cell_length_c                   35.836(10)
_cell_angle_alpha                90
_cell_angle_beta                 90
_cell_angle_gamma                90
_cell_volume                     7570.94
_cell_formula_units_Z            4
loop_
_atom_site_label
_atom_site_type_symbol
_atom_site_fract_x
_atom_site_fract_y
_atom_site_fract_z
O1 O 0.0000 0.0000 0.0402(3)
O2 O 0.0000 0.0000 0.1231(4)
O3 O 0.3024(6) 0.4143(5) 0.2184(2)
O4 O 0.3707(5) 0.1480(7) 0.2733(2)
O5 O 0.5841(3) 0.1959(6) 0.0000
O6 O 0.4203(6) 0.3131(10) 0.2594(2)
O7 O 0.5637(7) 0.3657(5) 0.1431(2)
O8 O 0.5000 0.5000 0.0000
O11 O -0.1398(12) 0.0407(14) 0.1639(4)
C1 C 0.3130(2) -0.0255(2) -0.09880(10)
C2 C 0.3964(2) 0.0768(2) -0.13643(10)
C3 C 0.3234(2) 0.1312(2) -0.11331(10)
C4 C 0.4711(2) 0.1856(2) -0.09901(11)
C5 C 0.1991(2) 0.0733(3) -0.06823(10)
H1 H 0.1657 0.0157 -0.0668
H2 H 0.1593 0.1180 -0.0802
C6 C 0.3423(3) 0.2684(2) -0.06782(11)
H3 H 0.2877 0.2932 -0.0797
H4 H 0.3873 0.3175 -0.0663
C7 C 0.2052(3) 0.0511(3) 0.0000
C8 C 0.2305(2) 0.2011(2) -0.02120(10)
H5 H 0.1801 0.2386 -0.0311
C9 C 0.3656(3) 0.2655(3) 0.0000
C10 C 0.4280(2) -0.0956(2) -0.14048(11)
H6 H 0.3878 -0.1484 -0.1377
H7 H 0.4362 -0.0847 -0.1670
C11 C 0.3701(3) 0.0977(4) -0.17695(16)
H8 H 0.3811 0.0445 -0.1926
H9 H 0.4061 0.1489 -0.1864
C12 C 0.2614(3) 0.1810(4) -0.14124(15)
H10 H 0.1978 0.1817 -0.1330
H11 H 0.2819 0.2437 -0.1455
C13 C 0.3219(7) 0.1855(7) -0.1767(3)
H12 H 0.3649 0.2364 -0.1754
H13 H 0.2843 0.1924 -0.1989
N1 N 0.38413(18) -0.01750(19) -0.12441(8)
N2 N 0.27979(18) 0.06006(18) -0.09121(8)
N3 N 0.21937(18) 0.10418(18) -0.03109(8)
N4 N 0.31920(19) 0.23946(19) -0.03105(9)
N5 N 0.37960(18) 0.19403(19) -0.09131(9)
N6 N 0.48308(18) 0.1173(2) -0.12406(8)
O12 O 0.28572(18) -0.09848(16) -0.08581(8)
O13 O 0.1826(3) -0.0304(2) 0.0000
O14 O 0.4403(2) 0.3067(3) 0.0000
O15 O 0.53209(17) 0.23448(18) -0.08653(8)
C1I C 0.3130(2) -0.0255(2) 0.09880(10)
C1H C 0.6870(2) 0.0255(2) 0.09880(10)
C1A C 0.6870(2) 0.0255(2) -0.09880(10)
C2I C 0.3964(2) 0.0768(2) 0.13643(10)
C2H C 0.6036(2) -0.0768(2) 0.13643(10)
C2A C 0.6036(2) -0.0768(2) -0.13643(10)
C3I C 0.3234(2) 0.1312(2) 0.11331(10)
C3H C 0.6766(2) -0.1312(2) 0.11331(10)
C3A C 0.6766(2) -0.1312(2) -0.11331(10)
C4I C 0.4711(2) 0.1856(2) 0.09901(11)
C4H C 0.5289(2) -0.1856(2) 0.09901(11)
C4A C 0.5289(2) -0.1856(2) -0.09901(11)
C5I C 0.1991(2) 0.0733(3) 0.06823(10)
C5H C 0.8009(2) -0.0733(3) 0.06823(10)
C5A C 0.8009(2) -0.0733(3) -0.06823(10)
H1I H 0.1657 0.0157 0.0668
H1H H 0.8343 -0.0157 0.0668
H1A H 0.8343 -0.0157 -0.0668
H2I H 0.1593 0.1180 0.0802
H2H H 0.8407 -0.1180 0.0802
H2A H 0.8407 -0.1180 -0.0802
C6I C 0.3423(3) 0.2684(2) 0.06782(11)
C6H C 0.6577(3) -0.2684(2) 0.06782(11)
C6A C 0.6577(3) -0.2684(2) -0.06782(11)
H3I H 0.2877 0.2932 0.0797
H3H H 0.7123 -0.2932 0.0797
H3A H 0.7123 -0.2932 -0.0797
H4I H 0.3873 0.3175 0.0663
H4H H 0.6127 -0.3175 0.0663
H4A H 0.6127 -0.3175 -0.0663
C7A C 0.7948(3) -0.0511(3) 0.0000
C8I C 0.2305(2) 0.2011(2) 0.02120(10)
C8H C 0.7695(2) -0.2011(2) 0.02120(10)
C8A C 0.7695(2) -0.2011(2) -0.02120(10)
H5I H 0.1801 0.2386 0.0311
H5H H 0.8199 -0.2386 0.0311
H5A H 0.8199 -0.2386 -0.0311
C9A C 0.6344(3) -0.2655(3) 0.0000
C10H C 0.5720(2) 0.0956(2) 0.14048(11)
C10I C 0.4280(2) -0.0956(2) 0.14048(11)
C10A C 0.5720(2) 0.0956(2) -0.14048(11)
H6H H 0.6122 0.1484 0.1377
H6I H 0.3878 -0.1484 0.1377
H6A H 0.6122 0.1484 -0.1377
H7H H 0.5638 0.0847 0.1670
H7I H 0.4362 -0.0847 0.1670
H7A H 0.5638 0.0847 -0.1670
C11I C 0.3701(3) 0.0977(4) 0.17695(16)
C11H C 0.6299(3) -0.0977(4) 0.17695(16)
C11A C 0.6299(3) -0.0977(4) -0.17695(16)
H8H H 0.6189 -0.0445 0.1926
H8A H 0.6189 -0.0445 -0.1926
H8I H 0.3811 0.0445 0.1926
H9H H 0.5939 -0.1489 0.1864
H9A H 0.5939 -0.1489 -0.1864
H9I H 0.4061 0.1489 0.1864
C12I C 0.2614(3) 0.1810(4) 0.14124(15)
C12H C 0.7386(3) -0.1810(4) 0.14124(15)
C12A C 0.7386(3) -0.1810(4) -0.14124(15)
H10I H 0.1978 0.1817 0.1330
H10A H 0.8022 -0.1817 -0.1330
H10H H 0.8022 -0.1817 0.1330
H11I H 0.2819 0.2437 0.1455
H11A H 0.7181 -0.2437 -0.1455
H11H H 0.7181 -0.2437 0.1455
C13I C 0.3219(7) 0.1855(7) 0.1767(3)
C13H C 0.6781(7) -0.1855(7) 0.1767(3)
C13A C 0.6781(7) -0.1855(7) -0.1767(3)
H12A H 0.6351 -0.2364 -0.1754
H12H H 0.6351 -0.2364 0.1754
H12I H 0.3649 0.2364 0.1754
H13A H 0.7157 -0.1924 -0.1989
H13H H 0.7157 -0.1924 0.1989
H13I H 0.2843 0.1924 0.1989
N1I N 0.38413(18) -0.01750(19) 0.12441(8)
N1H N 0.61587(18) 0.01750(19) 0.12441(8)
N1A N 0.61587(18) 0.01750(19) -0.12441(8)
N2I N 0.27979(18) 0.06006(18) 0.09121(8)
N2H N 0.72021(18) -0.06006(18) 0.09121(8)
N2A N 0.72021(18) -0.06006(18) -0.09121(8)
N3I N 0.21937(18) 0.10418(18) 0.03109(8)
N3H N 0.78063(18) -0.10418(18) 0.03109(8)
N3A N 0.78063(18) -0.10418(18) -0.03109(8)
N4I N 0.31920(19) 0.23946(19) 0.03105(9)
N4H N 0.68080(19) -0.23946(19) 0.03105(9)
N4A N 0.68080(19) -0.23946(19) -0.03105(9)
N5I N 0.37960(18) 0.19403(19) 0.09131(9)
N5H N 0.62040(18) -0.19403(19) 0.09131(9)
N5A N 0.62040(18) -0.19403(19) -0.09131(9)
N6I N 0.48308(18) 0.1173(2) 0.12406(8)
N6H N 0.51692(18) -0.1173(2) 0.12406(8)
N6A N 0.51692(18) -0.1173(2) -0.12406(8)
O12A O 0.71428(18) 0.09848(16) -0.08581(8)
O12H O 0.71428(18) 0.09848(16) 0.08581(8)
O12I O 0.28572(18) -0.09848(16) 0.08581(8)
O13A O 0.8174(3) 0.0304(2) 0.0000
O14A O 0.5597(2) -0.3067(3) 0.0000
O15I O 0.53209(17) 0.23448(18) 0.08653(8)
O15H O 0.46791(17) -0.23448(18) 0.08653(8)
O15A O 0.46791(17) -0.23448(18) -0.08653(8)
O9? O 0.5867(6) 0.0557(15) 0.0193(3)
O10? O 0.5236(7) 0.0350(7) 0.2602(2)
C14? C 0.2741(8) 0.1206(9) 0.1766(3)
H14? H 0.2573 0.1545 0.1989
H15? H 0.2366 0.0655 0.1751
loop_
_geom_bond_atom_site_label_1
_geom_bond_atom_site_label_2
_geom_bond_site_symmetry_1
_geom_bond_site_symmetry_2
C1 N1 1_555 1_555
C2 C3 1_555 1_555
C3 C12 1_555 1_555
C4 N5 1_555 1_555
C5 H1 1_555 1_555
H2 C5 1_555 1_555
C6 H3 1_555 1_555
H4 C6 1_555 1_555
C7 N3 1_555 1_555
C8 H5 1_555 1_555
C9 N4 1_555 1_555
C10 H6 1_555 1_555
H7 C10 1_555 1_555
C11 C2 1_555 1_555
H8 C11 1_555 1_555
H9 C11 1_555 1_555
C12 H10 1_555 1_555
H11 C12 1_555 1_555
C13 C11 1_555 1_555
H12 C13 1_555 1_555
H13 C13 1_555 1_555
N1 C2 1_555 1_555
N2 C1 1_555 1_555
N3 C5 1_555 1_555
N4 C6 1_555 1_555
N5 C3 1_555 1_555
N6 C2 1_555 1_555
O12 C1 1_555 1_555
O13 C7 1_555 1_555
O14 C9 1_555 1_555
O15 C4 1_555 1_555
C1I N1I 1_555 1_555
C1H N1H 1_555 1_555
C1A N1A 1_555 1_555
C2I C3I 1_555 1_555
C2H C3H 1_555 1_555
C2A C3A 1_555 1_555
C3I C12I 1_555 1_555
C3H C12H 1_555 1_555
C3A C12A 1_555 1_555
C4I N5I 1_555 1_555
C4H N5H 1_555 1_555
C4A N5A 1_555 1_555
C5I H1I 1_555 1_555
C5H H1H 1_555 1_555
C5A H1A 1_555 1_555
H2I C5I 1_555 1_555
H2H C5H 1_555 1_555
H2A C5A 1_555 1_555
C6I H3I 1_555 1_555
C6H H3H 1_555 1_555
C6A H3A 1_555 1_555
H4I C6I 1_555 1_555
H4H C6H 1_555 1_555
H4A C6A 1_555 1_555
C7A N3H 1_555 1_555
C8I C8 1_555 1_555
C8H C8A 1_555 1_555
C8A H5A 1_555 1_555
H5I C8I 1_555 1_555
H5H C8H 1_555 1_555
C9A N4H 1_555 1_555
C10H H6H 1_555 1_555
C10I H6I 1_555 1_555
C10A N6 1_555 1_555
H6A C10A 1_555 1_555
H7H C10H 1_555 1_555
H7I C10I 1_555 1_555
H7A C10A 1_555 1_555
C11I C2I 1_555 1_555
C11H C2H 1_555 1_555
C11A C2A 1_555 1_555
H8H C11H 1_555 1_555
H8A C11A 1_555 1_555
H8I C11I 1_555 1_555
H9H C11H 1_555 1_555
H9A C11A 1_555 1_555
H9I C11I 1_555 1_555
C12I H10I 1_555 1_555
C12H H10H 1_555 1_555
C12A H10A 1_555 1_555
H11I C12I 1_555 1_555
H11A C12A 1_555 1_555
H11H C12H 1_555 1_555
C13I C11I 1_555 1_555
C13H C11H 1_555 1_555
C13A C11A 1_555 1_555
H12A C13A 1_555 1_555
H12H C13H 1_555 1_555
H12I C13I 1_555 1_555
H13A C13A 1_555 1_555
H13H C13H 1_555 1_555
H13I C13I 1_555 1_555
N1I C2I 1_555 1_555
N1H C2H 1_555 1_555
N1A C2A 1_555 1_555
N2I C1I 1_555 1_555
N2H C1H 1_555 1_555
N2A C1A 1_555 1_555
N3I C7 1_555 1_555
N3H C5H 1_555 1_555
N3A C5A 1_555 1_555
N4I C9 1_555 1_555
N4H C6H 1_555 1_555
N4A C6A 1_555 1_555
N5I C3I 1_555 1_555
N5H C3H 1_555 1_555
N5A C3A 1_555 1_555
N6I C2I 1_555 1_555
N6H C2H 1_555 1_555
N6A C10 1_555 1_555
O12A C1A 1_555 1_555
O12H C1H 1_555 1_555
O12I C1I 1_555 1_555
O13A C7A 1_555 1_555
O14A C9A 1_555 1_555
O15I C4I 1_555 1_555
O15H C4H 1_555 1_555
O15A C4A 1_555 1_555
C3 N2 1_555 1_555
C4 N6 1_555 1_555
C5 N2 1_555 1_555
C6 N5 1_555 1_555
C8 N3 1_555 1_555
C8 N4 1_555 1_555
C10 N1 1_555 1_555
C12 C13 1_555 1_555
C2A N6A 1_555 1_555
C3I N2I 1_555 1_555
C3H N2H 1_555 1_555
C3A N2A 1_555 1_555
C4I N6I 1_555 1_555
C4H N6H 1_555 1_555
C4A N6A 1_555 1_555
C5I N2I 1_555 1_555
C5I N3I 1_555 1_555
C5H N2H 1_555 1_555
C5A N2A 1_555 1_555
C6I N4I 1_555 1_555
C6I N5I 1_555 1_555
C6H N5H 1_555 1_555
C6A N5A 1_555 1_555
C7A N3A 1_555 1_555
C8I N3I 1_555 1_555
C8I N4I 1_555 1_555
C8H N3H 1_555 1_555
C8H N4H 1_555 1_555
C8A N3A 1_555 1_555
C8A N4A 1_555 1_555
C9A N4A 1_555 1_555
C10H N1H 1_555 1_555
C10H N6I 1_555 1_555
C10I N1I 1_555 1_555
C10I N6H 1_555 1_555
C10A N1A 1_555 1_555
C12I C13I 1_555 1_555
C12H C13H 1_555 1_555
C12A C13A 1_555 1_555

#END
