
#######################################################################
#
#                 Cambridge Crystallographic Data Centre
#                                CCDC 
#
#######################################################################
#
# If this CIF has been generated from an entry in the Cambridge 
# Structural Database, then it will include bibliographic, chemical, 
# crystal, experimental, refinement or atomic coordinate data resulting 
# from the CCDC's data processing and validation procedures.
#
#######################################################################

data_SOVLIA
_chemical_formula_moiety         'C21 H18 F3 N3 O2 S1'
_chemical_name_systematic        
(E)-N-(4-Methyl-2-((3-methylphenyl)diazenyl)phenyl)-4-(trifluoromethyl)benzenesulfonamide
_symmetry_cell_setting           triclinic
_symmetry_space_group_name_H-M   'P -1'
_symmetry_Int_Tables_number      2
_space_group_name_Hall           '-P 1'
loop_
_symmetry_equiv_pos_site_id
_symmetry_equiv_pos_as_xyz
1 x,y,z
2 -x,-y,-z
_cell_length_a                   10.552(3)
_cell_length_b                   11.010(3)
_cell_length_c                   11.195(4)
_cell_angle_alpha                102.898(3)
_cell_angle_beta                 115.514(3)
_cell_angle_gamma                103.025(3)
_cell_volume                     1065
_exptl_crystal_colour            orange
_exptl_crystal_description       prism
_chemical_melting_point          '374 K'
_cell_formula_units_Z            2
_exptl_crystal_preparation       Luminescent
loop_
_atom_site_label
_atom_site_type_symbol
_atom_site_fract_x
_atom_site_fract_y
_atom_site_fract_z
S1 S 0.23915(9) 1.03770(8) 1.04177(9)
C1 C 0.1877(7) 0.4665(5) 0.8614(6)
C2 C 0.2039(5) 0.6079(4) 0.9114(4)
C3 C 0.3110(5) 0.7047(4) 0.9102(5)
H1 H 0.3743 0.6809 0.8797
C4 C 0.3250(4) 0.8368(4) 0.9539(5)
H2 H 0.3971 0.9023 0.9529
C5 C 0.2307(4) 0.8709(3) 0.9993(4)
C6 C 0.1200(5) 0.7747(4) 0.9971(5)
H3 H 0.0552 0.7983 1.0254
C7 C 0.1066(6) 0.6426(4) 0.9521(5)
H4 H 0.0316 0.5765 0.9493
C8 C 0.1555(4) 1.0264(3) 0.7788(4)
C9 C 0.2626(5) 1.1291(3) 0.7832(5)
H5 H 0.3138 1.2101 0.8598
C10 C 0.2933(5) 1.1118(4) 0.6746(5)
H6 H 0.3667 1.1813 0.6797
C11 C 0.2178(5) 0.9935(4) 0.5577(5)
C12 C 0.1116(4) 0.8906(4) 0.5542(4)
H7 H 0.0599 0.8102 0.4767
C13 C 0.0808(4) 0.9050(3) 0.6643(4)
C14 C 0.2486(6) 0.9775(6) 0.4361(6)
H8 H 0.2427 1.0520 0.4056
H9 H 0.1750 0.8959 0.3584
H10 H 0.3476 0.9745 0.4671
C15 C -0.1681(4) 0.5838(4) 0.5868(4)
C16 C -0.2444(4) 0.6040(4) 0.6595(4)
H11 H -0.2253 0.6906 0.7135
C17 C -0.3490(5) 0.4963(4) 0.6525(5)
C18 C -0.3760(6) 0.3693(5) 0.5673(7)
H12 H -0.4479 0.2959 0.5588
C19 C -0.3011(6) 0.3481(5) 0.4957(7)
H13 H -0.3209 0.2616 0.4412
C20 C -0.1961(5) 0.4556(4) 0.5048(6)
H14 H -0.1446 0.4423 0.4564
C21 C -0.4338(6) 0.5168(6) 0.7295(6)
H15 H -0.5394 0.4869 0.6616
H16 H -0.3975 0.6101 0.7851
H17 H -0.4186 0.4664 0.7908
F1 F 0.1430(10) 0.4138(4) 0.7379(5)
F2 F 0.1321(8) 0.3927(4) 0.9080(8)
F3 F 0.3201(6) 0.4532(4) 0.9117(8)
H18 H 0.023(3) 0.999(4) 0.870(5)
N1 N -0.0277(3) 0.8035(3) 0.6664(3)
N2 N -0.0578(3) 0.6875(3) 0.5879(3)
N3 N 0.1228(3) 1.0455(3) 0.8925(3)
O1 O 0.3874(3) 1.1228(2) 1.0871(3)
O2 O 0.1762(3) 1.0605(3) 1.1314(3)
loop_
_geom_bond_atom_site_label_1
_geom_bond_atom_site_label_2
_geom_bond_site_symmetry_1
_geom_bond_site_symmetry_2
S1 C5 1_555 1_555
C1 C2 1_555 1_555
C2 C3 1_555 1_555
C3 H1 1_555 1_555
C4 C3 1_555 1_555
H2 C4 1_555 1_555
C5 C4 1_555 1_555
C6 C5 1_555 1_555
H3 C6 1_555 1_555
C7 C2 1_555 1_555
H4 C7 1_555 1_555
C8 C9 1_555 1_555
C9 H5 1_555 1_555
C10 C9 1_555 1_555
H6 C10 1_555 1_555
C11 C10 1_555 1_555
C12 C11 1_555 1_555
H7 C12 1_555 1_555
C13 C8 1_555 1_555
C14 C11 1_555 1_555
H8 C14 1_555 1_555
H9 C14 1_555 1_555
H10 C14 1_555 1_555
C15 C16 1_555 1_555
C16 H11 1_555 1_555
C17 C16 1_555 1_555
C18 C17 1_555 1_555
H12 C18 1_555 1_555
C19 C18 1_555 1_555
H13 C19 1_555 1_555
C20 C15 1_555 1_555
H14 C20 1_555 1_555
C21 C17 1_555 1_555
H15 C21 1_555 1_555
H16 C21 1_555 1_555
H17 C21 1_555 1_555
F1 C1 1_555 1_555
F2 C1 1_555 1_555
F3 C1 1_555 1_555
H18 N3 1_555 1_555
N1 C13 1_555 1_555
N2 C15 1_555 1_555
N3 S1 1_555 1_555
O1 S1 1_555 1_555
O2 S1 1_555 1_555
C6 C7 1_555 1_555
C8 N3 1_555 1_555
C12 C13 1_555 1_555
C19 C20 1_555 1_555
N1 N2 1_555 1_555

#END
