
#######################################################################
#
#                 Cambridge Crystallographic Data Centre
#                                CCDC 
#
#######################################################################
#
# If this CIF has been generated from an entry in the Cambridge 
# Structural Database, then it will include bibliographic, chemical, 
# crystal, experimental, refinement or atomic coordinate data resulting 
# from the CCDC's data processing and validation procedures.
#
#######################################################################

data_SOVNUM
_chemical_formula_moiety         'C25 H23 B1 N4 S3'
_chemical_name_systematic        tris(Benzothiazol-2-yl)(diethylamino)borane
_symmetry_cell_setting           orthorhombic
_symmetry_space_group_name_H-M   'P 21 21 21'
_symmetry_Int_Tables_number      19
_space_group_name_Hall           'P 2ac 2ab'
loop_
_symmetry_equiv_pos_site_id
_symmetry_equiv_pos_as_xyz
1 x,y,z
2 1/2+x,1/2-y,-z
3 -x,1/2+y,1/2-z
4 1/2-x,-y,1/2+z
_cell_length_a                   11.570(3)
_cell_length_b                   12.496(4)
_cell_length_c                   16.577(4)
_cell_angle_alpha                90
_cell_angle_beta                 90
_cell_angle_gamma                90
_cell_volume                     2396.68
_chemical_melting_point          204-206deg.C
_cell_formula_units_Z            4
loop_
_atom_site_label
_atom_site_type_symbol
_atom_site_fract_x
_atom_site_fract_y
_atom_site_fract_z
S1 S 0.3252(2) 0.0804(2) 0.0269(2)
S2 S 0.172(5) -0.0869(3) 0.2143(2)
S3 S 0.2773(2) -0.2250(2) 0.0682(2)
N1 N 0.5241(2) -0.0613(2) 0.214(5)
N2 N 0.5430(7) 0.0592(7) 0.0607(5)
N3 N 0.299(5) 0.0781(6) 0.2452(6)
N4 N 0.4957(5) -0.231(5) 0.1042(7)
B1 B 0.4128(8) -0.0525(8) 0.1545(6)
C1 C 0.4913(7) -0.1369(5) 0.287(5)
C2 C 0.5980(7) -0.1670(6) 0.3285(5)
C3 C 0.567(5) 0.046(2) 0.246(1)
C4 C 0.6990(8) 0.058(5) 0.232(2)
C5 C 0.536(1) 0.129(1) -0.006(5)
C6 C 0.4227(9) 0.1499(9) -0.0334(6)
C7 C 0.399(5) 0.217(1) -0.099(1)
C8 C 0.496(1) 0.261(5) -0.13819
C9 C 0.6062(8) 0.2422(6) -0.111(5)
C10 C 0.6296(9) 0.1767(7) -0.0442(6)
C11 C 0.442(5) 0.028(1) 0.0849(9)
C12 C 0.1953(6) 0.094(5) 0.284(1)
C13 C 0.1145(8) 0.0141(7) 0.277(5)
C14 C 0.001(1) 0.017(1) 0.3105(7)
C15 C -0.022(5) 0.109(1) 0.355(1)
C16 C 0.0574(7) 0.190(5) 0.3638(9)
C17 C 0.1663(7) 0.1859(5) 0.330(5)
C18 C 0.3012(9) -0.0136(8) 0.2052(6)
C19 C 0.3519(7) -0.331(5) 0.036(1)
C20 C 0.468(5) -0.324(1) 0.0601(8)
C21 C 0.546(1) -0.4034(7) 0.041(5)
C22 C 0.508(1) -0.491(1) -0.0064(7)
C23 C 0.392(5) -0.497(1) -0.033(1)
C24 C 0.3109(7) -0.417(5) -0.010(1)
C25 C 0.405(1) -0.1702(7) 0.114(5)
loop_
_geom_bond_atom_site_label_1
_geom_bond_atom_site_label_2
_geom_bond_site_symmetry_1
_geom_bond_site_symmetry_2
S1 C6 1_555 1_555
S2 C13 1_555 1_555
S3 C19 1_555 1_555
N1 B1 1_555 1_555
N2 C5 1_555 1_555
N3 C12 1_555 1_555
N4 C20 1_555 1_555
B1 C11 1_555 1_555
C1 N1 1_555 1_555
C2 C1 1_555 1_555
C3 N1 1_555 1_555
C4 C3 1_555 1_555
C5 C6 1_555 1_555
C6 C7 1_555 1_555
C7 C8 1_555 1_555
C8 C9 1_555 1_555
C9 C10 1_555 1_555
C10 C5 1_555 1_555
C11 S1 1_555 1_555
C12 C13 1_555 1_555
C13 C14 1_555 1_555
C14 C15 1_555 1_555
C15 C16 1_555 1_555
C16 C17 1_555 1_555
C17 C12 1_555 1_555
C18 S2 1_555 1_555
C19 C20 1_555 1_555
C20 C21 1_555 1_555
C21 C22 1_555 1_555
C22 C23 1_555 1_555
C23 C24 1_555 1_555
C24 C19 1_555 1_555
C25 S3 1_555 1_555
N2 C11 1_555 1_555
N3 C18 1_555 1_555
N4 C25 1_555 1_555
B1 C18 1_555 1_555
B1 C25 1_555 1_555

#END
