
#######################################################################
#
#                 Cambridge Crystallographic Data Centre
#                                CCDC 
#
#######################################################################
#
# If this CIF has been generated from an entry in the Cambridge 
# Structural Database, then it will include bibliographic, chemical, 
# crystal, experimental, refinement or atomic coordinate data resulting 
# from the CCDC's data processing and validation procedures.
#
#######################################################################

data_SOVVOP01
_chemical_formula_moiety         'C8 H4 O4 2-,2(C3 H10 N1 1+)'
_chemical_name_systematic        'bis(propan-2-aminium) isophthalate'
_symmetry_cell_setting           orthorhombic
_symmetry_space_group_name_H-M   'P n m a'
_symmetry_Int_Tables_number      62
_space_group_name_Hall           '-P 2ac 2n'
loop_
_symmetry_equiv_pos_site_id
_symmetry_equiv_pos_as_xyz
1 x,y,z
2 1/2-x,-y,1/2+z
3 1/2+x,1/2-y,1/2-z
4 -x,1/2+y,-z
5 -x,-y,-z
6 1/2+x,y,1/2-z
7 1/2-x,1/2+y,1/2+z
8 x,1/2-y,z
_cell_length_a                   13.1220(11)
_cell_length_b                   19.9560(16)
_cell_length_c                   6.3290(5)
_cell_angle_alpha                90
_cell_angle_beta                 90
_cell_angle_gamma                90
_cell_volume                     1657.33
_exptl_crystal_colour            colorless
_exptl_crystal_description       block
_cell_formula_units_Z            4
loop_
_atom_site_label
_atom_site_type_symbol
_atom_site_fract_x
_atom_site_fract_y
_atom_site_fract_z
N1 N 0.2951(3) 0.05841(15) 0.9267(5)
H1 H 0.253(3) 0.0781(18) 0.800(7)
H2 H 0.265(3) 0.068(2) 1.061(8)
H3 H 0.300(3) 0.008(2) 0.923(6)
C1 C 0.4007(5) 0.1586(2) 0.9481(12)
H4 H 0.361(5) 0.181(3) 0.834(10)
H5 H 0.477(6) 0.170(3) 0.952(9)
H6 H 0.373(6) 0.167(3) 1.082(11)
C2 C 0.4020(3) 0.0827(2) 0.9177(7)
H7 H 0.439(3) 0.059(2) 1.049(6)
C3 C 0.4469(5) 0.0622(3) 0.7090(10)
H8 H 0.445(4) 0.009(4) 0.695(10)
H9 H 0.518(5) 0.079(3) 0.720(10)
H10 H 0.406(5) 0.092(3) 0.592(10)
O1 O 0.1870(2) 0.12473(11) 0.6264(4)
O2 O 0.2052(3) 0.07485(11) 0.3203(4)
C4 C 0.1873(3) 0.12543(15) 0.4328(5)
C5 C 0.1816(4) 0.2500 0.4241(8)
H11 H 0.210(3) 0.2500 0.566(8)
C6 C 0.1651(3) 0.18965(15) 0.3218(5)
C7 C 0.1271(3) 0.19034(17) 0.1190(5)
H12 H 0.110(3) 0.1464(18) 0.042(5)
C8 C 0.1071(4) 0.2500 0.0189(8)
H13 H 0.082(4) 0.2500 -0.127(8)
O1G O 0.1870(2) 0.37527(11) 0.6264(4)
O2G O 0.2052(3) 0.42515(11) 0.3203(4)
C4G C 0.1873(3) 0.37457(15) 0.4328(5)
C6G C 0.1651(3) 0.31035(15) 0.3218(5)
C7G C 0.1271(3) 0.30966(17) 0.1190(5)
H12G H 0.110(3) 0.3536(18) 0.042(5)
loop_
_geom_bond_atom_site_label_1
_geom_bond_atom_site_label_2
_geom_bond_site_symmetry_1
_geom_bond_site_symmetry_2
N1 H1 1_555 1_555
H2 N1 1_555 1_555
H3 N1 1_555 1_555
C1 H4 1_555 1_555
H5 C1 1_555 1_555
H6 C1 1_555 1_555
C2 N1 1_555 1_555
H7 C2 1_555 1_555
C3 C2 1_555 1_555
H8 C3 1_555 1_555
H9 C3 1_555 1_555
H10 C3 1_555 1_555
O1 C4 1_555 1_555
O2 C4 1_555 1_555
C4 C6 1_555 1_555
C5 H11 1_555 1_555
C6 C5 1_555 1_555
C7 C6 1_555 1_555
H12 C7 1_555 1_555
C8 C7 1_555 1_555
H13 C8 1_555 1_555
O1G C4G 1_555 1_555
O2G C4G 1_555 1_555
C4G C6G 1_555 1_555
C6G C5 1_555 1_555
C7G C8 1_555 1_555
H12G C7G 1_555 1_555
C1 C2 1_555 1_555
C6G C7G 1_555 1_555

#END
