
#######################################################################
#
#                 Cambridge Crystallographic Data Centre
#                                CCDC 
#
#######################################################################
#
# If this CIF has been generated from an entry in the Cambridge 
# Structural Database, then it will include bibliographic, chemical, 
# crystal, experimental, refinement or atomic coordinate data resulting 
# from the CCDC's data processing and validation procedures.
#
#######################################################################

data_SOVXEI
_chemical_formula_moiety         'C27 H34 O6'
_chemical_name_systematic        
'6-(4-methoxy-7-oxo-7H-furo[3,2-g]chromen-2-yl)dec-5-en-5-yl pivalate'
_symmetry_cell_setting           monoclinic
_symmetry_space_group_name_H-M   'P 21/c'
_symmetry_Int_Tables_number      14
_space_group_name_Hall           '-P 2ybc'
loop_
_symmetry_equiv_pos_site_id
_symmetry_equiv_pos_as_xyz
1 x,y,z
2 -x,1/2+y,1/2-z
3 -x,-y,-z
4 x,1/2-y,1/2+z
_cell_length_a                   18.766(2)
_cell_length_b                   10.1649(13)
_cell_length_c                   13.5051(15)
_cell_angle_alpha                90
_cell_angle_beta                 106.763(10)
_cell_angle_gamma                90
_cell_volume                     2466.69
_exptl_crystal_colour            colorless
_exptl_crystal_description       needle
_cell_formula_units_Z            4
loop_
_atom_site_label
_atom_site_type_symbol
_atom_site_fract_x
_atom_site_fract_y
_atom_site_fract_z
O1 O 0.1840(2) 0.1850(4) 0.5424(3)
O2 O -0.0674(2) 0.1904(4) 0.3314(3)
O3 O 0.0056(3) -0.4038(4) 0.3615(3)
O4 O 0.0615(2) -0.2142(4) 0.4129(3)
O5 O 0.3304(2) 0.4974(4) 0.6782(4)
O6 O 0.4104(3) 0.3700(5) 0.6261(5)
C1 C 0.1613(3) 0.3184(6) 0.5261(5)
C2 C 0.0911(3) 0.3264(6) 0.4668(5)
H1 H 0.0636 0.4051 0.4461
C3 C 0.0641(3) 0.1928(6) 0.4392(5)
C4 C -0.0020(3) 0.1333(6) 0.3802(5)
C5 C -0.0024(3) -0.0071(6) 0.3704(5)
C6 C -0.0660(4) -0.0778(6) 0.3096(5)
H2 H -0.1095 -0.0309 0.2737
C7 C -0.0650(3) -0.2099(6) 0.3026(5)
H3 H -0.1075 -0.2548 0.2608
C8 C -0.0002(3) -0.2841(6) 0.3579(5)
C9 C 0.0618(3) -0.0785(6) 0.4210(5)
C10 C 0.1267(3) -0.0236(6) 0.4805(5)
H4 H 0.1693 -0.0745 0.5137
C11 C 0.1250(3) 0.1114(6) 0.4882(5)
C12 C -0.0753(4) 0.3306(6) 0.3429(5)
H5 H -0.0630 0.3527 0.4165
H6 H -0.1268 0.3567 0.3083
H7 H -0.0416 0.3774 0.3116
C13 C 0.2188(3) 0.4166(6) 0.5695(5)
C14 C 0.2764(4) 0.3965(6) 0.6521(5)
C15 C 0.2112(3) 0.5420(6) 0.5057(5)
H8 H 0.1577 0.5628 0.4760
H9 H 0.2345 0.6157 0.5516
C16 C 0.2470(3) 0.5311(6) 0.4185(5)
H10 H 0.2241 0.4567 0.3731
H11 H 0.3006 0.5113 0.4482
C17 C 0.2387(4) 0.6561(7) 0.3533(5)
H12 H 0.2655 0.7288 0.3973
H13 H 0.1854 0.6804 0.3287
C18 C 0.2687(5) 0.6410(9) 0.2599(6)
H14 H 0.3217 0.6184 0.2837
H15 H 0.2622 0.7239 0.2214
H16 H 0.2413 0.5709 0.2149
C19 C 0.2918(4) 0.2813(6) 0.7268(5)
H17 H 0.3217 0.2152 0.7026
H18 H 0.2439 0.2396 0.7256
C20 C 0.3328(4) 0.3192(6) 0.8379(5)
H19 H 0.3818 0.3567 0.8394
H20 H 0.3420 0.2386 0.8809
C21 C 0.2912(4) 0.4189(7) 0.8863(5)
H21 H 0.2812 0.4994 0.8432
H22 H 0.2427 0.3810 0.8868
C22 C 0.3351(4) 0.4554(8) 0.9961(6)
H23 H 0.3444 0.3762 1.0392
H24 H 0.3065 0.5186 1.0241
H25 H 0.3826 0.4950 0.9957
C23 C 0.3975(4) 0.4729(7) 0.6645(6)
C24 C 0.4503(4) 0.5863(7) 0.6964(6)
C25 C 0.4563(5) 0.6239(8) 0.8080(7)
H26 H 0.4070 0.6482 0.8134
H27 H 0.4903 0.6987 0.8288
H28 H 0.4755 0.5489 0.8535
C26 C 0.5267(4) 0.5478(9) 0.6879(9)
H29 H 0.5445 0.4698 0.7304
H30 H 0.5616 0.6207 0.7123
H31 H 0.5232 0.5284 0.6156
C27 C 0.4199(4) 0.7038(7) 0.6245(7)
H32 H 0.4193 0.6815 0.5536
H33 H 0.4520 0.7806 0.6479
H34 H 0.3693 0.7242 0.6263
loop_
_geom_bond_atom_site_label_1
_geom_bond_atom_site_label_2
_geom_bond_site_symmetry_1
_geom_bond_site_symmetry_2
O1 C1 1_555 1_555
O2 C4 1_555 1_555
O3 C8 1_555 1_555
O4 C8 1_555 1_555
O5 C14 1_555 1_555
O6 C23 1_555 1_555
C1 C2 1_555 1_555
C2 H1 1_555 1_555
C3 C2 1_555 1_555
C4 C3 1_555 1_555
C5 C4 1_555 1_555
C6 C5 1_555 1_555
H2 C6 1_555 1_555
C7 C6 1_555 1_555
H3 C7 1_555 1_555
C8 C7 1_555 1_555
C9 O4 1_555 1_555
C10 C9 1_555 1_555
H4 C10 1_555 1_555
C11 O1 1_555 1_555
C12 O2 1_555 1_555
H5 C12 1_555 1_555
H6 C12 1_555 1_555
H7 C12 1_555 1_555
C13 C1 1_555 1_555
C14 C13 1_555 1_555
C15 C13 1_555 1_555
H8 C15 1_555 1_555
H9 C15 1_555 1_555
C16 C15 1_555 1_555
H10 C16 1_555 1_555
H11 C16 1_555 1_555
C17 C16 1_555 1_555
H12 C17 1_555 1_555
H13 C17 1_555 1_555
C18 C17 1_555 1_555
H14 C18 1_555 1_555
H15 C18 1_555 1_555
H16 C18 1_555 1_555
C19 C14 1_555 1_555
H17 C19 1_555 1_555
H18 C19 1_555 1_555
C20 C19 1_555 1_555
H19 C20 1_555 1_555
H20 C20 1_555 1_555
C21 C20 1_555 1_555
H21 C21 1_555 1_555
H22 C21 1_555 1_555
C22 C21 1_555 1_555
H23 C22 1_555 1_555
H24 C22 1_555 1_555
H25 C22 1_555 1_555
C23 O5 1_555 1_555
C24 C23 1_555 1_555
C25 C24 1_555 1_555
H26 C25 1_555 1_555
H27 C25 1_555 1_555
H28 C25 1_555 1_555
C26 C24 1_555 1_555
H29 C26 1_555 1_555
H30 C26 1_555 1_555
H31 C26 1_555 1_555
C27 C24 1_555 1_555
H32 C27 1_555 1_555
H33 C27 1_555 1_555
H34 C27 1_555 1_555
C3 C11 1_555 1_555
C5 C9 1_555 1_555
C10 C11 1_555 1_555

#END
