
#######################################################################
#
#                 Cambridge Crystallographic Data Centre
#                                CCDC 
#
#######################################################################
#
# If this CIF has been generated from an entry in the Cambridge 
# Structural Database, then it will include bibliographic, chemical, 
# crystal, experimental, refinement or atomic coordinate data resulting 
# from the CCDC's data processing and validation procedures.
#
#######################################################################

data_SOVXIM
_chemical_formula_moiety         'C27 H34 O6'
_chemical_name_systematic        
'6-(9-methoxy-7-oxo-7H-furo[3,2-g]chromen-2-yl)dec-5-en-5-yl pivalate'
_symmetry_cell_setting           monoclinic
_symmetry_space_group_name_H-M   'P 21/c'
_symmetry_Int_Tables_number      14
_space_group_name_Hall           '-P 2ybc'
loop_
_symmetry_equiv_pos_site_id
_symmetry_equiv_pos_as_xyz
1 x,y,z
2 -x,1/2+y,1/2-z
3 -x,-y,-z
4 x,1/2-y,1/2+z
_cell_length_a                   21.867(3)
_cell_length_b                   11.2519(16)
_cell_length_c                   10.0301(4)
_cell_angle_alpha                90
_cell_angle_beta                 97.915(8)
_cell_angle_gamma                90
_cell_volume                     2444.35
_exptl_crystal_colour            colorless
_exptl_crystal_description       prism
_cell_formula_units_Z            4
loop_
_atom_site_label
_atom_site_type_symbol
_atom_site_fract_x
_atom_site_fract_y
_atom_site_fract_z
O1 O -0.03584(7) 0.21508(13) 0.15657(15)
O2 O 0.03416(6) 0.17851(12) 0.33179(13)
O3 O 0.18716(6) 0.09157(13) 0.71018(14)
C1 C 0.22065(9) 0.1668(2) 0.8057(2)
C2 C 0.20410(9) 0.2817(2) 0.7811(2)
H1 H 0.2202 0.3487 0.8319
C3 C 0.15747(9) 0.28373(19) 0.6634(2)
C4 C 0.12371(9) 0.37110(19) 0.5882(2)
H2 H 0.1288 0.4525 0.6123
C5 C 0.08190(9) 0.33674(18) 0.4756(2)
C6 C 0.04412(9) 0.41976(18) 0.3913(2)
H3 H 0.0475 0.5023 0.4109
C7 C 0.00409(9) 0.38267(18) 0.2854(2)
H4 H -0.0207 0.4395 0.2327
C8 C -0.00206(9) 0.25750(18) 0.2500(2)
C9 C 0.07489(8) 0.21590(17) 0.44196(19)
C10 C 0.10802(9) 0.12556(18) 0.5151(2)
C11 C 0.14916(9) 0.16418(18) 0.6249(2)
O4 O 0.32448(9) -0.0297(2) 1.0327(2)
O5 O 0.3995(4) -0.0544(6) 0.9009(6)
C12 C 0.28212(12) 0.0048(3) 0.9185(3)
C13 C 0.26752(16) 0.1197(3) 0.9104(4)
C14 C 0.25787(14) -0.1014(3) 0.8361(3)
H5 H 0.2917 -0.1596 0.8350
H6 H 0.2446 -0.0755 0.7422
C15 C 0.20344(16) -0.1627(3) 0.8893(4)
H7 H 0.1676 -0.1081 0.8798
H8 H 0.2148 -0.1803 0.9863
C16 C 0.18463(18) -0.2811(4) 0.8120(5)
H9 H 0.1430 -0.3053 0.8302
H10 H 0.1824 -0.2668 0.7140
C17 C 0.2286(2) -0.3785(4) 0.8514(7)
H11 H 0.2703 -0.3534 0.8382
H12 H 0.2168 -0.4486 0.7957
H13 H 0.2281 -0.3983 0.9463
C18 C 0.29972(12) 0.2104(3) 1.0077(3)
H14 H 0.3127 0.1717 1.0958
H15 H 0.2703 0.2747 1.0216
C19 C 0.3568(2) 0.2647(5) 0.9558(7)
H16 H 0.3842 0.1996 0.9339
H17 H 0.3432 0.3091 0.8717
C20 C 0.39319(15) 0.3475(3) 1.0561(3)
H18 H 0.4322 0.3691 1.0223
H19 H 0.4041 0.3045 1.1423
C21 C 0.3592(3) 0.4604(5) 1.0828(6)
H20 H 0.3491 0.5048 0.9985
H21 H 0.3855 0.5094 1.1482
H22 H 0.3211 0.4402 1.1188
C22 C 0.38188(18) -0.0637(4) 1.0086(5)
C23 C 0.4191(3) -0.1123(7) 1.1367(7)
C24 C 0.3800(4) -0.2060(9) 1.1917(9)
H23 H 0.3681 -0.2663 1.1224
H24 H 0.3429 -0.1691 1.2178
H25 H 0.4037 -0.2436 1.2706
C25 C 0.4771(5) -0.1681(10) 1.0978(13)
H26 H 0.4995 -0.2089 1.1760
H27 H 0.5033 -0.1061 1.0671
H28 H 0.4659 -0.2256 1.0251
C26 C 0.4361(4) -0.0125(8) 1.2364(9)
H29 H 0.3984 0.0216 1.2632
H30 H 0.4587 0.0492 1.1945
H31 H 0.4621 -0.0438 1.3160
O6 O 0.1027(9) 0.0084(6) 0.4753(9)
C27 C 0.1016(4) -0.0827(5) 0.5727(6)
H32 H 0.1440 -0.1032 0.6106
H33 H 0.0810 -0.1531 0.5300
H34 H 0.0791 -0.0548 0.6447
O7? O 0.3432(3) 0.0403(8) 1.0659(7)
O8? O 0.4038(15) -0.022(2) 0.921(2)
C28? C 0.3098(5) 0.1153(9) 0.9621(10)
C29? C 0.2542(6) 0.0787(12) 0.9058(15)
C30? C 0.2304(4) -0.0433(7) 0.9449(10)
H35? H 0.2482 -0.0595 1.0393
H36? H 0.1851 -0.0370 0.9430
C31? C 0.2430(5) -0.1501(8) 0.8617(11)
H37? H 0.2882 -0.1611 0.8675
H38? H 0.2266 -0.1345 0.7663
C32? C 0.2129(4) -0.2701(8) 0.9086(9)
H39? H 0.2417 -0.3094 0.9798
H40? H 0.1742 -0.2519 0.9455
C33? C 0.1992(6) -0.3526(11) 0.7860(13)
H41? H 0.1575 -0.3369 0.7400
H42? H 0.2022 -0.4356 0.8158
H43? H 0.2293 -0.3379 0.7238
C34? C 0.3425(10) 0.2327(12) 0.954(2)
H44? H 0.3319 0.2655 0.8621
H45? H 0.3877 0.2187 0.9691
C35? C 0.3264(5) 0.3232(10) 1.0548(11)
H46? H 0.3412 0.2935 1.1465
H47? H 0.2809 0.3298 1.0463
C36? C 0.3529(8) 0.4461(13) 1.040(2)
H48? H 0.3353 0.5008 1.1023
H49? H 0.3398 0.4746 0.9474
C37? C 0.4230(5) 0.4521(13) 1.0695(14)
H50? H 0.4366 0.4222 1.1605
H51? H 0.4365 0.5346 1.0627
H52? H 0.4410 0.4031 1.0040
C38? C 0.3919(6) -0.0281(15) 1.0345(17)
C39? C 0.4247(10) -0.106(2) 1.146(2)
C40? C 0.3810(11) -0.1721(19) 1.2250(14)
H53? H 0.3545 -0.1151 1.2639
H54? H 0.4049 -0.2178 1.2974
H55? H 0.3553 -0.2262 1.1646
C41? C 0.4734(15) -0.191(3) 1.108(4)
H56? H 0.4536 -0.2642 1.0722
H57? H 0.5032 -0.2086 1.1875
H58? H 0.4949 -0.1536 1.0390
C42? C 0.4553(8) -0.0041(18) 1.230(3)
H59? H 0.4880 0.0304 1.1850
H60? H 0.4732 -0.0341 1.3191
H61? H 0.4245 0.0570 1.2416
O9? O 0.0938(18) 0.0161(14) 0.464(2)
C43? C 0.0767(9) -0.0635(15) 0.5568(14)
H62? H 0.1040 -0.0542 0.6423
H63? H 0.0801 -0.1448 0.5234
H64? H 0.0340 -0.0480 0.5708
loop_
_geom_bond_atom_site_label_1
_geom_bond_atom_site_label_2
_geom_bond_site_symmetry_1
_geom_bond_site_symmetry_2
O1 C8 1_555 1_555
O2 C8 1_555 1_555
O3 C1 1_555 1_555
C1 C2 1_555 1_555
C2 H1 1_555 1_555
C3 C2 1_555 1_555
C4 C3 1_555 1_555
H2 C4 1_555 1_555
C5 C4 1_555 1_555
C6 C5 1_555 1_555
H3 C6 1_555 1_555
C7 C6 1_555 1_555
H4 C7 1_555 1_555
C8 C7 1_555 1_555
C9 O2 1_555 1_555
C10 C9 1_555 1_555
C11 O3 1_555 1_555
O4 C12 1_555 1_555
O5 C22 1_555 1_555
C12 C13 1_555 1_555
C13 C1 1_555 1_555
C14 C12 1_555 1_555
H5 C14 1_555 1_555
H6 C14 1_555 1_555
C15 C14 1_555 1_555
H7 C15 1_555 1_555
H8 C15 1_555 1_555
C16 C15 1_555 1_555
H9 C16 1_555 1_555
H10 C16 1_555 1_555
C17 C16 1_555 1_555
H11 C17 1_555 1_555
H12 C17 1_555 1_555
H13 C17 1_555 1_555
C18 C13 1_555 1_555
H14 C18 1_555 1_555
H15 C18 1_555 1_555
C19 C18 1_555 1_555
H16 C19 1_555 1_555
H17 C19 1_555 1_555
C20 C19 1_555 1_555
H18 C20 1_555 1_555
H19 C20 1_555 1_555
C21 C20 1_555 1_555
H20 C21 1_555 1_555
H21 C21 1_555 1_555
H22 C21 1_555 1_555
C22 O4 1_555 1_555
C23 C22 1_555 1_555
C24 C23 1_555 1_555
H23 C24 1_555 1_555
H24 C24 1_555 1_555
H25 C24 1_555 1_555
C25 C23 1_555 1_555
H26 C25 1_555 1_555
H27 C25 1_555 1_555
H28 C25 1_555 1_555
C26 C23 1_555 1_555
H29 C26 1_555 1_555
H30 C26 1_555 1_555
H31 C26 1_555 1_555
O6 C10 1_555 1_555
C27 O6 1_555 1_555
H32 C27 1_555 1_555
H33 C27 1_555 1_555
H34 C27 1_555 1_555
C3 C11 1_555 1_555
C5 C9 1_555 1_555
C10 C11 1_555 1_555

#END
