
#######################################################################
#
#                 Cambridge Crystallographic Data Centre
#                                CCDC 
#
#######################################################################
#
# If this CIF has been generated from an entry in the Cambridge 
# Structural Database, then it will include bibliographic, chemical, 
# crystal, experimental, refinement or atomic coordinate data resulting 
# from the CCDC's data processing and validation procedures.
#
#######################################################################

data_SOVZIO
_chemical_formula_moiety         'C26 H30 O7'
_chemical_name_systematic        
11-hydroxy-1,3-dimethoxy-4,13,13,14a-tetramethyl-4,5,5a,13,14,14a-hexahydro-1H,3H,6H-cyclopenta[4',5']isochromeno[6',5':4,5]furo[3,2-c]chromen-6-one
_symmetry_cell_setting           orthorhombic
_symmetry_space_group_name_H-M   'P 21 21 21'
_symmetry_Int_Tables_number      19
_space_group_name_Hall           'P 2ac 2ab'
loop_
_symmetry_equiv_pos_site_id
_symmetry_equiv_pos_as_xyz
1 x,y,z
2 1/2-x,-y,1/2+z
3 1/2+x,1/2-y,-z
4 -x,1/2+y,1/2-z
_cell_length_a                   12.0469(7)
_cell_length_b                   12.5034(10)
_cell_length_c                   15.3775(8)
_cell_angle_alpha                90
_cell_angle_beta                 90
_cell_angle_gamma                90
_cell_volume                     2316.27
_cell_formula_units_Z            4
loop_
_atom_site_label
_atom_site_type_symbol
_atom_site_fract_x
_atom_site_fract_y
_atom_site_fract_z
O1 O -0.90783(9) -0.06589(10) -0.03563(7)
O2 O -1.24126(9) 0.27838(8) 0.29365(7)
O3 O -1.27259(9) 0.21055(9) 0.42904(7)
C1 C -0.71103(13) 0.06848(12) 0.26727(10)
O4 O -1.34310(9) 0.23877(9) 0.16852(8)
C2 C -0.87549(13) -0.03268(12) 0.03495(10)
C3 C -1.13349(13) 0.14899(12) 0.08181(10)
H1 H -1.0567 0.1728 0.0735
C4 C -0.93774(12) -0.01650(12) 0.11223(10)
O5 O -0.76518(9) 0.07488(10) 0.34395(7)
H2 H -0.7200 0.0804 0.3836
O6 O -0.76408(9) -0.00867(9) 0.03924(7)
O7 O -0.95552(8) 0.00863(9) 0.25708(6)
C5 C -1.25586(13) 0.18125(12) 0.34294(10)
H3 H -1.3196 0.1407 0.3210
C6 C -0.71294(13) 0.02432(12) 0.11435(10)
C7 C -0.88782(12) 0.00864(12) 0.18825(9)
C8 C -0.54454(13) 0.08063(13) 0.18025(11)
H4 H -0.4691 0.0959 0.1765
C9 C -1.13583(12) 0.02814(12) 0.06466(9)
H5 H -1.1128 0.0149 0.0052
H6 H -1.2114 0.0026 0.0709
C10 C -1.20508(15) 0.20838(14) 0.01445(10)
H7 H -1.2800 0.1825 0.0174
H8 H -1.1758 0.1960 -0.0427
H9 H -1.2040 0.2837 0.0267
C11 C -1.16323(12) 0.16970(12) 0.17689(9)
C12 C -0.77117(13) 0.03411(12) 0.19319(10)
C13 C -1.15036(12) 0.11569(12) 0.33540(10)
C14 C -1.16164(13) -0.00210(13) 0.36546(10)
H10 H -1.2359 -0.0150 0.3874
H11 H -1.1091 -0.0169 0.4117
C15 C -1.07540(14) -0.17694(14) 0.31172(10)
H12 H -1.1183 -0.2164 0.3534
H13 H -1.0052 -0.1577 0.3369
H14 H -1.0632 -0.2204 0.2611
C16 C -1.12658(11) 0.10460(12) 0.23877(9)
C17 C -1.23648(13) 0.26226(12) 0.20264(10)
H15 H -1.2085 0.3275 0.1750
C18 C -1.37961(14) 0.25497(15) 0.44550(12)
H16 H -1.3809 0.2859 0.5026
H17 H -1.4347 0.1996 0.4418
H18 H -1.3953 0.3093 0.4031
C19 C -1.06021(12) -0.03564(12) 0.12642(9)
H19 H -1.0762 -0.1122 0.1206
C20 C -0.60090(13) 0.04619(14) 0.10665(11)
H20 H -0.5644 0.0381 0.0538
C21 C -0.59876(13) 0.09267(14) 0.25921(11)
H21 H -0.5596 0.1172 0.3074
C22 C -1.05616(13) 0.17240(14) 0.38495(10)
H22 H -1.0693 0.1671 0.4464
H23 H -1.0539 0.2464 0.3683
H24 H -0.9866 0.1391 0.3710
C23 C -1.07227(12) -0.00190(12) 0.22315(9)
C24 C -1.13806(12) -0.07600(12) 0.28592(9)
C25 C -1.24886(13) -0.10684(13) 0.24290(11)
H25 H -1.2890 -0.0432 0.2278
H26 H -1.2921 -0.1487 0.2828
H27 H -1.2346 -0.1479 0.1913
C26 C -1.41572(15) 0.32886(15) 0.16881(15)
H28 H -1.4242 0.3546 0.2272
H29 H -1.4869 0.3081 0.1463
H30 H -1.3850 0.3844 0.1331
loop_
_geom_bond_atom_site_label_1
_geom_bond_atom_site_label_2
_geom_bond_site_symmetry_1
_geom_bond_site_symmetry_2
O1 C2 1_555 1_555
O2 C5 1_555 1_555
O3 C5 1_555 1_555
C1 O5 1_555 1_555
O4 C17 1_555 1_555
C2 C4 1_555 1_555
C3 H1 1_555 1_555
C4 C7 1_555 1_555
O5 H2 1_555 1_555
O6 C2 1_555 1_555
O7 C7 1_555 1_555
C5 H3 1_555 1_555
C6 O6 1_555 1_555
C7 C12 1_555 1_555
C8 H4 1_555 1_555
C9 C3 1_555 1_555
H5 C9 1_555 1_555
H6 C9 1_555 1_555
C10 C3 1_555 1_555
H7 C10 1_555 1_555
H8 C10 1_555 1_555
H9 C10 1_555 1_555
C11 C3 1_555 1_555
C12 C1 1_555 1_555
C13 C5 1_555 1_555
C14 C13 1_555 1_555
H10 C14 1_555 1_555
H11 C14 1_555 1_555
C15 H12 1_555 1_555
H13 C15 1_555 1_555
H14 C15 1_555 1_555
C16 C11 1_555 1_555
C17 O2 1_555 1_555
H15 C17 1_555 1_555
C18 O3 1_555 1_555
H16 C18 1_555 1_555
H17 C18 1_555 1_555
H18 C18 1_555 1_555
C19 C4 1_555 1_555
H19 C19 1_555 1_555
C20 C6 1_555 1_555
H20 C20 1_555 1_555
C21 C1 1_555 1_555
H21 C21 1_555 1_555
C22 C13 1_555 1_555
H22 C22 1_555 1_555
H23 C22 1_555 1_555
H24 C22 1_555 1_555
C23 O7 1_555 1_555
C24 C14 1_555 1_555
C25 C24 1_555 1_555
H25 C25 1_555 1_555
H26 C25 1_555 1_555
H27 C25 1_555 1_555
C26 O4 1_555 1_555
H28 C26 1_555 1_555
H29 C26 1_555 1_555
H30 C26 1_555 1_555
C6 C12 1_555 1_555
C8 C20 1_555 1_555
C8 C21 1_555 1_555
C9 C19 1_555 1_555
C11 C17 1_555 1_555
C13 C16 1_555 1_555
C15 C24 1_555 1_555
C16 C23 1_555 1_555
C19 C23 1_555 1_555
C23 C24 1_555 1_555

#END
