
#######################################################################
#
#                 Cambridge Crystallographic Data Centre
#                                CCDC 
#
#######################################################################
#
# If this CIF has been generated from an entry in the Cambridge 
# Structural Database, then it will include bibliographic, chemical, 
# crystal, experimental, refinement or atomic coordinate data resulting 
# from the CCDC's data processing and validation procedures.
#
#######################################################################

data_SOWFOB
_chemical_formula_moiety         'C12 H12 N2 O1'
_chemical_name_systematic        
5-methyl-3,4-dihydropyrimido[1,6-a]indol-1(2H)-one
_symmetry_cell_setting           monoclinic
_symmetry_space_group_name_H-M   'C 2/c'
_symmetry_Int_Tables_number      15
_space_group_name_Hall           '-C 2yn'
loop_
_symmetry_equiv_pos_site_id
_symmetry_equiv_pos_as_xyz
1 x,y,z
2 -x,y,1/2-z
3 1/2+x,1/2+y,z
4 1/2-x,1/2+y,1/2-z
5 -x,-y,-z
6 x,-y,1/2+z
7 1/2-x,1/2-y,-z
8 1/2+x,1/2-y,1/2+z
_cell_length_a                   17.184(3)
_cell_length_b                   10.142(2)
_cell_length_c                   12.177(2)
_cell_angle_alpha                90
_cell_angle_beta                 106.912(2)
_cell_angle_gamma                90
_cell_volume                     2030.43
_exptl_crystal_colour            colorless
_exptl_crystal_description       block
_cell_formula_units_Z            8
loop_
_atom_site_label
_atom_site_type_symbol
_atom_site_fract_x
_atom_site_fract_y
_atom_site_fract_z
N1 N 0.69933(8) 0.10205(14) 0.58318(12)
O1 O 0.59510(8) -0.02246(15) 0.47267(11)
N2 N 0.56844(9) 0.13115(18) 0.59230(14)
H1 H 0.5168 0.1256 0.5608
C1 C 0.83524(10) 0.10933(19) 0.61738(14)
C2 C 0.72921(11) 0.21255(17) 0.65274(14)
C3 C 0.76502(10) 0.03812(17) 0.56027(14)
C4 C 0.81063(11) 0.22011(19) 0.67407(14)
C5 C 0.61769(10) 0.06466(19) 0.54467(14)
C6 C 0.76825(12) -0.07525(19) 0.49851(17)
H2 H 0.7212 -0.1205 0.4598
C7 C 0.66844(12) 0.2963(2) 0.68545(17)
H3 H 0.6490 0.3646 0.6282
H4 H 0.6937 0.3387 0.7586
C8 C 0.91082(11) 0.0637(2) 0.61237(17)
H5 H 0.9581 0.1097 0.6488
C9 C 0.59771(12) 0.2123(2) 0.69442(17)
H6 H 0.6149 0.1563 0.7618
H7 H 0.5541 0.2686 0.7027
C10 C 0.84440(13) -0.1188(2) 0.49664(19)
H8 H 0.8485 -0.1956 0.4569
C11 C 0.86533(15) 0.3245(2) 0.74176(18)
H9 H 0.9205 0.3063 0.7432
H10 H 0.8614 0.3253 0.8188
H11 H 0.8493 0.4089 0.7067
C12 C 0.91420(13) -0.0507(2) 0.5525(2)
H12 H 0.9644 -0.0823 0.5497
loop_
_geom_bond_atom_site_label_1
_geom_bond_atom_site_label_2
_geom_bond_site_symmetry_1
_geom_bond_site_symmetry_2
N1 C2 1_555 1_555
O1 C5 1_555 1_555
N2 H1 1_555 1_555
C1 C3 1_555 1_555
C2 C4 1_555 1_555
C3 N1 1_555 1_555
C4 C1 1_555 1_555
C5 N1 1_555 1_555
C6 C3 1_555 1_555
H2 C6 1_555 1_555
C7 C2 1_555 1_555
H3 C7 1_555 1_555
H4 C7 1_555 1_555
C8 C1 1_555 1_555
H5 C8 1_555 1_555
C9 N2 1_555 1_555
H6 C9 1_555 1_555
H7 C9 1_555 1_555
C10 C6 1_555 1_555
H8 C10 1_555 1_555
C11 C4 1_555 1_555
H9 C11 1_555 1_555
H10 C11 1_555 1_555
H11 C11 1_555 1_555
C12 C8 1_555 1_555
H12 C12 1_555 1_555
N2 C5 1_555 1_555
C7 C9 1_555 1_555
C10 C12 1_555 1_555

#END
