
#######################################################################
#
#                 Cambridge Crystallographic Data Centre
#                                CCDC 
#
#######################################################################
#
# If this CIF has been generated from an entry in the Cambridge 
# Structural Database, then it will include bibliographic, chemical, 
# crystal, experimental, refinement or atomic coordinate data resulting 
# from the CCDC's data processing and validation procedures.
#
#######################################################################

data_SOWGUI
_chemical_formula_moiety         'C25 H26 F1 N1 O2 S1'
_chemical_name_systematic        
N-(5-fluoro-1,4-diphenylhex-5-en-3-yl)-4-methylbenzenesulfonamide
_symmetry_cell_setting           orthorhombic
_symmetry_space_group_name_H-M   'P 21 21 21'
_symmetry_Int_Tables_number      19
_space_group_name_Hall           'P 2ac 2ab'
loop_
_symmetry_equiv_pos_site_id
_symmetry_equiv_pos_as_xyz
1 x,y,z
2 1/2-x,-y,1/2+z
3 1/2+x,1/2-y,-z
4 -x,1/2+y,1/2-z
_cell_length_a                   7.5020(9)
_cell_length_b                   24.273(3)
_cell_length_c                   12.3458(16)
_cell_angle_alpha                90
_cell_angle_beta                 90
_cell_angle_gamma                90
_cell_volume                     2248.12
_exptl_crystal_colour            colorless
_exptl_crystal_description       prism
_cell_formula_units_Z            4
loop_
_atom_site_label
_atom_site_type_symbol
_atom_site_fract_x
_atom_site_fract_y
_atom_site_fract_z
C1 C 1.3441(5) 0.61787(14) 0.2982(3)
H1 H 1.3663 0.5858 0.3372
H2 H 1.4319 0.6325 0.2535
C2 C 1.1900(4) 0.64220(10) 0.3062(2)
C3 C 1.1266(3) 0.69347(10) 0.2526(2)
H3 H 1.2125 0.7021 0.1953
C4 C 1.1235(3) 0.74254(10) 0.32903(18)
C5 C 1.2086(4) 0.79070(11) 0.2993(2)
H4 H 1.2676 0.7927 0.2331
C6 C 1.2066(4) 0.83592(12) 0.3673(3)
H5 H 1.2631 0.8683 0.346
C7 C 1.1231(4) 0.83364(13) 0.4647(3)
H6 H 1.1235 0.8641 0.5103
C8 C 1.0384(4) 0.78631(13) 0.4952(2)
H7 H 0.9813 0.7846 0.562
C9 C 1.0370(4) 0.74110(12) 0.4276(2)
H8 H 0.9771 0.7093 0.4487
C10 C 0.9438(3) 0.68470(10) 0.19666(19)
H9 H 0.852 0.681 0.2527
C11 C 0.9412(3) 0.63335(10) 0.1264(2)
H10 H 0.9533 0.6013 0.1726
H11 H 1.0434 0.6342 0.0783
C12 C 0.7722(4) 0.62719(12) 0.0584(2)
H12 H 0.6692 0.628 0.106
H13 H 0.763 0.6582 0.0093
C13 C 0.7693(4) 0.57482(11) -0.0059(2)
C14 C 0.8636(4) 0.57019(13) -0.1002(3)
H14 H 0.9296 0.6001 -0.125
C15 C 0.8627(5) 0.52212(17) -0.1590(3)
H15 H 0.9284 0.5197 -0.2227
C16 C 0.7669(5) 0.47820(14) -0.1248(4)
H16 H 0.7655 0.4458 -0.1651
C17 C 0.6725(5) 0.48195(14) -0.0309(3)
H17 H 0.6073 0.4519 -0.0062
C18 C 0.6735(4) 0.52977(14) 0.0270(3)
H18 H 0.6074 0.5319 0.0906
C19 C 0.7557(3) 0.82914(10) 0.2012(2)
C20 C 0.8417(4) 0.87179(13) 0.1497(3)
H19 H 0.8824 0.8676 0.079
C21 C 0.8669(4) 0.92069(13) 0.2035(3)
H20 H 0.9238 0.9496 0.1681
C22 C 0.8104(4) 0.92809(12) 0.3081(3)
C23 C 0.7260(4) 0.88511(12) 0.3566(2)
H21 H 0.6853 0.8894 0.4273
C24 C 0.6984(4) 0.83552(12) 0.3052(2)
H22 H 0.6415 0.8067 0.341
C25 C 0.8447(6) 0.98140(15) 0.3658(4)
H23 H 0.7385 0.9927 0.4032
H24 H 0.8779 1.0091 0.3142
H25 H 0.9395 0.9765 0.4172
F1 F 1.0654(3) 0.61949(7) 0.37223(15)
N1 N 0.9055(2) 0.73349(8) 0.13297(16)
H26 H 0.989 0.7457 0.0917
O1 O 0.5933(2) 0.73546(9) 0.1933(2)
O2 O 0.6846(3) 0.78070(9) 0.02321(18)
S1 S 0.72059(8) 0.76639(3) 0.13313(6)
loop_
_geom_bond_atom_site_label_1
_geom_bond_atom_site_label_2
_geom_bond_site_symmetry_1
_geom_bond_site_symmetry_2
C1 H1 1_555 1_555
H2 C1 1_555 1_555
C2 C1 1_555 1_555
C3 C2 1_555 1_555
H3 C3 1_555 1_555
C4 C3 1_555 1_555
C5 C4 1_555 1_555
H4 C5 1_555 1_555
C6 C5 1_555 1_555
H5 C6 1_555 1_555
C7 C6 1_555 1_555
H6 C7 1_555 1_555
C8 C7 1_555 1_555
H7 C8 1_555 1_555
C9 C4 1_555 1_555
H8 C9 1_555 1_555
C10 C3 1_555 1_555
H9 C10 1_555 1_555
C11 C10 1_555 1_555
H10 C11 1_555 1_555
H11 C11 1_555 1_555
C12 C11 1_555 1_555
H12 C12 1_555 1_555
H13 C12 1_555 1_555
C13 C12 1_555 1_555
C14 C13 1_555 1_555
H14 C14 1_555 1_555
C15 C14 1_555 1_555
H15 C15 1_555 1_555
C16 C15 1_555 1_555
H16 C16 1_555 1_555
C17 C16 1_555 1_555
H17 C17 1_555 1_555
C18 C13 1_555 1_555
H18 C18 1_555 1_555
C19 C20 1_555 1_555
C20 H19 1_555 1_555
C21 C20 1_555 1_555
H20 C21 1_555 1_555
C22 C21 1_555 1_555
C23 C22 1_555 1_555
H21 C23 1_555 1_555
C24 C19 1_555 1_555
H22 C24 1_555 1_555
C25 C22 1_555 1_555
H23 C25 1_555 1_555
H24 C25 1_555 1_555
H25 C25 1_555 1_555
F1 C2 1_555 1_555
N1 C10 1_555 1_555
H26 N1 1_555 1_555
O1 S1 1_555 1_555
O2 S1 1_555 1_555
S1 C19 1_555 1_555
C8 C9 1_555 1_555
C17 C18 1_555 1_555
C23 C24 1_555 1_555
N1 S1 1_555 1_555

#END
