
#######################################################################
#
#                 Cambridge Crystallographic Data Centre
#                                CCDC 
#
#######################################################################
#
# If this CIF has been generated from an entry in the Cambridge 
# Structural Database, then it will include bibliographic, chemical, 
# crystal, experimental, refinement or atomic coordinate data resulting 
# from the CCDC's data processing and validation procedures.
#
#######################################################################

data_SOWGIW
_chemical_formula_moiety         'C14 H19 Cl1 F1 N1 O1 S1'
_chemical_name_systematic        
N-(1-(4-chlorophenyl)-3-fluorobut-3-en-1-yl)-2-methylpropane-2-sulfinamide
_symmetry_cell_setting           orthorhombic
_symmetry_space_group_name_H-M   'P 21 21 21'
_symmetry_Int_Tables_number      19
_space_group_name_Hall           'P 2ac 2ab'
loop_
_symmetry_equiv_pos_site_id
_symmetry_equiv_pos_as_xyz
1 x,y,z
2 1/2-x,-y,1/2+z
3 1/2+x,1/2-y,-z
4 -x,1/2+y,1/2-z
_cell_length_a                   5.8152(7)
_cell_length_b                   14.7400(17)
_cell_length_c                   18.259(2)
_cell_angle_alpha                90
_cell_angle_beta                 90
_cell_angle_gamma                90
_cell_volume                     1565.09
_exptl_crystal_colour            colorless
_exptl_crystal_description       prism
_cell_formula_units_Z            4
loop_
_atom_site_label
_atom_site_type_symbol
_atom_site_fract_x
_atom_site_fract_y
_atom_site_fract_z
C1 C 0.5689(6) 0.4785(2) 0.95554(18)
H1 H 0.4898 0.4268 0.9752
H2 H 0.6802 0.4998 0.9904
H3 H 0.6456 0.4616 0.911
C2 C 0.2664(6) 0.5835(2) 1.00744(16)
H4 H 0.1502 0.6268 0.9944
H5 H 0.3719 0.6106 1.0414
H6 H 0.1955 0.5315 1.0297
C3 C 0.2306(6) 0.5270(2) 0.87857(18)
H7 H 0.1528 0.472 0.892
H8 H 0.3157 0.5173 0.8342
H9 H 0.1197 0.5743 0.871
C4 C 0.3948(5) 0.55442(18) 0.93949(14)
C5 C 0.4411(5) 0.80082(17) 0.84347(14)
H10 H 0.5945 0.8218 0.8579
C6 C 0.2707(6) 0.87754(19) 0.85491(15)
H11 H 0.1181 0.8564 0.8418
H12 H 0.2684 0.8936 0.9064
C7 C 0.3251(7) 0.9608(2) 0.81080(18)
C8 C 0.2016(10) 1.0107(3) 0.7716(2)
H13 H 0.2642 1.062 0.7496
H14 H 0.0475 0.9965 0.7645
C9 C 0.4503(5) 0.76852(17) 0.76436(13)
C10 C 0.6369(5) 0.7886(2) 0.72112(16)
H15 H 0.7576 0.8221 0.7408
C11 C 0.6494(6) 0.7602(2) 0.64887(15)
H16 H 0.7769 0.7738 0.6202
C12 C 0.4681(6) 0.71132(19) 0.62060(15)
C13 C 0.2807(6) 0.6905(2) 0.66219(18)
H17 H 0.1603 0.657 0.6423
C14 C 0.2711(5) 0.7195(2) 0.73409(16)
H18 H 0.1429 0.7058 0.7624
Cl1 Cl 0.4865(2) 0.67201(7) 0.53069(5)
F1 F 0.5537(5) 0.98610(17) 0.81907(16)
N1 N 0.3710(4) 0.72623(15) 0.89294(12)
H19 H 0.2381 0.7234 0.9135
O1 O 0.7286(4) 0.67492(13) 0.96643(11)
S1 S 0.57511(11) 0.64816(4) 0.90488(3)
loop_
_geom_bond_atom_site_label_1
_geom_bond_atom_site_label_2
_geom_bond_site_symmetry_1
_geom_bond_site_symmetry_2
C1 H1 1_555 1_555
H2 C1 1_555 1_555
H3 C1 1_555 1_555
C2 H4 1_555 1_555
H5 C2 1_555 1_555
H6 C2 1_555 1_555
C3 H7 1_555 1_555
H8 C3 1_555 1_555
H9 C3 1_555 1_555
C4 C1 1_555 1_555
C5 H10 1_555 1_555
C6 C5 1_555 1_555
H11 C6 1_555 1_555
H12 C6 1_555 1_555
C7 C6 1_555 1_555
C8 C7 1_555 1_555
H13 C8 1_555 1_555
H14 C8 1_555 1_555
C9 C5 1_555 1_555
C10 C9 1_555 1_555
H15 C10 1_555 1_555
C11 C10 1_555 1_555
H16 C11 1_555 1_555
C12 C11 1_555 1_555
C13 C12 1_555 1_555
H17 C13 1_555 1_555
C14 C9 1_555 1_555
H18 C14 1_555 1_555
Cl1 C12 1_555 1_555
F1 C7 1_555 1_555
N1 C5 1_555 1_555
H19 N1 1_555 1_555
O1 S1 1_555 1_555
S1 C4 1_555 1_555
C2 C4 1_555 1_555
C3 C4 1_555 1_555
C13 C14 1_555 1_555
N1 S1 1_555 1_555

#END
