
#######################################################################
#
#                 Cambridge Crystallographic Data Centre
#                                CCDC 
#
#######################################################################
#
# If this CIF has been generated from an entry in the Cambridge 
# Structural Database, then it will include bibliographic, chemical, 
# crystal, experimental, refinement or atomic coordinate data resulting 
# from the CCDC's data processing and validation procedures.
#
#######################################################################

data_SOWJEV
_chemical_formula_moiety         'C25 H34 N2 O7 S1'
_chemical_name_systematic        
'1-(methoxymethyl)-7-((1-(methoxymethyl)-7-((4-methylphenyl)sulfonyl)-7-azabicyclo[2.2.1]hept-2-yl)carbonyl)-7-azabicyclo[2.2.1]heptane-2-carboxylic acid'
_symmetry_cell_setting           orthorhombic
_symmetry_space_group_name_H-M   'P 21 21 21'
_symmetry_Int_Tables_number      19
_space_group_name_Hall           'P 2ac 2ab'
loop_
_symmetry_equiv_pos_site_id
_symmetry_equiv_pos_as_xyz
1 x,y,z
2 1/2-x,-y,1/2+z
3 1/2+x,1/2-y,-z
4 -x,1/2+y,1/2-z
_cell_length_a                   9.909(4)
_cell_length_b                   12.774(5)
_cell_length_c                   19.563(8)
_cell_angle_alpha                90
_cell_angle_beta                 90
_cell_angle_gamma                90
_cell_volume                     2476.24
_exptl_crystal_colour            colorless
_exptl_crystal_description       block
_cell_formula_units_Z            4
loop_
_atom_site_label
_atom_site_type_symbol
_atom_site_fract_x
_atom_site_fract_y
_atom_site_fract_z
C1 C 0.7589(2) 0.3412(2) 0.67288(12)
C2 C 0.8904(2) 0.38957(18) 0.70468(13)
H1 H 0.9281 0.3409 0.7384
C3 C 0.8360(2) 0.4880(2) 0.74177(13)
H2 H 0.8535 0.4845 0.7905
H3 H 0.8763 0.5513 0.7235
C4 C 0.6836(3) 0.4842(2) 0.72683(13)
H4 H 0.6279 0.5240 0.7591
C5 C 0.6597(3) 0.5117(2) 0.65128(13)
H5 H 0.7120 0.5724 0.6377
H6 H 0.5649 0.5248 0.6423
C6 C 0.7089(3) 0.4119(2) 0.61436(13)
H7 H 0.6358 0.3788 0.5894
H8 H 0.7815 0.4279 0.5828
C7 C 0.7649(3) 0.22706(19) 0.65287(12)
H9 H 0.6741 0.2005 0.6463
H10 H 0.8133 0.2198 0.6100
C8 C 0.8142(3) 0.0590(2) 0.69600(16)
H11 H 0.7199 0.0421 0.6973
H12 H 0.8601 0.0228 0.7322
H13 H 0.8513 0.0381 0.6528
C9 C 0.7270(2) 0.3109(2) 0.85720(12)
C10 C 0.8262(3) 0.2342(2) 0.86031(12)
H14 H 0.8275 0.1804 0.8283
C11 C 0.9229(3) 0.2382(2) 0.91117(12)
H15 H 0.9895 0.1870 0.9128
C12 C 0.9226(3) 0.31772(19) 0.96020(13)
C13 C 0.8226(3) 0.3946(2) 0.95582(13)
H16 H 0.8209 0.4486 0.9877
C14 C 0.7264(3) 0.3917(2) 0.90480(13)
H17 H 0.6610 0.4438 0.9023
C15 C 1.0222(3) 0.3170(2) 1.01801(14)
H18 H 1.0378 0.3874 1.0332
H19 H 1.1057 0.2869 1.0027
H20 H 0.9868 0.2762 1.0551
C16 C 0.9987(2) 0.41671(19) 0.65155(12)
C17 C 1.2216(2) 0.3578(2) 0.59958(12)
C18 C 1.2368(2) 0.24935(19) 0.56470(12)
H21 H 1.1768 0.2492 0.5248
C19 C 1.1748(2) 0.17320(19) 0.61805(12)
H22 H 1.0997 0.1345 0.5988
H23 H 1.2418 0.1242 0.6349
C20 C 1.1276(2) 0.2476(2) 0.67483(12)
H24 H 1.0552 0.2195 0.7036
C21 C 1.2502(2) 0.2880(2) 0.71464(13)
H25 H 1.3103 0.2313 0.7272
H26 H 1.2229 0.3253 0.7556
C22 C 1.3175(2) 0.3626(2) 0.66232(12)
H27 H 1.4073 0.3386 0.6504
H28 H 1.3234 0.4332 0.6802
C23 C 1.2368(2) 0.45072(19) 0.55344(12)
H29 H 1.2134 0.5139 0.5783
H30 H 1.3301 0.4566 0.5389
C24 C 1.1506(3) 0.5356(2) 0.45565(14)
H31 H 1.1125 0.5910 0.4826
H32 H 1.0974 0.5260 0.4151
H33 H 1.2413 0.5536 0.4431
C25 C 1.3767(3) 0.22521(19) 0.53919(12)
N1 N 0.6538(2) 0.37032(16) 0.72493(10)
N2 N 1.08886(19) 0.34134(15) 0.63452(10)
S1 S 0.60142(6) 0.30806(5) 0.79275(3)
O1 O 0.57777(17) 0.20142(13) 0.77344(9)
O2 O 0.49164(17) 0.37018(14) 0.81814(9)
O3 O 0.83084(16) 0.16805(13) 0.70446(9)
O4 O 0.99822(18) 0.50283(14) 0.62395(10)
O5 O 1.15135(17) 0.44102(13) 0.49445(8)
O6 O 1.45656(18) 0.28970(14) 0.51982(10)
O7 O 1.4014(2) 0.12269(13) 0.53669(10)
H34 H 1.479(3) 0.115(2) 0.5236(16)
loop_
_geom_bond_atom_site_label_1
_geom_bond_atom_site_label_2
_geom_bond_site_symmetry_1
_geom_bond_site_symmetry_2
C1 C2 1_555 1_555
C2 H1 1_555 1_555
C3 C2 1_555 1_555
H2 C3 1_555 1_555
H3 C3 1_555 1_555
C4 C3 1_555 1_555
H4 C4 1_555 1_555
C5 C4 1_555 1_555
H5 C5 1_555 1_555
H6 C5 1_555 1_555
C6 C1 1_555 1_555
H7 C6 1_555 1_555
H8 C6 1_555 1_555
C7 C1 1_555 1_555
H9 C7 1_555 1_555
H10 C7 1_555 1_555
C8 H11 1_555 1_555
H12 C8 1_555 1_555
H13 C8 1_555 1_555
C9 C10 1_555 1_555
C10 H14 1_555 1_555
C11 C10 1_555 1_555
H15 C11 1_555 1_555
C12 C11 1_555 1_555
C13 C12 1_555 1_555
H16 C13 1_555 1_555
C14 C9 1_555 1_555
H17 C14 1_555 1_555
C15 C12 1_555 1_555
H18 C15 1_555 1_555
H19 C15 1_555 1_555
H20 C15 1_555 1_555
C16 C2 1_555 1_555
C17 C18 1_555 1_555
C18 H21 1_555 1_555
C19 C18 1_555 1_555
H22 C19 1_555 1_555
H23 C19 1_555 1_555
C20 C19 1_555 1_555
H24 C20 1_555 1_555
C21 C20 1_555 1_555
H25 C21 1_555 1_555
H26 C21 1_555 1_555
C22 C17 1_555 1_555
H27 C22 1_555 1_555
H28 C22 1_555 1_555
C23 C17 1_555 1_555
H29 C23 1_555 1_555
H30 C23 1_555 1_555
C24 H31 1_555 1_555
H32 C24 1_555 1_555
H33 C24 1_555 1_555
C25 C18 1_555 1_555
N1 C1 1_555 1_555
N2 C16 1_555 1_555
S1 C9 1_555 1_555
O1 S1 1_555 1_555
O2 S1 1_555 1_555
O3 C7 1_555 1_555
O4 C16 1_555 1_555
O5 C23 1_555 1_555
O6 C25 1_555 1_555
O7 C25 1_555 1_555
H34 O7 1_555 1_555
C4 N1 1_555 1_555
C5 C6 1_555 1_555
C8 O3 1_555 1_555
C13 C14 1_555 1_555
C17 N2 1_555 1_555
C20 N2 1_555 1_555
C21 C22 1_555 1_555
C24 O5 1_555 1_555
N1 S1 1_555 1_555

#END
