
#######################################################################
#
#                 Cambridge Crystallographic Data Centre
#                                CCDC 
#
#######################################################################
#
# If this CIF has been generated from an entry in the Cambridge 
# Structural Database, then it will include bibliographic, chemical, 
# crystal, experimental, refinement or atomic coordinate data resulting 
# from the CCDC's data processing and validation procedures.
#
#######################################################################

data_SOWKUL
_chemical_name_common            
'2-(3,4-Dihydroxyphenyl)-5,7-dihydroxy-3-((3,4,5-trihydroxy-6-methyltetrahydro-2H-pyran-2-yl)oxy)-4H-chromen-4-one methanol solvate monohydrate'
_chemical_formula_moiety         'C21 H20 O11,C1 H4 O1,H2 O1'
_chemical_name_systematic        'Quercitrin methanol solvate monohydrate'
_chemical_properties_biological  
'antioxidant, acetylcholinesterase and serine/threonine kinase pim-2 inhibition activity, heptatoprotection and antimalarial activity'
_symmetry_cell_setting           monoclinic
_symmetry_space_group_name_H-M   'P 21'
_symmetry_Int_Tables_number      4
_space_group_name_Hall           'P 2yb'
loop_
_symmetry_equiv_pos_site_id
_symmetry_equiv_pos_as_xyz
1 x,y,z
2 -x,1/2+y,-z
_cell_length_a                   12.8074(10)
_cell_length_b                   7.0896(6)
_cell_length_c                   13.4584(11)
_cell_angle_alpha                90
_cell_angle_beta                 115.3610(10)
_cell_angle_gamma                90
_cell_volume                     1104.24
_exptl_crystal_colour            yellow
_exptl_crystal_description       block
_cell_formula_units_Z            2
loop_
_atom_site_label
_atom_site_type_symbol
_atom_site_fract_x
_atom_site_fract_y
_atom_site_fract_z
O1 O 0.2142(2) 0.4590(4) 0.28131(18)
H1 H 0.184(3) 0.398(6) 0.315(3)
H2 H 0.200(3) 0.558(7) 0.289(3)
O2 O 0.54488(12) 0.3229(2) 0.13471(12)
O3 O 0.87585(14) 0.1920(3) 0.34681(13)
O4 O 0.82334(15) 0.2523(4) 0.50941(14)
H3 H 0.8635 0.2266 0.4775
O5 O 0.44114(17) 0.4161(3) 0.43016(15)
H4 H 0.3765 0.4246 0.3793
O6 O 0.65508(17) 0.4284(4) -0.25150(16)
H5 H 0.7246 0.4283 -0.2114
O7 O 0.42585(16) 0.3684(3) -0.36479(13)
H6 H 0.4746 0.3940 -0.3870
O8 O 0.81572(13) 0.1865(2) 0.12567(13)
O9 O 0.81047(12) -0.1467(2) 0.12869(13)
O10 O 0.85485(17) -0.1340(3) -0.06273(14)
H7 H 0.8323 -0.0938 -0.1257
O11 O 1.08877(16) -0.0052(3) 0.05943(18)
H8 H 1.1057 0.1016 0.0481
O12 O 1.12971(13) -0.1772(3) 0.25985(14)
H9 H 1.1339 -0.1011 0.3073
C1 C 0.62452(19) 0.2868(3) 0.09468(18)
C2 C 0.73409(18) 0.2308(3) 0.16380(18)
C3 C 0.77274(19) 0.2322(3) 0.28163(19)
C4 C 0.7138(2) 0.2902(4) 0.43432(19)
C5 C 0.6311(2) 0.3364(5) 0.4679(2)
H10 H 0.6494 0.3437 0.5426
C6 C 0.5182(2) 0.3732(4) 0.3901(2)
C7 C 0.4887(2) 0.3652(4) 0.27783(19)
H11 H 0.4133 0.3882 0.2263
C8 C 0.57399(19) 0.3224(3) 0.24547(17)
C9 C 0.6880(2) 0.2821(3) 0.3201(2)
C10 C 0.57553(18) 0.3122(3) -0.02504(18)
C11 C 0.6440(2) 0.3635(4) -0.07828(19)
H12 H 0.7225 0.3854 -0.0372
C12 C 0.5961(2) 0.3822(4) -0.19170(19)
C13 C 0.4773(2) 0.3536(4) -0.25349(18)
C14 C 0.4094(2) 0.3081(4) -0.2005(2)
H13 H 0.3303 0.2920 -0.2413
C15 C 0.4572(2) 0.2861(4) -0.08784(19)
H14 H 0.4102 0.2537 -0.0535
C16 C 0.79686(19) 0.0137(3) 0.06390(18)
H15 H 0.7180 0.0147 0.0053
C17 C 0.8809(2) 0.0201(4) 0.0117(2)
H16 H 0.8714 0.1390 -0.0285
C18 C 1.00492(19) 0.0052(4) 0.1016(2)
H17 H 1.0212 0.1164 0.1492
C19 C 1.01730(18) -0.1690(4) 0.17081(19)
H18 H 1.0080 -0.2797 0.1242
C20 C 0.92448(19) -0.1791(3) 0.21494(19)
H19 H 0.9411 -0.0834 0.2723
C21 C 0.9215(2) -0.3711(4) 0.2624(2)
H20 H 0.8632 -0.3725 0.2893
H21 H 0.9954 -0.3975 0.3218
H22 H 0.9041 -0.4653 0.2063
O13 O 1.10034(16) 0.2141(4) 0.36405(16)
H23 H 1.0297 0.2168 0.3397
C22 C 1.1495(3) 0.2372(6) 0.4794(3)
H24 H 1.2320 0.2456 0.5071
H25 H 1.1297 0.1310 0.5122
H26 H 1.1202 0.3506 0.4972
loop_
_geom_bond_atom_site_label_1
_geom_bond_atom_site_label_2
_geom_bond_site_symmetry_1
_geom_bond_site_symmetry_2
O1 H1 1_555 1_555
H2 O1 1_555 1_555
O2 C1 1_555 1_555
O3 C3 1_555 1_555
O4 H3 1_555 1_555
O5 H4 1_555 1_555
O6 H5 1_555 1_555
O7 H6 1_555 1_555
O8 C2 1_555 1_555
O9 C16 1_555 1_555
O10 H7 1_555 1_555
O11 H8 1_555 1_555
O12 H9 1_555 1_555
C1 C2 1_555 1_555
C2 C3 1_555 1_555
C3 C9 1_555 1_555
C4 O4 1_555 1_555
C5 C4 1_555 1_555
H10 C5 1_555 1_555
C6 O5 1_555 1_555
C7 C6 1_555 1_555
H11 C7 1_555 1_555
C8 O2 1_555 1_555
C9 C4 1_555 1_555
C10 C1 1_555 1_555
C11 C10 1_555 1_555
H12 C11 1_555 1_555
C12 O6 1_555 1_555
C13 O7 1_555 1_555
C14 C13 1_555 1_555
H13 C14 1_555 1_555
C15 C10 1_555 1_555
H14 C15 1_555 1_555
C16 O8 1_555 1_555
H15 C16 1_555 1_555
C17 O10 1_555 1_555
H16 C17 1_555 1_555
C18 O11 1_555 1_555
H17 C18 1_555 1_555
C19 O12 1_555 1_555
H18 C19 1_555 1_555
C20 O9 1_555 1_555
H19 C20 1_555 1_555
C21 C20 1_555 1_555
H20 C21 1_555 1_555
H21 C21 1_555 1_555
H22 C21 1_555 1_555
O13 H23 1_555 1_555
C22 O13 1_555 1_555
H24 C22 1_555 1_555
H25 C22 1_555 1_555
H26 C22 1_555 1_555
C5 C6 1_555 1_555
C7 C8 1_555 1_555
C8 C9 1_555 1_555
C11 C12 1_555 1_555
C12 C13 1_555 1_555
C14 C15 1_555 1_555
C16 C17 1_555 1_555
C17 C18 1_555 1_555
C18 C19 1_555 1_555
C19 C20 1_555 1_555

#END
