
#######################################################################
#
#                 Cambridge Crystallographic Data Centre
#                                CCDC 
#
#######################################################################
#
# If this CIF has been generated from an entry in the Cambridge 
# Structural Database, then it will include bibliographic, chemical, 
# crystal, experimental, refinement or atomic coordinate data resulting 
# from the CCDC's data processing and validation procedures.
#
#######################################################################

data_SOWLEW
_chemical_formula_moiety         'C5 H13 Br1 N1 1+,Br1 1-'
_chemical_name_systematic        '(2-Bromoethyl)trimethylammonium bromide'
_symmetry_cell_setting           monoclinic
_symmetry_space_group_name_H-M   'P 21'
_symmetry_Int_Tables_number      4
_space_group_name_Hall           'P 2yb'
loop_
_symmetry_equiv_pos_site_id
_symmetry_equiv_pos_as_xyz
1 x,y,z
2 -x,1/2+y,-z
_cell_length_a                   7.2069(14)
_cell_length_b                   8.4754(17)
_cell_length_c                   7.4329(15)
_cell_angle_alpha                90
_cell_angle_beta                 108.56(3)
_cell_angle_gamma                90
_cell_volume                     430.399
_exptl_crystal_colour            colorless
_exptl_crystal_description       block
_cell_formula_units_Z            2
loop_
_atom_site_label
_atom_site_type_symbol
_atom_site_fract_x
_atom_site_fract_y
_atom_site_fract_z
C1 C 0.8135(11) 0.2044(11) 0.1547(11)
H1 H 0.6876 0.2261 0.0609
H2 H 0.8115 0.0981 0.2024
C2 C 0.8559(11) 0.3221(11) 0.3145(11)
H3 H 0.8448 0.4278 0.2621
H4 H 0.9896 0.3079 0.3966
C3 C 0.7489(13) 0.1502(10) 0.5326(12)
H5 H 0.6619 0.1409 0.6066
H6 H 0.8819 0.1429 0.6146
H7 H 0.7230 0.0668 0.4406
C4 C 0.5097(12) 0.3232(12) 0.3098(11)
H8 H 0.4250 0.3136 0.3861
H9 H 0.4790 0.2421 0.2147
H10 H 0.4914 0.4248 0.2496
C5 C 0.7679(13) 0.4330(11) 0.5805(12)
H11 H 0.6824 0.4256 0.6562
H12 H 0.7525 0.5344 0.5199
H13 H 0.9011 0.4203 0.6602
N1 N 0.7177(10) 0.3063(7) 0.4329(10)
Br1 Br 1.02360(11) 0.22682(11) 0.04279(11)
Br2 Br 0.33045(11) 0.27305(8) 0.75748(10)
loop_
_geom_bond_atom_site_label_1
_geom_bond_atom_site_label_2
_geom_bond_site_symmetry_1
_geom_bond_site_symmetry_2
C1 H1 1_555 1_555
H2 C1 1_555 1_555
C2 C1 1_555 1_555
H3 C2 1_555 1_555
H4 C2 1_555 1_555
C3 H5 1_555 1_555
H6 C3 1_555 1_555
H7 C3 1_555 1_555
C4 H8 1_555 1_555
H9 C4 1_555 1_555
H10 C4 1_555 1_555
C5 H11 1_555 1_555
H12 C5 1_555 1_555
H13 C5 1_555 1_555
N1 C2 1_555 1_555
Br1 C1 1_555 1_555
C3 N1 1_555 1_555
C4 N1 1_555 1_555
C5 N1 1_555 1_555

#END
