
#######################################################################
#
#                 Cambridge Crystallographic Data Centre
#                                CCDC 
#
#######################################################################
#
# If this CIF has been generated from an entry in the Cambridge 
# Structural Database, then it will include bibliographic, chemical, 
# crystal, experimental, refinement or atomic coordinate data resulting 
# from the CCDC's data processing and validation procedures.
#
#######################################################################

data_SOWLIA
_chemical_formula_moiety         'C6 H17 N3 S1 2+,2(Br1 1-)'
_chemical_name_systematic        
'2-(Trimethylammonio)ethylisothiouronium dibromide'
_symmetry_cell_setting           monoclinic
_symmetry_space_group_name_H-M   'P 21/c'
_symmetry_Int_Tables_number      14
_space_group_name_Hall           '-P 2ybc'
loop_
_symmetry_equiv_pos_site_id
_symmetry_equiv_pos_as_xyz
1 x,y,z
2 -x,1/2+y,1/2-z
3 -x,-y,-z
4 x,1/2-y,1/2+z
_cell_length_a                   11.7820(6)
_cell_length_b                   9.3651(4)
_cell_length_c                   11.6893(5)
_cell_angle_alpha                90
_cell_angle_beta                 107.634(3)
_cell_angle_gamma                90
_cell_volume                     1229.19
_exptl_crystal_colour            colorless
_exptl_crystal_description       block
_chemical_melting_point          '218.9 deg.C'
_cell_formula_units_Z            4
loop_
_atom_site_label
_atom_site_type_symbol
_atom_site_fract_x
_atom_site_fract_y
_atom_site_fract_z
Br1 Br 0.36198(2) 0.22299(3) 0.88164(2)
Br2 Br -0.07950(2) 0.09581(2) 1.12487(2)
C1 C 0.1516(2) -0.6365(2) 1.0710(2)
C2 C 0.2505(2) -0.3752(2) 1.1624(2)
H1 H 0.1682 -0.3488 1.1509
H2 H 0.2863 -0.4045 1.2451
C3 C 0.3186(2) -0.2527(2) 1.13079(19)
H3 H 0.2785 -0.2234 1.0489
H4 H 0.3974 -0.2863 1.1337
C4 C 0.4158(3) -0.1541(3) 1.3331(2)
H5 H 0.4921 -0.1797 1.3258
H6 H 0.3854 -0.2315 1.3690
H7 H 0.4238 -0.0706 1.3825
C5 C 0.2137(2) -0.0771(2) 1.2227(2)
H8 H 0.2227 0.0127 1.2640
H9 H 0.1850 -0.1474 1.2670
H10 H 0.1579 -0.0669 1.1440
C6 C 0.3813(2) -0.0052(2) 1.1547(2)
H11 H 0.3892 0.0796 1.2026
H12 H 0.3283 0.0130 1.0757
H13 H 0.4580 -0.0325 1.1490
N1 N 0.1373(2) -0.74873(19) 1.00088(19)
H14 H 0.0835 -0.8109 1.0006
H15 H 0.1817 -0.7601 0.9552
N2 N 0.08514(19) -0.6165(2) 1.14147(18)
H16 H 0.0309 -0.6776 1.1424
H17 H 0.0958 -0.5423 1.1868
N3 N 0.33198(16) -0.12374(17) 1.21200(16)
S1 S 0.26049(6) -0.51625(6) 1.05986(6)
loop_
_geom_bond_atom_site_label_1
_geom_bond_atom_site_label_2
_geom_bond_site_symmetry_1
_geom_bond_site_symmetry_2
C1 N1 1_555 1_555
C2 H1 1_555 1_555
H2 C2 1_555 1_555
C3 C2 1_555 1_555
H3 C3 1_555 1_555
H4 C3 1_555 1_555
C4 H5 1_555 1_555
H6 C4 1_555 1_555
H7 C4 1_555 1_555
C5 H8 1_555 1_555
H9 C5 1_555 1_555
H10 C5 1_555 1_555
C6 H11 1_555 1_555
H12 C6 1_555 1_555
H13 C6 1_555 1_555
N1 H14 1_555 1_555
H15 N1 1_555 1_555
N2 C1 1_555 1_555
H16 N2 1_555 1_555
H17 N2 1_555 1_555
N3 C3 1_555 1_555
S1 C1 1_555 1_555
C2 S1 1_555 1_555
C4 N3 1_555 1_555
C5 N3 1_555 1_555
C6 N3 1_555 1_555

#END
