
#######################################################################
#
#                 Cambridge Crystallographic Data Centre
#                                CCDC 
#
#######################################################################
#
# If this CIF has been generated from an entry in the Cambridge 
# Structural Database, then it will include bibliographic, chemical, 
# crystal, experimental, refinement or atomic coordinate data resulting 
# from the CCDC's data processing and validation procedures.
#
#######################################################################

data_SOWLOH
_chemical_formula_moiety         'C20 H22 O1'
_chemical_name_systematic        
2-(4-t-Butylphenyl)-1,2-dihydronaphthalen-1-ol
_symmetry_cell_setting           monoclinic
_symmetry_space_group_name_H-M   'P 21'
_symmetry_Int_Tables_number      4
_space_group_name_Hall           'P 2yb'
loop_
_symmetry_equiv_pos_site_id
_symmetry_equiv_pos_as_xyz
1 x,y,z
2 -x,1/2+y,-z
_cell_length_a                   6.1138(14)
_cell_length_b                   11.409(3)
_cell_length_c                   11.578(3)
_cell_angle_alpha                90
_cell_angle_beta                 95.228(3)
_cell_angle_gamma                90
_cell_volume                     804.233
_cell_formula_units_Z            2
loop_
_atom_site_label
_atom_site_type_symbol
_atom_site_fract_x
_atom_site_fract_y
_atom_site_fract_z
C1 C -0.1075(3) -0.43463(17) -0.82561(17)
C2 C -0.2575(4) -0.45934(17) -0.64113(17)
H1 H -0.2706 -0.4312 -0.5667
C3 C -0.3445(4) -0.59869(19) -0.78916(19)
H2 H -0.4159 -0.6665 -0.8166
C4 C -0.1300(4) -0.39819(17) -0.71282(18)
H3 H -0.0572 -0.3309 -0.6850
C5 C -0.2178(4) -0.53681(18) -0.86161(18)
H4 H -0.2061 -0.5644 -0.9364
C6 C -0.5781(3) -0.86572(19) -0.67569(18)
O1 O -0.1714(3) -0.69929(15) -0.48020(13)
H5 H -0.0901 -0.6875 -0.5315
C7 C -0.3674(3) -0.56189(16) -0.67670(17)
C8 C -0.2278(4) -1.0224(2) -0.6602(2)
H6 H -0.1094 -1.0739 -0.6557
C9 C -0.3851(4) -0.72993(18) -0.53114(18)
H7 H -0.4707 -0.7490 -0.4661
C10 C -0.3876(3) -0.83952(18) -0.60455(17)
C11 C -0.5056(4) -0.6268(2) -0.59434(19)
H8 H -0.5400 -0.5705 -0.5347
C12 C -0.2143(4) -0.9186(2) -0.59811(19)
H9 H -0.0867 -0.9015 -0.5512
C13 C 0.0209(4) -0.36348(19) -0.90872(18)
C14 C -0.1456(6) -0.2868(2) -0.9822(3)
H10 H -0.2591 -0.3355 -1.0194
H11 H -0.0722 -0.2459 -1.0399
H12 H -0.2096 -0.2311 -0.9330
C15 C 0.1342(5) -0.4421(2) -0.9917(3)
H13 H 0.2359 -0.4930 -0.9480
H14 H 0.2120 -0.3944 -1.0427
H15 H 0.0261 -0.4883 -1.0365
C16 C -0.5912(4) -0.9719(2) -0.7355(2)
H16 H -0.7194 -0.9913 -0.7810
C17 C -0.4156(5) -1.0488(2) -0.7279(2)
H17 H -0.4256 -1.1188 -0.7692
C18 C -0.7535(4) -0.7775(2) -0.6897(2)
H18 H -0.8908 -0.7989 -0.7244
C19 C -0.7204(4) -0.6674(2) -0.6537(2)
H19 H -0.8348 -0.6138 -0.6659
C20 C 0.1948(6) -0.2852(3) -0.8455(3)
H20 H 0.1248 -0.2278 -0.8007
H21 H 0.2768 -0.2463 -0.9011
H22 H 0.2924 -0.3321 -0.7950
loop_
_geom_bond_atom_site_label_1
_geom_bond_atom_site_label_2
_geom_bond_site_symmetry_1
_geom_bond_site_symmetry_2
C1 C4 1_555 1_555
C2 H1 1_555 1_555
C3 H2 1_555 1_555
C4 C2 1_555 1_555
H3 C4 1_555 1_555
C5 C1 1_555 1_555
H4 C5 1_555 1_555
C6 C10 1_555 1_555
O1 H5 1_555 1_555
C7 C2 1_555 1_555
C8 H6 1_555 1_555
C9 O1 1_555 1_555
H7 C9 1_555 1_555
C10 C9 1_555 1_555
C11 C7 1_555 1_555
H8 C11 1_555 1_555
C12 C8 1_555 1_555
H9 C12 1_555 1_555
C13 C1 1_555 1_555
C14 C13 1_555 1_555
H10 C14 1_555 1_555
H11 C14 1_555 1_555
H12 C14 1_555 1_555
C15 C13 1_555 1_555
H13 C15 1_555 1_555
H14 C15 1_555 1_555
H15 C15 1_555 1_555
C16 C6 1_555 1_555
H16 C16 1_555 1_555
C17 C8 1_555 1_555
H17 C17 1_555 1_555
C18 C6 1_555 1_555
H18 C18 1_555 1_555
C19 C11 1_555 1_555
H19 C19 1_555 1_555
C20 C13 1_555 1_555
H20 C20 1_555 1_555
H21 C20 1_555 1_555
H22 C20 1_555 1_555
C3 C5 1_555 1_555
C3 C7 1_555 1_555
C9 C11 1_555 1_555
C10 C12 1_555 1_555
C16 C17 1_555 1_555
C18 C19 1_555 1_555

#END
