
#######################################################################
#
#                 Cambridge Crystallographic Data Centre
#                                CCDC 
#
#######################################################################
#
# If this CIF has been generated from an entry in the Cambridge 
# Structural Database, then it will include bibliographic, chemical, 
# crystal, experimental, refinement or atomic coordinate data resulting 
# from the CCDC's data processing and validation procedures.
#
#######################################################################

data_SOWMOI
_chemical_formula_moiety         'C17 H21 N1 O4 S1'
_chemical_name_systematic        
'8-Cyclohexyl-8,9,11,11a-tetrahydro-10H-pyrido[1,2-c][1,2,3]benzoxathiazin-10-one 6,6-dioxide'
_symmetry_cell_setting           monoclinic
_symmetry_space_group_name_H-M   'P 21'
_symmetry_Int_Tables_number      4
_space_group_name_Hall           'P 2yb'
loop_
_symmetry_equiv_pos_site_id
_symmetry_equiv_pos_as_xyz
1 x,y,z
2 -x,1/2+y,-z
_cell_length_a                   9.2550(8)
_cell_length_b                   8.8201(7)
_cell_length_c                   10.2868(8)
_cell_angle_alpha                90
_cell_angle_beta                 107.491(8)
_cell_angle_gamma                90
_cell_volume                     800.887
_cell_formula_units_Z            2
loop_
_atom_site_label
_atom_site_type_symbol
_atom_site_fract_x
_atom_site_fract_y
_atom_site_fract_z
S1 S 0.64188(7) 0.01444(7) 0.91077(6)
O1 O 0.6387(2) -0.1425(2) 0.8851(2)
O2 O 0.6642(2) 0.0680(2) 1.04550(17)
N1 N 0.4954(2) 0.0975(2) 0.81250(18)
O3 O 0.77694(19) 0.0778(2) 0.85970(19)
C1 C 0.4291(2) 0.0341(3) 0.6722(2)
H1 H 0.4903 -0.0540 0.6641
C2 C 0.3703(3) 0.3355(3) 0.7239(3)
H2 H 0.2757 0.2974 0.7333
H3 H 0.3721 0.4445 0.7369
C3 C 0.2650(3) -0.0219(3) 0.6481(2)
H4 H 0.1966 0.0641 0.6158
C4 C 0.2359(3) -0.0845(4) 0.7752(3)
H5 H 0.2497 -0.0043 0.8424
H6 H 0.3090 -0.1636 0.8136
C5 C 0.6561(3) 0.3297(3) 0.8360(2)
O4 O 0.3328(3) 0.3914(3) 0.4905(2)
C6 C 0.5023(3) 0.2642(3) 0.8336(2)
H7 H 0.4873 0.2847 0.9223
C7 C 0.0758(3) -0.1490(4) 0.7447(3)
H8 H 0.0640 -0.1936 0.8271
H9 H 0.0030 -0.0672 0.7170
C8 C 0.4436(3) 0.1506(3) 0.5673(3)
H10 H 0.5499 0.1638 0.5751
H11 H 0.3930 0.1123 0.4767
C9 C 0.2294(3) -0.1419(4) 0.5361(3)
H12 H 0.2412 -0.0978 0.4535
H13 H 0.3015 -0.2244 0.5635
C10 C 0.9247(3) 0.2957(4) 0.8588(3)
H14 H 1.0074 0.2319 0.8690
C11 C 0.7831(3) 0.2368(3) 0.8518(2)
C12 C 0.0696(3) -0.2045(4) 0.5065(3)
H15 H -0.0030 -0.1244 0.4696
H16 H 0.0541 -0.2840 0.4386
C13 C 0.0429(3) -0.2673(4) 0.6342(3)
H17 H -0.0615 -0.3004 0.6137
H18 H 0.1078 -0.3546 0.6656
C14 C 0.3773(3) 0.3016(3) 0.5841(3)
C15 C 0.6785(3) 0.4842(3) 0.8318(3)
H19 H 0.5974 0.5494 0.8244
C16 C 0.9399(3) 0.4503(4) 0.8506(3)
H20 H 1.0333 0.4915 0.8533
C17 C 0.8179(4) 0.5442(4) 0.8383(3)
H21 H 0.8295 0.6486 0.8345
loop_
_geom_bond_atom_site_label_1
_geom_bond_atom_site_label_2
_geom_bond_site_symmetry_1
_geom_bond_site_symmetry_2
S1 O1 1_555 1_555
O2 S1 1_555 1_555
N1 S1 1_555 1_555
O3 S1 1_555 1_555
C1 N1 1_555 1_555
H1 C1 1_555 1_555
C2 H2 1_555 1_555
H3 C2 1_555 1_555
C3 C1 1_555 1_555
H4 C3 1_555 1_555
C4 C3 1_555 1_555
H5 C4 1_555 1_555
H6 C4 1_555 1_555
C5 C6 1_555 1_555
O4 C14 1_555 1_555
C6 N1 1_555 1_555
H7 C6 1_555 1_555
C7 C4 1_555 1_555
H8 C7 1_555 1_555
H9 C7 1_555 1_555
C8 C1 1_555 1_555
H10 C8 1_555 1_555
H11 C8 1_555 1_555
C9 C3 1_555 1_555
H12 C9 1_555 1_555
H13 C9 1_555 1_555
C10 H14 1_555 1_555
C11 O3 1_555 1_555
C12 C9 1_555 1_555
H15 C12 1_555 1_555
H16 C12 1_555 1_555
C13 C7 1_555 1_555
H17 C13 1_555 1_555
H18 C13 1_555 1_555
C14 C2 1_555 1_555
C15 C5 1_555 1_555
H19 C15 1_555 1_555
C16 C10 1_555 1_555
H20 C16 1_555 1_555
C17 C15 1_555 1_555
H21 C17 1_555 1_555
C2 C6 1_555 1_555
C5 C11 1_555 1_555
C8 C14 1_555 1_555
C10 C11 1_555 1_555
C12 C13 1_555 1_555
C16 C17 1_555 1_555

#END
