
#######################################################################
#
#                 Cambridge Crystallographic Data Centre
#                                CCDC 
#
#######################################################################
#
# If this CIF has been generated from an entry in the Cambridge 
# Structural Database, then it will include bibliographic, chemical, 
# crystal, experimental, refinement or atomic coordinate data resulting 
# from the CCDC's data processing and validation procedures.
#
#######################################################################

data_SOWNEZ
_chemical_formula_moiety         'C18 H18 I1 N3 O2'
_chemical_name_systematic        
4-(1-(7-Ethyl-1H-indol-3-yl)-2-nitroethyl)-2-iodoaniline
_symmetry_cell_setting           monoclinic
_symmetry_space_group_name_H-M   'P n'
_symmetry_Int_Tables_number      7
_space_group_name_Hall           'P -2yac'
loop_
_symmetry_equiv_pos_site_id
_symmetry_equiv_pos_as_xyz
1 x,y,z
2 1/2+x,-y,1/2+z
_cell_length_a                   9.1444(6)
_cell_length_b                   10.7731(6)
_cell_length_c                   10.2668(6)
_cell_angle_alpha                90
_cell_angle_beta                 115.759(3)
_cell_angle_gamma                90
_cell_volume                     910.914
_exptl_crystal_colour            colorless
_exptl_crystal_description       prism
_cell_formula_units_Z            2
loop_
_atom_site_label
_atom_site_type_symbol
_atom_site_fract_x
_atom_site_fract_y
_atom_site_fract_z
C1 C 0.7689(6) 0.3228(4) 0.9576(6)
C2 C 0.7930(7) 0.3497(4) 1.0980(6)
C3 C 0.8488(8) 0.4688(5) 1.1488(6)
H1 H 0.8686 0.4904 1.2448
C4 C 0.8758(7) 0.5555(4) 1.0642(6)
H2 H 0.9135 0.6357 1.1024
C5 C 0.8490(6) 0.5280(4) 0.9236(5)
C6 C 0.7971(6) 0.4105(4) 0.8722(5)
H3 H 0.7803 0.3891 0.7770
C7 C 0.8719(7) 0.6244(5) 0.8256(6)
H4 H 0.8987 0.5787 0.7539
C8 C 0.7122(9) 0.6868(6) 0.7436(9)
H5 H 0.6811 0.7302 0.8128
H6 H 0.6287 0.6228 0.6935
C9 C 1.0078(6) 0.7137(4) 0.9038(5)
C10 C 1.0041(7) 0.8378(5) 0.9295(5)
H7 H 0.9079 0.8856 0.9022
C11 C 1.2664(6) 0.7883(4) 1.0265(5)
C12 C 1.1755(6) 0.6803(4) 0.9668(5)
C13 C 1.2592(8) 0.5678(5) 0.9757(5)
H8 H 1.2019 0.4932 0.9355
C14 C 1.4264(8) 0.5699(6) 1.0447(7)
H9 H 1.4851 0.4954 1.0525
C15 C 1.5110(8) 0.6789(6) 1.1032(7)
H10 H 1.6263 0.6759 1.1507
C16 C 1.4350(7) 0.7918(5) 1.0956(6)
C17 C 1.5244(8) 0.9114(6) 1.1598(8)
H11 H 1.4836 0.9764 1.0842
H12 H 1.4962 0.9373 1.2386
C18 C 1.7066(9) 0.9072(8) 1.2192(9)
H13 H 1.7516 0.9891 1.2569
H14 H 1.7370 0.8837 1.1420
H15 H 1.7498 0.8459 1.2973
N1 N 0.7715(9) 0.2628(5) 1.1857(6)
H16 H 0.7414 0.1869 1.1536
H17 H 0.7878 0.2829 1.2740
N2 N 0.7132(9) 0.7787(6) 0.6339(8)
N3 N 1.1579(5) 0.8837(4) 0.9999(4)
H18 H 1.1833 0.9618 1.0243
O1 O 0.7782(14) 0.7503(6) 0.5551(7)
O2 O 0.6537(8) 0.8795(5) 0.6343(8)
I1 I 0.68392(4) 0.14709(3) 0.86801(4)
loop_
_geom_bond_atom_site_label_1
_geom_bond_atom_site_label_2
_geom_bond_site_symmetry_1
_geom_bond_site_symmetry_2
C1 C2 1_555 1_555
C2 C3 1_555 1_555
C3 H1 1_555 1_555
C4 C3 1_555 1_555
H2 C4 1_555 1_555
C5 C4 1_555 1_555
C6 C1 1_555 1_555
H3 C6 1_555 1_555
C7 C5 1_555 1_555
H4 C7 1_555 1_555
C8 C7 1_555 1_555
H5 C8 1_555 1_555
H6 C8 1_555 1_555
C9 C7 1_555 1_555
C10 C9 1_555 1_555
H7 C10 1_555 1_555
C11 C12 1_555 1_555
C12 C9 1_555 1_555
C13 C12 1_555 1_555
H8 C13 1_555 1_555
C14 C13 1_555 1_555
H9 C14 1_555 1_555
C15 C14 1_555 1_555
H10 C15 1_555 1_555
C16 C11 1_555 1_555
C17 C16 1_555 1_555
H11 C17 1_555 1_555
H12 C17 1_555 1_555
C18 C17 1_555 1_555
H13 C18 1_555 1_555
H14 C18 1_555 1_555
H15 C18 1_555 1_555
N1 C2 1_555 1_555
H16 N1 1_555 1_555
H17 N1 1_555 1_555
N2 C8 1_555 1_555
N3 C10 1_555 1_555
H18 N3 1_555 1_555
O1 N2 1_555 1_555
O2 N2 1_555 1_555
I1 C1 1_555 1_555
C5 C6 1_555 1_555
C11 N3 1_555 1_555
C15 C16 1_555 1_555

#END
