
#######################################################################
#
#                 Cambridge Crystallographic Data Centre
#                                CCDC 
#
#######################################################################
#
# If this CIF has been generated from an entry in the Cambridge 
# Structural Database, then it will include bibliographic, chemical, 
# crystal, experimental, refinement or atomic coordinate data resulting 
# from the CCDC's data processing and validation procedures.
#
#######################################################################

data_SOWNUP
_chemical_formula_moiety         'C28 H26 N4 O10'
_chemical_name_systematic        
25-((2,4-Dinitrophenyl)hydrazono)-6,9,12,15,18-pentaoxatetracyclo[21.3.1.0^5,26^.0^19,24^]heptacosa-1(26),2,4,19,21,23-hexaen-27-one
_symmetry_cell_setting           monoclinic
_symmetry_space_group_name_H-M   'P c'
_symmetry_Int_Tables_number      7
_space_group_name_Hall           'P -2yc'
loop_
_symmetry_equiv_pos_site_id
_symmetry_equiv_pos_as_xyz
1 x,y,z
2 x,-y,1/2+z
_cell_length_a                   11.8044(19)
_cell_length_b                   15.699(3)
_cell_length_c                   14.329(2)
_cell_angle_alpha                90
_cell_angle_beta                 94.249(2)
_cell_angle_gamma                90
_cell_volume                     2648.11
_exptl_crystal_colour            red
_exptl_crystal_description       block
_cell_formula_units_Z            4
loop_
_atom_site_label
_atom_site_type_symbol
_atom_site_fract_x
_atom_site_fract_y
_atom_site_fract_z
C1 C -0.8714(7) -0.1434(5) 0.0115(5)
C2 C -0.9372(9) -0.0782(5) -0.0311(5)
H1 H -0.9038 -0.0263 -0.0443
C3 C -1.0503(9) -0.0906(8) -0.0534(7)
H2 H -1.0936 -0.0477 -0.0832
C4 C -1.1017(7) -0.1684(8) -0.0314(6)
H3 H -1.1792 -0.1761 -0.0455
C5 C -1.0393(7) -0.2318(6) 0.0099(5)
C6 C -1.0963(7) -0.3112(7) 0.0382(7)
C7 C -1.0319(7) -0.3628(5) 0.1090(6)
C8 C -1.0918(7) -0.4242(6) 0.1627(7)
H4 H -1.1696 -0.4322 0.1504
C9 C -1.0349(9) -0.4691(6) 0.2298(6)
H5 H -1.0740 -0.5071 0.2656
C10 C -0.9253(8) -0.4606(5) 0.2462(6)
H6 H -0.8884 -0.4935 0.2931
C11 C -0.8613(7) -0.4047(5) 0.1964(5)
C12 C -0.9192(6) -0.3555(5) 0.1225(5)
C13 C -0.8600(5) -0.2965(4) 0.0593(4)
C14 C -0.9216(6) -0.2241(5) 0.0288(5)
C15 C -0.7001(7) -0.0588(5) 0.0269(6)
H7 H -0.7336 -0.0116 0.0588
H8 H -0.7037 -0.0460 -0.0395
C16 C -0.5837(8) -0.0704(4) 0.0623(6)
H9 H -0.5436 -0.0166 0.0604
H10 H -0.5813 -0.0892 0.1269
C17 C -0.4093(8) -0.1341(7) 0.0232(6)
H11 H -0.3794 -0.1689 -0.0253
H12 H -0.3812 -0.0767 0.0156
C18 C -0.3645(7) -0.1649(6) 0.1103(5)
H13 H -0.2830 -0.1561 0.1130
H14 H -0.3934 -0.1286 0.1579
C19 C -0.4285(15) -0.2738(8) 0.1946(11)
H15 H -0.5086 -0.2640 0.1782
H16 H -0.4087 -0.2391 0.2495
C20 C -0.4198(11) -0.3564(10) 0.2240(11)
H17 H -0.3692 -0.3857 0.1844
H18 H -0.3835 -0.3565 0.2870
C21 C -0.5759(9) -0.3781(7) 0.3020(7)
H19 H -0.5868 -0.3168 0.3020
H20 H -0.5339 -0.3944 0.3601
C22 C -0.6876(9) -0.4232(7) 0.2913(6)
H21 H -0.6751 -0.4840 0.2861
H22 H -0.7293 -0.4131 0.3461
C23 C -0.6194(5) -0.3128(4) -0.0722(4)
C24 C -0.5613(6) -0.3810(4) -0.0270(5)
H23 H -0.5898 -0.4070 0.0247
C25 C -0.4622(6) -0.4085(4) -0.0601(5)
H24 H -0.4253 -0.4552 -0.0320
C26 C -0.4168(5) -0.3704(4) -0.1316(4)
C27 C -0.4674(5) -0.3012(4) -0.1758(4)
H25 H -0.4337 -0.2740 -0.2244
C28 C -0.5698(5) -0.2727(4) -0.1462(4)
N1 N -0.7671(5) -0.3278(3) 0.0296(4)
N2 N -0.7195(4) -0.2862(3) -0.0393(3)
N3 N -0.6205(5) -0.1998(3) -0.1977(4)
N4 N -0.3108(5) -0.4020(5) -0.1655(5)
O1 O -1.1947(6) -0.3216(6) 0.0044(6)
O2 O -0.7524(5) -0.3932(3) 0.2097(4)
O3 O -0.5177(5) -0.4034(4) 0.2248(4)
O4 O -0.3816(9) -0.2448(4) 0.1357(4)
O5 O -0.5293(5) -0.1323(3) 0.0074(4)
O6 O -0.7613(4) -0.1361(3) 0.0427(3)
O7 O -0.7128(4) -0.1722(3) -0.1743(3)
O8 O -0.5750(5) -0.1724(4) -0.2630(4)
O9 O -0.2650(5) -0.3605(5) -0.2246(4)
O10 O -0.2738(6) -0.4674(4) -0.1317(5)
H26 H -0.750(3) -0.252(2) -0.068(2)
C29 C -0.6704(6) -0.3580(5) -0.4551(4)
C30 C -0.6092(7) -0.4238(5) -0.4106(5)
H27 H -0.6445 -0.4748 -0.3968
C31 C -0.4935(9) -0.4119(7) -0.3869(6)
H28 H -0.4521 -0.4549 -0.3556
C32 C -0.4415(8) -0.3409(8) -0.4080(6)
H29 H -0.3633 -0.3361 -0.3957
C33 C -0.5038(6) -0.2725(6) -0.4489(5)
C34 C -0.4444(7) -0.1942(6) -0.4782(7)
C35 C -0.5037(7) -0.1389(6) -0.5505(7)
C36 C -0.4425(9) -0.0846(7) -0.5997(8)
H30 H -0.3638 -0.0828 -0.5894
C37 C -0.4967(10) -0.0328(6) -0.6643(8)
H31 H -0.4550 0.0078 -0.6944
C38 C -0.6193(9) -0.0392(5) -0.6878(6)
H32 H -0.6560 -0.0059 -0.7345
C39 C -0.6777(7) -0.0973(5) -0.6369(6)
C40 C -0.6253(6) -0.1465(5) -0.5693(5)
C41 C -0.6840(5) -0.2010(4) -0.5046(4)
C42 C -0.6200(6) -0.2800(5) -0.4678(4)
C43 C -0.8408(7) -0.4405(4) -0.4669(6)
H33 H -0.8374 -0.4483 -0.3996
H34 H -0.8077 -0.4901 -0.4947
C44 C -0.9639(6) -0.4286(5) -0.5061(6)
H35 H -0.9657 -0.4085 -0.5702
H36 H -1.0040 -0.4825 -0.5055
C45 C -1.1347(7) -0.3659(7) -0.4676(6)
H37 H -1.1650 -0.3272 -0.4229
H38 H -1.1673 -0.4218 -0.4588
C46 C -1.1693(9) -0.3326(6) -0.5737(8)
H39 H -1.1396 -0.3707 -0.6193
H40 H -1.2512 -0.3294 -0.5852
C47 C -1.1720(9) -0.2194(7) -0.6527(10)
H41 H -1.2533 -0.2217 -0.6470
H42 H -1.1545 -0.2527 -0.7068
C48 C -1.1341(7) -0.1295(6) -0.6628(7)
H43 H -1.1754 -0.1089 -0.7194
H44 H -1.1649 -0.0990 -0.6116
C49 C -0.9640(8) -0.1127(6) -0.7450(6)
H45 H -1.0067 -0.0906 -0.8002
H46 H -0.9543 -0.1735 -0.7536
C50 C -0.8521(8) -0.0717(5) -0.7354(6)
H47 H -0.8107 -0.0822 -0.7902
H48 H -0.8597 -0.0107 -0.7272
C51 C -0.9225(5) -0.1896(4) -0.3736(4)
C52 C -0.9815(6) -0.1215(4) -0.4156(5)
H49 H -0.9502 -0.0948 -0.4657
C53 C -1.0824(6) -0.0910(4) -0.3884(5)
H50 H -1.1192 -0.0453 -0.4189
C54 C -1.1291(5) -0.1323(4) -0.3112(5)
C55 C -1.0757(5) -0.1998(4) -0.2683(4)
H51 H -1.1084 -0.2272 -0.2194
C56 C -0.9730(5) -0.2282(4) -0.2970(4)
N5 N -0.7767(4) -0.1719(3) -0.4735(3)
N6 N -0.8223(4) -0.2165(4) -0.4034(4)
N7 N -0.9199(5) -0.2983(4) -0.2473(3)
N8 N -1.2334(5) -0.0985(5) -0.2782(4)
O11 O -0.3482(5) -0.1743(6) -0.4505(5)
O12 O -0.7949(5) -0.1095(4) -0.6541(4)
O13 O -1.0250(5) -0.0986(4) -0.6668(4)
O14 O -1.1183(7) -0.2484(6) -0.5787(9)
O15 O -1.0154(5) -0.3702(4) -0.4518(4)
O16 O -0.7811(4) -0.3659(3) -0.4896(3)
O17 O -1.2693(5) -0.0297(4) -0.3099(5)
O18 O -1.2796(5) -0.1373(5) -0.2190(5)
O19 O -0.9672(5) -0.3292(4) -0.1802(4)
O20 O -0.8299(4) -0.3282(3) -0.2709(3)
H52 H -0.785(5) -0.271(3) -0.382(4)
loop_
_geom_bond_atom_site_label_1
_geom_bond_atom_site_label_2
_geom_bond_site_symmetry_1
_geom_bond_site_symmetry_2
C1 C2 1_555 1_555
C2 H1 1_555 1_555
C3 C2 1_555 1_555
H2 C3 1_555 1_555
C4 C3 1_555 1_555
H3 C4 1_555 1_555
C5 C4 1_555 1_555
C6 C5 1_555 1_555
C7 C6 1_555 1_555
C8 C7 1_555 1_555
H4 C8 1_555 1_555
C9 C8 1_555 1_555
H5 C9 1_555 1_555
C10 C9 1_555 1_555
H6 C10 1_555 1_555
C11 C10 1_555 1_555
C12 C7 1_555 1_555
C13 C12 1_555 1_555
C14 C1 1_555 1_555
C15 H7 1_555 1_555
H8 C15 1_555 1_555
C16 C15 1_555 1_555
H9 C16 1_555 1_555
H10 C16 1_555 1_555
C17 H11 1_555 1_555
H12 C17 1_555 1_555
C18 C17 1_555 1_555
H13 C18 1_555 1_555
H14 C18 1_555 1_555
C19 H15 1_555 1_555
H16 C19 1_555 1_555
C20 C19 1_555 1_555
H17 C20 1_555 1_555
H18 C20 1_555 1_555
C21 H19 1_555 1_555
H20 C21 1_555 1_555
C22 C21 1_555 1_555
H21 C22 1_555 1_555
H22 C22 1_555 1_555
C23 C24 1_555 1_555
C24 H23 1_555 1_555
C25 C24 1_555 1_555
H24 C25 1_555 1_555
C26 C25 1_555 1_555
C27 C26 1_555 1_555
H25 C27 1_555 1_555
C28 C23 1_555 1_555
N1 C13 1_555 1_555
N2 C23 1_555 1_555
N3 C28 1_555 1_555
N4 C26 1_555 1_555
O1 C6 1_555 1_555
O2 C11 1_555 1_555
O3 C20 1_555 1_555
O4 C18 1_555 1_555
O5 C16 1_555 1_555
O6 C1 1_555 1_555
O7 N3 1_555 1_555
O8 N3 1_555 1_555
O9 N4 1_555 1_555
O10 N4 1_555 1_555
H26 N2 1_555 1_555
C29 C30 1_555 1_555
C30 H27 1_555 1_555
C31 C30 1_555 1_555
H28 C31 1_555 1_555
C32 C31 1_555 1_555
H29 C32 1_555 1_555
C33 C32 1_555 1_555
C34 C33 1_555 1_555
C35 C34 1_555 1_555
C36 C35 1_555 1_555
H30 C36 1_555 1_555
C37 C36 1_555 1_555
H31 C37 1_555 1_555
C38 C37 1_555 1_555
H32 C38 1_555 1_555
C39 C38 1_555 1_555
C40 C35 1_555 1_555
C41 C40 1_555 1_555
C42 C29 1_555 1_555
C43 H33 1_555 1_555
H34 C43 1_555 1_555
C44 C43 1_555 1_555
H35 C44 1_555 1_555
H36 C44 1_555 1_555
C45 H37 1_555 1_555
H38 C45 1_555 1_555
C46 C45 1_555 1_555
H39 C46 1_555 1_555
H40 C46 1_555 1_555
C47 H41 1_555 1_555
H42 C47 1_555 1_555
C48 C47 1_555 1_555
H43 C48 1_555 1_555
H44 C48 1_555 1_555
C49 H45 1_555 1_555
H46 C49 1_555 1_555
C50 C49 1_555 1_555
H47 C50 1_555 1_555
H48 C50 1_555 1_555
C51 C52 1_555 1_555
C52 H49 1_555 1_555
C53 C52 1_555 1_555
H50 C53 1_555 1_555
C54 C53 1_555 1_555
C55 C54 1_555 1_555
H51 C55 1_555 1_555
C56 C51 1_555 1_555
N5 C41 1_555 1_555
N6 C51 1_555 1_555
N7 C56 1_555 1_555
N8 C54 1_555 1_555
O11 C34 1_555 1_555
O12 C39 1_555 1_555
O13 C48 1_555 1_555
O14 C46 1_555 1_555
O15 C44 1_555 1_555
O16 C29 1_555 1_555
O17 N8 1_555 1_555
O18 N8 1_555 1_555
O19 N7 1_555 1_555
O20 N7 1_555 1_555
H52 N6 1_555 1_555
C5 C14 1_555 1_555
C11 C12 1_555 1_555
C13 C14 1_555 1_555
C15 O6 1_555 1_555
C17 O5 1_555 1_555
C19 O4 1_555 1_555
C21 O3 1_555 1_555
C22 O2 1_555 1_555
C27 C28 1_555 1_555
N1 N2 1_555 1_555
C33 C42 1_555 1_555
C39 C40 1_555 1_555
C41 C42 1_555 1_555
C43 O16 1_555 1_555
C45 O15 1_555 1_555
C47 O14 1_555 1_555
C49 O13 1_555 1_555
C50 O12 1_555 1_555
C55 C56 1_555 1_555
N5 N6 1_555 1_555

#END
