
#######################################################################
#
#                 Cambridge Crystallographic Data Centre
#                                CCDC 
#
#######################################################################
#
# If this CIF has been generated from an entry in the Cambridge 
# Structural Database, then it will include bibliographic, chemical, 
# crystal, experimental, refinement or atomic coordinate data resulting 
# from the CCDC's data processing and validation procedures.
#
#######################################################################

data_SOWNOJ
_chemical_formula_moiety         'C14 H16 F3 N1 O3 S1'
_chemical_name_systematic        
'4-Cyano-6,6,6-trifluorohexyl 4-methylbenzenesulfonate'
_symmetry_cell_setting           triclinic
_symmetry_space_group_name_H-M   'P -1'
_symmetry_Int_Tables_number      2
_space_group_name_Hall           '-P 1'
loop_
_symmetry_equiv_pos_site_id
_symmetry_equiv_pos_as_xyz
1 x,y,z
2 -x,-y,-z
_cell_length_a                   5.7301(5)
_cell_length_b                   10.3183(14)
_cell_length_c                   13.7835(17)
_cell_angle_alpha                79.233(11)
_cell_angle_beta                 87.668(8)
_cell_angle_gamma                88.785(9)
_cell_volume                     799.861
_exptl_crystal_colour            colorless
_exptl_crystal_description       block
_cell_formula_units_Z            2
loop_
_atom_site_label
_atom_site_type_symbol
_atom_site_fract_x
_atom_site_fract_y
_atom_site_fract_z
S1 S 0.37189(12) 1.02091(7) 0.27533(6)
F1 F 1.1372(5) 0.4125(2) 0.7464(2)
F2 F 1.0281(6) 0.5549(4) 0.8275(2)
F3 F 1.3883(4) 0.5358(2) 0.78998(18)
O1 O 0.5191(4) 1.13234(19) 0.26612(16)
O2 O 0.4154(3) 0.9261(2) 0.37598(15)
O3 O 0.1245(3) 1.0403(2) 0.27545(18)
N1 N 0.7227(5) 0.4399(3) 0.5880(2)
C1 C 0.6587(5) 0.8965(3) 0.4028(2)
H1 H 0.7331 0.9750 0.4154
H2 H 0.7457 0.8655 0.3495
C2 C 0.6535(5) 0.7917(3) 0.4941(2)
H3 H 0.5900 0.7116 0.4791
H4 H 0.5521 0.8203 0.5444
C3 C 0.8958(5) 0.7632(3) 0.5334(2)
H5 H 0.9578 0.8436 0.5485
H6 H 0.9969 0.7364 0.4823
C4 C 0.9004(5) 0.6552(2) 0.6263(2)
H7 H 0.8017 0.6846 0.6780
C5 C 1.1481(5) 0.6328(3) 0.6636(2)
H8 H 1.2460 0.6033 0.6126
H9 H 1.2076 0.7168 0.6729
C6 C 1.1721(7) 0.5365(4) 0.7567(3)
C7 C 0.8018(5) 0.5321(3) 0.6055(2)
C8 C 0.4599(5) 0.9281(3) 0.1859(2)
C9 C 0.3196(6) 0.8257(3) 0.1715(3)
H10 H 0.1806 0.8074 0.2083
C10 C 0.3898(7) 0.7516(3) 0.1017(3)
H11 H 0.2968 0.6825 0.0923
C11 C 0.5926(7) 0.7768(3) 0.0459(2)
C12 C 0.7288(6) 0.8789(4) 0.0616(3)
H12 H 0.8668 0.8973 0.0241
C13 C 0.6663(5) 0.9551(3) 0.1316(2)
H13 H 0.7614 1.0229 0.1418
C14 C 0.6691(9) 0.6939(4) -0.0298(3)
H14 H 0.5817 0.7202 -0.0883
H15 H 0.6415 0.6025 -0.0030
H16 H 0.8326 0.7063 -0.0459
loop_
_geom_bond_atom_site_label_1
_geom_bond_atom_site_label_2
_geom_bond_site_symmetry_1
_geom_bond_site_symmetry_2
S1 O1 1_555 1_555
F1 C6 1_555 1_555
F2 C6 1_555 1_555
F3 C6 1_555 1_555
O2 S1 1_555 1_555
O3 S1 1_555 1_555
N1 C7 1_555 1_555
C1 O2 1_555 1_555
H1 C1 1_555 1_555
H2 C1 1_555 1_555
C2 C1 1_555 1_555
H3 C2 1_555 1_555
H4 C2 1_555 1_555
C3 C2 1_555 1_555
H5 C3 1_555 1_555
H6 C3 1_555 1_555
C4 C3 1_555 1_555
H7 C4 1_555 1_555
C5 C4 1_555 1_555
H8 C5 1_555 1_555
H9 C5 1_555 1_555
C6 C5 1_555 1_555
C7 C4 1_555 1_555
C8 S1 1_555 1_555
C9 C8 1_555 1_555
H10 C9 1_555 1_555
C10 C9 1_555 1_555
H11 C10 1_555 1_555
C11 C10 1_555 1_555
C12 C11 1_555 1_555
H12 C12 1_555 1_555
C13 C8 1_555 1_555
H13 C13 1_555 1_555
C14 C11 1_555 1_555
H14 C14 1_555 1_555
H15 C14 1_555 1_555
H16 C14 1_555 1_555
C12 C13 1_555 1_555

#END
