
#######################################################################
#
#                 Cambridge Crystallographic Data Centre
#                                CCDC 
#
#######################################################################
#
# If this CIF has been generated from an entry in the Cambridge 
# Structural Database, then it will include bibliographic, chemical, 
# crystal, experimental, refinement or atomic coordinate data resulting 
# from the CCDC's data processing and validation procedures.
#
#######################################################################

data_SOWNID
_chemical_formula_moiety         'C26 H21 N3 O2'
_chemical_name_systematic        
6-(1-(1H-Indol-3-yl)-2-nitroethyl)-4-methyl-2-phenylquinoline
_symmetry_cell_setting           monoclinic
_symmetry_space_group_name_H-M   'P 21/c'
_symmetry_Int_Tables_number      14
_space_group_name_Hall           '-P 2ybc'
loop_
_symmetry_equiv_pos_site_id
_symmetry_equiv_pos_as_xyz
1 x,y,z
2 -x,1/2+y,1/2-z
3 -x,-y,-z
4 x,1/2-y,1/2+z
_cell_length_a                   12.3676(17)
_cell_length_b                   10.7025(16)
_cell_length_c                   16.056(3)
_cell_angle_alpha                90
_cell_angle_beta                 99.159(7)
_cell_angle_gamma                90
_cell_volume                     2098.14
_exptl_crystal_colour            colorless
_exptl_crystal_description       prism
_cell_formula_units_Z            4
loop_
_atom_site_label
_atom_site_type_symbol
_atom_site_fract_x
_atom_site_fract_y
_atom_site_fract_z
C1 C 1.0206(3) 0.6869(3) 0.4399(2)
H1 H 0.9715 0.7035 0.4817
H2 H 1.0584 0.6066 0.4549
C2 C 0.9532(3) 0.6761(3) 0.3534(2)
H3 H 1.0097 0.6605 0.3153
C3 C 0.8816(3) 0.5588(3) 0.35223(19)
C4 C 0.9290(3) 0.4416(3) 0.3412(2)
H4 H 1.0037 0.4376 0.3337
C5 C 0.8707(3) 0.3340(3) 0.3408(2)
H5 H 0.9046 0.2563 0.3328
C6 C 0.7598(3) 0.3369(3) 0.35244(18)
C7 C 0.7103(3) 0.4530(3) 0.36226(18)
C8 C 0.7730(3) 0.5634(3) 0.36181(18)
H6 H 0.7396 0.6421 0.3682
C9 C 0.6006(3) 0.2281(3) 0.36449(18)
C10 C 0.5448(3) 0.3413(3) 0.3725(2)
H7 H 0.4696 0.3393 0.3784
C11 C 0.5966(3) 0.4534(3) 0.3718(2)
C12 C 0.5373(3) 0.5736(3) 0.3829(2)
H8 H 0.5872 0.6442 0.3808
H9 H 0.5116 0.5728 0.4376
H10 H 0.4745 0.5820 0.3377
C13 C 0.5444(3) 0.1070(3) 0.37224(19)
C14 C 0.6010(3) 0.0081(3) 0.4153(2)
H11 H 0.6765 0.0171 0.4375
C15 C 0.5478(3) -0.1038(3) 0.4261(2)
H12 H 0.5867 -0.1707 0.4562
C16 C 0.4379(3) -0.1174(3) 0.3930(2)
H13 H 0.4020 -0.1944 0.3993
C17 C 0.3804(3) -0.0195(3) 0.3509(2)
H14 H 0.3048 -0.0289 0.3291
C18 C 0.4331(3) 0.0925(3) 0.3405(2)
H15 H 0.3933 0.1598 0.3117
C19 C 0.8913(3) 0.7930(3) 0.3246(2)
C20 C 0.8450(3) 0.8165(3) 0.2387(2)
C21 C 0.8017(3) 0.9394(3) 0.2359(2)
C22 C 0.8721(3) 0.8960(3) 0.3696(2)
H16 H 0.9086 0.9046 0.4382
C23 C 0.8379(3) 0.7488(4) 0.1631(2)
H17 H 0.8649 0.6657 0.1631
C24 C 0.7907(3) 0.8054(5) 0.0886(2)
H18 H 0.7841 0.7603 0.0371
C25 C 0.7526(3) 0.9287(5) 0.0884(3)
H19 H 0.7232 0.9666 0.0362
C26 C 0.7566(3) 0.9957(4) 0.1610(3)
H20 H 0.7292 1.0787 0.1601
N1 N 1.1044(3) 0.7899(3) 0.4442(2)
N2 N 0.7055(2) 0.2241(2) 0.35421(15)
N3 N 0.8198(2) 0.9858(3) 0.31693(18)
H21 H 0.7846 1.0725 0.3303
O1 O 1.1692(3) 0.7862(3) 0.3957(2)
O2 O 1.1012(2) 0.8721(3) 0.49643(19)
loop_
_geom_bond_atom_site_label_1
_geom_bond_atom_site_label_2
_geom_bond_site_symmetry_1
_geom_bond_site_symmetry_2
C1 H1 1_555 1_555
H2 C1 1_555 1_555
C2 C1 1_555 1_555
H3 C2 1_555 1_555
C3 C2 1_555 1_555
C4 C3 1_555 1_555
H4 C4 1_555 1_555
C5 C4 1_555 1_555
H5 C5 1_555 1_555
C6 C5 1_555 1_555
C7 C6 1_555 1_555
C8 C3 1_555 1_555
H6 C8 1_555 1_555
C9 C10 1_555 1_555
C10 H7 1_555 1_555
C11 C7 1_555 1_555
C12 C11 1_555 1_555
H8 C12 1_555 1_555
H9 C12 1_555 1_555
H10 C12 1_555 1_555
C13 C9 1_555 1_555
C14 C13 1_555 1_555
H11 C14 1_555 1_555
C15 C14 1_555 1_555
H12 C15 1_555 1_555
C16 C15 1_555 1_555
H13 C16 1_555 1_555
C17 C16 1_555 1_555
H14 C17 1_555 1_555
C18 C13 1_555 1_555
H15 C18 1_555 1_555
C19 C2 1_555 1_555
C20 C19 1_555 1_555
C21 C20 1_555 1_555
C22 C19 1_555 1_555
H16 C22 1_555 1_555
C23 C20 1_555 1_555
H17 C23 1_555 1_555
C24 C23 1_555 1_555
H18 C24 1_555 1_555
C25 C24 1_555 1_555
H19 C25 1_555 1_555
C26 C21 1_555 1_555
H20 C26 1_555 1_555
N1 C1 1_555 1_555
N2 C6 1_555 1_555
N3 C21 1_555 1_555
H21 N3 1_555 1_555
O1 N1 1_555 1_555
O2 N1 1_555 1_555
C7 C8 1_555 1_555
C9 N2 1_555 1_555
C10 C11 1_555 1_555
C17 C18 1_555 1_555
C22 N3 1_555 1_555
C25 C26 1_555 1_555

#END
