
#######################################################################
#
#                 Cambridge Crystallographic Data Centre
#                                CCDC 
#
#######################################################################
#
# If this CIF has been generated from an entry in the Cambridge 
# Structural Database, then it will include bibliographic, chemical, 
# crystal, experimental, refinement or atomic coordinate data resulting 
# from the CCDC's data processing and validation procedures.
#
#######################################################################

data_SOWPIF
_chemical_formula_moiety         'C18 H14 N2 O3'
_chemical_name_systematic        
'Methyl 3-oxo-1-phenyl-2,3-dihydro-1H-imidazo[1,5-a]indole-1-carboxylate'
_symmetry_cell_setting           triclinic
_symmetry_space_group_name_H-M   'P -1'
_symmetry_Int_Tables_number      2
_space_group_name_Hall           '-P 1'
loop_
_symmetry_equiv_pos_site_id
_symmetry_equiv_pos_as_xyz
1 x,y,z
2 -x,-y,-z
_cell_length_a                   7.9240(5)
_cell_length_b                   10.1644(8)
_cell_length_c                   11.0285(8)
_cell_angle_alpha                110.602(7)
_cell_angle_beta                 110.187(7)
_cell_angle_gamma                95.953(6)
_cell_volume                     754.324
_exptl_crystal_colour            colorless
_exptl_crystal_description       block
_cell_formula_units_Z            2
loop_
_atom_site_label
_atom_site_type_symbol
_atom_site_fract_x
_atom_site_fract_y
_atom_site_fract_z
O1 O 0.53769(18) 0.69568(14) 0.77741(15)
O2 O 0.19381(17) 0.98646(15) 0.93174(13)
O3 O 0.05408(19) 1.06489(17) 0.76749(14)
N1 N 0.28674(18) 0.73169(15) 0.61623(14)
N2 N 0.45148(19) 0.91232(15) 0.82366(15)
H1 H 0.5356 0.9614 0.9084
C1 C 0.1906(2) 0.60877(18) 0.49051(18)
C2 C 0.2211(3) 0.4718(2) 0.4445(2)
H2 H 0.3187 0.4477 0.5015
C3 C 0.0998(3) 0.3723(2) 0.3099(2)
H3 H 0.1170 0.2795 0.2746
C4 C -0.0471(3) 0.4081(2) 0.2263(2)
H4 H -0.1275 0.3383 0.1366
C5 C -0.0765(3) 0.5438(2) 0.2725(2)
H5 H -0.1756 0.5660 0.2150
C6 C 0.0438(2) 0.64838(19) 0.40696(18)
C7 C 0.0548(2) 0.79769(19) 0.48712(18)
H6 H -0.0251 0.8520 0.4582
C8 C 0.2030(2) 0.84368(17) 0.61210(17)
C9 C 0.4395(2) 0.77176(19) 0.74516(18)
C10 C 0.3099(2) 0.97352(17) 0.75260(16)
C11 C 0.4001(2) 1.10959(18) 0.74536(17)
C12 C 0.4049(3) 1.10762(19) 0.62115(19)
H7 H 0.3482 1.0229 0.5379
C13 C 0.4941(3) 1.2318(2) 0.6197(2)
H8 H 0.4973 1.2295 0.5355
C14 C 0.5773(3) 1.3574(2) 0.7412(2)
H9 H 0.6365 1.4405 0.7398
C15 C 0.5725(3) 1.3599(2) 0.8648(2)
H10 H 0.6293 1.4450 0.9477
C16 C 0.4842(3) 1.2369(2) 0.8676(2)
H11 H 0.4813 1.2400 0.9522
C17 C 0.1817(2) 1.00894(18) 0.83006(18)
C18 C -0.0759(4) 1.1060(4) 0.8309(3)
H12 H -0.1577 1.1499 0.7798
H13 H -0.0084 1.1743 0.9282
H14 H -0.1476 1.0212 0.8267
loop_
_geom_bond_atom_site_label_1
_geom_bond_atom_site_label_2
_geom_bond_site_symmetry_1
_geom_bond_site_symmetry_2
O1 C9 1_555 1_555
O2 C17 1_555 1_555
O3 C17 1_555 1_555
N1 C1 1_555 1_555
N2 H1 1_555 1_555
C1 C2 1_555 1_555
C2 H2 1_555 1_555
C3 C2 1_555 1_555
H3 C3 1_555 1_555
C4 C3 1_555 1_555
H4 C4 1_555 1_555
C5 C4 1_555 1_555
H5 C5 1_555 1_555
C6 C1 1_555 1_555
C7 C6 1_555 1_555
H6 C7 1_555 1_555
C8 N1 1_555 1_555
C9 N1 1_555 1_555
C10 N2 1_555 1_555
C11 C10 1_555 1_555
C12 C11 1_555 1_555
H7 C12 1_555 1_555
C13 C12 1_555 1_555
H8 C13 1_555 1_555
C14 C13 1_555 1_555
H9 C14 1_555 1_555
C15 C14 1_555 1_555
H10 C15 1_555 1_555
C16 C11 1_555 1_555
H11 C16 1_555 1_555
C17 C10 1_555 1_555
C18 O3 1_555 1_555
H12 C18 1_555 1_555
H13 C18 1_555 1_555
H14 C18 1_555 1_555
N2 C9 1_555 1_555
C5 C6 1_555 1_555
C7 C8 1_555 1_555
C8 C10 1_555 1_555
C15 C16 1_555 1_555

#END
