
#######################################################################
#
#                 Cambridge Crystallographic Data Centre
#                                CCDC 
#
#######################################################################
#
# If this CIF has been generated from an entry in the Cambridge 
# Structural Database, then it will include bibliographic, chemical, 
# crystal, experimental, refinement or atomic coordinate data resulting 
# from the CCDC's data processing and validation procedures.
#
#######################################################################

data_SOWPUR
_chemical_formula_moiety         'C16 H16 Cl1 N1 O5'
_chemical_name_systematic        
'Dimethyl 2-(acetyl(1-(4-chlorophenyl)vinyl)amino)but-2-enedioate'
_symmetry_cell_setting           triclinic
_symmetry_space_group_name_H-M   'P -1'
_symmetry_Int_Tables_number      2
_space_group_name_Hall           '-P 1'
loop_
_symmetry_equiv_pos_site_id
_symmetry_equiv_pos_as_xyz
1 x,y,z
2 -x,-y,-z
_cell_length_a                   8.7232(19)
_cell_length_b                   9.571(2)
_cell_length_c                   10.935(3)
_cell_angle_alpha                108.211(4)
_cell_angle_beta                 91.678(4)
_cell_angle_gamma                102.394(4)
_cell_volume                     842.44
_cell_formula_units_Z            2
loop_
_atom_site_label
_atom_site_type_symbol
_atom_site_fract_x
_atom_site_fract_y
_atom_site_fract_z
Cl1 Cl 1.41969(9) 0.65223(10) 0.85941(12)
N1 N 0.7396(2) 0.11068(18) 0.64380(17)
O1 O 0.6755(2) -0.06865(18) 0.44678(16)
O2 O 0.9358(2) -0.1270(2) 0.59551(18)
O3 O 0.6932(2) -0.25885(17) 0.61227(18)
O4 O 0.8422(3) -0.1634(2) 0.86952(19)
O5 O 0.7304(2) -0.0199(2) 1.02508(17)
C1 C 0.9514(3) 0.5156(3) 0.8295(3)
H1 H 0.8671 0.5594 0.8548
C2 C 1.1027(3) 0.6053(3) 0.8598(3)
H2 H 1.1203 0.7086 0.9036
C3 C 1.2280(3) 0.5390(3) 0.8240(3)
C4 C 1.2029(3) 0.3869(3) 0.7577(3)
H3 H 1.2880 0.3436 0.7342
C5 C 1.0499(3) 0.2981(2) 0.7260(2)
H4 H 1.0332 0.1954 0.6803
C6 C 0.9212(3) 0.3605(2) 0.7617(2)
C7 C 0.7571(3) 0.2679(2) 0.7242(2)
C8 C 0.6274(3) 0.3142(3) 0.7559(3)
H5 H 0.5292 0.2473 0.7272
H6 H 0.6340 0.4137 0.8071
C9 C 0.7057(3) 0.0644(3) 0.5094(2)
C10 C 0.7087(3) 0.1868(3) 0.4496(3)
H7 H 0.7103 0.1455 0.3577
H8 H 0.8013 0.2668 0.4855
H9 H 0.6164 0.2261 0.4675
C11 C 0.7534(2) 0.0056(2) 0.7071(2)
C12 C 0.8060(3) -0.1339(3) 0.6295(2)
C13 C 0.7412(5) -0.4001(3) 0.5620(3)
H10 H 0.7592 -0.4177 0.4728
H11 H 0.6595 -0.4816 0.5688
H12 H 0.8366 -0.3948 0.6110
C14 C 0.7389(3) 0.0333(3) 0.8334(2)
H13 H 0.7029 0.1182 0.8775
C15 C 0.7766(3) -0.0624(3) 0.9067(2)
C16 C 0.7663(5) -0.1025(4) 1.1085(3)
H14 H 0.7162 -0.2079 1.0695
H15 H 0.7280 -0.0641 1.1909
H16 H 0.8784 -0.0904 1.1205
loop_
_geom_bond_atom_site_label_1
_geom_bond_atom_site_label_2
_geom_bond_site_symmetry_1
_geom_bond_site_symmetry_2
Cl1 C3 1_555 1_555
N1 C7 1_555 1_555
O1 C9 1_555 1_555
O2 C12 1_555 1_555
O3 C12 1_555 1_555
O4 C15 1_555 1_555
O5 C15 1_555 1_555
C1 H1 1_555 1_555
C2 C1 1_555 1_555
H2 C2 1_555 1_555
C3 C2 1_555 1_555
C4 C3 1_555 1_555
H3 C4 1_555 1_555
C5 C4 1_555 1_555
H4 C5 1_555 1_555
C6 C1 1_555 1_555
C7 C6 1_555 1_555
C8 C7 1_555 1_555
H5 C8 1_555 1_555
H6 C8 1_555 1_555
C9 N1 1_555 1_555
C10 C9 1_555 1_555
H7 C10 1_555 1_555
H8 C10 1_555 1_555
H9 C10 1_555 1_555
C11 N1 1_555 1_555
C12 C11 1_555 1_555
C13 O3 1_555 1_555
H10 C13 1_555 1_555
H11 C13 1_555 1_555
H12 C13 1_555 1_555
C14 C11 1_555 1_555
H13 C14 1_555 1_555
C15 C14 1_555 1_555
C16 O5 1_555 1_555
H14 C16 1_555 1_555
H15 C16 1_555 1_555
H16 C16 1_555 1_555
C5 C6 1_555 1_555

#END
