
#######################################################################
#
#                 Cambridge Crystallographic Data Centre
#                                CCDC 
#
#######################################################################
#
# If this CIF has been generated from an entry in the Cambridge 
# Structural Database, then it will include bibliographic, chemical, 
# crystal, experimental, refinement or atomic coordinate data resulting 
# from the CCDC's data processing and validation procedures.
#
#######################################################################

data_SOWSEE
_chemical_formula_moiety         'C27 H21 O2 P1'
_chemical_name_systematic        
'diphenyl(4-phenyl-2H-chromen-3-yl)phosphine oxide'
_symmetry_cell_setting           monoclinic
_symmetry_space_group_name_H-M   'P 21/c'
_symmetry_Int_Tables_number      14
_space_group_name_Hall           '-P 2ybc'
loop_
_symmetry_equiv_pos_site_id
_symmetry_equiv_pos_as_xyz
1 x,y,z
2 -x,1/2+y,1/2-z
3 -x,-y,-z
4 x,1/2-y,1/2+z
_cell_length_a                   10.9371(19)
_cell_length_b                   18.062(3)
_cell_length_c                   10.6290(18)
_cell_angle_alpha                90
_cell_angle_beta                 93.849(4)
_cell_angle_gamma                90
_cell_volume                     2094.98
_exptl_crystal_colour            colorless
_exptl_crystal_description       block
_cell_formula_units_Z            4
loop_
_atom_site_label
_atom_site_type_symbol
_atom_site_fract_x
_atom_site_fract_y
_atom_site_fract_z
P1 P 0.24156(6) 0.07615(4) 0.71404(7)
O1 O 0.19264(17) 0.12411(11) 0.60975(18)
O2 O 0.54759(18) 0.10086(12) 0.92602(18)
C1 C 0.1885(2) 0.10644(15) 0.8630(3)
C2 C 0.1912(3) 0.18203(16) 0.8864(3)
H1 H 0.2177 0.2144 0.8259
C3 C 0.1544(3) 0.20942(19) 0.9997(4)
H2 H 0.1574 0.2600 1.0157
C4 C 0.1136(3) 0.1619(2) 1.0880(3)
H3 H 0.0886 0.1806 1.1637
C5 C 0.1094(3) 0.0874(2) 1.0662(3)
H4 H 0.0809 0.0556 1.1265
C6 C 0.1473(3) 0.05919(17) 0.9544(3)
H5 H 0.1452 0.0084 0.9403
C7 C 0.1938(2) -0.01911(15) 0.6944(2)
C8 C 0.0746(3) -0.03074(17) 0.6451(3)
H6 H 0.0238 0.0095 0.6259
C9 C 0.0311(3) -0.10165(18) 0.6244(3)
H7 H -0.0484 -0.1090 0.5900
C10 C 0.1044(3) -0.16129(18) 0.6544(3)
H8 H 0.0744 -0.2090 0.6407
C11 C 0.2225(3) -0.15083(17) 0.7047(3)
H9 H 0.2721 -0.1914 0.7258
C12 C 0.2669(3) -0.07974(16) 0.7237(3)
H10 H 0.3470 -0.0727 0.7566
C13 C 0.4064(2) 0.07583(15) 0.7443(2)
C14 C 0.4882(2) 0.10198(14) 0.6652(2)
C15 C 0.6169(2) 0.11065(15) 0.7165(3)
C16 C 0.7157(3) 0.12111(16) 0.6417(3)
H11 H 0.7031 0.1192 0.5543
C17 C 0.8319(3) 0.13425(18) 0.6960(3)
H12 H 0.8974 0.1402 0.6454
C18 C 0.8510(3) 0.13856(17) 0.8248(3)
H13 H 0.9292 0.1486 0.8608
C19 C 0.7561(3) 0.12826(17) 0.9012(3)
H14 H 0.7693 0.1319 0.9884
C20 C 0.6406(3) 0.11246(15) 0.8470(3)
C21 C 0.4582(3) 0.05003(18) 0.8719(3)
H15 H 0.3922 0.0449 0.9279
H16 H 0.4958 0.0018 0.8635
C22 C 0.4565(2) 0.12337(15) 0.5312(2)
C23 C 0.3968(2) 0.07388(15) 0.4495(3)
H17 H 0.3752 0.0274 0.4787
C24 C 0.3685(3) 0.09263(19) 0.3244(3)
H18 H 0.3279 0.0589 0.2703
C25 C 0.4004(3) 0.1609(2) 0.2804(3)
H19 H 0.3815 0.1736 0.1965
C26 C 0.4601(3) 0.21022(18) 0.3607(3)
H20 H 0.4813 0.2566 0.3309
C27 C 0.4891(3) 0.19222(16) 0.4850(3)
H21 H 0.5305 0.2261 0.5382
loop_
_geom_bond_atom_site_label_1
_geom_bond_atom_site_label_2
_geom_bond_site_symmetry_1
_geom_bond_site_symmetry_2
P1 O1 1_555 1_555
O2 C20 1_555 1_555
C1 P1 1_555 1_555
C2 C1 1_555 1_555
H1 C2 1_555 1_555
C3 C2 1_555 1_555
H2 C3 1_555 1_555
C4 C3 1_555 1_555
H3 C4 1_555 1_555
C5 C4 1_555 1_555
H4 C5 1_555 1_555
C6 C1 1_555 1_555
H5 C6 1_555 1_555
C7 P1 1_555 1_555
C8 C7 1_555 1_555
H6 C8 1_555 1_555
C9 C8 1_555 1_555
H7 C9 1_555 1_555
C10 C9 1_555 1_555
H8 C10 1_555 1_555
C11 C10 1_555 1_555
H9 C11 1_555 1_555
C12 C7 1_555 1_555
H10 C12 1_555 1_555
C13 P1 1_555 1_555
C14 C13 1_555 1_555
C15 C14 1_555 1_555
C16 C15 1_555 1_555
H11 C16 1_555 1_555
C17 C16 1_555 1_555
H12 C17 1_555 1_555
C18 C17 1_555 1_555
H13 C18 1_555 1_555
C19 C18 1_555 1_555
H14 C19 1_555 1_555
C20 C15 1_555 1_555
C21 O2 1_555 1_555
H15 C21 1_555 1_555
H16 C21 1_555 1_555
C22 C14 1_555 1_555
C23 C22 1_555 1_555
H17 C23 1_555 1_555
C24 C23 1_555 1_555
H18 C24 1_555 1_555
C25 C24 1_555 1_555
H19 C25 1_555 1_555
C26 C25 1_555 1_555
H20 C26 1_555 1_555
C27 C22 1_555 1_555
H21 C27 1_555 1_555
C5 C6 1_555 1_555
C11 C12 1_555 1_555
C13 C21 1_555 1_555
C19 C20 1_555 1_555
C26 C27 1_555 1_555

#END
