
#######################################################################
#
#                 Cambridge Crystallographic Data Centre
#                                CCDC 
#
#######################################################################
#
# If this CIF has been generated from an entry in the Cambridge 
# Structural Database, then it will include bibliographic, chemical, 
# crystal, experimental, refinement or atomic coordinate data resulting 
# from the CCDC's data processing and validation procedures.
#
#######################################################################

data_SOWSII
_chemical_formula_moiety         'C28 H23 O1 P1'
_chemical_name_systematic        
'diphenyl(1-phenyl-3,4-dihydronaphthalen-2-yl)phosphine oxide'
_symmetry_cell_setting           monoclinic
_symmetry_space_group_name_H-M   'P 21/c'
_symmetry_Int_Tables_number      14
_space_group_name_Hall           '-P 2ybc'
loop_
_symmetry_equiv_pos_site_id
_symmetry_equiv_pos_as_xyz
1 x,y,z
2 -x,1/2+y,1/2-z
3 -x,-y,-z
4 x,1/2-y,1/2+z
_cell_length_a                   10.9892(15)
_cell_length_b                   18.447(2)
_cell_length_c                   10.4836(15)
_cell_angle_alpha                90
_cell_angle_beta                 94.773(4)
_cell_angle_gamma                90
_cell_volume                     2117.84
_exptl_crystal_colour            colorless
_cell_formula_units_Z            4
loop_
_atom_site_label
_atom_site_type_symbol
_atom_site_fract_x
_atom_site_fract_y
_atom_site_fract_z
P1 P 0.75763(4) 0.07647(2) 0.79468(4)
O1 O 0.80849(12) 0.12093(7) 0.90424(13)
C1 C 0.59336(16) 0.07750(9) 0.76164(16)
C2 C 0.51355(15) 0.10424(9) 0.84180(16)
C3 C 0.38439(16) 0.11736(9) 0.79225(16)
C4 C 0.29026(17) 0.12413(10) 0.87249(18)
H1 H 0.3077 0.1197 0.9614
C5 C 0.17104(18) 0.13735(12) 0.8234(2)
H2 H 0.1087 0.1419 0.8790
C6 C 0.14435(18) 0.14371(12) 0.6936(2)
H3 H 0.0637 0.1527 0.6601
C7 C 0.23694(18) 0.13679(11) 0.61210(19)
H4 H 0.2183 0.1416 0.5234
C8 C 0.35615(17) 0.12303(9) 0.65884(17)
C9 C 0.45649(17) 0.11189(10) 0.57182(17)
H5 H 0.5003 0.1576 0.5620
H6 H 0.4216 0.0965 0.4871
C10 C 0.54374(17) 0.05488(10) 0.62786(16)
H7 H 0.6113 0.0490 0.5733
H8 H 0.5013 0.0083 0.6317
C11 C 0.54795(15) 0.11924(9) 0.98000(16)
C12 C 0.60885(17) 0.06645(10) 1.05655(17)
H9 H 0.6291 0.0219 1.0203
C13 C 0.63959(19) 0.07912(11) 1.18493(18)
H10 H 0.6815 0.0434 1.2351
C14 C 0.60933(18) 0.14380(12) 1.24031(18)
H11 H 0.6304 0.1521 1.3278
C15 C 0.54788(18) 0.19636(11) 1.16630(18)
H12 H 0.5267 0.2404 1.2037
C16 C 0.51749(17) 0.18424(10) 1.03744(17)
H13 H 0.4757 0.2203 0.9878
C17 C 0.80587(16) -0.01696(9) 0.80589(16)
C18 C 0.72967(18) -0.07604(10) 0.77726(18)
H14 H 0.6470 -0.0685 0.7499
C19 C 0.7752(2) -0.14602(11) 0.78890(19)
H15 H 0.7238 -0.1857 0.7675
C20 C 0.8958(2) -0.15751(11) 0.8318(2)
H16 H 0.9261 -0.2051 0.8403
C21 C 0.97198(19) -0.09956(12) 0.86212(19)
H17 H 1.0539 -0.1076 0.8921
C22 C 0.92777(17) -0.02952(11) 0.84846(18)
H18 H 0.9802 0.0099 0.8680
C23 C 0.81067(15) 0.11011(10) 0.64667(17)
C24 C 0.85747(18) 0.06673(11) 0.55364(18)
H19 H 0.8615 0.0162 0.5650
C25 C 0.8982(2) 0.09753(14) 0.4445(2)
H20 H 0.9304 0.0680 0.3824
C26 C 0.8916(2) 0.17131(14) 0.4268(2)
H21 H 0.9196 0.1920 0.3526
C27 C 0.84423(19) 0.21536(12) 0.5169(2)
H22 H 0.8391 0.2657 0.5037
C28 C 0.80425(17) 0.18488(11) 0.6270(2)
H23 H 0.7726 0.2148 0.6888
loop_
_geom_bond_atom_site_label_1
_geom_bond_atom_site_label_2
_geom_bond_site_symmetry_1
_geom_bond_site_symmetry_2
P1 O1 1_555 1_555
C1 P1 1_555 1_555
C2 C1 1_555 1_555
C3 C2 1_555 1_555
C4 C3 1_555 1_555
H1 C4 1_555 1_555
C5 C4 1_555 1_555
H2 C5 1_555 1_555
C6 C5 1_555 1_555
H3 C6 1_555 1_555
C7 C6 1_555 1_555
H4 C7 1_555 1_555
C8 C3 1_555 1_555
C9 C8 1_555 1_555
H5 C9 1_555 1_555
H6 C9 1_555 1_555
C10 C1 1_555 1_555
H7 C10 1_555 1_555
H8 C10 1_555 1_555
C11 C2 1_555 1_555
C12 C11 1_555 1_555
H9 C12 1_555 1_555
C13 C12 1_555 1_555
H10 C13 1_555 1_555
C14 C13 1_555 1_555
H11 C14 1_555 1_555
C15 C14 1_555 1_555
H12 C15 1_555 1_555
C16 C11 1_555 1_555
H13 C16 1_555 1_555
C17 P1 1_555 1_555
C18 C17 1_555 1_555
H14 C18 1_555 1_555
C19 C18 1_555 1_555
H15 C19 1_555 1_555
C20 C19 1_555 1_555
H16 C20 1_555 1_555
C21 C20 1_555 1_555
H17 C21 1_555 1_555
C22 C17 1_555 1_555
H18 C22 1_555 1_555
C23 P1 1_555 1_555
C24 C23 1_555 1_555
H19 C24 1_555 1_555
C25 C24 1_555 1_555
H20 C25 1_555 1_555
C26 C25 1_555 1_555
H21 C26 1_555 1_555
C27 C26 1_555 1_555
H22 C27 1_555 1_555
C28 C23 1_555 1_555
H23 C28 1_555 1_555
C7 C8 1_555 1_555
C9 C10 1_555 1_555
C15 C16 1_555 1_555
C21 C22 1_555 1_555
C27 C28 1_555 1_555

#END
