
#######################################################################
#
#                 Cambridge Crystallographic Data Centre
#                                CCDC 
#
#######################################################################
#
# If this CIF has been generated from an entry in the Cambridge 
# Structural Database, then it will include bibliographic, chemical, 
# crystal, experimental, refinement or atomic coordinate data resulting 
# from the CCDC's data processing and validation procedures.
#
#######################################################################

data_SOXDIT
_chemical_name_common            
2-(4-Methylphenoxy)-3-isopropyl-5,6,7,8-tetrahydro[1]benzothieno[2,3-d]pyrimidin-4(3H)-one
_chemical_formula_moiety         'C20 H22 N2 O2 S1'
_chemical_name_systematic        
3-Isopropyl-2-p-tolyloxy-5,6,7,8-tetrahydro-1-benzothieno[2,3-d]pyrimidin-4(3H)-one
_symmetry_cell_setting           monoclinic
_symmetry_space_group_name_H-M   'P 21'
_symmetry_Int_Tables_number      4
_space_group_name_Hall           'P 2yb'
loop_
_symmetry_equiv_pos_site_id
_symmetry_equiv_pos_as_xyz
1 x,y,z
2 -x,1/2+y,-z
_cell_length_a                   13.2367(7)
_cell_length_b                   5.7493(3)
_cell_length_c                   13.4306(7)
_cell_angle_alpha                90
_cell_angle_beta                 115.858(4)
_cell_angle_gamma                90
_cell_volume                     919.758
_exptl_crystal_colour            colorless
_exptl_crystal_description       block
_chemical_melting_point          '436 K'
_cell_formula_units_Z            2
_exptl_crystal_recrystallization_method hexane/dichloromethane
loop_
_atom_site_label
_atom_site_type_symbol
_atom_site_fract_x
_atom_site_fract_y
_atom_site_fract_z
C1 C 0.20878(19) 0.6656(5) 0.88050(19)
C2 C 0.0948(2) 0.6877(6) 0.8794(2)
H1 H 0.0446 0.7700 0.8132
H2 H 0.0639 0.5339 0.8776
C3 C 0.1018(4) 0.8162(11) 0.9796(5)
H3 H 0.1348 0.7157 1.0439
H4 H 0.0268 0.8576 0.9693
C4 C 0.1717(4) 1.0336(10) 0.9996(6)
H5 H 0.1703 1.1175 1.0616
H6 H 0.1383 1.1329 0.9349
C5 C 0.2932(2) 0.9853(6) 1.0236(3)
H7 H 0.3283 1.1265 1.0144
H8 H 0.3346 0.9322 1.0993
C6 C 0.2953(2) 0.8022(5) 0.9451(2)
C7 C 0.3471(2) 0.5369(5) 0.8298(2)
C8 C 0.23832(18) 0.5102(5) 0.81357(19)
C9 C 0.1665(2) 0.3547(5) 0.7278(2)
C10 C 0.33155(19) 0.2882(5) 0.6970(2)
C11 C 0.1476(2) 0.1089(5) 0.5680(2)
H9 H 0.0727 0.1104 0.5658
C12 C 0.1818(3) -0.1432(6) 0.5773(3)
H10 H 0.2536 -0.1556 0.5760
H11 H 0.1269 -0.2287 0.5163
H12 H 0.1867 -0.2060 0.6455
C13 C 0.1348(3) 0.2214(6) 0.4619(2)
H13 H 0.1085 0.3781 0.4587
H14 H 0.0817 0.1349 0.4001
H15 H 0.2061 0.2229 0.4591
C14 C 0.4833(2) 0.1798(5) 0.6585(2)
C15 C 0.5521(3) 0.0051(7) 0.7178(3)
H16 H 0.5252 -0.1141 0.7466
C16 C 0.6628(3) 0.0076(7) 0.7348(3)
H17 H 0.7098 -0.1137 0.7741
C17 C 0.7055(2) 0.1829(6) 0.6956(2)
C18 C 0.6321(3) 0.3536(7) 0.6344(3)
H18 H 0.6583 0.4727 0.6050
C19 C 0.5207(3) 0.3543(6) 0.6149(3)
H19 H 0.4724 0.4715 0.5730
C20 C 0.8275(2) 0.1872(10) 0.7183(3)
H20 H 0.8639 0.3178 0.7646
H21 H 0.8332 0.2006 0.6496
H22 H 0.8632 0.0460 0.7549
N1 N 0.22102(15) 0.2496(4) 0.66777(15)
N2 N 0.39874(17) 0.4226(4) 0.77485(19)
O1 O 0.36853(15) 0.1676(4) 0.63340(17)
O2 O 0.06852(14) 0.3137(4) 0.70296(16)
S1 S 0.41623(5) 0.74703(15) 0.92707(6)
C21? C 0.0904(12) 0.916(2) 0.9334(14)
C22? C 0.1882(9) 0.974(5) 1.0420(11)
H23? H 0.0817 0.5593 0.9191
H24? H 0.0370 0.6849 0.8037
H25? H 0.0829 1.0405 0.8817
H26? H 0.0230 0.9169 0.9448
H27? H 0.1965 0.8556 1.0964
H28? H 0.1758 1.1224 1.0692
H29? H 0.2996 1.1376 0.9958
H30? H 0.3578 0.9636 1.0943
loop_
_geom_bond_atom_site_label_1
_geom_bond_atom_site_label_2
_geom_bond_site_symmetry_1
_geom_bond_site_symmetry_2
C1 C2 1_555 1_555
C2 H1 1_555 1_555
H2 C2 1_555 1_555
C3 C2 1_555 1_555
H3 C3 1_555 1_555
H4 C3 1_555 1_555
C4 C3 1_555 1_555
H5 C4 1_555 1_555
H6 C4 1_555 1_555
C5 C4 1_555 1_555
H7 C5 1_555 1_555
H8 C5 1_555 1_555
C6 C1 1_555 1_555
C7 C8 1_555 1_555
C8 C1 1_555 1_555
C9 C8 1_555 1_555
C10 N1 1_555 1_555
C11 H9 1_555 1_555
C12 C11 1_555 1_555
H10 C12 1_555 1_555
H11 C12 1_555 1_555
H12 C12 1_555 1_555
C13 C11 1_555 1_555
H13 C13 1_555 1_555
H14 C13 1_555 1_555
H15 C13 1_555 1_555
C14 C15 1_555 1_555
C15 H16 1_555 1_555
C16 C15 1_555 1_555
H17 C16 1_555 1_555
C17 C16 1_555 1_555
C18 C17 1_555 1_555
H18 C18 1_555 1_555
C19 C14 1_555 1_555
H19 C19 1_555 1_555
C20 C17 1_555 1_555
H20 C20 1_555 1_555
H21 C20 1_555 1_555
H22 C20 1_555 1_555
N1 C9 1_555 1_555
N2 C7 1_555 1_555
O1 C10 1_555 1_555
O2 C9 1_555 1_555
S1 C6 1_555 1_555
C5 C6 1_555 1_555
C7 S1 1_555 1_555
C10 N2 1_555 1_555
C11 N1 1_555 1_555
C14 O1 1_555 1_555
C18 C19 1_555 1_555

#END
