
#######################################################################
#
#                 Cambridge Crystallographic Data Centre
#                                CCDC 
#
#######################################################################
#
# If this CIF has been generated from an entry in the Cambridge 
# Structural Database, then it will include bibliographic, chemical, 
# crystal, experimental, refinement or atomic coordinate data resulting 
# from the CCDC's data processing and validation procedures.
#
#######################################################################

data_SOXFUH
_chemical_formula_moiety         'C20 H19 N3 O4,C1 H4 O1'
_chemical_name_systematic        
"(E)-N'-(2,5-Dimethoxybenzylidene)-2-(8-quinolyloxy)acetohydrazide methanol solvate"
_symmetry_cell_setting           triclinic
_symmetry_space_group_name_H-M   'P -1'
_symmetry_Int_Tables_number      2
_space_group_name_Hall           '-P 1'
loop_
_symmetry_equiv_pos_site_id
_symmetry_equiv_pos_as_xyz
1 x,y,z
2 -x,-y,-z
_cell_length_a                   9.4199(12)
_cell_length_b                   10.8652(14)
_cell_length_c                   11.1721(14)
_cell_angle_alpha                93.2680(10)
_cell_angle_beta                 112.816(2)
_cell_angle_gamma                107.859(3)
_cell_volume                     982.821
_exptl_crystal_colour            colorless
_exptl_crystal_description       block
_cell_formula_units_Z            2
_exptl_crystal_recrystallization_method acetone/methanol
loop_
_atom_site_label
_atom_site_type_symbol
_atom_site_fract_x
_atom_site_fract_y
_atom_site_fract_z
O1 O -0.24162(17) 0.13371(15) 0.32912(13)
O2 O 0.0642(2) 0.1461(2) 0.64429(16)
O3 O 0.4628(2) 0.39500(19) 0.28395(18)
O4 O 0.8736(2) 0.3699(2) 0.7849(2)
N1 N -0.3582(2) 0.19146(18) 0.08689(17)
N2 N 0.0876(2) 0.19807(18) 0.45814(17)
H2 H 0.0371 0.2020 0.3766
N3 N 0.2580(2) 0.23818(18) 0.51768(18)
C1 C -0.4175(3) 0.2184(2) -0.0328(2)
H3 H -0.3428 0.2594 -0.0664
C2 C -0.5851(3) 0.1892(2) -0.1121(2)
H4 H -0.6203 0.2104 -0.1956
C3 C -0.6951(3) 0.1293(2) -0.0644(2)
H5 H -0.8073 0.1086 -0.1154
C4 C -0.6394(3) 0.0981(2) 0.0630(2)
C5 C -0.7479(3) 0.0345(3) 0.1181(3)
H6 H -0.8608 0.0141 0.0709
C6 C -0.6890(3) 0.0033(3) 0.2383(3)
H7 H -0.7616 -0.0393 0.2731
C7 C -0.5183(3) 0.0346(2) 0.3117(2)
H8 H -0.4796 0.0116 0.3941
C8 C -0.4090(2) 0.0981(2) 0.2636(2)
C9 C -0.4680(3) 0.1308(2) 0.1355(2)
C10 C -0.1828(3) 0.1048(2) 0.4579(2)
H9 H -0.2262 0.0101 0.4509
H10 H -0.2240 0.1450 0.5106
C11 C 0.0023(3) 0.1532(2) 0.5280(2)
C12 C 0.3277(3) 0.2839(2) 0.4443(2)
H11 H 0.2622 0.2859 0.3576
C13 C 0.5061(3) 0.3334(2) 0.4906(2)
C14 C 0.5723(3) 0.3921(2) 0.4061(3)
C15 C 0.7399(4) 0.4419(3) 0.4488(3)
H12 H 0.7843 0.4798 0.3926
C16 C 0.8436(4) 0.4366(3) 0.5739(3)
H13 H 0.9572 0.4722 0.6020
C17 C 0.7807(3) 0.3791(3) 0.6577(3)
C18 C 0.6115(3) 0.3272(2) 0.6158(3)
H14 H 0.5682 0.2879 0.6720
C19 C 0.5240(4) 0.4653(3) 0.2014(3)
H15 H 0.5871 0.5557 0.2460
H16 H 0.4335 0.4616 0.1206
H17 H 0.5931 0.4265 0.1814
C20 C 1.0484(4) 0.4126(4) 0.8254(4)
H18 H 1.0716 0.3572 0.7710
H19 H 1.1020 0.4068 0.9164
H20 H 1.0885 0.5023 0.8159
O5 O -0.0293(3) 0.2135(3) 0.1843(2)
H1 H -0.1081 0.2324 0.1818
C21 C 0.0330(4) 0.2797(4) 0.1045(3)
H21 H 0.0494 0.3715 0.1245
H22 H -0.0432 0.2434 0.0133
H23 H 0.1365 0.2705 0.1197
loop_
_geom_bond_atom_site_label_1
_geom_bond_atom_site_label_2
_geom_bond_site_symmetry_1
_geom_bond_site_symmetry_2
O1 C8 1_555 1_555
O2 C11 1_555 1_555
O3 C14 1_555 1_555
O4 C17 1_555 1_555
O5 H1 1_555 1_555
N1 C1 1_555 1_555
N2 H2 1_555 1_555
N3 N2 1_555 1_555
C1 H3 1_555 1_555
C2 C1 1_555 1_555
H4 C2 1_555 1_555
C3 C2 1_555 1_555
H5 C3 1_555 1_555
C4 C3 1_555 1_555
C5 C4 1_555 1_555
H6 C5 1_555 1_555
C6 C5 1_555 1_555
H7 C6 1_555 1_555
C7 C6 1_555 1_555
H8 C7 1_555 1_555
C8 C7 1_555 1_555
C9 N1 1_555 1_555
C10 O1 1_555 1_555
H9 C10 1_555 1_555
H10 C10 1_555 1_555
C11 N2 1_555 1_555
C12 N3 1_555 1_555
H11 C12 1_555 1_555
C13 C12 1_555 1_555
C14 C13 1_555 1_555
C15 C14 1_555 1_555
H12 C15 1_555 1_555
C16 C15 1_555 1_555
H13 C16 1_555 1_555
C17 C16 1_555 1_555
C18 C13 1_555 1_555
H14 C18 1_555 1_555
C19 O3 1_555 1_555
H15 C19 1_555 1_555
H16 C19 1_555 1_555
H17 C19 1_555 1_555
C20 O4 1_555 1_555
H18 C20 1_555 1_555
H19 C20 1_555 1_555
H20 C20 1_555 1_555
C21 O5 1_555 1_555
H21 C21 1_555 1_555
H22 C21 1_555 1_555
H23 C21 1_555 1_555
C4 C9 1_555 1_555
C8 C9 1_555 1_555
C10 C11 1_555 1_555
C17 C18 1_555 1_555

#END
