
#######################################################################
#
#                 Cambridge Crystallographic Data Centre
#                                CCDC 
#
#######################################################################
#
# If this CIF has been generated from an entry in the Cambridge 
# Structural Database, then it will include bibliographic, chemical, 
# crystal, experimental, refinement or atomic coordinate data resulting 
# from the CCDC's data processing and validation procedures.
#
#######################################################################

data_SOXGIW
_chemical_formula_moiety         'C15 H13 N3 O4'
_chemical_name_systematic        
'Dimethyl 1-(2-cyanobenzyl)-1H-pyrazole-3,5-dicarboxylate'
_symmetry_cell_setting           monoclinic
_symmetry_space_group_name_H-M   'P 21/n'
_symmetry_Int_Tables_number      14
_space_group_name_Hall           '-P 2yn'
loop_
_symmetry_equiv_pos_site_id
_symmetry_equiv_pos_as_xyz
1 x,y,z
2 1/2-x,1/2+y,1/2-z
3 -x,-y,-z
4 1/2+x,1/2-y,1/2+z
_cell_length_a                   7.2416(19)
_cell_length_b                   10.977(3)
_cell_length_c                   18.405(4)
_cell_angle_alpha                90
_cell_angle_beta                 100.670(11)
_cell_angle_gamma                90
_cell_volume                     1437.74
_exptl_crystal_colour            colorless
_exptl_crystal_description       prism
_cell_formula_units_Z            4
_exptl_crystal_recrystallization_method 'diethyl ether'
loop_
_atom_site_label
_atom_site_type_symbol
_atom_site_fract_x
_atom_site_fract_y
_atom_site_fract_z
C1 C 0.7452(2) -0.11741(14) -0.00030(8)
C2 C 0.7207(2) 0.00398(14) -0.02209(9)
H1 H 0.6593 0.0337 -0.0675
C3 C 0.8066(2) 0.07034(14) 0.03796(9)
C4 C 0.6825(2) -0.22943(15) -0.04182(9)
C5 C 0.5284(3) -0.3033(2) -0.15741(12)
H2 H 0.6333 -0.3544 -0.1618
H3 H 0.4715 -0.2736 -0.2054
H4 H 0.4378 -0.3494 -0.1368
C6 C 0.8293(2) 0.20236(15) 0.04805(9)
C7 C 0.7579(3) 0.39182(17) -0.01060(12)
H5 H 0.6940 0.4259 0.0259
H6 H 0.7038 0.4234 -0.0584
H7 H 0.8886 0.4132 0.0009
C8 C 0.9833(2) 0.00848(16) 0.16631(9)
H8 H 1.0696 0.0758 0.1655
H9 H 1.0572 -0.0635 0.1826
C9 C 0.8571(2) 0.03652(14) 0.22102(9)
C10 C 0.9142(2) 0.11795(15) 0.27911(9)
C11 C 0.8042(3) 0.13819(17) 0.33260(10)
H10 H 0.8447 0.1919 0.3714
C12 C 0.6365(3) 0.0788(2) 0.32785(11)
H11 H 0.5623 0.0924 0.3633
C13 C 0.5775(3) -0.0008(2) 0.27081(12)
H12 H 0.4631 -0.0408 0.2677
C14 C 0.6869(3) -0.02201(17) 0.21785(10)
H13 H 0.6452 -0.0764 0.1796
C15 C 1.0869(3) 0.18543(18) 0.28545(10)
N1 N 0.87843(18) -0.01204(12) 0.09157(7)
N2 N 0.84141(19) -0.12686(12) 0.06921(7)
N3 N 1.2207(3) 0.24250(19) 0.29236(11)
O1 O 0.7088(2) -0.33067(12) -0.01849(7)
O2 O 0.5924(2) -0.20179(11) -0.10967(7)
O3 O 0.9169(2) 0.25110(12) 0.10214(7)
O4 O 0.7390(2) 0.26063(10) -0.01091(7)
loop_
_geom_bond_atom_site_label_1
_geom_bond_atom_site_label_2
_geom_bond_site_symmetry_1
_geom_bond_site_symmetry_2
C1 C2 1_555 1_555
C2 H1 1_555 1_555
C3 C2 1_555 1_555
C4 C1 1_555 1_555
C5 H2 1_555 1_555
H3 C5 1_555 1_555
H4 C5 1_555 1_555
C6 C3 1_555 1_555
C7 H5 1_555 1_555
H6 C7 1_555 1_555
H7 C7 1_555 1_555
C8 H8 1_555 1_555
H9 C8 1_555 1_555
C9 C8 1_555 1_555
C10 C9 1_555 1_555
C11 C10 1_555 1_555
H10 C11 1_555 1_555
C12 C11 1_555 1_555
H11 C12 1_555 1_555
C13 C12 1_555 1_555
H12 C13 1_555 1_555
C14 C9 1_555 1_555
H13 C14 1_555 1_555
C15 C10 1_555 1_555
N1 C3 1_555 1_555
N2 C1 1_555 1_555
N3 C15 1_555 1_555
O1 C4 1_555 1_555
O2 C4 1_555 1_555
O3 C6 1_555 1_555
O4 C6 1_555 1_555
C5 O2 1_555 1_555
C7 O4 1_555 1_555
C8 N1 1_555 1_555
C13 C14 1_555 1_555
N1 N2 1_555 1_555

#END
