
#######################################################################
#
#                 Cambridge Crystallographic Data Centre
#                                CCDC 
#
#######################################################################
#
# If this CIF has been generated from an entry in the Cambridge 
# Structural Database, then it will include bibliographic, chemical, 
# crystal, experimental, refinement or atomic coordinate data resulting 
# from the CCDC's data processing and validation procedures.
#
#######################################################################

data_SOXHUJ
_chemical_compound_source        'bark of Walsura pinnata Hassk'
_chemical_formula_moiety         'C30 H46 O3,0.25(C6 H14),0.25(H2 O1)'
_chemical_name_systematic        
'3-Oxoolean-12-en-28-oic acid n-hexane solvate hydrate'
_symmetry_cell_setting           monoclinic
_symmetry_space_group_name_H-M   'C 2'
_symmetry_Int_Tables_number      5
_space_group_name_Hall           'C 2y'
loop_
_symmetry_equiv_pos_site_id
_symmetry_equiv_pos_as_xyz
1 x,y,z
2 -x,y,-z
3 1/2+x,1/2+y,z
4 1/2-x,1/2+y,-z
_cell_length_a                   28.5864(7)
_cell_length_b                   12.2408(3)
_cell_length_c                   19.3545(4)
_cell_angle_alpha                90
_cell_angle_beta                 120.5520(10)
_cell_angle_gamma                90
_cell_volume                     5832.29
_exptl_crystal_colour            colorless
_exptl_crystal_description       prism
_cell_formula_units_Z            8
loop_
_atom_site_label
_atom_site_type_symbol
_atom_site_fract_x
_atom_site_fract_y
_atom_site_fract_z
O4 O 0.71245(16) 0.5134(3) 0.21228(19)
O5 O 0.70076(14) 0.6881(3) 0.22605(19)
H2 H 0.6763 0.6814 0.1777
O6 O 1.12997(15) 0.6700(4) 0.3873(3)
C31 C 0.72161(17) 0.5932(4) 0.2551(2)
C32 C 0.75531(17) 0.5834(4) 0.3459(2)
C33 C 0.7125(2) 0.5534(5) 0.3692(3)
H49 H 0.6899 0.6185 0.3623
H50 H 0.6883 0.4959 0.3324
C34 C 0.7382(2) 0.5129(6) 0.4555(3)
H51 H 0.7090 0.4893 0.4655
H52 H 0.7578 0.5741 0.4924
C35 C 0.7776(2) 0.4181(6) 0.4742(3)
C36 C 0.7479(3) 0.3152(6) 0.4269(4)
H53 H 0.7736 0.2542 0.4438
H54 H 0.7326 0.3285 0.3694
H55 H 0.7186 0.2972 0.4372
C37 C 0.8052(3) 0.3955(8) 0.5653(4)
H56 H 0.8302 0.3336 0.5795
H57 H 0.7775 0.3782 0.5791
H58 H 0.8255 0.4604 0.5952
C38 C 0.8213(2) 0.4554(5) 0.4546(3)
H59 H 0.8422 0.5163 0.4907
H60 H 0.8468 0.3942 0.4654
C39 C 0.79764(18) 0.4926(4) 0.3673(2)
H61 H 0.7778 0.4285 0.3327
C40 C 0.84081(17) 0.5249(4) 0.3471(2)
C41 C 0.85843(19) 0.4506(4) 0.3156(3)
H62 H 0.8428 0.3798 0.3068
C42 C 0.9010(2) 0.4683(5) 0.2927(3)
H63 H 0.8839 0.4606 0.2338
H64 H 0.9290 0.4105 0.3179
C43 C 0.92871(16) 0.5796(4) 0.3176(2)
H65 H 0.9536 0.5741 0.3770
C44 C 0.96696(16) 0.6060(4) 0.2835(2)
C45 C 0.9375(2) 0.6018(6) 0.1903(3)
H66 H 0.9182 0.6707 0.1680
H67 H 0.9114 0.5413 0.1706
H68 H 0.9643 0.5906 0.1736
C46 C 1.01230(18) 0.5192(4) 0.3172(3)
H69 H 1.0265 0.5103 0.3754
H70 H 0.9969 0.4483 0.2908
C47 C 1.0592(2) 0.5498(5) 0.3042(3)
H71 H 1.0879 0.4935 0.3293
H72 H 1.0459 0.5506 0.2460
C48 C 1.08275(19) 0.6585(5) 0.3391(3)
C49 C 1.0432(2) 0.7552(4) 0.3119(3)
C50 C 1.0716(3) 0.8501(5) 0.3670(5)
H73 H 1.0748 0.8366 0.4191
H74 H 1.0505 0.9170 0.3435
H75 H 1.1079 0.8586 0.3742
C51 C 1.0297(3) 0.7881(7) 0.2266(4)
H76 H 1.0634 0.8057 0.2273
H77 H 1.0059 0.8522 0.2089
H78 H 1.0114 0.7273 0.1896
C52 C 0.99266(18) 0.7183(4) 0.3177(2)
H79 H 1.0073 0.7109 0.3766
C53 C 0.9495(2) 0.8059(4) 0.2916(3)
H80 H 0.9273 0.8078 0.2323
H81 H 0.9670 0.8782 0.3104
C54 C 0.9129(2) 0.7824(4) 0.3265(3)
H82 H 0.8839 0.8383 0.3062
H83 H 0.9348 0.7901 0.3855
C55 C 0.88640(17) 0.6687(4) 0.3064(2)
C56 C 0.83882(18) 0.6701(5) 0.2192(2)
H84 H 0.8526 0.6849 0.1830
H85 H 0.8130 0.7274 0.2130
H86 H 0.8205 0.5991 0.2060
C57 C 0.86480(17) 0.6396(4) 0.3657(2)
C58 C 0.91077(17) 0.6397(4) 0.4546(2)
H87 H 0.8949 0.6390 0.4891
H88 H 0.9331 0.7054 0.4656
H89 H 0.9335 0.5747 0.4654
C59 C 0.82326(18) 0.7272(4) 0.3573(3)
H90 H 0.8433 0.7924 0.3887
H91 H 0.8016 0.7494 0.3003
C60 C 0.78427(18) 0.6904(4) 0.3852(3)
H92 H 0.8049 0.6809 0.4442
H93 H 0.7568 0.7482 0.3724
O7 O 1.0000 0.834(2) 0.0000
H3 H 1.0211 0.7934 0.0385
H3A H 0.9789 0.7934 -0.0385
O1 O 0.64169(14) 0.4999(3) 0.06365(17)
H1 H 0.6626 0.5079 0.1133
O2 O 0.64271(12) 0.6807(3) 0.06809(17)
O3 O 0.9328(2) 0.6613(5) -0.1228(4)
C1 C 0.62647(15) 0.5947(4) 0.0301(2)
C2 C 0.58412(15) 0.5936(4) -0.0588(2)
C3 C 0.52936(16) 0.5977(4) -0.0593(3)
H4 H 0.5240 0.5273 -0.0391
H5 H 0.5314 0.6560 -0.0224
C4 C 0.48058(17) 0.6192(4) -0.1430(3)
H6 H 0.4758 0.5562 -0.1781
H7 H 0.4474 0.6253 -0.1392
C5 C 0.48699(17) 0.7227(4) -0.1809(3)
C6 C 0.4882(2) 0.8240(5) -0.1331(3)
H8 H 0.4548 0.8267 -0.1305
H9 H 0.4908 0.8899 -0.1596
H10 H 0.5197 0.8198 -0.0786
C7 C 0.43893(19) 0.7325(5) -0.2667(3)
H11 H 0.4051 0.7373 -0.2657
H12 H 0.4377 0.6681 -0.2977
H13 H 0.4432 0.7984 -0.2918
C8 C 0.54003(16) 0.7146(4) -0.1828(2)
H14 H 0.5450 0.7833 -0.2054
H15 H 0.5364 0.6544 -0.2193
C9 C 0.59140(15) 0.6944(3) -0.1001(2)
H16 H 0.5960 0.7592 -0.0657
C10 C 0.64277(14) 0.6855(3) -0.1054(2)
C11 C 0.67132(16) 0.7747(3) -0.0975(2)
H17 H 0.6585 0.8412 -0.0878
C12 C 0.72209(16) 0.7808(3) -0.1023(2)
H18 H 0.7522 0.8074 -0.0503
H19 H 0.7165 0.8349 -0.1439
C13 C 0.73895(15) 0.6714(3) -0.1223(2)
H20 H 0.7143 0.6629 -0.1815
C14 C 0.79755(15) 0.6718(3) -0.1098(2)
C15 C 0.84201(17) 0.7066(4) -0.0258(3)
H21 H 0.8762 0.7167 -0.0252
H22 H 0.8467 0.6500 0.0130
H23 H 0.8316 0.7755 -0.0115
C16 C 0.79644(18) 0.7532(4) -0.1717(3)
H24 H 0.7663 0.7334 -0.2258
H25 H 0.7892 0.8274 -0.1591
C17 C 0.8498(2) 0.7548(4) -0.1727(3)
H26 H 0.8412 0.7684 -0.2284
H27 H 0.8722 0.8166 -0.1394
C18 C 0.8821(3) 0.6541(6) -0.1435(3)
C19 C 0.86193(19) 0.5453(4) -0.1348(3)
C20 C 0.8513(2) 0.4719(6) -0.2056(3)
H28 H 0.8854 0.4606 -0.2053
H29 H 0.8247 0.5070 -0.2560
H30 H 0.8371 0.4013 -0.2007
C21 C 0.9086(2) 0.4917(8) -0.0581(3)
H31 H 0.9407 0.4844 -0.0636
H32 H 0.8972 0.4193 -0.0507
H33 H 0.9175 0.5376 -0.0115
C22 C 0.80785(16) 0.5581(3) -0.1335(2)
H34 H 0.7780 0.5468 -0.1902
C23 C 0.80078(17) 0.4670(3) -0.0851(2)
H35 H 0.8098 0.3956 -0.0993
H36 H 0.8258 0.4795 -0.0270
C24 C 0.74204(17) 0.4658(3) -0.1034(2)
H37 H 0.7381 0.4075 -0.0712
H38 H 0.7177 0.4476 -0.1607
C25 C 0.72373(15) 0.5751(3) -0.0854(2)
C26 C 0.75144(15) 0.5890(4) 0.0067(2)
H39 H 0.7907 0.5791 0.0312
H40 H 0.7371 0.5343 0.0281
H41 H 0.7440 0.6623 0.0190
C27 C 0.65940(15) 0.5761(3) -0.1251(2)
C28 C 0.62911(16) 0.5670(3) -0.2184(2)
H42 H 0.5908 0.5494 -0.2389
H43 H 0.6458 0.5091 -0.2338
H44 H 0.6317 0.6366 -0.2412
C29 C 0.64230(16) 0.4771(3) -0.0940(2)
H45 H 0.6412 0.4117 -0.1248
H46 H 0.6704 0.4643 -0.0372
C30 C 0.58735(16) 0.4889(3) -0.0997(2)
H47 H 0.5811 0.4250 -0.0741
H48 H 0.5583 0.4900 -0.1569
C61? C 1.1854(6) 1.0554(15) 0.6244(8)
H94? H 1.2017 0.9941 0.6618
H95? H 1.1793 1.1164 0.6517
H96? H 1.2100 1.0786 0.6059
C62? C 1.1051(7) 1.1153(17) 0.4942(10)
H97? H 1.0747 1.0880 0.4427
H98? H 1.1317 1.1517 0.4837
C63? C 1.0836(11) 1.197(2) 0.5336(11)
H99? H 1.0685 1.1571 0.5624
H100? H 1.1134 1.2449 0.5723
C64? C 1.1321(7) 1.0202(13) 0.5536(10)
H101? H 1.1076 0.9947 0.5725
H102? H 1.1382 0.9585 0.5261
C65? C 1.0388(9) 1.2658(19) 0.4645(12)
H103? H 1.0542 1.3053 0.4360
H104? H 1.0095 1.2172 0.4257
C66? C 1.0156(11) 1.347(2) 0.4991(18)
H105? H 0.9868 1.3901 0.4554
H106? H 1.0446 1.3966 0.5364
H107? H 1.0008 1.3079 0.5277
C67? C 0.8654(3) 0.6426(8) -0.1818(6)
O8? O 0.8798(6) 0.6340(10) -0.2241(7)
loop_
_geom_bond_atom_site_label_1
_geom_bond_atom_site_label_2
_geom_bond_site_symmetry_1
_geom_bond_site_symmetry_2
O1 H1 1_555 1_555
O2 C1 1_555 1_555
O3 C18 1_555 1_555
O4 C31 1_555 1_555
O5 H2 1_555 1_555
O6 C48 1_555 1_555
O7 H3 1_555 1_555
C1 O1 1_555 1_555
C2 C1 1_555 1_555
C3 C2 1_555 1_555
H4 C3 1_555 1_555
H5 C3 1_555 1_555
C4 C3 1_555 1_555
H6 C4 1_555 1_555
H7 C4 1_555 1_555
C5 C4 1_555 1_555
C6 C5 1_555 1_555
H8 C6 1_555 1_555
H9 C6 1_555 1_555
H10 C6 1_555 1_555
C7 C5 1_555 1_555
H11 C7 1_555 1_555
H12 C7 1_555 1_555
H13 C7 1_555 1_555
C8 C5 1_555 1_555
H14 C8 1_555 1_555
H15 C8 1_555 1_555
C9 C2 1_555 1_555
H16 C9 1_555 1_555
C10 C9 1_555 1_555
C11 C10 1_555 1_555
H17 C11 1_555 1_555
C12 C11 1_555 1_555
H18 C12 1_555 1_555
H19 C12 1_555 1_555
C13 C12 1_555 1_555
H20 C13 1_555 1_555
C14 C13 1_555 1_555
C15 C14 1_555 1_555
H21 C15 1_555 1_555
H22 C15 1_555 1_555
H23 C15 1_555 1_555
C16 C14 1_555 1_555
H24 C16 1_555 1_555
H25 C16 1_555 1_555
C17 C16 1_555 1_555
H26 C17 1_555 1_555
H27 C17 1_555 1_555
C18 C17 1_555 1_555
C19 C18 1_555 1_555
C20 C19 1_555 1_555
H28 C20 1_555 1_555
H29 C20 1_555 1_555
H30 C20 1_555 1_555
C21 C19 1_555 1_555
H31 C21 1_555 1_555
H32 C21 1_555 1_555
H33 C21 1_555 1_555
C22 C14 1_555 1_555
H34 C22 1_555 1_555
C23 C22 1_555 1_555
H35 C23 1_555 1_555
H36 C23 1_555 1_555
C24 C23 1_555 1_555
H37 C24 1_555 1_555
H38 C24 1_555 1_555
C25 C13 1_555 1_555
C26 C25 1_555 1_555
H39 C26 1_555 1_555
H40 C26 1_555 1_555
H41 C26 1_555 1_555
C27 C10 1_555 1_555
C28 C27 1_555 1_555
H42 C28 1_555 1_555
H43 C28 1_555 1_555
H44 C28 1_555 1_555
C29 C27 1_555 1_555
H45 C29 1_555 1_555
H46 C29 1_555 1_555
C30 C2 1_555 1_555
H47 C30 1_555 1_555
H48 C30 1_555 1_555
C31 O5 1_555 1_555
C32 C31 1_555 1_555
C33 C32 1_555 1_555
H49 C33 1_555 1_555
H50 C33 1_555 1_555
C34 C33 1_555 1_555
H51 C34 1_555 1_555
H52 C34 1_555 1_555
C35 C34 1_555 1_555
C36 C35 1_555 1_555
H53 C36 1_555 1_555
H54 C36 1_555 1_555
H55 C36 1_555 1_555
C37 C35 1_555 1_555
H56 C37 1_555 1_555
H57 C37 1_555 1_555
H58 C37 1_555 1_555
C38 C35 1_555 1_555
H59 C38 1_555 1_555
H60 C38 1_555 1_555
C39 C32 1_555 1_555
H61 C39 1_555 1_555
C40 C39 1_555 1_555
C41 C40 1_555 1_555
H62 C41 1_555 1_555
C42 C41 1_555 1_555
H63 C42 1_555 1_555
H64 C42 1_555 1_555
C43 C42 1_555 1_555
H65 C43 1_555 1_555
C44 C43 1_555 1_555
C45 C44 1_555 1_555
H66 C45 1_555 1_555
H67 C45 1_555 1_555
H68 C45 1_555 1_555
C46 C44 1_555 1_555
H69 C46 1_555 1_555
H70 C46 1_555 1_555
C47 C46 1_555 1_555
H71 C47 1_555 1_555
H72 C47 1_555 1_555
C48 C47 1_555 1_555
C49 C48 1_555 1_555
C50 C49 1_555 1_555
H73 C50 1_555 1_555
H74 C50 1_555 1_555
H75 C50 1_555 1_555
C51 C49 1_555 1_555
H76 C51 1_555 1_555
H77 C51 1_555 1_555
H78 C51 1_555 1_555
C52 C44 1_555 1_555
H79 C52 1_555 1_555
C53 C52 1_555 1_555
H80 C53 1_555 1_555
H81 C53 1_555 1_555
C54 C53 1_555 1_555
H82 C54 1_555 1_555
H83 C54 1_555 1_555
C55 C43 1_555 1_555
C56 C55 1_555 1_555
H84 C56 1_555 1_555
H85 C56 1_555 1_555
H86 C56 1_555 1_555
C57 C40 1_555 1_555
C58 C57 1_555 1_555
H87 C58 1_555 1_555
H88 C58 1_555 1_555
H89 C58 1_555 1_555
C59 C57 1_555 1_555
H90 C59 1_555 1_555
H91 C59 1_555 1_555
C60 C32 1_555 1_555
H92 C60 1_555 1_555
H93 C60 1_555 1_555
H3A O7 1_555 1_555
C8 C9 1_555 1_555
C19 C22 1_555 1_555
C24 C25 1_555 1_555
C25 C27 1_555 1_555
C29 C30 1_555 1_555
C38 C39 1_555 1_555
C49 C52 1_555 1_555
C54 C55 1_555 1_555
C55 C57 1_555 1_555
C59 C60 1_555 1_555

#END
