
#######################################################################
#
#                 Cambridge Crystallographic Data Centre
#                                CCDC 
#
#######################################################################
#
# If this CIF has been generated from an entry in the Cambridge 
# Structural Database, then it will include bibliographic, chemical, 
# crystal, experimental, refinement or atomic coordinate data resulting 
# from the CCDC's data processing and validation procedures.
#
#######################################################################

data_SOXJAR
_chemical_formula_moiety         'C8 H8 Cl1 N2 1+,Cl1 1-'
_chemical_name_systematic        
'2-(Chloromethyl)-1H-3,1-benzimidazol-3-ium chloride'
_symmetry_cell_setting           monoclinic
_symmetry_space_group_name_H-M   'P 21/c'
_symmetry_Int_Tables_number      14
_space_group_name_Hall           '-P 2ybc'
loop_
_symmetry_equiv_pos_site_id
_symmetry_equiv_pos_as_xyz
1 x,y,z
2 -x,1/2+y,1/2-z
3 -x,-y,-z
4 x,1/2-y,1/2+z
_cell_length_a                   7.1972(14)
_cell_length_b                   9.4507(19)
_cell_length_c                   14.046(3)
_cell_angle_alpha                90
_cell_angle_beta                 102.51(3)
_cell_angle_gamma                90
_cell_volume                     932.706
_exptl_crystal_colour            colorless
_exptl_crystal_description       prism
_cell_formula_units_Z            4
loop_
_atom_site_label
_atom_site_type_symbol
_atom_site_fract_x
_atom_site_fract_y
_atom_site_fract_z
Cl1 Cl 0.34571(17) 0.59201(10) 1.15934(7)
Cl2 Cl 0.11234(16) 0.56643(10) 0.83757(8)
N1 N 0.2890(4) 0.8248(3) 1.00495(19)
H1 H 0.3032 0.7611 1.0496
N2 N 0.2626(4) 0.9234(3) 0.86427(19)
H2 H 0.2575 0.9338 0.8029
C1 C 0.2574(4) 0.9674(4) 1.0180(2)
C2 C 0.2393(5) 1.0306(3) 0.9280(2)
C3 C 0.2936(5) 0.8027(4) 0.9125(3)
C4 C 0.2467(5) 1.0453(4) 1.1012(3)
H3 H 0.2596 1.0028 1.1620
C5 C 0.2079(5) 1.1754(4) 0.9153(3)
H4 H 0.1957 1.2183 0.8546
C6 C 0.2163(6) 1.1877(4) 1.0883(3)
H5 H 0.2090 1.2435 1.1419
C7 C 0.1961(6) 1.2515(4) 0.9973(3)
H6 H 0.1738 1.3484 0.9917
C8 C 0.3276(6) 0.6648(4) 0.8695(3)
H7 H 0.4205 0.6114 0.9162
H8 H 0.3787 0.6801 0.8119
loop_
_geom_bond_atom_site_label_1
_geom_bond_atom_site_label_2
_geom_bond_site_symmetry_1
_geom_bond_site_symmetry_2
Cl2 C8 1_555 1_555
N1 H1 1_555 1_555
N2 H2 1_555 1_555
C1 N1 1_555 1_555
C2 N2 1_555 1_555
C3 N1 1_555 1_555
C4 C1 1_555 1_555
H3 C4 1_555 1_555
C5 C2 1_555 1_555
H4 C5 1_555 1_555
C6 C4 1_555 1_555
H5 C6 1_555 1_555
C7 C5 1_555 1_555
H6 C7 1_555 1_555
C8 C3 1_555 1_555
H7 C8 1_555 1_555
H8 C8 1_555 1_555
N2 C3 1_555 1_555
C1 C2 1_555 1_555
C6 C7 1_555 1_555

#END
