
#######################################################################
#
#                 Cambridge Crystallographic Data Centre
#                                CCDC 
#
#######################################################################
#
# If this CIF has been generated from an entry in the Cambridge 
# Structural Database, then it will include bibliographic, chemical, 
# crystal, experimental, refinement or atomic coordinate data resulting 
# from the CCDC's data processing and validation procedures.
#
#######################################################################

data_SOXLEX01
_chemical_name_common            2,6-Dibromo-1-chloro-4-fluorobenzene
_chemical_formula_moiety         'C6 H2 Br2 Cl1 F1'
_chemical_name_systematic        1,3-Dibromo-2-chloro-5-fluorobenzene
_symmetry_cell_setting           monoclinic
_symmetry_space_group_name_H-M   'P 21/c'
_symmetry_Int_Tables_number      14
_space_group_name_Hall           '-P 2ybc'
loop_
_symmetry_equiv_pos_site_id
_symmetry_equiv_pos_as_xyz
1 x,y,z
2 -x,1/2+y,1/2-z
3 -x,-y,-z
4 x,1/2-y,1/2+z
_cell_length_a                   3.8943(5)
_cell_length_b                   13.5109(17)
_cell_length_c                   14.4296(17)
_cell_angle_alpha                90
_cell_angle_beta                 93.636(2)
_cell_angle_gamma                90
_cell_volume                     757.692
_exptl_crystal_colour            colorless
_exptl_crystal_description       needle
_cell_formula_units_Z            4
_exptl_crystal_recrystallization_method acetonitrile
loop_
_atom_site_label
_atom_site_type_symbol
_atom_site_fract_x
_atom_site_fract_y
_atom_site_fract_z
Br1 Br 1.01129(14) 0.14882(3) 0.90258(3)
Br2 Br 0.39102(13) 0.40777(4) 0.62652(3)
Cl1 Cl 0.6619(4) 0.35899(9) 0.83886(9)
F1 F 0.7773(10) 0.0514(2) 0.5594(2)
C1 C 0.6950(12) 0.2676(3) 0.7563(3)
C2 C 0.8441(12) 0.1773(3) 0.7801(3)
C3 C 0.8718(13) 0.1031(3) 0.7138(4)
H1 H 0.9706 0.0407 0.7300
C4 C 0.7523(15) 0.1231(4) 0.6244(3)
C5 C 0.6035(14) 0.2116(4) 0.5968(3)
H2 H 0.5198 0.2226 0.5344
C6 C 0.5814(13) 0.2838(3) 0.6641(3)
loop_
_geom_bond_atom_site_label_1
_geom_bond_atom_site_label_2
_geom_bond_site_symmetry_1
_geom_bond_site_symmetry_2
Br1 C2 1_555 1_555
Br2 C6 1_555 1_555
Cl1 C1 1_555 1_555
F1 C4 1_555 1_555
C1 C2 1_555 1_555
C2 C3 1_555 1_555
C3 H1 1_555 1_555
C4 C3 1_555 1_555
C5 C4 1_555 1_555
H2 C5 1_555 1_555
C6 C1 1_555 1_555
C5 C6 1_555 1_555

#END
