
#######################################################################
#
#                 Cambridge Crystallographic Data Centre
#                                CCDC 
#
#######################################################################
#
# If this CIF has been generated from an entry in the Cambridge 
# Structural Database, then it will include bibliographic, chemical, 
# crystal, experimental, refinement or atomic coordinate data resulting 
# from the CCDC's data processing and validation procedures.
#
#######################################################################

data_SOXMUP
_chemical_formula_moiety         'C24 H23 Cl1 N2 O2 S1'
_chemical_name_systematic        
"1'-benzyl-4'-(4-chlorophenyl)-1-methyl-1H-spiro[2,1-benzothiazole-3,3'-pyrrolidine] 2,2-dioxide"
_symmetry_cell_setting           orthorhombic
_symmetry_space_group_name_H-M   'P 21 21 21'
_symmetry_Int_Tables_number      19
_space_group_name_Hall           'P 2ac 2ab'
loop_
_symmetry_equiv_pos_site_id
_symmetry_equiv_pos_as_xyz
1 x,y,z
2 1/2-x,-y,1/2+z
3 -x,1/2+y,1/2-z
4 1/2+x,1/2-y,-z
_cell_length_a                   9.8718(19)
_cell_length_b                   11.482(2)
_cell_length_c                   18.461(4)
_cell_angle_alpha                90
_cell_angle_beta                 90
_cell_angle_gamma                90
_cell_volume                     2092.52
_exptl_crystal_colour            colorless
_exptl_crystal_description       block
_cell_formula_units_Z            4
loop_
_atom_site_label
_atom_site_type_symbol
_atom_site_fract_x
_atom_site_fract_y
_atom_site_fract_z
Cl1 Cl 0.29235(7) 1.13145(6) 0.80206(4)
S1 S 0.25403(5) 0.62249(5) 0.94739(3)
O1 O 0.20212(18) 0.53342(16) 0.99388(9)
O2 O 0.30016(17) 0.72694(15) 0.98142(9)
N1 N 0.1407(2) 0.65846(19) 0.88548(11)
N2 N 0.54781(19) 0.53151(18) 0.95847(10)
C1 C 0.3682(2) 0.5551(2) 0.88113(12)
C2 C 0.4832(2) 0.6376(2) 0.85272(11)
H1 H 0.5102 0.6053 0.8045
C3 C 0.6034(2) 0.6113(2) 0.90390(13)
H2 H 0.6787 0.5741 0.8771
H3 H 0.6371 0.6836 0.9269
C4 C 0.4492(2) 0.4612(2) 0.91965(12)
H4 H 0.3919 0.4155 0.9533
H5 H 0.4935 0.4078 0.8848
C5 C 0.2684(2) 0.5190(2) 0.82368(11)
C6 C 0.2899(3) 0.4399(2) 0.76840(13)
H6 H 0.3729 0.3982 0.7657
C7 C 0.1899(3) 0.4217(2) 0.71707(14)
H7 H 0.2043 0.3680 0.6787
C8 C 0.0679(3) 0.4823(2) 0.72189(14)
H8 H -0.0006 0.4690 0.6867
C9 C 0.0449(3) 0.5612(2) 0.77657(14)
H9 H -0.0386 0.6021 0.7794
C10 C 0.1458(2) 0.5799(2) 0.82751(12)
C11 C 0.0280(3) 0.7337(2) 0.90071(15)
H10 H -0.0507 0.6866 0.9146
H11 H 0.0061 0.7794 0.8574
H12 H 0.0517 0.7864 0.9405
C12 C 0.4451(2) 0.7639(2) 0.83849(12)
C13 C 0.3622(2) 0.7906(2) 0.77889(13)
H13 H 0.3381 0.7305 0.7459
C14 C 0.3150(2) 0.9024(2) 0.76722(14)
H14 H 0.2563 0.9187 0.7277
C15 C 0.3547(2) 0.9901(2) 0.81392(13)
C16 C 0.4420(3) 0.9681(2) 0.87056(13)
H15 H 0.4719 1.0296 0.9010
C17 C 0.4855(2) 0.8552(2) 0.88248(12)
H16 H 0.5447 0.8399 0.9219
C18 C 0.6468(2) 0.4699(2) 1.00325(13)
H17 H 0.5971 0.4251 1.0406
H18 H 0.7029 0.5284 1.0287
C19 C 0.7405(2) 0.3872(2) 0.96365(11)
C20 C 0.8699(2) 0.4215(2) 0.94428(14)
H19 H 0.9009 0.4969 0.9574
C21 C 0.9552(3) 0.3478(2) 0.90600(14)
H20 H 1.0438 0.3727 0.8932
C22 C 0.9112(3) 0.2387(2) 0.88659(14)
H21 H 0.9689 0.1887 0.8596
C23 C 0.7829(3) 0.2016(2) 0.90638(14)
H22 H 0.7525 0.1259 0.8934
C24 C 0.6994(3) 0.2753(2) 0.94502(14)
H23 H 0.6121 0.2490 0.9592
loop_
_geom_bond_atom_site_label_1
_geom_bond_atom_site_label_2
_geom_bond_site_symmetry_1
_geom_bond_site_symmetry_2
Cl1 C15 1_555 1_555
S1 O1 1_555 1_555
O2 S1 1_555 1_555
N1 S1 1_555 1_555
N2 C3 1_555 1_555
C1 S1 1_555 1_555
C2 C1 1_555 1_555
H1 C2 1_555 1_555
C3 C2 1_555 1_555
H2 C3 1_555 1_555
H3 C3 1_555 1_555
C4 N2 1_555 1_555
H4 C4 1_555 1_555
H5 C4 1_555 1_555
C5 C1 1_555 1_555
C6 C5 1_555 1_555
H6 C6 1_555 1_555
C7 C6 1_555 1_555
H7 C7 1_555 1_555
C8 C7 1_555 1_555
H8 C8 1_555 1_555
C9 C8 1_555 1_555
H9 C9 1_555 1_555
C10 N1 1_555 1_555
C11 N1 1_555 1_555
H10 C11 1_555 1_555
H11 C11 1_555 1_555
H12 C11 1_555 1_555
C12 C2 1_555 1_555
C13 C12 1_555 1_555
H13 C13 1_555 1_555
C14 C13 1_555 1_555
H14 C14 1_555 1_555
C15 C14 1_555 1_555
C16 C15 1_555 1_555
H15 C16 1_555 1_555
C17 C12 1_555 1_555
H16 C17 1_555 1_555
C18 N2 1_555 1_555
H17 C18 1_555 1_555
H18 C18 1_555 1_555
C19 C18 1_555 1_555
C20 C19 1_555 1_555
H19 C20 1_555 1_555
C21 C20 1_555 1_555
H20 C21 1_555 1_555
C22 C21 1_555 1_555
H21 C22 1_555 1_555
C23 C22 1_555 1_555
H22 C23 1_555 1_555
C24 C19 1_555 1_555
H23 C24 1_555 1_555
C1 C4 1_555 1_555
C5 C10 1_555 1_555
C9 C10 1_555 1_555
C16 C17 1_555 1_555
C23 C24 1_555 1_555

#END
