
#######################################################################
#
#                 Cambridge Crystallographic Data Centre
#                                CCDC 
#
#######################################################################
#
# If this CIF has been generated from an entry in the Cambridge 
# Structural Database, then it will include bibliographic, chemical, 
# crystal, experimental, refinement or atomic coordinate data resulting 
# from the CCDC's data processing and validation procedures.
#
#######################################################################

data_SOXYUB
_chemical_name_common            
'4-amino-3-(4-chlorobenzoyl)-2-(methylthio)-1-naphthonitrile monohydrate'
_chemical_formula_moiety         'C19 H13 Cl1 N2 O1 S1,H2 O1'
_chemical_name_systematic        
'4-amino-3-(4-chlorobenzoyl)-2-(methylsulfanyl)-1-naphthonitrile monohydrate'
_symmetry_cell_setting           monoclinic
_symmetry_space_group_name_H-M   'P 21/c'
_symmetry_Int_Tables_number      14
_space_group_name_Hall           '-P 2ybc'
loop_
_symmetry_equiv_pos_site_id
_symmetry_equiv_pos_as_xyz
1 x,y,z
2 -x,1/2+y,1/2-z
3 -x,-y,-z
4 x,1/2-y,1/2+z
_cell_length_a                   18.1345(7)
_cell_length_b                   7.6901(3)
_cell_length_c                   26.7377(14)
_cell_angle_alpha                90
_cell_angle_beta                 99.348(4)
_cell_angle_gamma                90
_cell_volume                     3679.22
_exptl_crystal_colour            yellow
_exptl_crystal_description       needle
_cell_formula_units_Z            8
loop_
_atom_site_label
_atom_site_type_symbol
_atom_site_fract_x
_atom_site_fract_y
_atom_site_fract_z
C1 C -0.27887(15) -0.0761(4) 0.30076(11)
Cl1 Cl -0.27038(11) -0.60535(18) 0.53913(5)
H1 H -0.198(2) -0.006(5) 0.3488(17)
H2 H -0.172(3) -0.051(6) 0.2982(18)
S1 S -0.47765(5) -0.06374(13) 0.35125(4)
C2 C -0.29941(15) -0.1095(4) 0.24751(11)
N1 N -0.20611(15) -0.0567(4) 0.32120(12)
C3 C -0.33494(16) -0.0689(4) 0.33119(12)
C4 C -0.41009(16) -0.0914(4) 0.31034(13)
C5 C -0.37582(16) -0.1353(4) 0.22678(12)
C6 C -0.31322(18) -0.0308(4) 0.38687(12)
C7 C -0.30630(17) -0.1754(4) 0.42388(12)
C8 C -0.43108(16) -0.1248(4) 0.25937(13)
O1 O -0.29817(19) 0.1171(3) 0.40089(10)
C9 C -0.3422(2) -0.1590(5) 0.14319(14)
H3 H -0.3560 -0.1744 0.1084
C10 C -0.50839(18) -0.1348(5) 0.23771(15)
C11 C -0.24572(18) -0.1111(5) 0.21445(13)
H4 H -0.1954 -0.0973 0.2276
C12 C -0.39484(18) -0.1622(5) 0.17363(13)
H5 H -0.4444 -0.1824 0.1595
C13 C -0.2864(3) -0.4382(5) 0.49428(16)
C14 C -0.3171(2) -0.3474(4) 0.40915(14)
H6 H -0.3314 -0.3740 0.3750
C15 C -0.2856(2) -0.1397(5) 0.47555(14)
H7 H -0.2783 -0.0250 0.4862
C16 C -0.2671(2) -0.1326(6) 0.16367(14)
H8 H -0.2313 -0.1297 0.1424
N2 N -0.57009(17) -0.1416(6) 0.21995(16)
C17 C -0.3071(3) -0.4795(5) 0.44426(16)
H9 H -0.3143 -0.5948 0.4342
C18 C -0.2757(3) -0.2702(6) 0.51062(14)
H10 H -0.2620 -0.2454 0.5449
C19 C -0.5184(3) -0.2776(6) 0.3508(2)
H11 H -0.5563 -0.2784 0.3721
H12 H -0.4803 -0.3607 0.3632
H13 H -0.5404 -0.3077 0.3168
O2 O -0.42997(19) 0.4746(8) 0.03697(13)
O3 O -0.4942(7) 0.216(2) -0.0224(6)
H14 H -0.260(2) 0.313(5) 0.3431(16)
H15 H -0.304(2) 0.372(4) 0.2996(13)
S2 S 0.02446(4) 0.36352(12) 0.34690(3)
Cl2 Cl -0.07843(9) 0.92628(17) 0.53327(5)
C20 C -0.12782(15) 0.3766(4) 0.32765(11)
C21 C -0.19816(15) 0.3817(4) 0.29720(11)
C22 C -0.06248(15) 0.3980(4) 0.30658(12)
C23 C -0.13674(15) 0.4358(4) 0.22276(11)
N3 N -0.26139(15) 0.3640(4) 0.31802(13)
C24 C -0.20305(15) 0.4090(4) 0.24390(11)
C25 C -0.10696(16) 0.4898(4) 0.42024(11)
C26 C -0.12256(16) 0.3427(4) 0.38368(11)
C27 C -0.14238(18) 0.4603(4) 0.16950(12)
H16 H -0.0996 0.4830 0.1556
O4 O -0.13560(17) 0.1989(3) 0.39889(10)
C28 C 0.00129(17) 0.4391(5) 0.23369(13)
C29 C -0.06593(16) 0.4281(4) 0.25519(12)
C30 C -0.1005(2) 0.4556(5) 0.47167(13)
H17 H -0.1034 0.3416 0.4828
C31 C -0.2753(2) 0.4226(6) 0.15932(14)
H18 H -0.3211 0.4164 0.1380
C32 C -0.1020(2) 0.6604(4) 0.40411(13)
H19 H -0.1050 0.6844 0.3697
C33 C -0.27216(17) 0.4043(5) 0.21037(14)
H20 H -0.3162 0.3886 0.2234
C34 C -0.2101(2) 0.4505(5) 0.13881(13)
H21 H -0.2129 0.4626 0.1039
C35 C -0.0873(2) 0.7568(5) 0.48936(14)
C36 C -0.0899(2) 0.5883(6) 0.50607(14)
H22 H -0.0845 0.5648 0.5406
C37 C 0.0682(2) 0.5731(5) 0.34733(18)
H23 H 0.1164 0.5690 0.3685
H24 H 0.0376 0.6583 0.3603
H25 H 0.0742 0.6040 0.3134
N4 N 0.05505(17) 0.4447(5) 0.21628(15)
C38 C -0.0925(2) 0.7949(5) 0.43889(14)
H26 H -0.0898 0.9094 0.4282
loop_
_geom_bond_atom_site_label_1
_geom_bond_atom_site_label_2
_geom_bond_site_symmetry_1
_geom_bond_site_symmetry_2
C1 C2 1_555 1_555
Cl1 C13 1_555 1_555
H1 N1 1_555 1_555
H2 N1 1_555 1_555
S1 C4 1_555 1_555
C2 C5 1_555 1_555
N1 C1 1_555 1_555
C3 C1 1_555 1_555
C4 C3 1_555 1_555
C5 C8 1_555 1_555
C6 C3 1_555 1_555
C7 C6 1_555 1_555
C8 C4 1_555 1_555
O1 C6 1_555 1_555
C9 H3 1_555 1_555
C10 C8 1_555 1_555
C11 C2 1_555 1_555
H4 C11 1_555 1_555
C12 C5 1_555 1_555
H5 C12 1_555 1_555
C13 C17 1_555 1_555
C14 C7 1_555 1_555
H6 C14 1_555 1_555
C15 C7 1_555 1_555
H7 C15 1_555 1_555
C16 C9 1_555 1_555
H8 C16 1_555 1_555
N2 C10 1_555 1_555
C17 C14 1_555 1_555
H9 C17 1_555 1_555
C18 C13 1_555 1_555
H10 C18 1_555 1_555
C19 S1 1_555 1_555
H11 C19 1_555 1_555
H12 C19 1_555 1_555
H13 C19 1_555 1_555
H14 N3 1_555 1_555
H15 N3 1_555 1_555
S2 C22 1_555 1_555
Cl2 C35 1_555 1_555
C20 C21 1_555 1_555
C21 N3 1_555 1_555
C22 C20 1_555 1_555
C23 C24 1_555 1_555
C24 C21 1_555 1_555
C25 C26 1_555 1_555
C26 C20 1_555 1_555
C27 C23 1_555 1_555
H16 C27 1_555 1_555
O4 C26 1_555 1_555
C28 C29 1_555 1_555
C29 C22 1_555 1_555
C30 C25 1_555 1_555
H17 C30 1_555 1_555
C31 H18 1_555 1_555
C32 C25 1_555 1_555
H19 C32 1_555 1_555
C33 C24 1_555 1_555
H20 C33 1_555 1_555
C34 C27 1_555 1_555
H21 C34 1_555 1_555
C35 C36 1_555 1_555
C36 C30 1_555 1_555
H22 C36 1_555 1_555
C37 S2 1_555 1_555
H23 C37 1_555 1_555
H24 C37 1_555 1_555
H25 C37 1_555 1_555
N4 C28 1_555 1_555
C38 C32 1_555 1_555
H26 C38 1_555 1_555
C9 C12 1_555 1_555
C11 C16 1_555 1_555
C15 C18 1_555 1_555
C23 C29 1_555 1_555
C31 C33 1_555 1_555
C31 C34 1_555 1_555
C35 C38 1_555 1_555

#END
