
#######################################################################
#
#                 Cambridge Crystallographic Data Centre
#                                CCDC 
#
#######################################################################
#
# If this CIF has been generated from an entry in the Cambridge 
# Structural Database, then it will include bibliographic, chemical, 
# crystal, experimental, refinement or atomic coordinate data resulting 
# from the CCDC's data processing and validation procedures.
#
#######################################################################

data_SOXZOW
_chemical_name_common            
2,2,4,4-tetramethyl-3,6-bis(trifluoromethlysulfonyl)-3,6-diazabicyclo[3.1.0]hexane
_chemical_formula_moiety         'C10 H14 F6 N2 O4 S2'
_chemical_name_systematic        
2,2,4,4-tetramethyl-3,6-bis((trifluoromethyl)sulfonyl)-3,6-diazabicyclo[3.1.0]hexane
_symmetry_cell_setting           orthorhombic
_symmetry_space_group_name_H-M   'P 21 21 21'
_symmetry_Int_Tables_number      19
_space_group_name_Hall           'P 2ac 2ab'
loop_
_symmetry_equiv_pos_site_id
_symmetry_equiv_pos_as_xyz
1 x,y,z
2 1/2-x,-y,1/2+z
3 1/2+x,1/2-y,-z
4 -x,1/2+y,1/2-z
_cell_length_a                   10.3519(6)
_cell_length_b                   12.2395(6)
_cell_length_c                   12.7244(6)
_cell_angle_alpha                90
_cell_angle_beta                 90
_cell_angle_gamma                90
_cell_volume                     1612.21
_exptl_crystal_colour            colorless
_exptl_crystal_description       plate
_chemical_melting_point          '445 K'
_cell_formula_units_Z            4
loop_
_atom_site_label
_atom_site_type_symbol
_atom_site_fract_x
_atom_site_fract_y
_atom_site_fract_z
C1 C 0.1201(3) 0.0905(2) 0.2544(2)
C2 C 0.1608(2) 0.1193(2) 0.3644(2)
H1 H 0.118(3) 0.092(3) 0.422(3)
C3 C 0.3003(3) 0.1374(2) 0.3721(2)
H2 H 0.346(3) 0.121(3) 0.435(3)
C4 C 0.3634(3) 0.1203(3) 0.2663(2)
C5 C 0.0875(4) -0.0316(3) 0.2516(3)
H3 H 0.003(4) -0.046(3) 0.300(3)
H4 H 0.067(4) -0.047(4) 0.184(4)
H5 H 0.152(4) -0.078(4) 0.280(3)
C6 C 0.0058(3) 0.1602(3) 0.2199(3)
H6 H -0.013(3) 0.135(3) 0.143(3)
H7 H 0.029(4) 0.235(4) 0.222(3)
H8 H -0.057(3) 0.152(3) 0.274(3)
C7 C 0.4342(4) 0.0105(3) 0.2702(3)
H9 H 0.505(4) 0.017(3) 0.325(4)
H10 H 0.469(4) 0.003(4) 0.209(4)
H11 H 0.372(4) -0.052(4) 0.296(3)
C8 C 0.4546(3) 0.2137(3) 0.2392(3)
H12 H 0.490(4) 0.202(3) 0.171(3)
H13 H 0.523(4) 0.213(3) 0.296(3)
H14 H 0.413(4) 0.282(3) 0.239(3)
C9 C 0.2415(4) 0.2519(3) 0.0196(3)
C10 C 0.2943(3) 0.4098(2) 0.4709(3)
F1 F 0.2388(3) 0.2462(2) -0.08423(17)
F2 F 0.1337(2) 0.2989(2) 0.0492(2)
F3 F 0.3395(2) 0.31310(17) 0.04522(19)
F4 F 0.2587(2) 0.47502(17) 0.3951(2)
F5 F 0.41330(17) 0.37577(17) 0.4519(2)
F6 F 0.2944(3) 0.46431(18) 0.5608(2)
N1 N 0.2448(2) 0.11647(18) 0.19541(18)
N2 N 0.2113(2) 0.23461(18) 0.37189(19)
O1 O 0.1431(2) 0.0599(2) 0.02799(18)
O2 O 0.3812(2) 0.0791(2) 0.03871(17)
O3 O 0.2290(2) 0.23394(18) 0.57371(16)
O4 O 0.05744(19) 0.3381(2) 0.4837(2)
S1 S 0.25459(7) 0.11090(6) 0.07068(6)
S2 S 0.18461(6) 0.29360(6) 0.48476(6)
loop_
_geom_bond_atom_site_label_1
_geom_bond_atom_site_label_2
_geom_bond_site_symmetry_1
_geom_bond_site_symmetry_2
C1 C2 1_555 1_555
C2 H1 1_555 1_555
C3 C2 1_555 1_555
H2 C3 1_555 1_555
C4 C3 1_555 1_555
C5 C1 1_555 1_555
H3 C5 1_555 1_555
H4 C5 1_555 1_555
H5 C5 1_555 1_555
C6 C1 1_555 1_555
H6 C6 1_555 1_555
H7 C6 1_555 1_555
H8 C6 1_555 1_555
C7 C4 1_555 1_555
H9 C7 1_555 1_555
H10 C7 1_555 1_555
H11 C7 1_555 1_555
C8 C4 1_555 1_555
H12 C8 1_555 1_555
H13 C8 1_555 1_555
H14 C8 1_555 1_555
C9 F1 1_555 1_555
C10 F4 1_555 1_555
F2 C9 1_555 1_555
F3 C9 1_555 1_555
F5 C10 1_555 1_555
F6 C10 1_555 1_555
N1 C1 1_555 1_555
N2 C2 1_555 1_555
O1 S1 1_555 1_555
O2 S1 1_555 1_555
O3 S2 1_555 1_555
O4 S2 1_555 1_555
S1 C9 1_555 1_555
S2 C10 1_555 1_555
C3 N2 1_555 1_555
C4 N1 1_555 1_555
N1 S1 1_555 1_555
N2 S2 1_555 1_555

#END
