
#######################################################################
#
#                 Cambridge Crystallographic Data Centre
#                                CCDC 
#
#######################################################################
#
# If this CIF has been generated from an entry in the Cambridge 
# Structural Database, then it will include bibliographic, chemical, 
# crystal, experimental, refinement or atomic coordinate data resulting 
# from the CCDC's data processing and validation procedures.
#
#######################################################################

data_SOYDER
_chemical_formula_moiety         'C8 H6 N14 O14,C1 H2 Cl2'
_chemical_name_systematic        
"4,4'-Diazene-1,2-diylbis(N-(2,2,2-trinitroethyl)-1,2,5-oxadiazol-3-amine) dichloromethane solvate"
_symmetry_cell_setting           monoclinic
_symmetry_space_group_name_H-M   'C 2/c'
_symmetry_Int_Tables_number      15
_space_group_name_Hall           '-C 2yn'
loop_
_symmetry_equiv_pos_site_id
_symmetry_equiv_pos_as_xyz
1 x,y,z
2 -x,y,1/2-z
3 1/2+x,1/2+y,z
4 1/2-x,1/2+y,1/2-z
5 -x,-y,-z
6 x,-y,1/2+z
7 1/2-x,1/2-y,-z
8 1/2+x,1/2-y,1/2+z
_cell_length_a                   17.826(4)
_cell_length_b                   12.307(3)
_cell_length_c                   10.724(2)
_cell_angle_alpha                90
_cell_angle_beta                 108.339(5)
_cell_angle_gamma                90
_cell_volume                     2233.19
_cell_formula_units_Z            4
loop_
_atom_site_label
_atom_site_type_symbol
_atom_site_fract_x
_atom_site_fract_y
_atom_site_fract_z
C1 C 0.07745(16) 0.4637(2) -0.0582(2)
C2 C 0.12928(17) 0.3855(2) 0.0235(3)
C3 C 0.19140(17) 0.2814(2) 0.2211(3)
H1 H 0.2174 0.3240 0.3014
H2 H 0.2305 0.2689 0.1745
C4 C 0.16430(17) 0.1732(2) 0.2590(3)
N1 N 0.00920(14) 0.51629(19) -0.04933(19)
N2 N 0.10147(14) 0.4878(2) -0.1574(2)
N3 N 0.18428(15) 0.3619(2) -0.0285(2)
N4 N 0.12502(13) 0.34228(19) 0.1372(2)
H3 H 0.0821 0.3511 0.1600
N5 N 0.10821(16) 0.1161(2) 0.1410(2)
N6 N 0.23315(17) 0.0966(2) 0.3179(3)
N7 N 0.12283(16) 0.1828(2) 0.3627(2)
O1 O 0.16708(13) 0.42697(18) -0.14200(18)
O2 O 0.13083(14) 0.11439(18) 0.0454(2)
O3 O 0.04766(13) 0.0780(2) 0.1512(2)
O4 O 0.22526(14) 0.0027(2) 0.2806(2)
O5 O 0.28976(14) 0.1373(2) 0.3974(2)
O6 O 0.07966(13) 0.26074(19) 0.3522(2)
O7 O 0.13685(17) 0.1135(2) 0.4472(2)
C1D C -0.07745(16) 0.5363(2) 0.0582(2)
C2D C -0.12928(17) 0.6145(2) -0.0235(3)
C3D C -0.19140(17) 0.7186(2) -0.2211(3)
H1D H -0.2174 0.6760 -0.3014
H2D H -0.2305 0.7311 -0.1745
C4D C -0.16430(17) 0.8268(2) -0.2590(3)
N1D N -0.00920(14) 0.48371(19) 0.04933(19)
N2D N -0.10147(14) 0.5122(2) 0.1574(2)
N3D N -0.18428(15) 0.6381(2) 0.0285(2)
N4D N -0.12502(13) 0.65772(19) -0.1372(2)
H3D H -0.0821 0.6489 -0.1600
N5D N -0.10821(16) 0.8839(2) -0.1410(2)
N6D N -0.23315(17) 0.9034(2) -0.3179(3)
N7D N -0.12283(16) 0.8172(2) -0.3627(2)
O1D O -0.16708(13) 0.57303(18) 0.14200(18)
O2D O -0.13083(14) 0.88561(18) -0.0454(2)
O3D O -0.04766(13) 0.9220(2) -0.1512(2)
O4D O -0.22526(14) 0.9973(2) -0.2806(2)
O5D O -0.28976(14) 0.8627(2) -0.3974(2)
O6D O -0.07966(13) 0.73926(19) -0.3522(2)
O7D O -0.13685(17) 0.8865(2) -0.4472(2)
C5 C 0.0000 0.1503(4) 0.7500
H4 H -0.0382 0.1030 0.6860
Cl1 Cl 0.05044(7) 0.22997(9) 0.66736(10)
H4A H 0.0382 0.1030 0.8140
Cl1A Cl -0.05044(7) 0.22997(9) 0.83264(10)
H5? H -0.0382 0.1030 0.6860
loop_
_geom_bond_atom_site_label_1
_geom_bond_atom_site_label_2
_geom_bond_site_symmetry_1
_geom_bond_site_symmetry_2
C1 C2 1_555 1_555
C2 N3 1_555 1_555
C3 H1 1_555 1_555
H2 C3 1_555 1_555
C4 C3 1_555 1_555
N1 C1 1_555 1_555
N2 C1 1_555 1_555
N3 O1 1_555 1_555
N4 C2 1_555 1_555
H3 N4 1_555 1_555
N5 C4 1_555 1_555
N6 C4 1_555 1_555
N7 C4 1_555 1_555
O1 N2 1_555 1_555
O2 N5 1_555 1_555
O3 N5 1_555 1_555
O4 N6 1_555 1_555
O5 N6 1_555 1_555
O6 N7 1_555 1_555
O7 N7 1_555 1_555
C5 H4 1_555 1_555
Cl1 C5 1_555 1_555
C1D C2D 1_555 1_555
C2D N3D 1_555 1_555
C3D H1D 1_555 1_555
H2D C3D 1_555 1_555
C4D C3D 1_555 1_555
N1D N1 1_555 1_555
N2D C1D 1_555 1_555
N3D O1D 1_555 1_555
N4D C2D 1_555 1_555
H3D N4D 1_555 1_555
N5D C4D 1_555 1_555
N6D C4D 1_555 1_555
N7D C4D 1_555 1_555
O1D N2D 1_555 1_555
O2D N5D 1_555 1_555
O3D N5D 1_555 1_555
O4D N6D 1_555 1_555
O5D N6D 1_555 1_555
O6D N7D 1_555 1_555
O7D N7D 1_555 1_555
H4A C5 1_555 1_555
Cl1A C5 1_555 1_555
C3 N4 1_555 1_555
C1D N1D 1_555 1_555
C3D N4D 1_555 1_555

#END
