
#######################################################################
#
#                 Cambridge Crystallographic Data Centre
#                                CCDC 
#
#######################################################################
#
# If this CIF has been generated from an entry in the Cambridge 
# Structural Database, then it will include bibliographic, chemical, 
# crystal, experimental, refinement or atomic coordinate data resulting 
# from the CCDC's data processing and validation procedures.
#
#######################################################################

data_SOYHOF
_chemical_formula_moiety         'C36 H28 Br1 N1 O3,0.5(C4 H10 O1)'
_chemical_name_systematic        
"(S)-2-(1-([1,1'-Biphenyl]-4-yl)-1-(1H-indol-3-yl)ethyl)-5-methoxyphenyl 4-bromobenzoate diethyl ether solvate"
_symmetry_cell_setting           orthorhombic
_symmetry_space_group_name_H-M   'P 21 21 21'
_symmetry_Int_Tables_number      19
_space_group_name_Hall           'P 2ac 2ab'
loop_
_symmetry_equiv_pos_site_id
_symmetry_equiv_pos_as_xyz
1 x,y,z
2 1/2-x,-y,1/2+z
3 1/2+x,1/2-y,-z
4 -x,1/2+y,1/2-z
_cell_length_a                   10.4147(3)
_cell_length_b                   17.0783(4)
_cell_length_c                   17.8161(5)
_cell_angle_alpha                90
_cell_angle_beta                 90
_cell_angle_gamma                90
_cell_volume                     3168.87
_exptl_crystal_colour            colorless
_exptl_crystal_description       block
_cell_formula_units_Z            4
_exptl_crystal_recrystallization_method 'diethyl ether/hexane'
loop_
_atom_site_label
_atom_site_type_symbol
_atom_site_fract_x
_atom_site_fract_y
_atom_site_fract_z
Br1 Br -0.16852(5) 0.11103(3) -0.08990(3)
C1 C 0.1820(5) 0.0170(2) 0.0443(2)
C2 C 0.0589(5) 0.0011(3) 0.0694(3)
H1 H 0.0468 -0.0283 0.1141
C3 C -0.0485(5) 0.0283(3) 0.0289(3)
H2 H -0.1334 0.0175 0.0454
C4 C -0.0261(5) 0.0714(3) -0.0359(3)
C5 C 0.0956(5) 0.0874(3) -0.0611(3)
H3 H 0.1082 0.1166 -0.1059
C6 C 0.2002(5) 0.0603(3) -0.0202(3)
H4 H 0.2849 0.0716 -0.0367
O1 O 0.7238(4) -0.15838(18) 0.1510(2)
O2 O 0.4057(4) 0.01785(17) 0.06659(17)
O3 O 0.2802(4) -0.0530(2) 0.1456(2)
C7 C 0.5712(5) 0.0685(3) 0.1480(3)
C8 C 0.5174(5) 0.0049(3) 0.1106(3)
C9 C 0.5685(5) -0.0690(3) 0.1113(3)
H5 H 0.5287 -0.1101 0.0840
C10 C 0.6796(5) -0.0830(2) 0.1526(3)
C11 C 0.7380(5) -0.0218(3) 0.1923(3)
H6 H 0.8132 -0.0308 0.2213
C12 C 0.6835(5) 0.0527(3) 0.1884(3)
H7 H 0.7243 0.0945 0.2142
C13 C 0.8358(6) -0.1753(3) 0.1953(3)
H8 H 0.9057 -0.1401 0.1806
H9 H 0.8621 -0.2297 0.1869
H10 H 0.8160 -0.1676 0.2485
C14 C 0.2924(5) -0.0110(2) 0.0918(3)
N1 N 0.6330(4) 0.3174(2) 0.2601(2)
H11 H 0.6253 0.3544 0.2942
C15 C 0.5427(5) 0.2611(3) 0.2456(3)
H12 H 0.4626 0.2562 0.2707
C16 C 0.5853(5) 0.2126(3) 0.1892(3)
C17 C 0.7102(5) 0.2413(2) 0.1684(3)
C18 C 0.7368(5) 0.3079(3) 0.2140(3)
C19 C 0.8478(5) 0.3523(3) 0.2068(3)
H13 H 0.8628 0.3967 0.2377
C20 C 0.9355(5) 0.3296(3) 0.1531(3)
H14 H 1.0117 0.3594 0.1463
C21 C 0.9143(5) 0.2633(3) 0.1081(3)
H15 H 0.9775 0.2481 0.0725
C22 C 0.8035(5) 0.2199(3) 0.1146(3)
H16 H 0.7898 0.1759 0.0831
C23 C 0.5068(5) 0.1501(3) 0.1490(3)
C24 C 0.4903(5) 0.1816(3) 0.0676(3)
H17 H 0.5737 0.1813 0.0421
H18 H 0.4568 0.2352 0.0693
H19 H 0.4301 0.1480 0.0402
C25 C 0.3806(5) 0.1388(3) 0.1899(3)
C26 C 0.3791(5) 0.1030(3) 0.2615(3)
H20 H 0.4580 0.0864 0.2830
C27 C 0.2678(5) 0.0915(3) 0.3007(3)
H21 H 0.2716 0.0680 0.3490
C28 C 0.1478(5) 0.1135(3) 0.2713(3)
C29 C 0.1483(5) 0.1494(3) 0.2001(3)
H22 H 0.0693 0.1653 0.1783
C30 C 0.2615(5) 0.1620(3) 0.1613(3)
H23 H 0.2582 0.1871 0.1137
C31 C 0.0285(5) 0.1048(3) 0.3154(3)
C32 C 0.0157(5) 0.0449(3) 0.3686(3)
H24 H 0.0834 0.0082 0.3748
C33 C -0.0922(6) 0.0383(3) 0.4119(4)
H25 H -0.0989 -0.0028 0.4476
C34 C -0.1926(5) 0.0918(3) 0.4038(3)
H26 H -0.2676 0.0871 0.4338
C35 C -0.1826(6) 0.1524(3) 0.3513(3)
H27 H -0.2506 0.1889 0.3453
C36 C -0.0714(5) 0.1586(3) 0.3079(3)
H28 H -0.0638 0.2001 0.2727
C37? C 0.340(2) 0.1997(12) 0.5024(11)
C38? C 0.447(2) 0.1876(13) 0.4493(12)
O4? O 0.5274(19) 0.2324(13) 0.5015(12)
C39? C 0.6358(16) 0.2596(10) 0.4722(9)
C40? C 0.7193(12) 0.3053(7) 0.5154(7)
loop_
_geom_bond_atom_site_label_1
_geom_bond_atom_site_label_2
_geom_bond_site_symmetry_1
_geom_bond_site_symmetry_2
Br1 C4 1_555 1_555
C1 C2 1_555 1_555
C2 H1 1_555 1_555
C3 C2 1_555 1_555
H2 C3 1_555 1_555
C4 C3 1_555 1_555
C5 C4 1_555 1_555
H3 C5 1_555 1_555
C6 C1 1_555 1_555
H4 C6 1_555 1_555
O1 C10 1_555 1_555
O2 C8 1_555 1_555
O3 C14 1_555 1_555
C7 C8 1_555 1_555
C8 C9 1_555 1_555
C9 H5 1_555 1_555
C10 C9 1_555 1_555
C11 C10 1_555 1_555
H6 C11 1_555 1_555
C12 C7 1_555 1_555
H7 C12 1_555 1_555
C13 O1 1_555 1_555
H8 C13 1_555 1_555
H9 C13 1_555 1_555
H10 C13 1_555 1_555
C14 C1 1_555 1_555
N1 H11 1_555 1_555
C15 N1 1_555 1_555
H12 C15 1_555 1_555
C16 C15 1_555 1_555
C17 C16 1_555 1_555
C18 N1 1_555 1_555
C19 C18 1_555 1_555
H13 C19 1_555 1_555
C20 C19 1_555 1_555
H14 C20 1_555 1_555
C21 C20 1_555 1_555
H15 C21 1_555 1_555
C22 C17 1_555 1_555
H16 C22 1_555 1_555
C23 C7 1_555 1_555
C24 C23 1_555 1_555
H17 C24 1_555 1_555
H18 C24 1_555 1_555
H19 C24 1_555 1_555
C25 C23 1_555 1_555
C26 C25 1_555 1_555
H20 C26 1_555 1_555
C27 C26 1_555 1_555
H21 C27 1_555 1_555
C28 C27 1_555 1_555
C29 C28 1_555 1_555
H22 C29 1_555 1_555
C30 C25 1_555 1_555
H23 C30 1_555 1_555
C31 C28 1_555 1_555
C32 C31 1_555 1_555
H24 C32 1_555 1_555
C33 C32 1_555 1_555
H25 C33 1_555 1_555
C34 C33 1_555 1_555
H26 C34 1_555 1_555
C35 C34 1_555 1_555
H27 C35 1_555 1_555
C36 C31 1_555 1_555
H28 C36 1_555 1_555
C5 C6 1_555 1_555
O2 C14 1_555 1_555
C11 C12 1_555 1_555
C16 C23 1_555 1_555
C17 C18 1_555 1_555
C21 C22 1_555 1_555
C29 C30 1_555 1_555
C35 C36 1_555 1_555

#END
