
#######################################################################
#
#                 Cambridge Crystallographic Data Centre
#                                CCDC 
#
#######################################################################
#
# If this CIF has been generated from an entry in the Cambridge 
# Structural Database, then it will include bibliographic, chemical, 
# crystal, experimental, refinement or atomic coordinate data resulting 
# from the CCDC's data processing and validation procedures.
#
#######################################################################

data_SOYKOI
_chemical_formula_moiety         'C43 H49 Cl4 N1 Si2'
_chemical_name_systematic        
8,9,10,11-tetrachloro-6,13-bis((triisopropylsilyl)ethynyl)anthra[2,3-g]quinoline
_symmetry_cell_setting           triclinic
_symmetry_space_group_name_H-M   'P -1'
_symmetry_Int_Tables_number      2
_space_group_name_Hall           '-P 1'
loop_
_symmetry_equiv_pos_site_id
_symmetry_equiv_pos_as_xyz
1 x,y,z
2 -x,-y,-z
_cell_length_a                   7.994(3)
_cell_length_b                   15.365(6)
_cell_length_c                   17.559(7)
_cell_angle_alpha                79.498(4)
_cell_angle_beta                 88.511(4)
_cell_angle_gamma                89.775(4)
_cell_volume                     2119.89
_exptl_crystal_colour            colorless
_exptl_crystal_description       block
_cell_formula_units_Z            2
loop_
_atom_site_label
_atom_site_type_symbol
_atom_site_fract_x
_atom_site_fract_y
_atom_site_fract_z
Cl1 Cl 0.9251(2) 1.10340(10) 0.31423(9)
Cl2 Cl 0.7319(2) 1.06127(10) 0.66618(9)
Si1 Si 0.7903(2) 0.78303(11) 0.16467(9)
Si2 Si 0.4676(2) 0.71686(11) 0.81927(9)
Cl3 Cl 0.9322(2) 1.22503(10) 0.58300(11)
Cl4 Cl 1.0194(2) 1.24809(10) 0.40738(11)
C1 C 0.6496(6) 0.8706(3) 0.4431(3)
C2 C 0.7817(6) 1.0131(3) 0.4473(3)
C3 C 0.6065(6) 0.8610(3) 0.5244(3)
C4 C 0.4702(6) 0.7198(3) 0.5200(3)
C5 C 0.6538(6) 0.9290(3) 0.5647(3)
H1 H 0.6261 0.9229 0.6171
C6 C 0.5221(6) 0.7846(3) 0.5618(3)
C7 C 0.5111(6) 0.7300(3) 0.4384(3)
C8 C 0.7397(6) 1.0038(3) 0.5286(3)
C9 C 0.7369(6) 0.9475(3) 0.4071(3)
H2 H 0.7653 0.9543 0.3546
C10 C 0.9143(6) 1.1551(3) 0.4520(4)
C11 C 0.7862(7) 1.0730(3) 0.5691(3)
C12 C 0.6059(6) 0.8040(3) 0.4015(3)
C13 C 0.6599(6) 0.8089(3) 0.3227(3)
C14 C 0.3787(6) 0.6433(3) 0.5555(3)
H3 H 0.3525 0.6353 0.6082
C15 C 0.4575(6) 0.6642(3) 0.3977(3)
H4 H 0.4845 0.6699 0.3452
C16 C 0.8715(7) 1.0907(3) 0.4118(3)
C17 C 0.3281(6) 0.5810(3) 0.5140(4)
C18 C 0.8704(7) 1.1448(3) 0.5331(4)
C19 C 0.3663(7) 0.5918(3) 0.4340(4)
C20 C 0.4959(7) 0.7695(3) 0.6447(3)
C21 C 0.7090(7) 0.8059(4) 0.2581(3)
C22 C 0.3116(7) 0.5297(4) 0.3907(4)
H5 H 0.3350 0.5367 0.3378
C23 C 0.4774(7) 0.7529(4) 0.7141(3)
N1 N 0.2338(7) 0.5067(4) 0.5537(4)
C24 C 0.6080(10) 0.7826(5) 0.0995(4)
H6 H 0.6524 0.7684 0.0507
C25 C 0.9414(12) 0.6320(5) 0.1172(4)
H7 H 0.8584 0.6447 0.0782
H8 H 0.9538 0.5691 0.1321
H9 H 1.0463 0.6576 0.0970
C26 C 0.8884(13) 0.6699(6) 0.1857(4)
H10 H 0.7865 0.6348 0.2002
C27 C 0.2441(11) 0.6864(7) 0.8451(5)
H11 H 0.1846 0.7427 0.8314
C28 C 1.0022(11) 0.8691(5) 0.0405(4)
H12 H 1.0436 0.8103 0.0407
H13 H 1.0921 0.9108 0.0273
H14 H 0.9162 0.8822 0.0030
C29 C 0.5337(14) 0.8119(5) 0.8648(4)
H15 H 0.5277 0.7919 0.9211
C30 C 0.9314(16) 0.8753(8) 0.1194(6)
C31 C 0.6632(13) 0.5949(6) 0.9255(5)
H16 H 0.6762 0.6456 0.9497
H17 H 0.7650 0.5612 0.9296
H18 H 0.5732 0.5587 0.9510
C32 C 0.4119(15) 0.8898(6) 0.8454(5)
H19 H 0.4199 0.9135 0.7909
H20 H 0.4398 0.9350 0.8741
H21 H 0.2997 0.8696 0.8590
C33 C 0.2076(13) 0.6594(7) 0.9305(5)
H22 H 0.2523 0.6014 0.9483
H23 H 0.0888 0.6586 0.9400
H24 H 0.2584 0.7008 0.9577
C34 C 0.4817(11) 0.7132(6) 0.1309(5)
H25 H 0.5378 0.6586 0.1504
H26 H 0.4084 0.7047 0.0904
H27 H 0.4175 0.7316 0.1721
C35 C 0.5244(11) 0.8748(6) 0.0798(5)
H28 H 0.4824 0.8920 0.1266
H29 H 0.4336 0.8721 0.0456
H30 H 0.6053 0.9174 0.0550
C36 C 0.9741(14) 0.6449(6) 0.2533(5)
H31 H 1.0744 0.6795 0.2511
H32 H 1.0026 0.5834 0.2595
H33 H 0.9048 0.6546 0.2965
C37 C 0.7091(17) 0.8422(7) 0.8438(6)
H34 H 0.7846 0.7935 0.8579
H35 H 0.7368 0.8888 0.8711
H36 H 0.7187 0.8637 0.7890
C38 C 0.1651(12) 0.6290(7) 0.7970(5)
H37 H 0.1747 0.6564 0.7434
H38 H 0.0490 0.6208 0.8119
H39 H 0.2204 0.5726 0.8045
C39 C 1.0039(14) 0.9299(7) 0.1634(5)
H40 H 0.9182 0.9625 0.1853
H41 H 1.0786 0.9705 0.1312
H42 H 1.0654 0.8949 0.2042
C40 C 0.2282(10) 0.4628(5) 0.4267(6)
H43 H 0.1914 0.4216 0.3979
C41 C 0.1890(9) 0.4475(4) 0.5055(7)
H44 H 0.1309 0.3963 0.5271
C42 C 0.6242(13) 0.6249(6) 0.8413(5)
H45 H 0.7274 0.6571 0.8230
C43 C 0.6287(15) 0.5594(7) 0.7950(6)
H46 H 0.5432 0.5162 0.8127
H47 H 0.7363 0.5312 0.7985
H48 H 0.6098 0.5862 0.7421
H49 H 1.007(6) 0.842(3) 0.146(3)
loop_
_geom_bond_atom_site_label_1
_geom_bond_atom_site_label_2
_geom_bond_site_symmetry_1
_geom_bond_site_symmetry_2
Cl1 C16 1_555 1_555
Cl2 C11 1_555 1_555
Si1 C21 1_555 1_555
Si2 C23 1_555 1_555
Cl3 C18 1_555 1_555
Cl4 C10 1_555 1_555
C1 C3 1_555 1_555
C2 C8 1_555 1_555
C3 C5 1_555 1_555
C4 C6 1_555 1_555
C5 H1 1_555 1_555
C6 C3 1_555 1_555
C7 C4 1_555 1_555
C8 C5 1_555 1_555
C9 C1 1_555 1_555
H2 C9 1_555 1_555
C10 C16 1_555 1_555
C11 C8 1_555 1_555
C12 C1 1_555 1_555
C13 C12 1_555 1_555
C14 C4 1_555 1_555
H3 C14 1_555 1_555
C15 C7 1_555 1_555
H4 C15 1_555 1_555
C16 C2 1_555 1_555
C17 C14 1_555 1_555
C18 C10 1_555 1_555
C19 C15 1_555 1_555
C20 C6 1_555 1_555
C21 C13 1_555 1_555
C22 C19 1_555 1_555
H5 C22 1_555 1_555
C23 C20 1_555 1_555
N1 C17 1_555 1_555
C24 Si1 1_555 1_555
H6 C24 1_555 1_555
C25 H7 1_555 1_555
H8 C25 1_555 1_555
H9 C25 1_555 1_555
C26 Si1 1_555 1_555
H10 C26 1_555 1_555
C27 Si2 1_555 1_555
H11 C27 1_555 1_555
C28 H12 1_555 1_555
H13 C28 1_555 1_555
H14 C28 1_555 1_555
C29 Si2 1_555 1_555
H15 C29 1_555 1_555
C30 Si1 1_555 1_555
C31 H16 1_555 1_555
H17 C31 1_555 1_555
H18 C31 1_555 1_555
C32 C29 1_555 1_555
H19 C32 1_555 1_555
H20 C32 1_555 1_555
H21 C32 1_555 1_555
C33 C27 1_555 1_555
H22 C33 1_555 1_555
H23 C33 1_555 1_555
H24 C33 1_555 1_555
C34 C24 1_555 1_555
H25 C34 1_555 1_555
H26 C34 1_555 1_555
H27 C34 1_555 1_555
C35 C24 1_555 1_555
H28 C35 1_555 1_555
H29 C35 1_555 1_555
H30 C35 1_555 1_555
C36 C26 1_555 1_555
H31 C36 1_555 1_555
H32 C36 1_555 1_555
H33 C36 1_555 1_555
C37 C29 1_555 1_555
H34 C37 1_555 1_555
H35 C37 1_555 1_555
H36 C37 1_555 1_555
C38 C27 1_555 1_555
H37 C38 1_555 1_555
H38 C38 1_555 1_555
H39 C38 1_555 1_555
C39 C30 1_555 1_555
H40 C39 1_555 1_555
H41 C39 1_555 1_555
H42 C39 1_555 1_555
C40 C22 1_555 1_555
H43 C40 1_555 1_555
C41 N1 1_555 1_555
H44 C41 1_555 1_555
C42 Si2 1_555 1_555
H45 C42 1_555 1_555
C43 C42 1_555 1_555
H46 C43 1_555 1_555
H47 C43 1_555 1_555
H48 C43 1_555 1_555
H49 C30 1_555 1_555
C2 C9 1_555 1_555
C7 C12 1_555 1_555
C11 C18 1_555 1_555
C17 C19 1_555 1_555
C25 C26 1_555 1_555
C28 C30 1_555 1_555
C31 C42 1_555 1_555
C40 C41 1_555 1_555

#END
