
#######################################################################
#
#                 Cambridge Crystallographic Data Centre
#                                CCDC 
#
#######################################################################
#
# If this CIF has been generated from an entry in the Cambridge 
# Structural Database, then it will include bibliographic, chemical, 
# crystal, experimental, refinement or atomic coordinate data resulting 
# from the CCDC's data processing and validation procedures.
#
#######################################################################

data_SOYKUO
_chemical_formula_moiety         'C42 H48 F4 N2 Si2'
_chemical_name_systematic        
8,9,10,11-tetrafluoro-6,13-bis((triisopropylsilyl)ethynyl)anthra[2,3-g]quinoxaline
_symmetry_cell_setting           triclinic
_symmetry_space_group_name_H-M   'P 1'
_symmetry_Int_Tables_number      1
_space_group_name_Hall           'P 1'
loop_
_symmetry_equiv_pos_site_id
_symmetry_equiv_pos_as_xyz
1 x,y,z
_cell_length_a                   7.662(2)
_cell_length_b                   7.788(2)
_cell_length_c                   17.071(5)
_cell_angle_alpha                77.759(5)
_cell_angle_beta                 88.811(6)
_cell_angle_gamma                83.896(6)
_cell_volume                     989.85
_exptl_crystal_colour            blue
_exptl_crystal_description       BLOCK
_cell_formula_units_Z            1
loop_
_atom_site_label
_atom_site_type_symbol
_atom_site_fract_x
_atom_site_fract_y
_atom_site_fract_z
Si1 Si 0.1351(6) 0.2557(7) 0.9159(3)
Si2 Si 0.7145(6) 0.7498(7) 0.2740(3)
C1 C 0.656(2) -0.127(3) 0.6806(10)
C2 C 0.740(2) -0.232(2) 0.6459(12)
C3 C 0.810(2) -0.177(4) 0.5641(13)
C4 C 0.764(2) -0.020(2) 0.5284(9)
C5 C 0.662(2) 0.108(3) 0.5607(11)
C6 C 0.623(2) 0.276(3) 0.5249(11)
H1 H 0.6691 0.3114 0.4739
C7 C 0.521(2) 0.403(3) 0.5554(9)
C8 C 0.479(2) 0.574(3) 0.5180(10)
C9 C 0.372(2) 0.699(3) 0.5519(11)
C10 C 0.320(2) 0.873(3) 0.5170(11)
H2 H 0.3549 0.9100 0.4641
C11 C 0.222(2) 1.000(3) 0.5501(13)
C12 C 0.092(2) 1.287(4) 0.5417(13)
H3 H 0.0627 1.4030 0.5141
C13 C 0.036(3) 1.222(3) 0.6268(15)
H4 H -0.0270 1.3038 0.6519
N1 N 0.0662(18) 1.058(3) 0.6693(10)
C14 C 0.167(2) 0.936(2) 0.6298(11)
C15 C 0.211(2) 0.760(4) 0.6702(10)
H5 H 0.1727 0.7247 0.7226
C16 C 0.3114(18) 0.636(2) 0.6337(9)
C17 C 0.357(2) 0.458(3) 0.6761(9)
C18 C 0.4630(19) 0.343(2) 0.6387(8)
C19 C 0.504(2) 0.168(3) 0.6789(10)
H6 H 0.4629 0.1309 0.7307
C20 C 0.601(2) 0.054(2) 0.6435(10)
C21 C 0.2934(19) 0.401(2) 0.7531(11)
C22 C 0.234(2) 0.345(2) 0.8171(10)
C23 C 0.225(2) 0.361(3) 0.9890(10)
H7 H 0.1889 0.4873 0.9683
C24 C 0.407(4) 0.353(4) 0.9921(15)
H8 H 0.4408 0.3960 1.0376
H9 H 0.4492 0.4239 0.9440
H10 H 0.4563 0.2324 0.9970
C25 C 0.150(3) 0.329(3) 1.0722(11)
H11 H 0.1619 0.2039 1.0945
H12 H 0.0284 0.3733 1.0703
H13 H 0.2129 0.3873 1.1051
C26 C -0.109(2) 0.321(3) 0.9071(11)
H14 H -0.1617 0.2768 0.9593
C27 C -0.138(3) 0.528(3) 0.8894(13)
H15 H -0.0731 0.5746 0.8425
H16 H -0.0982 0.5690 0.9344
H17 H -0.2607 0.5656 0.8806
C28 C -0.191(3) 0.238(3) 0.8453(12)
H18 H -0.2736 0.3243 0.8131
H19 H -0.2503 0.1397 0.8724
H20 H -0.1006 0.1979 0.8116
C29 C 0.180(4) 0.021(3) 0.9342(15)
H21 H 0.1023 -0.0054 0.8944
C30 C 0.110(4) -0.092(3) 1.0120(17)
H22 H 0.1377 -0.2154 1.0115
H23 H -0.0151 -0.0664 1.0149
H24 H 0.1639 -0.0661 1.0577
C31 C 0.344(4) -0.079(4) 0.9175(18)
H25 H 0.4419 -0.0201 0.9288
H26 H 0.3472 -0.0868 0.8621
H27 H 0.3519 -0.1956 0.9506
C32 C 0.556(2) 0.629(2) 0.4344(10)
C33 C 0.616(2) 0.676(2) 0.3687(9)
C34 C 0.678(4) 0.995(3) 0.2519(12)
H28 H 0.7370 1.0226 0.2975
C35 C 0.491(5) 1.068(4) 0.264(2)
H29 H 0.4778 1.1934 0.2440
H30 H 0.4630 1.0419 0.3199
H31 H 0.4131 1.0141 0.2352
C36 C 0.785(3) 1.078(3) 0.1839(15)
H32 H 0.7505 1.0460 0.1357
H33 H 0.9072 1.0378 0.1945
H34 H 0.7683 1.2043 0.1774
C37 C 0.948(3) 0.674(4) 0.2809(13)
H35 H 1.0010 0.7114 0.2282
C38 C 1.043(3) 0.756(4) 0.3433(15)
H36 H 0.9919 0.7209 0.3954
H37 H 1.0281 0.8826 0.3272
H38 H 1.1655 0.7149 0.3453
C39 C 0.985(3) 0.478(4) 0.3060(15)
H39 H 1.0987 0.4394 0.2878
H40 H 0.8967 0.4266 0.2820
H41 H 0.9790 0.4420 0.3632
C40 C 0.606(3) 0.638(4) 0.2009(12)
H42 H 0.6490 0.5138 0.2220
C41 C 0.415(3) 0.624(5) 0.1991(18)
H43 H 0.3778 0.5660 0.2510
H44 H 0.3906 0.5580 0.1601
H45 H 0.3541 0.7408 0.1852
C42 C 0.699(3) 0.671(3) 0.1181(12)
H46 H 0.6447 0.6115 0.0827
H47 H 0.8208 0.6252 0.1250
H48 H 0.6903 0.7950 0.0957
F1 F 0.5911(11) -0.1738(12) 0.7555(6)
F2 F 0.7852(13) -0.4054(16) 0.6821(6)
F3 F 0.9022(12) -0.3019(12) 0.5350(6)
F4 F 0.8232(11) 0.0371(13) 0.4500(5)
N2 N 0.1920(19) 1.163(2) 0.5074(9)
loop_
_geom_bond_atom_site_label_1
_geom_bond_atom_site_label_2
_geom_bond_site_symmetry_1
_geom_bond_site_symmetry_2
Si1 C22 1_555 1_555
Si2 C33 1_555 1_555
C1 C2 1_555 1_555
C2 C3 1_555 1_555
C3 C4 1_555 1_555
C4 C5 1_555 1_555
C5 C6 1_555 1_555
C6 H1 1_555 1_555
C7 C6 1_555 1_555
C8 C7 1_555 1_555
C9 C8 1_555 1_555
C10 C9 1_555 1_555
H2 C10 1_555 1_555
C11 C10 1_555 1_555
C12 H3 1_555 1_555
C13 C12 1_555 1_555
H4 C13 1_555 1_555
N1 C13 1_555 1_555
C14 C11 1_555 1_555
C15 C14 1_555 1_555
H5 C15 1_555 1_555
C16 C9 1_555 1_555
C17 C16 1_555 1_555
C18 C7 1_555 1_555
C19 C18 1_555 1_555
H6 C19 1_555 1_555
C20 C1 1_555 1_555
C21 C17 1_555 1_555
C22 C21 1_555 1_555
C23 Si1 1_555 1_555
H7 C23 1_555 1_555
C24 C23 1_555 1_555
H8 C24 1_555 1_555
H9 C24 1_555 1_555
H10 C24 1_555 1_555
C25 C23 1_555 1_555
H11 C25 1_555 1_555
H12 C25 1_555 1_555
H13 C25 1_555 1_555
C26 Si1 1_555 1_555
H14 C26 1_555 1_555
C27 C26 1_555 1_555
H15 C27 1_555 1_555
H16 C27 1_555 1_555
H17 C27 1_555 1_555
C28 C26 1_555 1_555
H18 C28 1_555 1_555
H19 C28 1_555 1_555
H20 C28 1_555 1_555
C29 Si1 1_555 1_555
H21 C29 1_555 1_555
C30 C29 1_555 1_555
H22 C30 1_555 1_555
H23 C30 1_555 1_555
H24 C30 1_555 1_555
C31 C29 1_555 1_555
H25 C31 1_555 1_555
H26 C31 1_555 1_555
H27 C31 1_555 1_555
C32 C8 1_555 1_555
C33 C32 1_555 1_555
C34 Si2 1_555 1_555
H28 C34 1_555 1_555
C35 C34 1_555 1_555
H29 C35 1_555 1_555
H30 C35 1_555 1_555
H31 C35 1_555 1_555
C36 C34 1_555 1_555
H32 C36 1_555 1_555
H33 C36 1_555 1_555
H34 C36 1_555 1_555
C37 Si2 1_555 1_555
H35 C37 1_555 1_555
C38 C37 1_555 1_555
H36 C38 1_555 1_555
H37 C38 1_555 1_555
H38 C38 1_555 1_555
C39 C37 1_555 1_555
H39 C39 1_555 1_555
H40 C39 1_555 1_555
H41 C39 1_555 1_555
C40 Si2 1_555 1_555
H42 C40 1_555 1_555
C41 C40 1_555 1_555
H43 C41 1_555 1_555
H44 C41 1_555 1_555
H45 C41 1_555 1_555
C42 C40 1_555 1_555
H46 C42 1_555 1_555
H47 C42 1_555 1_555
H48 C42 1_555 1_555
F1 C1 1_555 1_555
F2 C2 1_555 1_555
F3 C3 1_555 1_555
F4 C4 1_555 1_555
N2 C11 1_555 1_555
C5 C20 1_555 1_555
C12 N2 1_555 1_555
N1 C14 1_555 1_555
C15 C16 1_555 1_555
C17 C18 1_555 1_555
C19 C20 1_555 1_555

#END
