
#######################################################################
#
#                 Cambridge Crystallographic Data Centre
#                                CCDC 
#
#######################################################################
#
# If this CIF has been generated from an entry in the Cambridge 
# Structural Database, then it will include bibliographic, chemical, 
# crystal, experimental, refinement or atomic coordinate data resulting 
# from the CCDC's data processing and validation procedures.
#
#######################################################################

data_SOYLEZ
_chemical_formula_moiety         'C23 H19 Cl2 I1 O5'
_chemical_name_systematic        
'diethyl 2-(2,3-dichlorophenyl)-3-iodo-4-phenyl-2H-pyran-5,6-dicarboxylate'
_symmetry_cell_setting           triclinic
_symmetry_space_group_name_H-M   'P -1'
_symmetry_Int_Tables_number      2
_space_group_name_Hall           '-P 1'
loop_
_symmetry_equiv_pos_site_id
_symmetry_equiv_pos_as_xyz
1 x,y,z
2 -x,-y,-z
_cell_length_a                   10.9704(9)
_cell_length_b                   11.0227(9)
_cell_length_c                   11.8113(9)
_cell_angle_alpha                89.158(2)
_cell_angle_beta                 64.422(2)
_cell_angle_gamma                66.597(2)
_cell_volume                     1160.91
_exptl_crystal_colour            colorless
_exptl_crystal_description       prismatic
_chemical_melting_point          '381 K'
_cell_formula_units_Z            2
_exptl_crystal_recrystallization_method 'petroleum ether'
loop_
_atom_site_label
_atom_site_type_symbol
_atom_site_fract_x
_atom_site_fract_y
_atom_site_fract_z
I1 I 0.72744(3) 0.68649(2) 0.72253(2)
Cl1 Cl 0.03535(13) 1.22451(10) 1.06364(11)
Cl2 Cl 0.25504(14) 0.97879(11) 1.12117(10)
O1 O 0.3405(3) 0.6510(2) 1.01193(19)
O2 O 0.3715(3) 0.3943(3) 0.6971(3)
O3 O 0.4790(3) 0.2548(2) 0.8015(3)
O4 O 0.1755(3) 0.4431(3) 0.9870(2)
O5 O 0.1036(3) 0.6083(2) 1.1423(2)
C1 C 0.3298(3) 0.5526(3) 0.9535(3)
C2 C 0.4351(3) 0.4808(3) 0.8362(3)
C3 C 0.5657(3) 0.5082(3) 0.7648(3)
C4 C 0.5600(3) 0.6222(3) 0.8103(3)
C5 C 0.4259(3) 0.7179(3) 0.9296(3)
H1 H 0.4634 0.7521 0.9774
C6 C 0.3213(3) 0.8388(3) 0.9001(3)
C7 C 0.3038(5) 0.8285(4) 0.7926(3)
H2 H 0.3614 0.7479 0.7337
C8 C 0.2015(5) 0.9367(4) 0.7706(4)
H3 H 0.1899 0.9279 0.6982
C9 C 0.1174(4) 1.0568(4) 0.8559(4)
H4 H 0.0476 1.1289 0.8421
C10 C 0.1365(4) 1.0704(3) 0.9615(3)
C11 C 0.2370(4) 0.9617(3) 0.9851(3)
C12 C 0.6922(3) 0.4110(3) 0.6456(3)
C13 C 0.7956(4) 0.2941(4) 0.6539(4)
H5 H 0.7881 0.2760 0.7332
C14 C 0.9117(5) 0.2030(4) 0.5423(4)
H6 H 0.9825 0.1237 0.5468
C15 C 0.9216(5) 0.2308(5) 0.4246(4)
H7 H 1.0000 0.1705 0.3501
C16 C 0.8170(5) 0.3460(5) 0.4175(4)
H8 H 0.8235 0.3637 0.3384
C17 C 0.7014(5) 0.4366(4) 0.5279(3)
H9 H 0.6296 0.5148 0.5230
C18 C 0.4208(4) 0.3743(3) 0.7709(3)
C19 C 0.4685(6) 0.1431(4) 0.7486(5)
H10 H 0.3750 0.1761 0.7437
H11 H 0.4680 0.0779 0.8046
C20 C 0.5947(8) 0.0774(7) 0.6206(6)
H12 H 0.5867 0.1378 0.5620
H13 H 0.5928 -0.0028 0.5926
H14 H 0.6873 0.0544 0.6235
C21 C 0.1963(4) 0.5271(3) 1.0282(3)
C22 C -0.0332(4) 0.5904(4) 1.2146(3)
H15 H -0.0082 0.4960 1.2178
H16 H -0.0972 0.6212 1.1736
C23 C -0.1119(5) 0.6703(5) 1.3458(3)
H17 H -0.0465 0.6410 1.3845
H18 H -0.2003 0.6576 1.3960
H19 H -0.1396 0.7640 1.3419
loop_
_geom_bond_atom_site_label_1
_geom_bond_atom_site_label_2
_geom_bond_site_symmetry_1
_geom_bond_site_symmetry_2
I1 C4 1_555 1_555
Cl1 C10 1_555 1_555
Cl2 C11 1_555 1_555
O1 C1 1_555 1_555
O2 C18 1_555 1_555
O3 C18 1_555 1_555
O4 C21 1_555 1_555
O5 C21 1_555 1_555
C1 C2 1_555 1_555
C2 C3 1_555 1_555
C3 C4 1_555 1_555
C4 C5 1_555 1_555
C5 O1 1_555 1_555
H1 C5 1_555 1_555
C6 C5 1_555 1_555
C7 C6 1_555 1_555
H2 C7 1_555 1_555
C8 C7 1_555 1_555
H3 C8 1_555 1_555
C9 C8 1_555 1_555
H4 C9 1_555 1_555
C10 C9 1_555 1_555
C11 C6 1_555 1_555
C12 C3 1_555 1_555
C13 C12 1_555 1_555
H5 C13 1_555 1_555
C14 C13 1_555 1_555
H6 C14 1_555 1_555
C15 C14 1_555 1_555
H7 C15 1_555 1_555
C16 C15 1_555 1_555
H8 C16 1_555 1_555
C17 C12 1_555 1_555
H9 C17 1_555 1_555
C18 C2 1_555 1_555
C19 O3 1_555 1_555
H10 C19 1_555 1_555
H11 C19 1_555 1_555
C20 C19 1_555 1_555
H12 C20 1_555 1_555
H13 C20 1_555 1_555
H14 C20 1_555 1_555
C21 C1 1_555 1_555
C22 O5 1_555 1_555
H15 C22 1_555 1_555
H16 C22 1_555 1_555
C23 C22 1_555 1_555
H17 C23 1_555 1_555
H18 C23 1_555 1_555
H19 C23 1_555 1_555
C10 C11 1_555 1_555
C16 C17 1_555 1_555

#END
