
#######################################################################
#
#                 Cambridge Crystallographic Data Centre
#                                CCDC 
#
#######################################################################
#
# If this CIF has been generated from an entry in the Cambridge 
# Structural Database, then it will include bibliographic, chemical, 
# crystal, experimental, refinement or atomic coordinate data resulting 
# from the CCDC's data processing and validation procedures.
#
#######################################################################

data_SOYNUQ
_chemical_formula_moiety         'C15 H17 N1 O6'
_chemical_name_systematic        
5-(((3,4-Dimethoxyphenyl)amino)methylene)-2,2-dimethyl-1,3-dioxane-4,6-dione
_symmetry_cell_setting           monoclinic
_symmetry_space_group_name_H-M   'P 21/c'
_symmetry_Int_Tables_number      14
_space_group_name_Hall           '-P 2ybc'
loop_
_symmetry_equiv_pos_site_id
_symmetry_equiv_pos_as_xyz
1 x,y,z
2 -x,1/2+y,1/2-z
3 -x,-y,-z
4 x,1/2-y,1/2+z
_cell_length_a                   6.270(4)
_cell_length_b                   12.486(4)
_cell_length_c                   19.529(5)
_cell_angle_alpha                90
_cell_angle_beta                 106.31(3)
_cell_angle_gamma                90
_cell_volume                     1467.34
_exptl_crystal_colour            yellow
_exptl_crystal_description       block
_cell_formula_units_Z            4
loop_
_atom_site_label
_atom_site_type_symbol
_atom_site_fract_x
_atom_site_fract_y
_atom_site_fract_z
O1 O 0.0589(3) 0.78796(12) 0.14968(8)
O2 O -0.0296(3) 0.60397(13) 0.13307(9)
O3 O 0.3798(3) 0.84242(14) 0.22145(9)
O4 O 0.2084(3) 0.47579(14) 0.18214(10)
O5 O 1.4467(3) 0.80170(14) 0.40934(10)
O6 O 1.5852(3) 0.60587(14) 0.42558(9)
N1 N 0.7059(3) 0.69339(19) 0.27469(10)
H1 H 0.677(4) 0.761(2) 0.2721(13)
C1 C -0.2969(4) 0.7333(2) 0.08019(14)
H2 H -0.3797 0.6767 0.0513
H3 H -0.3242 0.7994 0.0540
H4 H -0.3427 0.7404 0.1229
C2 C 0.0406(5) 0.7062(3) 0.03595(15)
H5 H 0.1966 0.6903 0.0517
H6 H 0.0187 0.7749 0.0131
H7 H -0.0343 0.6523 0.0027
C3 C -0.0529(4) 0.70753(19) 0.09947(12)
C4 C 0.2670(4) 0.7662(2) 0.19222(12)
C5 C 0.3347(4) 0.65633(19) 0.20110(11)
C6 C 0.1782(4) 0.5710(2) 0.17241(13)
C7 C 0.5461(4) 0.6272(2) 0.24184(12)
H8 H 0.5778 0.5544 0.2464
C8 C 0.9280(4) 0.66471(19) 0.31291(11)
C9 C 1.0729(4) 0.74811(19) 0.34299(11)
H9 H 1.0219 0.8184 0.3384
C10 C 1.2914(4) 0.72663(18) 0.37956(11)
C11 C 1.3659(4) 0.61937(18) 0.38805(11)
C12 C 1.2204(4) 0.5382(2) 0.35779(12)
H10 H 1.2696 0.4676 0.3626
C13 C 1.0014(4) 0.5605(2) 0.32015(12)
H11 H 0.9050 0.5051 0.3000
C14 C 1.3812(5) 0.9112(2) 0.39922(15)
H12 H 1.3307 0.9266 0.3491
H13 H 1.5056 0.9562 0.4212
H14 H 1.2631 0.9245 0.4205
C15 C 1.6708(4) 0.4995(2) 0.43247(14)
H15 H 1.5973 0.4577 0.4603
H16 H 1.8275 0.5012 0.4557
H17 H 1.6451 0.4681 0.3860
loop_
_geom_bond_atom_site_label_1
_geom_bond_atom_site_label_2
_geom_bond_site_symmetry_1
_geom_bond_site_symmetry_2
O1 C3 1_555 1_555
O2 C3 1_555 1_555
O3 C4 1_555 1_555
O4 C6 1_555 1_555
O5 C10 1_555 1_555
O6 C11 1_555 1_555
N1 H1 1_555 1_555
C1 H2 1_555 1_555
H3 C1 1_555 1_555
H4 C1 1_555 1_555
C2 H5 1_555 1_555
H6 C2 1_555 1_555
H7 C2 1_555 1_555
C3 C1 1_555 1_555
C4 O1 1_555 1_555
C5 C4 1_555 1_555
C6 O2 1_555 1_555
C7 N1 1_555 1_555
H8 C7 1_555 1_555
C8 N1 1_555 1_555
C9 C8 1_555 1_555
H9 C9 1_555 1_555
C10 C9 1_555 1_555
C11 C10 1_555 1_555
C12 C11 1_555 1_555
H10 C12 1_555 1_555
C13 C8 1_555 1_555
H11 C13 1_555 1_555
C14 O5 1_555 1_555
H12 C14 1_555 1_555
H13 C14 1_555 1_555
H14 C14 1_555 1_555
C15 O6 1_555 1_555
H15 C15 1_555 1_555
H16 C15 1_555 1_555
H17 C15 1_555 1_555
C2 C3 1_555 1_555
C5 C6 1_555 1_555
C5 C7 1_555 1_555
C12 C13 1_555 1_555

#END
