
#######################################################################
#
#                 Cambridge Crystallographic Data Centre
#                                CCDC 
#
#######################################################################
#
# If this CIF has been generated from an entry in the Cambridge 
# Structural Database, then it will include bibliographic, chemical, 
# crystal, experimental, refinement or atomic coordinate data resulting 
# from the CCDC's data processing and validation procedures.
#
#######################################################################

data_SOYNAW
_chemical_name_common            
N-(2-(2-(3-Methoxyphenyl)vinyl)phenyl)acetamide
_chemical_formula_moiety         'C17 H17 N1 O2'
_chemical_name_systematic        
N'-(2-(2-(3-Methoxyphenyl)ethenyl)phenyl)acetamide
_symmetry_cell_setting           monoclinic
_symmetry_space_group_name_H-M   'P 21/c'
_symmetry_Int_Tables_number      14
_space_group_name_Hall           '-P 2ybc'
loop_
_symmetry_equiv_pos_site_id
_symmetry_equiv_pos_as_xyz
1 x,y,z
2 -x,1/2+y,1/2-z
3 -x,-y,-z
4 x,1/2-y,1/2+z
_cell_length_a                   14.5588(5)
_cell_length_b                   10.3633(4)
_cell_length_c                   9.3667(3)
_cell_angle_alpha                90
_cell_angle_beta                 90.118(1)
_cell_angle_gamma                90
_cell_volume                     1413.22
_exptl_crystal_colour            colorless
_exptl_crystal_description       plate
_cell_formula_units_Z            4
_exptl_crystal_recrystallization_method 'ethyl acetate'
loop_
_atom_site_label
_atom_site_type_symbol
_atom_site_fract_x
_atom_site_fract_y
_atom_site_fract_z
O1 O 0.11400(10) 0.71029(14) 0.73510(14)
O2 O 0.65965(10) 0.58338(15) 0.10659(16)
N1 N 0.12402(11) 0.66372(17) 0.49961(17)
H1 H 0.1185(16) 0.699(2) 0.4151(15)
C1 C 0.14037(13) 0.5285(2) 0.5123(2)
C2 C 0.08867(14) 0.4550(2) 0.6068(2)
H2 H 0.0432 0.4955 0.6639
C3 C 0.10283(14) 0.3241(2) 0.6183(2)
H3 H 0.0686 0.2749 0.6853
C4 C 0.16751(15) 0.2639(2) 0.5315(2)
H4 H 0.1771 0.1734 0.5382
C5 C 0.21760(14) 0.3364(2) 0.4357(2)
H5 H 0.2601 0.2941 0.3746
C6 C 0.20754(13) 0.4707(2) 0.4259(2)
C7 C 0.10934(13) 0.7448(2) 0.6095(2)
C8 C 0.08548(16) 0.8812(2) 0.5694(2)
H6 H 0.1255 0.9410 0.6216
H7 H 0.0213 0.8985 0.5941
H8 H 0.0941 0.8931 0.4665
C9 C 0.26855(14) 0.5474(2) 0.3343(2)
H9 H 0.2507 0.6338 0.3145
C10 C 0.34701(14) 0.5057(2) 0.2767(2)
H10 H 0.3623 0.4177 0.2919
C11 C 0.41182(14) 0.5822(2) 0.1925(2)
C12 C 0.38525(15) 0.6915(2) 0.1148(2)
H11 H 0.3230 0.7191 0.1156
C13 C 0.45036(16) 0.7595(2) 0.0361(2)
H12 H 0.4322 0.8334 -0.0168
C14 C 0.54070(15) 0.7208(2) 0.0343(2)
H13 H 0.5844 0.7671 -0.0208
C15 C 0.56799(14) 0.6138(2) 0.1129(2)
C16 C 0.50366(14) 0.5444(2) 0.1902(2)
H14 H 0.5224 0.4701 0.2421
C17 C 0.69172(16) 0.4821(2) 0.1966(2)
H15 H 0.7586 0.4749 0.1882
H16 H 0.6631 0.4005 0.1677
H17 H 0.6755 0.5012 0.2959
loop_
_geom_bond_atom_site_label_1
_geom_bond_atom_site_label_2
_geom_bond_site_symmetry_1
_geom_bond_site_symmetry_2
O1 C7 1_555 1_555
O2 C15 1_555 1_555
N1 H1 1_555 1_555
C1 N1 1_555 1_555
C2 C1 1_555 1_555
H2 C2 1_555 1_555
C3 C2 1_555 1_555
H3 C3 1_555 1_555
C4 C3 1_555 1_555
H4 C4 1_555 1_555
C5 C4 1_555 1_555
H5 C5 1_555 1_555
C6 C1 1_555 1_555
C7 N1 1_555 1_555
C8 C7 1_555 1_555
H6 C8 1_555 1_555
H7 C8 1_555 1_555
H8 C8 1_555 1_555
C9 C6 1_555 1_555
H9 C9 1_555 1_555
C10 C9 1_555 1_555
H10 C10 1_555 1_555
C11 C10 1_555 1_555
C12 C11 1_555 1_555
H11 C12 1_555 1_555
C13 C12 1_555 1_555
H12 C13 1_555 1_555
C14 C13 1_555 1_555
H13 C14 1_555 1_555
C15 C14 1_555 1_555
C16 C11 1_555 1_555
H14 C16 1_555 1_555
C17 O2 1_555 1_555
H15 C17 1_555 1_555
H16 C17 1_555 1_555
H17 C17 1_555 1_555
C5 C6 1_555 1_555
C15 C16 1_555 1_555

#END
