
#######################################################################
#
#                 Cambridge Crystallographic Data Centre
#                                CCDC 
#
#######################################################################
#
# If this CIF has been generated from an entry in the Cambridge 
# Structural Database, then it will include bibliographic, chemical, 
# crystal, experimental, refinement or atomic coordinate data resulting 
# from the CCDC's data processing and validation procedures.
#
#######################################################################

data_SOYSUW
_chemical_formula_moiety         'C23 H15 B1 Br2 F2 N4'
_chemical_name_systematic        
2,8-Dibromo-5,5-difluoro-10-phenyl-3,7-bis(1H-pyrrol-2-yl)-5H-4\l^5^,5\l^5^-dipyrrolo[1,2-c:2',1'-f][1,3,2]diazaborinine
_symmetry_cell_setting           monoclinic
_symmetry_space_group_name_H-M   'P 21/c'
_symmetry_Int_Tables_number      14
_space_group_name_Hall           '-P 2ybc'
loop_
_symmetry_equiv_pos_site_id
_symmetry_equiv_pos_as_xyz
1 x,y,z
2 -x,1/2+y,1/2-z
3 -x,-y,-z
4 x,1/2-y,1/2+z
_cell_length_a                   10.5564(8)
_cell_length_b                   21.6690(16)
_cell_length_c                   9.1790(7)
_cell_angle_alpha                90
_cell_angle_beta                 92.6580(10)
_cell_angle_gamma                90
_cell_volume                     2097.41
_exptl_crystal_colour            blue
_exptl_crystal_description       block
_cell_formula_units_Z            4
loop_
_atom_site_label
_atom_site_type_symbol
_atom_site_fract_x
_atom_site_fract_y
_atom_site_fract_z
B1 B 0.2663(4) 0.74928(17) -0.0572(4)
Br1 Br 0.25638(4) 0.494736(17) -0.05762(5)
Br2 Br 0.53558(4) 0.946545(19) 0.18136(5)
C1 C -0.0536(4) 0.6601(2) -0.2894(5)
H1 H -0.1008 0.6824 -0.3594
C2 C -0.0943(4) 0.6099(2) -0.2164(5)
H2 H -0.1742 0.5919 -0.2263
C3 C 0.0071(4) 0.59020(18) -0.1232(5)
H3 H 0.0071 0.5564 -0.0607
C4 C 0.1060(3) 0.63001(15) -0.1415(4)
C5 C 0.2317(3) 0.62966(15) -0.0696(4)
C6 C 0.3038(3) 0.57730(15) -0.0260(4)
C7 C 0.4166(3) 0.59603(16) 0.0353(4)
H4 H 0.4820 0.5707 0.0713
C8 C 0.4161(3) 0.66088(15) 0.0343(4)
C9 C 0.5046(3) 0.70276(16) 0.0917(4)
C10 C 0.4805(3) 0.76593(16) 0.0875(4)
C11 C 0.5474(3) 0.81426(17) 0.1573(4)
H5 H 0.6235 0.8111 0.2119
C12 C 0.4788(3) 0.86705(16) 0.1294(4)
C13 C 0.3701(3) 0.85233(15) 0.0407(4)
C14 C 0.2770(3) 0.89434(15) -0.0222(4)
C15 C 0.2380(4) 0.94864(18) 0.0369(5)
H6 H 0.2641 0.9644 0.1277
C16 C 0.1532(4) 0.9759(2) -0.0620(7)
H7 H 0.1118 1.0133 -0.0497
C17 C 0.1406(4) 0.9388(2) -0.1794(6)
H8 H 0.0894 0.9465 -0.2626
C18 C 0.6254(3) 0.68056(17) 0.1642(4)
C19 C 0.7402(4) 0.6964(2) 0.1093(6)
H9 H 0.7426 0.7200 0.0249
C20 C 0.8527(4) 0.6769(3) 0.1804(7)
H10 H 0.9303 0.6868 0.1425
C21 C 0.8486(5) 0.6433(3) 0.3057(7)
H11 H 0.9239 0.6314 0.3546
C22 C 0.7367(5) 0.6272(2) 0.3596(5)
H12 H 0.7354 0.6041 0.4450
C23 C 0.6235(4) 0.6446(2) 0.2885(4)
H13 H 0.5466 0.6322 0.3244
F1 F 0.14939(17) 0.76232(9) -0.0032(2)
F2 F 0.2619(2) 0.76078(9) -0.20756(19)
N1 N 0.0667(3) 0.67210(14) -0.2431(3)
H14 H 0.1120 0.7020 -0.2734
N2 N 0.3010(2) 0.68053(12) -0.0309(3)
N3 N 0.3714(2) 0.78977(12) 0.0182(3)
N4 N 0.2154(3) 0.88803(17) -0.1562(4)
H15 H 0.2226 0.8575 -0.2152
loop_
_geom_bond_atom_site_label_1
_geom_bond_atom_site_label_2
_geom_bond_site_symmetry_1
_geom_bond_site_symmetry_2
B1 F1 1_555 1_555
Br1 C6 1_555 1_555
Br2 C12 1_555 1_555
C1 H1 1_555 1_555
C2 C1 1_555 1_555
H2 C2 1_555 1_555
C3 C2 1_555 1_555
H3 C3 1_555 1_555
C4 C3 1_555 1_555
C5 C4 1_555 1_555
C6 C5 1_555 1_555
C7 C6 1_555 1_555
H4 C7 1_555 1_555
C8 C7 1_555 1_555
C9 C8 1_555 1_555
C10 C9 1_555 1_555
C11 C10 1_555 1_555
H5 C11 1_555 1_555
C12 C11 1_555 1_555
C13 C12 1_555 1_555
C14 C13 1_555 1_555
C15 C14 1_555 1_555
H6 C15 1_555 1_555
C16 C15 1_555 1_555
H7 C16 1_555 1_555
C17 C16 1_555 1_555
H8 C17 1_555 1_555
C18 C9 1_555 1_555
C19 C18 1_555 1_555
H9 C19 1_555 1_555
C20 C19 1_555 1_555
H10 C20 1_555 1_555
C21 C20 1_555 1_555
H11 C21 1_555 1_555
C22 C21 1_555 1_555
H12 C22 1_555 1_555
C23 C18 1_555 1_555
H13 C23 1_555 1_555
F2 B1 1_555 1_555
N1 C1 1_555 1_555
H14 N1 1_555 1_555
N2 B1 1_555 1_555
N3 B1 1_555 1_555
N4 C14 1_555 1_555
H15 N4 1_555 1_555
C4 N1 1_555 1_555
C5 N2 1_555 1_555
C8 N2 1_555 1_555
C10 N3 1_555 1_555
C13 N3 1_555 1_555
C17 N4 1_555 1_555
C22 C23 1_555 1_555

#END
