
#######################################################################
#
#                 Cambridge Crystallographic Data Centre
#                                CCDC 
#
#######################################################################
#
# If this CIF has been generated from an entry in the Cambridge 
# Structural Database, then it will include bibliographic, chemical, 
# crystal, experimental, refinement or atomic coordinate data resulting 
# from the CCDC's data processing and validation procedures.
#
#######################################################################

data_SOYSAC
_chemical_formula_moiety         'C32 H35 N5 O2 S1'
_chemical_name_systematic        
3',6'-bis(Diethylamino)-2-(5-ethyl-1,3,4-thiadiazol-2-yl)spiro[isoindole-1,9'-xanthen]-3(2H)-one
_symmetry_cell_setting           monoclinic
_symmetry_space_group_name_H-M   'P 21/n'
_symmetry_Int_Tables_number      14
_space_group_name_Hall           '-P 2yn'
loop_
_symmetry_equiv_pos_site_id
_symmetry_equiv_pos_as_xyz
1 x,y,z
2 1/2-x,1/2+y,1/2-z
3 -x,-y,-z
4 1/2+x,1/2-y,1/2+z
_cell_length_a                   12.194(2)
_cell_length_b                   11.9573(19)
_cell_length_c                   20.987(4)
_cell_angle_alpha                90
_cell_angle_beta                 104.663(3)
_cell_angle_gamma                90
_cell_volume                     2960.4
_cell_formula_units_Z            4
loop_
_atom_site_label
_atom_site_type_symbol
_atom_site_fract_x
_atom_site_fract_y
_atom_site_fract_z
S1 S 0.93352(8) 0.04004(7) 0.13860(4)
N1 N 1.0891(2) 0.6359(2) 0.32931(16)
N2 N 0.5246(2) 0.0995(2) 0.34652(16)
N3 N 1.00057(19) 0.11139(18) 0.26677(12)
N4 N 0.8632(2) 0.2111(2) 0.18929(13)
N5 N 0.8011(3) 0.2081(3) 0.12400(15)
O1 O 0.81927(16) 0.35183(16) 0.33341(11)
O2 O 1.1132(2) -0.03034(18) 0.24375(12)
C1 C 1.2794(6) 0.6665(4) 0.3859(4)
H1 H 1.3523 0.6918 0.3823
H2 H 1.2849 0.5902 0.4006
H3 H 1.2543 0.7125 0.4169
C2 C 1.2028(5) 0.6738(4) 0.3252(3)
H4 H 1.2284 0.6278 0.2937
H5 H 1.1983 0.7506 0.3099
C3 C 0.9988(4) 0.7462(3) 0.4018(2)
H6 H 0.9815 0.6783 0.4217
H7 H 0.9396 0.7998 0.4003
H8 H 1.0695 0.7758 0.4274
C4 C 1.0077(3) 0.7224(3) 0.33376(19)
H9 H 0.9337 0.7001 0.3073
H10 H 1.0287 0.7908 0.3150
C5 C 1.0623(3) 0.5239(2) 0.32895(15)
C6 C 1.1421(3) 0.4410(2) 0.32476(16)
H11 H 1.2148 0.4615 0.3229
C7 C 1.1129(2) 0.3299(2) 0.32339(15)
H12 H 1.1671 0.2767 0.3205
C8 C 1.0066(2) 0.2936(2) 0.32609(14)
C9 C 0.9284(2) 0.3757(2) 0.33008(14)
C10 C 0.9548(3) 0.4882(2) 0.33154(15)
H13 H 0.9000 0.5408 0.3343
C11 C 0.8578(2) 0.1530(2) 0.32966(13)
C12 C 0.8124(2) 0.0463(2) 0.32936(15)
H14 H 0.8572 -0.0147 0.3249
C13 C 0.7049(3) 0.0270(3) 0.33526(16)
H15 H 0.6785 -0.0460 0.3351
C14 C 0.6339(2) 0.1169(3) 0.34150(15)
C15 C 0.6784(2) 0.2246(3) 0.34099(16)
H16 H 0.6340 0.2861 0.3450
C16 C 0.7872(2) 0.2412(2) 0.33463(14)
C17 C 0.4779(3) -0.0139(3) 0.34338(19)
H17 H 0.5054 -0.0568 0.3114
H18 H 0.3960 -0.0098 0.3280
C18 C 0.5082(3) -0.0745(4) 0.40802(19)
H19 H 0.5892 -0.0800 0.4234
H20 H 0.4759 -0.1482 0.4024
H21 H 0.4789 -0.0341 0.4397
C19 C 0.4524(3) 0.1923(4) 0.3544(2)
H22 H 0.3741 0.1679 0.3406
H23 H 0.4620 0.2520 0.3250
C20 C 0.4736(5) 0.2375(5) 0.4215(3)
H24 H 0.4571 0.1814 0.4504
H25 H 0.4260 0.3015 0.4215
H26 H 0.5517 0.2594 0.4365
C21 C 0.9782(2) 0.1713(2) 0.32580(14)
C22 C 1.0620(2) 0.1097(2) 0.38049(15)
C23 C 1.0801(3) 0.1242(3) 0.44737(17)
H27 H 1.0385 0.1765 0.4642
C24 C 1.1618(3) 0.0592(3) 0.48907(19)
H28 H 1.1751 0.0676 0.5344
C25 C 1.2233(3) -0.0179(3) 0.4638(2)
H29 H 1.2778 -0.0607 0.4924
C26 C 1.2057(3) -0.0326(3) 0.39750(19)
H30 H 1.2478 -0.0846 0.3808
C27 C 1.1233(2) 0.0321(2) 0.35557(16)
C28 C 1.0835(2) 0.0302(2) 0.28368(16)
C29 C 0.9339(3) 0.1288(2) 0.20357(15)
C30 C 0.8273(3) 0.1244(3) 0.09242(17)
C31 C 0.7684(4) 0.0994(4) 0.02155(19)
H31 H 0.7314 0.1668 0.0010
H32 H 0.8246 0.0779 -0.0016
C32 C 0.6824(5) 0.0084(5) 0.0144(2)
H33 H 0.7197 -0.0607 0.0299
H34 H 0.6426 0.0009 -0.0311
H35 H 0.6295 0.0266 0.0398
loop_
_geom_bond_atom_site_label_1
_geom_bond_atom_site_label_2
_geom_bond_site_symmetry_1
_geom_bond_site_symmetry_2
S1 C29 1_555 1_555
N1 C2 1_555 1_555
N2 C14 1_555 1_555
N3 C21 1_555 1_555
N4 N5 1_555 1_555
N5 C30 1_555 1_555
O1 C9 1_555 1_555
O2 C28 1_555 1_555
C1 H1 1_555 1_555
H2 C1 1_555 1_555
H3 C1 1_555 1_555
C2 C1 1_555 1_555
H4 C2 1_555 1_555
H5 C2 1_555 1_555
C3 H6 1_555 1_555
H7 C3 1_555 1_555
H8 C3 1_555 1_555
C4 N1 1_555 1_555
H9 C4 1_555 1_555
H10 C4 1_555 1_555
C5 N1 1_555 1_555
C6 C5 1_555 1_555
H11 C6 1_555 1_555
C7 C6 1_555 1_555
H12 C7 1_555 1_555
C8 C7 1_555 1_555
C9 C8 1_555 1_555
C10 C5 1_555 1_555
H13 C10 1_555 1_555
C11 C12 1_555 1_555
C12 H14 1_555 1_555
C13 C12 1_555 1_555
H15 C13 1_555 1_555
C14 C13 1_555 1_555
C15 C14 1_555 1_555
H16 C15 1_555 1_555
C16 O1 1_555 1_555
C17 N2 1_555 1_555
H17 C17 1_555 1_555
H18 C17 1_555 1_555
C18 C17 1_555 1_555
H19 C18 1_555 1_555
H20 C18 1_555 1_555
H21 C18 1_555 1_555
C19 N2 1_555 1_555
H22 C19 1_555 1_555
H23 C19 1_555 1_555
C20 C19 1_555 1_555
H24 C20 1_555 1_555
H25 C20 1_555 1_555
H26 C20 1_555 1_555
C21 C8 1_555 1_555
C22 C21 1_555 1_555
C23 C22 1_555 1_555
H27 C23 1_555 1_555
C24 C23 1_555 1_555
H28 C24 1_555 1_555
C25 C24 1_555 1_555
H29 C25 1_555 1_555
C26 C25 1_555 1_555
H30 C26 1_555 1_555
C27 C22 1_555 1_555
C28 N3 1_555 1_555
C29 N3 1_555 1_555
C30 S1 1_555 1_555
C31 C30 1_555 1_555
H31 C31 1_555 1_555
H32 C31 1_555 1_555
C32 C31 1_555 1_555
H33 C32 1_555 1_555
H34 C32 1_555 1_555
H35 C32 1_555 1_555
N4 C29 1_555 1_555
C3 C4 1_555 1_555
C9 C10 1_555 1_555
C11 C16 1_555 1_555
C11 C21 1_555 1_555
C15 C16 1_555 1_555
C26 C27 1_555 1_555
C27 C28 1_555 1_555

#END
