
#######################################################################
#
#                 Cambridge Crystallographic Data Centre
#                                CCDC 
#
#######################################################################
#
# If this CIF has been generated from an entry in the Cambridge 
# Structural Database, then it will include bibliographic, chemical, 
# crystal, experimental, refinement or atomic coordinate data resulting 
# from the CCDC's data processing and validation procedures.
#
#######################################################################

data_SOYSEG
_chemical_formula_moiety         'C31 H33 N5 O2 S1'
_chemical_name_systematic        
3',6'-bis(Diethylamino)-2-(5-methyl-1,3,4-thiadiazol-2-yl)spiro[isoindole-1,9'-xanthen]-3(2H)-one
_symmetry_cell_setting           monoclinic
_symmetry_space_group_name_H-M   'C 2/c'
_symmetry_Int_Tables_number      15
_space_group_name_Hall           '-C 2yn'
loop_
_symmetry_equiv_pos_site_id
_symmetry_equiv_pos_as_xyz
1 x,y,z
2 -x,y,1/2-z
3 1/2+x,1/2+y,z
4 1/2-x,1/2+y,1/2-z
5 -x,-y,-z
6 x,-y,1/2+z
7 1/2-x,1/2-y,-z
8 1/2+x,1/2-y,1/2+z
_cell_length_a                   21.648(3)
_cell_length_b                   10.1286(15)
_cell_length_c                   26.600(5)
_cell_angle_alpha                90
_cell_angle_beta                 110.462(3)
_cell_angle_gamma                90
_cell_volume                     5464.42
_cell_formula_units_Z            8
loop_
_atom_site_label
_atom_site_type_symbol
_atom_site_fract_x
_atom_site_fract_y
_atom_site_fract_z
S1 S 0.40871(6) 0.02460(13) 0.22471(5)
N1 N 0.44751(19) 0.1306(4) 0.15360(15)
N2 N 0.4318(2) 0.2347(4) 0.18125(17)
N3 N 0.70716(19) 0.2036(4) 0.14142(18)
N4 N 0.2536(2) 0.0791(4) -0.06981(18)
O1 O 0.42844(15) -0.2394(3) 0.21228(13)
O2 O 0.47926(14) 0.1296(3) 0.04348(12)
C1 C 0.3948(3) 0.2874(5) 0.2554(2)
H1 H 0.4261 0.2783 0.2911
H2 H 0.3514 0.2680 0.2554
H3 H 0.3959 0.3763 0.2431
C2 C 0.4118(2) 0.1940(5) 0.21894(19)
C3 C 0.4390(2) 0.0144(5) 0.17229(17)
N5 N 0.45403(16) -0.1004(3) 0.15331(14)
C4 C 0.4500(2) -0.2213(5) 0.17562(19)
C5 C 0.47381(19) -0.3195(4) 0.14580(17)
C6 C 0.4813(2) -0.4553(5) 0.1538(2)
H4 H 0.4717 -0.4970 0.1813
C7 C 0.5037(2) -0.5254(5) 0.1189(2)
H5 H 0.5095 -0.6163 0.1229
C8 C 0.5173(2) -0.4614(5) 0.0783(2)
H6 H 0.5320 -0.5109 0.0552
C9 C 0.5100(2) -0.3260(4) 0.07024(19)
H7 H 0.5197 -0.2845 0.0427
C10 C 0.4878(2) -0.2556(4) 0.10497(17)
C11 C 0.47510(19) -0.1090(4) 0.10495(16)
C12 C 0.5367(2) -0.0287(4) 0.11228(16)
C13 C 0.5968(2) -0.0627(4) 0.15107(17)
H8 H 0.5995 -0.1393 0.1710
C14 C 0.6523(2) 0.0138(4) 0.16082(19)
H9 H 0.6914 -0.0117 0.1874
C15 C 0.6511(2) 0.1284(4) 0.13177(19)
C16 C 0.5905(2) 0.1630(4) 0.09227(18)
H10 H 0.5874 0.2391 0.0720
C17 C 0.5356(2) 0.0841(4) 0.08347(16)
C18 C 0.4226(2) 0.0535(4) 0.02952(17)
C19 C 0.3693(2) 0.1013(4) -0.01187(17)
H11 H 0.3734 0.1793 -0.0288
C20 C 0.3088(2) 0.0347(4) -0.02896(18)
C21 C 0.3066(2) -0.0852(4) -0.00321(19)
H12 H 0.2678 -0.1340 -0.0140
C22 C 0.3604(2) -0.1316(4) 0.03742(18)
H13 H 0.3572 -0.2120 0.0531
C23 C 0.4195(2) -0.0638(4) 0.05608(17)
C24 C 0.7701(2) 0.1628(6) 0.1799(2)
H14 H 0.8048 0.2038 0.1701
H15 H 0.7741 0.0681 0.1768
C25 C 0.7821(3) 0.1947(7) 0.2379(3)
H16 H 0.7811 0.2886 0.2423
H17 H 0.8245 0.1613 0.2598
H18 H 0.7484 0.1544 0.2485
C26 C 0.7062(3) 0.3317(7) 0.1135(3)
H19 H 0.7497 0.3505 0.1125
H20 H 0.6756 0.3267 0.0768
C27 C 0.6869(4) 0.4332(9) 0.1413(4)
H21 H 0.6471 0.4077 0.1470
H22 H 0.6792 0.5130 0.1205
H23 H 0.7211 0.4480 0.1753
C28 C 0.2533(3) 0.1962(6) -0.1026(3)
H24 H 0.2980 0.2180 -0.1001
H25 H 0.2275 0.1791 -0.1400
C29 C 0.2281(5) 0.2917(10) -0.0848(3)
H26 H 0.2279 0.3700 -0.1053
H27 H 0.2538 0.3071 -0.0478
H28 H 0.1837 0.2697 -0.0881
C30 C 0.1898(2) 0.0144(5) -0.0806(2)
H29 H 0.1950 -0.0792 -0.0856
H30 H 0.1591 0.0488 -0.1141
C31 C 0.1595(3) 0.0308(6) -0.0378(2)
H31 H 0.1914 0.0081 -0.0035
H32 H 0.1219 -0.0262 -0.0455
H33 H 0.1460 0.1208 -0.0371
loop_
_geom_bond_atom_site_label_1
_geom_bond_atom_site_label_2
_geom_bond_site_symmetry_1
_geom_bond_site_symmetry_2
S1 C2 1_555 1_555
N1 N2 1_555 1_555
N2 C2 1_555 1_555
N3 C15 1_555 1_555
N4 C20 1_555 1_555
O1 C4 1_555 1_555
O2 C17 1_555 1_555
C1 H1 1_555 1_555
H2 C1 1_555 1_555
H3 C1 1_555 1_555
C2 C1 1_555 1_555
C3 S1 1_555 1_555
N5 C3 1_555 1_555
C4 N5 1_555 1_555
C5 C4 1_555 1_555
C6 C5 1_555 1_555
H4 C6 1_555 1_555
C7 C6 1_555 1_555
H5 C7 1_555 1_555
C8 C7 1_555 1_555
H6 C8 1_555 1_555
C9 C8 1_555 1_555
H7 C9 1_555 1_555
C10 C5 1_555 1_555
C11 N5 1_555 1_555
C12 C11 1_555 1_555
C13 C12 1_555 1_555
H8 C13 1_555 1_555
C14 C13 1_555 1_555
H9 C14 1_555 1_555
C15 C14 1_555 1_555
C16 C15 1_555 1_555
H10 C16 1_555 1_555
C17 C12 1_555 1_555
C18 O2 1_555 1_555
C19 C18 1_555 1_555
H11 C19 1_555 1_555
C20 C19 1_555 1_555
C21 C20 1_555 1_555
H12 C21 1_555 1_555
C22 C21 1_555 1_555
H13 C22 1_555 1_555
C23 C11 1_555 1_555
C24 N3 1_555 1_555
H14 C24 1_555 1_555
H15 C24 1_555 1_555
C25 C24 1_555 1_555
H16 C25 1_555 1_555
H17 C25 1_555 1_555
H18 C25 1_555 1_555
C26 N3 1_555 1_555
H19 C26 1_555 1_555
H20 C26 1_555 1_555
C27 C26 1_555 1_555
H21 C27 1_555 1_555
H22 C27 1_555 1_555
H23 C27 1_555 1_555
C28 N4 1_555 1_555
H24 C28 1_555 1_555
H25 C28 1_555 1_555
C29 C28 1_555 1_555
H26 C29 1_555 1_555
H27 C29 1_555 1_555
H28 C29 1_555 1_555
C30 N4 1_555 1_555
H29 C30 1_555 1_555
H30 C30 1_555 1_555
C31 C30 1_555 1_555
H31 C31 1_555 1_555
H32 C31 1_555 1_555
H33 C31 1_555 1_555
N1 C3 1_555 1_555
C9 C10 1_555 1_555
C10 C11 1_555 1_555
C16 C17 1_555 1_555
C18 C23 1_555 1_555
C22 C23 1_555 1_555

#END
