
#######################################################################
#
#                 Cambridge Crystallographic Data Centre
#                                CCDC 
#
#######################################################################
#
# If this CIF has been generated from an entry in the Cambridge 
# Structural Database, then it will include bibliographic, chemical, 
# crystal, experimental, refinement or atomic coordinate data resulting 
# from the CCDC's data processing and validation procedures.
#
#######################################################################

data_SOYSAB01
_chemical_formula_moiety         'C19 H17 N1 O2'
_chemical_name_systematic        
'ethyl 2-methyl-4-phenylquinoline-3-carboxylate'
_symmetry_cell_setting           triclinic
_symmetry_space_group_name_H-M   'P -1'
_symmetry_Int_Tables_number      2
_space_group_name_Hall           '-P 1'
loop_
_symmetry_equiv_pos_site_id
_symmetry_equiv_pos_as_xyz
1 x,y,z
2 -x,-y,-z
_cell_length_a                   7.4928(5)
_cell_length_b                   10.5328(7)
_cell_length_c                   10.5920(7)
_cell_angle_alpha                98.426(6)
_cell_angle_beta                 103.032(6)
_cell_angle_gamma                107.913(6)
_cell_volume                     753.608
_exptl_crystal_colour            colorless
_exptl_crystal_description       block
_cell_formula_units_Z            2
loop_
_atom_site_label
_atom_site_type_symbol
_atom_site_fract_x
_atom_site_fract_y
_atom_site_fract_z
O1 O 0.80033(14) 0.97412(9) 0.63803(10)
O2 O 0.98044(13) 0.83795(9) 0.65412(10)
N1 N 0.31201(15) 0.59366(11) 0.52845(10)
C1 C 0.96522(18) 0.60899(13) 0.82511(13)
H1 H 0.9228 0.5350 0.7493
C2 C 1.13818(19) 0.63451(14) 0.92309(14)
H2 H 1.2146 0.5785 0.9138
C3 C 1.19974(19) 0.74161(14) 1.03465(13)
H3 H 1.3174 0.7581 1.1021
C4 C 1.08970(19) 0.82445(14) 1.04780(13)
H4 H 1.1321 0.8979 1.1241
C5 C 0.91672(18) 0.80002(13) 0.94905(13)
H5 H 0.8419 0.8573 0.9578
C6 C 0.85365(17) 0.69178(12) 0.83772(12)
C7 C 0.66665(17) 0.66115(12) 0.73183(12)
C8 C 0.49878(17) 0.54737(12) 0.72664(12)
C9 C 0.49822(18) 0.46476(13) 0.82085(13)
H6 H 0.6136 0.4841 0.8913
C10 C 0.33215(19) 0.35697(13) 0.81105(14)
H7 H 0.3331 0.3024 0.8750
C11 C 0.15988(19) 0.32681(13) 0.70639(14)
H8 H 0.0460 0.2516 0.7000
C12 C 0.15575(18) 0.40524(13) 0.61386(13)
H9 H 0.0392 0.3842 0.5438
C13 C 0.32486(18) 0.51757(12) 0.62255(12)
C14 C 0.46575(18) 0.70066(13) 0.53671(12)
C15 C 0.64796(17) 0.73838(12) 0.63856(12)
C16 C 0.81503(18) 0.86348(13) 0.64296(12)
C17 C 0.44128(19) 0.78064(14) 0.43124(13)
H10 H 0.3191 0.7288 0.3605
H11 H 0.5520 0.7959 0.3935
H12 H 0.4367 0.8692 0.4711
C18 C 1.1587(2) 0.95241(17) 0.66833(18)
H13 H 1.1491 1.0395 0.7103
H14 H 1.1781 0.9591 0.5798
C19 C 1.3257(2) 0.92731(16) 0.75331(16)
H15 H 1.3146 0.9338 0.8443
H16 H 1.4491 0.9961 0.7544
H17 H 1.3234 0.8355 0.7173
loop_
_geom_bond_atom_site_label_1
_geom_bond_atom_site_label_2
_geom_bond_site_symmetry_1
_geom_bond_site_symmetry_2
O1 C16 1_555 1_555
O2 C16 1_555 1_555
N1 C13 1_555 1_555
C1 H1 1_555 1_555
C2 C1 1_555 1_555
H2 C2 1_555 1_555
C3 C2 1_555 1_555
H3 C3 1_555 1_555
C4 C3 1_555 1_555
H4 C4 1_555 1_555
C5 C4 1_555 1_555
H5 C5 1_555 1_555
C6 C1 1_555 1_555
C7 C6 1_555 1_555
C8 C7 1_555 1_555
C9 C8 1_555 1_555
H6 C9 1_555 1_555
C10 C9 1_555 1_555
H7 C10 1_555 1_555
C11 C10 1_555 1_555
H8 C11 1_555 1_555
C12 C11 1_555 1_555
H9 C12 1_555 1_555
C13 C8 1_555 1_555
C14 N1 1_555 1_555
C15 C7 1_555 1_555
C16 C15 1_555 1_555
C17 C14 1_555 1_555
H10 C17 1_555 1_555
H11 C17 1_555 1_555
H12 C17 1_555 1_555
C18 O2 1_555 1_555
H13 C18 1_555 1_555
H14 C18 1_555 1_555
C19 C18 1_555 1_555
H15 C19 1_555 1_555
H16 C19 1_555 1_555
H17 C19 1_555 1_555
C5 C6 1_555 1_555
C12 C13 1_555 1_555
C14 C15 1_555 1_555

#END
