
#######################################################################
#
#                 Cambridge Crystallographic Data Centre
#                                CCDC 
#
#######################################################################
#
# If this CIF has been generated from an entry in the Cambridge 
# Structural Database, then it will include bibliographic, chemical, 
# crystal, experimental, refinement or atomic coordinate data resulting 
# from the CCDC's data processing and validation procedures.
#
#######################################################################

data_SOYTIL
_chemical_formula_moiety         'C25 H28 N4 O2'
_chemical_name_systematic        
2,2'-((Pyridin-4-ylimino)bis(propane-3,1-diylnitrilomethylylidene))diphenol
_symmetry_cell_setting           triclinic
_symmetry_space_group_name_H-M   'P -1'
_symmetry_Int_Tables_number      2
_space_group_name_Hall           '-P 1'
loop_
_symmetry_equiv_pos_site_id
_symmetry_equiv_pos_as_xyz
1 x,y,z
2 -x,-y,-z
_cell_length_a                   8.3807(11)
_cell_length_b                   10.2605(13)
_cell_length_c                   14.0480(18)
_cell_angle_alpha                84.773(3)
_cell_angle_beta                 85.436(3)
_cell_angle_gamma                66.135(3)
_cell_volume                     1098.9
_exptl_crystal_colour            yellow
_exptl_crystal_description       block
_cell_formula_units_Z            2
loop_
_atom_site_label
_atom_site_type_symbol
_atom_site_fract_x
_atom_site_fract_y
_atom_site_fract_z
C1 C -0.0521(3) 1.2767(3) 0.19033(18)
H1 H -0.0958 1.3699 0.2091
N1 N 0.3442(2) 0.95101(19) 0.21954(12)
C2 C 0.1118(3) 1.1877(2) 0.21753(15)
H2 H 0.1754 1.2216 0.2522
C3 C 0.1834(3) 1.0454(2) 0.19288(14)
C4 C 0.0766(3) 1.0071(3) 0.13941(15)
H3 H 0.1157 0.9148 0.1195
C5 C -0.0847(3) 1.1059(3) 0.11669(17)
H4 H -0.1523 1.0757 0.0821
C6 C 0.4335(3) 0.9851(2) 0.29443(16)
H5 H 0.5010 0.8975 0.3309
H6 H 0.3461 1.0475 0.3379
C7 C 0.5525(3) 1.0556(2) 0.25552(15)
H7 H 0.4886 1.1389 0.2144
H8 H 0.6480 0.9899 0.2175
C8 C 0.6259(3) 1.1006(2) 0.33769(16)
H9 H 0.6963 1.1518 0.3116
H10 H 0.5302 1.1642 0.3767
C9 C 0.4152(3) 0.8038(2) 0.19198(16)
H11 H 0.3248 0.7673 0.2038
H12 H 0.5098 0.7472 0.2332
C10 C 0.4832(3) 0.7817(2) 0.08847(17)
H13 H 0.5210 0.6813 0.0776
H14 H 0.3874 0.8350 0.0472
C11 C 0.6323(3) 0.8257(2) 0.05917(15)
H15 H 0.6662 0.8081 -0.0076
H16 H 0.5941 0.9273 0.0659
C12 C 0.8944(3) 0.9456(2) 0.39822(15)
H17 H 0.9390 1.0049 0.3621
C13 C 1.0131(3) 0.8247(2) 0.45274(15)
C14 C 0.9548(3) 0.7318(3) 0.50885(16)
C15 C 1.0724(4) 0.6160(3) 0.55933(16)
H18 H 1.0340 0.5530 0.5957
C16 C 1.2429(4) 0.5933(3) 0.55641(17)
H19 H 1.3198 0.5150 0.5916
C17 C 1.3054(3) 0.6820(3) 0.50320(18)
H20 H 1.4232 0.6652 0.5021
C18 C 1.1898(3) 0.7971(3) 0.45112(17)
H21 H 1.2310 0.8577 0.4140
C19 C 0.9303(3) 0.6792(2) 0.07647(15)
H22 H 0.9388 0.6801 0.0100
C20 C 1.0861(3) 0.5998(2) 0.12865(15)
C21 C 1.0812(3) 0.5955(2) 0.22838(16)
C22 C 1.2332(3) 0.5211(2) 0.27679(17)
H23 H 1.2309 0.5183 0.3432
C23 C 1.3864(3) 0.4518(2) 0.22619(19)
H24 H 1.4879 0.4020 0.2590
C24 C 1.3942(3) 0.4540(2) 0.12820(19)
H25 H 1.4995 0.4061 0.0949
C25 C 1.2450(3) 0.5276(2) 0.08024(17)
H26 H 1.2497 0.5295 0.0138
N2 N -0.1546(3) 1.2417(3) 0.13937(15)
N3 N 0.7321(2) 0.97569(19) 0.39676(13)
N4 N 0.7819(2) 0.74785(19) 0.11708(12)
O1 O 0.7847(2) 0.75306(18) 0.51390(12)
H27 H 0.7283 0.8280 0.4837
O2 O 0.9306(2) 0.66199(18) 0.27969(10)
H28 H 0.8533 0.7100 0.2433
loop_
_geom_bond_atom_site_label_1
_geom_bond_atom_site_label_2
_geom_bond_site_symmetry_1
_geom_bond_site_symmetry_2
C1 H1 1_555 1_555
N1 C3 1_555 1_555
C2 C1 1_555 1_555
H2 C2 1_555 1_555
C3 C2 1_555 1_555
C4 C3 1_555 1_555
H3 C4 1_555 1_555
C5 C4 1_555 1_555
H4 C5 1_555 1_555
C6 N1 1_555 1_555
H5 C6 1_555 1_555
H6 C6 1_555 1_555
C7 C6 1_555 1_555
H7 C7 1_555 1_555
H8 C7 1_555 1_555
C8 C7 1_555 1_555
H9 C8 1_555 1_555
H10 C8 1_555 1_555
C9 N1 1_555 1_555
H11 C9 1_555 1_555
H12 C9 1_555 1_555
C10 C9 1_555 1_555
H13 C10 1_555 1_555
H14 C10 1_555 1_555
C11 C10 1_555 1_555
H15 C11 1_555 1_555
H16 C11 1_555 1_555
C12 H17 1_555 1_555
C13 C12 1_555 1_555
C14 C13 1_555 1_555
C15 C14 1_555 1_555
H18 C15 1_555 1_555
C16 C15 1_555 1_555
H19 C16 1_555 1_555
C17 C16 1_555 1_555
H20 C17 1_555 1_555
C18 C13 1_555 1_555
H21 C18 1_555 1_555
C19 H22 1_555 1_555
C20 C19 1_555 1_555
C21 C20 1_555 1_555
C22 C21 1_555 1_555
H23 C22 1_555 1_555
C23 C22 1_555 1_555
H24 C23 1_555 1_555
C24 C23 1_555 1_555
H25 C24 1_555 1_555
C25 C20 1_555 1_555
H26 C25 1_555 1_555
N2 C1 1_555 1_555
N3 C8 1_555 1_555
N4 C11 1_555 1_555
O1 C14 1_555 1_555
H27 O1 1_555 1_555
O2 C21 1_555 1_555
H28 O2 1_555 1_555
C5 N2 1_555 1_555
C12 N3 1_555 1_555
C17 C18 1_555 1_555
C19 N4 1_555 1_555
C24 C25 1_555 1_555

#END
