
#######################################################################
#
#                 Cambridge Crystallographic Data Centre
#                                CCDC 
#
#######################################################################
#
# If this CIF has been generated from an entry in the Cambridge 
# Structural Database, then it will include bibliographic, chemical, 
# crystal, experimental, refinement or atomic coordinate data resulting 
# from the CCDC's data processing and validation procedures.
#
#######################################################################

data_SOYVEI
_chemical_name_common            N,N'-Di-8-quinolyladipamide
_chemical_formula_moiety         'C24 H22 N4 O2'
_chemical_name_systematic        N,N'-bis(8-quinolinyl)hexanediamide
_symmetry_cell_setting           monoclinic
_symmetry_space_group_name_H-M   'P 21/n'
_symmetry_Int_Tables_number      14
_space_group_name_Hall           '-P 2yn'
loop_
_symmetry_equiv_pos_site_id
_symmetry_equiv_pos_as_xyz
1 x,y,z
2 1/2-x,1/2+y,1/2-z
3 -x,-y,-z
4 1/2+x,1/2-y,1/2+z
_cell_length_a                   9.923(2)
_cell_length_b                   9.184(2)
_cell_length_c                   11.722(3)
_cell_angle_alpha                90
_cell_angle_beta                 110.530(4)
_cell_angle_gamma                90
_cell_volume                     1000.41
_exptl_crystal_colour            colorless
_exptl_crystal_description       column
_cell_formula_units_Z            2
_exptl_crystal_recrystallization_method methanol
loop_
_atom_site_label
_atom_site_type_symbol
_atom_site_fract_x
_atom_site_fract_y
_atom_site_fract_z
O1 O 0.31418(15) -0.13777(14) 0.23248(14)
N1 N 0.61637(15) 0.28926(17) 0.28795(13)
N2 N 0.41475(15) 0.08554(16) 0.26119(14)
C1 C 0.7142(2) 0.3904(2) 0.30187(19)
H1 H 0.6886 0.4723 0.2522
C2 C 0.8543(2) 0.3835(3) 0.38633(19)
H2 H 0.9192 0.4585 0.3917
C3 C 0.8942(2) 0.2662(2) 0.46005(17)
H3 H 0.9869 0.2602 0.5172
C4 C 0.79507(17) 0.1532(2) 0.45011(15)
C5 C 0.82757(19) 0.0257(2) 0.52156(17)
H4 H 0.9178 0.0148 0.5816
C6 C 0.72814(19) -0.0807(2) 0.50313(17)
H5 H 0.7518 -0.1654 0.5494
C7 C 0.59014(19) -0.0659(2) 0.41559(16)
H6 H 0.5236 -0.1407 0.4044
C8 C 0.55222(17) 0.05739(19) 0.34647(15)
C9 C 0.65611(17) 0.16955(18) 0.36128(14)
C10 C 0.30407(18) -0.0079(2) 0.21278(16)
C11 C 0.16598(18) 0.06244(19) 0.13495(17)
H7 H 0.1883 0.1489 0.0975
H8 H 0.1132 0.0930 0.1866
C12 C 0.07120(17) -0.03564(19) 0.03641(16)
H9 H 0.0526 -0.1245 0.0731
H10 H 0.1214 -0.0618 -0.0183
H11 H 0.4032(19) 0.1789(11) 0.2388(17)
O1B O -0.31418(15) 0.13777(14) -0.23248(14)
N1B N -0.61637(15) -0.28926(17) -0.28795(13)
N2B N -0.41475(15) -0.08554(16) -0.26119(14)
C1B C -0.7142(2) -0.3904(2) -0.30187(19)
H1B H -0.6886 -0.4723 -0.2522
C2B C -0.8543(2) -0.3835(3) -0.38633(19)
H2B H -0.9192 -0.4585 -0.3917
C3B C -0.8942(2) -0.2662(2) -0.46005(17)
H3B H -0.9869 -0.2602 -0.5172
C4B C -0.79507(17) -0.1532(2) -0.45011(15)
C5B C -0.82757(19) -0.0257(2) -0.52156(17)
H4B H -0.9178 -0.0148 -0.5816
C6B C -0.72814(19) 0.0807(2) -0.50313(17)
H5B H -0.7518 0.1654 -0.5494
C7B C -0.59014(19) 0.0659(2) -0.41559(16)
H6B H -0.5236 0.1407 -0.4044
C8B C -0.55222(17) -0.05739(19) -0.34647(15)
C9B C -0.65611(17) -0.16955(18) -0.36128(14)
C10B C -0.30407(18) 0.0079(2) -0.21278(16)
C11B C -0.16598(18) -0.06244(19) -0.13495(17)
H7B H -0.1883 -0.1489 -0.0975
H8B H -0.1132 -0.0930 -0.1866
C12B C -0.07120(17) 0.03564(19) -0.03641(16)
H9B H -0.0526 0.1245 -0.0731
H10B H -0.1214 0.0618 0.0183
H11B H -0.4032(19) -0.1789(11) -0.2388(17)
loop_
_geom_bond_atom_site_label_1
_geom_bond_atom_site_label_2
_geom_bond_site_symmetry_1
_geom_bond_site_symmetry_2
O1 C10 1_555 1_555
N1 C1 1_555 1_555
N2 C8 1_555 1_555
C1 H1 1_555 1_555
C2 C1 1_555 1_555
H2 C2 1_555 1_555
C3 C2 1_555 1_555
H3 C3 1_555 1_555
C4 C3 1_555 1_555
C5 C4 1_555 1_555
H4 C5 1_555 1_555
C6 C5 1_555 1_555
H5 C6 1_555 1_555
C7 C6 1_555 1_555
H6 C7 1_555 1_555
C8 C7 1_555 1_555
C9 N1 1_555 1_555
C10 N2 1_555 1_555
C11 C10 1_555 1_555
H7 C11 1_555 1_555
H8 C11 1_555 1_555
C12 C11 1_555 1_555
H9 C12 1_555 1_555
H10 C12 1_555 1_555
H11 N2 1_555 1_555
O1B C10B 1_555 1_555
N1B C1B 1_555 1_555
N2B C8B 1_555 1_555
C1B H1B 1_555 1_555
C2B C1B 1_555 1_555
H2B C2B 1_555 1_555
C3B C2B 1_555 1_555
H3B C3B 1_555 1_555
C4B C3B 1_555 1_555
C5B C4B 1_555 1_555
H4B C5B 1_555 1_555
C6B C5B 1_555 1_555
H5B C6B 1_555 1_555
C7B C6B 1_555 1_555
H6B C7B 1_555 1_555
C8B C7B 1_555 1_555
C9B N1B 1_555 1_555
C10B N2B 1_555 1_555
C11B C10B 1_555 1_555
H7B C11B 1_555 1_555
H8B C11B 1_555 1_555
C12B C12 1_555 1_555
H9B C12B 1_555 1_555
H10B C12B 1_555 1_555
H11B N2B 1_555 1_555
C4 C9 1_555 1_555
C8 C9 1_555 1_555
C4B C9B 1_555 1_555
C8B C9B 1_555 1_555
C11B C12B 1_555 1_555

#END
