
#######################################################################
#
#                 Cambridge Crystallographic Data Centre
#                                CCDC 
#
#######################################################################
#
# If this CIF has been generated from an entry in the Cambridge 
# Structural Database, then it will include bibliographic, chemical, 
# crystal, experimental, refinement or atomic coordinate data resulting 
# from the CCDC's data processing and validation procedures.
#
#######################################################################

data_SOYVAE
_chemical_name_common            
'2-Aminobenzothiazolium 2,4-dicarboxybenzoate monohydrate'
_chemical_formula_moiety         'C7 H7 N2 S1 1+,C9 H5 O6 1-,H2 O1'
_chemical_name_systematic        
'1,3-Benzothiazol-2(3H)-iminium 2,4-dicarboxybenzoate monohydrate'
_symmetry_cell_setting           orthorhombic
_symmetry_space_group_name_H-M   'P n a 21'
_symmetry_Int_Tables_number      33
_space_group_name_Hall           'P 2c -2n'
loop_
_symmetry_equiv_pos_site_id
_symmetry_equiv_pos_as_xyz
1 x,y,z
2 -x,-y,1/2+z
3 1/2+x,1/2-y,z
4 1/2-x,1/2+y,1/2+z
_cell_length_a                   6.8510(4)
_cell_length_b                   24.3789(15)
_cell_length_c                   9.7043(6)
_cell_angle_alpha                90
_cell_angle_beta                 90
_cell_angle_gamma                90
_cell_volume                     1620.81
_exptl_crystal_colour            colorless
_exptl_crystal_description       block
_cell_formula_units_Z            4
loop_
_atom_site_label
_atom_site_type_symbol
_atom_site_fract_x
_atom_site_fract_y
_atom_site_fract_z
S1 S 0.41587(9) 0.29601(2) 0.74515(7)
N1 N 0.3226(3) 0.35998(8) 0.54800(19)
H3 H 0.2880 0.3717 0.4681
N2 N 0.3039(3) 0.26695(9) 0.4919(2)
H4 H 0.2647 0.2740 0.4096
H5 H 0.3190 0.2335 0.5180
C1 C 0.3639(3) 0.39498(10) 0.6569(3)
C2 C 0.4157(3) 0.36673(10) 0.7762(3)
C3 C 0.4535(4) 0.39391(12) 0.8975(3)
H6 H 0.4875 0.3751 0.9773
C4 C 0.4387(4) 0.45033(13) 0.8957(4)
H7 H 0.4624 0.4699 0.9763
C5 C 0.3892(4) 0.47875(11) 0.7767(4)
H8 H 0.3814 0.5168 0.7790
C6 C 0.3515(4) 0.45135(10) 0.6548(3)
H9 H 0.3191 0.4702 0.5747
C7 C 0.3406(3) 0.30693(10) 0.5769(2)
O1 O 0.6936(2) 0.09280(7) 1.31365(15)
O2 O 0.3712(2) 0.10037(7) 1.34480(16)
O3 O 0.5680(3) 0.20862(7) 1.2595(2)
O4 O 0.4844(3) 0.25690(7) 1.07597(17)
H1 H 0.5055 0.2826 1.1284
O5 O 0.3884(3) 0.17106(7) 0.63412(16)
O6 O 0.3848(3) 0.08050(6) 0.61157(14)
H2 H 0.3681 0.0882 0.5302
C8 C 0.4935(3) 0.10831(9) 1.1180(2)
C9 C 0.4830(3) 0.16013(9) 1.0568(2)
C10 C 0.4490(3) 0.16392(9) 0.9160(2)
H10 H 0.4394 0.1983 0.8753
C11 C 0.4293(3) 0.11747(10) 0.8351(2)
C12 C 0.4424(3) 0.06607(10) 0.8962(2)
H11 H 0.4298 0.0345 0.8431
C13 C 0.4741(3) 0.06218(9) 1.0367(2)
H12 H 0.4826 0.0277 1.0773
C14 C 0.5236(3) 0.10060(9) 1.2723(2)
C15 C 0.5155(3) 0.21044(9) 1.1409(2)
C16 C 0.3977(3) 0.12557(10) 0.6837(2)
O7 O 0.0300(2) 0.15288(7) 0.2293(2)
H13 H -0.0728 0.1356 0.2522
H14 H 0.1377 0.1409 0.2607
loop_
_geom_bond_atom_site_label_1
_geom_bond_atom_site_label_2
_geom_bond_site_symmetry_1
_geom_bond_site_symmetry_2
S1 C2 1_555 1_555
O1 C14 1_555 1_555
O2 C14 1_555 1_555
O3 C15 1_555 1_555
O4 H1 1_555 1_555
O5 C16 1_555 1_555
O6 H2 1_555 1_555
N1 H3 1_555 1_555
N2 H4 1_555 1_555
H5 N2 1_555 1_555
C1 N1 1_555 1_555
C2 C1 1_555 1_555
C3 C2 1_555 1_555
H6 C3 1_555 1_555
C4 C3 1_555 1_555
H7 C4 1_555 1_555
C5 C4 1_555 1_555
H8 C5 1_555 1_555
C6 C1 1_555 1_555
H9 C6 1_555 1_555
C7 S1 1_555 1_555
C8 C9 1_555 1_555
C9 C10 1_555 1_555
C10 H10 1_555 1_555
C11 C10 1_555 1_555
C12 C11 1_555 1_555
H11 C12 1_555 1_555
C13 C8 1_555 1_555
H12 C13 1_555 1_555
C14 C8 1_555 1_555
C15 O4 1_555 1_555
C16 O6 1_555 1_555
O7 H13 1_555 1_555
H14 O7 1_555 1_555
N1 C7 1_555 1_555
N2 C7 1_555 1_555
C5 C6 1_555 1_555
C9 C15 1_555 1_555
C11 C16 1_555 1_555
C12 C13 1_555 1_555

#END
