
#######################################################################
#
#                 Cambridge Crystallographic Data Centre
#                                CCDC 
#
#######################################################################
#
# If this CIF has been generated from an entry in the Cambridge 
# Structural Database, then it will include bibliographic, chemical, 
# crystal, experimental, refinement or atomic coordinate data resulting 
# from the CCDC's data processing and validation procedures.
#
#######################################################################

data_SOYZOV
_chemical_formula_moiety         'C30 H38 N8 Na1 O4 1+,Cl1 O4 1-,C2 H3 N1'
_chemical_name_systematic        
'Aqua-(1,4,11,14,17,24,29,36-octa-aza-39,40,41-trioxapentacyclo(12.12.12.1^6,9^.1^19,22^.1^31,34^)henitetraconta-4,6,8,10,17,19,21,23,29,31,33,35-dodecaene)-sodium perchlorate acetonitrile solvate'
_symmetry_cell_setting           monoclinic
_symmetry_space_group_name_H-M   'P 21/c'
_symmetry_Int_Tables_number      14
_space_group_name_Hall           '-P 2ybc'
loop_
_symmetry_equiv_pos_site_id
_symmetry_equiv_pos_as_xyz
1 x,y,z
2 -x,1/2+y,1/2-z
3 -x,-y,-z
4 x,1/2-y,1/2+z
_cell_length_a                   11.117(3)
_cell_length_b                   25.852(6)
_cell_length_c                   13.396(3)
_cell_angle_alpha                90
_cell_angle_beta                 97.63(2)
_cell_angle_gamma                90
_cell_volume                     3815.88
_cell_formula_units_Z            4
loop_
_atom_site_label
_atom_site_type_symbol
_atom_site_fract_x
_atom_site_fract_y
_atom_site_fract_z
Cl1 Cl 0.3106(2) 0.3568(1) 0.4682(2)
O1 O 0.3823(7) 0.3498(3) 0.3906(5)
O2 O 0.3581(7) 0.3957(3) 0.5351(6)
O3 O 0.3102(7) 0.3099(3) 0.5216(5)
O4 O 0.1932(7) 0.3692(4) 0.4315(6)
Na1 Na 0.2038(2) 0.5912(1) 0.2525(2)
N1 N 0.2399(4) 0.5666(2) 0.4460(3)
N2 N 0.1375(5) 0.6436(2) -0.1824(4)
N3 N 0.0052(5) 0.5888(2) 0.3268(4)
O5 O -0.0411(4) 0.6693(2) 0.1818(3)
N4 N 0.0407(5) 0.7018(2) 0.0005(4)
N5 N 0.3138(5) 0.6629(2) 0.3545(4)
O6 O 0.3720(4) 0.6707(2) 0.1598(3)
N6 N 0.4108(5) 0.6678(2) -0.0992(4)
N7 N 0.3294(4) 0.5046(2) 0.2784(3)
O7 O 0.2276(4) 0.4854(2) 0.0742(3)
N8 N 0.0918(5) 0.5379(2) -0.0851(4)
O8 O 0.1402(6) 0.6013(2) 0.0879(4)
C1 C 0.1233(6) 0.5662(3) 0.4876(4)
C2 C 0.0185(6) 0.5505(3) 0.4081(5)
C3 C -0.0831(6) 0.6195(3) 0.3278(4)
C4 C -0.1106(6) 0.6616(3) 0.2584(5)
C5 C -0.1974(7) 0.6987(3) 0.2545(6)
C6 C -0.1826(7) 0.7309(3) 0.1721(6)
C7 C -0.0883(6) 0.7117(3) 0.1287(5)
C8 C -0.0385(6) 0.7277(3) 0.0391(5)
C9 C 0.0758(7) 0.7222(3) -0.0936(5)
C10 C 0.0452(7) 0.6837(3) -0.1795(5)
C11 C 0.3229(6) 0.6051(3) 0.4998(4)
C12 C 0.2935(7) 0.6593(3) 0.4608(5)
C13 C 0.3851(6) 0.6978(2) 0.3334(5)
C14 C 0.4175(6) 0.7049(2) 0.2334(5)
C15 C 0.4921(6) 0.7391(3) 0.1952(5)
C16 C 0.4939(6) 0.7260(3) 0.0935(5)
C17 C 0.4177(6) 0.6846(3) 0.0740(5)
C18 C 0.3806(6) 0.6541(3) -0.0163(5)
C19 C 0.3591(6) 0.6377(3) -0.1878(5)
C20 C 0.2383(6) 0.6626(3) -0.2314(5)
C21 C 0.2941(6) 0.5152(3) 0.4547(4)
C22 C 0.3887(6) 0.5077(3) 0.3840(4)
C23 C 0.3455(5) 0.4624(3) 0.2347(5)
C24 C 0.2928(6) 0.4490(3) 0.1324(5)
C25 C 0.2934(7) 0.4034(3) 0.0824(5)
C26 C 0.2225(7) 0.4114(3) -0.0109(5)
C27 C 0.1837(6) 0.4608(3) -0.0149(5)
C28 C 0.1092(6) 0.4902(3) -0.0918(4)
C29 C 0.0149(6) 0.5629(3) -0.1693(5)
C30 C 0.0870(6) 0.5962(3) -0.2326(4)
H1 H 0.111 0.628 0.065
H2 H 0.133 0.582 0.034
H3 H 0.129 0.539 0.549
H4 H 0.106 0.604 0.515
H5 H -0.064 0.549 0.442
H6 H 0.037 0.513 0.378
H7 H -0.142 0.614 0.385
H8 H -0.265 0.703 0.305
H9 H -0.236 0.765 0.148
H10 H -0.071 0.763 0.003
H11 H 0.028 0.758 -0.112
H12 H 0.172 0.729 -0.083
H13 H 0.036 0.705 -0.250
H14 H -0.040 0.665 -0.171
H15 H 0.314 0.604 0.579
H16 H 0.415 0.596 0.489
H17 H 0.351 0.687 0.505
H18 H 0.200 0.668 0.467
H19 H 0.424 0.724 0.393
H20 H 0.541 0.770 0.235
H21 H 0.545 0.745 0.041
H22 H 0.327 0.620 -0.012
H23 H 0.421 0.638 -0.244
H24 H 0.344 0.598 -0.166
H25 H 0.221 0.654 -0.311
H26 H 0.245 0.704 -0.221
H27 H 0.337 0.510 0.531
H28 H 0.223 0.487 0.437
H29 H 0.438 0.472 0.403
H30 H 0.451 0.540 0.392
H31 H 0.403 0.434 0.276
H32 H 0.339 0.368 0.109
H33 H 0.203 0.383 -0.070
H34 H 0.067 0.470 -0.158
H35 H -0.031 0.533 -0.217
H36 H -0.051 0.587 -0.139
H37 H 0.028 0.607 -0.300
H38 H 0.161 0.573 -0.253
N9 N 0.3040(9) 0.4967(4) -0.2702(6)
C31 C 0.3596(8) 0.4630(4) -0.2415(7)
C32 C 0.4347(9) 0.4193(4) -0.2074(9)
H39 H 0.415 0.407 -0.134
H40 H 0.529 0.430 -0.203
H41 H 0.416 0.388 -0.260
loop_
_geom_bond_atom_site_label_1
_geom_bond_atom_site_label_2
_geom_bond_site_symmetry_1
_geom_bond_site_symmetry_2
Cl1 O1 1_555 1_555
O2 Cl1 1_555 1_555
O3 Cl1 1_555 1_555
O4 Cl1 1_555 1_555
Na1 N1 1_555 1_555
N1 C1 1_555 1_555
N2 C10 1_555 1_555
N3 Na1 1_555 1_555
O5 C4 1_555 1_555
N4 C8 1_555 1_555
N5 Na1 1_555 1_555
O6 C14 1_555 1_555
N6 C18 1_555 1_555
N7 Na1 1_555 1_555
O7 C24 1_555 1_555
N8 C28 1_555 1_555
O8 Na1 1_555 1_555
C1 C2 1_555 1_555
C2 N3 1_555 1_555
C3 N3 1_555 1_555
C4 C3 1_555 1_555
C5 C4 1_555 1_555
C6 C5 1_555 1_555
C7 O5 1_555 1_555
C8 C7 1_555 1_555
C9 N4 1_555 1_555
C10 C9 1_555 1_555
C11 N1 1_555 1_555
C12 N5 1_555 1_555
C13 N5 1_555 1_555
C14 C13 1_555 1_555
C15 C14 1_555 1_555
C16 C15 1_555 1_555
C17 O6 1_555 1_555
C18 C17 1_555 1_555
C19 N6 1_555 1_555
C20 N2 1_555 1_555
C21 N1 1_555 1_555
C22 N7 1_555 1_555
C23 N7 1_555 1_555
C24 C23 1_555 1_555
C25 C24 1_555 1_555
C26 C25 1_555 1_555
C27 O7 1_555 1_555
C28 C27 1_555 1_555
C29 N8 1_555 1_555
C30 N2 1_555 1_555
H1 O8 1_555 1_555
H2 O8 1_555 1_555
H3 C1 1_555 1_555
H4 C1 1_555 1_555
H5 C2 1_555 1_555
H6 C2 1_555 1_555
H7 C3 1_555 1_555
H8 C5 1_555 1_555
H9 C6 1_555 1_555
H10 C8 1_555 1_555
H11 C9 1_555 1_555
H12 C9 1_555 1_555
H13 C10 1_555 1_555
H14 C10 1_555 1_555
H15 C11 1_555 1_555
H16 C11 1_555 1_555
H17 C12 1_555 1_555
H18 C12 1_555 1_555
H19 C13 1_555 1_555
H20 C15 1_555 1_555
H21 C16 1_555 1_555
H22 C18 1_555 1_555
H23 C19 1_555 1_555
H24 C19 1_555 1_555
H25 C20 1_555 1_555
H26 C20 1_555 1_555
H27 C21 1_555 1_555
H28 C21 1_555 1_555
H29 C22 1_555 1_555
H30 C22 1_555 1_555
H31 C23 1_555 1_555
H32 C25 1_555 1_555
H33 C26 1_555 1_555
H34 C28 1_555 1_555
H35 C29 1_555 1_555
H36 C29 1_555 1_555
H37 C30 1_555 1_555
H38 C30 1_555 1_555
N9 C31 1_555 1_555
C31 C32 1_555 1_555
C32 H39 1_555 1_555
H40 C32 1_555 1_555
H41 C32 1_555 1_555
C6 C7 1_555 1_555
C11 C12 1_555 1_555
C16 C17 1_555 1_555
C19 C20 1_555 1_555
C21 C22 1_555 1_555
C26 C27 1_555 1_555
C29 C30 1_555 1_555

#END
