
#######################################################################
#
#                 Cambridge Crystallographic Data Centre
#                                CCDC 
#
#######################################################################
#
# If this CIF has been generated from an entry in the Cambridge 
# Structural Database, then it will include bibliographic, chemical, 
# crystal, experimental, refinement or atomic coordinate data resulting 
# from the CCDC's data processing and validation procedures.
#
#######################################################################

data_SOZFOE
_chemical_formula_moiety         'C8 H10 F6 N2 O4 S2'
_chemical_name_systematic        
1,5-dimethyl-3,6-bis((trifluoromethyl)sulfonyl)-3,6-diazabicyclo[3.1.0]hexane
_symmetry_cell_setting           monoclinic
_symmetry_space_group_name_H-M   'P 21/c'
_symmetry_Int_Tables_number      14
_space_group_name_Hall           '-P 2ybc'
loop_
_symmetry_equiv_pos_site_id
_symmetry_equiv_pos_as_xyz
1 x,y,z
2 -x,1/2+y,1/2-z
3 -x,-y,-z
4 x,1/2-y,1/2+z
_cell_length_a                   12.6133(6)
_cell_length_b                   11.3363(7)
_cell_length_c                   10.8414(6)
_cell_angle_alpha                90
_cell_angle_beta                 110.017(2)
_cell_angle_gamma                90
_cell_volume                     1456.55
_exptl_crystal_colour            colorless
_exptl_crystal_description       prism
_chemical_melting_point          '426 K'
_cell_formula_units_Z            4
_exptl_crystal_recrystallization_method hexane
loop_
_atom_site_label
_atom_site_type_symbol
_atom_site_fract_x
_atom_site_fract_y
_atom_site_fract_z
S1 S 0.19287(5) 0.21764(5) 0.14186(6)
S2 S 0.52075(5) 0.26115(5) 0.26165(6)
F1 F 0.0290(2) 0.0734(2) 0.1120(3)
F2 F 0.6415(2) 0.4333(3) 0.3931(3)
F3 F -0.0154(2) 0.2235(3) -0.0179(3)
F4 F 0.0015(2) 0.2421(3) 0.1825(3)
F5 F 0.73620(18) 0.3011(3) 0.3377(4)
F6 F 0.6358(2) 0.4238(3) 0.1955(3)
O1 O 0.5311(2) 0.2049(2) 0.3815(2)
O2 O 0.24301(19) 0.17398(18) 0.27115(19)
O3 O 0.22190(19) 0.17073(18) 0.0369(2)
O4 O 0.52252(18) 0.19664(18) 0.1508(2)
N1 N 0.18619(16) 0.35952(17) 0.13605(19)
N2 N 0.41533(16) 0.34778(16) 0.22086(17)
C1 C 0.0420(3) 0.1894(4) 0.1017(4)
C2 C 0.2572(2) 0.44713(19) 0.2296(2)
C3 C 0.3723(2) 0.4062(2) 0.3162(2)
H1 H 0.4196 0.4722 0.3588
H2 H 0.3671 0.3512 0.3825
C4 C 0.6412(3) 0.3606(3) 0.2989(4)
C5 C 0.25387(19) 0.44403(19) 0.0896(2)
C6 C 0.1888(3) 0.5274(3) -0.0169(3)
H3 H 0.1729 0.4900 -0.1008
H4 H 0.2326 0.5973 -0.0133
H5 H 0.1192 0.5481 -0.0048
C7 C 0.36721(19) 0.4016(2) 0.0897(2)
H6 H 0.3591 0.3440 0.0209
H7 H 0.4133 0.4666 0.0790
C8 C 0.1958(3) 0.5334(2) 0.2853(3)
H8 H 0.1276 0.5579 0.2177
H9 H 0.2428 0.6010 0.3185
H10 H 0.1775 0.4968 0.3553
loop_
_geom_bond_atom_site_label_1
_geom_bond_atom_site_label_2
_geom_bond_site_symmetry_1
_geom_bond_site_symmetry_2
S1 O2 1_555 1_555
S2 O1 1_555 1_555
F1 C1 1_555 1_555
F2 C4 1_555 1_555
F3 C1 1_555 1_555
F4 C1 1_555 1_555
F5 C4 1_555 1_555
F6 C4 1_555 1_555
O3 S1 1_555 1_555
O4 S2 1_555 1_555
N1 S1 1_555 1_555
N2 S2 1_555 1_555
C1 S1 1_555 1_555
C2 N1 1_555 1_555
C3 N2 1_555 1_555
H1 C3 1_555 1_555
H2 C3 1_555 1_555
C4 S2 1_555 1_555
C5 N1 1_555 1_555
C6 C5 1_555 1_555
H3 C6 1_555 1_555
H4 C6 1_555 1_555
H5 C6 1_555 1_555
C7 N2 1_555 1_555
H6 C7 1_555 1_555
H7 C7 1_555 1_555
C8 C2 1_555 1_555
H8 C8 1_555 1_555
H9 C8 1_555 1_555
H10 C8 1_555 1_555
C2 C3 1_555 1_555
C2 C5 1_555 1_555
C5 C7 1_555 1_555

#END
