
#######################################################################
#
#                 Cambridge Crystallographic Data Centre
#                                CCDC 
#
#######################################################################
#
# If this CIF has been generated from an entry in the Cambridge 
# Structural Database, then it will include bibliographic, chemical, 
# crystal, experimental, refinement or atomic coordinate data resulting 
# from the CCDC's data processing and validation procedures.
#
#######################################################################

data_SOZMOL
_chemical_formula_moiety         'C22 H24 O2'
_chemical_name_systematic        
6a-Methyl-11-((3-methylbut-3-en-1-yl)oxy)-5,6,6a,7-tetrahydronaphtho[3,2,1-de]chromene
_symmetry_cell_setting           monoclinic
_symmetry_space_group_name_H-M   'P 21/c'
_symmetry_Int_Tables_number      14
_space_group_name_Hall           '-P 2ybc'
loop_
_symmetry_equiv_pos_site_id
_symmetry_equiv_pos_as_xyz
1 x,y,z
2 -x,1/2+y,1/2-z
3 -x,-y,-z
4 x,1/2-y,1/2+z
_cell_length_a                   10.4113(6)
_cell_length_b                   17.4028(9)
_cell_length_c                   10.5299(5)
_cell_angle_alpha                90
_cell_angle_beta                 110.675(6)
_cell_angle_gamma                90
_cell_volume                     1785
_exptl_crystal_colour            white
_cell_formula_units_Z            4
_exptl_crystal_recrystallization_method 'ethyl acetate'
loop_
_atom_site_label
_atom_site_type_symbol
_atom_site_fract_x
_atom_site_fract_y
_atom_site_fract_z
C1 C 1.38823(19) 0.76293(12) 0.4344(2)
H1 H 1.4606 0.7754 0.3999
H2 H 1.3789 0.8057 0.4896
C2 C 1.25568(18) 0.75203(11) 0.31736(17)
H3 H 1.2647 0.7093 0.2620
H4 H 1.2356 0.7978 0.2613
C3 C 1.13766(16) 0.73626(9) 0.36835(14)
C4 C 1.01245(17) 0.70538(10) 0.25316(15)
H5 H 0.9796 0.7440 0.1827
H6 H 1.0385 0.6602 0.2138
C5 C 0.89983(17) 0.68485(9) 0.30519(15)
C6 C 0.76465(18) 0.70500(10) 0.23293(17)
H7 H 0.7424 0.7287 0.1487
C7 C 0.66376(19) 0.69021(11) 0.28507(19)
H8 H 0.5736 0.7043 0.2363
C8 C 0.69502(18) 0.65448(10) 0.40936(18)
H9 H 0.6263 0.6451 0.4447
C9 C 0.82912(17) 0.63253(9) 0.48146(16)
C10 C 0.93533(16) 0.64740(9) 0.43145(15)
C11 C 1.08283(15) 0.62852(9) 0.50410(14)
C12 C 1.18214(16) 0.67299(9) 0.47461(14)
C13 C 1.32057(17) 0.65590(10) 0.53940(16)
C14 C 1.36196(18) 0.59535(11) 0.63037(17)
H10 H 1.4548 0.5844 0.6727
C15 C 1.26470(18) 0.55169(10) 0.65746(17)
H11 H 1.2922 0.5108 0.7180
C16 C 1.12678(17) 0.56773(9) 0.59588(16)
H12 H 1.0624 0.5377 0.6157
C17 C 1.09905(18) 0.81044(10) 0.42484(17)
H13 H 1.0263 0.8000 0.4584
H14 H 1.0691 0.8482 0.3540
H15 H 1.1776 0.8295 0.4974
C18 C 0.76002(18) 0.57470(11) 0.65515(19)
H16 H 0.6877 0.5476 0.5851
H17 H 0.7205 0.6197 0.6814
C19 C 0.8230(2) 0.52330(13) 0.7756(2)
H18 H 0.8489 0.4750 0.7454
H19 H 0.9058 0.5472 0.8371
C20 C 0.7273(2) 0.50778(13) 0.8497(2)
C21 C 0.6331(3) 0.45371(14) 0.8089(3)
H20 H 0.5711 0.4466 0.8534
H21 H 0.6286 0.4226 0.7357
C22 C 0.7395(4) 0.5587(3) 0.9646(3)
H22 H 0.8267 0.5505 1.0354
H23 H 0.6672 0.5475 0.9985
H24 H 0.7327 0.6112 0.9352
O1 O 1.42561(12) 0.69519(8) 0.51707(13)
O2 O 0.86521(11) 0.59710(7) 0.60518(11)
loop_
_geom_bond_atom_site_label_1
_geom_bond_atom_site_label_2
_geom_bond_site_symmetry_1
_geom_bond_site_symmetry_2
C1 H1 1_555 1_555
H2 C1 1_555 1_555
C2 C1 1_555 1_555
H3 C2 1_555 1_555
H4 C2 1_555 1_555
C3 C2 1_555 1_555
C4 C3 1_555 1_555
H5 C4 1_555 1_555
H6 C4 1_555 1_555
C5 C4 1_555 1_555
C6 C5 1_555 1_555
H7 C6 1_555 1_555
C7 C6 1_555 1_555
H8 C7 1_555 1_555
C8 C7 1_555 1_555
H9 C8 1_555 1_555
C9 C8 1_555 1_555
C10 C5 1_555 1_555
C11 C10 1_555 1_555
C12 C3 1_555 1_555
C13 C12 1_555 1_555
C14 C13 1_555 1_555
H10 C14 1_555 1_555
C15 C14 1_555 1_555
H11 C15 1_555 1_555
C16 C11 1_555 1_555
H12 C16 1_555 1_555
C17 C3 1_555 1_555
H13 C17 1_555 1_555
H14 C17 1_555 1_555
H15 C17 1_555 1_555
C18 H16 1_555 1_555
H17 C18 1_555 1_555
C19 C18 1_555 1_555
H18 C19 1_555 1_555
H19 C19 1_555 1_555
C20 C19 1_555 1_555
C21 C20 1_555 1_555
H20 C21 1_555 1_555
H21 C21 1_555 1_555
C22 C20 1_555 1_555
H22 C22 1_555 1_555
H23 C22 1_555 1_555
H24 C22 1_555 1_555
O1 C1 1_555 1_555
O2 C9 1_555 1_555
C9 C10 1_555 1_555
C11 C12 1_555 1_555
C13 O1 1_555 1_555
C15 C16 1_555 1_555
C18 O2 1_555 1_555

#END
