
#######################################################################
#
#                 Cambridge Crystallographic Data Centre
#                                CCDC 
#
#######################################################################
#
# If this CIF has been generated from an entry in the Cambridge 
# Structural Database, then it will include bibliographic, chemical, 
# crystal, experimental, refinement or atomic coordinate data resulting 
# from the CCDC's data processing and validation procedures.
#
#######################################################################

data_SOZNAY
_chemical_formula_moiety         'C20 H20 Cl2 O2'
_chemical_name_systematic        
3,3'-Ethane-1,2-diylbis(5-chloro-3-methyl-2,3-dihydro-1-benzofuran)
_symmetry_cell_setting           orthorhombic
_symmetry_space_group_name_H-M   'P b c a'
_symmetry_Int_Tables_number      61
_space_group_name_Hall           '-P 2ac 2ab'
loop_
_symmetry_equiv_pos_site_id
_symmetry_equiv_pos_as_xyz
1 x,y,z
2 1/2-x,-y,1/2+z
3 1/2+x,1/2-y,-z
4 -x,1/2+y,1/2-z
5 -x,-y,-z
6 1/2+x,y,1/2-z
7 1/2-x,1/2+y,z
8 x,1/2-y,1/2+z
_cell_length_a                   9.5678(9)
_cell_length_b                   11.7340(13)
_cell_length_c                   15.9869(13)
_cell_angle_alpha                90
_cell_angle_beta                 90
_cell_angle_gamma                90
_cell_volume                     1794.83
_exptl_crystal_colour            colorless
_cell_formula_units_Z            4
_exptl_crystal_recrystallization_method 'ethyl acetate'
loop_
_atom_site_label
_atom_site_type_symbol
_atom_site_fract_x
_atom_site_fract_y
_atom_site_fract_z
Cl1 Cl 0.44972(9) 0.54498(8) 0.76549(5)
O1 O 0.9003(3) 0.79252(19) 0.92850(18)
C1 C 0.6457(3) 0.5776(2) 0.88428(15)
H1 H 0.6176 0.5081 0.9066
C2 C 0.8464(3) 0.6120(2) 0.99387(16)
C3 C 0.7518(3) 0.6399(2) 0.92018(15)
C4 C 0.6222(3) 0.7257(3) 0.77961(18)
H2 H 0.5771 0.7537 0.7323
C5 C 0.5822(3) 0.6227(2) 0.81321(16)
C6 C 0.7917(3) 0.7424(2) 0.88623(18)
C7 C 0.9465(3) 0.5177(3) 0.96717(17)
H3 H 0.8920 0.4513 0.9518
H4 H 0.9962 0.5428 0.9176
C8 C 0.7289(3) 0.7877(3) 0.8158(2)
H5 H 0.7574 0.8572 0.7937
C9 C 0.7636(4) 0.5761(5) 1.0715(2)
H6 H 0.6922 0.6315 1.0828
H7 H 0.8255 0.5711 1.1186
H8 H 0.7212 0.5031 1.0618
C10 C 0.9161(5) 0.7272(3) 1.0056(3)
H9 H 0.8728 0.7677 1.0518
H10 H 1.0144 0.7171 1.0184
Cl1D Cl 1.55028(9) 0.45502(8) 1.23451(5)
O1D O 1.0997(3) 0.20748(19) 1.07150(18)
C1D C 1.3543(3) 0.4224(2) 1.11572(15)
H1D H 1.3824 0.4919 1.0934
C2D C 1.1536(3) 0.3880(2) 1.00613(16)
C3D C 1.2482(3) 0.3601(2) 1.07982(15)
C4D C 1.3778(3) 0.2743(3) 1.22039(18)
H2D H 1.4229 0.2463 1.2677
C5D C 1.4178(3) 0.3773(2) 1.18679(16)
C6D C 1.2083(3) 0.2576(2) 1.11377(18)
C7D C 1.0535(3) 0.4823(3) 1.03283(17)
H3D H 1.1080 0.5487 1.0482
H4D H 1.0038 0.4572 1.0824
C8D C 1.2711(3) 0.2123(3) 1.1842(2)
H5D H 1.2426 0.1428 1.2063
C9D C 1.2364(4) 0.4239(5) 0.9285(2)
H6D H 1.3078 0.3685 0.9172
H7D H 1.1745 0.4289 0.8814
H8D H 1.2788 0.4969 0.9382
C10D C 1.0839(5) 0.2728(3) 0.9944(3)
H9D H 1.1272 0.2323 0.9482
H10D H 0.9856 0.2829 0.9816
loop_
_geom_bond_atom_site_label_1
_geom_bond_atom_site_label_2
_geom_bond_site_symmetry_1
_geom_bond_site_symmetry_2
Cl1 C5 1_555 1_555
O1 C6 1_555 1_555
C1 H1 1_555 1_555
C2 C3 1_555 1_555
C3 C1 1_555 1_555
C4 H2 1_555 1_555
C5 C1 1_555 1_555
C6 C3 1_555 1_555
C7 C2 1_555 1_555
H3 C7 1_555 1_555
H4 C7 1_555 1_555
C8 C4 1_555 1_555
H5 C8 1_555 1_555
C9 C2 1_555 1_555
H6 C9 1_555 1_555
H7 C9 1_555 1_555
H8 C9 1_555 1_555
C10 O1 1_555 1_555
H9 C10 1_555 1_555
H10 C10 1_555 1_555
Cl1D C5D 1_555 1_555
O1D C6D 1_555 1_555
C1D H1D 1_555 1_555
C2D C3D 1_555 1_555
C3D C1D 1_555 1_555
C4D H2D 1_555 1_555
C5D C1D 1_555 1_555
C6D C3D 1_555 1_555
C7D C7 1_555 1_555
H3D C7D 1_555 1_555
H4D C7D 1_555 1_555
C8D C4D 1_555 1_555
H5D C8D 1_555 1_555
C9D C2D 1_555 1_555
H6D C9D 1_555 1_555
H7D C9D 1_555 1_555
H8D C9D 1_555 1_555
C10D O1D 1_555 1_555
H9D C10D 1_555 1_555
H10D C10D 1_555 1_555
C2 C10 1_555 1_555
C4 C5 1_555 1_555
C6 C8 1_555 1_555
C2D C7D 1_555 1_555
C2D C10D 1_555 1_555
C4D C5D 1_555 1_555
C6D C8D 1_555 1_555

#END
