
#######################################################################
#
#                 Cambridge Crystallographic Data Centre
#                                CCDC 
#
#######################################################################
#
# If this CIF has been generated from an entry in the Cambridge 
# Structural Database, then it will include bibliographic, chemical, 
# crystal, experimental, refinement or atomic coordinate data resulting 
# from the CCDC's data processing and validation procedures.
#
#######################################################################

data_SOZSIJ
_chemical_formula_moiety         'C22 H35 N3 P2'
_chemical_name_systematic        
erythro-t-Butylamino(phenyl)phosphino-isopropylamino(phenyl)phosphino-isopropylamine
_symmetry_cell_setting           orthorhombic
_symmetry_space_group_name_H-M   'P b c a'
_symmetry_Int_Tables_number      61
_space_group_name_Hall           '-P 2ac 2ab'
loop_
_symmetry_equiv_pos_site_id
_symmetry_equiv_pos_as_xyz
1 x,y,z
2 1/2-x,1/2+y,z
3 x,1/2-y,1/2+z
4 1/2-x,-y,1/2+z
5 -x,-y,-z
6 1/2+x,1/2-y,-z
7 -x,1/2+y,1/2-z
8 1/2+x,y,1/2-z
_cell_length_a                   10.689(5)
_cell_length_b                   16.294(7)
_cell_length_c                   26.717(12)
_cell_angle_alpha                90
_cell_angle_beta                 90
_cell_angle_gamma                90
_cell_volume                     4653.21
_chemical_melting_point          90-95deg.C
_cell_formula_units_Z            8
loop_
_atom_site_label
_atom_site_type_symbol
_atom_site_fract_x
_atom_site_fract_y
_atom_site_fract_z
P1 P -0.0678(1) 0.2771(1) 0.3524(1)
P2 P 0.0372(1) 0.4404(1) 0.3798(1)
N1 N 0.0530(3) 0.2595(2) 0.3143(1)
N2 N -0.0173(3) 0.3458(2) 0.3970(1)
N3 N -0.0327(3) 0.5112(2) 0.4155(1)
C1 C -0.1659(3) 0.3463(2) 0.3146(1)
C2 C -0.2731(4) 0.3775(3) 0.3374(2)
C3 C -0.3564(4) 0.4255(3) 0.3107(2)
C4 C -0.3345(5) 0.4434(3) 0.2608(2)
C5 C -0.2285(4) 0.4124(3) 0.2382(2)
C6 C -0.1454(4) 0.3631(2) 0.2645(2)
C7 C 0.1066(4) 0.1797(2) 0.3000(2)
C8 C 0.0293(5) 0.1102(3) 0.3191(3)
C9 C 0.2382(5) 0.1732(3) 0.3204(2)
C10 C 0.1157(7) 0.1750(3) 0.2436(2)
C11 C 0.1940(4) 0.4389(2) 0.4085(1)
C12 C 0.2481(5) 0.5068(3) 0.4310(2)
C13 C 0.3721(5) 0.5057(3) 0.4456(2)
C14 C 0.4429(4) 0.4371(3) 0.4383(2)
C15 C 0.3925(4) 0.3690(3) 0.4158(2)
C16 C 0.2693(4) 0.3697(3) 0.4008(2)
C17 C -0.0214(4) 0.3201(2) 0.4506(2)
C18 C -0.1541(4) 0.3197(3) 0.4705(2)
C19 C 0.0421(5) 0.2376(3) 0.4593(2)
C20 C -0.1234(4) 0.5704(2) 0.3963(2)
C21 C -0.0703(5) 0.6560(3) 0.3956(2)
C22 C -0.2440(5) 0.5677(3) 0.4255(2)
H1 H 0.0898 0.3041 0.3011
H2 H -0.0123 0.5141 0.4481
H3 H -0.2895 0.3655 0.3720
H4 H -0.4289 0.4478 0.3269
H5 H -0.3930 0.4758 0.2420
H6 H -0.2118 0.4245 0.2037
H7 H -0.0727 0.3412 0.2483
H8 H -0.0539 0.1148 0.3060
H9 H 0.0659 0.0596 0.3081
H10 H 0.0265 0.1111 0.3550
H11 H 0.2365 0.1757 0.3562
H12 H 0.2751 0.1224 0.3100
H13 H 0.2867 0.2181 0.3076
H14 H 0.0337 0.1783 0.2292
H15 H 0.1656 0.2198 0.2318
H16 H 0.1540 0.1241 0.2341
H17 H 0.1978 0.5549 0.4358
H18 H 0.4063 0.5536 0.4612
H19 H 0.5285 0.4362 0.4490
H20 H 0.4427 0.3211 0.4101
H21 H 0.2334 0.3224 0.3849
H22 H 0.0240 0.3602 0.4695
H23 H -0.1917 0.3722 0.4645
H24 H -0.2008 0.2781 0.4533
H25 H -0.1541 0.3084 0.5058
H26 H 0.1263 0.2387 0.4471
H27 H 0.0426 0.2261 0.4946
H28 H -0.0041 0.1958 0.4422
H29 H -0.1423 0.5555 0.3624
H30 H 0.0054 0.6569 0.3763
H31 H -0.1293 0.6936 0.3812
H32 H -0.0526 0.6719 0.4294
H33 H -0.2786 0.5134 0.4252
H34 H -0.2262 0.5836 0.4593
H35 H -0.3029 0.6053 0.4111
loop_
_geom_bond_atom_site_label_1
_geom_bond_atom_site_label_2
_geom_bond_site_symmetry_1
_geom_bond_site_symmetry_2
P1 N1 1_555 1_555
P2 N2 1_555 1_555
N1 C7 1_555 1_555
N2 P1 1_555 1_555
N3 P2 1_555 1_555
C1 P1 1_555 1_555
C2 C1 1_555 1_555
C3 C2 1_555 1_555
C4 C3 1_555 1_555
C5 C4 1_555 1_555
C6 C1 1_555 1_555
C7 C8 1_555 1_555
C8 H8 1_555 1_555
C9 C7 1_555 1_555
C10 C7 1_555 1_555
C11 P2 1_555 1_555
C12 C11 1_555 1_555
C13 C12 1_555 1_555
C14 C13 1_555 1_555
C15 C14 1_555 1_555
C16 C11 1_555 1_555
C17 N2 1_555 1_555
C18 C17 1_555 1_555
C19 C17 1_555 1_555
C20 N3 1_555 1_555
C21 C20 1_555 1_555
C22 C20 1_555 1_555
H1 N1 1_555 1_555
H2 N3 1_555 1_555
H3 C2 1_555 1_555
H4 C3 1_555 1_555
H5 C4 1_555 1_555
H6 C5 1_555 1_555
H7 C6 1_555 1_555
H9 C8 1_555 1_555
H10 C8 1_555 1_555
H11 C9 1_555 1_555
H12 C9 1_555 1_555
H13 C9 1_555 1_555
H14 C10 1_555 1_555
H15 C10 1_555 1_555
H16 C10 1_555 1_555
H17 C12 1_555 1_555
H18 C13 1_555 1_555
H19 C14 1_555 1_555
H20 C15 1_555 1_555
H21 C16 1_555 1_555
H22 C17 1_555 1_555
H23 C18 1_555 1_555
H24 C18 1_555 1_555
H25 C18 1_555 1_555
H26 C19 1_555 1_555
H27 C19 1_555 1_555
H28 C19 1_555 1_555
H29 C20 1_555 1_555
H30 C21 1_555 1_555
H31 C21 1_555 1_555
H32 C21 1_555 1_555
H33 C22 1_555 1_555
H34 C22 1_555 1_555
H35 C22 1_555 1_555
C5 C6 1_555 1_555
C15 C16 1_555 1_555

#END
