
#######################################################################
#
#                 Cambridge Crystallographic Data Centre
#                                CCDC 
#
#######################################################################
#
# If this CIF has been generated from an entry in the Cambridge 
# Structural Database, then it will include bibliographic, chemical, 
# crystal, experimental, refinement or atomic coordinate data resulting 
# from the CCDC's data processing and validation procedures.
#
#######################################################################

data_SOZZIS
_chemical_formula_moiety         'C190 H238 N8 O34 Si17'
_chemical_name_systematic        
bis(heptakis(Cyclopentyl)octasilsesquioxanolato)-(2,3:9,10:16,17:23,24-tetrakis(9,10-dihydroanthracene-9,10-diyl)-1,4,8,11,15,18,22,25-octakis(isobutoxy)phthalocyaninato)-silicon
_symmetry_cell_setting           monoclinic
_symmetry_space_group_name_H-M   'P 21/c'
_symmetry_Int_Tables_number      14
_space_group_name_Hall           '-P 2ybc'
loop_
_symmetry_equiv_pos_site_id
_symmetry_equiv_pos_as_xyz
1 x,y,z
2 -x,1/2+y,1/2-z
3 -x,-y,-z
4 x,1/2-y,1/2+z
_cell_length_a                   32.2982(16)
_cell_length_b                   18.0406(9)
_cell_length_c                   32.3271(16)
_cell_angle_alpha                90
_cell_angle_beta                 97.471(3)
_cell_angle_gamma                90
_cell_volume                     18676.4
_exptl_crystal_colour            'light green'
_exptl_crystal_description       block
_cell_formula_units_Z            4
loop_
_atom_site_label
_atom_site_type_symbol
_atom_site_fract_x
_atom_site_fract_y
_atom_site_fract_z
Si1 Si 0.25017(7) 0.01383(13) 0.24767(8)
C1 C 0.5138(3) 0.1333(5) 0.1602(3)
H1 H 0.5060 0.1779 0.1456
C2 C 0.5501(2) 0.1294(5) 0.1881(3)
H2 H 0.5676 0.1719 0.1921
C3 C 0.5615(3) 0.0671(5) 0.2098(3)
H3 H 0.5860 0.0669 0.2296
C4 C 0.5375(2) 0.0033(5) 0.2034(2)
H4 H 0.5454 -0.0410 0.2184
C5 C 0.5014(2) 0.0058(5) 0.1744(3)
C6 C 0.47079(19) -0.0570(4) 0.1655(2)
H5 H 0.4796 -0.1031 0.1813
C7 C 0.4282(2) -0.0258(4) 0.1755(2)
C8 C 0.4041(2) -0.0551(4) 0.2030(2)
C9 C 0.36534(19) -0.0211(4) 0.2059(2)
C10 C 0.3298(2) -0.0428(4) 0.2265(2)
N1 N 0.32707(16) -0.1083(3) 0.2430(2)
C11 C 0.2901(2) -0.2033(4) 0.2778(2)
C12 C 0.2938(2) -0.1304(4) 0.2598(2)
C13 C 0.3169(2) -0.2640(4) 0.2821(2)
C14 C 0.3062(2) -0.3211(4) 0.3075(2)
C15 C 0.3332(2) -0.3886(4) 0.3197(2)
H6 H 0.3597 -0.3894 0.3067
C16 C 0.3062(2) -0.4547(4) 0.3091(3)
C17 C 0.3126(3) -0.5135(5) 0.2834(3)
H7 H 0.3373 -0.5143 0.2703
C18 C 0.2845(3) -0.5713(5) 0.2760(3)
H8 H 0.2901 -0.6118 0.2588
C19 C 0.2480(3) -0.5690(5) 0.2943(3)
H9 H 0.2279 -0.6075 0.2890
C20 C 0.2409(2) -0.5104(5) 0.3203(3)
H10 H 0.2163 -0.5094 0.3334
C21 C 0.2693(2) -0.4542(4) 0.3271(2)
C22 C 0.2655(2) -0.3872(4) 0.3551(3)
H11 H 0.2391 -0.3868 0.3683
C23 C 0.2698(2) -0.3199(4) 0.3268(3)
C24 C 0.2421(2) -0.2606(4) 0.3200(2)
C25 C 0.2534(2) -0.2026(4) 0.2963(2)
C26 C 0.2349(2) -0.1283(4) 0.2877(2)
N2 N 0.20044(17) -0.1080(3) 0.30369(19)
C27 C 0.1851(2) -0.0415(5) 0.2956(2)
C28 C 0.1459(2) -0.0144(4) 0.3101(2)
C29 C 0.1216(2) -0.0447(4) 0.3398(2)
C30 C 0.0841(2) -0.0059(4) 0.3434(2)
C31 C 0.0532(2) -0.0273(5) 0.3732(3)
H12 H 0.0622 -0.0716 0.3907
C32 C 0.0114(2) -0.0385(5) 0.3454(3)
C33 C -0.0122(2) -0.1018(4) 0.3421(3)
H13 H -0.0038 -0.1438 0.3588
C34 C -0.0490(3) -0.1041(5) 0.3137(3)
H14 H -0.0651 -0.1482 0.3099
C35 C -0.0610(2) -0.0420(5) 0.2920(3)
H15 H -0.0868 -0.0429 0.2741
C36 C -0.0379(2) 0.0228(4) 0.2943(3)
H16 H -0.0471 0.0653 0.2783
C37 C -0.0003(2) 0.0230(4) 0.3213(3)
C38 C 0.0304(2) 0.0872(4) 0.3282(2)
H17 H 0.0217 0.1320 0.3109
C39 C 0.0718(2) 0.0541(4) 0.3196(3)
C40 C 0.0961(2) 0.0836(4) 0.2904(3)
C41 C 0.1344(2) 0.0485(4) 0.2886(2)
C42 C 0.1700(2) 0.0696(5) 0.2676(2)
N3 N 0.17319(16) 0.1353(3) 0.25148(19)
C43 C 0.2070(2) 0.1573(4) 0.2363(2)
C44 C 0.2102(2) 0.2303(4) 0.2204(2)
C45 C 0.1842(2) 0.2934(4) 0.2146(3)
C46 C 0.1937(2) 0.3513(4) 0.1891(2)
C47 C 0.1666(2) 0.4176(4) 0.1765(2)
H18 H 0.1406 0.4188 0.1902
C48 C 0.1581(3) 0.4122(4) 0.1299(3)
C49 C 0.1189(3) 0.4092(4) 0.1056(3)
H19 H 0.0941 0.4112 0.1184
C50 C 0.1169(3) 0.4034(5) 0.0631(3)
H20 H 0.0905 0.4012 0.0463
C51 C 0.1538(4) 0.4006(5) 0.0440(3)
H21 H 0.1522 0.3952 0.0146
C52 C 0.1928(3) 0.4056(4) 0.0682(3)
H22 H 0.2178 0.4052 0.0556
C53 C 0.1942(3) 0.4111(4) 0.1108(3)
C54 C 0.2337(2) 0.4130(4) 0.1429(3)
H23 H 0.2599 0.4117 0.1294
C55 C 0.2305(2) 0.3486(4) 0.1709(2)
C56 C 0.2583(2) 0.2907(4) 0.1768(2)
C57 C 0.2487(2) 0.2316(4) 0.2001(2)
C58 C 0.2654(2) 0.1577(4) 0.2081(2)
N4 N 0.29948(17) 0.1366(3) 0.19296(17)
C59 C 0.3156(2) 0.0696(4) 0.1994(2)
C60 C 0.3543(2) 0.0461(4) 0.1846(2)
C61 C 0.3796(2) 0.0751(4) 0.1572(2)
C62 C 0.4160(2) 0.0378(4) 0.1522(2)
C63 C 0.4478(2) 0.0614(4) 0.1241(2)
H24 H 0.4395 0.1074 0.1079
C64 C 0.4893(2) 0.0700(5) 0.1540(2)
N5 N 0.30127(15) 0.0146(3) 0.22368(18)
N6 N 0.24116(16) 0.1142(3) 0.23145(18)
N7 N 0.19908(16) 0.0139(3) 0.27194(18)
N8 N 0.25949(17) -0.0860(3) 0.2642(2)
C65 C 0.4536(2) -0.0048(5) 0.0967(3)
C66 C 0.4643(3) -0.0682(5) 0.1193(3)
C67 C 0.4692(2) -0.1347(5) 0.0994(3)
H25 H 0.4767 -0.1786 0.1147
C68 C 0.4626(3) -0.1352(6) 0.0551(4)
H26 H 0.4644 -0.1804 0.0404
C69 C 0.4537(3) -0.0695(7) 0.0332(4)
H27 H 0.4503 -0.0698 0.0035
C70 C 0.4497(2) -0.0047(6) 0.0541(3)
H28 H 0.4442 0.0403 0.0391
C71 C 0.2307(2) 0.4819(4) 0.1683(3)
C72 C 0.1941(2) 0.4837(4) 0.1868(2)
C73 C 0.1856(2) 0.5414(5) 0.2125(3)
H29 H 0.1609 0.5416 0.2255
C74 C 0.2144(3) 0.5998(5) 0.2188(3)
H30 H 0.2095 0.6401 0.2364
C75 C 0.2498(3) 0.5983(5) 0.1994(3)
H31 H 0.2689 0.6386 0.2032
C76 C 0.2581(2) 0.5396(5) 0.1745(3)
H32 H 0.2829 0.5393 0.1617
C77 C 0.0361(2) 0.1016(6) 0.3738(3)
C78 C 0.0478(2) 0.0423(6) 0.3990(3)
C79 C 0.0523(3) 0.0494(6) 0.4420(3)
H33 H 0.0589 0.0079 0.4596
C80 C 0.0467(3) 0.1206(7) 0.4587(3)
H34 H 0.0492 0.1268 0.4881
C81 C 0.0378(3) 0.1811(7) 0.4331(3)
H35 H 0.0359 0.2291 0.4449
C82 C 0.0317(2) 0.1720(6) 0.3912(3)
H36 H 0.0245 0.2133 0.3735
C83 C 0.3040(2) -0.3858(4) 0.3860(3)
C84 C 0.3405(3) -0.3859(4) 0.3679(3)
C85 C 0.3788(3) -0.3839(5) 0.3920(3)
H37 H 0.4037 -0.3850 0.3792
C86 C 0.3809(3) -0.3802(5) 0.4349(3)
H38 H 0.4072 -0.3760 0.4517
C87 C 0.3452(3) -0.3827(6) 0.4534(3)
H39 H 0.3468 -0.3833 0.4829
C88 C 0.3061(3) -0.3842(4) 0.4289(3)
H40 H 0.2813 -0.3841 0.4417
O1 O 0.41792(14) -0.1183(3) 0.22416(16)
C89 C 0.4195(2) -0.1168(4) 0.2683(2)
H41 H 0.4090 -0.1643 0.2782
H42 H 0.4015 -0.0764 0.2766
C90 C 0.4634(4) -0.1046(10) 0.2873(5)
H43 H 0.4820 -0.1349 0.2715
C91 C 0.4769(5) -0.0257(9) 0.2862(5)
H44 H 0.4706 -0.0066 0.2577
H45 H 0.5071 -0.0224 0.2951
H46 H 0.4620 0.0037 0.3050
C92 C 0.4694(6) -0.1299(12) 0.3318(5)
H47 H 0.4993 -0.1324 0.3419
H48 H 0.4569 -0.1790 0.3337
H49 H 0.4559 -0.0947 0.3489
O2 O 0.35302(13) -0.2728(2) 0.26368(15)
C93 C 0.3514(2) -0.2590(4) 0.2189(2)
H50 H 0.3585 -0.2067 0.2138
H51 H 0.3230 -0.2690 0.2044
C94 C 0.3828(2) -0.3105(4) 0.2029(2)
H52 H 0.4081 -0.3120 0.2243
C95 C 0.3959(3) -0.2768(5) 0.1632(3)
H53 H 0.4189 -0.3056 0.1544
H54 H 0.4050 -0.2254 0.1686
H55 H 0.3721 -0.2776 0.1410
C96 C 0.3674(3) -0.3875(4) 0.1963(3)
H56 H 0.3537 -0.4031 0.2202
H57 H 0.3909 -0.4205 0.1934
H58 H 0.3472 -0.3897 0.1708
O3 O 0.20647(14) -0.2611(3) 0.33938(16)
C97 C 0.1672(2) -0.2694(4) 0.3121(2)
H59 H 0.1716 -0.2577 0.2830
H60 H 0.1465 -0.2339 0.3205
C98 C 0.1508(2) -0.3460(4) 0.3140(2)
H61 H 0.1731 -0.3809 0.3076
C99 C 0.1413(3) -0.3627(5) 0.3578(3)
H62 H 0.1341 -0.4152 0.3598
H63 H 0.1177 -0.3322 0.3639
H64 H 0.1659 -0.3514 0.3779
C100 C 0.1133(2) -0.3572(4) 0.2814(3)
H65 H 0.1210 -0.3460 0.2537
H66 H 0.0907 -0.3240 0.2872
H67 H 0.1039 -0.4087 0.2821
O4 O 0.13002(14) -0.1073(3) 0.36334(16)
C101 C 0.1713(2) -0.1143(4) 0.3875(2)
H68 H 0.1846 -0.0650 0.3918
H69 H 0.1894 -0.1461 0.3725
C102 C 0.1658(2) -0.1478(5) 0.4280(3)
H70 H 0.1442 -0.1877 0.4229
C103 C 0.2060(3) -0.1829(5) 0.4483(3)
H71 H 0.2164 -0.2175 0.4286
H72 H 0.2007 -0.2098 0.4734
H73 H 0.2269 -0.1441 0.4558
C104 C 0.1502(3) -0.0908(6) 0.4561(3)
H74 H 0.1292 -0.0595 0.4399
H75 H 0.1736 -0.0599 0.4684
H76 H 0.1377 -0.1157 0.4784
O5 O 0.08159(14) 0.1442(3) 0.26781(17)
C105 C 0.0810(2) 0.1405(5) 0.2236(3)
H77 H 0.0790 0.0878 0.2150
H78 H 0.1078 0.1601 0.2164
C106 C 0.0459(4) 0.1825(12) 0.1992(6)
H79 H 0.0444 0.2327 0.2120
C107 C 0.0058(4) 0.1423(15) 0.2034(7)
H80 H 0.0024 0.1382 0.2330
H81 H 0.0067 0.0926 0.1913
H82 H -0.0177 0.1699 0.1887
C108 C 0.0525(8) 0.192(2) 0.1543(6)
H83 H 0.0780 0.2214 0.1529
H84 H 0.0286 0.2186 0.1393
H85 H 0.0554 0.1438 0.1415
O6 O 0.14772(14) 0.3003(3) 0.23338(16)
C109 C 0.1481(2) 0.2866(4) 0.2775(2)
H86 H 0.1763 0.2967 0.2923
H87 H 0.1413 0.2339 0.2820
C110 C 0.1169(2) 0.3351(4) 0.2944(3)
H88 H 0.0911 0.3366 0.2737
C111 C 0.1059(3) 0.3024(5) 0.3342(3)
H89 H 0.0853 0.3341 0.3453
H90 H 0.1310 0.2989 0.3546
H91 H 0.0940 0.2528 0.3286
C112 C 0.1324(3) 0.4118(4) 0.3016(3)
H92 H 0.1092 0.4442 0.3066
H93 H 0.1443 0.4292 0.2769
H94 H 0.1539 0.4129 0.3259
O7 O 0.29448(14) 0.2911(3) 0.15794(16)
C113 C 0.3335(2) 0.2976(4) 0.1854(2)
H95 H 0.3534 0.2600 0.1777
H96 H 0.3285 0.2880 0.2145
C114 C 0.3518(3) 0.3734(4) 0.1824(3)
H97 H 0.3300 0.4105 0.1877
C115 C 0.3625(3) 0.3861(5) 0.1389(3)
H98 H 0.3382 0.3742 0.1185
H99 H 0.3860 0.3543 0.1341
H100 H 0.3702 0.4382 0.1358
C116 C 0.3889(3) 0.3832(4) 0.2159(3)
H101 H 0.3997 0.4339 0.2147
H102 H 0.4109 0.3479 0.2111
H103 H 0.3803 0.3742 0.2434
O8 O 0.37085(14) 0.1396(3) 0.13518(16)
C117 C 0.3306(2) 0.1457(4) 0.1085(2)
H104 H 0.3123 0.1806 0.1213
H105 H 0.3168 0.0967 0.1063
C118 C 0.3364(3) 0.1721(6) 0.0668(3)
H106 H 0.3580 0.2122 0.0693
C119 C 0.2968(3) 0.2009(6) 0.0426(3)
H107 H 0.2857 0.2412 0.0582
H108 H 0.2763 0.1607 0.0384
H109 H 0.3027 0.2194 0.0155
C120 C 0.3506(4) 0.1100(8) 0.0420(4)
H110 H 0.3802 0.1000 0.0512
H111 H 0.3469 0.1234 0.0124
H112 H 0.3341 0.0656 0.0461
O9 O 0.22426(13) -0.0132(3) 0.20217(15)
Si2 Si 0.19326(6) -0.05112(12) 0.16721(7)
Si3 Si 0.22428(6) -0.15633(13) 0.10195(8)
Si4 Si 0.14402(7) 0.04528(13) 0.09549(8)
Si5 Si 0.11647(6) -0.14591(13) 0.17055(8)
Si6 Si 0.17610(7) -0.05957(16) 0.03118(8)
Si7 Si 0.06676(7) -0.05344(15) 0.09855(8)
Si8 Si 0.14636(7) -0.25452(14) 0.10494(9)
Si9 Si 0.09714(8) -0.15920(16) 0.03364(9)
O10 O 0.21791(15) -0.1103(3) 0.14312(17)
O11 O 0.17138(14) 0.0097(3) 0.13559(16)
O12 O 0.15631(13) -0.0948(3) 0.18754(15)
O13 O 0.21046(15) -0.1053(3) 0.06128(17)
O14 O 0.16194(15) 0.0145(3) 0.05443(18)
O15 O 0.09582(14) 0.0191(3) 0.09456(16)
O16 O 0.08294(15) -0.0981(3) 0.14017(18)
O17 O 0.13144(15) -0.2126(3) 0.14514(19)
O18 O 0.19454(14) -0.2275(3) 0.09949(17)
O19 O 0.13616(18) -0.1118(3) 0.01888(18)
O20 O 0.06946(15) -0.1058(3) 0.06029(19)
O21 O 0.11641(18) -0.2269(3) 0.0634(2)
C121 C 0.2795(2) -0.1845(5) 0.1023(3)
H113 H 0.2864 -0.2237 0.1240
C122 C 0.3108(4) -0.1213(6) 0.1108(4)
H114 H 0.3227 -0.1208 0.1406
H115 H 0.2969 -0.0731 0.1039
C123 C 0.3453(4) -0.1341(8) 0.0833(5)
H116 H 0.3468 -0.0919 0.0640
H117 H 0.3727 -0.1395 0.1007
C124 C 0.3337(4) -0.2052(8) 0.0590(5)
H118 H 0.3400 -0.2005 0.0300
H119 H 0.3496 -0.2478 0.0723
C125 C 0.2873(3) -0.2159(10) 0.0597(4)
H120 H 0.2798 -0.2691 0.0574
H121 H 0.2710 -0.1885 0.0366
C126 C 0.1462(2) 0.1467(5) 0.0990(3)
H122 H 0.1436 0.1594 0.1286
C127 C 0.1113(3) 0.1885(5) 0.0724(3)
H123 H 0.0847 0.1605 0.0693
H124 H 0.1069 0.2384 0.0838
C128 C 0.1298(3) 0.1921(6) 0.0325(3)
H125 H 0.1190 0.2361 0.0163
H126 H 0.1220 0.1473 0.0156
C129 C 0.1780(3) 0.1970(5) 0.0425(3)
H127 H 0.1916 0.1596 0.0264
H128 H 0.1879 0.2469 0.0357
C130 C 0.1876(3) 0.1820(5) 0.0894(3)
H129 H 0.1938 0.2284 0.1053
H130 H 0.2113 0.1472 0.0956
C131 C 0.0894(2) -0.1789(4) 0.2134(3)
H131 H 0.1099 -0.2063 0.2337
C132 C 0.0517(3) -0.2305(6) 0.2000(4)
H132 H 0.0427 -0.2269 0.1696
H133 H 0.0588 -0.2827 0.2072
C133 C 0.0179(3) -0.2023(6) 0.2245(4)
H134 H -0.0102 -0.2131 0.2094
H135 H 0.0203 -0.2259 0.2523
C134 C 0.0248(3) -0.1201(6) 0.2285(5)
H136 H 0.0116 -0.0997 0.2521
H137 H 0.0134 -0.0940 0.2026
C135 C 0.0720(3) -0.1129(7) 0.2365(4)
H138 H 0.0819 -0.1153 0.2668
H139 H 0.0811 -0.0652 0.2255
C136 C 0.1981(2) -0.0342(5) -0.0171(3)
H140 H 0.2047 -0.0813 -0.0313
C137 C 0.1690(3) 0.0105(6) -0.0479(3)
H141 H 0.1478 -0.0220 -0.0635
H142 H 0.1545 0.0488 -0.0332
C138 C 0.1957(3) 0.0461(7) -0.0769(3)
H143 H 0.1843 0.0951 -0.0863
H144 H 0.1971 0.0145 -0.1017
C139 C 0.2385(3) 0.0544(5) -0.0522(3)
H145 H 0.2450 0.1074 -0.0468
H146 H 0.2601 0.0332 -0.0679
C140 C 0.2379(3) 0.0134(5) -0.0115(3)
H147 H 0.2373 0.0488 0.0118
H148 H 0.2630 -0.0183 -0.0055
C141 C 0.0112(2) -0.0288(5) 0.0984(3)
H149 H 0.0091 0.0092 0.1206
C142 C -0.0194(4) -0.0922(9) 0.1041(7)
H150 H -0.0096 -0.1392 0.0929
H151 H -0.0221 -0.0993 0.1340
C143 C -0.0607(4) -0.0696(13) 0.0804(5)
H152 H -0.0754 -0.0331 0.0962
H153 H -0.0791 -0.1129 0.0733
C144 C -0.0464(4) -0.0349(13) 0.0415(5)
H154 H -0.0421 -0.0737 0.0208
H155 H -0.0675 0.0007 0.0284
C145 C -0.0054(4) 0.0046(10) 0.0564(5)
H156 H 0.0148 -0.0029 0.0362
H157 H -0.0102 0.0584 0.0592
C146 C 0.1444(3) -0.3547(5) 0.1128(3)
H158 H 0.1695 -0.3697 0.1324
C147 C 0.1446(2) -0.3974(5) 0.0722(3)
H159 H 0.1569 -0.4473 0.0774
H160 H 0.1605 -0.3704 0.0527
C148 C 0.0981(2) -0.4027(5) 0.0546(3)
H161 H 0.0900 -0.3617 0.0348
H162 H 0.0920 -0.4505 0.0400
C149 C 0.0754(3) -0.3969(6) 0.0928(3)
H163 H 0.0550 -0.3557 0.0890
H164 H 0.0598 -0.4434 0.0961
C150 C 0.1051(3) -0.3838(5) 0.1299(3)
H165 H 0.1112 -0.4302 0.1458
H166 H 0.0942 -0.3466 0.1483
C151 C 0.0632(3) -0.1901(5) -0.0129(3)
H167 H 0.0521 -0.1446 -0.0281
C152 C 0.0881(5) -0.2308(11) -0.0410(6)
H168 H 0.1069 -0.2671 -0.0253
H169 H 0.1049 -0.1961 -0.0557
C153 C 0.0552(6) -0.2701(12) -0.0719(5)
H170 H 0.0437 -0.2364 -0.0948
H171 H 0.0670 -0.3146 -0.0840
C154 C 0.0224(6) -0.2908(10) -0.0449(6)
H172 H 0.0265 -0.3426 -0.0352
H173 H -0.0058 -0.2864 -0.0610
C155 C 0.0263(7) -0.2384(14) -0.0077(7)
H174 H 0.0007 -0.2082 -0.0078
H175 H 0.0312 -0.2665 0.0188
O22 O 0.27588(13) 0.0415(2) 0.29394(15)
Si10 Si 0.30722(6) 0.07688(14) 0.32946(8)
Si11 Si 0.27478(7) 0.17788(15) 0.39652(9)
Si12 Si 0.35686(7) -0.02117(14) 0.39909(7)
Si13 Si 0.38277(6) 0.17617(14) 0.32848(8)
Si14 Si 0.32323(8) 0.08056(17) 0.46580(9)
Si15 Si 0.43303(7) 0.08221(14) 0.39924(8)
Si16 Si 0.35004(8) 0.28011(16) 0.39435(11)
Si17 Si 0.39917(8) 0.18680(18) 0.46509(9)
O23 O 0.28205(14) 0.1328(3) 0.35670(19)
O24 O 0.32879(14) 0.0134(3) 0.35915(16)
O25 O 0.34429(13) 0.1226(3) 0.31066(17)
O26 O 0.28730(15) 0.1261(3) 0.4348(2)
O27 O 0.33919(15) 0.0091(3) 0.44148(16)
O28 O 0.40537(14) 0.0075(3) 0.39994(15)
O29 O 0.41623(15) 0.1285(3) 0.35760(16)
O30 O 0.36584(15) 0.2410(3) 0.3557(2)
O31 O 0.30320(15) 0.2513(3) 0.40038(18)
O32 O 0.36288(18) 0.1333(4) 0.4800(2)
O33 O 0.42760(15) 0.1311(3) 0.44120(17)
O34 O 0.3783(2) 0.2518(3) 0.4317(2)
C156 C 0.2173(6) 0.1990(14) 0.4006(9)
H176 H 0.2074 0.2395 0.3806
C157 C 0.2056(6) 0.2173(15) 0.4429(8)
H177 H 0.2235 0.1893 0.4648
H178 H 0.2095 0.2709 0.4487
C158 C 0.1606(6) 0.1962(16) 0.4427(8)
H179 H 0.1425 0.2404 0.4381
H180 H 0.1562 0.1734 0.4696
C159 C 0.1506(6) 0.1413(14) 0.4075(8)
H181 H 0.1289 0.1614 0.3859
H182 H 0.1404 0.0940 0.4180
C160 C 0.1914(7) 0.1295(14) 0.3895(9)
H183 H 0.1861 0.1229 0.3589
H184 H 0.2061 0.0850 0.4020
C161 C 0.3568(2) -0.1197(4) 0.3959(3)
H185 H 0.3604 -0.1320 0.3664
C162 C 0.3164(2) -0.1584(5) 0.4045(3)
H186 H 0.3112 -0.2036 0.3873
H187 H 0.2921 -0.1248 0.3986
C163 C 0.3242(2) -0.1782(5) 0.4514(3)
H188 H 0.3109 -0.1415 0.4683
H189 H 0.3130 -0.2281 0.4565
C164 C 0.3716(3) -0.1765(6) 0.4620(3)
H190 H 0.3798 -0.1368 0.4825
H191 H 0.3816 -0.2244 0.4744
C165 C 0.3906(3) -0.1626(6) 0.4233(3)
H192 H 0.3971 -0.2098 0.4099
H193 H 0.4164 -0.1330 0.4293
C166 C 0.4084(2) 0.2133(4) 0.2861(3)
H194 H 0.3877 0.2417 0.2666
C167 C 0.4256(4) 0.1471(9) 0.2621(6)
H195 H 0.4147 0.0995 0.2714
H196 H 0.4169 0.1523 0.2317
C168 C 0.4734(4) 0.1490(7) 0.2717(5)
H197 H 0.4832 0.1231 0.2981
H198 H 0.4867 0.1263 0.2488
C169 C 0.4824(3) 0.2316(7) 0.2751(5)
H199 H 0.4814 0.2545 0.2471
H200 H 0.5102 0.2411 0.2911
C170 C 0.4477(4) 0.2614(10) 0.2980(7)
H201 H 0.4416 0.3137 0.2900
H202 H 0.4563 0.2593 0.3285
C171 C 0.3018(2) 0.0445(5) 0.5121(3)
H203 H 0.2948 0.0874 0.5295
C172 C 0.2628(4) -0.0042(8) 0.5023(4)
H204 H 0.2372 0.0267 0.4992
H205 H 0.2638 -0.0319 0.4760
C173 C 0.2626(5) -0.0579(6) 0.5388(4)
H206 H 0.2389 -0.0469 0.5544
H207 H 0.2599 -0.1096 0.5285
C174 C 0.3036(6) -0.0474(7) 0.5665(4)
H208 H 0.3157 -0.0959 0.5759
H209 H 0.2996 -0.0173 0.5912
C175 C 0.3316(4) -0.0074(10) 0.5393(4)
H210 H 0.3450 -0.0430 0.5218
H211 H 0.3537 0.0211 0.5566
C176 C 0.4889(2) 0.0586(4) 0.4012(2)
H212 H 0.4919 0.0264 0.3766
C177 C 0.5049(8) 0.0152(16) 0.4402(9)
H213 H 0.5097 -0.0371 0.4330
H214 H 0.4840 0.0165 0.4601
C178 C 0.5454(6) 0.0506(15) 0.4596(6)
H215 H 0.5661 0.0124 0.4704
H216 H 0.5406 0.0842 0.4827
C179 C 0.5603(5) 0.0938(15) 0.4236(6)
H217 H 0.5795 0.1344 0.4340
H218 H 0.5745 0.0609 0.4054
C180 C 0.5197(7) 0.1242(11) 0.4005(11)
H219 H 0.5231 0.1382 0.3715
H220 H 0.5099 0.1680 0.4150
C181 C 0.3493(2) 0.3857(5) 0.3846(3)
H221 H 0.3239 0.4016 0.3657
C182 C 0.3900(3) 0.4109(9) 0.3684(4)
H222 H 0.4001 0.3721 0.3505
H223 H 0.3852 0.4570 0.3519
C183 C 0.4216(3) 0.4241(7) 0.4062(4)
H224 H 0.4367 0.4711 0.4031
H225 H 0.4421 0.3831 0.4096
C184 C 0.3973(3) 0.4282(6) 0.4441(3)
H226 H 0.4058 0.3872 0.4638
H227 H 0.4028 0.4759 0.4589
C185 C 0.3518(3) 0.4216(6) 0.4269(3)
H228 H 0.3370 0.3909 0.4457
H229 H 0.3386 0.4712 0.4245
C186 C 0.4299(2) 0.2245(5) 0.5106(3)
H230 H 0.4115 0.2563 0.5258
C187 C 0.4500(5) 0.1668(7) 0.5403(5)
H231 H 0.4635 0.1278 0.5251
H232 H 0.4293 0.1436 0.5562
C188 C 0.4824(5) 0.2102(9) 0.5690(4)
H233 H 0.5047 0.1769 0.5821
H234 H 0.4693 0.2351 0.5913
C189 C 0.5001(5) 0.2672(11) 0.5412(5)
H235 H 0.5277 0.2512 0.5341
H236 H 0.5031 0.3161 0.5550
C190 C 0.4676(4) 0.2704(11) 0.5018(5)
H237 H 0.4592 0.3224 0.4954
H238 H 0.4796 0.2498 0.4775
H239? H 0.3928 -0.1378 0.2750
H240? H 0.4200 -0.0641 0.2768
C191? C 0.4534(5) -0.1545(12) 0.2950(6)
H241? H 0.4563 -0.2057 0.2839
C192? C 0.4927(5) -0.1132(14) 0.2909(7)
H242? H 0.5075 -0.1376 0.2701
H243? H 0.5105 -0.1126 0.3179
H244? H 0.4859 -0.0622 0.2820
C193? C 0.4461(7) -0.1606(17) 0.3395(6)
H245? H 0.4306 -0.2062 0.3433
H246? H 0.4300 -0.1177 0.3469
H247? H 0.4730 -0.1620 0.3574
H248? H 0.0912 0.0914 0.2158
H249? H 0.0996 0.1790 0.2144
C194? C 0.0371(5) 0.1524(15) 0.2026(8)
H250? H 0.0236 0.1950 0.2154
C195? C 0.0141(7) 0.0821(19) 0.2078(9)
H251? H 0.0193 0.0662 0.2370
H252? H 0.0238 0.0436 0.1900
H253? H -0.0159 0.0902 0.2000
C196? C 0.0403(10) 0.167(3) 0.1568(8)
H254? H 0.0124 0.1761 0.1419
H255? H 0.0528 0.1241 0.1447
H256? H 0.0579 0.2109 0.1544
H257? H 0.2883 -0.1981 0.1321
C197? C 0.3026(15) -0.1124(14) 0.0976(19)
H258? H 0.2828 -0.0719 0.0886
H259? H 0.3193 -0.0982 0.1243
C198? C 0.3307(17) -0.128(2) 0.065(2)
H260? H 0.3569 -0.0993 0.0699
H261? H 0.3164 -0.1157 0.0365
C199? C 0.3399(14) -0.211(3) 0.068(2)
H262? H 0.3468 -0.2310 0.0411
H263? H 0.3633 -0.2214 0.0900
C200? C 0.2994(15) -0.2446(17) 0.079(2)
H264? H 0.2808 -0.2587 0.0532
H265? H 0.3051 -0.2892 0.0965
H266? H 0.1764 0.1562 0.1088
C201? C 0.143(3) 0.162(5) 0.0526(7)
H267? H 0.1416 0.1153 0.0364
H268? H 0.1673 0.1913 0.0460
C202? C 0.103(3) 0.206(5) 0.0434(17)
H269? H 0.0785 0.1725 0.0380
H270? H 0.1036 0.2384 0.0187
C203? C 0.100(3) 0.252(3) 0.082(2)
H271? H 0.1127 0.3017 0.0793
H272? H 0.0710 0.2583 0.0872
C204? C 0.125(2) 0.210(3) 0.1182(14)
H273? H 0.1458 0.2431 0.1341
H274? H 0.1058 0.1913 0.1375
H275? H 0.1061 -0.2216 0.2264
C205? C 0.0489(7) -0.212(3) 0.1913(12)
H276? H 0.0442 -0.1952 0.1619
H277? H 0.0499 -0.2664 0.1920
C206? C 0.0144(6) -0.183(3) 0.2147(13)
H278? H -0.0052 -0.2239 0.2191
H279? H -0.0014 -0.1432 0.1988
C207? C 0.0355(10) -0.155(3) 0.2561(12)
H280? H 0.0198 -0.1118 0.2654
H281? H 0.0368 -0.1938 0.2776
C208? C 0.0790(10) -0.131(3) 0.2491(13)
H282? H 0.0991 -0.1397 0.2745
H283? H 0.0795 -0.0778 0.2417
H284? H 0.2050 -0.0765 -0.0350
C209? C 0.1656(13) 0.020(3) -0.037(3)
H285? H 0.1475 0.0378 -0.0169
H286? H 0.1479 -0.0032 -0.0611
C210? C 0.192(3) 0.083(3) -0.052(3)
H287? H 0.1754 0.1294 -0.0549
H288? H 0.2016 0.0704 -0.0786
C211? C 0.228(2) 0.090(2) -0.017(3)
H289? H 0.2535 0.1068 -0.0282
H290? H 0.2214 0.1253 0.0045
C212? C 0.2349(19) 0.013(3) 0.002(3)
H291? H 0.2360 0.0148 0.0324
H292? H 0.2614 -0.0084 -0.0052
H293? H 0.0087 -0.0065 0.1264
C213? C -0.0122(8) -0.1027(12) 0.0968(13)
H294? H 0.0054 -0.1429 0.0878
H295? H -0.0198 -0.1153 0.1247
C214? C -0.0511(7) -0.0935(12) 0.0658(12)
H296? H -0.0757 -0.1146 0.0770
H297? H -0.0479 -0.1186 0.0392
C215? C -0.0559(6) -0.0103(13) 0.0596(13)
H298? H -0.0732 0.0109 0.0798
H299? H -0.0694 0.0008 0.0310
C216? C -0.0120(7) 0.0217(15) 0.0665(11)
H300? H 0.0008 0.0214 0.0403
H301? H -0.0123 0.0732 0.0771
H302? H 0.0444 -0.1459 -0.0161
C217? C 0.0754(9) -0.190(2) -0.0562(5)
H303? H 0.1034 -0.2121 -0.0562
H304? H 0.0762 -0.1383 -0.0668
C218? C 0.0427(9) -0.2348(18) -0.0834(6)
H305? H 0.0276 -0.2031 -0.1054
H306? H 0.0560 -0.2761 -0.0968
C219? C 0.0127(9) -0.2645(19) -0.0550(9)
H307? H -0.0150 -0.2410 -0.0619
H308? H 0.0093 -0.3188 -0.0589
C220? C 0.0302(13) -0.248(2) -0.0104(8)
H309? H 0.0080 -0.2282 0.0052
H310? H 0.0423 -0.2926 0.0038
C221? C 0.2212(10) 0.197(2) 0.3885(13)
H311? H 0.2177 0.2325 0.3647
C222? C 0.2068(8) 0.2384(19) 0.4240(13)
H312? H 0.2053 0.2921 0.4175
H313? H 0.2267 0.2311 0.4496
C223? C 0.1642(9) 0.2097(19) 0.4303(12)
H314? H 0.1419 0.2409 0.4154
H315? H 0.1609 0.2088 0.4603
C224? C 0.1626(12) 0.1320(18) 0.4125(12)
H316? H 0.1336 0.1170 0.4025
H317? H 0.1751 0.0957 0.4335
C225? C 0.1883(12) 0.138(2) 0.3764(11)
H318? H 0.2017 0.0898 0.3717
H319? H 0.1704 0.1523 0.3505
H320? H 0.3898 0.2532 0.2728
C226? C 0.4160(7) 0.1607(18) 0.2516(10)
H321? H 0.3954 0.1679 0.2264
H322? H 0.4154 0.1084 0.2607
C227? C 0.4595(6) 0.1843(15) 0.2442(7)
H323? H 0.4581 0.2275 0.2251
H324? H 0.4740 0.1432 0.2317
C228? C 0.4822(5) 0.2046(15) 0.2869(7)
H325? H 0.5078 0.2336 0.2847
H326? H 0.4895 0.1600 0.3042
C229? C 0.4490(5) 0.251(2) 0.3042(12)
H327? H 0.4498 0.3033 0.2946
H328? H 0.4527 0.2503 0.3350
H329? H 0.2866 0.0855 0.5246
C230? C 0.273(3) -0.023(4) 0.506(2)
H330? H 0.2438 -0.0074 0.5005
H331? H 0.2804 -0.0538 0.4830
C231? C 0.281(4) -0.065(4) 0.547(3)
H332? H 0.2594 -0.0527 0.5651
H333? H 0.2802 -0.1192 0.5419
C232? C 0.324(4) -0.042(5) 0.568(3)
H334? H 0.3433 -0.0845 0.5687
H335? H 0.3220 -0.0264 0.5971
C233? C 0.3389(16) 0.021(6) 0.543(3)
H336? H 0.3624 0.0051 0.5286
H337? H 0.3484 0.0632 0.5620
H338? H 0.4934 0.0329 0.3747
C234? C 0.5062(10) 0.011(2) 0.4379(13)
H339? H 0.5015 -0.0424 0.4316
H340? H 0.4933 0.0237 0.4631
C235? C 0.5525(8) 0.0294(14) 0.4437(13)
H341? H 0.5673 0.0019 0.4235
H342? H 0.5656 0.0173 0.4723
C236? C 0.5534(8) 0.1127(13) 0.4357(12)
H343? H 0.5530 0.1405 0.4621
H344? H 0.5790 0.1265 0.4236
C237? C 0.5149(10) 0.1301(14) 0.4054(16)
H345? H 0.5227 0.1451 0.3780
H346? H 0.4988 0.1708 0.4162
H347? H 0.3214 0.4105 0.3826
C238? C 0.3818(8) 0.423(4) 0.3618(15)
H348? H 0.3807 0.4777 0.3643
H349? H 0.3784 0.4092 0.3319
C239? C 0.4222(7) 0.392(3) 0.3850(15)
H350? H 0.4460 0.4254 0.3827
H351? H 0.4285 0.3424 0.3739
C240? C 0.4131(9) 0.386(3) 0.4301(12)
H352? H 0.4317 0.3494 0.4458
H353? H 0.4169 0.4347 0.4443
C241? C 0.3677(9) 0.361(3) 0.4267(8)
H354? H 0.3659 0.3065 0.4293
H355? H 0.3534 0.3846 0.4485
H356? H 0.4160 0.2734 0.5136
C242? C 0.4252(7) 0.1876(12) 0.5519(5)
H357? H 0.4355 0.1359 0.5528
H358? H 0.3958 0.1880 0.5575
C243? C 0.4525(8) 0.2365(14) 0.5825(5)
H359? H 0.4655 0.2070 0.6066
H360? H 0.4356 0.2766 0.5930
C244? C 0.4859(8) 0.2690(19) 0.5585(7)
H361? H 0.5137 0.2495 0.5696
H362? H 0.4864 0.3237 0.5610
C245? C 0.4745(5) 0.2461(18) 0.5130(6)
H363? H 0.4781 0.2879 0.4940
H364? H 0.4918 0.2038 0.5059
loop_
_geom_bond_atom_site_label_1
_geom_bond_atom_site_label_2
_geom_bond_site_symmetry_1
_geom_bond_site_symmetry_2
Si1 N5 1_555 1_555
C1 H1 1_555 1_555
C2 C1 1_555 1_555
H2 C2 1_555 1_555
C3 C2 1_555 1_555
H3 C3 1_555 1_555
C4 C3 1_555 1_555
H4 C4 1_555 1_555
C5 C4 1_555 1_555
C6 C5 1_555 1_555
H5 C6 1_555 1_555
C7 C6 1_555 1_555
C8 C7 1_555 1_555
C9 C8 1_555 1_555
C10 C9 1_555 1_555
N1 C10 1_555 1_555
C11 C12 1_555 1_555
C12 N1 1_555 1_555
C13 C11 1_555 1_555
C14 C13 1_555 1_555
C15 C14 1_555 1_555
H6 C15 1_555 1_555
C16 C15 1_555 1_555
C17 C16 1_555 1_555
H7 C17 1_555 1_555
C18 C17 1_555 1_555
H8 C18 1_555 1_555
C19 C18 1_555 1_555
H9 C19 1_555 1_555
C20 C19 1_555 1_555
H10 C20 1_555 1_555
C21 C16 1_555 1_555
C22 C21 1_555 1_555
H11 C22 1_555 1_555
C23 C14 1_555 1_555
C24 C23 1_555 1_555
C25 C11 1_555 1_555
C26 C25 1_555 1_555
N2 C26 1_555 1_555
C27 N2 1_555 1_555
C28 C27 1_555 1_555
C29 C28 1_555 1_555
C30 C29 1_555 1_555
C31 C30 1_555 1_555
H12 C31 1_555 1_555
C32 C31 1_555 1_555
C33 C32 1_555 1_555
H13 C33 1_555 1_555
C34 C33 1_555 1_555
H14 C34 1_555 1_555
C35 C34 1_555 1_555
H15 C35 1_555 1_555
C36 C35 1_555 1_555
H16 C36 1_555 1_555
C37 C32 1_555 1_555
C38 C37 1_555 1_555
H17 C38 1_555 1_555
C39 C30 1_555 1_555
C40 C39 1_555 1_555
C41 C28 1_555 1_555
C42 C41 1_555 1_555
N3 C42 1_555 1_555
C43 N3 1_555 1_555
C44 C43 1_555 1_555
C45 C44 1_555 1_555
C46 C45 1_555 1_555
C47 C46 1_555 1_555
H18 C47 1_555 1_555
C48 C47 1_555 1_555
C49 C48 1_555 1_555
H19 C49 1_555 1_555
C50 C49 1_555 1_555
H20 C50 1_555 1_555
C51 C50 1_555 1_555
H21 C51 1_555 1_555
C52 C51 1_555 1_555
H22 C52 1_555 1_555
C53 C48 1_555 1_555
C54 C53 1_555 1_555
H23 C54 1_555 1_555
C55 C46 1_555 1_555
C56 C55 1_555 1_555
C57 C44 1_555 1_555
C58 C57 1_555 1_555
N4 C58 1_555 1_555
C59 N4 1_555 1_555
C60 C9 1_555 1_555
C61 C60 1_555 1_555
C62 C7 1_555 1_555
C63 C62 1_555 1_555
H24 C63 1_555 1_555
C64 C1 1_555 1_555
N5 C10 1_555 1_555
N6 Si1 1_555 1_555
N7 Si1 1_555 1_555
N8 Si1 1_555 1_555
C65 C63 1_555 1_555
C66 C6 1_555 1_555
C67 C66 1_555 1_555
H25 C67 1_555 1_555
C68 C67 1_555 1_555
H26 C68 1_555 1_555
C69 C68 1_555 1_555
H27 C69 1_555 1_555
C70 C65 1_555 1_555
H28 C70 1_555 1_555
C71 C54 1_555 1_555
C72 C47 1_555 1_555
C73 C72 1_555 1_555
H29 C73 1_555 1_555
C74 C73 1_555 1_555
H30 C74 1_555 1_555
C75 C74 1_555 1_555
H31 C75 1_555 1_555
C76 C71 1_555 1_555
H32 C76 1_555 1_555
C77 C38 1_555 1_555
C78 C31 1_555 1_555
C79 C78 1_555 1_555
H33 C79 1_555 1_555
C80 C79 1_555 1_555
H34 C80 1_555 1_555
C81 C80 1_555 1_555
H35 C81 1_555 1_555
C82 C77 1_555 1_555
H36 C82 1_555 1_555
C83 C22 1_555 1_555
C84 C15 1_555 1_555
C85 C84 1_555 1_555
H37 C85 1_555 1_555
C86 C85 1_555 1_555
H38 C86 1_555 1_555
C87 C86 1_555 1_555
H39 C87 1_555 1_555
C88 C83 1_555 1_555
H40 C88 1_555 1_555
O1 C8 1_555 1_555
C89 O1 1_555 1_555
H41 C89 1_555 1_555
H42 C89 1_555 1_555
C90 C89 1_555 1_555
H43 C90 1_555 1_555
C91 C90 1_555 1_555
H44 C91 1_555 1_555
H45 C91 1_555 1_555
H46 C91 1_555 1_555
C92 C90 1_555 1_555
H47 C92 1_555 1_555
H48 C92 1_555 1_555
H49 C92 1_555 1_555
O2 C13 1_555 1_555
C93 O2 1_555 1_555
H50 C93 1_555 1_555
H51 C93 1_555 1_555
C94 C93 1_555 1_555
H52 C94 1_555 1_555
C95 C94 1_555 1_555
H53 C95 1_555 1_555
H54 C95 1_555 1_555
H55 C95 1_555 1_555
C96 C94 1_555 1_555
H56 C96 1_555 1_555
H57 C96 1_555 1_555
H58 C96 1_555 1_555
O3 C24 1_555 1_555
C97 O3 1_555 1_555
H59 C97 1_555 1_555
H60 C97 1_555 1_555
C98 C97 1_555 1_555
H61 C98 1_555 1_555
C99 C98 1_555 1_555
H62 C99 1_555 1_555
H63 C99 1_555 1_555
H64 C99 1_555 1_555
C100 C98 1_555 1_555
H65 C100 1_555 1_555
H66 C100 1_555 1_555
H67 C100 1_555 1_555
O4 C29 1_555 1_555
C101 O4 1_555 1_555
H68 C101 1_555 1_555
H69 C101 1_555 1_555
C102 C101 1_555 1_555
H70 C102 1_555 1_555
C103 C102 1_555 1_555
H71 C103 1_555 1_555
H72 C103 1_555 1_555
H73 C103 1_555 1_555
C104 C102 1_555 1_555
H74 C104 1_555 1_555
H75 C104 1_555 1_555
H76 C104 1_555 1_555
O5 C40 1_555 1_555
C105 O5 1_555 1_555
H77 C105 1_555 1_555
H78 C105 1_555 1_555
C106 C105 1_555 1_555
H79 C106 1_555 1_555
C107 C106 1_555 1_555
H80 C107 1_555 1_555
H81 C107 1_555 1_555
H82 C107 1_555 1_555
C108 C106 1_555 1_555
H83 C108 1_555 1_555
H84 C108 1_555 1_555
H85 C108 1_555 1_555
O6 C45 1_555 1_555
C109 O6 1_555 1_555
H86 C109 1_555 1_555
H87 C109 1_555 1_555
C110 C109 1_555 1_555
H88 C110 1_555 1_555
C111 C110 1_555 1_555
H89 C111 1_555 1_555
H90 C111 1_555 1_555
H91 C111 1_555 1_555
C112 C110 1_555 1_555
H92 C112 1_555 1_555
H93 C112 1_555 1_555
H94 C112 1_555 1_555
O7 C56 1_555 1_555
C113 O7 1_555 1_555
H95 C113 1_555 1_555
H96 C113 1_555 1_555
C114 C113 1_555 1_555
H97 C114 1_555 1_555
C115 C114 1_555 1_555
H98 C115 1_555 1_555
H99 C115 1_555 1_555
H100 C115 1_555 1_555
C116 C114 1_555 1_555
H101 C116 1_555 1_555
H102 C116 1_555 1_555
H103 C116 1_555 1_555
O8 C61 1_555 1_555
C117 O8 1_555 1_555
H104 C117 1_555 1_555
H105 C117 1_555 1_555
C118 C117 1_555 1_555
H106 C118 1_555 1_555
C119 C118 1_555 1_555
H107 C119 1_555 1_555
H108 C119 1_555 1_555
H109 C119 1_555 1_555
C120 C118 1_555 1_555
H110 C120 1_555 1_555
H111 C120 1_555 1_555
H112 C120 1_555 1_555
O9 Si1 1_555 1_555
Si2 O9 1_555 1_555
Si3 O10 1_555 1_555
Si4 O11 1_555 1_555
Si5 O12 1_555 1_555
Si6 O13 1_555 1_555
Si7 O15 1_555 1_555
Si8 O17 1_555 1_555
Si9 O19 1_555 1_555
O10 Si2 1_555 1_555
O11 Si2 1_555 1_555
O12 Si2 1_555 1_555
O13 Si3 1_555 1_555
O14 Si4 1_555 1_555
O15 Si4 1_555 1_555
O16 Si5 1_555 1_555
O17 Si5 1_555 1_555
O18 Si3 1_555 1_555
O19 Si6 1_555 1_555
O20 Si7 1_555 1_555
O21 Si8 1_555 1_555
C121 Si3 1_555 1_555
H113 C121 1_555 1_555
C122 C121 1_555 1_555
H114 C122 1_555 1_555
H115 C122 1_555 1_555
C123 C122 1_555 1_555
H116 C123 1_555 1_555
H117 C123 1_555 1_555
C124 C123 1_555 1_555
H118 C124 1_555 1_555
H119 C124 1_555 1_555
C125 C121 1_555 1_555
H120 C125 1_555 1_555
H121 C125 1_555 1_555
C126 Si4 1_555 1_555
H122 C126 1_555 1_555
C127 C126 1_555 1_555
H123 C127 1_555 1_555
H124 C127 1_555 1_555
C128 C127 1_555 1_555
H125 C128 1_555 1_555
H126 C128 1_555 1_555
C129 C128 1_555 1_555
H127 C129 1_555 1_555
H128 C129 1_555 1_555
C130 C126 1_555 1_555
H129 C130 1_555 1_555
H130 C130 1_555 1_555
C131 Si5 1_555 1_555
H131 C131 1_555 1_555
C132 C131 1_555 1_555
H132 C132 1_555 1_555
H133 C132 1_555 1_555
C133 C132 1_555 1_555
H134 C133 1_555 1_555
H135 C133 1_555 1_555
C134 C133 1_555 1_555
H136 C134 1_555 1_555
H137 C134 1_555 1_555
C135 C131 1_555 1_555
H138 C135 1_555 1_555
H139 C135 1_555 1_555
C136 Si6 1_555 1_555
H140 C136 1_555 1_555
C137 C136 1_555 1_555
H141 C137 1_555 1_555
H142 C137 1_555 1_555
C138 C137 1_555 1_555
H143 C138 1_555 1_555
H144 C138 1_555 1_555
C139 C138 1_555 1_555
H145 C139 1_555 1_555
H146 C139 1_555 1_555
C140 C136 1_555 1_555
H147 C140 1_555 1_555
H148 C140 1_555 1_555
C141 Si7 1_555 1_555
H149 C141 1_555 1_555
C142 C141 1_555 1_555
H150 C142 1_555 1_555
H151 C142 1_555 1_555
C143 C142 1_555 1_555
H152 C143 1_555 1_555
H153 C143 1_555 1_555
C144 C143 1_555 1_555
H154 C144 1_555 1_555
H155 C144 1_555 1_555
C145 C141 1_555 1_555
H156 C145 1_555 1_555
H157 C145 1_555 1_555
C146 Si8 1_555 1_555
H158 C146 1_555 1_555
C147 C146 1_555 1_555
H159 C147 1_555 1_555
H160 C147 1_555 1_555
C148 C147 1_555 1_555
H161 C148 1_555 1_555
H162 C148 1_555 1_555
C149 C148 1_555 1_555
H163 C149 1_555 1_555
H164 C149 1_555 1_555
C150 C146 1_555 1_555
H165 C150 1_555 1_555
H166 C150 1_555 1_555
C151 Si9 1_555 1_555
H167 C151 1_555 1_555
C152 C151 1_555 1_555
H168 C152 1_555 1_555
H169 C152 1_555 1_555
C153 C152 1_555 1_555
H170 C153 1_555 1_555
H171 C153 1_555 1_555
C154 C153 1_555 1_555
H172 C154 1_555 1_555
H173 C154 1_555 1_555
C155 C151 1_555 1_555
H174 C155 1_555 1_555
H175 C155 1_555 1_555
O22 Si1 1_555 1_555
Si10 O22 1_555 1_555
Si11 O23 1_555 1_555
Si12 O24 1_555 1_555
Si13 O25 1_555 1_555
Si14 O26 1_555 1_555
Si15 O28 1_555 1_555
Si16 O30 1_555 1_555
Si17 O32 1_555 1_555
O23 Si10 1_555 1_555
O24 Si10 1_555 1_555
O25 Si10 1_555 1_555
O26 Si11 1_555 1_555
O27 Si12 1_555 1_555
O28 Si12 1_555 1_555
O29 Si13 1_555 1_555
O30 Si13 1_555 1_555
O31 Si11 1_555 1_555
O32 Si14 1_555 1_555
O33 Si15 1_555 1_555
O34 Si16 1_555 1_555
C156 Si11 1_555 1_555
H176 C156 1_555 1_555
C157 C156 1_555 1_555
H177 C157 1_555 1_555
H178 C157 1_555 1_555
C158 C157 1_555 1_555
H179 C158 1_555 1_555
H180 C158 1_555 1_555
C159 C158 1_555 1_555
H181 C159 1_555 1_555
H182 C159 1_555 1_555
C160 C156 1_555 1_555
H183 C160 1_555 1_555
H184 C160 1_555 1_555
C161 Si12 1_555 1_555
H185 C161 1_555 1_555
C162 C161 1_555 1_555
H186 C162 1_555 1_555
H187 C162 1_555 1_555
C163 C162 1_555 1_555
H188 C163 1_555 1_555
H189 C163 1_555 1_555
C164 C163 1_555 1_555
H190 C164 1_555 1_555
H191 C164 1_555 1_555
C165 C161 1_555 1_555
H192 C165 1_555 1_555
H193 C165 1_555 1_555
C166 Si13 1_555 1_555
H194 C166 1_555 1_555
C167 C166 1_555 1_555
H195 C167 1_555 1_555
H196 C167 1_555 1_555
C168 C167 1_555 1_555
H197 C168 1_555 1_555
H198 C168 1_555 1_555
C169 C168 1_555 1_555
H199 C169 1_555 1_555
H200 C169 1_555 1_555
C170 C166 1_555 1_555
H201 C170 1_555 1_555
H202 C170 1_555 1_555
C171 Si14 1_555 1_555
H203 C171 1_555 1_555
C172 C171 1_555 1_555
H204 C172 1_555 1_555
H205 C172 1_555 1_555
C173 C172 1_555 1_555
H206 C173 1_555 1_555
H207 C173 1_555 1_555
C174 C173 1_555 1_555
H208 C174 1_555 1_555
H209 C174 1_555 1_555
C175 C171 1_555 1_555
H210 C175 1_555 1_555
H211 C175 1_555 1_555
C176 Si15 1_555 1_555
H212 C176 1_555 1_555
C177 C176 1_555 1_555
H213 C177 1_555 1_555
H214 C177 1_555 1_555
C178 C177 1_555 1_555
H215 C178 1_555 1_555
H216 C178 1_555 1_555
C179 C178 1_555 1_555
H217 C179 1_555 1_555
H218 C179 1_555 1_555
C180 C176 1_555 1_555
H219 C180 1_555 1_555
H220 C180 1_555 1_555
C181 Si16 1_555 1_555
H221 C181 1_555 1_555
C182 C181 1_555 1_555
H222 C182 1_555 1_555
H223 C182 1_555 1_555
C183 C182 1_555 1_555
H224 C183 1_555 1_555
H225 C183 1_555 1_555
C184 C183 1_555 1_555
H226 C184 1_555 1_555
H227 C184 1_555 1_555
C185 C181 1_555 1_555
H228 C185 1_555 1_555
H229 C185 1_555 1_555
C186 Si17 1_555 1_555
H230 C186 1_555 1_555
C187 C186 1_555 1_555
H231 C187 1_555 1_555
H232 C187 1_555 1_555
C188 C187 1_555 1_555
H233 C188 1_555 1_555
H234 C188 1_555 1_555
C189 C188 1_555 1_555
H235 C189 1_555 1_555
H236 C189 1_555 1_555
C190 C186 1_555 1_555
H237 C190 1_555 1_555
H238 C190 1_555 1_555
C5 C64 1_555 1_555
C12 N8 1_555 1_555
C20 C21 1_555 1_555
C22 C23 1_555 1_555
C24 C25 1_555 1_555
C26 N8 1_555 1_555
C27 N7 1_555 1_555
C36 C37 1_555 1_555
C38 C39 1_555 1_555
C40 C41 1_555 1_555
C42 N7 1_555 1_555
C43 N6 1_555 1_555
C52 C53 1_555 1_555
C54 C55 1_555 1_555
C56 C57 1_555 1_555
C58 N6 1_555 1_555
C59 C60 1_555 1_555
C59 N5 1_555 1_555
C61 C62 1_555 1_555
C63 C64 1_555 1_555
C65 C66 1_555 1_555
C69 C70 1_555 1_555
C71 C72 1_555 1_555
C75 C76 1_555 1_555
C77 C78 1_555 1_555
C81 C82 1_555 1_555
C83 C84 1_555 1_555
C87 C88 1_555 1_555
Si6 O14 1_555 1_555
Si7 O16 1_555 1_555
Si8 O18 1_555 1_555
Si9 O20 1_555 1_555
Si9 O21 1_555 1_555
C124 C125 1_555 1_555
C129 C130 1_555 1_555
C134 C135 1_555 1_555
C139 C140 1_555 1_555
C144 C145 1_555 1_555
C149 C150 1_555 1_555
C154 C155 1_555 1_555
Si14 O27 1_555 1_555
Si15 O29 1_555 1_555
Si16 O31 1_555 1_555
Si17 O33 1_555 1_555
Si17 O34 1_555 1_555
C159 C160 1_555 1_555
C164 C165 1_555 1_555
C169 C170 1_555 1_555
C174 C175 1_555 1_555
C179 C180 1_555 1_555
C184 C185 1_555 1_555
C189 C190 1_555 1_555

#END
