
#######################################################################
#
#                 Cambridge Crystallographic Data Centre
#                                CCDC 
#
#######################################################################
#
# If this CIF has been generated from an entry in the Cambridge 
# Structural Database, then it will include bibliographic, chemical, 
# crystal, experimental, refinement or atomic coordinate data resulting 
# from the CCDC's data processing and validation procedures.
#
#######################################################################

data_SUBMAF
_chemical_formula_moiety         'C16 H17 O3 P1'
_chemical_name_systematic        1-(diphenylphosphoryl)-3-hydroxybutan-2-one
_symmetry_cell_setting           monoclinic
_symmetry_space_group_name_H-M   'P 21'
_symmetry_Int_Tables_number      4
_space_group_name_Hall           'P 2yb'
loop_
_symmetry_equiv_pos_site_id
_symmetry_equiv_pos_as_xyz
1 x,y,z
2 -x,1/2+y,-z
_cell_length_a                   5.8589(19)
_cell_length_b                   17.826(5)
_cell_length_c                   14.463(5)
_cell_angle_alpha                90
_cell_angle_beta                 93.258(5)
_cell_angle_gamma                90
_cell_volume                     1508.09
_exptl_crystal_colour            colorless
_exptl_crystal_description       prism
_cell_formula_units_Z            4
loop_
_atom_site_label
_atom_site_type_symbol
_atom_site_fract_x
_atom_site_fract_y
_atom_site_fract_z
P1 P 0.6507(3) 0.05945(11) 0.51362(13)
O1 O 0.4382(9) 0.0923(4) 0.5501(4)
O2 O 0.8770(13) 0.2032(4) 0.5717(5)
O3 O 1.2646(11) 0.1023(4) 0.7203(4)
H1 H 1.3817 0.1054 0.6908
C1 C 0.9026(13) 0.0711(5) 0.5889(5)
H2 H 0.8822 0.0432 0.6462
H3 H 1.0325 0.0488 0.5591
C2 C 0.9598(14) 0.1507(5) 0.6132(6)
C3 C 1.1180(17) 0.1640(5) 0.6974(6)
H4 H 1.2118 0.2092 0.6873
C4 C 0.973(3) 0.1769(7) 0.7809(7)
H5 H 0.8982 0.1304 0.7963
H6 H 0.8593 0.2150 0.7659
H7 H 1.0713 0.1933 0.8334
C5 C 0.7007(15) 0.0965(5) 0.4009(5)
C6 C 0.5356(16) 0.1368(6) 0.3532(6)
H8 H 0.3947 0.1454 0.3793
C7 C 0.573(2) 0.1649(7) 0.2674(8)
H9 H 0.4613 0.1957 0.2378
C8 C 0.764(2) 0.1500(8) 0.2240(7)
H10 H 0.7817 0.1682 0.1638
C9 C 0.930(2) 0.1087(9) 0.2674(8)
H11 H 1.0637 0.0973 0.2372
C10 C 0.9039(16) 0.0827(8) 0.3581(7)
H12 H 1.0228 0.0560 0.3896
C11 C 0.6235(14) -0.0411(5) 0.5000(5)
C12 C 0.4346(17) -0.0757(6) 0.5290(9)
H13 H 0.3203 -0.0471 0.5554
C13 C 0.4069(19) -0.1528(7) 0.5205(9)
H14 H 0.2744 -0.1755 0.5412
C14 C 0.570(2) -0.1960(6) 0.4823(8)
H15 H 0.5485 -0.2479 0.4744
C15 C 0.766(2) -0.1620(7) 0.4557(9)
H16 H 0.8838 -0.1910 0.4320
C16 C 0.7914(18) -0.0845(7) 0.4637(8)
H17 H 0.9246 -0.0615 0.4441
P2 P 0.3717(3) 0.99689(12) 0.96868(13)
O4 O 0.5969(11) 0.9701(4) 0.9358(4)
O5 O 0.1660(14) 0.8525(4) 0.8837(6)
O6 O -0.2414(11) 0.9657(4) 0.7610(4)
H18 H -0.3005 0.9689 0.8117
C17 C 0.1292(13) 0.9870(5) 0.8866(5)
H19 H -0.0074 1.0045 0.9162
H20 H 0.1523 1.0202 0.8339
C18 C 0.0824(16) 0.9088(6) 0.8496(6)
C19 C -0.0851(19) 0.9066(6) 0.7637(7)
H21 H 0.0089 0.9136 0.7096
C20 C -0.196(3) 0.8329(8) 0.7510(11)
H22 H -0.2851 0.8220 0.8040
H23 H -0.0802 0.7945 0.7456
H24 H -0.2960 0.8336 0.6952
C21 C 0.3784(14) 1.0959(6) 0.9890(5)
C22 C 0.5526(17) 1.1397(6) 0.9567(7)
H25 H 0.6715 1.1164 0.9266
C23 C 0.556(2) 1.2173(7) 0.9675(8)
H26 H 0.6771 1.2456 0.9454
C24 C 0.384(2) 1.2519(7) 1.0105(7)
H27 H 0.3905 1.3040 1.0205
C25 C 0.2007(18) 1.2115(6) 1.0396(6)
H28 H 0.0768 1.2360 1.0650
C26 C 0.2018(16) 1.1333(6) 1.0307(6)
H29 H 0.0808 1.1054 1.0533
C27 C 0.2956(14) 0.9554(5) 1.0770(6)
C28 C 0.461(2) 0.9599(7) 1.1494(7)
H30 H 0.6003 0.9839 1.1402
C29 C 0.421(2) 0.9289(9) 1.2362(7)
H31 H 0.5325 0.9320 1.2855
C30 C 0.212(2) 0.8934(7) 1.2479(7)
H32 H 0.1822 0.8728 1.3057
C31 C 0.054(2) 0.8886(7) 1.1770(8)
H33 H -0.0839 0.8634 1.1855
C32 C 0.0919(17) 0.9203(7) 1.0914(7)
H34 H -0.0225 0.9177 1.0432
loop_
_geom_bond_atom_site_label_1
_geom_bond_atom_site_label_2
_geom_bond_site_symmetry_1
_geom_bond_site_symmetry_2
P1 O1 1_555 1_555
O2 C2 1_555 1_555
O3 H1 1_555 1_555
C1 P1 1_555 1_555
H2 C1 1_555 1_555
H3 C1 1_555 1_555
C2 C1 1_555 1_555
C3 O3 1_555 1_555
H4 C3 1_555 1_555
C4 C3 1_555 1_555
H5 C4 1_555 1_555
H6 C4 1_555 1_555
H7 C4 1_555 1_555
C5 P1 1_555 1_555
C6 C5 1_555 1_555
H8 C6 1_555 1_555
C7 C6 1_555 1_555
H9 C7 1_555 1_555
C8 C7 1_555 1_555
H10 C8 1_555 1_555
C9 C8 1_555 1_555
H11 C9 1_555 1_555
C10 C5 1_555 1_555
H12 C10 1_555 1_555
C11 P1 1_555 1_555
C12 C11 1_555 1_555
H13 C12 1_555 1_555
C13 C12 1_555 1_555
H14 C13 1_555 1_555
C14 C13 1_555 1_555
H15 C14 1_555 1_555
C15 C14 1_555 1_555
H16 C15 1_555 1_555
C16 C11 1_555 1_555
H17 C16 1_555 1_555
P2 O4 1_555 1_555
O5 C18 1_555 1_555
O6 H18 1_555 1_555
C17 P2 1_555 1_555
H19 C17 1_555 1_555
H20 C17 1_555 1_555
C18 C17 1_555 1_555
C19 O6 1_555 1_555
H21 C19 1_555 1_555
C20 C19 1_555 1_555
H22 C20 1_555 1_555
H23 C20 1_555 1_555
H24 C20 1_555 1_555
C21 P2 1_555 1_555
C22 C21 1_555 1_555
H25 C22 1_555 1_555
C23 C22 1_555 1_555
H26 C23 1_555 1_555
C24 C23 1_555 1_555
H27 C24 1_555 1_555
C25 C24 1_555 1_555
H28 C25 1_555 1_555
C26 C21 1_555 1_555
H29 C26 1_555 1_555
C27 P2 1_555 1_555
C28 C27 1_555 1_555
H30 C28 1_555 1_555
C29 C28 1_555 1_555
H31 C29 1_555 1_555
C30 C29 1_555 1_555
H32 C30 1_555 1_555
C31 C30 1_555 1_555
H33 C31 1_555 1_555
C32 C27 1_555 1_555
H34 C32 1_555 1_555
C2 C3 1_555 1_555
C9 C10 1_555 1_555
C15 C16 1_555 1_555
C18 C19 1_555 1_555
C25 C26 1_555 1_555
C31 C32 1_555 1_555

#END
