
#######################################################################
#
#                 Cambridge Crystallographic Data Centre
#                                CCDC 
#
#######################################################################
#
# If this CIF has been generated from an entry in the Cambridge 
# Structural Database, then it will include bibliographic, chemical, 
# crystal, experimental, refinement or atomic coordinate data resulting 
# from the CCDC's data processing and validation procedures.
#
#######################################################################

data_SUBRUC
_chemical_formula_moiety         'C19 H15 F3 N1 O4 1-,C8 H12 N1 1+'
_chemical_name_systematic        
'(S)-(-)-\a-Methylbenzylammonium 6-trifluoromethyl-4-(4-methoxyphenyl)-1,3,4,5-tetrahydro-2H-1-benzazepin-2-one-3-carboxylate'
_symmetry_cell_setting           orthorhombic
_symmetry_space_group_name_H-M   'P 21 21 21'
_symmetry_Int_Tables_number      19
_space_group_name_Hall           'P 2ac 2ab'
loop_
_symmetry_equiv_pos_site_id
_symmetry_equiv_pos_as_xyz
1 x,y,z
2 1/2+x,1/2-y,-z
3 -x,1/2+y,1/2-z
4 1/2-x,-y,1/2+z
_cell_length_a                   17.717(8)
_cell_length_b                   6.455(2)
_cell_length_c                   22.23(1)
_cell_angle_alpha                90
_cell_angle_beta                 90
_cell_angle_gamma                90
_cell_volume                     2542.29
_cell_formula_units_Z            4
loop_
_atom_site_label
_atom_site_type_symbol
_atom_site_fract_x
_atom_site_fract_y
_atom_site_fract_z
N1 N 0.8274(4) 1.0989(9) 0.3736(3)
C1 C 0.7933(4) 1.004(1) 0.3270(4)
O1 O 0.7655(3) 1.1035(9) 0.2862(2)
C2 C 0.7926(4) 0.766(1) 0.3260(3)
C3 C 0.7480(5) 0.659(1) 0.3756(4)
C4 C 0.7537(5) 0.777(1) 0.4352(4)
C5 C 0.8762(5) 0.744(1) 0.4976(4)
C6 C 0.9464(6) 0.822(2) 0.5145(4)
C7 C 0.9749(5) 1.000(2) 0.4850(4)
C8 C 0.9364(5) 1.082(1) 0.4374(4)
C9 C 0.8659(4) 1.003(1) 0.4211(3)
C10 C 0.8340(5) 0.834(1) 0.4521(3)
C11 C 0.6640(5) 0.630(1) 0.3593(4)
C12 C 0.6197(5) 0.785(2) 0.3373(5)
C13 C 0.5448(6) 0.766(2) 0.3216(6)
C14 C 0.5133(5) 0.576(2) 0.3325(5)
C15 C 0.5526(6) 0.416(2) 0.3562(5)
C16 C 0.6304(6) 0.445(2) 0.3685(5)
O2 O 0.4344(4) 0.544(2) 0.3183(4)
C17 C 0.3928(9) 0.703(3) 0.2913(7)
C19 C 0.8740(4) 0.685(1) 0.3182(3)
O3 O 0.8885(3) 0.5024(8) 0.3310(2)
O4 O 0.9209(3) 0.8097(8) 0.2939(2)
C20 C 0.8455(6) 0.560(2) 0.5316(4)
F1 F 0.8207(3) 0.4145(8) 0.4924(2)
F2 F 0.7896(4) 0.6015(9) 0.5674(2)
F3 F 0.8991(4) 0.464(1) 0.5640(3)
H1 H 0.8252 1.2455 0.3732
H2 H 0.7634 0.7256 0.2919
H3 H 0.7699 0.5244 0.3795
H4 H 0.7332 0.6912 0.4666
H5 H 0.7240 0.8996 0.4325
H6 H 0.9749 0.7554 0.5464
H7 H 1.0195 1.0651 0.4995
H8 H 0.9584 1.1933 0.4147
H9 H 0.6409 0.9199 0.3326
H10 H 0.5188 0.8773 0.3027
H11 H 0.5256 0.2953 0.3641
H12 H 0.6589 0.3317 0.3827
C21 C 0.8756(4) 1.290(1) 0.1897(3)
N2 N 0.9307(3) 1.2186(9) 0.2374(3)
C22 C 0.8669(5) 1.132(1) 0.1401(4)
C23 C 0.9249(5) 1.090(1) 0.0998(4)
C24 C 0.9142(6) 0.958(1) 0.0518(4)
C25 C 0.8453(6) 0.871(1) 0.0428(4)
C26 C 0.7886(6) 0.909(2) 0.0828(5)
C27 C 0.8001(5) 1.041(1) 0.1303(4)
C28 C 0.9003(6) 1.496(1) 0.1678(4)
H13 H 0.8270 1.3013 0.2073
H14 H 0.9160 1.2911 0.2773
H15 H 0.9648 1.2500 0.2344
H16 H 0.9160 1.0821 0.2500
H17 H 0.9717 1.1570 0.1058
H18 H 0.9540 0.9312 0.0243
H19 H 0.8363 0.7850 0.0088
H20 H 0.7397 0.8414 0.0807
H21 H 0.7604 1.0714 0.1580
H22 H 0.9046 1.5855 0.2020
H23 H 0.9473 1.4811 0.1492
H24 H 0.8636 1.5453 0.1413
C18? C 0.397 0.363 0.323
loop_
_geom_bond_atom_site_label_1
_geom_bond_atom_site_label_2
_geom_bond_site_symmetry_1
_geom_bond_site_symmetry_2
N1 C1 1_555 1_555
C1 O1 1_555 1_555
C2 C1 1_555 1_555
C3 C2 1_555 1_555
C4 C3 1_555 1_555
C5 C6 1_555 1_555
C6 C7 1_555 1_555
C7 C8 1_555 1_555
C8 C9 1_555 1_555
C9 N1 1_555 1_555
C10 C4 1_555 1_555
C11 C3 1_555 1_555
C12 C11 1_555 1_555
C13 C12 1_555 1_555
C14 C13 1_555 1_555
C15 C14 1_555 1_555
C16 C11 1_555 1_555
O2 C14 1_555 1_555
C17 O2 1_555 1_555
C19 C2 1_555 1_555
O3 C19 1_555 1_555
O4 C19 1_555 1_555
C20 C5 1_555 1_555
F1 C20 1_555 1_555
F2 C20 1_555 1_555
F3 C20 1_555 1_555
C21 N2 1_555 1_555
N2 H14 1_555 1_555
C22 C21 1_555 1_555
C23 C22 1_555 1_555
C24 C23 1_555 1_555
C25 C24 1_555 1_555
C26 C25 1_555 1_555
C27 C22 1_555 1_555
C28 C21 1_555 1_555
H1 N1 1_555 1_555
H2 C2 1_555 1_555
H3 C3 1_555 1_555
H4 C4 1_555 1_555
H5 C4 1_555 1_555
H6 C6 1_555 1_555
H7 C7 1_555 1_555
H8 C8 1_555 1_555
H9 C12 1_555 1_555
H10 C13 1_555 1_555
H11 C15 1_555 1_555
H12 C16 1_555 1_555
H13 C21 1_555 1_555
H15 N2 1_555 1_555
H16 N2 1_555 1_555
H17 C23 1_555 1_555
H18 C24 1_555 1_555
H19 C25 1_555 1_555
H20 C26 1_555 1_555
H21 C27 1_555 1_555
H22 C28 1_555 1_555
H23 C28 1_555 1_555
H24 C28 1_555 1_555
C5 C10 1_555 1_555
C9 C10 1_555 1_555
C15 C16 1_555 1_555
C26 C27 1_555 1_555

#END
