
#######################################################################
#
#                 Cambridge Crystallographic Data Centre
#                                CCDC 
#
#######################################################################
#
# If this CIF has been generated from an entry in the Cambridge 
# Structural Database, then it will include bibliographic, chemical, 
# crystal, experimental, refinement or atomic coordinate data resulting 
# from the CCDC's data processing and validation procedures.
#
#######################################################################

data_SUBSEN
_chemical_formula_moiety         'C23 H29 F3 N2 O2 2+,C4 H2 O4 2-'
_chemical_name_systematic        
'(3R,4S)-1-(2-(Dimethylamino)ethyl)-1,3,4,5-tetrahydro-4-(4-methoxyphenyl)-3-methyl-6-(trifluoromethyl)-2H-1-benzazepin-2-one fumarate'
_chemical_properties_biological  'antihypertensive activity'
_symmetry_cell_setting           orthorhombic
_symmetry_space_group_name_H-M   'P 21 21 21'
_symmetry_Int_Tables_number      19
_space_group_name_Hall           'P 2ac 2ab'
loop_
_symmetry_equiv_pos_site_id
_symmetry_equiv_pos_as_xyz
1 x,y,z
2 1/2+x,1/2-y,-z
3 -x,1/2+y,1/2-z
4 1/2-x,-y,1/2+z
_cell_length_a                   14.742(4)
_cell_length_b                   22.151(5)
_cell_length_c                   8.143(2)
_cell_angle_alpha                90
_cell_angle_beta                 90
_cell_angle_gamma                90
_cell_volume                     2659.1
_chemical_melting_point          150-151deg.C
_cell_formula_units_Z            4
loop_
_atom_site_label
_atom_site_type_symbol
_atom_site_fract_x
_atom_site_fract_y
_atom_site_fract_z
N1 N 0.5059(7) 0.4362(5) 0.383(1)
C1 C 0.4811(9) 0.4895(6) 0.309(2)
O1 O 0.4037(6) 0.5082(4) 0.327(1)
C2 C 0.5511(9) 0.5210(6) 0.206(2)
C3 C 0.562(1) 0.4885(7) 0.033(2)
C4 C 0.5689(9) 0.4209(6) 0.057(2)
C5 C 0.717(1) 0.3793(7) 0.185(2)
C6 C 0.763(1) 0.3617(7) 0.327(2)
C7 C 0.728(1) 0.3707(7) 0.479(2)
C8 C 0.644(1) 0.3939(7) 0.496(2)
C9 C 0.5943(9) 0.4095(6) 0.357(2)
C10 C 0.6287(9) 0.4030(6) 0.202(2)
C11 C 0.4899(9) 0.5065(6) -0.084(2)
C12 C 0.3976(9) 0.4885(6) -0.074(2)
C13 C 0.3319(9) 0.5105(6) -0.172(2)
C14 C 0.352(1) 0.5517(6) -0.291(2)
C15 C 0.442(1) 0.5717(7) -0.313(2)
C16 C 0.508(1) 0.5465(7) -0.210(2)
O2 O 0.2812(6) 0.5741(4) -0.379(1)
C17 C 0.297(1) 0.6206(8) -0.493(2)
C18 C 0.440(1) 0.4064(7) 0.492(2)
C19 C 0.3736(9) 0.3699(6) 0.394(2)
N2 N 0.3162(7) 0.3300(5) 0.498(1)
C20 C 0.253(1) 0.3669(8) 0.600(2)
C21 C 0.262(1) 0.2875(8) 0.395(2)
C22 C 0.529(1) 0.5881(7) 0.187(2)
C23 C 0.758(1) 0.3740(8) 0.018(2)
F1 F 0.8484(7) 0.3580(5) 0.036(1)
F2 F 0.7234(7) 0.3316(5) -0.076(1)
F3 F 0.7584(7) 0.4235(5) -0.064(1)
H1 H 0.6071 0.5194 0.2617
H2 H 0.6176 0.5030 -0.0146
H3 H 0.5094 0.4068 0.0764
H4 H 0.5931 0.4045 -0.0386
H5 H 0.8211 0.3461 0.3165
H6 H 0.7623 0.3596 0.5745
H7 H 0.6187 0.3995 0.5999
H8 H 0.3804 0.4594 0.0077
H9 H 0.2718 0.4943 -0.1600
H10 H 0.4582 0.6018 -0.3960
H11 H 0.5681 0.5616 -0.2237
H12 H 0.2407 0.6312 -0.5421
H13 H 0.3379 0.6067 -0.5720
H14 H 0.3212 0.6548 -0.4370
H15 H 0.4093 0.4375 0.5522
H16 H 0.4711 0.3810 0.5659
H17 H 0.3339 0.3987 0.3386
H18 H 0.4054 0.3479 0.3149
H19 H 0.2870 0.3916 0.6661
H20 H 0.2198 0.3378 0.6665
H21 H 0.2139 0.3865 0.5302
H22 H 0.3021 0.2639 0.3263
H23 H 0.2222 0.3095 0.3251
H24 H 0.2282 0.2606 0.4614
H25 H 0.5227 0.6056 0.2906
H26 H 0.4745 0.5917 0.1257
H27 H 0.5773 0.6067 0.1279
C24 C 0.536(1) 0.2441(7) 1.204(2)
O3 O 0.6160(7) 0.2344(5) 1.221(1)
O4 O 0.4803(7) 0.2484(4) 1.330(1)
C25 C 0.490(1) 0.2524(7) 1.043(2)
C26 C 0.533(1) 0.2541(7) 0.905(2)
C27 C 0.492(1) 0.2596(7) 0.736(2)
O5 O 0.5414(8) 0.2474(5) 0.620(1)
O6 O 0.4105(7) 0.2774(5) 0.729(1)
H28 H 0.4260 0.2587 1.0413
H29 H 0.5971 0.2472 0.9097
loop_
_geom_bond_atom_site_label_1
_geom_bond_atom_site_label_2
_geom_bond_site_symmetry_1
_geom_bond_site_symmetry_2
N1 C1 1_555 1_555
C1 O1 1_555 1_555
C2 C1 1_555 1_555
C3 C2 1_555 1_555
C4 C3 1_555 1_555
C5 C6 1_555 1_555
C6 C7 1_555 1_555
C7 C8 1_555 1_555
C8 C9 1_555 1_555
C9 N1 1_555 1_555
C10 C4 1_555 1_555
C11 C3 1_555 1_555
C12 C11 1_555 1_555
C13 C12 1_555 1_555
C14 C13 1_555 1_555
C15 C14 1_555 1_555
C16 C11 1_555 1_555
O2 C14 1_555 1_555
C17 O2 1_555 1_555
C18 N1 1_555 1_555
C19 C18 1_555 1_555
N2 C19 1_555 1_555
C20 N2 1_555 1_555
C21 N2 1_555 1_555
C22 C2 1_555 1_555
C23 C5 1_555 1_555
F1 C23 1_555 1_555
F2 C23 1_555 1_555
F3 C23 1_555 1_555
C24 O3 1_555 1_555
O4 C24 1_555 1_555
C25 C24 1_555 1_555
C26 C25 1_555 1_555
C27 C26 1_555 1_555
O5 C27 1_555 1_555
O6 C27 1_555 1_555
H1 C2 1_555 1_555
H2 C3 1_555 1_555
H3 C4 1_555 1_555
H4 C4 1_555 1_555
H5 C6 1_555 1_555
H6 C7 1_555 1_555
H7 C8 1_555 1_555
H8 C12 1_555 1_555
H9 C13 1_555 1_555
H10 C15 1_555 1_555
H11 C16 1_555 1_555
H12 C17 1_555 1_555
H13 C17 1_555 1_555
H14 C17 1_555 1_555
H15 C18 1_555 1_555
H16 C18 1_555 1_555
H17 C19 1_555 1_555
H18 C19 1_555 1_555
H19 C20 1_555 1_555
H20 C20 1_555 1_555
H21 C20 1_555 1_555
H22 C21 1_555 1_555
H23 C21 1_555 1_555
H24 C21 1_555 1_555
H25 C22 1_555 1_555
H26 C22 1_555 1_555
H27 C22 1_555 1_555
H28 C25 1_555 1_555
H29 C26 1_555 1_555
C5 C10 1_555 1_555
C9 C10 1_555 1_555
C15 C16 1_555 1_555

#END
