
#######################################################################
#
#                 Cambridge Crystallographic Data Centre
#                                CCDC 
#
#######################################################################
#
# If this CIF has been generated from an entry in the Cambridge 
# Structural Database, then it will include bibliographic, chemical, 
# crystal, experimental, refinement or atomic coordinate data resulting 
# from the CCDC's data processing and validation procedures.
#
#######################################################################

data_SUBSOX
_chemical_formula_moiety         'C25 H29 F3 N2 O2'
_chemical_name_systematic        
(3R,4S)-1-(2-(Dimethylamino)ethyl)-1,3,4,5-tetrahydro-4-(4-methoxyphenyl)-3-allyl-6-(trifluoromethyl)-2H-1-benzazepin-2-one
_chemical_properties_biological  'antihypertensive activity'
_symmetry_cell_setting           orthorhombic
_symmetry_space_group_name_H-M   'P 21 21 21'
_symmetry_Int_Tables_number      19
_space_group_name_Hall           'P 2ac 2ab'
loop_
_symmetry_equiv_pos_site_id
_symmetry_equiv_pos_as_xyz
1 x,y,z
2 1/2+x,1/2-y,-z
3 -x,1/2+y,1/2-z
4 1/2-x,-y,1/2+z
_cell_length_a                   10.277(1)
_cell_length_b                   12.829(2)
_cell_length_c                   17.728(1)
_cell_angle_alpha                90
_cell_angle_beta                 90
_cell_angle_gamma                90
_cell_volume                     2337.32
_cell_formula_units_Z            4
loop_
_atom_site_label
_atom_site_type_symbol
_atom_site_fract_x
_atom_site_fract_y
_atom_site_fract_z
N1 N 0.6443(4) 0.5834(3) 0.4687(2)
C1 C 0.6423(5) 0.5573(4) 0.3938(3)
O1 O 0.5453(3) 0.5236(3) 0.3625(2)
C2 C 0.7692(5) 0.5756(4) 0.3515(3)
C3 C 0.8691(5) 0.4889(4) 0.3683(3)
C4 C 0.8719(5) 0.4625(3) 0.4532(3)
C5 C 0.9822(5) 0.5945(4) 0.5419(3)
C6 C 0.9754(6) 0.6835(5) 0.5856(3)
C7 C 0.8609(6) 0.7396(4) 0.5902(3)
C8 C 0.7527(6) 0.7061(4) 0.5515(3)
C9 C 0.7601(5) 0.6179(4) 0.5075(3)
C10 C 0.8741(5) 0.5587(3) 0.5021(2)
C11 C 0.8525(4) 0.3896(4) 0.3228(3)
C12 C 0.7585(5) 0.3160(4) 0.3391(3)
C13 C 0.7502(5) 0.2221(4) 0.2999(3)
C14 C 0.8382(5) 0.2004(4) 0.2436(3)
C15 C 0.9314(5) 0.2730(4) 0.2258(3)
C16 C 0.9390(5) 0.3651(4) 0.2650(3)
O2 O 0.8409(4) 0.1103(3) 0.2035(2)
C17 C 0.7486(6) 0.0311(4) 0.2215(3)
C18 C 0.7465(6) 0.5927(5) 0.2667(3)
C19 C 0.673(1) 0.6895(6) 0.2509(3)
C20 C 0.626(1) 0.7404(8) 0.2214(4)
C21 C 0.5269(5) 0.5631(4) 0.5148(3)
C22 C 0.5450(5) 0.4677(4) 0.5641(3)
N2 N 0.5658(4) 0.3724(3) 0.5209(2)
C23 C 0.4476(6) 0.3364(5) 0.4858(3)
C24 C 0.6197(6) 0.2908(5) 0.5688(4)
C25 C 1.1082(5) 0.5366(5) 0.5391(3)
F1 F 1.0967(3) 0.4411(3) 0.5703(2)
F2 F 1.2031(3) 0.5843(3) 0.5768(2)
F3 F 1.1524(3) 0.5215(3) 0.4699(2)
H1 H 0.8058 0.6392 0.3691
H2 H 0.9516 0.5165 0.3542
H3 H 0.9465 0.4235 0.4630
H4 H 0.7956 0.4253 0.4645
H5 H 1.0489 0.7060 0.6129
H6 H 0.8572 0.8017 0.6201
H7 H 0.6718 0.7390 0.5572
H8 H 0.6999 0.3273 0.3804
H9 H 0.6814 0.1756 0.3104
H10 H 0.9940 0.2550 0.1879
H11 H 1.0024 0.4165 0.2500
H12 H 0.7622 -0.0249 0.1900
H13 H 0.7573 0.0158 0.2723
H14 H 0.6654 0.0627 0.2117
H15 H 0.8287 0.5917 0.2408
H16 H 0.6948 0.5364 0.2474
H17 H 0.7027 0.7361 0.2937
H18 H 0.6064 0.8086 0.2381
H19 H 0.5874 0.7148 0.1758
H20 H 0.5095 0.6198 0.5457
H21 H 0.4562 0.5489 0.4817
H22 H 0.6190 0.4799 0.5949
H23 H 0.4700 0.4607 0.5941
H24 H 0.4153 0.3903 0.4546
H25 H 0.4661 0.2764 0.4555
H26 H 0.3860 0.3188 0.5231
H27 H 0.6985 0.3194 0.5906
H28 H 0.5608 0.2752 0.6069
H29 H 0.6409 0.2328 0.5393
loop_
_geom_bond_atom_site_label_1
_geom_bond_atom_site_label_2
_geom_bond_site_symmetry_1
_geom_bond_site_symmetry_2
N1 C1 1_555 1_555
C1 O1 1_555 1_555
C2 C1 1_555 1_555
C3 C2 1_555 1_555
C4 C3 1_555 1_555
C5 C6 1_555 1_555
C6 C7 1_555 1_555
C7 C8 1_555 1_555
C8 C9 1_555 1_555
C9 N1 1_555 1_555
C10 C4 1_555 1_555
C11 C3 1_555 1_555
C12 C11 1_555 1_555
C13 C12 1_555 1_555
C14 C13 1_555 1_555
C15 C14 1_555 1_555
C16 C11 1_555 1_555
O2 C14 1_555 1_555
C17 O2 1_555 1_555
C18 C2 1_555 1_555
C19 C18 1_555 1_555
C20 C19 1_555 1_555
C21 N1 1_555 1_555
C22 C21 1_555 1_555
N2 C22 1_555 1_555
C23 N2 1_555 1_555
C24 N2 1_555 1_555
C25 C5 1_555 1_555
F1 C25 1_555 1_555
F2 C25 1_555 1_555
F3 C25 1_555 1_555
H1 C2 1_555 1_555
H2 C3 1_555 1_555
H3 C4 1_555 1_555
H4 C4 1_555 1_555
H5 C6 1_555 1_555
H6 C7 1_555 1_555
H7 C8 1_555 1_555
H8 C12 1_555 1_555
H9 C13 1_555 1_555
H10 C15 1_555 1_555
H11 C16 1_555 1_555
H12 C17 1_555 1_555
H13 C17 1_555 1_555
H14 C17 1_555 1_555
H15 C18 1_555 1_555
H16 C18 1_555 1_555
H17 C19 1_555 1_555
H18 C20 1_555 1_555
H19 C20 1_555 1_555
H20 C21 1_555 1_555
H21 C21 1_555 1_555
H22 C22 1_555 1_555
H23 C22 1_555 1_555
H24 C23 1_555 1_555
H25 C23 1_555 1_555
H26 C23 1_555 1_555
H27 C24 1_555 1_555
H28 C24 1_555 1_555
H29 C24 1_555 1_555
C5 C10 1_555 1_555
C9 C10 1_555 1_555
C15 C16 1_555 1_555

#END
