
#######################################################################
#
#                 Cambridge Crystallographic Data Centre
#                                CCDC 
#
#######################################################################
#
# If this CIF has been generated from an entry in the Cambridge 
# Structural Database, then it will include bibliographic, chemical, 
# crystal, experimental, refinement or atomic coordinate data resulting 
# from the CCDC's data processing and validation procedures.
#
#######################################################################

data_SUBTAK
_chemical_formula_moiety         'C24 H29 F3 N2 O2'
_chemical_name_systematic        
(3S,4S)-1-(2-(Dimethylamino)ethyl)-1,3,4,5-tetrahydro-4-(4-methoxyphenyl)-3-ethyl-6-(trifluoromethyl)-2H-1-benzazepin-2-one
_symmetry_cell_setting           orthorhombic
_symmetry_space_group_name_H-M   'P 21 21 21'
_symmetry_Int_Tables_number      19
_space_group_name_Hall           'P 2ac 2ab'
loop_
_symmetry_equiv_pos_site_id
_symmetry_equiv_pos_as_xyz
1 x,y,z
2 1/2+x,1/2-y,-z
3 -x,1/2+y,1/2-z
4 1/2-x,-y,1/2+z
_cell_length_a                   10.048(4)
_cell_length_b                   12.479(3)
_cell_length_c                   18.186(5)
_cell_angle_alpha                90
_cell_angle_beta                 90
_cell_angle_gamma                90
_cell_volume                     2280.32
_cell_formula_units_Z            4
loop_
_atom_site_label
_atom_site_type_symbol
_atom_site_fract_x
_atom_site_fract_y
_atom_site_fract_z
N1 N 0.1825(3) 0.6299(2) 1.0129(2)
C1 C 0.1379(4) 0.6342(3) 1.0836(2)
O1 O 0.0580(3) 0.7015(2) 1.1038(2)
C2 C 0.1941(4) 0.5494(3) 1.1354(2)
C3 C 0.1197(4) 0.4424(3) 1.1233(2)
C4 C 0.0996(4) 0.4156(3) 1.0408(2)
C5 C 0.2920(4) 0.3580(3) 0.9556(2)
C6 C 0.4036(4) 0.3837(4) 0.9146(2)
C7 C 0.4451(4) 0.4891(4) 0.9092(2)
C8 C 0.3720(4) 0.5690(3) 0.9428(2)
C9 C 0.2612(4) 0.5435(3) 0.9837(2)
C10 C 0.2202(4) 0.4378(3) 0.9938(2)
C11 C 0.1820(4) 0.3533(3) 1.1674(2)
C12 C 0.3153(4) 0.3228(3) 1.1567(2)
C13 C 0.3721(4) 0.2415(3) 1.1968(2)
C14 C 0.2993(4) 0.1902(3) 1.2514(2)
C15 C 0.1697(4) 0.2198(3) 1.2637(2)
C16 C 0.1116(4) 0.3006(3) 1.2213(2)
O2 O 0.3682(3) 0.1131(2) 1.2902(2)
C17 C 0.2942(6) 0.0417(4) 1.3342(3)
C18 C 0.1862(4) 0.5862(3) 1.2157(2)
C19 C 0.2698(5) 0.6842(4) 1.2323(2)
C20 C 0.1265(5) 0.7084(3) 0.9604(2)
C21 C -0.0162(5) 0.6829(4) 0.9376(2)
N2 N -0.0328(4) 0.5772(3) 0.9089(2)
C22 C 0.0248(6) 0.5653(4) 0.8364(3)
C23 C -0.1704(6) 0.5459(5) 0.9067(3)
C24 C 0.2451(5) 0.2431(4) 0.9553(2)
F1 F 0.3202(3) 0.1818(2) 0.9114(2)
F2 F 0.2427(3) 0.1983(2) 1.0205(1)
F3 F 0.1218(3) 0.2349(2) 0.9281(1)
H1 H 0.2878 0.5408 1.1244
H2 H 0.0308 0.4495 1.1430
H3 H 0.0256 0.4542 1.0211
H4 H 0.0777 0.3390 1.0353
H5 H 0.4526 0.3260 0.8905
H6 H 0.5253 0.5062 0.8817
H7 H 0.4026 0.6439 0.9398
H8 H 0.3680 0.3600 1.1200
H9 H 0.4622 0.2186 1.1867
H10 H 0.1200 0.1834 1.3011
H11 H 0.0225 0.3245 1.2324
H12 H 0.3461 -0.0076 1.3599
H13 H 0.2393 0.0808 1.3707
H14 H 0.2288 0.0023 1.3048
H15 H 0.0983 0.6071 1.2276
H16 H 0.2153 0.5316 1.2478
H17 H 0.2643 0.7025 1.2822
H18 H 0.3631 0.6652 1.2219
H19 H 0.2461 0.7408 1.2017
H20 H 0.1819 0.7060 0.9171
H21 H 0.1313 0.7771 0.9812
H22 H -0.0430 0.7345 0.9014
H23 H -0.0717 0.6912 0.9797
H24 H 0.1151 0.58820 0.8371
H25 H 0.0196 0.4934 0.8209
H26 H -0.0226 0.6096 0.8015
H27 H -0.2151 0.5508 0.9510
H28 H -0.2209 0.5869 0.8694
H29 H -0.1787 0.4708 0.8889
loop_
_geom_bond_atom_site_label_1
_geom_bond_atom_site_label_2
_geom_bond_site_symmetry_1
_geom_bond_site_symmetry_2
N1 C1 1_555 1_555
C1 O1 1_555 1_555
C2 C1 1_555 1_555
C3 C2 1_555 1_555
C4 C3 1_555 1_555
C5 C6 1_555 1_555
C6 C7 1_555 1_555
C7 C8 1_555 1_555
C8 C9 1_555 1_555
C9 N1 1_555 1_555
C10 C4 1_555 1_555
C11 C3 1_555 1_555
C12 C11 1_555 1_555
C13 C12 1_555 1_555
C14 C13 1_555 1_555
C15 C14 1_555 1_555
C16 C11 1_555 1_555
O2 C14 1_555 1_555
C17 O2 1_555 1_555
C18 C2 1_555 1_555
C19 C18 1_555 1_555
C20 N1 1_555 1_555
C21 C20 1_555 1_555
N2 C21 1_555 1_555
C22 N2 1_555 1_555
C23 N2 1_555 1_555
C24 C5 1_555 1_555
F1 C24 1_555 1_555
F2 C24 1_555 1_555
F3 C24 1_555 1_555
H1 C2 1_555 1_555
H2 C3 1_555 1_555
H3 C4 1_555 1_555
H4 C4 1_555 1_555
H5 C6 1_555 1_555
H6 C7 1_555 1_555
H7 C8 1_555 1_555
H8 C12 1_555 1_555
H9 C13 1_555 1_555
H10 C15 1_555 1_555
H11 C16 1_555 1_555
H12 C17 1_555 1_555
H13 C17 1_555 1_555
H14 C17 1_555 1_555
H15 C18 1_555 1_555
H16 C18 1_555 1_555
H17 C19 1_555 1_555
H18 C19 1_555 1_555
H19 C19 1_555 1_555
H20 C20 1_555 1_555
H21 C20 1_555 1_555
H22 C21 1_555 1_555
H23 C21 1_555 1_555
H24 C22 1_555 1_555
H25 C22 1_555 1_555
H26 C22 1_555 1_555
H27 C23 1_555 1_555
H28 C23 1_555 1_555
H29 C23 1_555 1_555
C5 C10 1_555 1_555
C9 C10 1_555 1_555
C15 C16 1_555 1_555

#END
