
#######################################################################
#
#                 Cambridge Crystallographic Data Centre
#                                CCDC 
#
#######################################################################
#
# If this CIF has been generated from an entry in the Cambridge 
# Structural Database, then it will include bibliographic, chemical, 
# crystal, experimental, refinement or atomic coordinate data resulting 
# from the CCDC's data processing and validation procedures.
#
#######################################################################

data_SUCGUS
_chemical_formula_moiety         'C13 H9 N1 O3'
_chemical_name_systematic        
2-Cyano-5-oxatricyclo(7.4.0.0^3,7^)tetradeca-1(9),10,12-trien-4,6-dione
_symmetry_cell_setting           orthorhombic
_symmetry_space_group_name_H-M   'P c a 21'
_symmetry_Int_Tables_number      29
_space_group_name_Hall           'P 2c -2ac'
loop_
_symmetry_equiv_pos_site_id
_symmetry_equiv_pos_as_xyz
1 x,y,z
2 1/2-x,y,1/2+z
3 1/2+x,-y,z
4 -x,-y,1/2+z
_cell_length_a                   14.9067(13)
_cell_length_b                   6.8114(9)
_cell_length_c                   20.719(7)
_cell_angle_alpha                90
_cell_angle_beta                 90
_cell_angle_gamma                90
_cell_volume                     2103.71
_chemical_melting_point          158-160deg.C
_cell_formula_units_Z            8
loop_
_atom_site_label
_atom_site_type_symbol
_atom_site_fract_x
_atom_site_fract_y
_atom_site_fract_z
O1 O 0.6476(3) 0.1188(8) 0.547(1)
O2 O 0.5698(3) 0.3841(8) 0.577(1)
O3 O 0.6912(4) -0.1838(9) 0.518(1)
N1 N 0.3545(5) 0.4842(8) 0.553(1)
C1 C 0.5688(5) 0.213(1) 0.564(1)
C2 C 0.4916(4) 0.071(1) 0.564(1)
C3 C 0.4171(4) 0.1410(9) 0.517(1)
C4 C 0.4517(4) 0.135(1) 0.447(1)
C5 C 0.4451(5) 0.292(1) 0.405(1)
C6 C 0.4795(5) 0.270(1) 0.343(1)
C7 C 0.5173(5) 0.094(1) 0.324(1)
C8 C 0.5243(5) -0.058(1) 0.366(1)
C9 C 0.4911(5) -0.041(1) 0.430(1)
C10 C 0.4952(5) -0.203(1) 0.477(1)
C11 C 0.5330(4) -0.126(1) 0.544(1)
C12 C 0.6314(5) -0.083(1) 0.535(1)
C13 C 0.3816(5) 0.337(1) 0.537(1)
H1 H 0.4608 0.0633 0.6127
H2 H 0.3624 0.0362 0.5177
H3 H 0.4141 0.4301 0.4219
H4 H 0.4745 0.3941 0.3083
H5 H 0.5432 0.0792 0.2740
H6 H 0.5534 -0.1973 0.3490
H7 H 0.4303 -0.2700 0.4837
H8 H 0.5427 -0.3173 0.4592
H9 H 0.5150 -0.2376 0.5816
O4 O 0.4074(3) 0.6405(7) 0.689(1)
O5 O 0.3288(4) 0.9055(8) 0.658(1)
O6 O 0.4496(4) 0.3433(9) 0.722(1)
N2 N 0.1150(5) 1.0167(9) 0.691(1)
C14 C 0.3277(5) 0.738(1) 0.673(1)
C15 C 0.2503(5) 0.596(1) 0.678(1)
C16 C 0.1774(4) 0.6726(9) 0.725(1)
C17 C 0.2127(4) 0.667(1) 0.794(1)
C18 C 0.2071(5) 0.821(1) 0.837(1)
C19 C 0.2410(5) 0.798(1) 0.901(1)
C20 C 0.2778(5) 0.623(1) 0.920(1)
C21 C 0.2823(6) 0.469(1) 0.877(1)
C22 C 0.2511(5) 0.4883(9) 0.814(1)
C23 C 0.2549(5) 0.3258(9) 0.765(1)
C24 C 0.2908(4) 0.4022(9) 0.699(1)
C25 C 0.3898(5) 0.446(1) 0.705(1)
C26 C 0.1427(5) 0.869(1) 0.707(1)
H10 H 0.2142 0.5822 0.6313
H11 H 0.1200 0.5679 0.7248
H12 H 0.1758 0.9611 0.8215
H13 H 0.2420 0.9205 0.9359
H14 H 0.3013 0.6038 0.9702
H15 H 0.3141 0.3317 0.8930
H16 H 0.2985 0.2066 0.7840
H17 H 0.1870 0.2624 0.7594
H18 H 0.2747 0.2842 0.6648
loop_
_geom_bond_atom_site_label_1
_geom_bond_atom_site_label_2
_geom_bond_site_symmetry_1
_geom_bond_site_symmetry_2
O1 C1 1_555 1_555
O2 C1 1_555 1_555
O3 C12 1_555 1_555
N1 C13 1_555 1_555
C1 C2 1_555 1_555
C2 C3 1_555 1_555
C3 C4 1_555 1_555
C4 C5 1_555 1_555
C5 C6 1_555 1_555
C6 C7 1_555 1_555
C7 C8 1_555 1_555
C8 C9 1_555 1_555
C9 C4 1_555 1_555
C10 C9 1_555 1_555
C11 C2 1_555 1_555
C12 O1 1_555 1_555
C13 C3 1_555 1_555
O4 C14 1_555 1_555
O5 C14 1_555 1_555
O6 C25 1_555 1_555
N2 C26 1_555 1_555
C14 C15 1_555 1_555
C15 C16 1_555 1_555
C16 C17 1_555 1_555
C17 C18 1_555 1_555
C18 C19 1_555 1_555
C19 C20 1_555 1_555
C20 C21 1_555 1_555
C21 C22 1_555 1_555
C22 C17 1_555 1_555
C23 C22 1_555 1_555
C24 C15 1_555 1_555
C25 O4 1_555 1_555
C26 C16 1_555 1_555
H1 C2 1_555 1_555
H2 C3 1_555 1_555
H3 C5 1_555 1_555
H4 C6 1_555 1_555
H5 C7 1_555 1_555
H6 C8 1_555 1_555
H7 C10 1_555 1_555
H8 C10 1_555 1_555
H9 C11 1_555 1_555
H10 C15 1_555 1_555
H11 C16 1_555 1_555
H12 C18 1_555 1_555
H13 C19 1_555 1_555
H14 C20 1_555 1_555
H15 C21 1_555 1_555
H16 C23 1_555 1_555
H17 C23 1_555 1_555
H18 C24 1_555 1_555
C10 C11 1_555 1_555
C11 C12 1_555 1_555
C23 C24 1_555 1_555
C24 C25 1_555 1_555

#END
