
#######################################################################
#
#                 Cambridge Crystallographic Data Centre
#                                CCDC 
#
#######################################################################
#
# If this CIF has been generated from an entry in the Cambridge 
# Structural Database, then it will include bibliographic, chemical, 
# crystal, experimental, refinement or atomic coordinate data resulting 
# from the CCDC's data processing and validation procedures.
#
#######################################################################

data_SUCHED
_chemical_formula_moiety         'C14 H11 N1 O3'
_chemical_name_systematic        
2-Cyano-2-methyl-5-oxatricyclo(7.4.0.0^3,7^)trideca-1(9),10,12-triene-4,6-dione
_symmetry_cell_setting           orthorhombic
_symmetry_space_group_name_H-M   'P n a 21'
_symmetry_Int_Tables_number      33
_space_group_name_Hall           'P 2c -2n'
loop_
_symmetry_equiv_pos_site_id
_symmetry_equiv_pos_as_xyz
1 x,y,z
2 1/2-x,1/2+y,1/2+z
3 1/2+x,1/2-y,z
4 -x,-y,1/2+z
_cell_length_a                   12.475(3)
_cell_length_b                   7.848(1)
_cell_length_c                   23.666(5)
_cell_angle_alpha                90
_cell_angle_beta                 90
_cell_angle_gamma                90
_cell_volume                     2316.99
_chemical_melting_point          139-140deg.C
_cell_formula_units_Z            8
loop_
_atom_site_label
_atom_site_type_symbol
_atom_site_fract_x
_atom_site_fract_y
_atom_site_fract_z
O1 O 0.7779(7) 0.009(1) -0.022(1)
O2 O 0.9331(9) 0.105(2) -0.054(2)
O3 O 0.6451(8) -0.114(2) 0.025(1)
N1 N 1.0857(8) -0.181(2) 0.145(1)
C1 C 0.889(1) 0.018(2) -0.019(2)
C2 C 0.9300(9) -0.084(2) 0.029(2)
C3 C 1.006(1) 0.019(2) 0.065(2)
C4 C 0.9431(9) 0.164(2) 0.097(1)
C5 C 0.975(1) 0.328(2) 0.099(1)
C6 C 0.919(1) 0.451(2) 0.128(2)
C7 C 0.825(2) 0.407(2) 0.151(2)
C8 C 0.779(2) 0.234(2) 0.151(2)
C9 C 0.8473(9) 0.110(2) 0.120(2)
C10 C 0.812(1) -0.069(2) 0.119(1)
C11 C 0.8306(9) -0.141(2) 0.059(1)
C12 C 0.738(1) -0.086(2) 0.021(2)
C13 C 1.052(1) -0.095(2) 0.110(1)
C14 C 1.105(1) 0.087(2) 0.032(2)
H1 H 0.9765 -0.1940 0.0178
H2 H 1.0531 0.3532 0.0780
H3 H 0.9528 0.5847 0.1348
H4 H 0.7762 0.5055 0.1737
H5 H 0.7017 0.2015 0.1761
H6 H 0.8599 -0.1415 0.1522
H7 H 0.7283 -0.0757 0.1331
H8 H 0.8393 -0.2792 0.0658
H9 H 1.1480 -0.0190 0.0150
H10 H 1.0752 0.1707 -0.0001
H11 H 1.1613 0.1614 0.0593
O4 O 0.4772(7) -0.008(2) 0.926(1)
O5 O 0.3185(9) -0.094(2) 0.959(1)
O6 O 0.6088(8) 0.120(2) 0.877(1)
N2 N 0.171(1) 0.175(2) 0.756(2)
C15 C 0.367(1) -0.016(2) 0.926(1)
C16 C 0.323(1) 0.089(2) 0.875(1)
C17 C 0.245(1) -0.022(2) 0.838(2)
C18 C 0.310(1) -0.157(2) 0.810(2)
C19 C 0.271(1) -0.327(3) 0.808(2)
C20 C 0.339(2) -0.440(2) 0.779(2)
C21 C 0.432(2) -0.399(3) 0.754(2)
C22 C 0.461(1) -0.243(2) 0.758(2)
C23 C 0.407(1) -0.123(2) 0.782(2)
C24 C 0.4413(9) 0.068(2) 0.785(1)
C25 C 0.4275(9) 0.151(2) 0.844(1)
C26 C 0.515(1) 0.093(2) 0.881(2)
C27 C 0.2031(9) 0.097(2) 0.791(2)
C28 C 0.149(1) -0.081(2) 0.873(2)
H12 H 0.2730 0.2071 0.8895
H13 H 0.1993 -0.3859 0.8294
H14 H 0.3207 -0.5766 0.7785
H15 H 0.4831 -0.4915 0.7312
H16 H 0.5420 -0.2072 0.7426
H17 H 0.5258 0.0833 0.7744
H18 H 0.3926 0.1408 0.7555
H19 H 0.4208 0.2913 0.8386
H20 H 0.1760 -0.1595 0.9111
H21 H 0.1010 0.0216 0.8890
H22 H 0.0958 -0.1699 0.8494
loop_
_geom_bond_atom_site_label_1
_geom_bond_atom_site_label_2
_geom_bond_site_symmetry_1
_geom_bond_site_symmetry_2
O1 C1 1_555 1_555
O2 C1 1_555 1_555
O3 C12 1_555 1_555
N1 C13 1_555 1_555
C1 C2 1_555 1_555
C2 C3 1_555 1_555
C3 C4 1_555 1_555
C4 C5 1_555 1_555
C5 C6 1_555 1_555
C6 C7 1_555 1_555
C7 C8 1_555 1_555
C8 C9 1_555 1_555
C9 C4 1_555 1_555
C10 C9 1_555 1_555
C11 C2 1_555 1_555
C12 O1 1_555 1_555
C13 C3 1_555 1_555
C14 C3 1_555 1_555
O4 C15 1_555 1_555
O5 C15 1_555 1_555
O6 C26 1_555 1_555
N2 C27 1_555 1_555
C15 C16 1_555 1_555
C16 C17 1_555 1_555
C17 C18 1_555 1_555
C18 C19 1_555 1_555
C19 C20 1_555 1_555
C20 C21 1_555 1_555
C21 C22 1_555 1_555
C22 C23 1_555 1_555
C23 C18 1_555 1_555
C24 C23 1_555 1_555
C25 C16 1_555 1_555
C26 O4 1_555 1_555
C27 C17 1_555 1_555
C28 C17 1_555 1_555
H1 C2 1_555 1_555
H2 C5 1_555 1_555
H3 C6 1_555 1_555
H4 C7 1_555 1_555
H5 C8 1_555 1_555
H6 C10 1_555 1_555
H7 C10 1_555 1_555
H8 C11 1_555 1_555
H9 C14 1_555 1_555
H10 C14 1_555 1_555
H11 C14 1_555 1_555
H12 C16 1_555 1_555
H13 C19 1_555 1_555
H14 C20 1_555 1_555
H15 C21 1_555 1_555
H16 C22 1_555 1_555
H17 C24 1_555 1_555
H18 C24 1_555 1_555
H19 C25 1_555 1_555
H20 C28 1_555 1_555
H21 C28 1_555 1_555
H22 C28 1_555 1_555
C10 C11 1_555 1_555
C11 C12 1_555 1_555
C24 C25 1_555 1_555
C25 C26 1_555 1_555

#END
