
#######################################################################
#
#                 Cambridge Crystallographic Data Centre
#                                CCDC 
#
#######################################################################
#
# If this CIF has been generated from an entry in the Cambridge 
# Structural Database, then it will include bibliographic, chemical, 
# crystal, experimental, refinement or atomic coordinate data resulting 
# from the CCDC's data processing and validation procedures.
#
#######################################################################

data_SUCMIM
_chemical_formula_moiety         'C36 H46 N4 O2'
_chemical_name_systematic        
2,7-Dioxo-3,3,8,8,12,13,17,18-octaethylporphyrin
_symmetry_cell_setting           monoclinic
_symmetry_space_group_name_H-M   'C 2/c'
_symmetry_Int_Tables_number      15
_space_group_name_Hall           '-C 2yn'
loop_
_symmetry_equiv_pos_site_id
_symmetry_equiv_pos_as_xyz
1 x,y,z
2 1/2+x,1/2+y,z
3 -x,y,1/2-z
4 1/2-x,1/2+y,1/2-z
5 -x,-y,-z
6 1/2-x,1/2-y,-z
7 x,-y,1/2+z
8 1/2+x,1/2-y,1/2+z
_cell_length_a                   30.799(10)
_cell_length_b                   20.806(19)
_cell_length_c                   13.275(7)
_cell_angle_alpha                90
_cell_angle_beta                 103.96(4)
_cell_angle_gamma                90
_cell_volume                     8255.42
_cell_formula_units_Z            8
loop_
_atom_site_label
_atom_site_type_symbol
_atom_site_fract_x
_atom_site_fract_y
_atom_site_fract_z
N1 N 0.2576(2) 0.4272(4) -0.1061(6)
N2 N 0.3517(2) 0.4317(4) 0.0384(6)
N3 N 0.3266(2) 0.3388(4) 0.1701(5)
N4 N 0.2313(2) 0.3350(4) 0.0245(6)
O1 O 0.1705(2) 0.4585(4) -0.3228(6)
O2 O 0.4153(2) 0.5373(4) -0.0742(6)
C1 C 0.2137(3) 0.4188(5) -0.1599(7)
C2 C 0.2051(3) 0.4584(5) -0.2545(8)
C3 C 0.2458(3) 0.4961(5) -0.2543(7)
C4 C 0.2771(3) 0.4696(5) -0.1559(7)
C5 C 0.3227(3) 0.4898(5) -0.1221(8)
C6 C 0.3546(3) 0.4736(5) -0.0385(7)
C7 C 0.4004(3) 0.5019(5) -0.0206(8)
C8 C 0.4268(3) 0.4748(5) 0.0863(8)
C9 C 0.3914(3) 0.4289(5) 0.1136(7)
C10 C 0.3995(3) 0.3917(5) 0.1998(7)
C11 C 0.3695(3) 0.3485(5) 0.2265(7)
C12 C 0.3767(3) 0.3071(5) 0.3109(7)
C13 C 0.3384(3) 0.2713(5) 0.3046(7)
C14 C 0.3059(3) 0.2915(5) 0.2145(7)
C15 C 0.2639(3) 0.2699(5) 0.1827(7)
C16 C 0.2301(3) 0.2884(5) 0.1000(8)
C17 C 0.1847(3) 0.2643(5) 0.0699(8)
C18 C 0.1615(3) 0.2963(5) -0.0179(8)
C19 C 0.1917(3) 0.3390(5) -0.0468(7)
C20 C 0.1838(3) 0.3779(5) -0.1322(8)
C21 C 0.2632(4) 0.4846(6) -0.3520(9)
C22 C 0.2747(4) 0.4160(9) -0.3665(9)
C23 C 0.2360(4) 0.5666(6) -0.2492(9)
C24 C 0.2168(5) 0.5864(7) -0.1592(11)
C25 C 0.4687(3) 0.4384(6) 0.0766(9)
C26 C 0.4595(4) 0.3861(7) -0.0062(11)
C27 C 0.4397(4) 0.5302(6) 0.1634(8)
C28 C 0.4011(4) 0.5723(7) 0.1778(10)
C29 C 0.4204(4) 0.3017(6) 0.3900(9)
C30 C 0.4542(5) 0.2587(7) 0.3524(11)
C31 C 0.3299(4) 0.2221(5) 0.3785(8)
C32 C 0.3085(5) 0.2495(8) 0.4608(11)
C33 C 0.1681(3) 0.2118(5) 0.1324(9)
C34 C 0.1535(5) 0.2376(7) 0.2265(11)
C35 C 0.1137(4) 0.2858(6) -0.0734(9)
C36 C 0.0838(4) 0.3279(9) -0.0369(13)
loop_
_geom_bond_atom_site_label_1
_geom_bond_atom_site_label_2
_geom_bond_site_symmetry_1
_geom_bond_site_symmetry_2
N1 C1 1_555 1_555
N2 C6 1_555 1_555
N3 C11 1_555 1_555
N4 C16 1_555 1_555
O1 C2 1_555 1_555
O2 C7 1_555 1_555
C1 C2 1_555 1_555
C2 C3 1_555 1_555
C3 C4 1_555 1_555
C4 N1 1_555 1_555
C5 C4 1_555 1_555
C6 C5 1_555 1_555
C7 C6 1_555 1_555
C8 C7 1_555 1_555
C9 N2 1_555 1_555
C10 C9 1_555 1_555
C11 C10 1_555 1_555
C12 C11 1_555 1_555
C13 C12 1_555 1_555
C14 N3 1_555 1_555
C15 C14 1_555 1_555
C16 C15 1_555 1_555
C17 C16 1_555 1_555
C18 C17 1_555 1_555
C19 N4 1_555 1_555
C20 C1 1_555 1_555
C21 C3 1_555 1_555
C22 C21 1_555 1_555
C23 C3 1_555 1_555
C24 C23 1_555 1_555
C25 C8 1_555 1_555
C26 C25 1_555 1_555
C27 C8 1_555 1_555
C28 C27 1_555 1_555
C29 C12 1_555 1_555
C30 C29 1_555 1_555
C31 C13 1_555 1_555
C32 C31 1_555 1_555
C33 C17 1_555 1_555
C34 C33 1_555 1_555
C35 C18 1_555 1_555
C36 C35 1_555 1_555
C8 C9 1_555 1_555
C13 C14 1_555 1_555
C18 C19 1_555 1_555
C19 C20 1_555 1_555

#END
