
#######################################################################
#
#                 Cambridge Crystallographic Data Centre
#                                CCDC 
#
#######################################################################
#
# If this CIF has been generated from an entry in the Cambridge 
# Structural Database, then it will include bibliographic, chemical, 
# crystal, experimental, refinement or atomic coordinate data resulting 
# from the CCDC's data processing and validation procedures.
#
#######################################################################

data_SUCROS15
_chemical_name_common            Sucrose
_chemical_formula_moiety         'C12 H22 O11'
_chemical_name_systematic        \b-D-Fructofuranosyl-\a-D-glucopyranoside
_symmetry_cell_setting           monoclinic
_symmetry_space_group_name_H-M   'P 21'
_symmetry_Int_Tables_number      4
_space_group_name_Hall           'P 2yb'
loop_
_symmetry_equiv_pos_site_id
_symmetry_equiv_pos_as_xyz
1 x,y,z
2 -x,1/2+y,-z
_cell_length_a                   7.7735(12)
_cell_length_b                   8.7169(13)
_cell_length_c                   10.8765(17)
_cell_angle_alpha                90
_cell_angle_beta                 102.936(4)
_cell_angle_gamma                90
_cell_volume                     718.296
_exptl_crystal_colour            colorless
_exptl_crystal_description       block
_cell_formula_units_Z            2
loop_
_atom_site_label
_atom_site_type_symbol
_atom_site_fract_x
_atom_site_fract_y
_atom_site_fract_z
O1 O 0.7461(9) 0.8285(9) 0.2283(6)
O2 O 0.6192(8) 1.0306(8) 0.0320(6)
O3 O 0.3914(9) 0.9212(7) 0.1713(6)
O4 O -0.0931(9) 1.1657(8) -0.0170(6)
O5 O 0.3142(9) 1.1739(9) 0.2121(6)
O6 O 0.2828(9) 0.7237(9) 0.5800(7)
O7 O 0.0428(9) 1.0289(9) 0.3237(6)
O8 O 0.3707(9) 0.8661(7) 0.3784(6)
O9 O 0.6975(10) 0.5227(8) 0.3042(7)
O10 O 0.2053(8) 0.9446(7) -0.0723(6)
O11 O 0.3558(11) 0.4497(8) 0.3488(7)
C1 C 0.1274(14) 1.2027(11) 0.1751(10)
C2 C 0.6333(15) 0.7885(12) 0.3167(10)
C3 C 0.2145(14) 1.0718(11) 0.0073(9)
C4 C 0.5418(13) 1.1406(13) 0.1062(10)
C5 C 0.3670(14) 1.0722(12) 0.1239(10)
C6 C 0.5652(15) 0.6319(14) 0.2830(11)
C7 C 0.0410(14) 1.1855(10) 0.2854(10)
C8 C 0.0584(14) 1.1027(13) 0.0668(10)
C9 C 0.2957(16) 0.7145(12) 0.3612(10)
C10 C 0.4840(13) 0.9119(14) 0.2986(10)
C11 C 0.1835(14) 0.6960(13) 0.4547(10)
C12 C 0.4477(16) 0.5989(12) 0.3748(10)
H1 H 0.1103 1.3090 0.1457
H2 H 0.7028 0.7914 0.4038
H3 H 0.2279 1.1634 -0.0419
H4 H 0.6220 1.1586 0.1870
H5 H 0.5209 1.2377 0.0619
H6 H 0.4980 0.6262 0.1954
H7 H -0.0790 1.2241 0.2638
H8 H 0.1066 1.2460 0.3552
H9 H 0.0223 1.0053 0.0983
H10 H 0.2206 0.7063 0.2762
H11 H 0.5345 1.0126 0.3257
H12 H 0.1349 0.5931 0.4489
H13 H 0.0860 0.7681 0.4355
H14 H 0.5188 0.6007 0.4615
H15 H 0.0149 1.0238 0.3920
H16 H 0.1042 0.9356 -0.1144
H17 H 0.8445 0.8528 0.2687
H18 H 0.7251 1.0230 0.0634
H19 H -0.0580 1.2153 -0.0705
H20 H 0.3827 0.6894 0.5868
H21 H 0.7744 0.5484 0.3654
H22 H 0.4004 0.3987 0.3007
loop_
_geom_bond_atom_site_label_1
_geom_bond_atom_site_label_2
_geom_bond_site_symmetry_1
_geom_bond_site_symmetry_2
O1 C2 1_555 1_555
O2 C4 1_555 1_555
O3 C5 1_555 1_555
O4 C8 1_555 1_555
O5 C1 1_555 1_555
O6 C11 1_555 1_555
O7 C7 1_555 1_555
O8 C9 1_555 1_555
O9 C6 1_555 1_555
O10 C3 1_555 1_555
O11 C12 1_555 1_555
C1 C7 1_555 1_555
C2 C6 1_555 1_555
C3 C5 1_555 1_555
C4 C5 1_555 1_555
C5 O5 1_555 1_555
C6 C12 1_555 1_555
C7 H7 1_555 1_555
C8 C1 1_555 1_555
C9 C11 1_555 1_555
C10 O3 1_555 1_555
C11 H12 1_555 1_555
C12 C9 1_555 1_555
H1 C1 1_555 1_555
H2 C2 1_555 1_555
H3 C3 1_555 1_555
H4 C4 1_555 1_555
H5 C4 1_555 1_555
H6 C6 1_555 1_555
H8 C7 1_555 1_555
H9 C8 1_555 1_555
H10 C9 1_555 1_555
H11 C10 1_555 1_555
H13 C11 1_555 1_555
H14 C12 1_555 1_555
H15 O7 1_555 1_555
H16 O10 1_555 1_555
H17 O1 1_555 1_555
H18 O2 1_555 1_555
H19 O4 1_555 1_555
H20 O6 1_555 1_555
H21 O9 1_555 1_555
H22 O11 1_555 1_555
O8 C10 1_555 1_555
C2 C10 1_555 1_555
C3 C8 1_555 1_555

#END
