
#######################################################################
#
#                 Cambridge Crystallographic Data Centre
#                                CCDC 
#
#######################################################################
#
# If this CIF has been generated from an entry in the Cambridge 
# Structural Database, then it will include bibliographic, chemical, 
# crystal, experimental, refinement or atomic coordinate data resulting 
# from the CCDC's data processing and validation procedures.
#
#######################################################################

data_SUCXIZ
_chemical_formula_moiety         'C20 H14 S1'
_chemical_name_systematic        3,7-Diphenyl-1-benzothiophene
_symmetry_cell_setting           orthorhombic
_symmetry_space_group_name_H-M   'P 2 21 21'
_symmetry_Int_Tables_number      18
_space_group_name_Hall           'P 2bc 2'
loop_
_symmetry_equiv_pos_site_id
_symmetry_equiv_pos_as_xyz
1 x,y,z
2 -x,1/2-y,1/2+z
3 x,-y,-z
4 -x,1/2+y,1/2-z
_cell_length_a                   5.8826(2)
_cell_length_b                   12.8781(5)
_cell_length_c                   19.2938(7)
_cell_angle_alpha                90
_cell_angle_beta                 90
_cell_angle_gamma                90
_cell_volume                     1461.63
_cell_formula_units_Z            4
loop_
_atom_site_label
_atom_site_type_symbol
_atom_site_fract_x
_atom_site_fract_y
_atom_site_fract_z
S1 S 0.71909(12) 0.20212(5) 0.71825(4)
C1 C 0.9014(4) 0.2428(2) 0.65600(14)
H1 H 0.9275 0.3129 0.6474
C2 C 1.0075(4) 0.16656(19) 0.61922(13)
C3 C 0.9378(4) 0.0654(2) 0.64422(12)
C4 C 0.7798(4) 0.07201(17) 0.69854(11)
C5 C 0.6936(4) -0.01409(19) 0.73348(12)
C6 C 0.7729(5) -0.10991(19) 0.71174(14)
H2 H 0.7216 -0.1695 0.7340
C7 C 0.9267(5) -0.1194(2) 0.65772(14)
H3 H 0.9758 -0.1852 0.6447
C8 C 1.0083(5) -0.0344(2) 0.62308(13)
H4 H 1.1086 -0.0423 0.5862
C9 C 1.1698(4) 0.1856(2) 0.56131(13)
C10 C 1.3723(4) 0.1307(2) 0.55481(14)
H5 H 1.4080 0.0791 0.5867
C11 C 1.5211(5) 0.1524(2) 0.50100(16)
H6 H 1.6556 0.1149 0.4968
C12 C 1.4707(5) 0.2290(2) 0.45382(15)
H7 H 1.5707 0.2434 0.4177
C13 C 1.2721(6) 0.2842(2) 0.46025(14)
H8 H 1.2386 0.3365 0.4286
C14 C 1.1226(5) 0.2629(2) 0.51296(14)
H9 H 0.9882 0.3005 0.5164
C15 C 0.5285(4) -0.00338(19) 0.79190(12)
C16 C 0.3323(4) 0.0567(2) 0.78549(13)
H10 H 0.3036 0.0912 0.7440
C17 C 0.1804(5) 0.0660(2) 0.83937(13)
H11 H 0.0500 0.1060 0.8341
C18 C 0.2222(5) 0.0158(2) 0.90119(13)
H12 H 0.1206 0.0222 0.9379
C19 C 0.4144(5) -0.0436(2) 0.90827(13)
H13 H 0.4428 -0.0772 0.9501
C20 C 0.5653(4) -0.0540(2) 0.85446(13)
H14 H 0.6936 -0.0955 0.8599
loop_
_geom_bond_atom_site_label_1
_geom_bond_atom_site_label_2
_geom_bond_site_symmetry_1
_geom_bond_site_symmetry_2
S1 C1 1_555 1_555
C1 H1 1_555 1_555
C2 C1 1_555 1_555
C3 C2 1_555 1_555
C4 S1 1_555 1_555
C5 C4 1_555 1_555
C6 C5 1_555 1_555
H2 C6 1_555 1_555
C7 C6 1_555 1_555
H3 C7 1_555 1_555
C8 C3 1_555 1_555
H4 C8 1_555 1_555
C9 C2 1_555 1_555
C10 C9 1_555 1_555
H5 C10 1_555 1_555
C11 C10 1_555 1_555
H6 C11 1_555 1_555
C12 C11 1_555 1_555
H7 C12 1_555 1_555
C13 C12 1_555 1_555
H8 C13 1_555 1_555
C14 C9 1_555 1_555
H9 C14 1_555 1_555
C15 C5 1_555 1_555
C16 C15 1_555 1_555
H10 C16 1_555 1_555
C17 C16 1_555 1_555
H11 C17 1_555 1_555
C18 C17 1_555 1_555
H12 C18 1_555 1_555
C19 C18 1_555 1_555
H13 C19 1_555 1_555
C20 C15 1_555 1_555
H14 C20 1_555 1_555
C3 C4 1_555 1_555
C7 C8 1_555 1_555
C13 C14 1_555 1_555
C19 C20 1_555 1_555

#END
