
#######################################################################
#
#                 Cambridge Crystallographic Data Centre
#                                CCDC 
#
#######################################################################
#
# If this CIF has been generated from an entry in the Cambridge 
# Structural Database, then it will include bibliographic, chemical, 
# crystal, experimental, refinement or atomic coordinate data resulting 
# from the CCDC's data processing and validation procedures.
#
#######################################################################

data_SUCZOH
_chemical_formula_moiety         'C28 H42 N12 O8 S2'
_chemical_name_systematic        
3,3'-(hydrazine-1,2-diylbis(5-(propylsulfanyl)-3H-[1,2,3]triazolo[4,5-d]pyrimidine-7,3-diyl))bis(5-(2-hydroxyethoxy)cyclopentane-1,2-diol)
_symmetry_cell_setting           monoclinic
_symmetry_space_group_name_H-M   'C 2'
_symmetry_Int_Tables_number      5
_space_group_name_Hall           'C 2y'
loop_
_symmetry_equiv_pos_site_id
_symmetry_equiv_pos_as_xyz
1 x,y,z
2 -x,y,-z
3 1/2+x,1/2+y,z
4 1/2-x,1/2+y,-z
_cell_length_a                   25.580(5)
_cell_length_b                   4.8502(10)
_cell_length_c                   17.597(4)
_cell_angle_alpha                90
_cell_angle_beta                 129.64(3)
_cell_angle_gamma                90
_cell_volume                     1681.23
_cell_formula_units_Z            2
loop_
_atom_site_label
_atom_site_type_symbol
_atom_site_fract_x
_atom_site_fract_y
_atom_site_fract_z
S1 S 1.11674(3) 0.62738(15) 0.45313(4)
N1 N 1.00282(9) 0.4351(5) 0.28420(13)
N2 N 1.03778(8) 0.2587(5) 0.43982(13)
N3 N 0.88522(9) -0.0940(5) 0.22224(13)
N4 N 0.86176(9) -0.0142(5) 0.13420(13)
N5 N 0.90179(9) 0.1999(4) 0.14629(12)
N6 N 0.97707(8) -0.0799(5) 0.44883(12)
H1 H 0.9426(5) -0.203(3) 0.4180(15)
C1 C 1.20695(12) 0.5632(8) 0.3778(2)
H2 H 1.2170 0.4574 0.3411
H3 H 1.2161 0.4492 0.4311
H4 H 1.2356 0.7282 0.4060
C2 C 1.13194(12) 0.6492(9) 0.30794(18)
H5 H 1.1034 0.4817 0.2784
H6 H 1.1230 0.7613 0.2537
C3 C 1.11128(12) 0.8158(7) 0.35942(17)
H7 H 1.0640 0.8807 0.3089
H8 H 1.1407 0.9807 0.3902
C4 C 1.04389(10) 0.4219(6) 0.38266(16)
C5 C 0.98593(10) 0.0795(6) 0.39544(15)
C6 C 0.94065(10) 0.0651(5) 0.29047(16)
C7 C 0.95217(10) 0.2488(5) 0.24337(16)
C8 C 0.89211(17) 0.3577(11) 0.0666(3)
H9 H 0.8993 0.5587 0.0831
O1 O 0.96118(15) 0.4753(8) 0.0250(2)
O2 O 0.93306(15) -0.0538(9) -0.0642(2)
O3 O 0.76355(12) 0.0713(8) -0.16737(19)
O4 O 0.62316(13) 0.0254(8) -0.3290(2)
C9 C 0.94513(18) 0.2518(9) 0.0592(3)
H10 H 0.9860 0.1705 0.1223
C10 C 0.90299(18) 0.0388(10) -0.0230(3)
H11 H 0.8965 -0.1249 0.0048
C11 C 0.83372(17) 0.1800(11) -0.0975(3)
H12 H 0.8388 0.3318 -0.1308
C12 C 0.8206(2) 0.3096(12) -0.0309(3)
H13 H 0.7955 0.4854 -0.0589
H14 H 0.7947 0.1825 -0.0219
C13 C 0.74440(16) -0.0148(12) -0.2605(3)
H15 H 0.7772 -0.1485 -0.2516
H16 H 0.7396 0.1439 -0.2999
C14 C 0.67566(17) -0.1500(11) -0.3068(4)
H17 H 0.6595 -0.2424 -0.3685
H18 H 0.6831 -0.2952 -0.2612
S1A S 0.88326(3) 0.62738(15) 0.54687(4)
N1A N 0.99718(9) 0.4351(5) 0.71580(13)
N2A N 0.96222(8) 0.2587(5) 0.56018(13)
N3A N 1.11478(9) -0.0940(5) 0.77776(13)
N4A N 1.13824(9) -0.0142(5) 0.86580(13)
N5A N 1.09821(9) 0.1999(4) 0.85371(12)
N6A N 1.02293(8) -0.0799(5) 0.55117(12)
H1A H 1.0574(5) -0.203(3) 0.5820(15)
C1A C 0.79305(12) 0.5632(8) 0.6222(2)
H2A H 0.7830 0.4574 0.6589
H3A H 0.7839 0.4492 0.5689
H4A H 0.7644 0.7282 0.5940
C2A C 0.86806(12) 0.6492(9) 0.69206(18)
H5A H 0.8966 0.4817 0.7216
H6A H 0.8770 0.7613 0.7463
C3A C 0.88872(12) 0.8158(7) 0.64058(17)
H7A H 0.9360 0.8807 0.6911
H8A H 0.8593 0.9807 0.6098
C4A C 0.95611(10) 0.4219(6) 0.61734(16)
C5A C 1.01407(10) 0.0795(6) 0.60456(15)
C6A C 1.05935(10) 0.0651(5) 0.70953(16)
C7A C 1.04783(10) 0.2488(5) 0.75663(16)
C8A C 1.10789(17) 0.3577(11) 0.9334(3)
H9A H 1.1007 0.5587 0.9169
O1A O 1.03882(15) 0.4753(8) 0.9750(2)
O2A O 1.06694(15) -0.0538(9) 1.0642(2)
O3A O 1.23645(12) 0.0713(8) 1.16737(19)
O4A O 1.37684(13) 0.0254(8) 1.3290(2)
C9A C 1.05487(18) 0.2518(9) 0.9408(3)
H10A H 1.0140 0.1705 0.8777
C10A C 1.09701(18) 0.0388(10) 1.0230(3)
H11A H 1.1035 -0.1249 0.9952
C11A C 1.16628(17) 0.1800(11) 1.0975(3)
H12A H 1.1612 0.3318 1.1308
C12A C 1.1794(2) 0.3096(12) 1.0309(3)
H13A H 1.2045 0.4854 1.0589
H14A H 1.2053 0.1825 1.0219
C13A C 1.25560(16) -0.0148(12) 1.2605(3)
H15A H 1.2228 -0.1485 1.2516
H16A H 1.2604 0.1439 1.2999
C14A C 1.32434(17) -0.1500(11) 1.3068(4)
H17A H 1.3405 -0.2424 1.3685
H18A H 1.3169 -0.2952 1.2612
O5? O 0.98593(13) 0.0184(7) 0.0827(2)
O6? O 0.92462(14) 0.3815(8) -0.0807(2)
O7? O 0.78754(16) -0.0154(8) -0.1624(2)
O8? O 0.61217(15) -0.0305(9) -0.3738(2)
C15? C 0.8954(2) 0.2954(11) 0.0603(3)
H19? H 0.9258 0.4588 0.0818
C16? C 0.91596(18) 0.0775(10) 0.0204(3)
H20? H 0.8924 -0.0975 0.0130
C17? C 0.88372(16) 0.1754(10) -0.0836(3)
H21? H 0.8785 0.0155 -0.1238
C18? C 0.81339(18) 0.2739(10) -0.1228(3)
H22? H 0.7932 0.4156 -0.1761
C19? C 0.8235(2) 0.3794(13) -0.0311(3)
H23? H 0.8185 0.5824 -0.0339
H24? H 0.7893 0.2962 -0.0287
C20? C 0.7236(2) 0.0803(11) -0.2451(4)
H25? H 0.7295 0.2135 -0.2817
H26? H 0.7016 0.1783 -0.2227
C21? C 0.6774(2) -0.1548(12) -0.3144(4)
H27? H 0.6896 -0.2170 -0.3549
H28? H 0.6796 -0.3137 -0.2771
loop_
_geom_bond_atom_site_label_1
_geom_bond_atom_site_label_2
_geom_bond_site_symmetry_1
_geom_bond_site_symmetry_2
S1 C3 1_555 1_555
N1 C4 1_555 1_555
N2 C4 1_555 1_555
N3 N4 1_555 1_555
N4 N5 1_555 1_555
N5 C7 1_555 1_555
N6 H1 1_555 1_555
C1 H2 1_555 1_555
H3 C1 1_555 1_555
H4 C1 1_555 1_555
C2 C1 1_555 1_555
H5 C2 1_555 1_555
H6 C2 1_555 1_555
C3 C2 1_555 1_555
H7 C3 1_555 1_555
H8 C3 1_555 1_555
C4 S1 1_555 1_555
C5 N2 1_555 1_555
C6 N3 1_555 1_555
C7 N1 1_555 1_555
C8 N5 1_555 1_555
H9 C8 1_555 1_555
O1 C9 1_555 1_555
O2 C10 1_555 1_555
O3 C11 1_555 1_555
O4 C14 1_555 1_555
C9 C8 1_555 1_555
H10 C9 1_555 1_555
C10 C9 1_555 1_555
H11 C10 1_555 1_555
C11 C10 1_555 1_555
H12 C11 1_555 1_555
C12 C8 1_555 1_555
H13 C12 1_555 1_555
H14 C12 1_555 1_555
C13 O3 1_555 1_555
H15 C13 1_555 1_555
H16 C13 1_555 1_555
C14 C13 1_555 1_555
H17 C14 1_555 1_555
H18 C14 1_555 1_555
S1A C3A 1_555 1_555
N1A C4A 1_555 1_555
N2A C4A 1_555 1_555
N3A N4A 1_555 1_555
N4A N5A 1_555 1_555
N5A C7A 1_555 1_555
N6A N6 1_555 1_555
H1A N6A 1_555 1_555
C1A H2A 1_555 1_555
H3A C1A 1_555 1_555
H4A C1A 1_555 1_555
C2A C1A 1_555 1_555
H5A C2A 1_555 1_555
H6A C2A 1_555 1_555
C3A C2A 1_555 1_555
H7A C3A 1_555 1_555
H8A C3A 1_555 1_555
C4A S1A 1_555 1_555
C5A N2A 1_555 1_555
C6A N3A 1_555 1_555
C7A N1A 1_555 1_555
C8A N5A 1_555 1_555
H9A C8A 1_555 1_555
O1A C9A 1_555 1_555
O2A C10A 1_555 1_555
O3A C11A 1_555 1_555
O4A C14A 1_555 1_555
C9A C8A 1_555 1_555
H10A C9A 1_555 1_555
C10A C9A 1_555 1_555
H11A C10A 1_555 1_555
C11A C10A 1_555 1_555
H12A C11A 1_555 1_555
C12A C8A 1_555 1_555
H13A C12A 1_555 1_555
H14A C12A 1_555 1_555
C13A O3A 1_555 1_555
H15A C13A 1_555 1_555
H16A C13A 1_555 1_555
C14A C13A 1_555 1_555
H17A C14A 1_555 1_555
H18A C14A 1_555 1_555
N6 C5 1_555 1_555
C5 C6 1_555 1_555
C6 C7 1_555 1_555
C11 C12 1_555 1_555
N6A C5A 1_555 1_555
C5A C6A 1_555 1_555
C6A C7A 1_555 1_555
C11A C12A 1_555 1_555

#END
