
#######################################################################
#
#                 Cambridge Crystallographic Data Centre
#                                CCDC 
#
#######################################################################
#
# If this CIF has been generated from an entry in the Cambridge 
# Structural Database, then it will include bibliographic, chemical, 
# crystal, experimental, refinement or atomic coordinate data resulting 
# from the CCDC's data processing and validation procedures.
#
#######################################################################

data_SUDROA
_chemical_formula_moiety         'C15 H20 O5'
_chemical_name_systematic        
'dimethyl 12-oxatricyclo[7.2.1.0^2,7^]dodec-5-ene-11,11-dicarboxylate'
_symmetry_cell_setting           monoclinic
_symmetry_space_group_name_H-M   'C 2/c'
_symmetry_Int_Tables_number      15
_space_group_name_Hall           '-C 2yn'
loop_
_symmetry_equiv_pos_site_id
_symmetry_equiv_pos_as_xyz
1 x,y,z
2 -x,y,1/2-z
3 1/2+x,1/2+y,z
4 1/2-x,1/2+y,1/2-z
5 -x,-y,-z
6 x,-y,1/2+z
7 1/2-x,1/2-y,-z
8 1/2+x,1/2-y,1/2+z
_cell_length_a                   20.886(11)
_cell_length_b                   8.365(4)
_cell_length_c                   15.918(8)
_cell_angle_alpha                90
_cell_angle_beta                 93.882(7)
_cell_angle_gamma                90
_cell_volume                     2774.68
_exptl_crystal_colour            colorless
_exptl_crystal_description       Prism
_cell_formula_units_Z            8
loop_
_atom_site_label
_atom_site_type_symbol
_atom_site_fract_x
_atom_site_fract_y
_atom_site_fract_z
O1 O 0.37289(4) 1.04112(10) 0.83360(6)
O2 O 0.44260(5) 1.25494(11) 0.98097(7)
O3 O 0.35890(4) 1.26591(10) 1.06282(6)
O4 O 0.32616(4) 0.85118(11) 1.08225(6)
O5 O 0.42894(4) 0.93163(10) 1.09082(6)
C1 C 0.29676(6) 1.06024(16) 0.93582(9)
H1 H 0.2655 0.9876 0.9602
H2 H 0.2822 1.1720 0.9419
C2 C 0.30494(6) 1.01909(16) 0.84237(9)
H3 H 0.2795 1.0948 0.8047
C3 C 0.28759(6) 0.84712(15) 0.81942(9)
H4 H 0.2990 0.8245 0.7612
H5 H 0.2408 0.8313 0.8218
C4 C 0.32394(6) 0.73122(14) 0.88113(8)
H6 H 0.3036 0.7390 0.9361
C5 C 0.31744(6) 0.55976(15) 0.85192(8)
H7 H 0.2760 0.5126 0.8493
C6 C 0.36605(6) 0.47151(16) 0.82972(8)
H8 H 0.3580 0.3632 0.8146
C7 C 0.43304(6) 0.53356(16) 0.82726(10)
H9 H 0.4518 0.4941 0.7757
H10 H 0.4595 0.4920 0.8764
C8 C 0.43501(6) 0.71600(16) 0.82825(9)
H11 H 0.4800 0.7527 0.8381
H12 H 0.4180 0.7578 0.7730
C9 C 0.39503(6) 0.78034(15) 0.89749(9)
H13 H 0.4115 0.7306 0.9519
C10 C 0.40209(6) 0.96230(14) 0.90660(8)
H14 H 0.4485 0.9916 0.9142
C11 C 0.36498(5) 1.03633(14) 0.97859(8)
C12 C 0.39484(6) 1.19707(15) 1.00531(9)
C13 C 0.37946(7) 1.42278(16) 1.09134(10)
H15 H 0.4249 1.4190 1.1113
H16 H 0.3538 1.4569 1.1374
H17 H 0.3737 1.4989 1.0446
C14 C 0.36854(6) 0.92985(15) 1.05619(8)
C15 C 0.44275(7) 0.82577(17) 1.16187(9)
H18 H 0.4234 0.8689 1.2115
H19 H 0.4893 0.8172 1.1734
H20 H 0.4248 0.7197 1.1487
loop_
_geom_bond_atom_site_label_1
_geom_bond_atom_site_label_2
_geom_bond_site_symmetry_1
_geom_bond_site_symmetry_2
O1 C2 1_555 1_555
O2 C12 1_555 1_555
O3 C12 1_555 1_555
O4 C14 1_555 1_555
O5 C14 1_555 1_555
C1 H1 1_555 1_555
H2 C1 1_555 1_555
C2 C1 1_555 1_555
H3 C2 1_555 1_555
C3 C2 1_555 1_555
H4 C3 1_555 1_555
H5 C3 1_555 1_555
C4 C3 1_555 1_555
H6 C4 1_555 1_555
C5 C4 1_555 1_555
H7 C5 1_555 1_555
C6 C5 1_555 1_555
H8 C6 1_555 1_555
C7 C6 1_555 1_555
H9 C7 1_555 1_555
H10 C7 1_555 1_555
C8 C7 1_555 1_555
H11 C8 1_555 1_555
H12 C8 1_555 1_555
C9 C4 1_555 1_555
H13 C9 1_555 1_555
C10 O1 1_555 1_555
H14 C10 1_555 1_555
C11 C1 1_555 1_555
C12 C11 1_555 1_555
C13 O3 1_555 1_555
H15 C13 1_555 1_555
H16 C13 1_555 1_555
H17 C13 1_555 1_555
C14 C11 1_555 1_555
C15 O5 1_555 1_555
H18 C15 1_555 1_555
H19 C15 1_555 1_555
H20 C15 1_555 1_555
C8 C9 1_555 1_555
C9 C10 1_555 1_555
C10 C11 1_555 1_555

#END
