
#######################################################################
#
#                 Cambridge Crystallographic Data Centre
#                                CCDC 
#
#######################################################################
#
# If this CIF has been generated from an entry in the Cambridge 
# Structural Database, then it will include bibliographic, chemical, 
# crystal, experimental, refinement or atomic coordinate data resulting 
# from the CCDC's data processing and validation procedures.
#
#######################################################################

data_SUDYOH
_chemical_formula_moiety         'C16 H17 N1 O1'
_chemical_name_systematic        Azetidin-2-yl(diphenyl)methanol
_symmetry_cell_setting           monoclinic
_symmetry_space_group_name_H-M   'P 21'
_symmetry_Int_Tables_number      4
_space_group_name_Hall           'P 2yb'
loop_
_symmetry_equiv_pos_site_id
_symmetry_equiv_pos_as_xyz
1 x,y,z
2 -x,1/2+y,-z
_cell_length_a                   7.9007(16)
_cell_length_b                   10.334(2)
_cell_length_c                   8.6158(17)
_cell_angle_alpha                90
_cell_angle_beta                 111.72(3)
_cell_angle_gamma                90
_cell_volume                     653.502
_exptl_crystal_colour            colorless
_exptl_crystal_description       prismatic
_cell_formula_units_Z            2
loop_
_atom_site_label
_atom_site_type_symbol
_atom_site_fract_x
_atom_site_fract_y
_atom_site_fract_z
O1 O 0.9871(2) 0.12727(18) 0.0455(2)
N1 N 1.1106(3) -0.1162(2) -0.0174(3)
C1 C 1.2888(4) -0.0552(3) 0.0804(4)
H1 H 1.3014 0.0320 0.0443
H2 H 1.3929 -0.1079 0.0875
C2 C 1.2432(3) -0.0597(3) 0.2383(4)
H3 H 1.2569 0.0226 0.2958
H4 H 1.3039 -0.1287 0.3150
C3 C 1.0454(3) -0.0914(2) 0.1234(3)
H5 H 1.0024 -0.1711 0.1583
C4 C 0.9066(3) 0.0185(2) 0.0938(3)
C5 C 0.8788(3) 0.0430(2) 0.2591(3)
C6 C 0.9588(4) 0.1467(3) 0.3609(3)
H6 H 1.0287 0.2049 0.3279
C7 C 0.9364(4) 0.1653(4) 0.5124(4)
H7 H 0.9909 0.2360 0.5790
C8 C 0.8349(4) 0.0805(4) 0.5638(4)
H8 H 0.8211 0.0928 0.6654
C9 C 0.7533(4) -0.0235(4) 0.4638(4)
H9 H 0.6832 -0.0811 0.4977
C10 C 0.7752(4) -0.0425(3) 0.3124(3)
H10 H 0.7201 -0.1131 0.2460
C11 C 0.7228(3) -0.0134(3) -0.0460(3)
C12 C 0.5991(4) 0.0862(3) -0.1116(4)
H11 H 0.6303 0.1698 -0.0715
C13 C 0.4301(4) 0.0639(4) -0.2353(4)
H12 H 0.3492 0.1322 -0.2768
C14 C 0.3817(4) -0.0596(4) -0.2972(4)
H13 H 0.2685 -0.0748 -0.3806
C15 C 0.5018(4) -0.1593(4) -0.2346(4)
H14 H 0.4695 -0.2428 -0.2750
C16 C 0.6722(4) -0.1365(3) -0.1105(4)
H15 H 0.7532 -0.2050 -0.0705
H16 H 0.925(5) 0.207(5) 0.051(5)
H17 H 1.049(4) -0.070(4) -0.108(5)
loop_
_geom_bond_atom_site_label_1
_geom_bond_atom_site_label_2
_geom_bond_site_symmetry_1
_geom_bond_site_symmetry_2
O1 C4 1_555 1_555
N1 C1 1_555 1_555
C1 H1 1_555 1_555
H2 C1 1_555 1_555
C2 C1 1_555 1_555
H3 C2 1_555 1_555
H4 C2 1_555 1_555
C3 N1 1_555 1_555
H5 C3 1_555 1_555
C4 C3 1_555 1_555
C5 C4 1_555 1_555
C6 C5 1_555 1_555
H6 C6 1_555 1_555
C7 C6 1_555 1_555
H7 C7 1_555 1_555
C8 C7 1_555 1_555
H8 C8 1_555 1_555
C9 C8 1_555 1_555
H9 C9 1_555 1_555
C10 C5 1_555 1_555
H10 C10 1_555 1_555
C11 C4 1_555 1_555
C12 C11 1_555 1_555
H11 C12 1_555 1_555
C13 C12 1_555 1_555
H12 C13 1_555 1_555
C14 C13 1_555 1_555
H13 C14 1_555 1_555
C15 C14 1_555 1_555
H14 C15 1_555 1_555
C16 C11 1_555 1_555
H15 C16 1_555 1_555
H16 O1 1_555 1_555
H17 N1 1_555 1_555
C2 C3 1_555 1_555
C9 C10 1_555 1_555
C15 C16 1_555 1_555

#END
