
#######################################################################
#
#                 Cambridge Crystallographic Data Centre
#                                CCDC 
#
#######################################################################
#
# If this CIF has been generated from an entry in the Cambridge 
# Structural Database, then it will include bibliographic, chemical, 
# crystal, experimental, refinement or atomic coordinate data resulting 
# from the CCDC's data processing and validation procedures.
#
#######################################################################

data_SUFBOM
_chemical_formula_moiety         'C20 H30 O4'
_chemical_name_systematic        
3-(2-(6-Hydroxy-5-(hydroxymethyl)-5,8a-dimethyl-2-methylenedecahydronaphthalen-1-yl)ethylidene)dihydrofuran-2(3H)-one
_symmetry_cell_setting           monoclinic
_symmetry_space_group_name_H-M   'P 21'
_symmetry_Int_Tables_number      4
_space_group_name_Hall           'P 2yb'
loop_
_symmetry_equiv_pos_site_id
_symmetry_equiv_pos_as_xyz
1 x,y,z
2 -x,1/2+y,-z
_cell_length_a                   6.8159(10)
_cell_length_b                   6.9693(10)
_cell_length_c                   19.193(3)
_cell_angle_alpha                90
_cell_angle_beta                 93.663(2)
_cell_angle_gamma                90
_cell_volume                     909.844
_cell_formula_units_Z            2
loop_
_atom_site_label
_atom_site_type_symbol
_atom_site_fract_x
_atom_site_fract_y
_atom_site_fract_z
C1 C -0.5286(3) 0.2491(4) 0.01864(11)
C2 C -0.3366(4) 0.2555(6) -0.07410(12)
H1 H -0.3170 0.3681 -0.1025
H2 H -0.3154 0.1423 -0.1020
C3 C -0.1956(4) 0.2575(7) -0.01080(12)
H3 H -0.1095 0.1466 -0.0102
H4 H -0.1162 0.3731 -0.0093
C4 C -0.3240(3) 0.2518(4) 0.04780(10)
C5 C -0.2769(3) 0.2465(5) 0.11477(11)
H5 H -0.3798 0.2443 0.1444
C6 C -0.0738(3) 0.2435(6) 0.14804(11)
H6 H 0.0076 0.3298 0.1227
H7 H -0.0205 0.1152 0.1442
C7 C -0.0626(3) 0.3024(4) 0.22559(11)
H8 H -0.1602 0.2234 0.2476
C8 C -0.1201(3) 0.5084(4) 0.23819(13)
C9 C -0.1267(3) 0.5616(4) 0.31374(14)
H9 H -0.2404 0.5015 0.3325
H10 H -0.1424 0.6995 0.3175
C10 C 0.0586(3) 0.5004(4) 0.35746(12)
H11 H 0.1679 0.5809 0.3458
H12 H 0.0381 0.5184 0.4066
C11 C 0.1091(3) 0.2911(3) 0.34447(10)
H13 H -0.0121 0.2215 0.3528
C12 C 0.1392(3) 0.2563(4) 0.26540(9)
C13 C 0.2647(3) 0.2062(4) 0.39935(10)
C14 C 0.3023(4) -0.0037(4) 0.37924(12)
H14 H 0.1780 -0.0726 0.3829
C15 C 0.3577(4) -0.0247(4) 0.30497(12)
H15 H 0.3847 -0.1585 0.2954
H16 H 0.4760 0.0485 0.2983
C16 C 0.1925(4) 0.0461(4) 0.25486(12)
H17 H 0.0768 -0.0321 0.2605
H18 H 0.2306 0.0290 0.2074
C17 C -0.1629(4) 0.6356(5) 0.18848(17)
H19 H -0.1976 0.7600 0.2001
H20 H -0.1582 0.6007 0.1419
C18 C 0.2974(3) 0.3850(4) 0.23532(11)
H21 H 0.4241 0.3525 0.2567
H22 H 0.2690 0.5171 0.2447
H23 H 0.2975 0.3657 0.1858
C19 C 0.1783(4) 0.2076(4) 0.47156(10)
H24 H 0.0508 0.1485 0.4682
H25 H 0.1666 0.3376 0.4873
H26 H 0.2636 0.1376 0.5042
C20 C 0.4565(3) 0.3225(4) 0.40310(11)
H27 H 0.5024 0.3331 0.3564
H28 H 0.4289 0.4511 0.4191
O1 O 0.6098(2) 0.2422(3) 0.44798(8)
H29 H 0.5938 0.2729 0.4885
O2 O 0.4450(3) -0.0967(3) 0.42570(9)
H30 H 0.5346 -0.0217 0.4364
O3 O -0.6774(2) 0.2463(5) 0.04832(10)
O4 O -0.5324(3) 0.2547(3) -0.05056(8)
loop_
_geom_bond_atom_site_label_1
_geom_bond_atom_site_label_2
_geom_bond_site_symmetry_1
_geom_bond_site_symmetry_2
C1 C4 1_555 1_555
C2 H1 1_555 1_555
H2 C2 1_555 1_555
C3 C2 1_555 1_555
H3 C3 1_555 1_555
H4 C3 1_555 1_555
C4 C3 1_555 1_555
C5 C4 1_555 1_555
H5 C5 1_555 1_555
C6 C5 1_555 1_555
H6 C6 1_555 1_555
H7 C6 1_555 1_555
C7 C6 1_555 1_555
H8 C7 1_555 1_555
C8 C7 1_555 1_555
C9 C8 1_555 1_555
H9 C9 1_555 1_555
H10 C9 1_555 1_555
C10 C9 1_555 1_555
H11 C10 1_555 1_555
H12 C10 1_555 1_555
C11 C10 1_555 1_555
H13 C11 1_555 1_555
C12 C7 1_555 1_555
C13 C11 1_555 1_555
C14 C13 1_555 1_555
H14 C14 1_555 1_555
C15 C14 1_555 1_555
H15 C15 1_555 1_555
H16 C15 1_555 1_555
C16 C12 1_555 1_555
H17 C16 1_555 1_555
H18 C16 1_555 1_555
C17 C8 1_555 1_555
H19 C17 1_555 1_555
H20 C17 1_555 1_555
C18 C12 1_555 1_555
H21 C18 1_555 1_555
H22 C18 1_555 1_555
H23 C18 1_555 1_555
C19 C13 1_555 1_555
H24 C19 1_555 1_555
H25 C19 1_555 1_555
H26 C19 1_555 1_555
C20 C13 1_555 1_555
H27 C20 1_555 1_555
H28 C20 1_555 1_555
O1 C20 1_555 1_555
H29 O1 1_555 1_555
O2 C14 1_555 1_555
H30 O2 1_555 1_555
O3 C1 1_555 1_555
O4 C1 1_555 1_555
C2 O4 1_555 1_555
C11 C12 1_555 1_555
C15 C16 1_555 1_555

#END
