
#######################################################################
#
#                 Cambridge Crystallographic Data Centre
#                                CCDC 
#
#######################################################################
#
# If this CIF has been generated from an entry in the Cambridge 
# Structural Database, then it will include bibliographic, chemical, 
# crystal, experimental, refinement or atomic coordinate data resulting 
# from the CCDC's data processing and validation procedures.
#
#######################################################################

data_SUFLAG05
_chemical_formula_moiety         'C22 H12 O2 S1'
_chemical_name_systematic        2-(Thioxanthen-9-ylidene)indane-1,3-dione
_symmetry_cell_setting           monoclinic
_symmetry_space_group_name_H-M   'P 21/n'
_symmetry_Int_Tables_number      14
_space_group_name_Hall           '-P 2yn'
loop_
_symmetry_equiv_pos_site_id
_symmetry_equiv_pos_as_xyz
1 x,y,z
2 1/2-x,1/2+y,1/2-z
3 -x,-y,-z
4 1/2+x,1/2-y,1/2+z
_cell_length_a                   9.6404(17)
_cell_length_b                   8.2037(14)
_cell_length_c                   21.187(4)
_cell_angle_alpha                90
_cell_angle_beta                 94.384(14)
_cell_angle_gamma                90
_cell_volume                     1670.71
_exptl_crystal_colour            'orange red'
_exptl_crystal_description       prism
_cell_formula_units_Z            4
loop_
_atom_site_label
_atom_site_type_symbol
_atom_site_fract_x
_atom_site_fract_y
_atom_site_fract_z
S1 S 0.7521(2) 0.72082(19) 0.23139(8)
O1 O 1.1827(4) 0.7128(5) 0.12496(18)
O2 O 0.8044(4) 0.8499(5) -0.02022(17)
C1 C 0.7473(6) 0.9048(6) 0.1227(2)
C2 C 0.8976(5) 0.8699(5) 0.1239(2)
C3 C 0.9667(5) 0.8218(5) 0.0729(2)
C4 C 0.9152(6) 0.8190(6) 0.2391(3)
C5 C 1.1060(6) 0.7397(6) 0.0780(3)
C6 C 1.0210(6) 0.7149(5) -0.0269(2)
C7 C 0.6774(6) 1.0053(7) 0.0781(2)
H1 H 0.7264 1.0560 0.0475
C8 C 0.9731(6) 0.8852(6) 0.1872(2)
C9 C 1.0947(7) 0.9750(7) 0.1963(3)
H2 H 1.1310 1.0268 0.1621
C10 C 0.6721(7) 0.8352(6) 0.1689(2)
C11 C 1.1322(6) 0.6776(6) 0.0145(3)
C12 C 1.0174(6) 0.6689(6) -0.0903(2)
H3 H 0.9413 0.6931 -0.1183
C13 C 0.9128(6) 0.8026(6) 0.0051(2)
C14 C 1.2463(6) 0.5927(6) -0.0050(3)
H4 H 1.3222 0.5670 0.0230
C15 C 0.5252(9) 0.8533(9) 0.1674(4)
H5 H 0.4731 0.8011 0.1966
C16 C 0.5369(8) 1.0303(8) 0.0787(3)
H6 H 0.4913 1.1018 0.0501
C17 C 1.1314(9) 0.5857(8) -0.1100(3)
H7 H 1.1329 0.5551 -0.1522
C18 C 1.1079(11) 0.9142(12) 0.3062(4)
H8 H 1.1551 0.9209 0.3461
C19 C 1.2414(8) 0.5483(8) -0.0682(3)
H9 H 1.3158 0.4908 -0.0827
C20 C 1.1619(7) 0.9879(9) 0.2557(4)
H10 H 1.2443 1.0467 0.2615
C21 C 0.9853(10) 0.8310(8) 0.2986(3)
H11 H 0.9487 0.7823 0.3333
C22 C 0.4655(9) 0.9497(11) 0.1217(4)
H12 H 0.3694 0.9617 0.1194
loop_
_geom_bond_atom_site_label_1
_geom_bond_atom_site_label_2
_geom_bond_site_symmetry_1
_geom_bond_site_symmetry_2
S1 C4 1_555 1_555
O1 C5 1_555 1_555
O2 C13 1_555 1_555
C1 C2 1_555 1_555
C2 C3 1_555 1_555
C3 C5 1_555 1_555
C4 C8 1_555 1_555
C5 C11 1_555 1_555
C6 C11 1_555 1_555
C7 C1 1_555 1_555
H1 C7 1_555 1_555
C8 C2 1_555 1_555
C9 C8 1_555 1_555
H2 C9 1_555 1_555
C10 S1 1_555 1_555
C11 C14 1_555 1_555
C12 C6 1_555 1_555
H3 C12 1_555 1_555
C13 C3 1_555 1_555
C14 H4 1_555 1_555
C15 C10 1_555 1_555
H5 C15 1_555 1_555
C16 C7 1_555 1_555
H6 C16 1_555 1_555
C17 C12 1_555 1_555
H7 C17 1_555 1_555
C18 H8 1_555 1_555
C19 C14 1_555 1_555
H9 C19 1_555 1_555
C20 C9 1_555 1_555
H10 C20 1_555 1_555
C21 C4 1_555 1_555
H11 C21 1_555 1_555
C22 C15 1_555 1_555
H12 C22 1_555 1_555
C1 C10 1_555 1_555
C6 C13 1_555 1_555
C16 C22 1_555 1_555
C17 C19 1_555 1_555
C18 C20 1_555 1_555
C18 C21 1_555 1_555

#END
