
#######################################################################
#
#                 Cambridge Crystallographic Data Centre
#                                CCDC 
#
#######################################################################
#
# If this CIF has been generated from an entry in the Cambridge 
# Structural Database, then it will include bibliographic, chemical, 
# crystal, experimental, refinement or atomic coordinate data resulting 
# from the CCDC's data processing and validation procedures.
#
#######################################################################

data_SUFLOW
_chemical_formula_moiety         'C24 H42 N6 O7 S1,5(H2 O1)'
_chemical_name_systematic        
'15-acetamido-9-sec-butyl-6,12-dimethyl-5,8,11,14-tetraoxo-1-thia-4,7,10,13-tetraazacycloicosane-3-carboxamide 1-oxide pentahydrate'
_symmetry_cell_setting           triclinic
_symmetry_space_group_name_H-M   'P 1'
_symmetry_Int_Tables_number      1
_space_group_name_Hall           'P 1'
loop_
_symmetry_equiv_pos_site_id
_symmetry_equiv_pos_as_xyz
1 x,y,z
_cell_length_a                   9.9640(3)
_cell_length_b                   10.1650(6)
_cell_length_c                   19.2390(11)
_cell_angle_alpha                100.913(4)
_cell_angle_beta                 90.944(6)
_cell_angle_gamma                117.159(5)
_cell_volume                     1690.56
_exptl_crystal_colour            colorless
_exptl_crystal_description       Prism
_cell_formula_units_Z            2
_chemical_properties_physical    'Air-sensitive, Heat-sensitive'
loop_
_atom_site_label
_atom_site_type_symbol
_atom_site_fract_x
_atom_site_fract_y
_atom_site_fract_z
C1 C 1.2876(13) 0.6125(12) 0.5796(5)
H1 H 1.1788 0.5367 0.5701
H2 H 1.3226 0.6398 0.5341
C2 C 1.3788(13) 0.5435(13) 0.6086(6)
H3 H 1.3717 0.4580 0.5714
H4 H 1.4870 0.6208 0.6192
C3 C 1.3254(12) 0.4885(12) 0.6736(6)
H5 H 1.3245 0.5720 0.7093
H6 H 1.3981 0.4603 0.6937
C4 C 1.1662(15) 0.3515(13) 0.6606(6)
H7 H 1.0974 0.3743 0.6331
H8 H 1.1714 0.2635 0.6308
C5 C 1.0986(15) 0.3077(14) 0.7264(7)
H9 H 1.1713 0.2928 0.7555
H10 H 1.0056 0.2089 0.7123
C6 C 1.0565(13) 0.4220(13) 0.7741(6)
H11 H 1.1532 0.5140 0.7966
C7 C 0.9699(13) 0.4701(14) 0.7290(5)
C8 C 0.7314(11) 0.4093(11) 0.6614(5)
H12 H 0.7838 0.4290 0.6178
C9 C 0.7272(11) 0.5544(11) 0.6986(4)
C10 C 0.6947(12) 0.7009(12) 0.8042(5)
H13 H 0.6192 0.7142 0.7754
C11 C 0.8488(11) 0.8478(14) 0.8135(5)
C12 C 1.1249(11) 0.9507(12) 0.8360(5)
H14 H 1.1310 1.0378 0.8728
C13 C 1.1738(13) 1.0076(13) 0.7673(5)
C14 C 1.1523(13) 0.9386(12) 0.6379(5)
H15 H 1.2546 1.0300 0.6477
C15 C 1.1705(13) 0.8020(11) 0.5956(5)
H16 H 1.2003 0.8199 0.5480
H17 H 1.0720 0.7086 0.5885
C16 C 0.9380(15) 0.4290(15) 0.8805(6)
C17 C 0.8604(17) 0.3557(19) 0.9407(7)
H18 H 0.8537 0.2548 0.9344
H19 H 0.7580 0.3464 0.9399
H20 H 0.9196 0.4187 0.9865
C18 C 0.5721(13) 0.2792(11) 0.6381(6)
H21 H 0.5776 0.1932 0.6077
H22 H 0.5127 0.3119 0.6114
H23 H 0.5233 0.2485 0.6802
C19 C 0.6375(13) 0.6803(14) 0.8771(5)
H24 H 0.6945 0.6391 0.9014
C20 C 0.6613(16) 0.8287(17) 0.9249(5)
H25 H 0.7697 0.9015 0.9326
H26 H 0.6246 0.8102 0.9708
H27 H 0.6049 0.8698 0.9020
C21 C 0.4657(16) 0.5640(18) 0.8663(6)
H28 H 0.4067 0.6144 0.8540
H29 H 0.4470 0.4801 0.8252
C22 C 0.4073(17) 0.498(2) 0.9307(7)
H30 H 0.4428 0.4238 0.9352
H31 H 0.2960 0.4470 0.9247
H32 H 0.4454 0.5790 0.9738
C23 C 1.2402(12) 0.9049(13) 0.8629(5)
H33 H 1.2129 0.8718 0.9076
H34 H 1.3421 0.9919 0.8711
H35 H 1.2391 0.8216 0.8272
C24 C 1.0504(13) 0.9682(11) 0.5914(6)
N1 N 0.8209(11) 0.3736(10) 0.7087(4)
H36 H 0.7774 0.2889 0.7240
N2 N 0.7018(10) 0.5700(9) 0.7668(4)
H37 H 0.6893 0.4978 0.7891
N3 N 0.9706(10) 0.8270(10) 0.8285(4)
H38 H 0.9561 0.7375 0.8337
N4 N 1.1004(10) 0.9043(9) 0.7071(4)
H39 H 1.0222 0.8170 0.7086
N5 N 0.9122(11) 0.9421(10) 0.6123(5)
H40 H 0.8490 0.9568 0.5862
H41 H 0.8861 0.9106 0.6519
N6 N 0.9772(11) 0.3543(12) 0.8304(5)
H42 H 0.9552 0.2601 0.8305
O1 O 1.0285(8) 0.5940(8) 0.7120(3)
O2 O 0.7500(7) 0.6554(7) 0.6658(3)
O3 O 0.8617(8) 0.9705(8) 0.8051(4)
O4 O 1.2813(8) 1.1353(8) 0.7702(4)
O5 O 1.0890(9) 1.0119(8) 0.5368(4)
O6 O 1.4647(7) 0.9042(7) 0.6312(3)
O7 O 0.9576(9) 0.5668(11) 0.8828(4)
S1 S 1.3095(3) 0.7776(3) 0.64170(12)
C25 C 1.1047(13) 0.8150(12) 0.3952(5)
H43 H 1.0449 0.7220 0.4129
H44 H 1.1721 0.8957 0.4361
C26 C 0.9964(13) 0.8636(13) 0.3640(5)
H45 H 0.9360 0.8813 0.4016
H46 H 1.0571 0.9609 0.3498
C27 C 0.8891(13) 0.7493(14) 0.3003(6)
H47 H 0.9489 0.7296 0.2630
H48 H 0.8295 0.7923 0.2806
C28 C 0.7807(14) 0.6004(12) 0.3190(6)
H49 H 0.7174 0.6197 0.3545
H50 H 0.8406 0.5607 0.3413
C29 C 0.6752(13) 0.4783(12) 0.2535(6)
H51 H 0.6272 0.5231 0.2268
H52 H 0.5934 0.3938 0.2702
C30 C 0.7616(11) 0.4145(11) 0.2024(5)
H53 H 0.8359 0.4982 0.1814
C31 C 0.8492(14) 0.3566(12) 0.2429(5)
C32 C 0.8432(11) 0.1746(10) 0.3094(4)
H54 H 0.8926 0.2573 0.3532
C33 C 0.9658(13) 0.1485(11) 0.2739(5)
C34 C 1.0444(11) 0.0464(11) 0.1668(4)
H55 H 1.0832 -0.0020 0.1968
C35 C 1.1807(13) 0.1945(12) 0.1596(4)
C36 C 1.2661(13) 0.4508(13) 0.1382(5)
H56 H 1.3347 0.4334 0.1045
C37 C 1.3606(12) 0.5500(13) 0.2097(5)
C38 C 1.3794(11) 0.6263(11) 0.3376(5)
H57 H 1.4676 0.7184 0.3282
C39 C 1.2765(13) 0.6769(12) 0.3783(5)
H58 H 1.3309 0.7417 0.4254
H59 H 1.1860 0.5869 0.3865
C40 C 0.6900(14) 0.2205(11) 0.0927(5)
C41 C 0.5628(14) 0.1058(14) 0.0348(6)
H60 H 0.5941 0.1227 -0.0121
H61 H 0.4713 0.1178 0.0414
H62 H 0.5409 0.0029 0.0379
C42 C 0.7280(12) 0.0322(12) 0.3321(5)
H63 H 0.6494 0.0519 0.3544
H64 H 0.7799 0.0052 0.3662
H65 H 0.6810 -0.0516 0.2901
C43 C 0.9699(13) -0.0697(15) 0.0946(5)
H66 H 0.8960 -0.0450 0.0715
C44 C 1.0798(16) -0.0744(17) 0.0432(6)
H67 H 1.1276 0.0215 0.0274
H68 H 1.0257 -0.1582 0.0018
H69 H 1.1582 -0.0894 0.0666
C45 C 0.8789(15) -0.2320(13) 0.1131(6)
H70 H 0.9529 -0.2653 0.1264
H71 H 0.8262 -0.2213 0.1554
C46 C 0.760(2) -0.3574(16) 0.0526(6)
H72 H 0.6834 -0.3282 0.0403
H73 H 0.7113 -0.4529 0.0687
H74 H 0.8109 -0.3708 0.0107
C47 C 1.1919(14) 0.5344(14) 0.1065(6)
H75 H 1.1557 0.4866 0.0560
H76 H 1.2670 0.6409 0.1112
H77 H 1.1061 0.5289 0.1323
C48 C 1.4415(12) 0.5550(13) 0.3866(5)
N7 N 0.7644(10) 0.2236(9) 0.2624(4)
H78 H 0.6667 0.1689 0.2476
N8 N 0.9304(9) 0.0755(8) 0.2047(4)
H79 H 0.8400 0.0456 0.1825
N9 N 1.1437(9) 0.3017(9) 0.1460(4)
H80 H 1.0481 0.2828 0.1419
N10 N 1.3037(10) 0.5252(10) 0.2700(3)
H81 H 1.2165 0.4441 0.2689
N11 N 0.6505(10) 0.2968(10) 0.1449(5)
H82 H 0.5545 0.2758 0.1448
N12 N 1.3996(11) 0.4111(10) 0.3667(4)
H83 H 1.4330 0.3672 0.3926
H84 H 1.3376 0.3574 0.3273
O8 O 1.3559(8) 0.9342(7) 0.3361(4)
O9 O 0.8239(9) 0.2391(9) 0.0915(4)
O10 O 0.9871(8) 0.4299(8) 0.2596(4)
O11 O 1.3122(8) 0.2125(8) 0.1635(3)
O12 O 1.4909(9) 0.6530(9) 0.2067(4)
O13 O 1.5282(8) 0.6423(8) 0.4409(3)
O14 O 1.0926(7) 0.1926(7) 0.3077(3)
S2 S 1.2172(3) 0.7796(3) 0.33124(12)
O15 O 0.6024(8) 0.8989(7) 0.1392(3)
H85 H 0.5567 0.8456 0.0982
H86 H 0.5886 0.8388 0.1668
O16 O 0.6564(8) 0.9354(8) 0.5277(3)
H87 H 0.5884 0.9591 0.5420
H88 H 0.6139 0.8565 0.4942
O17 O 0.6649(9) 0.0712(8) 0.7508(4)
H89 H 0.7144 0.0406 0.7739
H90 H 0.5816 -0.0055 0.7317
O18 O 0.4335(8) 0.0345(9) 0.2153(4)
H91 H 0.4284 0.0949 0.1916
H92 H 0.3466 -0.0430 0.2090
O19 O 0.5855(9) 0.2870(8) 0.8289(4)
H93 H 0.5947 0.3335 0.8718
H94 H 0.4917 0.2423 0.8131
O20 O 0.1088(11) 0.2465(9) 0.4661(4)
H95 H 0.1200 0.2469 0.4224
H96 H 0.1142 0.1699 0.4746
O21 O 0.8536(13) 0.2395(10) 0.5184(5)
H97 H 0.9014 0.2340 0.5539
H98 H 0.8334 0.1624 0.4853
O22 O 0.7298(13) 0.5773(14) 0.5158(4)
H99 H 0.7577 0.6261 0.5589
H100 H 0.6667 0.6005 0.4982
O23 O 0.4827(14) 0.2256(11) 0.4322(5)
H101 H 0.4375 0.1810 0.4644
H102 H 0.4931 0.1611 0.4007
O24 O 0.9374(16) 0.4998(13) 0.4620(6)
H103 H 0.9818 0.4939 0.4984
H104 H 0.9997 0.5210 0.4311
loop_
_geom_bond_atom_site_label_1
_geom_bond_atom_site_label_2
_geom_bond_site_symmetry_1
_geom_bond_site_symmetry_2
C1 H1 1_555 1_555
H2 C1 1_555 1_555
C2 C1 1_555 1_555
H3 C2 1_555 1_555
H4 C2 1_555 1_555
C3 C2 1_555 1_555
H5 C3 1_555 1_555
H6 C3 1_555 1_555
C4 C3 1_555 1_555
H7 C4 1_555 1_555
H8 C4 1_555 1_555
C5 C4 1_555 1_555
H9 C5 1_555 1_555
H10 C5 1_555 1_555
C6 C5 1_555 1_555
H11 C6 1_555 1_555
C7 C6 1_555 1_555
C8 H12 1_555 1_555
C9 C8 1_555 1_555
C10 H13 1_555 1_555
C11 C10 1_555 1_555
C12 H14 1_555 1_555
C13 C12 1_555 1_555
C14 H15 1_555 1_555
C15 C14 1_555 1_555
H16 C15 1_555 1_555
H17 C15 1_555 1_555
C16 C17 1_555 1_555
C17 H18 1_555 1_555
H19 C17 1_555 1_555
H20 C17 1_555 1_555
C18 C8 1_555 1_555
H21 C18 1_555 1_555
H22 C18 1_555 1_555
H23 C18 1_555 1_555
C19 C10 1_555 1_555
H24 C19 1_555 1_555
C20 C19 1_555 1_555
H25 C20 1_555 1_555
H26 C20 1_555 1_555
H27 C20 1_555 1_555
C21 C19 1_555 1_555
H28 C21 1_555 1_555
H29 C21 1_555 1_555
C22 C21 1_555 1_555
H30 C22 1_555 1_555
H31 C22 1_555 1_555
H32 C22 1_555 1_555
C23 C12 1_555 1_555
H33 C23 1_555 1_555
H34 C23 1_555 1_555
H35 C23 1_555 1_555
C24 C14 1_555 1_555
N1 C7 1_555 1_555
H36 N1 1_555 1_555
N2 C9 1_555 1_555
H37 N2 1_555 1_555
N3 C11 1_555 1_555
H38 N3 1_555 1_555
N4 C13 1_555 1_555
H39 N4 1_555 1_555
N5 C24 1_555 1_555
H40 N5 1_555 1_555
H41 N5 1_555 1_555
N6 C6 1_555 1_555
H42 N6 1_555 1_555
O1 C7 1_555 1_555
O2 C9 1_555 1_555
O3 C11 1_555 1_555
O4 C13 1_555 1_555
O5 C24 1_555 1_555
O6 S1 1_555 1_555
O7 C16 1_555 1_555
S1 C1 1_555 1_555
C25 H43 1_555 1_555
H44 C25 1_555 1_555
C26 C25 1_555 1_555
H45 C26 1_555 1_555
H46 C26 1_555 1_555
C27 C26 1_555 1_555
H47 C27 1_555 1_555
H48 C27 1_555 1_555
C28 C27 1_555 1_555
H49 C28 1_555 1_555
H50 C28 1_555 1_555
C29 C28 1_555 1_555
H51 C29 1_555 1_555
H52 C29 1_555 1_555
C30 C29 1_555 1_555
H53 C30 1_555 1_555
C31 C30 1_555 1_555
C32 H54 1_555 1_555
C33 C32 1_555 1_555
C34 H55 1_555 1_555
C35 C34 1_555 1_555
C36 H56 1_555 1_555
C37 C36 1_555 1_555
C38 H57 1_555 1_555
C39 C38 1_555 1_555
H58 C39 1_555 1_555
H59 C39 1_555 1_555
C40 C41 1_555 1_555
C41 H60 1_555 1_555
H61 C41 1_555 1_555
H62 C41 1_555 1_555
C42 C32 1_555 1_555
H63 C42 1_555 1_555
H64 C42 1_555 1_555
H65 C42 1_555 1_555
C43 C34 1_555 1_555
H66 C43 1_555 1_555
C44 C43 1_555 1_555
H67 C44 1_555 1_555
H68 C44 1_555 1_555
H69 C44 1_555 1_555
C45 C43 1_555 1_555
H70 C45 1_555 1_555
H71 C45 1_555 1_555
C46 C45 1_555 1_555
H72 C46 1_555 1_555
H73 C46 1_555 1_555
H74 C46 1_555 1_555
C47 C36 1_555 1_555
H75 C47 1_555 1_555
H76 C47 1_555 1_555
H77 C47 1_555 1_555
C48 C38 1_555 1_555
N7 C31 1_555 1_555
H78 N7 1_555 1_555
N8 C33 1_555 1_555
H79 N8 1_555 1_555
N9 C35 1_555 1_555
H80 N9 1_555 1_555
N10 C37 1_555 1_555
H81 N10 1_555 1_555
N11 C30 1_555 1_555
H82 N11 1_555 1_555
N12 C48 1_555 1_555
H83 N12 1_555 1_555
H84 N12 1_555 1_555
O8 S2 1_555 1_555
O9 C40 1_555 1_555
O10 C31 1_555 1_555
O11 C35 1_555 1_555
O12 C37 1_555 1_555
O13 C48 1_555 1_555
O14 C33 1_555 1_555
S2 C25 1_555 1_555
O15 H85 1_555 1_555
H86 O15 1_555 1_555
O16 H87 1_555 1_555
H88 O16 1_555 1_555
O17 H89 1_555 1_555
H90 O17 1_555 1_555
O18 H91 1_555 1_555
H92 O18 1_555 1_555
O19 H93 1_555 1_555
H94 O19 1_555 1_555
O20 H95 1_555 1_555
H96 O20 1_555 1_555
O21 H97 1_555 1_555
H98 O21 1_555 1_555
O22 H99 1_555 1_555
H100 O22 1_555 1_555
O23 H101 1_555 1_555
H102 O23 1_555 1_555
O24 H103 1_555 1_555
H104 O24 1_555 1_555
C8 N1 1_555 1_555
C10 N2 1_555 1_555
C12 N3 1_555 1_555
C14 N4 1_555 1_555
C15 S1 1_555 1_555
C16 N6 1_555 1_555
C32 N7 1_555 1_555
C34 N8 1_555 1_555
C36 N9 1_555 1_555
C38 N10 1_555 1_555
C39 S2 1_555 1_555
C40 N11 1_555 1_555

#END
