
#######################################################################
#
#                 Cambridge Crystallographic Data Centre
#                                CCDC 
#
#######################################################################
#
# If this CIF has been generated from an entry in the Cambridge 
# Structural Database, then it will include bibliographic, chemical, 
# crystal, experimental, refinement or atomic coordinate data resulting 
# from the CCDC's data processing and validation procedures.
#
#######################################################################

data_SUFLAI
_chemical_formula_moiety         'C20 H12 F1 N3,C1 H2 Cl2'
_chemical_name_systematic        
'2-(4-Fluorophenyl)-4-phenylpyrazolo[1,5-a]pyridine-5-carbonitrile dichloromethane solvate'
_symmetry_cell_setting           monoclinic
_symmetry_space_group_name_H-M   'P 21/c'
_symmetry_Int_Tables_number      14
_space_group_name_Hall           '-P 2ybc'
loop_
_symmetry_equiv_pos_site_id
_symmetry_equiv_pos_as_xyz
1 x,y,z
2 -x,1/2+y,1/2-z
3 -x,-y,-z
4 x,1/2-y,1/2+z
_cell_length_a                   11.236(4)
_cell_length_b                   20.719(7)
_cell_length_c                   7.795(3)
_cell_angle_alpha                90
_cell_angle_beta                 97.542(5)
_cell_angle_gamma                90
_cell_volume                     1798.97
_cell_formula_units_Z            4
loop_
_atom_site_label
_atom_site_type_symbol
_atom_site_fract_x
_atom_site_fract_y
_atom_site_fract_z
N1 N -0.34781(14) -0.47275(8) -0.1029(2)
N2 N -0.25913(15) -0.43932(8) -0.0116(2)
C1 C -0.43917(19) -0.44490(10) -0.2085(3)
H1 H -0.4421 -0.4004 -0.2240
C2 C -0.08316(17) -0.46557(10) 0.1902(2)
F1 F 0.22004(13) -0.41401(8) 0.5054(2)
C3 C -0.23704(17) -0.54603(10) 0.0437(3)
H2 H -0.2057 -0.5846 0.0913
N3 N -0.68226(18) -0.61467(10) -0.4535(3)
C4 C -0.51884(17) -0.55089(10) -0.2662(2)
C5 C -0.19152(17) -0.48455(10) 0.0770(2)
C6 C -0.51631(19) -0.68474(10) -0.0927(3)
H3 H -0.5887 -0.6638 -0.0854
C7 C -0.33835(17) -0.53830(9) -0.0744(2)
C8 C -0.42741(17) -0.57965(9) -0.1601(2)
C9 C -0.52471(19) -0.48289(10) -0.2895(3)
H4 H -0.5885 -0.4647 -0.3615
C10 C -0.41853(18) -0.64993(10) -0.1306(2)
C11 C -0.60984(19) -0.58822(10) -0.3663(3)
C12 C 0.00375(19) -0.51042(11) 0.2454(3)
H5 H -0.0075 -0.5531 0.2102
C13 C 0.0374(2) -0.38476(11) 0.3500(3)
H6 H 0.0499 -0.3423 0.3863
C14 C -0.3119(2) -0.68202(11) -0.1402(3)
H7 H -0.2448 -0.6591 -0.1640
C15 C -0.0650(2) -0.40233(11) 0.2438(3)
H8 H -0.1227 -0.3713 0.2076
C16 C -0.5076(2) -0.75026(11) -0.0657(3)
H9 H -0.5738 -0.7734 -0.0394
C17 C -0.3042(2) -0.74724(12) -0.1149(3)
H10 H -0.2322 -0.7685 -0.1231
C18 C 0.11966(19) -0.43119(12) 0.4001(3)
C19 C -0.4019(2) -0.78141(11) -0.0774(3)
H11 H -0.3963 -0.8258 -0.0600
C20 C 0.10625(19) -0.49391(11) 0.3507(3)
H12 H 0.1647 -0.5245 0.3871
C21 C -0.8779(2) -0.82021(13) -0.2834(4)
H13 H -0.8597 -0.8264 -0.1594
H14 H -0.8580 -0.8598 -0.3396
Cl1 Cl -0.79119(7) -0.75800(4) -0.34685(12)
Cl2 Cl -1.02998(7) -0.80475(4) -0.33519(15)
loop_
_geom_bond_atom_site_label_1
_geom_bond_atom_site_label_2
_geom_bond_site_symmetry_1
_geom_bond_site_symmetry_2
N1 N2 1_555 1_555
N2 C5 1_555 1_555
C1 N1 1_555 1_555
H1 C1 1_555 1_555
C2 C5 1_555 1_555
F1 C18 1_555 1_555
C3 H2 1_555 1_555
N3 C11 1_555 1_555
C4 C8 1_555 1_555
C5 C3 1_555 1_555
C6 H3 1_555 1_555
C7 N1 1_555 1_555
C8 C7 1_555 1_555
C9 C1 1_555 1_555
H4 C9 1_555 1_555
C10 C6 1_555 1_555
C11 C4 1_555 1_555
C12 C2 1_555 1_555
H5 C12 1_555 1_555
C13 H6 1_555 1_555
C14 C10 1_555 1_555
H7 C14 1_555 1_555
C15 C2 1_555 1_555
H8 C15 1_555 1_555
C16 C6 1_555 1_555
H9 C16 1_555 1_555
C17 C14 1_555 1_555
H10 C17 1_555 1_555
C18 C13 1_555 1_555
C19 C16 1_555 1_555
H11 C19 1_555 1_555
C20 C12 1_555 1_555
H12 C20 1_555 1_555
C21 H13 1_555 1_555
H14 C21 1_555 1_555
Cl1 C21 1_555 1_555
Cl2 C21 1_555 1_555
C3 C7 1_555 1_555
C4 C9 1_555 1_555
C8 C10 1_555 1_555
C13 C15 1_555 1_555
C17 C19 1_555 1_555
C18 C20 1_555 1_555

#END
