
#######################################################################
#
#                 Cambridge Crystallographic Data Centre
#                                CCDC 
#
#######################################################################
#
# If this CIF has been generated from an entry in the Cambridge 
# Structural Database, then it will include bibliographic, chemical, 
# crystal, experimental, refinement or atomic coordinate data resulting 
# from the CCDC's data processing and validation procedures.
#
#######################################################################

data_SUFLAG04
_chemical_formula_moiety         'C22 H12 O2 S1'
_chemical_name_systematic        2-(Thioxanthen-9-ylidene)indane-1,3-dione
_symmetry_cell_setting           monoclinic
_symmetry_space_group_name_H-M   'P 21/n'
_symmetry_Int_Tables_number      14
_space_group_name_Hall           '-P 2yn'
loop_
_symmetry_equiv_pos_site_id
_symmetry_equiv_pos_as_xyz
1 x,y,z
2 1/2-x,1/2+y,1/2-z
3 -x,-y,-z
4 1/2+x,1/2-y,1/2+z
_cell_length_a                   9.5862(5)
_cell_length_b                   8.1401(4)
_cell_length_c                   21.2445(12)
_cell_angle_alpha                90
_cell_angle_beta                 94.236(4)
_cell_angle_gamma                90
_cell_volume                     1653.24
_exptl_crystal_colour            'orange red'
_exptl_crystal_description       prism
_cell_formula_units_Z            4
loop_
_atom_site_label
_atom_site_type_symbol
_atom_site_fract_x
_atom_site_fract_y
_atom_site_fract_z
S1 S 0.74793(17) 0.72051(16) 0.23081(6)
O1 O 1.1818(3) 0.7082(4) 0.12592(16)
O2 O 0.8059(4) 0.8534(4) -0.02051(14)
C1 C 0.7457(5) 0.9060(5) 0.12218(19)
C2 C 0.8973(4) 0.8704(4) 0.12363(18)
C3 C 0.9671(4) 0.8215(5) 0.07333(17)
C4 C 0.9112(5) 0.8173(5) 0.2389(2)
C5 C 1.1067(5) 0.7373(5) 0.0790(2)
C6 C 1.0227(5) 0.7143(5) -0.0269(2)
C7 C 0.6776(5) 1.0082(6) 0.0776(2)
H1 H 0.7286 1.0595 0.0477
C8 C 0.9706(5) 0.8846(5) 0.1869(2)
C9 C 1.0945(5) 0.9731(6) 0.1965(2)
H2 H 1.1320 1.0237 0.1623
C10 C 0.6688(5) 0.8363(5) 0.1683(2)
C11 C 1.1338(5) 0.6772(5) 0.0152(2)
C12 C 1.0209(6) 0.6700(6) -0.0898(2)
H3 H 0.9457 0.6957 -0.1183
C13 C 0.9141(5) 0.8034(5) 0.0055(2)
C14 C 1.2475(5) 0.5900(5) -0.0038(3)
H4 H 1.3219 0.5619 0.0247
C15 C 0.5217(7) 0.8542(8) 0.1658(3)
H5 H 0.4683 0.8002 0.1943
C16 C 0.5359(6) 1.0349(7) 0.0770(3)
H6 H 0.4914 1.1065 0.0479
C17 C 1.1358(7) 0.5856(6) -0.1084(3)
H7 H 1.1381 0.5546 -0.1504
C18 C 1.1069(9) 0.9130(9) 0.3055(3)
H8 H 1.1540 0.9192 0.3453
C19 C 1.2463(7) 0.5464(6) -0.0667(3)
H9 H 1.3220 0.4894 -0.0810
C20 C 1.1626(6) 0.9875(7) 0.2552(3)
H10 H 1.2454 1.0470 0.2609
C21 C 0.9823(8) 0.8290(7) 0.2977(3)
H11 H 0.9456 0.7797 0.3324
C22 C 0.4616(7) 0.9540(9) 0.1200(3)
H12 H 0.3651 0.9679 0.1179
loop_
_geom_bond_atom_site_label_1
_geom_bond_atom_site_label_2
_geom_bond_site_symmetry_1
_geom_bond_site_symmetry_2
S1 C4 1_555 1_555
O1 C5 1_555 1_555
O2 C13 1_555 1_555
C1 C2 1_555 1_555
C2 C3 1_555 1_555
C3 C5 1_555 1_555
C4 C8 1_555 1_555
C5 C11 1_555 1_555
C6 C11 1_555 1_555
C7 C1 1_555 1_555
H1 C7 1_555 1_555
C8 C2 1_555 1_555
C9 C8 1_555 1_555
H2 C9 1_555 1_555
C10 S1 1_555 1_555
C11 C14 1_555 1_555
C12 C6 1_555 1_555
H3 C12 1_555 1_555
C13 C3 1_555 1_555
C14 H4 1_555 1_555
C15 C10 1_555 1_555
H5 C15 1_555 1_555
C16 C7 1_555 1_555
H6 C16 1_555 1_555
C17 C12 1_555 1_555
H7 C17 1_555 1_555
C18 H8 1_555 1_555
C19 C14 1_555 1_555
H9 C19 1_555 1_555
C20 C9 1_555 1_555
H10 C20 1_555 1_555
C21 C4 1_555 1_555
H11 C21 1_555 1_555
C22 C15 1_555 1_555
H12 C22 1_555 1_555
C1 C10 1_555 1_555
C6 C13 1_555 1_555
C16 C22 1_555 1_555
C17 C19 1_555 1_555
C18 C20 1_555 1_555
C18 C21 1_555 1_555

#END
