
#######################################################################
#
#                 Cambridge Crystallographic Data Centre
#                                CCDC 
#
#######################################################################
#
# If this CIF has been generated from an entry in the Cambridge 
# Structural Database, then it will include bibliographic, chemical, 
# crystal, experimental, refinement or atomic coordinate data resulting 
# from the CCDC's data processing and validation procedures.
#
#######################################################################

data_SUFMOV
_chemical_formula_moiety         'C20 H20 S16'
_chemical_name_systematic        
1^6^,1^7^,6^3^,6^6^-Tetramethylthio-2,5,7,10-tetrathia-1(2,7),6(3,6)-ditetrathiafulvalenacyclodecaphane
_symmetry_cell_setting           triclinic
_symmetry_space_group_name_H-M   'P -1'
_symmetry_Int_Tables_number      2
_space_group_name_Hall           '-P 1'
loop_
_symmetry_equiv_pos_site_id
_symmetry_equiv_pos_as_xyz
1 x,y,z
2 -x,-y,-z
_cell_length_a                   11.524(1)
_cell_length_b                   12.176(1)
_cell_length_c                   12.352(1)
_cell_angle_alpha                68.13(1)
_cell_angle_beta                 78.21(1)
_cell_angle_gamma                75.55(1)
_cell_volume                     1545.56
_exptl_crystal_colour            amber
_exptl_crystal_description       '12-face block'
_chemical_melting_point          365-367K
_cell_formula_units_Z            2
loop_
_atom_site_label
_atom_site_type_symbol
_atom_site_fract_x
_atom_site_fract_y
_atom_site_fract_z
S1 S 0.70507(3) 0.41911(3) 0.41838(3)
S2 S 0.58109(4) 0.25457(3) 0.38331(3)
S3 S 0.80902(3) 0.20101(3) 0.65141(3)
S4 S 0.69280(4) 0.03586(3) 0.60594(3)
S5 S 0.53364(4) 0.64168(3) 0.31957(3)
S6 S 0.38127(4) 0.45132(4) 0.26833(4)
S7 S 0.76669(4) 0.08320(4) 0.91730(3)
S8 S 0.64532(4) -0.11261(3) 0.86279(4)
S9 S 0.18556(3) 0.22156(3) 0.85367(3)
S10 S 0.05161(3) 0.38119(3) 0.65416(3)
S11 S 0.16204(4) 0.44259(3) 0.94539(3)
S12 S 0.00743(3) 0.60201(3) 0.76283(3)
S13 S 0.28111(4) 0.02422(3) 0.74828(4)
S14 S 0.13253(4) 0.21128(4) 0.51705(3)
S15 S 0.19709(4) 0.64200(5) 1.01380(5)
S16 S 0.00256(4) 0.82368(4) 0.81815(4)
C1 C 0.67909(13) 0.27131(13) 0.46579(13)
C2 C 0.56967(13) 0.48477(13) 0.35428(12)
C3 C 0.51061(13) 0.40917(13) 0.33941(13)
C4 C 0.72436(13) 0.18161(13) 0.55845(13)
C5 C 0.75276(13) 0.08733(13) 0.77693(13)
C6 C 0.69893(13) 0.01225(13) 0.75530(13)
C7 C 0.5143(2) 0.69683(15) 0.16518(15)
H1 H 0.5234(19) 0.7768(20) 0.1345(18)
H2 H 0.4360(21) 0.6890(19) 0.1557(19)
H3 H 0.5724(23) 0.6517(23) 0.1278(22)
C8 C 0.26454(15) 0.39458(14) 0.3877(2)
H4 H 0.1889(20) 0.4446(19) 0.3575(19)
H5 H 0.2713(20) 0.4167(20) 0.4512(20)
C9 C 0.26499(15) 0.26187(14) 0.41769(14)
H6 H 0.3382(20) 0.2107(19) 0.4527(19)
H7 H 0.2630(19) 0.2472(19) 0.3467(19)
C10 C 0.9171(2) 0.1143(2) 0.8928(2)
H8 H 0.9744(22) 0.0532(21) 0.8701(20)
H9 H 0.9279(20) 0.1162(20) 0.9656(20)
H10 H 0.9222(21) 0.1933(21) 0.8349(20)
C11 C 0.50157(15) -0.09811(14) 0.8133(2)
H11 H 0.5158(18) -0.1111(18) 0.7366(18)
H12 H 0.4673(20) -0.1608(20) 0.8736(20)
C12 C 0.41793(14) 0.02263(13) 0.80334(14)
H13 H 0.4550(18) 0.0863(17) 0.7491(17)
H14 H 0.3973(18) 0.0344(17) 0.8803(18)
C13 C 0.11050(13) 0.36826(13) 0.78020(12)
C14 C 0.20241(13) 0.17144(13) 0.73343(13)
C15 C 0.14172(13) 0.24482(13) 0.64152(13)
C16 C 0.09673(13) 0.45918(13) 0.82185(13)
C17 C 0.13571(14) 0.59819(14) 0.92084(15)
C18 C 0.06333(14) 0.67167(14) 0.83832(14)
C19 C 0.3550(2) 0.6068(2) 0.9617(2)
H15 H 0.3809(26) 0.5189(27) 0.9754(25)
H16 H 0.3996(23) 0.6338(22) 1.0040(22)
H17 H 0.3660(26) 0.6518(26) 0.8804(26)
C20 C 0.0429(2) 0.8952(2) 0.6622(2)
H18 H 0.0168(24) 0.8623(24) 0.6200(23)
H19 H 0.1284(28) 0.8904(25) 0.6438(25)
H20 H 0.0053(24) 0.9765(25) 0.6427(23)
loop_
_geom_bond_atom_site_label_1
_geom_bond_atom_site_label_2
_geom_bond_site_symmetry_1
_geom_bond_site_symmetry_2
S1 C1 1_555 1_555
S2 C1 1_555 1_555
S3 C4 1_555 1_555
S4 C4 1_555 1_555
S5 C2 1_555 1_555
S6 C3 1_555 1_555
S7 C5 1_555 1_555
S8 C6 1_555 1_555
S9 C13 1_555 1_555
S10 C13 1_555 1_555
S11 C16 1_555 1_555
S12 C16 1_555 1_555
S13 C12 1_555 1_555
S14 C9 1_555 1_555
S15 C17 1_555 1_555
S16 C18 1_555 1_555
C1 C4 1_555 1_555
C2 S1 1_555 1_555
C3 S2 1_555 1_555
C5 S3 1_555 1_555
C6 S4 1_555 1_555
C7 S5 1_555 1_555
H1 C7 1_555 1_555
H2 C7 1_555 1_555
H3 C7 1_555 1_555
C8 S6 1_555 1_555
H4 C8 1_555 1_555
H5 C8 1_555 1_555
C9 C8 1_555 1_555
H6 C9 1_555 1_555
H7 C9 1_555 1_555
C10 S7 1_555 1_555
H8 C10 1_555 1_555
H9 C10 1_555 1_555
H10 C10 1_555 1_555
C11 S8 1_555 1_555
H11 C11 1_555 1_555
H12 C11 1_555 1_555
C12 C11 1_555 1_555
H13 C12 1_555 1_555
H14 C12 1_555 1_555
C13 C16 1_555 1_555
C14 S9 1_555 1_555
C15 S10 1_555 1_555
C17 S11 1_555 1_555
C18 S12 1_555 1_555
C19 S15 1_555 1_555
H15 C19 1_555 1_555
H16 C19 1_555 1_555
H17 C19 1_555 1_555
C20 S16 1_555 1_555
H18 C20 1_555 1_555
H19 C20 1_555 1_555
H20 C20 1_555 1_555
S13 C14 1_555 1_555
S14 C15 1_555 1_555
C2 C3 1_555 1_555
C5 C6 1_555 1_555
C14 C15 1_555 1_555
C17 C18 1_555 1_555

#END
