
#######################################################################
#
#                 Cambridge Crystallographic Data Centre
#                                CCDC 
#
#######################################################################
#
# If this CIF has been generated from an entry in the Cambridge 
# Structural Database, then it will include bibliographic, chemical, 
# crystal, experimental, refinement or atomic coordinate data resulting 
# from the CCDC's data processing and validation procedures.
#
#######################################################################

data_SUFNIQ
_chemical_formula_moiety         'C20 H20 S16 1+,I3 1-,I5'
_chemical_name_systematic        
'1^6^,1^7^,6^3^,6^6^-Tetramethylthio-2,5,7,10-tetrathia-1(2,3),6(2,7)-ditetrathiafulvalenacyclodecaphane pentaiodide tri-iodide'
_symmetry_cell_setting           orthorhombic
_symmetry_space_group_name_H-M   'P n m a'
_symmetry_Int_Tables_number      62
_space_group_name_Hall           '-P 2ac 2n'
loop_
_symmetry_equiv_pos_site_id
_symmetry_equiv_pos_as_xyz
1 x,y,z
2 1/2+x,y,1/2-z
3 x,1/2-y,z
4 1/2-x,1/2+y,1/2+z
5 -x,-y,-z
6 1/2-x,-y,1/2+z
7 -x,1/2+y,-z
8 1/2+x,1/2-y,1/2-z
_cell_length_a                   25.961(2)
_cell_length_b                   20.548(2)
_cell_length_c                   8.512(1)
_cell_angle_alpha                90
_cell_angle_beta                 90
_cell_angle_gamma                90
_cell_volume                     4540.7
_exptl_crystal_colour            black
_exptl_crystal_description       plate
_cell_formula_units_Z            4
loop_
_atom_site_label
_atom_site_type_symbol
_atom_site_fract_x
_atom_site_fract_y
_atom_site_fract_z
I1 I 0.41583(7) 0.2500 0.4810(2)
I2 I 0.40361(7) 0.39137(7) 0.4805(2)
I2B I 0.40361(7) 0.10863(7) 0.4805(2)
I3 I 0.13291(10) 0.2500 0.3682(4)
I4 I 0.17836(10) 0.37841(14) 0.2566(3)
I5 I 0.2256(2) 0.4925(2) 0.1396(5)
I4B I 0.17836(10) 0.12159(14) 0.2566(3)
I5B I 0.2256(2) 0.0075(2) 0.1396(5)
S1 S -0.0080(2) 0.3308(2) 0.4122(7)
S2 S 0.0255(2) 0.3282(2) 0.7402(6)
S3 S 0.0380(2) 0.4642(3) 0.3530(7)
S4 S 0.0795(2) 0.4576(2) 0.7236(6)
S5 S 0.2663(2) 0.3201(2) 0.5402(6)
S6 S 0.3128(2) 0.3202(2) 0.1865(6)
S7 S 0.2126(3) 0.3325(3) 0.8497(7)
S8 S 0.3636(2) 0.3278(2) -0.1324(6)
C1 C 0.0048(8) 0.2831(10) 0.5811(25)
C2 C 0.0295(7) 0.3968(9) 0.4776(23)
C3 C 0.0466(8) 0.3948(10) 0.6282(24)
C4 C 0.0454(9) 0.4290(12) 0.1665(27)
H1 H 0.0504(9) 0.4634(12) 0.0881(27)
H2 H 0.0144(9) 0.4040(12) 0.1402(27)
H3 H 0.0753(9) 0.4001(12) 0.1668(27)
C5 C 0.1270(11) 0.4136(14) 0.8305(32)
H4 H 0.1466(11) 0.4442(14) 0.8976(32)
H5 H 0.1097(11) 0.3817(14) 0.9001(32)
C6 C 0.1626(10) 0.3794(13) 0.7274(32)
H6 H 0.1803(10) 0.4110(13) 0.6584(32)
H7 H 0.1433(10) 0.3486(13) 0.6600(32)
C7 C 0.2804(11) 0.2500 0.4366(32)
C8 C 0.2369(7) 0.2841(9) 0.6985(21)
C9 C 0.2980(11) 0.2500 0.2824(32)
C10 C 0.3402(7) 0.2839(9) 0.0276(23)
C11 C 0.3612(9) 0.4086(11) -0.0530(28)
H8 H 0.3736(9) 0.4396(11) -0.1319(28)
H9 H 0.3831(9) 0.4110(11) 0.0405(28)
H10 H 0.3256(9) 0.4192(11) -0.0244(28)
S5B S 0.2663(2) 0.1799(2) 0.5402(6)
C8B C 0.2369(7) 0.2159(9) 0.6985(21)
S7B S 0.2126(3) 0.1675(3) 0.8497(7)
C6B C 0.1626(10) 0.1206(13) 0.7274(32)
C5B C 0.1270(11) 0.0864(14) 0.8305(32)
S4B S 0.0795(2) 0.0424(2) 0.7236(6)
C3B C 0.0466(8) 0.1052(10) 0.6282(24)
S2B S 0.0255(2) 0.1718(2) 0.7402(6)
C1B C 0.0048(8) 0.2169(10) 0.5811(25)
S1B S -0.0080(2) 0.1692(2) 0.4122(7)
C2B C 0.0295(7) 0.1032(9) 0.4776(23)
S3B S 0.0380(2) 0.0358(3) 0.3530(7)
C4B C 0.0454(9) 0.0710(12) 0.1665(27)
H1B H 0.0504(9) 0.0366(12) 0.0881(27)
H2B H 0.0144(9) 0.0960(12) 0.1402(27)
H3B H 0.0753(9) 0.0999(12) 0.1668(27)
H4B H 0.1466(11) 0.0558(14) 0.8976(32)
H5B H 0.1097(11) 0.1183(14) 0.9001(32)
H6B H 0.1803(10) 0.0890(13) 0.6584(32)
H7B H 0.1433(10) 0.1514(13) 0.6600(32)
C10B C 0.3402(7) 0.2161(9) 0.0276(23)
S6B S 0.3128(2) 0.1798(2) 0.1865(6)
S8B S 0.3636(2) 0.1722(2) -0.1324(6)
C11B C 0.3612(9) 0.0914(11) -0.0530(28)
H8B H 0.3736(9) 0.0604(11) -0.1319(28)
H9B H 0.3831(9) 0.0890(11) 0.0405(28)
H10B H 0.3256(9) 0.0808(11) -0.0244(28)
I6? I 0.2018(2) 0.4347(3) 0.2542(6)
I7? I 0.2403(2) 0.4982(3) 0.0208(12)
loop_
_geom_bond_atom_site_label_1
_geom_bond_atom_site_label_2
_geom_bond_site_symmetry_1
_geom_bond_site_symmetry_2
I1 I2 1_555 1_555
I3 I4 1_555 1_555
I4 I5 1_555 1_555
S1 C1 1_555 1_555
S2 C1 1_555 1_555
S3 C2 1_555 1_555
S4 C3 1_555 1_555
S5 C7 1_555 1_555
S6 C9 1_555 1_555
S7 C6 1_555 1_555
S8 C10 1_555 1_555
C1 C1B 1_555 1_555
C2 S1 1_555 1_555
C3 S2 1_555 1_555
C4 S3 1_555 1_555
H1 C4 1_555 1_555
H2 C4 1_555 1_555
H3 C4 1_555 1_555
C5 S4 1_555 1_555
H4 C5 1_555 1_555
H5 C5 1_555 1_555
C6 C5 1_555 1_555
H6 C6 1_555 1_555
H7 C6 1_555 1_555
C7 C9 1_555 1_555
C8 S5 1_555 1_555
C9 S6B 1_555 1_555
C10 S6 1_555 1_555
C11 S8 1_555 1_555
H8 C11 1_555 1_555
H9 C11 1_555 1_555
H10 C11 1_555 1_555
I2B I1 1_555 1_555
I4B I3 1_555 1_555
I5B I4B 1_555 1_555
S5B C7 1_555 1_555
C8B C8 1_555 1_555
S7B C8B 1_555 1_555
C6B S7B 1_555 1_555
C5B C6B 1_555 1_555
S4B C5B 1_555 1_555
C3B S4B 1_555 1_555
S2B C3B 1_555 1_555
C1B S2B 1_555 1_555
S1B C1B 1_555 1_555
C2B C3B 1_555 1_555
S3B C2B 1_555 1_555
C4B S3B 1_555 1_555
H1B C4B 1_555 1_555
H2B C4B 1_555 1_555
H3B C4B 1_555 1_555
H4B C5B 1_555 1_555
H5B C5B 1_555 1_555
H6B C6B 1_555 1_555
H7B C6B 1_555 1_555
C10B C10 1_555 1_555
S6B C10B 1_555 1_555
S8B C10B 1_555 1_555
C11B S8B 1_555 1_555
H8B C11B 1_555 1_555
H9B C11B 1_555 1_555
H10B C11B 1_555 1_555
S7 C8 1_555 1_555
C2 C3 1_555 1_555
S5B C8B 1_555 1_555
S1B C2B 1_555 1_555

#END
