
#######################################################################
#
#                 Cambridge Crystallographic Data Centre
#                                CCDC 
#
#######################################################################
#
# If this CIF has been generated from an entry in the Cambridge 
# Structural Database, then it will include bibliographic, chemical, 
# crystal, experimental, refinement or atomic coordinate data resulting 
# from the CCDC's data processing and validation procedures.
#
#######################################################################

data_SUFNAI
_chemical_formula_moiety         'C20 H20 S16,C20 H20 S16 1+,Cl1 O4 1-'
_chemical_name_systematic        
'bis(1^6^,1^7^,6^3^,6^6^-Tetramethylthio-2,5,7,10-tetrathia-1(2,3),6(2,7)-ditetrathiafulvalenacyclodecaphane) perchlorate'
_symmetry_cell_setting           orthorhombic
_symmetry_space_group_name_H-M   'P n a 21'
_symmetry_Int_Tables_number      33
_space_group_name_Hall           'P 2c -2n'
loop_
_symmetry_equiv_pos_site_id
_symmetry_equiv_pos_as_xyz
1 x,y,z
2 -x,-y,1/2+z
3 1/2+x,1/2-y,z
4 1/2-x,1/2+y,1/2+z
_cell_length_a                   22.6450(15)
_cell_length_b                   8.3544(6)
_cell_length_c                   34.184(3)
_cell_angle_alpha                90
_cell_angle_beta                 90
_cell_angle_gamma                90
_cell_volume                     6467.11
_exptl_crystal_colour            black
_exptl_crystal_description       plate
_cell_formula_units_Z            4
loop_
_atom_site_label
_atom_site_type_symbol
_atom_site_fract_x
_atom_site_fract_y
_atom_site_fract_z
S1 S 0.7185(2) 0.4504(5) 0.04987(12)
S2 S 0.7504(2) 0.7796(5) 0.07332(12)
S3 S 0.8631(2) 0.3906(5) 0.02928(12)
S4 S 0.8850(2) 0.7263(5) 0.05019(13)
S5 S 0.6039(2) 0.4508(5) 0.09468(12)
S6 S 0.6428(2) 0.8273(5) 0.12234(12)
S7 S 0.9869(2) 0.2857(5) 0.05550(14)
S8 S 1.0087(2) 0.6627(5) 0.08036(12)
S9 S 0.9130(2) 0.7191(6) 0.21936(14)
S10 S 0.7904(2) 0.7567(6) 0.24436(14)
S11 S 0.9581(2) 0.9298(6) 0.2892(2)
S12 S 0.8371(2) 0.9678(6) 0.31934(14)
S13 S 0.8808(2) 0.5244(7) 0.14854(15)
S14 S 0.7433(3) 0.5433(7) 0.1761(2)
S15 S 1.0113(4) 1.1257(9) 0.3551(2)
S16 S 0.8796(3) 1.1742(7) 0.3875(2)
C1 C 0.7758(6) 0.5964(16) 0.0540(4)
C2 C 0.6709(6) 0.5500(16) 0.0823(4)
C3 C 0.6857(6) 0.7015(17) 0.0927(4)
C4 C 0.8318(6) 0.5732(16) 0.0437(4)
C5 C 0.9319(6) 0.4292(18) 0.0499(5)
C6 C 0.9419(8) 0.5928(22) 0.0599(6)
C7 C 0.6289(8) 0.2487(23) 0.1023(6)
H1 H 0.5952(8) 0.1808(23) 0.1093(6)
H2 H 0.6581(8) 0.2467(23) 0.1234(6)
H3 H 0.6469(8) 0.2084(23) 0.0781(6)
C8 C 0.6835(7) 0.8308(20) 0.1672(5)
H4 H 0.7241(7) 0.8679(20) 0.1614(5)
H5 H 0.6651(7) 0.9109(20) 0.1847(5)
C9 C 0.6872(8) 0.6805(20) 0.1885(5)
H6 H 0.6490(8) 0.6248(20) 0.1850(5)
H7 H 0.6910(8) 0.7053(20) 0.2167(5)
C10 C 0.9460(7) 0.1032(20) 0.0475(5)
H8 H 0.9726(7) 0.0112(20) 0.0498(5)
H9 H 0.9284(7) 0.1048(20) 0.0214(5)
H10 H 0.9147(7) 0.0946(20) 0.0672(5)
C11 C 0.9850(9) 0.6926(24) 0.1279(6)
H11 H 1.0184(9) 0.7353(24) 0.1435(6)
H12 H 0.9535(9) 0.7749(24) 0.1278(6)
C12 C 0.9605(9) 0.5390(25) 0.1488(7)
H13 H 0.9745(9) 0.5380(25) 0.1762(7)
H14 H 0.9768(9) 0.4432(25) 0.1356(7)
C13 C 0.8640(9) 0.8045(24) 0.2511(6)
C14 C 0.8615(9) 0.6329(25) 0.1903(6)
C15 C 0.8024(8) 0.6427(23) 0.2034(6)
C16 C 0.8825(9) 0.8968(25) 0.2831(6)
C17 C 0.9529(9) 1.0527(24) 0.3300(6)
C18 C 0.8950(10) 1.0651(28) 0.3454(7)
C19 C 1.0570(14) 1.1945(40) 0.3108(11)
H15 H 1.0942(14) 1.2420(40) 0.3197(11)
H16 H 1.0345(14) 1.2741(40) 0.2959(11)
H17 H 1.0655(14) 1.1020(40) 0.2940(11)
C20 C 0.8033(13) 1.1325(39) 0.3990(10)
H18 H 0.7919(13) 1.1920(39) 0.4225(10)
H19 H 0.7986(13) 1.0175(39) 0.4037(10)
H20 H 0.7780(13) 1.1649(39) 0.3771(10)
S17 S 0.8549(2) 0.3891(5) 0.50389(13)
S18 S 0.8775(2) 0.7255(4) 0.48406(12)
S19 S 0.7104(2) 0.4589(5) 0.48628(12)
S20 S 0.74160(15) 0.7852(5) 0.46184(11)
S21 S 0.9783(2) 0.2852(5) 0.47787(13)
S22 S 1.0007(2) 0.6597(5) 0.45381(12)
S23 S 0.5958(2) 0.4569(5) 0.44045(13)
S24 S 0.6365(2) 0.8284(5) 0.41006(13)
S25 S 0.7716(2) 0.3774(6) 0.29358(14)
S26 S 0.8968(2) 0.4678(6) 0.30854(13)
S27 S 0.8145(2) 0.1858(6) 0.21472(14)
S28 S 0.9378(2) 0.2824(6) 0.23221(13)
S29 S 0.7317(2) 0.5177(8) 0.3681(2)
S30 S 0.8675(2) 0.6319(7) 0.38559(15)
S31 S 0.8482(2) -0.0070(6) 0.14429(15)
S32 S 0.9879(2) 0.1063(6) 0.1628(2)
C21 C 0.8228(7) 0.5760(19) 0.4886(5)
C22 C 0.9249(6) 0.4370(17) 0.4814(4)
C23 C 0.9365(6) 0.5830(18) 0.4719(4)
C24 C 0.7659(6) 0.6014(18) 0.4803(5)
C25 C 0.6612(6) 0.5514(17) 0.4529(4)
C26 C 0.6757(6) 0.6992(17) 0.4399(4)
C27 C 0.9394(8) 0.1012(21) 0.4839(5)
H21 H 0.9672(8) 0.0115(21) 0.4822(5)
H22 H 0.9095(8) 0.0907(21) 0.4633(5)
H23 H 0.9202(8) 0.1004(21) 0.5096(5)
C28 C 0.9779(9) 0.7385(23) 0.4059(6)
H24 H 0.9507(9) 0.8291(23) 0.4107(6)
H25 H 1.0135(9) 0.7830(23) 0.3931(6)
C29 C 0.9508(10) 0.6383(29) 0.3798(8)
H26 H 0.9665(10) 0.5287(29) 0.3834(8)
H27 H 0.9605(10) 0.6730(29) 0.3528(8)
C30 C 0.6201(7) 0.2482(20) 0.4316(5)
H28 H 0.5860(7) 0.1827(20) 0.4242(5)
H29 H 0.6379(7) 0.2048(20) 0.4555(5)
H30 H 0.6492(7) 0.2469(20) 0.4104(5)
C31 C 0.6790(9) 0.8195(25) 0.3643(6)
H31 H 0.6634(9) 0.9013(25) 0.3460(6)
H32 H 0.7205(9) 0.8482(25) 0.3701(6)
C32 C 0.6786(8) 0.6593(22) 0.3445(6)
H33 H 0.6900(8) 0.6740(22) 0.3167(6)
H34 H 0.6383(8) 0.6138(22) 0.3452(6)
C33 C 0.8478(8) 0.3705(21) 0.2765(5)
C34 C 0.7870(7) 0.4849(19) 0.3369(5)
C35 C 0.8447(9) 0.5322(24) 0.3434(6)
C36 C 0.8620(8) 0.2937(22) 0.2453(6)
C37 C 0.8710(8) 0.1092(22) 0.1834(6)
C38 C 0.9272(8) 0.1558(21) 0.1917(6)
C39 C 0.8079(11) 0.1406(29) 0.1142(8)
H35 H 0.7925(11) 0.0881(29) 0.0906(8)
H36 H 0.8346(11) 0.2275(29) 0.1066(8)
H37 H 0.7749(11) 0.1846(29) 0.1294(8)
C40 C 1.0486(13) 0.1308(36) 0.1979(9)
H38 H 1.0862(13) 0.1056(36) 0.1851(9)
H39 H 1.0426(13) 0.0580(36) 0.2200(9)
H40 H 1.0495(13) 0.2415(36) 0.2074(9)
Cl1 Cl 0.5822(2) 0.8670(7) 0.2624(2)
O1 O 0.5857(11) 0.7036(31) 0.2679(10)
O2 O 0.5592(15) 0.9236(38) 0.2273(10)
O3 O 0.6425(8) 0.9143(22) 0.2681(7)
O4 O 0.5470(13) 0.9184(38) 0.2926(10)
loop_
_geom_bond_atom_site_label_1
_geom_bond_atom_site_label_2
_geom_bond_site_symmetry_1
_geom_bond_site_symmetry_2
S1 C1 1_555 1_555
S2 C1 1_555 1_555
S3 C4 1_555 1_555
S4 C4 1_555 1_555
S5 C2 1_555 1_555
S6 C3 1_555 1_555
S7 C5 1_555 1_555
S8 C6 1_555 1_555
S9 C13 1_555 1_555
S10 C13 1_555 1_555
S11 C16 1_555 1_555
S12 C16 1_555 1_555
S13 C12 1_555 1_555
S14 C9 1_555 1_555
S15 C17 1_555 1_555
S16 C18 1_555 1_555
C1 C4 1_555 1_555
C2 S1 1_555 1_555
C3 S2 1_555 1_555
C5 S3 1_555 1_555
C6 S4 1_555 1_555
C7 S5 1_555 1_555
H1 C7 1_555 1_555
H2 C7 1_555 1_555
H3 C7 1_555 1_555
C8 S6 1_555 1_555
H4 C8 1_555 1_555
H5 C8 1_555 1_555
C9 C8 1_555 1_555
H6 C9 1_555 1_555
H7 C9 1_555 1_555
C10 S7 1_555 1_555
H8 C10 1_555 1_555
H9 C10 1_555 1_555
H10 C10 1_555 1_555
C11 S8 1_555 1_555
H11 C11 1_555 1_555
H12 C11 1_555 1_555
C12 C11 1_555 1_555
H13 C12 1_555 1_555
H14 C12 1_555 1_555
C13 C16 1_555 1_555
C14 S9 1_555 1_555
C15 S10 1_555 1_555
C17 S11 1_555 1_555
C18 S12 1_555 1_555
C19 S15 1_555 1_555
H15 C19 1_555 1_555
H16 C19 1_555 1_555
H17 C19 1_555 1_555
C20 S16 1_555 1_555
H18 C20 1_555 1_555
H19 C20 1_555 1_555
H20 C20 1_555 1_555
S17 C21 1_555 1_555
S18 C21 1_555 1_555
S19 C24 1_555 1_555
S20 C24 1_555 1_555
S21 C22 1_555 1_555
S22 C23 1_555 1_555
S23 C25 1_555 1_555
S24 C26 1_555 1_555
S25 C33 1_555 1_555
S26 C33 1_555 1_555
S27 C36 1_555 1_555
S28 C36 1_555 1_555
S29 C32 1_555 1_555
S30 C29 1_555 1_555
S31 C37 1_555 1_555
S32 C38 1_555 1_555
C21 C24 1_555 1_555
C22 S17 1_555 1_555
C23 S18 1_555 1_555
C25 S19 1_555 1_555
C26 S20 1_555 1_555
C27 S21 1_555 1_555
H21 C27 1_555 1_555
H22 C27 1_555 1_555
H23 C27 1_555 1_555
C28 S22 1_555 1_555
H24 C28 1_555 1_555
H25 C28 1_555 1_555
C29 C28 1_555 1_555
H26 C29 1_555 1_555
H27 C29 1_555 1_555
C30 S23 1_555 1_555
H28 C30 1_555 1_555
H29 C30 1_555 1_555
H30 C30 1_555 1_555
C31 S24 1_555 1_555
H31 C31 1_555 1_555
H32 C31 1_555 1_555
C32 C31 1_555 1_555
H33 C32 1_555 1_555
H34 C32 1_555 1_555
C33 C36 1_555 1_555
C34 S25 1_555 1_555
C35 S26 1_555 1_555
C37 S27 1_555 1_555
C38 S28 1_555 1_555
C39 S31 1_555 1_555
H35 C39 1_555 1_555
H36 C39 1_555 1_555
H37 C39 1_555 1_555
C40 S32 1_555 1_555
H38 C40 1_555 1_555
H39 C40 1_555 1_555
H40 C40 1_555 1_555
Cl1 O1 1_555 1_555
O2 Cl1 1_555 1_555
O3 Cl1 1_555 1_555
O4 Cl1 1_555 1_555
S13 C14 1_555 1_555
S14 C15 1_555 1_555
C2 C3 1_555 1_555
C5 C6 1_555 1_555
C14 C15 1_555 1_555
C17 C18 1_555 1_555
S29 C34 1_555 1_555
S30 C35 1_555 1_555
C22 C23 1_555 1_555
C25 C26 1_555 1_555
C34 C35 1_555 1_555
C37 C38 1_555 1_555

#END
