
#######################################################################
#
#                 Cambridge Crystallographic Data Centre
#                                CCDC 
#
#######################################################################
#
# If this CIF has been generated from an entry in the Cambridge 
# Structural Database, then it will include bibliographic, chemical, 
# crystal, experimental, refinement or atomic coordinate data resulting 
# from the CCDC's data processing and validation procedures.
#
#######################################################################

data_SUFTIY
_chemical_formula_moiety         'C32 H28 O4 Si1'
_chemical_name_systematic        
'Methyl 7-oxo-3-phenyl-6-(trimethylsilyl)-1a,1b,5,7-tetrahydro-1,2-(metheno)benzo[7,8]cyclopropa[1,2]-as-indaceno[4,3-cd]oxepine-11d(1H,3H)-carboxylate'
_symmetry_cell_setting           triclinic
_symmetry_space_group_name_H-M   'P -1'
_symmetry_Int_Tables_number      2
_space_group_name_Hall           '-P 1'
loop_
_symmetry_equiv_pos_site_id
_symmetry_equiv_pos_as_xyz
1 x,y,z
2 -x,-y,-z
_cell_length_a                   7.0418(5)
_cell_length_b                   10.4998(8)
_cell_length_c                   17.4226(12)
_cell_angle_alpha                93.591(5)
_cell_angle_beta                 96.204(5)
_cell_angle_gamma                103.663(5)
_cell_volume                     1239.21
_exptl_crystal_colour            yellow
_exptl_crystal_description       Plate
_cell_formula_units_Z            2
_exptl_crystal_recrystallization_method toluene
loop_
_atom_site_label
_atom_site_type_symbol
_atom_site_fract_x
_atom_site_fract_y
_atom_site_fract_z
Si1 Si 0.25829(14) 0.31822(9) 0.28855(5)
O1 O 0.1555(4) 0.2769(2) 0.10594(14)
O2 O 0.8411(4) 0.5696(2) 0.33127(14)
O3 O 0.5568(4) 1.0505(2) 0.09831(14)
O4 O 0.2860(3) 0.8864(2) 0.09883(13)
C1 C 0.3317(5) 0.5948(3) 0.04842(18)
C2 C 0.3725(5) 0.6760(3) -0.01088(19)
H1 H 0.4446 0.7650 0.0007
C3 C 0.3064(5) 0.6251(3) -0.08720(19)
H2 H 0.3326 0.6804 -0.1279
C4 C 0.2021(5) 0.4940(3) -0.10515(19)
H3 H 0.1562 0.4613 -0.1576
C5 C 0.1651(5) 0.4112(3) -0.04641(19)
H4 H 0.0969 0.3214 -0.0581
C6 C 0.2302(5) 0.4628(3) 0.02950(19)
C7 C 0.2194(5) 0.3936(3) 0.10165(19)
C8 C 0.3222(5) 0.4960(3) 0.16701(18)
C9 C 0.3860(5) 0.6162(3) 0.13369(18)
C10 C 0.4909(5) 0.7263(3) 0.18204(18)
C11 C 0.5496(5) 0.7071(3) 0.25942(18)
C12 C 0.5117(5) 0.5844(3) 0.28851(18)
C13 C 0.3770(5) 0.4755(3) 0.24441(19)
C14 C 0.6547(5) 0.5725(4) 0.3577(2)
H5 H 0.6722 0.6484 0.3967
H6 H 0.6028 0.4909 0.3821
C15 C 0.9759(5) 0.6949(3) 0.32608(19)
H7 H 1.0840 0.6753 0.2981
C16 C 0.8891(5) 0.7880(3) 0.27909(19)
C17 C 0.9376(5) 0.8319(3) 0.21192(19)
H8 H 1.0391 0.8102 0.1859
C18 C 0.8130(5) 0.9192(3) 0.18290(19)
H9 H 0.8754 0.9984 0.1573
C19 C 0.5801(5) 0.8641(3) 0.16701(18)
C20 C 0.6861(5) 0.9352(3) 0.24420(19)
H10 H 0.6702 1.0232 0.2637
C21 C 0.7036(5) 0.8275(3) 0.29788(18)
H11 H 0.6974 0.8502 0.3540
C22 C 0.4782(5) 0.9444(3) 0.11739(18)
C23 C 0.1772(5) 0.9566(4) 0.0481(2)
H12 H 0.0380 0.9091 0.0391
H13 H 0.2309 0.9625 -0.0016
H14 H 0.1895 1.0453 0.0724
C24 C 1.0732(5) 0.7589(3) 0.40612(19)
C25 C 1.1034(5) 0.6806(4) 0.4659(2)
H15 H 1.0570 0.5877 0.4570
C26 C 1.2000(6) 0.7363(4) 0.5379(2)
H16 H 1.2191 0.6819 0.5782
C27 C 1.2687(6) 0.8718(4) 0.5511(2)
H17 H 1.3361 0.9105 0.6003
C28 C 1.2392(6) 0.9502(4) 0.4927(2)
H18 H 1.2855 1.0431 0.5020
C29 C 1.1422(6) 0.8947(4) 0.4203(2)
H19 H 1.1231 0.9497 0.3803
C30 C -0.0149(5) 0.2811(4) 0.2623(2)
H20 H -0.0779 0.2065 0.2893
H21 H -0.0477 0.2591 0.2062
H22 H -0.0623 0.3584 0.2776
C31 C 0.3698(6) 0.1804(4) 0.2596(2)
H23 H 0.3037 0.1002 0.2812
H24 H 0.5104 0.2034 0.2795
H25 H 0.3539 0.1654 0.2029
C32 C 0.2921(5) 0.3404(4) 0.3977(2)
H26 H 0.1922 0.2731 0.4174
H27 H 0.2781 0.4279 0.4150
H28 H 0.4237 0.3316 0.4175
loop_
_geom_bond_atom_site_label_1
_geom_bond_atom_site_label_2
_geom_bond_site_symmetry_1
_geom_bond_site_symmetry_2
Si1 C13 1_555 1_555
O1 C7 1_555 1_555
O2 C14 1_555 1_555
O3 C22 1_555 1_555
O4 C22 1_555 1_555
C1 C2 1_555 1_555
C2 H1 1_555 1_555
C3 C2 1_555 1_555
H2 C3 1_555 1_555
C4 C3 1_555 1_555
H3 C4 1_555 1_555
C5 C4 1_555 1_555
H4 C5 1_555 1_555
C6 C1 1_555 1_555
C7 C6 1_555 1_555
C8 C7 1_555 1_555
C9 C1 1_555 1_555
C10 C9 1_555 1_555
C11 C10 1_555 1_555
C12 C11 1_555 1_555
C13 C8 1_555 1_555
C14 C12 1_555 1_555
H5 C14 1_555 1_555
H6 C14 1_555 1_555
C15 O2 1_555 1_555
H7 C15 1_555 1_555
C16 C15 1_555 1_555
C17 C16 1_555 1_555
H8 C17 1_555 1_555
C18 C17 1_555 1_555
H9 C18 1_555 1_555
C19 C10 1_555 1_555
C20 C18 1_555 1_555
H10 C20 1_555 1_555
C21 C11 1_555 1_555
H11 C21 1_555 1_555
C22 C19 1_555 1_555
C23 O4 1_555 1_555
H12 C23 1_555 1_555
H13 C23 1_555 1_555
H14 C23 1_555 1_555
C24 C15 1_555 1_555
C25 C24 1_555 1_555
H15 C25 1_555 1_555
C26 C25 1_555 1_555
H16 C26 1_555 1_555
C27 C26 1_555 1_555
H17 C27 1_555 1_555
C28 C27 1_555 1_555
H18 C28 1_555 1_555
C29 C24 1_555 1_555
H19 C29 1_555 1_555
C30 Si1 1_555 1_555
H20 C30 1_555 1_555
H21 C30 1_555 1_555
H22 C30 1_555 1_555
C31 Si1 1_555 1_555
H23 C31 1_555 1_555
H24 C31 1_555 1_555
H25 C31 1_555 1_555
C32 Si1 1_555 1_555
H26 C32 1_555 1_555
H27 C32 1_555 1_555
H28 C32 1_555 1_555
C5 C6 1_555 1_555
C8 C9 1_555 1_555
C12 C13 1_555 1_555
C16 C21 1_555 1_555
C18 C19 1_555 1_555
C19 C20 1_555 1_555
C20 C21 1_555 1_555
C28 C29 1_555 1_555

#END
