
#######################################################################
#
#                 Cambridge Crystallographic Data Centre
#                                CCDC 
#
#######################################################################
#
# If this CIF has been generated from an entry in the Cambridge 
# Structural Database, then it will include bibliographic, chemical, 
# crystal, experimental, refinement or atomic coordinate data resulting 
# from the CCDC's data processing and validation procedures.
#
#######################################################################

data_SUGGIM
_chemical_formula_moiety         'C28 H24 Br3 N3'
_chemical_name_systematic        
1,2,3-tris(4-bromophenyl)-5-(3,3-diethyltriaz-1-en-1-yl)benzene
_symmetry_cell_setting           triclinic
_symmetry_space_group_name_H-M   'P -1'
_symmetry_Int_Tables_number      2
_space_group_name_Hall           '-P 1'
loop_
_symmetry_equiv_pos_site_id
_symmetry_equiv_pos_as_xyz
1 x,y,z
2 -x,-y,-z
_cell_length_a                   7.1349(4)
_cell_length_b                   11.2698(5)
_cell_length_c                   16.4853(8)
_cell_angle_alpha                79.288(2)
_cell_angle_beta                 87.269(3)
_cell_angle_gamma                79.285(2)
_cell_volume                     1279.64
_exptl_crystal_colour            colorless
_exptl_crystal_description       plate
_cell_formula_units_Z            2
loop_
_atom_site_label
_atom_site_type_symbol
_atom_site_fract_x
_atom_site_fract_y
_atom_site_fract_z
Br1 Br 0.26481(6) 1.27080(4) 0.98724(3)
Br2 Br 0.98242(7) 1.12119(5) 0.59666(3)
Br3 Br 0.78834(9) 0.61931(5) 0.38070(3)
N1 N -0.0371(5) 0.5956(3) 0.8338(2)
N2 N -0.2220(7) 0.4708(5) 0.8093(3)
C1 C 0.1099(5) 0.6612(3) 0.8012(2)
C2 C 0.2201(5) 0.6452(3) 0.7308(2)
H1 H 0.2017 0.5826 0.7020
C3 C 0.3543(5) 0.7160(3) 0.7011(2)
C4 C 0.3786(5) 0.8100(3) 0.7421(2)
C5 C 0.2687(5) 0.8306(3) 0.8131(2)
C6 C 0.1386(5) 0.7533(3) 0.8426(2)
H2 H 0.0683 0.7638 0.8920
C7 C 0.4641(5) 0.6906(3) 0.6253(2)
C8 C 0.6621(6) 0.6751(4) 0.6202(3)
H3 H 0.7320 0.6801 0.6666
C9 C 0.7589(6) 0.6524(4) 0.5478(3)
H4 H 0.8942 0.6419 0.5449
C10 C 0.6574(6) 0.6452(4) 0.4807(3)
C11 C 0.4618(6) 0.6577(4) 0.4838(2)
H5 H 0.3933 0.6510 0.4373
C12 C 0.3665(6) 0.6804(3) 0.5564(2)
H6 H 0.2315 0.6892 0.5591
C13 C 0.5226(5) 0.8904(3) 0.7085(2)
C14 C 0.6790(5) 0.8939(4) 0.7549(2)
H7 H 0.6927 0.8483 0.8095
C15 C 0.8149(6) 0.9634(4) 0.7218(3)
H8 H 0.9212 0.9662 0.7536
C16 C 0.7936(5) 1.0286(4) 0.6420(3)
C17 C 0.6384(5) 1.0288(3) 0.5952(2)
H9 H 0.6246 1.0755 0.5409
C18 C 0.5026(5) 0.9596(3) 0.6290(2)
H10 H 0.3947 0.9593 0.5975
C19 C 0.2728(5) 0.9375(3) 0.8556(2)
C20 C 0.2669(5) 1.0557(3) 0.8093(2)
H11 H 0.2654 1.0681 0.7507
C21 C 0.2631(5) 1.1547(3) 0.8486(2)
H12 H 0.2589 1.2349 0.8172
C22 C 0.2655(5) 1.1354(3) 0.9338(2)
C23 C 0.2677(6) 1.0198(4) 0.9808(2)
H13 H 0.2670 1.0080 1.0394
C24 C 0.2711(6) 0.9212(4) 0.9406(2)
H14 H 0.2722 0.8415 0.9722
C25 C -0.3481(8) 0.5012(6) 0.8764(3)
H15 H -0.4712 0.4747 0.8716
H16 H -0.3734 0.5912 0.8741
C26 C -0.2489(8) 0.4322(5) 0.9638(3)
H17 H -0.2166 0.3437 0.9642
H18 H -0.3379 0.4476 1.0094
H19 H -0.1326 0.4638 0.9703
C27 C -0.2732(9) 0.3930(6) 0.7555(4)
H20 H -0.1826 0.3926 0.7081
H21 H -0.4022 0.4285 0.7334
C28 C -0.2716(9) 0.2623(6) 0.7988(5)
H22 H -0.3077 0.2148 0.7599
H23 H -0.3627 0.2618 0.8452
H24 H -0.1433 0.2257 0.8194
N3 N -0.0653(6) 0.5207(4) 0.7882(2)
C29? C -0.265(3) 0.4476(17) 0.9087(12)
H25? H -0.1850 0.4682 0.9495
H26? H -0.3121 0.3718 0.9343
C30? C -0.431(3) 0.549(2) 0.8888(12)
H27? H -0.4911 0.5404 0.8386
H28? H -0.3870 0.6278 0.8800
H29? H -0.5230 0.5453 0.9347
N4? N -0.147(2) 0.4241(13) 0.8353(9)
C31? C -0.173(2) 0.3245(15) 0.7929(10)
H30? H -0.1453 0.2458 0.8323
H31? H -0.0779 0.3203 0.7472
C32? C -0.365(3) 0.337(2) 0.7588(14)
H32? H -0.3653 0.2725 0.7263
H33? H -0.3987 0.4177 0.7233
H34? H -0.4584 0.3292 0.8042
loop_
_geom_bond_atom_site_label_1
_geom_bond_atom_site_label_2
_geom_bond_site_symmetry_1
_geom_bond_site_symmetry_2
Br1 C22 1_555 1_555
Br2 C16 1_555 1_555
Br3 C10 1_555 1_555
N1 C1 1_555 1_555
N2 C25 1_555 1_555
C1 C2 1_555 1_555
C2 H1 1_555 1_555
C3 C2 1_555 1_555
C4 C3 1_555 1_555
C5 C4 1_555 1_555
C6 C1 1_555 1_555
H2 C6 1_555 1_555
C7 C3 1_555 1_555
C8 C7 1_555 1_555
H3 C8 1_555 1_555
C9 C8 1_555 1_555
H4 C9 1_555 1_555
C10 C9 1_555 1_555
C11 C10 1_555 1_555
H5 C11 1_555 1_555
C12 C7 1_555 1_555
H6 C12 1_555 1_555
C13 C4 1_555 1_555
C14 C13 1_555 1_555
H7 C14 1_555 1_555
C15 C14 1_555 1_555
H8 C15 1_555 1_555
C16 C15 1_555 1_555
C17 C16 1_555 1_555
H9 C17 1_555 1_555
C18 C13 1_555 1_555
H10 C18 1_555 1_555
C19 C5 1_555 1_555
C20 C19 1_555 1_555
H11 C20 1_555 1_555
C21 C20 1_555 1_555
H12 C21 1_555 1_555
C22 C21 1_555 1_555
C23 C22 1_555 1_555
H13 C23 1_555 1_555
C24 C19 1_555 1_555
H14 C24 1_555 1_555
C25 H15 1_555 1_555
H16 C25 1_555 1_555
C26 C25 1_555 1_555
H17 C26 1_555 1_555
H18 C26 1_555 1_555
H19 C26 1_555 1_555
C27 N2 1_555 1_555
H20 C27 1_555 1_555
H21 C27 1_555 1_555
C28 C27 1_555 1_555
H22 C28 1_555 1_555
H23 C28 1_555 1_555
H24 C28 1_555 1_555
N3 N1 1_555 1_555
N2 N3 1_555 1_555
C5 C6 1_555 1_555
C11 C12 1_555 1_555
C17 C18 1_555 1_555
C23 C24 1_555 1_555

#END
