
#######################################################################
#
#                 Cambridge Crystallographic Data Centre
#                                CCDC 
#
#######################################################################
#
# If this CIF has been generated from an entry in the Cambridge 
# Structural Database, then it will include bibliographic, chemical, 
# crystal, experimental, refinement or atomic coordinate data resulting 
# from the CCDC's data processing and validation procedures.
#
#######################################################################

data_SUGJUB
_chemical_name_common            difurylethene
_chemical_formula_moiety         'C23 H12 F6 N2 O4 S4'
_chemical_name_systematic        
5,5'-((3,3,4,4,5,5-hexafluorocyclopent-1-ene-1,2-diyl)bis((5-methylfuran-4,2-diyl)methylylidene))bis(2-thioxo-1,3-thiazolidin-4-one)
_symmetry_cell_setting           orthorhombic
_symmetry_space_group_name_H-M   'P b c n'
_symmetry_Int_Tables_number      60
_space_group_name_Hall           '-P 2n 2ab'
loop_
_symmetry_equiv_pos_site_id
_symmetry_equiv_pos_as_xyz
1 x,y,z
2 1/2-x,1/2-y,1/2+z
3 1/2+x,1/2-y,-z
4 -x,y,1/2-z
5 -x,-y,-z
6 1/2+x,1/2+y,1/2-z
7 1/2-x,1/2+y,z
8 x,-y,1/2+z
_cell_length_a                   17.414(3)
_cell_length_b                   15.127(4)
_cell_length_c                   19.496(6)
_cell_angle_alpha                90
_cell_angle_beta                 90
_cell_angle_gamma                90
_cell_volume                     5135.67
_exptl_crystal_colour            brown
_exptl_crystal_description       block
_chemical_melting_point          '379 K'
_cell_formula_units_Z            8
_chemical_properties_physical    'Light-sensitive, Photo-sensitive'
_exptl_crystal_recrystallization_method 
'Re-crystallisation from solvent: Chloroform'
_exptl_crystal_preparation       photochromic
loop_
_atom_site_label
_atom_site_type_symbol
_atom_site_fract_x
_atom_site_fract_y
_atom_site_fract_z
C1 C -0.1114(2) 0.0411(3) 0.2258(2)
C2 C -0.0388(2) 0.1363(3) 0.1553(2)
C3 C -0.0168(2) 0.0496(3) 0.1271(2)
C4 C 0.0415(2) 0.0416(3) 0.0823(2)
H1 H 0.0655 0.0946 0.0673
C5 C 0.0706(2) -0.0399(3) 0.0552(2)
C6 C 0.1369(2) -0.0622(2) 0.0238(2)
H2 H 0.1773 -0.0233 0.0112
C7 C 0.1343(2) -0.1560(2) 0.0131(2)
C8 C 0.0651(2) -0.1842(2) 0.0374(2)
C9 C 0.0244(2) -0.2699(2) 0.0381(2)
H3 H -0.0296 -0.2606 0.0259
H4 H 0.0276 -0.2958 0.0841
H5 H 0.0482 -0.3099 0.0048
C10 C 0.1942(2) -0.2103(2) -0.01807(19)
C11 C 0.2465(2) -0.1735(3) -0.0723(2)
C12 C 0.2793(2) -0.2555(3) -0.1078(2)
C13 C 0.2740(2) -0.3279(3) -0.0527(2)
C14 C 0.2158(2) -0.2940(2) -0.0023(2)
C15 C 0.1937(2) -0.3480(2) 0.0564(2)
C16 C 0.1768(2) -0.4404(2) 0.0581(2)
H6 H 0.1766 -0.4796 0.0200
C17 C 0.1612(2) -0.4615(2) 0.1236(2)
C18 C 0.1876(2) -0.3192(3) 0.1231(2)
C19 C 0.2013(3) -0.2332(3) 0.1580(2)
H7 H 0.1520 -0.2072 0.1714
H8 H 0.2280 -0.1930 0.1266
H9 H 0.2329 -0.2429 0.1989
C20 C 0.1410(2) -0.5425(3) 0.1571(2)
H10 H 0.1413 -0.5945 0.1297
C21 C 0.1213(2) -0.5525(3) 0.2238(2)
C22 C 0.1014(2) -0.6394(3) 0.2516(2)
C23 C 0.0721(2) -0.5474(3) 0.3460(2)
O1 O -0.01832(17) 0.20805(19) 0.13211(16)
O2 O 0.02564(15) -0.11452(16) 0.06399(15)
O3 O 0.16675(15) -0.38721(17) 0.16453(14)
O4 O 0.10894(17) -0.71028(19) 0.22224(15)
F1 F 0.30495(14) -0.12674(15) -0.04314(13)
F2 F 0.21228(14) -0.11789(16) -0.11628(13)
F3 F 0.35042(14) -0.24366(15) -0.13264(13)
F4 F 0.23374(14) -0.27655(16) -0.16138(13)
F5 F 0.34377(13) -0.33925(15) -0.02273(13)
F6 F 0.25481(14) -0.40699(14) -0.08011(13)
S1 S -0.17079(7) 0.01286(8) 0.28540(7)
S2 S -0.06920(6) -0.03412(7) 0.16838(6)
S3 S 0.10944(7) -0.47097(7) 0.28693(6)
S4 S 0.04077(7) -0.52041(8) 0.42124(6)
N1 N -0.0862(2) 0.1247(3) 0.2113(2)
N2 N 0.0724(2) -0.6302(2) 0.3172(2)
H11 H 0.058(2) -0.671(3) 0.338(2)
H12 H -0.100(3) 0.164(3) 0.239(2)
loop_
_geom_bond_atom_site_label_1
_geom_bond_atom_site_label_2
_geom_bond_site_symmetry_1
_geom_bond_site_symmetry_2
C1 S1 1_555 1_555
C2 C3 1_555 1_555
C3 C4 1_555 1_555
C4 H1 1_555 1_555
C5 C4 1_555 1_555
C6 C5 1_555 1_555
H2 C6 1_555 1_555
C7 C6 1_555 1_555
C8 C7 1_555 1_555
C9 C8 1_555 1_555
H3 C9 1_555 1_555
H4 C9 1_555 1_555
H5 C9 1_555 1_555
C10 C7 1_555 1_555
C11 C10 1_555 1_555
C12 C11 1_555 1_555
C13 C12 1_555 1_555
C14 C10 1_555 1_555
C15 C14 1_555 1_555
C16 C15 1_555 1_555
H6 C16 1_555 1_555
C17 C16 1_555 1_555
C18 C15 1_555 1_555
C19 C18 1_555 1_555
H7 C19 1_555 1_555
H8 C19 1_555 1_555
H9 C19 1_555 1_555
C20 C17 1_555 1_555
H10 C20 1_555 1_555
C21 C20 1_555 1_555
C22 C21 1_555 1_555
C23 S3 1_555 1_555
O1 C2 1_555 1_555
O2 C5 1_555 1_555
O3 C17 1_555 1_555
O4 C22 1_555 1_555
F1 C11 1_555 1_555
F2 C11 1_555 1_555
F3 C12 1_555 1_555
F4 C12 1_555 1_555
F5 C13 1_555 1_555
F6 C13 1_555 1_555
S2 C1 1_555 1_555
S3 C21 1_555 1_555
S4 C23 1_555 1_555
N1 C1 1_555 1_555
N2 C22 1_555 1_555
H11 N2 1_555 1_555
H12 N1 1_555 1_555
C2 N1 1_555 1_555
C3 S2 1_555 1_555
C8 O2 1_555 1_555
C13 C14 1_555 1_555
C18 O3 1_555 1_555
C23 N2 1_555 1_555

#END
