
#######################################################################
#
#                 Cambridge Crystallographic Data Centre
#                                CCDC 
#
#######################################################################
#
# If this CIF has been generated from an entry in the Cambridge 
# Structural Database, then it will include bibliographic, chemical, 
# crystal, experimental, refinement or atomic coordinate data resulting 
# from the CCDC's data processing and validation procedures.
#
#######################################################################

data_SUGPER
_chemical_formula_moiety         'C20 H14 O5'
_chemical_name_systematic        
3,13,13b-Trihydroxy-7a,13b-dihydrodibenzo[a,kl]xanthen-9(8H)-one
_symmetry_cell_setting           monoclinic
_symmetry_space_group_name_H-M   'P 21/n'
_symmetry_Int_Tables_number      14
_space_group_name_Hall           '-P 2yn'
loop_
_symmetry_equiv_pos_site_id
_symmetry_equiv_pos_as_xyz
1 x,y,z
2 1/2-x,1/2+y,1/2-z
3 -x,-y,-z
4 1/2+x,1/2-y,1/2+z
_cell_length_a                   9.0391(3)
_cell_length_b                   9.7069(3)
_cell_length_c                   17.2285(5)
_cell_angle_alpha                90
_cell_angle_beta                 102.573(2)
_cell_angle_gamma                90
_cell_volume                     1475.41
_cell_formula_units_Z            4
loop_
_atom_site_label
_atom_site_type_symbol
_atom_site_fract_x
_atom_site_fract_y
_atom_site_fract_z
C1 C -0.02939(17) 1.00245(16) 0.34850(8)
C2 C -0.12399(19) 0.97046(17) 0.40016(9)
H1 H -0.0855 0.9220 0.4468
C3 C -0.27293(19) 1.00997(19) 0.38261(10)
H2 H -0.3365 0.9861 0.4163
C4 C -0.32789(18) 1.08543(18) 0.31463(10)
H3 H -0.4289 1.1128 0.3029
C5 C -0.23525(17) 1.12122(16) 0.26352(9)
C6 C -0.08350(16) 1.07766(15) 0.27836(8)
C7 C 0.01602(16) 1.10315(15) 0.21881(8)
C8 C 0.18279(16) 1.11116(16) 0.26239(9)
H4 H 0.1947 1.1924 0.2970
C9 C 0.23147(17) 0.98640(19) 0.31425(9)
H5 H 0.2346 0.9071 0.2804
H6 H 0.3333 1.0016 0.3453
C10 C 0.12909(18) 0.95474(17) 0.36966(8)
C11 C -0.02979(17) 0.80117(16) 0.03063(8)
C12 C 0.26679(16) 1.02733(17) 0.14968(9)
C13 C 0.38954(18) 0.9974(2) 0.11896(10)
H7 H 0.4808 1.0433 0.1373
C14 C 0.37749(19) 0.8967(2) 0.05945(11)
H8 H 0.4620 0.8753 0.0392
C15 C 0.24447(19) 0.82996(19) 0.03092(10)
H9 H 0.2390 0.7632 -0.0083
C16 C 0.11434(17) 0.86164(16) 0.06069(9)
C17 C 0.12487(16) 0.96084(15) 0.12243(8)
C18 C -0.00231(16) 0.99253(15) 0.15502(8)
C19 C -0.13724(16) 0.92765(17) 0.12480(9)
H10 H -0.2207 0.9462 0.1466
C20 C -0.15173(17) 0.83402(17) 0.06181(9)
H11 H -0.2453 0.7938 0.0410
O1 O -0.02385(12) 1.23605(11) 0.18285(6)
H12 H -0.0031 1.2381 0.1388
O2 O -0.30044(13) 1.19657(14) 0.19876(7)
H13 H -0.2345 1.2259 0.1771
O3 O 0.17698(15) 0.89000(16) 0.43046(7)
O4 O -0.03931(13) 0.70980(12) -0.03075(7)
H14 H -0.1255 0.6785 -0.0429
O5 O 0.27960(11) 1.12891(12) 0.20697(6)
loop_
_geom_bond_atom_site_label_1
_geom_bond_atom_site_label_2
_geom_bond_site_symmetry_1
_geom_bond_site_symmetry_2
C1 C2 1_555 1_555
C2 H1 1_555 1_555
C3 C2 1_555 1_555
H2 C3 1_555 1_555
C4 C3 1_555 1_555
H3 C4 1_555 1_555
C5 C4 1_555 1_555
C6 C1 1_555 1_555
C7 C6 1_555 1_555
C8 C7 1_555 1_555
H4 C8 1_555 1_555
C9 C8 1_555 1_555
H5 C9 1_555 1_555
H6 C9 1_555 1_555
C10 C1 1_555 1_555
C11 C16 1_555 1_555
C12 C13 1_555 1_555
C13 H7 1_555 1_555
C14 C13 1_555 1_555
H8 C14 1_555 1_555
C15 C14 1_555 1_555
H9 C15 1_555 1_555
C16 C15 1_555 1_555
C17 C12 1_555 1_555
C18 C7 1_555 1_555
C19 C18 1_555 1_555
H10 C19 1_555 1_555
C20 C11 1_555 1_555
H11 C20 1_555 1_555
O1 C7 1_555 1_555
H12 O1 1_555 1_555
O2 C5 1_555 1_555
H13 O2 1_555 1_555
O3 C10 1_555 1_555
O4 C11 1_555 1_555
H14 O4 1_555 1_555
O5 C8 1_555 1_555
C5 C6 1_555 1_555
C9 C10 1_555 1_555
C12 O5 1_555 1_555
C16 C17 1_555 1_555
C17 C18 1_555 1_555
C19 C20 1_555 1_555

#END
