
#######################################################################
#
#                 Cambridge Crystallographic Data Centre
#                                CCDC 
#
#######################################################################
#
# If this CIF has been generated from an entry in the Cambridge 
# Structural Database, then it will include bibliographic, chemical, 
# crystal, experimental, refinement or atomic coordinate data resulting 
# from the CCDC's data processing and validation procedures.
#
#######################################################################

data_SUGPAN
_chemical_formula_moiety         'C31 H26 Cl1 N1 O4'
_chemical_name_systematic        
'Methyl 5,8-dibenzoyl-9-(4-chlorophenyl)-8-azabicyclo[4.3.1]deca-2,4-diene-7-carboxylate'
_symmetry_cell_setting           orthorhombic
_symmetry_space_group_name_H-M   'P 21 21 21'
_symmetry_Int_Tables_number      19
_space_group_name_Hall           'P 2ac 2ab'
loop_
_symmetry_equiv_pos_site_id
_symmetry_equiv_pos_as_xyz
1 x,y,z
2 1/2-x,-y,1/2+z
3 -x,1/2+y,1/2-z
4 1/2+x,1/2-y,-z
_cell_length_a                   7.9152(9)
_cell_length_b                   11.4088(14)
_cell_length_c                   28.388(3)
_cell_angle_alpha                90
_cell_angle_beta                 90
_cell_angle_gamma                90
_cell_volume                     2563.52
_exptl_crystal_colour            colorless
_exptl_crystal_description       block
_cell_formula_units_Z            4
loop_
_atom_site_label
_atom_site_type_symbol
_atom_site_fract_x
_atom_site_fract_y
_atom_site_fract_z
C1 C 0.0978(3) 1.19706(19) 0.65145(8)
C2 C 0.1422(4) 1.1650(2) 0.60721(9)
H1 H 0.1603 1.2219 0.5843
C3 C 0.1607(3) 1.0477(2) 0.59608(8)
H2 H 0.1911 1.0266 0.5656
C4 C 0.1348(3) 0.96122(18) 0.62935(7)
C5 C 0.0878(3) 0.99785(19) 0.67377(7)
H3 H 0.0686 0.9417 0.6969
C6 C 0.0681(3) 1.11415(19) 0.68520(8)
H4 H 0.0352 1.1360 0.7154
C7 C 0.1724(2) 0.83166(17) 0.62069(6)
H5 H 0.2803 0.8155 0.6363
C8 C -0.1184(2) 0.74015(18) 0.62027(7)
H6 H -0.1713 0.6721 0.6353
C9 C -0.1016(3) 0.70832(18) 0.56779(7)
H7 H -0.2115 0.7243 0.5532
C10 C 0.0266(3) 0.7862(2) 0.54302(7)
H8 H 0.0463 0.7557 0.5116
H9 H -0.0206 0.8642 0.5398
C11 C 0.1955(3) 0.79505(19) 0.56872(7)
H10 H 0.2604 0.8573 0.5533
C12 C 0.2997(3) 0.6867(2) 0.56671(7)
H11 H 0.4159 0.6983 0.5685
C13 C 0.2505(3) 0.5754(2) 0.56278(8)
H12 H 0.3376 0.5208 0.5610
C14 C 0.0814(3) 0.52660(19) 0.56084(7)
H13 H 0.0776 0.4455 0.5576
C15 C -0.0709(2) 0.57878(18) 0.56294(7)
C16 C -0.2240(3) 0.5044(2) 0.56748(9)
C17 C -0.2248(3) 0.3767(2) 0.55670(8)
C18 C -0.1483(3) 0.3290(2) 0.51722(8)
H14 H -0.0905 0.3774 0.4964
C19 C -0.1575(3) 0.2097(2) 0.50862(9)
H15 H -0.1057 0.1784 0.4820
C20 C -0.2418(4) 0.1379(2) 0.53885(10)
H16 H -0.2460 0.0577 0.5331
C21 C -0.3203(4) 0.1835(3) 0.57761(10)
H17 H -0.3788 0.1344 0.5981
C22 C -0.3128(3) 0.3028(2) 0.58645(9)
H18 H -0.3676 0.3335 0.6127
C23 C -0.2376(3) 0.84232(19) 0.62883(8)
C24 C -0.3521(4) 0.9649(2) 0.68792(9)
H19 H -0.4632 0.9506 0.6757
H20 H -0.3099 1.0375 0.6756
H21 H -0.3570 0.9692 0.7217
C25 C 0.0822(3) 0.68239(17) 0.67996(7)
C26 C 0.2530(3) 0.69092(19) 0.70308(7)
C27 C 0.2734(4) 0.7605(2) 0.74238(8)
H22 H 0.1843 0.8061 0.7533
C28 C 0.4285(5) 0.7618(3) 0.76552(11)
H23 H 0.4433 0.8085 0.7921
C29 C 0.5585(4) 0.6947(4) 0.74928(14)
H24 H 0.6622 0.6969 0.7647
C30 C 0.5391(3) 0.6248(3) 0.71104(12)
H25 H 0.6284 0.5785 0.7006
C31 C 0.3867(3) 0.6226(2) 0.68764(8)
H26 H 0.3734 0.5750 0.6613
Cl1 Cl 0.07739(11) 1.34475(5) 0.66609(2)
N1 N 0.04711(19) 0.75322(13) 0.64279(5)
O1 O -0.3252(2) 0.88688(15) 0.59957(6)
O2 O -0.24072(19) 0.87025(13) 0.67409(5)
O3 O -0.02084(19) 0.61302(15) 0.69577(6)
O4 O -0.3540(2) 0.54881(16) 0.58228(8)
loop_
_geom_bond_atom_site_label_1
_geom_bond_atom_site_label_2
_geom_bond_site_symmetry_1
_geom_bond_site_symmetry_2
C1 C2 1_555 1_555
C2 H1 1_555 1_555
C3 C2 1_555 1_555
H2 C3 1_555 1_555
C4 C3 1_555 1_555
C5 C4 1_555 1_555
H3 C5 1_555 1_555
C6 C1 1_555 1_555
H4 C6 1_555 1_555
C7 C4 1_555 1_555
H5 C7 1_555 1_555
C8 H6 1_555 1_555
C9 C8 1_555 1_555
H7 C9 1_555 1_555
C10 C9 1_555 1_555
H8 C10 1_555 1_555
H9 C10 1_555 1_555
C11 C7 1_555 1_555
H10 C11 1_555 1_555
C12 C11 1_555 1_555
H11 C12 1_555 1_555
C13 C12 1_555 1_555
H12 C13 1_555 1_555
C14 C13 1_555 1_555
H13 C14 1_555 1_555
C15 C9 1_555 1_555
C16 C15 1_555 1_555
C17 C16 1_555 1_555
C18 C17 1_555 1_555
H14 C18 1_555 1_555
C19 C18 1_555 1_555
H15 C19 1_555 1_555
C20 C19 1_555 1_555
H16 C20 1_555 1_555
C21 C20 1_555 1_555
H17 C21 1_555 1_555
C22 C17 1_555 1_555
H18 C22 1_555 1_555
C23 C8 1_555 1_555
C24 H19 1_555 1_555
H20 C24 1_555 1_555
H21 C24 1_555 1_555
C25 C26 1_555 1_555
C26 C27 1_555 1_555
C27 H22 1_555 1_555
C28 C27 1_555 1_555
H23 C28 1_555 1_555
C29 C28 1_555 1_555
H24 C29 1_555 1_555
C30 C29 1_555 1_555
H25 C30 1_555 1_555
C31 C26 1_555 1_555
H26 C31 1_555 1_555
Cl1 C1 1_555 1_555
N1 C7 1_555 1_555
O1 C23 1_555 1_555
O2 C23 1_555 1_555
O3 C25 1_555 1_555
O4 C16 1_555 1_555
C5 C6 1_555 1_555
C8 N1 1_555 1_555
C10 C11 1_555 1_555
C14 C15 1_555 1_555
C21 C22 1_555 1_555
C24 O2 1_555 1_555
C25 N1 1_555 1_555
C30 C31 1_555 1_555

#END
