
#######################################################################
#
#                 Cambridge Crystallographic Data Centre
#                                CCDC 
#
#######################################################################
#
# If this CIF has been generated from an entry in the Cambridge 
# Structural Database, then it will include bibliographic, chemical, 
# crystal, experimental, refinement or atomic coordinate data resulting 
# from the CCDC's data processing and validation procedures.
#
#######################################################################

data_SUGQAO
_chemical_formula_moiety         'C18 H21 N3 O2 S2'
_chemical_name_systematic        
N-t-Butyl-1-((4-methylphenyl)sulfonyl)-3-(2-thienyl)-1H-pyrazol-5-amine
_symmetry_cell_setting           monoclinic
_symmetry_space_group_name_H-M   'P 21/c'
_symmetry_Int_Tables_number      14
_space_group_name_Hall           '-P 2ybc'
loop_
_symmetry_equiv_pos_site_id
_symmetry_equiv_pos_as_xyz
1 x,y,z
2 -x,1/2+y,1/2-z
3 -x,-y,-z
4 x,1/2-y,1/2+z
_cell_length_a                   10.0095(4)
_cell_length_b                   11.5630(4)
_cell_length_c                   16.5773(6)
_cell_angle_alpha                90
_cell_angle_beta                 99.859(4)
_cell_angle_gamma                90
_cell_volume                     1890.32
_exptl_crystal_colour            brown
_exptl_crystal_description       parallelepiped
_cell_formula_units_Z            4
loop_
_atom_site_label
_atom_site_type_symbol
_atom_site_fract_x
_atom_site_fract_y
_atom_site_fract_z
S1 S 0.67005(7) 0.28899(6) 0.02216(4)
S2 S 0.86172(11) -0.06778(9) 0.23752(7)
O1 O 0.7412(2) 0.2116(2) -0.02170(13)
O2 O 0.6784(2) 0.41096(19) 0.00973(13)
N1 N 0.7312(2) 0.2693(2) 0.12178(14)
N2 N 0.7777(2) 0.1593(2) 0.14636(15)
N3 N 0.6679(3) 0.4490(2) 0.17686(17)
H1 H 0.666(4) 0.481(3) 0.134(3)
C1 C 0.4998(3) 0.2480(2) 0.01030(16)
C2 C 0.4601(3) 0.1415(2) -0.02255(19)
H2 H 0.5237 0.0914 -0.0382
C3 C 0.3260(3) 0.1095(3) -0.0322(2)
H3 H 0.2997 0.0373 -0.0539
C4 C 0.2300(3) 0.1830(3) -0.0101(2)
C5 C 0.2705(4) 0.2907(3) 0.0217(2)
H4 H 0.2063 0.3411 0.0362
C6 C 0.4049(3) 0.3244(3) 0.0322(2)
H5 H 0.4313 0.3969 0.0534
C7 C 0.0825(4) 0.1477(4) -0.0209(3)
H6 H 0.0720 0.0713 -0.0437
H7 H 0.0286 0.2010 -0.0571
H8 H 0.0533 0.1485 0.0313
C8 C 0.7947(3) 0.1650(3) 0.22705(18)
C9 C 0.7579(3) 0.2728(3) 0.25633(18)
H9 H 0.7613 0.2944 0.3107
C10 C 0.7162(3) 0.3392(2) 0.18845(17)
C11 C 0.8556(3) 0.0672(3) 0.27657(19)
C12 C 0.9507(4) -0.1194(3) 0.3244(2)
H10 H 0.9779 -0.1962 0.3312
C13 C 0.9792(4) -0.0396(3) 0.3833(2)
H11 H 1.0275 -0.0568 0.4350
C14 C 0.9294(4) 0.0750(3) 0.36077(19)
H12 H 0.9417 0.1409 0.3933
C15 C 0.6521(4) 0.5314(3) 0.24215(19)
C16 C 0.7876(5) 0.5562(4) 0.2961(3)
H13 H 0.8215 0.4868 0.3242
H14 H 0.7759 0.6147 0.3354
H15 H 0.8509 0.5828 0.2628
C17 C 0.5482(5) 0.4860(4) 0.2917(3)
H16 H 0.5820 0.4166 0.3198
H17 H 0.4648 0.4695 0.2556
H18 H 0.5325 0.5434 0.3309
C18 C 0.5975(6) 0.6421(3) 0.1983(3)
H19 H 0.5118 0.6264 0.1642
H20 H 0.6605 0.6696 0.1651
H21 H 0.5856 0.6999 0.2381
loop_
_geom_bond_atom_site_label_1
_geom_bond_atom_site_label_2
_geom_bond_site_symmetry_1
_geom_bond_site_symmetry_2
S1 O1 1_555 1_555
S2 C11 1_555 1_555
O2 S1 1_555 1_555
N1 S1 1_555 1_555
N2 N1 1_555 1_555
N3 H1 1_555 1_555
C1 S1 1_555 1_555
C2 C1 1_555 1_555
H2 C2 1_555 1_555
C3 C2 1_555 1_555
H3 C3 1_555 1_555
C4 C3 1_555 1_555
C5 C4 1_555 1_555
H4 C5 1_555 1_555
C6 C1 1_555 1_555
H5 C6 1_555 1_555
C7 C4 1_555 1_555
H6 C7 1_555 1_555
H7 C7 1_555 1_555
H8 C7 1_555 1_555
C8 N2 1_555 1_555
C9 C8 1_555 1_555
H9 C9 1_555 1_555
C10 N1 1_555 1_555
C11 C8 1_555 1_555
C12 S2 1_555 1_555
H10 C12 1_555 1_555
C13 C12 1_555 1_555
H11 C13 1_555 1_555
C14 C11 1_555 1_555
H12 C14 1_555 1_555
C15 N3 1_555 1_555
C16 C15 1_555 1_555
H13 C16 1_555 1_555
H14 C16 1_555 1_555
H15 C16 1_555 1_555
C17 C15 1_555 1_555
H16 C17 1_555 1_555
H17 C17 1_555 1_555
H18 C17 1_555 1_555
C18 C15 1_555 1_555
H19 C18 1_555 1_555
H20 C18 1_555 1_555
H21 C18 1_555 1_555
N3 C10 1_555 1_555
C5 C6 1_555 1_555
C9 C10 1_555 1_555
C13 C14 1_555 1_555

#END
