
#######################################################################
#
#                 Cambridge Crystallographic Data Centre
#                                CCDC 
#
#######################################################################
#
# If this CIF has been generated from an entry in the Cambridge 
# Structural Database, then it will include bibliographic, chemical, 
# crystal, experimental, refinement or atomic coordinate data resulting 
# from the CCDC's data processing and validation procedures.
#
#######################################################################

data_SUGQUI
_chemical_formula_moiety         'C27 H27 F3 N2 O8'
_chemical_name_systematic        
'Dimethyl (2-((1,3-dioxo-1,3-dihydro-2H-isoindol-2-yl)oxy)-3-(methyl(phenyl)amino)-3-oxopropyl)(4,4,4-trifluorobutyl)malonate'
_symmetry_cell_setting           triclinic
_symmetry_space_group_name_H-M   'P -1'
_symmetry_Int_Tables_number      2
_space_group_name_Hall           '-P 1'
loop_
_symmetry_equiv_pos_site_id
_symmetry_equiv_pos_as_xyz
1 x,y,z
2 -x,-y,-z
_cell_length_a                   8.5362(3)
_cell_length_b                   11.0883(5)
_cell_length_c                   14.8339(10)
_cell_angle_alpha                89.337(6)
_cell_angle_beta                 75.808(5)
_cell_angle_gamma                89.011(6)
_cell_volume                     1360.96
_exptl_crystal_colour            colorless
_exptl_crystal_description       platelet
_cell_formula_units_Z            2
loop_
_atom_site_label
_atom_site_type_symbol
_atom_site_fract_x
_atom_site_fract_y
_atom_site_fract_z
F1 F 0.1397(5) 0.8757(5) 0.6359(3)
F2 F 0.3804(4) 0.8898(5) 0.5709(4)
F3 F 0.2014(7) 0.9859(4) 0.5217(4)
O1 O 0.1755(3) 0.6923(3) -0.02310(19)
O2 O 0.0904(3) 0.6687(2) 0.17466(16)
C1 C 0.0554(4) 0.6601(3) 0.4127(2)
H1 H 0.0556 0.5913 0.4537
H2 H 0.1523 0.6540 0.3625
O3 O -0.2126(3) 0.5167(3) 0.28749(18)
O4 O 0.0125(4) 0.4495(2) 0.3254(2)
O5 O 0.3850(3) 0.6384(3) 0.23078(19)
O6 O -0.1082(3) 0.8651(3) 0.1277(2)
O7 O -0.3396(5) 0.7392(3) 0.4653(3)
C2 C 0.2760(4) 0.6803(3) 0.0208(2)
N1 N 0.0852(4) 0.9832(3) 0.1570(2)
N2 N 0.2452(3) 0.6764(3) 0.11776(19)
O8 O -0.2610(3) 0.5600(3) 0.50428(18)
C3 C 0.7190(5) 0.6468(4) -0.1094(3)
H3 H 0.7883 0.6422 -0.1684
C4 C 0.5531(5) 0.6661(4) -0.0998(3)
H4 H 0.5109 0.6787 -0.1514
C5 C 0.4549(4) 0.6658(3) -0.0109(2)
C6 C 0.0461(4) 0.7795(3) 0.2265(2)
H5 H 0.1337 0.8047 0.2538
C7 C -0.1057(4) 0.7537(3) 0.3024(2)
H6 H -0.1916 0.7344 0.2729
H7 H -0.1378 0.8271 0.3376
C8 C -0.0922(4) 0.6514(3) 0.3711(2)
C9 C 0.0647(4) 0.7742(4) 0.4669(3)
H8 H 0.0530 0.8443 0.4292
H9 H -0.0231 0.7759 0.5226
C10 C 0.2244(5) 0.7792(4) 0.4936(3)
H10 H 0.2385 0.7052 0.5265
H11 H 0.3105 0.7817 0.4371
C11 C 0.2425(6) 0.8814(5) 0.5516(4)
C12 C -0.0879(4) 0.5277(3) 0.3262(2)
C13 C -0.2196(7) 0.4059(5) 0.2390(3)
H12 H -0.1323 0.4027 0.1841
H13 H -0.3207 0.4025 0.2216
H14 H -0.2106 0.3386 0.2788
C14 C 0.5176(4) 0.6516(3) 0.0658(3)
C15 C 0.3841(4) 0.6525(3) 0.1507(3)
C16 C 0.6821(5) 0.6376(4) 0.0571(3)
H15 H 0.7248 0.6305 0.1089
C17 C 0.7799(5) 0.6346(4) -0.0323(3)
H16 H 0.8908 0.6240 -0.0404
C18 C 0.0043(4) 0.8792(3) 0.1641(2)
C19 C 0.0287(6) 1.0862(4) 0.1101(4)
H17 H 0.1004 1.0973 0.0498
H18 H 0.0272 1.1576 0.1463
H19 H -0.0783 1.0711 0.1035
C20 C 0.2360(4) 0.9966(3) 0.1828(3)
C21 C 0.3795(5) 0.9613(4) 0.1221(3)
H20 H 0.3783 0.9302 0.0642
C22 C 0.5243(5) 0.9719(5) 0.1469(4)
H21 H 0.6204 0.9465 0.1066
C23 C 0.5252(7) 1.0202(6) 0.2312(4)
H22 H 0.6226 1.0278 0.2480
C24 C 0.3846(7) 1.0575(6) 0.2910(4)
H23 H 0.3869 1.0907 0.3479
C25 C 0.2383(6) 1.0457(5) 0.2670(3)
H24 H 0.1426 1.0710 0.3077
C26 C -0.2463(4) 0.6576(3) 0.4511(2)
C27 C -0.3898(6) 0.5608(5) 0.5883(3)
H25 H -0.3667 0.6186 0.6308
H26 H -0.3982 0.4821 0.6166
H27 H -0.4900 0.5822 0.5733
loop_
_geom_bond_atom_site_label_1
_geom_bond_atom_site_label_2
_geom_bond_site_symmetry_1
_geom_bond_site_symmetry_2
F1 C11 1_555 1_555
F2 C11 1_555 1_555
F3 C11 1_555 1_555
O1 C2 1_555 1_555
O2 N2 1_555 1_555
C1 H1 1_555 1_555
H2 C1 1_555 1_555
O3 C12 1_555 1_555
O4 C12 1_555 1_555
O5 C15 1_555 1_555
O6 C18 1_555 1_555
O7 C26 1_555 1_555
C2 N2 1_555 1_555
N1 C18 1_555 1_555
N2 C15 1_555 1_555
O8 C26 1_555 1_555
C3 H3 1_555 1_555
C4 C3 1_555 1_555
H4 C4 1_555 1_555
C5 C2 1_555 1_555
C6 O2 1_555 1_555
H5 C6 1_555 1_555
C7 C6 1_555 1_555
H6 C7 1_555 1_555
H7 C7 1_555 1_555
C8 C1 1_555 1_555
C9 C1 1_555 1_555
H8 C9 1_555 1_555
H9 C9 1_555 1_555
C10 C9 1_555 1_555
H10 C10 1_555 1_555
H11 C10 1_555 1_555
C11 C10 1_555 1_555
C12 C8 1_555 1_555
C13 O3 1_555 1_555
H12 C13 1_555 1_555
H13 C13 1_555 1_555
H14 C13 1_555 1_555
C14 C5 1_555 1_555
C15 C14 1_555 1_555
C16 C14 1_555 1_555
H15 C16 1_555 1_555
C17 C3 1_555 1_555
H16 C17 1_555 1_555
C18 C6 1_555 1_555
C19 N1 1_555 1_555
H17 C19 1_555 1_555
H18 C19 1_555 1_555
H19 C19 1_555 1_555
C20 N1 1_555 1_555
C21 C20 1_555 1_555
H20 C21 1_555 1_555
C22 C21 1_555 1_555
H21 C22 1_555 1_555
C23 C22 1_555 1_555
H22 C23 1_555 1_555
C24 C23 1_555 1_555
H23 C24 1_555 1_555
C25 C20 1_555 1_555
H24 C25 1_555 1_555
C26 C8 1_555 1_555
C27 O8 1_555 1_555
H25 C27 1_555 1_555
H26 C27 1_555 1_555
H27 C27 1_555 1_555
C4 C5 1_555 1_555
C7 C8 1_555 1_555
C16 C17 1_555 1_555
C24 C25 1_555 1_555

#END
