
#######################################################################
#
#                 Cambridge Crystallographic Data Centre
#                                CCDC 
#
#######################################################################
#
# If this CIF has been generated from an entry in the Cambridge 
# Structural Database, then it will include bibliographic, chemical, 
# crystal, experimental, refinement or atomic coordinate data resulting 
# from the CCDC's data processing and validation procedures.
#
#######################################################################

data_SUGVOH
_chemical_formula_moiety         'C24 H22 N2 O1'
_chemical_name_systematic        
2-methyl-2,5-diphenyl-3-(1-phenylethyl)-2,3-dihydro-4H-imidazol-4-one
_symmetry_cell_setting           orthorhombic
_symmetry_space_group_name_H-M   'P 21 21 21'
_symmetry_Int_Tables_number      19
_space_group_name_Hall           'P 2ac 2ab'
loop_
_symmetry_equiv_pos_site_id
_symmetry_equiv_pos_as_xyz
1 x,y,z
2 1/2-x,-y,1/2+z
3 -x,1/2+y,1/2-z
4 1/2+x,1/2-y,-z
_cell_length_a                   8.8242(9)
_cell_length_b                   11.0902(9)
_cell_length_c                   19.493(2)
_cell_angle_alpha                90
_cell_angle_beta                 90
_cell_angle_gamma                90
_cell_volume                     1907.63
_exptl_crystal_colour            colorless
_exptl_crystal_description       block
_cell_formula_units_Z            4
loop_
_atom_site_label
_atom_site_type_symbol
_atom_site_fract_x
_atom_site_fract_y
_atom_site_fract_z
O1 O 0.70800(19) 0.39485(14) 0.33834(9)
N1 N 0.6662(2) 0.10237(17) 0.27361(9)
N2 N 0.5464(2) 0.23191(16) 0.34992(9)
C1 C 0.6673(3) 0.2918(2) 0.32493(11)
C2 C 0.7410(3) 0.20183(19) 0.27681(11)
C3 C 0.5297(3) 0.11380(19) 0.31612(11)
C4 C 0.8779(3) 0.2223(2) 0.23478(10)
C5 C 0.9500(3) 0.3347(2) 0.23225(12)
H1 H 0.9130 0.3988 0.2580
C6 C 1.0776(3) 0.3501(2) 0.19093(13)
H2 H 1.1257 0.4247 0.1893
C7 C 1.1330(3) 0.2554(2) 0.15247(12)
H3 H 1.2178 0.2665 0.1249
C8 C 1.0623(3) 0.1435(2) 0.15482(13)
H4 H 1.1001 0.0796 0.1291
C9 C 0.9359(3) 0.1275(2) 0.19548(11)
H5 H 0.8886 0.0526 0.1968
C10 C 0.3953(3) 0.1172(2) 0.26658(13)
H6 H 0.4046 0.1858 0.2369
H7 H 0.3027 0.1230 0.2922
H8 H 0.3942 0.0448 0.2396
C11 C 0.5252(3) 0.0110(2) 0.36865(12)
C12 C 0.6226(3) 0.0128(2) 0.42463(13)
H9 H 0.6902 0.0765 0.4301
C13 C 0.6198(4) -0.0794(3) 0.47236(15)
H10 H 0.6848 -0.0772 0.5099
C14 C 0.5199(4) -0.1757(2) 0.46448(16)
H11 H 0.5169 -0.2372 0.4969
C15 C 0.4259(4) -0.1789(3) 0.40848(18)
H12 H 0.3607 -0.2439 0.4024
C16 C 0.4272(3) -0.0862(2) 0.36086(16)
H13 H 0.3620 -0.0890 0.3234
C17 C 0.4245(3) 0.2838(2) 0.39308(11)
H14 H 0.3491 0.2199 0.3993
C18 C 0.3433(3) 0.3869(2) 0.35628(13)
H15 H 0.4139 0.4511 0.3476
H16 H 0.2622 0.4162 0.3845
H17 H 0.3030 0.3582 0.3136
C19 C 0.4782(3) 0.3186(2) 0.46470(11)
C20 C 0.4521(3) 0.2393(2) 0.51863(11)
H18 H 0.4075 0.1649 0.5099
C21 C 0.4917(3) 0.2696(3) 0.58529(13)
H19 H 0.4754 0.2151 0.6208
C22 C 0.5552(3) 0.3807(3) 0.59894(14)
H20 H 0.5799 0.4019 0.6437
C23 C 0.5818(3) 0.4606(3) 0.54577(16)
H21 H 0.6253 0.5353 0.5549
C24 C 0.5444(3) 0.4302(2) 0.47915(13)
H22 H 0.5633 0.4843 0.4437
loop_
_geom_bond_atom_site_label_1
_geom_bond_atom_site_label_2
_geom_bond_site_symmetry_1
_geom_bond_site_symmetry_2
O1 C1 1_555 1_555
N1 C2 1_555 1_555
N2 C1 1_555 1_555
C1 C2 1_555 1_555
C2 C4 1_555 1_555
C3 N1 1_555 1_555
C4 C5 1_555 1_555
C5 H1 1_555 1_555
C6 C5 1_555 1_555
H2 C6 1_555 1_555
C7 C6 1_555 1_555
H3 C7 1_555 1_555
C8 C7 1_555 1_555
H4 C8 1_555 1_555
C9 C4 1_555 1_555
H5 C9 1_555 1_555
C10 C3 1_555 1_555
H6 C10 1_555 1_555
H7 C10 1_555 1_555
H8 C10 1_555 1_555
C11 C3 1_555 1_555
C12 C11 1_555 1_555
H9 C12 1_555 1_555
C13 C12 1_555 1_555
H10 C13 1_555 1_555
C14 C13 1_555 1_555
H11 C14 1_555 1_555
C15 C14 1_555 1_555
H12 C15 1_555 1_555
C16 C11 1_555 1_555
H13 C16 1_555 1_555
C17 N2 1_555 1_555
H14 C17 1_555 1_555
C18 C17 1_555 1_555
H15 C18 1_555 1_555
H16 C18 1_555 1_555
H17 C18 1_555 1_555
C19 C17 1_555 1_555
C20 C19 1_555 1_555
H18 C20 1_555 1_555
C21 C20 1_555 1_555
H19 C21 1_555 1_555
C22 C21 1_555 1_555
H20 C22 1_555 1_555
C23 C22 1_555 1_555
H21 C23 1_555 1_555
C24 C19 1_555 1_555
H22 C24 1_555 1_555
N2 C3 1_555 1_555
C8 C9 1_555 1_555
C15 C16 1_555 1_555
C23 C24 1_555 1_555

#END
