
#######################################################################
#
#                 Cambridge Crystallographic Data Centre
#                                CCDC 
#
#######################################################################
#
# If this CIF has been generated from an entry in the Cambridge 
# Structural Database, then it will include bibliographic, chemical, 
# crystal, experimental, refinement or atomic coordinate data resulting 
# from the CCDC's data processing and validation procedures.
#
#######################################################################

data_SUGVEX
_chemical_formula_moiety         'C11 H14 O3'
_chemical_name_systematic        4-t-butyl-5-methoxy-1,2-benzoquinone
_symmetry_cell_setting           orthorhombic
_symmetry_space_group_name_H-M   'P n a 21'
_symmetry_Int_Tables_number      33
_space_group_name_Hall           'P 2c -2n'
loop_
_symmetry_equiv_pos_site_id
_symmetry_equiv_pos_as_xyz
1 x,y,z
2 -x,-y,1/2+z
3 1/2+x,1/2-y,z
4 1/2-x,1/2+y,1/2+z
_cell_length_a                   14.5121(11)
_cell_length_b                   5.9558(3)
_cell_length_c                   24.1332(17)
_cell_angle_alpha                90
_cell_angle_beta                 90
_cell_angle_gamma                90
_cell_volume                     2085.86
_exptl_crystal_colour            red
_exptl_crystal_description       block
_cell_formula_units_Z            8
loop_
_atom_site_label
_atom_site_type_symbol
_atom_site_fract_x
_atom_site_fract_y
_atom_site_fract_z
O1 O 0.60279(15) 0.4789(4) 0.82094(9)
O2 O 0.46331(19) 0.7784(5) 0.83884(14)
O3 O 0.36532(13) 0.6449(4) 0.65496(10)
C1 C 0.5540(2) 0.5364(5) 0.78248(13)
C2 C 0.4723(2) 0.6943(6) 0.79286(15)
C3 C 0.4088(2) 0.7287(5) 0.7481(2)
H1 H 0.3576 0.8202 0.7531
C4 C 0.42358(18) 0.6272(5) 0.69796(13)
C5 C 0.50559(19) 0.4846(5) 0.68533(13)
C6 C 0.5671(2) 0.4524(5) 0.72628(13)
H2 H 0.6205 0.3726 0.7184
C7 C 0.2787(2) 0.7564(5) 0.6623(2)
H3 H 0.2444 0.7513 0.6283
H4 H 0.2892 0.9100 0.6726
H5 H 0.2443 0.6826 0.6910
C8 C 0.51756(19) 0.3738(5) 0.62856(12)
C9 C 0.5222(2) 0.5514(6) 0.58203(13)
H6 H 0.4650 0.6321 0.5805
H7 H 0.5329 0.4782 0.5472
H8 H 0.5716 0.6542 0.5895
C10 C 0.4376(3) 0.2107(6) 0.61792(19)
H9 H 0.4339 0.1046 0.6478
H10 H 0.4480 0.1322 0.5837
H11 H 0.3809 0.2933 0.6156
C11 C 0.6066(3) 0.2355(6) 0.6260(2)
H12 H 0.6586 0.3327 0.6314
H13 H 0.6112 0.1637 0.5905
H14 H 0.6057 0.1234 0.6546
O4 O 0.85693(14) 0.4788(4) 0.26415(9)
O5 O 0.71676(18) 0.7774(4) 0.24584(14)
O6 O 0.61888(13) 0.6425(4) 0.42990(9)
C12 C 0.8080(2) 0.5357(5) 0.30269(13)
C13 C 0.7257(2) 0.6939(6) 0.29159(15)
C14 C 0.6643(2) 0.7265(6) 0.3379(2)
H15 H 0.6140 0.8219 0.3337
C15 C 0.67686(18) 0.6249(5) 0.38677(13)
C16 C 0.7592(2) 0.4815(5) 0.39920(13)
C17 C 0.8217(2) 0.4504(5) 0.35866(13)
H16 H 0.8754 0.3718 0.3667
C18 C 0.5327(2) 0.7588(6) 0.4208(2)
H17 H 0.4968 0.6783 0.3940
H18 H 0.5450 0.9075 0.4074
H19 H 0.4992 0.7677 0.4550
C19 C 0.7702(2) 0.3696(5) 0.45606(13)
C20 C 0.6911(3) 0.2034(6) 0.4650(2)
H20 H 0.6334 0.2821 0.4637
H21 H 0.6979 0.1327 0.5005
H22 H 0.6924 0.0913 0.4365
C21 C 0.7741(2) 0.5456(6) 0.50291(14)
H23 H 0.8241 0.6475 0.4962
H24 H 0.7835 0.4711 0.5377
H25 H 0.7171 0.6275 0.5040
C22 C 0.8598(3) 0.2333(6) 0.4584(2)
H26 H 0.8584 0.1184 0.4305
H27 H 0.8658 0.1653 0.4943
H28 H 0.9113 0.3310 0.4519
loop_
_geom_bond_atom_site_label_1
_geom_bond_atom_site_label_2
_geom_bond_site_symmetry_1
_geom_bond_site_symmetry_2
O1 C1 1_555 1_555
O2 C2 1_555 1_555
O3 C4 1_555 1_555
C1 C2 1_555 1_555
C2 C3 1_555 1_555
C3 H1 1_555 1_555
C4 C3 1_555 1_555
C5 C4 1_555 1_555
C6 C1 1_555 1_555
H2 C6 1_555 1_555
C7 O3 1_555 1_555
H3 C7 1_555 1_555
H4 C7 1_555 1_555
H5 C7 1_555 1_555
C8 C5 1_555 1_555
C9 C8 1_555 1_555
H6 C9 1_555 1_555
H7 C9 1_555 1_555
H8 C9 1_555 1_555
C10 C8 1_555 1_555
H9 C10 1_555 1_555
H10 C10 1_555 1_555
H11 C10 1_555 1_555
C11 C8 1_555 1_555
H12 C11 1_555 1_555
H13 C11 1_555 1_555
H14 C11 1_555 1_555
O4 C12 1_555 1_555
O5 C13 1_555 1_555
O6 C15 1_555 1_555
C12 C13 1_555 1_555
C13 C14 1_555 1_555
C14 H15 1_555 1_555
C15 C14 1_555 1_555
C16 C15 1_555 1_555
C17 C12 1_555 1_555
H16 C17 1_555 1_555
C18 O6 1_555 1_555
H17 C18 1_555 1_555
H18 C18 1_555 1_555
H19 C18 1_555 1_555
C19 C16 1_555 1_555
C20 C19 1_555 1_555
H20 C20 1_555 1_555
H21 C20 1_555 1_555
H22 C20 1_555 1_555
C21 C19 1_555 1_555
H23 C21 1_555 1_555
H24 C21 1_555 1_555
H25 C21 1_555 1_555
C22 C19 1_555 1_555
H26 C22 1_555 1_555
H27 C22 1_555 1_555
H28 C22 1_555 1_555
C5 C6 1_555 1_555
C16 C17 1_555 1_555

#END
