
#######################################################################
#
#                 Cambridge Crystallographic Data Centre
#                                CCDC 
#
#######################################################################
#
# If this CIF has been generated from an entry in the Cambridge 
# Structural Database, then it will include bibliographic, chemical, 
# crystal, experimental, refinement or atomic coordinate data resulting 
# from the CCDC's data processing and validation procedures.
#
#######################################################################

data_SUGWUO
_chemical_formula_moiety         'C14 H15 Br1 N2 O2'
_chemical_name_systematic        
(S)-6-bromo-2-methyl-2-(nitromethyl)-2,3,4,9-tetrahydro-1H-carbazole
_symmetry_cell_setting           orthorhombic
_symmetry_space_group_name_H-M   'P 21 21 21'
_symmetry_Int_Tables_number      19
_space_group_name_Hall           'P 2ac 2ab'
loop_
_symmetry_equiv_pos_site_id
_symmetry_equiv_pos_as_xyz
1 x,y,z
2 1/2-x,-y,1/2+z
3 -x,1/2+y,1/2-z
4 1/2+x,1/2-y,-z
_cell_length_a                   9.2455(12)
_cell_length_b                   10.1411(13)
_cell_length_c                   14.4120(18)
_cell_angle_alpha                90
_cell_angle_beta                 90
_cell_angle_gamma                90
_cell_volume                     1351.26
_exptl_crystal_colour            colorless
_exptl_crystal_description       prismatic
_cell_formula_units_Z            4
loop_
_atom_site_label
_atom_site_type_symbol
_atom_site_fract_x
_atom_site_fract_y
_atom_site_fract_z
Br1 Br 0.16977(4) 0.78366(4) -0.42958(2)
O1 O 0.0579(4) 0.7866(3) 0.31243(17)
O2 O 0.0811(5) 0.6028(3) 0.3757(2)
N1 N 0.0975(3) 0.9377(2) -0.03216(17)
N2 N 0.0586(3) 0.6697(2) 0.30962(17)
C1 C 0.1223(3) 0.9241(3) -0.12511(18)
C2 C 0.1265(3) 1.0187(3) -0.1952(2)
H1 H 0.1182 1.1081 -0.1819
C3 C 0.1433(3) 0.9744(3) -0.2856(2)
H2 H 0.1456 1.0348 -0.3342
C4 C 0.1568(3) 0.8401(3) -0.30413(18)
C5 C 0.1583(3) 0.7459(2) -0.23511(17)
H3 H 0.1708 0.6570 -0.2489
C6 C 0.1401(2) 0.7889(3) -0.14344(17)
C7 C 0.1255(2) 0.7217(2) -0.05663(16)
C8 C 0.0969(3) 0.8143(2) 0.00850(18)
C9 C 0.0624(3) 0.7907(3) 0.10758(17)
H4 H -0.0403 0.8036 0.1179
H5 H 0.1146 0.8533 0.1459
C10 C 0.1051(2) 0.6488(3) 0.13528(17)
C11 C 0.0584(3) 0.5520(2) 0.05827(19)
H6 H 0.0797 0.4627 0.0780
H7 H -0.0454 0.5588 0.0494
C12 C 0.1341(3) 0.5783(3) -0.03426(18)
H8 H 0.2346 0.5513 -0.0303
H9 H 0.0880 0.5275 -0.0830
C13 C 0.0219(3) 0.6009(3) 0.22093(18)
H10 H -0.0807 0.6116 0.2094
H11 H 0.0402 0.5074 0.2288
C14 C 0.2679(3) 0.6398(3) 0.1523(2)
H12 H 0.2913 0.6826 0.2098
H13 H 0.3186 0.6824 0.1025
H14 H 0.2963 0.5488 0.1553
H15 H 0.086(3) 1.009(2) -0.0016(18)
loop_
_geom_bond_atom_site_label_1
_geom_bond_atom_site_label_2
_geom_bond_site_symmetry_1
_geom_bond_site_symmetry_2
Br1 C4 1_555 1_555
O1 N2 1_555 1_555
O2 N2 1_555 1_555
N1 C1 1_555 1_555
N2 C13 1_555 1_555
C1 C2 1_555 1_555
C2 H1 1_555 1_555
C3 C2 1_555 1_555
H2 C3 1_555 1_555
C4 C3 1_555 1_555
C5 C4 1_555 1_555
H3 C5 1_555 1_555
C6 C1 1_555 1_555
C7 C6 1_555 1_555
C8 N1 1_555 1_555
C9 C8 1_555 1_555
H4 C9 1_555 1_555
H5 C9 1_555 1_555
C10 C9 1_555 1_555
C11 C10 1_555 1_555
H6 C11 1_555 1_555
H7 C11 1_555 1_555
C12 C7 1_555 1_555
H8 C12 1_555 1_555
H9 C12 1_555 1_555
C13 C10 1_555 1_555
H10 C13 1_555 1_555
H11 C13 1_555 1_555
C14 C10 1_555 1_555
H12 C14 1_555 1_555
H13 C14 1_555 1_555
H14 C14 1_555 1_555
H15 N1 1_555 1_555
C5 C6 1_555 1_555
C7 C8 1_555 1_555
C11 C12 1_555 1_555

#END
