
#######################################################################
#
#                 Cambridge Crystallographic Data Centre
#                                CCDC 
#
#######################################################################
#
# If this CIF has been generated from an entry in the Cambridge 
# Structural Database, then it will include bibliographic, chemical, 
# crystal, experimental, refinement or atomic coordinate data resulting 
# from the CCDC's data processing and validation procedures.
#
#######################################################################

data_SUGZOL
_chemical_formula_moiety         'C17 H21 N5 S2'
_chemical_name_systematic        
1,1'-Pyridine-2,6-diylbis(3-isopropyl-1,3-dihydro-2H-imidazole-2-thione)
_symmetry_cell_setting           monoclinic
_symmetry_space_group_name_H-M   'P 21/c'
_symmetry_Int_Tables_number      14
_space_group_name_Hall           '-P 2ybc'
loop_
_symmetry_equiv_pos_site_id
_symmetry_equiv_pos_as_xyz
1 x,y,z
2 -x,1/2+y,1/2-z
3 -x,-y,-z
4 x,1/2-y,1/2+z
_cell_length_a                   14.7942(11)
_cell_length_b                   8.9398(7)
_cell_length_c                   13.8194(11)
_cell_angle_alpha                90
_cell_angle_beta                 101.675(1)
_cell_angle_gamma                90
_cell_volume                     1789.9
_exptl_crystal_colour            colorless
_exptl_crystal_description       prism
_cell_formula_units_Z            4
loop_
_atom_site_label
_atom_site_type_symbol
_atom_site_fract_x
_atom_site_fract_y
_atom_site_fract_z
S1 S 0.98780(3) 0.42684(7) 0.26709(4)
N1 N 0.70991(9) 0.27508(16) 0.09090(10)
C1 C 0.62838(10) 0.28936(19) 0.11628(12)
N2 N 0.86809(8) 0.25912(16) 0.12935(10)
C2 C 0.61678(12) 0.3113(2) 0.21163(13)
H1 H 0.5585 0.3252 0.2259
C3 C 0.69534(12) 0.3118(2) 0.28522(13)
H2 H 0.6904 0.3248 0.3507
N3 N 0.55290(9) 0.28823(17) 0.03416(10)
C4 C 0.78119(11) 0.2932(2) 0.26209(13)
H3 H 0.8346 0.2907 0.3110
N4 N 0.42350(9) 0.24388(18) -0.06671(11)
C5 C 0.78467(10) 0.27858(18) 0.16342(12)
C6 C 0.87118(11) 0.1809(2) 0.04339(12)
H4 H 0.8219 0.1327 0.0029
C7 C 0.95753(11) 0.1872(2) 0.02932(13)
H5 H 0.9795 0.1438 -0.0226
C8 C 0.95469(10) 0.31641(18) 0.16853(12)
C9 C 1.15933(12) 0.1751(2) 0.08642(16)
H6 H 1.1498 0.0880 0.1237
H7 H 1.2240 0.1981 0.0981
H8 H 1.1371 0.1562 0.0173
C10 C 1.10746(11) 0.3058(2) 0.11811(14)
H9 H 1.1317 0.3230 0.1886
C11 C 1.11964(14) 0.4489(3) 0.06389(19)
H10 H 1.0858 0.5280 0.0873
H11 H 1.0970 0.4348 -0.0057
H12 H 1.1839 0.4746 0.0756
C12 C 0.55688(12) 0.3554(2) -0.05536(13)
H13 H 0.6063 0.4095 -0.0696
C13 C 0.47749(12) 0.3283(2) -0.11682(13)
H14 H 0.4610 0.3604 -0.1820
C14 C 0.46937(11) 0.2156(2) 0.02667(12)
C15 C 0.33079(16) 0.0985(3) -0.20167(18)
H15 H 0.3733 0.0167 -0.1858
H16 H 0.3496 0.1609 -0.2505
H17 H 0.2700 0.0600 -0.2271
C16 C 0.32985(12) 0.1895(2) -0.10926(14)
H18 H 0.3102 0.1238 -0.0606
C17 C 0.26378(14) 0.3198(3) -0.12819(18)
H19 H 0.2647 0.3725 -0.0675
H20 H 0.2025 0.2835 -0.1538
H21 H 0.2821 0.3862 -0.1753
S2 S 0.43238(3) 0.11047(6) 0.11128(3)
N5 N 1.00857(9) 0.26980(15) 0.10570(10)
loop_
_geom_bond_atom_site_label_1
_geom_bond_atom_site_label_2
_geom_bond_site_symmetry_1
_geom_bond_site_symmetry_2
S1 C8 1_555 1_555
N1 C1 1_555 1_555
C1 C2 1_555 1_555
N2 C5 1_555 1_555
C2 H1 1_555 1_555
C3 C2 1_555 1_555
H2 C3 1_555 1_555
N3 C1 1_555 1_555
C4 C3 1_555 1_555
H3 C4 1_555 1_555
N4 C13 1_555 1_555
C5 N1 1_555 1_555
C6 N2 1_555 1_555
H4 C6 1_555 1_555
C7 C6 1_555 1_555
H5 C7 1_555 1_555
C8 N2 1_555 1_555
C9 H6 1_555 1_555
H7 C9 1_555 1_555
H8 C9 1_555 1_555
C10 C9 1_555 1_555
H9 C10 1_555 1_555
C11 C10 1_555 1_555
H10 C11 1_555 1_555
H11 C11 1_555 1_555
H12 C11 1_555 1_555
C12 N3 1_555 1_555
H13 C12 1_555 1_555
C13 C12 1_555 1_555
H14 C13 1_555 1_555
C14 N3 1_555 1_555
C15 H15 1_555 1_555
H16 C15 1_555 1_555
H17 C15 1_555 1_555
C16 N4 1_555 1_555
H18 C16 1_555 1_555
C17 C16 1_555 1_555
H19 C17 1_555 1_555
H20 C17 1_555 1_555
H21 C17 1_555 1_555
S2 C14 1_555 1_555
N5 C7 1_555 1_555
C4 C5 1_555 1_555
N4 C14 1_555 1_555
C8 N5 1_555 1_555
C10 N5 1_555 1_555
C15 C16 1_555 1_555

#END
