
#######################################################################
#
#                 Cambridge Crystallographic Data Centre
#                                CCDC 
#
#######################################################################
#
# If this CIF has been generated from an entry in the Cambridge 
# Structural Database, then it will include bibliographic, chemical, 
# crystal, experimental, refinement or atomic coordinate data resulting 
# from the CCDC's data processing and validation procedures.
#
#######################################################################

data_SUHLIS
_chemical_formula_moiety         'C28 H40 N2'
_chemical_name_systematic        
N,N'-bis(4-t-butyl-2,6-dimethylphenyl)butane-2,3-diimine
_symmetry_cell_setting           triclinic
_symmetry_space_group_name_H-M   'P -1'
_symmetry_Int_Tables_number      2
_space_group_name_Hall           '-P 1'
loop_
_symmetry_equiv_pos_site_id
_symmetry_equiv_pos_as_xyz
1 x,y,z
2 -x,-y,-z
_cell_length_a                   5.993(6)
_cell_length_b                   10.064(9)
_cell_length_c                   11.614(11)
_cell_angle_alpha                107.913(9)
_cell_angle_beta                 100.484(10)
_cell_angle_gamma                99.260(9)
_cell_volume                     637.548
_exptl_crystal_colour            yellow
_exptl_crystal_description       block
_cell_formula_units_Z            1
loop_
_atom_site_label
_atom_site_type_symbol
_atom_site_fract_x
_atom_site_fract_y
_atom_site_fract_z
C1 C 0.4381(7) 0.6834(4) 0.3770(4)
C2 C 0.2730(7) 0.6166(4) 0.2638(4)
C3 C 0.2889(7) 0.4854(4) 0.1863(4)
H1 H 0.1786 0.4407 0.1104
C4 C 0.4620(7) 0.4180(4) 0.2170(4)
C5 C 0.6199(8) 0.4869(4) 0.3302(4)
H2 H 0.7373 0.4430 0.3531
C6 C 0.6132(8) 0.6185(4) 0.4121(4)
C7 C 0.0812(9) 0.6857(5) 0.2255(5)
H3 H -0.0024 0.7076 0.2894
H4 H -0.0239 0.6209 0.1487
H5 H 0.1475 0.7725 0.2138
C8 C 0.4746(9) 0.2729(4) 0.1263(4)
C9 C 0.5397(13) 0.2937(6) 0.0139(6)
H6 H 0.5464 0.2030 -0.0431
H7 H 0.6895 0.3591 0.0387
H8 H 0.4250 0.3322 -0.0264
C10 C 0.2528(12) 0.1679(6) 0.0939(8)
H9 H 0.1292 0.2030 0.0567
H10 H 0.2225 0.1533 0.1680
H11 H 0.2614 0.0785 0.0357
C11 C 0.6673(13) 0.2145(6) 0.1849(6)
H12 H 0.6383 0.2030 0.2603
H13 H 0.8149 0.2805 0.2039
H14 H 0.6703 0.1233 0.1274
C12 C 0.7936(9) 0.6874(5) 0.5336(4)
H15 H 0.9289 0.7412 0.5211
H16 H 0.8363 0.6146 0.5645
H17 H 0.7313 0.7507 0.5930
C13 C 0.5168(8) 0.9330(4) 0.4552(4)
C14 C 0.6647(10) 0.9478(5) 0.3680(5)
H18 H 0.6877 0.8553 0.3238
H19 H 0.8131 1.0115 0.4145
H20 H 0.5890 0.9860 0.3095
N1 N 0.4167(6) 0.8151(3) 0.4603(3)
C1A C 0.5619(7) 1.3166(4) 0.6230(4)
C2A C 0.7270(7) 1.3834(4) 0.7362(4)
C3A C 0.7111(7) 1.5146(4) 0.8137(4)
H1A H 0.8214 1.5593 0.8896
C4A C 0.5380(7) 1.5820(4) 0.7830(4)
C5A C 0.3801(8) 1.5131(4) 0.6698(4)
H2A H 0.2627 1.5570 0.6469
C6A C 0.3868(8) 1.3815(4) 0.5879(4)
C7A C 0.9188(9) 1.3143(5) 0.7745(5)
H3A H 1.0024 1.2924 0.7106
H4A H 1.0239 1.3791 0.8513
H5A H 0.8525 1.2275 0.7862
C8A C 0.5254(9) 1.7271(4) 0.8737(4)
C9A C 0.4603(13) 1.7063(6) 0.9861(6)
H6A H 0.4536 1.7970 1.0431
H7A H 0.3105 1.6409 0.9613
H8A H 0.5750 1.6678 1.0264
C10A C 0.7472(12) 1.8321(6) 0.9061(8)
H9A H 0.8708 1.7970 0.9433
H10A H 0.7775 1.8467 0.8320
H11A H 0.7386 1.9215 0.9643
C11A C 0.3327(13) 1.7855(6) 0.8151(6)
H12A H 0.3617 1.7970 0.7397
H13A H 0.1851 1.7195 0.7961
H14A H 0.3297 1.8767 0.8726
C12A C 0.2064(9) 1.3126(5) 0.4664(4)
H15A H 0.0711 1.2588 0.4789
H16A H 0.1637 1.3854 0.4355
H17A H 0.2687 1.2493 0.4070
C13A C 0.4832(8) 1.0670(4) 0.5448(4)
C14A C 0.3353(10) 1.0522(5) 0.6320(5)
H18A H 0.3123 1.1447 0.6762
H19A H 0.1869 0.9885 0.5855
H20A H 0.4110 1.0140 0.6905
N1A N 0.5833(6) 1.1849(3) 0.5397(3)
loop_
_geom_bond_atom_site_label_1
_geom_bond_atom_site_label_2
_geom_bond_site_symmetry_1
_geom_bond_site_symmetry_2
C1 C2 1_555 1_555
C2 C3 1_555 1_555
C3 H1 1_555 1_555
C4 C3 1_555 1_555
C5 C4 1_555 1_555
H2 C5 1_555 1_555
C6 C1 1_555 1_555
C7 C2 1_555 1_555
H3 C7 1_555 1_555
H4 C7 1_555 1_555
H5 C7 1_555 1_555
C8 C4 1_555 1_555
C9 C8 1_555 1_555
H6 C9 1_555 1_555
H7 C9 1_555 1_555
H8 C9 1_555 1_555
C10 C8 1_555 1_555
H9 C10 1_555 1_555
H10 C10 1_555 1_555
H11 C10 1_555 1_555
C11 C8 1_555 1_555
H12 C11 1_555 1_555
H13 C11 1_555 1_555
H14 C11 1_555 1_555
C12 C6 1_555 1_555
H15 C12 1_555 1_555
H16 C12 1_555 1_555
H17 C12 1_555 1_555
C13 C14 1_555 1_555
C14 H18 1_555 1_555
H19 C14 1_555 1_555
H20 C14 1_555 1_555
N1 C1 1_555 1_555
C1A C2A 1_555 1_555
C2A C3A 1_555 1_555
C3A H1A 1_555 1_555
C4A C3A 1_555 1_555
C5A C4A 1_555 1_555
H2A C5A 1_555 1_555
C6A C1A 1_555 1_555
C7A C2A 1_555 1_555
H3A C7A 1_555 1_555
H4A C7A 1_555 1_555
H5A C7A 1_555 1_555
C8A C4A 1_555 1_555
C9A C8A 1_555 1_555
H6A C9A 1_555 1_555
H7A C9A 1_555 1_555
H8A C9A 1_555 1_555
C10A C8A 1_555 1_555
H9A C10A 1_555 1_555
H10A C10A 1_555 1_555
H11A C10A 1_555 1_555
C11A C8A 1_555 1_555
H12A C11A 1_555 1_555
H13A C11A 1_555 1_555
H14A C11A 1_555 1_555
C12A C6A 1_555 1_555
H15A C12A 1_555 1_555
H16A C12A 1_555 1_555
H17A C12A 1_555 1_555
C13A C13 1_555 1_555
C14A C13A 1_555 1_555
H18A C14A 1_555 1_555
H19A C14A 1_555 1_555
H20A C14A 1_555 1_555
N1A C1A 1_555 1_555
C5 C6 1_555 1_555
C13 N1 1_555 1_555
C5A C6A 1_555 1_555
C13A N1A 1_555 1_555

#END
