
#######################################################################
#
#                 Cambridge Crystallographic Data Centre
#                                CCDC 
#
#######################################################################
#
# If this CIF has been generated from an entry in the Cambridge 
# Structural Database, then it will include bibliographic, chemical, 
# crystal, experimental, refinement or atomic coordinate data resulting 
# from the CCDC's data processing and validation procedures.
#
#######################################################################

data_SUHQET
_chemical_formula_moiety         'C12 H12 Br2 O1'
_chemical_name_systematic        
1-(1,4-Dibromopenta-2,4-dien-2-yl)-4-methoxybenzene
_symmetry_cell_setting           monoclinic
_symmetry_space_group_name_H-M   'P 21/c'
_symmetry_Int_Tables_number      14
_space_group_name_Hall           '-P 2ybc'
loop_
_symmetry_equiv_pos_site_id
_symmetry_equiv_pos_as_xyz
1 x,y,z
2 -x,1/2+y,1/2-z
3 -x,-y,-z
4 x,1/2-y,1/2+z
_cell_length_a                   13.9526(6)
_cell_length_b                   5.4114(2)
_cell_length_c                   16.5276(6)
_cell_angle_alpha                90
_cell_angle_beta                 92.316(3)
_cell_angle_gamma                90
_cell_volume                     1246.87
_exptl_crystal_colour            'light yellow'
_exptl_crystal_description       block
_cell_formula_units_Z            4
loop_
_atom_site_label
_atom_site_type_symbol
_atom_site_fract_x
_atom_site_fract_y
_atom_site_fract_z
Br1 Br 0.64894(4) 0.16584(9) 0.51520(2)
Br2 Br 0.61352(3) -0.14463(6) 0.85381(2)
O1 O 1.06964(17) 0.2454(5) 0.93732(14)
C1 C 0.6572(3) -0.0361(7) 0.6106(2)
C2 C 0.7380(2) 0.0316(6) 0.66432(19)
H1 H 0.7984 0.0294 0.6425
C3 C 0.7338(2) 0.0965(5) 0.74207(19)
C4 C 0.8220(2) 0.1349(5) 0.79330(19)
C5 C 0.8340(2) 0.3357(5) 0.8455(2)
H2 H 0.7848 0.4505 0.8491
C6 C 0.9164(2) 0.3674(5) 0.8914(2)
H3 H 0.9229 0.5041 0.9253
C7 C 0.9906(2) 0.1974(5) 0.8881(2)
C8 C 1.1422(3) 0.0614(7) 0.9434(2)
H4 H 1.1701 0.0404 0.8917
H5 H 1.1145 -0.0920 0.9600
H6 H 1.1909 0.1115 0.9827
C9 C 0.5955(3) -0.2157(8) 0.6185(3)
H7 H 0.6006 -0.3197 0.6633
H8 H 0.5466 -0.2395 0.5794
C10 C 0.6402(2) 0.1339(5) 0.7811(2)
H9 H 0.5891 0.1470 0.7397
H10 H 0.6421 0.2867 0.8118
C11 C 0.9816(2) -0.0015(6) 0.83613(19)
H11 H 1.0313 -0.1147 0.8323
C12 C 0.8984(2) -0.0298(5) 0.79035(19)
H12 H 0.8926 -0.1650 0.7558
loop_
_geom_bond_atom_site_label_1
_geom_bond_atom_site_label_2
_geom_bond_site_symmetry_1
_geom_bond_site_symmetry_2
Br1 C1 1_555 1_555
Br2 C10 1_555 1_555
O1 C7 1_555 1_555
C1 C2 1_555 1_555
C2 H1 1_555 1_555
C3 C2 1_555 1_555
C4 C3 1_555 1_555
C5 C4 1_555 1_555
H2 C5 1_555 1_555
C6 C5 1_555 1_555
H3 C6 1_555 1_555
C7 C6 1_555 1_555
C8 O1 1_555 1_555
H4 C8 1_555 1_555
H5 C8 1_555 1_555
H6 C8 1_555 1_555
C9 C1 1_555 1_555
H7 C9 1_555 1_555
H8 C9 1_555 1_555
C10 C3 1_555 1_555
H9 C10 1_555 1_555
H10 C10 1_555 1_555
C11 C7 1_555 1_555
H11 C11 1_555 1_555
C12 C4 1_555 1_555
H12 C12 1_555 1_555
C11 C12 1_555 1_555

#END
