
#######################################################################
#
#                 Cambridge Crystallographic Data Centre
#                                CCDC 
#
#######################################################################
#
# If this CIF has been generated from an entry in the Cambridge 
# Structural Database, then it will include bibliographic, chemical, 
# crystal, experimental, refinement or atomic coordinate data resulting 
# from the CCDC's data processing and validation procedures.
#
#######################################################################

data_SUHQIX
_chemical_formula_moiety         'C21 H21 Br1 Cl1 N1 O2 S1'
_chemical_name_systematic        
6-Bromo-7a-(4-chlorophenyl)-2-((4-methylphenyl)sulfonyl)-2,3,3a,4,5,7a-hexahydro-1H-isoindole
_symmetry_cell_setting           monoclinic
_symmetry_space_group_name_H-M   'P 21/c'
_symmetry_Int_Tables_number      14
_space_group_name_Hall           '-P 2ybc'
loop_
_symmetry_equiv_pos_site_id
_symmetry_equiv_pos_as_xyz
1 x,y,z
2 -x,1/2+y,1/2-z
3 -x,-y,-z
4 x,1/2-y,1/2+z
_cell_length_a                   13.1847(4)
_cell_length_b                   12.5420(4)
_cell_length_c                   12.5303(5)
_cell_angle_alpha                90
_cell_angle_beta                 100.222(2)
_cell_angle_gamma                90
_cell_volume                     2039.15
_exptl_crystal_colour            colorless
_exptl_crystal_description       needle
_cell_formula_units_Z            4
loop_
_atom_site_label
_atom_site_type_symbol
_atom_site_fract_x
_atom_site_fract_y
_atom_site_fract_z
Br1 Br 0.11435(5) 0.87350(5) 0.75553(6)
Cl1 Cl 0.10530(11) 0.24918(11) 0.43374(11)
S1 S 0.49580(8) 0.67159(8) 0.97683(8)
O1 O 0.5115(2) 0.6670(2) 1.0929(2)
O2 O 0.5773(2) 0.6432(2) 0.9203(2)
N1 N 0.4002(2) 0.5937(3) 0.9330(2)
C1 C 0.1488(3) 0.3414(3) 0.5353(3)
C2 C 0.1182(3) 0.4449(4) 0.5232(4)
H1 H 0.0751 0.4667 0.4599
C3 C 0.1511(3) 0.5179(3) 0.6050(3)
H2 H 0.1287 0.5882 0.5965
C4 C 0.2165(3) 0.4881(3) 0.6991(3)
C5 C 0.2561(3) 0.5685(3) 0.7892(3)
C6 C 0.3746(3) 0.5671(3) 0.8167(3)
H3 H 0.4011 0.4973 0.8030
H4 H 0.4036 0.6194 0.7736
C7 C 0.4548(3) 0.8016(3) 0.9386(3)
C8 C 0.4077(3) 0.8638(3) 1.0070(3)
H5 H 0.4026 0.8395 1.0759
C9 C 0.3686(3) 0.9620(4) 0.9722(4)
H6 H 0.3385 1.0042 1.0190
C10 C 0.3729(3) 0.9993(3) 0.8691(4)
C11 C 0.3270(4) 1.1060(4) 0.8306(4)
H7 H 0.2588 1.0956 0.7901
H8 H 0.3692 1.1393 0.7852
H9 H 0.3238 1.1507 0.8921
C12 C 0.3073(3) 0.5950(4) 0.9830(3)
H10 H 0.2865 0.6675 0.9953
H11 H 0.3188 0.5568 1.0513
C13 C 0.2266(3) 0.5388(4) 0.8990(3)
H12 H 0.2344 0.4616 0.9094
C14 C 0.1159(4) 0.5687(5) 0.9032(4)
H13 H 0.1007 0.5495 0.9737
H14 H 0.0703 0.5279 0.8489
C15 C 0.0942(4) 0.6881(5) 0.8833(5)
H15 H 0.0208 0.6988 0.8598
H16 H 0.1151 0.7269 0.9506
C16 C 0.1501(4) 0.7305(4) 0.8002(4)
C17 C 0.2209(3) 0.6810(3) 0.7584(3)
H17 H 0.2512 0.7167 0.7071
C18 C 0.4210(3) 0.9369(3) 0.8027(3)
H18 H 0.4257 0.9615 0.7337
C19 C 0.4624(3) 0.8387(3) 0.8360(3)
H19 H 0.4951 0.7979 0.7901
C20 C 0.2477(4) 0.3819(3) 0.7084(4)
H20 H 0.2923 0.3598 0.7704
C21 C 0.2140(4) 0.3090(4) 0.6278(4)
H21 H 0.2351 0.2383 0.6358
loop_
_geom_bond_atom_site_label_1
_geom_bond_atom_site_label_2
_geom_bond_site_symmetry_1
_geom_bond_site_symmetry_2
Br1 C16 1_555 1_555
Cl1 C1 1_555 1_555
S1 O1 1_555 1_555
O2 S1 1_555 1_555
N1 S1 1_555 1_555
C1 C2 1_555 1_555
C2 H1 1_555 1_555
C3 C2 1_555 1_555
H2 C3 1_555 1_555
C4 C3 1_555 1_555
C5 C4 1_555 1_555
C6 N1 1_555 1_555
H3 C6 1_555 1_555
H4 C6 1_555 1_555
C7 S1 1_555 1_555
C8 C7 1_555 1_555
H5 C8 1_555 1_555
C9 C8 1_555 1_555
H6 C9 1_555 1_555
C10 C9 1_555 1_555
C11 C10 1_555 1_555
H7 C11 1_555 1_555
H8 C11 1_555 1_555
H9 C11 1_555 1_555
C12 N1 1_555 1_555
H10 C12 1_555 1_555
H11 C12 1_555 1_555
C13 C5 1_555 1_555
H12 C13 1_555 1_555
C14 C13 1_555 1_555
H13 C14 1_555 1_555
H14 C14 1_555 1_555
C15 C14 1_555 1_555
H15 C15 1_555 1_555
H16 C15 1_555 1_555
C16 C15 1_555 1_555
C17 C5 1_555 1_555
H17 C17 1_555 1_555
C18 C10 1_555 1_555
H18 C18 1_555 1_555
C19 C7 1_555 1_555
H19 C19 1_555 1_555
C20 C4 1_555 1_555
H20 C20 1_555 1_555
C21 C1 1_555 1_555
H21 C21 1_555 1_555
C5 C6 1_555 1_555
C12 C13 1_555 1_555
C16 C17 1_555 1_555
C18 C19 1_555 1_555
C20 C21 1_555 1_555

#END
