
#######################################################################
#
#                 Cambridge Crystallographic Data Centre
#                                CCDC 
#
#######################################################################
#
# If this CIF has been generated from an entry in the Cambridge 
# Structural Database, then it will include bibliographic, chemical, 
# crystal, experimental, refinement or atomic coordinate data resulting 
# from the CCDC's data processing and validation procedures.
#
#######################################################################

data_SUHTOG
_chemical_formula_moiety         'C30 H24 N4 O2'
_chemical_name_systematic        
7-(1-Anilinoethylidene)-5-hydroxy-1-methyl-3,8-diphenyl-7,8-dihydrocyclopenta[d]pyrazolo[3,4-b]pyridin-6(3H)-one
_symmetry_cell_setting           triclinic
_symmetry_space_group_name_H-M   'P 1'
_symmetry_Int_Tables_number      1
_space_group_name_Hall           'P 1'
loop_
_symmetry_equiv_pos_site_id
_symmetry_equiv_pos_as_xyz
1 x,y,z
_cell_length_a                   8.0316(8)
_cell_length_b                   9.2660(9)
_cell_length_c                   9.7678(7)
_cell_angle_alpha                110.1170(10)
_cell_angle_beta                 113.018(2)
_cell_angle_gamma                94.6680(10)
_cell_volume                     608.32
_cell_formula_units_Z            1
loop_
_atom_site_label
_atom_site_type_symbol
_atom_site_fract_x
_atom_site_fract_y
_atom_site_fract_z
N1 N 0.1948(6) 0.5477(5) 0.2025(5)
N2 N 0.1310(6) 0.4497(6) 0.0396(5)
N3 N 0.4732(6) 0.6244(5) 0.4550(5)
N4 N 1.1829(6) 0.3020(5) 0.4884(5)
H1 H 1.1797 0.3798 0.5662
O1 O 0.7530(5) 0.6777(4) 0.6745(4)
H2 H 0.8519 0.6511 0.6986
O2 O 0.9994(5) 0.4958(4) 0.6223(4)
C1 C 0.2623(8) 0.3759(7) 0.0281(6)
C2 C 0.4195(7) 0.4267(6) 0.1835(6)
C3 C 0.3709(7) 0.5386(6) 0.2928(6)
C4 C 0.6391(8) 0.5936(6) 0.5137(7)
C5 C 0.7012(7) 0.4802(6) 0.4185(6)
C6 C 0.8753(7) 0.4345(6) 0.4745(6)
C7 C 0.8798(7) 0.3181(6) 0.3359(6)
C8 C 0.6985(7) 0.2835(6) 0.1834(6)
H3 H 0.7272 0.3148 0.1073
C9 C 0.5934(7) 0.3954(6) 0.2518(6)
C10 C 0.2322(9) 0.2557(9) -0.1348(7)
H4 H 0.2187 0.1516 -0.1354
H5 H 0.3375 0.2801 -0.1538
H6 H 0.1211 0.2589 -0.2192
C11 C 1.0342(7) 0.2554(6) 0.3424(6)
C12 C 1.0426(8) 0.1499(7) 0.1928(7)
H7 H 1.1705 0.1517 0.2155
H8 H 0.9879 0.1863 0.1082
H9 H 0.9748 0.0435 0.1580
C13 C 0.0779(7) 0.6415(6) 0.2497(7)
C14 C 0.1002(8) 0.6956(7) 0.4073(8)
H10 H 0.1910 0.6711 0.4843
C15 C -0.0146(9) 0.7874(7) 0.4500(9)
H11 H 0.0020 0.8258 0.5571
C16 C -0.1512(10) 0.8223(8) 0.3384(10)
H12 H -0.2284 0.8822 0.3684
C17 C -0.1729(9) 0.7681(8) 0.1824(9)
H13 H -0.2658 0.7916 0.1060
C18 C -0.0581(8) 0.6777(7) 0.1351(8)
H14 H -0.0727 0.6426 0.0287
C19 C 0.5815(7) 0.1110(6) 0.0945(6)
C20 C 0.4998(7) 0.0484(6) 0.1689(6)
H15 H 0.5216 0.1100 0.2750
C21 C 0.3849(9) -0.1053(7) 0.0886(9)
H16 H 0.3268 -0.1448 0.1386
C22 C 0.3593(10) -0.1974(9) -0.0660(10)
H17 H 0.2849 -0.3007 -0.1202
C23 C 0.4426(12) -0.1379(10) -0.1407(9)
H18 H 0.4238 -0.2012 -0.2454
C24 C 0.5552(9) 0.0165(8) -0.0610(7)
H19 H 0.6123 0.0559 -0.1118
C25 C 1.3450(7) 0.2424(6) 0.5343(6)
C26 C 1.5131(7) 0.3482(7) 0.6501(7)
H20 H 1.5201 0.4563 0.6926
C27 C 1.6727(8) 0.2936(8) 0.7036(8)
H21 H 1.7866 0.3653 0.7814
C28 C 1.6622(9) 0.1324(8) 0.6410(8)
H22 H 1.7691 0.0956 0.6741
C29 C 1.4936(9) 0.0284(7) 0.5305(8)
H23 H 1.4857 -0.0800 0.4906
C30 C 1.3335(8) 0.0813(7) 0.4765(7)
H24 H 1.2192 0.0090 0.4019
loop_
_geom_bond_atom_site_label_1
_geom_bond_atom_site_label_2
_geom_bond_site_symmetry_1
_geom_bond_site_symmetry_2
N1 N2 1_555 1_555
N2 C1 1_555 1_555
N3 C3 1_555 1_555
N4 H1 1_555 1_555
O1 H2 1_555 1_555
O2 C6 1_555 1_555
C1 C2 1_555 1_555
C2 C3 1_555 1_555
C3 N1 1_555 1_555
C4 N3 1_555 1_555
C5 C4 1_555 1_555
C6 C5 1_555 1_555
C7 C6 1_555 1_555
C8 C7 1_555 1_555
H3 C8 1_555 1_555
C9 C2 1_555 1_555
C10 C1 1_555 1_555
H4 C10 1_555 1_555
H5 C10 1_555 1_555
H6 C10 1_555 1_555
C11 N4 1_555 1_555
C12 C11 1_555 1_555
H7 C12 1_555 1_555
H8 C12 1_555 1_555
H9 C12 1_555 1_555
C13 N1 1_555 1_555
C14 C13 1_555 1_555
H10 C14 1_555 1_555
C15 C14 1_555 1_555
H11 C15 1_555 1_555
C16 C15 1_555 1_555
H12 C16 1_555 1_555
C17 C16 1_555 1_555
H13 C17 1_555 1_555
C18 C13 1_555 1_555
H14 C18 1_555 1_555
C19 C8 1_555 1_555
C20 C19 1_555 1_555
H15 C20 1_555 1_555
C21 C20 1_555 1_555
H16 C21 1_555 1_555
C22 C21 1_555 1_555
H17 C22 1_555 1_555
C23 C22 1_555 1_555
H18 C23 1_555 1_555
C24 C19 1_555 1_555
H19 C24 1_555 1_555
C25 N4 1_555 1_555
C26 C25 1_555 1_555
H20 C26 1_555 1_555
C27 C26 1_555 1_555
H21 C27 1_555 1_555
C28 C27 1_555 1_555
H22 C28 1_555 1_555
C29 C28 1_555 1_555
H23 C29 1_555 1_555
C30 C25 1_555 1_555
H24 C30 1_555 1_555
O1 C4 1_555 1_555
C5 C9 1_555 1_555
C7 C11 1_555 1_555
C8 C9 1_555 1_555
C17 C18 1_555 1_555
C23 C24 1_555 1_555
C29 C30 1_555 1_555

#END
