
#######################################################################
#
#                 Cambridge Crystallographic Data Centre
#                                CCDC 
#
#######################################################################
#
# If this CIF has been generated from an entry in the Cambridge 
# Structural Database, then it will include bibliographic, chemical, 
# crystal, experimental, refinement or atomic coordinate data resulting 
# from the CCDC's data processing and validation procedures.
#
#######################################################################

data_SUHVOI
_chemical_formula_moiety         'C33 H41 B1 F2 N2 O4 S1 Si2'
_chemical_name_systematic        
5,5-Difluoro-1,9-bis(3-methoxy-3-oxopropyl)-2,8-dimethyl-3-(thiophen-2-yl)-7,10-bis[(trimethylsilyl)ethynyl]-5H-dipyrrolo[1,2-c:2',1'-f][1,3,2]diazaborinin-4-ium-5-ide
_symmetry_cell_setting           triclinic
_symmetry_space_group_name_H-M   'P -1'
_symmetry_Int_Tables_number      2
_space_group_name_Hall           '-P 1'
loop_
_symmetry_equiv_pos_site_id
_symmetry_equiv_pos_as_xyz
1 x,y,z
2 -x,-y,-z
_cell_length_a                   10.6213(7)
_cell_length_b                   13.0001(9)
_cell_length_c                   13.2633(11)
_cell_angle_alpha                72.589(6)
_cell_angle_beta                 79.890(6)
_cell_angle_gamma                84.041(6)
_cell_volume                     1717.76
_exptl_crystal_colour            green
_exptl_crystal_description       plate
_cell_formula_units_Z            2
loop_
_atom_site_label
_atom_site_type_symbol
_atom_site_fract_x
_atom_site_fract_y
_atom_site_fract_z
Si1 Si 0.9329(2) 0.44585(17) 0.24461(17)
Si2 Si 0.2195(3) 0.12049(19) 1.04727(18)
F1 F 0.3720(4) 0.4842(3) 0.7818(3)
F2 F 0.5614(4) 0.4329(3) 0.8417(3)
O1 O 1.0942(5) 0.6634(4) 0.3084(4)
O2 O 0.9764(5) 0.8185(4) 0.2595(4)
O3 O 0.8200(5) 0.0759(4) 0.4057(4)
O4 O 1.0069(6) 0.1272(4) 0.4264(4)
N1 N 0.5623(6) 0.5610(5) 0.6668(4)
N2 N 0.5209(6) 0.3692(5) 0.6996(5)
C1 C 0.5569(7) 0.6644(6) 0.6734(6)
C2 C 0.6312(7) 0.7289(6) 0.5802(6)
C3 C 0.6807(7) 0.6649(6) 0.5164(6)
C4 C 0.6384(7) 0.5574(6) 0.5712(6)
C5 C 0.6617(7) 0.4623(6) 0.5429(6)
C6 C 0.6006(7) 0.3660(6) 0.6062(6)
C7 C 0.6052(7) 0.2605(6) 0.5924(6)
C8 C 0.5283(7) 0.2004(6) 0.6809(6)
C9 C 0.4770(7) 0.2666(6) 0.7455(6)
C10 C 0.4899(7) 0.6999(6) 0.7635(6)
S1 S 0.4919(3) 0.63243(19) 0.89765(19)
C11 C 0.4213(13) 0.7971(11) 0.7600(10)
H1 H 0.4087 0.8479 0.6936
C12 C 0.3717(8) 0.8182(6) 0.8552(7)
H2 H 0.3232 0.8818 0.8628
C13 C 0.4028(8) 0.7354(6) 0.9342(6)
H3 H 0.3770 0.7335 1.0070
C14 C 0.6565(8) 0.8456(5) 0.5628(6)
H4 H 0.7370 0.8633 0.5140
H5 H 0.6628 0.8571 0.6315
H6 H 0.5861 0.8922 0.5318
C15 C 0.7659(7) 0.7014(6) 0.4124(6)
H7 H 0.7448 0.7787 0.3785
H8 H 0.7499 0.6602 0.3644
C16 C 0.9062(7) 0.6864(6) 0.4246(6)
H9 H 0.9202 0.7221 0.4778
H10 H 0.9285 0.6084 0.4529
C17 C 0.9945(8) 0.7314(7) 0.3218(7)
C18 C 1.1857(8) 0.7018(7) 0.2115(7)
H11 H 1.1400 0.7453 0.1536
H12 H 1.2317 0.6399 0.1912
H13 H 1.2470 0.7460 0.2245
C19 C 0.7490(8) 0.4573(6) 0.4478(6)
C20 C 0.8240(8) 0.4527(6) 0.3689(6)
C21 C 1.0973(7) 0.4109(6) 0.2782(6)
H14 H 1.1157 0.4567 0.3200
H15 H 1.1591 0.4226 0.2121
H16 H 1.1039 0.3349 0.3201
C22 C 0.9229(8) 0.5805(6) 0.1431(6)
H17 H 0.8357 0.5959 0.1258
H18 H 0.9832 0.5799 0.0782
H19 H 0.9446 0.6363 0.1721
C23 C 0.8779(8) 0.3426(7) 0.1943(6)
H20 H 0.8843 0.2716 0.2469
H21 H 0.9317 0.3410 0.1267
H22 H 0.7887 0.3605 0.1827
C24 C 0.6778(7) 0.2173(6) 0.5067(6)
H23 H 0.6830 0.2749 0.4378
H24 H 0.6314 0.1578 0.5003
C25 C 0.8118(7) 0.1758(6) 0.5284(6)
H25 H 0.8579 0.2369 0.5315
H26 H 0.8050 0.1223 0.5999
C26 C 0.8912(10) 0.1248(7) 0.4499(7)
C27 C 0.8922(8) 0.0205(6) 0.3317(6)
H27 H 0.9404 0.0727 0.2719
H28 H 0.8330 -0.0140 0.3046
H29 H 0.9518 -0.0346 0.3689
C28 C 0.4976(8) 0.0845(6) 0.7045(6)
H30 H 0.4484 0.0776 0.6511
H31 H 0.4471 0.0607 0.7758
H32 H 0.5774 0.0395 0.7018
C29 C 0.3919(8) 0.2343(6) 0.8432(6)
C30 C 0.3229(9) 0.1928(6) 0.9229(7)
C31 C 0.0500(8) 0.1327(7) 1.0205(6)
H33 H -0.0013 0.0813 1.0788
H34 H 0.0487 0.1169 0.9529
H35 H 0.0142 0.2063 1.0157
C32 C 0.2770(10) -0.0244(7) 1.0797(7)
H36 H 0.3698 -0.0301 1.0789
H37 H 0.2567 -0.0561 1.0264
H38 H 0.2346 -0.0633 1.1508
C33 C 0.2339(9) 0.1789(7) 1.1552(7)
H39 H 0.3242 0.1759 1.1635
H40 H 0.1848 0.1376 1.2223
H41 H 0.2002 0.2542 1.1372
B1 B 0.4998(10) 0.4621(7) 0.7511(8)
S2? S 0.416(2) 0.8244(17) 0.7293(13)
C34? C 0.474(4) 0.665(2) 0.877(2)
H42? H 0.5094 0.5966 0.9134
loop_
_geom_bond_atom_site_label_1
_geom_bond_atom_site_label_2
_geom_bond_site_symmetry_1
_geom_bond_site_symmetry_2
Si1 C20 1_555 1_555
Si2 C30 1_555 1_555
F1 B1 1_555 1_555
F2 B1 1_555 1_555
O1 C17 1_555 1_555
O2 C17 1_555 1_555
O3 C26 1_555 1_555
O4 C26 1_555 1_555
N1 C1 1_555 1_555
N2 C6 1_555 1_555
C1 C2 1_555 1_555
C2 C3 1_555 1_555
C3 C4 1_555 1_555
C4 N1 1_555 1_555
C5 C4 1_555 1_555
C6 C5 1_555 1_555
C7 C6 1_555 1_555
C8 C7 1_555 1_555
C9 N2 1_555 1_555
C10 C1 1_555 1_555
S1 C10 1_555 1_555
C11 C10 1_555 1_555
H1 C11 1_555 1_555
C12 C11 1_555 1_555
H2 C12 1_555 1_555
C13 S1 1_555 1_555
H3 C13 1_555 1_555
C14 C2 1_555 1_555
H4 C14 1_555 1_555
H5 C14 1_555 1_555
H6 C14 1_555 1_555
C15 C3 1_555 1_555
H7 C15 1_555 1_555
H8 C15 1_555 1_555
C16 C15 1_555 1_555
H9 C16 1_555 1_555
H10 C16 1_555 1_555
C17 C16 1_555 1_555
C18 O1 1_555 1_555
H11 C18 1_555 1_555
H12 C18 1_555 1_555
H13 C18 1_555 1_555
C19 C5 1_555 1_555
C20 C19 1_555 1_555
C21 Si1 1_555 1_555
H14 C21 1_555 1_555
H15 C21 1_555 1_555
H16 C21 1_555 1_555
C22 Si1 1_555 1_555
H17 C22 1_555 1_555
H18 C22 1_555 1_555
H19 C22 1_555 1_555
C23 Si1 1_555 1_555
H20 C23 1_555 1_555
H21 C23 1_555 1_555
H22 C23 1_555 1_555
C24 C7 1_555 1_555
H23 C24 1_555 1_555
H24 C24 1_555 1_555
C25 C24 1_555 1_555
H25 C25 1_555 1_555
H26 C25 1_555 1_555
C26 C25 1_555 1_555
C27 O3 1_555 1_555
H27 C27 1_555 1_555
H28 C27 1_555 1_555
H29 C27 1_555 1_555
C28 C8 1_555 1_555
H30 C28 1_555 1_555
H31 C28 1_555 1_555
H32 C28 1_555 1_555
C29 C9 1_555 1_555
C30 C29 1_555 1_555
C31 Si2 1_555 1_555
H33 C31 1_555 1_555
H34 C31 1_555 1_555
H35 C31 1_555 1_555
C32 Si2 1_555 1_555
H36 C32 1_555 1_555
H37 C32 1_555 1_555
H38 C32 1_555 1_555
C33 Si2 1_555 1_555
H39 C33 1_555 1_555
H40 C33 1_555 1_555
H41 C33 1_555 1_555
B1 N1 1_555 1_555
N2 B1 1_555 1_555
C8 C9 1_555 1_555
C12 C13 1_555 1_555

#END
