
#######################################################################
#
#                 Cambridge Crystallographic Data Centre
#                                CCDC 
#
#######################################################################
#
# If this CIF has been generated from an entry in the Cambridge 
# Structural Database, then it will include bibliographic, chemical, 
# crystal, experimental, refinement or atomic coordinate data resulting 
# from the CCDC's data processing and validation procedures.
#
#######################################################################

data_SUHWUO
_chemical_formula_moiety         'C31 H24 B1 N3 O1 S3'
_chemical_name_systematic        
Methoxo[5,10,15-tris(5-methylthien-2-yl)subporphyrinato]boron(iii)
_symmetry_cell_setting           triclinic
_symmetry_space_group_name_H-M   'P -1'
_symmetry_Int_Tables_number      2
_space_group_name_Hall           '-P 1'
loop_
_symmetry_equiv_pos_site_id
_symmetry_equiv_pos_as_xyz
1 x,y,z
2 -x,-y,-z
_cell_length_a                   9.802(5)
_cell_length_b                   11.327(6)
_cell_length_c                   12.936(8)
_cell_angle_alpha                75.27(2)
_cell_angle_beta                 87.15(2)
_cell_angle_gamma                67.725(18)
_cell_volume                     1283.64
_exptl_crystal_colour            red
_exptl_crystal_description       prism
_cell_formula_units_Z            2
loop_
_atom_site_label
_atom_site_type_symbol
_atom_site_fract_x
_atom_site_fract_y
_atom_site_fract_z
C1 C 0.3444(2) 0.3643(2) 0.27551(17)
C2 C 0.3282(2) 0.4999(2) 0.23539(18)
H1 H 0.3410 0.5541 0.2763
C3 C 0.2912(2) 0.5372(2) 0.12779(18)
H2 H 0.2724 0.6221 0.0815
C4 C 0.2858(2) 0.4256(2) 0.09718(17)
C5 C 0.2264(2) 0.4106(2) 0.00525(17)
C6 C 0.1867(2) 0.2990(2) 0.01701(17)
C7 C 0.0936(2) 0.2664(2) -0.04177(18)
H3 H 0.0544 0.3112 -0.1129
C8 C 0.0695(2) 0.1590(2) 0.02174(18)
H4 H 0.0106 0.1171 0.0026
C9 C 0.1501(2) 0.1222(2) 0.12228(17)
C10 C 0.1479(2) 0.0401(2) 0.22546(17)
C11 C 0.2107(2) 0.0578(2) 0.31389(17)
C12 C 0.1802(2) 0.0346(2) 0.42515(17)
H5 H 0.1289 -0.0191 0.4611
C13 C 0.2376(2) 0.1032(2) 0.47038(17)
H6 H 0.2336 0.1053 0.5435
C14 C 0.3055(2) 0.1724(2) 0.38800(17)
C15 C 0.3478(2) 0.2810(2) 0.38007(17)
N1 N 0.32693(19) 0.32338(17) 0.18792(14)
N2 N 0.22459(19) 0.20407(17) 0.11207(14)
N3 N 0.29204(19) 0.13450(17) 0.29814(14)
C16 C 0.1945(2) 0.5135(2) -0.09558(17)
C17 C 0.0839(2) 0.5554(2) -0.17369(18)
H7 H 0.0080 0.5215 -0.1678
C18 C 0.0932(3) 0.6525(2) -0.26261(19)
H8 H 0.0237 0.6915 -0.3221
C19 C 0.2114(3) 0.6853(2) -0.25537(19)
C20 C 0.2598(3) 0.7820(3) -0.3356(2)
H9 H 0.3180 0.7389 -0.3889
H10 H 0.3203 0.8122 -0.2987
H11 H 0.1728 0.8577 -0.3713
S1 S 0.31208(6) 0.59571(6) -0.13647(5)
C21 C 0.0635(2) -0.0446(2) 0.24412(17)
C22 C -0.0742(3) -0.0212(2) 0.20470(18)
H12 H -0.1317 0.0577 0.1541
C23 C -0.1224(3) -0.1257(2) 0.24652(19)
H13 H -0.2161 -0.1230 0.2274
C24 C -0.0228(3) -0.2306(2) 0.31662(19)
C25 C -0.0351(3) -0.3585(2) 0.3755(2)
H14 H -0.1306 -0.3583 0.3560
H15 H -0.0276 -0.3686 0.4528
H16 H 0.0447 -0.4320 0.3562
S2 S 0.13283(6) -0.19953(5) 0.33355(5)
C26 C 0.3758(2) 0.3127(2) 0.47834(17)
C27 C 0.3544(2) 0.4306(2) 0.50014(18)
H17 H 0.3177 0.5129 0.4482
C28 C 0.3923(3) 0.4173(2) 0.60746(19)
H18 H 0.3818 0.4904 0.6349
C29 C 0.4453(2) 0.2907(2) 0.66792(18)
C30 C 0.4899(3) 0.2401(3) 0.78544(19)
H19 H 0.4399 0.3102 0.8216
H20 H 0.5970 0.2125 0.7951
H21 H 0.4617 0.1647 0.8162
S3 S 0.44967(6) 0.18471(5) 0.59213(4)
O1 O 0.48899(16) 0.09558(15) 0.17652(12)
C31 C 0.5476(3) 0.1206(2) 0.07475(19)
H22 H 0.4801 0.1237 0.0198
H23 H 0.6438 0.0501 0.0739
H24 H 0.5594 0.2054 0.0601
B1 B 0.3432(3) 0.1847(2) 0.19095(19)
loop_
_geom_bond_atom_site_label_1
_geom_bond_atom_site_label_2
_geom_bond_site_symmetry_1
_geom_bond_site_symmetry_2
C1 C2 1_555 1_555
C2 H1 1_555 1_555
C3 C2 1_555 1_555
H2 C3 1_555 1_555
C4 C3 1_555 1_555
C5 C4 1_555 1_555
C6 C5 1_555 1_555
C7 C6 1_555 1_555
H3 C7 1_555 1_555
C8 C7 1_555 1_555
H4 C8 1_555 1_555
C9 C8 1_555 1_555
C10 C9 1_555 1_555
C11 C10 1_555 1_555
C12 C11 1_555 1_555
H5 C12 1_555 1_555
C13 C12 1_555 1_555
H6 C13 1_555 1_555
C14 C13 1_555 1_555
C15 C1 1_555 1_555
N1 C1 1_555 1_555
N2 C6 1_555 1_555
N3 C11 1_555 1_555
C16 C5 1_555 1_555
C17 C16 1_555 1_555
H7 C17 1_555 1_555
C18 C17 1_555 1_555
H8 C18 1_555 1_555
C19 C18 1_555 1_555
C20 C19 1_555 1_555
H9 C20 1_555 1_555
H10 C20 1_555 1_555
H11 C20 1_555 1_555
S1 C16 1_555 1_555
C21 C10 1_555 1_555
C22 C21 1_555 1_555
H12 C22 1_555 1_555
C23 C22 1_555 1_555
H13 C23 1_555 1_555
C24 C23 1_555 1_555
C25 C24 1_555 1_555
H14 C25 1_555 1_555
H15 C25 1_555 1_555
H16 C25 1_555 1_555
S2 C21 1_555 1_555
C26 C15 1_555 1_555
C27 C26 1_555 1_555
H17 C27 1_555 1_555
C28 C27 1_555 1_555
H18 C28 1_555 1_555
C29 C28 1_555 1_555
C30 C29 1_555 1_555
H19 C30 1_555 1_555
H20 C30 1_555 1_555
H21 C30 1_555 1_555
S3 C26 1_555 1_555
O1 C31 1_555 1_555
C31 H22 1_555 1_555
H23 C31 1_555 1_555
H24 C31 1_555 1_555
B1 N1 1_555 1_555
C4 N1 1_555 1_555
C9 N2 1_555 1_555
C14 C15 1_555 1_555
C14 N3 1_555 1_555
N2 B1 1_555 1_555
N3 B1 1_555 1_555
C19 S1 1_555 1_555
C24 S2 1_555 1_555
C29 S3 1_555 1_555
O1 B1 1_555 1_555

#END
