
#######################################################################
#
#                 Cambridge Crystallographic Data Centre
#                                CCDC 
#
#######################################################################
#
# If this CIF has been generated from an entry in the Cambridge 
# Structural Database, then it will include bibliographic, chemical, 
# crystal, experimental, refinement or atomic coordinate data resulting 
# from the CCDC's data processing and validation procedures.
#
#######################################################################

data_SUHWUP
_chemical_formula_moiety         'C17 H15 N1 O1'
_chemical_name_systematic        1-(6-Methyl-2-phenyl-1H-indol-3-yl)ethanone
_symmetry_cell_setting           monoclinic
_symmetry_space_group_name_H-M   'P 21/c'
_symmetry_Int_Tables_number      14
_space_group_name_Hall           '-P 2ybc'
loop_
_symmetry_equiv_pos_site_id
_symmetry_equiv_pos_as_xyz
1 x,y,z
2 -x,1/2+y,1/2-z
3 -x,-y,-z
4 x,1/2-y,1/2+z
_cell_length_a                   14.094(3)
_cell_length_b                   7.3935(15)
_cell_length_c                   12.576(3)
_cell_angle_alpha                90
_cell_angle_beta                 90.653(4)
_cell_angle_gamma                90
_cell_volume                     1310.38
_exptl_crystal_colour            colorless
_cell_formula_units_Z            4
loop_
_atom_site_label
_atom_site_type_symbol
_atom_site_fract_x
_atom_site_fract_y
_atom_site_fract_z
N1 N 0.24528(8) 0.19385(15) 0.15206(10)
O1 O 0.24491(8) 0.81036(13) 0.14082(10)
C1 C 0.18712(10) 0.25541(18) 0.07067(12)
C2 C 0.13576(10) 0.15730(19) -0.00537(13)
H1 H 0.1347 0.0289 -0.0036
C3 C 0.08650(11) 0.2512(2) -0.08316(13)
C4 C 0.08807(10) 0.4420(2) -0.08199(13)
H2 H 0.0539 0.5058 -0.1356
C5 C 0.13740(10) 0.53924(19) -0.00574(12)
H3 H 0.1360 0.6677 -0.0060
C6 C 0.18954(10) 0.44589(18) 0.07196(12)
C7 C 0.25063(9) 0.49734(17) 0.16022(12)
C8 C 0.28485(10) 0.33639(17) 0.20482(12)
C9 C 0.35873(10) 0.30806(17) 0.28686(12)
C10 C 0.44488(11) 0.40141(19) 0.28054(13)
H4 H 0.4563 0.4791 0.2219
C11 C 0.51339(11) 0.3814(2) 0.35898(14)
H5 H 0.5714 0.4464 0.3545
C12 C 0.49778(12) 0.2666(2) 0.44426(13)
H6 H 0.5449 0.2531 0.4983
C13 C 0.41375(11) 0.1720(2) 0.45032(13)
H7 H 0.4034 0.0925 0.5084
C14 C 0.34423(11) 0.19213(18) 0.37226(12)
H8 H 0.2865 0.1265 0.3771
C15 C 0.26396(10) 0.68065(18) 0.19904(13)
C16 C 0.29436(12) 0.7163(2) 0.31202(14)
H9 H 0.3610 0.7538 0.3137
H10 H 0.2869 0.6058 0.3541
H11 H 0.2550 0.8126 0.3419
C17 C 0.03180(12) 0.1534(2) -0.16934(14)
H12 H 0.0312 0.0235 -0.1539
H13 H 0.0621 0.1743 -0.2380
H14 H -0.0335 0.1989 -0.1721
H15 H 0.2578(12) 0.072(3) 0.1611(14)
loop_
_geom_bond_atom_site_label_1
_geom_bond_atom_site_label_2
_geom_bond_site_symmetry_1
_geom_bond_site_symmetry_2
N1 C1 1_555 1_555
O1 C15 1_555 1_555
C1 C2 1_555 1_555
C2 H1 1_555 1_555
C3 C2 1_555 1_555
C4 C3 1_555 1_555
H2 C4 1_555 1_555
C5 C4 1_555 1_555
H3 C5 1_555 1_555
C6 C1 1_555 1_555
C7 C6 1_555 1_555
C8 N1 1_555 1_555
C9 C8 1_555 1_555
C10 C9 1_555 1_555
H4 C10 1_555 1_555
C11 C10 1_555 1_555
H5 C11 1_555 1_555
C12 C11 1_555 1_555
H6 C12 1_555 1_555
C13 C12 1_555 1_555
H7 C13 1_555 1_555
C14 C9 1_555 1_555
H8 C14 1_555 1_555
C15 C7 1_555 1_555
C16 C15 1_555 1_555
H9 C16 1_555 1_555
H10 C16 1_555 1_555
H11 C16 1_555 1_555
C17 C3 1_555 1_555
H12 C17 1_555 1_555
H13 C17 1_555 1_555
H14 C17 1_555 1_555
H15 N1 1_555 1_555
C5 C6 1_555 1_555
C7 C8 1_555 1_555
C13 C14 1_555 1_555

#END
