
#######################################################################
#
#                 Cambridge Crystallographic Data Centre
#                                CCDC 
#
#######################################################################
#
# If this CIF has been generated from an entry in the Cambridge 
# Structural Database, then it will include bibliographic, chemical, 
# crystal, experimental, refinement or atomic coordinate data resulting 
# from the CCDC's data processing and validation procedures.
#
#######################################################################

data_SUHWOJ
_chemical_formula_moiety         'C19 H19 N1 O2 S1'
_chemical_name_systematic        
(5-Ethoxy-2-(ethylsulfanyl)-1H-indol-3-yl)(phenyl)methanone
_symmetry_cell_setting           orthorhombic
_symmetry_space_group_name_H-M   'P b c a'
_symmetry_Int_Tables_number      61
_space_group_name_Hall           '-P 2ac 2ab'
loop_
_symmetry_equiv_pos_site_id
_symmetry_equiv_pos_as_xyz
1 x,y,z
2 1/2-x,-y,1/2+z
3 -x,1/2+y,1/2-z
4 1/2+x,1/2-y,-z
5 -x,-y,-z
6 1/2+x,y,1/2-z
7 x,1/2-y,1/2+z
8 1/2-x,1/2+y,z
_cell_length_a                   14.0334(9)
_cell_length_b                   10.0587(7)
_cell_length_c                   23.4532(15)
_cell_angle_alpha                90
_cell_angle_beta                 90
_cell_angle_gamma                90
_cell_volume                     3310.6
_exptl_crystal_colour            colorless
_exptl_crystal_description       prismatic
_cell_formula_units_Z            8
loop_
_atom_site_label
_atom_site_type_symbol
_atom_site_fract_x
_atom_site_fract_y
_atom_site_fract_z
S1 S 0.13821(3) 0.14407(4) 1.037759(18)
O1 O -0.01536(7) 0.29061(13) 0.97747(5)
O2 O 0.31307(7) 0.63338(11) 0.81176(4)
N1 N 0.28584(9) 0.26200(14) 0.98153(5)
C1 C 0.19075(10) 0.24873(16) 0.98874(6)
C2 C 0.14332(10) 0.33178(16) 0.95013(6)
C3 C 0.21717(10) 0.40003(16) 0.91798(6)
C4 C 0.30429(10) 0.35344(15) 0.93869(6)
C5 C 0.39103(10) 0.39690(18) 0.91782(7)
H1 H 0.4481 0.3642 0.9322
C6 C 0.38982(11) 0.48989(17) 0.87514(7)
H2 H 0.4470 0.5198 0.8598
C7 C 0.30378(10) 0.54049(16) 0.85431(6)
C8 C 0.21767(10) 0.49769(15) 0.87530(6)
H3 H 0.1609 0.5328 0.8615
C9 C 0.04181(10) 0.34059(16) 0.94370(6)
C10 C 0.00649(10) 0.41388(16) 0.89206(6)
C11 C 0.01100(12) 0.35442(19) 0.83919(7)
H4 H 0.0315 0.2668 0.8359
C12 C -0.01500(13) 0.4251(2) 0.79113(7)
H5 H -0.0133 0.3842 0.7556
C13 C -0.04326(13) 0.5550(2) 0.79545(8)
H6 H -0.0591 0.6028 0.7629
C14 C -0.04810(13) 0.6140(2) 0.84795(8)
H7 H -0.0676 0.7021 0.8509
C15 C -0.02426(12) 0.54384(18) 0.89652(7)
H8 H -0.0289 0.5840 0.9321
C16 C 0.22854(11) 0.69363(18) 0.78973(7)
H9 H 0.1944 0.7391 0.8199
H10 H 0.1870 0.6265 0.7735
C17 C 0.25870(14) 0.7910(2) 0.74465(7)
H11 H 0.3028 0.8536 0.7607
H12 H 0.2038 0.8375 0.7306
H13 H 0.2888 0.7441 0.7139
C18 C 0.23810(12) 0.05751(19) 1.06892(7)
H14 H 0.2734 0.0102 1.0397
H15 H 0.2807 0.1199 1.0875
C19 C 0.19750(16) -0.0394(2) 1.11208(9)
H16 H 0.1665 0.0090 1.1421
H17 H 0.2481 -0.0920 1.1278
H18 H 0.1522 -0.0965 1.0937
H19 H 0.3303(12) 0.2235(17) 0.9996(7)
loop_
_geom_bond_atom_site_label_1
_geom_bond_atom_site_label_2
_geom_bond_site_symmetry_1
_geom_bond_site_symmetry_2
S1 C1 1_555 1_555
O1 C9 1_555 1_555
O2 C7 1_555 1_555
N1 C1 1_555 1_555
C1 C2 1_555 1_555
C2 C3 1_555 1_555
C3 C4 1_555 1_555
C4 N1 1_555 1_555
C5 C4 1_555 1_555
H1 C5 1_555 1_555
C6 C5 1_555 1_555
H2 C6 1_555 1_555
C7 C6 1_555 1_555
C8 C3 1_555 1_555
H3 C8 1_555 1_555
C9 C2 1_555 1_555
C10 C9 1_555 1_555
C11 C10 1_555 1_555
H4 C11 1_555 1_555
C12 C11 1_555 1_555
H5 C12 1_555 1_555
C13 C12 1_555 1_555
H6 C13 1_555 1_555
C14 C13 1_555 1_555
H7 C14 1_555 1_555
C15 C10 1_555 1_555
H8 C15 1_555 1_555
C16 O2 1_555 1_555
H9 C16 1_555 1_555
H10 C16 1_555 1_555
C17 C16 1_555 1_555
H11 C17 1_555 1_555
H12 C17 1_555 1_555
H13 C17 1_555 1_555
C18 S1 1_555 1_555
H14 C18 1_555 1_555
H15 C18 1_555 1_555
C19 C18 1_555 1_555
H16 C19 1_555 1_555
H17 C19 1_555 1_555
H18 C19 1_555 1_555
H19 N1 1_555 1_555
C7 C8 1_555 1_555
C14 C15 1_555 1_555

#END
