
#######################################################################
#
#                 Cambridge Crystallographic Data Centre
#                                CCDC 
#
#######################################################################
#
# If this CIF has been generated from an entry in the Cambridge 
# Structural Database, then it will include bibliographic, chemical, 
# crystal, experimental, refinement or atomic coordinate data resulting 
# from the CCDC's data processing and validation procedures.
#
#######################################################################

data_SUHXOJ
_chemical_formula_moiety         'C23 H22 O1'
_chemical_name_systematic        
7-Methyl-6,6-diphenyl-1,6,7,9a-tetrahydrocyclohepta[c]pyran
_symmetry_cell_setting           monoclinic
_symmetry_space_group_name_H-M   'P 21/n'
_symmetry_Int_Tables_number      14
_space_group_name_Hall           '-P 2yn'
loop_
_symmetry_equiv_pos_site_id
_symmetry_equiv_pos_as_xyz
1 x,y,z
2 1/2-x,1/2+y,1/2-z
3 -x,-y,-z
4 1/2+x,1/2-y,1/2+z
_cell_length_a                   18.1280(3)
_cell_length_b                   10.1849(6)
_cell_length_c                   19.3613(5)
_cell_angle_alpha                90
_cell_angle_beta                 79.479(3)
_cell_angle_gamma                90
_cell_volume                     3514.62
_exptl_crystal_colour            'pale yellow'
_exptl_crystal_description       prism
_cell_formula_units_Z            8
loop_
_atom_site_label
_atom_site_type_symbol
_atom_site_fract_x
_atom_site_fract_y
_atom_site_fract_z
O1 O 0.0298(3) 0.5431(6) 0.4113(2)
C1 C 0.1104(4) 0.3625(7) 0.3736(3)
H1 H 0.1357 0.2899 0.3869
C2 C 0.0650(4) 0.6107(7) 0.3493(3)
H2 H 0.1121 0.6479 0.3572
H3 H 0.0330 0.6827 0.3403
C3 C 0.0646(4) 0.4278(9) 0.4229(3)
H4 H 0.0555 0.3934 0.4682
C4 C 0.1604(4) 0.1767(6) 0.1521(3)
C5 C 0.1653(3) 0.3210(6) 0.2519(3)
H5 H 0.1899 0.2549 0.2718
C6 C 0.2631(4) 0.3615(6) 0.1430(3)
C7 C 0.1202(4) 0.6039(6) 0.2245(3)
H6 H 0.1302 0.6915 0.2326
C8 C 0.1802(3) 0.3202(6) 0.1718(3)
C9 C 0.1234(3) 0.3994(6) 0.2985(3)
C10 C 0.3777(4) 0.4739(7) 0.1589(4)
H7 H 0.4043 0.5179 0.1885
C11 C 0.1413(4) 0.5562(7) 0.1606(3)
H8 H 0.1668 0.6108 0.1257
C12 C 0.0804(4) 0.5223(6) 0.2848(3)
H9 H 0.0320 0.4948 0.2738
C13 C 0.3058(4) 0.4266(6) 0.1853(3)
H10 H 0.2858 0.4389 0.2326
C14 C 0.2993(4) 0.3461(7) 0.0718(3)
H11 H 0.2732 0.3037 0.0411
C15 C 0.1259(4) 0.4175(6) 0.1421(3)
H12 H 0.0749 0.3971 0.1666
C16 C 0.1150(5) -0.0746(8) 0.1209(4)
H13 H 0.0999 -0.1575 0.1088
C17 C 0.3709(4) 0.3907(8) 0.0457(4)
H14 H 0.3925 0.3763 -0.0011
C18 C 0.0866(4) 0.1352(7) 0.1680(3)
H15 H 0.0508 0.1935 0.1908
C19 C 0.2154(4) 0.0857(7) 0.1222(4)
C20 C 0.1893(5) -0.0406(8) 0.1075(4)
H16 H 0.2242 -0.1033 0.0878
C21 C 0.4096(4) 0.4560(8) 0.0892(4)
H17 H 0.4574 0.4884 0.0719
C22 C 0.0639(4) 0.0134(8) 0.1520(4)
H18 H 0.0134 -0.0091 0.1624
C23 C 0.1256(4) 0.4013(7) 0.0638(3)
H19 H 0.0864 0.4543 0.0510
H20 H 0.1171 0.3108 0.0538
H21 H 0.1731 0.4288 0.0374
O2 O 0.0279(3) 0.2638(9) 0.9363(3)
C24 C 0.1172(4) 0.1057(8) 0.8827(4)
H22 H 0.1466 0.0337 0.8896
C25 C 0.0597(5) 0.3503(9) 0.8800(4)
H23 H 0.1055 0.3882 0.8906
H24 H 0.0248 0.4215 0.8773
C26 C 0.0708(6) 0.1541(11) 0.9371(5)
H25 H 0.0669 0.1097 0.9796
C27 C 0.1775(3) 0.1117(6) 0.6804(3)
C28 C 0.1653(3) 0.0971(6) 0.7612(3)
H26 H 0.1934 0.0292 0.7755
C29 C 0.1557(4) -0.0251(6) 0.6562(3)
C30 C 0.2594(4) 0.1529(6) 0.6515(3)
C31 C 0.3035(4) 0.2086(6) 0.6949(3)
H27 H 0.2839 0.2171 0.7426
C32 C 0.1150(5) -0.2808(8) 0.6228(4)
H28 H 0.1012 -0.3647 0.6111
C33 C 0.1245(4) 0.1589(7) 0.8138(3)
C34 C 0.0820(4) -0.0635(7) 0.6651(3)
H29 H 0.0445 -0.0037 0.6827
C35 C 0.1234(4) 0.2185(6) 0.6580(3)
H30 H 0.0725 0.1937 0.6805
C36 C 0.3766(4) 0.2525(7) 0.6698(4)
H31 H 0.4050 0.2901 0.7001
C37 C 0.2087(4) -0.1222(7) 0.6314(3)
H32 H 0.2595 -0.1021 0.6260
C38 C 0.3607(4) 0.1832(7) 0.5564(4)
H33 H 0.3808 0.1752 0.5089
C39 C 0.1381(4) 0.3496(7) 0.6868(4)
H34 H 0.1637 0.4124 0.6566
C40 C 0.0776(4) 0.2816(7) 0.8087(4)
H35 H 0.0302 0.2545 0.7955
C41 C 0.0622(4) -0.1905(8) 0.6483(4)
H36 H 0.0117 -0.2135 0.6548
C42 C 0.4054(4) 0.2392(7) 0.6003(4)
H37 H 0.4540 0.2668 0.5823
C43 C 0.2893(4) 0.1398(7) 0.5795(3)
C44 C 0.1878(4) -0.2468(7) 0.6146(3)
H38 H 0.2246 -0.3082 0.5974
C45 C 0.1233(4) 0.2260(8) 0.5790(3)
H39 H 0.0800 0.2738 0.5711
H40 H 0.1220 0.1388 0.5603
H41 H 0.1679 0.2701 0.5559
C46 C 0.1158(4) 0.3797(7) 0.7539(5)
H42 H 0.1238 0.4648 0.7684
loop_
_geom_bond_atom_site_label_1
_geom_bond_atom_site_label_2
_geom_bond_site_symmetry_1
_geom_bond_site_symmetry_2
O1 C2 1_555 1_555
C1 H1 1_555 1_555
C2 H2 1_555 1_555
H3 C2 1_555 1_555
C3 O1 1_555 1_555
H4 C3 1_555 1_555
C4 C8 1_555 1_555
C5 H5 1_555 1_555
C6 C8 1_555 1_555
C7 H6 1_555 1_555
C8 C5 1_555 1_555
C9 C1 1_555 1_555
C10 H7 1_555 1_555
C11 C7 1_555 1_555
H8 C11 1_555 1_555
C12 C2 1_555 1_555
H9 C12 1_555 1_555
C13 C6 1_555 1_555
H10 C13 1_555 1_555
C14 C6 1_555 1_555
H11 C14 1_555 1_555
C15 C8 1_555 1_555
H12 C15 1_555 1_555
C16 H13 1_555 1_555
C17 C14 1_555 1_555
H14 C17 1_555 1_555
C18 C4 1_555 1_555
H15 C18 1_555 1_555
C19 C4 1_555 1_555
C20 C16 1_555 1_555
H16 C20 1_555 1_555
C21 C10 1_555 1_555
H17 C21 1_555 1_555
C22 C16 1_555 1_555
H18 C22 1_555 1_555
C23 C15 1_555 1_555
H19 C23 1_555 1_555
H20 C23 1_555 1_555
H21 C23 1_555 1_555
O2 C25 1_555 1_555
C24 H22 1_555 1_555
C25 H23 1_555 1_555
H24 C25 1_555 1_555
C26 O2 1_555 1_555
H25 C26 1_555 1_555
C27 C28 1_555 1_555
C28 H26 1_555 1_555
C29 C27 1_555 1_555
C30 C27 1_555 1_555
C31 C30 1_555 1_555
H27 C31 1_555 1_555
C32 H28 1_555 1_555
C33 C24 1_555 1_555
C34 C29 1_555 1_555
H29 C34 1_555 1_555
C35 C27 1_555 1_555
H30 C35 1_555 1_555
C36 C31 1_555 1_555
H31 C36 1_555 1_555
C37 C29 1_555 1_555
H32 C37 1_555 1_555
C38 H33 1_555 1_555
C39 C35 1_555 1_555
H34 C39 1_555 1_555
C40 C25 1_555 1_555
H35 C40 1_555 1_555
C41 C32 1_555 1_555
H36 C41 1_555 1_555
C42 C36 1_555 1_555
H37 C42 1_555 1_555
C43 C30 1_555 1_555
C44 C32 1_555 1_555
H38 C44 1_555 1_555
C45 C35 1_555 1_555
H39 C45 1_555 1_555
H40 C45 1_555 1_555
H41 C45 1_555 1_555
C46 C39 1_555 1_555
H42 C46 1_555 1_555
C1 C3 1_555 1_555
C5 C9 1_555 1_555
C7 C12 1_555 1_555
C9 C12 1_555 1_555
C10 C13 1_555 1_555
C11 C15 1_555 1_555
C17 C21 1_555 1_555
C18 C22 1_555 1_555
C19 C20 1_555 1_555
C24 C26 1_555 1_555
C28 C33 1_555 1_555
C33 C40 1_555 1_555
C34 C41 1_555 1_555
C37 C44 1_555 1_555
C38 C42 1_555 1_555
C38 C43 1_555 1_555
C40 C46 1_555 1_555

#END
