
#######################################################################
#
#                 Cambridge Crystallographic Data Centre
#                                CCDC 
#
#######################################################################
#
# If this CIF has been generated from an entry in the Cambridge 
# Structural Database, then it will include bibliographic, chemical, 
# crystal, experimental, refinement or atomic coordinate data resulting 
# from the CCDC's data processing and validation procedures.
#
#######################################################################

data_SUHXAW
_chemical_formula_moiety         'C12 H13 N1 O1 S1'
_chemical_name_systematic        
1-(7-Methyl-2-(methylsulfanyl)-1H-indol-3-yl)ethanone
_symmetry_cell_setting           monoclinic
_symmetry_space_group_name_H-M   'P 21/n'
_symmetry_Int_Tables_number      14
_space_group_name_Hall           '-P 2yn'
loop_
_symmetry_equiv_pos_site_id
_symmetry_equiv_pos_as_xyz
1 x,y,z
2 1/2-x,1/2+y,1/2-z
3 -x,-y,-z
4 1/2+x,1/2-y,1/2+z
_cell_length_a                   5.262(6)
_cell_length_b                   16.416(19)
_cell_length_c                   13.074(15)
_cell_angle_alpha                90
_cell_angle_beta                 99.99(2)
_cell_angle_gamma                90
_cell_volume                     1112.22
_exptl_crystal_colour            colorless
_exptl_crystal_description       prismatic
_cell_formula_units_Z            4
loop_
_atom_site_label
_atom_site_type_symbol
_atom_site_fract_x
_atom_site_fract_y
_atom_site_fract_z
S1 S 0.99326(9) 0.78599(3) 0.05635(4)
N1 N 0.8625(3) 0.68033(9) 0.20002(12)
O1 O 0.6161(3) 0.73661(10) -0.11063(11)
C1 C 0.8172(3) 0.70865(11) 0.10100(14)
C2 C 0.6085(3) 0.66662(11) 0.04264(14)
C3 C 0.5201(3) 0.60987(11) 0.11250(15)
C4 C 0.6842(4) 0.61953(11) 0.20963(14)
C5 C 0.6627(4) 0.57425(12) 0.29755(16)
C6 C 0.4600(5) 0.51946(13) 0.28571(19)
H1 H 0.4360 0.4879 0.3423
C7 C 0.2907(5) 0.50981(15) 0.1921(2)
H2 H 0.1558 0.4727 0.1885
C8 C 0.3170(4) 0.55326(13) 0.10548(18)
H3 H 0.2034 0.5456 0.0433
C9 C 0.5105(4) 0.68455(13) -0.06494(14)
C10 C 0.2770(4) 0.63988(15) -0.12138(16)
H4 H 0.2453 0.6559 -0.1931
H5 H 0.1295 0.6531 -0.0905
H6 H 0.3076 0.5822 -0.1165
C11 C 0.8507(5) 0.58430(15) 0.39878(16)
H7 H 0.8098 0.5458 0.4488
H8 H 0.8379 0.6386 0.4247
H9 H 1.0232 0.5748 0.3869
C12 C 1.2479(4) 0.80368(13) 0.16580(16)
H10 H 1.1766 0.8277 0.2215
H11 H 1.3737 0.8399 0.1456
H12 H 1.3287 0.7528 0.1885
H13 H 0.973(4) 0.7016(14) 0.2502(18)
loop_
_geom_bond_atom_site_label_1
_geom_bond_atom_site_label_2
_geom_bond_site_symmetry_1
_geom_bond_site_symmetry_2
S1 C1 1_555 1_555
N1 C1 1_555 1_555
O1 C9 1_555 1_555
C1 C2 1_555 1_555
C2 C3 1_555 1_555
C3 C4 1_555 1_555
C4 N1 1_555 1_555
C5 C4 1_555 1_555
C6 C5 1_555 1_555
H1 C6 1_555 1_555
C7 C6 1_555 1_555
H2 C7 1_555 1_555
C8 C3 1_555 1_555
H3 C8 1_555 1_555
C9 C2 1_555 1_555
C10 C9 1_555 1_555
H4 C10 1_555 1_555
H5 C10 1_555 1_555
H6 C10 1_555 1_555
C11 C5 1_555 1_555
H7 C11 1_555 1_555
H8 C11 1_555 1_555
H9 C11 1_555 1_555
C12 S1 1_555 1_555
H10 C12 1_555 1_555
H11 C12 1_555 1_555
H12 C12 1_555 1_555
H13 N1 1_555 1_555
C7 C8 1_555 1_555

#END
