
#######################################################################
#
#                 Cambridge Crystallographic Data Centre
#                                CCDC 
#
#######################################################################
#
# If this CIF has been generated from an entry in the Cambridge 
# Structural Database, then it will include bibliographic, chemical, 
# crystal, experimental, refinement or atomic coordinate data resulting 
# from the CCDC's data processing and validation procedures.
#
#######################################################################

data_SUHXOK
_chemical_formula_moiety         'C23 H38 O4'
_chemical_name_systematic        
1-(8a-Hydroxy-3,3,5a,8-tetramethyl-6-(3-methylbut-2-en-1-yl)octahydroindeno[7,1-cd][1,2]dioxin-8b(3H)-yl)-2-methylpropan-1-one
_symmetry_cell_setting           monoclinic
_symmetry_space_group_name_H-M   'C 2/c'
_symmetry_Int_Tables_number      15
_space_group_name_Hall           '-C 2yn'
loop_
_symmetry_equiv_pos_site_id
_symmetry_equiv_pos_as_xyz
1 x,y,z
2 -x,y,1/2-z
3 1/2+x,1/2+y,z
4 1/2-x,1/2+y,1/2-z
5 -x,-y,-z
6 x,-y,1/2+z
7 1/2-x,1/2-y,-z
8 1/2+x,1/2-y,1/2+z
_cell_length_a                   32.0238(5)
_cell_length_b                   16.1168(2)
_cell_length_c                   8.6240(6)
_cell_angle_alpha                90
_cell_angle_beta                 101.794(7)
_cell_angle_gamma                90
_cell_volume                     4357.06
_exptl_crystal_colour            colorless
_exptl_crystal_description       block
_cell_formula_units_Z            8
loop_
_atom_site_label
_atom_site_type_symbol
_atom_site_fract_x
_atom_site_fract_y
_atom_site_fract_z
O1 O 0.04826(3) 0.67365(6) 0.12887(11)
O2 O 0.06801(3) 0.62980(6) 0.27345(11)
O3 O 0.03724(3) 0.73252(6) 0.40349(13)
H1 H 0.0171 0.7004 0.3962
O4 O 0.10470(4) 0.81453(7) 0.63151(13)
C1 C 0.07460(4) 0.68767(8) 0.40247(16)
C2 C 0.08788(5) 0.63360(9) 0.54980(17)
H2 H 0.0894 0.6706 0.6410
C3 C 0.13252(6) 0.59632(11) 0.5648(2)
H3 H 0.1485 0.6072 0.6710
H4 H 0.1296 0.5366 0.5531
C4 C 0.15857(4) 0.62767(9) 0.44706(18)
H5 H 0.1456 0.6041 0.3437
C5 C 0.20448(5) 0.59393(10) 0.4899(2)
H6 H 0.2216 0.6214 0.4244
H7 H 0.2165 0.6076 0.5994
C6 C 0.20728(6) 0.50205(11) 0.4682(2)
H8 H 0.1842 0.4768 0.4022
C7 C 0.23931(5) 0.45316(10) 0.5337(2)
C8 C 0.27675(7) 0.48341(15) 0.6516(3)
H9 H 0.3025 0.4684 0.6180
H10 H 0.2766 0.4587 0.7528
H11 H 0.2753 0.5427 0.6601
C9 C 0.05468(7) 0.56754(12) 0.5640(3)
H12 H 0.0278 0.5938 0.5654
H13 H 0.0639 0.5369 0.6604
H14 H 0.0514 0.5304 0.4753
C10 C 0.23971(7) 0.36208(12) 0.4963(3)
H15 H 0.2135 0.3473 0.4258
H16 H 0.2426 0.3307 0.5925
H17 H 0.2633 0.3501 0.4469
C11 C 0.15698(4) 0.72314(8) 0.42753(18)
C12 C 0.18317(5) 0.76480(11) 0.5770(2)
H18 H 0.1714 0.7500 0.6671
H19 H 0.1821 0.8240 0.5637
H20 H 0.2122 0.7464 0.5933
C13 C 0.10833(4) 0.75423(8) 0.38023(15)
C14 C 0.10075(4) 0.82710(9) 0.49124(17)
C15 C 0.10156(4) 0.78200(8) 0.20363(16)
H21 H 0.0831 0.8310 0.1920
C16 C 0.14590(5) 0.81155(10) 0.1885(2)
H22 H 0.1487 0.8114 0.0786
H23 H 0.1513 0.8672 0.2306
C17 C 0.17637(5) 0.75002(11) 0.2846(2)
H24 H 0.2041 0.7755 0.3214
H25 H 0.1799 0.7022 0.2203
C18 C 0.08103(4) 0.71945(9) 0.07305(16)
C19 C 0.05494(6) 0.76712(12) -0.06729(19)
H26 H 0.0412 0.7286 -0.1464
H27 H 0.0735 0.8027 -0.1117
H28 H 0.0337 0.8000 -0.0318
C20 C 0.10993(5) 0.65766(11) 0.0118(2)
H29 H 0.1245 0.6240 0.0980
H30 H 0.1305 0.6872 -0.0338
H31 H 0.0930 0.6229 -0.0672
C21 C 0.0916(3) 0.9160(4) 0.4353(11)
H32 H 0.1010 0.9222 0.3348
C22 C 0.04305(19) 0.9272(4) 0.4011(17)
H33 H 0.0360 0.9827 0.3644
H34 H 0.0326 0.9176 0.4963
H35 H 0.0301 0.8884 0.3212
C23 C 0.1145(5) 0.9787(6) 0.5470(14)
H36 H 0.1446 0.9668 0.5681
H37 H 0.1044 0.9768 0.6442
H38 H 0.1096 1.0329 0.5009
C24? C 0.0819(6) 0.9128(7) 0.428(2)
H39? H 0.0741 0.9151 0.3117
C25? C 0.0446(3) 0.9348(6) 0.509(3)
H40? H 0.0200 0.9027 0.4627
H41? H 0.0381 0.9928 0.4948
H42? H 0.0526 0.9226 0.6201
C26? C 0.1163(7) 0.9749(9) 0.497(3)
H43? H 0.1079 1.0293 0.4578
H44? H 0.1426 0.9599 0.4672
H45? H 0.1202 0.9746 0.6105
loop_
_geom_bond_atom_site_label_1
_geom_bond_atom_site_label_2
_geom_bond_site_symmetry_1
_geom_bond_site_symmetry_2
O1 O2 1_555 1_555
O2 C1 1_555 1_555
O3 H1 1_555 1_555
O4 C14 1_555 1_555
C1 O3 1_555 1_555
C2 C1 1_555 1_555
H2 C2 1_555 1_555
C3 C2 1_555 1_555
H3 C3 1_555 1_555
H4 C3 1_555 1_555
C4 C3 1_555 1_555
H5 C4 1_555 1_555
C5 C4 1_555 1_555
H6 C5 1_555 1_555
H7 C5 1_555 1_555
C6 C5 1_555 1_555
H8 C6 1_555 1_555
C7 C6 1_555 1_555
C8 C7 1_555 1_555
H9 C8 1_555 1_555
H10 C8 1_555 1_555
H11 C8 1_555 1_555
C9 C2 1_555 1_555
H12 C9 1_555 1_555
H13 C9 1_555 1_555
H14 C9 1_555 1_555
C10 C7 1_555 1_555
H15 C10 1_555 1_555
H16 C10 1_555 1_555
H17 C10 1_555 1_555
C11 C4 1_555 1_555
C12 C11 1_555 1_555
H18 C12 1_555 1_555
H19 C12 1_555 1_555
H20 C12 1_555 1_555
C13 C1 1_555 1_555
C14 C13 1_555 1_555
C15 C13 1_555 1_555
H21 C15 1_555 1_555
C16 C15 1_555 1_555
H22 C16 1_555 1_555
H23 C16 1_555 1_555
C17 C11 1_555 1_555
H24 C17 1_555 1_555
H25 C17 1_555 1_555
C18 O1 1_555 1_555
C19 C18 1_555 1_555
H26 C19 1_555 1_555
H27 C19 1_555 1_555
H28 C19 1_555 1_555
C20 C18 1_555 1_555
H29 C20 1_555 1_555
H30 C20 1_555 1_555
H31 C20 1_555 1_555
C21 C14 1_555 1_555
H32 C21 1_555 1_555
C22 C21 1_555 1_555
H33 C22 1_555 1_555
H34 C22 1_555 1_555
H35 C22 1_555 1_555
C23 C21 1_555 1_555
H36 C23 1_555 1_555
H37 C23 1_555 1_555
H38 C23 1_555 1_555
C11 C13 1_555 1_555
C15 C18 1_555 1_555
C16 C17 1_555 1_555

#END
