
#######################################################################
#
#                 Cambridge Crystallographic Data Centre
#                                CCDC 
#
#######################################################################
#
# If this CIF has been generated from an entry in the Cambridge 
# Structural Database, then it will include bibliographic, chemical, 
# crystal, experimental, refinement or atomic coordinate data resulting 
# from the CCDC's data processing and validation procedures.
#
#######################################################################

data_SUHZEC
_chemical_formula_moiety         'C23 H19 N1 O3'
_chemical_name_systematic        
2-Methoxy-4-(4-methoxyphenyl)-3-phenylisoquinolin-1(2H)-one
_symmetry_cell_setting           triclinic
_symmetry_space_group_name_H-M   'P -1'
_symmetry_Int_Tables_number      2
_space_group_name_Hall           '-P 1'
loop_
_symmetry_equiv_pos_site_id
_symmetry_equiv_pos_as_xyz
1 x,y,z
2 -x,-y,-z
_cell_length_a                   9.953(2)
_cell_length_b                   12.581(3)
_cell_length_c                   15.107(3)
_cell_angle_alpha                90.32(3)
_cell_angle_beta                 97.35(3)
_cell_angle_gamma                99.51(3)
_cell_volume                     1849.66
_cell_formula_units_Z            4
loop_
_atom_site_label
_atom_site_type_symbol
_atom_site_fract_x
_atom_site_fract_y
_atom_site_fract_z
O1 O 0.87564(18) 0.71322(12) 0.50032(11)
O2 O 0.72491(16) 0.64765(11) 0.34550(10)
O3 O 0.53798(15) -0.05086(11) 0.36473(10)
N1 N 0.74161(18) 0.57585(13) 0.41486(11)
C1 C 0.8284(2) 0.61636(17) 0.49100(15)
C2 C 0.8534(2) 0.53510(16) 0.55659(14)
C3 C 0.9295(2) 0.56877(18) 0.63932(15)
H1 H 0.9626 0.6417 0.6510
C4 C 0.9555(2) 0.4960(2) 0.70292(15)
H2 H 1.0041 0.5193 0.7582
C5 C 0.9092(2) 0.38651(19) 0.68476(15)
H3 H 0.9279 0.3367 0.7280
C6 C 0.8368(2) 0.35163(17) 0.60435(14)
H4 H 0.8079 0.2781 0.5931
C7 C 0.80464(19) 0.42485(15) 0.53778(13)
C8 C 0.72129(19) 0.39129(15) 0.45266(13)
C9 C 0.6894(2) 0.46744(15) 0.39468(13)
C10 C 0.5993(2) 0.44448(14) 0.30723(14)
C11 C 0.4604(2) 0.44985(18) 0.29966(16)
H5 H 0.4221 0.4690 0.3492
C12 C 0.3781(3) 0.4268(2) 0.2182(2)
H6 H 0.2848 0.4300 0.2134
C13 C 0.4342(3) 0.39928(19) 0.14496(19)
H7 H 0.3791 0.3845 0.0903
C14 C 0.5702(3) 0.3936(2) 0.15198(16)
H8 H 0.6080 0.3753 0.1020
C15 C 0.6525(2) 0.41470(17) 0.23271(15)
H9 H 0.7451 0.4088 0.2370
C16 C 0.6700(2) 0.27427(15) 0.43108(13)
C17 C 0.5315(2) 0.23207(16) 0.42227(14)
H10 H 0.4691 0.2773 0.4313
C18 C 0.4826(2) 0.12361(16) 0.40028(14)
H11 H 0.3888 0.0971 0.3945
C19 C 0.5744(2) 0.05604(15) 0.38716(13)
C20 C 0.7141(2) 0.09639(15) 0.39758(13)
H12 H 0.7764 0.0506 0.3900
C21 C 0.7613(2) 0.20430(16) 0.41923(13)
H13 H 0.8551 0.2304 0.4259
C22 C 0.6283(3) 0.7162(2) 0.36215(18)
H14 H 0.5423 0.6727 0.3704
H15 H 0.6148 0.7619 0.3122
H16 H 0.6633 0.7599 0.4150
C23 C 0.3952(2) -0.09578(18) 0.35861(17)
H17 H 0.3636 -0.0874 0.4153
H18 H 0.3823 -0.1710 0.3424
H19 H 0.3438 -0.0590 0.3141
O4 O -0.08772(15) 0.37098(11) 0.09089(10)
O5 O -0.10880(14) 0.22594(11) 0.21555(9)
O6 O 0.45520(16) -0.21085(13) 0.12921(13)
N2 N -0.01485(16) 0.22357(12) 0.15459(11)
C24 C -0.0122(2) 0.30260(16) 0.09142(13)
C25 C 0.08158(19) 0.29278(15) 0.02651(13)
C26 C 0.0913(2) 0.36760(17) -0.04148(15)
H20 H 0.0414 0.4240 -0.0427
C27 C 0.1738(2) 0.35844(19) -0.10637(16)
H21 H 0.1792 0.4082 -0.1516
C28 C 0.2490(2) 0.27513(19) -0.10434(15)
H22 H 0.3042 0.2688 -0.1487
C29 C 0.2430(2) 0.20139(17) -0.03722(13)
H23 H 0.2951 0.1464 -0.0364
C30 C 0.15903(19) 0.20816(15) 0.03010(12)
C31 C 0.14878(19) 0.13094(14) 0.10051(13)
C32 C 0.06209(19) 0.14005(15) 0.16167(13)
C33 C 0.0456(2) 0.06862(15) 0.24009(13)
C34 C -0.0255(2) -0.03571(17) 0.22968(15)
H24 H -0.0675 -0.0615 0.1734
C35 C -0.0348(3) -0.10229(19) 0.30213(18)
H25 H -0.0827 -0.1724 0.2943
C36 C 0.0264(3) -0.0648(2) 0.38535(17)
H26 H 0.0219 -0.1099 0.4338
C37 C 0.0946(2) 0.0397(2) 0.39697(14)
H27 H 0.1340 0.0659 0.4537
C38 C 0.1047(2) 0.10580(17) 0.32466(13)
H28 H 0.1518 0.1761 0.3330
C39 C 0.2307(2) 0.04119(15) 0.10471(12)
C40 C 0.1697(2) -0.06138(17) 0.07592(15)
H29 H 0.0778 -0.0731 0.0513
C41 C 0.2401(2) -0.14792(17) 0.08228(15)
H30 H 0.1955 -0.2167 0.0634
C42 C 0.3763(2) -0.13080(17) 0.11674(15)
C43 C 0.4401(2) -0.02849(19) 0.14387(18)
H31 H 0.5328 -0.0165 0.1667
C44 C 0.3686(2) 0.05630(17) 0.13763(16)
H32 H 0.4140 0.1251 0.1559
C45 C -0.2411(2) 0.16791(19) 0.17782(16)
H33 H -0.2686 0.1971 0.1211
H34 H -0.3076 0.1749 0.2174
H35 H -0.2353 0.0931 0.1699
C46 C 0.3872(3) -0.3190(2) 0.11261(19)
H36 H 0.3139 -0.3339 0.1487
H37 H 0.4515 -0.3673 0.1273
H38 H 0.3503 -0.3288 0.0507
loop_
_geom_bond_atom_site_label_1
_geom_bond_atom_site_label_2
_geom_bond_site_symmetry_1
_geom_bond_site_symmetry_2
O1 C1 1_555 1_555
O2 N1 1_555 1_555
O3 C19 1_555 1_555
N1 C1 1_555 1_555
C1 C2 1_555 1_555
C2 C3 1_555 1_555
C3 H1 1_555 1_555
C4 C3 1_555 1_555
H2 C4 1_555 1_555
C5 C4 1_555 1_555
H3 C5 1_555 1_555
C6 C5 1_555 1_555
H4 C6 1_555 1_555
C7 C2 1_555 1_555
C8 C7 1_555 1_555
C9 N1 1_555 1_555
C10 C9 1_555 1_555
C11 C10 1_555 1_555
H5 C11 1_555 1_555
C12 C11 1_555 1_555
H6 C12 1_555 1_555
C13 C12 1_555 1_555
H7 C13 1_555 1_555
C14 C13 1_555 1_555
H8 C14 1_555 1_555
C15 C10 1_555 1_555
H9 C15 1_555 1_555
C16 C8 1_555 1_555
C17 C16 1_555 1_555
H10 C17 1_555 1_555
C18 C17 1_555 1_555
H11 C18 1_555 1_555
C19 C18 1_555 1_555
C20 C19 1_555 1_555
H12 C20 1_555 1_555
C21 C16 1_555 1_555
H13 C21 1_555 1_555
C22 O2 1_555 1_555
H14 C22 1_555 1_555
H15 C22 1_555 1_555
H16 C22 1_555 1_555
C23 O3 1_555 1_555
H17 C23 1_555 1_555
H18 C23 1_555 1_555
H19 C23 1_555 1_555
O4 C24 1_555 1_555
O5 N2 1_555 1_555
O6 C42 1_555 1_555
N2 C24 1_555 1_555
C24 C25 1_555 1_555
C25 C26 1_555 1_555
C26 H20 1_555 1_555
C27 C26 1_555 1_555
H21 C27 1_555 1_555
C28 C27 1_555 1_555
H22 C28 1_555 1_555
C29 C28 1_555 1_555
H23 C29 1_555 1_555
C30 C25 1_555 1_555
C31 C30 1_555 1_555
C32 N2 1_555 1_555
C33 C32 1_555 1_555
C34 C33 1_555 1_555
H24 C34 1_555 1_555
C35 C34 1_555 1_555
H25 C35 1_555 1_555
C36 C35 1_555 1_555
H26 C36 1_555 1_555
C37 C36 1_555 1_555
H27 C37 1_555 1_555
C38 C33 1_555 1_555
H28 C38 1_555 1_555
C39 C31 1_555 1_555
C40 C39 1_555 1_555
H29 C40 1_555 1_555
C41 C40 1_555 1_555
H30 C41 1_555 1_555
C42 C41 1_555 1_555
C43 C42 1_555 1_555
H31 C43 1_555 1_555
C44 C39 1_555 1_555
H32 C44 1_555 1_555
C45 O5 1_555 1_555
H33 C45 1_555 1_555
H34 C45 1_555 1_555
H35 C45 1_555 1_555
C46 O6 1_555 1_555
H36 C46 1_555 1_555
H37 C46 1_555 1_555
H38 C46 1_555 1_555
C6 C7 1_555 1_555
C8 C9 1_555 1_555
C14 C15 1_555 1_555
C20 C21 1_555 1_555
C29 C30 1_555 1_555
C31 C32 1_555 1_555
C37 C38 1_555 1_555
C43 C44 1_555 1_555

#END
