
#######################################################################
#
#                 Cambridge Crystallographic Data Centre
#                                CCDC 
#
#######################################################################
#
# If this CIF has been generated from an entry in the Cambridge 
# Structural Database, then it will include bibliographic, chemical, 
# crystal, experimental, refinement or atomic coordinate data resulting 
# from the CCDC's data processing and validation procedures.
#
#######################################################################

data_SUHZOM
_chemical_formula_moiety         'C17 H13 N1 O3'
_chemical_name_systematic        
2-Methoxy-1-oxo-4-phenyl-1,2-dihydroisoquinoline-3-carbaldehyde
_symmetry_cell_setting           monoclinic
_symmetry_space_group_name_H-M   'P 21/n'
_symmetry_Int_Tables_number      14
_space_group_name_Hall           '-P 2yn'
loop_
_symmetry_equiv_pos_site_id
_symmetry_equiv_pos_as_xyz
1 x,y,z
2 1/2-x,1/2+y,1/2-z
3 -x,-y,-z
4 1/2+x,1/2-y,1/2+z
_cell_length_a                   8.4145(17)
_cell_length_b                   8.9482(18)
_cell_length_c                   17.838(4)
_cell_angle_alpha                90
_cell_angle_beta                 102.12(3)
_cell_angle_gamma                90
_cell_volume                     1313.17
_cell_formula_units_Z            4
loop_
_atom_site_label
_atom_site_type_symbol
_atom_site_fract_x
_atom_site_fract_y
_atom_site_fract_z
O1 O -0.03598(13) 0.07037(12) 1.15856(6)
O2 O -0.25692(12) 0.05355(11) 1.03053(6)
O3 O -0.35649(13) 0.16645(13) 0.88640(6)
N1 N -0.11615(14) 0.13691(13) 1.03293(6)
C1 C -0.00606(17) 0.13558(15) 1.10267(8)
C2 C 0.14141(17) 0.22288(15) 1.10290(8)
C3 C 0.25200(18) 0.24297(17) 1.17294(8)
H1 H 0.2358 0.1919 1.2174
C4 C 0.38376(18) 0.33620(18) 1.17757(8)
H2 H 0.4585 0.3495 1.2250
C5 C 0.40680(18) 0.41144(18) 1.11173(9)
H3 H 0.4950 0.4792 1.1152
C6 C 0.30279(17) 0.38810(17) 1.04197(8)
H4 H 0.3219 0.4379 0.9977
C7 C 0.16866(16) 0.29143(16) 1.03556(7)
C8 C 0.05478(16) 0.26603(15) 0.96327(7)
C9 C -0.08674(16) 0.19281(15) 0.96412(7)
C10 C 0.09407(17) 0.32701(15) 0.89141(7)
C11 C 0.23252(17) 0.27636(16) 0.86723(7)
H5 H 0.2973 0.1993 0.8948
C12 C 0.27541(17) 0.33860(16) 0.80296(8)
H6 H 0.3692 0.3034 0.7867
C13 C 0.18224(18) 0.45179(16) 0.76239(8)
H7 H 0.2130 0.4950 0.7189
C14 C 0.04378(18) 0.50161(16) 0.78566(8)
H8 H -0.0208 0.5784 0.7578
C15 C -0.00048(17) 0.43905(15) 0.84988(8)
H9 H -0.0956 0.4730 0.8654
C16 C -0.21121(17) 0.17354(15) 0.89178(8)
H10 H -0.1726 0.1661 0.8456
C17 C -0.37625(18) 0.14609(18) 1.05579(9)
H11 H -0.3288 0.1888 1.1061
H12 H -0.4711 0.0853 1.0596
H13 H -0.4098 0.2269 1.0188
loop_
_geom_bond_atom_site_label_1
_geom_bond_atom_site_label_2
_geom_bond_site_symmetry_1
_geom_bond_site_symmetry_2
O1 C1 1_555 1_555
O2 N1 1_555 1_555
O3 C16 1_555 1_555
N1 C1 1_555 1_555
C1 C2 1_555 1_555
C2 C3 1_555 1_555
C3 H1 1_555 1_555
C4 C3 1_555 1_555
H2 C4 1_555 1_555
C5 C4 1_555 1_555
H3 C5 1_555 1_555
C6 C5 1_555 1_555
H4 C6 1_555 1_555
C7 C2 1_555 1_555
C8 C7 1_555 1_555
C9 N1 1_555 1_555
C10 C8 1_555 1_555
C11 C10 1_555 1_555
H5 C11 1_555 1_555
C12 C11 1_555 1_555
H6 C12 1_555 1_555
C13 C12 1_555 1_555
H7 C13 1_555 1_555
C14 C13 1_555 1_555
H8 C14 1_555 1_555
C15 C10 1_555 1_555
H9 C15 1_555 1_555
C16 C9 1_555 1_555
H10 C16 1_555 1_555
C17 O2 1_555 1_555
H11 C17 1_555 1_555
H12 C17 1_555 1_555
H13 C17 1_555 1_555
C6 C7 1_555 1_555
C8 C9 1_555 1_555
C14 C15 1_555 1_555

#END
