
#######################################################################
#
#                 Cambridge Crystallographic Data Centre
#                                CCDC 
#
#######################################################################
#
# If this CIF has been generated from an entry in the Cambridge 
# Structural Database, then it will include bibliographic, chemical, 
# crystal, experimental, refinement or atomic coordinate data resulting 
# from the CCDC's data processing and validation procedures.
#
#######################################################################

data_SUJGIO
_chemical_formula_moiety         'C11 H8 N4 O1'
_chemical_name_systematic        
3-(((1E)-1-(2-Hydroxyphenyl)methylidene)amino)-4-cyanopyrazole
_symmetry_cell_setting           monoclinic
_symmetry_space_group_name_H-M   'P 21/n'
_symmetry_Int_Tables_number      14
_space_group_name_Hall           '-P 2yn'
loop_
_symmetry_equiv_pos_site_id
_symmetry_equiv_pos_as_xyz
1 x,y,z
2 1/2-x,1/2+y,1/2-z
3 -x,-y,-z
4 1/2+x,1/2-y,1/2+z
_cell_length_a                   7.5594(7)
_cell_length_b                   18.3342(19)
_cell_length_c                   22.461(2)
_cell_angle_alpha                90
_cell_angle_beta                 98.419(2)
_cell_angle_gamma                90
_cell_volume                     3079.45
_exptl_crystal_colour            yellow
_exptl_crystal_description       needle
_cell_formula_units_Z            12
loop_
_atom_site_label
_atom_site_type_symbol
_atom_site_fract_x
_atom_site_fract_y
_atom_site_fract_z
N1 N 0.6121(5) 0.9750(2) 0.66311(15)
H1 H 0.5980 0.9510 0.6950
N2 N 0.6743(5) 0.94420(18) 0.61573(17)
N3 N 0.7312(5) 0.9942(2) 0.52057(16)
N4 N 0.5734(5) 1.18277(19) 0.54104(15)
O1 O 0.7912(4) 1.05386(16) 0.42016(12)
H4 H 0.7659 1.0529 0.4544
C1 C 0.6761(5) 0.9986(3) 0.57776(19)
C2 C 0.6140(5) 1.0635(2) 0.60020(19)
C3 C 0.5742(5) 1.0460(2) 0.65638(18)
H7 H 0.5304 1.0768 0.6837
C4 C 0.5934(6) 1.1306(2) 0.56909(18)
C5 C 0.7936(6) 0.9352(3) 0.5027(2)
H8 H 0.8046 0.8951 0.5284
C6 C 0.8485(5) 0.9277(3) 0.4439(2)
C7 C 0.8413(6) 0.9867(3) 0.4048(2)
C8 C 0.8892(6) 0.9806(3) 0.3477(2)
H9 H 0.8870 1.0205 0.3220
C9 C 0.9401(6) 0.9122(3) 0.3309(2)
H10 H 0.9703 0.9063 0.2925
C10 C 0.9482(6) 0.8525(3) 0.3682(2)
H11 H 0.9848 0.8074 0.3556
C11 C 0.9008(6) 0.8610(3) 0.4252(2)
H12 H 0.9046 0.8211 0.4509
N5 N 0.7406(5) 0.3713(2) 0.54056(16)
H2 H 0.6815 0.3511 0.5093
N6 N 0.7989(5) 0.4410(2) 0.54077(15)
N7 N 0.9986(6) 0.3747(2) 0.74264(15)
N8 N 0.9620(5) 0.5146(2) 0.61982(14)
O2 O 1.1168(4) 0.59278(17) 0.70894(11)
H5 H 1.0702 0.5563 0.6922
C12 C 0.8827(6) 0.4497(3) 0.5962(2)
C13 C 0.8758(6) 0.3861(3) 0.63076(18)
C14 C 0.7821(6) 0.3367(2) 0.5928(2)
H13 H 0.7535 0.2889 0.6016
C15 C 0.9463(6) 0.3787(2) 0.6922(2)
C16 C 0.9660(5) 0.5696(2) 0.58632(18)
H14 H 0.9207 0.5654 0.5457
C17 C 1.0391(6) 0.6397(3) 0.6089(2)
C18 C 1.1115(6) 0.6478(3) 0.6686(2)
C19 C 1.1827(6) 0.7151(3) 0.6903(2)
H15 H 1.2324 0.7208 0.7304
C20 C 1.1769(6) 0.7725(3) 0.6505(2)
H16 H 1.2222 0.8176 0.6643
C21 C 1.1048(6) 0.7647(3) 0.5902(2)
H17 H 1.1025 0.8039 0.5637
C22 C 1.0369(6) 0.6979(3) 0.5706(2)
H18 H 0.9884 0.6921 0.5304
N9 N 0.5566(5) 0.7436(2) 0.57130(15)
H3 H 0.5364 0.7727 0.5410
N10 N 0.5092(4) 0.6724(2) 0.56841(15)
N11 N 0.5395(4) 0.57748(18) 0.64395(13)
N12 N 0.7669(6) 0.6967(2) 0.77351(15)
O3 O 0.5876(4) 0.47310(15) 0.72417(11)
H6 H 0.5934 0.5144 0.7106
C23 C 0.5613(6) 0.6495(2) 0.6245(2)
C24 C 0.6443(6) 0.7043(2) 0.66171(18)
C25 C 0.6368(6) 0.7646(2) 0.6250(2)
H19 H 0.6797 0.8110 0.6358
C26 C 0.7127(6) 0.7003(2) 0.7235(2)
C27 C 0.4564(5) 0.5307(2) 0.60812(17)
H20 H 0.4116 0.5456 0.5693
C28 C 0.4281(6) 0.4558(2) 0.6247(2)
C29 C 0.4921(6) 0.4298(2) 0.6821(2)
C30 C 0.4678(6) 0.3580(2) 0.6967(2)
H21 H 0.5099 0.3408 0.7352
C31 C 0.3810(6) 0.3120(2) 0.6540(2)
H22 H 0.3661 0.2632 0.6636
C32 C 0.3154(6) 0.3364(3) 0.5973(2)
H23 H 0.2557 0.3046 0.5690
C33 C 0.3385(6) 0.4080(2) 0.5825(2)
H24 H 0.2940 0.4247 0.5442
loop_
_geom_bond_atom_site_label_1
_geom_bond_atom_site_label_2
_geom_bond_site_symmetry_1
_geom_bond_site_symmetry_2
N1 H1 1_555 1_555
N2 N1 1_555 1_555
N3 C1 1_555 1_555
N4 C4 1_555 1_555
N5 H2 1_555 1_555
N6 N5 1_555 1_555
N7 C15 1_555 1_555
N8 C12 1_555 1_555
N9 H3 1_555 1_555
N10 N9 1_555 1_555
N11 C23 1_555 1_555
N12 C26 1_555 1_555
O1 H4 1_555 1_555
O2 H5 1_555 1_555
O3 H6 1_555 1_555
C1 N2 1_555 1_555
C2 C1 1_555 1_555
C3 N1 1_555 1_555
H7 C3 1_555 1_555
C4 C2 1_555 1_555
C5 N3 1_555 1_555
H8 C5 1_555 1_555
C6 C5 1_555 1_555
C7 O1 1_555 1_555
C8 C7 1_555 1_555
H9 C8 1_555 1_555
C9 C8 1_555 1_555
H10 C9 1_555 1_555
C10 C9 1_555 1_555
H11 C10 1_555 1_555
C11 C6 1_555 1_555
H12 C11 1_555 1_555
C12 N6 1_555 1_555
C13 C12 1_555 1_555
C14 N5 1_555 1_555
H13 C14 1_555 1_555
C15 C13 1_555 1_555
C16 N8 1_555 1_555
H14 C16 1_555 1_555
C17 C16 1_555 1_555
C18 O2 1_555 1_555
C19 C18 1_555 1_555
H15 C19 1_555 1_555
C20 C19 1_555 1_555
H16 C20 1_555 1_555
C21 C20 1_555 1_555
H17 C21 1_555 1_555
C22 C17 1_555 1_555
H18 C22 1_555 1_555
C23 N10 1_555 1_555
C24 C23 1_555 1_555
C25 N9 1_555 1_555
H19 C25 1_555 1_555
C26 C24 1_555 1_555
C27 N11 1_555 1_555
H20 C27 1_555 1_555
C28 C27 1_555 1_555
C29 O3 1_555 1_555
C30 C29 1_555 1_555
H21 C30 1_555 1_555
C31 C30 1_555 1_555
H22 C31 1_555 1_555
C32 C31 1_555 1_555
H23 C32 1_555 1_555
C33 C28 1_555 1_555
H24 C33 1_555 1_555
C2 C3 1_555 1_555
C6 C7 1_555 1_555
C10 C11 1_555 1_555
C13 C14 1_555 1_555
C17 C18 1_555 1_555
C21 C22 1_555 1_555
C24 C25 1_555 1_555
C28 C29 1_555 1_555
C32 C33 1_555 1_555

#END
