
#######################################################################
#
#                 Cambridge Crystallographic Data Centre
#                                CCDC 
#
#######################################################################
#
# If this CIF has been generated from an entry in the Cambridge 
# Structural Database, then it will include bibliographic, chemical, 
# crystal, experimental, refinement or atomic coordinate data resulting 
# from the CCDC's data processing and validation procedures.
#
#######################################################################

data_SUJHOW
_chemical_formula_moiety         'C34 H47 B1 F2 N2 O4 Si3'
_chemical_name_systematic        
'difluoro(methyl 3-(2-(1-(3-(3-methoxy-3-oxopropyl)-4-methyl-5-((trimethylsilyl)ethynyl)-2H-pyrrol-2-ylidene)-3-(trimethylsilyl)prop-2-yn-1-yl)-4-methyl-5-((trimethylsilyl)ethynyl)-1H-pyrrol-3-yl)propanoatato)borate'
_symmetry_cell_setting           triclinic
_symmetry_space_group_name_H-M   'P -1'
_symmetry_Int_Tables_number      2
_space_group_name_Hall           '-P 1'
loop_
_symmetry_equiv_pos_site_id
_symmetry_equiv_pos_as_xyz
1 x,y,z
2 -x,-y,-z
_cell_length_a                   10.7198(2)
_cell_length_b                   12.8475(3)
_cell_length_c                   14.5759(4)
_cell_angle_alpha                88.5036(11)
_cell_angle_beta                 76.5121(10)
_cell_angle_gamma                74.3733(11)
_cell_volume                     1878.47
_exptl_crystal_colour            'dark blue'
_cell_formula_units_Z            2
loop_
_atom_site_label
_atom_site_type_symbol
_atom_site_fract_x
_atom_site_fract_y
_atom_site_fract_z
Si1 Si 0.70550(3) 0.89043(3) 0.13868(2)
Si2 Si 0.01976(3) 0.54600(3) 0.77026(2)
Si3 Si 0.67407(3) 0.30569(3) -0.00071(2)
F1 F 0.61730(7) 0.55816(6) 0.26862(6)
F2 F 0.41271(8) 0.61127(6) 0.23576(5)
O1 O -0.14196(10) 0.93519(9) 0.69432(8)
O2 O 0.00761(10) 0.86921(9) 0.78107(7)
O3 O -0.06251(9) 0.27838(8) 0.60895(7)
O4 O 0.13171(10) 0.15173(8) 0.58912(9)
N1 N 0.43339(9) 0.66479(7) 0.38699(7)
N2 N 0.44714(9) 0.47501(7) 0.34994(6)
C1 C 0.44930(11) 0.76635(9) 0.38009(8)
C2 C 0.37339(11) 0.82962(9) 0.46241(8)
C3 C 0.30979(11) 0.76329(9) 0.52191(8)
C4 C 0.34690(10) 0.66050(9) 0.47305(7)
C5 C 0.30996(10) 0.56401(9) 0.49766(7)
C6 C 0.36394(10) 0.47064(9) 0.43786(7)
C7 C 0.34757(11) 0.36350(9) 0.44849(8)
C8 C 0.42018(11) 0.30554(9) 0.36514(8)
C9 C 0.47853(11) 0.37699(9) 0.30521(8)
C10 C 0.53048(11) 0.80144(9) 0.30049(8)
C11 C 0.59912(12) 0.83655(10) 0.23592(9)
C12 C 0.82828(16) 0.93417(15) 0.18818(11)
H1 H 0.7812 0.9890 0.2389
H2 H 0.8850 0.9648 0.1383
H3 H 0.8836 0.8718 0.2134
C13 C 0.59600(15) 1.00734(12) 0.09243(11)
H4 H 0.5196 0.9866 0.0804
H5 H 0.6464 1.0291 0.0335
H6 H 0.5643 1.0680 0.1390
C14 C 0.78757(15) 0.78556(13) 0.04225(11)
H7 H 0.8400 0.7212 0.0671
H8 H 0.8465 0.8139 -0.0080
H9 H 0.7196 0.7663 0.0167
C15 C 0.36300(14) 0.94680(10) 0.47691(10)
H10 H 0.2914 0.9910 0.4500
H11 H 0.4476 0.9615 0.4456
H12 H 0.3433 0.9647 0.5446
C16 C 0.21950(11) 0.79870(10) 0.61769(8)
H13 H 0.2502 0.8529 0.6470
H14 H 0.2240 0.7357 0.6586
C17 C 0.07538(12) 0.84772(11) 0.61077(9)
H15 H 0.0716 0.9105 0.5697
H16 H 0.0457 0.7934 0.5807
C18 C -0.01901(12) 0.88392(10) 0.70549(9)
C19 C -0.24093(15) 0.97453(14) 0.78081(12)
H17 H -0.2571 0.9131 0.8184
H18 H -0.3241 1.0165 0.7657
H19 H -0.2087 1.0207 0.8170
C20 C 0.21225(11) 0.56228(9) 0.58263(8)
C21 C 0.12881(12) 0.56026(9) 0.65435(8)
C22 C 0.08164(15) 0.60041(14) 0.86216(9)
H20 H 0.1754 0.5619 0.8570
H21 H 0.0289 0.5904 0.9248
H22 H 0.0733 0.6777 0.8533
C23 C 0.03781(17) 0.39896(11) 0.78386(10)
H23 H -0.0058 0.3733 0.7404
H24 H -0.0038 0.3861 0.8490
H25 H 0.1326 0.3598 0.7694
C24 C -0.15353(13) 0.62268(13) 0.76916(11)
H26 H -0.1562 0.6980 0.7543
H27 H -0.2122 0.6205 0.8314
H28 H -0.1836 0.5900 0.7213
C25 C 0.26973(11) 0.31582(9) 0.52969(8)
H29 H 0.2639 0.3543 0.5891
H30 H 0.3172 0.2389 0.5340
C26 C 0.12827(12) 0.32370(10) 0.51874(9)
H31 H 0.0702 0.3972 0.5395
H32 H 0.1311 0.3124 0.4513
C27 C 0.06953(12) 0.24112(10) 0.57591(8)
C28 C -0.12568(13) 0.20311(13) 0.66405(10)
H33 H -0.1229 0.1432 0.6227
H34 H -0.2186 0.2404 0.6935
H35 H -0.0783 0.1748 0.7132
C29 C 0.43415(14) 0.19056(10) 0.33942(9)
H36 H 0.4966 0.1426 0.3718
H37 H 0.4679 0.1781 0.2710
H38 H 0.3470 0.1755 0.3586
C30 C 0.55074(12) 0.35455(9) 0.20996(8)
C31 C 0.60436(12) 0.33195(10) 0.12751(9)
C32 C 0.83439(14) 0.19766(12) -0.01877(11)
H39 H 0.8986 0.2237 0.0058
H40 H 0.8697 0.1791 -0.0864
H41 H 0.8191 0.1334 0.0147
C33 C 0.70047(15) 0.43365(12) -0.05333(10)
H42 H 0.6149 0.4891 -0.0425
H43 H 0.7388 0.4213 -0.1214
H44 H 0.7616 0.4580 -0.0238
C34 C 0.54939(15) 0.26117(12) -0.04853(10)
H45 H 0.5223 0.2037 -0.0101
H46 H 0.5890 0.2337 -0.1139
H47 H 0.4712 0.3226 -0.0468
B1 B 0.48197(13) 0.57768(10) 0.30525(9)
loop_
_geom_bond_atom_site_label_1
_geom_bond_atom_site_label_2
_geom_bond_site_symmetry_1
_geom_bond_site_symmetry_2
Si1 C11 1_555 1_555
Si2 C21 1_555 1_555
Si3 C31 1_555 1_555
F1 B1 1_555 1_555
F2 B1 1_555 1_555
O1 C18 1_555 1_555
O2 C18 1_555 1_555
O3 C27 1_555 1_555
O4 C27 1_555 1_555
N1 C1 1_555 1_555
N2 C6 1_555 1_555
C1 C2 1_555 1_555
C2 C3 1_555 1_555
C3 C4 1_555 1_555
C4 N1 1_555 1_555
C5 C4 1_555 1_555
C6 C5 1_555 1_555
C7 C6 1_555 1_555
C8 C7 1_555 1_555
C9 N2 1_555 1_555
C10 C1 1_555 1_555
C11 C10 1_555 1_555
C12 Si1 1_555 1_555
H1 C12 1_555 1_555
H2 C12 1_555 1_555
H3 C12 1_555 1_555
C13 Si1 1_555 1_555
H4 C13 1_555 1_555
H5 C13 1_555 1_555
H6 C13 1_555 1_555
C14 Si1 1_555 1_555
H7 C14 1_555 1_555
H8 C14 1_555 1_555
H9 C14 1_555 1_555
C15 C2 1_555 1_555
H10 C15 1_555 1_555
H11 C15 1_555 1_555
H12 C15 1_555 1_555
C16 C3 1_555 1_555
H13 C16 1_555 1_555
H14 C16 1_555 1_555
C17 C16 1_555 1_555
H15 C17 1_555 1_555
H16 C17 1_555 1_555
C18 C17 1_555 1_555
C19 O1 1_555 1_555
H17 C19 1_555 1_555
H18 C19 1_555 1_555
H19 C19 1_555 1_555
C20 C5 1_555 1_555
C21 C20 1_555 1_555
C22 Si2 1_555 1_555
H20 C22 1_555 1_555
H21 C22 1_555 1_555
H22 C22 1_555 1_555
C23 Si2 1_555 1_555
H23 C23 1_555 1_555
H24 C23 1_555 1_555
H25 C23 1_555 1_555
C24 Si2 1_555 1_555
H26 C24 1_555 1_555
H27 C24 1_555 1_555
H28 C24 1_555 1_555
C25 C7 1_555 1_555
H29 C25 1_555 1_555
H30 C25 1_555 1_555
C26 C25 1_555 1_555
H31 C26 1_555 1_555
H32 C26 1_555 1_555
C27 C26 1_555 1_555
C28 O3 1_555 1_555
H33 C28 1_555 1_555
H34 C28 1_555 1_555
H35 C28 1_555 1_555
C29 C8 1_555 1_555
H36 C29 1_555 1_555
H37 C29 1_555 1_555
H38 C29 1_555 1_555
C30 C9 1_555 1_555
C31 C30 1_555 1_555
C32 Si3 1_555 1_555
H39 C32 1_555 1_555
H40 C32 1_555 1_555
H41 C32 1_555 1_555
C33 Si3 1_555 1_555
H42 C33 1_555 1_555
H43 C33 1_555 1_555
H44 C33 1_555 1_555
C34 Si3 1_555 1_555
H45 C34 1_555 1_555
H46 C34 1_555 1_555
H47 C34 1_555 1_555
B1 N1 1_555 1_555
N2 B1 1_555 1_555
C8 C9 1_555 1_555

#END
