
#######################################################################
#
#                 Cambridge Crystallographic Data Centre
#                                CCDC 
#
#######################################################################
#
# If this CIF has been generated from an entry in the Cambridge 
# Structural Database, then it will include bibliographic, chemical, 
# crystal, experimental, refinement or atomic coordinate data resulting 
# from the CCDC's data processing and validation procedures.
#
#######################################################################

data_SUJHEM
_chemical_formula_moiety         'C19 H22 B1 Cl1 F2 N2 O4'
_chemical_name_systematic        
'difluoro(methyl 3-(2-(chloro(3-(3-methoxy-3-oxopropyl)-4-methyl-2H-pyrrol-2-ylidene)methyl)-4-methyl-1H-pyrrol-3-yl)propanoatato)borate'
_symmetry_cell_setting           monoclinic
_symmetry_space_group_name_H-M   'C 2/c'
_symmetry_Int_Tables_number      15
_space_group_name_Hall           '-C 2yn'
loop_
_symmetry_equiv_pos_site_id
_symmetry_equiv_pos_as_xyz
1 x,y,z
2 -x,y,1/2-z
3 1/2+x,1/2+y,z
4 1/2-x,1/2+y,1/2-z
5 -x,-y,-z
6 x,-y,1/2+z
7 1/2-x,1/2-y,-z
8 1/2+x,1/2-y,1/2+z
_cell_length_a                   5.5404(2)
_cell_length_b                   15.8951(6)
_cell_length_c                   21.7416(9)
_cell_angle_alpha                90
_cell_angle_beta                 94.046(2)
_cell_angle_gamma                90
_cell_volume                     1909.91
_exptl_crystal_colour            orange
_exptl_crystal_description       lath
_cell_formula_units_Z            4
loop_
_atom_site_label
_atom_site_type_symbol
_atom_site_fract_x
_atom_site_fract_y
_atom_site_fract_z
Cl1 Cl 0.0000 0.70861(3) 0.7500
F1 F -0.14282(18) 0.36291(5) 0.70982(4)
O1 O -0.10056(16) 0.67092(7) 0.52845(5)
O2 O 0.29010(18) 0.64469(8) 0.51641(5)
N1 N 0.16069(19) 0.47137(6) 0.71373(5)
C1 C 0.3280(2) 0.44582(8) 0.67640(6)
H1 H 0.3693 0.3887 0.6699
C2 C 0.4347(2) 0.51456(7) 0.64800(6)
C3 C 0.3248(2) 0.58682(7) 0.66962(5)
C4 C 0.1542(2) 0.55899(7) 0.71172(5)
C5 C 0.0000 0.60062(9) 0.7500
C6 C 0.6289(2) 0.50855(9) 0.60390(7)
H2 H 0.5661 0.5284 0.5632
H3 H 0.6812 0.4499 0.6009
H4 H 0.7668 0.5435 0.6187
C7 C 0.3818(2) 0.67468(8) 0.64957(6)
H5 H 0.5307 0.6734 0.6270
H6 H 0.4144 0.7102 0.6866
C8 C 0.1770(2) 0.71495(8) 0.60813(6)
H7 H 0.0257 0.7131 0.6297
H8 H 0.2169 0.7748 0.6013
C9 C 0.1345(2) 0.67233(8) 0.54676(6)
C10 C -0.1606(2) 0.63429(11) 0.46868(7)
H9 H -0.0922 0.6689 0.4369
H10 H -0.3369 0.6318 0.4610
H11 H -0.0935 0.5773 0.4675
B1 B 0.0000 0.41317(11) 0.7500
F1A F 0.14282(18) 0.36291(5) 0.79018(4)
O1A O 0.10056(16) 0.67092(7) 0.97155(5)
O2A O -0.29010(18) 0.64469(8) 0.98359(5)
N1A N -0.16069(19) 0.47137(6) 0.78627(5)
C1A C -0.3280(2) 0.44582(8) 0.82360(6)
H1A H -0.3693 0.3887 0.8301
C2A C -0.4347(2) 0.51456(7) 0.85200(6)
C3A C -0.3248(2) 0.58682(7) 0.83038(5)
C4A C -0.1542(2) 0.55899(7) 0.78828(5)
C6A C -0.6289(2) 0.50855(9) 0.89610(7)
H2A H -0.5661 0.5284 0.9368
H3A H -0.6812 0.4499 0.8991
H4A H -0.7668 0.5435 0.8813
C7A C -0.3818(2) 0.67468(8) 0.85043(6)
H5A H -0.5307 0.6734 0.8730
H6A H -0.4144 0.7102 0.8134
C8A C -0.1770(2) 0.71495(8) 0.89187(6)
H7A H -0.0257 0.7131 0.8703
H8A H -0.2169 0.7748 0.8987
C9A C -0.1345(2) 0.67233(8) 0.95324(6)
C10A C 0.1606(2) 0.63429(11) 1.03132(7)
H9A H 0.0922 0.6689 1.0631
H10A H 0.3369 0.6318 1.0390
H11A H 0.0935 0.5773 1.0325
Cl2? Cl 0.3464(9) 0.3494(3) 0.6683(2)
loop_
_geom_bond_atom_site_label_1
_geom_bond_atom_site_label_2
_geom_bond_site_symmetry_1
_geom_bond_site_symmetry_2
Cl1 C5 1_555 1_555
F1 B1 1_555 1_555
O1 C9 1_555 1_555
O2 C9 1_555 1_555
N1 C1 1_555 1_555
C1 H1 1_555 1_555
C2 C1 1_555 1_555
C3 C2 1_555 1_555
C4 N1 1_555 1_555
C5 C4 1_555 1_555
C6 C2 1_555 1_555
H2 C6 1_555 1_555
H3 C6 1_555 1_555
H4 C6 1_555 1_555
C7 C3 1_555 1_555
H5 C7 1_555 1_555
H6 C7 1_555 1_555
C8 C7 1_555 1_555
H7 C8 1_555 1_555
H8 C8 1_555 1_555
C9 C8 1_555 1_555
C10 O1 1_555 1_555
H9 C10 1_555 1_555
H10 C10 1_555 1_555
H11 C10 1_555 1_555
B1 N1 1_555 1_555
F1A B1 1_555 1_555
O1A C9A 1_555 1_555
O2A C9A 1_555 1_555
N1A B1 1_555 1_555
C1A N1A 1_555 1_555
H1A C1A 1_555 1_555
C2A C1A 1_555 1_555
C3A C2A 1_555 1_555
C4A C5 1_555 1_555
C6A C2A 1_555 1_555
H2A C6A 1_555 1_555
H3A C6A 1_555 1_555
H4A C6A 1_555 1_555
C7A C3A 1_555 1_555
H5A C7A 1_555 1_555
H6A C7A 1_555 1_555
C8A C7A 1_555 1_555
H7A C8A 1_555 1_555
H8A C8A 1_555 1_555
C9A C8A 1_555 1_555
C10A O1A 1_555 1_555
H9A C10A 1_555 1_555
H10A C10A 1_555 1_555
H11A C10A 1_555 1_555
C3 C4 1_555 1_555
N1A C4A 1_555 1_555
C3A C4A 1_555 1_555

#END
