
#######################################################################
#
#                 Cambridge Crystallographic Data Centre
#                                CCDC 
#
#######################################################################
#
# If this CIF has been generated from an entry in the Cambridge 
# Structural Database, then it will include bibliographic, chemical, 
# crystal, experimental, refinement or atomic coordinate data resulting 
# from the CCDC's data processing and validation procedures.
#
#######################################################################

data_SUJJOY
_chemical_formula_moiety         'C33 H31 B1 F2 N2 O4 S2'
_chemical_name_systematic        
'difluoro(methyl 3-(2-((3-(3-methoxy-3-oxopropyl)-4-methyl-5-(2-thienyl)-2H-pyrrol-2-ylidene)(phenyl)methyl)-4-methyl-5-(2-thienyl)-1H-pyrrol-3-yl)propanoatato)borate'
_symmetry_cell_setting           monoclinic
_symmetry_space_group_name_H-M   'P 21/n'
_symmetry_Int_Tables_number      14
_space_group_name_Hall           '-P 2yn'
loop_
_symmetry_equiv_pos_site_id
_symmetry_equiv_pos_as_xyz
1 x,y,z
2 1/2-x,1/2+y,1/2-z
3 -x,-y,-z
4 1/2+x,1/2-y,1/2+z
_cell_length_a                   10.8100(8)
_cell_length_b                   6.0920(4)
_cell_length_c                   44.021(3)
_cell_angle_alpha                90
_cell_angle_beta                 90.172(4)
_cell_angle_gamma                90
_cell_volume                     2898.97
_exptl_crystal_colour            'dark purple'
_exptl_crystal_description       lath
_cell_formula_units_Z            4
loop_
_atom_site_label
_atom_site_type_symbol
_atom_site_fract_x
_atom_site_fract_y
_atom_site_fract_z
F1 F 0.3865(2) -0.0295(4) 0.16635(6)
F2 F 0.4597(2) 0.2161(4) 0.20118(5)
O1 O 0.1141(3) 1.2663(5) 0.07544(7)
O2 O 0.0836(4) 0.9365(5) 0.05503(8)
O3 O 0.7892(3) 0.9346(5) 0.04592(7)
O4 O 0.8002(3) 0.5969(5) 0.02605(6)
N1 N 0.3222(3) 0.3464(6) 0.16129(7)
N2 N 0.5395(3) 0.2284(6) 0.15030(8)
C1 C 0.2117(4) 0.3860(7) 0.17497(9)
C2 C 0.1411(4) 0.5354(7) 0.15701(10)
C3 C 0.2089(4) 0.5827(7) 0.13137(9)
C4 C 0.3239(4) 0.4655(7) 0.13414(9)
C5 C 0.4281(4) 0.4640(7) 0.11549(9)
C6 C 0.5364(4) 0.3478(7) 0.12364(9)
C7 C 0.6539(4) 0.3331(7) 0.10923(9)
C8 C 0.7284(4) 0.2067(7) 0.12847(10)
C9 C 0.6555(4) 0.1391(7) 0.15315(10)
C10 C 0.1707(4) 0.2845(7) 0.20292(9)
S1 S 0.0805(4) 0.4252(5) 0.22845(8)
C11 C 0.193(3) 0.074(3) 0.2135(5)
H1 H 0.2432 -0.0323 0.2038
C12 C 0.1238(5) 0.0382(10) 0.24321(11)
H2 H 0.1195 -0.0955 0.2543
C13 C 0.0699(5) 0.2297(11) 0.25112(12)
H3 H 0.0271 0.2446 0.2698
C14 C 0.0132(5) 0.6155(8) 0.16369(11)
H4 H -0.0352 0.4965 0.1728
H5 H -0.0266 0.6635 0.1448
H6 H 0.0175 0.7391 0.1779
C15 C 0.1605(4) 0.7076(7) 0.10462(10)
H7 H 0.0721 0.6692 0.1020
H8 H 0.2044 0.6544 0.0863
C16 C 0.1704(4) 0.9583(7) 0.10520(10)
H9 H 0.1236 1.0179 0.1226
H10 H 0.2581 1.0028 0.1074
C17 C 0.1181(4) 1.0465(7) 0.07585(10)
C18 C 0.0642(4) 1.3607(7) 0.04778(10)
H11 H 0.1126 1.3097 0.0304
H12 H 0.0685 1.5212 0.0490
H13 H -0.0222 1.3151 0.0453
C19 C 0.4273(4) 0.5840(7) 0.08609(9)
C20 C 0.4740(4) 0.7959(7) 0.08359(10)
H14 H 0.4997 0.8728 0.1013
C21 C 0.4831(4) 0.8953(8) 0.05538(11)
H15 H 0.5157 1.0396 0.0537
C22 C 0.4449(4) 0.7850(9) 0.02973(11)
H16 H 0.4530 0.8526 0.0104
C23 C 0.3946(4) 0.5762(8) 0.03187(10)
H17 H 0.3661 0.5024 0.0142
C24 C 0.3865(4) 0.4771(7) 0.05977(10)
H18 H 0.3526 0.3336 0.0613
C25 C 0.6955(4) 0.4166(7) 0.07892(10)
H19 H 0.6219 0.4341 0.0657
H20 H 0.7493 0.3043 0.0695
C26 C 0.7657(4) 0.6348(7) 0.07971(10)
H21 H 0.7172 0.7451 0.0911
H22 H 0.8460 0.6147 0.0902
C27 C 0.7873(4) 0.7147(7) 0.04782(10)
C28 C 0.8129(5) 1.0201(7) 0.01583(9)
H23 H 0.8976 0.9835 0.0098
H24 H 0.8026 1.1800 0.0159
H25 H 0.7544 0.9549 0.0014
C29 C 0.8603(4) 0.1408(7) 0.12291(10)
H26 H 0.9141 0.2691 0.1253
H27 H 0.8682 0.0832 0.1022
H28 H 0.8845 0.0273 0.1375
C30 C 0.6917(4) -0.0100(7) 0.17757(9)
S2 S 0.8063(2) 0.0575(3) 0.20304(5)
C31 C 0.649(3) -0.217(3) 0.1823(6)
H29 H 0.5849 -0.2843 0.1707
C32 C 0.7156(5) -0.3255(8) 0.20780(11)
H30 H 0.7012 -0.4711 0.2146
C33 C 0.7999(5) -0.1854(9) 0.21988(11)
H31 H 0.8511 -0.2234 0.2366
B1 B 0.4282(5) 0.1839(8) 0.17132(11)
S3? S 0.1871(9) 0.0201(9) 0.21294(17)
C34? C 0.103(3) 0.391(4) 0.2250(5)
H32? H 0.0793 0.5414 0.2243
S4? S 0.641(3) -0.266(3) 0.1798(5)
C35? C 0.787(4) 0.014(5) 0.1986(8)
H33? H 0.8380 0.1399 0.1998
loop_
_geom_bond_atom_site_label_1
_geom_bond_atom_site_label_2
_geom_bond_site_symmetry_1
_geom_bond_site_symmetry_2
F1 B1 1_555 1_555
F2 B1 1_555 1_555
O1 C17 1_555 1_555
O2 C17 1_555 1_555
O3 C27 1_555 1_555
O4 C27 1_555 1_555
N1 C1 1_555 1_555
N2 C6 1_555 1_555
C1 C2 1_555 1_555
C2 C3 1_555 1_555
C3 C4 1_555 1_555
C4 N1 1_555 1_555
C5 C4 1_555 1_555
C6 C5 1_555 1_555
C7 C6 1_555 1_555
C8 C7 1_555 1_555
C9 N2 1_555 1_555
C10 C1 1_555 1_555
S1 C10 1_555 1_555
C11 C10 1_555 1_555
H1 C11 1_555 1_555
C12 C11 1_555 1_555
H2 C12 1_555 1_555
C13 S1 1_555 1_555
H3 C13 1_555 1_555
C14 C2 1_555 1_555
H4 C14 1_555 1_555
H5 C14 1_555 1_555
H6 C14 1_555 1_555
C15 C3 1_555 1_555
H7 C15 1_555 1_555
H8 C15 1_555 1_555
C16 C15 1_555 1_555
H9 C16 1_555 1_555
H10 C16 1_555 1_555
C17 C16 1_555 1_555
C18 O1 1_555 1_555
H11 C18 1_555 1_555
H12 C18 1_555 1_555
H13 C18 1_555 1_555
C19 C5 1_555 1_555
C20 C19 1_555 1_555
H14 C20 1_555 1_555
C21 C20 1_555 1_555
H15 C21 1_555 1_555
C22 C21 1_555 1_555
H16 C22 1_555 1_555
C23 C22 1_555 1_555
H17 C23 1_555 1_555
C24 C19 1_555 1_555
H18 C24 1_555 1_555
C25 C7 1_555 1_555
H19 C25 1_555 1_555
H20 C25 1_555 1_555
C26 C25 1_555 1_555
H21 C26 1_555 1_555
H22 C26 1_555 1_555
C27 C26 1_555 1_555
C28 O3 1_555 1_555
H23 C28 1_555 1_555
H24 C28 1_555 1_555
H25 C28 1_555 1_555
C29 C8 1_555 1_555
H26 C29 1_555 1_555
H27 C29 1_555 1_555
H28 C29 1_555 1_555
C30 C9 1_555 1_555
S2 C30 1_555 1_555
C31 C30 1_555 1_555
H29 C31 1_555 1_555
C32 C31 1_555 1_555
H30 C32 1_555 1_555
C33 S2 1_555 1_555
H31 C33 1_555 1_555
B1 N1 1_555 1_555
N2 B1 1_555 1_555
C8 C9 1_555 1_555
C12 C13 1_555 1_555
C23 C24 1_555 1_555
C32 C33 1_555 1_555

#END
