
#######################################################################
#
#                 Cambridge Crystallographic Data Centre
#                                CCDC 
#
#######################################################################
#
# If this CIF has been generated from an entry in the Cambridge 
# Structural Database, then it will include bibliographic, chemical, 
# crystal, experimental, refinement or atomic coordinate data resulting 
# from the CCDC's data processing and validation procedures.
#
#######################################################################

data_SUJKAJ
_chemical_formula_moiety         'C11 H12 N1 O5 P1'
_chemical_name_systematic        
N-Phenyl-1-oxo-1-phospha-2,6,7-trioxabicyclo(2.2.2)octane-4-carboxamide
_symmetry_cell_setting           monoclinic
_symmetry_space_group_name_H-M   'P 21/n'
_symmetry_Int_Tables_number      14
_space_group_name_Hall           '-P 2yn'
loop_
_symmetry_equiv_pos_site_id
_symmetry_equiv_pos_as_xyz
1 x,y,z
2 1/2-x,1/2+y,1/2-z
3 -x,-y,-z
4 1/2+x,1/2-y,1/2+z
_cell_length_a                   5.821(1)
_cell_length_b                   11.613(3)
_cell_length_c                   17.508(6)
_cell_angle_alpha                90
_cell_angle_beta                 92.31(3)
_cell_angle_gamma                90
_cell_volume                     1182.57
_cell_formula_units_Z            4
loop_
_atom_site_label
_atom_site_type_symbol
_atom_site_fract_x
_atom_site_fract_y
_atom_site_fract_z
P1 P 0.3045(2) 0.19911(8) 0.19958(5)
O1 O 0.1900(5) 0.1023(2) 0.2342(2)
O2 O 0.4620(5) 0.1661(2) 0.1336(1)
O3 O 0.4609(5) 0.2689(2) 0.2567(1)
O4 O 0.1359(4) 0.2910(2) 0.1638(2)
O5 O 0.7447(4) 0.4596(2) 0.0452(1)
N1 N 0.5930(5) 0.5785(2) 0.1325(1)
C1 C 0.5708(5) 0.2643(3) 0.0976(2)
C2 C 0.5858(6) 0.3644(3) 0.2232(2)
C3 C 0.2489(5) 0.3924(3) 0.1325(2)
C4 C 0.5091(5) 0.3753(3) 0.1389(2)
C5 C 0.6288(5) 0.4752(3) 0.1007(2)
C6 C 0.6642(6) 0.6868(3) 0.1052(2)
C7 C 0.8668(6) 0.7018(3) 0.0678(2)
C8 C 0.9247(6) 0.8119(3) 0.0448(2)
C9 C 0.7847(8) 0.9047(3) 0.0581(2)
C10 C 0.5842(7) 0.8890(3) 0.0953(2)
C11 C 0.5232(6) 0.7799(3) 0.1184(2)
loop_
_geom_bond_atom_site_label_1
_geom_bond_atom_site_label_2
_geom_bond_site_symmetry_1
_geom_bond_site_symmetry_2
P1 O1 1_555 1_555
O2 P1 1_555 1_555
O3 P1 1_555 1_555
O4 P1 1_555 1_555
O5 C5 1_555 1_555
N1 C5 1_555 1_555
C1 O2 1_555 1_555
C2 O3 1_555 1_555
C3 O4 1_555 1_555
C4 C1 1_555 1_555
C5 C4 1_555 1_555
C6 N1 1_555 1_555
C7 C6 1_555 1_555
C8 C7 1_555 1_555
C9 C8 1_555 1_555
C10 C9 1_555 1_555
C11 C6 1_555 1_555
C2 C4 1_555 1_555
C3 C4 1_555 1_555
C10 C11 1_555 1_555

#END
