
#######################################################################
#
#                 Cambridge Crystallographic Data Centre
#                                CCDC 
#
#######################################################################
#
# If this CIF has been generated from an entry in the Cambridge 
# Structural Database, then it will include bibliographic, chemical, 
# crystal, experimental, refinement or atomic coordinate data resulting 
# from the CCDC's data processing and validation procedures.
#
#######################################################################

data_SUJKIR
_chemical_formula_moiety         'C12 H13 O7 P1'
_chemical_name_systematic        
'p-Methoxyphenyl 1-oxo-1-phospha-2,6,7-trioxabicyclo(2.2.2)octane-4-carboxylate'
_symmetry_cell_setting           monoclinic
_symmetry_space_group_name_H-M   'P 21/c'
_symmetry_Int_Tables_number      14
_space_group_name_Hall           '-P 2ybc'
loop_
_symmetry_equiv_pos_site_id
_symmetry_equiv_pos_as_xyz
1 x,y,z
2 -x,1/2+y,1/2-z
3 -x,-y,-z
4 x,1/2-y,1/2+z
_cell_length_a                   5.949(2)
_cell_length_b                   11.069(3)
_cell_length_c                   19.183
_cell_angle_alpha                90
_cell_angle_beta                 97.05(3)
_cell_angle_gamma                90
_cell_volume                     1253.64
_cell_formula_units_Z            4
loop_
_atom_site_label
_atom_site_type_symbol
_atom_site_fract_x
_atom_site_fract_y
_atom_site_fract_z
P1 P 0.7300(3) 0.1446(1) 0.23391(8)
O1 O 0.6385(7) 0.2265(4) 0.2811(2)
O2 O 0.6400(6) 0.1651(3) 0.1542(2)
O3 O 0.6799(6) 0.0075(3) 0.2463(2)
O4 O 0.9934(6) 0.1517(3) 0.2348(2)
O5 O 1.1700(7) -0.0541(4) 0.0707(2)
O6 O 0.8760(6) -0.1790(3) 0.0762(2)
O7 O 1.1136(7) -0.4721(3) -0.1345(2)
C1 C 0.7295(9) 0.0829(5) 0.1070(3)
C2 C 0.768(1) -0.0755(5) 0.1972(3)
C3 C 1.088(1) 0.0659(5) 0.1894(3)
C4 C 0.8978(9) -0.0047(4) 0.1473(3)
C5 C 1.0030(9) -0.0808(5) 0.0946(3)
C6 C 0.9468(9) -0.2537(4) 0.0234(3)
C7 C 1.152(1) -0.3140(5) 0.0338(3)
C8 C 1.212(1) -0.3874(5) -0.0178(3)
C9 C 1.0709(9) -0.4016(4) -0.0804(3)
C10 C 0.8617(9) -0.3408(5) -0.0890(3)
C11 C 0.8043(9) -0.2665(5) -0.0378(3)
C12 C 1.321(1) -0.5387(5) -0.1259(3)
loop_
_geom_bond_atom_site_label_1
_geom_bond_atom_site_label_2
_geom_bond_site_symmetry_1
_geom_bond_site_symmetry_2
P1 O1 1_555 1_555
O2 P1 1_555 1_555
O3 P1 1_555 1_555
O4 P1 1_555 1_555
O5 C5 1_555 1_555
O6 C5 1_555 1_555
O7 C9 1_555 1_555
C1 O2 1_555 1_555
C2 O3 1_555 1_555
C3 O4 1_555 1_555
C4 C1 1_555 1_555
C5 C4 1_555 1_555
C6 O6 1_555 1_555
C7 C6 1_555 1_555
C8 C7 1_555 1_555
C9 C8 1_555 1_555
C10 C9 1_555 1_555
C11 C6 1_555 1_555
C12 O7 1_555 1_555
C2 C4 1_555 1_555
C3 C4 1_555 1_555
C10 C11 1_555 1_555

#END
