
#######################################################################
#
#                 Cambridge Crystallographic Data Centre
#                                CCDC 
#
#######################################################################
#
# If this CIF has been generated from an entry in the Cambridge 
# Structural Database, then it will include bibliographic, chemical, 
# crystal, experimental, refinement or atomic coordinate data resulting 
# from the CCDC's data processing and validation procedures.
#
#######################################################################

data_SUJMOA
_chemical_formula_moiety         'C20 H27 N2 1+,H2 O1,I1 1-'
_chemical_name_systematic        
'4-(2-(4-(Di-n-propylamino)phenyl)vinyl)-1-methylpyridinium iodide monohydrate'
_symmetry_cell_setting           monoclinic
_symmetry_space_group_name_H-M   'P 21/c'
_symmetry_Int_Tables_number      14
_space_group_name_Hall           '-P 2ybc'
loop_
_symmetry_equiv_pos_site_id
_symmetry_equiv_pos_as_xyz
1 x,y,z
2 -x,1/2+y,1/2-z
3 -x,-y,-z
4 x,1/2-y,1/2+z
_cell_length_a                   15.0256(12)
_cell_length_b                   8.8242(10)
_cell_length_c                   17.4227(18)
_cell_angle_alpha                90
_cell_angle_beta                 115.336(6)
_cell_angle_gamma                90
_cell_volume                     2087.86
_exptl_crystal_colour            red
_exptl_crystal_description       prism
_cell_formula_units_Z            4
_exptl_crystal_preparation       dye
loop_
_atom_site_label
_atom_site_type_symbol
_atom_site_fract_x
_atom_site_fract_y
_atom_site_fract_z
I1 I 0.14284(2) 0.13354(3) 0.262096(16)
N1 N 0.0844(2) -0.2707(3) -0.06450(17)
N2 N 0.3671(2) 0.8475(3) 0.15170(17)
C1 C 0.0384(3) -0.4214(4) -0.0901(3)
H1 H 0.0430 -0.4534 -0.1409
H2 H -0.0297 -0.4158 -0.1005
H3 H 0.0718 -0.4931 -0.0455
C2 C 0.1221(3) -0.1998(5) -0.1116(2)
H4 H 0.1209 -0.2477 -0.1596
C3 C 0.1620(3) -0.0597(5) -0.0910(2)
H5 H 0.1883 -0.0137 -0.1247
C4 C 0.1644(3) 0.0161(4) -0.0210(2)
C5 C 0.1250(3) -0.0600(4) 0.0272(2)
H6 H 0.1255 -0.0140 0.0754
C6 C 0.0855(3) -0.2023(4) 0.0045(2)
H7 H 0.0593 -0.2516 0.0373
C7 C 0.2061(3) 0.1691(5) -0.0026(2)
H8 H 0.2294 0.2105 -0.0396
C8 C 0.2132(3) 0.2525(5) 0.0623(2)
H9 H 0.1909 0.2091 0.0995
C9 C 0.2525(2) 0.4060(4) 0.0822(2)
C10 C 0.2962(3) 0.4838(4) 0.0371(2)
H10 H 0.2995 0.4373 -0.0094
C11 C 0.3345(2) 0.6276(4) 0.0599(2)
H11 H 0.3636 0.6750 0.0288
C12 C 0.3306(2) 0.7046(4) 0.1293(2)
C13 C 0.2831(3) 0.6261(4) 0.1721(2)
H12 H 0.2759 0.6734 0.2169
C14 C 0.2474(3) 0.4820(5) 0.1494(2)
H13 H 0.2185 0.4336 0.1804
C15 C 0.4218(4) 0.8974(6) 0.3852(3)
H14 H 0.4739 0.8605 0.4366
H15 H 0.3609 0.8503 0.3772
H16 H 0.4162 1.0053 0.3889
C16 C 0.4446(3) 0.8599(5) 0.3107(2)
H17 H 0.4498 0.7508 0.3069
H18 H 0.5076 0.9039 0.3202
C17 C 0.3659(3) 0.9191(5) 0.2271(2)
H19 H 0.3017 0.9030 0.2266
H20 H 0.3747 1.0275 0.2241
C18 C 0.4303(3) 0.9148(4) 0.1165(2)
H21 H 0.4340 1.0231 0.1269
H22 H 0.4001 0.8995 0.0555
C19 C 0.5333(3) 0.8513(5) 0.1526(3)
H23 H 0.5665 0.8776 0.2123
H24 H 0.5296 0.7417 0.1486
C20 C 0.5938(3) 0.9080(6) 0.1084(3)
H25 H 0.6578 0.8619 0.1335
H26 H 0.6005 1.0161 0.1144
H27 H 0.5616 0.8821 0.0493
O1 O 0.0453(3) 0.7629(5) 0.1710(2)
H28 H 0.068(3) 0.858(5) 0.193(3)
H29 H -0.003(3) 0.741(5) 0.184(3)
loop_
_geom_bond_atom_site_label_1
_geom_bond_atom_site_label_2
_geom_bond_site_symmetry_1
_geom_bond_site_symmetry_2
N1 C1 1_555 1_555
N2 C12 1_555 1_555
C1 H1 1_555 1_555
H2 C1 1_555 1_555
H3 C1 1_555 1_555
C2 N1 1_555 1_555
H4 C2 1_555 1_555
C3 C2 1_555 1_555
H5 C3 1_555 1_555
C4 C3 1_555 1_555
C5 C4 1_555 1_555
H6 C5 1_555 1_555
C6 N1 1_555 1_555
H7 C6 1_555 1_555
C7 C4 1_555 1_555
H8 C7 1_555 1_555
C8 C7 1_555 1_555
H9 C8 1_555 1_555
C9 C8 1_555 1_555
C10 C9 1_555 1_555
H10 C10 1_555 1_555
C11 C10 1_555 1_555
H11 C11 1_555 1_555
C12 C11 1_555 1_555
C13 C12 1_555 1_555
H12 C13 1_555 1_555
C14 C9 1_555 1_555
H13 C14 1_555 1_555
C15 H14 1_555 1_555
H15 C15 1_555 1_555
H16 C15 1_555 1_555
C16 C15 1_555 1_555
H17 C16 1_555 1_555
H18 C16 1_555 1_555
C17 N2 1_555 1_555
H19 C17 1_555 1_555
H20 C17 1_555 1_555
C18 N2 1_555 1_555
H21 C18 1_555 1_555
H22 C18 1_555 1_555
C19 C18 1_555 1_555
H23 C19 1_555 1_555
H24 C19 1_555 1_555
C20 C19 1_555 1_555
H25 C20 1_555 1_555
H26 C20 1_555 1_555
H27 C20 1_555 1_555
O1 H28 1_555 1_555
H29 O1 1_555 1_555
C5 C6 1_555 1_555
C13 C14 1_555 1_555
C16 C17 1_555 1_555

#END
