
#######################################################################
#
#                 Cambridge Crystallographic Data Centre
#                                CCDC 
#
#######################################################################
#
# If this CIF has been generated from an entry in the Cambridge 
# Structural Database, then it will include bibliographic, chemical, 
# crystal, experimental, refinement or atomic coordinate data resulting 
# from the CCDC's data processing and validation procedures.
#
#######################################################################

data_SUJPIY
_chemical_formula_moiety         'C19 H12 Br1 N1 O1'
_chemical_name_systematic        
(3-bromopyrrolo[1,2-a]quinolin-1-yl)(phenyl)methanone
_symmetry_cell_setting           monoclinic
_symmetry_space_group_name_H-M   'P 21/n'
_symmetry_Int_Tables_number      14
_space_group_name_Hall           '-P 2yn'
loop_
_symmetry_equiv_pos_site_id
_symmetry_equiv_pos_as_xyz
1 x,y,z
2 1/2-x,1/2+y,1/2-z
3 -x,-y,-z
4 1/2+x,1/2-y,1/2+z
_cell_length_a                   5.9141(2)
_cell_length_b                   11.5887(3)
_cell_length_c                   21.4526(6)
_cell_angle_alpha                90
_cell_angle_beta                 93.276(2)
_cell_angle_gamma                90
_cell_volume                     1467.89
_cell_formula_units_Z            4
loop_
_atom_site_label
_atom_site_type_symbol
_atom_site_fract_x
_atom_site_fract_y
_atom_site_fract_z
Br1 Br 0.19776(4) 0.60813(3) 0.774137(12)
N1 N 0.7079(3) 0.59145(15) 0.65625(9)
C1 C 0.4091(4) 0.5750(2) 0.71498(11)
C2 C 0.7450(4) 0.37709(18) 0.62898(11)
C3 C 0.6087(4) 0.27757(19) 0.60408(10)
O1 O 0.9513(3) 0.36990(15) 0.63499(10)
C4 C 0.6216(3) 0.47945(19) 0.64873(10)
C5 C 0.8804(4) 0.6486(2) 0.62569(10)
C6 C 0.9976(4) 0.5965(2) 0.57865(11)
H1 H 0.9573 0.5229 0.5647
C7 C 0.4333(3) 0.4714(2) 0.68449(10)
H2 H 0.3399 0.4073 0.6873
C8 C 0.5756(4) 0.6509(2) 0.69747(10)
C9 C 0.3996(4) 0.2925(2) 0.57168(11)
H3 H 0.3378 0.3660 0.5669
C10 C 0.6979(4) 0.1670(2) 0.61082(11)
H4 H 0.8378 0.1561 0.6321
C11 C 1.2329(5) 0.7648(3) 0.57208(13)
H5 H 1.3544 0.8021 0.5551
C12 C 0.9313(4) 0.7626(2) 0.64354(11)
C13 C 0.7986(5) 0.8203(2) 0.68808(12)
H6 H 0.8336 0.8958 0.6996
C14 C 0.2842(4) 0.1981(2) 0.54676(12)
H7 H 0.1454 0.2082 0.5248
C15 C 0.6257(4) 0.7669(2) 0.71320(12)
H8 H 0.5383 0.8060 0.7410
C16 C 1.1731(5) 0.6541(3) 0.55282(13)
H9 H 1.2525 0.6184 0.5220
C17 C 0.3735(5) 0.0896(2) 0.55418(13)
H10 H 0.2942 0.0264 0.5375
C18 C 1.1133(5) 0.8182(2) 0.61574(13)
H11 H 1.1518 0.8931 0.6277
C19 C 0.5793(5) 0.0732(2) 0.58603(13)
H12 H 0.6386 -0.0008 0.5909
loop_
_geom_bond_atom_site_label_1
_geom_bond_atom_site_label_2
_geom_bond_site_symmetry_1
_geom_bond_site_symmetry_2
Br1 C1 1_555 1_555
N1 C4 1_555 1_555
C1 C7 1_555 1_555
C2 C3 1_555 1_555
C3 C9 1_555 1_555
O1 C2 1_555 1_555
C4 C2 1_555 1_555
C5 N1 1_555 1_555
C6 C5 1_555 1_555
H1 C6 1_555 1_555
C7 C4 1_555 1_555
H2 C7 1_555 1_555
C8 N1 1_555 1_555
C9 H3 1_555 1_555
C10 C3 1_555 1_555
H4 C10 1_555 1_555
C11 H5 1_555 1_555
C12 C5 1_555 1_555
C13 C12 1_555 1_555
H6 C13 1_555 1_555
C14 C9 1_555 1_555
H7 C14 1_555 1_555
C15 C8 1_555 1_555
H8 C15 1_555 1_555
C16 C6 1_555 1_555
H9 C16 1_555 1_555
C17 C14 1_555 1_555
H10 C17 1_555 1_555
C18 C11 1_555 1_555
H11 C18 1_555 1_555
C19 C10 1_555 1_555
H12 C19 1_555 1_555
C1 C8 1_555 1_555
C11 C16 1_555 1_555
C12 C18 1_555 1_555
C13 C15 1_555 1_555
C17 C19 1_555 1_555

#END
