
#######################################################################
#
#                 Cambridge Crystallographic Data Centre
#                                CCDC 
#
#######################################################################
#
# If this CIF has been generated from an entry in the Cambridge 
# Structural Database, then it will include bibliographic, chemical, 
# crystal, experimental, refinement or atomic coordinate data resulting 
# from the CCDC's data processing and validation procedures.
#
#######################################################################

data_SUJTAU
_chemical_formula_moiety         'C23 H16'
_chemical_name_systematic        11-Phenyl-11H-benzo[a]fluorene
_symmetry_cell_setting           monoclinic
_symmetry_space_group_name_H-M   'P 21'
_symmetry_Int_Tables_number      4
_space_group_name_Hall           'P 2yb'
loop_
_symmetry_equiv_pos_site_id
_symmetry_equiv_pos_as_xyz
1 x,y,z
2 -x,1/2+y,-z
_cell_length_a                   10.4301(14)
_cell_length_b                   6.0297(8)
_cell_length_c                   12.7142(17)
_cell_angle_alpha                90
_cell_angle_beta                 108.9180(10)
_cell_angle_gamma                90
_cell_volume                     756.409
_exptl_crystal_colour            colorless
_exptl_crystal_description       needle
_cell_formula_units_Z            2
loop_
_atom_site_label
_atom_site_type_symbol
_atom_site_fract_x
_atom_site_fract_y
_atom_site_fract_z
C1 C 1.14982(16) 1.1376(3) 0.43907(13)
H1 H 1.2388 1.1576 0.4896
C2 C 1.11542(15) 0.9417(3) 0.37824(13)
H2 H 1.1811 0.8279 0.3870
C3 C 0.98422(15) 0.9127(3) 0.30435(12)
H3 H 0.9613 0.7789 0.2630
C4 C 0.85313(15) 1.0905(3) 0.01263(13)
H4 H 0.8770 1.2044 0.0672
C5 C 0.89470(16) 1.1053(3) -0.07894(14)
H5 H 0.9456 1.2303 -0.0879
C6 C 0.86266(16) 0.9371(3) -0.15944(14)
H6 H 0.8924 0.9489 -0.2224
C7 C 0.50630(16) 0.6131(3) 0.25551(14)
H7 H 0.4731 0.4749 0.2217
C8 C 0.61096(15) 0.5377(3) 0.04256(13)
H8 H 0.5554 0.4165 0.0482
C9 C 0.65967(15) 0.5539(3) -0.04535(13)
H9 H 0.6381 0.4409 -0.1004
C10 C 0.78909(16) 0.7561(3) -0.14823(13)
H10 H 0.7695 0.6427 -0.2031
C11 C 1.05361(17) 1.3032(3) 0.42555(13)
H11 H 1.0769 1.4366 0.4671
C12 C 0.88631(15) 1.0781(2) 0.29063(12)
C13 C 0.74091(14) 1.0453(3) 0.21370(12)
H12 H 0.7021 1.1923 0.1829
C14 C 0.72501(14) 0.8839(2) 0.11796(12)
C15 C 0.77508(14) 0.9076(3) 0.02715(12)
C16 C 0.64892(13) 0.9374(3) 0.27205(12)
C17 C 0.59737(15) 0.7364(3) 0.22054(13)
C18 C 0.46486(16) 0.6966(3) 0.34112(14)
H13 H 0.4017 0.6148 0.3653
C19 C 0.51393(17) 0.8973(3) 0.39222(14)
H14 H 0.4835 0.9520 0.4501
C20 C 0.60926(16) 1.0206(3) 0.35813(13)
H15 H 0.6449 1.1564 0.3934
C21 C 0.64557(15) 0.7060(3) 0.12444(12)
C22 C 0.74142(14) 0.7349(3) -0.05597(12)
C23 C 0.92236(16) 1.2750(3) 0.35100(13)
H16 H 0.8575 1.3902 0.3414
loop_
_geom_bond_atom_site_label_1
_geom_bond_atom_site_label_2
_geom_bond_site_symmetry_1
_geom_bond_site_symmetry_2
C1 H1 1_555 1_555
C2 C1 1_555 1_555
H2 C2 1_555 1_555
C3 C2 1_555 1_555
H3 C3 1_555 1_555
C4 H4 1_555 1_555
C5 C4 1_555 1_555
H5 C5 1_555 1_555
C6 C5 1_555 1_555
H6 C6 1_555 1_555
C7 H7 1_555 1_555
C8 H8 1_555 1_555
C9 C8 1_555 1_555
H9 C9 1_555 1_555
C10 C6 1_555 1_555
H10 C10 1_555 1_555
C11 C1 1_555 1_555
H11 C11 1_555 1_555
C12 C3 1_555 1_555
C13 C12 1_555 1_555
H12 C13 1_555 1_555
C14 C13 1_555 1_555
C15 C4 1_555 1_555
C16 C13 1_555 1_555
C17 C7 1_555 1_555
C18 C7 1_555 1_555
H13 C18 1_555 1_555
C19 C18 1_555 1_555
H14 C19 1_555 1_555
C20 C16 1_555 1_555
H15 C20 1_555 1_555
C21 C8 1_555 1_555
C22 C9 1_555 1_555
C23 C11 1_555 1_555
H16 C23 1_555 1_555
C10 C22 1_555 1_555
C12 C23 1_555 1_555
C14 C15 1_555 1_555
C14 C21 1_555 1_555
C15 C22 1_555 1_555
C16 C17 1_555 1_555
C17 C21 1_555 1_555
C19 C20 1_555 1_555

#END
