
#######################################################################
#
#                 Cambridge Crystallographic Data Centre
#                                CCDC 
#
#######################################################################
#
# If this CIF has been generated from an entry in the Cambridge 
# Structural Database, then it will include bibliographic, chemical, 
# crystal, experimental, refinement or atomic coordinate data resulting 
# from the CCDC's data processing and validation procedures.
#
#######################################################################

data_SUJTOI
_chemical_formula_moiety         'C48 H34 O2,1.5(C1 H2 Cl2)'
_chemical_name_systematic        
"3,3'-Dimethoxy-11,11'-diphenyl-11H,11'H-4,4'-bibenzo[a]fluorene dichloromethane solvate"
_symmetry_cell_setting           triclinic
_symmetry_space_group_name_H-M   'P -1'
_symmetry_Int_Tables_number      2
_space_group_name_Hall           '-P 1'
loop_
_symmetry_equiv_pos_site_id
_symmetry_equiv_pos_as_xyz
1 x,y,z
2 -x,-y,-z
_cell_length_a                   9.4418(11)
_cell_length_b                   14.1745(17)
_cell_length_c                   15.4015(18)
_cell_angle_alpha                73.980(2)
_cell_angle_beta                 78.801(2)
_cell_angle_gamma                80.315(2)
_cell_volume                     1929.04
_exptl_crystal_colour            colorless
_exptl_crystal_description       needle
_cell_formula_units_Z            2
loop_
_atom_site_label
_atom_site_type_symbol
_atom_site_fract_x
_atom_site_fract_y
_atom_site_fract_z
O1 O 0.40862(18) 0.93489(14) 0.22309(11)
O2 O 0.2658(2) 1.09872(12) 0.32201(11)
C1 C 0.2754(3) 0.6252(2) 0.62450(19)
H1 H 0.2572 0.6098 0.5717
C2 C -0.0778(3) 1.11877(17) 0.05761(17)
C3 C -0.0661(3) 0.62658(19) 0.65314(19)
C4 C 0.0957(2) 0.87081(17) 0.38988(16)
C5 C -0.2130(3) 1.12359(18) 0.11018(18)
C6 C -0.0901(3) 0.61927(19) 0.5687(2)
C7 C 0.1933(3) 0.69924(19) 0.75028(19)
H2 H 0.1194 0.7345 0.7847
C8 C 0.0185(3) 0.71260(18) 0.64075(17)
H3 H -0.0396 0.7611 0.6744
C9 C 0.1659(3) 0.67853(18) 0.67297(17)
C10 C 0.2112(3) 1.01510(18) 0.37808(16)
C11 C 0.2929(3) 0.97989(18) 0.17939(16)
C12 C 0.3441(3) 1.1514(2) 0.35961(19)
H4 H 0.2796 1.1755 0.4090
H5 H 0.3797 1.2076 0.3118
H6 H 0.4267 1.1072 0.3839
C13 C -0.2482(3) 1.20373(18) -0.03921(19)
C14 C -0.3216(3) 1.17651(19) 0.0507(2)
C15 C 0.5476(3) 0.9209(2) 0.16863(17)
H7 H 0.5426 0.8791 0.1284
H8 H 0.6202 0.8889 0.2086
H9 H 0.5753 0.9852 0.1315
C16 C -0.4724(3) 1.1998(2) 0.0702(2)
H10 H -0.5228 1.1807 0.1308
C17 C -0.4739(4) 1.2786(2) -0.0904(3)
H11 H -0.5269 1.3142 -0.1383
C18 C -0.5467(3) 1.2518(2) -0.0021(3)
H12 H -0.6490 1.2691 0.0097
C19 C -0.3236(3) 1.2542(2) -0.1104(2)
H13 H -0.2742 1.2718 -0.1714
C20 C 0.0066(3) 1.25358(18) -0.08313(17)
C21 C -0.1089(3) 1.03836(18) 0.24575(17)
H14 H -0.1204 1.0113 0.3101
C22 C -0.2294(3) 1.08112(19) 0.20573(18)
H15 H -0.3232 1.0823 0.2418
C23 C 0.0018(3) 1.3269(2) -0.03814(19)
H16 H -0.0599 1.3243 0.0189
C24 C 0.0399(3) 0.80863(18) 0.34928(17)
H17 H 0.0450 0.8250 0.2847
C25 C 0.0860(3) 1.4039(2) -0.0754(2)
H18 H 0.0824 1.4530 -0.0435
C26 C 0.0985(3) 1.2593(2) -0.16586(18)
H19 H 0.1048 1.2092 -0.1971
C27 C 0.4106(3) 0.5945(2) 0.6524(2)
H20 H 0.4846 0.5583 0.6190
C28 C 0.1548(3) 0.95874(17) 0.33576(16)
C29 C 0.1597(3) 0.98974(17) 0.23462(16)
C30 C 0.0332(3) 1.03334(17) 0.19367(16)
C31 C 0.0941(3) 0.84381(17) 0.48642(16)
C32 C 0.3046(3) 1.01460(19) 0.08327(16)
H21 H 0.3961 1.0055 0.0461
C33 C 0.0482(3) 1.07210(17) 0.09594(16)
C34 C 0.2122(3) 0.98683(18) 0.47328(16)
H22 H 0.2534 1.0258 0.5009
C35 C -0.0277(3) 0.70111(18) 0.49726(18)
C36 C 0.1541(3) 0.90359(18) 0.52584(16)
H23 H 0.1542 0.8857 0.5900
C37 C 0.0306(3) 0.75732(18) 0.53801(17)
C38 C 0.1867(3) 1.06082(18) 0.04350(16)
H24 H 0.1979 1.0861 -0.0210
C39 C -0.0874(3) 1.16985(18) -0.04242(17)
H25 H -0.0588 1.1196 -0.0792
C40 C -0.0210(3) 0.72586(19) 0.40118(18)
H26 H -0.0582 0.6856 0.3730
C41 C 0.4368(3) 0.6169(2) 0.7295(2)
H27 H 0.5293 0.5966 0.7488
C42 C -0.2080(3) 0.4755(2) 0.6443(3)
H28 H -0.2568 0.4230 0.6421
C43 C -0.1125(3) 0.5585(2) 0.7336(2)
H29 H -0.0960 0.5636 0.7909
C44 C -0.1621(3) 0.5435(2) 0.5635(2)
H30 H -0.1795 0.5384 0.5063
C45 C 0.1752(3) 1.4095(2) -0.1587(2)
H31 H 0.2318 1.4629 -0.1846
C46 C -0.1838(3) 0.4827(2) 0.7279(3)
H32 H -0.2163 0.4353 0.7820
C47 C 0.1817(3) 1.3373(2) -0.20402(19)
H33 H 0.2429 1.3407 -0.2613
C48 C 0.3293(4) 0.6684(2) 0.7777(2)
H34 H 0.3477 0.6834 0.8307
C49 C -0.5363(3) 0.7837(2) 0.4203(2)
H35 H -0.5998 0.8321 0.3805
H36 H -0.5856 0.7749 0.4844
Cl1 Cl -0.50860(14) 0.66971(8) 0.39073(8)
Cl2 Cl -0.36995(10) 0.82886(9) 0.40808(6)
Cl3? Cl 0.6589(2) 0.47409(16) 0.98507(14)
Cl4? Cl 0.3554(2) 0.47304(19) 1.06898(19)
C50? C 0.4787(9) 0.5126(6) 0.9695(5)
H37? H 0.4585 0.4866 0.9203
H38? H 0.4639 0.5857 0.9496
loop_
_geom_bond_atom_site_label_1
_geom_bond_atom_site_label_2
_geom_bond_site_symmetry_1
_geom_bond_site_symmetry_2
O1 C11 1_555 1_555
O2 C10 1_555 1_555
C1 H1 1_555 1_555
C2 C5 1_555 1_555
C3 C6 1_555 1_555
C4 C24 1_555 1_555
C5 C14 1_555 1_555
C6 C35 1_555 1_555
C7 H2 1_555 1_555
C8 C3 1_555 1_555
H3 C8 1_555 1_555
C9 C1 1_555 1_555
C10 C28 1_555 1_555
C11 C29 1_555 1_555
C12 O2 1_555 1_555
H4 C12 1_555 1_555
H5 C12 1_555 1_555
H6 C12 1_555 1_555
C13 C14 1_555 1_555
C14 C16 1_555 1_555
C15 O1 1_555 1_555
H7 C15 1_555 1_555
H8 C15 1_555 1_555
H9 C15 1_555 1_555
C16 H10 1_555 1_555
C17 H11 1_555 1_555
C18 C16 1_555 1_555
H12 C18 1_555 1_555
C19 C13 1_555 1_555
H13 C19 1_555 1_555
C20 C23 1_555 1_555
C21 H14 1_555 1_555
C22 C5 1_555 1_555
H15 C22 1_555 1_555
C23 H16 1_555 1_555
C24 H17 1_555 1_555
C25 C23 1_555 1_555
H18 C25 1_555 1_555
C26 C20 1_555 1_555
H19 C26 1_555 1_555
C27 C1 1_555 1_555
H20 C27 1_555 1_555
C28 C4 1_555 1_555
C29 C28 1_555 1_555
C30 C21 1_555 1_555
C31 C4 1_555 1_555
C32 C11 1_555 1_555
H21 C32 1_555 1_555
C33 C2 1_555 1_555
C34 C10 1_555 1_555
H22 C34 1_555 1_555
C35 C37 1_555 1_555
C36 C31 1_555 1_555
H23 C36 1_555 1_555
C37 C8 1_555 1_555
C38 C32 1_555 1_555
H24 C38 1_555 1_555
C39 C2 1_555 1_555
H25 C39 1_555 1_555
C40 C24 1_555 1_555
H26 C40 1_555 1_555
C41 C27 1_555 1_555
H27 C41 1_555 1_555
C42 H28 1_555 1_555
C43 C3 1_555 1_555
H29 C43 1_555 1_555
C44 C6 1_555 1_555
H30 C44 1_555 1_555
C45 C25 1_555 1_555
H31 C45 1_555 1_555
C46 C42 1_555 1_555
H32 C46 1_555 1_555
C47 C26 1_555 1_555
H33 C47 1_555 1_555
C48 C7 1_555 1_555
H34 C48 1_555 1_555
C49 H35 1_555 1_555
H36 C49 1_555 1_555
Cl1 C49 1_555 1_555
Cl2 C49 1_555 1_555
C7 C9 1_555 1_555
C8 C9 1_555 1_555
C13 C39 1_555 1_555
C17 C18 1_555 1_555
C17 C19 1_555 1_555
C20 C39 1_555 1_555
C21 C22 1_555 1_555
C29 C30 1_555 1_555
C30 C33 1_555 1_555
C31 C37 1_555 1_555
C33 C38 1_555 1_555
C34 C36 1_555 1_555
C35 C40 1_555 1_555
C41 C48 1_555 1_555
C42 C44 1_555 1_555
C43 C46 1_555 1_555
C45 C47 1_555 1_555

#END
