
#######################################################################
#
#                 Cambridge Crystallographic Data Centre
#                                CCDC 
#
#######################################################################
#
# If this CIF has been generated from an entry in the Cambridge 
# Structural Database, then it will include bibliographic, chemical, 
# crystal, experimental, refinement or atomic coordinate data resulting 
# from the CCDC's data processing and validation procedures.
#
#######################################################################

data_SUJTEY
_chemical_formula_moiety         'C31 H20'
_chemical_name_systematic        11-Phenyl-11H-indeno[1,2-g]chrysene
_symmetry_cell_setting           monoclinic
_symmetry_space_group_name_H-M   'P 21/c'
_symmetry_Int_Tables_number      14
_space_group_name_Hall           '-P 2ybc'
loop_
_symmetry_equiv_pos_site_id
_symmetry_equiv_pos_as_xyz
1 x,y,z
2 -x,1/2+y,1/2-z
3 -x,-y,-z
4 x,1/2-y,1/2+z
_cell_length_a                   27.281(5)
_cell_length_b                   5.8289(12)
_cell_length_c                   25.615(5)
_cell_angle_alpha                90
_cell_angle_beta                 97.56(3)
_cell_angle_gamma                90
_cell_volume                     4037.85
_exptl_crystal_colour            colorless
_exptl_crystal_description       needle
_cell_formula_units_Z            8
loop_
_atom_site_label
_atom_site_type_symbol
_atom_site_fract_x
_atom_site_fract_y
_atom_site_fract_z
C1 C 0.18698(10) 0.5309(5) 0.05544(11)
H1 H 0.1538 0.5104 0.0394
C2 C 0.20123(10) 0.7335(6) 0.08110(12)
H2 H 0.1777 0.8526 0.0827
C3 C 0.25002(10) 0.7648(5) 0.10478(11)
H3 H 0.2593 0.9038 0.1228
C4 C 0.28514(8) 0.5918(4) 0.10196(9)
C5 C 0.33915(8) 0.6286(4) 0.12483(9)
H4 H 0.3423 0.7713 0.1467
C6 C 0.36238(8) 0.4273(4) 0.15692(9)
C7 C 0.40345(8) 0.3425(4) 0.13642(9)
C8 C 0.43260(8) 0.1603(4) 0.16374(9)
C9 C 0.48301(9) 0.1043(4) 0.15538(9)
C10 C 0.50460(9) -0.1052(4) 0.17554(9)
C11 C 0.55366(9) -0.1613(5) 0.16822(10)
H5 H 0.5668 -0.3071 0.1792
C12 C 0.58282(10) -0.0062(5) 0.14532(10)
H6 H 0.6157 -0.0453 0.1403
C13 C 0.22171(10) 0.3570(5) 0.05334(11)
H7 H 0.2122 0.2166 0.0361
C14 C 0.27009(10) 0.3885(5) 0.07639(11)
H8 H 0.2934 0.2688 0.0747
C15 C 0.47736(9) -0.2496(4) 0.20670(10)
H9 H 0.4896 -0.3979 0.2168
C16 C 0.43393(9) -0.1754(4) 0.22205(10)
H10 H 0.4186 -0.2647 0.2464
C17 C 0.41083(9) 0.0342(4) 0.20225(9)
C18 C 0.36744(8) 0.1213(4) 0.22300(9)
C19 C 0.34798(9) 0.0199(5) 0.26615(10)
H11 H 0.3606 -0.1235 0.2794
C20 C 0.31110(9) 0.1257(5) 0.28915(10)
H12 H 0.2994 0.0564 0.3187
C21 C 0.29050(9) 0.3355(5) 0.26950(10)
H13 H 0.2656 0.4086 0.2862
C22 C 0.30657(9) 0.4335(5) 0.22606(10)
H14 H 0.2918 0.5717 0.2120
C23 C 0.34512(8) 0.3295(4) 0.20199(9)
C24 C 0.56326(9) 0.2093(5) 0.12957(10)
H15 H 0.5837 0.3192 0.1156
C25 C 0.51440(9) 0.2644(4) 0.13412(9)
H16 H 0.5018 0.4108 0.1229
C26 C 0.40773(9) 0.4674(4) 0.08686(9)
C27 C 0.37209(8) 0.6451(4) 0.08152(10)
C28 C 0.36820(9) 0.7976(5) 0.03975(11)
H17 H 0.3449 0.9194 0.0375
C29 C 0.39917(10) 0.7689(5) 0.00098(11)
H18 H 0.3980 0.8759 -0.0271
C30 C 0.43197(10) 0.5829(5) 0.00339(11)
H19 H 0.4515 0.5600 -0.0242
C31 C 0.43622(9) 0.4301(5) 0.04602(10)
H20 H 0.4581 0.3030 0.0472
C32 C 0.30463(10) 1.2050(6) 0.43929(12)
H21 H 0.3385 1.1920 0.4534
C33 C 0.27239(11) 1.0226(6) 0.44337(12)
H22 H 0.2843 0.8850 0.4604
C34 C 0.22261(10) 1.0412(5) 0.42245(11)
H23 H 0.2009 0.9156 0.4251
C35 C 0.20457(9) 1.2427(4) 0.39765(9)
C36 C 0.14984(8) 1.2697(4) 0.37670(9)
H24 H 0.1460 1.4030 0.3519
C37 C 0.12398(8) 1.0633(4) 0.34927(8)
C38 C 0.08127(8) 1.0068(4) 0.37029(8)
C39 C 0.04858(8) 0.8306(4) 0.34582(9)
C40 C -0.00316(8) 0.8056(4) 0.35355(9)
C41 C -0.03067(9) 0.9839(4) 0.37393(9)
H25 H -0.0146 1.1245 0.3843
C42 C -0.08024(9) 0.9577(4) 0.37902(9)
H26 H -0.0976 1.0797 0.3929
C43 C -0.10515(9) 0.7521(5) 0.36380(10)
H27 H -0.1386 0.7316 0.3692
C44 C 0.28704(10) 1.4059(6) 0.41449(13)
H28 H 0.3088 1.5313 0.4118
C45 C 0.23726(10) 1.4237(5) 0.39341(11)
H29 H 0.2255 1.5608 0.3760
C46 C 0.11842(8) 1.3128(4) 0.42046(9)
C47 C 0.07966(8) 1.1516(4) 0.41799(9)
C48 C 0.05024(9) 1.1458(4) 0.45907(9)
H30 H 0.0259 1.0297 0.4600
C49 C 0.05707(9) 1.3121(4) 0.49855(9)
H31 H 0.0367 1.3101 0.5259
C50 C 0.09336(9) 1.4818(4) 0.49847(10)
H32 H 0.0964 1.5983 0.5246
C51 C 0.12511(9) 1.4796(4) 0.45973(10)
H33 H 0.1508 1.5900 0.4602
C52 C 0.14018(8) 0.9381(4) 0.30689(9)
C53 C 0.11382(9) 0.7345(4) 0.28963(9)
C54 C 0.06765(8) 0.6814(4) 0.30981(9)
C55 C 0.03957(9) 0.4825(4) 0.29122(9)
H34 H 0.0534 0.3764 0.2691
C56 C -0.00632(9) 0.4421(4) 0.30439(9)
H35 H -0.0229 0.3031 0.2937
C57 C -0.02980(9) 0.6066(4) 0.33407(9)
C58 C -0.08044(9) 0.5811(4) 0.34097(10)
H36 H -0.0974 0.4439 0.3296
C59 C 0.13255(9) 0.5978(4) 0.25086(9)
H37 H 0.1162 0.4587 0.2398
C60 C 0.17401(9) 0.6622(5) 0.22881(10)
H38 H 0.1860 0.5671 0.2032
C61 C 0.19865(9) 0.8698(5) 0.24437(10)
H39 H 0.2264 0.9171 0.2282
C62 C 0.18227(9) 1.0028(4) 0.28292(9)
H40 H 0.1994 1.1403 0.2937
loop_
_geom_bond_atom_site_label_1
_geom_bond_atom_site_label_2
_geom_bond_site_symmetry_1
_geom_bond_site_symmetry_2
C1 H1 1_555 1_555
C2 C1 1_555 1_555
H2 C2 1_555 1_555
C3 C2 1_555 1_555
H3 C3 1_555 1_555
C4 C3 1_555 1_555
C5 C4 1_555 1_555
H4 C5 1_555 1_555
C6 C5 1_555 1_555
C7 C6 1_555 1_555
C8 C7 1_555 1_555
C9 C8 1_555 1_555
C10 C9 1_555 1_555
C11 C10 1_555 1_555
H5 C11 1_555 1_555
C12 C11 1_555 1_555
H6 C12 1_555 1_555
C13 C1 1_555 1_555
H7 C13 1_555 1_555
C14 C4 1_555 1_555
H8 C14 1_555 1_555
C15 C10 1_555 1_555
H9 C15 1_555 1_555
C16 C15 1_555 1_555
H10 C16 1_555 1_555
C17 C8 1_555 1_555
C18 C17 1_555 1_555
C19 C18 1_555 1_555
H11 C19 1_555 1_555
C20 C19 1_555 1_555
H12 C20 1_555 1_555
C21 C20 1_555 1_555
H13 C21 1_555 1_555
C22 C21 1_555 1_555
H14 C22 1_555 1_555
C23 C6 1_555 1_555
C24 C12 1_555 1_555
H15 C24 1_555 1_555
C25 C9 1_555 1_555
H16 C25 1_555 1_555
C26 C7 1_555 1_555
C27 C5 1_555 1_555
C28 C27 1_555 1_555
H17 C28 1_555 1_555
C29 C28 1_555 1_555
H18 C29 1_555 1_555
C30 C29 1_555 1_555
H19 C30 1_555 1_555
C31 C26 1_555 1_555
H20 C31 1_555 1_555
C32 H21 1_555 1_555
C33 C32 1_555 1_555
H22 C33 1_555 1_555
C34 C33 1_555 1_555
H23 C34 1_555 1_555
C35 C34 1_555 1_555
C36 C35 1_555 1_555
H24 C36 1_555 1_555
C37 C36 1_555 1_555
C38 C37 1_555 1_555
C39 C38 1_555 1_555
C40 C39 1_555 1_555
C41 C40 1_555 1_555
H25 C41 1_555 1_555
C42 C41 1_555 1_555
H26 C42 1_555 1_555
C43 C42 1_555 1_555
H27 C43 1_555 1_555
C44 C32 1_555 1_555
H28 C44 1_555 1_555
C45 C35 1_555 1_555
H29 C45 1_555 1_555
C46 C36 1_555 1_555
C47 C38 1_555 1_555
C48 C47 1_555 1_555
H30 C48 1_555 1_555
C49 C48 1_555 1_555
H31 C49 1_555 1_555
C50 C49 1_555 1_555
H32 C50 1_555 1_555
C51 C46 1_555 1_555
H33 C51 1_555 1_555
C52 C37 1_555 1_555
C53 C52 1_555 1_555
C54 C39 1_555 1_555
C55 C54 1_555 1_555
H34 C55 1_555 1_555
C56 C55 1_555 1_555
H35 C56 1_555 1_555
C57 C40 1_555 1_555
C58 C43 1_555 1_555
H36 C58 1_555 1_555
C59 C53 1_555 1_555
H37 C59 1_555 1_555
C60 C59 1_555 1_555
H38 C60 1_555 1_555
C61 C60 1_555 1_555
H39 C61 1_555 1_555
C62 C52 1_555 1_555
H40 C62 1_555 1_555
C13 C14 1_555 1_555
C16 C17 1_555 1_555
C18 C23 1_555 1_555
C22 C23 1_555 1_555
C24 C25 1_555 1_555
C26 C27 1_555 1_555
C30 C31 1_555 1_555
C44 C45 1_555 1_555
C46 C47 1_555 1_555
C50 C51 1_555 1_555
C53 C54 1_555 1_555
C56 C57 1_555 1_555
C57 C58 1_555 1_555
C61 C62 1_555 1_555

#END
