
#######################################################################
#
#                 Cambridge Crystallographic Data Centre
#                                CCDC 
#
#######################################################################
#
# If this CIF has been generated from an entry in the Cambridge 
# Structural Database, then it will include bibliographic, chemical, 
# crystal, experimental, refinement or atomic coordinate data resulting 
# from the CCDC's data processing and validation procedures.
#
#######################################################################

data_SUJXUQ
_chemical_formula_moiety         'C19 H14 O1 S4'
_chemical_name_systematic        
10-(4,5-Dimethylthio-1,3-dithiol-2-ylidene)anthracene-9(10H)one
_symmetry_cell_setting           monoclinic
_symmetry_space_group_name_H-M   'P 21/n'
_symmetry_Int_Tables_number      14
_space_group_name_Hall           '-P 2yn'
loop_
_symmetry_equiv_pos_site_id
_symmetry_equiv_pos_as_xyz
1 x,y,z
2 1/2-x,1/2+y,1/2-z
3 -x,-y,-z
4 1/2+x,1/2-y,1/2+z
_cell_length_a                   11.703(2)
_cell_length_b                   8.255(2)
_cell_length_c                   18.300(4)
_cell_angle_alpha                90.00
_cell_angle_beta                 97.15(3)
_cell_angle_gamma                90.00
_cell_volume                     1754.18
_exptl_crystal_colour            orange
_chemical_melting_point          185deg.C
_cell_formula_units_Z            4
_exptl_crystal_recrystallization_method cyclohexane/dichloromethane
loop_
_atom_site_label
_atom_site_type_symbol
_atom_site_fract_x
_atom_site_fract_y
_atom_site_fract_z
S1 S 0.60210(5) 0.62125(7) 0.26420(3)
S2 S 0.55344(6) 0.29410(7) 0.20793(3)
S3 S 0.71316(5) 0.72412(9) 0.13166(3)
S4 S 0.65774(5) 0.35120(8) 0.06841(3)
O1 O 0.14492(15) 0.45174(27) 0.39509(11)
C1 C 0.53381(21) 0.63986(31) 0.41736(12)
C2 C 0.51114(25) 0.75721(33) 0.46675(14)
C3 C 0.40186(26) 0.77496(35) 0.48691(15)
C4 C 0.31623(25) 0.67182(34) 0.45881(14)
C5 C 0.33700(19) 0.54980(29) 0.40943(11)
C6 C 0.21124(24) 0.14032(37) 0.35115(15)
C7 C 0.24724(27) -0.00762(38) 0.32829(16)
C8 C 0.35811(26) -0.02441(35) 0.31060(14)
C9 C 0.43105(23) 0.10753(31) 0.31341(13)
C10 C 0.39546(19) 0.26087(28) 0.33386(11)
C11 C 0.46623(17) 0.40765(27) 0.33250(11)
C12 C 0.44764(18) 0.53447(27) 0.38619(11)
C13 C 0.24590(20) 0.42915(33) 0.38548(12)
C14 C 0.28396(19) 0.27493(30) 0.35553(12)
C15 C 0.53359(17) 0.43448(27) 0.27748(11)
C16 C 0.63798(18) 0.57894(29) 0.17560(11)
C17 C 0.61527(18) 0.42883(29) 0.15008(12)
C18 C 0.64435(31) 0.90870(40) 0.15456(26)
C19 C 0.52479(29) 0.26504(50) 0.02476(18)
H1 H 0.6068(19) 0.6240(27) 0.4059(12)
H2 H 0.5692(21) 0.8278(31) 0.4876(14)
H3 H 0.3881(22) 0.8523(33) 0.5214(15)
H4 H 0.2448(25) 0.6740(35) 0.4709(16)
H5 H 0.1394(25) 0.1588(34) 0.3668(15)
H6 H 0.2003(23) -0.0935(34) 0.3272(15)
H7 H 0.3846(20) -0.1272(31) 0.2991(13)
H8 H 0.5067(23) 0.0895(31) 0.3045(14)
H9 H 0.6737(27) 0.9865(38) 0.1282(17)
H10 H 0.6684(32) 0.9372(47) 0.2072(22)
H11 H 0.5676(32) 0.9053(44) 0.1433(20)
H12 H 0.5460(28) 0.2060(42) -0.0158(19)
H13 H 0.4705(34) 0.3496(48) 0.0106(21)
H14 H 0.4959(29) 0.1954(42) 0.0569(19)
loop_
_geom_bond_atom_site_label_1
_geom_bond_atom_site_label_2
_geom_bond_site_symmetry_1
_geom_bond_site_symmetry_2
S1 C15 1_555 1_555
S2 C15 1_555 1_555
S3 C16 1_555 1_555
S4 C17 1_555 1_555
O1 C13 1_555 1_555
C1 C2 1_555 1_555
C2 C3 1_555 1_555
C3 C4 1_555 1_555
C4 C5 1_555 1_555
C5 C12 1_555 1_555
C6 C7 1_555 1_555
C7 C8 1_555 1_555
C8 C9 1_555 1_555
C9 C10 1_555 1_555
C10 C11 1_555 1_555
C11 C12 1_555 1_555
C12 C1 1_555 1_555
C13 C5 1_555 1_555
C14 C6 1_555 1_555
C15 C11 1_555 1_555
C16 S1 1_555 1_555
C17 S2 1_555 1_555
C18 S3 1_555 1_555
C19 S4 1_555 1_555
H1 C1 1_555 1_555
H2 C2 1_555 1_555
H3 C3 1_555 1_555
H4 C4 1_555 1_555
H5 C6 1_555 1_555
H6 C7 1_555 1_555
H7 C8 1_555 1_555
H8 C9 1_555 1_555
H9 C18 1_555 1_555
H10 C18 1_555 1_555
H11 C18 1_555 1_555
H12 C19 1_555 1_555
H13 C19 1_555 1_555
H14 C19 1_555 1_555
C10 C14 1_555 1_555
C13 C14 1_555 1_555
C16 C17 1_555 1_555

#END
