
#######################################################################
#
#                 Cambridge Crystallographic Data Centre
#                                CCDC 
#
#######################################################################
#
# If this CIF has been generated from an entry in the Cambridge 
# Structural Database, then it will include bibliographic, chemical, 
# crystal, experimental, refinement or atomic coordinate data resulting 
# from the CCDC's data processing and validation procedures.
#
#######################################################################

data_SUJYED
_chemical_formula_moiety         'C32 H26 N2 O5'
_chemical_name_systematic        
'ethyl 2-(1-benzyl-3-((3-cyano-2-oxo-2H-chromen-4-yl)methyl)-5-methyl-2-oxo-2,3-dihydro-1H-indol-3-yl)acrylate'
_symmetry_cell_setting           orthorhombic
_symmetry_space_group_name_H-M   'P n a 21'
_symmetry_Int_Tables_number      33
_space_group_name_Hall           'P 2c -2n'
loop_
_symmetry_equiv_pos_site_id
_symmetry_equiv_pos_as_xyz
1 x,y,z
2 -x,-y,1/2+z
3 1/2-x,1/2+y,1/2+z
4 1/2+x,1/2-y,z
_cell_length_a                   17.719(6)
_cell_length_b                   7.718(3)
_cell_length_c                   37.677(13)
_cell_angle_alpha                90
_cell_angle_beta                 90
_cell_angle_gamma                90
_cell_volume                     5152.53
_exptl_crystal_colour            yellow
_exptl_crystal_description       prism
_cell_formula_units_Z            8
loop_
_atom_site_label
_atom_site_type_symbol
_atom_site_fract_x
_atom_site_fract_y
_atom_site_fract_z
O1 O -0.0602(2) 0.9921(5) 0.46506(10)
O2 O 0.1481(2) 1.1979(4) 0.38578(9)
O3 O 0.0481(2) 1.3679(5) 0.37860(10)
O4 O -0.1024(2) 0.4724(5) 0.51103(9)
O5 O -0.0185(2) 0.6876(5) 0.52033(10)
N1 N 0.0666(3) 0.9698(6) 0.47807(11)
N2 N -0.1187(3) 1.1267(6) 0.38395(13)
C1 C 0.0643(4) 1.2354(9) 0.60303(16)
H1 H 0.0614 1.2555 0.6279
C2 C 0.0202(5) 1.1075(9) 0.58772(17)
H2 H -0.0137 1.0419 0.6019
C3 C 0.0254(4) 1.0751(8) 0.55155(15)
H3 H -0.0041 0.9856 0.5412
C4 C 0.0734(3) 1.1722(7) 0.53035(14)
C5 C 0.0772(3) 1.1485(7) 0.49063(13)
H4 H 0.0380 1.2225 0.4796
H5 H 0.1269 1.1904 0.4822
C6 C -0.0011(3) 0.9104(7) 0.46564(13)
C7 C 0.0133(3) 0.7302(6) 0.44858(13)
C8 C 0.0064(3) 0.7589(6) 0.40702(12)
H6 H 0.0216 0.6514 0.3946
H7 H -0.0470 0.7827 0.4009
C9 C 0.0549(3) 0.9072(7) 0.39417(12)
C10 C 0.1337(3) 0.8838(7) 0.38808(13)
C11 C 0.1701(3) 0.7241(7) 0.38372(14)
H8 H 0.1412 0.6205 0.3837
C12 C 0.2473(3) 0.7149(7) 0.37946(14)
H9 H 0.2710 0.6056 0.3764
C13 C 0.2909(3) 0.8677(7) 0.37959(14)
H10 H 0.3442 0.8599 0.3775
C14 C 0.1156(4) 1.3034(9) 0.54618(17)
H11 H 0.1474 1.3736 0.5318
C15 C 0.1123(4) 1.3339(10) 0.58242(17)
H12 H 0.1427 1.4214 0.5929
C16 C 0.1234(3) 0.8427(7) 0.47587(14)
C17 C 0.0940(3) 0.6952(7) 0.46000(13)
C18 C 0.1375(3) 0.5499(7) 0.45587(13)
H13 H 0.1161 0.4480 0.4459
C19 C 0.2131(3) 0.5510(7) 0.46627(14)
C20 C 0.2423(3) 0.7009(7) 0.48086(15)
H14 H 0.2941 0.7033 0.4873
C21 C 0.1979(3) 0.8513(7) 0.48658(13)
H15 H 0.2183 0.9526 0.4972
C22 C 0.2631(3) 0.3932(8) 0.46092(15)
H16 H 0.3089 0.4272 0.4482
H17 H 0.2357 0.3059 0.4471
H18 H 0.2768 0.3446 0.4841
C23 C 0.2573(3) 1.0283(7) 0.38277(13)
H19 H 0.2868 1.1312 0.3831
C24 C 0.1798(3) 1.0352(7) 0.38553(14)
C25 C 0.0713(3) 1.2216(7) 0.38293(14)
C26 C 0.0243(3) 1.0683(6) 0.38850(13)
C27 C -0.0562(3) 1.1018(7) 0.38712(15)
C28 C -0.0423(3) 0.5951(7) 0.46105(15)
C29 C -0.0527(3) 0.5925(7) 0.50048(14)
C30 C -0.1096(4) 0.4560(9) 0.54990(16)
H20 H -0.1242 0.5684 0.5605
H21 H -0.0611 0.4185 0.5605
C31 C -0.1702(4) 0.3214(9) 0.55646(17)
H22 H -0.2187 0.3646 0.5476
H23 H -0.1740 0.2985 0.5820
H24 H -0.1570 0.2141 0.5440
C32 C -0.0749(3) 0.4784(7) 0.44083(15)
H25 H -0.1056 0.3911 0.4512
H26 H -0.0679 0.4814 0.4158
O6 O 0.1301(2) 0.9863(5) 0.22044(10)
O7 O 0.3365(2) 1.1960(5) 0.30341(10)
O8 O 0.2347(2) 1.3600(5) 0.30824(10)
O9 O 0.1700(2) 0.6776(5) 0.16480(9)
O10 O 0.0862(2) 0.4643(5) 0.17471(9)
N3 N 0.2569(3) 0.9638(6) 0.20688(12)
N4 N 0.0704(3) 1.1187(6) 0.30293(12)
C33 C 0.2571(5) 1.2342(9) 0.08287(17)
H27 H 0.2556 1.2536 0.0580
C34 C 0.3027(4) 1.3374(10) 0.10416(18)
H28 H 0.3306 1.4307 0.0942
C35 C 0.3068(4) 1.3022(8) 0.13992(16)
H29 H 0.3390 1.3697 0.1546
C36 C 0.2640(3) 1.1684(7) 0.15506(14)
C37 C 0.2668(3) 1.1416(7) 0.19485(14)
H30 H 0.3160 1.1843 0.2037
H31 H 0.2270 1.2139 0.2059
C38 C 0.1894(3) 0.9068(7) 0.21999(13)
C39 C 0.2023(3) 0.7263(7) 0.23732(13)
C40 C 0.1970(3) 0.7537(6) 0.27787(12)
H32 H 0.1436 0.7747 0.2844
H33 H 0.2135 0.6466 0.2900
C41 C 0.2442(3) 0.9033(7) 0.29077(12)
C42 C 0.3255(3) 0.8833(7) 0.29738(12)
C43 C 0.3689(3) 1.0305(7) 0.30358(13)
C44 C 0.4446(3) 1.0273(7) 0.31107(13)
H34 H 0.4726 1.1312 0.3142
C45 C 0.4791(3) 0.8645(8) 0.31384(14)
H35 H 0.5314 0.8570 0.3191
C46 C 0.2174(4) 1.0687(9) 0.13374(17)
H36 H 0.1882 0.9780 0.1438
C47 C 0.2135(5) 1.1021(9) 0.09769(17)
H37 H 0.1811 1.0350 0.0830
C48 C 0.2146(3) 1.0635(6) 0.29678(13)
C49 C 0.2603(3) 1.2180(7) 0.30382(14)
C50 C 0.4378(3) 0.7155(8) 0.30904(14)
H38 H 0.4620 0.6062 0.3114
C51 C 0.3620(3) 0.7218(7) 0.30092(12)
H39 H 0.3344 0.6175 0.2977
C52 C 0.1343(3) 1.0918(6) 0.29838(13)
C53 C 0.1466(3) 0.5897(6) 0.22442(13)
C54 C 0.1106(3) 0.4785(7) 0.24549(15)
H40 H 0.0781 0.3935 0.2355
H41 H 0.1174 0.4842 0.2705
C55 C 0.1372(3) 0.5842(7) 0.18544(15)
C56 C 0.0786(4) 0.4485(9) 0.13652(15)
H42 H 0.1269 0.4108 0.1258
H43 H 0.0642 0.5612 0.1260
C57 C 0.0185(4) 0.3165(9) 0.12977(16)
H44 H 0.0323 0.2072 0.1413
H45 H 0.0134 0.2979 0.1042
H46 H -0.0296 0.3579 0.1394
C58 C 0.2838(3) 0.6890(7) 0.22521(13)
C59 C 0.3128(3) 0.8359(7) 0.20911(14)
C60 C 0.3877(3) 0.8437(8) 0.19905(14)
H47 H 0.4083 0.9458 0.1888
C61 C 0.4322(4) 0.6961(8) 0.20441(15)
H48 H 0.4837 0.6988 0.1974
C62 C 0.4036(3) 0.5452(7) 0.21973(15)
C63 C 0.4518(3) 0.3864(7) 0.22569(15)
H49 H 0.4387 0.2976 0.2082
H50 H 0.4428 0.3413 0.2496
H51 H 0.5052 0.4173 0.2232
C64 C 0.3265(3) 0.5444(7) 0.23006(13)
H52 H 0.3049 0.4434 0.2403
loop_
_geom_bond_atom_site_label_1
_geom_bond_atom_site_label_2
_geom_bond_site_symmetry_1
_geom_bond_site_symmetry_2
O1 C6 1_555 1_555
O2 C24 1_555 1_555
O3 C25 1_555 1_555
O4 C29 1_555 1_555
O5 C29 1_555 1_555
N1 C5 1_555 1_555
N2 C27 1_555 1_555
C1 H1 1_555 1_555
C2 C1 1_555 1_555
H2 C2 1_555 1_555
C3 C2 1_555 1_555
H3 C3 1_555 1_555
C4 C3 1_555 1_555
C5 C4 1_555 1_555
H4 C5 1_555 1_555
H5 C5 1_555 1_555
C6 N1 1_555 1_555
C7 C6 1_555 1_555
C8 C7 1_555 1_555
H6 C8 1_555 1_555
H7 C8 1_555 1_555
C9 C8 1_555 1_555
C10 C9 1_555 1_555
C11 C10 1_555 1_555
H8 C11 1_555 1_555
C12 C11 1_555 1_555
H9 C12 1_555 1_555
C13 C12 1_555 1_555
H10 C13 1_555 1_555
C14 C4 1_555 1_555
H11 C14 1_555 1_555
C15 C1 1_555 1_555
H12 C15 1_555 1_555
C16 N1 1_555 1_555
C17 C7 1_555 1_555
C18 C17 1_555 1_555
H13 C18 1_555 1_555
C19 C18 1_555 1_555
C20 C19 1_555 1_555
H14 C20 1_555 1_555
C21 C16 1_555 1_555
H15 C21 1_555 1_555
C22 C19 1_555 1_555
H16 C22 1_555 1_555
H17 C22 1_555 1_555
H18 C22 1_555 1_555
C23 C13 1_555 1_555
H19 C23 1_555 1_555
C24 C10 1_555 1_555
C25 O2 1_555 1_555
C26 C9 1_555 1_555
C27 C26 1_555 1_555
C28 C7 1_555 1_555
C29 C28 1_555 1_555
C30 O4 1_555 1_555
H20 C30 1_555 1_555
H21 C30 1_555 1_555
C31 C30 1_555 1_555
H22 C31 1_555 1_555
H23 C31 1_555 1_555
H24 C31 1_555 1_555
C32 C28 1_555 1_555
H25 C32 1_555 1_555
H26 C32 1_555 1_555
O6 C38 1_555 1_555
O7 C43 1_555 1_555
O8 C49 1_555 1_555
O9 C55 1_555 1_555
O10 C55 1_555 1_555
N3 C37 1_555 1_555
N4 C52 1_555 1_555
C33 H27 1_555 1_555
C34 C33 1_555 1_555
H28 C34 1_555 1_555
C35 C34 1_555 1_555
H29 C35 1_555 1_555
C36 C35 1_555 1_555
C37 C36 1_555 1_555
H30 C37 1_555 1_555
H31 C37 1_555 1_555
C38 N3 1_555 1_555
C39 C38 1_555 1_555
C40 C39 1_555 1_555
H32 C40 1_555 1_555
H33 C40 1_555 1_555
C41 C40 1_555 1_555
C42 C41 1_555 1_555
C43 C42 1_555 1_555
C44 C43 1_555 1_555
H34 C44 1_555 1_555
C45 C44 1_555 1_555
H35 C45 1_555 1_555
C46 C36 1_555 1_555
H36 C46 1_555 1_555
C47 C33 1_555 1_555
H37 C47 1_555 1_555
C48 C41 1_555 1_555
C49 O7 1_555 1_555
C50 C45 1_555 1_555
H38 C50 1_555 1_555
C51 C42 1_555 1_555
H39 C51 1_555 1_555
C52 C48 1_555 1_555
C53 C39 1_555 1_555
C54 C53 1_555 1_555
H40 C54 1_555 1_555
H41 C54 1_555 1_555
C55 C53 1_555 1_555
C56 O10 1_555 1_555
H42 C56 1_555 1_555
H43 C56 1_555 1_555
C57 C56 1_555 1_555
H44 C57 1_555 1_555
H45 C57 1_555 1_555
H46 C57 1_555 1_555
C58 C39 1_555 1_555
C59 N3 1_555 1_555
C60 C59 1_555 1_555
H47 C60 1_555 1_555
C61 C60 1_555 1_555
H48 C61 1_555 1_555
C62 C61 1_555 1_555
C63 C62 1_555 1_555
H49 C63 1_555 1_555
H50 C63 1_555 1_555
H51 C63 1_555 1_555
C64 C58 1_555 1_555
H52 C64 1_555 1_555
C14 C15 1_555 1_555
C16 C17 1_555 1_555
C20 C21 1_555 1_555
C23 C24 1_555 1_555
C25 C26 1_555 1_555
C46 C47 1_555 1_555
C48 C49 1_555 1_555
C50 C51 1_555 1_555
C58 C59 1_555 1_555
C62 C64 1_555 1_555

#END
