
#######################################################################
#
#                 Cambridge Crystallographic Data Centre
#                                CCDC 
#
#######################################################################
#
# If this CIF has been generated from an entry in the Cambridge 
# Structural Database, then it will include bibliographic, chemical, 
# crystal, experimental, refinement or atomic coordinate data resulting 
# from the CCDC's data processing and validation procedures.
#
#######################################################################

data_SUJZAY
_chemical_formula_moiety         'C22 H14 N2 S2'
_chemical_name_systematic        
10-(4,5-Dimethyl-1,3-dithiol-2-ylidene)-9-(2,2-dicyanomethylene)anthracene
_symmetry_cell_setting           monoclinic
_symmetry_space_group_name_H-M   'P 21/n'
_symmetry_Int_Tables_number      14
_space_group_name_Hall           '-P 2yn'
loop_
_symmetry_equiv_pos_site_id
_symmetry_equiv_pos_as_xyz
1 x,y,z
2 1/2+x,1/2-y,1/2+z
3 -x,-y,-z
4 1/2-x,1/2+y,1/2-z
_cell_length_a                   15.353(5)
_cell_length_b                   13.895(5)
_cell_length_c                   17.082(6)
_cell_angle_alpha                90
_cell_angle_beta                 101.07(1)
_cell_angle_gamma                90
_cell_volume                     3576.3
_exptl_crystal_colour            'dark purple'
_exptl_crystal_description       Plate
_chemical_melting_point          523K
_cell_formula_units_Z            8
loop_
_atom_site_label
_atom_site_type_symbol
_atom_site_fract_x
_atom_site_fract_y
_atom_site_fract_z
S1 S 0.49908(4) 0.52680(5) 0.32281(4)
S2 S 0.45390(4) 0.51741(5) 0.15048(4)
C1 C 0.3376(2) 0.5984(2) 0.38580(14)
H1 H 0.3943(2) 0.6259(2) 0.38604(14)
C2 C 0.3012(2) 0.6037(2) 0.4537(2)
H2 H 0.3336(2) 0.6342(2) 0.5000(2)
C3 C 0.2186(2) 0.5650(2) 0.4549(2)
H3 H 0.1937(2) 0.5700(2) 0.5016(2)
C4 C 0.1722(2) 0.5195(2) 0.38815(15)
H4 H 0.1154(2) 0.4927(2) 0.38891(15)
C5 C 0.20845(15) 0.5123(2) 0.31898(14)
C6 C 0.1021(2) 0.5194(2) 0.10583(14)
H5 H 0.0450(2) 0.4957(2) 0.10940(14)
C7 C 0.1166(2) 0.5595(2) 0.03541(15)
H6 H 0.0696(2) 0.5635(2) -0.00962(15)
C8 C 0.1997(2) 0.5941(2) 0.03102(15)
H7 H 0.2103(2) 0.6192(2) -0.01801(15)
C9 C 0.2680(2) 0.5924(2) 0.09690(14)
H8 H 0.3239(2) 0.6195(2) 0.09315(14)
C10 C 0.25576(15) 0.5518(2) 0.16896(14)
C11 C 0.3256(2) 0.5493(2) 0.24122(14)
C12 C 0.2920(2) 0.5531(2) 0.31657(14)
C13 C 0.15937(14) 0.4674(2) 0.24613(14)
C14 C 0.17157(15) 0.5130(2) 0.17186(14)
C15 C 0.4138(2) 0.5364(2) 0.23876(15)
C16 C 0.5823(2) 0.4869(2) 0.2735(2)
C17 C 0.5618(2) 0.4820(2) 0.1942(2)
C18 C 0.6700(2) 0.4624(2) 0.3254(2)
H9 H 0.6701(5) 0.3944(4) 0.3406(11)
H10 H 0.6791(7) 0.5025(11) 0.3735(6)
H11 H 0.7178(2) 0.4742(15) 0.2960(5)
C19 C 0.6202(2) 0.4504(2) 0.1379(2)
H12 H 0.6062(11) 0.4878(12) 0.0884(6)
H13 H 0.6104(12) 0.3818(5) 0.1257(11)
H14 H 0.6825(2) 0.4608(16) 0.1629(6)
C20 C 0.11041(15) 0.3848(2) 0.24699(14)
C21 C 0.0674(2) 0.3355(2) 0.1761(2)
C22 C 0.1082(2) 0.3314(2) 0.3188(2)
N1 N 0.03148(15) 0.2926(2) 0.12198(15)
N2 N 0.10642(15) 0.2851(2) 0.37430(15)
S3 S 0.48601(4) 0.21439(5) 0.23040(4)
S4 S 0.54605(4) 0.23200(5) 0.40112(4)
C23 C 0.6365(2) 0.1491(2) 0.15507(14)
H15 H 0.5815(2) 0.1201(2) 0.15906(14)
C24 C 0.6625(2) 0.1510(2) 0.08199(15)
H16 H 0.6243(2) 0.1260(2) 0.03608(15)
C25 C 0.7436(2) 0.1895(2) 0.07551(15)
H17 H 0.7615(2) 0.1900(2) 0.02528(15)
C26 C 0.7988(2) 0.2272(2) 0.14174(14)
H18 H 0.8551(2) 0.2523(2) 0.13720(14)
C27 C 0.7723(2) 0.2286(2) 0.21590(14)
C28 C 0.8927(2) 0.2173(2) 0.42666(14)
H19 H 0.9491(2) 0.2413(2) 0.42081(14)
C29 C 0.8821(2) 0.1765(2) 0.49817(15)
H20 H 0.9312(2) 0.1720(2) 0.54140(15)
C30 C 0.8000(2) 0.1408(2) 0.50608(15)
H21 H 0.7923(2) 0.1142(2) 0.55557(15)
C31 C 0.7288(2) 0.1444(2) 0.44294(14)
H22 H 0.6736(2) 0.1172(2) 0.44886(14)
C32 C 0.7368(2) 0.1870(2) 0.37018(14)
C33 C 0.66332(15) 0.1916(2) 0.30158(14)
C34 C 0.68945(15) 0.1886(2) 0.22339(14)
C35 C 0.82717(14) 0.2707(2) 0.28749(14)
C36 C 0.8202(2) 0.2243(2) 0.36312(14)
C37 C 0.5771(2) 0.2071(2) 0.30951(14)
C38 C 0.4101(2) 0.2618(2) 0.2844(2)
C39 C 0.4381(2) 0.2717(2) 0.3626(2)
C40 C 0.3201(2) 0.2856(2) 0.2365(2)
H23 H 0.3037(6) 0.2378(9) 0.1940(8)
H24 H 0.3218(4) 0.3496(7) 0.2128(10)
H25 H 0.2762(3) 0.2850(15) 0.2713(3)
C41 C 0.3891(2) 0.3147(2) 0.4221(2)
H26 H 0.4053(10) 0.3827(4) 0.4297(9)
H27 H 0.4053(10) 0.2806(9) 0.4730(4)
H28 H 0.3250(2) 0.3092(13) 0.4024(6)
C42 C 0.87553(14) 0.3534(2) 0.28620(13)
C43 C 0.9194(2) 0.4013(2) 0.35747(15)
C44 C 0.87731(15) 0.4098(2) 0.21581(15)
N3 N 0.95388(15) 0.4438(2) 0.41216(14)
N4 N 0.88138(14) 0.4596(2) 0.16302(13)
loop_
_geom_bond_atom_site_label_1
_geom_bond_atom_site_label_2
_geom_bond_site_symmetry_1
_geom_bond_site_symmetry_2
S1 C15 1_555 1_555
S2 C15 1_555 1_555
C1 H1 1_555 1_555
C2 C1 1_555 1_555
H2 C2 1_555 1_555
C3 C2 1_555 1_555
H3 C3 1_555 1_555
C4 C3 1_555 1_555
H4 C4 1_555 1_555
C5 C4 1_555 1_555
C6 H5 1_555 1_555
C7 C6 1_555 1_555
H6 C7 1_555 1_555
C8 C7 1_555 1_555
H7 C8 1_555 1_555
C9 C8 1_555 1_555
H8 C9 1_555 1_555
C10 C9 1_555 1_555
C11 C10 1_555 1_555
C12 C1 1_555 1_555
C13 C5 1_555 1_555
C14 C6 1_555 1_555
C15 C11 1_555 1_555
C16 S1 1_555 1_555
C17 S2 1_555 1_555
C18 C16 1_555 1_555
H9 C18 1_555 1_555
H10 C18 1_555 1_555
H11 C18 1_555 1_555
C19 C17 1_555 1_555
H12 C19 1_555 1_555
H13 C19 1_555 1_555
H14 C19 1_555 1_555
C20 C13 1_555 1_555
C21 C20 1_555 1_555
C22 C20 1_555 1_555
N1 C21 1_555 1_555
N2 C22 1_555 1_555
S3 C37 1_555 1_555
S4 C37 1_555 1_555
C23 H15 1_555 1_555
C24 C23 1_555 1_555
H16 C24 1_555 1_555
C25 C24 1_555 1_555
H17 C25 1_555 1_555
C26 C25 1_555 1_555
H18 C26 1_555 1_555
C27 C26 1_555 1_555
C28 H19 1_555 1_555
C29 C28 1_555 1_555
H20 C29 1_555 1_555
C30 C29 1_555 1_555
H21 C30 1_555 1_555
C31 C30 1_555 1_555
H22 C31 1_555 1_555
C32 C31 1_555 1_555
C33 C32 1_555 1_555
C34 C23 1_555 1_555
C35 C27 1_555 1_555
C36 C28 1_555 1_555
C37 C33 1_555 1_555
C38 S3 1_555 1_555
C39 S4 1_555 1_555
C40 C38 1_555 1_555
H23 C40 1_555 1_555
H24 C40 1_555 1_555
H25 C40 1_555 1_555
C41 C39 1_555 1_555
H26 C41 1_555 1_555
H27 C41 1_555 1_555
H28 C41 1_555 1_555
C42 C35 1_555 1_555
C43 C42 1_555 1_555
C44 C42 1_555 1_555
N3 C43 1_555 1_555
N4 C44 1_555 1_555
C5 C12 1_555 1_555
C10 C14 1_555 1_555
C11 C12 1_555 1_555
C13 C14 1_555 1_555
C16 C17 1_555 1_555
C27 C34 1_555 1_555
C32 C36 1_555 1_555
C33 C34 1_555 1_555
C35 C36 1_555 1_555
C38 C39 1_555 1_555

#END
