
#######################################################################
#
#                 Cambridge Crystallographic Data Centre
#                                CCDC 
#
#######################################################################
#
# If this CIF has been generated from an entry in the Cambridge 
# Structural Database, then it will include bibliographic, chemical, 
# crystal, experimental, refinement or atomic coordinate data resulting 
# from the CCDC's data processing and validation procedures.
#
#######################################################################

data_SUJZEC
_chemical_formula_moiety         'C24 H20 S8'
_chemical_name_systematic        
9,10-bis(4,5-Dimethylthio-1,3-dithiol-2-ylidene)9,10-dihydroanthracene
_symmetry_cell_setting           triclinic
_symmetry_space_group_name_H-M   'P -1'
_symmetry_Int_Tables_number      2
_space_group_name_Hall           '-P 1'
loop_
_symmetry_equiv_pos_site_id
_symmetry_equiv_pos_as_xyz
1 x,y,z
2 -x,-y,-z
_cell_length_a                   8.771(1)
_cell_length_b                   9.993(1)
_cell_length_c                   15.375(1)
_cell_angle_alpha                86.93(1)
_cell_angle_beta                 78.69(1)
_cell_angle_gamma                75.24(1)
_cell_volume                     1277.81
_exptl_crystal_colour            yellow
_chemical_melting_point          'above 230deg.C'
_cell_formula_units_Z            2
_exptl_crystal_recrystallization_method acetonitrile/dichloromethane
loop_
_atom_site_label
_atom_site_type_symbol
_atom_site_fract_x
_atom_site_fract_y
_atom_site_fract_z
S1 S 0.38598(14) 0.23316(13) 0.51276(7)
S2 S 0.73480(13) 0.12643(12) 0.46992(7)
S3 S 0.38606(19) 0.35711(15) 0.68585(8)
S4 S 0.79363(20) 0.23445(18) 0.63480(10)
S5 S 0.40939(11) 0.55864(10) 0.11944(7)
S6 S 0.75768(11) 0.45244(10) 0.09677(7)
S7 S 0.42355(14) 0.84404(11) 0.05530(8)
S8 S 0.82819(14) 0.72222(12) 0.03115(8)
C1 C 0.24926(50) 0.17516(45) 0.35222(29)
H1 H 0.24701(50) 0.12481(45) 0.40722(29)
C2 C 0.11075(51) 0.21994(48) 0.31697(31)
H2 H 0.01178(51) 0.20176(48) 0.34788(31)
C3 C 0.11457(48) 0.29075(46) 0.23715(31)
H3 H 0.01872(48) 0.32117(46) 0.21272(31)
C4 C 0.25614(45) 0.31796(40) 0.19219(27)
H4 H 0.25859(45) 0.36731(40) 0.13682(27)
C5 C 0.39758(43) 0.27500(37) 0.22628(24)
C6 C 0.82726(46) 0.14095(40) 0.12193(26)
H5 H 0.82747(46) 0.18683(40) 0.06544(26)
C7 C 0.95711(49) 0.03592(43) 0.13428(28)
H6 H 1.04875(49) 0.01025(43) 0.08725(28)
C8 C 0.95430(50) -0.03455(43) 0.21571(29)
H7 H 1.04505(50) -0.10753(43) 0.22477(29)
C9 C 0.82105(48) 0.00170(40) 0.28290(28)
H8 H 0.81668(48) -0.04875(40) 0.33788(28)
C10 C 0.69085(43) 0.11227(37) 0.27162(24)
C11 C 0.54605(45) 0.15649(37) 0.34224(25)
C12 C 0.39458(44) 0.20298(38) 0.30771(25)
C13 C 0.55312(42) 0.29776(37) 0.18041(23)
C14 C 0.69386(42) 0.18411(37) 0.19047(25)
C15 C 0.55361(45) 0.16639(39) 0.42858(25)
C16 C 0.49627(58) 0.26837(45) 0.58882(28)
C17 C 0.65588(57) 0.22194(47) 0.56911(28)
C18 C 0.31449(95) 0.52505(61) 0.64288(42)
H9 H 0.25794(95) 0.59541(61) 0.68591(42)
H10 H 0.24349(95) 0.51217(61) 0.60561(42)
H11 H 0.40413(95) 0.55283(61) 0.60723(42)
C19 C 0.9072(17) 0.3446(15) 0.57108(99)
H12 H 0.9983(17) 0.2920(15) 0.53102(99)
H16 H 0.9319(17) 0.4061(14) 0.61499(95)
H17 H 0.8267(17) 0.4187(14) 0.54199(95)
C21 C 0.56909(39) 0.41729(38) 0.13631(23)
C22 C 0.52700(44) 0.67611(38) 0.08153(25)
C23 C 0.68552(45) 0.62782(38) 0.07197(25)
C24 C 0.42836(70) 0.93846(49) 0.15057(35)
H18 H 0.35508(70) 1.02561(49) 0.14247(35)
H19 H 0.53219(70) 0.95287(49) 0.15137(35)
H20 H 0.38967(70) 0.89771(49) 0.20577(35)
C25 C 0.96659(53) 0.66796(53) 0.10609(31)
H21 H 1.04516(53) 0.72089(53) 0.08967(31)
H22 H 1.01839(53) 0.57116(53) 0.09919(31)
H23 H 0.91484(53) 0.68641(53) 0.16682(31)
H13? H 0.8379(17) 0.4080(15) 0.53791(99)
H14? H 0.9430(17) 0.3954(15) 0.61092(99)
C20? C 0.8286(17) 0.4035(14) 0.60399(95)
H15? H 0.7470(17) 0.4745(14) 0.63786(95)
loop_
_geom_bond_atom_site_label_1
_geom_bond_atom_site_label_2
_geom_bond_site_symmetry_1
_geom_bond_site_symmetry_2
S1 C15 1_555 1_555
S2 C15 1_555 1_555
S3 C16 1_555 1_555
S4 C17 1_555 1_555
S5 C21 1_555 1_555
S6 C21 1_555 1_555
S7 C22 1_555 1_555
S8 C23 1_555 1_555
C1 H1 1_555 1_555
C2 C1 1_555 1_555
H2 C2 1_555 1_555
C3 C2 1_555 1_555
H3 C3 1_555 1_555
C4 C3 1_555 1_555
H4 C4 1_555 1_555
C5 C4 1_555 1_555
C6 H5 1_555 1_555
C7 C6 1_555 1_555
H6 C7 1_555 1_555
C8 C7 1_555 1_555
H7 C8 1_555 1_555
C9 C8 1_555 1_555
H8 C9 1_555 1_555
C10 C9 1_555 1_555
C11 C10 1_555 1_555
C12 C1 1_555 1_555
C13 C5 1_555 1_555
C14 C6 1_555 1_555
C15 C11 1_555 1_555
C16 S1 1_555 1_555
C17 S2 1_555 1_555
C18 S3 1_555 1_555
H9 C18 1_555 1_555
H10 C18 1_555 1_555
H11 C18 1_555 1_555
C19 S4 1_555 1_555
H12 C19 1_555 1_555
H16 C19 1_555 1_555
H17 C19 1_555 1_555
C21 C13 1_555 1_555
C22 S5 1_555 1_555
C23 S6 1_555 1_555
C24 S7 1_555 1_555
H18 C24 1_555 1_555
H19 C24 1_555 1_555
H20 C24 1_555 1_555
C25 S8 1_555 1_555
H21 C25 1_555 1_555
H22 C25 1_555 1_555
H23 C25 1_555 1_555
C5 C12 1_555 1_555
C10 C14 1_555 1_555
C11 C12 1_555 1_555
C13 C14 1_555 1_555
C16 C17 1_555 1_555
C22 C23 1_555 1_555

#END
