
#######################################################################
#
#                 Cambridge Crystallographic Data Centre
#                                CCDC 
#
#######################################################################
#
# If this CIF has been generated from an entry in the Cambridge 
# Structural Database, then it will include bibliographic, chemical, 
# crystal, experimental, refinement or atomic coordinate data resulting 
# from the CCDC's data processing and validation procedures.
#
#######################################################################

data_SUKJEP
_chemical_formula_moiety         'C28 H22 O5'
_chemical_name_systematic        
4-hydroxy-3-((4-isopropylphenyl)(4-oxo-4H-chromen-3-yl)methyl)-2H-chromen-2-one
_symmetry_cell_setting           monoclinic
_symmetry_space_group_name_H-M   'P 21/n'
_symmetry_Int_Tables_number      14
_space_group_name_Hall           '-P 2yn'
loop_
_symmetry_equiv_pos_site_id
_symmetry_equiv_pos_as_xyz
1 x,y,z
2 1/2-x,1/2+y,1/2-z
3 -x,-y,-z
4 1/2+x,1/2-y,1/2+z
_cell_length_a                   11.8008(6)
_cell_length_b                   11.3413(5)
_cell_length_c                   16.3625(9)
_cell_angle_alpha                90
_cell_angle_beta                 91.077(5)
_cell_angle_gamma                90
_cell_volume                     2189.51
_exptl_crystal_colour            colorless
_exptl_crystal_description       block
_cell_formula_units_Z            4
loop_
_atom_site_label
_atom_site_type_symbol
_atom_site_fract_x
_atom_site_fract_y
_atom_site_fract_z
O1 O 0.15728(11) 0.26676(11) 0.13819(7)
O2 O 0.15461(11) 0.22930(11) 0.29326(7)
C1 C 0.3592(3) 0.2848(3) 0.55930(14)
H1 H 0.3848 0.3070 0.6111
C2 C 0.15880(14) -0.00194(13) 0.19588(9)
O3 O 0.45265(12) 0.17152(14) 0.02906(9)
C3 C 0.27794(14) 0.04908(14) 0.19901(10)
H2 H 0.3275 -0.0195 0.1928
C4 C 0.28209(16) 0.22041(16) 0.40490(10)
O4 O 0.44727(11) 0.09854(14) 0.39341(8)
C5 C 0.31130(14) 0.09990(14) 0.28240(10)
C6 C 0.24431(15) 0.18549(15) 0.32329(10)
C7 C 0.11871(16) -0.06273(15) 0.26282(10)
H3 H 0.1618 -0.0638 0.3110
C8 C 0.40926(17) 0.06113(18) 0.31853(12)
C9 C -0.05198(15) -0.12173(14) 0.18980(11)
C10 C 0.25145(14) 0.22990(14) 0.10534(10)
C11 C 0.31049(14) 0.13090(14) 0.12998(10)
C12 C 0.09119(15) -0.00253(15) 0.12551(10)
H4 H 0.1154 0.0371 0.0792
C13 C -0.01128(16) -0.06085(16) 0.12315(11)
H5 H -0.0546 -0.0593 0.0751
C14 C 0.41609(17) 0.10450(17) 0.09324(12)
C15 C 0.22040(19) 0.29865(17) 0.45300(11)
H6 H 0.1530 0.3306 0.4326
C16 C 0.29328(15) 0.30052(15) 0.03866(10)
C17 C 0.01639(16) -0.12170(15) 0.25983(11)
H7 H -0.0073 -0.1624 0.3058
C18 C 0.2582(2) 0.3285(2) 0.52957(13)
H8 H 0.2154 0.3786 0.5617
C19 C 0.38245(17) 0.17676(18) 0.43661(12)
C20 C 0.39286(17) 0.26773(18) 0.00205(12)
C21 C -0.16622(17) -0.18303(17) 0.18476(13)
H9 H -0.1723 -0.2194 0.1305
C22 C 0.2393(2) 0.40188(17) 0.00986(12)
H10 H 0.1726 0.4268 0.0339
C23 C 0.4365(2) 0.3311(2) -0.06282(16)
H11 H 0.5028 0.3069 -0.0877
C24 C 0.4232(2) 0.2089(2) 0.51400(14)
H12 H 0.4917 0.1796 0.5343
C25 C -0.2609(2) -0.0962(3) 0.1904(3)
H13 H -0.2546 -0.0545 0.2414
H14 H -0.3321 -0.1371 0.1875
H15 H -0.2568 -0.0411 0.1460
C26 C 0.3805(2) 0.4292(2) -0.08943(17)
H16 H 0.4090 0.4723 -0.1328
C27 C 0.2827(2) 0.4652(2) -0.05313(15)
H17 H 0.2458 0.5330 -0.0715
C28 C -0.1806(2) -0.2795(3) 0.2460(2)
H18 H -0.1824 -0.2462 0.2999
H19 H -0.1184 -0.3336 0.2427
H20 H -0.2504 -0.3204 0.2348
O5 O 0.48231(15) 0.03072(17) 0.11639(12)
H21 H 0.151(4) 0.239(3) 0.1861(10)
O6? O 0.4808(5) 0.0053(5) 0.2841(4)
H22? H 0.149(10) 0.234(11) 0.2415(7)
loop_
_geom_bond_atom_site_label_1
_geom_bond_atom_site_label_2
_geom_bond_site_symmetry_1
_geom_bond_site_symmetry_2
O1 C10 1_555 1_555
O2 C6 1_555 1_555
C1 H1 1_555 1_555
C2 C3 1_555 1_555
O3 C14 1_555 1_555
C3 H2 1_555 1_555
C4 C6 1_555 1_555
O4 C8 1_555 1_555
C5 C3 1_555 1_555
C6 C5 1_555 1_555
C7 C2 1_555 1_555
H3 C7 1_555 1_555
C8 C5 1_555 1_555
C9 C13 1_555 1_555
C10 C11 1_555 1_555
C11 C3 1_555 1_555
C12 C2 1_555 1_555
H4 C12 1_555 1_555
C13 C12 1_555 1_555
H5 C13 1_555 1_555
C14 C11 1_555 1_555
C15 C4 1_555 1_555
H6 C15 1_555 1_555
C16 C10 1_555 1_555
C17 C7 1_555 1_555
H7 C17 1_555 1_555
C18 C1 1_555 1_555
H8 C18 1_555 1_555
C19 C4 1_555 1_555
C20 O3 1_555 1_555
C21 C9 1_555 1_555
H9 C21 1_555 1_555
C22 C16 1_555 1_555
H10 C22 1_555 1_555
C23 C20 1_555 1_555
H11 C23 1_555 1_555
C24 C1 1_555 1_555
H12 C24 1_555 1_555
C25 C21 1_555 1_555
H13 C25 1_555 1_555
H14 C25 1_555 1_555
H15 C25 1_555 1_555
C26 C23 1_555 1_555
H16 C26 1_555 1_555
C27 C22 1_555 1_555
H17 C27 1_555 1_555
C28 C21 1_555 1_555
H18 C28 1_555 1_555
H19 C28 1_555 1_555
H20 C28 1_555 1_555
O5 C14 1_555 1_555
H21 O1 1_555 1_555
O4 C19 1_555 1_555
C9 C17 1_555 1_555
C15 C18 1_555 1_555
C16 C20 1_555 1_555
C19 C24 1_555 1_555
C26 C27 1_555 1_555

#END
