
#######################################################################
#
#                 Cambridge Crystallographic Data Centre
#                                CCDC 
#
#######################################################################
#
# If this CIF has been generated from an entry in the Cambridge 
# Structural Database, then it will include bibliographic, chemical, 
# crystal, experimental, refinement or atomic coordinate data resulting 
# from the CCDC's data processing and validation procedures.
#
#######################################################################

data_SUKLAN
_chemical_formula_moiety         'C18 H18 Cl1 N1 O4'
_chemical_name_systematic        
'ethyl 2-(4-chlorophenyl)-4-nitro-3-phenylbutanoate'
_symmetry_cell_setting           orthorhombic
_symmetry_space_group_name_H-M   'P 21 21 21'
_symmetry_Int_Tables_number      19
_space_group_name_Hall           'P 2ac 2ab'
loop_
_symmetry_equiv_pos_site_id
_symmetry_equiv_pos_as_xyz
1 x,y,z
2 1/2-x,-y,1/2+z
3 1/2+x,1/2-y,-z
4 -x,1/2+y,1/2-z
_cell_length_a                   5.73430(10)
_cell_length_b                   16.0172(2)
_cell_length_c                   20.0446(2)
_cell_angle_alpha                90
_cell_angle_beta                 90
_cell_angle_gamma                90
_cell_volume                     1841.04
_exptl_crystal_description       block
_cell_formula_units_Z            4
loop_
_atom_site_label
_atom_site_type_symbol
_atom_site_fract_x
_atom_site_fract_y
_atom_site_fract_z
Cl1 Cl 0.8112(5) -0.17723(10) 0.55418(7)
O1 O 1.2385(3) 0.08545(16) 0.31137(13)
C1 C 0.8287(5) 0.02185(15) 0.39546(12)
O2 O 0.9757(5) 0.04339(18) 0.23627(12)
O3 O 0.7902(5) 0.30751(19) 0.46564(17)
C2 C 0.8385(4) 0.17835(15) 0.36458(12)
H1 H 0.9819 0.1869 0.3903
N1 N 0.6274(5) 0.28179(17) 0.43399(11)
C3 C 0.8426(4) 0.23625(14) 0.30471(12)
C4 C 0.6302(5) 0.19330(17) 0.41044(13)
H2 H 0.4869 0.1812 0.3866
H3 H 0.6394 0.1561 0.4485
C5 C 0.8315(4) 0.08614(15) 0.34051(12)
H4 H 0.6904 0.0786 0.3136
O4 O 0.4592(7) 0.3241(2) 0.42038(19)
C6 C 0.6487(6) -0.03556(18) 0.39821(16)
H5 H 0.5296 -0.0329 0.3668
C7 C 0.6612(5) 0.23777(18) 0.25916(14)
H6 H 0.5295 0.2053 0.2668
C8 C 0.6425(8) -0.0970(2) 0.44700(19)
H7 H 0.5196 -0.1349 0.4486
C9 C 1.0355(5) 0.28556(19) 0.29229(18)
H8 H 1.1583 0.2862 0.3226
C10 C 1.0415(5) 0.07247(16) 0.29542(14)
C11 C 0.8175(9) -0.1012(2) 0.49226(18)
C12 C 0.6731(7) 0.2870(2) 0.20237(16)
H9 H 0.5490 0.2878 0.1725
C13 C 1.0065(7) 0.0168(3) 0.44240(17)
H10 H 1.1285 0.0550 0.4416
C14 C 1.0014(9) -0.0462(3) 0.4909(2)
H11 H 1.1214 -0.0508 0.5219
C15 C 1.0478(6) 0.3344(2) 0.2348(2)
H12 H 1.1789 0.3670 0.2267
C16 C 0.8670(7) 0.3343(2) 0.19025(18)
H13 H 0.8761 0.3664 0.1517
C17 C 1.1555(13) 0.0247(5) 0.1882(2)
H14 H 1.2628 -0.0166 0.2058
H15 H 1.2424 0.0746 0.1769
C18 C 1.030(2) -0.0087(5) 0.1282(3)
H16 H 1.1412 -0.0277 0.0959
H17 H 0.9355 0.0346 0.1090
H18 H 0.9318 -0.0545 0.1414
loop_
_geom_bond_atom_site_label_1
_geom_bond_atom_site_label_2
_geom_bond_site_symmetry_1
_geom_bond_site_symmetry_2
Cl1 C11 1_555 1_555
O1 C10 1_555 1_555
C1 C5 1_555 1_555
O2 C10 1_555 1_555
O3 N1 1_555 1_555
C2 H1 1_555 1_555
N1 C4 1_555 1_555
C3 C2 1_555 1_555
C4 C2 1_555 1_555
H2 C4 1_555 1_555
H3 C4 1_555 1_555
C5 C2 1_555 1_555
H4 C5 1_555 1_555
O4 N1 1_555 1_555
C6 C1 1_555 1_555
H5 C6 1_555 1_555
C7 C3 1_555 1_555
H6 C7 1_555 1_555
C8 C6 1_555 1_555
H7 C8 1_555 1_555
C9 C3 1_555 1_555
H8 C9 1_555 1_555
C10 C5 1_555 1_555
C11 C8 1_555 1_555
C12 C7 1_555 1_555
H9 C12 1_555 1_555
C13 C1 1_555 1_555
H10 C13 1_555 1_555
C14 C11 1_555 1_555
H11 C14 1_555 1_555
C15 C9 1_555 1_555
H12 C15 1_555 1_555
C16 C12 1_555 1_555
H13 C16 1_555 1_555
C17 O2 1_555 1_555
H14 C17 1_555 1_555
H15 C17 1_555 1_555
C18 C17 1_555 1_555
H16 C18 1_555 1_555
H17 C18 1_555 1_555
H18 C18 1_555 1_555
C13 C14 1_555 1_555
C15 C16 1_555 1_555

#END
