
#######################################################################
#
#                 Cambridge Crystallographic Data Centre
#                                CCDC 
#
#######################################################################
#
# If this CIF has been generated from an entry in the Cambridge 
# Structural Database, then it will include bibliographic, chemical, 
# crystal, experimental, refinement or atomic coordinate data resulting 
# from the CCDC's data processing and validation procedures.
#
#######################################################################

data_SUKTEX
_chemical_formula_moiety         'C23 H24 N2 O6'
_chemical_name_systematic        
'(3R,6R,9S)-3-Benzyloxycarbonylamino-5-oxa-2-oxo-1-aza(4.3.0)bicyclononane-9-carboxylic acid benzyl ester'
_symmetry_cell_setting           orthorhombic
_symmetry_space_group_name_H-M   'P 21 21 21'
_symmetry_Int_Tables_number      19
_space_group_name_Hall           'P 2ac 2ab'
loop_
_symmetry_equiv_pos_site_id
_symmetry_equiv_pos_as_xyz
1 x,y,z
2 1/2+x,1/2-y,-z
3 -x,1/2+y,1/2-z
4 1/2-x,-y,1/2+z
_cell_length_a                   6.334(1)
_cell_length_b                   14.368(1)
_cell_length_c                   23.608(2)
_cell_angle_alpha                90
_cell_angle_beta                 90
_cell_angle_gamma                90
_cell_volume                     2148.49
_exptl_crystal_colour            colorless
_cell_formula_units_Z            4
loop_
_atom_site_label
_atom_site_type_symbol
_atom_site_fract_x
_atom_site_fract_y
_atom_site_fract_z
O1 O -0.4793(3) 0.2847(1) 0.05127(7)
O2 O -0.1046(4) 0.3015(2) 0.24098(9)
O3 O 0.1119(3) 0.4165(1) 0.21729(7)
O4 O -0.0928(5) -0.0319(1) 0.09841(8)
O5 O 0.1052(5) -0.0112(2) 0.02065(9)
O6 O 0.0563(3) 0.2156(2) 0.1104(1)
N1 N -0.2454(3) 0.2937(1) 0.12713(8)
N2 N -0.1384(4) 0.0921(1) 0.03986(8)
C1 C -0.1359(4) 0.2215(2) 0.1063(1)
C2 C -0.2692(4) 0.1466(2) 0.0778(1)
C3 C -0.4622(5) 0.1866(2) 0.0459(1)
C4 C -0.4610(4) 0.3131(2) 0.1078(1)
C5 C -0.4795(5) 0.4183(2) 0.1121(1)
C6 C -0.3187(6) 0.4480(2) 0.1546(2)
C7 C -0.1398(4) 0.3754(2) 0.1499(1)
C8 C -0.0467(4) 0.3572(2) 0.2074(1)
C9 C 0.2043(5) 0.4134(2) 0.2736(1)
C10 C 0.3608(4) 0.4910(2) 0.2776(1)
C11 C 0.5500(5) 0.4773(2) 0.3062(1)
C12 C 0.6966(5) 0.5488(3) 0.3095(2)
C13 C 0.6585(6) 0.6318(3) 0.2841(2)
C14 C 0.4718(6) 0.6464(2) 0.2572(2)
C15 C 0.3228(5) 0.5766(2) 0.2542(1)
C16 C -0.0465(5) 0.0134(2) 0.0577(1)
C17 C 0.220(1) -0.0955(3) 0.0330(2)
C18 C 0.3210(6) -0.1287(2) -0.0197(1)
C19 C 0.2243(8) -0.1908(3) -0.0530(2)
C20 C 0.299(1) -0.2239(4) -0.1010(3)
C21 C 0.476(1) -0.1955(3) -0.1195(2)
C22 C 0.6004(8) -0.1355(4) -0.0922(3)
C23 C 0.5205(9) -0.0984(3) -0.0384(2)
H1 H -0.3196(4) 0.1029(2) 0.1079(1)
H2 H -0.5931(5) 0.1575(2) 0.0616(1)
H3 H -0.4491(5) 0.1706(2) 0.0048(1)
H4 H -0.5728(4) 0.2776(2) 0.1284(1)
H5 H -0.6242(5) 0.4364(2) 0.1249(1)
H6 H -0.4495(5) 0.4476(2) 0.0745(1)
H7 H -0.2645(6) 0.5117(2) 0.1456(2)
H8 H -0.3803(6) 0.4477(2) 0.1936(2)
H9 H -0.0192(4) 0.3927(2) 0.1246(1)
H10 H 0.0914(5) 0.4221(2) 0.3027(1)
H11 H 0.2760(5) 0.3522(2) 0.2798(1)
H12 H 0.5799(5) 0.4160(2) 0.3245(1)
H13 H 0.8314(5) 0.5391(3) 0.3307(2)
H14 H 0.7675(6) 0.6822(3) 0.2851(2)
H15 H 0.4421(6) 0.7081(2) 0.2393(2)
H16 H 0.1849(5) 0.5887(2) 0.2350(1)
H17 H -0.0859(4) 0.1047(1) 0.00067(8)
H18 H 0.331(1) -0.0822(3) 0.0620(2)
H19 H 0.122(1) -0.1440(3) 0.0479(2)
H20 H 0.0844(8) -0.2145(3) -0.0398(2)
H21 H 0.215(1) -0.2701(4) -0.1232(3)
H22 H 0.527(1) -0.2195(3) -0.1568(2)
H23 H 0.7419(8) -0.1167(4) -0.1071(3)
H24 H 0.6045(9) -0.0528(3) -0.0157(2)
loop_
_geom_bond_atom_site_label_1
_geom_bond_atom_site_label_2
_geom_bond_site_symmetry_1
_geom_bond_site_symmetry_2
O1 C3 1_555 1_555
O2 C8 1_555 1_555
O3 C8 1_555 1_555
O4 C16 1_555 1_555
O5 C16 1_555 1_555
O6 C1 1_555 1_555
N1 C1 1_555 1_555
N2 C2 1_555 1_555
C1 C2 1_555 1_555
C2 C3 1_555 1_555
C3 H2 1_555 1_555
C4 O1 1_555 1_555
C5 C4 1_555 1_555
C6 C5 1_555 1_555
C7 N1 1_555 1_555
C8 C7 1_555 1_555
C9 O3 1_555 1_555
C10 C9 1_555 1_555
C11 C10 1_555 1_555
C12 C11 1_555 1_555
C13 C12 1_555 1_555
C14 C13 1_555 1_555
C15 C10 1_555 1_555
C16 N2 1_555 1_555
C17 O5 1_555 1_555
C18 C17 1_555 1_555
C19 C18 1_555 1_555
C20 C19 1_555 1_555
C21 C20 1_555 1_555
C22 C21 1_555 1_555
C23 C18 1_555 1_555
H1 C2 1_555 1_555
H3 C3 1_555 1_555
H4 C4 1_555 1_555
H5 C5 1_555 1_555
H6 C5 1_555 1_555
H7 C6 1_555 1_555
H8 C6 1_555 1_555
H9 C7 1_555 1_555
H10 C9 1_555 1_555
H11 C9 1_555 1_555
H12 C11 1_555 1_555
H13 C12 1_555 1_555
H14 C13 1_555 1_555
H15 C14 1_555 1_555
H16 C15 1_555 1_555
H17 N2 1_555 1_555
H18 C17 1_555 1_555
H19 C17 1_555 1_555
H20 C19 1_555 1_555
H21 C20 1_555 1_555
H22 C21 1_555 1_555
H23 C22 1_555 1_555
H24 C23 1_555 1_555
N1 C4 1_555 1_555
C6 C7 1_555 1_555
C14 C15 1_555 1_555
C22 C23 1_555 1_555

#END
