
#######################################################################
#
#                 Cambridge Crystallographic Data Centre
#                                CCDC 
#
#######################################################################
#
# If this CIF has been generated from an entry in the Cambridge 
# Structural Database, then it will include bibliographic, chemical, 
# crystal, experimental, refinement or atomic coordinate data resulting 
# from the CCDC's data processing and validation procedures.
#
#######################################################################

data_SUKTEY
_chemical_formula_moiety         'C17 H13 Br1 N2 O2'
_chemical_name_systematic        
(R)-5'-Bromo-3'-hydroxy-1-methyl-1',3'-dihydro-1H,2'H-3,3'-biindol-2'-one
_symmetry_cell_setting           monoclinic
_symmetry_space_group_name_H-M   'P 21'
_symmetry_Int_Tables_number      4
_space_group_name_Hall           'P 2yb'
loop_
_symmetry_equiv_pos_site_id
_symmetry_equiv_pos_as_xyz
1 x,y,z
2 -x,1/2+y,-z
_cell_length_a                   10.0446(2)
_cell_length_b                   5.95050(10)
_cell_length_c                   12.6509(2)
_cell_angle_alpha                90
_cell_angle_beta                 106.7460(10)
_cell_angle_gamma                90
_cell_volume                     724.082
_exptl_crystal_colour            colorless
_exptl_crystal_description       rod
_cell_formula_units_Z            2
_exptl_crystal_recrystallization_method 'ethyl acetate/hexanes'
loop_
_atom_site_label
_atom_site_type_symbol
_atom_site_fract_x
_atom_site_fract_y
_atom_site_fract_z
C1 C 0.7490(4) 0.4431(7) 0.1347(3)
C2 C 0.8990(4) 0.3745(7) 0.1492(3)
O1 O 0.7094(3) 0.5931(4) 0.0433(2)
H1 H 0.6242 0.5776 0.0111
C3 C 1.0217(4) 0.4908(7) 0.1921(3)
H2 H 1.0230 0.6361 0.2236
Br1 Br 1.31639(4) 0.53501(8) 0.23903(4)
C4 C 1.1446(4) 0.3837(8) 0.1871(3)
C5 C 1.1447(5) 0.1710(7) 0.1437(3)
H3 H 1.2299 0.1041 0.1419
C6 C 1.0221(4) 0.0554(10) 0.1032(3)
H4 H 1.0210 -0.0902 0.0722
C7 C 0.9008(4) 0.1563(7) 0.1086(3)
C8 C 0.6716(4) 0.2179(7) 0.0937(3)
N1 N 0.7643(3) 0.0709(7) 0.0766(3)
H5 H 0.7424 -0.0641 0.0486
O2 O 0.5469(3) 0.1908(5) 0.0775(2)
C9 C 0.7199(3) 0.5418(10) 0.2348(3)
C10 C 0.7704(4) 0.4687(6) 0.3481(3)
C11 C 0.6364(4) 0.7239(7) 0.2342(4)
H6 H 0.5877 0.8053 0.1701
C12 C 0.7150(4) 0.6180(7) 0.4113(3)
N2 N 0.6330(4) 0.7719(6) 0.3396(3)
C13 C 0.7468(4) 0.6050(7) 0.5249(4)
H7 H 0.7114 0.7105 0.5663
C14 C 0.8326(5) 0.4312(8) 0.5751(4)
H8 H 0.8549 0.4152 0.6530
C15 C 0.8874(5) 0.2791(8) 0.5160(4)
H9 H 0.9461 0.1618 0.5541
C16 C 0.8578(4) 0.2952(7) 0.4018(4)
H10 H 0.8959 0.1912 0.3614
C17 C 0.5576(5) 0.9572(7) 0.3717(4)
H11 H 0.5180 1.0540 0.3077
H12 H 0.6216 1.0450 0.4302
H13 H 0.4827 0.8970 0.3987
loop_
_geom_bond_atom_site_label_1
_geom_bond_atom_site_label_2
_geom_bond_site_symmetry_1
_geom_bond_site_symmetry_2
C1 C2 1_555 1_555
C2 C3 1_555 1_555
O1 C1 1_555 1_555
H1 O1 1_555 1_555
C3 H2 1_555 1_555
Br1 C4 1_555 1_555
C4 C3 1_555 1_555
C5 C4 1_555 1_555
H3 C5 1_555 1_555
C6 C5 1_555 1_555
H4 C6 1_555 1_555
C7 C2 1_555 1_555
C8 C1 1_555 1_555
N1 C7 1_555 1_555
H5 N1 1_555 1_555
O2 C8 1_555 1_555
C9 C1 1_555 1_555
C10 C9 1_555 1_555
C11 C9 1_555 1_555
H6 C11 1_555 1_555
C12 C10 1_555 1_555
N2 C11 1_555 1_555
C13 C12 1_555 1_555
H7 C13 1_555 1_555
C14 C13 1_555 1_555
H8 C14 1_555 1_555
C15 C14 1_555 1_555
H9 C15 1_555 1_555
C16 C10 1_555 1_555
H10 C16 1_555 1_555
C17 N2 1_555 1_555
H11 C17 1_555 1_555
H12 C17 1_555 1_555
H13 C17 1_555 1_555
C6 C7 1_555 1_555
C8 N1 1_555 1_555
C12 N2 1_555 1_555
C15 C16 1_555 1_555

#END
