
#######################################################################
#
#                 Cambridge Crystallographic Data Centre
#                                CCDC 
#
#######################################################################
#
# If this CIF has been generated from an entry in the Cambridge 
# Structural Database, then it will include bibliographic, chemical, 
# crystal, experimental, refinement or atomic coordinate data resulting 
# from the CCDC's data processing and validation procedures.
#
#######################################################################

data_SUKTAU
_chemical_formula_moiety         'C19 H17 Br1 N2 O2'
_chemical_name_systematic        
(R)-7'-Bromo-3'-hydroxy-1,1',5'-trimethyl-1',3'-dihydro-1H,2'H-3,3'-biindol-2'-one
_symmetry_cell_setting           orthorhombic
_symmetry_space_group_name_H-M   'P 21 21 21'
_symmetry_Int_Tables_number      19
_space_group_name_Hall           'P 2ac 2ab'
loop_
_symmetry_equiv_pos_site_id
_symmetry_equiv_pos_as_xyz
1 x,y,z
2 1/2-x,-y,1/2+z
3 -x,1/2+y,1/2-z
4 1/2+x,1/2-y,-z
_cell_length_a                   7.6918(4)
_cell_length_b                   8.7651(5)
_cell_length_c                   24.1432(14)
_cell_angle_alpha                90
_cell_angle_beta                 90
_cell_angle_gamma                90
_cell_volume                     1627.72
_exptl_crystal_colour            colorless
_exptl_crystal_description       'irregular block'
_cell_formula_units_Z            4
_exptl_crystal_recrystallization_method 'ethyl acetate/hexanes'
loop_
_atom_site_label
_atom_site_type_symbol
_atom_site_fract_x
_atom_site_fract_y
_atom_site_fract_z
Br1 Br 1.02383(3) 0.16343(3) 0.779916(9)
N1 N 0.7855(2) 0.25622(19) 0.89580(7)
O1 O 0.68928(19) 0.30611(17) 0.98352(6)
C1 C 0.7231(3) 0.2755(2) 0.84064(8)
C2 C 0.5547(2) 0.3362(2) 0.84282(7)
C3 C 0.6682(2) 0.3075(2) 0.93342(8)
O2 O 0.36764(19) 0.25022(16) 0.91520(6)
H1 H 0.345(4) 0.256(4) 0.9449(13)
C4 C 0.5016(2) 0.3583(2) 0.90289(7)
C5 C 0.4627(3) 0.3689(2) 0.79542(8)
H2 H 0.349(4) 0.410(3) 0.7998(11)
C6 C 0.5364(3) 0.3397(2) 0.74351(8)
C7 C 0.7038(3) 0.2792(3) 0.74168(9)
H3 H 0.752(3) 0.258(3) 0.7080(11)
C8 C 0.7976(2) 0.2478(2) 0.78949(9)
C9 C 0.9444(3) 0.1862(3) 0.91584(10)
H4 H 1.017(6) 0.272(5) 0.9300(17)
H5 H 1.009(5) 0.145(4) 0.8888(14)
H6 H 0.918(4) 0.111(3) 0.9467(11)
C10 C 0.4374(3) 0.3731(3) 0.69097(9)
H7 H 0.489(5) 0.458(4) 0.6728(14)
H8 H 0.323(4) 0.397(4) 0.6961(13)
H9 H 0.445(4) 0.295(3) 0.6654(13)
N2 N 0.4617(2) 0.76328(18) 0.94558(6)
C11 C 0.5510(3) 0.6278(2) 0.94179(7)
H10 H 0.661(3) 0.625(3) 0.9565(10)
C12 C 0.2993(3) 0.7430(2) 0.92296(7)
C13 C 0.4504(3) 0.5192(2) 0.91696(7)
C14 C 0.2872(3) 0.5897(2) 0.90429(7)
C15 C 0.1315(3) 0.5401(2) 0.87944(8)
H11 H 0.120(3) 0.446(3) 0.8672(9)
C16 C -0.0055(3) 0.6415(2) 0.87466(8)
H12 H -0.108(3) 0.607(2) 0.8587(9)
C17 C 0.0099(3) 0.7924(2) 0.89374(8)
H13 H -0.086(4) 0.852(4) 0.8896(12)
C18 C 0.1618(3) 0.8459(3) 0.91772(8)
H14 H 0.177(3) 0.953(3) 0.9307(10)
C19 C 0.5295(3) 0.9062(2) 0.96741(9)
H15 H 0.513(4) 0.980(3) 0.9433(12)
H16 H 0.657(4) 0.893(3) 0.9794(12)
H17 H 0.479(4) 0.934(3) 1.0000(12)
loop_
_geom_bond_atom_site_label_1
_geom_bond_atom_site_label_2
_geom_bond_site_symmetry_1
_geom_bond_site_symmetry_2
Br1 C8 1_555 1_555
N1 C1 1_555 1_555
O1 C3 1_555 1_555
C1 C2 1_555 1_555
C2 C4 1_555 1_555
C3 N1 1_555 1_555
O2 H1 1_555 1_555
C4 C3 1_555 1_555
C5 C2 1_555 1_555
H2 C5 1_555 1_555
C6 C5 1_555 1_555
C7 C6 1_555 1_555
H3 C7 1_555 1_555
C8 C1 1_555 1_555
C9 N1 1_555 1_555
H4 C9 1_555 1_555
H5 C9 1_555 1_555
H6 C9 1_555 1_555
C10 C6 1_555 1_555
H7 C10 1_555 1_555
H8 C10 1_555 1_555
H9 C10 1_555 1_555
N2 C11 1_555 1_555
C11 H10 1_555 1_555
C12 N2 1_555 1_555
C13 C4 1_555 1_555
C14 C12 1_555 1_555
C15 C14 1_555 1_555
H11 C15 1_555 1_555
C16 C15 1_555 1_555
H12 C16 1_555 1_555
C17 C16 1_555 1_555
H13 C17 1_555 1_555
C18 C12 1_555 1_555
H14 C18 1_555 1_555
C19 N2 1_555 1_555
H15 C19 1_555 1_555
H16 C19 1_555 1_555
H17 C19 1_555 1_555
O2 C4 1_555 1_555
C7 C8 1_555 1_555
C11 C13 1_555 1_555
C13 C14 1_555 1_555
C17 C18 1_555 1_555

#END
