
#######################################################################
#
#                 Cambridge Crystallographic Data Centre
#                                CCDC 
#
#######################################################################
#
# If this CIF has been generated from an entry in the Cambridge 
# Structural Database, then it will include bibliographic, chemical, 
# crystal, experimental, refinement or atomic coordinate data resulting 
# from the CCDC's data processing and validation procedures.
#
#######################################################################

data_SUKTUO
_chemical_formula_moiety         'C12 H12 Br1 N1 O2'
_chemical_name_systematic        
(R)-3-Allyl-5-bromo-3-hydroxy-1-methyl-1,3-dihydro-2H-indol-2-one
_symmetry_cell_setting           orthorhombic
_symmetry_space_group_name_H-M   'P 21 21 21'
_symmetry_Int_Tables_number      19
_space_group_name_Hall           'P 2ac 2ab'
loop_
_symmetry_equiv_pos_site_id
_symmetry_equiv_pos_as_xyz
1 x,y,z
2 1/2-x,-y,1/2+z
3 -x,1/2+y,1/2-z
4 1/2+x,1/2-y,-z
_cell_length_a                   7.6831(3)
_cell_length_b                   10.2356(4)
_cell_length_c                   14.8215(6)
_cell_angle_alpha                90
_cell_angle_beta                 90
_cell_angle_gamma                90
_cell_volume                     1165.58
_exptl_crystal_colour            colorless
_exptl_crystal_description       block
_cell_formula_units_Z            4
_exptl_crystal_recrystallization_method 'ethyl acetate'
loop_
_atom_site_label
_atom_site_type_symbol
_atom_site_fract_x
_atom_site_fract_y
_atom_site_fract_z
Br1 Br 0.791856(18) 1.043661(12) 1.030205(9)
C1 C 0.84479(14) 0.50656(11) 0.80030(8)
C2 C 0.80219(16) 0.61417(10) 0.93331(7)
N1 N 0.80838(14) 0.49156(9) 0.88930(6)
O1 O 0.85977(12) 0.41917(8) 0.74428(6)
C3 C 0.86928(14) 0.65337(11) 0.77982(7)
C4 C 0.83674(14) 0.71384(11) 0.87162(7)
H1 H 1.064(3) 0.737(2) 0.7434(13)
O2 O 1.04426(11) 0.66398(9) 0.74944(6)
C5 C 0.83483(14) 0.84320(11) 0.89831(8)
H2 H 0.861(2) 0.9118(17) 0.8582(11)
C6 C 0.79811(16) 0.86772(11) 0.98925(7)
C7 C 0.76424(15) 0.76937(12) 1.05093(8)
H3 H 0.739(2) 0.7856(17) 1.1101(11)
C8 C 0.76525(15) 0.63840(12) 1.02292(8)
H4 H 0.737(2) 0.5717(17) 1.0665(12)
C9 C 0.7859(2) 0.36679(12) 0.93470(8)
H5 H 0.787(3) 0.305(2) 0.8961(12)
H6 H 0.682(2) 0.3656(18) 0.9676(13)
H7 H 0.874(3) 0.354(2) 0.9733(14)
C10 C 0.74215(15) 0.69904(12) 0.70682(8)
H8 H 0.773(2) 0.7935(18) 0.6900(12)
H9 H 0.773(2) 0.6531(16) 0.6536(12)
C11 C 0.55429(17) 0.68180(14) 0.73249(9)
H10 H 0.504(3) 0.739(2) 0.7703(14)
C12 C 0.45532(19) 0.58483(16) 0.70420(11)
H11 H 0.495(3) 0.527(2) 0.6632(14)
H12 H 0.337(2) 0.5756(18) 0.7234(13)
loop_
_geom_bond_atom_site_label_1
_geom_bond_atom_site_label_2
_geom_bond_site_symmetry_1
_geom_bond_site_symmetry_2
Br1 C6 1_555 1_555
C1 N1 1_555 1_555
C2 N1 1_555 1_555
N1 C9 1_555 1_555
O1 C1 1_555 1_555
C3 C1 1_555 1_555
C4 C2 1_555 1_555
H1 O2 1_555 1_555
O2 C3 1_555 1_555
C5 C4 1_555 1_555
H2 C5 1_555 1_555
C6 C5 1_555 1_555
C7 C6 1_555 1_555
H3 C7 1_555 1_555
C8 C2 1_555 1_555
H4 C8 1_555 1_555
C9 H5 1_555 1_555
H6 C9 1_555 1_555
H7 C9 1_555 1_555
C10 C3 1_555 1_555
H8 C10 1_555 1_555
H9 C10 1_555 1_555
C11 C10 1_555 1_555
H10 C11 1_555 1_555
C12 C11 1_555 1_555
H11 C12 1_555 1_555
H12 C12 1_555 1_555
C3 C4 1_555 1_555
C7 C8 1_555 1_555

#END
