
#######################################################################
#
#                 Cambridge Crystallographic Data Centre
#                                CCDC 
#
#######################################################################
#
# If this CIF has been generated from an entry in the Cambridge 
# Structural Database, then it will include bibliographic, chemical, 
# crystal, experimental, refinement or atomic coordinate data resulting 
# from the CCDC's data processing and validation procedures.
#
#######################################################################

data_SUKVEA
_chemical_formula_moiety         'C17 H13 Cl1 N2 O2'
_chemical_name_systematic        
(R)-4'-Chloro-3'-hydroxy-1-methyl-1',3'-dihydro-1H,2'H-3,3'-biindol-2'-one
_symmetry_cell_setting           monoclinic
_symmetry_space_group_name_H-M   'P 21'
_symmetry_Int_Tables_number      4
_space_group_name_Hall           'P 2yb'
loop_
_symmetry_equiv_pos_site_id
_symmetry_equiv_pos_as_xyz
1 x,y,z
2 -x,1/2+y,-z
_cell_length_a                   11.7479(8)
_cell_length_b                   24.5002(17)
_cell_length_c                   15.2909(11)
_cell_angle_alpha                90
_cell_angle_beta                 106.0004(9)
_cell_angle_gamma                90
_cell_volume                     4230.62
_exptl_crystal_colour            colorless
_exptl_crystal_description       plate
_cell_formula_units_Z            12
_exptl_crystal_recrystallization_method 'ethyl acetate/hexanes'
loop_
_atom_site_label
_atom_site_type_symbol
_atom_site_fract_x
_atom_site_fract_y
_atom_site_fract_z
Cl1 Cl 0.75980(7) 0.95969(3) 0.72842(5)
C1 C 0.8710(2) 0.92418(12) 0.56236(19)
C2 C 0.8550(2) 0.88696(12) 0.6367(2)
N1 N 0.9448(2) 0.83517(14) 0.5521(3)
H1 H 0.9734 0.8060 0.5321
O1 O 0.94010(16) 0.96969(8) 0.60066(13)
H2 H 0.9377 0.9930 0.5600
C3 C 0.9413(2) 0.88523(17) 0.5144(3)
C4 C 0.8977(3) 0.83501(15) 0.6268(3)
O2 O 0.9841(2) 0.89926(13) 0.4539(2)
C5 C 0.8969(4) 0.79252(15) 0.6861(4)
H3 H 0.9266 0.7575 0.6773
C6 C 0.8514(5) 0.80283(18) 0.7583(3)
H4 H 0.8506 0.7746 0.8007
C7 C 0.8071(3) 0.85344(16) 0.7697(3)
H5 H 0.7742 0.8596 0.8191
C8 C 0.8101(3) 0.89557(13) 0.7097(2)
C9 C 0.7545(2) 0.93882(12) 0.49380(18)
C10 C 0.6926(2) 0.98988(12) 0.48310(18)
C11 C 0.6870(2) 0.90351(12) 0.43092(19)
H6 H 0.7065 0.8665 0.4235
C12 C 0.5879(2) 0.98201(12) 0.41095(19)
N2 N 0.5871(2) 0.92956(11) 0.38042(16)
C13 C 0.5046(2) 1.02363(14) 0.3811(2)
H7 H 0.4353 1.0179 0.3324
C14 C 0.5266(2) 1.07319(14) 0.4250(2)
H8 H 0.4711 1.1020 0.4066
C15 C 0.6297(2) 1.08195(13) 0.4963(2)
H9 H 0.6427 1.1165 0.5255
C16 C 0.7125(2) 1.04088(12) 0.52463(19)
H10 H 0.7826 1.0475 0.5722
C17 C 0.4904(3) 0.90350(15) 0.3118(2)
H11 H 0.5156 0.8673 0.2972
H12 H 0.4693 0.9260 0.2566
H13 H 0.4213 0.8998 0.3355
Cl2 Cl 0.75193(6) 0.17341(3) 0.27255(5)
C18 C 0.88869(19) 0.14356(10) 0.11972(17)
C19 C 0.8479(2) 0.10193(11) 0.17823(17)
N3 N 0.93488(17) 0.05292(9) 0.08694(15)
H14 H 0.9594 0.0244 0.0623
O3 O 0.97793(15) 0.17915(8) 0.17158(14)
H15 H 1.0115 0.1644 0.2217
C20 C 0.9453(2) 0.10519(11) 0.06158(17)
C21 C 0.87941(19) 0.04999(11) 0.15841(16)
O4 O 0.99175(14) 0.12033(8) 0.00285(13)
C22 C 0.8582(2) 0.00414(11) 0.20393(18)
H16 H 0.8787 -0.0313 0.1882
C23 C 0.8052(2) 0.01226(12) 0.27410(19)
H17 H 0.7911 -0.0184 0.3077
C24 C 0.7725(2) 0.06386(12) 0.29626(17)
H18 H 0.7367 0.0685 0.3444
C25 C 0.7930(2) 0.10848(11) 0.24678(18)
C26 C 0.79393(19) 0.17712(10) 0.05819(17)
C27 C 0.68513(19) 0.15863(10) -0.00499(16)
C28 C 0.7989(2) 0.23196(11) 0.04695(19)
H19 H 0.8615 0.2547 0.0799
C29 C 0.6285(2) 0.20581(10) -0.05059(17)
N4 N 0.70137(18) 0.24994(9) -0.01842(16)
C30 C 0.5195(2) 0.20381(11) -0.11551(18)
H20 H 0.4822 0.2360 -0.1445
C31 C 0.4673(2) 0.15321(11) -0.13633(18)
H21 H 0.3933 0.1504 -0.1812
C32 C 0.5216(2) 0.10579(11) -0.09250(18)
H22 H 0.4834 0.0716 -0.1080
C33 C 0.6298(2) 0.10794(10) -0.02715(17)
H23 H 0.6658 0.0756 0.0021
C34 C 0.6740(3) 0.30642(11) -0.0439(2)
H24 H 0.6202 0.3209 -0.0107
H25 H 0.6360 0.3087 -0.1095
H26 H 0.7472 0.3279 -0.0288
Cl3 Cl 0.75098(7) 0.86043(3) 0.23562(5)
C35 C 0.8754(2) 0.83148(10) 0.07385(18)
C36 C 0.8510(2) 0.79103(11) 0.14119(17)
N5 N 0.93926(18) 0.74205(9) 0.04975(15)
H27 H 0.9653 0.7137 0.0255
O5 O 0.95495(16) 0.87231(7) 0.12018(13)
H28 H 0.9631 0.8961 0.0828
C37 C 0.9414(2) 0.79408(11) 0.02085(17)
C38 C 0.8897(2) 0.73904(10) 0.12387(17)
O6 O 0.98795(15) 0.81029(7) -0.03670(13)
C39 C 0.8784(2) 0.69390(11) 0.17485(19)
H29 H 0.9041 0.6589 0.1615
C40 C 0.8279(2) 0.70139(11) 0.24704(19)
H30 H 0.8206 0.6712 0.2840
C41 C 0.7883(2) 0.75248(12) 0.2651(2)
H31 H 0.7535 0.7570 0.3138
C42 C 0.7999(2) 0.79672(11) 0.21203(18)
C43 C 0.7651(2) 0.85567(10) 0.00924(17)
C44 C 0.6582(2) 0.82835(10) -0.04132(18)
C45 C 0.7539(2) 0.90902(11) -0.0162(2)
H32 H 0.8115 0.9365 0.0070
C46 C 0.5878(2) 0.86919(11) -0.09630(18)
N6 N 0.64789(19) 0.91757(9) -0.08011(17)
C47 C 0.4752(2) 0.85877(11) -0.15413(19)
H33 H 0.4296 0.8868 -0.1905
C48 C 0.4332(2) 0.80601(11) -0.15621(19)
H34 H 0.3572 0.7974 -0.1950
C49 C 0.5011(2) 0.76470(11) -0.10180(19)
H35 H 0.4699 0.7288 -0.1046
C50 C 0.6127(2) 0.77550(11) -0.04414(18)
H36 H 0.6573 0.7474 -0.0072
C51 C 0.5983(2) 0.97030(11) -0.1148(2)
H37 H 0.5436 0.9826 -0.0806
H38 H 0.5555 0.9669 -0.1793
H39 H 0.6624 0.9970 -0.1077
Cl4 Cl 0.77824(6) 0.55640(3) 0.25541(5)
C52 C 0.8848(2) 0.50226(10) 0.09796(17)
C53 C 0.8591(2) 0.47162(10) 0.17676(17)
N7 N 0.93182(18) 0.40829(9) 0.09642(15)
H40 H 0.9553 0.3764 0.0812
O7 O 0.97290(14) 0.54292(7) 0.12899(12)
H41 H 0.9803 0.5613 0.0845
C54 C 0.93731(19) 0.45490(10) 0.05241(17)
C55 C 0.8835(2) 0.41660(11) 0.17064(18)
O8 O 0.97862(14) 0.46001(7) -0.01299(12)
C56 C 0.8585(2) 0.37729(11) 0.22709(18)
H42 H 0.8751 0.3398 0.2204
C57 C 0.8077(2) 0.39494(12) 0.29457(18)
H43 H 0.7889 0.3691 0.3347
C58 C 0.7845(2) 0.44955(12) 0.30359(18)
H44 H 0.7515 0.4610 0.3507
C59 C 0.8092(2) 0.48788(11) 0.24427(18)
C60 C 0.7734(2) 0.52454(10) 0.03346(17)
C61 C 0.6667(2) 0.49480(10) -0.01059(17)
C62 C 0.7536(2) 0.57757(10) 0.00749(17)
H45 H 0.8086 0.6065 0.0274
C63 C 0.5877(2) 0.53346(10) -0.06288(17)
N8 N 0.64207(18) 0.58332(9) -0.05204(15)
C64 C 0.4742(2) 0.51933(11) -0.11554(19)
H46 H 0.4220 0.5458 -0.1505
C65 C 0.4415(2) 0.46576(11) -0.11461(19)
H47 H 0.3651 0.4548 -0.1500
C66 C 0.5183(2) 0.42654(11) -0.06251(19)
H48 H 0.4926 0.3898 -0.0629
C67 C 0.6307(2) 0.44058(10) -0.01062(18)
H49 H 0.6822 0.4138 0.0243
C68 C 0.5884(2) 0.63441(11) -0.0903(2)
H50 H 0.5406 0.6284 -0.1530
H51 H 0.6506 0.6611 -0.0898
H52 H 0.5377 0.6482 -0.0539
Cl5 Cl 0.74306(6) 0.63895(4) 0.74033(5)
C69 C 0.8700(2) 0.59310(15) 0.58816(19)
C70 C 0.8419(2) 0.55909(17) 0.66260(19)
N9 N 0.9332(2) 0.50112(13) 0.58657(17)
H53 H 0.9589 0.4704 0.5689
O9 O 0.94041(17) 0.63836(11) 0.62720(14)
H54 H 0.9538 0.6577 0.5858
C71 C 0.9419(2) 0.55051(16) 0.54944(19)
C72 C 0.8773(2) 0.50511(16) 0.6576(2)
O10 O 0.99743(17) 0.55976(11) 0.49348(14)
C73 C 0.8644(3) 0.46448(17) 0.7161(2)
H55 H 0.8902 0.4282 0.7110
C74 C 0.8109(3) 0.47974(17) 0.7836(2)
H56 H 0.7993 0.4529 0.8253
C75 C 0.7745(3) 0.53267(18) 0.7915(2)
H57 H 0.7392 0.5419 0.8384
C76 C 0.7895(2) 0.57282(16) 0.7304(2)
C77 C 0.7595(2) 0.60689(14) 0.51221(18)
C78 C 0.6999(2) 0.65755(13) 0.48791(19)
C79 C 0.6923(2) 0.56814(14) 0.45576(19)
H58 H 0.7106 0.5303 0.4572
C80 C 0.5964(2) 0.64648(12) 0.41548(18)
N10 N 0.59562(19) 0.59183(11) 0.39730(16)
C81 C 0.5159(3) 0.68666(13) 0.3765(2)
H59 H 0.4476 0.6785 0.3282
C82 C 0.5382(3) 0.73938(14) 0.4103(2)
H60 H 0.4841 0.7678 0.3850
C83 C 0.6379(3) 0.75116(15) 0.4801(2)
H61 H 0.6511 0.7876 0.5018
C84 C 0.7198(3) 0.71084(15) 0.5196(2)
H62 H 0.7881 0.7197 0.5674
C85 C 0.5030(2) 0.56260(13) 0.32990(19)
H63 H 0.4325 0.5593 0.3519
H64 H 0.5316 0.5261 0.3203
H65 H 0.4829 0.5828 0.2724
Cl6 Cl 0.76733(7) 0.29766(4) 0.74548(6)
C86 C 0.8709(2) 0.25061(14) 0.5800(2)
C87 C 0.8498(2) 0.21642(13) 0.65771(18)
N11 N 0.93031(19) 0.15837(13) 0.57450(16)
H66 H 0.9543 0.1276 0.5559
O11 O 0.94659(17) 0.29499(10) 0.61278(17)
H67 H 0.9538 0.3139 0.5687
C88 C 0.9342(2) 0.20732(16) 0.5352(2)
C89 C 0.8824(2) 0.16309(13) 0.64996(18)
O12 O 0.98156(18) 0.21763(11) 0.47460(15)
C90 C 0.8747(2) 0.12227(13) 0.71055(19)
H68 H 0.8982 0.0858 0.7035
C91 C 0.8303(2) 0.13776(14) 0.78259(19)
H69 H 0.8223 0.1110 0.8255
C92 C 0.7975(2) 0.19107(13) 0.79339(19)
H70 H 0.7688 0.2006 0.8437
C93 C 0.8067(2) 0.23047(13) 0.73062(19)
C94 C 0.7563(2) 0.26710(12) 0.51092(19)
C95 C 0.6994(2) 0.31983(12) 0.49744(19)
C96 C 0.6835(2) 0.23219(13) 0.45142(18)
H71 H 0.6989 0.1945 0.4459
C97 C 0.5919(2) 0.31199(12) 0.42763(18)
N12 N 0.58496(19) 0.25917(11) 0.40055(16)
C98 C 0.5117(2) 0.35501(13) 0.3974(2)
H72 H 0.4405 0.3496 0.3504
C99 C 0.5395(3) 0.40516(13) 0.4377(2)
H73 H 0.4859 0.4347 0.4189
C100 C 0.6445(3) 0.41358(13) 0.5058(2)
H74 H 0.6614 0.4487 0.5324
C101 C 0.7250(3) 0.37139(14) 0.5354(2)
H75 H 0.7969 0.3778 0.5812
C102 C 0.4855(3) 0.23387(14) 0.3345(2)
H76 H 0.4179 0.2314 0.3602
H77 H 0.5080 0.1972 0.3199
H78 H 0.4636 0.2560 0.2790
loop_
_geom_bond_atom_site_label_1
_geom_bond_atom_site_label_2
_geom_bond_site_symmetry_1
_geom_bond_site_symmetry_2
Cl1 C8 1_555 1_555
C1 C2 1_555 1_555
C2 C4 1_555 1_555
N1 H1 1_555 1_555
O1 C1 1_555 1_555
H2 O1 1_555 1_555
C3 C1 1_555 1_555
C4 N1 1_555 1_555
O2 C3 1_555 1_555
C5 C4 1_555 1_555
H3 C5 1_555 1_555
C6 C5 1_555 1_555
H4 C6 1_555 1_555
C7 C6 1_555 1_555
H5 C7 1_555 1_555
C8 C2 1_555 1_555
C9 C1 1_555 1_555
C10 C9 1_555 1_555
C11 C9 1_555 1_555
H6 C11 1_555 1_555
C12 C10 1_555 1_555
N2 C11 1_555 1_555
C13 C12 1_555 1_555
H7 C13 1_555 1_555
C14 C13 1_555 1_555
H8 C14 1_555 1_555
C15 C14 1_555 1_555
H9 C15 1_555 1_555
C16 C10 1_555 1_555
H10 C16 1_555 1_555
C17 N2 1_555 1_555
H11 C17 1_555 1_555
H12 C17 1_555 1_555
H13 C17 1_555 1_555
Cl2 C25 1_555 1_555
C18 C19 1_555 1_555
C19 C21 1_555 1_555
N3 H14 1_555 1_555
O3 C18 1_555 1_555
H15 O3 1_555 1_555
C20 C18 1_555 1_555
C21 N3 1_555 1_555
O4 C20 1_555 1_555
C22 C21 1_555 1_555
H16 C22 1_555 1_555
C23 C22 1_555 1_555
H17 C23 1_555 1_555
C24 C23 1_555 1_555
H18 C24 1_555 1_555
C25 C19 1_555 1_555
C26 C18 1_555 1_555
C27 C26 1_555 1_555
C28 C26 1_555 1_555
H19 C28 1_555 1_555
C29 C27 1_555 1_555
N4 C28 1_555 1_555
C30 C29 1_555 1_555
H20 C30 1_555 1_555
C31 C30 1_555 1_555
H21 C31 1_555 1_555
C32 C31 1_555 1_555
H22 C32 1_555 1_555
C33 C27 1_555 1_555
H23 C33 1_555 1_555
C34 N4 1_555 1_555
H24 C34 1_555 1_555
H25 C34 1_555 1_555
H26 C34 1_555 1_555
Cl3 C42 1_555 1_555
C35 C36 1_555 1_555
C36 C38 1_555 1_555
N5 H27 1_555 1_555
O5 C35 1_555 1_555
H28 O5 1_555 1_555
C37 C35 1_555 1_555
C38 N5 1_555 1_555
O6 C37 1_555 1_555
C39 C38 1_555 1_555
H29 C39 1_555 1_555
C40 C39 1_555 1_555
H30 C40 1_555 1_555
C41 C40 1_555 1_555
H31 C41 1_555 1_555
C42 C36 1_555 1_555
C43 C35 1_555 1_555
C44 C43 1_555 1_555
C45 C43 1_555 1_555
H32 C45 1_555 1_555
C46 C44 1_555 1_555
N6 C45 1_555 1_555
C47 C46 1_555 1_555
H33 C47 1_555 1_555
C48 C47 1_555 1_555
H34 C48 1_555 1_555
C49 C48 1_555 1_555
H35 C49 1_555 1_555
C50 C44 1_555 1_555
H36 C50 1_555 1_555
C51 N6 1_555 1_555
H37 C51 1_555 1_555
H38 C51 1_555 1_555
H39 C51 1_555 1_555
Cl4 C59 1_555 1_555
C52 C53 1_555 1_555
C53 C55 1_555 1_555
N7 H40 1_555 1_555
O7 C52 1_555 1_555
H41 O7 1_555 1_555
C54 C52 1_555 1_555
C55 N7 1_555 1_555
O8 C54 1_555 1_555
C56 C55 1_555 1_555
H42 C56 1_555 1_555
C57 C56 1_555 1_555
H43 C57 1_555 1_555
C58 C57 1_555 1_555
H44 C58 1_555 1_555
C59 C53 1_555 1_555
C60 C52 1_555 1_555
C61 C60 1_555 1_555
C62 C60 1_555 1_555
H45 C62 1_555 1_555
C63 C61 1_555 1_555
N8 C62 1_555 1_555
C64 C63 1_555 1_555
H46 C64 1_555 1_555
C65 C64 1_555 1_555
H47 C65 1_555 1_555
C66 C65 1_555 1_555
H48 C66 1_555 1_555
C67 C61 1_555 1_555
H49 C67 1_555 1_555
C68 N8 1_555 1_555
H50 C68 1_555 1_555
H51 C68 1_555 1_555
H52 C68 1_555 1_555
Cl5 C76 1_555 1_555
C69 C70 1_555 1_555
C70 C72 1_555 1_555
N9 H53 1_555 1_555
O9 C69 1_555 1_555
H54 O9 1_555 1_555
C71 C69 1_555 1_555
C72 N9 1_555 1_555
O10 C71 1_555 1_555
C73 C72 1_555 1_555
H55 C73 1_555 1_555
C74 C73 1_555 1_555
H56 C74 1_555 1_555
C75 C74 1_555 1_555
H57 C75 1_555 1_555
C76 C70 1_555 1_555
C77 C69 1_555 1_555
C78 C77 1_555 1_555
C79 C77 1_555 1_555
H58 C79 1_555 1_555
C80 C78 1_555 1_555
N10 C79 1_555 1_555
C81 C80 1_555 1_555
H59 C81 1_555 1_555
C82 C81 1_555 1_555
H60 C82 1_555 1_555
C83 C82 1_555 1_555
H61 C83 1_555 1_555
C84 C78 1_555 1_555
H62 C84 1_555 1_555
C85 N10 1_555 1_555
H63 C85 1_555 1_555
H64 C85 1_555 1_555
H65 C85 1_555 1_555
Cl6 C93 1_555 1_555
C86 C87 1_555 1_555
C87 C89 1_555 1_555
N11 H66 1_555 1_555
O11 C86 1_555 1_555
H67 O11 1_555 1_555
C88 C86 1_555 1_555
C89 N11 1_555 1_555
O12 C88 1_555 1_555
C90 C89 1_555 1_555
H68 C90 1_555 1_555
C91 C90 1_555 1_555
H69 C91 1_555 1_555
C92 C91 1_555 1_555
H70 C92 1_555 1_555
C93 C87 1_555 1_555
C94 C86 1_555 1_555
C95 C94 1_555 1_555
C96 C94 1_555 1_555
H71 C96 1_555 1_555
C97 C95 1_555 1_555
N12 C96 1_555 1_555
C98 C97 1_555 1_555
H72 C98 1_555 1_555
C99 C98 1_555 1_555
H73 C99 1_555 1_555
C100 C99 1_555 1_555
H74 C100 1_555 1_555
C101 C95 1_555 1_555
H75 C101 1_555 1_555
C102 N12 1_555 1_555
H76 C102 1_555 1_555
H77 C102 1_555 1_555
H78 C102 1_555 1_555
N1 C3 1_555 1_555
C7 C8 1_555 1_555
C12 N2 1_555 1_555
C15 C16 1_555 1_555
N3 C20 1_555 1_555
C24 C25 1_555 1_555
C29 N4 1_555 1_555
C32 C33 1_555 1_555
N5 C37 1_555 1_555
C41 C42 1_555 1_555
C46 N6 1_555 1_555
C49 C50 1_555 1_555
N7 C54 1_555 1_555
C58 C59 1_555 1_555
C63 N8 1_555 1_555
C66 C67 1_555 1_555
N9 C71 1_555 1_555
C75 C76 1_555 1_555
C80 N10 1_555 1_555
C83 C84 1_555 1_555
N11 C88 1_555 1_555
C92 C93 1_555 1_555
C97 N12 1_555 1_555
C100 C101 1_555 1_555

#END
