
#######################################################################
#
#                 Cambridge Crystallographic Data Centre
#                                CCDC 
#
#######################################################################
#
# If this CIF has been generated from an entry in the Cambridge 
# Structural Database, then it will include bibliographic, chemical, 
# crystal, experimental, refinement or atomic coordinate data resulting 
# from the CCDC's data processing and validation procedures.
#
#######################################################################

data_SUKVAW
_chemical_formula_moiety         'C17 H15 N1 O3'
_chemical_name_systematic        
(S)-3-Hydroxy-1-methyl-3-(2-oxo-2-phenylethyl)-1,3-dihydro-2H-indol-2-one
_symmetry_cell_setting           triclinic
_symmetry_space_group_name_H-M   'P -1'
_symmetry_Int_Tables_number      2
_space_group_name_Hall           '-P 1'
loop_
_symmetry_equiv_pos_site_id
_symmetry_equiv_pos_as_xyz
1 x,y,z
2 -x,-y,-z
_cell_length_a                   11.1346(10)
_cell_length_b                   11.6386(10)
_cell_length_c                   12.4163(11)
_cell_angle_alpha                72.122(1)
_cell_angle_beta                 64.642(1)
_cell_angle_gamma                74.310(1)
_cell_volume                     1365.62
_exptl_crystal_colour            colorless
_exptl_crystal_description       block
_cell_formula_units_Z            4
loop_
_atom_site_label
_atom_site_type_symbol
_atom_site_fract_x
_atom_site_fract_y
_atom_site_fract_z
N1 N 0.90717(12) 0.16015(11) 0.36567(11)
C1 C 0.95710(14) 0.26653(13) 0.32236(13)
C2 C 0.86486(14) 0.12478(13) 0.49421(13)
O1 O 0.99985(11) 0.32003(10) 0.21467(9)
C3 C 0.95753(14) 0.30601(13) 0.43067(13)
C4 C 0.89105(14) 0.20922(13) 0.53716(13)
O2 O 1.09494(10) 0.29277(10) 0.41677(10)
H1 H 1.128(2) 0.357(2) 0.359(2)
C5 C 0.85890(15) 0.19331(14) 0.66076(13)
H2 H 0.8784(17) 0.2514(15) 0.6887(15)
C6 C 0.80021(16) 0.09157(14) 0.74051(14)
H3 H 0.7806(18) 0.0760(16) 0.8291(17)
C7 C 0.77608(16) 0.00793(14) 0.69597(15)
H4 H 0.742(2) -0.0624(18) 0.7544(19)
C8 C 0.80809(15) 0.02313(14) 0.57101(14)
H5 H 0.7931(18) -0.0366(16) 0.5398(16)
C9 C 0.88867(14) 0.43817(13) 0.43761(13)
H6 H 0.8749(19) 0.4522(16) 0.5164(18)
H7 H 0.9487(17) 0.4923(15) 0.3759(16)
C10 C 0.75716(14) 0.47255(13) 0.41866(12)
O3 O 0.70956(10) 0.39541(9) 0.40782(10)
C11 C 0.68892(14) 0.60240(13) 0.41067(12)
C12 C 0.57131(15) 0.63528(14) 0.38575(13)
H8 H 0.533(2) 0.5694(18) 0.3766(18)
C13 C 0.50555(16) 0.75512(15) 0.37640(14)
H9 H 0.430(2) 0.7759(18) 0.3598(18)
C14 C 0.55628(16) 0.84347(14) 0.39079(14)
H10 H 0.5106(18) 0.9257(17) 0.3839(16)
C15 C 0.67318(17) 0.81186(14) 0.41534(15)
H11 H 0.709(2) 0.8722(19) 0.4239(19)
C16 C 0.73965(15) 0.69146(14) 0.42513(14)
H12 H 0.8241(19) 0.6675(17) 0.4446(17)
C17 C 0.89172(17) 0.09504(14) 0.29110(15)
H13 H 0.9339(18) 0.0084(17) 0.3074(16)
H14 H 0.794(2) 0.1023(18) 0.3099(18)
H15 H 0.937(2) 0.1295(18) 0.207(2)
N2 N 0.35075(12) 0.60663(11) 0.10485(11)
C18 C 0.23430(14) 0.56045(12) 0.15586(13)
C19 C 0.39052(14) 0.64513(12) -0.02316(13)
O4 O 0.17762(10) 0.51747(9) 0.26505(9)
C20 C 0.19079(14) 0.56130(12) 0.05256(13)
C21 C 0.29712(14) 0.62321(12) -0.05878(13)
O5 O 0.20903(11) 0.43733(9) 0.04501(10)
H16 H 0.142(2) 0.4003(19) 0.106(2)
C22 C 0.31602(15) 0.65056(13) -0.18036(13)
H17 H 0.2512(19) 0.6308(16) -0.2037(16)
C23 C 0.43048(16) 0.70032(14) -0.26719(14)
H18 H 0.4468(18) 0.7172(16) -0.3512(17)
C24 C 0.52310(15) 0.72135(14) -0.23063(14)
H19 H 0.6021(19) 0.7569(16) -0.2927(17)
C25 C 0.50478(15) 0.69364(13) -0.10668(14)
H20 H 0.5724(18) 0.7052(15) -0.0844(15)
C26 C 0.04493(14) 0.62152(13) 0.07028(13)
H21 H 0.0286(17) 0.6237(16) -0.0039(16)
H22 H -0.0129(19) 0.5700(17) 0.1395(17)
C27 C 0.00955(14) 0.74977(13) 0.09246(12)
O6 O 0.08563(11) 0.78833(9) 0.11500(10)
C28 C -0.12004(14) 0.82679(13) 0.08724(12)
C29 C -0.14867(15) 0.94640(13) 0.10300(13)
H23 H -0.0837(18) 0.9739(16) 0.1171(16)
C30 C -0.26695(16) 1.02184(13) 0.09900(13)
H24 H -0.2843(17) 1.1009(16) 0.1098(15)
C31 C -0.35827(15) 0.97879(14) 0.07881(14)
H25 H -0.444(2) 1.0316(18) 0.0753(19)
C32 C -0.33125(15) 0.86008(14) 0.06277(14)
H26 H -0.3958(19) 0.8304(16) 0.0470(16)
C33 C -0.21271(15) 0.78351(13) 0.06715(13)
H27 H -0.1947(18) 0.6994(17) 0.0583(16)
C34 C 0.42441(16) 0.61601(15) 0.17339(14)
H28 H 0.517(2) 0.5825(18) 0.1370(19)
H29 H 0.4161(19) 0.7021(18) 0.1755(17)
H30 H 0.391(2) 0.5697(18) 0.2558(19)
loop_
_geom_bond_atom_site_label_1
_geom_bond_atom_site_label_2
_geom_bond_site_symmetry_1
_geom_bond_site_symmetry_2
N1 C1 1_555 1_555
C1 O1 1_555 1_555
C2 N1 1_555 1_555
C3 C1 1_555 1_555
C4 C2 1_555 1_555
O2 C3 1_555 1_555
H1 O2 1_555 1_555
C5 C4 1_555 1_555
H2 C5 1_555 1_555
C6 C5 1_555 1_555
H3 C6 1_555 1_555
C7 C6 1_555 1_555
H4 C7 1_555 1_555
C8 C2 1_555 1_555
H5 C8 1_555 1_555
C9 C3 1_555 1_555
H6 C9 1_555 1_555
H7 C9 1_555 1_555
C10 C9 1_555 1_555
O3 C10 1_555 1_555
C11 C10 1_555 1_555
C12 C11 1_555 1_555
H8 C12 1_555 1_555
C13 C12 1_555 1_555
H9 C13 1_555 1_555
C14 C13 1_555 1_555
H10 C14 1_555 1_555
C15 C14 1_555 1_555
H11 C15 1_555 1_555
C16 C11 1_555 1_555
H12 C16 1_555 1_555
C17 N1 1_555 1_555
H13 C17 1_555 1_555
H14 C17 1_555 1_555
H15 C17 1_555 1_555
N2 C18 1_555 1_555
C18 O4 1_555 1_555
C19 N2 1_555 1_555
C20 C18 1_555 1_555
C21 C19 1_555 1_555
O5 C20 1_555 1_555
H16 O5 1_555 1_555
C22 C21 1_555 1_555
H17 C22 1_555 1_555
C23 C22 1_555 1_555
H18 C23 1_555 1_555
C24 C23 1_555 1_555
H19 C24 1_555 1_555
C25 C19 1_555 1_555
H20 C25 1_555 1_555
C26 C20 1_555 1_555
H21 C26 1_555 1_555
H22 C26 1_555 1_555
C27 C26 1_555 1_555
O6 C27 1_555 1_555
C28 C27 1_555 1_555
C29 C28 1_555 1_555
H23 C29 1_555 1_555
C30 C29 1_555 1_555
H24 C30 1_555 1_555
C31 C30 1_555 1_555
H25 C31 1_555 1_555
C32 C31 1_555 1_555
H26 C32 1_555 1_555
C33 C28 1_555 1_555
H27 C33 1_555 1_555
C34 N2 1_555 1_555
H28 C34 1_555 1_555
H29 C34 1_555 1_555
H30 C34 1_555 1_555
C3 C4 1_555 1_555
C7 C8 1_555 1_555
C15 C16 1_555 1_555
C20 C21 1_555 1_555
C24 C25 1_555 1_555
C32 C33 1_555 1_555

#END
