
#######################################################################
#
#                 Cambridge Crystallographic Data Centre
#                                CCDC 
#
#######################################################################
#
# If this CIF has been generated from an entry in the Cambridge 
# Structural Database, then it will include bibliographic, chemical, 
# crystal, experimental, refinement or atomic coordinate data resulting 
# from the CCDC's data processing and validation procedures.
#
#######################################################################

data_SUKZEE
_chemical_formula_moiety         'C21 H19 N1 O5 S1'
_chemical_name_systematic        
'Ethyl 1-benzoyl-4,4a,9b,9c-tetrahydro-1H-2,3-dioxa-5-thia-2a-azapentaleno[1,6-ab]naphthalene-4-carboxylate'
_symmetry_cell_setting           orthorhombic
_symmetry_space_group_name_H-M   'P n a 21'
_symmetry_Int_Tables_number      33
_space_group_name_Hall           'P 2c -2n'
loop_
_symmetry_equiv_pos_site_id
_symmetry_equiv_pos_as_xyz
1 x,y,z
2 -x,-y,1/2+z
3 1/2+x,1/2-y,z
4 1/2-x,1/2+y,1/2+z
_cell_length_a                   18.8378(5)
_cell_length_b                   22.0174(14)
_cell_length_c                   9.3272(3)
_cell_angle_alpha                90
_cell_angle_beta                 90
_cell_angle_gamma                90
_cell_volume                     3868.54
_exptl_crystal_colour            colorless
_exptl_crystal_description       plate
_cell_formula_units_Z            8
loop_
_atom_site_label
_atom_site_type_symbol
_atom_site_fract_x
_atom_site_fract_y
_atom_site_fract_z
C1 C 1.08435(14) 0.66721(13) 0.7320(4)
C2 C 1.13196(19) 0.62671(16) 0.6697(4)
H1 H 1.1154 0.5920 0.6239
C3 C 1.20350(19) 0.63838(17) 0.6762(4)
H2 H 1.2352 0.6119 0.6323
C4 C 1.22871(17) 0.68855(17) 0.7466(5)
H3 H 1.2773 0.6952 0.7534
C5 C 1.18191(17) 0.72893(16) 0.8070(4)
H4 H 1.1993 0.7632 0.8536
C6 C 1.10891(16) 0.71946(14) 0.7996(3)
C7 C 1.05808(16) 0.76442(15) 0.8651(4)
H5 H 1.0852 0.7923 0.9259
C8 C 0.99961(15) 0.73548(13) 0.9559(4)
H6 H 1.0159 0.7326 1.0554
C9 C 0.96955(15) 0.67410(14) 0.9098(3)
H7 H 0.9839 0.6423 0.9774
C10 C 1.01463(16) 0.80173(14) 0.7596(4)
H8 H 0.9950 0.7759 0.6838
C11 C 1.05015(19) 0.85801(16) 0.6960(5)
C12 C 1.00768(17) 0.89666(14) 0.5994(4)
C13 C 1.03826(19) 0.94802(16) 0.5419(4)
H9 H 1.0848 0.9579 0.5653
C14 C 1.0006(3) 0.98474(16) 0.4504(5)
H10 H 1.0219 1.0191 0.4115
C15 C 0.9321(2) 0.97099(18) 0.4163(5)
H11 H 0.9063 0.9965 0.3562
C16 C 0.90139(19) 0.91955(17) 0.4708(5)
H12 H 0.8549 0.9098 0.4461
C17 C 0.93843(18) 0.88269(15) 0.5609(4)
H13 H 0.9171 0.8478 0.5969
C18 C 0.88978(15) 0.68629(15) 0.9220(4)
H14 H 0.8761 0.6852 1.0234
C19 C 0.84114(16) 0.64555(17) 0.8383(4)
C20 C 0.7862(5) 0.5520(3) 0.8320(9)
H15 H 0.7991 0.5417 0.7343
H16 H 0.7402 0.5718 0.8315
C21 C 0.7853(5) 0.4959(3) 0.9267(10)
H17 H 0.8299 0.4751 0.9188
H18 H 0.7477 0.4693 0.8965
H19 H 0.7777 0.5077 1.0245
N1 N 0.93755(14) 0.78001(12) 0.9482(3)
O1 O 0.95830(12) 0.82528(10) 0.8515(3)
O2 O 0.88201(11) 0.74608(11) 0.8702(3)
O3 O 1.11165(15) 0.86869(14) 0.7249(5)
O4 O 0.80762(12) 0.66003(12) 0.7370(3)
O5 O 0.84020(13) 0.59110(12) 0.8981(3)
S2 S 0.99211(4) 0.65203(3) 0.72654(11)
C22 C 0.66434(15) 0.65261(13) 0.2346(4)
C23 C 0.6173(2) 0.61096(16) 0.1749(4)
H20 H 0.6344 0.5758 0.1318
C24 C 0.5452(2) 0.62200(19) 0.1800(4)
H21 H 0.5137 0.5950 0.1372
C25 C 0.52001(18) 0.67239(18) 0.2477(5)
H22 H 0.4713 0.6786 0.2549
C26 C 0.56582(18) 0.71381(16) 0.3050(4)
H23 H 0.5480 0.7484 0.3495
C27 C 0.63935(15) 0.70487(13) 0.2978(3)
C28 C 0.68934(16) 0.75176(15) 0.3570(4)
H24 H 0.6618 0.7794 0.4176
C29 C 0.74997(15) 0.72583(14) 0.4479(4)
H25 H 0.7345 0.7238 0.5481
C30 C 0.78156(15) 0.66463(14) 0.4053(3)
H26 H 0.7693 0.6337 0.4768
C31 C 0.72997(15) 0.78956(13) 0.2499(4)
H27 H 0.7500 0.7636 0.1746
C32 C 0.69024(19) 0.84283(15) 0.1838(4)
C33 C 0.72930(17) 0.88578(14) 0.0906(4)
C34 C 0.69394(19) 0.93684(15) 0.0388(5)
H28 H 0.6467 0.9432 0.0637
C35 C 0.7277(2) 0.97773(17) -0.0482(5)
H29 H 0.7036 1.0116 -0.0827
C36 C 0.7973(2) 0.96835(17) -0.0838(5)
H30 H 0.8205 0.9966 -0.1413
C37 C 0.8334(2) 0.91818(17) -0.0364(5)
H31 H 0.8803 0.9118 -0.0636
C38 C 0.79917(18) 0.87708(15) 0.0527(4)
H32 H 0.8236 0.8434 0.0870
C39 C 0.86109(15) 0.67891(15) 0.4124(4)
H33 H 0.8760 0.6796 0.5130
C40 C 0.91030(18) 0.63874(19) 0.3300(4)
C41 C 0.9505(6) 0.5399(6) 0.2985(13)
H34 H 0.9230 0.5036 0.2792
H35 H 0.9638 0.5580 0.2076
C42 C 1.0122(6) 0.5248(6) 0.3778(17)
H36 H 1.0453 0.5579 0.3735
H37 H 1.0335 0.4890 0.3379
H38 H 0.9994 0.5173 0.4759
N2 N 0.80936(14) 0.77191(13) 0.4355(3)
O6 O 0.78621(13) 0.81557(10) 0.3363(3)
O7 O 0.86542(12) 0.73870(11) 0.3561(3)
O8 O 0.62723(14) 0.84884(13) 0.2091(5)
O9 O 0.94730(13) 0.65488(14) 0.2345(4)
O10 O 0.90788(15) 0.58306(14) 0.3824(3)
S1 S 0.75697(4) 0.63860(3) 0.22637(11)
C43? C 0.8197(8) 0.5376(7) 0.813(2)
C44? C 0.7449(10) 0.5234(11) 0.871(3)
C45? C 0.9422(9) 0.5295(7) 0.3188(17)
C46? C 0.9839(14) 0.5016(9) 0.439(2)
H39? H 0.8519 0.5040 0.8297
H40? H 0.8186 0.5469 0.7117
H41? H 0.7429 0.5325 0.9712
H42? H 0.7345 0.4812 0.8558
H43? H 0.7106 0.5477 0.8205
H44? H 0.9732 0.5413 0.2406
H45? H 0.9070 0.5013 0.2827
H46? H 1.0100 0.5327 0.4881
H47? H 1.0164 0.4722 0.4006
H48? H 0.9521 0.4821 0.5047
loop_
_geom_bond_atom_site_label_1
_geom_bond_atom_site_label_2
_geom_bond_site_symmetry_1
_geom_bond_site_symmetry_2
C1 C2 1_555 1_555
C2 H1 1_555 1_555
C3 C2 1_555 1_555
H2 C3 1_555 1_555
C4 C3 1_555 1_555
H3 C4 1_555 1_555
C5 C4 1_555 1_555
H4 C5 1_555 1_555
C6 C1 1_555 1_555
C7 C6 1_555 1_555
H5 C7 1_555 1_555
C8 C7 1_555 1_555
H6 C8 1_555 1_555
C9 C8 1_555 1_555
H7 C9 1_555 1_555
C10 C7 1_555 1_555
H8 C10 1_555 1_555
C11 C10 1_555 1_555
C12 C11 1_555 1_555
C13 C12 1_555 1_555
H9 C13 1_555 1_555
C14 C13 1_555 1_555
H10 C14 1_555 1_555
C15 C14 1_555 1_555
H11 C15 1_555 1_555
C16 C15 1_555 1_555
H12 C16 1_555 1_555
C17 C12 1_555 1_555
H13 C17 1_555 1_555
C18 C9 1_555 1_555
H14 C18 1_555 1_555
C19 C18 1_555 1_555
C20 H15 1_555 1_555
H16 C20 1_555 1_555
C21 C20 1_555 1_555
H17 C21 1_555 1_555
H18 C21 1_555 1_555
H19 C21 1_555 1_555
C22 C23 1_555 1_555
C23 H20 1_555 1_555
C24 C23 1_555 1_555
H21 C24 1_555 1_555
C25 C24 1_555 1_555
H22 C25 1_555 1_555
C26 C25 1_555 1_555
H23 C26 1_555 1_555
C27 C22 1_555 1_555
C28 C27 1_555 1_555
H24 C28 1_555 1_555
C29 C28 1_555 1_555
H25 C29 1_555 1_555
C30 C29 1_555 1_555
H26 C30 1_555 1_555
C31 C28 1_555 1_555
H27 C31 1_555 1_555
C32 C31 1_555 1_555
C33 C32 1_555 1_555
C34 C33 1_555 1_555
H28 C34 1_555 1_555
C35 C34 1_555 1_555
H29 C35 1_555 1_555
C36 C35 1_555 1_555
H30 C36 1_555 1_555
C37 C36 1_555 1_555
H31 C37 1_555 1_555
C38 C33 1_555 1_555
H32 C38 1_555 1_555
C39 C30 1_555 1_555
H33 C39 1_555 1_555
C40 C39 1_555 1_555
C41 H34 1_555 1_555
H35 C41 1_555 1_555
C42 C41 1_555 1_555
H36 C42 1_555 1_555
H37 C42 1_555 1_555
H38 C42 1_555 1_555
N1 C8 1_555 1_555
N2 C29 1_555 1_555
O1 C10 1_555 1_555
O2 C18 1_555 1_555
O3 C11 1_555 1_555
O4 C19 1_555 1_555
O5 C19 1_555 1_555
O6 C31 1_555 1_555
O7 C39 1_555 1_555
O8 C32 1_555 1_555
O9 C40 1_555 1_555
O10 C40 1_555 1_555
S1 C22 1_555 1_555
S2 C1 1_555 1_555
C5 C6 1_555 1_555
C9 S2 1_555 1_555
C16 C17 1_555 1_555
C20 O5 1_555 1_555
C26 C27 1_555 1_555
C30 S1 1_555 1_555
C37 C38 1_555 1_555
C41 O10 1_555 1_555
N1 O1 1_555 1_555
N1 O2 1_555 1_555
N2 O6 1_555 1_555
N2 O7 1_555 1_555

#END
