
#######################################################################
#
#                 Cambridge Crystallographic Data Centre
#                                CCDC 
#
#######################################################################
#
# If this CIF has been generated from an entry in the Cambridge 
# Structural Database, then it will include bibliographic, chemical, 
# crystal, experimental, refinement or atomic coordinate data resulting 
# from the CCDC's data processing and validation procedures.
#
#######################################################################

data_SULAMD07
_chemical_name_common            Sulfanilamide
_chemical_formula_moiety         'C6 H8 N2 O2 S1'
_chemical_name_systematic        4-Aminobenzenesulfonamide
_chemical_properties_biological  'antibacterial activity'
_symmetry_cell_setting           monoclinic
_symmetry_space_group_name_H-M   'P 21/c'
_symmetry_Int_Tables_number      14
_space_group_name_Hall           '-P 2ybc'
loop_
_symmetry_equiv_pos_site_id
_symmetry_equiv_pos_as_xyz
1 x,y,z
2 -x,1/2+y,1/2-z
3 -x,-y,-z
4 x,1/2-y,1/2+z
_cell_length_a                   8.869(2)
_cell_length_b                   8.915(2)
_cell_length_c                   9.962(2)
_cell_angle_alpha                90
_cell_angle_beta                 110.40(3)
_cell_angle_gamma                90
_cell_volume                     738.266
_exptl_crystal_colour            colorless
_exptl_crystal_description       block
_cell_formula_units_Z            4
loop_
_atom_site_label
_atom_site_type_symbol
_atom_site_fract_x
_atom_site_fract_y
_atom_site_fract_z
S1 S 0.08002(3) 0.14322(3) 0.78850(3)
O1 O 0.00539(11) 0.13798(10) 0.63434(10)
O2 O 0.11481(11) 0.00364(10) 0.86599(10)
C1 C 0.26127(14) 0.24115(13) 0.82767(12)
C2 C 0.26677(15) 0.37103(13) 0.75083(13)
C3 C 0.40009(14) 0.18930(13) 0.93462(13)
C4 C 0.54437(14) 0.26463(14) 0.96302(13)
C5 C 0.41013(15) 0.44766(14) 0.78079(12)
N1 N 0.69477(13) 0.46811(14) 0.91053(13)
C6 C 0.55194(14) 0.39526(14) 0.88616(12)
N2 N -0.04495(13) 0.23372(13) 0.84359(12)
H1 H 0.642(2) 0.2302(18) 1.0385(18)
H2 H 0.173(2) 0.409(2) 0.6815(18)
H3 H 0.396(2) 0.098(2) 0.9888(19)
H4 H 0.411(2) 0.543(2) 0.7277(19)
H5 H 0.779(2) 0.445(2) 0.990(2)
H6 H -0.014(2) 0.247(2) 0.934(2)
H7 H -0.077(2) 0.318(2) 0.800(2)
H8 H 0.691(2) 0.558(2) 0.879(2)
loop_
_geom_bond_atom_site_label_1
_geom_bond_atom_site_label_2
_geom_bond_site_symmetry_1
_geom_bond_site_symmetry_2
S1 O1 1_555 1_555
O2 S1 1_555 1_555
C1 S1 1_555 1_555
C2 C1 1_555 1_555
C3 C1 1_555 1_555
C4 C3 1_555 1_555
C5 C2 1_555 1_555
N1 C6 1_555 1_555
C6 C4 1_555 1_555
N2 S1 1_555 1_555
H1 C4 1_555 1_555
H2 C2 1_555 1_555
H3 C3 1_555 1_555
H4 C5 1_555 1_555
H5 N1 1_555 1_555
H6 N2 1_555 1_555
H7 N2 1_555 1_555
H8 N1 1_555 1_555
C5 C6 1_555 1_555

#END
