
#######################################################################
#
#                 Cambridge Crystallographic Data Centre
#                                CCDC 
#
#######################################################################
#
# If this CIF has been generated from an entry in the Cambridge 
# Structural Database, then it will include bibliographic, chemical, 
# crystal, experimental, refinement or atomic coordinate data resulting 
# from the CCDC's data processing and validation procedures.
#
#######################################################################

data_SULAMD08
_chemical_name_common            Sulfanilamide
_chemical_formula_moiety         'C6 H8 N2 O2 S1'
_chemical_name_systematic        4-Aminobenzenesulfonamide
_chemical_properties_biological  'antibacterial activity'
_symmetry_cell_setting           orthorhombic
_symmetry_space_group_name_H-M   'P b c a'
_symmetry_Int_Tables_number      61
_space_group_name_Hall           '-P 2ac 2ab'
loop_
_symmetry_equiv_pos_site_id
_symmetry_equiv_pos_as_xyz
1 x,y,z
2 1/2-x,-y,1/2+z
3 -x,1/2+y,1/2-z
4 1/2+x,1/2-y,-z
5 -x,-y,-z
6 1/2+x,y,1/2-z
7 x,1/2-y,1/2+z
8 1/2-x,1/2+y,z
_cell_length_a                   14.600(3)
_cell_length_b                   5.5720(10)
_cell_length_c                   18.483(4)
_cell_angle_alpha                90
_cell_angle_beta                 90
_cell_angle_gamma                90
_cell_volume                     1503.61
_exptl_crystal_colour            colorless
_exptl_crystal_description       block
_cell_formula_units_Z            8
loop_
_atom_site_label
_atom_site_type_symbol
_atom_site_fract_x
_atom_site_fract_y
_atom_site_fract_z
S1 S 0.89586(2) 0.24460(6) 0.559853(19)
O1 O 0.84401(7) 0.0292(2) 0.54526(6)
O2 O 0.99238(8) 0.24536(18) 0.54362(6)
N1 N 0.86626(11) 0.4447(3) 0.87305(8)
N2 N 0.85182(9) 0.4557(3) 0.51079(8)
C1 C 0.87324(10) 0.3980(3) 0.80029(8)
C2 C 0.83427(10) 0.1912(3) 0.77074(9)
C3 C 0.83820(10) 0.1471(3) 0.69715(8)
C4 C 0.88193(10) 0.3102(3) 0.65189(8)
C5 C 0.92073(10) 0.5191(3) 0.68042(9)
C6 C 0.91590(10) 0.5631(3) 0.75358(9)
H1 H 0.8446(16) 0.322(4) 0.8991(14)
H2 H 0.9045(15) 0.548(4) 0.8898(13)
H3 H 0.7909(15) 0.492(3) 0.5222(12)
H4 H 0.8860(16) 0.572(4) 0.5066(13)
H5 H 0.8052(13) 0.077(4) 0.8032(11)
H6 H 0.8125(13) 0.004(3) 0.6771(10)
H7 H 0.9503(12) 0.637(3) 0.6496(10)
H8 H 0.9414(12) 0.706(4) 0.7725(11)
loop_
_geom_bond_atom_site_label_1
_geom_bond_atom_site_label_2
_geom_bond_site_symmetry_1
_geom_bond_site_symmetry_2
S1 O1 1_555 1_555
O2 S1 1_555 1_555
N1 C1 1_555 1_555
N2 S1 1_555 1_555
C1 C2 1_555 1_555
C2 C3 1_555 1_555
C3 C4 1_555 1_555
C4 S1 1_555 1_555
C5 C4 1_555 1_555
C6 C1 1_555 1_555
H1 N1 1_555 1_555
H2 N1 1_555 1_555
H3 N2 1_555 1_555
H4 N2 1_555 1_555
H5 C2 1_555 1_555
H6 C3 1_555 1_555
H7 C5 1_555 1_555
H8 C6 1_555 1_555
C5 C6 1_555 1_555

#END
