
#######################################################################
#
#                 Cambridge Crystallographic Data Centre
#                                CCDC 
#
#######################################################################
#
# If this CIF has been generated from an entry in the Cambridge 
# Structural Database, then it will include bibliographic, chemical, 
# crystal, experimental, refinement or atomic coordinate data resulting 
# from the CCDC's data processing and validation procedures.
#
#######################################################################

data_SULDAZ05
_chemical_name_common            Sulfadiazine
_chemical_formula_moiety         'C10 H10 N4 O2 S1'
_chemical_name_systematic        4-Amino-N-(pyrimidin-2-yl)benzenesulfonamide
_chemical_properties_biological  'Sulfadiazine is a sulfonamide antibiotic.'
_symmetry_cell_setting           monoclinic
_symmetry_space_group_name_H-M   'P 21/c'
_symmetry_Int_Tables_number      14
_space_group_name_Hall           '-P 2ybc'
loop_
_symmetry_equiv_pos_site_id
_symmetry_equiv_pos_as_xyz
1 x,y,z
2 -x,1/2+y,1/2-z
3 -x,-y,-z
4 x,1/2-y,1/2+z
_cell_length_a                   13.6948(16)
_cell_length_b                   5.8197(7)
_cell_length_c                   14.8245(17)
_cell_angle_alpha                90
_cell_angle_beta                 115.0914(15)
_cell_angle_gamma                90
_cell_volume                     1070.01
_exptl_crystal_colour            colorless
_exptl_crystal_description       prism
_cell_formula_units_Z            4
loop_
_atom_site_label
_atom_site_type_symbol
_atom_site_fract_x
_atom_site_fract_y
_atom_site_fract_z
S1 S 0.263453(14) 0.86777(3) 0.557793(14)
O1 O 0.29198(5) 0.63477(12) 0.58841(5)
O2 O 0.28878(5) 1.04456(13) 0.63225(5)
N1 N -0.04151(5) 0.75526(12) 0.41882(5)
N2 N 0.10193(5) 0.57267(13) 0.39414(5)
N3 N 0.13116(5) 0.89248(12) 0.49793(5)
H1 H 0.1066(12) 0.994(2) 0.5256(11)
N4 N 0.44002(6) 1.11440(14) 0.26937(5)
H2 H 0.4529(12) 0.997(2) 0.2418(11)
H3 H 0.4031(12) 1.212(3) 0.2263(11)
C1 C 0.06225(5) 0.73142(12) 0.43422(5)
C2 C -0.11080(6) 0.60063(14) 0.35856(6)
H4 H -0.1848 0.6117 0.3455
C3 C -0.07809(7) 0.42434(15) 0.31440(6)
H5 H -0.1274 0.3135 0.2725
C4 C 0.03054(7) 0.41939(15) 0.33501(6)
H6 H 0.0556 0.3015 0.3057
C5 C 0.31525(5) 0.94094(12) 0.47297(5)
C6 C 0.29616(6) 1.15963(13) 0.43013(6)
H7 H 0.2560 1.2693 0.4479
C7 C 0.33648(6) 1.21501(14) 0.36144(6)
H8 H 0.3226 1.3626 0.3312
C8 C 0.39784(5) 1.05499(13) 0.33597(5)
C9 C 0.41804(7) 0.83853(14) 0.38191(6)
H9 H 0.4605 0.7300 0.3664
C10 C 0.37687(6) 0.78118(13) 0.44961(6)
H10 H 0.3905 0.6338 0.4800
loop_
_geom_bond_atom_site_label_1
_geom_bond_atom_site_label_2
_geom_bond_site_symmetry_1
_geom_bond_site_symmetry_2
S1 O1 1_555 1_555
O2 S1 1_555 1_555
N1 C1 1_555 1_555
N2 C1 1_555 1_555
N3 S1 1_555 1_555
H1 N3 1_555 1_555
N4 H2 1_555 1_555
H3 N4 1_555 1_555
C1 N3 1_555 1_555
C2 N1 1_555 1_555
H4 C2 1_555 1_555
C3 C2 1_555 1_555
H5 C3 1_555 1_555
C4 N2 1_555 1_555
H6 C4 1_555 1_555
C5 S1 1_555 1_555
C6 C5 1_555 1_555
H7 C6 1_555 1_555
C7 C6 1_555 1_555
H8 C7 1_555 1_555
C8 N4 1_555 1_555
C9 C8 1_555 1_555
H9 C9 1_555 1_555
C10 C5 1_555 1_555
H10 C10 1_555 1_555
C3 C4 1_555 1_555
C7 C8 1_555 1_555
C9 C10 1_555 1_555

#END
