
#######################################################################
#
#                 Cambridge Crystallographic Data Centre
#                                CCDC 
#
#######################################################################
#
# If this CIF has been generated from an entry in the Cambridge 
# Structural Database, then it will include bibliographic, chemical, 
# crystal, experimental, refinement or atomic coordinate data resulting 
# from the CCDC's data processing and validation procedures.
#
#######################################################################

data_SULDAZ06
_chemical_name_common            Sulfadiazine
_chemical_formula_moiety         'C10 H10 N4 O2 S1'
_chemical_name_systematic        4-Amino-N-(pyrimidin-2-yl)benzenesulfonamide
_chemical_properties_biological  'Sulfadiazine is a sulfonamide antibiotic.'
_symmetry_cell_setting           monoclinic
_symmetry_space_group_name_H-M   'P 21/c'
_symmetry_Int_Tables_number      14
_space_group_name_Hall           '-P 2ybc'
loop_
_symmetry_equiv_pos_site_id
_symmetry_equiv_pos_as_xyz
1 x,y,z
2 -x,1/2+y,1/2-z
3 -x,-y,-z
4 x,1/2-y,1/2+z
_cell_length_a                   13.6948(16)
_cell_length_b                   5.8197(7)
_cell_length_c                   14.8245(17)
_cell_angle_alpha                90
_cell_angle_beta                 115.091(2)
_cell_angle_gamma                90
_cell_volume                     1070.01
_exptl_crystal_colour            colorless
_exptl_crystal_description       brick
_cell_formula_units_Z            4
loop_
_atom_site_label
_atom_site_type_symbol
_atom_site_fract_x
_atom_site_fract_y
_atom_site_fract_z
S1 S 0.26338(3) 0.86775(8) 0.55780(3)
O1 O 0.29198(6) 0.63474(17) 0.58841(7)
O2 O 0.28874(6) 1.04468(19) 0.63216(7)
N1 N -0.04140(5) 0.75504(13) 0.41882(5)
N2 N 0.10177(6) 0.57281(14) 0.39400(6)
N3 N 0.13113(5) 0.89262(13) 0.49798(6)
N4 N 0.44000(6) 1.11421(17) 0.26940(6)
C1 C 0.06223(5) 0.73146(12) 0.43432(5)
C2 C -0.11094(6) 0.60091(14) 0.35855(6)
C3 C -0.07820(7) 0.42413(15) 0.31424(6)
C4 C 0.03055(7) 0.41945(15) 0.33480(6)
C5 C 0.31525(5) 0.94079(12) 0.47308(5)
C6 C 0.29605(6) 1.15988(13) 0.43007(6)
C7 C 0.33654(6) 1.21523(14) 0.36143(6)
C8 C 0.39787(5) 1.05515(13) 0.33597(5)
C9 C 0.41835(6) 0.83856(14) 0.38208(6)
C10 C 0.37685(6) 0.78119(13) 0.44959(6)
H1 H 0.101981 1.013165 0.530892
H2 H 0.45531 0.975209 0.236666
H3 H 0.39595 1.231232 0.217886
H4 H -0.195314 0.613285 0.343674
H5 H -0.134392 0.297677 0.266485
H6 H 0.059102 0.284757 0.3016
H7 H 0.250275 1.284869 0.450389
H8 H 0.320599 1.383422 0.326912
H9 H 0.466475 0.714659 0.364194
H10 H 0.392433 0.613132 0.484236
loop_
_geom_bond_atom_site_label_1
_geom_bond_atom_site_label_2
_geom_bond_site_symmetry_1
_geom_bond_site_symmetry_2
S1 O1 1_555 1_555
O2 S1 1_555 1_555
N1 C1 1_555 1_555
N2 C1 1_555 1_555
N3 S1 1_555 1_555
N4 C8 1_555 1_555
C1 N3 1_555 1_555
C2 N1 1_555 1_555
C3 C2 1_555 1_555
C4 N2 1_555 1_555
C5 S1 1_555 1_555
C6 C5 1_555 1_555
C7 C6 1_555 1_555
C8 C7 1_555 1_555
C9 C8 1_555 1_555
C10 C5 1_555 1_555
H1 N3 1_555 1_555
H2 N4 1_555 1_555
H3 N4 1_555 1_555
H4 C2 1_555 1_555
H5 C3 1_555 1_555
H6 C4 1_555 1_555
H7 C6 1_555 1_555
H8 C7 1_555 1_555
H9 C9 1_555 1_555
H10 C10 1_555 1_555
C3 C4 1_555 1_555
C9 C10 1_555 1_555

#END
