
#######################################################################
#
#                 Cambridge Crystallographic Data Centre
#                                CCDC 
#
#######################################################################
#
# If this CIF has been generated from an entry in the Cambridge 
# Structural Database, then it will include bibliographic, chemical, 
# crystal, experimental, refinement or atomic coordinate data resulting 
# from the CCDC's data processing and validation procedures.
#
#######################################################################

data_SULFIQ
_chemical_formula_moiety         'C26 H25 F1 N2 O2'
_chemical_name_systematic        
'2-Fluoroethyl 3-methyl-2-(13-methyl-1,9-diazatetracyclo[7.7.1.0^2,7^.0^10,15^]heptadeca-2,4,6,10,12,14-hexaen-5-yl)benzoate'
_symmetry_cell_setting           monoclinic
_symmetry_space_group_name_H-M   'C c'
_symmetry_Int_Tables_number      9
_space_group_name_Hall           'C -2yc'
loop_
_symmetry_equiv_pos_site_id
_symmetry_equiv_pos_as_xyz
1 x,y,z
2 x,-y,1/2+z
3 1/2+x,1/2+y,z
4 1/2+x,1/2-y,1/2+z
_cell_length_a                   8.1454(4)
_cell_length_b                   29.5227(12)
_cell_length_c                   9.0506(4)
_cell_angle_alpha                90
_cell_angle_beta                 105.1360(16)
_cell_angle_gamma                90
_cell_volume                     2100.93
_exptl_crystal_colour            colorless
_exptl_crystal_description       plate
_cell_formula_units_Z            4
loop_
_atom_site_label
_atom_site_type_symbol
_atom_site_fract_x
_atom_site_fract_y
_atom_site_fract_z
C1 C 0.1639(2) 0.05363(6) 0.5103(2)
H1 H 0.2706 0.0506 0.5925
H2 H 0.1833 0.0404 0.4157
C2 C -0.0145(2) 0.10486(6) 0.3415(2)
H3 H 0.0324 0.0983 0.2533
H4 H -0.0599 0.1361 0.3297
C3 C -0.1578(2) 0.07194(6) 0.3411(2)
C4 C -0.3177(2) 0.07809(7) 0.2387(2)
H5 H -0.3326 0.1017 0.1650
C5 C -0.4560(3) 0.05049(7) 0.2420(2)
C6 C -0.4291(3) 0.01546(7) 0.3491(3)
H6 H -0.5210 -0.0039 0.3531
C7 C -0.2710(3) 0.00835(7) 0.4497(3)
H7 H -0.2557 -0.0158 0.5213
C8 C -0.1335(2) 0.03658(6) 0.4467(2)
C9 C -0.6284(3) 0.05988(8) 0.1353(3)
H8 H -0.6143 0.0731 0.0401
H9 H -0.6905 0.0811 0.1841
H10 H -0.6924 0.0315 0.1125
C10 C 0.0742(2) 0.12068(6) 0.6132(2)
C11 C 0.0707(2) 0.16777(6) 0.6270(2)
H11 H 0.0970 0.1863 0.5506
C12 C 0.0292(2) 0.18765(6) 0.7514(2)
H12 H 0.0279 0.2197 0.7597
C13 C -0.0107(2) 0.16088(6) 0.8647(2)
C14 C -0.0071(2) 0.11408(6) 0.8508(2)
H13 H -0.0328 0.0956 0.9278
C15 C 0.0338(2) 0.09362(6) 0.7257(2)
C16 C 0.0299(3) 0.04240(6) 0.7101(2)
H14 H 0.1310 0.0294 0.7835
H15 H -0.0727 0.0305 0.7361
C17 C -0.0603(2) 0.18280(6) 0.9950(2)
C18 C 0.0647(2) 0.20371(6) 1.1120(2)
C19 C 0.0174(3) 0.22441(6) 1.2335(2)
H16 H 0.1017 0.2389 1.3118
C20 C -0.1502(3) 0.22422(7) 1.2423(2)
H17 H -0.1802 0.2388 1.3251
C21 C -0.2728(3) 0.20281(7) 1.1302(2)
H18 H -0.3870 0.2018 1.1373
C22 C -0.2295(2) 0.18251(6) 1.0058(2)
C23 C -0.3718(2) 0.16123(7) 0.8879(2)
C24 C 0.2488(3) 0.20431(8) 1.1096(2)
H19 H 0.2740 0.1772 1.0570
H20 H 0.3210 0.2047 1.2148
H21 H 0.2712 0.2314 1.0553
C25 C -0.4870(3) 0.14746(9) 0.6246(3)
H22 H -0.5982 0.1619 0.6187
H23 H -0.4964 0.1147 0.6438
C26 C -0.4377(3) 0.15464(9) 0.4790(3)
H24 H -0.3214 0.1429 0.4897
H25 H -0.5165 0.1377 0.3953
N1 N 0.0285(2) 0.02809(5) 0.5532(2)
N2 N 0.1229(2) 0.10159(5) 0.48476(18)
O1 O -0.35672(17) 0.16760(5) 0.74555(16)
O2 O -0.4901(2) 0.14210(8) 0.9166(2)
F1 F -0.4431(3) 0.20024(7) 0.44272(18)
loop_
_geom_bond_atom_site_label_1
_geom_bond_atom_site_label_2
_geom_bond_site_symmetry_1
_geom_bond_site_symmetry_2
C1 H1 1_555 1_555
H2 C1 1_555 1_555
C2 H3 1_555 1_555
H4 C2 1_555 1_555
C3 C2 1_555 1_555
C4 C3 1_555 1_555
H5 C4 1_555 1_555
C5 C4 1_555 1_555
C6 C5 1_555 1_555
H6 C6 1_555 1_555
C7 C6 1_555 1_555
H7 C7 1_555 1_555
C8 C3 1_555 1_555
C9 C5 1_555 1_555
H8 C9 1_555 1_555
H9 C9 1_555 1_555
H10 C9 1_555 1_555
C10 C11 1_555 1_555
C11 H11 1_555 1_555
C12 C11 1_555 1_555
H12 C12 1_555 1_555
C13 C12 1_555 1_555
C14 C13 1_555 1_555
H13 C14 1_555 1_555
C15 C10 1_555 1_555
C16 C15 1_555 1_555
H14 C16 1_555 1_555
H15 C16 1_555 1_555
C17 C13 1_555 1_555
C18 C17 1_555 1_555
C19 C18 1_555 1_555
H16 C19 1_555 1_555
C20 C19 1_555 1_555
H17 C20 1_555 1_555
C21 C20 1_555 1_555
H18 C21 1_555 1_555
C22 C17 1_555 1_555
C23 C22 1_555 1_555
C24 C18 1_555 1_555
H19 C24 1_555 1_555
H20 C24 1_555 1_555
H21 C24 1_555 1_555
C25 H22 1_555 1_555
H23 C25 1_555 1_555
C26 C25 1_555 1_555
H24 C26 1_555 1_555
H25 C26 1_555 1_555
N1 C1 1_555 1_555
N2 C1 1_555 1_555
O1 C23 1_555 1_555
O2 C23 1_555 1_555
F1 C26 1_555 1_555
C2 N2 1_555 1_555
C7 C8 1_555 1_555
C8 N1 1_555 1_555
C10 N2 1_555 1_555
C14 C15 1_555 1_555
C16 N1 1_555 1_555
C21 C22 1_555 1_555
C25 O1 1_555 1_555

#END
