
#######################################################################
#
#                 Cambridge Crystallographic Data Centre
#                                CCDC 
#
#######################################################################
#
# If this CIF has been generated from an entry in the Cambridge 
# Structural Database, then it will include bibliographic, chemical, 
# crystal, experimental, refinement or atomic coordinate data resulting 
# from the CCDC's data processing and validation procedures.
#
#######################################################################

data_SULHEM
_chemical_formula_moiety         'C21 H18 S6'
_chemical_name_systematic        
1,3,5-tris(6-Methyl-1,4-dithiafulven-6-yl)benzene
_symmetry_cell_setting           monoclinic
_symmetry_space_group_name_H-M   'P 21/a'
_symmetry_Int_Tables_number      14
_space_group_name_Hall           '-P 2yab'
loop_
_symmetry_equiv_pos_site_id
_symmetry_equiv_pos_as_xyz
1 x,y,z
2 1/2-x,1/2+y,-z
3 -x,-y,-z
4 1/2+x,1/2-y,z
_cell_length_a                   10.919(4)
_cell_length_b                   17.175(2)
_cell_length_c                   11.481(1)
_cell_angle_alpha                90
_cell_angle_beta                 97.86(2)
_cell_angle_gamma                90
_cell_volume                     2132.85
_exptl_crystal_colour            colorless
_chemical_melting_point          157-158deg.C
_cell_formula_units_Z            4
loop_
_atom_site_label
_atom_site_type_symbol
_atom_site_fract_x
_atom_site_fract_y
_atom_site_fract_z
S1 S 0.3380(2) 0.15920(9) 0.1982(1)
S2 S 0.3898(2) 0.04138(9) 0.8191(1)
S3 S 0.3043(1) 0.44376(8) 0.8518(1)
S4 S 0.4899(2) 0.28161(9) 0.1133(1)
S5 S 0.2981(2) -0.09747(8) 0.6870(1)
S6 S 0.5091(1) 0.40051(9) 0.7242(1)
C1 C 0.4259(4) 0.2312(3) 0.4521(4)
C2 C 0.4111(5) 0.1523(3) 0.4694(4)
C3 C 0.3557(4) 0.1243(3) 0.5650(4)
C4 C 0.3164(4) 0.1782(3) 0.6430(4)
C5 C 0.3353(4) 0.2578(3) 0.6292(4)
C6 C 0.3888(5) 0.2832(3) 0.5339(4)
C7 C 0.4744(4) 0.2629(3) 0.3467(4)
C8 C 0.3314(4) 0.0394(3) 0.5762(4)
C9 C 0.2922(4) 0.3148(3) 0.7133(4)
C10 C 0.4398(5) 0.2373(3) 0.2375(4)
C11 C 0.3395(4) 0.0022(3) 0.6797(4)
C12 C 0.3592(5) 0.3764(3) 0.7550(4)
C13 C 0.3271(6) 0.1746(4) 0.0461(4)
C14 C 0.3697(5) -0.0428(3) 0.8977(5)
C15 C 0.4309(6) 0.5040(3) 0.8632(5)
C16 C 0.3956(6) 0.2298(4) 0.0100(4)
C17 C 0.3273(6) -0.1046(3) 0.8387(5)
C18 C 0.5235(6) 0.4850(3) 0.8077(5)
C19 C 0.5630(6) 0.3309(4) 0.3689(4)
C20 C 0.2947(6) -0.0056(3) 0.4642(4)
C21 C 0.1659(5) 0.3022(3) 0.7499(5)
H1 H 0.4382 0.1152 0.4144
H2 H 0.2750 0.1599 0.7077
H3 H 0.4018 0.3393 0.5241
H4 H 0.2720 0.1443 -0.0086
H5 H 0.3901 -0.0436 0.9823
H6 H 0.4341 0.5510 0.9087
H7 H 0.3941 0.2410 -0.0735
H8 H 0.3121 -0.1528 0.8778
H9 H 0.5979 0.5173 0.8102
H10 H 0.5800 0.3429 0.4510
H11 H 0.6407 0.3196 0.3415
H12 H 0.5299 0.3769 0.3285
H13 H 0.2920 0.0281 0.3967
H14 H 0.3513 -0.0465 0.4559
H15 H 0.2139 -0.0274 0.4632
H16 H 0.1279 0.2565 0.7127
H17 H 0.1707 0.2970 0.8321
H18 H 0.1128 0.3459 0.7247
loop_
_geom_bond_atom_site_label_1
_geom_bond_atom_site_label_2
_geom_bond_site_symmetry_1
_geom_bond_site_symmetry_2
S1 C10 1_555 1_555
S2 C11 1_555 1_555
S3 C12 1_555 1_555
S4 C10 1_555 1_555
S5 C11 1_555 1_555
S6 C12 1_555 1_555
C1 C2 1_555 1_555
C2 C3 1_555 1_555
C3 C4 1_555 1_555
C4 C5 1_555 1_555
C5 C6 1_555 1_555
C6 C1 1_555 1_555
C7 C1 1_555 1_555
C8 C3 1_555 1_555
C9 C5 1_555 1_555
C10 C7 1_555 1_555
C11 C8 1_555 1_555
C12 C9 1_555 1_555
C13 S1 1_555 1_555
C14 S2 1_555 1_555
C15 S3 1_555 1_555
C16 S4 1_555 1_555
C17 S5 1_555 1_555
C18 S6 1_555 1_555
C19 C7 1_555 1_555
C20 C8 1_555 1_555
C21 C9 1_555 1_555
H1 C2 1_555 1_555
H2 C4 1_555 1_555
H3 C6 1_555 1_555
H4 C13 1_555 1_555
H5 C14 1_555 1_555
H6 C15 1_555 1_555
H7 C16 1_555 1_555
H8 C17 1_555 1_555
H9 C18 1_555 1_555
H10 C19 1_555 1_555
H11 C19 1_555 1_555
H12 C19 1_555 1_555
H13 C20 1_555 1_555
H14 C20 1_555 1_555
H15 C20 1_555 1_555
H16 C21 1_555 1_555
H17 C21 1_555 1_555
H18 C21 1_555 1_555
C13 C16 1_555 1_555
C14 C17 1_555 1_555
C15 C18 1_555 1_555

#END
