
#######################################################################
#
#                 Cambridge Crystallographic Data Centre
#                                CCDC 
#
#######################################################################
#
# If this CIF has been generated from an entry in the Cambridge 
# Structural Database, then it will include bibliographic, chemical, 
# crystal, experimental, refinement or atomic coordinate data resulting 
# from the CCDC's data processing and validation procedures.
#
#######################################################################

data_SULHOY
_chemical_formula_moiety         'C11 H7 Br1 F6 O2'
_chemical_name_systematic        
'1,1,1,3,3,3-Hexafluoropropan-2-yl 2-bromo-3-methylbenzoate'
_symmetry_cell_setting           triclinic
_symmetry_space_group_name_H-M   'P -1'
_symmetry_Int_Tables_number      2
_space_group_name_Hall           '-P 1'
loop_
_symmetry_equiv_pos_site_id
_symmetry_equiv_pos_as_xyz
1 x,y,z
2 -x,-y,-z
_cell_length_a                   7.1474(4)
_cell_length_b                   9.7769(5)
_cell_length_c                   10.0809(6)
_cell_angle_alpha                67.2457(17)
_cell_angle_beta                 86.5387(19)
_cell_angle_gamma                78.9053(18)
_cell_volume                     637.404
_exptl_crystal_colour            colorless
_exptl_crystal_description       plate
_cell_formula_units_Z            2
loop_
_atom_site_label
_atom_site_type_symbol
_atom_site_fract_x
_atom_site_fract_y
_atom_site_fract_z
C1 C 0.6249(4) 0.5459(3) 0.2529(3)
C2 C 0.6985(4) 0.5084(3) 0.1274(3)
C3 C 0.6708(4) 0.6233(3) -0.0094(3)
H1 H 0.6108 0.7226 -0.0200
C4 C 0.7307(4) 0.5921(3) -0.1291(3)
H2 H 0.7098 0.6694 -0.2224
C5 C 0.8213(4) 0.4483(4) -0.1132(3)
H3 H 0.8629 0.4288 -0.1965
C6 C 0.8534(4) 0.3306(3) 0.0222(3)
C7 C 0.7873(4) 0.3635(3) 0.1412(3)
C8 C 0.9565(5) 0.1765(4) 0.0349(4)
H4 H 0.8686 0.1049 0.0697
H5 H 1.0640 0.1436 0.1028
H6 H 1.0040 0.1807 -0.0596
C9 C 0.5881(4) 0.7437(3) 0.3398(3)
H7 H 0.5136 0.6722 0.4115
C10 C 0.7554(5) 0.7605(3) 0.4151(3)
C11 C 0.4557(5) 0.8915(3) 0.2575(3)
O1 O 0.5391(3) 0.4745(2) 0.3527(2)
O2 O 0.6660(3) 0.6835(2) 0.2361(2)
Br1 Br 0.83144(5) 0.20618(3) 0.32617(3)
F1 F 0.8517(3) 0.6237(2) 0.4937(2)
F2 F 0.6957(3) 0.8311(2) 0.50382(19)
F3 F 0.8770(3) 0.8355(2) 0.3248(2)
F4 F 0.3204(3) 0.8643(2) 0.1903(2)
F5 F 0.5454(3) 0.9909(2) 0.1571(2)
F6 F 0.3702(3) 0.9570(2) 0.3438(2)
loop_
_geom_bond_atom_site_label_1
_geom_bond_atom_site_label_2
_geom_bond_site_symmetry_1
_geom_bond_site_symmetry_2
C1 C2 1_555 1_555
C2 C3 1_555 1_555
C3 H1 1_555 1_555
C4 C3 1_555 1_555
H2 C4 1_555 1_555
C5 C4 1_555 1_555
H3 C5 1_555 1_555
C6 C5 1_555 1_555
C7 C2 1_555 1_555
C8 C6 1_555 1_555
H4 C8 1_555 1_555
H5 C8 1_555 1_555
H6 C8 1_555 1_555
C9 H7 1_555 1_555
C10 C9 1_555 1_555
C11 C9 1_555 1_555
O1 C1 1_555 1_555
O2 C1 1_555 1_555
Br1 C7 1_555 1_555
F1 C10 1_555 1_555
F2 C10 1_555 1_555
F3 C10 1_555 1_555
F4 C11 1_555 1_555
F5 C11 1_555 1_555
F6 C11 1_555 1_555
C6 C7 1_555 1_555
C9 O2 1_555 1_555

#END
