
#######################################################################
#
#                 Cambridge Crystallographic Data Centre
#                                CCDC 
#
#######################################################################
#
# If this CIF has been generated from an entry in the Cambridge 
# Structural Database, then it will include bibliographic, chemical, 
# crystal, experimental, refinement or atomic coordinate data resulting 
# from the CCDC's data processing and validation procedures.
#
#######################################################################

data_SULHUE
_chemical_formula_moiety         'C21 H17 Cl1'
_chemical_name_systematic        9-(2-(4-Chlorophenyl)ethyl)-9H-fluorene
_symmetry_cell_setting           monoclinic
_symmetry_space_group_name_H-M   'P 21/c'
_symmetry_Int_Tables_number      14
_space_group_name_Hall           '-P 2ybc'
loop_
_symmetry_equiv_pos_site_id
_symmetry_equiv_pos_as_xyz
1 x,y,z
2 -x,1/2+y,1/2-z
3 -x,-y,-z
4 x,1/2-y,1/2+z
_cell_length_a                   17.0568(11)
_cell_length_b                   5.3536(3)
_cell_length_c                   18.9471(12)
_cell_angle_alpha                90
_cell_angle_beta                 114.210(8)
_cell_angle_gamma                90
_cell_volume                     1577.99
_cell_formula_units_Z            4
loop_
_atom_site_label
_atom_site_type_symbol
_atom_site_fract_x
_atom_site_fract_y
_atom_site_fract_z
C1 C 0.11357(11) 0.9797(3) 0.25935(10)
C2 C 0.14127(11) 0.9729(3) 0.34384(10)
C3 C 0.11790(12) 1.1236(3) 0.39153(10)
H1 H 0.0800 1.2606 0.3708
C4 C 0.15104(13) 1.0703(4) 0.47014(11)
H2 H 0.1366 1.1736 0.5038
C5 C 0.20496(13) 0.8677(4) 0.49962(10)
H3 H 0.2265 0.8321 0.5534
C6 C 0.22818(13) 0.7152(4) 0.45199(10)
H4 H 0.2650 0.5758 0.4727
C7 C 0.19664(11) 0.7700(3) 0.37354(9)
C8 C 0.21154(11) 0.6377(3) 0.30927(9)
H5 H 0.1934 0.4590 0.3063
C9 C 0.15146(11) 0.7774(3) 0.23843(9)
C10 C 0.13430(12) 0.7379(4) 0.16111(10)
H6 H 0.1590 0.5998 0.1462
C11 C 0.08068(12) 0.9025(4) 0.10595(10)
H7 H 0.0688 0.8768 0.0529
C12 C 0.04413(13) 1.1043(4) 0.12720(11)
H8 H 0.0082 1.2166 0.0887
C13 C 0.05963(12) 1.1436(3) 0.20413(10)
H9 H 0.0338 1.2800 0.2187
C14 C 0.30421(12) 0.6538(3) 0.31575(10)
H10 H 0.3049 0.5920 0.2667
H11 H 0.3213 0.8318 0.3210
C15 C 0.37164(13) 0.5095(4) 0.38248(11)
H12 H 0.3756 0.5786 0.4323
H13 H 0.3543 0.3320 0.3797
C16 C 0.45795(12) 0.5274(4) 0.37870(10)
C17 C 0.48127(14) 0.3606(4) 0.33452(11)
H14 H 0.4444 0.2241 0.3103
C18 C 0.55699(14) 0.3889(4) 0.32497(11)
H15 H 0.5720 0.2732 0.2946
C19 C 0.61013(12) 0.5866(4) 0.36003(10)
C20 C 0.59011(13) 0.7526(4) 0.40565(11)
H16 H 0.6279 0.8862 0.4308
C21 C 0.51378(14) 0.7214(4) 0.41430(11)
H17 H 0.4995 0.8361 0.4455
Cl1 Cl 0.70430(3) 0.62658(11) 0.34627(3)
loop_
_geom_bond_atom_site_label_1
_geom_bond_atom_site_label_2
_geom_bond_site_symmetry_1
_geom_bond_site_symmetry_2
C1 C2 1_555 1_555
C2 C3 1_555 1_555
C3 H1 1_555 1_555
C4 C3 1_555 1_555
H2 C4 1_555 1_555
C5 C4 1_555 1_555
H3 C5 1_555 1_555
C6 C5 1_555 1_555
H4 C6 1_555 1_555
C7 C2 1_555 1_555
C8 C7 1_555 1_555
H5 C8 1_555 1_555
C9 C1 1_555 1_555
C10 C9 1_555 1_555
H6 C10 1_555 1_555
C11 C10 1_555 1_555
H7 C11 1_555 1_555
C12 C11 1_555 1_555
H8 C12 1_555 1_555
C13 C1 1_555 1_555
H9 C13 1_555 1_555
C14 C8 1_555 1_555
H10 C14 1_555 1_555
H11 C14 1_555 1_555
C15 C14 1_555 1_555
H12 C15 1_555 1_555
H13 C15 1_555 1_555
C16 C15 1_555 1_555
C17 C16 1_555 1_555
H14 C17 1_555 1_555
C18 C17 1_555 1_555
H15 C18 1_555 1_555
C19 C18 1_555 1_555
C20 C19 1_555 1_555
H16 C20 1_555 1_555
C21 C16 1_555 1_555
H17 C21 1_555 1_555
Cl1 C19 1_555 1_555
C6 C7 1_555 1_555
C8 C9 1_555 1_555
C12 C13 1_555 1_555
C20 C21 1_555 1_555

#END
