
#######################################################################
#
#                 Cambridge Crystallographic Data Centre
#                                CCDC 
#
#######################################################################
#
# If this CIF has been generated from an entry in the Cambridge 
# Structural Database, then it will include bibliographic, chemical, 
# crystal, experimental, refinement or atomic coordinate data resulting 
# from the CCDC's data processing and validation procedures.
#
#######################################################################

data_SULJIU
_chemical_formula_moiety         'C102 H120 O26,2(C6 H8 N2),2(C1 H1 Cl3)'
_chemical_name_systematic        
"[3]-bis(1,4-Dicyanobutane)-(4,4':35,35'-bis(1,4,7,10,13-pentaoxatridecane-1,13-diyl)bis(9,14,19,24,26,29,31,33-octamethoxypillar[5]arene))-pseudorotaxane chloroform solvate"
_symmetry_cell_setting           triclinic
_symmetry_space_group_name_H-M   'P -1'
_symmetry_Int_Tables_number      2
_space_group_name_Hall           '-P 1'
loop_
_symmetry_equiv_pos_site_id
_symmetry_equiv_pos_as_xyz
1 x,y,z
2 -x,-y,-z
_cell_length_a                   10.8366(4)
_cell_length_b                   13.7308(5)
_cell_length_c                   19.8398(8)
_cell_angle_alpha                98.1920(10)
_cell_angle_beta                 94.9950(10)
_cell_angle_gamma                98.2110(10)
_cell_volume                     2874.55
_cell_formula_units_Z            1
loop_
_atom_site_label
_atom_site_type_symbol
_atom_site_fract_x
_atom_site_fract_y
_atom_site_fract_z
O1 O 0.7484(4) 0.3529(3) 0.34685(16)
O2 O 0.3798(3) 0.4800(3) 0.18543(16)
O3 O 0.9335(4) 0.7069(3) 0.5195(2)
O4 O 0.4286(3) 0.6040(2) 0.42568(17)
O5 O 0.6495(3) 0.9807(3) 0.45319(18)
O6 O 1.1044(3) 0.9266(3) 0.35913(19)
O7 O 1.0323(3) 0.7681(3) 0.1135(2)
O8 O 0.7404(3) 1.0432(2) 0.21340(17)
O9 O 0.5459(3) 0.7260(2) 0.04961(16)
O10 O 0.3923(3) 0.8825(3) 0.07794(18)
O11 O 0.8144(3) 0.4271(2) 0.10510(19)
O12 O 0.9456(4) 0.2665(3) 0.0792(2)
O13 O 0.7966(4) 0.0806(3) 0.03254(18)
C1 C 0.6580(5) 0.3837(3) 0.3056(2)
C2 C 0.5689(4) 0.4307(3) 0.3382(2)
C3 C 0.4758(4) 0.4623(3) 0.2980(2)
H1 H 0.4135 0.4935 0.3196
C4 C 0.4712(4) 0.4497(3) 0.2275(2)
C5 C 0.5605(4) 0.4037(3) 0.1941(2)
C6 C 0.6524(4) 0.3709(3) 0.2342(2)
H2 H 0.7136 0.3386 0.2125
C7 C 0.8077(5) 0.6784(4) 0.4954(2)
C8 C 0.7538(5) 0.5807(4) 0.4702(2)
H3 H 0.8044 0.5295 0.4696
C9 C 0.6276(5) 0.5562(3) 0.4457(2)
C10 C 0.5549(4) 0.6328(3) 0.4485(2)
C11 C 0.6086(5) 0.7297(3) 0.4742(2)
H4 H 0.5577 0.7806 0.4759
C12 C 0.7347(5) 0.7544(4) 0.4974(2)
C13 C 0.7637(4) 0.9697(4) 0.4288(2)
C14 C 0.8067(4) 1.0132(3) 0.3746(2)
H5 H 0.7570 1.0540 0.3530
C15 C 0.9209(4) 0.9985(3) 0.3511(2)
C16 C 0.9920(4) 0.9385(4) 0.3844(3)
C17 C 0.9500(5) 0.8976(4) 0.4390(3)
H6 H 1.0008 0.8582 0.4614
C18 C 0.8356(4) 0.9118(3) 0.4630(2)
C19 C 0.9618(4) 0.8379(3) 0.1398(3)
C20 C 0.8463(4) 0.8379(3) 0.1018(2)
C21 C 0.7713(4) 0.9061(3) 0.1264(2)
H7 H 0.6923 0.9070 0.1019
C22 C 0.8107(4) 0.9733(3) 0.1868(2)
C23 C 0.9256(4) 0.9739(3) 0.2239(2)
C24 C 1.0006(4) 0.9054(3) 0.1987(3)
H8 H 1.0803 0.9054 0.2228
C25 C 0.7501(4) 0.5028(3) 0.0889(2)
C26 C 0.6218(4) 0.4862(3) 0.0951(2)
C27 C 0.5536(4) 0.5609(3) 0.0809(2)
H9 H 0.4658 0.5512 0.0838
C28 C 0.6097(4) 0.6487(3) 0.0625(2)
C29 C 0.7377(4) 0.6647(3) 0.0559(2)
C30 C 0.8068(4) 0.5890(3) 0.0685(2)
H10 H 0.8937 0.5971 0.0630
C31 C 0.5718(5) 0.4494(3) 0.4155(2)
H11 H 0.6219 0.4035 0.4354
H12 H 0.4853 0.4349 0.4280
C32 C 0.7919(5) 0.8625(4) 0.5216(2)
H13 H 0.7288 0.8986 0.5430
H14 H 0.8638 0.8661 0.5567
C33 C 0.9661(4) 1.0433(3) 0.2909(3)
H15 H 1.0588 1.0592 0.2975
H16 H 0.9326 1.1064 0.2888
C34 C 0.8017(5) 0.7619(3) 0.0382(2)
H17 H 0.8743 0.7492 0.0131
H18 H 0.7424 0.7889 0.0078
C35 C 0.5602(4) 0.3926(3) 0.1173(2)
H19 H 0.6050 0.3370 0.1015
H20 H 0.4726 0.3758 0.0955
C36 C 0.8356(7) 0.2992(5) 0.3135(3)
H21 H 0.8946 0.2809 0.3481
H22 H 0.8820 0.3412 0.2852
H23 H 0.7902 0.2388 0.2845
C37 C 0.2867(5) 0.5259(4) 0.2182(3)
H24 H 0.2279 0.5443 0.1835
H25 H 0.3267 0.5858 0.2496
H26 H 0.2411 0.4793 0.2439
C38 C 1.0150(6) 0.6365(5) 0.5100(4)
H27 H 1.1002 0.6672 0.5297
H28 H 1.0148 0.6135 0.4609
H29 H 0.9871 0.5797 0.5328
C39 C 0.3528(5) 0.6796(5) 0.4232(3)
H30 H 0.2662 0.6491 0.4062
H31 H 0.3847 0.7247 0.3924
H32 H 0.3549 0.7172 0.4692
C40 C 0.5733(5) 1.0396(5) 0.4203(3)
H33 H 0.4965 1.0422 0.4426
H34 H 0.5516 1.0102 0.3720
H35 H 0.6193 1.1073 0.4235
C41 C 1.1804(5) 0.8657(5) 0.3913(3)
H36 H 1.2572 0.8633 0.3688
H37 H 1.1338 0.7982 0.3873
H38 H 1.2024 0.8939 0.4398
C42 C 1.1379(6) 0.7544(5) 0.1563(4)
H39 H 1.1797 0.7030 0.1324
H40 H 1.1107 0.7335 0.1986
H41 H 1.1965 0.8172 0.1675
C43 C 0.6256(5) 1.0498(4) 0.1751(3)
H42 H 0.5857 1.1021 0.1993
H43 H 0.5696 0.9858 0.1696
H44 H 0.6423 1.0660 0.1299
C44 C 0.4143(4) 0.7116(4) 0.0539(2)
H45 H 0.3979 0.7091 0.1020
H46 H 0.3747 0.6475 0.0257
C45 C 0.3596(5) 0.7951(4) 0.0287(3)
H47 H 0.3917 0.8071 -0.0151
H48 H 0.2672 0.7773 0.0204
C46 C 0.3511(10) 0.9685(6) 0.0593(6)
H49 H 0.3682 1.0184 0.1016
H50 H 0.4103 0.9923 0.0277
C47 C 0.9444(4) 0.4396(3) 0.1011(3)
H51 H 0.9860 0.5021 0.1304
H52 H 0.9620 0.4432 0.0533
C48 C 0.9923(5) 0.3516(4) 0.1250(3)
H53 H 1.0851 0.3624 0.1290
H54 H 0.9659 0.3441 0.1708
C49 C 0.9626(5) 0.1774(4) 0.1050(3)
H55 H 0.9101 0.1688 0.1428
H56 H 1.0515 0.1809 0.1231
C50 C 0.9271(6) 0.0940(4) 0.0501(3)
H57 H 0.9709 0.1071 0.0097
H58 H 0.9515 0.0329 0.0649
C51 C 0.7583(9) 0.0217(5) -0.0322(3)
H59 H 0.8209 0.0393 -0.0638
H60 H 0.7581 -0.0492 -0.0275
O1A O 0.2516(4) 0.6471(3) -0.34685(16)
O2A O 0.6202(3) 0.5200(3) -0.18543(16)
O3A O 0.0665(4) 0.2931(3) -0.5195(2)
O4A O 0.5714(3) 0.3960(2) -0.42568(17)
O5A O 0.3505(3) 0.0193(3) -0.45319(18)
O6A O -0.1044(3) 0.0734(3) -0.35913(19)
O7A O -0.0323(3) 0.2319(3) -0.1135(2)
O8A O 0.2596(3) -0.0432(2) -0.21340(17)
O9A O 0.4541(3) 0.2740(2) -0.04961(16)
O10A O 0.6077(3) 0.1175(3) -0.07794(18)
O11A O 0.1856(3) 0.5729(2) -0.10510(19)
O12A O 0.0544(4) 0.7335(3) -0.0792(2)
O13A O 0.2034(4) 0.9194(3) -0.03254(18)
C1A C 0.3420(5) 0.6163(3) -0.3056(2)
C2A C 0.4311(4) 0.5693(3) -0.3382(2)
C3A C 0.5242(4) 0.5377(3) -0.2980(2)
H1A H 0.5865 0.5065 -0.3196
C4A C 0.5288(4) 0.5503(3) -0.2275(2)
C5A C 0.4395(4) 0.5963(3) -0.1941(2)
C6A C 0.3476(4) 0.6291(3) -0.2342(2)
H2A H 0.2864 0.6614 -0.2125
C7A C 0.1923(5) 0.3216(4) -0.4954(2)
C8A C 0.2462(5) 0.4193(4) -0.4702(2)
H3A H 0.1956 0.4705 -0.4696
C9A C 0.3724(5) 0.4438(3) -0.4457(2)
C10A C 0.4451(4) 0.3672(3) -0.4485(2)
C11A C 0.3914(5) 0.2703(3) -0.4742(2)
H4A H 0.4423 0.2194 -0.4759
C12A C 0.2653(5) 0.2456(4) -0.4974(2)
C13A C 0.2363(4) 0.0303(4) -0.4288(2)
C14A C 0.1933(4) -0.0132(3) -0.3746(2)
H5A H 0.2430 -0.0540 -0.3530
C15A C 0.0791(4) 0.0015(3) -0.3511(2)
C16A C 0.0080(4) 0.0615(4) -0.3844(3)
C17A C 0.0500(5) 0.1024(4) -0.4390(3)
H6A H -0.0008 0.1418 -0.4614
C18A C 0.1644(4) 0.0882(3) -0.4630(2)
C19A C 0.0382(4) 0.1621(3) -0.1398(3)
C20A C 0.1537(4) 0.1621(3) -0.1018(2)
C21A C 0.2287(4) 0.0939(3) -0.1264(2)
H7A H 0.3077 0.0930 -0.1019
C22A C 0.1893(4) 0.0267(3) -0.1868(2)
C23A C 0.0744(4) 0.0261(3) -0.2239(2)
C24A C -0.0006(4) 0.0946(3) -0.1987(3)
H8A H -0.0803 0.0946 -0.2228
C25A C 0.2499(4) 0.4972(3) -0.0889(2)
C26A C 0.3782(4) 0.5138(3) -0.0951(2)
C27A C 0.4464(4) 0.4391(3) -0.0809(2)
H9A H 0.5342 0.4488 -0.0838
C28A C 0.3903(4) 0.3513(3) -0.0625(2)
C29A C 0.2623(4) 0.3353(3) -0.0559(2)
C30A C 0.1932(4) 0.4110(3) -0.0685(2)
H10A H 0.1063 0.4029 -0.0630
C31A C 0.4282(5) 0.5506(3) -0.4155(2)
H11A H 0.3781 0.5965 -0.4354
H12A H 0.5147 0.5651 -0.4280
C32A C 0.2081(5) 0.1375(4) -0.5216(2)
H13A H 0.2712 0.1014 -0.5430
H14A H 0.1362 0.1339 -0.5567
C33A C 0.0339(4) -0.0433(3) -0.2909(3)
H15A H -0.0588 -0.0592 -0.2975
H16A H 0.0674 -0.1064 -0.2888
C34A C 0.1983(5) 0.2381(3) -0.0382(2)
H17A H 0.1257 0.2508 -0.0131
H18A H 0.2576 0.2111 -0.0078
C35A C 0.4398(4) 0.6074(3) -0.1173(2)
H19A H 0.3950 0.6630 -0.1015
H20A H 0.5274 0.6242 -0.0955
C36A C 0.1644(7) 0.7008(5) -0.3135(3)
H21A H 0.1054 0.7191 -0.3481
H22A H 0.1180 0.6588 -0.2852
H23A H 0.2098 0.7612 -0.2845
C37A C 0.7133(5) 0.4741(4) -0.2182(3)
H24A H 0.7721 0.4557 -0.1835
H25A H 0.6733 0.4142 -0.2496
H26A H 0.7589 0.5207 -0.2439
C38A C -0.0150(6) 0.3635(5) -0.5100(4)
H27A H -0.1002 0.3328 -0.5297
H28A H -0.0148 0.3865 -0.4609
H29A H 0.0129 0.4203 -0.5328
C39A C 0.6472(5) 0.3204(5) -0.4232(3)
H30A H 0.7338 0.3509 -0.4062
H31A H 0.6153 0.2753 -0.3924
H32A H 0.6451 0.2828 -0.4692
C40A C 0.4267(5) -0.0396(5) -0.4203(3)
H33A H 0.5035 -0.0422 -0.4426
H34A H 0.4484 -0.0102 -0.3720
H35A H 0.3807 -0.1073 -0.4235
C41A C -0.1804(5) 0.1343(5) -0.3913(3)
H36A H -0.2572 0.1367 -0.3688
H37A H -0.1338 0.2018 -0.3873
H38A H -0.2024 0.1061 -0.4398
C42A C -0.1379(6) 0.2456(5) -0.1563(4)
H39A H -0.1797 0.2970 -0.1324
H40A H -0.1107 0.2665 -0.1986
H41A H -0.1965 0.1828 -0.1675
C43A C 0.3744(5) -0.0498(4) -0.1751(3)
H42A H 0.4143 -0.1021 -0.1993
H43A H 0.4304 0.0142 -0.1696
H44A H 0.3577 -0.0660 -0.1299
C44A C 0.5857(4) 0.2884(4) -0.0539(2)
H45A H 0.6021 0.2909 -0.1020
H46A H 0.6253 0.3525 -0.0257
C45A C 0.6404(5) 0.2049(4) -0.0287(3)
H47A H 0.6083 0.1929 0.0151
H48A H 0.7328 0.2227 -0.0204
C46A C 0.6489(10) 0.0315(6) -0.0593(6)
H49A H 0.6318 -0.0184 -0.1016
H50A H 0.5897 0.0077 -0.0277
C47A C 0.0556(4) 0.5604(3) -0.1011(3)
H51A H 0.0140 0.4979 -0.1304
H52A H 0.0380 0.5568 -0.0533
C48A C 0.0077(5) 0.6484(4) -0.1250(3)
H53A H -0.0851 0.6376 -0.1290
H54A H 0.0341 0.6559 -0.1708
C49A C 0.0374(5) 0.8226(4) -0.1050(3)
H55A H 0.0899 0.8312 -0.1428
H56A H -0.0515 0.8191 -0.1231
C50A C 0.0729(6) 0.9060(4) -0.0501(3)
H57A H 0.0291 0.8929 -0.0097
H58A H 0.0485 0.9671 -0.0649
C51A C 0.2417(9) 0.9783(5) 0.0322(3)
H59A H 0.1791 0.9607 0.0638
H60A H 0.2419 1.0492 0.0275
Cl1 Cl 0.3502(2) 0.0964(2) 0.28472(17)
C52 C 0.3373(6) 0.2172(5) 0.2672(3)
Cl2 Cl 0.3046(2) 0.20654(18) 0.17650(13)
Cl3 Cl 0.2183(2) 0.26890(15) 0.30545(17)
N1 N 0.4036(8) 0.8447(7) 0.2720(4)
N2 N 1.0340(9) 0.5642(10) 0.2898(6)
C53 C 0.4861(8) 0.8135(7) 0.2582(4)
C54 C 0.5913(11) 0.7699(14) 0.2372(6)
C55 C 0.6635(9) 0.7335(7) 0.2823(5)
C56 C 0.7740(9) 0.6877(9) 0.2612(5)
C57 C 0.8375(14) 0.6451(12) 0.3074(7)
C58 C 0.9522(9) 0.5997(7) 0.2959(4)
loop_
_geom_bond_atom_site_label_1
_geom_bond_atom_site_label_2
_geom_bond_site_symmetry_1
_geom_bond_site_symmetry_2
O1 C1 1_555 1_555
O2 C4 1_555 1_555
O3 C7 1_555 1_555
O4 C10 1_555 1_555
O5 C13 1_555 1_555
O6 C16 1_555 1_555
O7 C19 1_555 1_555
O8 C22 1_555 1_555
O9 C28 1_555 1_555
O10 C45 1_555 1_555
O11 C25 1_555 1_555
O12 C48 1_555 1_555
O13 C50 1_555 1_555
C1 C2 1_555 1_555
C2 C3 1_555 1_555
C3 H1 1_555 1_555
C4 C3 1_555 1_555
C5 C4 1_555 1_555
C6 C1 1_555 1_555
H2 C6 1_555 1_555
C7 C8 1_555 1_555
C8 H3 1_555 1_555
C9 C8 1_555 1_555
C10 C9 1_555 1_555
C11 C10 1_555 1_555
H4 C11 1_555 1_555
C12 C7 1_555 1_555
C13 C14 1_555 1_555
C14 H5 1_555 1_555
C15 C14 1_555 1_555
C16 C15 1_555 1_555
C17 C16 1_555 1_555
H6 C17 1_555 1_555
C18 C13 1_555 1_555
C19 C20 1_555 1_555
C20 C21 1_555 1_555
C21 H7 1_555 1_555
C22 C21 1_555 1_555
C23 C22 1_555 1_555
C24 C19 1_555 1_555
H8 C24 1_555 1_555
C25 C26 1_555 1_555
C26 C27 1_555 1_555
C27 H9 1_555 1_555
C28 C27 1_555 1_555
C29 C28 1_555 1_555
C30 C25 1_555 1_555
H10 C30 1_555 1_555
C31 C2 1_555 1_555
H11 C31 1_555 1_555
H12 C31 1_555 1_555
C32 C12 1_555 1_555
H13 C32 1_555 1_555
H14 C32 1_555 1_555
C33 C15 1_555 1_555
H15 C33 1_555 1_555
H16 C33 1_555 1_555
C34 C20 1_555 1_555
H17 C34 1_555 1_555
H18 C34 1_555 1_555
C35 C5 1_555 1_555
H19 C35 1_555 1_555
H20 C35 1_555 1_555
C36 O1 1_555 1_555
H21 C36 1_555 1_555
H22 C36 1_555 1_555
H23 C36 1_555 1_555
C37 O2 1_555 1_555
H24 C37 1_555 1_555
H25 C37 1_555 1_555
H26 C37 1_555 1_555
C38 O3 1_555 1_555
H27 C38 1_555 1_555
H28 C38 1_555 1_555
H29 C38 1_555 1_555
C39 O4 1_555 1_555
H30 C39 1_555 1_555
H31 C39 1_555 1_555
H32 C39 1_555 1_555
C40 O5 1_555 1_555
H33 C40 1_555 1_555
H34 C40 1_555 1_555
H35 C40 1_555 1_555
C41 O6 1_555 1_555
H36 C41 1_555 1_555
H37 C41 1_555 1_555
H38 C41 1_555 1_555
C42 O7 1_555 1_555
H39 C42 1_555 1_555
H40 C42 1_555 1_555
H41 C42 1_555 1_555
C43 O8 1_555 1_555
H42 C43 1_555 1_555
H43 C43 1_555 1_555
H44 C43 1_555 1_555
C44 O9 1_555 1_555
H45 C44 1_555 1_555
H46 C44 1_555 1_555
C45 C44 1_555 1_555
H47 C45 1_555 1_555
H48 C45 1_555 1_555
C46 O10 1_555 1_555
H49 C46 1_555 1_555
H50 C46 1_555 1_555
C47 O11 1_555 1_555
H51 C47 1_555 1_555
H52 C47 1_555 1_555
C48 C47 1_555 1_555
H53 C48 1_555 1_555
H54 C48 1_555 1_555
C49 O12 1_555 1_555
H55 C49 1_555 1_555
H56 C49 1_555 1_555
C50 C49 1_555 1_555
H57 C50 1_555 1_555
H58 C50 1_555 1_555
C51 O13 1_555 1_555
H59 C51 1_555 1_555
H60 C51 1_555 1_555
Cl1 C52 1_555 1_555
C52 Cl2 1_555 1_555
Cl3 C52 1_555 1_555
N1 C53 1_555 1_555
N2 C58 1_555 1_555
C53 C54 1_555 1_555
C54 C55 1_555 1_555
C55 C56 1_555 1_555
C56 C57 1_555 1_555
C57 C58 1_555 1_555
O1A C1A 1_555 1_555
O2A C4A 1_555 1_555
O3A C7A 1_555 1_555
O4A C10A 1_555 1_555
O5A C13A 1_555 1_555
O6A C16A 1_555 1_555
O7A C19A 1_555 1_555
O8A C22A 1_555 1_555
O9A C28A 1_555 1_555
O10A C45A 1_555 1_555
O11A C25A 1_555 1_555
O12A C48A 1_555 1_555
O13A C50A 1_555 1_555
C1A C2A 1_555 1_555
C2A C3A 1_555 1_555
C3A H1A 1_555 1_555
C4A C3A 1_555 1_555
C5A C4A 1_555 1_555
C6A C1A 1_555 1_555
H2A C6A 1_555 1_555
C7A C8A 1_555 1_555
C8A H3A 1_555 1_555
C9A C8A 1_555 1_555
C10A C9A 1_555 1_555
C11A C10A 1_555 1_555
H4A C11A 1_555 1_555
C12A C7A 1_555 1_555
C13A C14A 1_555 1_555
C14A H5A 1_555 1_555
C15A C14A 1_555 1_555
C16A C15A 1_555 1_555
C17A C16A 1_555 1_555
H6A C17A 1_555 1_555
C18A C13A 1_555 1_555
C19A C20A 1_555 1_555
C20A C21A 1_555 1_555
C21A H7A 1_555 1_555
C22A C21A 1_555 1_555
C23A C22A 1_555 1_555
C24A C19A 1_555 1_555
H8A C24A 1_555 1_555
C25A C26A 1_555 1_555
C26A C27A 1_555 1_555
C27A H9A 1_555 1_555
C28A C27A 1_555 1_555
C29A C28A 1_555 1_555
C30A C25A 1_555 1_555
H10A C30A 1_555 1_555
C31A C2A 1_555 1_555
H11A C31A 1_555 1_555
H12A C31A 1_555 1_555
C32A C12A 1_555 1_555
H13A C32A 1_555 1_555
H14A C32A 1_555 1_555
C33A C15A 1_555 1_555
H15A C33A 1_555 1_555
H16A C33A 1_555 1_555
C34A C20A 1_555 1_555
H17A C34A 1_555 1_555
H18A C34A 1_555 1_555
C35A C5A 1_555 1_555
H19A C35A 1_555 1_555
H20A C35A 1_555 1_555
C36A O1A 1_555 1_555
H21A C36A 1_555 1_555
H22A C36A 1_555 1_555
H23A C36A 1_555 1_555
C37A O2A 1_555 1_555
H24A C37A 1_555 1_555
H25A C37A 1_555 1_555
H26A C37A 1_555 1_555
C38A O3A 1_555 1_555
H27A C38A 1_555 1_555
H28A C38A 1_555 1_555
H29A C38A 1_555 1_555
C39A O4A 1_555 1_555
H30A C39A 1_555 1_555
H31A C39A 1_555 1_555
H32A C39A 1_555 1_555
C40A O5A 1_555 1_555
H33A C40A 1_555 1_555
H34A C40A 1_555 1_555
H35A C40A 1_555 1_555
C41A O6A 1_555 1_555
H36A C41A 1_555 1_555
H37A C41A 1_555 1_555
H38A C41A 1_555 1_555
C42A O7A 1_555 1_555
H39A C42A 1_555 1_555
H40A C42A 1_555 1_555
H41A C42A 1_555 1_555
C43A O8A 1_555 1_555
H42A C43A 1_555 1_555
H43A C43A 1_555 1_555
H44A C43A 1_555 1_555
C44A O9A 1_555 1_555
H45A C44A 1_555 1_555
H46A C44A 1_555 1_555
C45A C44A 1_555 1_555
H47A C45A 1_555 1_555
H48A C45A 1_555 1_555
C46A C51 1_555 1_555
H49A C46A 1_555 1_555
H50A C46A 1_555 1_555
C47A O11A 1_555 1_555
H51A C47A 1_555 1_555
H52A C47A 1_555 1_555
C48A C47A 1_555 1_555
H53A C48A 1_555 1_555
H54A C48A 1_555 1_555
C49A O12A 1_555 1_555
H55A C49A 1_555 1_555
H56A C49A 1_555 1_555
C50A C49A 1_555 1_555
H57A C50A 1_555 1_555
H58A C50A 1_555 1_555
C51A C46 1_555 1_555
H59A C51A 1_555 1_555
H60A C51A 1_555 1_555
C5 C6 1_555 1_555
C9 C31 1_555 1_555
C11 C12 1_555 1_555
C17 C18 1_555 1_555
C18 C32 1_555 1_555
C23 C24 1_555 1_555
C23 C33 1_555 1_555
C26 C35 1_555 1_555
C29 C30 1_555 1_555
C29 C34 1_555 1_555
O10A C46A 1_555 1_555
O13A C51A 1_555 1_555
C5A C6A 1_555 1_555
C9A C31A 1_555 1_555
C11A C12A 1_555 1_555
C17A C18A 1_555 1_555
C18A C32A 1_555 1_555
C23A C24A 1_555 1_555
C23A C33A 1_555 1_555
C26A C35A 1_555 1_555
C29A C30A 1_555 1_555
C29A C34A 1_555 1_555

#END
