
#######################################################################
#
#                 Cambridge Crystallographic Data Centre
#                                CCDC 
#
#######################################################################
#
# If this CIF has been generated from an entry in the Cambridge 
# Structural Database, then it will include bibliographic, chemical, 
# crystal, experimental, refinement or atomic coordinate data resulting 
# from the CCDC's data processing and validation procedures.
#
#######################################################################

data_SULLUG10
_chemical_formula_moiety         'C68 H52 N4 O10,2(C1 D2 Cl2)'
_chemical_name_systematic        
"\a,\b:\g,\f-(2,2'-(Ethane-1,2-bis((oxy-m-phenyl) dioxolane))-4,5:4',5'-tetrakis(methyleneoxy-m-phenyl))porphyrin dideutero-dichloromethane solvate"
_symmetry_cell_setting           tetragonal
_symmetry_space_group_name_H-M   'I 41'
_symmetry_Int_Tables_number      80
_space_group_name_Hall           'I 4bw'
loop_
_symmetry_equiv_pos_site_id
_symmetry_equiv_pos_as_xyz
1 x,y,z
2 -y,1/2+x,1/4+z
3 1/2-x,1/2-y,1/2+z
4 1/2+y,-x,3/4+z
5 1/2+x,1/2+y,1/2+z
6 1/2-y,x,3/4+z
7 -x,-y,z
8 y,1/2-x,1/4+z
_cell_length_a                   18.925
_cell_length_b                   18.925
_cell_length_c                   16.974
_cell_angle_alpha                90
_cell_angle_beta                 90
_cell_angle_gamma                90
_cell_volume                     6079.33
_cell_formula_units_Z            4
loop_
_atom_site_label
_atom_site_type_symbol
_atom_site_fract_x
_atom_site_fract_y
_atom_site_fract_z
Cl2 Cl 0.4316(1) -0.0356(1) -0.0092(1)
C36 C 0.5000 0.0000 -0.0666(5)
D1 D 0.4805 0.0375 -0.1010(5)
Cl2F Cl 0.5684(1) 0.0356(1) -0.0092(1)
D1F D 0.5195 -0.0375 -0.1010(5)
O1 O -0.0527(1) -0.7225(1) -0.0872(1)
O2 O -0.1746(1) -1.1881(1) -0.1022(1)
O3 O 0.0049(1) -0.6904(1) -0.2456(1)
O4 O 0.0825(1) -0.7808(1) -0.2401(1)
O5 O 0.0154(1) -0.9294(1) -0.4618(1)
N1 N -0.1022(1) -0.9690(1) 0.0133(1)
N2 N 0.0298(1) -0.8945(1) 0.0190(1)
C1 C -0.1591(1) -1.0123(1) 0.0001(2)
C2 C -0.2201(2) -0.9719(2) -0.0244(2)
C3 C -0.2002(2) -0.9035(2) -0.0245(2)
C4 C -0.1270(1) -0.9018(1) 0.0005(2)
C5 C -0.0875(2) -0.8394(1) 0.0126(2)
C6 C -0.0148(2) -0.8383(1) 0.0268(2)
C7 C 0.0275(2) -0.7788(2) 0.0467(2)
C8 C 0.0966(2) -0.7996(2) 0.0468(2)
C9 C 0.0988(2) -0.8733(1) 0.0267(2)
C10 C -0.1588(1) -1.0861(1) 0.0113(2)
C11 C -0.1265(2) -0.7708(1) 0.0122(2)
C12 C -0.1069(2) -0.7128(2) -0.0341(2)
C13 C -0.1456(2) -0.6497(2) -0.0301(2)
C14 C -0.2045(2) -0.6447(2) 0.0184(2)
C15 C -0.2256(2) -0.7021(2) 0.0623(2)
C16 C -0.1868(2) -0.7642(2) 0.0597(2)
C17 C -0.0127(2) -0.6616(2) -0.1089(2)
C18 C 0.0403(2) -0.6816(1) -0.1716(2)
C19 C -0.2264(1) -1.1254(1) 0.0022(2)
C20 C -0.2307(2) -1.1816(1) -0.0515(2)
C21 C -0.2904(2) -1.2231(2) -0.0570(2)
C22 C -0.3499(2) -1.2054(2) -0.0127(2)
C23 C -0.3487(2) -1.1472(2) 0.0369(2)
C24 C -0.2874(2) -1.1081(2) 0.0450(2)
C25 C -0.1525(2) -1.2571(2) -0.1265(2)
C26 C 0.0797(2) -0.7522(2) -0.1613(2)
C27 C 0.0541(2) -0.7291(2) -0.2911(2)
C28 C 0.0188(2) -0.7608(2) -0.3621(2)
C29 C 0.0297(1) -0.8310(2) -0.3807(2)
C30 C 0.0002(2) -0.8599(2) -0.4492(2)
C31 C -0.0415(2) -0.8180(2) -0.4985(2)
C32 C -0.0522(2) -0.7474(2) -0.4778(2)
C33 C -0.0221(2) -0.7188(2) -0.4109(2)
C34 C -0.0128(2) -0.9624(2) -0.5304(2)
H1 H -0.0581(1) -0.9818(1) 0.0273(1)
H3 H -0.2648(2) -0.9898(2) -0.0378(2)
H4 H -0.2284(2) -0.8645(2) -0.0380(2)
H5 H 0.0108(2) -0.7331(2) 0.0579(2)
H6 H 0.1358(2) -0.7709(2) 0.0581(2)
H7 H -0.1315(2) -0.6106(2) -0.0604(2)
H8 H -0.2299(2) -0.6021(2) 0.0212(2)
H9 H -0.2663(2) -0.6992(2) 0.0939(2)
H10 H -0.2012(2) -0.8029(2) 0.0906(2)
H11 H 0.0122(2) -0.6426(2) -0.0622(2)
H12 H -0.0447(2) -0.6245(2) -0.1293(2)
H13 H 0.0755(2) -0.6431(1) -0.1766(2)
H14 H -0.2910(2) -1.2629(2) -0.0902(2)
H15 H -0.3910(2) -1.2330(2) -0.0165(2)
H16 H -0.3895(2) -1.1344(2) 0.0649(2)
H17 H -0.2866(2) -1.0694(2) 0.0797(2)
H18 H -0.1854(2) -1.2766(2) -0.1663(2)
H19 H -0.1509(2) -1.2897(2) -0.0809(2)
H20 H 0.0516(2) -0.7840(2) -0.1273(2)
H21 H 0.0924(2) -0.6971(2) -0.3086(2)
H22 H 0.0570(1) -0.8595(2) -0.3472(2)
H23 H -0.0619(2) -0.8369(2) -0.5444(2)
H24 H -0.0805(2) -0.7186(2) -0.5102(2)
H25 H -0.0294(2) -0.6709(2) -0.3986(2)
H26 H 0.0036(2) -0.9376(2) -0.5783(2)
H27 H -0.0651(2) -0.9610(2) -0.5292(2)
C9F C -0.0988(2) -1.1267(1) 0.0267(2)
N2F N -0.0298(1) -1.1055(1) 0.0190(1)
C6F C 0.0148(2) -1.1617(1) 0.0268(2)
C5F C 0.0875(2) -1.1606(1) 0.0126(2)
C4F C 0.1270(1) -1.0982(1) 0.0005(2)
N1F N 0.1022(1) -1.0310(1) 0.0133(1)
C1F C 0.1591(1) -0.9877(1) 0.0001(2)
C2F C 0.2201(2) -1.0281(2) -0.0244(2)
C3F C 0.2002(2) -1.0965(2) -0.0245(2)
H4F H 0.2284(2) -1.1355(2) -0.0380(2)
H3F H 0.2648(2) -1.0102(2) -0.0378(2)
C10F C 0.1588(1) -0.9139(1) 0.0113(2)
C19F C 0.2264(1) -0.8746(1) 0.0022(2)
C20F C 0.2307(2) -0.8184(1) -0.0515(2)
O2F O 0.1746(1) -0.8119(1) -0.1022(1)
C25F C 0.1525(2) -0.7429(2) -0.1265(2)
C34F C 0.0128(2) -1.0376(2) -0.5304(2)
O5F O -0.0154(1) -1.0706(1) -0.4618(1)
C30F C -0.0002(2) -1.1401(2) -0.4492(2)
C29F C -0.0297(1) -1.1690(2) -0.3807(2)
C28F C -0.0188(2) -1.2392(2) -0.3621(2)
C27F C -0.0541(2) -1.2709(2) -0.2911(2)
O3F O -0.0049(1) -1.3096(1) -0.2456(1)
C18F C -0.0403(2) -1.3184(1) -0.1716(2)
C17F C 0.0127(2) -1.3384(2) -0.1089(2)
O1F O 0.0527(1) -1.2775(1) -0.0872(1)
C12F C 0.1069(2) -1.2872(2) -0.0341(2)
C11F C 0.1265(2) -1.2292(1) 0.0122(2)
C16F C 0.1868(2) -1.2358(2) 0.0597(2)
C15F C 0.2256(2) -1.2979(2) 0.0623(2)
C14F C 0.2045(2) -1.3553(2) 0.0184(2)
C13F C 0.1456(2) -1.3503(2) -0.0301(2)
H7F H 0.1315(2) -1.3894(2) -0.0604(2)
H8F H 0.2299(2) -1.3979(2) 0.0212(2)
H9F H 0.2663(2) -1.3008(2) 0.0939(2)
H10F H 0.2012(2) -1.1971(2) 0.0906(2)
H11F H -0.0122(2) -1.3574(2) -0.0622(2)
H12F H 0.0447(2) -1.3755(2) -0.1293(2)
C26F C -0.0797(2) -1.2478(2) -0.1613(2)
O4F O -0.0825(1) -1.2192(1) -0.2401(1)
H21F H -0.0924(2) -1.3029(2) -0.3086(2)
H20F H -0.0516(2) -1.2160(2) -0.1273(2)
H13F H -0.0755(2) -1.3569(1) -0.1766(2)
C33F C 0.0221(2) -1.2812(2) -0.4109(2)
C32F C 0.0522(2) -1.2526(2) -0.4778(2)
C31F C 0.0415(2) -1.1820(2) -0.4985(2)
H23F H 0.0619(2) -1.1631(2) -0.5444(2)
H24F H 0.0805(2) -1.2814(2) -0.5102(2)
H25F H 0.0294(2) -1.3291(2) -0.3986(2)
H22F H -0.0570(1) -1.1405(2) -0.3472(2)
H26F H -0.0036(2) -1.0624(2) -0.5783(2)
H27F H 0.0651(2) -1.0390(2) -0.5292(2)
H18F H 0.1854(2) -0.7234(2) -0.1663(2)
H19F H 0.1509(2) -0.7103(2) -0.0809(2)
C21F C 0.2904(2) -0.7769(2) -0.0570(2)
C22F C 0.3499(2) -0.7946(2) -0.0127(2)
C23F C 0.3487(2) -0.8528(2) 0.0369(2)
C24F C 0.2874(2) -0.8919(2) 0.0450(2)
H17F H 0.2866(2) -0.9306(2) 0.0797(2)
H16F H 0.3895(2) -0.8656(2) 0.0649(2)
H15F H 0.3910(2) -0.7670(2) -0.0165(2)
H14F H 0.2910(2) -0.7371(2) -0.0902(2)
H1F H 0.0581(1) -1.0182(1) 0.0273(1)
C7F C -0.0275(2) -1.2212(2) 0.0467(2)
C8F C -0.0966(2) -1.2004(2) 0.0468(2)
H6F H -0.1358(2) -1.2291(2) 0.0581(2)
H5F H -0.0108(2) -1.2669(2) 0.0579(2)
Cl1? Cl 0.0552(1) -0.5533(1) 0.0667(1)
C35? C 0.9702(5) 0.4747(5) 0.0744(7)
H2? H 0.0160(1) -0.9393(1) 0.0102(1)
H28? H 0.9432(5) 0.4476(5) 0.0347(7)
H29? H 0.9535(5) -0.4582(5) 0.1265(7)
D2? D 0.0375 0.0195 0.1490(5)
loop_
_geom_bond_atom_site_label_1
_geom_bond_atom_site_label_2
_geom_bond_site_symmetry_1
_geom_bond_site_symmetry_2
Cl2 C36 1_555 1_555
O1 C12 1_555 1_555
O2 C20 1_555 1_555
O3 C18 1_555 1_555
O4 C26 1_555 1_555
O5 C30 1_555 1_555
N1 C1 1_555 1_555
N2 C6 1_555 1_555
C1 C2 1_555 1_555
C2 C3 1_555 1_555
C3 C4 1_555 1_555
C4 N1 1_555 1_555
C5 C4 1_555 1_555
C6 C5 1_555 1_555
C7 C6 1_555 1_555
C8 C7 1_555 1_555
C9 N2 1_555 1_555
C10 C1 1_555 1_555
C11 C5 1_555 1_555
C12 C11 1_555 1_555
C13 C12 1_555 1_555
C14 C13 1_555 1_555
C15 C14 1_555 1_555
C16 C11 1_555 1_555
C17 O1 1_555 1_555
C18 C17 1_555 1_555
C19 C10 1_555 1_555
C20 C19 1_555 1_555
C21 C20 1_555 1_555
C22 C21 1_555 1_555
C23 C22 1_555 1_555
C24 C19 1_555 1_555
C25 O2 1_555 1_555
C26 C18 1_555 1_555
C27 O3 1_555 1_555
C28 C27 1_555 1_555
C29 C28 1_555 1_555
C30 C29 1_555 1_555
C31 C30 1_555 1_555
C32 C31 1_555 1_555
C33 C28 1_555 1_555
C34 O5 1_555 1_555
C36 D1 1_555 1_555
H1 N1 1_555 1_555
H3 C2 1_555 1_555
H4 C3 1_555 1_555
H5 C7 1_555 1_555
H6 C8 1_555 1_555
H7 C13 1_555 1_555
H8 C14 1_555 1_555
H9 C15 1_555 1_555
H10 C16 1_555 1_555
H11 C17 1_555 1_555
H12 C17 1_555 1_555
H13 C18 1_555 1_555
H14 C21 1_555 1_555
H15 C22 1_555 1_555
H16 C23 1_555 1_555
H17 C24 1_555 1_555
H18 C25 1_555 1_555
H19 C25 1_555 1_555
H20 C26 1_555 1_555
H21 C27 1_555 1_555
H22 C29 1_555 1_555
H23 C31 1_555 1_555
H24 C32 1_555 1_555
H25 C33 1_555 1_555
H26 C34 1_555 1_555
H27 C34 1_555 1_555
Cl2F C36 1_555 1_555
D1F C36 1_555 1_555
C9F C10 1_555 1_555
N2F C9F 1_555 1_555
C6F N2F 1_555 1_555
C5F C6F 1_555 1_555
C4F C5F 1_555 1_555
N1F C4F 1_555 1_555
C1F N1F 1_555 1_555
C2F C1F 1_555 1_555
C3F C4F 1_555 1_555
H4F C3F 1_555 1_555
H3F C2F 1_555 1_555
C10F C9 1_555 1_555
C19F C10F 1_555 1_555
C20F C19F 1_555 1_555
O2F C20F 1_555 1_555
C25F C26 1_555 1_555
C34F C34 1_555 1_555
O5F C34F 1_555 1_555
C30F O5F 1_555 1_555
C29F C30F 1_555 1_555
C28F C29F 1_555 1_555
C27F C28F 1_555 1_555
O3F C27F 1_555 1_555
C18F O3F 1_555 1_555
C17F C18F 1_555 1_555
O1F C17F 1_555 1_555
C12F O1F 1_555 1_555
C11F C5F 1_555 1_555
C16F C11F 1_555 1_555
C15F C16F 1_555 1_555
C14F C15F 1_555 1_555
C13F C12F 1_555 1_555
H7F C13F 1_555 1_555
H8F C14F 1_555 1_555
H9F C15F 1_555 1_555
H10F C16F 1_555 1_555
H11F C17F 1_555 1_555
H12F C17F 1_555 1_555
C26F C25 1_555 1_555
O4F C27F 1_555 1_555
H21F C27F 1_555 1_555
H20F C26F 1_555 1_555
H13F C18F 1_555 1_555
C33F C28F 1_555 1_555
C32F C33F 1_555 1_555
C31F C30F 1_555 1_555
H23F C31F 1_555 1_555
H24F C32F 1_555 1_555
H25F C33F 1_555 1_555
H22F C29F 1_555 1_555
H26F C34F 1_555 1_555
H27F C34F 1_555 1_555
H18F C25F 1_555 1_555
H19F C25F 1_555 1_555
C21F C20F 1_555 1_555
C22F C21F 1_555 1_555
C23F C22F 1_555 1_555
C24F C19F 1_555 1_555
H17F C24F 1_555 1_555
H16F C23F 1_555 1_555
H15F C22F 1_555 1_555
H14F C21F 1_555 1_555
H1F N1F 1_555 1_555
C7F C6F 1_555 1_555
C8F C9F 1_555 1_555
H6F C8F 1_555 1_555
H5F C7F 1_555 1_555
O4 C27 1_555 1_555
C8 C9 1_555 1_555
C15 C16 1_555 1_555
C23 C24 1_555 1_555
C32 C33 1_555 1_555
C1F C10F 1_555 1_555
C2F C3F 1_555 1_555
O2F C25F 1_555 1_555
C18F C26F 1_555 1_555
C12F C11F 1_555 1_555
C14F C13F 1_555 1_555
C26F O4F 1_555 1_555
C32F C31F 1_555 1_555
C23F C24F 1_555 1_555
C7F C8F 1_555 1_555

#END
