
#######################################################################
#
#                 Cambridge Crystallographic Data Centre
#                                CCDC 
#
#######################################################################
#
# If this CIF has been generated from an entry in the Cambridge 
# Structural Database, then it will include bibliographic, chemical, 
# crystal, experimental, refinement or atomic coordinate data resulting 
# from the CCDC's data processing and validation procedures.
#
#######################################################################

data_SULRIB
_chemical_formula_moiety         'C18 H29 Br1 O3 Si1'
_chemical_name_systematic        
1-(6-Bromo-5-ethyl-2,3,3a,5,6,7,10,10a-octahydrofuro[3,2-b]oxonin-2-yl)-3-(trimethylsilyl)prop-2-yn-1-ol
_symmetry_cell_setting           monoclinic
_symmetry_space_group_name_H-M   'P 21'
_symmetry_Int_Tables_number      4
_space_group_name_Hall           'P 2yb'
loop_
_symmetry_equiv_pos_site_id
_symmetry_equiv_pos_as_xyz
1 x,y,z
2 -x,1/2+y,-z
_cell_length_a                   5.8421(5)
_cell_length_b                   19.901(2)
_cell_length_c                   8.8606(8)
_cell_angle_alpha                90
_cell_angle_beta                 91.025(3)
_cell_angle_gamma                90
_cell_volume                     1030
_exptl_crystal_colour            colorless
_exptl_crystal_description       chunk
_cell_formula_units_Z            2
loop_
_atom_site_label
_atom_site_type_symbol
_atom_site_fract_x
_atom_site_fract_y
_atom_site_fract_z
Br1 Br 0.38247(9) 0.48693(3) -0.00334(5)
Si1 Si 0.3047(2) 0.05239(6) 0.5452(1)
O1 O 0.0476(4) 0.3041(1) 0.0336(3)
O2 O -0.1975(5) 0.1855(2) -0.0550(3)
O3 O -0.1853(8) 0.2213(2) 0.2560(5)
C1 C 0.2459(7) 0.4015(2) -0.0728(5)
C2 C 0.0292(7) 0.4159(2) -0.1713(5)
C3 C 0.0249(9) 0.3764(3) -0.3126(5)
C4 C -0.0821(8) 0.3185(3) -0.3393(5)
C5 C -0.2154(7) 0.2786(2) -0.2299(4)
C6 C -0.0649(7) 0.2263(2) -0.1571(4)
C7 C 0.1347(6) 0.2508(2) -0.0578(4)
C8 C 0.1999(7) 0.3598(2) 0.0697(4)
C9 C 0.4124(7) 0.3378(2) 0.1574(4)
C10 C 0.3605(9) 0.3161(3) 0.3180(5)
C11 C 0.1886(7) 0.1887(2) 0.0340(4)
C12 C -0.0432(8) 0.1526(2) 0.0489(5)
C13 C -0.1502(8) 0.1552(3) 0.2028(5)
C14 C -0.0074(9) 0.1185(3) 0.3137(5)
C15 C 0.1117(8) 0.0902(2) 0.4015(5)
C16 C 0.4892(8) -0.0099(4) 0.4555(5)
C17 C 0.4823(9) 0.1226(3) 0.6260(6)
C18 C 0.1224(8) 0.0135(3) 0.6894(5)
H1 H -0.1059 0.4054 -0.1139
H2 H 0.0242 0.4634 -0.1960
H3 H -0.3433 0.2570 -0.2816
H4 H -0.2759 0.3081 -0.1531
H5 H 0.5210 0.3746 0.1608
H6 H 0.4834 0.3007 0.1049
H7 H 0.3719 0.3542 0.3841
H8 H 0.4685 0.2824 0.3500
H9 H 0.2084 0.2979 0.3211
H10 H 0.2511 0.2007 0.1326
H11 H 0.2978 0.1604 -0.0172
H12 H 0.4168 -0.0531 0.4580
H13 H 0.6334 -0.0120 0.5090
H14 H 0.5142 0.0029 0.3526
H15 H 0.6194 0.1273 0.5689
H16 H 0.5218 0.1126 0.7293
H17 H 0.3965 0.1637 0.6213
H18 H 0.0902 0.0458 0.7665
H19 H 0.2008 -0.0243 0.7336
H20 H -0.0186 -0.0014 0.6431
H21 H -0.0044 0.1972 -0.2362
H22 H 0.2653 0.2653 -0.1177
H23 H 0.1151 0.3892 0.1375
H24 H 0.1067 0.3941 -0.3924
H25 H -0.0723 0.3012 -0.4365
H26 H -0.0258 0.1055 0.0186
H27 H 0.3575 0.3777 -0.1342
H28 H -0.2994 0.1328 0.1958
H29 H -0.159(9) 0.238(3) 0.195(5)
loop_
_geom_bond_atom_site_label_1
_geom_bond_atom_site_label_2
_geom_bond_site_symmetry_1
_geom_bond_site_symmetry_2
Br1 C1 1_555 1_555
Si1 C15 1_555 1_555
O1 C7 1_555 1_555
O2 C6 1_555 1_555
O3 C13 1_555 1_555
C1 C2 1_555 1_555
C2 C3 1_555 1_555
C3 C4 1_555 1_555
C4 C5 1_555 1_555
C5 C6 1_555 1_555
C6 C7 1_555 1_555
C7 C11 1_555 1_555
C8 O1 1_555 1_555
C9 C8 1_555 1_555
C10 C9 1_555 1_555
C11 C12 1_555 1_555
C12 O2 1_555 1_555
C13 C12 1_555 1_555
C14 C13 1_555 1_555
C15 C14 1_555 1_555
C16 Si1 1_555 1_555
C17 Si1 1_555 1_555
C18 Si1 1_555 1_555
H1 C2 1_555 1_555
H2 C2 1_555 1_555
H3 C5 1_555 1_555
H4 C5 1_555 1_555
H5 C9 1_555 1_555
H6 C9 1_555 1_555
H7 C10 1_555 1_555
H8 C10 1_555 1_555
H9 C10 1_555 1_555
H10 C11 1_555 1_555
H11 C11 1_555 1_555
H12 C16 1_555 1_555
H13 C16 1_555 1_555
H14 C16 1_555 1_555
H15 C17 1_555 1_555
H16 C17 1_555 1_555
H17 C17 1_555 1_555
H18 C18 1_555 1_555
H19 C18 1_555 1_555
H20 C18 1_555 1_555
H21 C6 1_555 1_555
H22 C7 1_555 1_555
H23 C8 1_555 1_555
H24 C3 1_555 1_555
H25 C4 1_555 1_555
H26 C12 1_555 1_555
H27 C1 1_555 1_555
H28 C13 1_555 1_555
H29 O3 1_555 1_555
C1 C8 1_555 1_555

#END
