
#######################################################################
#
#                 Cambridge Crystallographic Data Centre
#                                CCDC 
#
#######################################################################
#
# If this CIF has been generated from an entry in the Cambridge 
# Structural Database, then it will include bibliographic, chemical, 
# crystal, experimental, refinement or atomic coordinate data resulting 
# from the CCDC's data processing and validation procedures.
#
#######################################################################

data_SULSAU
_chemical_formula_moiety         'C28 H52 N3 1+,Br1 1-'
_chemical_name_systematic        
"N,N,N',N',N''-Pentabutyl-N''-benzylguanidinium bromide"
_symmetry_cell_setting           triclinic
_symmetry_space_group_name_H-M   'P -1'
_symmetry_Int_Tables_number      2
_space_group_name_Hall           '-P 1'
loop_
_symmetry_equiv_pos_site_id
_symmetry_equiv_pos_as_xyz
1 x,y,z
2 -x,-y,-z
_cell_length_a                   10.577(3)
_cell_length_b                   11.099(3)
_cell_length_c                   14.143(4)
_cell_angle_alpha                101.28(2)
_cell_angle_beta                 95.81(2)
_cell_angle_gamma                102.16(2)
_cell_volume                     1574.04
_exptl_crystal_colour            colorless
_exptl_crystal_description       block
_cell_formula_units_Z            2
loop_
_atom_site_label
_atom_site_type_symbol
_atom_site_fract_x
_atom_site_fract_y
_atom_site_fract_z
Br1 Br 0.01540(13) 0.18937(9) 0.31548(7)
N1 N -0.0311(6) 0.2755(5) 0.6338(4)
C1 C -0.0479(7) 0.3039(8) 0.7289(6)
N2 N -0.0269(6) 0.4261(6) 0.7770(4)
C2 C 0.0339(8) 0.1746(6) 0.5967(5)
H1 H -0.0080 0.1309 0.5311
H2 H 0.0252 0.1136 0.6377
C3 C -0.0776(9) 0.3442(7) 0.5639(5)
H3 H -0.0190 0.3507 0.5157
H4 H -0.0773 0.4292 0.5979
N3 N -0.0850(6) 0.2087(6) 0.7741(4)
C4 C 0.1749(9) 0.2285(8) 0.5957(7)
H5 H 0.2177 0.2672 0.6619
H6 H 0.1834 0.2938 0.5585
C5 C 0.2407(9) 0.1292(9) 0.5519(8)
H7 H 0.1826 0.0700 0.4973
H8 H 0.2635 0.0828 0.6000
C6 C 0.3921(12) 0.177(2) 0.5625(19)
H9 H 0.4289 0.1083 0.5346
H10 H 0.4277 0.2068 0.6303
H11 H 0.4129 0.2442 0.5292
C7 C -0.2138(9) 0.2775(8) 0.5137(6)
H12 H -0.2712 0.2709 0.5627
H13 H -0.2131 0.1923 0.4810
C8 C -0.2703(14) 0.3429(14) 0.4388(9)
H14 H -0.2031 0.3681 0.4000
H15 H -0.3417 0.2813 0.3952
C9 C -0.3161(15) 0.4483(15) 0.4760(12)
H16 H -0.3498 0.4809 0.4233
H17 H -0.2457 0.5120 0.5171
H18 H -0.3843 0.4248 0.5135
C10 C -0.0355(10) 0.2243(9) 0.8766(7)
H19 H -0.1045 0.1925 0.9119
H20 H 0.0037 0.3124 0.9069
C11 C -0.1730(8) 0.0900(8) 0.7229(6)
H21 H -0.1330 0.0205 0.7296
H22 H -0.1901 0.0892 0.6541
C12 C -0.3022(12) 0.0739(11) 0.7658(8)
H23 H -0.2822 0.1027 0.8361
H24 H -0.3530 0.1279 0.7418
C13 C -0.3823(15) -0.0555(13) 0.7425(12)
H25 H -0.3262 -0.1111 0.7548
H26 H -0.4150 -0.0781 0.6732
C14 C -0.4985(19) -0.082(2) 0.7973(14)
H27 H -0.5457 -0.1682 0.7744
H28 H -0.5553 -0.0271 0.7862
H29 H -0.4677 -0.0659 0.8658
C16 C -0.1061(10) 0.4641(9) 0.8497(7)
H33 H -0.1692 0.3893 0.8549
H34 H -0.0496 0.4959 0.9120
C17 C -0.1730(15) 0.5539(13) 0.8347(11)
H35 H -0.1109 0.6304 0.8314
H36 H -0.2184 0.5741 0.8898
C18 C 0.0737(9) 0.5221(7) 0.7534(6)
H37 H 0.0351 0.5872 0.7343
H38 H 0.1121 0.4843 0.6990
C19 C 0.1764(13) 0.5790(11) 0.8389(9)
C20 C 0.2167(12) 0.7001(14) 0.8706(8)
H39 H 0.1779 0.7509 0.8376
C21 C 0.3146(17) 0.7616(15) 0.9508(12)
H40 H 0.3310 0.8480 0.9767
C22 C 0.3815(13) 0.6887(19) 0.9870(10)
H41 H 0.4504 0.7261 1.0375
C23 C 0.3535(18) 0.559(2) 0.9527(14)
H42 H 0.3976 0.5077 0.9805
C24 C 0.2533(14) 0.5118(15) 0.8730(10)
H43 H 0.2398 0.4273 0.8416
C25 C 0.0216(16) 0.1259(17) 0.9147(17)
H44 H -0.0268 0.0412 0.8817
H45 H 0.0200 0.1358 0.9843
C26 C 0.1629(17) 0.151(2) 0.8927(16)
H46 H 0.2030 0.2409 0.9087
H47 H 0.1653 0.1176 0.8244
C27 C 0.2347(16) 0.0813(17) 0.9583(13)
H48 H 0.2934 0.0894 1.0168
H49 H 0.2841 0.1029 0.9081
H50 H 0.1839 -0.0043 0.9373
C28 C -0.2698(18) 0.512(2) 0.7435(13)
H51 H -0.3056 0.4211 0.7303
H52 H -0.2287 0.5319 0.6885
C29 C -0.3802(17) 0.5840(18) 0.7608(15)
H53 H -0.4439 0.5616 0.7031
H54 H -0.3429 0.6734 0.7757
H55 H -0.4215 0.5614 0.8143
C15? C -0.5406(19) 0.015(3) 0.7693(17)
H30? H -0.6247 0.0274 0.7475
H31? H -0.5226 0.0389 0.8392
H32? H -0.5405 -0.0731 0.7483
C30? C -0.434(2) 0.096(3) 0.726(3)
C31? C 0.069(2) 0.144(2) 0.8731(15)
C32? C 0.143(3) 0.171(3) 0.9785(16)
C33? C -0.311(2) 0.482(2) 0.785(3)
C34? C 0.366(3) 0.196(5) 0.517(4)
H56? H -0.4495 0.0709 0.6550
H57? H -0.4346 0.1848 0.7447
H58? H 0.0274 0.0546 0.8507
H59? H 0.1296 0.1676 0.8290
H60? H 0.1905 0.2584 1.0013
H61? H 0.0850 0.1473 1.0242
H62? H -0.3572 0.4363 0.8279
H63? H -0.3078 0.4219 0.7256
H64? H 0.4106 0.1335 0.4888
H65? H 0.4229 0.2542 0.5713
H66? H 0.3425 0.2404 0.4688
loop_
_geom_bond_atom_site_label_1
_geom_bond_atom_site_label_2
_geom_bond_site_symmetry_1
_geom_bond_site_symmetry_2
N1 C1 1_555 1_555
C1 N2 1_555 1_555
N2 C16 1_555 1_555
C2 N1 1_555 1_555
H1 C2 1_555 1_555
H2 C2 1_555 1_555
C3 N1 1_555 1_555
H3 C3 1_555 1_555
H4 C3 1_555 1_555
N3 C1 1_555 1_555
C4 C2 1_555 1_555
H5 C4 1_555 1_555
H6 C4 1_555 1_555
C5 C4 1_555 1_555
H7 C5 1_555 1_555
H8 C5 1_555 1_555
C6 C5 1_555 1_555
H9 C6 1_555 1_555
H10 C6 1_555 1_555
H11 C6 1_555 1_555
C7 C3 1_555 1_555
H12 C7 1_555 1_555
H13 C7 1_555 1_555
C8 C7 1_555 1_555
H14 C8 1_555 1_555
H15 C8 1_555 1_555
C9 C8 1_555 1_555
H16 C9 1_555 1_555
H17 C9 1_555 1_555
H18 C9 1_555 1_555
C10 N3 1_555 1_555
H19 C10 1_555 1_555
H20 C10 1_555 1_555
C11 N3 1_555 1_555
H21 C11 1_555 1_555
H22 C11 1_555 1_555
C12 C11 1_555 1_555
H23 C12 1_555 1_555
H24 C12 1_555 1_555
C13 C12 1_555 1_555
H25 C13 1_555 1_555
H26 C13 1_555 1_555
C14 C13 1_555 1_555
H27 C14 1_555 1_555
H28 C14 1_555 1_555
H29 C14 1_555 1_555
C16 H33 1_555 1_555
H34 C16 1_555 1_555
C17 C16 1_555 1_555
H35 C17 1_555 1_555
H36 C17 1_555 1_555
C18 N2 1_555 1_555
H37 C18 1_555 1_555
H38 C18 1_555 1_555
C19 C18 1_555 1_555
C20 C19 1_555 1_555
H39 C20 1_555 1_555
C21 C20 1_555 1_555
H40 C21 1_555 1_555
C22 C21 1_555 1_555
H41 C22 1_555 1_555
C23 C22 1_555 1_555
H42 C23 1_555 1_555
C24 C19 1_555 1_555
H43 C24 1_555 1_555
C25 C10 1_555 1_555
H44 C25 1_555 1_555
H45 C25 1_555 1_555
C26 C25 1_555 1_555
H46 C26 1_555 1_555
H47 C26 1_555 1_555
C27 C26 1_555 1_555
H48 C27 1_555 1_555
H49 C27 1_555 1_555
H50 C27 1_555 1_555
C28 C17 1_555 1_555
H51 C28 1_555 1_555
H52 C28 1_555 1_555
C29 C28 1_555 1_555
H53 C29 1_555 1_555
H54 C29 1_555 1_555
H55 C29 1_555 1_555
C23 C24 1_555 1_555

#END
