
#######################################################################
#
#                 Cambridge Crystallographic Data Centre
#                                CCDC 
#
#######################################################################
#
# If this CIF has been generated from an entry in the Cambridge 
# Structural Database, then it will include bibliographic, chemical, 
# crystal, experimental, refinement or atomic coordinate data resulting 
# from the CCDC's data processing and validation procedures.
#
#######################################################################

data_SULXEE
_chemical_formula_moiety         'C15 H14 O2 S1'
_chemical_name_systematic        4,6-dimethyl-8-(3-thienyl)chroman-2-one
_symmetry_cell_setting           monoclinic
_symmetry_space_group_name_H-M   'P 21/c'
_symmetry_Int_Tables_number      14
_space_group_name_Hall           '-P 2ybc'
loop_
_symmetry_equiv_pos_site_id
_symmetry_equiv_pos_as_xyz
1 x,y,z
2 -x,1/2+y,1/2-z
3 -x,-y,-z
4 x,1/2-y,1/2+z
_cell_length_a                   8.1040(16)
_cell_length_b                   17.252(4)
_cell_length_c                   9.4860(19)
_cell_angle_alpha                90
_cell_angle_beta                 106.24(3)
_cell_angle_gamma                90
_cell_volume                     1273.32
_exptl_crystal_description       block
_cell_formula_units_Z            4
loop_
_atom_site_label
_atom_site_type_symbol
_atom_site_fract_x
_atom_site_fract_y
_atom_site_fract_z
S1 S 0.4049(2) 0.32036(8) 0.96803(15)
C1 C 0.1390(6) 0.3661(3) 0.4766(5)
H1 H 0.1241 0.3157 0.5113
O1 O 0.3452(8) 0.5472(2) 0.6237(4)
C2 C 0.0789(7) 0.3811(3) 0.3266(5)
O2 O 0.4456(8) 0.6634(3) 0.6810(5)
C3 C 0.1140(8) 0.4534(3) 0.2781(6)
H2 H 0.0786 0.4640 0.1757
C4 C 0.1983(9) 0.5105(3) 0.3723(6)
C5 C 0.2566(13) 0.5888(4) 0.3245(7)
H3 H 0.3712 0.5709 0.3170
C6 C 0.3144(9) 0.6380(3) 0.4313(6)
H4 H 0.2225 0.6771 0.4212
H5 H 0.4113 0.6652 0.4082
C7 C 0.3741(8) 0.6194(3) 0.5887(6)
C8 C 0.2512(8) 0.4933(3) 0.5207(5)
C9 C 0.2197(6) 0.4221(3) 0.5774(5)
C10 C -0.0107(9) 0.3204(3) 0.2217(6)
H6 H -0.0442 0.3418 0.1220
H7 H -0.1136 0.3033 0.2479
H8 H 0.0665 0.2763 0.2259
C11 C 0.1838(9) 0.6085(3) 0.1684(6)
H9 H 0.2341 0.6572 0.1471
H10 H 0.0590 0.6143 0.1469
H11 H 0.2100 0.5670 0.1074
C12 C 0.2864(5) 0.4018(3) 0.7370(5)
C13 C 0.2968(7) 0.4504(3) 0.8562(5)
H12 H 0.2634 0.5034 0.8456
C14 C 0.3607(7) 0.4146(3) 0.9929(5)
H13 H 0.3769 0.4393 1.0853
C15 C 0.3421(7) 0.3294(3) 0.7813(6)
H14 H 0.3458 0.2882 0.7157
loop_
_geom_bond_atom_site_label_1
_geom_bond_atom_site_label_2
_geom_bond_site_symmetry_1
_geom_bond_site_symmetry_2
S1 C14 1_555 1_555
C1 H1 1_555 1_555
O1 C7 1_555 1_555
C2 C1 1_555 1_555
O2 C7 1_555 1_555
C3 C2 1_555 1_555
H2 C3 1_555 1_555
C4 C3 1_555 1_555
C5 C4 1_555 1_555
H3 C5 1_555 1_555
C6 C5 1_555 1_555
H4 C6 1_555 1_555
H5 C6 1_555 1_555
C7 C6 1_555 1_555
C8 O1 1_555 1_555
C9 C1 1_555 1_555
C10 C2 1_555 1_555
H6 C10 1_555 1_555
H7 C10 1_555 1_555
H8 C10 1_555 1_555
C11 C5 1_555 1_555
H9 C11 1_555 1_555
H10 C11 1_555 1_555
H11 C11 1_555 1_555
C12 C9 1_555 1_555
C13 C12 1_555 1_555
H12 C13 1_555 1_555
C14 C13 1_555 1_555
H13 C14 1_555 1_555
C15 S1 1_555 1_555
H14 C15 1_555 1_555
C4 C8 1_555 1_555
C8 C9 1_555 1_555
C12 C15 1_555 1_555

#END
