
#######################################################################
#
#                 Cambridge Crystallographic Data Centre
#                                CCDC 
#
#######################################################################
#
# If this CIF has been generated from an entry in the Cambridge 
# Structural Database, then it will include bibliographic, chemical, 
# crystal, experimental, refinement or atomic coordinate data resulting 
# from the CCDC's data processing and validation procedures.
#
#######################################################################

data_SULZUW
_chemical_name_common            
'Nona-p-nitrobenzoate derivative of bastimolide A acetone solvate'
_chemical_formula_moiety         'C107 H111 N9 O38,C3 H6 O1'
_chemical_name_systematic        
'40-t-butyl-4-methyl-2-oxooxacyclotetracont-3-ene-10,12,16,20,22,24,28,32,36-nonayl nonakis(4-nitrobenzoate) acetone solvate'
_symmetry_cell_setting           monoclinic
_symmetry_space_group_name_H-M   'P 21'
_symmetry_Int_Tables_number      4
_space_group_name_Hall           'P 2yb'
loop_
_symmetry_equiv_pos_site_id
_symmetry_equiv_pos_as_xyz
1 x,y,z
2 -x,1/2+y,-z
_cell_length_a                   10.7088(6)
_cell_length_b                   44.986(2)
_cell_length_c                   11.2096(6)
_cell_angle_alpha                90
_cell_angle_beta                 91.109(3)
_cell_angle_gamma                90
_cell_volume                     5399.17
_exptl_crystal_colour            colorless
_exptl_crystal_description       flake
_cell_formula_units_Z            2
loop_
_atom_site_label
_atom_site_type_symbol
_atom_site_fract_x
_atom_site_fract_y
_atom_site_fract_z
O1 O 0.4540(11) 0.8919(2) 0.3864(8)
O2 O 0.6149(12) 0.8947(3) 0.2804(9)
O3 O 0.3038(9) 0.8060(2) 0.4587(8)
O4 O 0.4395(11) 0.8229(3) 0.3426(8)
O5 O 0.3240(8) 0.7182(2) 0.4348(8)
O6 O 0.2403(11) 0.6834(3) 0.5396(9)
O7 O 0.1980(13) 0.6060(2) 0.5124(9)
O8 O 0.7577(10) 0.7434(3) 0.4985(8)
O9 O 0.9079(10) 0.7451(2) 0.3779(8)
O10 O 0.9185(10) 0.8135(2) 0.4008(9)
O11 O 0.9972(10) 0.8458(3) 0.2831(9)
O12 O 0.7958(9) 0.6670(3) 0.4510(9)
O13 O 0.6395(9) 0.6746(2) 0.5666(8)
O14 O 0.7790(11) 0.5378(2) 0.3929(8)
O15 O 0.9816(11) 0.5392(2) 0.4121(8)
O16 O 0.1705(8) 0.5035(2) 1.5721(9)
O17 O 0.1661(9) 0.4675(2) 1.4425(9)
O18 O 0.3842(12) 0.6238(2) 0.4801(8)
O19 O 1.3770(8) 0.97479(17) 1.3087(7)
O20 O 1.5432(8) 0.95834(18) 1.4166(7)
O21 O 0.6351(8) 0.53668(17) 1.1338(7)
O22 O 0.6128(7) 0.57634(16) 1.2551(7)
O23 O 0.4759(8) 0.63460(16) 1.0829(7)
O24 O 1.1409(9) 0.77606(17) 0.9689(7)
O25 O 0.7200(8) 0.7440(2) 0.9188(7)
O26 O 0.5454(7) 0.74206(17) 1.0326(6)
O27 O 1.1983(10) 0.6662(2) 0.9410(7)
O28 O 1.0278(8) 0.66983(16) 1.0567(6)
O29 O 0.9796(8) 0.9100(2) 0.7999(7)
O30 O 0.7976(8) 0.9016(2) 0.8937(8)
O31 O 0.7409(9) 0.61959(18) 0.9158(8)
O32 O 1.2359(7) 0.87787(16) 0.8730(7)
O33 O 1.3135(8) 0.77978(18) 0.8454(7)
O34 O 0.3644(9) 0.59321(18) 1.1111(7)
O35 O 0.8569(11) 0.8319(2) 0.8189(9)
O36 O 0.8969(8) 0.58975(17) 0.9801(7)
O37 O 0.6938(10) 0.8430(2) 0.9328(8)
O38 O 1.3577(8) 0.90325(19) 0.7502(7)
N1 N 0.9869(11) 0.8346(2) 0.3837(10)
N2 N 0.5641(14) 0.8955(3) 0.3745(10)
N3 N 0.8687(11) 0.7467(2) 0.4774(8)
N4 N 0.4089(11) 0.8157(2) 0.4424(9)
N5 N 0.7520(11) 0.6704(2) 0.5475(10)
N6 N 0.8756(11) 0.54453(19) 0.4494(9)
N7 N 0.3042(11) 0.6147(2) 0.5455(10)
N8 N 0.2019(11) 0.4912(2) 1.4813(10)
N9 N 0.3075(10) 0.7044(2) 0.5284(10)
C1 C 0.3795(14) 0.7138(3) 0.6340(11)
C2 C 0.4931(13) 0.8198(2) 0.5443(10)
C3 C 1.1097(12) 0.7669(2) 0.7663(10)
C4 C 0.6058(11) 0.7406(2) 0.9318(11)
C5 C 0.3532(13) 0.7031(3) 0.7435(11)
H1 H 0.2879 0.6891 0.7523
C6 C 0.6574(13) 0.8279(3) 0.7295(12)
C7 C 0.5177(12) 0.6357(3) 1.2074(10)
H2 H 0.4668 0.6218 1.2563
C8 C 1.1923(11) 0.8726(2) 0.6682(10)
C9 C 0.5204(11) 0.7317(3) 0.8286(10)
C10 C 0.8680(14) 0.9054(3) 0.7985(10)
C11 C 0.4210(11) 0.7126(2) 0.8428(11)
H3 H 0.3994 0.7059 0.9202
C12 C 0.4441(15) 0.8209(3) 0.6567(11)
H4 H 0.3572 0.8188 0.6697
C13 C 0.9529(13) 0.7534(2) 0.5748(11)
C14 C 0.6556(11) 0.9036(3) 0.6942(11)
H5 H 0.6165 0.9062 0.7689
C15 C 1.1058(13) 0.6725(3) 1.1678(10)
H6 H 1.1930 0.6663 1.1499
C16 C 0.8345(12) 0.6702(2) 0.6549(10)
C17 C 0.6179(13) 0.7440(2) 1.1451(10)
H7 H 0.7067 0.7384 1.1310
C18 C 0.5829(14) 0.9000(3) 0.5913(12)
H8 H 0.4944 0.8993 0.5950
C19 C 0.8199(12) 0.6006(3) 0.8970(12)
C20 C 0.3159(13) 0.5365(3) 1.4254(11)
H9 H 0.2613 0.5474 1.4747
C21 C 0.7866(13) 0.9034(3) 0.6887(10)
C22 C 0.8774(12) 0.6797(2) 0.8598(11)
H10 H 0.8519 0.6868 0.9353
C23 C 1.2709(12) 0.8647(2) 1.0770(10)
H11 H 1.3195 0.8687 1.1513
H12 H 1.1815 0.8680 1.0936
C24 C 0.8378(10) 0.5861(2) 0.7796(9)
C25 C 1.0753(14) 0.7583(3) 0.5527(11)
H13 H 1.1057 0.7566 0.4740
C26 C 0.5296(16) 0.8255(3) 0.7506(11)
H14 H 0.5004 0.8269 0.8299
C27 C 0.6415(13) 0.8974(2) 0.4847(11)
C28 C 1.3480(12) 0.9618(2) 1.5119(11)
H15 H 1.3852 0.9556 1.5854
C29 C 1.0340(14) 0.6594(3) 0.7414(11)
H16 H 1.1173 0.6525 0.7342
C30 C 1.2052(14) 0.7748(2) 0.8631(11)
C31 C 0.9956(12) 0.6690(2) 0.8496(10)
C32 C 1.2256(14) 0.7791(3) 1.0785(10)
H17 H 1.3132 0.7732 1.0605
C33 C 1.2679(12) 0.8869(3) 0.7699(11)
C34 C 0.9084(12) 0.6032(2) 1.0997(10)
H18 H 0.8817 0.6245 1.0937
C35 C 0.7520(11) 0.5926(2) 0.6865(10)
H19 H 0.6870 0.6066 0.6986
C36 C 0.5509(13) 0.7427(3) 0.7161(11)
H20 H 0.6192 0.7559 0.7072
C37 C 1.3752(12) 0.9646(3) 1.1020(10)
H21 H 1.2877 0.9708 1.1144
H22 H 1.4010 0.9726 1.0239
C38 C 0.9853(12) 0.7612(3) 0.7833(11)
H23 H 0.9521 0.7634 0.8608
C39 C 1.0824(11) 0.6684(2) 0.9542(10)
C40 C 1.0672(12) 0.8473(3) 0.4812(10)
C41 C 0.7516(14) 0.8343(3) 0.8364(12)
C42 C 0.4108(13) 0.5503(3) 1.3595(11)
H24 H 0.4199 0.5713 1.3629
C43 C 1.0514(14) 0.8367(3) 0.5953(11)
H25 H 0.9962 0.8206 0.6090
C44 C 1.1142(13) 0.8492(3) 0.6867(11)
H26 H 1.1042 0.8417 0.7652
C45 C 0.3830(11) 0.6131(2) 0.9153(10)
C46 C 1.3129(14) 0.8868(3) 0.9772(10)
H27 H 1.4031 0.8834 0.9599
C47 C 1.1566(12) 0.7661(3) 0.6479(11)
H28 H 1.2416 0.7707 0.6336
C48 C 0.4337(13) 0.6308(2) 0.7191(10)
H29 H 0.4822 0.6426 0.6671
C49 C 0.7677(17) 0.8460(4) 1.0428(12)
H30 H 0.8526 0.8373 1.0312
C50 C 1.2268(16) 0.9670(3) 1.5150(11)
C51 C 0.5855(11) 0.5481(2) 1.2176(10)
C52 C 0.6216(12) 0.8216(3) 0.5233(12)
H31 H 0.6528 0.8195 0.4450
C53 C 1.1467(12) 0.8706(3) 0.4548(12)
H32 H 1.1571 0.8776 0.3756
C54 C 0.7900(12) 0.6808(2) 0.7617(10)
H33 H 0.7075 0.6882 0.7695
C55 C 0.6846(11) 0.5949(2) 1.1759(10)
H34 H 0.6538 0.5920 1.0918
C56 C 0.6590(11) 0.6265(2) 1.2146(11)
H35 H 0.7072 0.6402 1.1639
H36 H 0.6897 0.6290 1.2979
C57 C 0.7011(16) 0.8286(3) 1.1335(12)
H37 H 0.6156 0.8365 1.1421
H38 H 0.7453 0.8305 1.2115
C58 C 0.2592(11) 0.5953(3) 0.7439(10)
H39 H 0.1938 0.5838 0.7087
C59 C 0.7624(13) 0.5784(3) 0.5764(11)
H40 H 0.7026 0.5815 0.5139
C60 C 0.4046(11) 0.6124(2) 1.0469(10)
C61 C 1.0440(12) 0.6025(3) 1.1316(11)
H41 H 1.0903 0.6117 1.0655
H42 H 1.0703 0.5814 1.1368
C62 C 1.0840(11) 0.6179(3) 1.2472(10)
H43 H 1.1757 0.6158 1.2566
H44 H 1.0458 0.6071 1.3143
C63 C 0.9349(11) 0.5674(3) 0.7618(10)
H45 H 0.9929 0.5636 0.8251
C64 C 0.5788(11) 0.6901(2) 1.1870(10)
H46 H 0.5574 0.6886 1.1009
H47 H 0.6683 0.6850 1.1970
C65 C 0.4787(11) 0.7337(3) 0.6164(10)
H48 H 0.4965 0.7410 0.5390
C66 C 0.2853(12) 0.5948(3) 0.8693(11)
H49 H 0.2383 0.5825 0.9208
C67 C 1.1667(14) 0.7248(2) 1.1210(10)
H50 H 1.1206 0.7237 1.0437
H51 H 1.2540 0.7186 1.1071
C68 C 1.2102(14) 0.8829(3) 0.5521(11)
H52 H 1.2670 0.8988 0.5394
C69 C 1.2202(12) 0.8104(2) 1.1190(10)
H53 H 1.2555 0.8116 1.2012
H54 H 1.1315 0.8165 1.1221
C70 C 0.8430(13) 0.9011(2) 0.5812(11)
H55 H 0.9315 0.9016 0.5772
C71 C 1.1343(15) 0.9751(3) 1.4154(11)
H56 H 1.0596 0.9845 1.4498
H57 H 1.1731 0.9895 1.3609
C72 C 0.5032(11) 0.6676(2) 1.2531(10)
H58 H 0.4140 0.6733 1.2468
H59 H 0.5281 0.6683 1.3385
C73 C 0.7678(14) 0.8981(3) 0.4726(11)
H60 H 0.8050 0.8967 0.3966
C74 C 1.4821(11) 1.0123(2) 1.1874(11)
C75 C 0.4735(13) 0.5037(3) 1.2821(11)
H61 H 0.5271 0.4924 1.2329
C76 C 0.4592(11) 0.6303(2) 0.8410(10)
H62 H 0.5272 0.6414 0.8738
C77 C 0.3075(13) 0.5064(3) 1.4137(11)
C78 C 1.1660(14) 0.9624(3) 1.6374(11)
H63 H 1.2304 0.9570 1.6967
H64 H 1.1037 0.9465 1.6313
H65 H 1.1253 0.9809 1.6619
C79 C 0.3360(11) 0.6137(2) 0.6756(9)
C80 C 1.3812(14) 0.9312(3) 1.0980(11)
H66 H 1.4673 0.9249 1.0800
H67 H 1.3597 0.9231 1.1770
C81 C 1.4605(12) 0.9787(2) 1.2032(10)
H68 H 1.5409 0.9676 1.2138
C82 C 0.8219(10) 0.5874(2) 1.1845(10)
H69 H 0.8309 0.5657 1.1715
H70 H 0.8513 0.5916 1.2670
C83 C 0.9552(13) 0.6593(3) 0.6400(12)
H71 H 0.9825 0.6522 0.5651
C84 C 0.4890(12) 0.5341(2) 1.2917(11)
C85 C 1.0516(14) 0.6508(3) 1.2595(11)
H72 H 1.0796 0.6574 1.3400
H73 H 0.9595 0.6527 1.2559
C86 C 0.8650(12) 0.5593(3) 0.5617(10)
C87 C 0.7005(14) 0.8264(3) 0.6178(11)
H74 H 0.7873 0.8288 0.6048
C88 C 0.9092(15) 0.7526(3) 0.6925(11)
H75 H 0.8267 0.7460 0.7078
C89 C 0.5609(12) 0.7224(2) 1.2260(10)
H76 H 0.4703 0.7266 1.2305
H77 H 0.5977 0.7250 1.3070
C90 C 0.8931(14) 0.9273(3) 1.0679(12)
H78 H 0.9410 0.9394 1.0108
H79 H 0.8147 0.9380 1.0851
C91 C 1.2923(13) 0.9190(2) 1.0046(10)
H80 H 1.2057 0.9217 1.0321
H81 H 1.3012 0.9307 0.9303
C92 C 1.2899(13) 0.8323(2) 1.0403(12)
H82 H 1.3803 0.8277 1.0443
H83 H 1.2611 0.8298 0.9565
C93 C 1.1080(13) 0.7033(3) 1.2084(10)
H84 H 1.1550 0.7044 1.2852
H85 H 1.0213 0.7098 1.2231
C94 C 1.4353(17) 0.9643(3) 1.4107(11)
C95 C 1.1662(14) 0.7573(3) 1.1656(10)
H86 H 1.0788 0.7635 1.1791
H87 H 1.2119 0.7584 1.2431
C96 C 0.3783(13) 0.4894(3) 1.3449(11)
H88 H 0.3650 0.4686 1.3387
C97 C 0.6120(14) 0.7759(3) 1.1883(11)
H89 H 0.6460 0.7773 1.2708
H90 H 0.5241 0.7828 1.1881
C98 C 0.694(3) 0.7968(3) 1.0990(13)
H91 H 0.7803 0.7888 1.0964
H92 H 0.6577 0.7954 1.0174
C99 C 1.0963(15) 0.9481(3) 1.3472(11)
H93 H 1.0532 0.9344 1.4020
H94 H 1.1727 0.9379 1.3203
C100 C 0.9510(14) 0.5535(3) 0.6504(11)
H95 H 1.0193 0.5405 0.6374
C101 C 1.5800(11) 1.0155(3) 1.0907(11)
H96 H 1.5465 1.0077 1.0151
H97 H 1.6553 1.0044 1.1140
H98 H 1.6010 1.0366 1.0812
C102 C 1.3676(13) 1.0307(2) 1.1558(12)
H99 H 1.3280 1.0229 1.0827
H100 H 1.3926 1.0514 1.1430
H101 H 1.3084 1.0298 1.2212
C103 C 0.7801(15) 0.8781(3) 1.0822(12)
H102 H 0.6961 0.8874 1.0808
H103 H 0.8118 0.8786 1.1657
C104 C 0.8613(17) 0.8958(4) 1.0104(12)
H104 H 0.9406 0.8846 0.9970
C105 C 0.9673(15) 0.9234(3) 1.1798(12)
H105 H 1.0416 0.9112 1.1625
H106 H 0.9164 0.9123 1.2375
C106 C 1.0119(13) 0.9534(3) 1.2396(12)
H107 H 1.0573 0.9654 1.1803
H108 H 0.9380 0.9649 1.2642
C107 C 1.5355(16) 1.0249(3) 1.3075(12)
H109 H 1.4732 1.0227 1.3697
H110 H 1.5556 1.0460 1.2977
H111 H 1.6114 1.0140 1.3306
O39 O 1.1021(12) 0.5293(3) 0.9565(10)
C108 C 1.0615(13) 0.5170(3) 1.0424(13)
C109 C 0.9283(18) 0.5063(5) 1.0466(18)
H112 H 0.8847 0.5113 0.9717
H113 H 0.8862 0.5158 1.1134
H114 H 0.9275 0.4846 1.0576
C110 C 1.145(2) 0.5124(6) 1.1441(15)
H115 H 1.2272 0.5208 1.1269
H116 H 1.1532 0.4911 1.1598
H117 H 1.1110 0.5223 1.2143
loop_
_geom_bond_atom_site_label_1
_geom_bond_atom_site_label_2
_geom_bond_site_symmetry_1
_geom_bond_site_symmetry_2
O1 N2 1_555 1_555
O2 N2 1_555 1_555
O3 N4 1_555 1_555
O4 N4 1_555 1_555
O5 N9 1_555 1_555
O6 N9 1_555 1_555
O7 N7 1_555 1_555
O8 N3 1_555 1_555
O9 N3 1_555 1_555
O10 N1 1_555 1_555
O11 N1 1_555 1_555
O12 N5 1_555 1_555
O13 N5 1_555 1_555
O14 N6 1_555 1_555
O15 N6 1_555 1_555
O16 N8 1_555 1_555
O17 N8 1_555 1_555
O18 N7 1_555 1_555
O19 C81 1_555 1_555
O20 C94 1_555 1_555
O21 C51 1_555 1_555
O22 C51 1_555 1_555
O23 C7 1_555 1_555
O24 C30 1_555 1_555
O25 C4 1_555 1_555
O26 C4 1_555 1_555
O27 C39 1_555 1_555
O28 C15 1_555 1_555
O29 C10 1_555 1_555
O30 C10 1_555 1_555
O31 C19 1_555 1_555
O32 C33 1_555 1_555
O33 C30 1_555 1_555
O34 C60 1_555 1_555
O35 C41 1_555 1_555
O36 C19 1_555 1_555
O37 C41 1_555 1_555
O38 C33 1_555 1_555
N1 C40 1_555 1_555
N2 C27 1_555 1_555
N3 C13 1_555 1_555
N4 C2 1_555 1_555
N5 C16 1_555 1_555
N6 C86 1_555 1_555
N7 C79 1_555 1_555
N8 C77 1_555 1_555
N9 C1 1_555 1_555
C1 C5 1_555 1_555
C2 C12 1_555 1_555
C3 C30 1_555 1_555
C4 C9 1_555 1_555
C5 H1 1_555 1_555
C6 C26 1_555 1_555
C7 H2 1_555 1_555
C8 C33 1_555 1_555
C9 C11 1_555 1_555
C10 C21 1_555 1_555
C11 C5 1_555 1_555
H3 C11 1_555 1_555
C12 H4 1_555 1_555
C13 C25 1_555 1_555
C14 H5 1_555 1_555
C15 H6 1_555 1_555
C16 C54 1_555 1_555
C17 O26 1_555 1_555
H7 C17 1_555 1_555
C18 C14 1_555 1_555
H8 C18 1_555 1_555
C19 C24 1_555 1_555
C20 H9 1_555 1_555
C21 C14 1_555 1_555
C22 H10 1_555 1_555
C23 H11 1_555 1_555
H12 C23 1_555 1_555
C24 C35 1_555 1_555
C25 H13 1_555 1_555
C26 C12 1_555 1_555
H14 C26 1_555 1_555
C27 C18 1_555 1_555
C28 H15 1_555 1_555
C29 H16 1_555 1_555
C31 C22 1_555 1_555
C32 O24 1_555 1_555
H17 C32 1_555 1_555
C34 O36 1_555 1_555
H18 C34 1_555 1_555
C35 H19 1_555 1_555
C36 C9 1_555 1_555
H20 C36 1_555 1_555
C37 H21 1_555 1_555
H22 C37 1_555 1_555
C38 C3 1_555 1_555
H23 C38 1_555 1_555
C39 O28 1_555 1_555
C40 C43 1_555 1_555
C41 C6 1_555 1_555
C42 C20 1_555 1_555
H24 C42 1_555 1_555
C43 H25 1_555 1_555
C44 C8 1_555 1_555
H26 C44 1_555 1_555
C45 C60 1_555 1_555
C46 O32 1_555 1_555
H27 C46 1_555 1_555
C47 C3 1_555 1_555
H28 C47 1_555 1_555
C48 H29 1_555 1_555
C49 O37 1_555 1_555
H30 C49 1_555 1_555
C50 C28 1_555 1_555
C51 C84 1_555 1_555
C52 C2 1_555 1_555
H31 C52 1_555 1_555
C53 C40 1_555 1_555
H32 C53 1_555 1_555
C54 C22 1_555 1_555
H33 C54 1_555 1_555
C55 O22 1_555 1_555
H34 C55 1_555 1_555
C56 C7 1_555 1_555
H35 C56 1_555 1_555
H36 C56 1_555 1_555
C57 C49 1_555 1_555
H37 C57 1_555 1_555
H38 C57 1_555 1_555
C58 H39 1_555 1_555
C59 C35 1_555 1_555
H40 C59 1_555 1_555
C60 O23 1_555 1_555
C61 C34 1_555 1_555
H41 C61 1_555 1_555
H42 C61 1_555 1_555
C62 C61 1_555 1_555
H43 C62 1_555 1_555
H44 C62 1_555 1_555
C63 C24 1_555 1_555
H45 C63 1_555 1_555
C64 H46 1_555 1_555
H47 C64 1_555 1_555
C65 C1 1_555 1_555
H48 C65 1_555 1_555
C66 C45 1_555 1_555
H49 C66 1_555 1_555
C67 H50 1_555 1_555
H51 C67 1_555 1_555
C68 C8 1_555 1_555
H52 C68 1_555 1_555
C69 C32 1_555 1_555
H53 C69 1_555 1_555
H54 C69 1_555 1_555
C70 C21 1_555 1_555
H55 C70 1_555 1_555
C71 C50 1_555 1_555
H56 C71 1_555 1_555
H57 C71 1_555 1_555
C72 C7 1_555 1_555
H58 C72 1_555 1_555
H59 C72 1_555 1_555
C73 C27 1_555 1_555
H60 C73 1_555 1_555
C74 C81 1_555 1_555
C75 H61 1_555 1_555
C76 C45 1_555 1_555
H62 C76 1_555 1_555
C77 C20 1_555 1_555
C78 C50 1_555 1_555
H63 C78 1_555 1_555
H64 C78 1_555 1_555
H65 C78 1_555 1_555
C79 C48 1_555 1_555
C80 C37 1_555 1_555
H66 C80 1_555 1_555
H67 C80 1_555 1_555
C81 C37 1_555 1_555
H68 C81 1_555 1_555
C82 C34 1_555 1_555
H69 C82 1_555 1_555
H70 C82 1_555 1_555
C83 C16 1_555 1_555
H71 C83 1_555 1_555
C84 C42 1_555 1_555
C85 C15 1_555 1_555
H72 C85 1_555 1_555
H73 C85 1_555 1_555
C86 C59 1_555 1_555
C87 C6 1_555 1_555
H74 C87 1_555 1_555
C88 C13 1_555 1_555
H75 C88 1_555 1_555
C89 C17 1_555 1_555
H76 C89 1_555 1_555
H77 C89 1_555 1_555
C90 H78 1_555 1_555
H79 C90 1_555 1_555
C91 C46 1_555 1_555
H80 C91 1_555 1_555
H81 C91 1_555 1_555
C92 C23 1_555 1_555
H82 C92 1_555 1_555
H83 C92 1_555 1_555
C93 C15 1_555 1_555
H84 C93 1_555 1_555
H85 C93 1_555 1_555
C94 O19 1_555 1_555
C95 C32 1_555 1_555
H86 C95 1_555 1_555
H87 C95 1_555 1_555
C96 C75 1_555 1_555
H88 C96 1_555 1_555
C97 C17 1_555 1_555
H89 C97 1_555 1_555
H90 C97 1_555 1_555
C98 C57 1_555 1_555
H91 C98 1_555 1_555
H92 C98 1_555 1_555
C99 C71 1_555 1_555
H93 C99 1_555 1_555
H94 C99 1_555 1_555
C100 C63 1_555 1_555
H95 C100 1_555 1_555
C101 C74 1_555 1_555
H96 C101 1_555 1_555
H97 C101 1_555 1_555
H98 C101 1_555 1_555
C102 C74 1_555 1_555
H99 C102 1_555 1_555
H100 C102 1_555 1_555
H101 C102 1_555 1_555
C103 C49 1_555 1_555
H102 C103 1_555 1_555
H103 C103 1_555 1_555
C104 O30 1_555 1_555
H104 C104 1_555 1_555
C105 C90 1_555 1_555
H105 C105 1_555 1_555
H106 C105 1_555 1_555
C106 C99 1_555 1_555
H107 C106 1_555 1_555
H108 C106 1_555 1_555
C107 C74 1_555 1_555
H109 C107 1_555 1_555
H110 C107 1_555 1_555
H111 C107 1_555 1_555
O39 C108 1_555 1_555
C108 C109 1_555 1_555
C109 H112 1_555 1_555
H113 C109 1_555 1_555
H114 C109 1_555 1_555
C110 C108 1_555 1_555
H115 C110 1_555 1_555
H116 C110 1_555 1_555
H117 C110 1_555 1_555
C23 C46 1_555 1_555
C25 C47 1_555 1_555
C28 C94 1_555 1_555
C29 C31 1_555 1_555
C29 C83 1_555 1_555
C31 C39 1_555 1_555
C36 C65 1_555 1_555
C38 C88 1_555 1_555
C43 C44 1_555 1_555
C48 C76 1_555 1_555
C52 C87 1_555 1_555
C53 C68 1_555 1_555
C55 C56 1_555 1_555
C55 C82 1_555 1_555
C58 C66 1_555 1_555
C58 C79 1_555 1_555
C62 C85 1_555 1_555
C64 C72 1_555 1_555
C64 C89 1_555 1_555
C67 C93 1_555 1_555
C67 C95 1_555 1_555
C69 C92 1_555 1_555
C70 C73 1_555 1_555
C75 C84 1_555 1_555
C77 C96 1_555 1_555
C80 C91 1_555 1_555
C86 C100 1_555 1_555
C90 C104 1_555 1_555
C97 C98 1_555 1_555
C103 C104 1_555 1_555
C105 C106 1_555 1_555

#END
