
#######################################################################
#
#                 Cambridge Crystallographic Data Centre
#                                CCDC 
#
#######################################################################
#
# If this CIF has been generated from an entry in the Cambridge 
# Structural Database, then it will include bibliographic, chemical, 
# crystal, experimental, refinement or atomic coordinate data resulting 
# from the CCDC's data processing and validation procedures.
#
#######################################################################

data_SULZAC
_chemical_formula_moiety         'C17 H13 N1 O3'
_chemical_name_systematic        
4-(4-methoxybenzylidene)-3-phenyl-1,2-oxazol-5(4H)-one
_symmetry_cell_setting           orthorhombic
_symmetry_space_group_name_H-M   'P n a 21'
_symmetry_Int_Tables_number      33
_space_group_name_Hall           'P 2c -2n'
loop_
_symmetry_equiv_pos_site_id
_symmetry_equiv_pos_as_xyz
1 x,y,z
2 -x,-y,1/2+z
3 1/2+x,1/2-y,z
4 1/2-x,1/2+y,1/2+z
_cell_length_a                   11.482(3)
_cell_length_b                   6.0114(13)
_cell_length_c                   19.382(5)
_cell_angle_alpha                90
_cell_angle_beta                 90
_cell_angle_gamma                90
_cell_volume                     1337.8
_exptl_crystal_colour            yellow
_exptl_crystal_description       Prism
_cell_formula_units_Z            4
loop_
_atom_site_label
_atom_site_type_symbol
_atom_site_fract_x
_atom_site_fract_y
_atom_site_fract_z
O1 O 0.59713(10) -0.02884(17) 0.27235(6)
O2 O 0.66214(9) 0.21394(19) 0.35058(6)
N1 N 0.49941(12) -0.0532(2) 0.22629(7)
O3 O 0.48498(10) 1.14427(18) 0.49963(6)
C1 C 0.47472(12) 0.9643(2) 0.45807(7)
C2 C 0.37087(13) 0.9503(3) 0.42080(8)
H1 H 0.3123 1.0602 0.4266
C3 C 0.35360(12) 0.7762(3) 0.37551(8)
H2 H 0.2823 0.7667 0.3508
C4 C 0.43984(12) 0.6117(2) 0.36516(8)
C5 C 0.54219(13) 0.6270(2) 0.40461(8)
H3 H 0.6006 0.5162 0.3997
C6 C 0.55969(13) 0.7997(3) 0.45034(8)
H4 H 0.6295 0.8067 0.4766
C7 C 0.41618(12) 0.4480(2) 0.31293(8)
H5 H 0.3431 0.4686 0.2908
C8 C 0.58667(13) 0.1652(2) 0.30948(8)
C9 C 0.47680(12) 0.2684(2) 0.28834(7)
C10 C 0.43273(13) 0.1181(2) 0.23604(8)
C11 C 0.32617(12) 0.1401(2) 0.19392(8)
C12 C 0.24712(13) -0.0344(2) 0.18972(8)
H6 H 0.2592 -0.1650 0.2163
C13 C 0.15046(15) -0.0189(3) 0.14680(9)
H7 H 0.0961 -0.1378 0.1445
C14 C 0.13377(14) 0.1710(3) 0.10732(9)
H8 H 0.0691 0.1800 0.0769
C15 C 0.21092(13) 0.3476(3) 0.11203(9)
H9 H 0.1984 0.4781 0.0854
C16 C 0.30676(13) 0.3336(2) 0.15574(8)
H10 H 0.3590 0.4556 0.1596
C17 C 0.59465(16) 1.1791(3) 0.53300(10)
H11 H 0.6098 1.0564 0.5651
H12 H 0.5926 1.3197 0.5585
H13 H 0.6566 1.1848 0.4983
loop_
_geom_bond_atom_site_label_1
_geom_bond_atom_site_label_2
_geom_bond_site_symmetry_1
_geom_bond_site_symmetry_2
O1 N1 1_555 1_555
O2 C8 1_555 1_555
N1 C10 1_555 1_555
O3 C1 1_555 1_555
C1 C2 1_555 1_555
C2 H1 1_555 1_555
C3 C2 1_555 1_555
H2 C3 1_555 1_555
C4 C3 1_555 1_555
C5 C4 1_555 1_555
H3 C5 1_555 1_555
C6 C1 1_555 1_555
H4 C6 1_555 1_555
C7 C4 1_555 1_555
H5 C7 1_555 1_555
C8 O1 1_555 1_555
C9 C7 1_555 1_555
C10 C9 1_555 1_555
C11 C10 1_555 1_555
C12 C11 1_555 1_555
H6 C12 1_555 1_555
C13 C12 1_555 1_555
H7 C13 1_555 1_555
C14 C13 1_555 1_555
H8 C14 1_555 1_555
C15 C14 1_555 1_555
H9 C15 1_555 1_555
C16 C11 1_555 1_555
H10 C16 1_555 1_555
C17 O3 1_555 1_555
H11 C17 1_555 1_555
H12 C17 1_555 1_555
H13 C17 1_555 1_555
C5 C6 1_555 1_555
C8 C9 1_555 1_555
C15 C16 1_555 1_555

#END
