
#######################################################################
#
#                 Cambridge Crystallographic Data Centre
#                                CCDC 
#
#######################################################################
#
# If this CIF has been generated from an entry in the Cambridge 
# Structural Database, then it will include bibliographic, chemical, 
# crystal, experimental, refinement or atomic coordinate data resulting 
# from the CCDC's data processing and validation procedures.
#
#######################################################################

data_SULZIK
_chemical_formula_moiety         'C19 H12 O3'
_chemical_name_systematic        
3-(hydroxy(2-naphthyl)methylene)-1-benzofuran-2(3H)-one
_symmetry_cell_setting           monoclinic
_symmetry_space_group_name_H-M   'C 2/c'
_symmetry_Int_Tables_number      15
_space_group_name_Hall           '-C 2yn'
loop_
_symmetry_equiv_pos_site_id
_symmetry_equiv_pos_as_xyz
1 x,y,z
2 -x,y,1/2-z
3 1/2+x,1/2+y,z
4 1/2-x,1/2+y,1/2-z
5 -x,-y,-z
6 x,-y,1/2+z
7 1/2-x,1/2-y,-z
8 1/2+x,1/2-y,1/2+z
_cell_length_a                   22.518(5)
_cell_length_b                   6.2369(11)
_cell_length_c                   21.082(5)
_cell_angle_alpha                90
_cell_angle_beta                 109.938(7)
_cell_angle_gamma                90
_cell_volume                     2783.34
_exptl_crystal_colour            'yellowish yellow'
_exptl_crystal_description       block
_cell_formula_units_Z            8
_exptl_crystal_recrystallization_method 
'Re-crystallisation from solvent: Hexanes/dichloromethane'
loop_
_atom_site_label
_atom_site_type_symbol
_atom_site_fract_x
_atom_site_fract_y
_atom_site_fract_z
O1 O 0.49142(5) -0.00483(19) 0.09372(6)
O2 O 0.50167(5) -0.3033(2) 0.03854(6)
O3 O 0.39621(5) -0.40058(18) -0.06841(6)
H1 H 0.4308 -0.4248 -0.0399
C1 C 0.46897(7) -0.1532(3) 0.04285(8)
C2 C 0.44344(7) 0.1457(3) 0.08576(8)
C3 C 0.44897(9) 0.3177(3) 0.12752(9)
H2 H 0.4858 0.3434 0.1638
C4 C 0.39718(9) 0.4512(3) 0.11313(10)
H3 H 0.3991 0.5715 0.1398
C5 C 0.34270(9) 0.4088(3) 0.05979(9)
H4 H 0.3082 0.5000 0.0516
C6 C 0.33815(8) 0.2333(3) 0.01800(8)
H5 H 0.3011 0.2061 -0.0178
C7 C 0.39008(7) 0.0987(2) 0.03061(7)
C8 C 0.40525(7) -0.0951(2) 0.00062(8)
C9 C 0.37333(7) -0.2168(2) -0.05364(8)
C10 C 0.31089(7) -0.1654(2) -0.10384(7)
C11 C 0.30136(8) 0.0348(3) -0.13743(8)
H6 H 0.3328 0.1388 -0.1247
C12 C 0.24603(8) 0.0750(3) -0.18850(8)
H7 H 0.2406 0.2061 -0.2108
C13 C 0.19687(7) -0.0777(3) -0.20826(7)
C14 C 0.13988(9) -0.0436(3) -0.26301(8)
H8 H 0.1338 0.0847 -0.2869
C15 C 0.09425(9) -0.1953(3) -0.28086(9)
H9 H 0.0576 -0.1718 -0.3176
C16 C 0.10161(9) -0.3879(3) -0.24459(10)
H10 H 0.0694 -0.4893 -0.2567
C17 C 0.15560(8) -0.4277(3) -0.19174(9)
H11 H 0.1599 -0.5555 -0.1679
C18 C 0.20515(7) -0.2759(2) -0.17298(7)
C19 C 0.26362(7) -0.3155(2) -0.12161(7)
H12 H 0.2702 -0.4467 -0.0993
loop_
_geom_bond_atom_site_label_1
_geom_bond_atom_site_label_2
_geom_bond_site_symmetry_1
_geom_bond_site_symmetry_2
O1 C1 1_555 1_555
O2 C1 1_555 1_555
O3 H1 1_555 1_555
C1 C8 1_555 1_555
C2 O1 1_555 1_555
C3 C2 1_555 1_555
H2 C3 1_555 1_555
C4 C3 1_555 1_555
H3 C4 1_555 1_555
C5 C4 1_555 1_555
H4 C5 1_555 1_555
C6 C5 1_555 1_555
H5 C6 1_555 1_555
C7 C2 1_555 1_555
C8 C7 1_555 1_555
C9 O3 1_555 1_555
C10 C9 1_555 1_555
C11 C10 1_555 1_555
H6 C11 1_555 1_555
C12 C11 1_555 1_555
H7 C12 1_555 1_555
C13 C12 1_555 1_555
C14 C13 1_555 1_555
H8 C14 1_555 1_555
C15 C14 1_555 1_555
H9 C15 1_555 1_555
C16 C15 1_555 1_555
H10 C16 1_555 1_555
C17 C16 1_555 1_555
H11 C17 1_555 1_555
C18 C13 1_555 1_555
C19 C10 1_555 1_555
H12 C19 1_555 1_555
C6 C7 1_555 1_555
C8 C9 1_555 1_555
C17 C18 1_555 1_555
C18 C19 1_555 1_555

#END
