
#######################################################################
#
#                 Cambridge Crystallographic Data Centre
#                                CCDC 
#
#######################################################################
#
# If this CIF has been generated from an entry in the Cambridge 
# Structural Database, then it will include bibliographic, chemical, 
# crystal, experimental, refinement or atomic coordinate data resulting 
# from the CCDC's data processing and validation procedures.
#
#######################################################################

data_SUMBEJ
_chemical_formula_moiety         'C22 H24 N2 O4,0.5(H2 O1)'
_chemical_name_systematic        
"diethyl 3,3'-biphenyl-2,2'-diylbis(3-aminoacrylate) hemihydrate"
_symmetry_cell_setting           trigonal
_symmetry_space_group_name_H-M   'P -3'
_symmetry_Int_Tables_number      147
_space_group_name_Hall           '-P 3'
loop_
_symmetry_equiv_pos_site_id
_symmetry_equiv_pos_as_xyz
1 x,y,z
2 -y,x-y,z
3 -x+y,-x,z
4 -x,-y,-z
5 y,-x+y,-z
6 x-y,x,-z
_cell_length_a                   15.8651(5)
_cell_length_b                   15.8651(5)
_cell_length_c                   15.0224(5)
_cell_angle_alpha                90
_cell_angle_beta                 90
_cell_angle_gamma                120
_cell_volume                     3274.58
_exptl_crystal_colour            colorless
_exptl_crystal_description       block
_cell_formula_units_Z            6
loop_
_atom_site_label
_atom_site_type_symbol
_atom_site_fract_x
_atom_site_fract_y
_atom_site_fract_z
C1 C 0.8124(3) 0.1433(3) 0.6362(3)
C2 C 0.8396(3) 0.0922(2) 0.6936(3)
C3 C 0.9260(3) 0.0928(3) 0.6768(3)
H1 H 0.9449 0.0585 0.7144
C4 C 0.9845(3) 0.1433(3) 0.6057(3)
H2 H 1.0412 0.1415 0.5947
C5 C 0.9590(3) 0.1959(3) 0.5511(3)
H3 H 0.9994 0.2314 0.5041
C6 C 0.8738(3) 0.1966(3) 0.5658(3)
H4 H 0.8569 0.2326 0.5287
C7 C 0.7159(3) 0.1376(3) 0.6422(3)
C8 C 0.6332(3) 0.0499(3) 0.6394(3)
H5 H 0.639 -0.0057 0.6391
C9 C 0.5378(3) 0.0376(3) 0.6369(3)
C10 C 0.3687(3) -0.0795(4) 0.6232(4)
H6 H 0.3607 -0.0507 0.5691
H7 H 0.3506 -0.0535 0.6735
C11 C 0.3066(4) -0.1866(5) 0.6200(5)
H8 H 0.3178 -0.2105 0.5652
H9 H 0.2394 -0.2039 0.6235
H10 H 0.3222 -0.2149 0.6692
C12 C 0.7802(3) 0.0355(3) 0.7717(3)
C13 C 0.7444(3) -0.0650(3) 0.7720(3)
H11 H 0.7582 -0.0933 0.7241
C14 C 0.6893(3) -0.1231(3) 0.8416(4)
H12 H 0.6667 -0.1896 0.8406
C15 C 0.6679(3) -0.0821(3) 0.9130(3)
H13 H 0.6308 -0.1205 0.9603
C16 C 0.7021(3) 0.0164(3) 0.9130(3)
H14 H 0.6872 0.0438 0.9609
C17 C 0.7583(3) 0.0765(3) 0.8435(3)
C18 C 0.7940(3) 0.1830(3) 0.8520(3)
C19 C 0.8897(3) 0.2513(3) 0.8454(2)
H15 H 0.9338 0.2311 0.8309
C20 C 0.9256(3) 0.3523(3) 0.8599(3)
C21 C 1.0653(3) 0.5101(3) 0.8725(3)
H16 H 1.0368 0.5205 0.9256
H17 H 1.0523 0.5408 0.8226
C22 C 1.1711(3) 0.5528(4) 0.8845(4)
H18 H 1.1833 0.5221 0.934
H19 H 1.2001 0.6213 0.8959
H20 H 1.1988 0.5429 0.8315
N1 N 0.7179(3) 0.2229(3) 0.6417(3)
H21 H 0.6644 0.2242 0.6395
H22 H 0.7727 0.2764 0.6436
N2 N 0.7252(2) 0.2053(2) 0.8724(3)
H23 H 0.7409 0.2648 0.882
H24 H 0.6652 0.16 0.8759
O1 O 0.5172(2) 0.1020(2) 0.6373(2)
O2 O 0.4679(2) -0.0573(2) 0.6319(2)
O3 O 0.8762(2) 0.3901(2) 0.8762(2)
O4 O 1.02297(19) 0.40663(19) 0.85605(19)
O5 O 0.9446(15) 0.9207(12) 0.9481(12)
loop_
_geom_bond_atom_site_label_1
_geom_bond_atom_site_label_2
_geom_bond_site_symmetry_1
_geom_bond_site_symmetry_2
C1 C2 1_555 1_555
C2 C3 1_555 1_555
C3 H1 1_555 1_555
C4 C3 1_555 1_555
H2 C4 1_555 1_555
C5 C4 1_555 1_555
H3 C5 1_555 1_555
C6 C1 1_555 1_555
H4 C6 1_555 1_555
C7 C1 1_555 1_555
C8 C7 1_555 1_555
H5 C8 1_555 1_555
C9 C8 1_555 1_555
C10 H6 1_555 1_555
H7 C10 1_555 1_555
C11 C10 1_555 1_555
H8 C11 1_555 1_555
H9 C11 1_555 1_555
H10 C11 1_555 1_555
C12 C2 1_555 1_555
C13 C12 1_555 1_555
H11 C13 1_555 1_555
C14 C13 1_555 1_555
H12 C14 1_555 1_555
C15 C14 1_555 1_555
H13 C15 1_555 1_555
C16 C15 1_555 1_555
H14 C16 1_555 1_555
C17 C12 1_555 1_555
C18 C17 1_555 1_555
C19 C18 1_555 1_555
H15 C19 1_555 1_555
C20 C19 1_555 1_555
C21 H16 1_555 1_555
H17 C21 1_555 1_555
C22 C21 1_555 1_555
H18 C22 1_555 1_555
H19 C22 1_555 1_555
H20 C22 1_555 1_555
N1 C7 1_555 1_555
H21 N1 1_555 1_555
H22 N1 1_555 1_555
N2 C18 1_555 1_555
H23 N2 1_555 1_555
H24 N2 1_555 1_555
O1 C9 1_555 1_555
O2 C9 1_555 1_555
O3 C20 1_555 1_555
O4 C20 1_555 1_555
C5 C6 1_555 1_555
C10 O2 1_555 1_555
C16 C17 1_555 1_555
C21 O4 1_555 1_555

#END
