
#######################################################################
#
#                 Cambridge Crystallographic Data Centre
#                                CCDC 
#
#######################################################################
#
# If this CIF has been generated from an entry in the Cambridge 
# Structural Database, then it will include bibliographic, chemical, 
# crystal, experimental, refinement or atomic coordinate data resulting 
# from the CCDC's data processing and validation procedures.
#
#######################################################################

data_SUMJOA
_chemical_name_common            
'(4-(1-Oxyl-3-oxide-4,4,5,5-tetramethylimidazolin-2-yl)-N,N,N-trimethylanilinium radical cation) iodide monohydrate'
_chemical_formula_moiety         'C16 H25 N3 O2 1+,I1 1-,H2 O1'
_chemical_name_systematic        
'(4-(Nitronyl nitroxide)-N,N,N-trimethylbenzenaminium radical cation) iodide monohydrate'
_symmetry_cell_setting           monoclinic
_symmetry_space_group_name_H-M   'P 21/c'
_symmetry_Int_Tables_number      14
_space_group_name_Hall           '-P 2ybc'
loop_
_symmetry_equiv_pos_site_id
_symmetry_equiv_pos_as_xyz
1 x,y,z
2 -x,1/2+y,1/2-z
3 -x,-y,-z
4 x,1/2-y,1/2+z
_cell_length_a                   11.4347(11)
_cell_length_b                   11.1909(11)
_cell_length_c                   15.2738(15)
_cell_angle_alpha                90
_cell_angle_beta                 101.766(2)
_cell_angle_gamma                90
_cell_volume                     1913.44
_exptl_crystal_colour            blue
_exptl_crystal_description       block
_cell_formula_units_Z            4
loop_
_atom_site_label
_atom_site_type_symbol
_atom_site_fract_x
_atom_site_fract_y
_atom_site_fract_z
I1 I 0.48897(2) -1.29908(2) 0.165187(16)
O1 O 0.1168(2) -0.6314(2) -0.04147(17)
O2 O 0.1287(2) -1.04305(19) -0.04737(16)
C1 C -0.1573(2) -0.8365(3) -0.30938(19)
C2 C -0.0738(3) -0.9278(3) -0.2926(2)
H1 H -0.0752 -0.9892 -0.3339
C3 C 0.0115(3) -0.9271(3) -0.2145(2)
H2 H 0.0679 -0.9881 -0.2037
C4 C 0.0143(2) -0.8369(3) -0.15183(19)
C5 C -0.0694(3) -0.7451(3) -0.1709(2)
H3 H -0.0671 -0.6825 -0.1306
C6 C -0.1556(3) -0.7457(3) -0.2484(2)
H4 H -0.2123 -0.6850 -0.2594
C7 C 0.1031(3) -0.8370(3) -0.0683(2)
C8 C 0.2557(3) -0.9031(3) 0.05034(19)
C9 C 0.2256(3) -0.7702(3) 0.0663(2)
C10 C 0.2570(4) -0.9865(3) 0.1287(2)
H5 H 0.2753 -1.0662 0.1124
H6 H 0.1800 -0.9858 0.1446
H7 H 0.3165 -0.9604 0.1788
C11 C 0.3708(3) -0.9200(3) 0.0159(3)
H8 H 0.3833 -1.0036 0.0069
H9 H 0.4368 -0.8888 0.0590
H10 H 0.3648 -0.8783 -0.0397
C12 C 0.3325(3) -0.6868(3) 0.0830(3)
H11 H 0.3066 -0.6071 0.0925
H12 H 0.3698 -0.6876 0.0321
H13 H 0.3888 -0.7129 0.1350
C13 C 0.1515(4) -0.7541(5) 0.1373(3)
H14 H 0.1369 -0.6705 0.1445
H15 H 0.1941 -0.7862 0.1930
H16 H 0.0767 -0.7951 0.1195
C14 C -0.3245(3) -0.9509(3) -0.3953(2)
H17 H -0.3619 -0.9508 -0.3445
H18 H -0.2745 -1.0201 -0.3932
H19 H -0.3848 -0.9525 -0.4492
C15 C -0.3328(3) -0.7343(3) -0.4034(2)
H20 H -0.3725 -0.7326 -0.3538
H21 H -0.3910 -0.7409 -0.4582
H22 H -0.2878 -0.6620 -0.4042
C16 C -0.1891(3) -0.8393(3) -0.4735(2)
H23 H -0.1354 -0.9059 -0.4694
H24 H -0.1451 -0.7662 -0.4737
H25 H -0.2483 -0.8452 -0.5279
N1 N 0.1455(2) -0.7395(2) -0.02119(17)
N2 N 0.1544(2) -0.9347(2) -0.02516(16)
N3 N -0.2498(2) -0.8399(2) -0.39420(16)
O3 O -0.3395(4) -0.4896(3) -0.2828(2)
H26 H -0.3266 -0.4515 -0.3281
H27 H -0.4123 -0.5110 -0.2920
loop_
_geom_bond_atom_site_label_1
_geom_bond_atom_site_label_2
_geom_bond_site_symmetry_1
_geom_bond_site_symmetry_2
O1 N1 1_555 1_555
O2 N2 1_555 1_555
C1 C2 1_555 1_555
C2 H1 1_555 1_555
C3 C2 1_555 1_555
H2 C3 1_555 1_555
C4 C3 1_555 1_555
C5 C4 1_555 1_555
H3 C5 1_555 1_555
C6 C1 1_555 1_555
H4 C6 1_555 1_555
C7 C4 1_555 1_555
C8 C9 1_555 1_555
C9 C12 1_555 1_555
C10 C8 1_555 1_555
H5 C10 1_555 1_555
H6 C10 1_555 1_555
H7 C10 1_555 1_555
C11 C8 1_555 1_555
H8 C11 1_555 1_555
H9 C11 1_555 1_555
H10 C11 1_555 1_555
C12 H11 1_555 1_555
H12 C12 1_555 1_555
H13 C12 1_555 1_555
C13 C9 1_555 1_555
H14 C13 1_555 1_555
H15 C13 1_555 1_555
H16 C13 1_555 1_555
C14 H17 1_555 1_555
H18 C14 1_555 1_555
H19 C14 1_555 1_555
C15 H20 1_555 1_555
H21 C15 1_555 1_555
H22 C15 1_555 1_555
C16 H23 1_555 1_555
H24 C16 1_555 1_555
H25 C16 1_555 1_555
N1 C7 1_555 1_555
N2 C7 1_555 1_555
N3 C1 1_555 1_555
O3 H26 1_555 1_555
H27 O3 1_555 1_555
C5 C6 1_555 1_555
C8 N2 1_555 1_555
C9 N1 1_555 1_555
C14 N3 1_555 1_555
C15 N3 1_555 1_555
C16 N3 1_555 1_555

#END
