
#######################################################################
#
#                 Cambridge Crystallographic Data Centre
#                                CCDC 
#
#######################################################################
#
# If this CIF has been generated from an entry in the Cambridge 
# Structural Database, then it will include bibliographic, chemical, 
# crystal, experimental, refinement or atomic coordinate data resulting 
# from the CCDC's data processing and validation procedures.
#
#######################################################################

data_SUMLER01
_chemical_formula_moiety         'C25 H24'
_chemical_name_systematic        5,12-Methano(2.2.2)paracyclophane
_symmetry_cell_setting           orthorhombic
_symmetry_space_group_name_H-M   'P 21 21 21'
_symmetry_Int_Tables_number      19
_space_group_name_Hall           'P 2ac 2ab'
loop_
_symmetry_equiv_pos_site_id
_symmetry_equiv_pos_as_xyz
1 x,y,z
2 1/2-x,-y,1/2+z
3 -x,1/2+y,1/2-z
4 1/2+x,1/2-y,-z
_cell_length_a                   10.430(1)
_cell_length_b                   10.482(1)
_cell_length_c                   33.070(5)
_cell_angle_alpha                90
_cell_angle_beta                 90
_cell_angle_gamma                90
_cell_volume                     3615.45
_exptl_crystal_colour            colorless
_exptl_crystal_description       plates
_cell_formula_units_Z            8
loop_
_atom_site_label
_atom_site_type_symbol
_atom_site_fract_x
_atom_site_fract_y
_atom_site_fract_z
C1 C 0.3336(2) 0.46880(19) 0.65431(6)
H1 H 0.4209 0.4400 0.6586
H2 H 0.3173 0.4635 0.6255
C2 C 0.2454(3) 0.3722(2) 0.67490(6)
H3 H 0.1721 0.3581 0.6574
H4 H 0.2912 0.2919 0.6769
C3 C 0.19625(19) 0.40626(18) 0.71639(6)
C4 C 0.11687(17) 0.51252(17) 0.72103(5)
C5 C 0.07305(18) 0.5468(2) 0.75887(5)
H5 H 0.0202 0.6179 0.7613
C6 C 0.10460(19) 0.4798(2) 0.79318(6)
C7 C 0.1810(2) 0.3723(2) 0.78856(7)
H6 H 0.2026 0.3239 0.8111
C8 C 0.2254(2) 0.3361(2) 0.75090(6)
H7 H 0.2758 0.2633 0.7486
C9 C 0.0634(3) 0.5274(3) 0.83401(6)
H8 H 0.0413 0.4551 0.8509
H9 H -0.0129 0.5794 0.8309
C10 C 0.1679(3) 0.6068(3) 0.85537(6)
H10 H 0.1305 0.6467 0.8791
H11 H 0.2347 0.5494 0.8646
C11 C 0.2285(2) 0.7090(2) 0.82963(5)
C12 C 0.1719(2) 0.8271(3) 0.82255(7)
H12 H 0.0941 0.8462 0.8349
C13 C 0.2277(2) 0.9155(2) 0.79800(7)
H13 H 0.1863 0.9930 0.7939
C14 C 0.34316(19) 0.89420(18) 0.77908(6)
C15 C 0.3991(2) 0.7769(2) 0.78637(7)
H14 H 0.4773 0.7581 0.7742
C16 C 0.3436(2) 0.6875(2) 0.81087(7)
H15 H 0.3851 0.6100 0.8149
C17 C 0.4041(2) 0.99049(19) 0.75130(7)
H16 H 0.4942 0.9697 0.7482
H17 H 0.3987 1.0742 0.7637
C18 C 0.3417(2) 0.99613(18) 0.70930(7)
H18 H 0.2553 1.0294 0.7117
H19 H 0.3901 1.0537 0.6921
C19 C 0.3373(2) 0.86595(18) 0.69006(6)
C20 C 0.22331(19) 0.79672(17) 0.69023(5)
H20 H 0.1484 0.8370 0.6986
C21 C 0.21728(18) 0.66988(17) 0.67837(4)
C22 C 0.32898(18) 0.60779(17) 0.66563(4)
C23 C 0.4411(2) 0.6794(2) 0.66382(5)
H21 H 0.5156 0.6407 0.6544
C24 C 0.4459(2) 0.8056(2) 0.67550(6)
H22 H 0.5226 0.8505 0.6736
C25 C 0.09457(17) 0.59730(18) 0.68513(5)
H23 H 0.0244 0.6557 0.6904
H24 H 0.0735 0.5467 0.6615
C26 C 0.1173(2) 0.9992(2) 0.57295(6)
H25 H 0.0485 1.0594 0.5678
H26 H 0.0816 0.9318 0.5896
C27 C 0.2159(2) 1.0671(2) 0.59808(6)
H27 H 0.2144 1.0288 0.6248
H28 H 0.1874 1.1546 0.6012
C28 C 0.35407(18) 1.07111(18) 0.58446(5)
C29 C 0.41702(17) 0.96115(16) 0.57051(4)
C30 C 0.54068(17) 0.97158(17) 0.55566(5)
H29 H 0.5810 0.8987 0.5459
C31 C 0.60667(17) 1.08578(18) 0.55479(5)
C32 C 0.5463(2) 1.19248(19) 0.57069(6)
H30 H 0.5897 1.2699 0.5718
C33 C 0.4225(2) 1.18435(19) 0.58489(5)
H31 H 0.3835 1.2573 0.5951
C34 C 0.73475(17) 1.0940(2) 0.53381(6)
H32 H 0.7710 1.0091 0.5315
H33 H 0.7927 1.1451 0.5501
C35 C 0.72359(19) 1.1534(2) 0.49136(6)
H34 H 0.7002 1.2425 0.4941
H35 H 0.8067 1.1497 0.4782
C36 C 0.62566(17) 1.08724(17) 0.46479(5)
C37 C 0.6504(2) 0.9714(2) 0.44676(5)
H36 H 0.7307 0.9342 0.4501
C38 C 0.5591(2) 0.90912(19) 0.42380(5)
H37 H 0.5792 0.8307 0.4122
C39 C 0.43895(19) 0.96051(18) 0.41765(5)
C40 C 0.41426(19) 1.07652(19) 0.43531(6)
H38 H 0.3345 1.1143 0.4316
C41 C 0.50581(18) 1.13867(19) 0.45861(6)
H39 H 0.4857 1.2168 0.4703
C42 C 0.3362(2) 0.8927(2) 0.39372(5)
H40 H 0.3746 0.8561 0.3697
H41 H 0.2729 0.9547 0.3851
C43 C 0.2683(2) 0.7864(2) 0.41746(5)
H42 H 0.1964 0.7548 0.4018
H43 H 0.3274 0.7161 0.4217
C44 C 0.2208(2) 0.83379(18) 0.45788(5)
C45 C 0.28844(19) 0.80563(16) 0.49272(5)
H44 H 0.3577 0.7500 0.4911
C46 C 0.25686(16) 0.85726(16) 0.52996(5)
C47 C 0.15292(17) 0.94052(18) 0.53290(5)
C48 C 0.08273(19) 0.9662(2) 0.49821(6)
H45 H 0.0119 1.0199 0.4998
C49 C 0.1161(2) 0.9136(2) 0.46127(6)
H46 H 0.0673 0.9322 0.4385
C50 C 0.34364(18) 0.83854(16) 0.56580(5)
H47 H 0.2938 0.8209 0.5899
H48 H 0.4018 0.7679 0.5611
loop_
_geom_bond_atom_site_label_1
_geom_bond_atom_site_label_2
_geom_bond_site_symmetry_1
_geom_bond_site_symmetry_2
C1 H1 1_555 1_555
H2 C1 1_555 1_555
C2 C1 1_555 1_555
H3 C2 1_555 1_555
H4 C2 1_555 1_555
C3 C2 1_555 1_555
C4 C3 1_555 1_555
C5 C4 1_555 1_555
H5 C5 1_555 1_555
C6 C5 1_555 1_555
C7 C6 1_555 1_555
H6 C7 1_555 1_555
C8 C3 1_555 1_555
H7 C8 1_555 1_555
C9 C6 1_555 1_555
H8 C9 1_555 1_555
H9 C9 1_555 1_555
C10 C9 1_555 1_555
H10 C10 1_555 1_555
H11 C10 1_555 1_555
C11 C10 1_555 1_555
C12 C11 1_555 1_555
H12 C12 1_555 1_555
C13 C12 1_555 1_555
H13 C13 1_555 1_555
C14 C13 1_555 1_555
C15 C14 1_555 1_555
H14 C15 1_555 1_555
C16 C11 1_555 1_555
H15 C16 1_555 1_555
C17 C14 1_555 1_555
H16 C17 1_555 1_555
H17 C17 1_555 1_555
C18 C17 1_555 1_555
H18 C18 1_555 1_555
H19 C18 1_555 1_555
C19 C18 1_555 1_555
C20 C19 1_555 1_555
H20 C20 1_555 1_555
C21 C20 1_555 1_555
C22 C1 1_555 1_555
C23 C22 1_555 1_555
H21 C23 1_555 1_555
C24 C19 1_555 1_555
H22 C24 1_555 1_555
C25 C4 1_555 1_555
H23 C25 1_555 1_555
H24 C25 1_555 1_555
C26 H25 1_555 1_555
H26 C26 1_555 1_555
C27 C26 1_555 1_555
H27 C27 1_555 1_555
H28 C27 1_555 1_555
C28 C27 1_555 1_555
C29 C28 1_555 1_555
C30 C29 1_555 1_555
H29 C30 1_555 1_555
C31 C30 1_555 1_555
C32 C31 1_555 1_555
H30 C32 1_555 1_555
C33 C28 1_555 1_555
H31 C33 1_555 1_555
C34 C31 1_555 1_555
H32 C34 1_555 1_555
H33 C34 1_555 1_555
C35 C34 1_555 1_555
H34 C35 1_555 1_555
H35 C35 1_555 1_555
C36 C35 1_555 1_555
C37 C36 1_555 1_555
H36 C37 1_555 1_555
C38 C37 1_555 1_555
H37 C38 1_555 1_555
C39 C38 1_555 1_555
C40 C39 1_555 1_555
H38 C40 1_555 1_555
C41 C36 1_555 1_555
H39 C41 1_555 1_555
C42 C39 1_555 1_555
H40 C42 1_555 1_555
H41 C42 1_555 1_555
C43 C42 1_555 1_555
H42 C43 1_555 1_555
H43 C43 1_555 1_555
C44 C43 1_555 1_555
C45 C44 1_555 1_555
H44 C45 1_555 1_555
C46 C45 1_555 1_555
C47 C26 1_555 1_555
C48 C47 1_555 1_555
H45 C48 1_555 1_555
C49 C44 1_555 1_555
H46 C49 1_555 1_555
C50 C29 1_555 1_555
H47 C50 1_555 1_555
H48 C50 1_555 1_555
C7 C8 1_555 1_555
C15 C16 1_555 1_555
C21 C22 1_555 1_555
C21 C25 1_555 1_555
C23 C24 1_555 1_555
C32 C33 1_555 1_555
C40 C41 1_555 1_555
C46 C47 1_555 1_555
C46 C50 1_555 1_555
C48 C49 1_555 1_555

#END
