
#######################################################################
#
#                 Cambridge Crystallographic Data Centre
#                                CCDC 
#
#######################################################################
#
# If this CIF has been generated from an entry in the Cambridge 
# Structural Database, then it will include bibliographic, chemical, 
# crystal, experimental, refinement or atomic coordinate data resulting 
# from the CCDC's data processing and validation procedures.
#
#######################################################################

data_SUMLER
_chemical_name_common            5,12-Methano(2.2.2)paracyclophane
_chemical_formula_moiety         'C25 H24'
_chemical_name_systematic        
1(1,4,3),4(1,4),7(1,4,3)-Tribenzenabicyclo(5.2.1)decaphane
_symmetry_cell_setting           orthorhombic
_symmetry_space_group_name_H-M   'P 21 21 21'
_symmetry_Int_Tables_number      19
_space_group_name_Hall           'P 2ac 2ab'
loop_
_symmetry_equiv_pos_site_id
_symmetry_equiv_pos_as_xyz
1 x,y,z
2 1/2+x,1/2-y,-z
3 -x,1/2+y,1/2-z
4 1/2-x,-y,1/2+z
_cell_length_a                   10.419(5)
_cell_length_b                   10.392(4)
_cell_length_c                   32.980(15)
_cell_angle_alpha                90
_cell_angle_beta                 90
_cell_angle_gamma                90
_cell_volume                     3570.88
_chemical_melting_point          185-187deg.C
_cell_formula_units_Z            8
loop_
_atom_site_label
_atom_site_type_symbol
_atom_site_fract_x
_atom_site_fract_y
_atom_site_fract_z
C1 C 0.63441(29) 0.41547(27) 0.39459(7)
H1 H 0.59514(29) 0.37942(27) 0.37083(7)
H2 H 0.69305(29) 0.48120(27) 0.38592(7)
C2 C 0.71331(31) 0.31040(27) 0.41689(7)
H3 H 0.78485(31) 0.28461(27) 0.40045(7)
H4 H 0.65882(31) 0.23679(27) 0.42050(7)
C3 C 0.76144(25) 0.35254(22) 0.45757(7)
C4 C 0.69338(24) 0.32141(20) 0.49224(7)
H5 H 0.62008(24) 0.26591(20) 0.48996(7)
C5 C 0.72863(21) 0.36688(20) 0.53007(6)
C6 C 0.83708(22) 0.44532(21) 0.53433(7)
C7 C 0.90775(23) 0.47350(24) 0.49983(7)
H6 H 0.98436(23) 0.52414(24) 0.50244(7)
C8 C 0.87022(26) 0.42871(24) 0.46192(8)
H7 H 0.91890(26) 0.45051(24) 0.43818(8)
C9 C 0.87105(24) 0.49451(25) 0.57631(7)
H8 H 0.95254(24) 0.53720(25) 0.57442(7)
H9 H 0.88175(24) 0.42184(25) 0.59396(7)
C10 C 0.77447(22) 0.58769(24) 0.59626(7)
H10 H 0.80317(22) 0.67362(24) 0.59060(7)
H11 H 0.77977(22) 0.57608(24) 0.62509(7)
C11 C 0.63458(21) 0.58310(21) 0.58486(6)
C12 C 0.57108(21) 0.46992(22) 0.57277(6)
C13 C 0.44301(21) 0.47584(22) 0.56074(6)
H12 H 0.40103(21) 0.39875(22) 0.55172(6)
C14 C 0.37347(21) 0.59002(23) 0.56056(7)
C15 C 0.43566(24) 0.70027(23) 0.57462(7)
H13 H 0.38904(24) 0.77989(23) 0.57564(7)
C16 C 0.56205(24) 0.69582(24) 0.58628(7)
H14 H 0.60282(24) 0.77280(24) 0.59593(7)
C17 C 0.24301(21) 0.59422(25) 0.54114(7)
H15 H 0.18555(21) 0.64176(25) 0.55827(7)
H16 H 0.21026(21) 0.50827(25) 0.53852(7)
C18 C 0.24860(22) 0.65662(23) 0.49863(7)
H17 H 0.26877(22) 0.74622(23) 0.50173(7)
H18 H 0.16599(22) 0.65040(23) 0.48589(7)
C19 C 0.34635(21) 0.59487(21) 0.47097(7)
C20 C 0.32411(27) 0.47644(25) 0.45283(8)
H19 H 0.24331(27) 0.43452(25) 0.45745(8)
C21 C 0.41456(28) 0.41968(27) 0.42809(8)
H20 H 0.39665(28) 0.33759(27) 0.41600(8)
C22 C 0.53187(26) 0.47725(24) 0.42031(6)
C23 C 0.55402(26) 0.59496(25) 0.43833(8)
H21 H 0.63430(26) 0.63743(25) 0.43333(8)
C24 C 0.46260(24) 0.65202(23) 0.46319(8)
H22 H 0.48159(24) 0.73350(23) 0.47553(8)
C25 C 0.64390(22) 0.34578(21) 0.56638(7)
H23 H 0.69427(22) 0.32471(21) 0.58983(7)
H24 H 0.58488(22) 0.27674(21) 0.56124(7)
C26 C 0.90508(22) 0.47578(22) 0.74146(7)
H25 H 0.99357(22) 0.45206(22) 0.74461(7)
H26 H 0.90219(22) 0.55782(22) 0.72811(7)
C27 C 0.84411(23) 0.48737(20) 0.78435(7)
H27 H 0.75873(23) 0.52092(20) 0.78153(7)
H28 H 0.89265(23) 0.54638(20) 0.80067(7)
C28 C 0.83756(21) 0.35926(20) 0.80521(6)
C29 C 0.72199(21) 0.29199(21) 0.80639(6)
H29 H 0.64570(21) 0.33264(21) 0.79627(6)
C30 C 0.71331(20) 0.16721(20) 0.82134(6)
C31 C 0.82461(21) 0.10379(21) 0.83473(6)
C32 C 0.93862(22) 0.17382(23) 0.83502(7)
H30 H 1.01456(22) 0.13355(23) 0.84554(7)
C33 C 0.94555(23) 0.29831(23) 0.82084(7)
H31 H 1.02572(23) 0.34374(23) 0.82177(7)
C34 C 0.82349(26) -0.03451(23) 0.84813(7)
H32 H 0.79316(26) -0.03623(23) 0.87561(7)
H33 H 0.91133(26) -0.06237(23) 0.84861(7)
C35 C 0.74725(26) -0.13431(23) 0.82438(8)
H34 H 0.67834(26) -0.16331(23) 0.84140(8)
H35 H 0.80238(26) -0.20687(23) 0.81978(8)
C36 C 0.69022(21) -0.09834(20) 0.78373(6)
C37 C 0.60759(20) 0.00623(20) 0.78069(6)
C38 C 0.55549(20) 0.03867(22) 0.74341(6)
H36 H 0.49864(20) 0.11115(22) 0.74165(6)
C39 C 0.58280(21) -0.02935(23) 0.70820(7)
C40 C 0.66369(23) -0.13477(22) 0.71153(7)
H37 H 0.68426(23) -0.18323(22) 0.68761(7)
C41 C 0.71658(23) -0.16880(22) 0.74887(7)
H38 H 0.77154(23) -0.24270(22) 0.75076(7)
C42 C 0.53600(23) 0.01798(25) 0.66761(6)
H39 H 0.46807(23) 0.07896(25) 0.67180(6)
H40 H 0.50217(23) -0.05286(25) 0.65229(6)
C43 C 0.64455(24) 0.08547(24) 0.64376(7)
H41 H 0.61050(24) 0.12269(24) 0.61939(7)
H42 H 0.70593(24) 0.02102(24) 0.63609(7)
C44 C 0.71234(21) 0.18898(22) 0.66779(6)
C45 C 0.65915(23) 0.30983(23) 0.67410(6)
H43 H 0.57731(23) 0.32870(23) 0.66212(6)
C46 C 0.72147(23) 0.40203(23) 0.69716(7)
H44 H 0.68226(23) 0.48470(23) 0.70108(7)
C47 C 0.83907(21) 0.37771(20) 0.71497(6)
C48 C 0.89172(22) 0.25682(22) 0.70876(7)
H45 H 0.97306(22) 0.23703(22) 0.72093(7)
C49 C 0.82980(24) 0.16490(22) 0.68542(7)
H46 H 0.86929(24) 0.08229(22) 0.68168(7)
C50 C 0.58835(20) 0.09354(22) 0.81700(6)
H47 H 0.51842(20) 0.15207(22) 0.81264(6)
H48 H 0.57109(20) 0.04343(22) 0.84084(6)
loop_
_geom_bond_atom_site_label_1
_geom_bond_atom_site_label_2
_geom_bond_site_symmetry_1
_geom_bond_site_symmetry_2
C1 H1 1_555 1_555
H2 C1 1_555 1_555
C2 C1 1_555 1_555
H3 C2 1_555 1_555
H4 C2 1_555 1_555
C3 C2 1_555 1_555
C4 C3 1_555 1_555
H5 C4 1_555 1_555
C5 C4 1_555 1_555
C6 C5 1_555 1_555
C7 C6 1_555 1_555
H6 C7 1_555 1_555
C8 C3 1_555 1_555
H7 C8 1_555 1_555
C9 C6 1_555 1_555
H8 C9 1_555 1_555
H9 C9 1_555 1_555
C10 C9 1_555 1_555
H10 C10 1_555 1_555
H11 C10 1_555 1_555
C11 C10 1_555 1_555
C12 C11 1_555 1_555
C13 C12 1_555 1_555
H12 C13 1_555 1_555
C14 C13 1_555 1_555
C15 C14 1_555 1_555
H13 C15 1_555 1_555
C16 C11 1_555 1_555
H14 C16 1_555 1_555
C17 C14 1_555 1_555
H15 C17 1_555 1_555
H16 C17 1_555 1_555
C18 C17 1_555 1_555
H17 C18 1_555 1_555
H18 C18 1_555 1_555
C19 C18 1_555 1_555
C20 C19 1_555 1_555
H19 C20 1_555 1_555
C21 C20 1_555 1_555
H20 C21 1_555 1_555
C22 C1 1_555 1_555
C23 C22 1_555 1_555
H21 C23 1_555 1_555
C24 C19 1_555 1_555
H22 C24 1_555 1_555
C25 C5 1_555 1_555
H23 C25 1_555 1_555
H24 C25 1_555 1_555
C26 H25 1_555 1_555
H26 C26 1_555 1_555
C27 C26 1_555 1_555
H27 C27 1_555 1_555
H28 C27 1_555 1_555
C28 C27 1_555 1_555
C29 C28 1_555 1_555
H29 C29 1_555 1_555
C30 C29 1_555 1_555
C31 C30 1_555 1_555
C32 C31 1_555 1_555
H30 C32 1_555 1_555
C33 C28 1_555 1_555
H31 C33 1_555 1_555
C34 C31 1_555 1_555
H32 C34 1_555 1_555
H33 C34 1_555 1_555
C35 C34 1_555 1_555
H34 C35 1_555 1_555
H35 C35 1_555 1_555
C36 C35 1_555 1_555
C37 C36 1_555 1_555
C38 C37 1_555 1_555
H36 C38 1_555 1_555
C39 C38 1_555 1_555
C40 C39 1_555 1_555
H37 C40 1_555 1_555
C41 C36 1_555 1_555
H38 C41 1_555 1_555
C42 C39 1_555 1_555
H39 C42 1_555 1_555
H40 C42 1_555 1_555
C43 C42 1_555 1_555
H41 C43 1_555 1_555
H42 C43 1_555 1_555
C44 C43 1_555 1_555
C45 C44 1_555 1_555
H43 C45 1_555 1_555
C46 C45 1_555 1_555
H44 C46 1_555 1_555
C47 C26 1_555 1_555
C48 C47 1_555 1_555
H45 C48 1_555 1_555
C49 C44 1_555 1_555
H46 C49 1_555 1_555
C50 C30 1_555 1_555
H47 C50 1_555 1_555
H48 C50 1_555 1_555
C7 C8 1_555 1_555
C12 C25 1_555 1_555
C15 C16 1_555 1_555
C21 C22 1_555 1_555
C23 C24 1_555 1_555
C32 C33 1_555 1_555
C37 C50 1_555 1_555
C40 C41 1_555 1_555
C46 C47 1_555 1_555
C48 C49 1_555 1_555

#END
