
#######################################################################
#
#                 Cambridge Crystallographic Data Centre
#                                CCDC 
#
#######################################################################
#
# If this CIF has been generated from an entry in the Cambridge 
# Structural Database, then it will include bibliographic, chemical, 
# crystal, experimental, refinement or atomic coordinate data resulting 
# from the CCDC's data processing and validation procedures.
#
#######################################################################

data_SUMMOC
_chemical_formula_moiety         'C20 H40 O10,4(H2 O1)'
_chemical_name_systematic        '30-Crown-10 tetrahydrate'
_symmetry_cell_setting           monoclinic
_symmetry_space_group_name_H-M   'P 21/c'
_symmetry_Int_Tables_number      14
_space_group_name_Hall           '-P 2ybc'
loop_
_symmetry_equiv_pos_site_id
_symmetry_equiv_pos_as_xyz
1 x,y,z
2 -x,1/2+y,1/2-z
3 -x,-y,-z
4 x,1/2-y,1/2+z
_cell_length_a                   8.332(4)
_cell_length_b                   9.083(2)
_cell_length_c                   18.665(5)
_cell_angle_alpha                90
_cell_angle_beta                 90.24(3)
_cell_angle_gamma                90
_cell_volume                     1412.55
_chemical_melting_point          43.1-45.3deg.C
_cell_formula_units_Z            2
loop_
_atom_site_label
_atom_site_type_symbol
_atom_site_fract_x
_atom_site_fract_y
_atom_site_fract_z
O1 O 1.4004(3) -0.5239(3) 0.6422(1)
C1 C 1.4116(5) -0.4213(4) 0.5854(2)
C2 C 1.3119(5) -0.2921(4) 0.6017(2)
O2 O 1.3320(3) -0.1899(3) 0.5455(1)
C3 C 1.2227(4) -0.0702(4) 0.5483(2)
C4 C 1.2520(4) 0.0283(4) 0.4875(2)
O3 O 1.2045(3) -0.0392(2) 0.4226(1)
C5 C 1.2270(4) 0.0542(4) 0.3632(2)
C6 C 1.1659(4) -0.0192(4) 0.2974(2)
O4 O 0.9960(3) -0.0251(3) 0.3007(1)
C7 C 0.9271(5) -0.0914(4) 0.2388(2)
C8 C 0.7533(5) -0.1045(4) 0.2500(2)
O5 O 0.7237(3) -0.2062(3) 0.3058(1)
C9 C 0.5588(5) -0.2340(5) 0.3166(3)
C10 C 1.4644(5) -0.6627(4) 0.6235(2)
H1 H 1.5212 -0.3907 0.5802
H2 H 1.3765 -0.4652 0.5413
H3 H 1.2014 -0.3212 0.6048
H4 H 1.3442 -0.2497 0.6466
H5 H 1.1152 -0.1076 0.5446
H6 H 1.2339 -0.0193 0.5931
H7 H 1.1947 0.1192 0.4933
H8 H 1.3648 0.0499 0.4864
H9 H 1.1689 0.1444 0.3697
H10 H 1.3389 0.0773 0.3584
H11 H 1.1979 0.0327 0.2550
H12 H 1.2088 -0.1172 0.2955
H13 H 0.9516 -0.0357 0.1965
H14 H 0.9702 -0.1887 0.2334
H15 H 0.7122 -0.0094 0.2629
H16 H 0.7006 -0.1366 0.2070
H17 H 0.5073 -0.1420 0.3272
H18 H 0.5107 -0.2735 0.2739
H19 H 1.4120 -0.6992 0.5812
H20 H 1.5767 -0.6519 0.6135
C10B C 0.5356(5) -0.3373(4) 0.3765(2)
C9B C 1.4412(5) -0.7660(5) 0.6834(3)
O1B O 0.5996(3) -0.4761(3) 0.3578(1)
H19B H 0.5880 -0.3008 0.4188
H20B H 0.4233 -0.3481 0.3865
O5B O 1.2763(3) -0.7938(3) 0.6942(1)
H17B H 1.4927 -0.8580 0.6728
H18B H 1.4893 -0.7265 0.7261
C1B C 0.5884(5) -0.5787(4) 0.4146(2)
C8B C 1.2467(5) -0.8955(4) 0.7500(2)
C2B C 0.6881(5) -0.7079(4) 0.3983(2)
H1B H 0.4788 -0.6093 0.4198
H2B H 0.6235 -0.5348 0.4587
C7B C 1.0729(5) -0.9086(4) 0.7612(2)
H15B H 1.2878 -0.9906 0.7371
H16B H 1.2994 -0.8634 0.7930
O2B O 0.6680(3) -0.8101(3) 0.4545(1)
H3B H 0.7986 -0.6788 0.3952
H4B H 0.6558 -0.7503 0.3534
O4B O 1.0040(3) -0.9749(3) 0.6993(1)
H13B H 1.0484 -0.9643 0.8035
H14B H 1.0298 -0.8113 0.7666
C3B C 0.7773(4) -0.9298(4) 0.4517(2)
C6B C 0.8341(4) -0.9808(4) 0.7026(2)
C4B C 0.7480(4) -1.0283(4) 0.5125(2)
H5B H 0.8848 -0.8924 0.4554
H6B H 0.7661 -0.9807 0.4069
C5B C 0.7730(4) -1.0542(4) 0.6368(2)
H11B H 0.8021 -1.0327 0.7450
H12B H 0.7912 -0.8828 0.7045
O3B O 0.7955(3) -0.9608(2) 0.5774(1)
H7B H 0.8053 -1.1192 0.5067
H8B H 0.6352 -1.0499 0.5136
H9B H 0.8311 -1.1444 0.6303
H10B H 0.6611 -1.0773 0.6416
O6 O 1.1315(5) -0.5871(4) 0.4464(2)
H21 H 1.0536 -0.6059 0.4988
O7 O 0.9928(3) -0.3016(3) 0.4105(2)
H23 H 1.0497 -0.2323 0.4177
H24 H 0.9323 -0.2982 0.3838
H22? H 1.1049 -0.4400 0.4324
loop_
_geom_bond_atom_site_label_1
_geom_bond_atom_site_label_2
_geom_bond_site_symmetry_1
_geom_bond_site_symmetry_2
O1 C1 1_555 1_555
C1 C2 1_555 1_555
C2 O2 1_555 1_555
O2 C3 1_555 1_555
C3 C4 1_555 1_555
C4 O3 1_555 1_555
O3 C5 1_555 1_555
C5 C6 1_555 1_555
C6 O4 1_555 1_555
O4 C7 1_555 1_555
C7 C8 1_555 1_555
C8 O5 1_555 1_555
O5 C9 1_555 1_555
C9 H17 1_555 1_555
O6 H21 1_555 1_555
O7 H23 1_555 1_555
C10 O1 1_555 1_555
H1 C1 1_555 1_555
H2 C1 1_555 1_555
H3 C2 1_555 1_555
H4 C2 1_555 1_555
H5 C3 1_555 1_555
H6 C3 1_555 1_555
H7 C4 1_555 1_555
H8 C4 1_555 1_555
H9 C5 1_555 1_555
H10 C5 1_555 1_555
H11 C6 1_555 1_555
H12 C6 1_555 1_555
H13 C7 1_555 1_555
H14 C7 1_555 1_555
H15 C8 1_555 1_555
H16 C8 1_555 1_555
H18 C9 1_555 1_555
H19 C10 1_555 1_555
H20 C10 1_555 1_555
H24 O7 1_555 1_555
C10B C9 1_555 1_555
C9B C10 1_555 1_555
O1B C10B 1_555 1_555
H19B C10B 1_555 1_555
H20B C10B 1_555 1_555
O5B C9B 1_555 1_555
H17B C9B 1_555 1_555
H18B C9B 1_555 1_555
C1B O1B 1_555 1_555
C8B O5B 1_555 1_555
C2B C1B 1_555 1_555
H1B C1B 1_555 1_555
H2B C1B 1_555 1_555
C7B C8B 1_555 1_555
H15B C8B 1_555 1_555
H16B C8B 1_555 1_555
O2B C2B 1_555 1_555
H3B C2B 1_555 1_555
H4B C2B 1_555 1_555
O4B C7B 1_555 1_555
H13B C7B 1_555 1_555
H14B C7B 1_555 1_555
C3B O2B 1_555 1_555
C6B O4B 1_555 1_555
C4B C3B 1_555 1_555
H5B C3B 1_555 1_555
H6B C3B 1_555 1_555
C5B C6B 1_555 1_555
H11B C6B 1_555 1_555
H12B C6B 1_555 1_555
O3B C4B 1_555 1_555
H7B C4B 1_555 1_555
H8B C4B 1_555 1_555
H9B C5B 1_555 1_555
H10B C5B 1_555 1_555
C5B O3B 1_555 1_555

#END
