
#######################################################################
#
#                 Cambridge Crystallographic Data Centre
#                                CCDC 
#
#######################################################################
#
# If this CIF has been generated from an entry in the Cambridge 
# Structural Database, then it will include bibliographic, chemical, 
# crystal, experimental, refinement or atomic coordinate data resulting 
# from the CCDC's data processing and validation procedures.
#
#######################################################################

data_SUMSAU
_chemical_formula_moiety         'C26 H34 O5'
_chemical_name_systematic        
6-Benzoyloxy-3,4-dimethylene-11,11-dimethyl-1-(2-(methoxy)ethoxymethoxy)bicyclo(5.3.1)undec-7-ene
_symmetry_cell_setting           triclinic
_symmetry_space_group_name_H-M   'P -1'
_symmetry_Int_Tables_number      2
_space_group_name_Hall           '-P 1'
loop_
_symmetry_equiv_pos_site_id
_symmetry_equiv_pos_as_xyz
1 x,y,z
2 -x,-y,-z
_cell_length_a                   10.9966(7)
_cell_length_b                   12.187(1)
_cell_length_c                   9.286(2)
_cell_angle_alpha                107.91(1)
_cell_angle_beta                 103.101(9)
_cell_angle_gamma                89.422(6)
_cell_volume                     1150.95
_exptl_crystal_colour            colorless
_cell_formula_units_Z            2
loop_
_atom_site_label
_atom_site_type_symbol
_atom_site_fract_x
_atom_site_fract_y
_atom_site_fract_z
O1 O 0.8812(2) 0.4916(2) 0.1787(2)
O2 O 0.8505(2) 0.4894(2) -0.0687(2)
O3 O 0.5845(2) 0.9159(2) 0.1626(3)
O4 O 0.5706(2) 1.0990(2) 0.3360(3)
O5 O 0.7139(3) 1.3202(2) 0.4877(3)
C1 C 0.7381(2) 0.6476(2) 0.1851(3)
C2 C 0.6502(3) 0.5900(2) 0.2147(4)
C3 C 0.5206(3) 0.6284(3) 0.2156(4)
C4 C 0.5057(3) 0.7551(3) 0.2252(4)
C5 C 0.6240(3) 0.8252(2) 0.2317(3)
C6 C 0.6997(3) 0.8844(2) 0.4020(3)
C7 C 0.7701(3) 0.8104(2) 0.4934(3)
C8 C 0.9010(3) 0.7813(2) 0.4783(3)
C9 C 0.9252(3) 0.6574(2) 0.4010(3)
C10 C 0.8724(3) 0.6164(2) 0.2243(3)
C11 C 0.7051(2) 0.7508(2) 0.1277(3)
C12 C 0.6299(3) 0.7044(3) -0.0443(4)
C13 C 0.8179(3) 0.8233(2) 0.1258(3)
C14 C 0.7236(3) 0.7795(3) 0.5963(4)
C15 C 0.9933(3) 0.8628(3) 0.5373(4)
C16 C 0.8649(3) 0.4387(2) 0.0259(3)
C17 C 0.8648(2) 0.3113(2) -0.0136(3)
C18 C 0.8272(3) 0.2452(3) -0.1686(3)
C19 C 0.8225(3) 0.1264(3) -0.2107(4)
C20 C 0.8557(3) 0.0720(3) -0.0993(4)
C21 C 0.8955(3) 0.1373(3) 0.0553(4)
C22 C 0.8996(3) 0.2565(3) 0.0987(4)
C23 C 0.5063(3) 0.9984(3) 0.2286(5)
C24 C 0.6394(3) 1.1597(3) 0.2689(4)
C25 C 0.6418(4) 1.2875(3) 0.3437(5)
C26 C 0.7147(5) 1.4444(3) 0.5572(5)
H1 H 0.67067 0.51994 0.23651
H2 H 0.49796 0.61713 0.30323
H3 H 0.46536 0.58197 0.12287
H4 H 0.47687 0.79218 0.31599
H5 H 0.44417 0.75700 0.13564
H6 H 0.64215 0.92411 0.45896
H7 H 0.75938 0.93851 0.39819
H8 H 0.88788 0.60942 0.44465
H9 H 1.01305 0.65018 0.42105
H10 H 0.91640 0.65125 0.17106
H11 H 0.56600 0.64898 -0.05350
H12 H 0.59324 0.76650 -0.07607
H13 H 0.68454 0.66891 -0.10869
H14 H 0.87592 0.84195 0.22449
H15 H 0.85730 0.78029 0.04719
H16 H 0.79043 0.89234 0.10599
H17 H 0.76928 0.73316 0.65240
H18 H 0.64431 0.80409 0.61383
H19 H 1.07588 0.84462 0.52794
H20 H 0.97691 0.93996 0.58928
H21 H 0.80446 0.28204 -0.24627
H22 H 0.79626 0.08169 -0.31736
H23 H 0.85123 -0.00992 -0.12845
H24 H 0.92016 0.09988 0.13211
H25 H 0.92618 0.30088 0.20557
H26 H 0.45869 0.96477 0.27958
H27 H 0.45139 1.01867 0.14695
H28 H 0.60166 1.14135 0.16104
H29 H 0.72288 1.13627 0.28211
H30 H 0.67378 1.32520 0.28321
H31 H 0.55918 1.30875 0.34763
H32 H 0.73219 1.46316 0.66723
H33 H 0.77768 1.48103 0.52914
H34 H 0.63556 1.47026 0.52053
loop_
_geom_bond_atom_site_label_1
_geom_bond_atom_site_label_2
_geom_bond_site_symmetry_1
_geom_bond_site_symmetry_2
O1 C10 1_555 1_555
O2 C16 1_555 1_555
O3 C5 1_555 1_555
O4 C23 1_555 1_555
O5 C25 1_555 1_555
C1 C2 1_555 1_555
C2 C3 1_555 1_555
C3 C4 1_555 1_555
C4 C5 1_555 1_555
C5 C6 1_555 1_555
C6 C7 1_555 1_555
C7 C8 1_555 1_555
C8 C9 1_555 1_555
C9 C10 1_555 1_555
C10 C1 1_555 1_555
C11 C1 1_555 1_555
C12 C11 1_555 1_555
C13 C11 1_555 1_555
C14 C7 1_555 1_555
C15 C8 1_555 1_555
C16 O1 1_555 1_555
C17 C16 1_555 1_555
C18 C17 1_555 1_555
C19 C18 1_555 1_555
C20 C19 1_555 1_555
C21 C20 1_555 1_555
C22 C17 1_555 1_555
C23 O3 1_555 1_555
C24 O4 1_555 1_555
C25 C24 1_555 1_555
C26 O5 1_555 1_555
H1 C2 1_555 1_555
H2 C3 1_555 1_555
H3 C3 1_555 1_555
H4 C4 1_555 1_555
H5 C4 1_555 1_555
H6 C6 1_555 1_555
H7 C6 1_555 1_555
H8 C9 1_555 1_555
H9 C9 1_555 1_555
H10 C10 1_555 1_555
H11 C12 1_555 1_555
H12 C12 1_555 1_555
H13 C12 1_555 1_555
H14 C13 1_555 1_555
H15 C13 1_555 1_555
H16 C13 1_555 1_555
H17 C14 1_555 1_555
H18 C14 1_555 1_555
H19 C15 1_555 1_555
H20 C15 1_555 1_555
H21 C18 1_555 1_555
H22 C19 1_555 1_555
H23 C20 1_555 1_555
H24 C21 1_555 1_555
H25 C22 1_555 1_555
H26 C23 1_555 1_555
H27 C23 1_555 1_555
H28 C24 1_555 1_555
H29 C24 1_555 1_555
H30 C25 1_555 1_555
H31 C25 1_555 1_555
H32 C26 1_555 1_555
H33 C26 1_555 1_555
H34 C26 1_555 1_555
C5 C11 1_555 1_555
C21 C22 1_555 1_555

#END
