
#######################################################################
#
#                 Cambridge Crystallographic Data Centre
#                                CCDC 
#
#######################################################################
#
# If this CIF has been generated from an entry in the Cambridge 
# Structural Database, then it will include bibliographic, chemical, 
# crystal, experimental, refinement or atomic coordinate data resulting 
# from the CCDC's data processing and validation procedures.
#
#######################################################################

data_SUMZEH
_chemical_name_common            AZD0914
_chemical_formula_moiety         'C22 H22 F1 N5 O7,C1 H4 O1'
_chemical_name_systematic        
"(2R,4S,4aS)-11-Fluoro-2,4-dimethyl-8-(4-methyl-2-oxo-1,3-oxazolidin-3-yl)-1,2,4,4a-tetrahydro-2'H,6H-spiro[1,4-oxazino[4,3-a][1,2]oxazolo[4,5-g]quinoline-5,5'-pyrimidine]-2',4',6'(1'H,3'H)-trione methanol solvate"
_chemical_properties_biological  'antibacterial activity'
_symmetry_cell_setting           monoclinic
_symmetry_space_group_name_H-M   'P 21'
_symmetry_Int_Tables_number      4
_space_group_name_Hall           'P 2yb'
loop_
_symmetry_equiv_pos_site_id
_symmetry_equiv_pos_as_xyz
1 x,y,z
2 -x,1/2+y,-z
_cell_length_a                   7.2964(11)
_cell_length_b                   12.1941(18)
_cell_length_c                   13.644(2)
_cell_angle_alpha                90
_cell_angle_beta                 93.136(2)
_cell_angle_gamma                90
_cell_volume                     1212.13
_exptl_crystal_colour            colorless
_exptl_crystal_description       Plate
_cell_formula_units_Z            2
_exptl_crystal_recrystallization_method 'methanol/isopropyl acetate'
loop_
_atom_site_label
_atom_site_type_symbol
_atom_site_fract_x
_atom_site_fract_y
_atom_site_fract_z
O1 O -0.0118(2) 0.57530(11) 0.07165(9)
O2 O 0.66718(19) 0.97298(12) 0.19257(10)
O3 O 0.5442(2) 0.94217(13) 0.51252(11)
O4 O 0.7787(3) 0.62072(15) 0.62445(12)
O5 O 0.61226(19) 0.63994(11) 0.30185(9)
O6 O -0.1851(2) 0.26600(12) 0.36506(10)
O7 O -0.1050(2) 0.43580(11) 0.40858(10)
N1 N -0.0845(2) 0.47373(14) 0.10504(12)
N2 N 0.3518(2) 0.85854(13) 0.24315(12)
N3 N 0.6527(2) 0.78035(15) 0.56829(12)
H1 H 0.654(3) 0.810(2) 0.6306(18)
N4 N 0.7068(2) 0.63671(15) 0.46148(12)
H2 H 0.764(3) 0.573(2) 0.4518(16)
N5 N -0.0948(2) 0.37510(13) 0.24814(11)
F1 F 0.19280(19) 0.76908(11) 0.06005(8)
C1 C 0.0665(2) 0.62697(16) 0.15162(13)
C2 C 0.1677(3) 0.72256(16) 0.14870(13)
C3 C 0.2508(2) 0.76317(15) 0.23540(13)
C4 C 0.3399(3) 0.94920(17) 0.17323(15)
H3 H 0.3129 1.0164 0.2076
H4 H 0.2398 0.9356 0.1250
C5 C 0.5163(3) 0.96342(17) 0.12137(15)
H5 H 0.5352 0.8998 0.0792
C6 C 0.6853(3) 0.88151(16) 0.25880(15)
H6 H 0.7029 0.8140 0.2215
C7 C 0.5083(2) 0.87287(14) 0.31444(13)
H7 H 0.4914 0.9449 0.3444
C8 C 0.5128(2) 0.78961(14) 0.39979(12)
C9 C 0.5741(3) 0.84647(17) 0.49615(13)
C10 C 0.7163(3) 0.67524(19) 0.55670(15)
C11 C 0.6174(2) 0.68443(14) 0.38137(13)
C12 C 0.3098(2) 0.75337(16) 0.41536(13)
H8 H 0.3085 0.7006 0.4685
H9 H 0.2382 0.8166 0.4333
C13 C 0.2260(2) 0.70317(14) 0.32355(12)
C14 C 0.1332(2) 0.60519(15) 0.32475(12)
H10 H 0.1264 0.5655 0.3826
C15 C 0.0486(2) 0.56643(14) 0.23632(12)
C16 C -0.0471(2) 0.47079(15) 0.20002(13)
C17 C 0.5141(4) 1.0668(2) 0.06026(18)
H11 H 0.6278 1.0732 0.0285
H12 H 0.4988 1.1292 0.1019
H13 H 0.4142 1.0636 0.0115
C18 C 0.8536(3) 0.9030(2) 0.3263(2)
H14 H 0.9600 0.9077 0.2881
H15 H 0.8690 0.8441 0.3727
H16 H 0.8382 0.9707 0.3607
C19 C -0.1263(3) 0.36729(15) 0.34569(14)
C20 C -0.2102(5) 0.2034(2) 0.27693(18)
H17 H -0.3393 0.1872 0.2634
H18 H -0.1435 0.1348 0.2831
C21 C -0.1371(3) 0.27266(17) 0.19454(14)
H19 H -0.2344 0.2854 0.1434
C22 C 0.0279(4) 0.2223(2) 0.15038(17)
H20 H 0.0688 0.2692 0.0995
H21 H -0.0046 0.1519 0.1232
H22 H 0.1246 0.2137 0.2004
O8 O 0.5573(3) 0.90556(18) 0.73601(13)
H23 H 0.512(6) 0.964(4) 0.709(3)
C23 C 0.5629(3) 0.9276(3) 0.83579(18)
H24 H 0.6119 0.8639 0.8723
H25 H 0.6425 0.9888 0.8514
H26 H 0.4430 0.9428 0.8577
loop_
_geom_bond_atom_site_label_1
_geom_bond_atom_site_label_2
_geom_bond_site_symmetry_1
_geom_bond_site_symmetry_2
O1 N1 1_555 1_555
O2 C5 1_555 1_555
O3 C9 1_555 1_555
O4 C10 1_555 1_555
O5 C11 1_555 1_555
O6 C19 1_555 1_555
O7 C19 1_555 1_555
N1 C16 1_555 1_555
N2 C3 1_555 1_555
N3 H1 1_555 1_555
N4 H2 1_555 1_555
N5 C16 1_555 1_555
F1 C2 1_555 1_555
C1 O1 1_555 1_555
C2 C1 1_555 1_555
C3 C2 1_555 1_555
C4 N2 1_555 1_555
H3 C4 1_555 1_555
H4 C4 1_555 1_555
C5 C4 1_555 1_555
H5 C5 1_555 1_555
C6 O2 1_555 1_555
H6 C6 1_555 1_555
C7 N2 1_555 1_555
H7 C7 1_555 1_555
C8 C7 1_555 1_555
C9 N3 1_555 1_555
C10 N3 1_555 1_555
C11 N4 1_555 1_555
C12 C8 1_555 1_555
H8 C12 1_555 1_555
H9 C12 1_555 1_555
C13 C3 1_555 1_555
C14 C13 1_555 1_555
H10 C14 1_555 1_555
C15 C1 1_555 1_555
C16 C15 1_555 1_555
C17 C5 1_555 1_555
H11 C17 1_555 1_555
H12 C17 1_555 1_555
H13 C17 1_555 1_555
C18 C6 1_555 1_555
H14 C18 1_555 1_555
H15 C18 1_555 1_555
H16 C18 1_555 1_555
C19 N5 1_555 1_555
C20 O6 1_555 1_555
H17 C20 1_555 1_555
H18 C20 1_555 1_555
C21 N5 1_555 1_555
H19 C21 1_555 1_555
C22 C21 1_555 1_555
H20 C22 1_555 1_555
H21 C22 1_555 1_555
H22 C22 1_555 1_555
O8 H23 1_555 1_555
C23 O8 1_555 1_555
H24 C23 1_555 1_555
H25 C23 1_555 1_555
H26 C23 1_555 1_555
N4 C10 1_555 1_555
C6 C7 1_555 1_555
C8 C9 1_555 1_555
C8 C11 1_555 1_555
C12 C13 1_555 1_555
C14 C15 1_555 1_555
C20 C21 1_555 1_555

#END
