
#######################################################################
#
#                 Cambridge Crystallographic Data Centre
#                                CCDC 
#
#######################################################################
#
# If this CIF has been generated from an entry in the Cambridge 
# Structural Database, then it will include bibliographic, chemical, 
# crystal, experimental, refinement or atomic coordinate data resulting 
# from the CCDC's data processing and validation procedures.
#
#######################################################################

data_SUNBEI
_chemical_formula_moiety         'C48 H46 N2 O4,Na1 1+,Br1 1-,C7 H8,2(H2 O1)'
_chemical_name_systematic        
"2,9-(3,3':5',3'':5'',3'''-Quater-4-ethoxytoluene-5,5'''-diyl)anthracene sodium bromide toluene solvate dihydrate"
_symmetry_cell_setting           monoclinic
_symmetry_space_group_name_H-M   'P 21/c'
_symmetry_Int_Tables_number      14
_space_group_name_Hall           '-P 2ybc'
loop_
_symmetry_equiv_pos_site_id
_symmetry_equiv_pos_as_xyz
1 x,y,z
2 -x,1/2+y,1/2-z
3 -x,-y,-z
4 x,1/2-y,1/2+z
_cell_length_a                   11.798(2)
_cell_length_b                   20.384(3)
_cell_length_c                   20.125(3)
_cell_angle_alpha                90
_cell_angle_beta                 91.114(4)
_cell_angle_gamma                90
_cell_volume                     4838.96
_exptl_crystal_colour            yellow
_cell_formula_units_Z            4
loop_
_atom_site_label
_atom_site_type_symbol
_atom_site_fract_x
_atom_site_fract_y
_atom_site_fract_z
Br1 Br 0.7983(8) 0.4748(5) 0.9347(7)
Na1 Na 0.257(3) 0.320(2) 0.665(2)
N1 N 0.210(6) 0.370(3) 0.769(4)
N2 N 0.418(6) 0.326(3) 0.736(4)
C1 C 0.532(9) 0.324(6) 0.708(6)
C2 C 0.625(7) 0.338(5) 0.771(5)
H1 H 0.705(7) 0.324(5) 0.764(5)
C3 C 0.629(8) 0.372(4) 0.831(5)
H2 H 0.695(8) 0.380(4) 0.861(5)
C4 C 0.481(5) 0.410(3) 0.908(3)
C5 C 0.371(5) 0.422(3) 0.929(3)
C6 C 0.279(5) 0.406(3) 0.887(3)
C7 C 0.298(5) 0.379(3) 0.824(3)
C8 C 0.409(5) 0.367(3) 0.804(3)
C9 C 0.500(5) 0.383(3) 0.846(3)
H3 H 0.551 0.424 0.935
H4 H 0.362 0.441 0.972
C10 C 0.159(7) 0.415(4) 0.902(5)
H5 H 0.137(7) 0.431(4) 0.947(5)
C11 C 0.092(11) 0.410(6) 0.837(7)
H6 H 0.014(11) 0.422(6) 0.850(7)
C12 C 0.115(9) 0.383(6) 0.772(6)
C13 C -0.083(5) 0.445(2) 0.743(3)
C14 C -0.155(5) 0.447(2) 0.688(3)
C15 C -0.142(5) 0.401(2) 0.637(3)
C16 C -0.057(5) 0.354(2) 0.641(3)
C17 C 0.015(5) 0.352(2) 0.697(3)
C18 C 0.002(5) 0.397(2) 0.748(3)
H7 H -0.074 0.463 0.791
H8 H -0.201 0.414 0.604
O1 O 0.071(4) 0.289(2) 0.693(3)
C19 C 0.019(5) 0.225(3) 0.738(3)
C20 C -0.081(10) 0.215(10) 0.684(8)
C21 C -0.223(8) 0.512(4) 0.696(6)
C22 C -0.139(3) 0.288(3) 0.534(3)
C23 C -0.112(3) 0.256(3) 0.475(3)
C24 C 0.000(3) 0.254(3) 0.455(3)
C25 C 0.085(3) 0.283(3) 0.493(3)
C26 C 0.059(3) 0.315(3) 0.552(3)
C27 C -0.053(3) 0.317(3) 0.573(3)
H9 H -0.215 0.285 0.554
H10 H 0.017 0.226 0.414
O2 O 0.150(3) 0.354(2) 0.578(2)
C28 C 0.151(8) 0.436(3) 0.558(5)
H11 H 0.215(8) 0.458(3) 0.583(5)
H12 H 0.078(8) 0.455(3) 0.573(5)
C29 C 0.163(9) 0.436(6) 0.482(5)
C30 C -0.210(5) 0.229(4) 0.431(4)
C31 C 0.235(4) 0.293(3) 0.396(2)
C32 C 0.350(4) 0.294(3) 0.382(2)
C33 C 0.430(4) 0.280(3) 0.432(2)
C34 C 0.395(4) 0.264(3) 0.496(2)
C35 C 0.280(4) 0.263(3) 0.510(2)
C36 C 0.200(4) 0.277(3) 0.460(2)
O3 O 0.260(4) 0.242(2) 0.577(2)
C37 C 0.244(8) 0.160(3) 0.590(5)
H13 H 0.290(8) 0.137(3) 0.556(5)
H14 H 0.164(8) 0.144(3) 0.587(5)
C38 C 0.295(9) 0.132(6) 0.655(5)
C39 C 0.359(8) 0.310(5) 0.307(2)
C40 C 0.565(4) 0.196(2) 0.551(3)
C41 C 0.621(4) 0.182(2) 0.611(3)
C42 C 0.609(4) 0.225(2) 0.665(3)
C43 C 0.542(4) 0.281(2) 0.659(3)
C44 C 0.487(4) 0.295(2) 0.599(3)
C45 C 0.498(4) 0.252(2) 0.545(3)
H15 H 0.560 0.167 0.514
H16 H 0.664 0.217 0.705
O4 O 0.429(4) 0.3570(2) 0.608(3)
C46 C 0.486(18) 0.432(5) 0.586(8)
C47 C 0.534(10) 0.442(6) 0.514(7)
C48 C 0.699(7) 0.123(3) 0.609(5)
C49 C 0.439(6) 0.534(4) 0.761(4)
C50 C 0.351(12) 0.548(6) 0.705(7)
C51 C 0.370(12) 0.585(6) 0.648(7)
C52 C 0.279(12) 0.606(6) 0.608(7)
C53 C 0.169(12) 0.590(6) 0.625(7)
C54 C 0.149(12) 0.553(6) 0.682(7)
C55 C 0.240(12) 0.532(6) 0.722(7)
O5 O 0.982(5) 0.071(3) 0.560(3)
O6 O 0.601(7) 0.494(5) 0.865(5)
loop_
_geom_bond_atom_site_label_1
_geom_bond_atom_site_label_2
_geom_bond_site_symmetry_1
_geom_bond_site_symmetry_2
N1 C7 1_555 1_555
N2 C1 1_555 1_555
C1 C2 1_555 1_555
C2 H1 1_555 1_555
C3 C2 1_555 1_555
H2 C3 1_555 1_555
C4 C5 1_555 1_555
C5 C6 1_555 1_555
C6 C7 1_555 1_555
C7 C8 1_555 1_555
C8 N2 1_555 1_555
C9 C3 1_555 1_555
H3 C4 1_555 1_555
H4 C5 1_555 1_555
C10 C6 1_555 1_555
H5 C10 1_555 1_555
C11 C10 1_555 1_555
H6 C11 1_555 1_555
C12 N1 1_555 1_555
C13 C14 1_555 1_555
C14 C15 1_555 1_555
C15 C16 1_555 1_555
C16 C17 1_555 1_555
C17 C18 1_555 1_555
C18 C12 1_555 1_555
H7 C13 1_555 1_555
H8 C15 1_555 1_555
O1 C17 1_555 1_555
C19 O1 1_555 1_555
C20 C19 1_555 1_555
C21 C14 1_555 1_555
C22 C23 1_555 1_555
C23 C24 1_555 1_555
C24 C25 1_555 1_555
C25 C26 1_555 1_555
C26 C27 1_555 1_555
C27 C16 1_555 1_555
H9 C22 1_555 1_555
H10 C24 1_555 1_555
O2 C26 1_555 1_555
C28 O2 1_555 1_555
H11 C28 1_555 1_555
H12 C28 1_555 1_555
C29 C28 1_555 1_555
C30 C23 1_555 1_555
C31 C32 1_555 1_555
C32 C33 1_555 1_555
C33 C34 1_555 1_555
C34 C35 1_555 1_555
C35 C36 1_555 1_555
C36 C25 1_555 1_555
O3 C35 1_555 1_555
C37 O3 1_555 1_555
H13 C37 1_555 1_555
H14 C37 1_555 1_555
C38 C37 1_555 1_555
C39 C32 1_555 1_555
C40 C41 1_555 1_555
C41 C42 1_555 1_555
C42 C43 1_555 1_555
C43 C1 1_555 1_555
C44 C43 1_555 1_555
C45 C34 1_555 1_555
H15 C40 1_555 1_555
H16 C42 1_555 1_555
O4 C44 1_555 1_555
C46 O4 1_555 1_555
C47 C46 1_555 1_555
C48 C41 1_555 1_555
C49 C50 1_555 1_555
C50 C51 1_555 1_555
C51 C52 1_555 1_555
C52 C53 1_555 1_555
C53 C54 1_555 1_555
C54 C55 1_555 1_555
C55 C50 1_555 1_555
C4 C9 1_555 1_555
C8 C9 1_555 1_555
C11 C12 1_555 1_555
C13 C18 1_555 1_555
C22 C27 1_555 1_555
C31 C36 1_555 1_555
C40 C45 1_555 1_555
C44 C45 1_555 1_555

#END
