
#######################################################################
#
#                 Cambridge Crystallographic Data Centre
#                                CCDC 
#
#######################################################################
#
# If this CIF has been generated from an entry in the Cambridge 
# Structural Database, then it will include bibliographic, chemical, 
# crystal, experimental, refinement or atomic coordinate data resulting 
# from the CCDC's data processing and validation procedures.
#
#######################################################################

data_SUNBAE
_chemical_formula_moiety         'C48 H46 N2 O4,C3 H6 O1,H2 O1'
_chemical_name_systematic        
"2,9-(3,3':5',3'':5'',3'''-Quater-4-ethoxytoluene-5,5'''-diyl)anthracene acetone solvate monohydrate"
_symmetry_cell_setting           triclinic
_symmetry_space_group_name_H-M   'P -1'
_symmetry_Int_Tables_number      2
_space_group_name_Hall           '-P 1'
loop_
_symmetry_equiv_pos_site_id
_symmetry_equiv_pos_as_xyz
1 x,y,z
2 -x,-y,-z
_cell_length_a                   10.63(1)
_cell_length_b                   11.57(1)
_cell_length_c                   21.27(2)
_cell_angle_alpha                74.51(2)
_cell_angle_beta                 78.10(3)
_cell_angle_gamma                69.42(2)
_cell_volume                     2341.71
_exptl_crystal_colour            yellow
_cell_formula_units_Z            2
loop_
_atom_site_label
_atom_site_type_symbol
_atom_site_fract_x
_atom_site_fract_y
_atom_site_fract_z
O2 O -0.085(7) 0.218(7) 0.565(3)
C1 C 0.373 -0.243(8) 0.615(4)
H1 H 0.387 -0.343 0.628
C2 C 0.345(6) -0.187(6) 0.560(3)
H2 H 0.320 -0.230 0.527
C3 C 0.339(4) -0.010(4) 0.475(3)
C4 C 0.328(4) 0.118(4) 0.450(3)
C5 C 0.320(4) 0.195(4) 0.492(3)
C6 C 0.324(4) 0.144(4) 0.560(3)
C7 C 0.336(4) 0.017(4) 0.585(3)
C8 C 0.343(4) -0.060(4) 0.543(3)
H3 H 0.345 -0.069 0.443
H4 H 0.324 0.156 0.398
C9 C 0.287(6) 0.339(6) 0.465(3)
H5 H 0.272 0.389 0.415
C10 C 0.293(6) 0.393(6) 0.522(3)
H6 H 0.316 0.481 0.510
C11 C 0.265(6) 0.337(6) 0.595(3)
N1 N 0.328(6) 0.218(5) 0.605(3)
N2 N 0.357(6) -0.057(5) 0.646(3)
C12 C 0.393(5) -0.183(5) 0.661(2)
C13 C 0.559(6) -0.322(5) 0.732(2)
C14 C 0.630(6) -0.369(5) 0.786(2)
C15 C 0.579(6) -0.319(5) 0.842(2)
C16 C 0.456(6) -0.222(5) 0.844(2)
C17 C 0.385(6) -0.174(5) 0.790(2)
C18 C 0.436(6) -0.225(5) 0.733(2)
H7 H 0.611 -0.368 0.689
H8 H 0.629 -0.353 0.887
C19 C 0.776(8) -0.484(7) 0.789(4)
O3 O 0.246(5) -0.085(4) 0.784(2)
C20 C 0.119(6) -0.101(6) 0.777(3)
H9 H 0.128 -0.136 0.734
H10 H 0.035 -0.014 0.776
C21 C 0.112(7) -0.187(7) 0.835(3)
H11 H 0.030 -0.178 0.809
H12 H 0.071 -0.144 0.877
H13 H 0.165 -0.286 0.852
C22 C 0.316(4) -0.186(3) 0.951(2)
C23 C 0.253(4) -0.106(3) 0.995(2)
C24 C 0.273(4) 0.011(3) 0.983(2)
C25 C 0.355(4) 0.049(3) 0.927(2)
C26 C 0.418(4) -0.030(3) 0.883(2)
C27 C 0.399(4) -0.148(3) 0.895(2)
H14 H 0.306 -0.280 0.960
H15 H 0.217 0.071 1.017
C28 C 0.154(8) -0.132(7) 1.050(3)
O4 O 0.520(5) -0.008(4) 0.835(2)
C29 C 0.640(8) -0.038(6) 0.852(3)
H16 H 0.678 -0.140 0.860
H17 H 0.622 -0.011 0.899
C30 C 0.733(8) -0.004(8) 0.818(4)
H18 H 0.783 -0.072 0.858
H19 H 0.721 0.090 0.823
H20 H 0.793 -0.020 0.772
C31 C 0.402(3) 0.242(3) 0.939(1)
C32 C 0.407(3) 0.365(3) 0.914(1)
C33 C 0.360(3) 0.432(3) 0.854(1)
C34 C 0.309(3) 0.376(3) 0.819(1)
C35 C 0.305(3) 0.253(3) 0.844(1)
C36 C 0.351(3) 0.186(3) 0.904(1)
H21 H 0.438 0.187 0.986
H22 H 0.365 0.527 0.836
C37 C 0.456(6) 0.434(6) 0.953(3)
O5 O 0.254(4) 0.201(3) 0.806(1)
C38 C 0.116(5) 0.203(5) 0.817(2)
H23 H 0.112 0.115 0.850
H24 H 0.059 0.281 0.841
C39 C 0.046(6) 0.220(5) 0.762(3)
H25 H 0.040 0.126 0.786
H26 H 0.016 0.246 0.714
C40 C 0.158(3) 0.544(3) 0.740(1)
C41 C 0.095(3) 0.588(3) 0.683(1)
C42 C 0.145(3) 0.523(3) 0.632(1)
C43 C 0.258(3) 0.415(3) 0.637(1)
C44 C 0.321(3) 0.371(3) 0.695(1)
C45 C 0.271(3) 0.436(3) 0.746(1)
H27 H 0.121 0.593 0.780
H28 H 0.093 0.560 0.588
C46 C -0.015(6) 0.711(5) 0.678(2)
O6 O 0.445(5) 0.277(4) 0.691(2)
C47 C 0.571(12) 0.301(10) 0.674(5)
C48 C 0.573(14) 0.380(13) 0.634(6)
O1 O 0.592(5) -0.012(4) 0.689(2)
H29? H 0.149 0.220 0.759
C49? C -0.004(12) 0.495(8) 0.992(5)
C50? C 0.036(12) 0.540(8) 1.043(5)
C51? C -0.085(12) 0.588(8) 0.940(5)
O7? O 0.030(12) 0.381(8) 0.994(5)
loop_
_geom_bond_atom_site_label_1
_geom_bond_atom_site_label_2
_geom_bond_site_symmetry_1
_geom_bond_site_symmetry_2
C1 H1 1_555 1_555
C2 C1 1_555 1_555
H2 C2 1_555 1_555
C3 C4 1_555 1_555
C4 C5 1_555 1_555
C5 C6 1_555 1_555
C6 C7 1_555 1_555
C7 C8 1_555 1_555
C8 C2 1_555 1_555
H3 C3 1_555 1_555
H4 C4 1_555 1_555
C9 C5 1_555 1_555
H5 C9 1_555 1_555
C10 C9 1_555 1_555
H6 C10 1_555 1_555
C11 C10 1_555 1_555
N1 C6 1_555 1_555
N2 C7 1_555 1_555
C12 C1 1_555 1_555
C13 C14 1_555 1_555
C14 C15 1_555 1_555
C15 C16 1_555 1_555
C16 C17 1_555 1_555
C17 C18 1_555 1_555
C18 C12 1_555 1_555
H7 C13 1_555 1_555
H8 C15 1_555 1_555
C19 C14 1_555 1_555
O3 C17 1_555 1_555
C20 O3 1_555 1_555
H9 C20 1_555 1_555
H10 C20 1_555 1_555
C21 C20 1_555 1_555
H11 C21 1_555 1_555
H12 C21 1_555 1_555
H13 C21 1_555 1_555
C22 C23 1_555 1_555
C23 C24 1_555 1_555
C24 C25 1_555 1_555
C25 C26 1_555 1_555
C26 C27 1_555 1_555
C27 C16 1_555 1_555
H14 C22 1_555 1_555
H15 C24 1_555 1_555
C28 C23 1_555 1_555
O4 C26 1_555 1_555
C29 O4 1_555 1_555
H16 C29 1_555 1_555
H17 C29 1_555 1_555
C30 C29 1_555 1_555
H18 C30 1_555 1_555
H19 C30 1_555 1_555
H20 C30 1_555 1_555
C31 C32 1_555 1_555
C32 C33 1_555 1_555
C33 C34 1_555 1_555
C34 C35 1_555 1_555
C35 C36 1_555 1_555
C36 C25 1_555 1_555
H21 C31 1_555 1_555
H22 C33 1_555 1_555
C37 C32 1_555 1_555
O5 C35 1_555 1_555
C38 O5 1_555 1_555
H23 C38 1_555 1_555
H24 C38 1_555 1_555
C39 C38 1_555 1_555
H25 C39 1_555 1_555
H26 C39 1_555 1_555
C40 C41 1_555 1_555
C41 C42 1_555 1_555
C42 C43 1_555 1_555
C43 C11 1_555 1_555
C44 C43 1_555 1_555
C45 C34 1_555 1_555
H27 C40 1_555 1_555
H28 C42 1_555 1_555
C46 C41 1_555 1_555
O6 C44 1_555 1_555
C47 O6 1_555 1_555
C48 C47 1_555 1_555
C3 C8 1_555 1_555
C11 N1 1_555 1_555
N2 C12 1_555 1_555
C13 C18 1_555 1_555
C22 C27 1_555 1_555
C31 C36 1_555 1_555
C40 C45 1_555 1_555
C44 C45 1_555 1_555

#END
