
#######################################################################
#
#                 Cambridge Crystallographic Data Centre
#                                CCDC 
#
#######################################################################
#
# If this CIF has been generated from an entry in the Cambridge 
# Structural Database, then it will include bibliographic, chemical, 
# crystal, experimental, refinement or atomic coordinate data resulting 
# from the CCDC's data processing and validation procedures.
#
#######################################################################

data_SUNDIQ
_chemical_name_common            'Guanidinium ethyl xanthate'
_chemical_formula_moiety         'C3 H5 O1 S2 1-,C1 H6 N3 1+'
_chemical_name_systematic        'diaminomethaniminium O-ethyl carbonodithioate'
_symmetry_cell_setting           monoclinic
_symmetry_space_group_name_H-M   'C 2/c'
_symmetry_Int_Tables_number      15
_space_group_name_Hall           '-C 2yn'
loop_
_symmetry_equiv_pos_site_id
_symmetry_equiv_pos_as_xyz
1 x,y,z
2 -x,y,1/2-z
3 1/2+x,1/2+y,z
4 1/2-x,1/2+y,1/2-z
5 -x,-y,-z
6 x,-y,1/2+z
7 1/2-x,1/2-y,-z
8 1/2+x,1/2-y,1/2+z
_cell_length_a                   13.141(3)
_cell_length_b                   8.9674(18)
_cell_length_c                   15.208(3)
_cell_angle_alpha                90
_cell_angle_beta                 107.71(3)
_cell_angle_gamma                90
_cell_volume                     1707.19
_exptl_crystal_colour            yellow
_exptl_crystal_description       plates
_cell_formula_units_Z            8
_chemical_properties_physical    Moisture-sensitive
_exptl_crystal_recrystallization_method Methanol
loop_
_atom_site_label
_atom_site_type_symbol
_atom_site_fract_x
_atom_site_fract_y
_atom_site_fract_z
S1 S 0.64766(4) 0.41740(7) 0.54151(3)
C1 C 0.55802(15) 0.2937(3) 0.48088(14)
S2 S 0.54580(4) 0.24149(7) 0.37095(4)
O1 O 0.48732(12) 0.22371(19) 0.51539(10)
C2 C 0.48463(19) 0.2619(3) 0.60749(14)
H1 H 0.4741 0.3705 0.6124
H2 H 0.5524 0.2329 0.6542
C3 C 0.3924(2) 0.1769(3) 0.62234(17)
H3 H 0.3255 0.2112 0.5781
H4 H 0.3900 0.1941 0.6853
H5 H 0.4017 0.0701 0.6133
C4 C 0.75415(16) 0.5387(3) 0.31215(14)
N1 N 0.65782(15) 0.4850(2) 0.26965(13)
H6 H 0.6279 0.5019 0.2104
H7 H 0.6237 0.4325 0.3007
N2 N 0.80498(16) 0.6176(3) 0.26513(13)
H8 H 0.7748 0.6342 0.2059
H9 H 0.8690 0.6535 0.2931
N3 N 0.79950(15) 0.5157(2) 0.40193(13)
H10 H 0.8631 0.5529 0.4299
H11 H 0.7659 0.4633 0.4334
loop_
_geom_bond_atom_site_label_1
_geom_bond_atom_site_label_2
_geom_bond_site_symmetry_1
_geom_bond_site_symmetry_2
S1 C1 1_555 1_555
C1 S2 1_555 1_555
O1 C1 1_555 1_555
C2 O1 1_555 1_555
H1 C2 1_555 1_555
H2 C2 1_555 1_555
C3 C2 1_555 1_555
H3 C3 1_555 1_555
H4 C3 1_555 1_555
H5 C3 1_555 1_555
C4 N1 1_555 1_555
N1 H6 1_555 1_555
H7 N1 1_555 1_555
N2 C4 1_555 1_555
H8 N2 1_555 1_555
H9 N2 1_555 1_555
N3 C4 1_555 1_555
H10 N3 1_555 1_555
H11 N3 1_555 1_555

#END
