
#######################################################################
#
#                 Cambridge Crystallographic Data Centre
#                                CCDC 
#
#######################################################################
#
# If this CIF has been generated from an entry in the Cambridge 
# Structural Database, then it will include bibliographic, chemical, 
# crystal, experimental, refinement or atomic coordinate data resulting 
# from the CCDC's data processing and validation procedures.
#
#######################################################################

data_SUNDEK
_chemical_formula_moiety         'C9 H8 O2 S4'
_chemical_name_systematic        'Methyl (4-tetrathiafulvalenyl)acetate'
_symmetry_cell_setting           monoclinic
_symmetry_space_group_name_H-M   'P 21'
_symmetry_Int_Tables_number      4
_space_group_name_Hall           'P 2yb'
loop_
_symmetry_equiv_pos_site_id
_symmetry_equiv_pos_as_xyz
1 x,y,z
2 -x,1/2+y,-z
_cell_length_a                   9.435(1)
_cell_length_b                   5.213(1)
_cell_length_c                   11.561(2)
_cell_angle_alpha                90
_cell_angle_beta                 91.51(1)
_cell_angle_gamma                90
_cell_volume                     568.426
_exptl_crystal_colour            yellow-green
_chemical_melting_point          94-95deg.C
_cell_formula_units_Z            2
loop_
_atom_site_label
_atom_site_type_symbol
_atom_site_fract_x
_atom_site_fract_y
_atom_site_fract_z
S1 S 0.5357(1) 0.4153 0.2960(1)
S2 S 0.7130(1) 0.2554(4) 0.1016(1)
S3 S 0.8670(1) -0.1762(3) 0.2697(1)
S4 S 0.6846(2) -0.0128(3) 0.4615(1)
O1 O 0.8372(3) -0.2429(6) 0.6888(3)
O2 O 0.7617(4) -0.5287(7) 0.8200(3)
C1 C 0.5135(5) 0.5752(7) 0.1649(5)
C2 C 0.5936(5) 0.5052(8) 0.0779(4)
C3 C 0.6688(5) 0.2084(7) 0.2468(4)
C4 C 0.7303(5) 0.0338(7) 0.3165(4)
C5 C 0.8798(5) -0.3477(7) 0.3986(4)
C6 C 0.7961(5) -0.2821(7) 0.4858(4)
C7 C 0.7878(5) -0.4166(7) 0.5983(4)
C8 C 0.8185(5) -0.3280(7) 0.7977(4)
C9 C 0.8782(5) -0.1424(7) 0.8847(4)
H1 H 0.4781(9) 0.7251(9) 0.1662(9)
H2 H 0.5970(9) 0.6051(9) 0.0051(9)
H3 H 0.9192(9) -0.4813(9) 0.3999(9)
H4 H 0.8389(9) -0.6153(9) 0.5979(9)
H5 H 0.6949(9) -0.4440(9) 0.6082(9)
H6 H 0.8619(9) -0.2124(9) 0.9640(9)
H7 H 0.8392(9) 0.0175(9) 0.8639(9)
H8 H 0.9816(9) -0.1363(9) 0.8782(9)
loop_
_geom_bond_atom_site_label_1
_geom_bond_atom_site_label_2
_geom_bond_site_symmetry_1
_geom_bond_site_symmetry_2
S1 C1 1_555 1_555
S2 C2 1_555 1_555
S3 C4 1_555 1_555
S4 C4 1_555 1_555
O1 C7 1_555 1_555
O2 C8 1_555 1_555
C1 C2 1_555 1_555
C2 H2 1_555 1_555
C3 S1 1_555 1_555
C4 C3 1_555 1_555
C5 S3 1_555 1_555
C6 S4 1_555 1_555
C7 C6 1_555 1_555
C8 O1 1_555 1_555
C9 C8 1_555 1_555
H1 C1 1_555 1_555
H3 C5 1_555 1_555
H4 C7 1_555 1_555
H5 C7 1_555 1_555
H6 C9 1_555 1_555
H7 C9 1_555 1_555
H8 C9 1_555 1_555
S2 C3 1_555 1_555
C5 C6 1_555 1_555

#END
