
#######################################################################
#
#                 Cambridge Crystallographic Data Centre
#                                CCDC 
#
#######################################################################
#
# If this CIF has been generated from an entry in the Cambridge 
# Structural Database, then it will include bibliographic, chemical, 
# crystal, experimental, refinement or atomic coordinate data resulting 
# from the CCDC's data processing and validation procedures.
#
#######################################################################

data_SUNFEO
_chemical_name_common            'tetramethylammonium ethyl xanthate'
_chemical_formula_moiety         'C4 H12 N1 1+,C3 H5 O1 S2 1-'
_chemical_name_systematic        'tetramethylammonium O-ethyl carbonodithioate'
_symmetry_cell_setting           orthorhombic
_symmetry_space_group_name_H-M   'P m n 21'
_symmetry_Int_Tables_number      31
_space_group_name_Hall           'P 2ac -2'
loop_
_symmetry_equiv_pos_site_id
_symmetry_equiv_pos_as_xyz
1 x,y,z
2 1/2-x,-y,1/2+z
3 -x,y,z
4 1/2+x,-y,1/2+z
_cell_length_a                   6.9768(3)
_cell_length_b                   15.7100(7)
_cell_length_c                   9.9524(4)
_cell_angle_alpha                90
_cell_angle_beta                 90
_cell_angle_gamma                90
_cell_volume                     1090.84
_exptl_crystal_colour            yellow
_exptl_crystal_description       plates
_cell_formula_units_Z            4
_exptl_crystal_recrystallization_method Methanol
loop_
_atom_site_label
_atom_site_type_symbol
_atom_site_fract_x
_atom_site_fract_y
_atom_site_fract_z
S1 S 0.5000 0.77181(2) 0.16821(5)
S2 S 0.5000 0.58077(2) 0.15081(4)
C1 C 0.5000 0.67402(9) 0.23564(17)
C2 C 0.5000 0.73565(9) 0.46018(18)
H1 H 0.3846 0.7711 0.4454
C3 C 0.5000 0.69908(12) 0.59915(19)
H2 H 0.5000 0.7454 0.6651
H3 H 0.6147 0.6639 0.6117
O1 O 0.5000 0.66280(7) 0.37076(12)
H1B H 0.6154 0.7711 0.4454
H3B H 0.3853 0.6639 0.6117
S3 S 1.0000 0.87671(3) 0.41707(4)
S4 S 1.0000 0.83969(3) 0.71181(5)
C4 C 1.0000 0.68976(10) 0.39652(17)
H6 H 1.1153 0.7086 0.3467
C5 C 1.0000 0.80976(10) 0.54888(18)
C6 C 1.0000 0.59447(11) 0.4123(2)
H7 H 1.0000 0.5677 0.3234
H8 H 0.8853 0.5769 0.4619
O2 O 1.0000 0.72481(7) 0.53130(12)
H6B H 0.8847 0.7086 0.3467
H8B H 1.1147 0.5769 0.4619
N1 N 0.5000 1.01026(9) 0.54545(15)
C7 C 0.5000 0.96361(10) 0.41383(19)
H11 H 0.5000 1.0048 0.3399
H12 H 0.3853 0.9278 0.4079
C8 C 0.5000 0.94764(11) 0.6582(2)
H13 H 0.3850 0.9120 0.6525
H14 H 0.5000 0.9782 0.7440
C9 C 0.32455(18) 1.06482(8) 0.55436(15)
H15 H 0.3248 1.1061 0.4806
H16 H 0.3239 1.0951 0.6404
H17 H 0.2100 1.0289 0.5479
H12B H 0.6147 0.9278 0.4079
H13B H 0.6150 0.9120 0.6525
C9B C 0.67545(18) 1.06482(8) 0.55436(15)
H15B H 0.6752 1.1061 0.4806
H16B H 0.6761 1.0951 0.6404
H17B H 0.7900 1.0289 0.5479
N2 N 0.5000 0.38413(8) 0.43634(14)
C10 C 0.5000 0.31109(11) 0.53310(19)
H20 H 0.5000 0.2574 0.4831
H21 H 0.3853 0.3141 0.5898
C11 C 0.67481(17) 0.37910(8) 0.34981(13)
H22 H 0.6748 0.3250 0.3007
H23 H 0.7896 0.3825 0.4063
H24 H 0.6746 0.4265 0.2857
C12 C 0.5000 0.46638(10) 0.51111(18)
H25 H 0.3853 0.4697 0.5676
H26 H 0.5000 0.5137 0.4470
H21B H 0.6147 0.3141 0.5898
H25B H 0.6147 0.4697 0.5676
C11B C 0.32519(17) 0.37910(8) 0.34981(13)
H22B H 0.3252 0.3250 0.3007
H23B H 0.2104 0.3825 0.4063
H24B H 0.3254 0.4265 0.2857
H4? H 0.3846 0.7711 0.4454
H5? H 0.6147 0.6639 0.6117
H9? H 1.1153 0.7086 0.3467
H10? H 0.8853 0.5769 0.4619
H18? H 0.3853 0.9278 0.4079
H19? H 0.3856 0.9117 0.6519
H27? H 0.3853 0.3141 0.5898
H28? H 0.3853 0.4697 0.5677
loop_
_geom_bond_atom_site_label_1
_geom_bond_atom_site_label_2
_geom_bond_site_symmetry_1
_geom_bond_site_symmetry_2
S1 C1 1_555 1_555
S2 C1 1_555 1_555
C1 O1 1_555 1_555
C2 H1 1_555 1_555
C3 C2 1_555 1_555
H2 C3 1_555 1_555
H3 C3 1_555 1_555
O1 C2 1_555 1_555
S3 C5 1_555 1_555
S4 C5 1_555 1_555
C4 H6 1_555 1_555
C5 O2 1_555 1_555
C6 C4 1_555 1_555
H7 C6 1_555 1_555
H8 C6 1_555 1_555
O2 C4 1_555 1_555
N1 C7 1_555 1_555
C7 H11 1_555 1_555
H12 C7 1_555 1_555
C8 N1 1_555 1_555
H13 C8 1_555 1_555
H14 C8 1_555 1_555
C9 N1 1_555 1_555
H15 C9 1_555 1_555
H16 C9 1_555 1_555
H17 C9 1_555 1_555
N2 C10 1_555 1_555
C10 H20 1_555 1_555
H21 C10 1_555 1_555
C11 N2 1_555 1_555
H22 C11 1_555 1_555
H23 C11 1_555 1_555
H24 C11 1_555 1_555
C12 N2 1_555 1_555
H25 C12 1_555 1_555
H26 C12 1_555 1_555
H1B C2 1_555 1_555
H3B C3 1_555 1_555
H6B C4 1_555 1_555
H8B C6 1_555 1_555
H12B C7 1_555 1_555
H13B C8 1_555 1_555
C9B N1 1_555 1_555
H15B C9B 1_555 1_555
H16B C9B 1_555 1_555
H17B C9B 1_555 1_555
H21B C10 1_555 1_555
H25B C12 1_555 1_555
C11B N2 1_555 1_555
H22B C11B 1_555 1_555
H23B C11B 1_555 1_555
H24B C11B 1_555 1_555

#END
