
#######################################################################
#
#                 Cambridge Crystallographic Data Centre
#                                CCDC 
#
#######################################################################
#
# If this CIF has been generated from an entry in the Cambridge 
# Structural Database, then it will include bibliographic, chemical, 
# crystal, experimental, refinement or atomic coordinate data resulting 
# from the CCDC's data processing and validation procedures.
#
#######################################################################

data_SUNHOY
_chemical_formula_moiety         'C20 H25 N1 O4'
_chemical_name_systematic        
5-Allyl-4-benzyl-3-t-butoxycarbonyl-5-vinyloxazolidin-2-one
_symmetry_cell_setting           monoclinic
_symmetry_space_group_name_H-M   'P 21'
_symmetry_Int_Tables_number      4
_space_group_name_Hall           'P 2yb'
loop_
_symmetry_equiv_pos_site_id
_symmetry_equiv_pos_as_xyz
1 x,y,z
2 -x,1/2+y,-z
_cell_length_a                   12.930(3)
_cell_length_b                   6.560(2)
_cell_length_c                   13.013(2)
_cell_angle_alpha                90
_cell_angle_beta                 113.21(1)
_cell_angle_gamma                90
_cell_volume                     1014.44
_chemical_melting_point          104-105.5deg.C
_cell_formula_units_Z            2
loop_
_atom_site_label
_atom_site_type_symbol
_atom_site_fract_x
_atom_site_fract_y
_atom_site_fract_z
O1 O 0.8204(8) 0.66660 0.1289(8)
O2 O 0.780(1) 0.400(2) 0.014(1)
O3 O 0.719(1) 0.522(3) -0.202(1)
O4 O 0.7189(9) 0.868(2) -0.2171(9)
N1 N 0.7415(9) 0.726(2) -0.0557(9)
C1 C 0.534(1) 0.985(3) -0.118(1)
C2 C 0.463(1) 0.853(3) -0.172(1)
C3 C 0.374(2) 0.869(4) -0.276(2)
C4 C 0.357(2) 1.071(4) -0.325(2)
C5 C 0.431(1) 1.214(4) -0.275(1)
C6 C 0.523(1) 1.182(4) -0.171(1)
C7 C 0.630(1) 0.979(3) -0.006(1)
C8 C 0.740(1) 0.923(3) 0.000(1)
C9 C 0.849(1) 0.884(3) 0.115(1)
C10 C 0.817(1) 0.995(4) 0.207(1)
C11 C 0.907(2) 0.934(5) 0.320(2)
C12 C 0.951(2) 1.030(6) 0.396(2)
C13 C 0.952(1) 0.915(3) 0.113(1)
C14 C 1.022(1) 0.779(4) 0.115(1)
C15 C 0.777(1) 0.576(3) 0.032(2)
C16 C 0.722(1) 0.688(4) -0.171(1)
C17 C 0.694(1) 0.872(3) -0.343(1)
C18 C 0.802(1) 0.781(4) -0.348(2)
C19 C 0.590(1) 0.775(4) -0.407(1)
C20 C 0.701(1) 1.097(3) -0.357(2)
H1 H 0.47165 0.72389 -0.13631
H2 H 0.32726 0.75587 -0.31170
H3 H 0.29431 1.09871 -0.39220
H4 H 0.42165 1.34486 -0.30876
H5 H 0.57651 1.28658 -0.13790
H6 H 0.60986 0.88405 0.03806
H7 H 0.63580 1.11126 0.02518
H8 H 0.74966 1.04859 -0.03144
H9 H 0.74477 0.95100 0.20212
H10 H 0.81593 1.13875 0.19788
H11 H 0.92966 0.79552 0.32599
H12 H 1.00637 0.97087 0.46103
H13 H 0.93262 1.17045 0.39569
H14 H 0.97324 1.05306 0.11003
H15 H 1.09244 0.81725 0.11313
H16 H 1.00469 0.63923 0.11767
H17 H 0.79456 0.77665 -0.42376
H18 H 0.86457 0.86283 -0.30559
H19 H 0.81259 0.64640 -0.31858
H20 H 0.57683 0.77984 -0.48436
H21 H 0.59184 0.63737 -0.38433
H22 H 0.53054 0.84470 -0.39592
H23 H 0.68769 1.12707 -0.43235
H24 H 0.64621 1.16271 -0.33700
H25 H 0.77398 1.14380 -0.30950
loop_
_geom_bond_atom_site_label_1
_geom_bond_atom_site_label_2
_geom_bond_site_symmetry_1
_geom_bond_site_symmetry_2
O1 C9 1_555 1_555
O2 C15 1_555 1_555
O3 C16 1_555 1_555
O4 C16 1_555 1_555
N1 C8 1_555 1_555
C1 C2 1_555 1_555
C2 C3 1_555 1_555
C3 C4 1_555 1_555
C4 C5 1_555 1_555
C5 C6 1_555 1_555
C6 C1 1_555 1_555
C7 C1 1_555 1_555
C8 C7 1_555 1_555
C9 C8 1_555 1_555
C10 C9 1_555 1_555
C11 C10 1_555 1_555
C12 C11 1_555 1_555
C13 C9 1_555 1_555
C14 C13 1_555 1_555
C15 O1 1_555 1_555
C16 N1 1_555 1_555
C17 O4 1_555 1_555
C18 C17 1_555 1_555
C19 C17 1_555 1_555
C20 C17 1_555 1_555
H1 C2 1_555 1_555
H2 C3 1_555 1_555
H3 C4 1_555 1_555
H4 C5 1_555 1_555
H5 C6 1_555 1_555
H6 C7 1_555 1_555
H7 C7 1_555 1_555
H8 C8 1_555 1_555
H9 C10 1_555 1_555
H10 C10 1_555 1_555
H11 C11 1_555 1_555
H12 C12 1_555 1_555
H13 C12 1_555 1_555
H14 C13 1_555 1_555
H15 C14 1_555 1_555
H16 C14 1_555 1_555
H17 C18 1_555 1_555
H18 C18 1_555 1_555
H19 C18 1_555 1_555
H20 C19 1_555 1_555
H21 C19 1_555 1_555
H22 C19 1_555 1_555
H23 C20 1_555 1_555
H24 C20 1_555 1_555
H25 C20 1_555 1_555
N1 C15 1_555 1_555

#END
