
#######################################################################
#
#                 Cambridge Crystallographic Data Centre
#                                CCDC 
#
#######################################################################
#
# If this CIF has been generated from an entry in the Cambridge 
# Structural Database, then it will include bibliographic, chemical, 
# crystal, experimental, refinement or atomic coordinate data resulting 
# from the CCDC's data processing and validation procedures.
#
#######################################################################

data_SUNSOK
_chemical_formula_moiety         'C54 H39 N6 P1 S1'
_chemical_name_systematic        
"N,N',N''-Trimethyl-N''',N'''',N'''''-tris(1-pyrenylmethylene)phosphorothioic trihydrazide"
_symmetry_cell_setting           triclinic
_symmetry_space_group_name_H-M   'P -1'
_symmetry_Int_Tables_number      2
_space_group_name_Hall           '-P 1'
loop_
_symmetry_equiv_pos_site_id
_symmetry_equiv_pos_as_xyz
1 x,y,z
2 -x,-y,-z
_cell_length_a                   10.385(5)
_cell_length_b                   13.784(7)
_cell_length_c                   15.118(8)
_cell_angle_alpha                86.293(10)
_cell_angle_beta                 76.600(11)
_cell_angle_gamma                89.766(10)
_cell_volume                     2100.64
_exptl_crystal_colour            yellow
_chemical_melting_point          '248 deg.C'
_cell_formula_units_Z            2
_exptl_crystal_recrystallization_method acetonitrile/toluene
_exptl_crystal_preparation       fluorescent
loop_
_atom_site_label
_atom_site_type_symbol
_atom_site_fract_x
_atom_site_fract_y
_atom_site_fract_z
C1 C 0.6699(6) 0.3629(4) 0.2937(4)
H1 H 0.7270 0.3178 0.3166
H2 H 0.6316 0.3325 0.2503
H3 H 0.6007 0.3820 0.3433
C2 C 0.8046(5) 0.4856(4) 0.3818(4)
H4 H 0.7578 0.4313 0.4124
C3 C 0.8750(5) 0.5515(3) 0.4287(4)
C4 C 0.9821(5) 0.6050(4) 0.3803(4)
H5 H 1.0122 0.5965 0.3184
C5 C 1.0464(5) 0.6704(4) 0.4196(4)
H6 H 1.1183 0.7057 0.3842
C6 C 1.0685(5) 0.7532(4) 0.5554(5)
H7 H 1.1424 0.7875 0.5215
C7 C 1.0234(6) 0.7693(4) 0.6442(5)
H8 H 1.0642 0.8163 0.6702
C8 C 0.8615(7) 0.7295(5) 0.7910(5)
H9 H 0.9007 0.7766 0.8179
C9 C 0.7562(7) 0.6772(5) 0.8421(5)
H10 H 0.7267 0.6872 0.9037
C10 C 0.6932(6) 0.6097(5) 0.8032(4)
H11 H 0.6209 0.5748 0.8387
C11 C 0.6761(5) 0.5239(4) 0.6681(4)
H12 H 0.6042 0.4877 0.7024
C12 C 0.7181(5) 0.5084(4) 0.5802(4)
H13 H 0.6746 0.4623 0.5552
C13 C 1.0052(5) 0.6844(4) 0.5120(4)
C14 C 0.9116(5) 0.7138(4) 0.6993(4)
C15 C 0.7365(5) 0.5933(4) 0.7118(4)
C16 C 0.8298(4) 0.5614(3) 0.5226(4)
C17 C 0.8950(5) 0.6307(3) 0.5639(4)
C18 C 0.8483(5) 0.6460(3) 0.6586(4)
C19 C 0.5419(5) 0.6230(4) 0.1039(4)
H14 H 0.4486 0.6239 0.1308
H15 H 0.5581 0.5831 0.0528
H16 H 0.5730 0.6880 0.0838
C20 C 0.5251(5) 0.6995(3) 0.2717(3)
H17 H 0.4751 0.7233 0.2316
C21 C 0.5128(5) 0.7418(3) 0.3589(4)
C22 C 0.5855(5) 0.7037(4) 0.4187(4)
H18 H 0.6411 0.6518 0.4014
C23 C 0.5791(5) 0.7389(4) 0.5018(4)
H19 H 0.6316 0.7117 0.5389
C24 C 0.4858(5) 0.8530(4) 0.6193(4)
H20 H 0.5358 0.8262 0.6582
C25 C 0.4041(6) 0.9278(4) 0.6450(4)
H21 H 0.3997 0.9517 0.7017
C26 C 0.2430(6) 1.0474(5) 0.6160(4)
H22 H 0.2384 1.0713 0.6728
C27 C 0.1663(6) 1.0899(4) 0.5601(5)
H23 H 0.1124 1.1421 0.5794
C28 C 0.1697(5) 1.0549(4) 0.4762(5)
H24 H 0.1172 1.0824 0.4393
C29 C 0.2632(5) 0.9398(4) 0.3595(4)
H25 H 0.2115 0.9670 0.3219
C30 C 0.3449(5) 0.8666(4) 0.3309(4)
H26 H 0.3487 0.8448 0.2734
C31 C 0.4953(5) 0.8150(4) 0.5318(4)
C32 C 0.3253(5) 0.9710(4) 0.5894(4)
C33 C 0.2546(5) 0.9764(4) 0.4469(4)
C34 C 0.4265(4) 0.8208(3) 0.3857(4)
C35 C 0.4179(4) 0.8576(3) 0.4735(3)
C36 C 0.3312(5) 0.9353(3) 0.5027(4)
C37 C 1.0016(5) 0.5189(4) 0.1171(4)
H27 H 1.0549 0.5193 0.0560
H28 H 0.9877 0.4530 0.1425
H29 H 1.0461 0.5550 0.1536
C38 C 0.9682(5) 0.7041(4) 0.0380(4)
H30 H 1.0504 0.6785 0.0402
C39 C 0.9617(5) 0.8003(4) -0.0084(3)
C40 C 1.0670(5) 0.8273(4) -0.0822(4)
H31 H 1.1393 0.7864 -0.0957
C41 C 1.0672(6) 0.9100(4) -0.1344(4)
H32 H 1.1388 0.9244 -0.1832
C42 C 0.9561(7) 1.0640(4) -0.1714(4)
H33 H 1.0225 1.0789 -0.2234
C43 C 0.8582(8) 1.1244(5) -0.1486(5)
H34 H 0.8565 1.1806 -0.1857
C44 C 0.6538(8) 1.1748(5) -0.0417(6)
H35 H 0.6529 1.2327 -0.0768
C45 C 0.5557(7) 1.1565(5) 0.0372(6)
H36 H 0.4910 1.2026 0.0552
C46 C 0.5537(6) 1.0706(5) 0.0888(5)
H37 H 0.4864 1.0574 0.1406
C47 C 0.6566(6) 0.9179(4) 0.1189(4)
H38 H 0.5911 0.9070 0.1721
C48 C 0.7540(5) 0.8493(4) 0.0977(4)
H39 H 0.7534 0.7938 0.1363
C49 C 0.9629(6) 0.9742(4) -0.1167(4)
C50 C 0.7543(7) 1.1075(5) -0.0694(5)
C51 C 0.6513(6) 1.0048(4) 0.0633(5)
C52 C 0.8564(5) 0.8640(4) 0.0161(4)
C53 C 0.8563(5) 0.9529(4) -0.0398(4)
C54 C 0.7518(6) 1.0215(4) -0.0159(4)
N1 N 0.7467(4) 0.4488(3) 0.2494(3)
N2 N 0.8111(4) 0.5068(3) 0.2980(3)
N3 N 0.6120(4) 0.5834(3) 0.1715(3)
N4 N 0.6043(4) 0.6300(3) 0.2507(3)
N5 N 0.8738(4) 0.5634(3) 0.1160(3)
N6 N 0.8629(4) 0.6542(3) 0.0756(3)
P1 P 0.73139(12) 0.50095(9) 0.15033(10)
S1 S 0.69165(13) 0.40856(10) 0.06997(10)
loop_
_geom_bond_atom_site_label_1
_geom_bond_atom_site_label_2
_geom_bond_site_symmetry_1
_geom_bond_site_symmetry_2
C1 H1 1_555 1_555
H2 C1 1_555 1_555
H3 C1 1_555 1_555
C2 H4 1_555 1_555
C3 C2 1_555 1_555
C4 C3 1_555 1_555
H5 C4 1_555 1_555
C5 C4 1_555 1_555
H6 C5 1_555 1_555
C6 H7 1_555 1_555
C7 C6 1_555 1_555
H8 C7 1_555 1_555
C8 H9 1_555 1_555
C9 C8 1_555 1_555
H10 C9 1_555 1_555
C10 C9 1_555 1_555
H11 C10 1_555 1_555
C11 H12 1_555 1_555
C12 C11 1_555 1_555
H13 C12 1_555 1_555
C13 C5 1_555 1_555
C14 C7 1_555 1_555
C15 C10 1_555 1_555
C16 C3 1_555 1_555
C17 C13 1_555 1_555
C18 C14 1_555 1_555
C19 H14 1_555 1_555
H15 C19 1_555 1_555
H16 C19 1_555 1_555
C20 H17 1_555 1_555
C21 C20 1_555 1_555
C22 C21 1_555 1_555
H18 C22 1_555 1_555
C23 C22 1_555 1_555
H19 C23 1_555 1_555
C24 H20 1_555 1_555
C25 C24 1_555 1_555
H21 C25 1_555 1_555
C26 H22 1_555 1_555
C27 C26 1_555 1_555
H23 C27 1_555 1_555
C28 C27 1_555 1_555
H24 C28 1_555 1_555
C29 H25 1_555 1_555
C30 C29 1_555 1_555
H26 C30 1_555 1_555
C31 C23 1_555 1_555
C32 C25 1_555 1_555
C33 C28 1_555 1_555
C34 C21 1_555 1_555
C35 C31 1_555 1_555
C36 C32 1_555 1_555
C37 H27 1_555 1_555
H28 C37 1_555 1_555
H29 C37 1_555 1_555
C38 H30 1_555 1_555
C39 C38 1_555 1_555
C40 C39 1_555 1_555
H31 C40 1_555 1_555
C41 C40 1_555 1_555
H32 C41 1_555 1_555
C42 H33 1_555 1_555
C43 C42 1_555 1_555
H34 C43 1_555 1_555
C44 H35 1_555 1_555
C45 C44 1_555 1_555
H36 C45 1_555 1_555
C46 C45 1_555 1_555
H37 C46 1_555 1_555
C47 H38 1_555 1_555
C48 C47 1_555 1_555
H39 C48 1_555 1_555
C49 C41 1_555 1_555
C50 C43 1_555 1_555
C51 C46 1_555 1_555
C52 C39 1_555 1_555
C53 C49 1_555 1_555
C54 C50 1_555 1_555
N1 C1 1_555 1_555
N2 C2 1_555 1_555
N3 C19 1_555 1_555
N4 C20 1_555 1_555
N5 C37 1_555 1_555
N6 C38 1_555 1_555
P1 N1 1_555 1_555
S1 P1 1_555 1_555
C6 C13 1_555 1_555
C8 C14 1_555 1_555
C11 C15 1_555 1_555
C12 C16 1_555 1_555
C15 C18 1_555 1_555
C16 C17 1_555 1_555
C17 C18 1_555 1_555
C24 C31 1_555 1_555
C26 C32 1_555 1_555
C29 C33 1_555 1_555
C30 C34 1_555 1_555
C33 C36 1_555 1_555
C34 C35 1_555 1_555
C35 C36 1_555 1_555
C42 C49 1_555 1_555
C44 C50 1_555 1_555
C47 C51 1_555 1_555
C48 C52 1_555 1_555
C51 C54 1_555 1_555
C52 C53 1_555 1_555
C53 C54 1_555 1_555
N1 N2 1_555 1_555
N3 N4 1_555 1_555
N3 P1 1_555 1_555
N5 N6 1_555 1_555
N5 P1 1_555 1_555

#END
