
#######################################################################
#
#                 Cambridge Crystallographic Data Centre
#                                CCDC 
#
#######################################################################
#
# If this CIF has been generated from an entry in the Cambridge 
# Structural Database, then it will include bibliographic, chemical, 
# crystal, experimental, refinement or atomic coordinate data resulting 
# from the CCDC's data processing and validation procedures.
#
#######################################################################

data_SUNSIE
_chemical_formula_moiety         'C42 H31 N4 O1 P1,C1 H4 O1'
_chemical_name_systematic        
"N,N'-Dimethyl-P-phenyl-N'',N'''-bis(1-pyrenylmethylene)phosphonic dihydrazide methanol solvate"
_symmetry_cell_setting           triclinic
_symmetry_space_group_name_H-M   'P -1'
_symmetry_Int_Tables_number      2
_space_group_name_Hall           '-P 1'
loop_
_symmetry_equiv_pos_site_id
_symmetry_equiv_pos_as_xyz
1 x,y,z
2 -x,-y,-z
_cell_length_a                   6.792
_cell_length_b                   15.720
_cell_length_c                   16.618
_cell_angle_alpha                75.52
_cell_angle_beta                 89.65
_cell_angle_gamma                78.57
_cell_volume                     1682.11
_exptl_crystal_colour            yellow
_cell_formula_units_Z            2
_exptl_crystal_recrystallization_method dichloromethane/methanol
_exptl_crystal_preparation       fluorescent
loop_
_atom_site_label
_atom_site_type_symbol
_atom_site_fract_x
_atom_site_fract_y
_atom_site_fract_z
C1 C 0.5392(5) 1.1011(2) 0.09437(18)
H1 H 0.4198 1.0775 0.1077
H2 H 0.6110 1.0737 0.0544
H3 H 0.5030 1.1648 0.0715
C2 C 0.4247(4) 1.16178(19) 0.23575(18)
H4 H 0.3348 1.1721 0.1907
C3 C 1.0352(4) 0.9033(2) 0.08473(18)
H5 H 1.0949 0.8423 0.1121
H6 H 1.1375 0.9385 0.0751
H7 H 0.9722 0.9054 0.0325
C4 C 0.7158(4) 0.8230(2) 0.14976(18)
H8 H 0.8013 0.8007 0.1126
C5 C 0.9609(4) 0.98335(19) 0.28790(18)
C6 C 1.1419(5) 0.9931(2) 0.31910(19)
H9 H 1.2263 1.0231 0.2835
C7 C 1.1983(5) 0.9584(2) 0.4030(2)
H10 H 1.3204 0.9645 0.4235
C8 C 1.0701(5) 0.9145(2) 0.4558(2)
H11 H 1.1064 0.8917 0.5121
C9 C 0.8912(5) 0.9044(2) 0.4261(2)
H12 H 0.8074 0.8743 0.4620
C10 C 0.8345(5) 0.9388(2) 0.34255(19)
H13 H 0.7120 0.9324 0.3226
C11 C 0.5556(4) 0.7775(2) 0.18628(18)
C12 C 0.4280(5) 0.8112(2) 0.24276(19)
H14 H 0.4495 0.8619 0.2579
C13 C 0.2747(5) 0.7725(2) 0.27596(18)
H15 H 0.1967 0.7959 0.3146
C14 C 0.0648(5) 0.6584(2) 0.28286(19)
H16 H -0.0205 0.6834 0.3187
C15 C 0.0264(4) 0.5860(2) 0.26061(18)
H17 H -0.0855 0.5629 0.2804
C16 C 0.1208(5) 0.4693(2) 0.18311(19)
H18 H 0.0082 0.4459 0.2014
C17 C 0.2515(5) 0.4289(2) 0.13248(18)
H19 H 0.2273 0.3783 0.1179
C18 C 0.4183(5) 0.4641(2) 0.10363(18)
H20 H 0.5059 0.4362 0.0704
C19 C 0.6226(5) 0.5810(2) 0.09249(18)
H21 H 0.7119 0.5543 0.0590
C20 C 0.6528(4) 0.6565(2) 0.11043(17)
H22 H 0.7597 0.6816 0.0874
C21 C 0.2308(4) 0.6975(2) 0.25330(18)
C22 C 0.1559(4) 0.54450(19) 0.20698(17)
C23 C 0.4574(4) 0.54079(19) 0.12346(17)
C24 C 0.5253(4) 0.69908(19) 0.16397(17)
C25 C 0.3629(4) 0.65958(19) 0.19832(17)
C26 C 0.3241(4) 0.58180(18) 0.17590(17)
C27 C 0.3643(4) 1.19716(19) 0.30800(17)
C28 C 0.5090(5) 1.1868(2) 0.37203(18)
H23 H 0.6362 1.1519 0.3708
C29 C 0.4655(5) 1.2273(2) 0.43628(18)
H24 H 0.5628 1.2186 0.4783
C30 C 0.2305(5) 1.3302(2) 0.50195(18)
H25 H 0.3282 1.3242 0.5431
C31 C 0.0511(5) 1.3837(2) 0.50278(18)
H26 H 0.0275 1.4149 0.5437
C32 C -0.2939(5) 1.4507(2) 0.44003(19)
H27 H -0.3190 1.4838 0.4795
C33 C -0.4428(5) 1.4582(2) 0.38034(18)
H28 H -0.5661 1.4967 0.3798
C34 C -0.4089(4) 1.4085(2) 0.32155(18)
H29 H -0.5116 1.4122 0.2833
C35 C -0.1776(4) 1.3014(2) 0.25896(18)
H30 H -0.2798 1.3026 0.2215
C36 C 0.0065(4) 1.25131(19) 0.25458(18)
H31 H 0.0286 1.2199 0.2137
C37 C 0.2762(4) 1.2817(2) 0.43914(17)
C38 C -0.1057(5) 1.39358(19) 0.44146(18)
C39 C -0.2206(4) 1.3526(2) 0.31933(18)
C40 C 0.1689(4) 1.24572(19) 0.31201(17)
C41 C 0.1264(4) 1.28976(18) 0.37740(17)
C42 C -0.0671(4) 1.34497(19) 0.37967(17)
N1 N 0.6666(4) 1.08190(16) 0.16951(15)
N2 N 0.6064(4) 1.11576(16) 0.23597(15)
N3 N 0.8845(4) 0.93945(16) 0.13729(15)
N4 N 0.7352(4) 0.89495(17) 0.17049(15)
O1 O 1.0533(3) 1.07177(13) 0.13457(12)
P1 P 0.90228(11) 1.02424(5) 0.17860(5)
C43 C 0.8876(5) 0.2963(3) 0.0256(2)
H32 H 0.8244 0.2958 0.0775
H33 H 0.8065 0.2758 -0.0096
H34 H 0.9017 0.3563 -0.0012
O2 O 1.0785(3) 0.23944(15) 0.04048(14)
H35 H 1.0688 0.1905 0.0705
loop_
_geom_bond_atom_site_label_1
_geom_bond_atom_site_label_2
_geom_bond_site_symmetry_1
_geom_bond_site_symmetry_2
C1 H1 1_555 1_555
H2 C1 1_555 1_555
H3 C1 1_555 1_555
C2 H4 1_555 1_555
C3 H5 1_555 1_555
H6 C3 1_555 1_555
H7 C3 1_555 1_555
C4 H8 1_555 1_555
C5 C6 1_555 1_555
C6 H9 1_555 1_555
C7 C6 1_555 1_555
H10 C7 1_555 1_555
C8 C7 1_555 1_555
H11 C8 1_555 1_555
C9 C8 1_555 1_555
H12 C9 1_555 1_555
C10 C5 1_555 1_555
H13 C10 1_555 1_555
C11 C4 1_555 1_555
C12 C11 1_555 1_555
H14 C12 1_555 1_555
C13 C12 1_555 1_555
H15 C13 1_555 1_555
C14 H16 1_555 1_555
C15 C14 1_555 1_555
H17 C15 1_555 1_555
C16 H18 1_555 1_555
C17 C16 1_555 1_555
H19 C17 1_555 1_555
C18 C17 1_555 1_555
H20 C18 1_555 1_555
C19 H21 1_555 1_555
C20 C19 1_555 1_555
H22 C20 1_555 1_555
C21 C13 1_555 1_555
C22 C15 1_555 1_555
C23 C18 1_555 1_555
C24 C11 1_555 1_555
C25 C21 1_555 1_555
C26 C22 1_555 1_555
C27 C2 1_555 1_555
C28 C27 1_555 1_555
H23 C28 1_555 1_555
C29 C28 1_555 1_555
H24 C29 1_555 1_555
C30 H25 1_555 1_555
C31 C30 1_555 1_555
H26 C31 1_555 1_555
C32 H27 1_555 1_555
C33 C32 1_555 1_555
H28 C33 1_555 1_555
C34 C33 1_555 1_555
H29 C34 1_555 1_555
C35 H30 1_555 1_555
C36 C35 1_555 1_555
H31 C36 1_555 1_555
C37 C29 1_555 1_555
C38 C31 1_555 1_555
C39 C34 1_555 1_555
C40 C27 1_555 1_555
C41 C37 1_555 1_555
C42 C38 1_555 1_555
C43 H32 1_555 1_555
H33 C43 1_555 1_555
H34 C43 1_555 1_555
N1 C1 1_555 1_555
N2 C2 1_555 1_555
N3 C3 1_555 1_555
N4 C4 1_555 1_555
O1 P1 1_555 1_555
O2 C43 1_555 1_555
H35 O2 1_555 1_555
P1 C5 1_555 1_555
C9 C10 1_555 1_555
C14 C21 1_555 1_555
C16 C22 1_555 1_555
C19 C23 1_555 1_555
C20 C24 1_555 1_555
C23 C26 1_555 1_555
C24 C25 1_555 1_555
C25 C26 1_555 1_555
C30 C37 1_555 1_555
C32 C38 1_555 1_555
C35 C39 1_555 1_555
C36 C40 1_555 1_555
C39 C42 1_555 1_555
C40 C41 1_555 1_555
C41 C42 1_555 1_555
N1 N2 1_555 1_555
N1 P1 1_555 1_555
N3 N4 1_555 1_555
N3 P1 1_555 1_555

#END
