
#######################################################################
#
#                 Cambridge Crystallographic Data Centre
#                                CCDC 
#
#######################################################################
#
# If this CIF has been generated from an entry in the Cambridge 
# Structural Database, then it will include bibliographic, chemical, 
# crystal, experimental, refinement or atomic coordinate data resulting 
# from the CCDC's data processing and validation procedures.
#
#######################################################################

data_SUNTIF
_chemical_formula_moiety         'C16 H10 Br1 N3'
_chemical_name_systematic        8-Bromodibenzo[c,f][1,8]naphthyridin-5-amine
_symmetry_cell_setting           orthorhombic
_symmetry_space_group_name_H-M   'P 21 21 21'
_symmetry_Int_Tables_number      19
_space_group_name_Hall           'P 2ac 2ab'
loop_
_symmetry_equiv_pos_site_id
_symmetry_equiv_pos_as_xyz
1 x,y,z
2 1/2+x,1/2-y,-z
3 -x,1/2+y,1/2-z
4 1/2-x,-y,1/2+z
_cell_length_a                   7.2131(2)
_cell_length_b                   11.9258(3)
_cell_length_c                   13.8878(3)
_cell_angle_alpha                90
_cell_angle_beta                 90
_cell_angle_gamma                90
_cell_volume                     1194.66
_exptl_crystal_colour            'pale yellow'
_exptl_crystal_description       'rectangular prism'
_cell_formula_units_Z            4
_exptl_crystal_preparation       fluorescent
loop_
_atom_site_label
_atom_site_type_symbol
_atom_site_fract_x
_atom_site_fract_y
_atom_site_fract_z
Br1 Br 0.70167(2) 0.148854(11) 0.017710(11)
N1 N 0.63274(16) -0.04570(9) -0.07815(9)
N2 N 0.58128(17) -0.19024(10) -0.18425(9)
N3 N 0.54003(18) -0.32618(11) -0.29920(9)
C1 C 0.65167(17) -0.00886(10) 0.00813(11)
C2 C 0.62994(18) -0.07138(11) 0.09527(10)
C3 C 0.6310(2) -0.02269(12) 0.18816(11)
C4 C 0.5850(2) -0.08635(12) 0.26686(11)
C5 C 0.5350(2) -0.19918(12) 0.25472(11)
C6 C 0.54231(19) -0.24929(11) 0.16585(11)
C7 C 0.59639(18) -0.18802(11) 0.08305(10)
C8 C 0.60748(17) -0.23429(10) -0.01261(10)
C9 C 0.60750(17) -0.15993(11) -0.09054(9)
C10 C 0.56990(19) -0.29739(11) -0.20456(10)
C11 C 0.60484(19) -0.38466(11) -0.13369(10)
C12 C 0.6335(2) -0.49678(11) -0.16180(12)
C13 C 0.6833(2) -0.57604(11) -0.09498(11)
C14 C 0.7069(2) -0.54551(11) 0.00113(10)
C15 C 0.67891(18) -0.43609(11) 0.03039(10)
C16 C 0.62411(17) -0.35246(11) -0.03633(9)
H1 H 0.516(3) -0.2774(17) -0.3284(15)
H2 H 0.489(2) -0.3910(14) -0.3137(13)
H3 H 0.668(3) 0.0540(17) 0.1978(14)
H4 H 0.584(2) -0.0502(14) 0.3260(12)
H5 H 0.498(3) -0.2366(14) 0.3034(15)
H6 H 0.499(2) -0.3238(13) 0.1615(12)
H7 H 0.624(3) -0.5215(18) -0.2231(17)
H8 H 0.712(3) -0.6498(15) -0.1190(14)
H9 H 0.751(3) -0.6001(17) 0.0425(15)
H10 H 0.708(2) -0.4215(12) 0.0926(12)
loop_
_geom_bond_atom_site_label_1
_geom_bond_atom_site_label_2
_geom_bond_site_symmetry_1
_geom_bond_site_symmetry_2
Br1 C1 1_555 1_555
N1 C1 1_555 1_555
N2 C9 1_555 1_555
N3 C10 1_555 1_555
C1 C2 1_555 1_555
C2 C3 1_555 1_555
C3 C4 1_555 1_555
C4 C5 1_555 1_555
C5 C6 1_555 1_555
C6 C7 1_555 1_555
C7 C2 1_555 1_555
C8 C7 1_555 1_555
C9 N1 1_555 1_555
C10 N2 1_555 1_555
C11 C10 1_555 1_555
C12 C11 1_555 1_555
C13 C12 1_555 1_555
C14 C13 1_555 1_555
C15 C14 1_555 1_555
C16 C8 1_555 1_555
H1 N3 1_555 1_555
H2 N3 1_555 1_555
H3 C3 1_555 1_555
H4 C4 1_555 1_555
H5 C5 1_555 1_555
H6 C6 1_555 1_555
H7 C12 1_555 1_555
H8 C13 1_555 1_555
H9 C14 1_555 1_555
H10 C15 1_555 1_555
C8 C9 1_555 1_555
C11 C16 1_555 1_555
C15 C16 1_555 1_555

#END
