
#######################################################################
#
#                 Cambridge Crystallographic Data Centre
#                                CCDC 
#
#######################################################################
#
# If this CIF has been generated from an entry in the Cambridge 
# Structural Database, then it will include bibliographic, chemical, 
# crystal, experimental, refinement or atomic coordinate data resulting 
# from the CCDC's data processing and validation procedures.
#
#######################################################################

data_SUNTEB
_chemical_formula_moiety         'C16 H11 N3'
_chemical_name_systematic        Dibenzo[c,f][1,8]naphthyridin-5-amine
_symmetry_cell_setting           orthorhombic
_symmetry_space_group_name_H-M   'P b c a'
_symmetry_Int_Tables_number      61
_space_group_name_Hall           '-P 2ac 2ab'
loop_
_symmetry_equiv_pos_site_id
_symmetry_equiv_pos_as_xyz
1 x,y,z
2 1/2+x,1/2-y,-z
3 -x,1/2+y,1/2-z
4 1/2-x,-y,1/2+z
5 -x,-y,-z
6 1/2-x,1/2+y,z
7 x,1/2-y,1/2+z
8 1/2+x,y,1/2-z
_cell_length_a                   13.4315(3)
_cell_length_b                   7.1882(2)
_cell_length_c                   27.0441(6)
_cell_angle_alpha                90
_cell_angle_beta                 90
_cell_angle_gamma                90
_cell_volume                     2611.06
_exptl_crystal_colour            'pale yellow'
_exptl_crystal_description       plate
_cell_formula_units_Z            8
_exptl_crystal_preparation       fluorescent
loop_
_atom_site_label
_atom_site_type_symbol
_atom_site_fract_x
_atom_site_fract_y
_atom_site_fract_z
N1 N 0.61449(17) -0.1304(2) 0.50232(7)
N2 N 0.54749(12) -0.0005(2) 0.57132(6)
N3 N 0.47075(12) 0.1391(2) 0.63763(6)
C1 C 0.62719(15) -0.0624(2) 0.54833(7)
C2 C 0.72635(14) -0.0484(2) 0.56935(7)
C3 C 0.81238(16) -0.0810(3) 0.54102(8)
C4 C 0.90479(17) -0.0471(3) 0.55972(8)
C5 C 0.91414(17) 0.0256(3) 0.60715(8)
C6 C 0.83195(14) 0.0549(3) 0.63596(8)
C7 C 0.73544(14) 0.0143(2) 0.61855(7)
C8 C 0.64576(13) 0.0540(2) 0.64605(7)
C9 C 0.64099(13) 0.0922(2) 0.69823(7)
C10 C 0.71405(15) 0.0438(3) 0.73361(7)
C11 C 0.70277(17) 0.0899(3) 0.78257(8)
C12 C 0.61874(17) 0.1869(3) 0.79922(8)
C13 C 0.54415(17) 0.2246(3) 0.76678(8)
C14 C 0.55268(14) 0.1749(2) 0.71639(7)
C15 C 0.47192(15) 0.1984(2) 0.68322(8)
C16 C 0.55700(14) 0.0628(2) 0.61883(7)
H1 H 0.553(2) -0.112(4) 0.4843(10)
H2 H 0.668(2) -0.193(4) 0.4844(10)
H3 H 0.8054(13) -0.123(3) 0.5096(7)
H4 H 0.9643(15) -0.070(3) 0.5393(7)
H5 H 0.9773(16) 0.059(3) 0.6195(7)
H6 H 0.8406(12) 0.110(2) 0.6677(6)
H7 H 0.7707(14) -0.027(2) 0.7234(6)
H8 H 0.7555(16) 0.052(3) 0.8070(8)
H9 H 0.6131(14) 0.223(3) 0.8345(7)
H10 H 0.4812(14) 0.279(3) 0.7764(7)
H11 H 0.4059(11) 0.264(2) 0.6975(5)
loop_
_geom_bond_atom_site_label_1
_geom_bond_atom_site_label_2
_geom_bond_site_symmetry_1
_geom_bond_site_symmetry_2
N1 C1 1_555 1_555
N2 C1 1_555 1_555
N3 C15 1_555 1_555
C1 C2 1_555 1_555
C2 C3 1_555 1_555
C3 C4 1_555 1_555
C4 C5 1_555 1_555
C5 C6 1_555 1_555
C6 C7 1_555 1_555
C7 C2 1_555 1_555
C8 C7 1_555 1_555
C9 C8 1_555 1_555
C10 C9 1_555 1_555
C11 C10 1_555 1_555
C12 C11 1_555 1_555
C13 C12 1_555 1_555
C14 C9 1_555 1_555
C15 C14 1_555 1_555
C16 N2 1_555 1_555
H1 N1 1_555 1_555
H2 N1 1_555 1_555
H3 C3 1_555 1_555
H4 C4 1_555 1_555
H5 C5 1_555 1_555
H6 C6 1_555 1_555
H7 C10 1_555 1_555
H8 C11 1_555 1_555
H9 C12 1_555 1_555
H10 C13 1_555 1_555
H11 C15 1_555 1_555
N3 C16 1_555 1_555
C8 C16 1_555 1_555
C13 C14 1_555 1_555

#END
