
#######################################################################
#
#                 Cambridge Crystallographic Data Centre
#                                CCDC 
#
#######################################################################
#
# If this CIF has been generated from an entry in the Cambridge 
# Structural Database, then it will include bibliographic, chemical, 
# crystal, experimental, refinement or atomic coordinate data resulting 
# from the CCDC's data processing and validation procedures.
#
#######################################################################

data_SUNTAX
_chemical_name_common            4-Phenyl-3-isoquinolinamine
_chemical_formula_moiety         'C15 H12 N2'
_chemical_name_systematic        4-Phenylisoquinolin-3-amine
_symmetry_cell_setting           monoclinic
_symmetry_space_group_name_H-M   'P 21/c'
_symmetry_Int_Tables_number      14
_space_group_name_Hall           '-P 2ybc'
loop_
_symmetry_equiv_pos_site_id
_symmetry_equiv_pos_as_xyz
1 x,y,z
2 -x,1/2+y,1/2-z
3 -x,-y,-z
4 x,1/2-y,1/2+z
_cell_length_a                   10.8420(3)
_cell_length_b                   7.3234(2)
_cell_length_c                   14.1915(4)
_cell_angle_alpha                90
_cell_angle_beta                 91.4627(15)
_cell_angle_gamma                90
_cell_volume                     1126.44
_exptl_crystal_colour            'pale yellow'
_exptl_crystal_description       prism
_cell_formula_units_Z            4
_exptl_crystal_preparation       fluorescent
loop_
_atom_site_label
_atom_site_type_symbol
_atom_site_fract_x
_atom_site_fract_y
_atom_site_fract_z
N1 N 0.83362(8) 0.23994(10) 0.30536(5)
N2 N 0.95925(8) 0.00670(12) 0.25771(6)
C1 C 0.85411(9) 0.10632(12) 0.24057(7)
C2 C 0.77492(9) 0.07097(12) 0.16377(6)
C3 C 0.66846(9) 0.18116(12) 0.15181(6)
C4 C 0.58303(9) 0.16432(13) 0.07445(7)
C5 C 0.48182(10) 0.27607(14) 0.06781(8)
C6 C 0.45876(10) 0.40922(15) 0.13690(8)
C7 C 0.53910(10) 0.42970(14) 0.21175(8)
C8 C 0.64505(9) 0.31678(12) 0.22042(7)
C9 C 0.73202(9) 0.33759(13) 0.29509(7)
C10 C 0.80177(9) -0.08269(13) 0.09880(7)
C11 C 0.84635(9) -0.05266(13) 0.00885(7)
C12 C 0.87196(10) -0.19908(14) -0.04992(7)
C13 C 0.85352(9) -0.37656(14) -0.01981(7)
C14 C 0.80872(10) -0.40777(13) 0.06936(7)
C15 C 0.78281(10) -0.26227(13) 0.12823(7)
H1 H 0.9879(12) -0.0717(17) 0.2152(9)
H2 H 1.0138(13) 0.0521(18) 0.3029(10)
H3 H 0.6000(10) 0.0734(16) 0.0246(8)
H4 H 0.4234(13) 0.2645(17) 0.0133(10)
H5 H 0.3876(13) 0.4863(18) 0.1298(9)
H6 H 0.5266(11) 0.5223(16) 0.2614(8)
H7 H 0.7167(11) 0.4310(16) 0.3439(8)
H8 H 0.8614(10) 0.0762(16) -0.0114(8)
H9 H 0.9052(11) -0.1779(16) -0.1121(9)
H10 H 0.8710(11) -0.4772(15) -0.0605(8)
H11 H 0.7931(11) -0.5325(17) 0.0891(8)
H12 H 0.7497(10) -0.2814(14) 0.1923(8)
loop_
_geom_bond_atom_site_label_1
_geom_bond_atom_site_label_2
_geom_bond_site_symmetry_1
_geom_bond_site_symmetry_2
N1 C1 1_555 1_555
N2 C1 1_555 1_555
C1 C2 1_555 1_555
C2 C3 1_555 1_555
C3 C4 1_555 1_555
C4 C5 1_555 1_555
C5 C6 1_555 1_555
C6 C7 1_555 1_555
C7 C8 1_555 1_555
C8 C3 1_555 1_555
C9 N1 1_555 1_555
C10 C2 1_555 1_555
C11 C10 1_555 1_555
C12 C11 1_555 1_555
C13 C12 1_555 1_555
C14 C13 1_555 1_555
C15 C10 1_555 1_555
H1 N2 1_555 1_555
H2 N2 1_555 1_555
H3 C4 1_555 1_555
H4 C5 1_555 1_555
H5 C6 1_555 1_555
H6 C7 1_555 1_555
H7 C9 1_555 1_555
H8 C11 1_555 1_555
H9 C12 1_555 1_555
H10 C13 1_555 1_555
H11 C14 1_555 1_555
H12 C15 1_555 1_555
C8 C9 1_555 1_555
C14 C15 1_555 1_555

#END
