
#######################################################################
#
#                 Cambridge Crystallographic Data Centre
#                                CCDC 
#
#######################################################################
#
# If this CIF has been generated from an entry in the Cambridge 
# Structural Database, then it will include bibliographic, chemical, 
# crystal, experimental, refinement or atomic coordinate data resulting 
# from the CCDC's data processing and validation procedures.
#
#######################################################################

data_SUNXII
_chemical_formula_moiety         'C20 H17 N1'
_chemical_name_systematic        5,6,8,9-Tetrahydro-7H-dibenzo(c,g)carbazole
_symmetry_cell_setting           triclinic
_symmetry_space_group_name_H-M   'P -1'
_symmetry_Int_Tables_number      2
_space_group_name_Hall           '-P 1'
loop_
_symmetry_equiv_pos_site_id
_symmetry_equiv_pos_as_xyz
1 x,y,z
2 -x,-y,-z
_cell_length_a                   7.7819(13)
_cell_length_b                   8.2870(16)
_cell_length_c                   11.2224(19)
_cell_angle_alpha                71.448(16)
_cell_angle_beta                 87.738(14)
_cell_angle_gamma                87.362(15)
_cell_volume                     685.147
_chemical_melting_point          248-250deg.C
_cell_formula_units_Z            2
loop_
_atom_site_label
_atom_site_type_symbol
_atom_site_fract_x
_atom_site_fract_y
_atom_site_fract_z
N1 N 0.76469(13) 0.05603(12) 0.14366(10)
C1 C 0.73796(14) -0.21384(14) 0.15159(11)
C2 C 0.74522(15) -0.10682(14) 0.22305(12)
C3 C 0.72110(16) -0.15920(15) 0.36198(12)
C4 C 0.78135(16) -0.34670(16) 0.41456(12)
C5 C 0.70141(15) -0.45415(15) 0.34632(12)
C6 C 0.64109(16) -0.61527(15) 0.41139(12)
C7 C 0.56408(16) -0.71144(15) 0.34867(13)
C8 C 0.54436(15) -0.64678(14) 0.21987(12)
C9 C 0.60509(15) -0.48668(14) 0.15335(12)
C10 C 0.68507(14) -0.38958(13) 0.21505(11)
C11 C 0.75901(14) -0.11085(13) 0.02232(11)
C12 C 0.77220(14) 0.05433(14) 0.02236(12)
C13 C 0.80032(15) 0.20385(14) -0.09184(12)
C14 C 0.73139(16) 0.16136(15) -0.20426(12)
C15 C 0.79697(14) -0.01177(15) -0.20783(12)
C16 C 0.85259(16) -0.03851(15) -0.31951(12)
C17 C 0.91806(16) -0.19759(16) -0.32116(12)
C18 C 0.92611(15) -0.33143(15) -0.20953(12)
C19 C 0.86945(15) -0.30724(14) -0.09723(12)
C20 C 0.80316(14) -0.14861(14) -0.09444(11)
H1 H 0.7808(20) 0.1472(19) 0.1657(16)
H2 H 0.5966(18) -0.1441(18) 0.3857(14)
H3 H 0.7863(18) -0.0868(17) 0.3995(14)
H4 H 0.7567(17) -0.3914(17) 0.5073(14)
H5 H 0.9136(20) -0.3551(19) 0.3998(15)
H6 H 0.6512(19) -0.6567(17) 0.5075(15)
H7 H 0.5158(19) -0.8263(19) 0.3976(15)
H8 H 0.4859(17) -0.7122(16) 0.1736(14)
H9 H 0.5909(18) -0.4408(17) 0.0611(14)
H10 H 0.7381(18) 0.3088(18) -0.0820(15)
H11 H 0.9244(17) 0.2297(17) -0.1071(14)
H12 H 0.5992(19) 0.1619(18) -0.1969(15)
H13 H 0.7585(17) 0.2528(17) -0.2839(14)
H14 H 0.8479(19) 0.0555(18) -0.3989(15)
H15 H 0.9556(18) -0.2114(18) -0.4021(15)
H16 H 0.9727(21) -0.4421(19) -0.2102(16)
H17 H 0.8804(18) -0.4039(17) -0.0179(14)
loop_
_geom_bond_atom_site_label_1
_geom_bond_atom_site_label_2
_geom_bond_site_symmetry_1
_geom_bond_site_symmetry_2
N1 C2 1_555 1_555
C1 C2 1_555 1_555
C2 C3 1_555 1_555
C3 C4 1_555 1_555
C4 C5 1_555 1_555
C5 C6 1_555 1_555
C6 C7 1_555 1_555
C7 C8 1_555 1_555
C8 C9 1_555 1_555
C9 C10 1_555 1_555
C10 C1 1_555 1_555
C11 C1 1_555 1_555
C12 N1 1_555 1_555
C13 C12 1_555 1_555
C14 C13 1_555 1_555
C15 C14 1_555 1_555
C16 C15 1_555 1_555
C17 C16 1_555 1_555
C18 C17 1_555 1_555
C19 C18 1_555 1_555
C20 C11 1_555 1_555
H1 N1 1_555 1_555
H2 C3 1_555 1_555
H3 C3 1_555 1_555
H4 C4 1_555 1_555
H5 C4 1_555 1_555
H6 C6 1_555 1_555
H7 C7 1_555 1_555
H8 C8 1_555 1_555
H9 C9 1_555 1_555
H10 C13 1_555 1_555
H11 C13 1_555 1_555
H12 C14 1_555 1_555
H13 C14 1_555 1_555
H14 C16 1_555 1_555
H15 C17 1_555 1_555
H16 C18 1_555 1_555
H17 C19 1_555 1_555
C5 C10 1_555 1_555
C11 C12 1_555 1_555
C15 C20 1_555 1_555
C19 C20 1_555 1_555

#END
