
#######################################################################
#
#                 Cambridge Crystallographic Data Centre
#                                CCDC 
#
#######################################################################
#
# If this CIF has been generated from an entry in the Cambridge 
# Structural Database, then it will include bibliographic, chemical, 
# crystal, experimental, refinement or atomic coordinate data resulting 
# from the CCDC's data processing and validation procedures.
#
#######################################################################

data_SUPJIY
_chemical_formula_moiety         'C21 H37 B1 Li1 N1 O2 Si1'
_chemical_name_systematic        
bis(tetrahydrofuran)-(1-[t-butyl(dimethyl)silyl]-4a,7-dihydroborolo[1,2-b][1,2]azaborinin-1-ium)-lithium
_symmetry_cell_setting           monoclinic
_symmetry_space_group_name_H-M   'P 21/c'
_symmetry_Int_Tables_number      14
_space_group_name_Hall           '-P 2ybc'
loop_
_symmetry_equiv_pos_site_id
_symmetry_equiv_pos_as_xyz
1 x,y,z
2 -x,1/2+y,1/2-z
3 -x,-y,-z
4 x,1/2-y,1/2+z
_cell_length_a                   7.6489(4)
_cell_length_b                   17.3794(8)
_cell_length_c                   17.2195(8)
_cell_angle_alpha                90
_cell_angle_beta                 96.646(2)
_cell_angle_gamma                90
_cell_volume                     2273.66
_exptl_crystal_colour            orange
_exptl_crystal_description       plate
_cell_formula_units_Z            4
loop_
_atom_site_label
_atom_site_type_symbol
_atom_site_fract_x
_atom_site_fract_y
_atom_site_fract_z
Si1 Si 0.46496(7) 0.60641(3) 0.83690(3)
Li1 Li 0.2780(5) 0.6500(2) 0.5673(2)
N1 N 0.4771(2) 0.67510(9) 0.76153(9)
O1 O 0.1030(2) 0.70690(9) 0.61667(8)
O2 O 0.1343(2) 0.61531(10) 0.47350(9)
B1 B 0.5031(3) 0.65476(14) 0.68129(13)
C1 C 0.5104(3) 0.58201(13) 0.63363(12)
H1 H 0.506(3) 0.5288(10) 0.6445(13)
C2 C 0.5525(3) 0.60695(14) 0.55946(13)
H2 H 0.565(3) 0.5719(13) 0.5166(12)
C3 C 0.5598(3) 0.68660(15) 0.55072(12)
H3 H 0.588(3) 0.7138(13) 0.5048(11)
C4 C 0.5324(3) 0.72200(13) 0.62345(12)
C5 C 0.5282(3) 0.79647(13) 0.64971(13)
H4 H 0.5427 0.8382 0.6154
C6 C 0.5020(3) 0.81019(13) 0.72862(13)
H5 H 0.5009 0.8619 0.7465
C7 C 0.4784(3) 0.75222(12) 0.78022(12)
H6 H 0.4617 0.7660 0.8322
C8 C 0.3382(3) 0.52038(12) 0.79793(12)
H7 H 0.2231 0.5367 0.7723
H8 H 0.3217 0.4853 0.8410
H9 H 0.4032 0.4939 0.7600
C9 C 0.3416(3) 0.64980(13) 0.91369(12)
H10 H 0.4159 0.6882 0.9433
H11 H 0.3099 0.6094 0.9492
H12 H 0.2344 0.6746 0.8888
C10 C 0.6972(3) 0.57914(14) 0.87838(11)
C11 C 0.7908(3) 0.53690(15) 0.81699(13)
H13 H 0.7935 0.5699 0.7710
H14 H 0.7273 0.4893 0.8018
H15 H 0.9115 0.5245 0.8390
C12 C 0.6928(3) 0.52605(19) 0.94932(15)
H16 H 0.8133 0.5117 0.9698
H17 H 0.6253 0.4796 0.9335
H18 H 0.6371 0.5530 0.9900
C13 C 0.8014(3) 0.65212(16) 0.90333(15)
H19 H 0.7420 0.6800 0.9423
H20 H 0.8083 0.6851 0.8576
H21 H 0.9204 0.6380 0.9261
C14 C 0.0048(3) 0.68447(14) 0.67921(13)
H22 H 0.0690 0.6446 0.7122
H23 H -0.1118 0.6639 0.6583
C15 C -0.0153(3) 0.75691(16) 0.72600(15)
H24 H -0.1343 0.7599 0.7432
H25 H 0.0735 0.7588 0.7726
C16 C 0.0130(4) 0.82134(17) 0.6703(2)
H26 H -0.0930 0.8543 0.6614
H27 H 0.1144 0.8536 0.6913
C17 C 0.0482(4) 0.78327(17) 0.59653(16)
H28 H -0.0596 0.7826 0.5587
H29 H 0.1417 0.8110 0.5727
C18 C -0.0468(4) 0.6352(4) 0.4534(3)
H30 H -0.0578 0.6889 0.4343
H31 H -0.1123 0.6301 0.4995
C19 C -0.1158(17) 0.5813(7) 0.3916(7)
H32 H -0.1975 0.6079 0.3516
H33 H -0.1796 0.5385 0.4139
C20 C 0.0414(7) 0.5514(4) 0.3563(3)
H34 H 0.0521 0.4949 0.3628
H35 H 0.0332 0.5640 0.3000
C21 C 0.1945(7) 0.5918(4) 0.4011(3)
H36 H 0.2966 0.5567 0.4109
H37 H 0.2298 0.6371 0.3716
C22? C -0.0559(15) 0.5961(10) 0.4720(7)
H38? H -0.1193 0.6387 0.4948
H39? H -0.0707 0.5488 0.5025
C23? C -0.128(4) 0.5839(12) 0.3859(17)
H40? H -0.1346 0.6318 0.3545
H41? H -0.2418 0.5561 0.3788
C24? C 0.037(2) 0.5313(9) 0.3738(10)
H42? H 0.0254 0.4800 0.3976
H43? H 0.0474 0.5245 0.3174
C25? C 0.184(3) 0.5701(11) 0.4107(12)
H44? H 0.2339 0.6037 0.3725
H45? H 0.2748 0.5324 0.4308
loop_
_geom_bond_atom_site_label_1
_geom_bond_atom_site_label_2
_geom_bond_site_symmetry_1
_geom_bond_site_symmetry_2
Si1 N1 1_555 1_555
Li1 O1 1_555 1_555
N1 B1 1_555 1_555
O1 C14 1_555 1_555
O2 Li1 1_555 1_555
B1 Li1 1_555 1_555
C1 Li1 1_555 1_555
H1 C1 1_555 1_555
C2 Li1 1_555 1_555
H2 C2 1_555 1_555
C3 Li1 1_555 1_555
H3 C3 1_555 1_555
C4 Li1 1_555 1_555
C5 C4 1_555 1_555
H4 C5 1_555 1_555
C6 C5 1_555 1_555
H5 C6 1_555 1_555
C7 N1 1_555 1_555
H6 C7 1_555 1_555
C8 Si1 1_555 1_555
H7 C8 1_555 1_555
H8 C8 1_555 1_555
H9 C8 1_555 1_555
C9 Si1 1_555 1_555
H10 C9 1_555 1_555
H11 C9 1_555 1_555
H12 C9 1_555 1_555
C10 Si1 1_555 1_555
C11 C10 1_555 1_555
H13 C11 1_555 1_555
H14 C11 1_555 1_555
H15 C11 1_555 1_555
C12 C10 1_555 1_555
H16 C12 1_555 1_555
H17 C12 1_555 1_555
H18 C12 1_555 1_555
C13 C10 1_555 1_555
H19 C13 1_555 1_555
H20 C13 1_555 1_555
H21 C13 1_555 1_555
C14 H22 1_555 1_555
H23 C14 1_555 1_555
C15 C14 1_555 1_555
H24 C15 1_555 1_555
H25 C15 1_555 1_555
C16 C15 1_555 1_555
H26 C16 1_555 1_555
H27 C16 1_555 1_555
C17 O1 1_555 1_555
H28 C17 1_555 1_555
H29 C17 1_555 1_555
C18 O2 1_555 1_555
H30 C18 1_555 1_555
H31 C18 1_555 1_555
C19 C18 1_555 1_555
H32 C19 1_555 1_555
H33 C19 1_555 1_555
C20 C19 1_555 1_555
H34 C20 1_555 1_555
H35 C20 1_555 1_555
C21 O2 1_555 1_555
H36 C21 1_555 1_555
H37 C21 1_555 1_555
B1 C1 1_555 1_555
B1 C4 1_555 1_555
C1 C2 1_555 1_555
C2 C3 1_555 1_555
C3 C4 1_555 1_555
C6 C7 1_555 1_555
C16 C17 1_555 1_555
C20 C21 1_555 1_555

#END
