
#######################################################################
#
#                 Cambridge Crystallographic Data Centre
#                                CCDC 
#
#######################################################################
#
# If this CIF has been generated from an entry in the Cambridge 
# Structural Database, then it will include bibliographic, chemical, 
# crystal, experimental, refinement or atomic coordinate data resulting 
# from the CCDC's data processing and validation procedures.
#
#######################################################################

data_SUPJES
_chemical_formula_moiety         'C16 H15 N1 O3'
_chemical_name_systematic        
10-Acetyl-4b,6,7,8,9a,10-hexahydro-9-oxa-10-azaindeno(1,2-a)inden-5-one
_symmetry_cell_setting           monoclinic
_symmetry_space_group_name_H-M   'P 21/c'
_symmetry_Int_Tables_number      14
_space_group_name_Hall           '-P 2ybc'
loop_
_symmetry_equiv_pos_site_id
_symmetry_equiv_pos_as_xyz
1 x,y,z
2 -x,1/2+y,1/2-z
3 -x,-y,-z
4 x,1/2-y,1/2+z
_cell_length_a                   10.0635(20)
_cell_length_b                   13.851(3)
_cell_length_c                   9.9732(21)
_cell_angle_alpha                90
_cell_angle_beta                 110.096
_cell_angle_gamma                90
_cell_volume                     1305.52
_chemical_melting_point          146-148deg.C
_cell_formula_units_Z            4
loop_
_atom_site_label
_atom_site_type_symbol
_atom_site_fract_x
_atom_site_fract_y
_atom_site_fract_z
C1 C 0.65741(25) 0.55589(18) 0.11626(27)
C2 C 0.61650(28) 0.65193(20) 0.09515(31)
C3 C 0.55273(32) 0.69076(24) 0.18568(40)
C4 C 0.53035(30) 0.63766(26) 0.29112(38)
C5 C 0.57325(27) 0.54084(24) 0.31218(31)
C6 C 0.63678(23) 0.50115(19) 0.22228(26)
C7 C 0.69361(25) 0.40006(17) 0.22131(27)
C8 C 0.82073(26) 0.37438(18) 0.34878(27)
C9 C 0.82768(32) 0.35227(19) 0.49204(29)
O1 O 0.72185(22) 0.34467(17) 0.52641(21)
C10 C 0.97487(34) 0.34187(24) 0.59934(33)
C11 C 1.08030(36) 0.30229(30) 0.53694(39)
C12 C 1.08417(27) 0.35711(22) 0.40703(33)
C13 C 0.93564(26) 0.37608(18) 0.31215(28)
O2 O 0.91179(16) 0.39629(13) 0.17282(19)
C14 C 0.75819(25) 0.40508(17) 0.10209(27)
N1 N 0.72402(20) 0.49942(15) 0.03751(21)
C15 C 0.74796(30) 0.52627(23) -0.08433(30)
O3 O 0.71298(26) 0.60536(17) -0.13750(25)
C16 C 0.82004(36) 0.45452(27) -0.14968(34)
H1 H 0.63216 0.68946 0.02103
H2 H 0.52347 0.75712 0.17370
H3 H 0.48509 0.66705 0.35133
H4 H 0.55866 0.50286 0.38645
H5 H 0.62054 0.35213 0.20223
H6 H 0.97017 0.29957 0.67384
H7 H 1.00736 0.40433 0.63878
H8 H 1.17281 0.30420 0.60868
H9 H 1.05494 0.23652 0.50955
H10 H 1.13207 0.31962 0.35659
H11 H 1.13274 0.41735 0.43610
H12 H 0.72147 0.35445 0.03359
H13 H 0.77116 0.39388 -0.16145
H14 H 0.91625 0.44609 -0.08776
H15 H 0.81863 0.47744 -0.24100
loop_
_geom_bond_atom_site_label_1
_geom_bond_atom_site_label_2
_geom_bond_site_symmetry_1
_geom_bond_site_symmetry_2
C1 C2 1_555 1_555
C2 C3 1_555 1_555
C3 C4 1_555 1_555
C4 C5 1_555 1_555
C5 C6 1_555 1_555
C6 C1 1_555 1_555
C7 C6 1_555 1_555
C8 C7 1_555 1_555
C9 C8 1_555 1_555
O1 C9 1_555 1_555
C10 C9 1_555 1_555
C11 C10 1_555 1_555
C12 C11 1_555 1_555
C13 C8 1_555 1_555
O2 C13 1_555 1_555
C14 C7 1_555 1_555
N1 C1 1_555 1_555
C15 N1 1_555 1_555
O3 C15 1_555 1_555
C16 C15 1_555 1_555
H1 C2 1_555 1_555
H2 C3 1_555 1_555
H3 C4 1_555 1_555
H4 C5 1_555 1_555
H5 C7 1_555 1_555
H6 C10 1_555 1_555
H7 C10 1_555 1_555
H8 C11 1_555 1_555
H9 C11 1_555 1_555
H10 C12 1_555 1_555
H11 C12 1_555 1_555
H12 C14 1_555 1_555
H13 C16 1_555 1_555
H14 C16 1_555 1_555
H15 C16 1_555 1_555
C12 C13 1_555 1_555
O2 C14 1_555 1_555
C14 N1 1_555 1_555

#END
