
#######################################################################
#
#                 Cambridge Crystallographic Data Centre
#                                CCDC 
#
#######################################################################
#
# If this CIF has been generated from an entry in the Cambridge 
# Structural Database, then it will include bibliographic, chemical, 
# crystal, experimental, refinement or atomic coordinate data resulting 
# from the CCDC's data processing and validation procedures.
#
#######################################################################

data_SUPJEU
_chemical_formula_moiety         'C19 H21 N1 O1'
_chemical_name_systematic        N-t-butyl-2,3-diphenylacrylamide
_symmetry_cell_setting           monoclinic
_symmetry_space_group_name_H-M   'C c'
_symmetry_Int_Tables_number      9
_space_group_name_Hall           'C -2yc'
loop_
_symmetry_equiv_pos_site_id
_symmetry_equiv_pos_as_xyz
1 x,y,z
2 x,-y,1/2+z
3 1/2+x,1/2+y,z
4 1/2+x,1/2-y,1/2+z
_cell_length_a                   5.827(3)
_cell_length_b                   18.141(6)
_cell_length_c                   14.817(6)
_cell_angle_alpha                90
_cell_angle_beta                 98.777(9)
_cell_angle_gamma                90
_cell_volume                     1547.93
_exptl_crystal_colour            colorless
_exptl_crystal_description       Prism
_cell_formula_units_Z            4
loop_
_atom_site_label
_atom_site_type_symbol
_atom_site_fract_x
_atom_site_fract_y
_atom_site_fract_z
C1 C 0.5392(4) 0.25806(10) 0.14334(15)
C2 C 0.6666(4) 0.25128(10) 0.07519(16)
H1 H 0.6583 0.2923 0.0350
C3 C 0.8162(4) 0.19101(11) 0.05277(15)
C4 C 0.7859(4) 0.11631(10) 0.07366(16)
H2 H 0.6638 0.1022 0.1059
C5 C 0.9345(4) 0.06281(11) 0.04723(16)
H3 H 0.9109 0.0124 0.0604
C6 C 1.1168(4) 0.08287(12) 0.00183(17)
H4 H 1.2205 0.0464 -0.0141
C7 C 1.1475(4) 0.15666(12) -0.02032(17)
H5 H 1.2715 0.1705 -0.0516
C8 C 0.9957(4) 0.20981(11) 0.00372(16)
H6 H 1.0137 0.2597 -0.0134
C9 C 0.5381(4) 0.20520(10) 0.22033(15)
C10 C 0.3381(4) 0.16478(11) 0.23073(17)
H7 H 0.2024 0.1691 0.1865
C11 C 0.3381(4) 0.11828(12) 0.30594(18)
H8 H 0.2034 0.0903 0.3118
C12 C 0.5334(5) 0.11269(12) 0.37214(18)
H9 H 0.5307 0.0821 0.4240
C13 C 0.7336(4) 0.15216(12) 0.36232(16)
H10 H 0.8683 0.1481 0.4071
C14 C 0.7351(4) 0.19764(11) 0.28659(16)
H11 H 0.8725 0.2240 0.2798
C15 C 0.4046(4) 0.32991(10) 0.14283(15)
C16 C 0.1730(4) 0.40989(11) 0.23407(16)
C17 C 0.0475(4) 0.39401(12) 0.31533(18)
H12 H -0.0783 0.3587 0.2971
H13 H -0.0174 0.4399 0.3355
H14 H 0.1576 0.3733 0.3655
C18 C -0.0045(4) 0.43572(12) 0.15292(18)
H15 H 0.0752 0.4460 0.1006
H16 H -0.0813 0.4806 0.1698
H17 H -0.1208 0.3970 0.1365
C19 C 0.3620(4) 0.46829(11) 0.26044(17)
H18 H 0.4612 0.4534 0.3169
H19 H 0.2891 0.5158 0.2699
H20 H 0.4563 0.4730 0.2114
N1 N 0.2851(3) 0.33981(9) 0.21323(14)
H21 H 0.3050 0.3130 0.2615
O1 O 0.4087(3) 0.37602(8) 0.08168(12)
loop_
_geom_bond_atom_site_label_1
_geom_bond_atom_site_label_2
_geom_bond_site_symmetry_1
_geom_bond_site_symmetry_2
C1 C2 1_555 1_555
C2 H1 1_555 1_555
C3 C2 1_555 1_555
C4 C3 1_555 1_555
H2 C4 1_555 1_555
C5 C4 1_555 1_555
H3 C5 1_555 1_555
C6 C5 1_555 1_555
H4 C6 1_555 1_555
C7 C6 1_555 1_555
H5 C7 1_555 1_555
C8 C3 1_555 1_555
H6 C8 1_555 1_555
C9 C1 1_555 1_555
C10 C9 1_555 1_555
H7 C10 1_555 1_555
C11 C10 1_555 1_555
H8 C11 1_555 1_555
C12 C11 1_555 1_555
H9 C12 1_555 1_555
C13 C12 1_555 1_555
H10 C13 1_555 1_555
C14 C9 1_555 1_555
H11 C14 1_555 1_555
C15 C1 1_555 1_555
C16 C17 1_555 1_555
C17 H12 1_555 1_555
H13 C17 1_555 1_555
H14 C17 1_555 1_555
C18 C16 1_555 1_555
H15 C18 1_555 1_555
H16 C18 1_555 1_555
H17 C18 1_555 1_555
C19 C16 1_555 1_555
H18 C19 1_555 1_555
H19 C19 1_555 1_555
H20 C19 1_555 1_555
N1 C15 1_555 1_555
H21 N1 1_555 1_555
O1 C15 1_555 1_555
C7 C8 1_555 1_555
C13 C14 1_555 1_555
C16 N1 1_555 1_555

#END
