
#######################################################################
#
#                 Cambridge Crystallographic Data Centre
#                                CCDC 
#
#######################################################################
#
# If this CIF has been generated from an entry in the Cambridge 
# Structural Database, then it will include bibliographic, chemical, 
# crystal, experimental, refinement or atomic coordinate data resulting 
# from the CCDC's data processing and validation procedures.
#
#######################################################################

data_SUPRAY
_chemical_formula_moiety         'C26 H32 N2 O2,C4 H8 O1'
_chemical_name_systematic        
"N,N'-di-t-butyl-N,N'-dihydroxy-1,1':3',1''-terphenyl-2,2''-diamine tetrahydrofuran solvate"
_symmetry_cell_setting           monoclinic
_symmetry_space_group_name_H-M   'P 21/c'
_symmetry_Int_Tables_number      14
_space_group_name_Hall           '-P 2ybc'
loop_
_symmetry_equiv_pos_site_id
_symmetry_equiv_pos_as_xyz
1 x,y,z
2 -x,1/2+y,1/2-z
3 -x,-y,-z
4 x,1/2-y,1/2+z
_cell_length_a                   10.0002(4)
_cell_length_b                   9.8745(4)
_cell_length_c                   27.4051(10)
_cell_angle_alpha                90
_cell_angle_beta                 96.384(2)
_cell_angle_gamma                90
_cell_volume                     2689.39
_exptl_crystal_description       prism
_cell_formula_units_Z            4
loop_
_atom_site_label
_atom_site_type_symbol
_atom_site_fract_x
_atom_site_fract_y
_atom_site_fract_z
C1 C 0.42374(19) 0.38908(19) 0.13798(7)
H1 H 0.3625 0.3551 0.1580
C2 C 0.38122(19) 0.48663(19) 0.10268(7)
C3 C 0.4728(2) 0.5319(2) 0.07145(7)
H2 H 0.4456 0.5947 0.0471
C4 C 0.6038(2) 0.4840(2) 0.07646(7)
H3 H 0.6639 0.5150 0.0554
C5 C 0.6461(2) 0.3907(2) 0.11250(7)
H4 H 0.7348 0.3606 0.1160
C6 C 0.55574(19) 0.34151(19) 0.14380(7)
C7 C 0.2460(2) 0.5501(2) 0.10182(7)
C8 C 0.2402(2) 0.6917(2) 0.10282(7)
H5 H 0.3183 0.7412 0.1002
C9 C 0.1216(2) 0.7598(2) 0.10753(7)
H6 H 0.1204 0.8540 0.1084
C10 C 0.0049(2) 0.6876(2) 0.11090(7)
H7 H -0.0747 0.7329 0.1149
C11 C 0.0065(2) 0.5475(2) 0.10826(7)
H8 H -0.0729 0.4994 0.1097
C12 C 0.12568(19) 0.4776(2) 0.10339(6)
C13 C 0.59908(18) 0.2457(2) 0.18454(7)
C14 C 0.55615(19) 0.2694(2) 0.23073(7)
H9 H 0.4960 0.3395 0.2344
C15 C 0.6011(2) 0.1907(2) 0.27101(7)
H10 H 0.5705 0.2075 0.3013
C16 C 0.6917(2) 0.0874(2) 0.26622(7)
H11 H 0.7257 0.0373 0.2936
C17 C 0.7317(2) 0.0586(2) 0.22066(7)
H12 H 0.7911 -0.0125 0.2174
C18 C 0.68422(19) 0.1347(2) 0.17947(7)
C19 C 0.09276(19) 0.2692(2) 0.05192(7)
C20 C 0.1914(2) 0.3242(2) 0.01791(7)
H13 H 0.1823 0.4208 0.0154
H14 H 0.1721 0.2845 -0.0141
H15 H 0.2817 0.3018 0.0310
C21 C 0.1138(2) 0.1165(2) 0.05748(7)
H16 H 0.2027 0.0989 0.0733
H17 H 0.1034 0.0747 0.0256
H18 H 0.0486 0.0798 0.0770
C22 C -0.0521(2) 0.2998(2) 0.03050(7)
H19 H -0.1131 0.2686 0.0528
H20 H -0.0713 0.2542 -0.0004
H21 H -0.0629 0.3956 0.0257
C23 C 0.6401(2) -0.0034(2) 0.10345(7)
C24 C 0.6955(2) -0.0179(3) 0.05404(8)
H22 H 0.6934 0.0685 0.0379
H23 H 0.6414 -0.0813 0.0339
H24 H 0.7866 -0.0501 0.0592
C25 C 0.6442(2) -0.1392(2) 0.13039(9)
H25 H 0.7360 -0.1648 0.1398
H26 H 0.6008 -0.2071 0.1091
H27 H 0.5982 -0.1310 0.1592
C26 C 0.4951(2) 0.0468(2) 0.09461(8)
H28 H 0.4598 0.0580 0.1255
H29 H 0.4415 -0.0181 0.0750
H30 H 0.4927 0.1320 0.0777
N1 N 0.12960(16) 0.33107(16) 0.10168(6)
N2 N 0.72270(15) 0.10378(17) 0.13141(6)
O1 O 0.03106(13) 0.28142(15) 0.13297(5)
H31 H 0.0698 0.2583 0.1596
O2 O 0.86016(13) 0.05252(15) 0.13849(5)
H32 H 0.9125 0.1133 0.1331
O3 O 0.18047(15) 0.19892(16) 0.21599(5)
C27 C 0.2357(2) 0.0686(3) 0.20507(9)
H33 H 0.3263 0.0586 0.2214
H34 H 0.2380 0.0580 0.1700
C28 C 0.1425(2) -0.0338(2) 0.22409(8)
H35 H 0.1874 -0.1199 0.2311
H36 H 0.0628 -0.0480 0.2011
C29 C 0.1083(2) 0.0350(2) 0.27079(8)
H37 H 0.0247 0.0008 0.2808
H38 H 0.1797 0.0231 0.2975
C30 C 0.0951(3) 0.1823(2) 0.25501(8)
H39 H 0.0024 0.2035 0.2433
H40 H 0.1242 0.2417 0.2823
loop_
_geom_bond_atom_site_label_1
_geom_bond_atom_site_label_2
_geom_bond_site_symmetry_1
_geom_bond_site_symmetry_2
C1 H1 1_555 1_555
C2 C1 1_555 1_555
C3 C2 1_555 1_555
H2 C3 1_555 1_555
C4 C3 1_555 1_555
H3 C4 1_555 1_555
C5 C4 1_555 1_555
H4 C5 1_555 1_555
C6 C1 1_555 1_555
C7 C2 1_555 1_555
C8 C7 1_555 1_555
H5 C8 1_555 1_555
C9 C8 1_555 1_555
H6 C9 1_555 1_555
C10 C9 1_555 1_555
H7 C10 1_555 1_555
C11 C10 1_555 1_555
H8 C11 1_555 1_555
C12 C7 1_555 1_555
C13 C6 1_555 1_555
C14 C13 1_555 1_555
H9 C14 1_555 1_555
C15 C14 1_555 1_555
H10 C15 1_555 1_555
C16 C15 1_555 1_555
H11 C16 1_555 1_555
C17 C16 1_555 1_555
H12 C17 1_555 1_555
C18 C13 1_555 1_555
C19 C20 1_555 1_555
C20 H13 1_555 1_555
H14 C20 1_555 1_555
H15 C20 1_555 1_555
C21 C19 1_555 1_555
H16 C21 1_555 1_555
H17 C21 1_555 1_555
H18 C21 1_555 1_555
C22 C19 1_555 1_555
H19 C22 1_555 1_555
H20 C22 1_555 1_555
H21 C22 1_555 1_555
C23 C24 1_555 1_555
C24 H22 1_555 1_555
H23 C24 1_555 1_555
H24 C24 1_555 1_555
C25 C23 1_555 1_555
H25 C25 1_555 1_555
H26 C25 1_555 1_555
H27 C25 1_555 1_555
C26 C23 1_555 1_555
H28 C26 1_555 1_555
H29 C26 1_555 1_555
H30 C26 1_555 1_555
N1 C12 1_555 1_555
N2 C18 1_555 1_555
O1 N1 1_555 1_555
H31 O1 1_555 1_555
O2 N2 1_555 1_555
H32 O2 1_555 1_555
O3 C27 1_555 1_555
C27 H33 1_555 1_555
H34 C27 1_555 1_555
C28 C27 1_555 1_555
H35 C28 1_555 1_555
H36 C28 1_555 1_555
C29 C28 1_555 1_555
H37 C29 1_555 1_555
H38 C29 1_555 1_555
C30 O3 1_555 1_555
H39 C30 1_555 1_555
H40 C30 1_555 1_555
C5 C6 1_555 1_555
C11 C12 1_555 1_555
C17 C18 1_555 1_555
C19 N1 1_555 1_555
C23 N2 1_555 1_555
C29 C30 1_555 1_555

#END
