
#######################################################################
#
#                 Cambridge Crystallographic Data Centre
#                                CCDC 
#
#######################################################################
#
# If this CIF has been generated from an entry in the Cambridge 
# Structural Database, then it will include bibliographic, chemical, 
# crystal, experimental, refinement or atomic coordinate data resulting 
# from the CCDC's data processing and validation procedures.
#
#######################################################################

data_SUPTEE
_chemical_name_common            
'bis(C-propyl-5,11,17,23-tetrakis((benzylammonio)methyl)calix(4)resorcinarene) pentakis(1,1,2,2,3,3,4,4-octafluoro-1,4-diiodobutane) octabromide 1,4-dioxane solvate monohydrate'
_chemical_formula_moiety         
'2(C72 H88 N4 O8 4+),5(C4 F8 I2),3(C4 H8 O2),8(Br1 1-),H2 O1'
_chemical_name_systematic        
'bis(5,11,17,23-tetrakis((benzylammonio)methyl)-4,6,10,12,16,18,22,24-octahydroxy-2,8,14,20-tetrapropylcalix(4)arene) pentakis(1,1,2,2,3,3,4,4-octafluoro-1,4-diiodobutane) octabromide 1,4-dioxane solvate monohydrate'
_symmetry_cell_setting           triclinic
_symmetry_space_group_name_H-M   'P -1'
_symmetry_Int_Tables_number      2
_space_group_name_Hall           '-P 1'
loop_
_symmetry_equiv_pos_site_id
_symmetry_equiv_pos_as_xyz
1 x,y,z
2 -x,-y,-z
_cell_length_a                   15.6129(7)
_cell_length_b                   17.9004(5)
_cell_length_c                   18.7393(6)
_cell_angle_alpha                85.882(3)
_cell_angle_beta                 82.900(3)
_cell_angle_gamma                80.848(3)
_cell_volume                     5123.61
_exptl_crystal_colour            colorless
_exptl_crystal_description       block
_cell_formula_units_Z            1
loop_
_atom_site_label
_atom_site_type_symbol
_atom_site_fract_x
_atom_site_fract_y
_atom_site_fract_z
Br1 Br 0.87518(8) 0.50854(7) 0.13987(6)
Br2 Br 0.73888(9) 0.23689(8) 0.15586(7)
Br3 Br 0.87045(8) 0.11630(7) 0.45900(6)
Br4 Br 1.00154(9) 0.36950(8) 0.43610(8)
I1 I 1.59587(6) 0.13933(5) 0.10288(4)
F1 F 1.4264(7) 0.1061(8) 0.0816(7)
F2 F 1.5072(9) 0.0100(8) 0.1317(6)
F3 F 1.5272(7) 0.0846(5) -0.0423(5)
F4 F 1.6128(5) -0.0058(5) 0.0023(5)
C1 C 1.5085(10) 0.0652(11) 0.0805(8)
C2 C 1.5309(8) 0.0278(8) 0.0082(7)
I1A I 1.40413(6) -0.13933(5) -0.10288(4)
F1A F 1.5736(7) -0.1061(8) -0.0816(7)
F2A F 1.4928(9) -0.0100(8) -0.1317(6)
F3A F 1.4728(7) -0.0846(5) 0.0423(5)
F4A F 1.3872(5) 0.0058(5) -0.0023(5)
C1A C 1.4915(10) -0.0652(11) -0.0805(8)
C2A C 1.4691(8) -0.0278(8) -0.0082(7)
O1 O 1.0590(6) 0.4251(4) 0.0124(4)
H1 H 1.0629 0.4417 -0.0307
O2 O 0.9035(5) 0.2229(5) -0.0081(4)
H2 H 0.8857 0.1922 0.0242
O3 O 0.8774(5) 0.1056(5) 0.0920(4)
H3 H 0.8417 0.1343 0.1172
O4 O 0.9630(5) -0.0088(4) 0.3144(4)
H4 H 1.0044 -0.0123 0.3398
O5 O 1.0789(5) -0.0099(4) 0.4093(4)
H5 H 1.0823 -0.0188 0.4535
O6 O 1.2092(5) 0.2066(4) 0.4422(4)
H6 H 1.2112 0.2483 0.4191
O7 O 1.1935(5) 0.3332(5) 0.3568(4)
H7 H 1.1429 0.3526 0.3732
O8 O 1.1209(5) 0.4547(4) 0.1336(5)
H8 H 1.1228 0.4478 0.0896
N1 N 0.8300(7) 0.3789(6) 0.0386(6)
H9 H 0.8465 0.4046 0.0787
H10 H 0.8217 0.3269 0.0566
N2 N 0.8048(6) 0.0934(5) 0.2981(5)
H11 H 0.8196 0.1444 0.2829
H12 H 0.8397 0.0728 0.3377
N3 N 1.0385(6) 0.1810(5) 0.5051(5)
H13 H 1.0668 0.2219 0.4783
H14 H 0.9880 0.1747 0.4801
N4 N 1.0215(6) 0.4857(5) 0.2683(6)
H15 H 0.9918 0.4428 0.2890
H16 H 1.0144 0.4921 0.2163
C3 C 1.1300(7) 0.2977(6) 0.0360(6)
C4 C 1.0574(8) 0.3468(5) 0.0153(5)
C5 C 0.9821(7) 0.3226(6) 0.0016(5)
C6 C 0.9781(8) 0.2435(6) 0.0084(6)
C7 C 1.0495(7) 0.1919(5) 0.0278(5)
C8 C 1.1225(7) 0.2215(6) 0.0430(5)
H17 H 1.1700 0.1871 0.0590
C9 C 0.9028(8) 0.3737(7) -0.0195(7)
H18 H 0.9178 0.4250 -0.0327
H19 H 0.8841 0.3546 -0.0625
C10 C 0.7454(9) 0.4198(9) 0.0183(9)
H20 H 0.7508 0.4737 0.0062
H21 H 0.7001 0.4177 0.0600
C11 C 0.7166(9) 0.3864(9) -0.0456(8)
C12 C 0.7200(9) 0.4235(9) -0.1127(8)
H22 H 0.7405 0.4710 -0.1202
C13 C 0.6926(10) 0.3898(11) -0.1703(9)
H23 H 0.6946 0.4140 -0.2171
C14 C 0.6635(13) 0.3222(13) -0.1574(11)
H24 H 0.6440 0.2999 -0.1957
C15 C 0.6612(14) 0.2863(13) -0.0928(9)
H25 H 0.6424 0.2381 -0.0861
C16 C 0.6862(13) 0.3189(10) -0.0348(9)
H26 H 0.6821 0.2942 0.0118
C17 C 1.0513(8) 0.1057(6) 0.0280(5)
H27 H 1.0038 0.0973 -0.0005
C18 C 1.1372(9) 0.0660(6) -0.0100(5)
H28 H 1.1359 0.0108 -0.0082
H29 H 1.1861 0.0745 0.0159
C19 C 1.1537(8) 0.0948(6) -0.0889(5)
H30 H 1.1145 0.0747 -0.1179
H31 H 1.1405 0.1508 -0.0922
C20 C 1.2480(9) 0.0698(8) -0.1186(6)
H32 H 1.2868 0.0869 -0.0880
H33 H 1.2586 0.0920 -0.1677
H34 H 1.2594 0.0144 -0.1195
C21 C 1.0296(7) 0.0724(5) 0.1042(5)
C22 C 0.9429(8) 0.0754(6) 0.1344(6)
C23 C 0.9221(7) 0.0460(6) 0.2042(5)
C24 C 0.9898(7) 0.0170(5) 0.2454(6)
C25 C 1.0767(7) 0.0127(5) 0.2168(5)
C26 C 1.0946(8) 0.0415(6) 0.1461(5)
H35 H 1.1538 0.0399 0.1261
C27 C 0.8296(7) 0.0438(6) 0.2366(6)
H36 H 0.7898 0.0602 0.1994
H37 H 0.8229 -0.0089 0.2532
C28 C 0.7076(7) 0.1012(7) 0.3267(6)
H38 H 0.6953 0.1373 0.3656
H39 H 0.6725 0.1224 0.2874
C29 C 0.6809(7) 0.0289(7) 0.3544(6)
C30 C 0.6416(7) -0.0152(7) 0.3112(7)
H40 H 0.6324 0.0020 0.2632
C31 C 0.6171(9) -0.0822(8) 0.3387(9)
H41 H 0.5905 -0.1108 0.3092
C32 C 0.6294(10) -0.1096(10) 0.4071(12)
H42 H 0.6118 -0.1566 0.4247
C33 C 0.6677(9) -0.0688(10) 0.4505(10)
H43 H 0.6771 -0.0880 0.4980
C34 C 0.6925(9) -0.0002(8) 0.4253(7)
H44 H 0.7178 0.0279 0.4560
C35 C 1.1498(7) -0.0190(5) 0.2630(5)
H45 H 1.1282 -0.0602 0.2960
C36 C 1.2330(8) -0.0551(6) 0.2187(6)
H46 H 1.2595 -0.0147 0.1892
H47 H 1.2172 -0.0897 0.1853
C37 C 1.3013(9) -0.0995(8) 0.2643(8)
H48 H 1.3117 -0.0671 0.3021
H49 H 1.2784 -0.1444 0.2885
C38 C 1.3876(9) -0.1251(10) 0.2187(9)
H50 H 1.4281 -0.1561 0.2489
H51 H 1.4131 -0.0806 0.1981
H52 H 1.3771 -0.1550 0.1797
C39 C 1.1667(7) 0.0413(5) 0.3103(5)
C40 C 1.1321(7) 0.0440(6) 0.3828(5)
C41 C 1.1448(7) 0.0994(6) 0.4257(6)
C42 C 1.1974(7) 0.1530(5) 0.3964(5)
C43 C 1.2344(7) 0.1517(6) 0.3253(5)
C44 C 1.2166(7) 0.0974(5) 0.2832(6)
H53 H 1.2391 0.0982 0.2337
C45 C 1.1024(7) 0.1086(6) 0.5012(5)
H54 H 1.1475 0.1098 0.5337
H55 H 1.0716 0.0650 0.5171
C46 C 1.0051(8) 0.2059(7) 0.5788(6)
H56 H 0.9757 0.1658 0.6061
H57 H 0.9613 0.2521 0.5754
C47 C 1.0775(7) 0.2221(6) 0.6189(5)
C48 C 1.1227(7) 0.2822(6) 0.5953(6)
H58 H 1.1085 0.3130 0.5538
C49 C 1.1877(8) 0.2961(7) 0.6328(7)
H59 H 1.2188 0.3368 0.6166
C50 C 1.2092(9) 0.2527(8) 0.6932(7)
H60 H 1.2552 0.2626 0.7181
C51 C 1.1637(10) 0.1952(8) 0.7169(8)
H61 H 1.1773 0.1656 0.7593
C52 C 1.0976(9) 0.1792(7) 0.6800(7)
H62 H 1.0664 0.1387 0.6969
C53 C 1.2955(7) 0.2090(6) 0.2944(6)
H63 H 1.3113 0.2329 0.3366
C54 C 1.3816(7) 0.1679(7) 0.2563(7)
H64 H 1.3680 0.1412 0.2156
H65 H 1.4184 0.2063 0.2360
C55 C 1.4337(8) 0.1112(7) 0.3048(7)
H66 H 1.3977 0.0716 0.3233
H67 H 1.4861 0.0862 0.2754
C56 C 1.4624(9) 0.1438(9) 0.3675(8)
H68 H 1.4110 0.1670 0.3981
H69 H 1.4992 0.1823 0.3500
H70 H 1.4957 0.1034 0.3954
C57 C 1.2490(7) 0.2723(6) 0.2488(6)
C58 C 1.1992(7) 0.3339(6) 0.2828(6)
C59 C 1.1591(7) 0.3957(6) 0.2434(6)
C60 C 1.1640(7) 0.3925(6) 0.1686(6)
C61 C 1.2111(7) 0.3307(6) 0.1316(6)
C62 C 1.2536(7) 0.2721(6) 0.1746(6)
H71 H 1.2873 0.2299 0.1513
C63 C 1.1164(8) 0.4677(6) 0.2772(7)
H72 H 1.1234 0.4631 0.3292
H73 H 1.1462 0.5100 0.2552
C64 C 0.9786(8) 0.5578(6) 0.3052(7)
H74 H 0.9165 0.5691 0.2966
H75 H 0.9810 0.5500 0.3578
C65 C 1.0237(8) 0.6231(7) 0.2772(6)
C66 C 0.9997(12) 0.6648(9) 0.2135(8)
H76 H 0.9542 0.6520 0.1896
C67 C 1.0432(16) 0.7240(9) 0.1865(9)
H77 H 1.0281 0.7520 0.1437
C68 C 1.1097(14) 0.7425(9) 0.2227(11)
H78 H 1.1403 0.7825 0.2033
C69 C 1.1314(11) 0.7041(9) 0.2856(12)
H79 H 1.1762 0.7173 0.3101
C70 C 1.0858(9) 0.6450(8) 0.3128(8)
H80 H 1.0985 0.6195 0.3573
C71 C 1.2106(8) 0.3252(6) 0.0535(6)
H81 H 1.2070 0.3785 0.0326
C72 C 1.2955(8) 0.2819(7) 0.0154(7)
H82 H 1.3456 0.3024 0.0300
H83 H 1.3005 0.2281 0.0330
C73 C 1.3031(17) 0.2850(18) -0.0645(10)
H84 H 1.2973 0.3386 -0.0831
H85 H 1.2551 0.2623 -0.0801
C74 C 1.390(2) 0.243(2) -0.0956(19)
H86 H 1.4357 0.2497 -0.0661
H87 H 1.4049 0.2625 -0.1450
H88 H 1.3864 0.1887 -0.0959
O9 O 0.9524(6) 0.3537(5) 0.2547(5)
O10 O 0.8858(6) 0.2182(5) 0.2885(5)
C75 C 0.8604(8) 0.3532(8) 0.2736(10)
H89 H 0.8320 0.3516 0.2295
H90 H 0.8339 0.4002 0.2977
C76 C 0.8451(10) 0.2847(7) 0.3237(8)
H91 H 0.8703 0.2875 0.3693
H92 H 0.7817 0.2837 0.3353
C77 C 0.9778(8) 0.2176(7) 0.2716(8)
H93 H 1.0049 0.1704 0.2481
H94 H 1.0050 0.2200 0.3162
C78 C 0.9915(10) 0.2861(7) 0.2212(7)
H95 H 1.0549 0.2870 0.2086
H96 H 0.9654 0.2826 0.1763
O11 O 1.4254(13) 0.3658(10) 0.1296(10)
H97 H 1.4351 0.3761 0.1711
H98 H 1.4722 0.3434 0.1074
I2 I 0.80979(7) 0.47274(6) 0.49868(6)
I3 I 0.43335(7) 0.65392(7) 0.76255(7)
F5 F 0.6282(7) 0.5349(7) 0.4946(6)
F6 F 0.7044(8) 0.6192(5) 0.5235(5)
F7 F 0.6390(6) 0.4615(5) 0.6218(6)
F8 F 0.7238(5) 0.5344(5) 0.6531(5)
F9 F 0.5085(6) 0.5797(6) 0.6106(6)
F10 F 0.5916(8) 0.6595(6) 0.6313(8)
F11 F 0.5401(8) 0.5079(7) 0.7451(6)
F12 F 0.6137(7) 0.5977(8) 0.7621(6)
C79 C 0.6918(10) 0.5459(8) 0.5333(7)
C80 C 0.6587(7) 0.5321(6) 0.6136(6)
C81 C 0.5765(7) 0.5892(8) 0.6452(7)
C82 C 0.5506(8) 0.5817(8) 0.7277(8)
I4 I 0.68482(7) 0.22445(8) 0.51602(6)
I5 I 0.31050(6) 0.41817(8) 0.76905(9)
F13 F 0.5002(7) 0.2764(9) 0.5105(7)
F14 F 0.5664(9) 0.3741(7) 0.5307(10)
F15 F 0.5246(8) 0.2191(7) 0.6353(9)
F16 F 0.6030(5) 0.3067(5) 0.6590(4)
F17 F 0.3874(5) 0.3320(6) 0.6186(5)
F18 F 0.4590(7) 0.4236(7) 0.6400(7)
F19 F 0.4211(9) 0.2665(7) 0.7440(11)
F20 F 0.4963(9) 0.3577(10) 0.7672(8)
C83 C 0.5657(11) 0.2983(9) 0.5416(9)
C84 C 0.5371(7) 0.2955(7) 0.6228(7)
C85 C 0.4537(8) 0.3461(7) 0.6536(8)
C86 C 0.4289(11) 0.3412(10) 0.7356(10)
H99? H 1.3098 0.2321 0.0412
H100? H 1.2862 0.2727 -0.0344
C87? C 1.3716(15) 0.3257(17) 0.013(2)
H101? H 1.3856 0.3291 0.0626
H102? H 1.3543 0.3778 -0.0071
C88? C 1.4528(19) 0.289(2) -0.033(2)
H103? H 1.4661 0.2350 -0.0168
H104? H 1.5023 0.3143 -0.0272
H105? H 1.4423 0.2925 -0.0834
O12? O 1.4029(16) 0.4456(16) -0.0004(14)
O13? O 1.5560(15) 0.514(2) 0.0126(13)
C89? C 1.4611(18) 0.4607(17) -0.0609(15)
H106? H 1.4279 0.4742 -0.1029
H107? H 1.5029 0.4140 -0.0714
C90? C 1.512(2) 0.5243(19) -0.0517(15)
H108? H 1.5558 0.5280 -0.0942
H109? H 1.4713 0.5727 -0.0499
C91? C 1.501(2) 0.494(2) 0.0742(15)
H110? H 1.4587 0.5388 0.0889
H111? H 1.5368 0.4773 0.1143
C92? C 1.451(3) 0.430(2) 0.0613(19)
H112? H 1.4925 0.3824 0.0545
H113? H 1.4094 0.4214 0.1046
loop_
_geom_bond_atom_site_label_1
_geom_bond_atom_site_label_2
_geom_bond_site_symmetry_1
_geom_bond_site_symmetry_2
I1 C1 1_555 1_555
F1 C1 1_555 1_555
F2 C1 1_555 1_555
F3 C2 1_555 1_555
F4 C2 1_555 1_555
C1 C2 1_555 1_555
C2 C2A 1_555 1_555
O1 H1 1_555 1_555
O2 H2 1_555 1_555
O3 H3 1_555 1_555
O4 H4 1_555 1_555
O5 H5 1_555 1_555
O6 H6 1_555 1_555
O7 H7 1_555 1_555
O8 H8 1_555 1_555
N1 H9 1_555 1_555
H10 N1 1_555 1_555
N2 H11 1_555 1_555
H12 N2 1_555 1_555
N3 H13 1_555 1_555
H14 N3 1_555 1_555
N4 H15 1_555 1_555
H16 N4 1_555 1_555
C3 C4 1_555 1_555
C4 O1 1_555 1_555
C5 C4 1_555 1_555
C6 O2 1_555 1_555
C7 C6 1_555 1_555
C8 C3 1_555 1_555
H17 C8 1_555 1_555
C9 N1 1_555 1_555
H18 C9 1_555 1_555
H19 C9 1_555 1_555
C10 N1 1_555 1_555
H20 C10 1_555 1_555
H21 C10 1_555 1_555
C11 C10 1_555 1_555
C12 C11 1_555 1_555
H22 C12 1_555 1_555
C13 C12 1_555 1_555
H23 C13 1_555 1_555
C14 C13 1_555 1_555
H24 C14 1_555 1_555
C15 C14 1_555 1_555
H25 C15 1_555 1_555
C16 C11 1_555 1_555
H26 C16 1_555 1_555
C17 C7 1_555 1_555
H27 C17 1_555 1_555
C18 C17 1_555 1_555
H28 C18 1_555 1_555
H29 C18 1_555 1_555
C19 C18 1_555 1_555
H30 C19 1_555 1_555
H31 C19 1_555 1_555
C20 C19 1_555 1_555
H32 C20 1_555 1_555
H33 C20 1_555 1_555
H34 C20 1_555 1_555
C21 C17 1_555 1_555
C22 O3 1_555 1_555
C23 C22 1_555 1_555
C24 O4 1_555 1_555
C25 C24 1_555 1_555
C26 C21 1_555 1_555
H35 C26 1_555 1_555
C27 N2 1_555 1_555
H36 C27 1_555 1_555
H37 C27 1_555 1_555
C28 N2 1_555 1_555
H38 C28 1_555 1_555
H39 C28 1_555 1_555
C29 C28 1_555 1_555
C30 C29 1_555 1_555
H40 C30 1_555 1_555
C31 C30 1_555 1_555
H41 C31 1_555 1_555
C32 C31 1_555 1_555
H42 C32 1_555 1_555
C33 C32 1_555 1_555
H43 C33 1_555 1_555
C34 C29 1_555 1_555
H44 C34 1_555 1_555
C35 C25 1_555 1_555
H45 C35 1_555 1_555
C36 C35 1_555 1_555
H46 C36 1_555 1_555
H47 C36 1_555 1_555
C37 C36 1_555 1_555
H48 C37 1_555 1_555
H49 C37 1_555 1_555
C38 C37 1_555 1_555
H50 C38 1_555 1_555
H51 C38 1_555 1_555
H52 C38 1_555 1_555
C39 C35 1_555 1_555
C40 O5 1_555 1_555
C41 C40 1_555 1_555
C42 O6 1_555 1_555
C43 C42 1_555 1_555
C44 C39 1_555 1_555
H53 C44 1_555 1_555
C45 N3 1_555 1_555
H54 C45 1_555 1_555
H55 C45 1_555 1_555
C46 N3 1_555 1_555
H56 C46 1_555 1_555
H57 C46 1_555 1_555
C47 C46 1_555 1_555
C48 C47 1_555 1_555
H58 C48 1_555 1_555
C49 C48 1_555 1_555
H59 C49 1_555 1_555
C50 C49 1_555 1_555
H60 C50 1_555 1_555
C51 C50 1_555 1_555
H61 C51 1_555 1_555
C52 C47 1_555 1_555
H62 C52 1_555 1_555
C53 C43 1_555 1_555
H63 C53 1_555 1_555
C54 C53 1_555 1_555
H64 C54 1_555 1_555
H65 C54 1_555 1_555
C55 C54 1_555 1_555
H66 C55 1_555 1_555
H67 C55 1_555 1_555
C56 C55 1_555 1_555
H68 C56 1_555 1_555
H69 C56 1_555 1_555
H70 C56 1_555 1_555
C57 C53 1_555 1_555
C58 O7 1_555 1_555
C59 C58 1_555 1_555
C60 O8 1_555 1_555
C61 C60 1_555 1_555
C62 C57 1_555 1_555
H71 C62 1_555 1_555
C63 N4 1_555 1_555
H72 C63 1_555 1_555
H73 C63 1_555 1_555
C64 N4 1_555 1_555
H74 C64 1_555 1_555
H75 C64 1_555 1_555
C65 C64 1_555 1_555
C66 C65 1_555 1_555
H76 C66 1_555 1_555
C67 C66 1_555 1_555
H77 C67 1_555 1_555
C68 C67 1_555 1_555
H78 C68 1_555 1_555
C69 C68 1_555 1_555
H79 C69 1_555 1_555
C70 C65 1_555 1_555
H80 C70 1_555 1_555
C71 C3 1_555 1_555
H81 C71 1_555 1_555
C72 C71 1_555 1_555
H82 C72 1_555 1_555
H83 C72 1_555 1_555
C73 C72 1_555 1_555
H84 C73 1_555 1_555
H85 C73 1_555 1_555
C74 C73 1_555 1_555
H86 C74 1_555 1_555
H87 C74 1_555 1_555
H88 C74 1_555 1_555
O9 C75 1_555 1_555
O10 C76 1_555 1_555
C75 H89 1_555 1_555
H90 C75 1_555 1_555
C76 C75 1_555 1_555
H91 C76 1_555 1_555
H92 C76 1_555 1_555
C77 O10 1_555 1_555
H93 C77 1_555 1_555
H94 C77 1_555 1_555
C78 O9 1_555 1_555
H95 C78 1_555 1_555
H96 C78 1_555 1_555
O11 H97 1_555 1_555
H98 O11 1_555 1_555
I2 C79 1_555 1_555
I3 C82 1_555 1_555
F5 C79 1_555 1_555
F6 C79 1_555 1_555
F7 C80 1_555 1_555
F8 C80 1_555 1_555
F9 C81 1_555 1_555
F10 C81 1_555 1_555
F11 C82 1_555 1_555
F12 C82 1_555 1_555
C79 C80 1_555 1_555
C80 C81 1_555 1_555
C81 C82 1_555 1_555
I4 C83 1_555 1_555
I5 C86 1_555 1_555
F13 C83 1_555 1_555
F14 C83 1_555 1_555
F15 C84 1_555 1_555
F16 C84 1_555 1_555
F17 C85 1_555 1_555
F18 C85 1_555 1_555
F19 C86 1_555 1_555
F20 C86 1_555 1_555
C83 C84 1_555 1_555
C84 C85 1_555 1_555
C85 C86 1_555 1_555
I1A C1A 1_555 1_555
F1A C1A 1_555 1_555
F2A C1A 1_555 1_555
F3A C2A 1_555 1_555
F4A C2A 1_555 1_555
C1A C2A 1_555 1_555
C5 C6 1_555 1_555
C5 C9 1_555 1_555
C7 C8 1_555 1_555
C15 C16 1_555 1_555
C21 C22 1_555 1_555
C23 C24 1_555 1_555
C23 C27 1_555 1_555
C25 C26 1_555 1_555
C33 C34 1_555 1_555
C39 C40 1_555 1_555
C41 C42 1_555 1_555
C41 C45 1_555 1_555
C43 C44 1_555 1_555
C51 C52 1_555 1_555
C57 C58 1_555 1_555
C59 C60 1_555 1_555
C59 C63 1_555 1_555
C61 C62 1_555 1_555
C61 C71 1_555 1_555
C69 C70 1_555 1_555
C77 C78 1_555 1_555

#END
