
#######################################################################
#
#                 Cambridge Crystallographic Data Centre
#                                CCDC 
#
#######################################################################
#
# If this CIF has been generated from an entry in the Cambridge 
# Structural Database, then it will include bibliographic, chemical, 
# crystal, experimental, refinement or atomic coordinate data resulting 
# from the CCDC's data processing and validation procedures.
#
#######################################################################

data_SUPWIJ
_chemical_formula_moiety         'C16 H14 O1 S5'
_chemical_name_systematic        
4-Benzoylthio-4',5,5'-trimethyltetrathiafulvalene
_symmetry_cell_setting           triclinic
_symmetry_space_group_name_H-M   'P -1'
_symmetry_Int_Tables_number      2
_space_group_name_Hall           '-P 1'
loop_
_symmetry_equiv_pos_site_id
_symmetry_equiv_pos_as_xyz
1 x,y,z
2 -x,-y,-z
_cell_length_a                   7.657(1)
_cell_length_b                   10.957(2)
_cell_length_c                   11.433(2)
_cell_angle_alpha                72.21(1)
_cell_angle_beta                 74.94(1)
_cell_angle_gamma                70.90(1)
_cell_volume                     849.326
_exptl_crystal_colour            amber
_chemical_melting_point          163-164deg.C
_cell_formula_units_Z            2
loop_
_atom_site_label
_atom_site_type_symbol
_atom_site_fract_x
_atom_site_fract_y
_atom_site_fract_z
S1 S 0.22215(10) 0.21570(7) 0.42068(7)
S2 S 0.45133(10) 0.32299(7) 0.51315(7)
S3 S -0.14943(10) 0.34229(7) 0.61450(6)
S4 S 0.08951(10) 0.44411(7) 0.70361(6)
S5 S 0.55329(11) 0.02510(7) 0.30888(6)
O1 O 0.6228(3) 0.2310(2) 0.1276(2)
C1 C 0.2271(4) 0.3053(3) 0.5232(2)
C2 C 0.4678(4) 0.1518(3) 0.3894(2)
C3 C 0.5743(4) 0.1994(3) 0.4305(2)
C4 C 0.0772(4) 0.3552(2) 0.6031(2)
C5 C -0.2505(4) 0.4110(3) 0.7453(2)
C6 C -0.1414(4) 0.4549(3) 0.7864(2)
C7 C 0.7828(4) 0.1622(3) 0.4121(3)
H1 H 0.8217(4) 0.1325(19) 0.4918(3)
H2 H 0.8272(5) 0.2382(6) 0.3635(16)
H3 H 0.8340(4) 0.0919(14) 0.3691(16)
C8 C -0.4544(4) 0.4185(3) 0.7954(3)
H4 H -0.4991(4) 0.3793(3) 0.7485(3)
H5 H -0.5251(4) 0.5099(3) 0.7882(3)
H6 H -0.4693(4) 0.3710(3) 0.8816(3)
C9 C -0.1963(5) 0.5181(4) 0.8948(3)
H7 H -0.1256(56) 0.5814(38) 0.8803(33)
H8 H -0.1953(59) 0.4562(41) 0.9713(39)
H9 H -0.3085(84) 0.5787(52) 0.8958(46)
C10 C 0.6309(4) 0.1142(3) 0.1529(3)
C11 C 0.7077(4) 0.0290(3) 0.0616(2)
C12 C 0.7897(4) 0.0844(3) -0.0579(3)
H10 H 0.7975(4) 0.1716(3) -0.0787(3)
C13 C 0.8602(5) 0.0093(3) -0.1461(3)
H11 H 0.9140(5) 0.0466(3) -0.2264(3)
C14 C 0.8507(5) -0.1204(3) -0.1150(3)
H12 H 0.8978(5) -0.1705(3) -0.1744(3)
C15 C 0.7723(5) -0.1760(3) 0.0037(3)
H13 H 0.7673(5) -0.2639(3) 0.0245(3)
C16 C 0.6999(5) -0.1019(3) 0.0926(3)
H14 H 0.6466(5) -0.1399(3) 0.1729(3)
H15? H -0.4966(4) 0.4608(3) 0.8637(3)
H16? H -0.4706(4) 0.3302(3) 0.8240(3)
H17? H -0.5264(4) 0.4692(3) 0.7306(3)
loop_
_geom_bond_atom_site_label_1
_geom_bond_atom_site_label_2
_geom_bond_site_symmetry_1
_geom_bond_site_symmetry_2
S1 C1 1_555 1_555
S2 C1 1_555 1_555
S3 C4 1_555 1_555
S4 C4 1_555 1_555
S5 C2 1_555 1_555
O1 C10 1_555 1_555
C1 C4 1_555 1_555
C2 S1 1_555 1_555
C3 S2 1_555 1_555
C5 S3 1_555 1_555
C6 S4 1_555 1_555
C7 C3 1_555 1_555
H1 C7 1_555 1_555
H2 C7 1_555 1_555
H3 C7 1_555 1_555
C8 C5 1_555 1_555
H4 C8 1_555 1_555
H5 C8 1_555 1_555
H6 C8 1_555 1_555
C9 C6 1_555 1_555
H7 C9 1_555 1_555
H8 C9 1_555 1_555
H9 C9 1_555 1_555
C10 S5 1_555 1_555
C11 C10 1_555 1_555
C12 C11 1_555 1_555
H10 C12 1_555 1_555
C13 C12 1_555 1_555
H11 C13 1_555 1_555
C14 C13 1_555 1_555
H12 C14 1_555 1_555
C15 C14 1_555 1_555
H13 C15 1_555 1_555
C16 C11 1_555 1_555
H14 C16 1_555 1_555
C2 C3 1_555 1_555
C5 C6 1_555 1_555
C15 C16 1_555 1_555

#END
