
#######################################################################
#
#                 Cambridge Crystallographic Data Centre
#                                CCDC 
#
#######################################################################
#
# If this CIF has been generated from an entry in the Cambridge 
# Structural Database, then it will include bibliographic, chemical, 
# crystal, experimental, refinement or atomic coordinate data resulting 
# from the CCDC's data processing and validation procedures.
#
#######################################################################

data_SUQCUE
_chemical_formula_moiety         'C24 H26 O5'
_chemical_name_systematic        
(2R,4aR,9aS,10R,10aR)-10-(benzyloxy)-7-methylene-2-phenyloctahydro-4H-pyrano[2',3':5,6]pyrano[3,2-d][1,3]dioxine
_symmetry_cell_setting           triclinic
_symmetry_space_group_name_H-M   'P 1'
_symmetry_Int_Tables_number      1
_space_group_name_Hall           'P 1'
loop_
_symmetry_equiv_pos_site_id
_symmetry_equiv_pos_as_xyz
1 x,y,z
_cell_length_a                   11.3740(6)
_cell_length_b                   12.3617(6)
_cell_length_c                   15.9539(11)
_cell_angle_alpha                104.163(7)
_cell_angle_beta                 100.372(7)
_cell_angle_gamma                103.601(8)
_cell_volume                     2045.7
_exptl_crystal_colour            colorless
_exptl_crystal_description       stick
_cell_formula_units_Z            4
_exptl_crystal_recrystallization_method 'methanol/methyl t-butyl ether'
loop_
_atom_site_label
_atom_site_type_symbol
_atom_site_fract_x
_atom_site_fract_y
_atom_site_fract_z
O1 O 0.4344(4) 0.7273(3) 0.2870(3)
O2 O 0.5782(4) 0.6187(3) 0.1104(3)
O3 O 0.5621(4) 0.4898(3) 0.1949(2)
O4 O 0.5988(4) 0.7138(3) 0.4444(2)
O5 O 0.4215(4) 0.4249(3) 0.3398(3)
C1 C 0.3912(6) 0.6841(5) 0.3552(5)
H1 H 0.3088 0.6247 0.3279
C2 C 0.4801(6) 0.6298(5) 0.4003(4)
H2 H 0.4443 0.6002 0.4453
C3 C 0.5029(6) 0.5288(4) 0.3349(4)
H3 H 0.5904 0.5288 0.3549
C4 C 0.4819(6) 0.5420(5) 0.2422(4)
H4 H 0.3933 0.5028 0.2093
C5 C 0.5151(6) 0.6701(4) 0.2460(4)
H5 H 0.6030 0.7097 0.2801
C6 C 0.4987(7) 0.6777(5) 0.1510(4)
H6 H 0.4113 0.6406 0.1172
H7 H 0.5218 0.7595 0.1517
C7 C 0.5451(6) 0.4994(5) 0.1072(4)
H8 H 0.4561 0.4622 0.0747
C8 C 0.3754(6) 0.7868(5) 0.4235(5)
H9 H 0.3299 0.8296 0.3923
H10 H 0.3261 0.7576 0.4620
C9 C 0.5001(6) 0.8680(5) 0.4800(4)
C10 C 0.5882(6) 0.8069(5) 0.5140(4)
H11 H 0.6710 0.8634 0.5423
H12 H 0.5590 0.7752 0.5597
C11 C 0.5281(7) 0.9830(5) 0.5019(4)
H13 H 0.6060 1.0295 0.5403
H14 H 0.4701 1.0182 0.4790
C12 C 0.4447(7) 0.3214(5) 0.2940(5)
H15 H 0.5305 0.3231 0.3195
H16 H 0.4359 0.3167 0.2309
C13 C 0.3550(6) 0.2171(5) 0.3018(4)
C14 C 0.2371(7) 0.2174(6) 0.3079(5)
H17 H 0.2129 0.2855 0.3100
C15 C 0.1512(8) 0.1170(6) 0.3111(5)
H18 H 0.0707 0.1196 0.3159
C16 C 0.1814(9) 0.0174(6) 0.3074(5)
H19 H 0.1234 -0.0494 0.3095
C17 C 0.3003(10) 0.0166(6) 0.3004(5)
H20 H 0.3236 -0.0521 0.2973
C18 C 0.3873(8) 0.1168(5) 0.2979(5)
H21 H 0.4681 0.1147 0.2935
C19 C 0.6234(6) 0.4387(5) 0.0592(4)
C20 C 0.6580(7) 0.4682(5) -0.0135(4)
H22 H 0.6363 0.5303 -0.0300
C21 C 0.7240(7) 0.4071(6) -0.0619(4)
H23 H 0.7466 0.4280 -0.1109
C22 C 0.7564(6) 0.3171(6) -0.0390(4)
H24 H 0.8008 0.2756 -0.0722
C23 C 0.7231(7) 0.2867(5) 0.0343(4)
H25 H 0.7449 0.2243 0.0502
C24 C 0.6583(6) 0.3481(5) 0.0834(4)
H26 H 0.6379 0.3284 0.1334
O6 O 0.9658(4) 0.7440(3) 0.2703(2)
O7 O 1.1305(4) 0.6127(3) 0.1181(3)
O8 O 1.0584(4) 0.4798(3) 0.1919(2)
O9 O 1.0499(4) 0.7049(3) 0.4427(2)
O10 O 0.8857(4) 0.4245(3) 0.3159(3)
C25 C 0.8830(5) 0.6986(5) 0.3198(4)
H27 H 0.8036 0.6462 0.2776
C26 C 0.9398(6) 0.6312(5) 0.3761(4)
H28 H 0.8776 0.5994 0.4066
C27 C 0.9749(6) 0.5299(4) 0.3209(3)
H29 H 1.0583 0.5302 0.3524
C28 C 0.9818(5) 0.5461(4) 0.2310(3)
H30 H 0.8966 0.5193 0.1909
C29 C 1.0416(5) 0.6730(4) 0.2406(4)
H31 H 1.1239 0.7007 0.2845
C30 C 1.0603(6) 0.6866(5) 0.1522(4)
H32 H 0.9790 0.6663 0.1097
H33 H 1.1048 0.7680 0.1600
C31 C 1.0671(5) 0.4956(4) 0.1078(3)
H34 H 0.9817 0.4755 0.0693
C32 C 0.8574(6) 0.8013(5) 0.3787(4)
H35 H 0.7825 0.7731 0.3986
H36 H 0.8399 0.8531 0.3435
C33 C 0.9642(6) 0.8700(5) 0.4595(4)
C34 C 1.0208(7) 0.7949(5) 0.5043(4)
H37 H 1.0974 0.8439 0.5496
H38 H 0.9625 0.7587 0.5348
C35 C 1.0002(7) 0.9842(5) 0.4907(5)
H39 H 1.0642 1.0221 0.5434
H40 H 0.9620 1.0282 0.4603
C36 C 0.9186(6) 0.3212(5) 0.2797(4)
H41 H 1.0066 0.3319 0.3070
H42 H 0.9078 0.3063 0.2152
C37 C 0.8375(6) 0.2196(4) 0.2977(4)
C38 C 0.8042(7) 0.2294(5) 0.3771(5)
H43 H 0.8281 0.3029 0.4202
C39 C 0.7352(8) 0.1317(6) 0.3945(6)
H44 H 0.7140 0.1393 0.4495
C40 C 0.6983(7) 0.0240(5) 0.3309(5)
H45 H 0.6491 -0.0416 0.3413
C41 C 0.7330(6) 0.0137(5) 0.2546(5)
H46 H 0.7109 -0.0602 0.2121
C42 C 0.8018(7) 0.1111(5) 0.2371(4)
H47 H 0.8241 0.1020 0.1823
C43 C 1.1346(5) 0.4171(4) 0.0638(3)
C44 C 1.1739(6) 0.4345(5) -0.0110(4)
H48 H 1.1630 0.4982 -0.0304
C45 C 1.2290(6) 0.3585(5) -0.0568(4)
H49 H 1.2533 0.3697 -0.1081
C46 C 1.2483(6) 0.2665(5) -0.0277(4)
H50 H 1.2865 0.2154 -0.0586
C47 C 1.2117(7) 0.2497(5) 0.0465(5)
H51 H 1.2251 0.1870 0.0664
C48 C 1.1549(6) 0.3243(5) 0.0928(4)
H52 H 1.1302 0.3120 0.1437
O11 O 0.2408(4) 0.5729(3) 0.7381(3)
O12 O 0.5320(4) 0.6819(3) 0.9124(3)
O13 O 0.5334(4) 0.8138(3) 0.8301(2)
O14 O 0.3353(4) 0.5914(3) 0.5821(2)
O15 O 0.3473(4) 0.8781(3) 0.6888(3)
C49 C 0.1843(5) 0.6159(5) 0.6698(4)
H53 H 0.1439 0.6735 0.6969
C50 C 0.2770(5) 0.6728(4) 0.6252(4)
H54 H 0.2326 0.7013 0.5799
C51 C 0.3826(5) 0.7754(4) 0.6919(4)
H55 H 0.4605 0.7791 0.6717
C52 C 0.4037(6) 0.7604(4) 0.7846(4)
H56 H 0.3518 0.7982 0.8184
C53 C 0.3707(6) 0.6309(4) 0.7786(4)
H57 H 0.4210 0.5931 0.7432
C54 C 0.4020(6) 0.6219(5) 0.8715(4)
H58 H 0.3506 0.6569 0.9066
H59 H 0.3847 0.5397 0.8696
C55 C 0.5584(6) 0.8012(5) 0.9172(4)
H60 H 0.5052 0.8366 0.9513
C56 C 0.0843(5) 0.5121(5) 0.6007(4)
H61 H 0.0326 0.4682 0.6313
H62 H 0.0300 0.5404 0.5617
C57 C 0.1414(6) 0.4332(5) 0.5454(4)
C58 C 0.2448(6) 0.4949(5) 0.5126(4)
H63 H 0.2871 0.4392 0.4871
H64 H 0.2091 0.5238 0.4649
C59 C 0.1048(7) 0.3191(5) 0.5248(4)
H65 H 0.1438 0.2744 0.4888
H66 H 0.0396 0.2819 0.5461
C60 C 0.4459(6) 0.9828(5) 0.7367(4)
H67 H 0.5215 0.9803 0.7159
H68 H 0.4651 0.9902 0.8006
C61 C 0.4059(6) 1.0857(5) 0.7218(4)
C62 C 0.3375(6) 1.0815(5) 0.6394(5)
H69 H 0.3107 1.0114 0.5923
C63 C 0.3082(7) 1.1793(6) 0.6255(5)
H70 H 0.2619 1.1755 0.5692
C64 C 0.3475(7) 1.2832(5) 0.6953(6)
H71 H 0.3266 1.3497 0.6869
C65 C 0.4161(7) 1.2875(5) 0.7750(5)
H72 H 0.4445 1.3578 0.8220
C66 C 0.4450(6) 1.1896(5) 0.7885(4)
H73 H 0.4926 1.1945 0.8447
C67 C 0.6936(6) 0.8641(5) 0.9636(4)
C68 C 0.7528(7) 0.8300(5) 1.0321(4)
H74 H 0.7104 0.7651 1.0470
C69 C 0.8760(7) 0.8927(6) 1.0789(4)
H75 H 0.9163 0.8700 1.1256
C70 C 0.9386(7) 0.9871(6) 1.0573(5)
H76 H 1.0213 1.0293 1.0892
C71 C 0.8791(7) 1.0197(6) 0.9883(4)
H77 H 0.9223 1.0834 0.9726
C72 C 0.7572(6) 0.9599(5) 0.9425(4)
H78 H 0.7169 0.9841 0.8967
O16 O -0.2038(4) 0.5687(3) 0.7767(2)
O17 O 0.1059(4) 0.6910(3) 0.9289(2)
O18 O 0.0732(3) 0.8236(3) 0.8524(2)
O19 O -0.1736(4) 0.5975(3) 0.6047(2)
O20 O -0.1281(4) 0.8820(3) 0.7249(3)
C73 C -0.2833(5) 0.6149(5) 0.7228(4)
H79 H -0.3146 0.6705 0.7622
C74 C -0.2129(5) 0.6769(4) 0.6673(4)
H80 H -0.2703 0.7092 0.6333
C75 C -0.0966(5) 0.7771(4) 0.7229(4)
H81 H -0.0282 0.7747 0.6926
C76 C -0.0568(5) 0.7621(4) 0.8139(3)
H82 H -0.1072 0.7930 0.8532
C77 C -0.0741(5) 0.6337(4) 0.8055(3)
H83 H -0.0298 0.6014 0.7620
C78 C -0.0217(6) 0.6207(5) 0.8952(4)
H84 H -0.0706 0.6455 0.9370
H85 H -0.0270 0.5387 0.8890
C79 C 0.1120(5) 0.8093(4) 0.9375(3)
H86 H 0.0563 0.8327 0.9749
C80 C -0.3928(6) 0.5123(5) 0.6631(4)
H87 H -0.4258 0.4647 0.6993
H88 H -0.4595 0.5417 0.6378
C81 C -0.3573(6) 0.4379(5) 0.5890(4)
C82 C -0.2787(6) 0.5066(5) 0.5429(4)
H89 H -0.2484 0.4538 0.5013
H90 H -0.3304 0.5414 0.5079
C83 C -0.3913(8) 0.3233(6) 0.5636(5)
H91 H -0.4420 0.2823 0.5929
H92 H -0.3651 0.2824 0.5162
C84 C -0.0245(6) 0.9838(5) 0.7560(4)
H93 H 0.0390 0.9726 0.7233
H94 H 0.0129 0.9981 0.8195
C85 C -0.0647(6) 1.0868(5) 0.7432(4)
C86 C -0.1865(7) 1.0893(5) 0.7348(4)
H95 H -0.2481 1.0234 0.7344
C87 C -0.2192(7) 1.1886(5) 0.7269(5)
H96 H -0.3026 1.1894 0.7218
C88 C -0.1307(7) 1.2855(5) 0.7265(5)
H97 H -0.1528 1.3525 0.7208
C89 C -0.0106(8) 1.2827(5) 0.7345(4)
H98 H 0.0508 1.3492 0.7354
C90 C 0.0239(7) 1.1833(5) 0.7412(4)
H99 H 0.1069 1.1822 0.7444
C91 C 0.2441(6) 0.8847(4) 0.9820(3)
C92 C 0.3086(6) 0.8677(5) 1.0582(4)
H100 H 0.2725 0.8053 1.0783
C93 C 0.4258(6) 0.9426(6) 1.1043(4)
H101 H 0.4684 0.9317 1.1564
C94 C 0.4812(6) 1.0334(5) 1.0749(4)
H102 H 0.5608 1.0842 1.1068
C95 C 0.4188(6) 1.0490(5) 0.9985(4)
H103 H 0.4567 1.1098 0.9776
C96 C 0.2999(6) 0.9752(5) 0.9518(4)
H104 H 0.2576 0.9867 0.8999
loop_
_geom_bond_atom_site_label_1
_geom_bond_atom_site_label_2
_geom_bond_site_symmetry_1
_geom_bond_site_symmetry_2
O1 C1 1_555 1_555
O2 C6 1_555 1_555
O3 C4 1_555 1_555
O4 C2 1_555 1_555
O5 C3 1_555 1_555
C1 H1 1_555 1_555
C2 C1 1_555 1_555
H2 C2 1_555 1_555
C3 C2 1_555 1_555
H3 C3 1_555 1_555
C4 C3 1_555 1_555
H4 C4 1_555 1_555
C5 O1 1_555 1_555
H5 C5 1_555 1_555
C6 C5 1_555 1_555
H6 C6 1_555 1_555
H7 C6 1_555 1_555
C7 O2 1_555 1_555
H8 C7 1_555 1_555
C8 C1 1_555 1_555
H9 C8 1_555 1_555
H10 C8 1_555 1_555
C9 C8 1_555 1_555
C10 O4 1_555 1_555
H11 C10 1_555 1_555
H12 C10 1_555 1_555
C11 C9 1_555 1_555
H13 C11 1_555 1_555
H14 C11 1_555 1_555
C12 O5 1_555 1_555
H15 C12 1_555 1_555
H16 C12 1_555 1_555
C13 C12 1_555 1_555
C14 C13 1_555 1_555
H17 C14 1_555 1_555
C15 C14 1_555 1_555
H18 C15 1_555 1_555
C16 C15 1_555 1_555
H19 C16 1_555 1_555
C17 C16 1_555 1_555
H20 C17 1_555 1_555
C18 C13 1_555 1_555
H21 C18 1_555 1_555
C19 C7 1_555 1_555
C20 C19 1_555 1_555
H22 C20 1_555 1_555
C21 C20 1_555 1_555
H23 C21 1_555 1_555
C22 C21 1_555 1_555
H24 C22 1_555 1_555
C23 C22 1_555 1_555
H25 C23 1_555 1_555
C24 C19 1_555 1_555
H26 C24 1_555 1_555
O6 C25 1_555 1_555
O7 C30 1_555 1_555
O8 C28 1_555 1_555
O9 C26 1_555 1_555
O10 C27 1_555 1_555
C25 H27 1_555 1_555
C26 C25 1_555 1_555
H28 C26 1_555 1_555
C27 C26 1_555 1_555
H29 C27 1_555 1_555
C28 C27 1_555 1_555
H30 C28 1_555 1_555
C29 O6 1_555 1_555
H31 C29 1_555 1_555
C30 C29 1_555 1_555
H32 C30 1_555 1_555
H33 C30 1_555 1_555
C31 O7 1_555 1_555
H34 C31 1_555 1_555
C32 C25 1_555 1_555
H35 C32 1_555 1_555
H36 C32 1_555 1_555
C33 C32 1_555 1_555
C34 O9 1_555 1_555
H37 C34 1_555 1_555
H38 C34 1_555 1_555
C35 C33 1_555 1_555
H39 C35 1_555 1_555
H40 C35 1_555 1_555
C36 O10 1_555 1_555
H41 C36 1_555 1_555
H42 C36 1_555 1_555
C37 C36 1_555 1_555
C38 C37 1_555 1_555
H43 C38 1_555 1_555
C39 C38 1_555 1_555
H44 C39 1_555 1_555
C40 C39 1_555 1_555
H45 C40 1_555 1_555
C41 C40 1_555 1_555
H46 C41 1_555 1_555
C42 C37 1_555 1_555
H47 C42 1_555 1_555
C43 C31 1_555 1_555
C44 C43 1_555 1_555
H48 C44 1_555 1_555
C45 C44 1_555 1_555
H49 C45 1_555 1_555
C46 C45 1_555 1_555
H50 C46 1_555 1_555
C47 C46 1_555 1_555
H51 C47 1_555 1_555
C48 C43 1_555 1_555
H52 C48 1_555 1_555
O11 C49 1_555 1_555
O12 C54 1_555 1_555
O13 C52 1_555 1_555
O14 C50 1_555 1_555
O15 C51 1_555 1_555
C49 H53 1_555 1_555
C50 C49 1_555 1_555
H54 C50 1_555 1_555
C51 C50 1_555 1_555
H55 C51 1_555 1_555
C52 C51 1_555 1_555
H56 C52 1_555 1_555
C53 O11 1_555 1_555
H57 C53 1_555 1_555
C54 C53 1_555 1_555
H58 C54 1_555 1_555
H59 C54 1_555 1_555
C55 O12 1_555 1_555
H60 C55 1_555 1_555
C56 C49 1_555 1_555
H61 C56 1_555 1_555
H62 C56 1_555 1_555
C57 C56 1_555 1_555
C58 O14 1_555 1_555
H63 C58 1_555 1_555
H64 C58 1_555 1_555
C59 C57 1_555 1_555
H65 C59 1_555 1_555
H66 C59 1_555 1_555
C60 O15 1_555 1_555
H67 C60 1_555 1_555
H68 C60 1_555 1_555
C61 C60 1_555 1_555
C62 C61 1_555 1_555
H69 C62 1_555 1_555
C63 C62 1_555 1_555
H70 C63 1_555 1_555
C64 C63 1_555 1_555
H71 C64 1_555 1_555
C65 C64 1_555 1_555
H72 C65 1_555 1_555
C66 C61 1_555 1_555
H73 C66 1_555 1_555
C67 C55 1_555 1_555
C68 C67 1_555 1_555
H74 C68 1_555 1_555
C69 C68 1_555 1_555
H75 C69 1_555 1_555
C70 C69 1_555 1_555
H76 C70 1_555 1_555
C71 C70 1_555 1_555
H77 C71 1_555 1_555
C72 C67 1_555 1_555
H78 C72 1_555 1_555
O16 C73 1_555 1_555
O17 C78 1_555 1_555
O18 C76 1_555 1_555
O19 C74 1_555 1_555
O20 C75 1_555 1_555
C73 H79 1_555 1_555
C74 C73 1_555 1_555
H80 C74 1_555 1_555
C75 C74 1_555 1_555
H81 C75 1_555 1_555
C76 C75 1_555 1_555
H82 C76 1_555 1_555
C77 O16 1_555 1_555
H83 C77 1_555 1_555
C78 C77 1_555 1_555
H84 C78 1_555 1_555
H85 C78 1_555 1_555
C79 O17 1_555 1_555
H86 C79 1_555 1_555
C80 C73 1_555 1_555
H87 C80 1_555 1_555
H88 C80 1_555 1_555
C81 C80 1_555 1_555
C82 O19 1_555 1_555
H89 C82 1_555 1_555
H90 C82 1_555 1_555
C83 C81 1_555 1_555
H91 C83 1_555 1_555
H92 C83 1_555 1_555
C84 O20 1_555 1_555
H93 C84 1_555 1_555
H94 C84 1_555 1_555
C85 C84 1_555 1_555
C86 C85 1_555 1_555
H95 C86 1_555 1_555
C87 C86 1_555 1_555
H96 C87 1_555 1_555
C88 C87 1_555 1_555
H97 C88 1_555 1_555
C89 C88 1_555 1_555
H98 C89 1_555 1_555
C90 C85 1_555 1_555
H99 C90 1_555 1_555
C91 C79 1_555 1_555
C92 C91 1_555 1_555
H100 C92 1_555 1_555
C93 C92 1_555 1_555
H101 C93 1_555 1_555
C94 C93 1_555 1_555
H102 C94 1_555 1_555
C95 C94 1_555 1_555
H103 C95 1_555 1_555
C96 C91 1_555 1_555
H104 C96 1_555 1_555
O3 C7 1_555 1_555
C4 C5 1_555 1_555
C9 C10 1_555 1_555
C17 C18 1_555 1_555
C23 C24 1_555 1_555
O8 C31 1_555 1_555
C28 C29 1_555 1_555
C33 C34 1_555 1_555
C41 C42 1_555 1_555
C47 C48 1_555 1_555
O13 C55 1_555 1_555
C52 C53 1_555 1_555
C57 C58 1_555 1_555
C65 C66 1_555 1_555
C71 C72 1_555 1_555
O18 C79 1_555 1_555
C76 C77 1_555 1_555
C81 C82 1_555 1_555
C89 C90 1_555 1_555
C95 C96 1_555 1_555

#END
