
#######################################################################
#
#                 Cambridge Crystallographic Data Centre
#                                CCDC 
#
#######################################################################
#
# If this CIF has been generated from an entry in the Cambridge 
# Structural Database, then it will include bibliographic, chemical, 
# crystal, experimental, refinement or atomic coordinate data resulting 
# from the CCDC's data processing and validation procedures.
#
#######################################################################

data_SUQLAS01
_chemical_formula_moiety         'C30 H22'
_chemical_name_systematic        9,10-bis(2-phenylvinyl)anthracene
_symmetry_cell_setting           monoclinic
_symmetry_space_group_name_H-M   'P 21/n'
_symmetry_Int_Tables_number      14
_space_group_name_Hall           '-P 2yn'
loop_
_symmetry_equiv_pos_site_id
_symmetry_equiv_pos_as_xyz
1 x,y,z
2 1/2-x,1/2+y,1/2-z
3 -x,-y,-z
4 1/2+x,1/2-y,1/2+z
_cell_length_a                   5.2605(11)
_cell_length_b                   9.4604(19)
_cell_length_c                   20.691(4)
_cell_angle_alpha                90
_cell_angle_beta                 90.70(3)
_cell_angle_gamma                90
_cell_volume                     1029.64
_exptl_crystal_colour            yellow
_exptl_crystal_description       needle
_cell_formula_units_Z            2
loop_
_atom_site_label
_atom_site_type_symbol
_atom_site_fract_x
_atom_site_fract_y
_atom_site_fract_z
C1 C 1.1575(8) 0.3981(4) 0.65043(18)
H1 H 1.1989 0.3930 0.6069
C2 C 1.2969(8) 0.4829(5) 0.6899(2)
H2 H 1.4275 0.5375 0.6732
C3 C 1.2441(10) 0.4882(5) 0.7556(2)
H3 H 1.3414 0.5447 0.7831
C4 C 1.0516(10) 0.4111(5) 0.7790(2)
H4 H 1.0160 0.4146 0.8229
C5 C 0.9061(8) 0.3268(4) 0.73869(18)
H5 H 0.7731 0.2745 0.7557
C6 C 0.9557(7) 0.3187(4) 0.67260(17)
C7 C 0.7981(8) 0.2252(4) 0.63124(18)
H6 H 0.6618 0.1818 0.6515
C8 C 0.8243(7) 0.1961(4) 0.57133(17)
H7 H 0.9542 0.2413 0.5493
C9 C 0.6627(7) 0.0957(4) 0.53472(16)
C10 C 0.4757(7) 0.1470(4) 0.49085(17)
C11 C 0.3092(7) 0.0500(4) 0.45667(16)
C12 C 0.1188(8) 0.1091(4) 0.41555(17)
H8 H 0.0060 0.0484 0.3945
C13 C 0.0946(9) 0.2507(5) 0.40567(19)
H9 H -0.0316 0.2852 0.3780
C14 C 0.2611(8) 0.3443(5) 0.43741(18)
H10 H 0.2458 0.4410 0.4303
C15 C 0.4439(8) 0.2953(4) 0.47827(19)
H11 H 0.5519 0.3595 0.4988
C1B C -0.1575(8) -0.3981(4) 0.34957(18)
H1B H -0.1989 -0.3930 0.3931
C2B C -0.2969(8) -0.4829(5) 0.3101(2)
H2B H -0.4275 -0.5375 0.3268
C3B C -0.2441(10) -0.4882(5) 0.2444(2)
H3B H -0.3414 -0.5447 0.2169
C4B C -0.0516(10) -0.4111(5) 0.2210(2)
H4B H -0.0160 -0.4146 0.1771
C5B C 0.0939(8) -0.3268(4) 0.26131(18)
H5B H 0.2269 -0.2745 0.2443
C6B C 0.0443(7) -0.3187(4) 0.32740(17)
C7B C 0.2019(8) -0.2252(4) 0.36876(18)
H6B H 0.3382 -0.1818 0.3485
C8B C 0.1757(7) -0.1961(4) 0.42867(17)
H7B H 0.0458 -0.2413 0.4507
C9B C 0.3373(7) -0.0957(4) 0.46528(16)
C10B C 0.5243(7) -0.1470(4) 0.50915(17)
C11B C 0.6908(7) -0.0500(4) 0.54333(16)
C12B C 0.8812(8) -0.1091(4) 0.58445(17)
H8B H 0.9940 -0.0484 0.6055
C13B C 0.9054(9) -0.2507(5) 0.59433(19)
H9B H 1.0316 -0.2852 0.6220
C14B C 0.7389(8) -0.3443(5) 0.56259(18)
H10B H 0.7542 -0.4410 0.5697
C15B C 0.5561(8) -0.2953(4) 0.52173(19)
H11B H 0.4481 -0.3595 0.5012
loop_
_geom_bond_atom_site_label_1
_geom_bond_atom_site_label_2
_geom_bond_site_symmetry_1
_geom_bond_site_symmetry_2
C1 H1 1_555 1_555
C2 C1 1_555 1_555
H2 C2 1_555 1_555
C3 C2 1_555 1_555
H3 C3 1_555 1_555
C4 C3 1_555 1_555
H4 C4 1_555 1_555
C5 C4 1_555 1_555
H5 C5 1_555 1_555
C6 C1 1_555 1_555
C7 C6 1_555 1_555
H6 C7 1_555 1_555
C8 C7 1_555 1_555
H7 C8 1_555 1_555
C9 C8 1_555 1_555
C10 C9 1_555 1_555
C11 C10 1_555 1_555
C12 C11 1_555 1_555
H8 C12 1_555 1_555
C13 C12 1_555 1_555
H9 C13 1_555 1_555
C14 C13 1_555 1_555
H10 C14 1_555 1_555
C15 C10 1_555 1_555
H11 C15 1_555 1_555
C1B H1B 1_555 1_555
C2B C1B 1_555 1_555
H2B C2B 1_555 1_555
C3B C2B 1_555 1_555
H3B C3B 1_555 1_555
C4B C3B 1_555 1_555
H4B C4B 1_555 1_555
C5B C4B 1_555 1_555
H5B C5B 1_555 1_555
C6B C1B 1_555 1_555
C7B C6B 1_555 1_555
H6B C7B 1_555 1_555
C8B C7B 1_555 1_555
H7B C8B 1_555 1_555
C9B C11 1_555 1_555
C10B C9B 1_555 1_555
C11B C9 1_555 1_555
C12B C11B 1_555 1_555
H8B C12B 1_555 1_555
C13B C12B 1_555 1_555
H9B C13B 1_555 1_555
C14B C13B 1_555 1_555
H10B C14B 1_555 1_555
C15B C10B 1_555 1_555
H11B C15B 1_555 1_555
C5 C6 1_555 1_555
C14 C15 1_555 1_555
C5B C6B 1_555 1_555
C8B C9B 1_555 1_555
C10B C11B 1_555 1_555
C14B C15B 1_555 1_555

#END
