
#######################################################################
#
#                 Cambridge Crystallographic Data Centre
#                                CCDC 
#
#######################################################################
#
# If this CIF has been generated from an entry in the Cambridge 
# Structural Database, then it will include bibliographic, chemical, 
# crystal, experimental, refinement or atomic coordinate data resulting 
# from the CCDC's data processing and validation procedures.
#
#######################################################################

data_SUQLAS
_chemical_formula_moiety         'C30 H22'
_chemical_name_systematic        9,10-Distyrylanthracene
_symmetry_cell_setting           monoclinic
_symmetry_space_group_name_H-M   'P 21/n'
_symmetry_Int_Tables_number      14
_space_group_name_Hall           '-P 2yn'
loop_
_symmetry_equiv_pos_site_id
_symmetry_equiv_pos_as_xyz
1 x,y,z
2 1/2-x,1/2+y,1/2-z
3 -x,-y,-z
4 1/2+x,1/2-y,1/2+z
_cell_length_a                   5.2500(10)
_cell_length_b                   9.4591(19)
_cell_length_c                   20.734(4)
_cell_angle_alpha                90
_cell_angle_beta                 90.70(3)
_cell_angle_gamma                90
_cell_volume                     1029.58
_exptl_crystal_colour            yellow
_exptl_crystal_description       block
_cell_formula_units_Z            2
_exptl_crystal_recrystallization_method chloroform/ethanol
_exptl_crystal_preparation       luminescent
loop_
_atom_site_label
_atom_site_type_symbol
_atom_site_fract_x
_atom_site_fract_y
_atom_site_fract_z
C1 C 0.6890(5) 1.0506(3) 0.04321(13)
C2 C 0.7986(6) 0.7741(3) 0.13160(14)
H1 H 0.6611 0.8170 0.1516
C3 C 0.5239(5) 1.1481(3) 0.00925(13)
C4 C 0.6613(5) 0.9044(3) 0.03430(13)
C5 C 0.8259(6) 0.8039(3) 0.07100(15)
H2 H 0.9571 0.7595 0.0491
C6 C 0.5534(6) 1.2949(3) 0.02137(15)
H3 H 0.4455 1.3587 0.0006
C7 C 0.8821(6) 1.1086(3) 0.08473(14)
H4 H 0.9943 1.0478 0.1059
C8 C 0.9558(6) 0.6814(3) 0.17314(14)
C9 C 0.7353(7) 1.3445(4) 0.06258(16)
H5 H 0.7482 1.4411 0.0703
C10 C 0.9055(7) 1.2501(4) 0.09393(15)
H6 H 1.0336 1.2851 0.1209
C11 C 0.9058(7) 0.6732(4) 0.23832(15)
H7 H 0.7715 0.7252 0.2550
C12 C 1.1574(6) 0.6015(3) 0.14986(15)
H8 H 1.1968 0.6051 0.1063
C13 C 1.2986(7) 0.5175(4) 0.19078(17)
H9 H 1.4314 0.4637 0.1745
C14 C 1.0496(7) 0.5901(4) 0.27911(16)
H10 H 1.0133 0.5869 0.3229
C15 C 1.2461(7) 0.5122(4) 0.25520(17)
H11 H 1.3438 0.4556 0.2826
C1B C 0.3110(5) 0.9494(3) -0.04321(13)
C2B C 0.2014(6) 1.2259(3) -0.13160(14)
H1B H 0.3389 1.1830 -0.1516
C3B C 0.4761(5) 0.8519(3) -0.00925(13)
C4B C 0.3387(5) 1.0956(3) -0.03430(13)
C5B C 0.1741(6) 1.1961(3) -0.07100(15)
H2B H 0.0429 1.2405 -0.0491
C6B C 0.4466(6) 0.7051(3) -0.02137(15)
H3B H 0.5545 0.6413 -0.0006
C7B C 0.1179(6) 0.8914(3) -0.08473(14)
H4B H 0.0057 0.9522 -0.1059
C8B C 0.0442(6) 1.3186(3) -0.17314(14)
C9B C 0.2647(7) 0.6555(4) -0.06258(16)
H5B H 0.2518 0.5589 -0.0703
C10B C 0.0945(7) 0.7499(4) -0.09393(15)
H6B H -0.0336 0.7149 -0.1209
C11B C 0.0942(7) 1.3268(4) -0.23832(15)
H7B H 0.2285 1.2748 -0.2550
C12B C -0.1574(6) 1.3985(3) -0.14986(15)
H8B H -0.1968 1.3949 -0.1063
C13B C -0.2986(7) 1.4825(4) -0.19078(17)
H9B H -0.4314 1.5363 -0.1745
C14B C -0.0496(7) 1.4099(4) -0.27911(16)
H10B H -0.0133 1.4131 -0.3229
C15B C -0.2461(7) 1.4878(4) -0.25520(17)
H11B H -0.3438 1.5444 -0.2826
loop_
_geom_bond_atom_site_label_1
_geom_bond_atom_site_label_2
_geom_bond_site_symmetry_1
_geom_bond_site_symmetry_2
C1 C3 1_555 1_555
C2 H1 1_555 1_555
C3 C6 1_555 1_555
C4 C1 1_555 1_555
C5 C2 1_555 1_555
H2 C5 1_555 1_555
C6 H3 1_555 1_555
C7 C1 1_555 1_555
H4 C7 1_555 1_555
C8 C2 1_555 1_555
C9 C6 1_555 1_555
H5 C9 1_555 1_555
C10 C7 1_555 1_555
H6 C10 1_555 1_555
C11 C8 1_555 1_555
H7 C11 1_555 1_555
C12 C8 1_555 1_555
H8 C12 1_555 1_555
C13 C12 1_555 1_555
H9 C13 1_555 1_555
C14 C11 1_555 1_555
H10 C14 1_555 1_555
C15 C13 1_555 1_555
H11 C15 1_555 1_555
C1B C3B 1_555 1_555
C2B H1B 1_555 1_555
C3B C4 1_555 1_555
C4B C3 1_555 1_555
C5B C2B 1_555 1_555
H2B C5B 1_555 1_555
C6B C3B 1_555 1_555
H3B C6B 1_555 1_555
C7B C1B 1_555 1_555
H4B C7B 1_555 1_555
C8B C2B 1_555 1_555
C9B C6B 1_555 1_555
H5B C9B 1_555 1_555
C10B C7B 1_555 1_555
H6B C10B 1_555 1_555
C11B C8B 1_555 1_555
H7B C11B 1_555 1_555
C12B C8B 1_555 1_555
H8B C12B 1_555 1_555
C13B C12B 1_555 1_555
H9B C13B 1_555 1_555
C14B C11B 1_555 1_555
H10B C14B 1_555 1_555
C15B C13B 1_555 1_555
H11B C15B 1_555 1_555
C4 C5 1_555 1_555
C9 C10 1_555 1_555
C14 C15 1_555 1_555
C1B C4B 1_555 1_555
C4B C5B 1_555 1_555
C9B C10B 1_555 1_555
C14B C15B 1_555 1_555

#END
