
#######################################################################
#
#                 Cambridge Crystallographic Data Centre
#                                CCDC 
#
#######################################################################
#
# If this CIF has been generated from an entry in the Cambridge 
# Structural Database, then it will include bibliographic, chemical, 
# crystal, experimental, refinement or atomic coordinate data resulting 
# from the CCDC's data processing and validation procedures.
#
#######################################################################

data_SUQWIK02
_chemical_formula_moiety         'C16 H12 N2 O1'
_chemical_name_systematic        
1-((pyridin-2-yliminio)methyl)naphthalen-2-olate
_symmetry_cell_setting           monoclinic
_symmetry_space_group_name_H-M   'P 21/c'
_symmetry_Int_Tables_number      14
_space_group_name_Hall           '-P 2ybc'
loop_
_symmetry_equiv_pos_site_id
_symmetry_equiv_pos_as_xyz
1 x,y,z
2 -x,1/2+y,1/2-z
3 -x,-y,-z
4 x,1/2-y,1/2+z
_cell_length_a                   5.8437(4)
_cell_length_b                   17.4741(15)
_cell_length_c                   24.2721(17)
_cell_angle_alpha                90
_cell_angle_beta                 91.928(6)
_cell_angle_gamma                90
_cell_volume                     2477.1
_exptl_crystal_colour            'light yellow'
_exptl_crystal_description       needle
_cell_formula_units_Z            8
loop_
_atom_site_label
_atom_site_type_symbol
_atom_site_fract_x
_atom_site_fract_y
_atom_site_fract_z
O1 O 0.5814(6) 0.0652(2) -0.04860(14)
N1 N 0.3349(7) 0.1376(3) 0.01985(15)
H1 H 0.3665 0.0948 0.0044
N2 N 0.1083(7) 0.2064(3) 0.07976(17)
C1 C 0.7501(10) 0.3322(4) -0.0060(2)
H2 H 0.6262 0.3363 0.0168
C2 C 0.8902(10) 0.3946(4) -0.0127(2)
H3 H 0.8599 0.4399 0.0058
C3 C 1.0765(10) 0.3908(4) -0.0467(2)
H4 H 1.1703 0.4331 -0.0514
C4 C 1.1186(9) 0.3233(4) -0.0731(2)
H5 H 1.2441 0.3200 -0.0956
C5 C 0.9779(9) 0.2590(4) -0.0674(2)
C6 C 1.0182(9) 0.1899(4) -0.0956(2)
H6 H 1.1410 0.1881 -0.1190
C7 C 0.8890(9) 0.1266(4) -0.09071(19)
H7 H 0.9233 0.0829 -0.1107
C8 C 0.6966(9) 0.1262(4) -0.0544(2)
C9 C 0.6470(8) 0.1966(3) -0.02549(19)
C10 C 0.7892(9) 0.2622(4) -0.0329(2)
C11 C 0.4632(8) 0.1977(3) 0.00944(19)
H8 H 0.4285 0.2437 0.0265
C12 C 0.1480(9) 0.1404(4) 0.0553(2)
C13 C 0.0157(9) 0.0754(3) 0.06091(19)
H9 H 0.0524 0.0301 0.0431
C14 C -0.1719(9) 0.0796(4) 0.0936(2)
H10 H -0.2663 0.0374 0.0981
C15 C -0.2164(10) 0.1477(4) 0.1195(2)
H11 H -0.3410 0.1520 0.1421
C16 C -0.0753(9) 0.2092(4) 0.1116(2)
H12 H -0.1084 0.2550 0.1291
O2 O 0.1632(7) 0.4052(2) 0.28648(15)
N3 N -0.0947(7) 0.4464(3) 0.20688(17)
H13 H -0.0580 0.4146 0.2327
N4 N -0.3445(8) 0.4778(3) 0.1328(2)
C17 C 0.3110(9) 0.6480(4) 0.1938(2)
H14 H 0.1773 0.6444 0.1720
C18 C 0.4461(10) 0.7109(4) 0.1888(2)
H15 H 0.4038 0.7494 0.1640
C19 C 0.6483(10) 0.7178(4) 0.2208(2)
H16 H 0.7403 0.7609 0.2177
C20 C 0.7089(10) 0.6612(4) 0.2564(2)
H17 H 0.8443 0.6656 0.2774
C21 C 0.5706(10) 0.5958(4) 0.2621(2)
C22 C 0.6297(10) 0.5379(4) 0.3013(2)
H18 H 0.7662 0.5426 0.3219
C23 C 0.4963(11) 0.4771(4) 0.3097(2)
H19 H 0.5402 0.4416 0.3366
C24 C 0.2839(10) 0.4650(4) 0.2776(2)
C25 C 0.2268(9) 0.5212(3) 0.2364(2)
C26 C 0.3653(9) 0.5891(3) 0.23006(19)
C27 C 0.0352(9) 0.5080(3) 0.2018(2)
H20 H -0.0023 0.5435 0.1743
C28 C -0.2897(10) 0.4294(4) 0.1728(2)
C29 C -0.4094(10) 0.3629(4) 0.1842(2)
H21 H -0.3625 0.3303 0.2127
C30 C -0.5998(11) 0.3474(4) 0.1516(3)
H22 H -0.6870 0.3039 0.1580
C31 C -0.6598(11) 0.3958(5) 0.1101(3)
H23 H -0.7872 0.3855 0.0873
C32 C -0.5316(11) 0.4601(5) 0.1018(2)
H24 H -0.5762 0.4931 0.0733
loop_
_geom_bond_atom_site_label_1
_geom_bond_atom_site_label_2
_geom_bond_site_symmetry_1
_geom_bond_site_symmetry_2
O1 C8 1_555 1_555
N1 H1 1_555 1_555
N2 C12 1_555 1_555
C1 H2 1_555 1_555
C2 C1 1_555 1_555
H3 C2 1_555 1_555
C3 C2 1_555 1_555
H4 C3 1_555 1_555
C4 C3 1_555 1_555
H5 C4 1_555 1_555
C5 C4 1_555 1_555
C6 C5 1_555 1_555
H6 C6 1_555 1_555
C7 C6 1_555 1_555
H7 C7 1_555 1_555
C8 C7 1_555 1_555
C9 C8 1_555 1_555
C10 C1 1_555 1_555
C11 N1 1_555 1_555
H8 C11 1_555 1_555
C12 N1 1_555 1_555
C13 C12 1_555 1_555
H9 C13 1_555 1_555
C14 C13 1_555 1_555
H10 C14 1_555 1_555
C15 C14 1_555 1_555
H11 C15 1_555 1_555
C16 N2 1_555 1_555
H12 C16 1_555 1_555
O2 C24 1_555 1_555
N3 H13 1_555 1_555
N4 C28 1_555 1_555
C17 H14 1_555 1_555
C18 C17 1_555 1_555
H15 C18 1_555 1_555
C19 C18 1_555 1_555
H16 C19 1_555 1_555
C20 C19 1_555 1_555
H17 C20 1_555 1_555
C21 C20 1_555 1_555
C22 C21 1_555 1_555
H18 C22 1_555 1_555
C23 C22 1_555 1_555
H19 C23 1_555 1_555
C24 C23 1_555 1_555
C25 C24 1_555 1_555
C26 C17 1_555 1_555
C27 N3 1_555 1_555
H20 C27 1_555 1_555
C28 N3 1_555 1_555
C29 C28 1_555 1_555
H21 C29 1_555 1_555
C30 C29 1_555 1_555
H22 C30 1_555 1_555
C31 C30 1_555 1_555
H23 C31 1_555 1_555
C32 N4 1_555 1_555
H24 C32 1_555 1_555
C5 C10 1_555 1_555
C9 C10 1_555 1_555
C9 C11 1_555 1_555
C15 C16 1_555 1_555
C21 C26 1_555 1_555
C25 C26 1_555 1_555
C25 C27 1_555 1_555
C31 C32 1_555 1_555

#END
