
#######################################################################
#
#                 Cambridge Crystallographic Data Centre
#                                CCDC 
#
#######################################################################
#
# If this CIF has been generated from an entry in the Cambridge 
# Structural Database, then it will include bibliographic, chemical, 
# crystal, experimental, refinement or atomic coordinate data resulting 
# from the CCDC's data processing and validation procedures.
#
#######################################################################

data_SUQYUA
_chemical_formula_moiety         'C33 H27 N1 O2'
_chemical_name_systematic        
3-(4-(bis(4-methylphenyl)amino)phenyl)-1-(1-hydroxy-2-naphthyl)prop-2-en-1-one
_symmetry_cell_setting           monoclinic
_symmetry_space_group_name_H-M   'P 21/n'
_symmetry_Int_Tables_number      14
_space_group_name_Hall           '-P 2yn'
loop_
_symmetry_equiv_pos_site_id
_symmetry_equiv_pos_as_xyz
1 x,y,z
2 1/2-x,1/2+y,1/2-z
3 -x,-y,-z
4 1/2+x,1/2-y,1/2+z
_cell_length_a                   10.002(2)
_cell_length_b                   10.071(2)
_cell_length_c                   25.105(5)
_cell_angle_alpha                90
_cell_angle_beta                 97.61(3)
_cell_angle_gamma                90
_cell_volume                     2506.56
_exptl_crystal_colour            red
_exptl_crystal_description       block
_cell_formula_units_Z            4
loop_
_atom_site_label
_atom_site_type_symbol
_atom_site_fract_x
_atom_site_fract_y
_atom_site_fract_z
H1 H -0.3178 0.4819 -0.0985
H2 H -0.5677 0.6938 -0.1307
H3 H -0.7240 0.8584 -0.1241
H4 H -0.7445 0.9567 -0.0409
H5 H -0.6067 0.8912 0.0348
H6 H -0.2565 0.5921 0.0732
H7 H -0.4137 0.7548 0.0785
H8 H -0.1256 0.4348 0.0698
H9 H -0.0184 0.2707 -0.0024
H10 H -0.0074 0.3333 0.1400
H11 H 0.1468 0.2473 0.2074
H12 H 0.3295 0.0488 0.0961
H13 H 0.1708 0.1347 0.0291
H14 H 0.6154 0.0558 0.2172
H15 H 0.7346 -0.1412 0.2159
H16 H 0.3901 -0.3369 0.1666
H17 H 0.2696 -0.1423 0.1700
H18 H 0.7466 -0.3695 0.1850
H19 H 0.6117 -0.4434 0.1593
H20 H 0.6505 -0.4377 0.2231
H21 H 0.4147 0.3517 0.2072
H22 H 0.4943 0.4732 0.2838
H23 H 0.4769 0.1476 0.3757
H24 H 0.3913 0.0265 0.2998
H25 H 0.6482 0.3740 0.3976
H26 H 0.5011 0.3825 0.4158
H27 H 0.5507 0.4956 0.3782
C1 C -0.5738(4) 0.7342(4) -0.09689(14)
C2 C -0.6666(4) 0.8306(4) -0.09290(16)
C3 C -0.6787(4) 0.8896(4) -0.04328(17)
C4 C -0.5967(4) 0.8511(4) 0.00124(16)
C5 C -0.4969(4) 0.7531(3) -0.00078(14)
C6 C -0.4857(3) 0.6935(3) -0.05080(12)
C7 C -0.3861(3) 0.5939(3) -0.05346(12)
C8 C -0.3019(3) 0.5533(3) -0.00739(12)
C9 C -0.3146(3) 0.6171(3) 0.04172(12)
C10 C -0.4079(4) 0.7133(4) 0.04494(14)
C11 C -0.2040(4) 0.4476(3) -0.01188(13)
C12 C -0.1163(3) 0.3981(3) 0.03563(13)
C13 C -0.0250(3) 0.3043(3) 0.03248(13)
C14 C 0.0665(3) 0.2468(3) 0.07641(12)
C15 C 0.0617(3) 0.2763(3) 0.13081(12)
C16 C 0.1534(3) 0.2257(3) 0.17104(13)
C17 C 0.2567(3) 0.1424(3) 0.15865(12)
C18 C 0.2617(3) 0.1076(3) 0.10518(12)
C19 C 0.1670(3) 0.1596(3) 0.06541(13)
C20 C 0.4287(3) -0.0236(3) 0.19451(12)
C21 C 0.5687(3) -0.0245(3) 0.20748(14)
C22 C 0.6395(3) -0.1420(3) 0.20617(14)
C23 C 0.5756(3) -0.2614(3) 0.19106(12)
C24 C 0.4369(3) -0.2573(3) 0.17749(12)
C25 C 0.3648(3) -0.1411(3) 0.17933(13)
C26 C 0.6528(3) -0.3891(3) 0.18947(14)
C27 C 0.3972(3) 0.1769(3) 0.24628(12)
C28 C 0.4271(3) 0.3098(3) 0.24138(12)
C29 C 0.4755(3) 0.3813(3) 0.28711(13)
C30 C 0.4973(3) 0.3228(3) 0.33739(12)
C31 C 0.4646(3) 0.1897(3) 0.34148(12)
C32 C 0.4142(3) 0.1173(3) 0.29635(13)
C33 C 0.5543(4) 0.4005(4) 0.38656(14)
N1 N 0.3553(3) 0.0960(3) 0.19966(10)
O1 O -0.3768(3) 0.5417(3) -0.10154(8)
O2 O -0.1929(3) 0.3985(3) -0.05702(9)
loop_
_geom_bond_atom_site_label_1
_geom_bond_atom_site_label_2
_geom_bond_site_symmetry_1
_geom_bond_site_symmetry_2
H1 O1 1_555 1_555
H2 C1 1_555 1_555
H3 C2 1_555 1_555
H4 C3 1_555 1_555
H5 C4 1_555 1_555
H6 C9 1_555 1_555
H7 C10 1_555 1_555
H8 C12 1_555 1_555
H9 C13 1_555 1_555
H10 C15 1_555 1_555
H11 C16 1_555 1_555
H12 C18 1_555 1_555
H13 C19 1_555 1_555
H14 C21 1_555 1_555
H15 C22 1_555 1_555
H16 C24 1_555 1_555
H17 C25 1_555 1_555
H18 C26 1_555 1_555
H19 C26 1_555 1_555
H20 C26 1_555 1_555
H21 C28 1_555 1_555
H22 C29 1_555 1_555
H23 C31 1_555 1_555
H24 C32 1_555 1_555
H25 C33 1_555 1_555
H26 C33 1_555 1_555
H27 C33 1_555 1_555
C1 C2 1_555 1_555
C2 C3 1_555 1_555
C3 C4 1_555 1_555
C4 C5 1_555 1_555
C5 C6 1_555 1_555
C6 C1 1_555 1_555
C7 C6 1_555 1_555
C8 C7 1_555 1_555
C9 C8 1_555 1_555
C10 C5 1_555 1_555
C11 C8 1_555 1_555
C12 C11 1_555 1_555
C13 C12 1_555 1_555
C14 C13 1_555 1_555
C15 C14 1_555 1_555
C16 C15 1_555 1_555
C17 C16 1_555 1_555
C18 C17 1_555 1_555
C19 C14 1_555 1_555
C20 C21 1_555 1_555
C21 C22 1_555 1_555
C22 C23 1_555 1_555
C23 C24 1_555 1_555
C24 C25 1_555 1_555
C25 C20 1_555 1_555
C26 C23 1_555 1_555
C27 C28 1_555 1_555
C28 C29 1_555 1_555
C29 C30 1_555 1_555
C30 C31 1_555 1_555
C31 C32 1_555 1_555
C32 C27 1_555 1_555
C33 C30 1_555 1_555
N1 C17 1_555 1_555
O1 C7 1_555 1_555
O2 C11 1_555 1_555
C9 C10 1_555 1_555
C18 C19 1_555 1_555
C20 N1 1_555 1_555
C27 N1 1_555 1_555

#END
