
#######################################################################
#
#                 Cambridge Crystallographic Data Centre
#                                CCDC 
#
#######################################################################
#
# If this CIF has been generated from an entry in the Cambridge 
# Structural Database, then it will include bibliographic, chemical, 
# crystal, experimental, refinement or atomic coordinate data resulting 
# from the CCDC's data processing and validation procedures.
#
#######################################################################

data_SURBUC
_chemical_formula_moiety         'C18 H17 N3 O3'
_chemical_name_systematic        
1-Methoxy-2-(4-phenyl-1,2,4-triazole-3,5-dione-2-yl)indan
_symmetry_cell_setting           monoclinic
_symmetry_space_group_name_H-M   'P 21/n'
_symmetry_Int_Tables_number      14
_space_group_name_Hall           '-P 2yn'
loop_
_symmetry_equiv_pos_site_id
_symmetry_equiv_pos_as_xyz
1 x,y,z
2 1/2-x,1/2+y,1/2-z
3 -x,-y,-z
4 1/2+x,1/2-y,1/2+z
_cell_length_a                   7.693(3)
_cell_length_b                   10.650(5)
_cell_length_c                   19.061
_cell_angle_alpha                90
_cell_angle_beta                 90.79(1)
_cell_angle_gamma                90
_cell_volume                     1561.53
_exptl_crystal_colour            white
_chemical_melting_point          205-206deg.C
_cell_formula_units_Z            4
loop_
_atom_site_label
_atom_site_type_symbol
_atom_site_fract_x
_atom_site_fract_y
_atom_site_fract_z
N1 N 0.4861(4) -0.0387(3) 0.3037(2)
N2 N 0.3488(4) 0.0590(3) 0.2170(2)
N3 N 0.2423(4) -0.0405(3) 0.2421(2)
O1 O 0.6061(3) 0.1458(2) 0.2599(1)
O2 O 0.2926(3) -0.2047(2) 0.3195(1)
O3 O 0.2299(3) -0.2758(2) 0.1299(1)
C1 C 0.8648(5) -0.1862(4) 0.3920(2)
C2 C 0.8731(5) -0.1190(4) 0.4542(2)
C3 C 0.7527(5) -0.0254(4) 0.4666(2)
C4 C 0.6238(5) 0.0019(4) 0.4173(2)
C5 C 0.6168(4) -0.0679(3) 0.3557(2)
C6 C 0.7357(5) -0.1618(4) 0.3423(2)
C7 C 0.4934(5) 0.0659(4) 0.2604(2)
C8 C 0.3344(5) -0.1047(3) 0.2920(2)
C9 C 0.1094(5) -0.0948(3) 0.1965(2)
C10 C -0.0382(5) -0.0026(4) 0.1773(2)
C11 C -0.1081(5) -0.0589(4) 0.1102(2)
C12 C 0.0143(5) -0.1375(3) 0.0797(2)
C13 C 0.1743(5) -0.1473(4) 0.1259(2)
C14 C -0.2693(5) -0.0403(4) 0.0772(2)
C15 C -0.3036(5) -0.0994(4) 0.0139(2)
C16 C -0.1798(5) -0.1758(4) -0.0172(2)
C17 C -0.0192(5) -0.1940(4) 0.0159(2)
C18 C 0.4112(5) -0.2920(4) 0.1452(2)
H1 H 0.3223 0.1144 0.1743
H2 H 0.9537 -0.2530 0.3826
H3 H 0.9657 -0.1397 0.4919
H4 H 0.7613 0.0251 0.5113
H5 H 0.5351 0.0706 0.4262
H6 H 0.7275 -0.2131 0.2980
H7 H 0.0655 -0.1675 0.2254
H8 H 0.0097 0.0853 0.1699
H9 H -0.1281 0.0020 0.2148
H10 H 0.2804 -0.0984 0.1093
H11 H -0.3612 0.0143 0.0999
H12 H -0.4198 -0.0864 -0.0117
H13 H -0.2063 -0.2176 -0.0635
H14 H 0.0728 -0.2484 -0.0062
H15 H 0.4808 -0.2300 0.1167
H16 H 0.4477 -0.3792 0.1313
H17 H 0.4460 -0.2787 0.1990
loop_
_geom_bond_atom_site_label_1
_geom_bond_atom_site_label_2
_geom_bond_site_symmetry_1
_geom_bond_site_symmetry_2
N1 C5 1_555 1_555
N2 N3 1_555 1_555
N3 C8 1_555 1_555
O1 C7 1_555 1_555
O2 C8 1_555 1_555
O3 C13 1_555 1_555
C1 C2 1_555 1_555
C2 C3 1_555 1_555
C3 C4 1_555 1_555
C4 C5 1_555 1_555
C5 C6 1_555 1_555
C6 C1 1_555 1_555
C7 N1 1_555 1_555
C8 N1 1_555 1_555
C9 N3 1_555 1_555
C10 C9 1_555 1_555
C11 C10 1_555 1_555
C12 C11 1_555 1_555
C13 C9 1_555 1_555
C14 C11 1_555 1_555
C15 C14 1_555 1_555
C16 C15 1_555 1_555
C17 C12 1_555 1_555
C18 O3 1_555 1_555
H1 N2 1_555 1_555
H2 C1 1_555 1_555
H3 C2 1_555 1_555
H4 C3 1_555 1_555
H5 C4 1_555 1_555
H6 C6 1_555 1_555
H7 C9 1_555 1_555
H8 C10 1_555 1_555
H9 C10 1_555 1_555
H10 C13 1_555 1_555
H11 C14 1_555 1_555
H12 C15 1_555 1_555
H13 C16 1_555 1_555
H14 C17 1_555 1_555
H15 C18 1_555 1_555
H16 C18 1_555 1_555
H17 C18 1_555 1_555
N2 C7 1_555 1_555
C12 C13 1_555 1_555
C16 C17 1_555 1_555

#END
