
#######################################################################
#
#                 Cambridge Crystallographic Data Centre
#                                CCDC 
#
#######################################################################
#
# If this CIF has been generated from an entry in the Cambridge 
# Structural Database, then it will include bibliographic, chemical, 
# crystal, experimental, refinement or atomic coordinate data resulting 
# from the CCDC's data processing and validation procedures.
#
#######################################################################

data_SURCAJ
_chemical_formula_moiety         'C13 H17 N3 O3'
_chemical_name_systematic        
2-(1-Methyl-2-methoxypropyl)-4-phenyl-1,2,4-triazole-3,5-dione
_symmetry_cell_setting           orthorhombic
_symmetry_space_group_name_H-M   'P 21 21 21'
_symmetry_Int_Tables_number      19
_space_group_name_Hall           'P 2ac 2ab'
loop_
_symmetry_equiv_pos_site_id
_symmetry_equiv_pos_as_xyz
1 x,y,z
2 1/2-x,-y,1/2+z
3 1/2+x,1/2-y,-z
4 -x,1/2+y,1/2-z
_cell_length_a                   7.095(1)
_cell_length_b                   10.05(1)
_cell_length_c                   19.793(4)
_cell_angle_alpha                90
_cell_angle_beta                 90
_cell_angle_gamma                90
_cell_volume                     1411.33
_cell_formula_units_Z            4
loop_
_atom_site_label
_atom_site_type_symbol
_atom_site_fract_x
_atom_site_fract_y
_atom_site_fract_z
C1 C 0.81602 0.32762 0.07922
C2 C 0.94507(59) 0.38870(38) 0.13260(18)
C3 C 0.83516(54) 0.46455(36) 0.18632(18)
C4 C 0.71876(75) 0.57953(54) 0.15801(27)
C5 C 1.21845(89) 0.25220(65) 0.13680(34)
C6 C 1.24989(55) 0.59035(36) 0.26905(19)
C7 C 1.01008(52) 0.44491(35) 0.29382(17)
C8 C 1.28164(54) 0.45267(34) 0.37424(18)
C9 C 1.18532(69) 0.45311(44) 0.43509(21)
C10 C 1.27699(80) 0.41097(48) 0.49276(22)
C11 C 1.46356(82) 0.37156(49) 0.48875(26)
C12 C 1.55934(73) 0.37291(54) 0.42904(26)
C13 C 1.46978(59) 0.41401(42) 0.37028(23)
N1 N 0.96361(41) 0.51490(28) 0.23824(13)
N2 N 1.12017(49) 0.59327(32) 0.21774(16)
N3 N 1.18774(42) 0.49287(29) 0.31432(14)
O1 O 1.38946(37) 0.65901(27) 0.27493(14)
O2 O 0.92022(37) 0.35776(23) 0.32276(12)
O3 O 1.04493(41) 0.28671(26) 0.16728(13)
H1 H 0.7264(52) 0.2741(36) 0.1005(18)
H2 H 0.7702(64) 0.4031(41) 0.0493(20)
H3 H 0.8884(71) 0.2856(48) 0.0464(22)
H4 H 1.0450(54) 0.4575(37) 0.1095(17)
H5 H 0.7445(50) 0.4013(32) 0.2132(16)
H6 H 0.652(11) 0.6372(73) 0.1895(32)
H7 H 0.8056(73) 0.6598(51) 0.1419(24)
H8 H 0.6152(71) 0.5504(46) 0.1313(22)
H9 H 1.202(13) 0.2367(89) 0.0776(43)
H10 H 1.2495(89) 0.1734(61) 0.1595(30)
H11 H 1.2963(95) 0.3671(70) 0.1258(33)
H12 H 1.0558(59) 0.4782(39) 0.4369(19)
H13 H 1.1964(62) 0.4247(43) 0.5418(22)
H14 H 1.5229(75) 0.3417(49) 0.5355(24)
H15 H 1.7219(92) 0.3746(62) 0.4215(30)
H16 H 1.5455(65) 0.4171(47) 0.3227(23)
H17 H 1.0934(60) 0.6698(40) 0.2038(19)
loop_
_geom_bond_atom_site_label_1
_geom_bond_atom_site_label_2
_geom_bond_site_symmetry_1
_geom_bond_site_symmetry_2
C1 C2 1_555 1_555
C2 C3 1_555 1_555
C3 C4 1_555 1_555
C4 H6 1_555 1_555
C5 O3 1_555 1_555
C6 N2 1_555 1_555
C7 N1 1_555 1_555
C8 C9 1_555 1_555
C9 C10 1_555 1_555
C10 C11 1_555 1_555
C11 C12 1_555 1_555
C12 C13 1_555 1_555
C13 C8 1_555 1_555
N1 C3 1_555 1_555
N2 N1 1_555 1_555
N3 C6 1_555 1_555
O1 C6 1_555 1_555
O2 C7 1_555 1_555
O3 C2 1_555 1_555
H1 C1 1_555 1_555
H2 C1 1_555 1_555
H3 C1 1_555 1_555
H4 C2 1_555 1_555
H5 C3 1_555 1_555
H7 C4 1_555 1_555
H8 C4 1_555 1_555
H9 C5 1_555 1_555
H10 C5 1_555 1_555
H11 C5 1_555 1_555
H12 C9 1_555 1_555
H13 C10 1_555 1_555
H14 C11 1_555 1_555
H15 C12 1_555 1_555
H16 C13 1_555 1_555
H17 N2 1_555 1_555
C7 N3 1_555 1_555
C8 N3 1_555 1_555

#END
