
#######################################################################
#
#                 Cambridge Crystallographic Data Centre
#                                CCDC 
#
#######################################################################
#
# If this CIF has been generated from an entry in the Cambridge 
# Structural Database, then it will include bibliographic, chemical, 
# crystal, experimental, refinement or atomic coordinate data resulting 
# from the CCDC's data processing and validation procedures.
#
#######################################################################

data_SURDOX05
_chemical_formula_moiety         'C1 H4 N2 O2 S1'
_chemical_name_systematic        'Thiourea S,S-dioxide'
_symmetry_cell_setting           orthorhombic
_symmetry_space_group_name_H-M   'P n m a'
_symmetry_Int_Tables_number      62
_space_group_name_Hall           '-P 2ac 2n'
loop_
_symmetry_equiv_pos_site_id
_symmetry_equiv_pos_as_xyz
1 x,y,z
2 1/2-x,-y,1/2+z
3 1/2+x,1/2-y,1/2-z
4 -x,1/2+y,-z
5 -x,-y,-z
6 1/2+x,y,1/2-z
7 1/2-x,1/2+y,1/2+z
8 x,1/2-y,z
_cell_length_a                   10.669(2)
_cell_length_b                   10.119(2)
_cell_length_c                   3.9151(5)
_cell_angle_alpha                90
_cell_angle_beta                 90
_cell_angle_gamma                90
_cell_volume                     422.673
_exptl_crystal_colour            colorless
_exptl_crystal_description       rectangular
_cell_formula_units_Z            4
_exptl_crystal_recrystallization_method acetone
loop_
_atom_site_label
_atom_site_type_symbol
_atom_site_fract_x
_atom_site_fract_y
_atom_site_fract_z
S1 S 0.4599(2) 0.7500 0.6355(5)
O1 O 0.4007(3) 0.8719(3) 0.4916(9)
N1 N 0.6633(5) 0.6363(4) 0.3389(14)
C1 C 0.6121(6) 0.7500 0.3998(18)
H1 H 0.629(5) 0.565(4) 0.376(13)
H2 H 0.739(5) 0.623(4) 0.250(12)
O1G O 0.4007(3) 0.6281(3) 0.4916(9)
N1G N 0.6633(5) 0.8637(4) 0.3389(14)
H1G H 0.629(5) 0.935(4) 0.376(13)
H2G H 0.739(5) 0.877(4) 0.250(12)
loop_
_geom_bond_atom_site_label_1
_geom_bond_atom_site_label_2
_geom_bond_site_symmetry_1
_geom_bond_site_symmetry_2
S1 O1 1_555 1_555
N1 C1 1_555 1_555
C1 S1 1_555 1_555
H1 N1 1_555 1_555
H2 N1 1_555 1_555
O1G S1 1_555 1_555
N1G C1 1_555 1_555
H1G N1G 1_555 1_555
H2G N1G 1_555 1_555

#END
