
#######################################################################
#
#                 Cambridge Crystallographic Data Centre
#                                CCDC 
#
#######################################################################
#
# If this CIF has been generated from an entry in the Cambridge 
# Structural Database, then it will include bibliographic, chemical, 
# crystal, experimental, refinement or atomic coordinate data resulting 
# from the CCDC's data processing and validation procedures.
#
#######################################################################

data_SURMEY
_chemical_formula_moiety         'C14 H13 N1 O2'
_chemical_name_systematic        '2-((4-Methylphenyl)amino)benzoic acid'
_symmetry_cell_setting           triclinic
_symmetry_space_group_name_H-M   'P -1'
_symmetry_Int_Tables_number      2
_space_group_name_Hall           '-P 1'
loop_
_symmetry_equiv_pos_site_id
_symmetry_equiv_pos_as_xyz
1 x,y,z
2 -x,-y,-z
_cell_length_a                   6.4397(13)
_cell_length_b                   7.3561(15)
_cell_length_c                   13.882(3)
_cell_angle_alpha                93.33(3)
_cell_angle_beta                 91.87(3)
_cell_angle_gamma                113.99(3)
_cell_volume                     598.643
_exptl_crystal_colour            colorless
_exptl_crystal_description       block
_cell_formula_units_Z            2
_exptl_crystal_recrystallization_method sublimation
_exptl_crystal_preparation       fluorescent
loop_
_atom_site_label
_atom_site_type_symbol
_atom_site_fract_x
_atom_site_fract_y
_atom_site_fract_z
C1 C 0.2206(4) -0.0730(3) 0.06645(14)
C2 C 0.0048(3) -0.1261(3) 0.11313(14)
C3 C -0.1784(4) -0.3056(3) 0.08263(16)
H1 H -0.1585 -0.3904 0.0350
C4 C -0.3866(4) -0.3600(3) 0.12089(17)
H2 H -0.5074 -0.4792 0.0990
C5 C -0.4141(4) -0.2348(3) 0.19251(17)
H3 H -0.5553 -0.2702 0.2185
C6 C -0.2374(4) -0.0595(3) 0.22611(16)
H4 H -0.2597 0.0209 0.2753
C7 C -0.0235(3) 0.0003(3) 0.18729(15)
C8 C 0.1435(4) 0.3310(3) 0.28189(15)
C9 C 0.3079(4) 0.4195(3) 0.35640(16)
H5 H 0.4176 0.3706 0.3688
C10 C 0.3085(5) 0.5812(4) 0.41243(16)
H6 H 0.4207 0.6405 0.4621
C11 C 0.1484(4) 0.6567(3) 0.39693(17)
C12 C -0.0141(4) 0.5675(3) 0.32189(18)
H7 H -0.1244 0.6161 0.3100
C13 C -0.0160(4) 0.4076(3) 0.26423(17)
H8 H -0.1253 0.3512 0.2132
C14 C 0.1479(6) 0.8334(4) 0.4589(2)
H9 H 0.1260 0.9259 0.4181
H10 H 0.2909 0.8984 0.4958
H11 H 0.0266 0.7876 0.5020
N1 N 0.1554(3) 0.1735(3) 0.22162(14)
H12 H 0.2884 0.1882 0.2049
O1 O 0.3932(2) 0.0796(2) 0.08955(11)
O2 O 0.2178(3) -0.2012(2) -0.00408(11)
H13 H 0.3430 -0.1618 -0.0269
loop_
_geom_bond_atom_site_label_1
_geom_bond_atom_site_label_2
_geom_bond_site_symmetry_1
_geom_bond_site_symmetry_2
C1 C2 1_555 1_555
C2 C3 1_555 1_555
C3 H1 1_555 1_555
C4 C3 1_555 1_555
H2 C4 1_555 1_555
C5 C4 1_555 1_555
H3 C5 1_555 1_555
C6 C5 1_555 1_555
H4 C6 1_555 1_555
C7 C2 1_555 1_555
C8 C9 1_555 1_555
C9 H5 1_555 1_555
C10 C9 1_555 1_555
H6 C10 1_555 1_555
C11 C10 1_555 1_555
C12 C11 1_555 1_555
H7 C12 1_555 1_555
C13 C8 1_555 1_555
H8 C13 1_555 1_555
C14 C11 1_555 1_555
H9 C14 1_555 1_555
H10 C14 1_555 1_555
H11 C14 1_555 1_555
N1 C7 1_555 1_555
H12 N1 1_555 1_555
O1 C1 1_555 1_555
O2 C1 1_555 1_555
H13 O2 1_555 1_555
C6 C7 1_555 1_555
C8 N1 1_555 1_555
C12 C13 1_555 1_555

#END
