
#######################################################################
#
#                 Cambridge Crystallographic Data Centre
#                                CCDC 
#
#######################################################################
#
# If this CIF has been generated from an entry in the Cambridge 
# Structural Database, then it will include bibliographic, chemical, 
# crystal, experimental, refinement or atomic coordinate data resulting 
# from the CCDC's data processing and validation procedures.
#
#######################################################################

data_SURQAZ
_chemical_formula_moiety         'C17 H18 Br1 N1'
_chemical_name_systematic        9-(5-bromopentyl)-9H-carbazole
_symmetry_cell_setting           orthorhombic
_symmetry_space_group_name_H-M   'P b c a'
_symmetry_Int_Tables_number      61
_space_group_name_Hall           '-P 2ac 2ab'
loop_
_symmetry_equiv_pos_site_id
_symmetry_equiv_pos_as_xyz
1 x,y,z
2 1/2-x,-y,1/2+z
3 -x,1/2+y,1/2-z
4 1/2+x,1/2-y,-z
5 -x,-y,-z
6 1/2+x,y,1/2-z
7 x,1/2-y,1/2+z
8 1/2-x,1/2+y,z
_cell_length_a                   17.503(4)
_cell_length_b                   8.0333(16)
_cell_length_c                   21.133(4)
_cell_angle_alpha                90
_cell_angle_beta                 90
_cell_angle_gamma                90
_cell_volume                     2971.44
_exptl_crystal_colour            colorless
_exptl_crystal_description       block
_cell_formula_units_Z            8
loop_
_atom_site_label
_atom_site_type_symbol
_atom_site_fract_x
_atom_site_fract_y
_atom_site_fract_z
Br1 Br 0.21003(18) 0.6669(11) -0.0176(2)
C1 C 0.1280(12) 0.648(2) -0.0102(12)
H1 H 0.1197 0.6105 -0.0527
H2 H 0.0865 0.7224 -0.0009
N1 N 0.0962(4) 0.0069(7) 0.1480(3)
C2 C 0.0773(5) -0.2007(8) 0.2189(4)
C3 C -0.0499(5) -0.2948(11) 0.1729(4)
H3 H -0.0582 -0.3823 0.2009
C4 C 0.0147(5) -0.2003(8) 0.1775(3)
C5 C 0.1275(5) -0.0696(8) 0.2004(4)
C6 C 0.1947(5) -0.0352(10) 0.2305(4)
H4 H 0.2274 0.0480 0.2163
C7 C 0.0272(5) -0.0688(9) 0.1343(3)
C8 C 0.1282(5) 0.1488(8) 0.1153(4)
H5 H 0.1121 0.1462 0.0713
H6 H 0.1835 0.1411 0.1161
C9 C 0.0988(7) -0.2940(10) 0.2726(4)
H7 H 0.0677 -0.3798 0.2871
C10 C 0.1037(5) 0.3138(9) 0.1447(4)
H8 H 0.1218 0.3198 0.1880
H9 H 0.0484 0.3209 0.1453
C11 C 0.2118(5) -0.1305(13) 0.2833(5)
H10 H 0.2562 -0.1066 0.3057
C12 C 0.0983(5) 0.4859(13) 0.0454(6)
H11 H 0.0448 0.5056 0.0548
H12 H 0.1009 0.3810 0.0228
C13 C -0.0258(6) -0.0323(11) 0.0878(4)
H13 H -0.0174 0.0545 0.0596
C14 C -0.1019(6) -0.2597(13) 0.1270(6)
H14 H -0.1458 -0.3246 0.1236
C15 C 0.1370(5) 0.4609(9) 0.1060(4)
H15 H 0.1329 0.5620 0.1309
H16 H 0.1908 0.4405 0.0983
C16 C 0.1669(7) -0.2571(12) 0.3039(5)
H17 H 0.1816 -0.3195 0.3389
C17 C -0.0906(6) -0.1262(15) 0.0843(5)
H18 H -0.1273 -0.1025 0.0538
Br2? Br 0.1902(3) 0.7707(6) 0.0103(2)
loop_
_geom_bond_atom_site_label_1
_geom_bond_atom_site_label_2
_geom_bond_site_symmetry_1
_geom_bond_site_symmetry_2
Br1 C1 1_555 1_555
C1 H1 1_555 1_555
H2 C1 1_555 1_555
N1 C5 1_555 1_555
C2 C4 1_555 1_555
C3 H3 1_555 1_555
C4 C3 1_555 1_555
C5 C2 1_555 1_555
C6 C5 1_555 1_555
H4 C6 1_555 1_555
C7 N1 1_555 1_555
C8 N1 1_555 1_555
H5 C8 1_555 1_555
H6 C8 1_555 1_555
C9 C2 1_555 1_555
H7 C9 1_555 1_555
C10 C8 1_555 1_555
H8 C10 1_555 1_555
H9 C10 1_555 1_555
C11 C6 1_555 1_555
H10 C11 1_555 1_555
C12 C1 1_555 1_555
H11 C12 1_555 1_555
H12 C12 1_555 1_555
C13 C7 1_555 1_555
H13 C13 1_555 1_555
C14 C3 1_555 1_555
H14 C14 1_555 1_555
C15 C10 1_555 1_555
H15 C15 1_555 1_555
H16 C15 1_555 1_555
C16 C9 1_555 1_555
H17 C16 1_555 1_555
C17 C13 1_555 1_555
H18 C17 1_555 1_555
C4 C7 1_555 1_555
C11 C16 1_555 1_555
C12 C15 1_555 1_555
C14 C17 1_555 1_555

#END
