
#######################################################################
#
#                 Cambridge Crystallographic Data Centre
#                                CCDC 
#
#######################################################################
#
# If this CIF has been generated from an entry in the Cambridge 
# Structural Database, then it will include bibliographic, chemical, 
# crystal, experimental, refinement or atomic coordinate data resulting 
# from the CCDC's data processing and validation procedures.
#
#######################################################################

data_SURRUS
_chemical_formula_moiety         'C15 H11 N3 O3,C4 H10 O1'
_chemical_name_systematic        
'1-Acetyl-4-((2-phenyl-5-oxo-4(5H)-oxazolidene)methyl)-1H-imidazole diethyl ether solvate'
_symmetry_cell_setting           monoclinic
_symmetry_space_group_name_H-M   'C 2/c'
_symmetry_Int_Tables_number      15
_space_group_name_Hall           '-C 2yn'
loop_
_symmetry_equiv_pos_site_id
_symmetry_equiv_pos_as_xyz
1 x,y,z
2 -x,y,1/2-z
3 1/2+x,1/2+y,z
4 1/2-x,1/2+y,1/2-z
5 -x,-y,-z
6 x,-y,1/2+z
7 1/2-x,1/2-y,-z
8 1/2+x,1/2-y,1/2+z
_cell_length_a                   7.3734(5)
_cell_length_b                   24.865(2)
_cell_length_c                   18.020(2)
_cell_angle_alpha                90
_cell_angle_beta                 98.251(10)
_cell_angle_gamma                90
_cell_volume                     3269.58
_exptl_crystal_colour            yellow
_chemical_melting_point          188-190deg.C
_cell_formula_units_Z            8
loop_
_atom_site_label
_atom_site_type_symbol
_atom_site_fract_x
_atom_site_fract_y
_atom_site_fract_z
O1 O 0.1944(6) -0.07585(14) 0.8341(2)
O2 O 0.1497(5) 0.00335(13) 0.89065(18)
O3 O 0.3763(6) 0.19354(15) 0.5999(2)
N1 N 0.3746(5) 0.10359(15) 0.5826(2)
N2 N 0.3781(6) 0.01418(16) 0.5850(2)
N3 N 0.2137(5) 0.06281(15) 0.8029(2)
C1 C 0.2844(6) -0.0022(2) 0.7088(3)
C2 C 0.4048(7) 0.0563(2) 0.5465(3)
C3 C 0.3284(6) 0.03456(19) 0.6522(2)
C4 C 0.3270(6) 0.0887(2) 0.6503(2)
C5 C 0.2340(6) 0.01114(19) 0.7748(3)
C6 C 0.1937(7) -0.0276(2) 0.8315(3)
C7 C 0.1666(6) 0.05624(18) 0.8679(2)
C8 C 0.3875(7) 0.1575(2) 0.5565(3)
C9 C 0.4159(8) 0.1637(2) 0.4777(3)
C10 C 0.1321(6) 0.09776(19) 0.9210(2)
C11 C 0.1349(7) 0.1513(2) 0.8987(3)
C12 C 0.1030(8) 0.1914(2) 0.9469(3)
C13 C 0.0709(8) 0.1796(2) 1.0185(3)
C14 C 0.0689(7) 0.1269(2) 1.0411(3)
C15 C 0.0983(7) 0.0857(2) 0.9930(3)
H1 H 0.2936 -0.0414 0.6975
H2 H 0.4421 0.0546 0.4957
H3 H 0.3000 0.1135 0.6903
H4 H 0.3239 0.1468 0.4444
H5 H 0.5335 0.1496 0.4705
H6 H 0.4171 0.2018 0.4650
H7 H 0.1594 0.1596 0.8479
H8 H 0.1071 0.2297 0.9330
H9 H 0.0483 0.2078 1.0530
H10 H 0.0480 0.1178 1.0913
H11 H 0.0967 0.0482 1.0096
O4 O 0.5000 0.1568(9) 0.2500
C17 C 0.236(4) 0.2042(14) 0.2622(19)
C18 C 0.321(3) 0.1835(8) 0.1988(10)
C18A C 0.679(3) 0.1835(8) 0.3012(10)
C17A C 0.764(4) 0.2042(14) 0.2378(19)
C16? C 0.4827(19) 0.2156(5) 0.1813(7)
C19? C 0.334(3) 0.2440(8) 0.2531(11)
loop_
_geom_bond_atom_site_label_1
_geom_bond_atom_site_label_2
_geom_bond_site_symmetry_1
_geom_bond_site_symmetry_2
O1 C6 1_555 1_555
O2 C6 1_555 1_555
O3 C8 1_555 1_555
O4 C18 1_555 1_555
N1 C2 1_555 1_555
N2 C2 1_555 1_555
N3 C5 1_555 1_555
C1 C3 1_555 1_555
C2 H2 1_555 1_555
C3 N2 1_555 1_555
C4 N1 1_555 1_555
C5 C1 1_555 1_555
C6 C5 1_555 1_555
C7 O2 1_555 1_555
C8 N1 1_555 1_555
C9 C8 1_555 1_555
C10 C7 1_555 1_555
C11 C10 1_555 1_555
C12 C11 1_555 1_555
C13 C12 1_555 1_555
C14 C13 1_555 1_555
C15 C10 1_555 1_555
C17 C18 1_555 1_555
H1 C1 1_555 1_555
H3 C4 1_555 1_555
H4 C9 1_555 1_555
H5 C9 1_555 1_555
H6 C9 1_555 1_555
H7 C11 1_555 1_555
H8 C12 1_555 1_555
H9 C13 1_555 1_555
H10 C14 1_555 1_555
H11 C15 1_555 1_555
C18A O4 1_555 1_555
C17A C18A 1_555 1_555
N3 C7 1_555 1_555
C3 C4 1_555 1_555
C14 C15 1_555 1_555

#END
