
#######################################################################
#
#                 Cambridge Crystallographic Data Centre
#                                CCDC 
#
#######################################################################
#
# If this CIF has been generated from an entry in the Cambridge 
# Structural Database, then it will include bibliographic, chemical, 
# crystal, experimental, refinement or atomic coordinate data resulting 
# from the CCDC's data processing and validation procedures.
#
#######################################################################

data_SURROO
_chemical_formula_moiety         'C22 H18 Br1 N1 O6'
_chemical_name_systematic        
1-(4-Bromo-3-(4-methoxyphenyl)isoquinolinium-2-yl)-1,2-bis(methoxycarbonyl)-2-oxoethanide
_symmetry_cell_setting           triclinic
_symmetry_space_group_name_H-M   'P -1'
_symmetry_Int_Tables_number      2
_space_group_name_Hall           '-P 1'
loop_
_symmetry_equiv_pos_site_id
_symmetry_equiv_pos_as_xyz
1 x,y,z
2 -x,-y,-z
_cell_length_a                   8.3521(2)
_cell_length_b                   15.6627(3)
_cell_length_c                   17.7796(4)
_cell_angle_alpha                74.3250(10)
_cell_angle_beta                 89.989(2)
_cell_angle_gamma                77.0820(10)
_cell_volume                     2178.19
_exptl_crystal_colour            colorless
_cell_formula_units_Z            4
loop_
_atom_site_label
_atom_site_type_symbol
_atom_site_fract_x
_atom_site_fract_y
_atom_site_fract_z
Br1 Br 0.44668(12) 0.60539(5) 0.41476(5)
C1 C 0.5416(8) 0.8197(5) 0.2014(4)
H1 H 0.5336 0.8074 0.1534
C2 C 0.5096(8) 0.7588(4) 0.2677(3)
H2 H 0.4819 0.7055 0.2644
C3 C 0.5185(7) 0.7768(4) 0.3406(3)
C4 C 0.5590(6) 0.8583(4) 0.3433(3)
C5 C 0.5941(8) 0.9208(4) 0.2727(3)
H3 H 0.6219 0.9745 0.2745
C6 C 0.5861(8) 0.9002(5) 0.2039(3)
H4 H 0.6101 0.9395 0.1582
C7 C 0.4908(7) 0.7187(4) 0.4141(3)
C8 C 0.5008(7) 0.7395(4) 0.4831(3)
C9 C 0.4713(9) 0.6810(4) 0.5615(3)
C10 C 0.3127(10) 0.6767(5) 0.5815(4)
H5 H 0.2247 0.7108 0.5461
C11 C 0.2819(11) 0.6228(6) 0.6532(5)
H6 H 0.1749 0.6191 0.6652
C12 C 0.4125(12) 0.5747(6) 0.7063(5)
C13 C 0.5720(13) 0.5759(7) 0.6862(5)
H7 H 0.6605 0.5397 0.7205
C14 C 0.5993(10) 0.6319(5) 0.6138(4)
H8 H 0.7061 0.6356 0.6014
C15 C 0.5023(18) 0.4706(9) 0.8322(6)
H9 H 0.4575 0.4379 0.8778
H10 H 0.5612 0.5106 0.8463
H11 H 0.5760 0.4280 0.8108
C16 C 0.5547(7) 0.8492(4) 0.5517(3)
C17 C 0.7141(7) 0.8379(4) 0.5804(3)
C18 C 0.4125(7) 0.8827(4) 0.5875(3)
C19 C 0.1230(9) 0.9112(8) 0.5849(6)
H12 H 0.0300 0.9111 0.5533
H13 H 0.1140 0.9713 0.5908
H14 H 0.1257 0.8688 0.6355
C20 C 0.7408(7) 0.8752(4) 0.6488(3)
C21 C 0.7968(14) 0.8400(6) 0.7839(4)
H15 H 0.8131 0.7892 0.8299
H16 H 0.7043 0.8865 0.7893
H17 H 0.8936 0.8641 0.7776
C22 C 0.5662(6) 0.8786(4) 0.4145(3)
H18 H 0.5922 0.9330 0.4155
N1 N 0.5372(5) 0.8228(3) 0.4811(2)
O1 O 0.3725(10) 0.5225(5) 0.7755(4)
O2 O 0.8423(6) 0.8028(4) 0.5534(3)
O3 O 0.4103(5) 0.9085(3) 0.6461(2)
O4 O 0.2713(5) 0.8851(3) 0.5480(2)
O5 O 0.7497(5) 0.9522(3) 0.6416(2)
O6 O 0.7657(7) 0.8104(3) 0.7161(3)
Br2 Br -0.09763(11) 0.60271(5) 0.25458(4)
C23 C -0.0197(9) 0.7371(6) 0.3491(4)
H19 H -0.0623 0.6867 0.3716
C24 C 0.0153(9) 0.7916(7) 0.3935(4)
H20 H -0.0040 0.7768 0.4465
C25 C 0.0783(10) 0.8676(6) 0.3617(5)
H21 H 0.1003 0.9032 0.3929
C26 C 0.1068(8) 0.8889(5) 0.2861(4)
H22 H 0.1499 0.9395 0.2652
C27 C 0.0740(7) 0.8376(4) 0.2369(3)
C28 C 0.0106(7) 0.7598(4) 0.2682(3)
C29 C -0.0176(7) 0.7083(4) 0.2158(3)
C30 C 0.0089(6) 0.7348(3) 0.1372(3)
C31 C 0.1020(7) 0.8605(4) 0.1583(3)
H23 H 0.1441 0.9115 0.1378
C32 C -0.0306(7) 0.6902(4) 0.0782(3)
C33 C -0.1946(7) 0.6959(4) 0.0579(4)
H24 H -0.2773 0.7219 0.0855
C34 C -0.2355(8) 0.6640(4) -0.0018(4)
H25 H -0.3453 0.6669 -0.0140
C35 C -0.1123(8) 0.6270(4) -0.0446(3)
C36 C 0.0501(8) 0.6177(4) -0.0231(3)
H26 H 0.1325 0.5898 -0.0497
C37 C 0.0915(7) 0.6492(4) 0.0376(3)
H27 H 0.2017 0.6431 0.0514
C38 C -0.0494(12) 0.5738(6) -0.1560(5)
H28 H -0.1024 0.5583 -0.1968
H29 H 0.0313 0.5214 -0.1266
H30 H 0.0035 0.6223 -0.1789
C39 C 0.1043(7) 0.8434(4) 0.0289(3)
C40 C 0.2645(7) 0.8153(4) 0.0105(3)
C41 C -0.0318(7) 0.8917(4) -0.0251(3)
C42 C -0.3235(9) 0.9423(7) -0.0368(5)
H31 H -0.4152 0.9472 -0.0044
H32 H -0.3356 0.9041 -0.0695
H33 H -0.3198 1.0018 -0.0690
C43 C 0.3038(8) 0.8411(5) -0.0747(4)
C44 C 0.3294(16) 0.7925(10) -0.1890(5)
H34 H 0.3176 0.7419 -0.2074
H35 H 0.4407 0.7994 -0.1938
H36 H 0.2556 0.8471 -0.2196
N2 N 0.0714(5) 0.8126(3) 0.1102(2)
O7 O -0.1666(7) 0.6018(3) -0.1064(3)
O8 O 0.3829(5) 0.7689(4) 0.0573(3)
O9 O -0.0260(5) 0.9203(3) -0.0953(2)
O10 O -0.1736(5) 0.9031(3) 0.0118(2)
O11 O 0.3548(8) 0.9058(5) -0.1069(3)
O12 O 0.2905(7) 0.7760(4) -0.1070(3)
loop_
_geom_bond_atom_site_label_1
_geom_bond_atom_site_label_2
_geom_bond_site_symmetry_1
_geom_bond_site_symmetry_2
Br1 C7 1_555 1_555
C1 H1 1_555 1_555
C2 C1 1_555 1_555
H2 C2 1_555 1_555
C3 C2 1_555 1_555
C4 C3 1_555 1_555
C5 C4 1_555 1_555
H3 C5 1_555 1_555
C6 C1 1_555 1_555
H4 C6 1_555 1_555
C7 C3 1_555 1_555
C8 C7 1_555 1_555
C9 C8 1_555 1_555
C10 C9 1_555 1_555
H5 C10 1_555 1_555
C11 C10 1_555 1_555
H6 C11 1_555 1_555
C12 C11 1_555 1_555
C13 C12 1_555 1_555
H7 C13 1_555 1_555
C14 C9 1_555 1_555
H8 C14 1_555 1_555
C15 H9 1_555 1_555
H10 C15 1_555 1_555
H11 C15 1_555 1_555
C16 C17 1_555 1_555
C17 C20 1_555 1_555
C18 C16 1_555 1_555
C19 H12 1_555 1_555
H13 C19 1_555 1_555
H14 C19 1_555 1_555
C20 O5 1_555 1_555
C21 H15 1_555 1_555
H16 C21 1_555 1_555
H17 C21 1_555 1_555
C22 C4 1_555 1_555
H18 C22 1_555 1_555
N1 C8 1_555 1_555
O1 C12 1_555 1_555
O2 C17 1_555 1_555
O3 C18 1_555 1_555
O4 C18 1_555 1_555
O6 C20 1_555 1_555
Br2 C29 1_555 1_555
C23 H19 1_555 1_555
C24 C23 1_555 1_555
H20 C24 1_555 1_555
C25 C24 1_555 1_555
H21 C25 1_555 1_555
C26 C25 1_555 1_555
H22 C26 1_555 1_555
C27 C26 1_555 1_555
C28 C23 1_555 1_555
C29 C28 1_555 1_555
C30 C29 1_555 1_555
C31 C27 1_555 1_555
H23 C31 1_555 1_555
C32 C30 1_555 1_555
C33 C32 1_555 1_555
H24 C33 1_555 1_555
C34 C33 1_555 1_555
H25 C34 1_555 1_555
C35 C34 1_555 1_555
C36 C35 1_555 1_555
H26 C36 1_555 1_555
C37 C32 1_555 1_555
H27 C37 1_555 1_555
C38 H28 1_555 1_555
H29 C38 1_555 1_555
H30 C38 1_555 1_555
C39 C40 1_555 1_555
C40 C43 1_555 1_555
C41 C39 1_555 1_555
C42 H31 1_555 1_555
H32 C42 1_555 1_555
H33 C42 1_555 1_555
C43 O11 1_555 1_555
C44 H34 1_555 1_555
H35 C44 1_555 1_555
H36 C44 1_555 1_555
N2 C30 1_555 1_555
O7 C35 1_555 1_555
O8 C40 1_555 1_555
O9 C41 1_555 1_555
O10 C41 1_555 1_555
O12 C43 1_555 1_555
C5 C6 1_555 1_555
C13 C14 1_555 1_555
C15 O1 1_555 1_555
C16 N1 1_555 1_555
C19 O4 1_555 1_555
C21 O6 1_555 1_555
C22 N1 1_555 1_555
C27 C28 1_555 1_555
C31 N2 1_555 1_555
C36 C37 1_555 1_555
C38 O7 1_555 1_555
C39 N2 1_555 1_555
C42 O10 1_555 1_555
C44 O12 1_555 1_555

#END
