
#######################################################################
#
#                 Cambridge Crystallographic Data Centre
#                                CCDC 
#
#######################################################################
#
# If this CIF has been generated from an entry in the Cambridge 
# Structural Database, then it will include bibliographic, chemical, 
# crystal, experimental, refinement or atomic coordinate data resulting 
# from the CCDC's data processing and validation procedures.
#
#######################################################################

data_SURTEG
_chemical_formula_moiety         'C21 H17 N1 O3 S1'
_chemical_name_systematic        
'4-(2-(2-(Pyridin-2-ylsulfinyl)phenyl)vinyl)phenyl acetate'
_symmetry_cell_setting           monoclinic
_symmetry_space_group_name_H-M   'P 21/c'
_symmetry_Int_Tables_number      14
_space_group_name_Hall           '-P 2ybc'
loop_
_symmetry_equiv_pos_site_id
_symmetry_equiv_pos_as_xyz
1 x,y,z
2 -x,1/2+y,1/2-z
3 -x,-y,-z
4 x,1/2-y,1/2+z
_cell_length_a                   5.1178(2)
_cell_length_b                   23.1935(6)
_cell_length_c                   15.3254(5)
_cell_angle_alpha                90
_cell_angle_beta                 99.668(3)
_cell_angle_gamma                90
_cell_volume                     1793.28
_exptl_crystal_colour            colorless
_exptl_crystal_description       needle
_cell_formula_units_Z            4
loop_
_atom_site_label
_atom_site_type_symbol
_atom_site_fract_x
_atom_site_fract_y
_atom_site_fract_z
S1 S 0.26786(12) 0.31253(3) -0.05844(4)
O1 O -0.1515(4) 0.56553(9) 0.34242(17)
O2 O -0.3835(3) 0.48818(8) 0.36707(13)
O3 O 0.2137(4) 0.27273(8) -0.13501(11)
N1 N 0.5359(5) 0.41058(9) -0.03326(14)
C1 C -0.5141(6) 0.57576(14) 0.4207(2)
H1 H -0.6921 0.5638 0.3980
H2 H -0.4985 0.6166 0.4124
H3 H -0.4730 0.5669 0.4827
C2 C -0.3266(5) 0.54490(12) 0.37278(17)
C3 C -0.2126(5) 0.45147(10) 0.32975(17)
C4 C -0.0463(6) 0.41646(13) 0.38513(17)
H4 H -0.0421 0.4184 0.4460
C5 C 0.1152(6) 0.37828(13) 0.35069(17)
H5 H 0.2271 0.3542 0.3886
C6 C 0.1138(5) 0.37506(10) 0.26000(14)
C7 C -0.0639(5) 0.40985(11) 0.20585(16)
H6 H -0.0734 0.4075 0.1448
C8 C -0.2274(5) 0.44789(11) 0.24008(17)
H7 H -0.3461 0.4708 0.2026
C9 C 0.2943(5) 0.33483(10) 0.22665(15)
H8 H 0.3907 0.3105 0.2684
C10 C 0.3361(5) 0.32905(10) 0.14543(15)
H9 H 0.2415 0.3534 0.1033
C11 C 0.5179(4) 0.28791(9) 0.11391(14)
C12 C 0.7086(5) 0.25756(10) 0.17252(15)
H10 H 0.7199 0.2634 0.2331
C13 C 0.8795(5) 0.21938(10) 0.14295(17)
H11 H 1.0042 0.1998 0.1834
C14 C 0.8666(5) 0.21003(10) 0.05344(18)
H12 H 0.9827 0.1842 0.0335
C15 C 0.6830(5) 0.23876(10) -0.00588(16)
H13 H 0.6734 0.2323 -0.0662
C16 C 0.5112(4) 0.27754(9) 0.02358(14)
C17 C 0.4929(4) 0.36662(10) -0.08846(14)
C18 C 0.5957(5) 0.36019(13) -0.16445(17)
H14 H 0.5508 0.3289 -0.2019
C19 C 0.7688(6) 0.40204(17) -0.1832(2)
H15 H 0.8485 0.3991 -0.2332
C20 C 0.8216(7) 0.44775(16) -0.1274(3)
H16 H 0.9380 0.4765 -0.1389
C21 C 0.7019(7) 0.45094(14) -0.0544(2)
H17 H 0.7374 0.4828 -0.0174
loop_
_geom_bond_atom_site_label_1
_geom_bond_atom_site_label_2
_geom_bond_site_symmetry_1
_geom_bond_site_symmetry_2
S1 O3 1_555 1_555
O1 C2 1_555 1_555
O2 C2 1_555 1_555
N1 C17 1_555 1_555
C1 H1 1_555 1_555
H2 C1 1_555 1_555
H3 C1 1_555 1_555
C2 C1 1_555 1_555
C3 O2 1_555 1_555
C4 C3 1_555 1_555
H4 C4 1_555 1_555
C5 C4 1_555 1_555
H5 C5 1_555 1_555
C6 C5 1_555 1_555
C7 C6 1_555 1_555
H6 C7 1_555 1_555
C8 C3 1_555 1_555
H7 C8 1_555 1_555
C9 C6 1_555 1_555
H8 C9 1_555 1_555
C10 C9 1_555 1_555
H9 C10 1_555 1_555
C11 C10 1_555 1_555
C12 C11 1_555 1_555
H10 C12 1_555 1_555
C13 C12 1_555 1_555
H11 C13 1_555 1_555
C14 C13 1_555 1_555
H12 C14 1_555 1_555
C15 C14 1_555 1_555
H13 C15 1_555 1_555
C16 S1 1_555 1_555
C17 S1 1_555 1_555
C18 C17 1_555 1_555
H14 C18 1_555 1_555
C19 C18 1_555 1_555
H15 C19 1_555 1_555
C20 C19 1_555 1_555
H16 C20 1_555 1_555
C21 N1 1_555 1_555
H17 C21 1_555 1_555
C7 C8 1_555 1_555
C11 C16 1_555 1_555
C15 C16 1_555 1_555
C20 C21 1_555 1_555

#END
