
#######################################################################
#
#                 Cambridge Crystallographic Data Centre
#                                CCDC 
#
#######################################################################
#
# If this CIF has been generated from an entry in the Cambridge 
# Structural Database, then it will include bibliographic, chemical, 
# crystal, experimental, refinement or atomic coordinate data resulting 
# from the CCDC's data processing and validation procedures.
#
#######################################################################

data_SURXEJ
_chemical_formula_moiety         
'C30 H34 B1 S1 1+,C1 F3 O3 S1 1-,0.5(C1 H2 Cl2)'
_chemical_name_systematic        
'(8-(Dimesitylboryl)-1-naphthyl)(dimethyl)sulfonium trifluoromethanesulfonate dichloromethane solvate'
_symmetry_cell_setting           triclinic
_symmetry_space_group_name_H-M   'P -1'
_symmetry_Int_Tables_number      2
_space_group_name_Hall           '-P 1'
loop_
_symmetry_equiv_pos_site_id
_symmetry_equiv_pos_as_xyz
1 x,y,z
2 -x,-y,-z
_cell_length_a                   8.5182(17)
_cell_length_b                   10.144(2)
_cell_length_c                   18.638(4)
_cell_angle_alpha                104.31(3)
_cell_angle_beta                 92.55(3)
_cell_angle_gamma                102.84(3)
_cell_volume                     1513.05
_exptl_crystal_colour            colorless
_exptl_crystal_description       block
_cell_formula_units_Z            2
loop_
_atom_site_label
_atom_site_type_symbol
_atom_site_fract_x
_atom_site_fract_y
_atom_site_fract_z
F1 F 0.3638(3) 0.8616(2) 0.38267(13)
O1 O 0.3449(3) 0.5538(2) 0.45902(11)
S2 S 0.29012(8) 0.60891(7) 0.40148(4)
O2 O 0.3375(3) 0.5557(2) 0.32987(11)
F2 F 0.3729(3) 0.85577(19) 0.49689(12)
F3 F 0.5612(2) 0.8037(2) 0.43123(13)
O3 O 0.1255(3) 0.6213(3) 0.40330(14)
C31 C 0.4021(4) 0.7914(3) 0.42930(18)
S1 S 0.77091(7) 0.40283(6) 0.32760(3)
C1 C 0.5965(3) 0.2073(3) 0.17345(13)
B1 B 0.7215(3) 0.3341(3) 0.15677(15)
C2 C 0.5384(3) 0.0970(3) 0.11097(14)
H1 H 0.5953 0.0940 0.0681
C3 C 0.4004(3) -0.0105(3) 0.10734(15)
H2 H 0.3658 -0.0840 0.0630
C4 C 0.3165(3) -0.0090(3) 0.16745(14)
H3 H 0.2199 -0.0793 0.1643
C5 C 0.2844(3) 0.0951(3) 0.29760(15)
H4 H 0.1873 0.0248 0.2935
C6 C 0.3366(3) 0.1923(3) 0.36353(15)
H5 H 0.2734 0.1931 0.4043
C7 C 0.4834(3) 0.2910(3) 0.37127(14)
H6 H 0.5229 0.3566 0.4180
C8 C 0.5703(3) 0.2933(3) 0.31152(14)
C9 C 0.3712(3) 0.0962(3) 0.23499(14)
C10 C 0.5161(3) 0.2021(2) 0.23941(14)
C11 C 0.8473(3) 0.2937(2) 0.10090(14)
C12 C 0.9606(3) 0.2209(3) 0.11749(14)
C13 C 1.0680(3) 0.1836(3) 0.06662(14)
H7 H 1.1429 0.1334 0.0786
C14 C 1.0691(3) 0.2174(3) -0.00078(14)
C15 C 0.9570(3) 0.2885(3) -0.01737(14)
H8 H 0.9557 0.3119 -0.0637
C16 C 0.8464(3) 0.3267(3) 0.03150(14)
C17 C 0.7239(3) 0.3985(3) 0.00756(15)
H9 H 0.7430 0.4126 -0.0418
H10 H 0.7345 0.4895 0.0435
H11 H 0.6145 0.3401 0.0054
C18 C 1.1911(3) 0.1794(3) -0.05347(16)
H12 H 1.2597 0.1303 -0.0318
H13 H 1.2585 0.2649 -0.0618
H14 H 1.1343 0.1182 -0.1010
C19 C 0.9771(3) 0.1889(3) 0.19186(15)
H15 H 1.0629 0.1389 0.1929
H16 H 0.8745 0.1303 0.1995
H17 H 1.0047 0.2766 0.2315
C20 C 0.7099(3) 0.4909(3) 0.18507(13)
C21 C 0.5597(3) 0.5289(3) 0.18570(14)
C22 C 0.5552(3) 0.6686(3) 0.21095(14)
H18 H 0.4533 0.6921 0.2104
C23 C 0.6935(3) 0.7746(3) 0.23686(14)
C24 C 0.8409(3) 0.7380(3) 0.23536(14)
H19 H 0.9373 0.8097 0.2529
C25 C 0.8528(3) 0.6007(3) 0.20918(13)
C26 C 1.0208(3) 0.5749(3) 0.20988(15)
H20 H 1.1011 0.6645 0.2282
H21 H 1.0394 0.5291 0.1593
H22 H 1.0308 0.5144 0.2426
C27 C 0.6842(4) 0.9247(3) 0.26349(17)
H23 H 0.7934 0.9846 0.2800
H24 H 0.6176 0.9348 0.3051
H25 H 0.6355 0.9526 0.2227
C28 C 0.4001(3) 0.4241(3) 0.15707(15)
H26 H 0.3121 0.4726 0.1629
H27 H 0.3836 0.3536 0.1854
H28 H 0.4008 0.3782 0.1043
C29 C 0.8620(3) 0.3403(3) 0.39689(15)
H29 H 0.8811 0.2482 0.3738
H30 H 0.7896 0.3324 0.4358
H31 H 0.9653 0.4062 0.4189
C30 C 0.7458(3) 0.5692(3) 0.37946(15)
H32 H 0.6958 0.6128 0.3461
H33 H 0.8517 0.6299 0.4019
H34 H 0.6760 0.5559 0.4188
Cl1? Cl 1.0295(6) 1.0329(4) 0.5790(2)
Cl2? Cl 0.9652(7) 0.9906(7) 0.4210(3)
C32? C 1.0729(12) 0.9611(9) 0.4897(4)
H35? H 1.1828 1.0075 0.4868
H36? H 1.0699 0.8636 0.4828
loop_
_geom_bond_atom_site_label_1
_geom_bond_atom_site_label_2
_geom_bond_site_symmetry_1
_geom_bond_site_symmetry_2
S1 C8 1_555 1_555
C1 B1 1_555 1_555
B1 C11 1_555 1_555
F1 C31 1_555 1_555
O1 S2 1_555 1_555
C2 C1 1_555 1_555
H1 C2 1_555 1_555
S2 O2 1_555 1_555
F2 C31 1_555 1_555
C3 C2 1_555 1_555
H2 C3 1_555 1_555
F3 C31 1_555 1_555
O3 S2 1_555 1_555
C4 C3 1_555 1_555
H3 C4 1_555 1_555
C5 H4 1_555 1_555
C6 C5 1_555 1_555
H5 C6 1_555 1_555
C7 C6 1_555 1_555
H6 C7 1_555 1_555
C8 C7 1_555 1_555
C9 C4 1_555 1_555
C10 C1 1_555 1_555
C11 C12 1_555 1_555
C12 C13 1_555 1_555
C13 H7 1_555 1_555
C14 C13 1_555 1_555
C15 C14 1_555 1_555
H8 C15 1_555 1_555
C16 C11 1_555 1_555
C17 C16 1_555 1_555
H9 C17 1_555 1_555
H10 C17 1_555 1_555
H11 C17 1_555 1_555
C18 C14 1_555 1_555
H12 C18 1_555 1_555
H13 C18 1_555 1_555
H14 C18 1_555 1_555
C19 C12 1_555 1_555
H15 C19 1_555 1_555
H16 C19 1_555 1_555
H17 C19 1_555 1_555
C20 B1 1_555 1_555
C21 C20 1_555 1_555
C22 C21 1_555 1_555
H18 C22 1_555 1_555
C23 C22 1_555 1_555
C24 C23 1_555 1_555
H19 C24 1_555 1_555
C25 C20 1_555 1_555
C26 C25 1_555 1_555
H20 C26 1_555 1_555
H21 C26 1_555 1_555
H22 C26 1_555 1_555
C27 C23 1_555 1_555
H23 C27 1_555 1_555
H24 C27 1_555 1_555
H25 C27 1_555 1_555
C28 C21 1_555 1_555
H26 C28 1_555 1_555
H27 C28 1_555 1_555
H28 C28 1_555 1_555
C29 S1 1_555 1_555
H29 C29 1_555 1_555
H30 C29 1_555 1_555
H31 C29 1_555 1_555
C30 S1 1_555 1_555
H32 C30 1_555 1_555
H33 C30 1_555 1_555
H34 C30 1_555 1_555
C31 S2 1_555 1_555
C5 C9 1_555 1_555
C8 C10 1_555 1_555
C9 C10 1_555 1_555
C15 C16 1_555 1_555
C24 C25 1_555 1_555

#END
