
#######################################################################
#
#                 Cambridge Crystallographic Data Centre
#                                CCDC 
#
#######################################################################
#
# If this CIF has been generated from an entry in the Cambridge 
# Structural Database, then it will include bibliographic, chemical, 
# crystal, experimental, refinement or atomic coordinate data resulting 
# from the CCDC's data processing and validation procedures.
#
#######################################################################

data_SURYAG
_chemical_formula_moiety         'C26 H42 N4 O5 S1 Si1'
_chemical_name_systematic        
5-(((2S,2'R,5S,5'S)-5'-((R)-1-(t-butyldimethylsilyloxy)ethyl)-2,5'-dimethyloctahydro-2,2'-bifuran-5-yl)methylsulfonyl)-1-phenyl-1H-tetrazole
_symmetry_cell_setting           monoclinic
_symmetry_space_group_name_H-M   'P 21'
_symmetry_Int_Tables_number      4
_space_group_name_Hall           'P 2yb'
loop_
_symmetry_equiv_pos_site_id
_symmetry_equiv_pos_as_xyz
1 x,y,z
2 -x,1/2+y,-z
_cell_length_a                   12.1009(14)
_cell_length_b                   7.1738(8)
_cell_length_c                   18.038(2)
_cell_angle_alpha                90
_cell_angle_beta                 92.278(8)
_cell_angle_gamma                90
_cell_volume                     1564.63
_exptl_crystal_colour            colorless
_exptl_crystal_description       needle
_chemical_melting_point          122-124deg.C
_cell_formula_units_Z            2
loop_
_atom_site_label
_atom_site_type_symbol
_atom_site_fract_x
_atom_site_fract_y
_atom_site_fract_z
Si1 Si 0.71022(6) 0.80977(10) 0.61415(4)
O1 O 0.74898(14) 0.9636(2) 0.55173(9)
C1 C 0.83331(19) 0.9337(4) 0.49833(12)
H1 H 0.8440 0.7965 0.4922
C2 C 0.9421(2) 1.0187(4) 0.52815(14)
H2 H 0.9299 1.1490 0.5420
H3 H 0.9970 1.0130 0.4897
H4 H 0.9691 0.9486 0.5718
O2 O 0.87630(14) 0.9726(3) 0.37108(9)
C3 C 0.7910(2) 1.0153(4) 0.42383(13)
C4 C 0.7721(2) 1.2267(4) 0.42790(16)
H5 H 0.8433 1.2899 0.4366
H6 H 0.7236 1.2548 0.4687
H7 H 0.7375 1.2703 0.3810
C5 C 0.6882(2) 0.9146(4) 0.39022(13)
H8 H 0.6192 0.9726 0.4069
H9 H 0.6886 0.7809 0.4038
C6 C 0.6999(2) 0.9406(4) 0.30565(14)
H10 H 0.6647 1.0582 0.2883
H11 H 0.6660 0.8350 0.2776
C7 C 0.8268(2) 0.9463(4) 0.29677(13)
H12 H 0.8449 1.0570 0.2658
O3 O 0.84333(13) 0.7687(2) 0.18355(8)
C8 C 0.8785(2) 0.7709(4) 0.26209(13)
C9 C 0.8396(2) 0.5888(4) 0.29640(15)
H13 H 0.7594 0.5766 0.2880
H14 H 0.8577 0.5896 0.3498
H15 H 0.8767 0.4835 0.2733
C10 C 1.0049(2) 0.7850(4) 0.26059(13)
H16 H 1.0387 0.6604 0.2548
H17 H 1.0360 0.8434 0.3066
C11 C 1.0246(2) 0.9087(4) 0.19249(13)
H18 H 1.0947 0.8752 0.1693
H19 H 1.0268 1.0422 0.2063
C12 C 0.9238(2) 0.8660(4) 0.13975(13)
H20 H 0.8912 0.9851 0.1201
C13 C 0.9521(2) 0.7381(4) 0.07503(13)
H21 H 0.9867 0.6228 0.0953
H22 H 1.0072 0.8014 0.0447
S1 S 0.83539(5) 0.67594(9) 0.01662(3)
O4 O 0.76272(14) 0.8333(3) 0.00419(9)
O5 O 0.87431(15) 0.5730(3) -0.04608(9)
C14 C 0.7658(2) 0.5072(3) 0.07145(13)
N1 N 0.81650(18) 0.3506(3) 0.09147(13)
N2 N 0.7413(2) 0.2512(3) 0.13102(13)
N3 N 0.64838(18) 0.3439(3) 0.13452(12)
N4 N 0.66120(16) 0.5076(3) 0.09706(11)
C15 C 0.56867(19) 0.6388(3) 0.09277(12)
C16 C 0.58360(19) 0.8198(3) 0.11927(12)
H23 H 0.6546 0.8622 0.1362
C17 C 0.4916(2) 0.9375(4) 0.12032(13)
H24 H 0.4998 1.0618 0.1379
C18 C 0.3873(2) 0.8727(4) 0.09547(13)
H25 H 0.3246 0.9521 0.0974
C19 C 0.3755(2) 0.6918(4) 0.06797(13)
H26 H 0.3051 0.6497 0.0499
C20 C 0.4658(2) 0.5727(4) 0.06683(13)
H27 H 0.4578 0.4488 0.0488
C21 C 0.8330(3) 0.7087(6) 0.6657(2)
H28 H 0.8787 0.6407 0.6310
H29 H 0.8082 0.6231 0.7039
H30 H 0.8767 0.8093 0.6891
C22 C 0.6313(4) 0.6185(5) 0.5669(2)
H31 H 0.5662 0.6704 0.5402
H32 H 0.6076 0.5285 0.6039
H33 H 0.6785 0.5559 0.5317
C23 C 0.6222(2) 0.9461(5) 0.67901(15)
C24 C 0.6895(3) 1.1045(6) 0.7157(2)
H34 H 0.6435 1.1713 0.7505
H35 H 0.7136 1.1909 0.6775
H36 H 0.7544 1.0525 0.7426
C25 C 0.5811(3) 0.8148(6) 0.74051(19)
H37 H 0.6447 0.7660 0.7697
H38 H 0.5396 0.7110 0.7176
H39 H 0.5330 0.8844 0.7731
C26 C 0.5223(3) 1.0307(7) 0.6355(2)
H40 H 0.4762 1.0995 0.6697
H41 H 0.4786 0.9306 0.6118
H42 H 0.5484 1.1158 0.5975
loop_
_geom_bond_atom_site_label_1
_geom_bond_atom_site_label_2
_geom_bond_site_symmetry_1
_geom_bond_site_symmetry_2
Si1 O1 1_555 1_555
O1 C1 1_555 1_555
C1 H1 1_555 1_555
C2 C1 1_555 1_555
H2 C2 1_555 1_555
H3 C2 1_555 1_555
H4 C2 1_555 1_555
O2 C3 1_555 1_555
C3 C1 1_555 1_555
C4 C3 1_555 1_555
H5 C4 1_555 1_555
H6 C4 1_555 1_555
H7 C4 1_555 1_555
C5 C3 1_555 1_555
H8 C5 1_555 1_555
H9 C5 1_555 1_555
C6 C5 1_555 1_555
H10 C6 1_555 1_555
H11 C6 1_555 1_555
C7 O2 1_555 1_555
H12 C7 1_555 1_555
O3 C8 1_555 1_555
C8 C7 1_555 1_555
C9 C8 1_555 1_555
H13 C9 1_555 1_555
H14 C9 1_555 1_555
H15 C9 1_555 1_555
C10 C8 1_555 1_555
H16 C10 1_555 1_555
H17 C10 1_555 1_555
C11 C10 1_555 1_555
H18 C11 1_555 1_555
H19 C11 1_555 1_555
C12 O3 1_555 1_555
H20 C12 1_555 1_555
C13 C12 1_555 1_555
H21 C13 1_555 1_555
H22 C13 1_555 1_555
S1 C13 1_555 1_555
O4 S1 1_555 1_555
O5 S1 1_555 1_555
C14 S1 1_555 1_555
N1 C14 1_555 1_555
N2 N1 1_555 1_555
N3 N2 1_555 1_555
N4 C14 1_555 1_555
C15 N4 1_555 1_555
C16 C15 1_555 1_555
H23 C16 1_555 1_555
C17 C16 1_555 1_555
H24 C17 1_555 1_555
C18 C17 1_555 1_555
H25 C18 1_555 1_555
C19 C18 1_555 1_555
H26 C19 1_555 1_555
C20 C15 1_555 1_555
H27 C20 1_555 1_555
C21 Si1 1_555 1_555
H28 C21 1_555 1_555
H29 C21 1_555 1_555
H30 C21 1_555 1_555
C22 Si1 1_555 1_555
H31 C22 1_555 1_555
H32 C22 1_555 1_555
H33 C22 1_555 1_555
C23 Si1 1_555 1_555
C24 C23 1_555 1_555
H34 C24 1_555 1_555
H35 C24 1_555 1_555
H36 C24 1_555 1_555
C25 C23 1_555 1_555
H37 C25 1_555 1_555
H38 C25 1_555 1_555
H39 C25 1_555 1_555
C26 C23 1_555 1_555
H40 C26 1_555 1_555
H41 C26 1_555 1_555
H42 C26 1_555 1_555
C6 C7 1_555 1_555
C11 C12 1_555 1_555
N3 N4 1_555 1_555
C19 C20 1_555 1_555

#END
