
#######################################################################
#
#                 Cambridge Crystallographic Data Centre
#                                CCDC 
#
#######################################################################
#
# If this CIF has been generated from an entry in the Cambridge 
# Structural Database, then it will include bibliographic, chemical, 
# crystal, experimental, refinement or atomic coordinate data resulting 
# from the CCDC's data processing and validation procedures.
#
#######################################################################

data_SUSDIT
_chemical_formula_moiety         'C16 H48 Li2 N6 Si4'
_chemical_name_systematic        
bis(\m~2~-1,3-bis(Dimethyl(dimethylamino))disilazane)-di-lithium
_symmetry_cell_setting           trigonal
_symmetry_space_group_name_H-M   'P 31 2 1'
_symmetry_Int_Tables_number      152
_space_group_name_Hall           'P 31 2"'
loop_
_symmetry_equiv_pos_site_id
_symmetry_equiv_pos_as_xyz
1 x,y,z
2 -y,x-y,1/3+z
3 y,x,-z
4 -x+y,-x,2/3+z
5 -x,-x+y,1/3-z
6 x-y,-y,2/3-z
_cell_length_a                   10.430(6)
_cell_length_b                   10.430(6)
_cell_length_c                   24.20(6)
_cell_angle_alpha                90
_cell_angle_beta                 90
_cell_angle_gamma                120
_cell_volume                     2279.89
_exptl_crystal_colour            colorless
_cell_formula_units_Z            3
loop_
_atom_site_label
_atom_site_type_symbol
_atom_site_fract_x
_atom_site_fract_y
_atom_site_fract_z
Si1 Si 0.2914(1) 0.3485(1) 0.1635(1)
Si2 Si 0.1480(1) 0.4431(1) 0.0731(1)
N1 N 0.1588(2) 0.3651(2) 0.1321(1)
N2 N 0.2006(3) 0.1615(3) 0.1846(1)
N3 N 0.0545(3) 0.5382(3) 0.0925(1)
C1 C 0.3636(4) 0.4637(4) 0.2273(1)
C2 C 0.4585(4) 0.3876(5) 0.1220(2)
C3 C 0.1881(5) 0.0580(5) 0.1395(2)
C4 C 0.3278(5) 0.5758(5) 0.0383(2)
C5 C 0.0374(6) 0.3052(5) 0.0189(1)
C6 C 0.1559(6) 0.6849(4) 0.1186(2)
C7 C -0.0543(7) 0.5424(7) 0.0550(2)
C8 C 0.2352(6) 0.1192(5) 0.2389(2)
Li1 Li 0.0000 0.1643(5) 0.1667
Li2 Li 0.0000 0.4060(5) 0.1667
N1D N -0.1588(2) 0.2063(3) 0.2012(1)
Si1D Si -0.2914(1) 0.0571(1) 0.1698(1)
N2D N -0.2006(3) -0.0391(4) 0.1487(1)
C3D C -0.1881(5) -0.1301(7) 0.1938(2)
C8D C -0.2352(6) -0.1160(8) 0.0944(2)
C1D C -0.3636(4) 0.1001(6) 0.1060(1)
C2D C -0.4585(4) -0.0709(6) 0.2113(2)
Si2D Si -0.1480(1) 0.2951(1) 0.2602(1)
N3D N -0.0545(3) 0.4837(4) 0.2408(1)
C6D C -0.1559(6) 0.5290(7) 0.2147(2)
C7D C 0.0543(7) 0.5967(10) 0.2783(2)
C4D C -0.3278(5) 0.2480(7) 0.2950(2)
C5D C -0.0374(6) 0.2678(8) 0.3144(1)
loop_
_geom_bond_atom_site_label_1
_geom_bond_atom_site_label_2
_geom_bond_site_symmetry_1
_geom_bond_site_symmetry_2
Si1 N1 1_555 1_555
Si2 N1 1_555 1_555
N1 Li1 1_555 1_555
N2 Si1 1_555 1_555
N3 Si2 1_555 1_555
C1 Si1 1_555 1_555
C2 Si1 1_555 1_555
C3 N2 1_555 1_555
C4 Si2 1_555 1_555
C5 Si2 1_555 1_555
C6 N3 1_555 1_555
C7 N3 1_555 1_555
C8 N2 1_555 1_555
Li1 N2 1_555 1_555
Li2 N1 1_555 1_555
N1D Li1 1_555 1_555
Si1D N1D 1_555 1_555
N2D Li1 1_555 1_555
C3D N2D 1_555 1_555
C8D N2D 1_555 1_555
C1D Si1D 1_555 1_555
C2D Si1D 1_555 1_555
Si2D N1D 1_555 1_555
N3D Li2 1_555 1_555
C6D N3D 1_555 1_555
C7D N3D 1_555 1_555
C4D Si2D 1_555 1_555
C5D Si2D 1_555 1_555
N3 Li2 1_555 1_555
Li2 N1D 1_555 1_555
Si1D N2D 1_555 1_555
Si2D N3D 1_555 1_555

#END
