
#######################################################################
#
#                 Cambridge Crystallographic Data Centre
#                                CCDC 
#
#######################################################################
#
# If this CIF has been generated from an entry in the Cambridge 
# Structural Database, then it will include bibliographic, chemical, 
# crystal, experimental, refinement or atomic coordinate data resulting 
# from the CCDC's data processing and validation procedures.
#
#######################################################################

data_SUSDEP
_chemical_formula_moiety         'C32 H44 Li2 N2 Si4'
_chemical_name_systematic        
bis(\m~2~-1,3-bis(Dimethylphenyl)disilazane)-di-lithium
_symmetry_cell_setting           monoclinic
_symmetry_space_group_name_H-M   'C 2/c'
_symmetry_Int_Tables_number      15
_space_group_name_Hall           '-C 2yn'
loop_
_symmetry_equiv_pos_site_id
_symmetry_equiv_pos_as_xyz
1 x,y,z
2 -x,y,1/2-z
3 1/2+x,1/2+y,z
4 1/2-x,1/2+y,1/2-z
5 -x,-y,-z
6 x,-y,1/2+z
7 1/2-x,1/2-y,-z
8 1/2+x,1/2-y,1/2+z
_cell_length_a                   34.941(7)
_cell_length_b                   13.652(3)
_cell_length_c                   16.783(3)
_cell_angle_alpha                90
_cell_angle_beta                 117.20(3)
_cell_angle_gamma                90
_cell_volume                     7120.43
_exptl_crystal_colour            colorless
_chemical_melting_point          112deg.C
_cell_formula_units_Z            8
loop_
_atom_site_label
_atom_site_type_symbol
_atom_site_fract_x
_atom_site_fract_y
_atom_site_fract_z
Si1 Si 0.2023(1) 0.2046(1) 0.2866(1)
Si2 Si 0.1251(1) 0.2930(1) 0.2847(1)
Si3 Si 0.1040(1) 0.1142(1) -0.0359(1)
Si4 Si 0.0732(1) 0.3209(1) -0.0516(1)
N1 N 0.1509(1) 0.2447(1) 0.2290(1)
N2 N 0.1004(1) 0.2225(1) 0.0094(1)
Li1 Li 0.1010(1) 0.1780(3) 0.1248(2)
Li2 Li 0.1493(1) 0.2907(3) 0.1136(3)
C1 C 0.2287(1) 0.2012(2) 0.2096(2)
C2 C 0.2378(1) 0.2879(2) 0.1780(2)
C3 C 0.2608(1) 0.2894(3) 0.1287(2)
C4 C 0.2757(1) 0.2050(4) 0.1112(2)
C5 C 0.2671(1) 0.1180(4) 0.1393(3)
C6 C 0.2439(1) 0.1165(2) 0.1882(2)
C7 C 0.2387(1) 0.2888(4) 0.3783(2)
C8 C 0.2072(2) 0.0790(4) 0.3348(4)
C9 C 0.0654(1) 0.2747(2) 0.2121(2)
C10 C 0.0489(1) 0.1798(3) 0.1913(2)
C11 C 0.0053(2) 0.1623(5) 0.1382(3)
C12 C -0.0229(2) 0.2375(8) 0.1074(4)
C13 C -0.0085(2) 0.3300(6) 0.1287(3)
C14 C 0.0353(1) 0.3502(3) 0.1794(2)
C15 C 0.1368(1) 0.2301(3) 0.3927(2)
C16 C 0.1355(2) 0.4258(3) 0.3110(4)
C17 C 0.1077(1) 0.0139(2) 0.0456(2)
C18 C 0.0736(1) -0.0019(2) 0.0649(2)
C19 C 0.0746(2) -0.0753(3) 0.1239(3)
C20 C 0.1100(2) -0.1342(3) 0.1642(3)
C21 C 0.1436(2) -0.1218(3) 0.1456(3)
C22 C 0.1426(1) -0.0484(2) 0.0874(2)
C23 C 0.0559(2) 0.0806(3) -0.1442(2)
C24 C 0.1520(2) 0.1051(4) -0.0570(3)
C25 C 0.1008(1) 0.4338(2) 0.0156(2)
C26 C 0.1425(1) 0.4567(2) 0.0315(2)
C27 C 0.1638(2) 0.5404(3) 0.0814(3)
C28 C 0.1432(2) 0.6004(3) 0.1141(3)
C29 C 0.1030(2) 0.5810(3) 0.0987(3)
C30 C 0.0821(1) 0.4988(2) 0.0515(2)
C31 C 0.0153(1) 0.3251(4) -0.0748(3)
C32 C 0.0740(2) 0.3367(4) -0.1615(3)
loop_
_geom_bond_atom_site_label_1
_geom_bond_atom_site_label_2
_geom_bond_site_symmetry_1
_geom_bond_site_symmetry_2
Si1 N1 1_555 1_555
Si2 N1 1_555 1_555
Si3 N2 1_555 1_555
Si4 N2 1_555 1_555
N1 Li1 1_555 1_555
N2 Li1 1_555 1_555
Li2 N1 1_555 1_555
C1 Si1 1_555 1_555
C2 C1 1_555 1_555
C3 C2 1_555 1_555
C4 C3 1_555 1_555
C5 C4 1_555 1_555
C6 C1 1_555 1_555
C7 Si1 1_555 1_555
C8 Si1 1_555 1_555
C9 Si2 1_555 1_555
C10 C9 1_555 1_555
C11 C10 1_555 1_555
C12 C11 1_555 1_555
C13 C12 1_555 1_555
C14 C9 1_555 1_555
C15 Si2 1_555 1_555
C16 Si2 1_555 1_555
C17 Si3 1_555 1_555
C18 C17 1_555 1_555
C19 C18 1_555 1_555
C20 C19 1_555 1_555
C21 C20 1_555 1_555
C22 C17 1_555 1_555
C23 Si3 1_555 1_555
C24 Si3 1_555 1_555
C25 Si4 1_555 1_555
C26 C25 1_555 1_555
C27 C26 1_555 1_555
C28 C27 1_555 1_555
C29 C28 1_555 1_555
C30 C25 1_555 1_555
C31 Si4 1_555 1_555
C32 Si4 1_555 1_555
N2 Li2 1_555 1_555
C5 C6 1_555 1_555
C13 C14 1_555 1_555
C21 C22 1_555 1_555
C29 C30 1_555 1_555

#END
