
#######################################################################
#
#                 Cambridge Crystallographic Data Centre
#                                CCDC 
#
#######################################################################
#
# If this CIF has been generated from an entry in the Cambridge 
# Structural Database, then it will include bibliographic, chemical, 
# crystal, experimental, refinement or atomic coordinate data resulting 
# from the CCDC's data processing and validation procedures.
#
#######################################################################

data_SUSDUF
_chemical_formula_moiety         'C20 H56 Li2 N6 Si4'
_chemical_name_systematic        
bis(\m~2~-1,3-bis(Dimethyl(isopropylamino))disilazane)-di-lithium
_symmetry_cell_setting           monoclinic
_symmetry_space_group_name_H-M   'C 2/c'
_symmetry_Int_Tables_number      15
_space_group_name_Hall           '-C 2yn'
loop_
_symmetry_equiv_pos_site_id
_symmetry_equiv_pos_as_xyz
1 x,y,z
2 -x,y,1/2-z
3 1/2+x,1/2+y,z
4 1/2-x,1/2+y,1/2-z
5 -x,-y,-z
6 x,-y,1/2+z
7 1/2-x,1/2-y,-z
8 1/2+x,1/2-y,1/2+z
_cell_length_a                   9.732(6)
_cell_length_b                   20.261(12)
_cell_length_c                   17.826(12)
_cell_angle_alpha                90
_cell_angle_beta                 95.90(5)
_cell_angle_gamma                90
_cell_volume                     3496.31
_exptl_crystal_colour            colorless
_chemical_melting_point          162deg.C
_cell_formula_units_Z            4
loop_
_atom_site_label
_atom_site_type_symbol
_atom_site_fract_x
_atom_site_fract_y
_atom_site_fract_z
Si1 Si 0.1144(1) 0.4745(1) 0.3148(1)
Si2 Si 0.1292(1) 0.2437(1) 0.2096(1)
N1 N 0.0000 0.2779(1) 0.2500
N2 N 0.0000 0.4409(1) 0.2500
C1 C 0.0780(7) 0.1788(2) 0.1377(4)
Li1 Li 0.0126(8) 0.3598(2) 0.1810(4)
C2 C 0.0509(8) 0.5497(2) 0.3617(4)
C3 C 0.2663(7) 0.2071(2) 0.2772(4)
C4 C 0.2795(8) 0.4960(3) 0.2782(5)
C5 C 0.3135(9) 0.4431(2) 0.4912(5)
C6 C 0.2841(11) 0.3855(3) 0.0724(7)
C7 C 0.4132(12) 0.2821(3) 0.1055(7)
C8 C 0.1768(13) 0.3387(3) 0.4894(6)
N3 N 0.2045(8) 0.3151(3) 0.1690(5)
C9 C 0.2663(14) 0.3096(5) 0.0974(8)
N4 N 0.1591(9) 0.4084(2) 0.3765(4)
C10 C 0.1750(13) 0.4128(4) 0.4582(7)
Si1A Si -0.1144(1) 0.4745(1) 0.1852(1)
C2A C -0.0509(8) 0.5497(2) 0.1383(4)
C4A C -0.2795(8) 0.4960(3) 0.2218(5)
N4A N -0.1591(9) 0.4084(2) 0.1235(4)
Li1A Li -0.0126(8) 0.3598(2) 0.3190(4)
Si2A Si -0.1292(1) 0.2437(1) 0.2904(1)
C1A C -0.0780(7) 0.1788(2) 0.3623(4)
C3A C -0.2663(7) 0.2071(2) 0.2228(4)
N3A N -0.2045(8) 0.3151(3) 0.3310(5)
C9A C -0.2663(14) 0.3096(5) 0.4026(8)
C6A C -0.2841(11) 0.3855(3) 0.4276(7)
C7A C -0.4132(12) 0.2821(3) 0.3945(7)
C10A C -0.1750(13) 0.4128(4) 0.0418(7)
C5A C -0.3135(9) 0.4431(2) 0.0088(5)
C8A C -0.1768(13) 0.3387(3) 0.0106(6)
N5? N 0.1068(14) 0.4209(4) 0.3984(8)
C11? C 0.2327(19) 0.3982(5) 0.4358(11)
N6? N 0.1757(14) 0.3002(5) 0.1421(10)
C12? C 0.3000(20) 0.3250(6) 0.1249(13)
loop_
_geom_bond_atom_site_label_1
_geom_bond_atom_site_label_2
_geom_bond_site_symmetry_1
_geom_bond_site_symmetry_2
Si1 N2 1_555 1_555
Si2 N1 1_555 1_555
N1 Li1 1_555 1_555
N2 Li1 1_555 1_555
C1 Si2 1_555 1_555
Li1 N3 1_555 1_555
C2 Si1 1_555 1_555
C3 Si2 1_555 1_555
C4 Si1 1_555 1_555
C5 C10 1_555 1_555
C6 C9 1_555 1_555
C7 C9 1_555 1_555
C8 C10 1_555 1_555
N3 Si2 1_555 1_555
C9 N3 1_555 1_555
N4 Si1 1_555 1_555
C10 N4 1_555 1_555
Si1A N2 1_555 1_555
C2A Si1A 1_555 1_555
C4A Si1A 1_555 1_555
N4A Li1 1_555 1_555
Li1A N1 1_555 1_555
Si2A N1 1_555 1_555
C1A Si2A 1_555 1_555
C3A Si2A 1_555 1_555
N3A Li1A 1_555 1_555
C9A N3A 1_555 1_555
C6A C9A 1_555 1_555
C7A C9A 1_555 1_555
C10A N4A 1_555 1_555
C5A C10A 1_555 1_555
C8A C10A 1_555 1_555
N2 Li1A 1_555 1_555
N4 Li1A 1_555 1_555
Si1A N4A 1_555 1_555
Si2A N3A 1_555 1_555

#END
