
#######################################################################
#
#                 Cambridge Crystallographic Data Centre
#                                CCDC 
#
#######################################################################
#
# If this CIF has been generated from an entry in the Cambridge 
# Structural Database, then it will include bibliographic, chemical, 
# crystal, experimental, refinement or atomic coordinate data resulting 
# from the CCDC's data processing and validation procedures.
#
#######################################################################

data_SUSFAN
_chemical_formula_moiety         'C32 H44 Li2 N2 O4 Si4'
_chemical_name_systematic        
bis(\m~2~-1,3-bis(Dimethyl(phenoxy))disilazane)-di-lithium
_symmetry_cell_setting           triclinic
_symmetry_space_group_name_H-M   'P -1'
_symmetry_Int_Tables_number      2
_space_group_name_Hall           '-P 1'
loop_
_symmetry_equiv_pos_site_id
_symmetry_equiv_pos_as_xyz
1 x,y,z
2 -x,-y,-z
_cell_length_a                   12.366(2)
_cell_length_b                   13.262(3)
_cell_length_c                   14.059(3)
_cell_angle_alpha                71.74(3)
_cell_angle_beta                 72.99(3)
_cell_angle_gamma                65.34(3)
_cell_volume                     1954.57
_exptl_crystal_colour            colorless
_chemical_melting_point          103deg.C
_cell_formula_units_Z            2
loop_
_atom_site_label
_atom_site_type_symbol
_atom_site_fract_x
_atom_site_fract_y
_atom_site_fract_z
Si1 Si 0.2386(1) 0.6229(1) 0.6161(1)
Si2 Si 0.2644(1) 0.8535(1) 0.5402(1)
Si3 Si 0.3354(1) 0.7465(1) 0.8911(1)
Si4 Si 0.0707(1) 0.7658(1) 0.9279(1)
Li1 Li 0.3168(4) 0.6531(4) 0.7577(3)
Li2 Li 0.1438(4) 0.8447(4) 0.7310(3)
N1 N 0.2433(2) 0.7422(2) 0.6277(1)
N2 N 0.2116(2) 0.7488(2) 0.8649(1)
O1 O 0.3097(2) 0.5286(2) 0.7129(1)
O2 O 0.1969(2) 0.9527(2) 0.6127(1)
O3 O 0.4422(1) 0.6615(1) 0.8126(1)
O4 O -0.0067(4) 0.8619(1) 0.8346(1)
C1 C 0.3249(4) 0.5775(4) 0.4945(3)
C2 C 0.0871(3) 0.6155(3) 0.6424(3)
C3 C 0.4251(3) 0.8407(4) 0.4938(3)
C4 C 0.1810(4) 0.9062(4) 0.4328(3)
C5 C 0.3614(3) 0.6787(3) 1.0237(2)
C6 C 0.3569(3) 0.8849(2) 0.8490(2)
C7 C 0.0275(3) 0.6396(2) 0.9618(2)
C8 C 0.0181(3) 0.8287(3) 1.0414(2)
C9 C 0.3112(2) 0.4209(2) 0.7650(2)
C10 C 0.3262(3) 0.3841(3) 0.8642(2)
C11 C 0.3289(3) 0.2781(3) 0.9187(2)
C12 C 0.3158(3) 0.2059(3) 0.8758(3)
C13 C 0.3015(3) 0.2405(3) 0.7785(3)
C14 C 0.2995(4) 0.3476(3) 0.7208(3)
C15 C 0.5662(2) 0.6150(2) 0.7977(2)
C16 C 0.6347(2) 0.6356(2) 0.8463(2)
C17 C 0.7587(3) 0.5841(2) 0.8299(2)
C18 C 0.8162(3) 0.5131(3) 0.7647(2)
C19 C 0.7490(3) 0.4933(3) 0.7153(2)
C20 C 0.6247(2) 0.5438(2) 0.7315(2)
C21 C 0.1751(3) 1.0666(2) 0.5912(2)
C22 C 0.2295(4) 1.1220(3) 0.5034(3)
C23 C 0.2048(5) 1.2369(4) 0.4868(4)
C24 C 0.1261(6) 1.2970(4) 0.5551(5)
C25 C 0.0698(5) 1.2423(4) 0.6417(4)
C26 C 0.0951(3) 1.1269(3) 0.6595(2)
C27 C -0.1300(2) 0.9059(2) 0.8362(2)
C28 C -0.1802(2) 0.8535(2) 0.8000(2)
C29 C -0.3014(3) 0.8991(3) 0.7970(2)
C30 C -0.3738(3) 0.9958(3) 0.8306(3)
C31 C -0.3254(3) 1.0485(3) 0.8659(3)
C32 C -0.2024(3) 1.0033(2) 0.8690(2)
loop_
_geom_bond_atom_site_label_1
_geom_bond_atom_site_label_2
_geom_bond_site_symmetry_1
_geom_bond_site_symmetry_2
Si1 N1 1_555 1_555
Si2 N1 1_555 1_555
Si3 N2 1_555 1_555
Si4 N2 1_555 1_555
Li1 N1 1_555 1_555
Li2 N1 1_555 1_555
N2 Li1 1_555 1_555
O1 Si1 1_555 1_555
O2 Si2 1_555 1_555
O3 Si3 1_555 1_555
O4 Si4 1_555 1_555
C1 Si1 1_555 1_555
C2 Si1 1_555 1_555
C3 Si2 1_555 1_555
C4 Si2 1_555 1_555
C5 Si3 1_555 1_555
C6 Si3 1_555 1_555
C7 Si4 1_555 1_555
C8 Si4 1_555 1_555
C9 O1 1_555 1_555
C10 C9 1_555 1_555
C11 C10 1_555 1_555
C12 C11 1_555 1_555
C13 C12 1_555 1_555
C14 C9 1_555 1_555
C15 O3 1_555 1_555
C16 C15 1_555 1_555
C17 C16 1_555 1_555
C18 C17 1_555 1_555
C19 C18 1_555 1_555
C20 C15 1_555 1_555
C21 O2 1_555 1_555
C22 C21 1_555 1_555
C23 C22 1_555 1_555
C24 C23 1_555 1_555
C25 C24 1_555 1_555
C26 C21 1_555 1_555
C27 O4 1_555 1_555
C28 C27 1_555 1_555
C29 C28 1_555 1_555
C30 C29 1_555 1_555
C31 C30 1_555 1_555
C32 C27 1_555 1_555
Li1 O1 1_555 1_555
Li1 O3 1_555 1_555
Li2 O2 1_555 1_555
Li2 O4 1_555 1_555
Li2 N2 1_555 1_555
C13 C14 1_555 1_555
C19 C20 1_555 1_555
C25 C26 1_555 1_555
C31 C32 1_555 1_555

#END
