
#######################################################################
#
#                 Cambridge Crystallographic Data Centre
#                                CCDC 
#
#######################################################################
#
# If this CIF has been generated from an entry in the Cambridge 
# Structural Database, then it will include bibliographic, chemical, 
# crystal, experimental, refinement or atomic coordinate data resulting 
# from the CCDC's data processing and validation procedures.
#
#######################################################################

data_SUSHAR
_chemical_formula_moiety         'C14 H19 N1 O1'
_chemical_name_systematic        '1-(4-phenylbut-1-en-1-yl)pyrrolidine 1-oxide'
_symmetry_cell_setting           monoclinic
_symmetry_space_group_name_H-M   'P 21'
_symmetry_Int_Tables_number      4
_space_group_name_Hall           'P 2yb'
loop_
_symmetry_equiv_pos_site_id
_symmetry_equiv_pos_as_xyz
1 x,y,z
2 -x,1/2+y,-z
_cell_length_a                   9.7311(10)
_cell_length_b                   18.404(2)
_cell_length_c                   13.957(2)
_cell_angle_alpha                90
_cell_angle_beta                 99.590(2)
_cell_angle_gamma                90
_cell_volume                     2464.64
_exptl_crystal_colour            colorless
_exptl_crystal_description       column
_cell_formula_units_Z            8
loop_
_atom_site_label
_atom_site_type_symbol
_atom_site_fract_x
_atom_site_fract_y
_atom_site_fract_z
O1 O 0.6124(3) 0.2561(2) 0.0115(3)
N1 N 0.4702(3) 0.25092(19) 0.0115(3)
C1 C 0.3884(6) 0.2701(3) -0.0864(3)
H1 H 0.4205 0.3166 -0.1107
H2 H 0.2874 0.2734 -0.0842
C2 C 0.4202(9) 0.2062(3) -0.1491(4)
H3 H 0.5026 0.2168 -0.1798
H4 H 0.3397 0.1960 -0.2008
C3 C 0.4493(7) 0.1405(3) -0.0782(4)
H5 H 0.3816 0.1009 -0.0975
H6 H 0.5448 0.1216 -0.0767
C4 C 0.4324(6) 0.1719(2) 0.0196(4)
H7 H 0.3352 0.1666 0.0311
H8 H 0.4959 0.1478 0.0729
C5 C 0.4235(5) 0.2942(2) 0.0890(3)
H9 H 0.3265 0.2973 0.0909
C6 C 0.5111(6) 0.3288(3) 0.1554(4)
H10 H 0.6077 0.3239 0.1530
C7 C 0.4715(8) 0.3752(3) 0.2346(4)
H11 H 0.5082 0.3533 0.2985
H12 H 0.3687 0.3775 0.2278
C8 C 0.5304(8) 0.4523(3) 0.2297(5)
H13 H 0.6332 0.4493 0.2372
H14 H 0.4956 0.4729 0.1646
C9 C 0.4929(6) 0.5036(3) 0.3057(4)
C10 C 0.5581(16) 0.5013(8) 0.4006(6)
H15 H 0.6278 0.4656 0.4197
C11 C 0.5252(14) 0.5495(7) 0.4690(6)
H16 H 0.5721 0.5459 0.5342
C12 C 0.4286(8) 0.6012(4) 0.4455(5)
H17 H 0.4098 0.6360 0.4920
C13 C 0.3588(19) 0.6020(9) 0.3530(7)
H18 H 0.2871 0.6369 0.3348
C14 C 0.3900(13) 0.5530(7) 0.2846(6)
H19 H 0.3373 0.5541 0.2209
O2 O 1.1121(3) 0.21792(19) 0.0349(3)
N2 N 0.9685(3) 0.22698(19) 0.0241(3)
C15 C 0.9134(6) 0.2517(3) -0.0780(3)
H20 H 0.9717 0.2913 -0.0979
H21 H 0.8161 0.2692 -0.0836
C16 C 0.9210(9) 0.1843(3) -0.1397(4)
H22 H 1.0099 0.1828 -0.1654
H23 H 0.8427 0.1831 -0.1950
C17 C 0.9115(6) 0.1205(3) -0.0702(4)
H24 H 0.8299 0.0895 -0.0946
H25 H 0.9968 0.0902 -0.0635
C18 C 0.8963(5) 0.1544(2) 0.0267(4)
H26 H 0.7969 0.1608 0.0323
H27 H 0.9423 0.1243 0.0816
C19 C 0.9264(5) 0.2774(3) 0.0954(4)
H28 H 0.8298 0.2860 0.0938
C20 C 1.0154(6) 0.3108(3) 0.1607(4)
H29 H 1.1116 0.3002 0.1636
C21 C 0.9761(8) 0.3648(3) 0.2313(5)
H30 H 1.0124 0.3483 0.2982
H31 H 0.8732 0.3671 0.2241
C22 C 1.0327(6) 0.4412(3) 0.2169(4)
H32 H 1.1354 0.4388 0.2228
H33 H 0.9947 0.4582 0.1504
C23 C 0.9950(6) 0.4953(3) 0.2898(4)
C24 C 1.0616(15) 0.4975(8) 0.3839(6)
H34 H 1.1355 0.4643 0.4040
C25 C 1.0262(12) 0.5460(6) 0.4510(6)
H35 H 1.0723 0.5432 0.5165
C26 C 0.9283(7) 0.5970(3) 0.4262(4)
H36 H 0.9057 0.6316 0.4716
C27 C 0.8632(17) 0.5961(9) 0.3318(7)
H37 H 0.7942 0.6318 0.3108
C28 C 0.8937(12) 0.5452(6) 0.2656(6)
H38 H 0.8422 0.5455 0.2015
O3 O 0.8651(6) 0.7741(6) 0.5186(6)
N3 N 0.7238(4) 0.7900(3) 0.5154(3)
C29 C 0.6630(7) 0.7667(4) 0.4131(4)
H39 H 0.5620 0.7563 0.4070
H40 H 0.7111 0.7231 0.3935
C30 C 0.6894(8) 0.8326(4) 0.3533(4)
H41 H 0.6142 0.8381 0.2965
H42 H 0.7795 0.8277 0.3297
C31 C 0.6924(11) 0.8985(4) 0.4216(5)
H43 H 0.7841 0.9231 0.4299
H44 H 0.6189 0.9339 0.3959
C32 C 0.6661(9) 0.8662(3) 0.5171(5)
H45 H 0.7155 0.8941 0.5731
H46 H 0.5653 0.8654 0.5204
C33 C 0.6690(6) 0.7443(3) 0.5877(4)
H47 H 0.5710 0.7396 0.5839
C34 C 0.7521(5) 0.7101(3) 0.6569(4)
H48 H 0.8495 0.7169 0.6597
C35 C 0.7073(5) 0.6614(3) 0.7317(4)
H49 H 0.6043 0.6579 0.7205
H50 H 0.7378 0.6823 0.7972
C36 C 0.7697(7) 0.5857(3) 0.7271(4)
H51 H 0.7385 0.5660 0.6610
H52 H 0.8724 0.5906 0.7360
C37 C 0.7350(5) 0.5304(2) 0.7999(3)
C38 C 0.7726(4) 0.5430(2) 0.8985(3)
H53 H 0.8154 0.5877 0.9205
C39 C 0.7480(5) 0.4909(2) 0.9653(3)
H54 H 0.7705 0.5009 1.0329
C40 C 0.6919(6) 0.4253(3) 0.9347(4)
H55 H 0.6791 0.3889 0.9807
C41 C 0.6542(5) 0.4123(3) 0.8376(4)
H56 H 0.6128 0.3671 0.8160
C42 C 0.6760(5) 0.4647(2) 0.7701(4)
H57 H 0.6499 0.4550 0.7027
O5 O 0.3605(5) 0.8004(6) 0.5302(7)
N4 N 0.2185(4) 0.7856(3) 0.5211(4)
C43 C 0.1599(7) 0.8599(3) 0.5307(4)
H58 H 0.2211 0.8885 0.5807
H59 H 0.0658 0.8570 0.5485
C44 C 0.1538(9) 0.8940(4) 0.4304(5)
H60 H 0.2365 0.9250 0.4286
H61 H 0.0688 0.9240 0.4134
C45 C 0.1514(8) 0.8297(4) 0.3596(4)
H62 H 0.0701 0.8329 0.3068
H63 H 0.2376 0.8284 0.3307
C46 C 0.1412(7) 0.7626(3) 0.4225(4)
H64 H 0.0429 0.7506 0.4255
H65 H 0.1863 0.7200 0.3974
C47 C 0.1805(6) 0.7369(3) 0.5967(4)
H66 H 0.0851 0.7305 0.6016
C48 C 0.2763(5) 0.7021(3) 0.6575(4)
H67 H 0.3715 0.7089 0.6523
C49 C 0.2412(5) 0.6523(3) 0.7344(4)
H68 H 0.1391 0.6526 0.7327
H69 H 0.2858 0.6704 0.7989
C50 C 0.2898(6) 0.5739(3) 0.7211(4)
H70 H 0.2489 0.5569 0.6552
H71 H 0.3924 0.5736 0.7258
C51 C 0.2494(5) 0.5217(3) 0.7954(4)
C52 C 0.3434(5) 0.5049(2) 0.8779(4)
H72 H 0.4351 0.5243 0.8868
C53 C 0.3035(6) 0.4596(3) 0.9476(4)
H73 H 0.3701 0.4452 1.0020
C54 C 0.1693(6) 0.4354(3) 0.9388(4)
H74 H 0.1401 0.4090 0.9903
C55 C 0.0764(5) 0.4494(3) 0.8552(4)
H75 H -0.0144 0.4289 0.8458
C56 C 0.1172(5) 0.4939(2) 0.7851(4)
H76 H 0.0521 0.5053 0.7286
O4? O 0.8633(6) 0.8093(6) 0.5350(7)
O6? O 0.3526(7) 0.7717(7) 0.5039(8)
loop_
_geom_bond_atom_site_label_1
_geom_bond_atom_site_label_2
_geom_bond_site_symmetry_1
_geom_bond_site_symmetry_2
O1 N1 1_555 1_555
N1 C1 1_555 1_555
C1 H1 1_555 1_555
H2 C1 1_555 1_555
C2 C1 1_555 1_555
H3 C2 1_555 1_555
H4 C2 1_555 1_555
C3 C2 1_555 1_555
H5 C3 1_555 1_555
H6 C3 1_555 1_555
C4 N1 1_555 1_555
H7 C4 1_555 1_555
H8 C4 1_555 1_555
C5 N1 1_555 1_555
H9 C5 1_555 1_555
C6 C5 1_555 1_555
H10 C6 1_555 1_555
C7 C6 1_555 1_555
H11 C7 1_555 1_555
H12 C7 1_555 1_555
C8 C7 1_555 1_555
H13 C8 1_555 1_555
H14 C8 1_555 1_555
C9 C8 1_555 1_555
C10 C9 1_555 1_555
H15 C10 1_555 1_555
C11 C10 1_555 1_555
H16 C11 1_555 1_555
C12 C11 1_555 1_555
H17 C12 1_555 1_555
C13 C12 1_555 1_555
H18 C13 1_555 1_555
C14 C9 1_555 1_555
H19 C14 1_555 1_555
O2 N2 1_555 1_555
N2 C15 1_555 1_555
C15 H20 1_555 1_555
H21 C15 1_555 1_555
C16 C15 1_555 1_555
H22 C16 1_555 1_555
H23 C16 1_555 1_555
C17 C16 1_555 1_555
H24 C17 1_555 1_555
H25 C17 1_555 1_555
C18 N2 1_555 1_555
H26 C18 1_555 1_555
H27 C18 1_555 1_555
C19 N2 1_555 1_555
H28 C19 1_555 1_555
C20 C19 1_555 1_555
H29 C20 1_555 1_555
C21 C20 1_555 1_555
H30 C21 1_555 1_555
H31 C21 1_555 1_555
C22 C21 1_555 1_555
H32 C22 1_555 1_555
H33 C22 1_555 1_555
C23 C22 1_555 1_555
C24 C23 1_555 1_555
H34 C24 1_555 1_555
C25 C24 1_555 1_555
H35 C25 1_555 1_555
C26 C25 1_555 1_555
H36 C26 1_555 1_555
C27 C26 1_555 1_555
H37 C27 1_555 1_555
C28 C23 1_555 1_555
H38 C28 1_555 1_555
O3 N3 1_555 1_555
N3 C29 1_555 1_555
C29 H39 1_555 1_555
H40 C29 1_555 1_555
C30 C29 1_555 1_555
H41 C30 1_555 1_555
H42 C30 1_555 1_555
C31 C30 1_555 1_555
H43 C31 1_555 1_555
H44 C31 1_555 1_555
C32 N3 1_555 1_555
H45 C32 1_555 1_555
H46 C32 1_555 1_555
C33 N3 1_555 1_555
H47 C33 1_555 1_555
C34 C33 1_555 1_555
H48 C34 1_555 1_555
C35 C34 1_555 1_555
H49 C35 1_555 1_555
H50 C35 1_555 1_555
C36 C35 1_555 1_555
H51 C36 1_555 1_555
H52 C36 1_555 1_555
C37 C36 1_555 1_555
C38 C37 1_555 1_555
H53 C38 1_555 1_555
C39 C38 1_555 1_555
H54 C39 1_555 1_555
C40 C39 1_555 1_555
H55 C40 1_555 1_555
C41 C40 1_555 1_555
H56 C41 1_555 1_555
C42 C37 1_555 1_555
H57 C42 1_555 1_555
O5 N4 1_555 1_555
N4 C43 1_555 1_555
C43 H58 1_555 1_555
H59 C43 1_555 1_555
C44 C43 1_555 1_555
H60 C44 1_555 1_555
H61 C44 1_555 1_555
C45 C44 1_555 1_555
H62 C45 1_555 1_555
H63 C45 1_555 1_555
C46 N4 1_555 1_555
H64 C46 1_555 1_555
H65 C46 1_555 1_555
C47 N4 1_555 1_555
H66 C47 1_555 1_555
C48 C47 1_555 1_555
H67 C48 1_555 1_555
C49 C48 1_555 1_555
H68 C49 1_555 1_555
H69 C49 1_555 1_555
C50 C49 1_555 1_555
H70 C50 1_555 1_555
H71 C50 1_555 1_555
C51 C50 1_555 1_555
C52 C51 1_555 1_555
H72 C52 1_555 1_555
C53 C52 1_555 1_555
H73 C53 1_555 1_555
C54 C53 1_555 1_555
H74 C54 1_555 1_555
C55 C54 1_555 1_555
H75 C55 1_555 1_555
C56 C51 1_555 1_555
H76 C56 1_555 1_555
C3 C4 1_555 1_555
C13 C14 1_555 1_555
C17 C18 1_555 1_555
C27 C28 1_555 1_555
C31 C32 1_555 1_555
C41 C42 1_555 1_555
C45 C46 1_555 1_555
C55 C56 1_555 1_555

#END
