
#######################################################################
#
#                 Cambridge Crystallographic Data Centre
#                                CCDC 
#
#######################################################################
#
# If this CIF has been generated from an entry in the Cambridge 
# Structural Database, then it will include bibliographic, chemical, 
# crystal, experimental, refinement or atomic coordinate data resulting 
# from the CCDC's data processing and validation procedures.
#
#######################################################################

data_SUSVOS
_chemical_formula_moiety         'C16 H15 F1 O4'
_chemical_name_systematic        
3-(2-Fluorobenzylidene)-1,5-dioxaspiro[5.5]undecane-2,4-dione
_symmetry_cell_setting           monoclinic
_symmetry_space_group_name_H-M   'P 21/n'
_symmetry_Int_Tables_number      14
_space_group_name_Hall           '-P 2yn'
loop_
_symmetry_equiv_pos_site_id
_symmetry_equiv_pos_as_xyz
1 x,y,z
2 1/2-x,1/2+y,1/2-z
3 -x,-y,-z
4 1/2+x,1/2-y,1/2+z
_cell_length_a                   12.283(3)
_cell_length_b                   5.6367(11)
_cell_length_c                   20.055(4)
_cell_angle_alpha                90
_cell_angle_beta                 102.00(3)
_cell_angle_gamma                90
_cell_volume                     1358.18
_exptl_crystal_colour            colorless
_exptl_crystal_description       block
_cell_formula_units_Z            4
loop_
_atom_site_label
_atom_site_type_symbol
_atom_site_fract_x
_atom_site_fract_y
_atom_site_fract_z
O1 O 0.39619(8) 0.77693(19) 0.01160(5)
O2 O 0.26322(8) 0.61092(18) -0.07859(5)
F1 F 0.26427(9) 1.23492(17) 0.07209(5)
O3 O 0.36170(9) 0.7906(2) 0.11469(5)
C1 C 0.32502(12) 0.7804(2) 0.05428(7)
C2 C 0.18188(12) 0.6073(3) -0.04243(8)
O4 O 0.09991(10) 0.4892(2) -0.06245(6)
C3 C 0.19567(13) 1.1923(3) 0.11582(8)
C4 C 0.35056(12) 0.7865(2) -0.06122(7)
C5 C 0.12087(13) 0.8304(3) 0.04746(8)
H1 H 0.0507 0.7736 0.0272
C6 C 0.30684(13) 1.0328(3) -0.08259(7)
H2 H 0.3635 1.1495 -0.0649
H3 H 0.2423 1.0656 -0.0633
C7 C 0.44390(13) 0.7125(3) -0.09440(8)
H4 H 0.4620 0.5475 -0.0836
H5 H 0.5093 0.8068 -0.0760
C8 C 0.20550(12) 0.7501(2) 0.02143(7)
C9 C 0.12491(12) 0.9971(3) 0.10405(8)
C10 C 0.19862(15) 1.3502(3) 0.16822(8)
H6 H 0.2476 1.4778 0.1742
C11 C 0.12713(17) 1.3145(3) 0.21168(9)
H7 H 0.1285 1.4171 0.2482
C12 C 0.27472(14) 1.0548(3) -0.16032(8)
H8 H 0.2129 0.9494 -0.1778
H9 H 0.2510 1.2159 -0.1726
C13 C 0.05133(14) 0.9714(3) 0.14781(9)
H10 H 0.0001 0.8478 0.1409
C14 C 0.37228(16) 0.9922(3) -0.19216(8)
H11 H 0.4320 1.1053 -0.1774
H12 H 0.3498 1.0019 -0.2414
C15 C 0.05316(17) 1.1264(3) 0.20134(9)
H13 H 0.0044 1.1043 0.2306
C16 C 0.41410(16) 0.7428(3) -0.17182(9)
H14 H 0.4793 0.7104 -0.1906
H15 H 0.3570 0.6288 -0.1910
loop_
_geom_bond_atom_site_label_1
_geom_bond_atom_site_label_2
_geom_bond_site_symmetry_1
_geom_bond_site_symmetry_2
O1 C1 1_555 1_555
O2 C2 1_555 1_555
F1 C3 1_555 1_555
O3 C1 1_555 1_555
C1 C8 1_555 1_555
C2 O4 1_555 1_555
C3 C9 1_555 1_555
C4 O1 1_555 1_555
C5 H1 1_555 1_555
C6 C4 1_555 1_555
H2 C6 1_555 1_555
H3 C6 1_555 1_555
C7 C4 1_555 1_555
H4 C7 1_555 1_555
H5 C7 1_555 1_555
C8 C2 1_555 1_555
C9 C5 1_555 1_555
C10 C3 1_555 1_555
H6 C10 1_555 1_555
C11 C10 1_555 1_555
H7 C11 1_555 1_555
C12 C6 1_555 1_555
H8 C12 1_555 1_555
H9 C12 1_555 1_555
C13 C9 1_555 1_555
H10 C13 1_555 1_555
C14 C12 1_555 1_555
H11 C14 1_555 1_555
H12 C14 1_555 1_555
C15 C11 1_555 1_555
H13 C15 1_555 1_555
C16 C7 1_555 1_555
H14 C16 1_555 1_555
H15 C16 1_555 1_555
O2 C4 1_555 1_555
C5 C8 1_555 1_555
C13 C15 1_555 1_555
C14 C16 1_555 1_555

#END
