
#######################################################################
#
#                 Cambridge Crystallographic Data Centre
#                                CCDC 
#
#######################################################################
#
# If this CIF has been generated from an entry in the Cambridge 
# Structural Database, then it will include bibliographic, chemical, 
# crystal, experimental, refinement or atomic coordinate data resulting 
# from the CCDC's data processing and validation procedures.
#
#######################################################################

data_SUSXIP
_chemical_formula_moiety         'C3 H2 N7 O2 1-,H5 N2 1+'
_chemical_name_systematic        
'hydrazinium 5-(4-amino-1,2,5-oxadiazol-3-yl)-1H-tetrazol-1-olate'
_symmetry_cell_setting           monoclinic
_symmetry_space_group_name_H-M   'P 21/c'
_symmetry_Int_Tables_number      14
_space_group_name_Hall           '-P 2ybc'
loop_
_symmetry_equiv_pos_site_id
_symmetry_equiv_pos_as_xyz
1 x,y,z
2 -x,1/2+y,1/2-z
3 -x,-y,-z
4 x,1/2-y,1/2+z
_cell_length_a                   6.62820(10)
_cell_length_b                   9.0232(2)
_cell_length_c                   13.2843(2)
_cell_angle_alpha                90
_cell_angle_beta                 99.6310(10)
_cell_angle_gamma                90
_cell_volume                     783.304
_exptl_crystal_colour            colorless
_exptl_crystal_description       plate
_cell_formula_units_Z            4
loop_
_atom_site_label
_atom_site_type_symbol
_atom_site_fract_x
_atom_site_fract_y
_atom_site_fract_z
N1 N 0.18364(18) 0.18156(13) 0.21297(9)
O1 O 0.18504(16) 0.03898(10) 0.25054(8)
N2 N 0.26409(18) 0.03582(13) 0.35549(9)
C1 C 0.31061(19) 0.17334(14) 0.38013(10)
N3 N 0.40323(17) 0.21920(14) 0.47415(9)
H1 H 0.387(3) 0.163(2) 0.5253(14)
H2 H 0.396(3) 0.314(2) 0.4846(14)
C2 C 0.25943(18) 0.26396(15) 0.29033(10)
C3 C 0.28676(19) 0.42281(15) 0.28608(10)
N4 N 0.33887(17) 0.51078(12) 0.36723(8)
N5 N 0.34184(19) 0.64946(12) 0.32981(9)
N6 N 0.29459(18) 0.64940(12) 0.23023(9)
N7 N 0.26072(16) 0.50754(13) 0.20227(8)
O2 O 0.21077(14) 0.46789(10) 0.10617(7)
N8 N -0.12376(19) 0.21181(12) 0.51816(9)
H3 H -0.013(3) 0.1898(18) 0.5575(14)
H4 H -0.154(2) 0.1320(19) 0.4720(13)
H5 H -0.225(3) 0.2210(18) 0.5560(13)
N9 N -0.0972(2) 0.34427(13) 0.46036(11)
H6 H -0.138(3) 0.415(2) 0.4982(14)
H7 H -0.177(3) 0.3346(19) 0.4024(17)
loop_
_geom_bond_atom_site_label_1
_geom_bond_atom_site_label_2
_geom_bond_site_symmetry_1
_geom_bond_site_symmetry_2
N1 O1 1_555 1_555
O1 N2 1_555 1_555
N2 C1 1_555 1_555
C1 N3 1_555 1_555
N3 H1 1_555 1_555
H2 N3 1_555 1_555
C2 N1 1_555 1_555
C3 C2 1_555 1_555
N4 C3 1_555 1_555
N5 N4 1_555 1_555
N6 N5 1_555 1_555
N7 C3 1_555 1_555
O2 N7 1_555 1_555
N8 H3 1_555 1_555
H4 N8 1_555 1_555
H5 N8 1_555 1_555
N9 N8 1_555 1_555
H6 N9 1_555 1_555
H7 N9 1_555 1_555
C1 C2 1_555 1_555
N6 N7 1_555 1_555

#END
