
#######################################################################
#
#                 Cambridge Crystallographic Data Centre
#                                CCDC 
#
#######################################################################
#
# If this CIF has been generated from an entry in the Cambridge 
# Structural Database, then it will include bibliographic, chemical, 
# crystal, experimental, refinement or atomic coordinate data resulting 
# from the CCDC's data processing and validation procedures.
#
#######################################################################

data_SUSXOV
_chemical_formula_moiety         'C3 H2 N7 O2 1-,H4 N1 O1 1+'
_chemical_name_systematic        
'hydroxyammonium 5-(4-amino-1,2,5-oxadiazol-3-yl)-1H-tetrazol-1-olate'
_symmetry_cell_setting           monoclinic
_symmetry_space_group_name_H-M   'P 21/c'
_symmetry_Int_Tables_number      14
_space_group_name_Hall           '-P 2ybc'
loop_
_symmetry_equiv_pos_site_id
_symmetry_equiv_pos_as_xyz
1 x,y,z
2 -x,1/2+y,1/2-z
3 -x,-y,-z
4 x,1/2-y,1/2+z
_cell_length_a                   6.7317(15)
_cell_length_b                   17.461(4)
_cell_length_c                   6.6634(15)
_cell_angle_alpha                90
_cell_angle_beta                 109.764(5)
_cell_angle_gamma                90
_cell_volume                     737.093
_exptl_crystal_colour            colorless
_exptl_crystal_description       needle_plate
_cell_formula_units_Z            4
loop_
_atom_site_label
_atom_site_type_symbol
_atom_site_fract_x
_atom_site_fract_y
_atom_site_fract_z
N1 N 1.0971(2) 0.45128(8) 0.7390(3)
O1 O 1.02905(18) 0.52372(6) 0.7603(2)
N2 N 0.8178(2) 0.52282(8) 0.7505(3)
C1 C 0.7591(3) 0.45112(10) 0.7226(4)
N3 N 0.5630(2) 0.42599(9) 0.7002(3)
H1 H 0.476(4) 0.4571(13) 0.722(4)
H2 H 0.538(3) 0.3770(12) 0.713(4)
C2 C 0.9365(2) 0.40659(9) 0.7146(3)
C3 C 0.9399(2) 0.32450(9) 0.6859(4)
N4 N 0.7684(2) 0.28031(8) 0.6179(3)
N5 N 0.8407(2) 0.20824(8) 0.6275(3)
N6 N 1.0480(2) 0.20656(8) 0.6983(3)
N7 N 1.1113(2) 0.27956(8) 0.7354(3)
O2 O 1.31259(17) 0.29784(6) 0.8089(3)
N8 N 0.4439(2) 0.14709(8) 0.7153(4)
H3 H 0.343(3) 0.1177(11) 0.733(3)
H4 H 0.497(3) 0.1795(13) 0.819(4)
H5 H 0.388(3) 0.1695(12) 0.568(4)
O3 O 0.60476(19) 0.09325(7) 0.7277(2)
H6 H 0.690(4) 0.1196(12) 0.689(4)
loop_
_geom_bond_atom_site_label_1
_geom_bond_atom_site_label_2
_geom_bond_site_symmetry_1
_geom_bond_site_symmetry_2
N1 O1 1_555 1_555
O1 N2 1_555 1_555
N2 C1 1_555 1_555
C1 N3 1_555 1_555
N3 H1 1_555 1_555
H2 N3 1_555 1_555
C2 N1 1_555 1_555
C3 C2 1_555 1_555
N4 C3 1_555 1_555
N5 N4 1_555 1_555
N6 N5 1_555 1_555
N7 C3 1_555 1_555
O2 N7 1_555 1_555
N8 H3 1_555 1_555
H4 N8 1_555 1_555
H5 N8 1_555 1_555
O3 N8 1_555 1_555
H6 O3 1_555 1_555
C1 C2 1_555 1_555
N6 N7 1_555 1_555

#END
