
#######################################################################
#
#                 Cambridge Crystallographic Data Centre
#                                CCDC 
#
#######################################################################
#
# If this CIF has been generated from an entry in the Cambridge 
# Structural Database, then it will include bibliographic, chemical, 
# crystal, experimental, refinement or atomic coordinate data resulting 
# from the CCDC's data processing and validation procedures.
#
#######################################################################

data_SUTDOC
_chemical_formula_moiety         'C16 H20 B10 F1 N1'
_chemical_name_systematic        
2,3-(1,2-Dicarba-closo-dodecaborane-1,2-diyl)-1-(4-fluorophenyl)indole
_symmetry_cell_setting           triclinic
_symmetry_space_group_name_H-M   'P -1'
_symmetry_Int_Tables_number      2
_space_group_name_Hall           '-P 1'
loop_
_symmetry_equiv_pos_site_id
_symmetry_equiv_pos_as_xyz
1 x,y,z
2 -x,-y,-z
_cell_length_a                   8.1830(7)
_cell_length_b                   10.8698(9)
_cell_length_c                   11.3610(9)
_cell_angle_alpha                81.460(2)
_cell_angle_beta                 75.361(2)
_cell_angle_gamma                73.663(2)
_cell_volume                     934.985
_exptl_crystal_colour            colorless
_exptl_crystal_description       block
_cell_formula_units_Z            2
loop_
_atom_site_label
_atom_site_type_symbol
_atom_site_fract_x
_atom_site_fract_y
_atom_site_fract_z
N1 N 0.39729(19) 0.29858(14) 0.61585(13)
C1 C 0.6118(2) 0.19947(16) 0.83121(14)
C2 C 0.6685(2) 0.15647(16) 0.69319(14)
C3 C 0.4697(2) 0.18705(16) 0.69091(15)
H1 H 0.4324 0.1107 0.6842
C4 C 0.4155(2) 0.23027(17) 0.82516(15)
H2 H 0.3491 0.1769 0.8843
C5 C 0.3169(2) 0.36807(17) 0.81009(15)
C6 C 0.2403(3) 0.4560(2) 0.89616(17)
H3 H 0.2407 0.4316 0.9781
C7 C 0.1625(3) 0.5821(2) 0.85896(19)
H4 H 0.1082 0.6421 0.9163
C8 C 0.1660(3) 0.61766(19) 0.73711(18)
H5 H 0.1159 0.7027 0.7131
C9 C 0.2420(2) 0.53037(18) 0.64903(17)
H6 H 0.2449 0.5561 0.5669
C10 C 0.3133(2) 0.40389(17) 0.68685(15)
C11 C 0.3937(2) 0.28931(17) 0.49429(15)
C12 C 0.2572(2) 0.36401(19) 0.44152(16)
H7 H 0.1630 0.4193 0.4883
C13 C 0.2609(3) 0.35653(19) 0.32013(17)
H8 H 0.1709 0.4075 0.2848
C14 C 0.3982(3) 0.27346(18) 0.25336(16)
C15 C 0.5303(3) 0.1941(2) 0.30292(18)
H9 H 0.6204 0.1356 0.2565
C16 C 0.5269(2) 0.20286(18) 0.42408(17)
H10 H 0.6161 0.1495 0.4589
F1 F 0.40188(19) 0.26827(12) 0.13352(10)
B1 B 0.7089(3) 0.29700(19) 0.71610(17)
H11 H 0.6444 0.3943 0.6825
B2 B 0.7582(3) 0.2669(2) 0.86269(19)
H12 H 0.7249 0.3436 0.9243
B3 B 0.7482(3) 0.1066(2) 0.92080(18)
H13 H 0.7091 0.0813 1.0194
B4 B 0.6886(3) 0.0374(2) 0.81126(18)
H14 H 0.6101 -0.0335 0.8393
B5 B 0.8608(3) 0.1876(2) 0.61457(18)
H15 H 0.8942 0.2130 0.5156
B6 B 0.9262(3) 0.2560(2) 0.7240(2)
H16 H 1.0059 0.3262 0.6960
B7 B 0.9530(3) 0.1384(3) 0.8497(2)
H17 H 1.0505 0.1326 0.9029
B8 B 0.9074(3) -0.0020(2) 0.81847(19)
H18 H 0.9745 -0.0988 0.8513
B9 B 0.8487(3) 0.0290(2) 0.67267(19)
H19 H 0.8739 -0.0464 0.6109
B10 B 1.0154(3) 0.0907(3) 0.6973(2)
H20 H 1.1531 0.0539 0.6519
loop_
_geom_bond_atom_site_label_1
_geom_bond_atom_site_label_2
_geom_bond_site_symmetry_1
_geom_bond_site_symmetry_2
N1 C3 1_555 1_555
C1 C2 1_555 1_555
C2 C3 1_555 1_555
C3 H1 1_555 1_555
C4 C1 1_555 1_555
H2 C4 1_555 1_555
C5 C4 1_555 1_555
C6 C5 1_555 1_555
H3 C6 1_555 1_555
C7 C6 1_555 1_555
H4 C7 1_555 1_555
C8 C7 1_555 1_555
H5 C8 1_555 1_555
C9 C8 1_555 1_555
H6 C9 1_555 1_555
C10 N1 1_555 1_555
C11 N1 1_555 1_555
C12 C11 1_555 1_555
H7 C12 1_555 1_555
C13 C12 1_555 1_555
H8 C13 1_555 1_555
C14 C13 1_555 1_555
C15 C14 1_555 1_555
H9 C15 1_555 1_555
C16 C11 1_555 1_555
H10 C16 1_555 1_555
F1 C14 1_555 1_555
B1 C1 1_555 1_555
H11 B1 1_555 1_555
B2 C1 1_555 1_555
H12 B2 1_555 1_555
B3 C1 1_555 1_555
H13 B3 1_555 1_555
B4 C1 1_555 1_555
H14 B4 1_555 1_555
B5 C2 1_555 1_555
H15 B5 1_555 1_555
B6 B1 1_555 1_555
H16 B6 1_555 1_555
B7 B2 1_555 1_555
H17 B7 1_555 1_555
B8 B3 1_555 1_555
H18 B8 1_555 1_555
B9 C2 1_555 1_555
H19 B9 1_555 1_555
B10 B5 1_555 1_555
H20 B10 1_555 1_555
C2 B1 1_555 1_555
C2 B4 1_555 1_555
C3 C4 1_555 1_555
C5 C10 1_555 1_555
C9 C10 1_555 1_555
C15 C16 1_555 1_555
B1 B2 1_555 1_555
B1 B5 1_555 1_555
B2 B3 1_555 1_555
B2 B6 1_555 1_555
B3 B4 1_555 1_555
B3 B7 1_555 1_555
B4 B8 1_555 1_555
B4 B9 1_555 1_555
B5 B6 1_555 1_555
B5 B9 1_555 1_555
B6 B7 1_555 1_555
B6 B10 1_555 1_555
B7 B8 1_555 1_555
B7 B10 1_555 1_555
B8 B9 1_555 1_555
B8 B10 1_555 1_555
B9 B10 1_555 1_555

#END
