
#######################################################################
#
#                 Cambridge Crystallographic Data Centre
#                                CCDC 
#
#######################################################################
#
# If this CIF has been generated from an entry in the Cambridge 
# Structural Database, then it will include bibliographic, chemical, 
# crystal, experimental, refinement or atomic coordinate data resulting 
# from the CCDC's data processing and validation procedures.
#
#######################################################################

data_SUTDES
_chemical_formula_moiety         'C14 H27 B10 N1 Si1'
_chemical_name_systematic        
2,3-(1,2-Dicarba-closo-dodecaborane-1,2-diyl)-7-methyl-1-(trimethylsilyl)indole
_symmetry_cell_setting           monoclinic
_symmetry_space_group_name_H-M   'P 21/c'
_symmetry_Int_Tables_number      14
_space_group_name_Hall           '-P 2ybc'
loop_
_symmetry_equiv_pos_site_id
_symmetry_equiv_pos_as_xyz
1 x,y,z
2 -x,1/2+y,1/2-z
3 -x,-y,-z
4 x,1/2-y,1/2+z
_cell_length_a                   10.6851(5)
_cell_length_b                   20.7939(10)
_cell_length_c                   10.3533(4)
_cell_angle_alpha                90
_cell_angle_beta                 118.6225(12)
_cell_angle_gamma                90
_cell_volume                     2019.23
_exptl_crystal_colour            colorless
_exptl_crystal_description       block
_cell_formula_units_Z            4
loop_
_atom_site_label
_atom_site_type_symbol
_atom_site_fract_x
_atom_site_fract_y
_atom_site_fract_z
Si1 Si 1.21584(6) 0.37333(3) 0.79839(6)
N1 N 1.06918(16) 0.42572(8) 0.70916(17)
C1 C 0.72226(18) 0.41553(9) 0.51221(19)
C2 C 0.83729(18) 0.35753(8) 0.57160(19)
C3 C 0.83857(19) 0.46075(9) 0.5124(2)
H1 H 0.8161 0.4766 0.4145
C4 C 0.9042(2) 0.51012(9) 0.6300(2)
C5 C 0.8494(3) 0.56938(10) 0.6343(3)
H2 H 0.7616 0.5826 0.5586
C6 C 0.9278(3) 0.60887(12) 0.7537(3)
H3 H 0.8941 0.6495 0.7590
C7 C 1.0557(3) 0.58745(12) 0.8642(3)
H4 H 1.1072 0.6148 0.9434
C8 C 1.1139(2) 0.52682(11) 0.8653(3)
C9 C 1.2478(3) 0.50707(18) 1.0005(4)
H5 H 1.2757 0.4649 0.9861
H6 H 1.2308 0.5065 1.0835
H7 H 1.3224 0.5372 1.0182
C10 C 1.0353(2) 0.48796(9) 0.7411(2)
C11 C 0.95080(19) 0.40493(9) 0.5692(2)
H8 H 0.9814 0.3924 0.4974
C12 C 1.3837(2) 0.41127(15) 0.8239(3)
H9 H 1.4064 0.4474 0.8890
H10 H 1.3717 0.4255 0.7304
H11 H 1.4599 0.3805 0.8654
C13 C 1.1796(3) 0.30408(12) 0.6720(3)
H12 H 1.0934 0.2830 0.6561
H13 H 1.2575 0.2742 0.7149
H14 H 1.1691 0.3192 0.5797
C14 C 1.2316(4) 0.34126(17) 0.9726(3)
H15 H 1.1428 0.3220 0.9538
H16 H 1.2544 0.3757 1.0421
H17 H 1.3057 0.3095 1.0120
B1 B 0.7837(2) 0.38904(10) 0.6908(2)
H18 H 0.8514 0.4167 0.7910
B2 B 0.6030(2) 0.41007(11) 0.5765(3)
H19 H 0.5536 0.4512 0.6017
B3 B 0.5550(2) 0.38972(12) 0.3907(3)
H20 H 0.4753 0.4180 0.2979
B4 B 0.7064(2) 0.35583(11) 0.3886(2)
H21 H 0.7245 0.3620 0.2933
B5 B 0.8090(2) 0.30529(10) 0.6808(2)
H22 H 0.8930 0.2785 0.7734
B6 B 0.6531(2) 0.33720(11) 0.6823(3)
H23 H 0.6339 0.3304 0.7767
B7 B 0.5110(2) 0.33664(12) 0.4979(3)
H24 H 0.3997 0.3295 0.4731
B8 B 0.5762(2) 0.30412(12) 0.3825(3)
H25 H 0.5076 0.2761 0.2834
B9 B 0.7615(2) 0.28517(11) 0.4960(3)
H26 H 0.8154 0.2458 0.4710
B10 B 0.6378(2) 0.27230(11) 0.5627(3)
H27 H 0.6089 0.2235 0.5802
loop_
_geom_bond_atom_site_label_1
_geom_bond_atom_site_label_2
_geom_bond_site_symmetry_1
_geom_bond_site_symmetry_2
Si1 N1 1_555 1_555
N1 C10 1_555 1_555
C1 C2 1_555 1_555
C2 C11 1_555 1_555
C3 C1 1_555 1_555
H1 C3 1_555 1_555
C4 C3 1_555 1_555
C5 C4 1_555 1_555
H2 C5 1_555 1_555
C6 C5 1_555 1_555
H3 C6 1_555 1_555
C7 C6 1_555 1_555
H4 C7 1_555 1_555
C8 C7 1_555 1_555
C9 C8 1_555 1_555
H5 C9 1_555 1_555
H6 C9 1_555 1_555
H7 C9 1_555 1_555
C10 C4 1_555 1_555
C11 N1 1_555 1_555
H8 C11 1_555 1_555
C12 Si1 1_555 1_555
H9 C12 1_555 1_555
H10 C12 1_555 1_555
H11 C12 1_555 1_555
C13 Si1 1_555 1_555
H12 C13 1_555 1_555
H13 C13 1_555 1_555
H14 C13 1_555 1_555
C14 Si1 1_555 1_555
H15 C14 1_555 1_555
H16 C14 1_555 1_555
H17 C14 1_555 1_555
B1 C1 1_555 1_555
H18 B1 1_555 1_555
B2 C1 1_555 1_555
H19 B2 1_555 1_555
B3 C1 1_555 1_555
H20 B3 1_555 1_555
B4 C1 1_555 1_555
H21 B4 1_555 1_555
B5 C2 1_555 1_555
H22 B5 1_555 1_555
B6 B1 1_555 1_555
H23 B6 1_555 1_555
B7 B2 1_555 1_555
H24 B7 1_555 1_555
B8 B3 1_555 1_555
H25 B8 1_555 1_555
B9 C2 1_555 1_555
H26 B9 1_555 1_555
B10 B5 1_555 1_555
H27 B10 1_555 1_555
C2 B1 1_555 1_555
C2 B4 1_555 1_555
C3 C11 1_555 1_555
C8 C10 1_555 1_555
B1 B2 1_555 1_555
B1 B5 1_555 1_555
B2 B3 1_555 1_555
B2 B6 1_555 1_555
B3 B4 1_555 1_555
B3 B7 1_555 1_555
B4 B8 1_555 1_555
B4 B9 1_555 1_555
B5 B6 1_555 1_555
B5 B9 1_555 1_555
B6 B7 1_555 1_555
B6 B10 1_555 1_555
B7 B8 1_555 1_555
B7 B10 1_555 1_555
B8 B9 1_555 1_555
B8 B10 1_555 1_555
B9 B10 1_555 1_555

#END
