
#######################################################################
#
#                 Cambridge Crystallographic Data Centre
#                                CCDC 
#
#######################################################################
#
# If this CIF has been generated from an entry in the Cambridge 
# Structural Database, then it will include bibliographic, chemical, 
# crystal, experimental, refinement or atomic coordinate data resulting 
# from the CCDC's data processing and validation procedures.
#
#######################################################################

data_SUTDAO
_chemical_formula_moiety         'C14 H27 B10 N1 Si1'
_chemical_name_systematic        
2,3-(1,2-Dicarba-closo-dodecaborane-1,2-diyl)-5-methyl-1-(trimethylsilyl)indole
_symmetry_cell_setting           monoclinic
_symmetry_space_group_name_H-M   'P 21/c'
_symmetry_Int_Tables_number      14
_space_group_name_Hall           '-P 2ybc'
loop_
_symmetry_equiv_pos_site_id
_symmetry_equiv_pos_as_xyz
1 x,y,z
2 -x,1/2+y,1/2-z
3 -x,-y,-z
4 x,1/2-y,1/2+z
_cell_length_a                   10.2406(7)
_cell_length_b                   22.1698(16)
_cell_length_c                   10.4996(8)
_cell_angle_alpha                90
_cell_angle_beta                 118.297(3)
_cell_angle_gamma                90
_cell_volume                     2098.89
_exptl_crystal_colour            colorless
_exptl_crystal_description       block
_cell_formula_units_Z            4
loop_
_atom_site_label
_atom_site_type_symbol
_atom_site_fract_x
_atom_site_fract_y
_atom_site_fract_z
Si1 Si 0.74707(6) 0.12291(3) 0.46642(6)
N1 N 0.58902(15) 0.07671(6) 0.39758(15)
C1 C 0.22743(17) 0.08347(7) 0.20738(17)
C2 C 0.34360(17) 0.13846(7) 0.27861(16)
C3 C 0.33958(17) 0.03997(7) 0.32492(16)
H1 H 0.3026 0.0224 0.3874
C4 C 0.42590(18) -0.00343(7) 0.28445(17)
C5 C 0.3842(2) -0.05859(8) 0.21575(18)
H2 H 0.2891 -0.0733 0.1865
C6 C 0.4844(2) -0.09242(9) 0.1901(2)
C7 C 0.4413(3) -0.15325(10) 0.1167(3)
H3 H 0.5235 -0.1700 0.1087
H4 H 0.3583 -0.1486 0.0219
H5 H 0.4146 -0.1798 0.1729
C8 C 0.6241(2) -0.06820(10) 0.2348(2)
H6 H 0.6919 -0.0903 0.2183
C9 C 0.6677(2) -0.01277(10) 0.3027(2)
H7 H 0.7622 0.0022 0.3302
C10 C 0.56740(18) 0.02016(8) 0.32899(17)
C11 C 0.45232(17) 0.09364(7) 0.39747(16)
H8 H 0.4669 0.1035 0.4943
C12 C 0.9112(2) 0.08005(13) 0.6001(3)
H9 H 0.8931 0.0661 0.6769
H10 H 0.9968 0.1058 0.6391
H11 H 0.9284 0.0461 0.5532
C13 C 0.7070(3) 0.18702(10) 0.5554(3)
H12 H 0.6223 0.2087 0.4852
H13 H 0.7913 0.2135 0.5971
H14 H 0.6867 0.1721 0.6301
C14 C 0.7793(3) 0.14993(16) 0.3170(3)
H15 H 0.6940 0.1720 0.2488
H16 H 0.7958 0.1160 0.2696
H17 H 0.8647 0.1758 0.3552
B1 B 0.3129(2) 0.11176(8) 0.11195(19)
H18 H 0.3943 0.0877 0.0904
B2 B 0.1233(2) 0.09064(9) 0.0249(2)
H19 H 0.0817 0.0528 -0.0520
B3 B 0.0479(2) 0.10625(10) 0.1438(2)
H20 H -0.0418 0.0784 0.1420
B4 B 0.1902(2) 0.13687(9) 0.3062(2)
H21 H 0.1921 0.1288 0.4104
B5 B 0.3320(2) 0.18990(9) 0.1530(2)
H22 H 0.4255 0.2163 0.1588
B6 B 0.1846(2) 0.16111(9) -0.0133(2)
H23 H 0.1804 0.1696 -0.1183
B7 B 0.0210(2) 0.15854(10) 0.0050(3)
H24 H -0.0893 0.1654 -0.0884
B8 B 0.0644(3) 0.18632(10) 0.1800(3)
H25 H -0.0170 0.2111 0.2002
B9 B 0.2576(2) 0.20524(9) 0.2722(2)
H26 H 0.3040 0.2412 0.3537
B10 B 0.1494(3) 0.21945(10) 0.0833(3)
H27 H 0.1226 0.2657 0.0405
loop_
_geom_bond_atom_site_label_1
_geom_bond_atom_site_label_2
_geom_bond_site_symmetry_1
_geom_bond_site_symmetry_2
Si1 N1 1_555 1_555
N1 C10 1_555 1_555
C1 C2 1_555 1_555
C2 C11 1_555 1_555
C3 C1 1_555 1_555
H1 C3 1_555 1_555
C4 C3 1_555 1_555
C5 C4 1_555 1_555
H2 C5 1_555 1_555
C6 C5 1_555 1_555
C7 C6 1_555 1_555
H3 C7 1_555 1_555
H4 C7 1_555 1_555
H5 C7 1_555 1_555
C8 C6 1_555 1_555
H6 C8 1_555 1_555
C9 C8 1_555 1_555
H7 C9 1_555 1_555
C10 C4 1_555 1_555
C11 N1 1_555 1_555
H8 C11 1_555 1_555
C12 Si1 1_555 1_555
H9 C12 1_555 1_555
H10 C12 1_555 1_555
H11 C12 1_555 1_555
C13 Si1 1_555 1_555
H12 C13 1_555 1_555
H13 C13 1_555 1_555
H14 C13 1_555 1_555
C14 Si1 1_555 1_555
H15 C14 1_555 1_555
H16 C14 1_555 1_555
H17 C14 1_555 1_555
B1 C1 1_555 1_555
H18 B1 1_555 1_555
B2 C1 1_555 1_555
H19 B2 1_555 1_555
B3 C1 1_555 1_555
H20 B3 1_555 1_555
B4 C1 1_555 1_555
H21 B4 1_555 1_555
B5 C2 1_555 1_555
H22 B5 1_555 1_555
B6 B1 1_555 1_555
H23 B6 1_555 1_555
B7 B2 1_555 1_555
H24 B7 1_555 1_555
B8 B3 1_555 1_555
H25 B8 1_555 1_555
B9 C2 1_555 1_555
H26 B9 1_555 1_555
B10 B5 1_555 1_555
H27 B10 1_555 1_555
C2 B1 1_555 1_555
C2 B4 1_555 1_555
C3 C11 1_555 1_555
C9 C10 1_555 1_555
B1 B2 1_555 1_555
B1 B5 1_555 1_555
B2 B3 1_555 1_555
B2 B6 1_555 1_555
B3 B4 1_555 1_555
B3 B7 1_555 1_555
B4 B8 1_555 1_555
B4 B9 1_555 1_555
B5 B6 1_555 1_555
B5 B9 1_555 1_555
B6 B7 1_555 1_555
B6 B10 1_555 1_555
B7 B8 1_555 1_555
B7 B10 1_555 1_555
B8 B9 1_555 1_555
B8 B10 1_555 1_555
B9 B10 1_555 1_555

#END
