
#######################################################################
#
#                 Cambridge Crystallographic Data Centre
#                                CCDC 
#
#######################################################################
#
# If this CIF has been generated from an entry in the Cambridge 
# Structural Database, then it will include bibliographic, chemical, 
# crystal, experimental, refinement or atomic coordinate data resulting 
# from the CCDC's data processing and validation procedures.
#
#######################################################################

data_SUTFOE
_chemical_formula_moiety         'C11 H17 B10 N1'
_chemical_name_systematic        
1-(Quinolin-2-yl)-1,2-dicarba-closo-dodecaborane
_symmetry_cell_setting           monoclinic
_symmetry_space_group_name_H-M   'P 21/n'
_symmetry_Int_Tables_number      14
_space_group_name_Hall           '-P 2yn'
loop_
_symmetry_equiv_pos_site_id
_symmetry_equiv_pos_as_xyz
1 x,y,z
2 1/2-x,1/2+y,1/2-z
3 -x,-y,-z
4 1/2+x,1/2-y,1/2+z
_cell_length_a                   6.9969(6)
_cell_length_b                   20.1293(17)
_cell_length_c                   11.0355(9)
_cell_angle_alpha                90
_cell_angle_beta                 94.813(2)
_cell_angle_gamma                90
_cell_volume                     1548.79
_exptl_crystal_colour            colorless
_exptl_crystal_description       block
_cell_formula_units_Z            4
loop_
_atom_site_label
_atom_site_type_symbol
_atom_site_fract_x
_atom_site_fract_y
_atom_site_fract_z
N1 N 0.7724(2) 0.10230(8) 0.63546(14)
C1 C 0.8202(3) 0.12759(9) 0.84698(16)
C2 C 0.7564(3) 0.20376(10) 0.81202(17)
H1 H 0.6995 0.2158 0.7187
C3 C 0.7986(3) 0.07714(10) 0.74564(17)
C4 C 0.8098(3) 0.00908(10) 0.77163(19)
H2 H 0.8292 -0.0060 0.8514
C5 C 0.7915(3) -0.03454(11) 0.6767(2)
H3 H 0.7975 -0.0800 0.6913
C6 C 0.7636(3) -0.01084(10) 0.55727(18)
C7 C 0.7452(3) -0.05272(12) 0.4537(2)
H4 H 0.7504 -0.0986 0.4635
C8 C 0.7200(3) -0.02637(13) 0.3404(2)
H5 H 0.7081 -0.0543 0.2732
C9 C 0.7119(3) 0.04249(13) 0.3238(2)
H6 H 0.6935 0.0598 0.2455
C10 C 0.7307(3) 0.08465(11) 0.42090(17)
H7 H 0.7271 0.1304 0.4087
C11 C 0.7557(3) 0.05860(10) 0.54001(17)
B1 B 0.6114(4) 0.15873(14) 0.8979(2)
H8 H 0.4664 0.1411 0.8675
B2 B 0.7743(4) 0.11078(13) 0.9926(2)
H9 H 0.7347 0.0614 1.0251
B3 B 1.0107(4) 0.12786(14) 0.9541(2)
H10 H 1.1235 0.0897 0.9620
B4 B 0.9962(3) 0.18683(13) 0.8341(2)
H11 H 1.0975 0.1872 0.7632
B5 B 0.6616(4) 0.24338(14) 0.9282(2)
H12 H 0.5479 0.2812 0.9181
B6 B 0.6757(4) 0.18506(14) 1.0479(2)
H13 H 0.5720 0.1846 1.1175
B7 B 0.9226(4) 0.16604(14) 1.0828(2)
H14 H 0.9794 0.1531 1.1758
B8 B 1.0596(4) 0.21316(14) 0.9838(2)
H15 H 1.2052 0.2311 1.0118
B9 B 0.8960(4) 0.26064(13) 0.8886(2)
H16 H 0.9331 0.3096 0.8528
B10 B 0.8533(4) 0.24810(13) 1.0429(2)
H17 H 0.8653 0.2887 1.1098
loop_
_geom_bond_atom_site_label_1
_geom_bond_atom_site_label_2
_geom_bond_site_symmetry_1
_geom_bond_site_symmetry_2
N1 C3 1_555 1_555
C1 C2 1_555 1_555
C2 H1 1_555 1_555
C3 C1 1_555 1_555
C4 C3 1_555 1_555
H2 C4 1_555 1_555
C5 C4 1_555 1_555
H3 C5 1_555 1_555
C6 C5 1_555 1_555
C7 C6 1_555 1_555
H4 C7 1_555 1_555
C8 C7 1_555 1_555
H5 C8 1_555 1_555
C9 C8 1_555 1_555
H6 C9 1_555 1_555
C10 C9 1_555 1_555
H7 C10 1_555 1_555
C11 N1 1_555 1_555
B1 C1 1_555 1_555
H8 B1 1_555 1_555
B2 C1 1_555 1_555
H9 B2 1_555 1_555
B3 C1 1_555 1_555
H10 B3 1_555 1_555
B4 C1 1_555 1_555
H11 B4 1_555 1_555
B5 C2 1_555 1_555
H12 B5 1_555 1_555
B6 B1 1_555 1_555
H13 B6 1_555 1_555
B7 B2 1_555 1_555
H14 B7 1_555 1_555
B8 B3 1_555 1_555
H15 B8 1_555 1_555
B9 C2 1_555 1_555
H16 B9 1_555 1_555
B10 B5 1_555 1_555
H17 B10 1_555 1_555
C2 B1 1_555 1_555
C2 B4 1_555 1_555
C6 C11 1_555 1_555
C10 C11 1_555 1_555
B1 B2 1_555 1_555
B1 B5 1_555 1_555
B2 B3 1_555 1_555
B2 B6 1_555 1_555
B3 B4 1_555 1_555
B3 B7 1_555 1_555
B4 B8 1_555 1_555
B4 B9 1_555 1_555
B5 B6 1_555 1_555
B5 B9 1_555 1_555
B6 B7 1_555 1_555
B6 B10 1_555 1_555
B7 B8 1_555 1_555
B7 B10 1_555 1_555
B8 B9 1_555 1_555
B8 B10 1_555 1_555
B9 B10 1_555 1_555

#END
