
#######################################################################
#
#                 Cambridge Crystallographic Data Centre
#                                CCDC 
#
#######################################################################
#
# If this CIF has been generated from an entry in the Cambridge 
# Structural Database, then it will include bibliographic, chemical, 
# crystal, experimental, refinement or atomic coordinate data resulting 
# from the CCDC's data processing and validation procedures.
#
#######################################################################

data_SUTGAR
_chemical_formula_moiety         'C12 H21 B10 N1'
_chemical_name_systematic        
1-(2,3-Dimethylindol-3-yl)-1,2-dicarba-closo-dodecaborane
_symmetry_cell_setting           triclinic
_symmetry_space_group_name_H-M   'P -1'
_symmetry_Int_Tables_number      2
_space_group_name_Hall           '-P 1'
loop_
_symmetry_equiv_pos_site_id
_symmetry_equiv_pos_as_xyz
1 x,y,z
2 -x,-y,-z
_cell_length_a                   6.7689(3)
_cell_length_b                   12.4813(6)
_cell_length_c                   19.7123(9)
_cell_angle_alpha                99.9760(10)
_cell_angle_beta                 98.3550(10)
_cell_angle_gamma                97.9010(10)
_cell_volume                     1600.04
_exptl_crystal_colour            colorless
_exptl_crystal_description       block
_cell_formula_units_Z            4
loop_
_atom_site_label
_atom_site_type_symbol
_atom_site_fract_x
_atom_site_fract_y
_atom_site_fract_z
N1 N 0.6357(2) 0.55874(13) 0.42860(8)
C1 C 0.2306(2) 0.51181(12) 0.29273(8)
C2 C 0.3015(2) 0.62308(13) 0.26089(8)
H1 H 0.3837 0.6988 0.2966
C3 C 0.2893(2) 0.51909(13) 0.37359(8)
C4 C 0.3440(3) 0.63759(14) 0.41387(8)
C5 C 0.2298(3) 0.71912(17) 0.42970(9)
H2 H 0.0910 0.7069 0.4136
C6 C 0.3282(4) 0.82032(18) 0.47055(10)
H3 H 0.2537 0.8762 0.4816
C7 C 0.5338(4) 0.83887(17) 0.49479(10)
H4 H 0.5967 0.9079 0.5205
C8 C 0.6472(3) 0.75691(17) 0.48155(10)
H5 H 0.7855 0.7688 0.4987
C9 C 0.5494(3) 0.65600(15) 0.44187(9)
C10 C 0.4966(3) 0.48158(15) 0.39253(9)
C11 C 0.1232(3) 0.45227(17) 0.40172(10)
H6 H 0.1631 0.4580 0.4511
H7 H 0.1033 0.3763 0.3787
H8 H -0.0008 0.4807 0.3929
C12 C 0.5344(3) 0.36571(16) 0.37645(11)
H9 H 0.6740 0.3636 0.3932
H10 H 0.5040 0.3388 0.3268
H11 H 0.4497 0.3202 0.3990
B1 B 0.4276(3) 0.51464(16) 0.24545(10)
H12 H 0.5859 0.5151 0.2685
B2 B 0.2367(3) 0.39681(16) 0.23213(10)
H13 H 0.2701 0.3189 0.2462
B3 B 0.0044(3) 0.44115(17) 0.24287(10)
H14 H -0.1125 0.3925 0.2637
B4 B 0.0496(3) 0.58672(17) 0.26326(10)
H15 H -0.0361 0.6335 0.2977
B5 B 0.3657(3) 0.59090(17) 0.18014(10)
H16 H 0.4834 0.6407 0.1604
B6 B 0.3214(3) 0.44452(17) 0.16001(10)
H17 H 0.4100 0.3978 0.1267
B7 B 0.0590(3) 0.39960(18) 0.15787(11)
H18 H -0.0233 0.3234 0.1227
B8 B -0.0576(3) 0.51807(19) 0.17722(11)
H19 H -0.2155 0.5196 0.1548
B9 B 0.1336(3) 0.63569(17) 0.19109(10)
H20 H 0.1018 0.7148 0.1785
B10 B 0.1372(3) 0.51954(18) 0.12535(10)
H21 H 0.1055 0.5216 0.0693
N2 N 0.3483(2) 0.94426(14) 0.08150(8)
C13 C 0.7688(2) 0.99353(12) 0.20945(8)
C14 C 0.8407(2) 0.88462(13) 0.23792(8)
H22 H 0.8381 0.8080 0.2004
C15 C 0.7001(2) 0.98397(13) 0.12891(8)
C16 C 0.6414(3) 0.86545(14) 0.09030(8)
C17 C 0.7554(3) 0.78503(16) 0.07231(9)
H23 H 0.8951 0.7979 0.0867
C18 C 0.6560(4) 0.68401(17) 0.03194(10)
H24 H 0.7303 0.6286 0.0194
C19 C 0.4494(4) 0.66509(18) 0.01028(10)
H25 H 0.3858 0.5965 -0.0159
C20 C 0.3352(3) 0.74612(18) 0.02669(10)
H26 H 0.1959 0.7334 0.0115
C21 C 0.4333(3) 0.84660(15) 0.06623(8)
C22 C 0.4923(3) 1.02186(15) 0.11403(9)
C23 C 0.8557(3) 1.04827(17) 0.09489(10)
H27 H 0.8056 1.0392 0.0458
H28 H 0.9812 1.0206 0.1015
H29 H 0.8775 1.1251 0.1162
C24 C 0.4647(4) 1.13961(17) 0.12670(11)
H30 H 0.3240 1.1439 0.1140
H31 H 0.5423 1.1789 0.0989
H32 H 0.5100 1.1719 0.1753
B11 B 1.0233(3) 0.99389(17) 0.23866(10)
H33 H 1.1384 0.9937 0.2046
B12 B 0.9065(3) 1.11044(16) 0.26266(11)
H34 H 0.9466 1.1878 0.2445
B13 B 0.6545(3) 1.06284(17) 0.27220(10)
H35 H 0.5313 1.1094 0.2605
B14 B 0.6129(3) 0.91755(16) 0.25259(10)
H36 H 0.4647 0.8687 0.2271
B15 B 1.0315(3) 0.91990(18) 0.30771(10)
H37 H 1.1533 0.8722 0.3187
B16 B 1.0733(3) 1.06594(18) 0.32616(11)
H38 H 1.2231 1.1146 0.3498
B17 B 0.8458(3) 1.10863(17) 0.34714(11)
H39 H 0.8480 1.1852 0.3847
B18 B 0.6624(3) 0.98817(18) 0.34069(10)
H40 H 0.5451 0.9859 0.3738
B19 B 0.7781(3) 0.87237(17) 0.31640(10)
H41 H 0.7363 0.7938 0.3330
B20 B 0.9221(3) 0.99077(18) 0.37502(10)
H42 H 0.9735 0.9905 0.4305
loop_
_geom_bond_atom_site_label_1
_geom_bond_atom_site_label_2
_geom_bond_site_symmetry_1
_geom_bond_site_symmetry_2
N1 C9 1_555 1_555
C1 C2 1_555 1_555
C2 H1 1_555 1_555
C3 C1 1_555 1_555
C4 C3 1_555 1_555
C5 C4 1_555 1_555
H2 C5 1_555 1_555
C6 C5 1_555 1_555
H3 C6 1_555 1_555
C7 C6 1_555 1_555
H4 C7 1_555 1_555
C8 C7 1_555 1_555
H5 C8 1_555 1_555
C9 C4 1_555 1_555
C10 N1 1_555 1_555
C11 C3 1_555 1_555
H6 C11 1_555 1_555
H7 C11 1_555 1_555
H8 C11 1_555 1_555
C12 C10 1_555 1_555
H9 C12 1_555 1_555
H10 C12 1_555 1_555
H11 C12 1_555 1_555
B1 C1 1_555 1_555
H12 B1 1_555 1_555
B2 C1 1_555 1_555
H13 B2 1_555 1_555
B3 C1 1_555 1_555
H14 B3 1_555 1_555
B4 C1 1_555 1_555
H15 B4 1_555 1_555
B5 C2 1_555 1_555
H16 B5 1_555 1_555
B6 B1 1_555 1_555
H17 B6 1_555 1_555
B7 B2 1_555 1_555
H18 B7 1_555 1_555
B8 B3 1_555 1_555
H19 B8 1_555 1_555
B9 C2 1_555 1_555
H20 B9 1_555 1_555
B10 B5 1_555 1_555
H21 B10 1_555 1_555
N2 C21 1_555 1_555
C13 C14 1_555 1_555
C14 H22 1_555 1_555
C15 C13 1_555 1_555
C16 C15 1_555 1_555
C17 C16 1_555 1_555
H23 C17 1_555 1_555
C18 C17 1_555 1_555
H24 C18 1_555 1_555
C19 C18 1_555 1_555
H25 C19 1_555 1_555
C20 C19 1_555 1_555
H26 C20 1_555 1_555
C21 C16 1_555 1_555
C22 N2 1_555 1_555
C23 C15 1_555 1_555
H27 C23 1_555 1_555
H28 C23 1_555 1_555
H29 C23 1_555 1_555
C24 C22 1_555 1_555
H30 C24 1_555 1_555
H31 C24 1_555 1_555
H32 C24 1_555 1_555
B11 C13 1_555 1_555
H33 B11 1_555 1_555
B12 C13 1_555 1_555
H34 B12 1_555 1_555
B13 C13 1_555 1_555
H35 B13 1_555 1_555
B14 C13 1_555 1_555
H36 B14 1_555 1_555
B15 C14 1_555 1_555
H37 B15 1_555 1_555
B16 B11 1_555 1_555
H38 B16 1_555 1_555
B17 B12 1_555 1_555
H39 B17 1_555 1_555
B18 B13 1_555 1_555
H40 B18 1_555 1_555
B19 C14 1_555 1_555
H41 B19 1_555 1_555
B20 B15 1_555 1_555
H42 B20 1_555 1_555
C2 B1 1_555 1_555
C2 B4 1_555 1_555
C3 C10 1_555 1_555
C8 C9 1_555 1_555
B1 B2 1_555 1_555
B1 B5 1_555 1_555
B2 B3 1_555 1_555
B2 B6 1_555 1_555
B3 B4 1_555 1_555
B3 B7 1_555 1_555
B4 B8 1_555 1_555
B4 B9 1_555 1_555
B5 B6 1_555 1_555
B5 B9 1_555 1_555
B6 B7 1_555 1_555
B6 B10 1_555 1_555
B7 B8 1_555 1_555
B7 B10 1_555 1_555
B8 B9 1_555 1_555
B8 B10 1_555 1_555
B9 B10 1_555 1_555
C14 B11 1_555 1_555
C14 B14 1_555 1_555
C15 C22 1_555 1_555
C20 C21 1_555 1_555
B11 B12 1_555 1_555
B11 B15 1_555 1_555
B12 B13 1_555 1_555
B12 B16 1_555 1_555
B13 B14 1_555 1_555
B13 B17 1_555 1_555
B14 B18 1_555 1_555
B14 B19 1_555 1_555
B15 B16 1_555 1_555
B15 B19 1_555 1_555
B16 B17 1_555 1_555
B16 B20 1_555 1_555
B17 B18 1_555 1_555
B17 B20 1_555 1_555
B18 B19 1_555 1_555
B18 B20 1_555 1_555
B19 B20 1_555 1_555

#END
