
#######################################################################
#
#                 Cambridge Crystallographic Data Centre
#                                CCDC 
#
#######################################################################
#
# If this CIF has been generated from an entry in the Cambridge 
# Structural Database, then it will include bibliographic, chemical, 
# crystal, experimental, refinement or atomic coordinate data resulting 
# from the CCDC's data processing and validation procedures.
#
#######################################################################

data_SUTKUP
_chemical_formula_moiety         'C30 H44 O4'
_chemical_name_systematic        
'2-Methyl-6-(5,5,7b,12b-tetramethyl-11-methylene-3-oxo-2,3,5,5a,6,7,7a,7b,8,9,10,11,11a,12b-tetradecahydro-1H-fluoreno[2,1-c]oxepin-10-yl)hept-2-enoic acid'
_symmetry_cell_setting           monoclinic
_symmetry_space_group_name_H-M   'P 21'
_symmetry_Int_Tables_number      4
_space_group_name_Hall           'P 2yb'
loop_
_symmetry_equiv_pos_site_id
_symmetry_equiv_pos_as_xyz
1 x,y,z
2 -x,1/2+y,-z
_cell_length_a                   7.49900(10)
_cell_length_b                   8.9180(2)
_cell_length_c                   19.5887(4)
_cell_angle_alpha                90
_cell_angle_beta                 95.4570(10)
_cell_angle_gamma                90
_cell_volume                     1304.08
_exptl_crystal_colour            colorless
_exptl_crystal_description       prism
_cell_formula_units_Z            2
loop_
_atom_site_label
_atom_site_type_symbol
_atom_site_fract_x
_atom_site_fract_y
_atom_site_fract_z
O1 O 0.67146(16) 0.18105(14) 0.48180(6)
O2 O 1.16899(19) 0.7395(2) 0.67852(7)
O3 O 1.01726(17) 0.73728(15) 0.57533(6)
H1 H 1.1189 0.7170 0.5631
O4 O 0.46078(15) 0.16052(13) 0.54895(6)
C1 C 0.6049(2) 0.23078(19) 0.53120(8)
C2 C 0.6847(2) 0.36185(19) 0.57156(8)
H2 H 0.5986 0.4462 0.5674
H3 H 0.7944 0.3945 0.5514
C3 C 0.7324(2) 0.32717(18) 0.64781(8)
H4 H 0.8241 0.4003 0.6661
H5 H 0.7881 0.2265 0.6514
C4 C 0.5782(2) 0.33015(17) 0.69423(8)
C5 C 0.6549(2) 0.29743(17) 0.76741(8)
C6 C 0.8233(2) 0.28243(18) 0.79352(9)
H6 H 0.9221 0.2876 0.7667
C7 C 0.8436(2) 0.25625(19) 0.87012(8)
H7 H 0.8903 0.1524 0.8792
C8 C 0.9659(2) 0.36590(19) 0.91050(8)
C9 C 0.9123(2) 0.53087(19) 0.90718(8)
H8 H 0.9660 0.5787 0.9505
C10 C 0.9839(2) 0.61802(19) 0.84681(9)
H9 H 0.9190 0.5812 0.8030
C11 C 0.9456(2) 0.7870(2) 0.85333(9)
H10 H 0.8183 0.8003 0.8615
H11 H 1.0196 0.8266 0.8939
C12 C 0.9837(2) 0.87942(19) 0.79010(9)
H12 H 0.9893 0.9870 0.8026
H13 H 1.1019 0.8502 0.7758
C13 C 0.8442(2) 0.85759(19) 0.73125(9)
H14 H 0.7259 0.8817 0.7411
C14 C 0.8568(2) 0.81000(18) 0.66713(9)
C15 C 1.0300(2) 0.75858(19) 0.64330(9)
C16 C 0.6465(2) 0.26483(19) 0.89117(8)
C17 C 0.6262(2) 0.4039(2) 0.93616(9)
H15 H 0.4974 0.4213 0.9406
H16 H 0.6860 0.3848 0.9826
C18 C 0.7066(2) 0.54444(19) 0.90666(9)
H17 H 0.6772 0.6328 0.9341
H18 H 0.6531 0.5599 0.8590
C19 C 0.6039(3) 0.1254(2) 0.93202(10)
H19 H 0.6854 0.1203 0.9741
H20 H 0.6189 0.0357 0.9043
H21 H 0.4800 0.1309 0.9438
C20 C 0.5260(2) 0.28238(18) 0.82213(8)
H22 H 0.4587 0.3789 0.8240
C21 C 0.4370(2) 0.20432(18) 0.67376(8)
H23 H 0.5057 0.1081 0.6770
C22 C 0.3367(2) 0.20543(18) 0.60086(8)
C23 C 0.2055(2) 0.0738(2) 0.59132(9)
H24 H 0.1674 0.0609 0.5424
H25 H 0.1007 0.0942 0.6161
H26 H 0.2646 -0.0180 0.6093
C24 C 0.2384(2) 0.3483(2) 0.57724(9)
H27 H 0.3256 0.4253 0.5674
H28 H 0.1674 0.3841 0.6135
H29 H 0.1588 0.3276 0.5357
C25 C 0.3006(2) 0.1923(2) 0.72835(9)
H30 H 0.2333 0.2876 0.7295
H31 H 0.2137 0.1115 0.7149
C26 C 0.3914(2) 0.1592(2) 0.79998(9)
H32 H 0.2998 0.1529 0.8331
H33 H 0.4538 0.0614 0.7997
C27 C 0.5005(2) 0.49073(18) 0.69544(9)
H34 H 0.3905 0.4897 0.7187
H35 H 0.4735 0.5267 0.6483
H36 H 0.5884 0.5575 0.7200
C28 C 1.1070(2) 0.3177(2) 0.95071(9)
H37 H 1.1318 0.2134 0.9543
H38 H 1.1830 0.3876 0.9759
C29 C 1.1832(3) 0.5923(2) 0.84342(11)
H39 H 1.2239 0.6500 0.8052
H40 H 1.2054 0.4854 0.8364
H41 H 1.2489 0.6251 0.8865
C30 C 0.6958(2) 0.8098(2) 0.61457(9)
H42 H 0.5868 0.8254 0.6376
H43 H 0.6883 0.7132 0.5906
H44 H 0.7077 0.8906 0.5814
loop_
_geom_bond_atom_site_label_1
_geom_bond_atom_site_label_2
_geom_bond_site_symmetry_1
_geom_bond_site_symmetry_2
O1 C1 1_555 1_555
O2 C15 1_555 1_555
O3 H1 1_555 1_555
O4 C1 1_555 1_555
C1 C2 1_555 1_555
C2 H2 1_555 1_555
H3 C2 1_555 1_555
C3 C2 1_555 1_555
H4 C3 1_555 1_555
H5 C3 1_555 1_555
C4 C3 1_555 1_555
C5 C4 1_555 1_555
C6 C5 1_555 1_555
H6 C6 1_555 1_555
C7 C6 1_555 1_555
H7 C7 1_555 1_555
C8 C7 1_555 1_555
C9 C8 1_555 1_555
H8 C9 1_555 1_555
C10 C9 1_555 1_555
H9 C10 1_555 1_555
C11 C10 1_555 1_555
H10 C11 1_555 1_555
H11 C11 1_555 1_555
C12 C11 1_555 1_555
H12 C12 1_555 1_555
H13 C12 1_555 1_555
C13 C12 1_555 1_555
H14 C13 1_555 1_555
C14 C13 1_555 1_555
C15 O3 1_555 1_555
C16 C7 1_555 1_555
C17 C16 1_555 1_555
H15 C17 1_555 1_555
H16 C17 1_555 1_555
C18 C9 1_555 1_555
H17 C18 1_555 1_555
H18 C18 1_555 1_555
C19 C16 1_555 1_555
H19 C19 1_555 1_555
H20 C19 1_555 1_555
H21 C19 1_555 1_555
C20 C5 1_555 1_555
H22 C20 1_555 1_555
C21 C4 1_555 1_555
H23 C21 1_555 1_555
C22 O4 1_555 1_555
C23 C22 1_555 1_555
H24 C23 1_555 1_555
H25 C23 1_555 1_555
H26 C23 1_555 1_555
C24 C22 1_555 1_555
H27 C24 1_555 1_555
H28 C24 1_555 1_555
H29 C24 1_555 1_555
C25 C21 1_555 1_555
H30 C25 1_555 1_555
H31 C25 1_555 1_555
C26 C20 1_555 1_555
H32 C26 1_555 1_555
H33 C26 1_555 1_555
C27 C4 1_555 1_555
H34 C27 1_555 1_555
H35 C27 1_555 1_555
H36 C27 1_555 1_555
C28 C8 1_555 1_555
H37 C28 1_555 1_555
H38 C28 1_555 1_555
C29 C10 1_555 1_555
H39 C29 1_555 1_555
H40 C29 1_555 1_555
H41 C29 1_555 1_555
C30 C14 1_555 1_555
H42 C30 1_555 1_555
H43 C30 1_555 1_555
H44 C30 1_555 1_555
C14 C15 1_555 1_555
C16 C20 1_555 1_555
C17 C18 1_555 1_555
C21 C22 1_555 1_555
C25 C26 1_555 1_555

#END
