
#######################################################################
#
#                 Cambridge Crystallographic Data Centre
#                                CCDC 
#
#######################################################################
#
# If this CIF has been generated from an entry in the Cambridge 
# Structural Database, then it will include bibliographic, chemical, 
# crystal, experimental, refinement or atomic coordinate data resulting 
# from the CCDC's data processing and validation procedures.
#
#######################################################################

data_SUTMEB
_chemical_formula_moiety         'C34 H33 N1 O5 S1'
_chemical_name_systematic        
3a',4,4,8'-Tetramethyl-1'-(4-methylphenyl)-5'-(phenylsulfonyl)-3',3a'-dihydro-2H,6H-spiro[cyclohexane-1,2'-cyclopenta[c]quinoline]-2,4',6(5'H)-trione
_symmetry_cell_setting           triclinic
_symmetry_space_group_name_H-M   'P -1'
_symmetry_Int_Tables_number      2
_space_group_name_Hall           '-P 1'
loop_
_symmetry_equiv_pos_site_id
_symmetry_equiv_pos_as_xyz
1 x,y,z
2 -x,-y,-z
_cell_length_a                   9.1694(2)
_cell_length_b                   10.3934(2)
_cell_length_c                   15.8101(3)
_cell_angle_alpha                93.0780(10)
_cell_angle_beta                 96.2050(10)
_cell_angle_gamma                94.9870(10)
_cell_volume                     1489.19
_exptl_crystal_colour            white
_exptl_crystal_description       block
_cell_formula_units_Z            2
loop_
_atom_site_label
_atom_site_type_symbol
_atom_site_fract_x
_atom_site_fract_y
_atom_site_fract_z
N1 N 0.77695(13) 0.83972(11) 0.21068(7)
S1 S 0.92640(5) 0.91044(4) 0.16946(2)
O1 O 0.68478(14) 0.74973(12) 0.07894(7)
C1 C 0.63906(14) 0.49747(12) 0.29144(8)
O2 O 0.33427(13) 0.42186(11) 0.27897(8)
C2 C 0.55604(15) 0.42408(12) 0.21207(8)
C3 C 0.65499(14) 0.62456(12) 0.28223(8)
C4 C 0.68105(16) 0.75233(14) 0.15517(9)
C5 C 0.69256(15) 0.43114(12) 0.36851(8)
C6 C 0.72159(14) 0.73448(12) 0.33993(8)
C7 C 0.57848(15) 0.66100(12) 0.19846(8)
C8 C 0.39847(15) 0.37110(13) 0.22541(9)
C9 C 0.77166(15) 0.84608(13) 0.30180(9)
O3 O 1.02954(14) 0.95724(13) 0.24069(8)
C10 C 0.64706(17) 0.32177(14) 0.17574(9)
C11 C 0.43022(18) 0.15247(13) 0.15472(9)
C12 C 0.56637(19) 0.21242(15) 0.11844(10)
H1 H 0.6325 0.1461 0.1100
H2 H 0.5366 0.2443 0.0632
C13 C 0.72355(17) 0.73970(15) 0.42832(9)
H3 H 0.6925 0.6655 0.4543
C14 C 0.99799(18) 0.77943(17) 0.11894(10)
O4 O 0.87683(17) 0.99756(13) 0.10874(9)
O5 O 0.77959(13) 0.33477(14) 0.19062(9)
C15 C 0.54488(18) 0.53062(13) 0.14557(9)
H4 H 0.6159 0.5213 0.1050
H5 H 0.4469 0.5244 0.1147
C16 C 0.7973(2) 0.32297(17) 0.51994(10)
C17 C 0.32757(18) 0.25860(15) 0.16688(11)
H6 H 0.2961 0.2898 0.1117
H7 H 0.2405 0.2219 0.1900
C18 C 0.81159(18) 0.96120(14) 0.35081(11)
H8 H 0.8383 1.0367 0.3250
C19 C 0.43899(17) 0.72775(15) 0.21245(12)
H9 H 0.3706 0.6689 0.2365
H10 H 0.3944 0.7530 0.1588
H11 H 0.4649 0.8031 0.2508
C20 C 0.7703(2) 0.85214(17) 0.47872(10)
C21 C 0.59871(18) 0.39355(19) 0.42711(10)
H12 H 0.4987 0.4035 0.4163
C22 C 0.8114(2) 0.96276(17) 0.43796(11)
H13 H 0.8395 1.0399 0.4705
C23 C 1.0230(2) 0.6697(2) 0.16317(12)
H14 H 0.9943 0.6628 0.2175
C24 C 0.4761(3) 0.09810(17) 0.24049(11)
H15 H 0.5449 0.0350 0.2331
H16 H 0.3907 0.0580 0.2622
H17 H 0.5214 0.1671 0.2800
C25 C 0.83928(18) 0.41088(18) 0.38567(11)
H18 H 0.9047 0.4332 0.3466
C26 C 0.6514(2) 0.3412(2) 0.50172(11)
H19 H 0.5861 0.3179 0.5405
C27 C 0.3524(2) 0.04430(17) 0.09234(12)
H20 H 0.4188 -0.0203 0.0833
H21 H 0.3219 0.0794 0.0390
H22 H 0.2676 0.0058 0.1155
C28 C 1.0395(3) 0.7915(2) 0.03818(12)
H23 H 1.0208 0.8643 0.0085
C29 C 0.8902(2) 0.3576(2) 0.46064(12)
H24 H 0.9895 0.3449 0.4710
C30 C 0.8548(3) 0.2716(2) 0.60353(12)
H25 H 0.8601 0.3386 0.6483
H26 H 0.9512 0.2442 0.5995
H27 H 0.7895 0.1995 0.6159
C31 C 1.1091(3) 0.6934(4) 0.00252(17)
H28 H 1.1393 0.7003 -0.0515
C32 C 0.7705(3) 0.8552(2) 0.57419(12)
H29 H 0.8467 0.9184 0.6006
H30 H 0.7883 0.7715 0.5937
H31 H 0.6767 0.8777 0.5890
C33 C 1.0903(2) 0.5718(3) 0.12591(16)
H32 H 1.1060 0.4973 0.1543
C34 C 1.1343(2) 0.5851(3) 0.0462(2)
H33 H 1.1819 0.5198 0.0213
loop_
_geom_bond_atom_site_label_1
_geom_bond_atom_site_label_2
_geom_bond_site_symmetry_1
_geom_bond_site_symmetry_2
N1 S1 1_555 1_555
S1 O3 1_555 1_555
O1 C4 1_555 1_555
C1 C2 1_555 1_555
O2 C8 1_555 1_555
C2 C8 1_555 1_555
C3 C1 1_555 1_555
C4 N1 1_555 1_555
C5 C1 1_555 1_555
C6 C3 1_555 1_555
C7 C3 1_555 1_555
C8 C17 1_555 1_555
C9 N1 1_555 1_555
C10 C2 1_555 1_555
C11 C12 1_555 1_555
C12 C10 1_555 1_555
H1 C12 1_555 1_555
H2 C12 1_555 1_555
C13 C6 1_555 1_555
H3 C13 1_555 1_555
C14 S1 1_555 1_555
O4 S1 1_555 1_555
O5 C10 1_555 1_555
C15 C2 1_555 1_555
H4 C15 1_555 1_555
H5 C15 1_555 1_555
C16 C26 1_555 1_555
C17 C11 1_555 1_555
H6 C17 1_555 1_555
H7 C17 1_555 1_555
C18 C9 1_555 1_555
H8 C18 1_555 1_555
C19 C7 1_555 1_555
H9 C19 1_555 1_555
H10 C19 1_555 1_555
H11 C19 1_555 1_555
C20 C13 1_555 1_555
C21 C5 1_555 1_555
H12 C21 1_555 1_555
C22 C18 1_555 1_555
H13 C22 1_555 1_555
C23 C14 1_555 1_555
H14 C23 1_555 1_555
C24 C11 1_555 1_555
H15 C24 1_555 1_555
H16 C24 1_555 1_555
H17 C24 1_555 1_555
C25 C5 1_555 1_555
H18 C25 1_555 1_555
C26 C21 1_555 1_555
H19 C26 1_555 1_555
C27 C11 1_555 1_555
H20 C27 1_555 1_555
H21 C27 1_555 1_555
H22 C27 1_555 1_555
C28 C14 1_555 1_555
H23 C28 1_555 1_555
C29 C16 1_555 1_555
H24 C29 1_555 1_555
C30 C16 1_555 1_555
H25 C30 1_555 1_555
H26 C30 1_555 1_555
H27 C30 1_555 1_555
C31 C28 1_555 1_555
H28 C31 1_555 1_555
C32 C20 1_555 1_555
H29 C32 1_555 1_555
H30 C32 1_555 1_555
H31 C32 1_555 1_555
C33 C23 1_555 1_555
H32 C33 1_555 1_555
C34 C31 1_555 1_555
H33 C34 1_555 1_555
C4 C7 1_555 1_555
C6 C9 1_555 1_555
C7 C15 1_555 1_555
C20 C22 1_555 1_555
C25 C29 1_555 1_555
C33 C34 1_555 1_555

#END
