
#######################################################################
#
#                 Cambridge Crystallographic Data Centre
#                                CCDC 
#
#######################################################################
#
# If this CIF has been generated from an entry in the Cambridge 
# Structural Database, then it will include bibliographic, chemical, 
# crystal, experimental, refinement or atomic coordinate data resulting 
# from the CCDC's data processing and validation procedures.
#
#######################################################################

data_SUTPEE
_chemical_formula_moiety         'C22 H14 F4 N2 S2'
_chemical_name_systematic        
'4-Cyano-2,3,5,6-tetrafluorophenyl dibenzylcarbamodithioate'
_symmetry_cell_setting           monoclinic
_symmetry_space_group_name_H-M   'P 21/c'
_symmetry_Int_Tables_number      14
_space_group_name_Hall           '-P 2ybc'
loop_
_symmetry_equiv_pos_site_id
_symmetry_equiv_pos_as_xyz
1 x,y,z
2 -x,1/2+y,1/2-z
3 -x,-y,-z
4 x,1/2-y,1/2+z
_cell_length_a                   11.2156(18)
_cell_length_b                   26.549(3)
_cell_length_c                   6.8823(11)
_cell_angle_alpha                90
_cell_angle_beta                 96.489(8)
_cell_angle_gamma                90
_cell_volume                     2036.17
_exptl_crystal_colour            colorless
_exptl_crystal_description       BLOCK
_cell_formula_units_Z            4
loop_
_atom_site_label
_atom_site_type_symbol
_atom_site_fract_x
_atom_site_fract_y
_atom_site_fract_z
C1 C 0.2655(3) 0.27095(14) 1.1495(5)
C2 C 0.2597(3) 0.32511(11) 1.1422(4)
C3 C 0.3499(3) 0.35286(13) 1.0697(4)
C4 C 0.3445(3) 0.40438(13) 1.0622(4)
C5 C 0.2493(3) 0.43060(11) 1.1268(4)
C6 C 0.1597(3) 0.40254(12) 1.1996(4)
C7 C 0.1648(3) 0.35096(12) 1.2080(4)
C8 C 0.2226(2) 0.51503(11) 0.8904(4)
C9 C 0.2825(3) 0.60012(11) 1.0244(4)
H1 H 0.3455 0.6206 0.9797
H2 H 0.3175 0.5808 1.1363
C10 C 0.1869(3) 0.63428(11) 1.0885(4)
C11 C 0.0869(3) 0.61556(12) 1.1657(5)
H3 H 0.0751 0.5809 1.1702
C12 C 0.0043(3) 0.64750(15) 1.2363(5)
H4 H -0.0622 0.6344 1.2882
C13 C 0.0214(4) 0.69876(15) 1.2291(6)
H5 H -0.0335 0.7204 1.2770
C14 C 0.1189(4) 0.71807(14) 1.1517(6)
H6 H 0.1298 0.7528 1.1464
C15 C 0.2013(3) 0.68593(12) 1.0815(5)
H7 H 0.2672 0.6993 1.0288
C16 C 0.2121(3) 0.58894(12) 0.6729(4)
H8 H 0.1620 0.6183 0.6841
H9 H 0.1683 0.5656 0.5828
C17 C 0.3266(3) 0.60454(12) 0.5930(4)
C18 C 0.4120(3) 0.56905(13) 0.5575(5)
H10 H 0.3986 0.5353 0.5846
C19 C 0.5168(3) 0.58261(16) 0.4826(5)
H11 H 0.5730 0.5581 0.4602
C20 C 0.5378(4) 0.63178(18) 0.4417(5)
H12 H 0.6082 0.6408 0.3910
C21 C 0.4558(4) 0.66784(17) 0.4751(6)
H13 H 0.4701 0.7014 0.4475
C22 C 0.3496(3) 0.65390(14) 0.5513(5)
H14 H 0.2939 0.6786 0.5739
F1 F 0.44488(16) 0.32868(7) 1.0103(3)
F2 F 0.43547(16) 0.42981(7) 0.9949(3)
F3 F 0.06567(16) 0.42585(7) 1.2631(3)
F4 F 0.07638(16) 0.32530(7) 1.2780(3)
N1 N 0.2701(3) 0.22820(13) 1.1549(5)
N2 N 0.2375(2) 0.56483(9) 0.8663(3)
S1 S 0.24957(9) 0.49672(3) 1.14326(12)
S2 S 0.18004(8) 0.47422(3) 0.71422(12)
loop_
_geom_bond_atom_site_label_1
_geom_bond_atom_site_label_2
_geom_bond_site_symmetry_1
_geom_bond_site_symmetry_2
C1 C2 1_555 1_555
C2 C3 1_555 1_555
C3 C4 1_555 1_555
C4 C5 1_555 1_555
C5 C6 1_555 1_555
C6 C7 1_555 1_555
C7 C2 1_555 1_555
C8 N2 1_555 1_555
C9 H1 1_555 1_555
H2 C9 1_555 1_555
C10 C9 1_555 1_555
C11 C10 1_555 1_555
H3 C11 1_555 1_555
C12 C11 1_555 1_555
H4 C12 1_555 1_555
C13 C12 1_555 1_555
H5 C13 1_555 1_555
C14 C13 1_555 1_555
H6 C14 1_555 1_555
C15 C10 1_555 1_555
H7 C15 1_555 1_555
C16 H8 1_555 1_555
H9 C16 1_555 1_555
C17 C16 1_555 1_555
C18 C17 1_555 1_555
H10 C18 1_555 1_555
C19 C18 1_555 1_555
H11 C19 1_555 1_555
C20 C19 1_555 1_555
H12 C20 1_555 1_555
C21 C20 1_555 1_555
H13 C21 1_555 1_555
C22 C17 1_555 1_555
H14 C22 1_555 1_555
F1 C3 1_555 1_555
F2 C4 1_555 1_555
F3 C6 1_555 1_555
F4 C7 1_555 1_555
N1 C1 1_555 1_555
N2 C9 1_555 1_555
S1 C5 1_555 1_555
S2 C8 1_555 1_555
C8 S1 1_555 1_555
C14 C15 1_555 1_555
C16 N2 1_555 1_555
C21 C22 1_555 1_555

#END
