
#######################################################################
#
#                 Cambridge Crystallographic Data Centre
#                                CCDC 
#
#######################################################################
#
# If this CIF has been generated from an entry in the Cambridge 
# Structural Database, then it will include bibliographic, chemical, 
# crystal, experimental, refinement or atomic coordinate data resulting 
# from the CCDC's data processing and validation procedures.
#
#######################################################################

data_SUTVEJ
_chemical_formula_moiety         'C7 H5 N1 O4,H2 O1'
_chemical_name_systematic        '2,4-Pyridinedicarboxylic acid monohydrate'
_symmetry_cell_setting           monoclinic
_symmetry_space_group_name_H-M   'P 21/c'
_symmetry_Int_Tables_number      14
_space_group_name_Hall           '-P 2ybc'
loop_
_symmetry_equiv_pos_site_id
_symmetry_equiv_pos_as_xyz
1 x,y,z
2 -x,1/2+y,1/2-z
3 -x,-y,-z
4 x,1/2-y,1/2+z
_cell_length_a                   6.905(4)
_cell_length_b                   18.404(11)
_cell_length_c                   6.822(4)
_cell_angle_alpha                90
_cell_angle_beta                 119.373(6)
_cell_angle_gamma                90
_cell_volume                     755.488
_exptl_crystal_colour            'light amber'
_cell_formula_units_Z            4
loop_
_atom_site_label
_atom_site_type_symbol
_atom_site_fract_x
_atom_site_fract_y
_atom_site_fract_z
O1 O 0.5070(3) 0.17169(8) 0.7188(4)
O2 O 0.7776(3) 0.23772(9) 0.7084(4)
O3 O 0.6679(3) 0.51522(8) 0.7593(4)
O4 O 0.3433(3) 0.54800(8) 0.7397(4)
H1 H 0.409(7) 0.602(2) 0.769(9)
N1 N 0.2602(3) 0.28397(11) 0.6721(4)
H2 H 0.217(5) 0.2354(19) 0.664(7)
C1 C 0.5996(4) 0.23000(12) 0.7095(5)
C2 C 0.4638(4) 0.29691(12) 0.6955(5)
C3 C 0.5385(4) 0.36740(12) 0.7138(4)
H3 H 0.677 0.3771 0.7281
C4 C 0.4019(4) 0.42385(12) 0.7104(5)
C5 C 0.1938(4) 0.40867(12) 0.6884(5)
H4 H 0.1027 0.4461 0.6872
C6 C 0.1255(4) 0.33714(12) 0.6686(5)
H5 H -0.0127 0.3259 0.653
C7 C 0.4866(4) 0.50153(12) 0.7400(5)
O5 O 0.0627(3) 0.15189(9) 0.6211(4)
H6 H 0.129(6) 0.1096(11) 0.665(8)
H7 H -0.030(5) 0.1601(19) 0.672(6)
loop_
_geom_bond_atom_site_label_1
_geom_bond_atom_site_label_2
_geom_bond_site_symmetry_1
_geom_bond_site_symmetry_2
O1 C1 1_555 1_555
O2 C1 1_555 1_555
O3 C7 1_555 1_555
O4 H1 1_555 1_555
N1 H2 1_555 1_555
C1 C2 1_555 1_555
C2 N1 1_555 1_555
C3 C2 1_555 1_555
H3 C3 1_555 1_555
C4 C3 1_555 1_555
C5 C4 1_555 1_555
H4 C5 1_555 1_555
C6 N1 1_555 1_555
H5 C6 1_555 1_555
C7 O4 1_555 1_555
O5 H6 1_555 1_555
H7 O5 1_555 1_555
C4 C7 1_555 1_555
C5 C6 1_555 1_555

#END
