
#######################################################################
#
#                 Cambridge Crystallographic Data Centre
#                                CCDC 
#
#######################################################################
#
# If this CIF has been generated from an entry in the Cambridge 
# Structural Database, then it will include bibliographic, chemical, 
# crystal, experimental, refinement or atomic coordinate data resulting 
# from the CCDC's data processing and validation procedures.
#
#######################################################################

data_SUTWAF
_chemical_formula_moiety         'C35 H45 N1 O5,C1 H4 O1'
_chemical_name_systematic        
'4(S),6(S)-Dihydroxy-3(S),5(R)-dimethyl-7-trityloxy-hepten-1-yl N,N-(di-isopropyl)carbamate methanol solvate'
_symmetry_cell_setting           monoclinic
_symmetry_space_group_name_H-M   'P 21'
_symmetry_Int_Tables_number      4
_space_group_name_Hall           'P 2yb'
loop_
_symmetry_equiv_pos_site_id
_symmetry_equiv_pos_as_xyz
1 x,y,z
2 -x,1/2+y,-z
_cell_length_a                   17.207(8)
_cell_length_b                   8.739(2)
_cell_length_c                   12.605(3)
_cell_angle_alpha                90
_cell_angle_beta                 109.99(8)
_cell_angle_gamma                90
_cell_volume                     1781.24
_cell_formula_units_Z            2
loop_
_atom_site_label
_atom_site_type_symbol
_atom_site_fract_x
_atom_site_fract_y
_atom_site_fract_z
O1 O 0.7911(2) 0.0467(5) 0.1278(4)
O2 O 0.9082(3) -0.1386(5) 0.3889(4)
O3 O 0.9313(3) 0.3457(6) 0.4723(5)
O4 O 0.6882(2) -0.0006(6) 0.4465(5)
O5 O 0.5565(4) -0.0039(8) 0.3252(5)
N1 N 0.6149(3) -0.2071(7) 0.4339(5)
C1 C 0.8329(4) -0.0708(9) 0.1972(5)
H1 H 0.8829(4) -0.0945(9) 0.1814(5)
H2 H 0.7985(4) -0.1617(9) 0.1824(5)
C2 C 0.8549(3) -0.0250(8) 0.3197(5)
H3 H 0.8036(3) -0.0260(8) 0.3372(5)
C3 C 0.8925(4) 0.1340(8) 0.3486(6)
H4 H 0.8512(4) 0.2068(8) 0.3031(6)
C4 C 0.9706(4) 0.1478(9) 0.3091(7)
H5 H 0.9558 0.1147 0.2321
H6 H 1.0145 0.0847 0.3563
H7 H 0.9886 0.2524 0.3151
C5 C 0.9155(4) 0.1846(7) 0.4701(7)
H8 H 0.9665(4) 0.1322(7) 0.5151(7)
C6 C 0.8472(4) 0.1465(9) 0.5189(5)
H9 H 0.8388(4) 0.0355(9) 0.5172(5)
C7 C 0.8778(6) 0.2020(15) 0.6416(8)
H10 H 0.9296 0.1536 0.6820
H11 H 0.8379 0.1762 0.6763
H12 H 0.8853 0.3109 0.6432
C8 C 0.7667(4) 0.2242(10) 0.4522(8)
H13 H 0.7689(4) 0.3273(10) 0.4353(8)
C9 C 0.6941(4) 0.1576(8) 0.4164(7)
H14 H 0.6474(4) 0.2110(8) 0.3726(7)
C10 C 0.6122(5) -0.0682(8) 0.3934(6)
C11 C 0.5370(6) -0.3013(12) 0.3780(9)
H15 H 0.4990(6) -0.2384(12) 0.3182(9)
C12 C 0.5634(11) -0.4399(18) 0.3204(15)
H16 H 0.5898 -0.4033 0.2694
H17 H 0.5154 -0.4986 0.2793
H18 H 0.6013 -0.5031 0.3770
C13 C 0.4953(8) -0.3302(18) 0.4691(12)
H19 H 0.4815 -0.2339 0.4948
H20 H 0.5330 -0.3847 0.5318
H21 H 0.4460 -0.3897 0.4366
C14 C 0.6876(5) -0.2864(10) 0.5244(7)
H22 H 0.6686(5) -0.3892(10) 0.5347(7)
C15 C 0.7599(7) -0.3061(10) 0.4894(13)
H23 H 0.7443 -0.3629 0.4201
H24 H 0.8021 -0.3608 0.5469
H25 H 0.7805 -0.2076 0.4783
C16 C 0.6991(8) -0.1988(14) 0.6332(8)
H26 H 0.6473 -0.1933 0.6459
H27 H 0.7184 -0.0973 0.6270
H28 H 0.7390 -0.2507 0.6953
C17 C 0.7479(4) -0.0015(8) 0.0099(5)
C18 C 0.6667(4) -0.0869(7) -0.0017(5)
C19 C 0.6375(4) -0.0937(8) 0.0882(7)
H29 H 0.6683(4) -0.0491(8) 0.1567(7)
C20 C 0.5631(4) -0.1660(11) 0.0778(8)
H30 H 0.5430(4) -0.1642(11) 0.1376(8)
C21 C 0.5198(6) -0.2393(12) -0.0200(10)
H31 H 0.4713(6) -0.2915(12) -0.0264(10)
C22 C 0.5482(5) -0.2353(11) -0.1083(7)
H32 H 0.5161(5) -0.2807(11) -0.1757(7)
C23 C 0.6225(4) -0.1674(9) -0.1042(6)
H33 H 0.6423(4) -0.1737(9) -0.1641(6)
C24 C 0.7173(4) 0.1530(8) -0.0538(6)
C25 C 0.6950(5) 0.2709(10) 0.0033(8)
H34 H 0.7018(5) 0.2616(10) 0.0795(8)
C26 C 0.6620(5) 0.4040(11) -0.0563(8)
H35 H 0.6433(5) 0.4821(11) -0.0212(8)
C27 C 0.6572(7) 0.4201(11) -0.1695(9)
H36 H 0.6366(7) 0.5106(11) -0.2077(9)
C28 C 0.6831(6) 0.3009(11) -0.2269(7)
H37 H 0.6809(6) 0.3130(11) -0.3011(7)
C29 C 0.7111(5) 0.1682(9) -0.1692(6)
H38 H 0.7264(5) 0.0869(9) -0.2056(6)
C30 C 0.8093(5) -0.0857(10) -0.0317(5)
C31 C 0.8034(4) -0.2434(11) -0.0484(6)
H39 H 0.7573(4) -0.2970(11) -0.0461(6)
C32 C 0.8742(5) -0.0077(15) -0.0464(8)
H40 H 0.8785(5) 0.0981(15) -0.0393(8)
C33 C 0.9362(6) -0.0978(24) -0.0735(9)
H41 H 0.9832(6) -0.0483(24) -0.0766(9)
C34 C 0.9290(8) -0.2425(17) -0.0933(10)
H42 H 0.9641(8) -0.2934(17) -0.1236(10)
C35 C 0.8682(5) -0.3187(11) -0.0685(8)
H43 H 0.8702(5) -0.4250(11) -0.0649(8)
C36 C 0.8692(15) 0.5088(13) 0.2071(13)
O6 O 0.8706(5) 0.5675(8) 0.3221(6)
loop_
_geom_bond_atom_site_label_1
_geom_bond_atom_site_label_2
_geom_bond_site_symmetry_1
_geom_bond_site_symmetry_2
O1 C1 1_555 1_555
O2 C2 1_555 1_555
O3 C5 1_555 1_555
O4 C9 1_555 1_555
O5 C10 1_555 1_555
N1 C10 1_555 1_555
C1 H1 1_555 1_555
H2 C1 1_555 1_555
C2 C1 1_555 1_555
H3 C2 1_555 1_555
C3 C2 1_555 1_555
H4 C3 1_555 1_555
C4 C3 1_555 1_555
H5 C4 1_555 1_555
H6 C4 1_555 1_555
H7 C4 1_555 1_555
C5 C3 1_555 1_555
H8 C5 1_555 1_555
C6 C5 1_555 1_555
H9 C6 1_555 1_555
C7 C6 1_555 1_555
H10 C7 1_555 1_555
H11 C7 1_555 1_555
H12 C7 1_555 1_555
C8 C6 1_555 1_555
H13 C8 1_555 1_555
C9 C8 1_555 1_555
H14 C9 1_555 1_555
C10 O4 1_555 1_555
C11 N1 1_555 1_555
H15 C11 1_555 1_555
C12 C11 1_555 1_555
H16 C12 1_555 1_555
H17 C12 1_555 1_555
H18 C12 1_555 1_555
C13 C11 1_555 1_555
H19 C13 1_555 1_555
H20 C13 1_555 1_555
H21 C13 1_555 1_555
C14 N1 1_555 1_555
H22 C14 1_555 1_555
C15 C14 1_555 1_555
H23 C15 1_555 1_555
H24 C15 1_555 1_555
H25 C15 1_555 1_555
C16 C14 1_555 1_555
H26 C16 1_555 1_555
H27 C16 1_555 1_555
H28 C16 1_555 1_555
C17 O1 1_555 1_555
C18 C17 1_555 1_555
C19 C18 1_555 1_555
H29 C19 1_555 1_555
C20 C19 1_555 1_555
H30 C20 1_555 1_555
C21 C20 1_555 1_555
H31 C21 1_555 1_555
C22 C21 1_555 1_555
H32 C22 1_555 1_555
C23 C18 1_555 1_555
H33 C23 1_555 1_555
C24 C17 1_555 1_555
C25 C24 1_555 1_555
H34 C25 1_555 1_555
C26 C25 1_555 1_555
H35 C26 1_555 1_555
C27 C26 1_555 1_555
H36 C27 1_555 1_555
C28 C27 1_555 1_555
H37 C28 1_555 1_555
C29 C24 1_555 1_555
H38 C29 1_555 1_555
C30 C17 1_555 1_555
C31 C30 1_555 1_555
H39 C31 1_555 1_555
C32 C30 1_555 1_555
H40 C32 1_555 1_555
C33 C32 1_555 1_555
H41 C33 1_555 1_555
C34 C33 1_555 1_555
H42 C34 1_555 1_555
C35 C31 1_555 1_555
H43 C35 1_555 1_555
C36 O6 1_555 1_555
C22 C23 1_555 1_555
C28 C29 1_555 1_555
C34 C35 1_555 1_555

#END
