
#######################################################################
#
#                 Cambridge Crystallographic Data Centre
#                                CCDC 
#
#######################################################################
#
# If this CIF has been generated from an entry in the Cambridge 
# Structural Database, then it will include bibliographic, chemical, 
# crystal, experimental, refinement or atomic coordinate data resulting 
# from the CCDC's data processing and validation procedures.
#
#######################################################################

data_SUVBUH
_chemical_formula_moiety         'C18 H30 N2 O4 Si1'
_chemical_name_systematic        
6-((t-Butyl(dimethyl)silyl)oxy)-8-methoxy-8a-nitro-1,3,4,5,8,8a-hexahydronaphthalene-4a(2H)-carbonitrile
_symmetry_cell_setting           monoclinic
_symmetry_space_group_name_H-M   'C c'
_symmetry_Int_Tables_number      9
_space_group_name_Hall           'C -2yc'
loop_
_symmetry_equiv_pos_site_id
_symmetry_equiv_pos_as_xyz
1 x,y,z
2 x,-y,1/2+z
3 1/2+x,1/2+y,z
4 1/2+x,1/2-y,1/2+z
_cell_length_a                   12.175(2)
_cell_length_b                   15.930(3)
_cell_length_c                   11.720(2)
_cell_angle_alpha                90
_cell_angle_beta                 119.13(3)
_cell_angle_gamma                90
_cell_volume                     1985.56
_cell_formula_units_Z            4
loop_
_atom_site_label
_atom_site_type_symbol
_atom_site_fract_x
_atom_site_fract_y
_atom_site_fract_z
Si1 Si -0.04868(7) 0.16310(5) 0.26492(7)
O1 O 0.24312(19) 0.06791(12) 0.00251(17)
O2 O 0.06838(19) 0.10250(12) 0.2769(2)
O3 O 0.50477(18) 0.22370(13) 0.19990(19)
O4 O 0.5170(2) 0.10095(14) 0.1301(2)
N1 N 0.4765(2) 0.14888(16) 0.1815(2)
N2 N 0.3240(3) 0.32627(17) 0.2745(3)
C1 C 0.2522(3) 0.12699(17) 0.0981(3)
H1 H 0.2475 0.1850 0.0633
C2 C 0.1472(3) 0.11602(17) 0.1291(3)
H2 H 0.0650 0.1061 0.0587
C3 C 0.1620(3) 0.11937(17) 0.2488(3)
C4 C 0.2858(3) 0.13575(19) 0.3680(3)
H3 H 0.3158 0.0832 0.4191
H4 H 0.2737 0.1778 0.4231
C5 C 0.5204(3) 0.16267(18) 0.4573(3)
H5 H 0.5825 0.1891 0.4370
H6 H 0.5208 0.1942 0.5303
C6 C 0.5587(3) 0.07199(19) 0.4992(3)
H7 H 0.5055 0.0487 0.5339
H8 H 0.6471 0.0707 0.5703
C7 C 0.5457(3) 0.01687(18) 0.3863(3)
H9 H 0.6110 0.0332 0.3633
H10 H 0.5609 -0.0424 0.4154
C8 C 0.4163(2) 0.02388(17) 0.2645(3)
H11 H 0.3522 -0.0010 0.2832
H12 H 0.4163 -0.0085 0.1925
C9 C 0.3810(2) 0.11548(18) 0.2212(2)
C10 C 0.3880(3) 0.16807(17) 0.3359(3)
C11 C 0.3555(3) 0.25736(19) 0.2977(3)
C12 C 0.1636(3) 0.09636(19) -0.1276(3)
H13 H 0.1999 0.1468 -0.1439
H14 H 0.0802 0.1096 -0.1390
H15 H 0.1559 0.0523 -0.1894
C13 C -0.1867(3) 0.1494(2) 0.1009(3)
H16 H -0.2083 0.0897 0.0853
H17 H -0.1667 0.1706 0.0346
H18 H -0.2582 0.1808 0.0959
C14 C 0.0025(3) 0.27524(19) 0.2917(3)
H19 H 0.0497 0.2874 0.2456
H20 H 0.0563 0.2855 0.3853
H21 H -0.0716 0.3117 0.2581
C15 C -0.0802(3) 0.12218(18) 0.3963(3)
C16 C -0.1714(3) 0.1814(2) 0.4116(3)
H22 H -0.1902 0.1591 0.4781
H23 H -0.2494 0.1859 0.3280
H24 H -0.1330 0.2370 0.4383
C17 C -0.1379(3) 0.03409(19) 0.3602(3)
H25 H -0.2207 0.0374 0.2820
H26 H -0.1468 0.0110 0.4327
H27 H -0.0829 -0.0024 0.3428
C18 C 0.0439(3) 0.1177(2) 0.5269(3)
H28 H 0.1012 0.0781 0.5187
H29 H 0.0264 0.0986 0.5960
H30 H 0.0827 0.1734 0.5489
loop_
_geom_bond_atom_site_label_1
_geom_bond_atom_site_label_2
_geom_bond_site_symmetry_1
_geom_bond_site_symmetry_2
Si1 O2 1_555 1_555
O1 C1 1_555 1_555
O2 C3 1_555 1_555
O3 N1 1_555 1_555
O4 N1 1_555 1_555
N1 C9 1_555 1_555
N2 C11 1_555 1_555
C1 H1 1_555 1_555
C2 C1 1_555 1_555
H2 C2 1_555 1_555
C3 C2 1_555 1_555
C4 C3 1_555 1_555
H3 C4 1_555 1_555
H4 C4 1_555 1_555
C5 H5 1_555 1_555
H6 C5 1_555 1_555
C6 C5 1_555 1_555
H7 C6 1_555 1_555
H8 C6 1_555 1_555
C7 C6 1_555 1_555
H9 C7 1_555 1_555
H10 C7 1_555 1_555
C8 C7 1_555 1_555
H11 C8 1_555 1_555
H12 C8 1_555 1_555
C9 C1 1_555 1_555
C10 C4 1_555 1_555
C11 C10 1_555 1_555
C12 O1 1_555 1_555
H13 C12 1_555 1_555
H14 C12 1_555 1_555
H15 C12 1_555 1_555
C13 Si1 1_555 1_555
H16 C13 1_555 1_555
H17 C13 1_555 1_555
H18 C13 1_555 1_555
C14 Si1 1_555 1_555
H19 C14 1_555 1_555
H20 C14 1_555 1_555
H21 C14 1_555 1_555
C15 Si1 1_555 1_555
C16 C15 1_555 1_555
H22 C16 1_555 1_555
H23 C16 1_555 1_555
H24 C16 1_555 1_555
C17 C15 1_555 1_555
H25 C17 1_555 1_555
H26 C17 1_555 1_555
H27 C17 1_555 1_555
C18 C15 1_555 1_555
H28 C18 1_555 1_555
H29 C18 1_555 1_555
H30 C18 1_555 1_555
C5 C10 1_555 1_555
C8 C9 1_555 1_555
C9 C10 1_555 1_555

#END
