
#######################################################################
#
#                 Cambridge Crystallographic Data Centre
#                                CCDC 
#
#######################################################################
#
# If this CIF has been generated from an entry in the Cambridge 
# Structural Database, then it will include bibliographic, chemical, 
# crystal, experimental, refinement or atomic coordinate data resulting 
# from the CCDC's data processing and validation procedures.
#
#######################################################################

data_SUVHAS01
_chemical_name_common            3,3'-Benzylidenedi-indole
_chemical_formula_moiety         'C23 H18 N2'
_chemical_name_systematic        1H,1'H-3,3'-Phenylmethanediyl-bis(indole)
_symmetry_cell_setting           monoclinic
_symmetry_space_group_name_H-M   'P 21/c'
_symmetry_Int_Tables_number      14
_space_group_name_Hall           '-P 2ybc'
loop_
_symmetry_equiv_pos_site_id
_symmetry_equiv_pos_as_xyz
1 x,y,z
2 -x,1/2+y,1/2-z
3 -x,-y,-z
4 x,1/2-y,1/2+z
_cell_length_a                   10.161(2)
_cell_length_b                   9.780(2)
_cell_length_c                   17.687(4)
_cell_angle_alpha                90
_cell_angle_beta                 94.080(11)
_cell_angle_gamma                90
_cell_volume                     1753.18
_exptl_crystal_colour            colorless
_exptl_crystal_description       needles
_chemical_melting_point          150-152deg.C
_cell_formula_units_Z            4
loop_
_atom_site_label
_atom_site_type_symbol
_atom_site_fract_x
_atom_site_fract_y
_atom_site_fract_z
N1 N 0.9793(3) 0.4391(3) 0.1156(2)
N2 N 1.2536(3) 0.2282(4) -0.1519(2)
C1 C 1.0426(4) 0.3513(4) 0.0684(2)
C2 C 1.1720(3) 0.3377(4) 0.0922(2)
C3 C 1.1931(3) 0.4248(3) 0.1572(2)
C4 C 1.3053(3) 0.4622(3) 0.2037(2)
C5 C 1.2914(4) 0.5547(4) 0.2616(2)
C6 C 1.1678(4) 0.6101(4) 0.2757(2)
C7 C 1.0564(4) 0.5770(4) 0.2303(2)
C8 C 1.0712(3) 0.4861(4) 0.1706(2)
C9 C 1.2443(4) 0.1704(5) -0.0803(2)
C10 C 1.2739(3) 0.2660(4) -0.0258(2)
C11 C 1.3044(3) 0.3905(4) -0.0645(2)
C12 C 1.3381(3) 0.5230(4) -0.0398(2)
C13 C 1.3587(4) 0.6212(4) -0.0940(3)
C14 C 1.3468(4) 0.5906(5) -0.1715(3)
C15 C 1.3144(4) 0.4613(5) -0.1976(2)
C16 C 1.2919(4) 0.3624(4) -0.1430(2)
C17 C 1.2752(3) 0.2486(4) 0.0590(2)
C18 C 1.2681(3) 0.0959(4) 0.0796(2)
C19 C 1.1501(4) 0.0309(4) 0.0940(2)
C20 C 1.1473(4) -0.1079(4) 0.1095(2)
C21 C 1.2617(5) -0.1854(4) 0.1110(2)
C22 C 1.3800(4) -0.1216(4) 0.0969(2)
C23 C 1.3826(4) 0.0176(4) 0.0819(2)
H1 H 0.8754(3) 0.4750(3) 0.1053(2)
H2 H 1.243(5) 0.172(5) -0.201(3)
H3 H 0.995(3) 0.312(3) 0.026(2)
H4 H 1.3985(3) 0.4161(3) 0.2008(2)
H5 H 1.3670(4) 0.5956(4) 0.3017(2)
H6 H 1.1557(4) 0.6844(4) 0.3200(2)
H7 H 0.9601(4) 0.6267(4) 0.2371(2)
H8 H 1.223(4) 0.071(4) -0.078(2)
H9 H 1.3458(3) 0.5502(4) 0.0248(2)
H10 H 1.3773(4) 0.7305(4) -0.0828(3)
H11 H 1.3709(4) 0.6644(5) -0.2147(3)
H12 H 1.3085(4) 0.4309(5) -0.2534(2)
H13 H 1.3760(3) 0.2843(4) 0.0816(2)
H14 H 1.0595(4) 0.0940(4) 0.0877(2)
H15 H 1.0512(4) -0.1578(4) 0.1275(2)
H16 H 1.2559(5) -0.2910(4) 0.1265(2)
H17 H 1.4580(4) -0.1783(4) 0.1111(2)
H18 H 1.4737(4) 0.0700(4) 0.0654(2)
loop_
_geom_bond_atom_site_label_1
_geom_bond_atom_site_label_2
_geom_bond_site_symmetry_1
_geom_bond_site_symmetry_2
N1 C1 1_555 1_555
N2 C9 1_555 1_555
C1 C2 1_555 1_555
C2 C3 1_555 1_555
C3 C4 1_555 1_555
C4 C5 1_555 1_555
C5 C6 1_555 1_555
C6 C7 1_555 1_555
C7 C8 1_555 1_555
C8 N1 1_555 1_555
C9 C10 1_555 1_555
C10 C11 1_555 1_555
C11 C12 1_555 1_555
C12 C13 1_555 1_555
C13 C14 1_555 1_555
C14 C15 1_555 1_555
C15 C16 1_555 1_555
C16 N2 1_555 1_555
C17 C2 1_555 1_555
C18 C17 1_555 1_555
C19 C18 1_555 1_555
C20 C19 1_555 1_555
C21 C20 1_555 1_555
C22 C21 1_555 1_555
C23 C18 1_555 1_555
H1 N1 1_555 1_555
H2 N2 1_555 1_555
H3 C1 1_555 1_555
H4 C4 1_555 1_555
H5 C5 1_555 1_555
H6 C6 1_555 1_555
H7 C7 1_555 1_555
H8 C9 1_555 1_555
H9 C12 1_555 1_555
H10 C13 1_555 1_555
H11 C14 1_555 1_555
H12 C15 1_555 1_555
H13 C17 1_555 1_555
H14 C19 1_555 1_555
H15 C20 1_555 1_555
H16 C21 1_555 1_555
H17 C22 1_555 1_555
H18 C23 1_555 1_555
C3 C8 1_555 1_555
C10 C17 1_555 1_555
C11 C16 1_555 1_555
C22 C23 1_555 1_555

#END
