
#######################################################################
#
#                 Cambridge Crystallographic Data Centre
#                                CCDC 
#
#######################################################################
#
# If this CIF has been generated from an entry in the Cambridge 
# Structural Database, then it will include bibliographic, chemical, 
# crystal, experimental, refinement or atomic coordinate data resulting 
# from the CCDC's data processing and validation procedures.
#
#######################################################################

data_SUVLOK
_chemical_formula_moiety         'C18 H21 N3'
_chemical_name_systematic        1,3,5-tris(Cyanomethyl)-2,4,6-triethylbenzene
_symmetry_cell_setting           triclinic
_symmetry_space_group_name_H-M   'P -1'
_symmetry_Int_Tables_number      2
_space_group_name_Hall           '-P 1'
loop_
_symmetry_equiv_pos_site_id
_symmetry_equiv_pos_as_xyz
1 x,y,z
2 -x,-y,-z
_cell_length_a                   8.2898(2)
_cell_length_b                   9.7520(1)
_cell_length_c                   11.2391(3)
_cell_angle_alpha                112.131(1)
_cell_angle_beta                 96.654(1)
_cell_angle_gamma                104.437(1)
_cell_volume                     792.471
_exptl_crystal_colour            colorless
_exptl_crystal_description       block
_cell_formula_units_Z            2
loop_
_atom_site_label
_atom_site_type_symbol
_atom_site_fract_x
_atom_site_fract_y
_atom_site_fract_z
N1 N 0.9139(2) 0.98132(19) 0.80859(19)
N2 N -0.04551(17) 0.3518(2) 0.58037(17)
N3 N 0.5511(3) 0.1465(2) 0.88825(19)
C1 C 0.68654(15) 0.56140(15) 0.82535(12)
C2 C 0.60890(15) 0.66714(13) 0.80815(11)
C3 C 0.46379(14) 0.61725(13) 0.70613(11)
C4 C 0.39621(14) 0.45757(14) 0.61996(11)
C5 C 0.47028(16) 0.34905(13) 0.63602(12)
C6 C 0.61567(16) 0.40241(14) 0.73865(13)
C7 C 0.84025(19) 0.6194(2) 0.93949(16)
H1 H 0.9044 0.7249 0.9586
H2 H 0.9134 0.5562 0.9141
C8 C 0.7877(3) 0.6138(2) 1.06372(17)
H3 H 0.8882 0.6513 1.1333
H4 H 0.7254 0.5081 1.0456
H5 H 0.7163 0.6784 1.0904
C9 C 0.68539(17) 0.84087(14) 0.90052(13)
H6 H 0.5958 0.8876 0.9092
H7 H 0.7363 0.8527 0.9865
C10 C 0.81513(19) 0.92142(16) 0.85058(15)
C11 C 0.38092(18) 0.73383(16) 0.69097(14)
H8 H 0.3269 0.6973 0.5995
H9 H 0.4686 0.8317 0.7165
C12 C 0.2481(2) 0.7607(2) 0.77264(18)
H10 H 0.2006 0.8350 0.7584
H11 H 0.3016 0.8001 0.8646
H12 H 0.1584 0.6638 0.7464
C13 C 0.24015(16) 0.40231(17) 0.50702(13)
H13 H 0.2485 0.4799 0.4730
H14 H 0.2403 0.3079 0.4370
C14 C 0.07907(16) 0.37359(16) 0.54772(14)
C15 C 0.3921(2) 0.17586(16) 0.54558(16)
H15 H 0.3489 0.1643 0.4582
H16 H 0.4807 0.1280 0.5414
C16 C 0.2483(2) 0.08936(18) 0.5883(2)
H17 H 0.2055 -0.0186 0.5266
H18 H 0.1576 0.1345 0.5907
H19 H 0.2909 0.0974 0.6746
C17 C 0.6993(2) 0.28652(18) 0.75650(17)
H20 H 0.6952 0.2097 0.6711
H21 H 0.8176 0.3410 0.8012
C18 C 0.6172(2) 0.20770(16) 0.83119(15)
loop_
_geom_bond_atom_site_label_1
_geom_bond_atom_site_label_2
_geom_bond_site_symmetry_1
_geom_bond_site_symmetry_2
N1 C10 1_555 1_555
N2 C14 1_555 1_555
N3 C18 1_555 1_555
C1 C2 1_555 1_555
C2 C3 1_555 1_555
C3 C4 1_555 1_555
C4 C5 1_555 1_555
C5 C6 1_555 1_555
C6 C1 1_555 1_555
C7 C1 1_555 1_555
H1 C7 1_555 1_555
H2 C7 1_555 1_555
C8 C7 1_555 1_555
H3 C8 1_555 1_555
H4 C8 1_555 1_555
H5 C8 1_555 1_555
C9 C2 1_555 1_555
H6 C9 1_555 1_555
H7 C9 1_555 1_555
C10 C9 1_555 1_555
C11 C3 1_555 1_555
H8 C11 1_555 1_555
H9 C11 1_555 1_555
C12 C11 1_555 1_555
H10 C12 1_555 1_555
H11 C12 1_555 1_555
H12 C12 1_555 1_555
C13 C4 1_555 1_555
H13 C13 1_555 1_555
H14 C13 1_555 1_555
C14 C13 1_555 1_555
C15 C5 1_555 1_555
H15 C15 1_555 1_555
H16 C15 1_555 1_555
C16 C15 1_555 1_555
H17 C16 1_555 1_555
H18 C16 1_555 1_555
H19 C16 1_555 1_555
C17 C6 1_555 1_555
H20 C17 1_555 1_555
H21 C17 1_555 1_555
C18 C17 1_555 1_555

#END
