
#######################################################################
#
#                 Cambridge Crystallographic Data Centre
#                                CCDC 
#
#######################################################################
#
# If this CIF has been generated from an entry in the Cambridge 
# Structural Database, then it will include bibliographic, chemical, 
# crystal, experimental, refinement or atomic coordinate data resulting 
# from the CCDC's data processing and validation procedures.
#
#######################################################################

data_SUVLOM
_chemical_formula_moiety         'C24 H20 P1 1+,C2 H5 B2 N2 1-'
_chemical_name_systematic        
'tetraphenylphosphonium ((cyano-C)(cyano-N)(trihydrido)borate dihydridoborate)'
_symmetry_cell_setting           monoclinic
_symmetry_space_group_name_H-M   'P 21/c'
_symmetry_Int_Tables_number      14
_space_group_name_Hall           '-P 2ybc'
loop_
_symmetry_equiv_pos_site_id
_symmetry_equiv_pos_as_xyz
1 x,y,z
2 -x,1/2+y,1/2-z
3 -x,-y,-z
4 x,1/2-y,1/2+z
_cell_length_a                   9.8180(6)
_cell_length_b                   18.2883(13)
_cell_length_c                   13.7042(7)
_cell_angle_alpha                90
_cell_angle_beta                 97.628(5)
_cell_angle_gamma                90
_cell_volume                     2438.88
_exptl_crystal_colour            colorless
_cell_formula_units_Z            4
loop_
_atom_site_label
_atom_site_type_symbol
_atom_site_fract_x
_atom_site_fract_y
_atom_site_fract_z
P1 P 0.61135(10) 0.33146(5) 0.50812(7)
C1 C 0.5649(4) 0.3744(2) 0.3909(2)
C2 C 0.4352(4) 0.4017(2) 0.3606(3)
H1 H 0.3693 0.4011 0.4034
C3 C 0.4030(5) 0.4300(2) 0.2671(3)
H2 H 0.3152 0.4481 0.2469
C4 C 0.5004(6) 0.4316(2) 0.2034(3)
H3 H 0.4782 0.4505 0.1403
C5 C 0.6291(5) 0.4054(2) 0.2328(3)
H4 H 0.6949 0.4075 0.1900
C6 C 0.6631(4) 0.3758(2) 0.3259(3)
H5 H 0.7505 0.3569 0.3449
C7 C 0.6606(4) 0.2402(2) 0.4835(2)
C8 C 0.7784(4) 0.2075(2) 0.5303(3)
H6 H 0.8384 0.2337 0.5755
C9 C 0.8066(4) 0.1347(3) 0.5090(3)
H7 H 0.8858 0.1124 0.5401
C10 C 0.7177(6) 0.0960(3) 0.4422(3)
H8 H 0.7358 0.0474 0.4289
C11 C 0.6025(6) 0.1293(3) 0.3954(3)
H9 H 0.5428 0.1030 0.3501
C12 C 0.5737(5) 0.2008(2) 0.4142(3)
H10 H 0.4961 0.2230 0.3806
C13 C 0.7445(4) 0.3820(2) 0.5795(3)
C14 C 0.7992(4) 0.4452(2) 0.5445(3)
H11 H 0.7703 0.4608 0.4805
C15 C 0.8973(4) 0.4854(2) 0.6047(4)
H12 H 0.9328 0.5280 0.5811
C16 C 0.9419(4) 0.4622(3) 0.6990(4)
H13 H 1.0073 0.4891 0.7394
C17 C 0.8891(5) 0.3990(3) 0.7332(3)
H14 H 0.9204 0.3828 0.7965
C18 C 0.7907(4) 0.3596(2) 0.6750(3)
H15 H 0.7547 0.3175 0.6997
C19 C 0.4704(4) 0.3286(2) 0.5782(2)
C20 C 0.4222(4) 0.3940(2) 0.6140(3)
H16 H 0.4630 0.4380 0.6004
C21 C 0.3148(4) 0.3935(3) 0.6692(3)
H17 H 0.2828 0.4372 0.6923
C22 C 0.2555(4) 0.3290(3) 0.6899(3)
H18 H 0.1827 0.3292 0.7269
C23 C 0.3017(4) 0.2635(3) 0.6571(3)
H19 H 0.2612 0.2197 0.6725
C24 C 0.4092(4) 0.2635(2) 0.6007(3)
H20 H 0.4404 0.2195 0.5779
N1 N 1.1180(4) 0.2763(2) 0.9302(3)
N2 N 0.9977(6) 0.1621(3) 0.7308(4)
B1 B 1.2028(7) 0.4153(4) 0.9595(5)
H21 H 1.1554 0.4460 0.9092
H22 H 1.2998 0.4177 0.9566
H23 H 1.1841 0.4318 1.0229
B2 B 1.0756(6) 0.1946(3) 0.9189(4)
H24 H 1.1525 0.1637 0.9443
H25 H 1.0004 0.1847 0.9563
C25 C 1.1527(5) 0.3350(3) 0.9430(3)
C26 C 1.0310(5) 0.1775(3) 0.8096(4)
loop_
_geom_bond_atom_site_label_1
_geom_bond_atom_site_label_2
_geom_bond_site_symmetry_1
_geom_bond_site_symmetry_2
P1 C1 1_555 1_555
C1 C2 1_555 1_555
C2 H1 1_555 1_555
C3 C2 1_555 1_555
H2 C3 1_555 1_555
C4 C3 1_555 1_555
H3 C4 1_555 1_555
C5 C4 1_555 1_555
H4 C5 1_555 1_555
C6 C1 1_555 1_555
H5 C6 1_555 1_555
C7 P1 1_555 1_555
C8 C7 1_555 1_555
H6 C8 1_555 1_555
C9 C8 1_555 1_555
H7 C9 1_555 1_555
C10 C9 1_555 1_555
H8 C10 1_555 1_555
C11 C10 1_555 1_555
H9 C11 1_555 1_555
C12 C7 1_555 1_555
H10 C12 1_555 1_555
C13 P1 1_555 1_555
C14 C13 1_555 1_555
H11 C14 1_555 1_555
C15 C14 1_555 1_555
H12 C15 1_555 1_555
C16 C15 1_555 1_555
H13 C16 1_555 1_555
C17 C16 1_555 1_555
H14 C17 1_555 1_555
C18 C13 1_555 1_555
H15 C18 1_555 1_555
C19 P1 1_555 1_555
C20 C19 1_555 1_555
H16 C20 1_555 1_555
C21 C20 1_555 1_555
H17 C21 1_555 1_555
C22 C21 1_555 1_555
H18 C22 1_555 1_555
C23 C22 1_555 1_555
H19 C23 1_555 1_555
C24 C19 1_555 1_555
H20 C24 1_555 1_555
N1 B2 1_555 1_555
N2 C26 1_555 1_555
B1 H21 1_555 1_555
H22 B1 1_555 1_555
H23 B1 1_555 1_555
B2 H24 1_555 1_555
H25 B2 1_555 1_555
C25 N1 1_555 1_555
C26 B2 1_555 1_555
C5 C6 1_555 1_555
C11 C12 1_555 1_555
C17 C18 1_555 1_555
C23 C24 1_555 1_555
B1 C25 1_555 1_555

#END
