
#######################################################################
#
#                 Cambridge Crystallographic Data Centre
#                                CCDC 
#
#######################################################################
#
# If this CIF has been generated from an entry in the Cambridge 
# Structural Database, then it will include bibliographic, chemical, 
# crystal, experimental, refinement or atomic coordinate data resulting 
# from the CCDC's data processing and validation procedures.
#
#######################################################################

data_SUVPEE
_chemical_formula_moiety         'C10 H13 N1 O4 S1'
_chemical_name_systematic        4-(2-Hydroxyethylsulfonyl)-N-acetylaniline
_symmetry_cell_setting           orthorhombic
_symmetry_space_group_name_H-M   'P b n 21'
_symmetry_Int_Tables_number      33
_space_group_name_Hall           'P 2c -2ab'
loop_
_symmetry_equiv_pos_site_id
_symmetry_equiv_pos_as_xyz
1 x,y,z
2 -x,-y,1/2+z
3 1/2-x,1/2+y,z
4 1/2+x,1/2-y,1/2+z
_cell_length_a                   8.389(2)
_cell_length_b                   11.239(3)
_cell_length_c                   23.965(6)
_cell_angle_alpha                90
_cell_angle_beta                 90
_cell_angle_gamma                90
_cell_volume                     2259.52
_cell_formula_units_Z            8
loop_
_atom_site_label
_atom_site_type_symbol
_atom_site_fract_x
_atom_site_fract_y
_atom_site_fract_z
S1 S 0.5985(2) 0.4836(1) 0.1008(1)
O1 O 0.6563(8) 0.3727(4) 0.0798(2)
O2 O 0.4337(6) 0.5147(5) 0.0912(2)
O3 O 0.9023(6) 0.3821(5) 0.3628(2)
O4 O 0.9689(6) 0.5724(4) 0.1164(2)
N1 N 0.6842(8) 0.4929(5) 0.3475(2)
C1 C 0.6302(7) 0.4864(5) 0.1743(2)
C2 C 0.7353(11) 0.4078(6) 0.1976(4)
C3 C 0.7543(9) 0.4100(6) 0.2579(2)
C4 C 0.6716(7) 0.4886(5) 0.2883(2)
C5 C 0.5679(16) 0.5660(7) 0.2623(3)
C6 C 0.5431(18) 0.5660(6) 0.2063(3)
C7 C 0.7668(9) 0.4688(7) 0.4419(2)
C8 C 0.7919(19) 0.4415(6) 0.3809(3)
C9 C 0.7103(16) 0.6005(5) 0.0715(3)
C10 C 0.8911(8) 0.5753(7) 0.0648(3)
S2 S 1.4011(2) 0.2575(1) 0.4057(1)
O5 O 1.5632(6) 0.2230(5) 0.4155(2)
O6 O 1.3459(7) 0.3705(4) 0.4278(2)
O7 O 1.0937(6) 0.3617(5) 0.1444(2)
O8 O 1.0284(7) 0.1708(4) 0.3907(2)
N2 N 1.3118(9) 0.2474(5) 0.1603(2)
C11 C 1.3680(3) 0.2544(5) 0.3342(2)
C12 C 1.4485(11) 0.1737(7) 0.3010(3)
C13 C 1.4283(18) 0.1736(7) 0.2440(3)
C14 C 1.3247(8) 0.2545(5) 0.2187(2)
C15 C 1.2432(7) 0.3358(5) 0.2549(3)
C16 C 1.2627(9) 0.3347(7) 0.3085(4)
C17 C 1.2215(13) 0.2126(7) 0.0808(4)
C18 C 1.2044(8) 0.3025(6) 0.1271(2)
C19 C 1.2783(9) 0.1463(6) 0.4372(2)
C20 C 1.1081(16) 0.1735(8) 0.4423(3)
loop_
_geom_bond_atom_site_label_1
_geom_bond_atom_site_label_2
_geom_bond_site_symmetry_1
_geom_bond_site_symmetry_2
S1 O1 1_555 1_555
O2 S1 1_555 1_555
O3 C8 1_555 1_555
O4 C10 1_555 1_555
N1 C4 1_555 1_555
C1 S1 1_555 1_555
C2 C1 1_555 1_555
C3 C2 1_555 1_555
C4 C3 1_555 1_555
C5 C4 1_555 1_555
C6 C1 1_555 1_555
C7 C8 1_555 1_555
C8 N1 1_555 1_555
C9 S1 1_555 1_555
C10 C9 1_555 1_555
S2 O5 1_555 1_555
O6 S2 1_555 1_555
O7 C18 1_555 1_555
O8 C20 1_555 1_555
N2 C14 1_555 1_555
C11 S2 1_555 1_555
C12 C11 1_555 1_555
C13 C12 1_555 1_555
C14 C13 1_555 1_555
C15 C14 1_555 1_555
C16 C11 1_555 1_555
C17 C18 1_555 1_555
C18 N2 1_555 1_555
C19 S2 1_555 1_555
C20 C19 1_555 1_555
C5 C6 1_555 1_555
C15 C16 1_555 1_555

#END
