
#######################################################################
#
#                 Cambridge Crystallographic Data Centre
#                                CCDC 
#
#######################################################################
#
# If this CIF has been generated from an entry in the Cambridge 
# Structural Database, then it will include bibliographic, chemical, 
# crystal, experimental, refinement or atomic coordinate data resulting 
# from the CCDC's data processing and validation procedures.
#
#######################################################################

data_SUVPEG
_chemical_formula_moiety         'C18 H16 N2 O5'
_chemical_name_systematic        
"7a-cyano-7-isopropyl-6-oxo-7a,8-dihydro-6H-chromeno[3',4':5,6]pyrano[2,3-b]aziren-8a(7H)-yl acetate"
_symmetry_cell_setting           triclinic
_symmetry_space_group_name_H-M   'P -1'
_symmetry_Int_Tables_number      2
_space_group_name_Hall           '-P 1'
loop_
_symmetry_equiv_pos_site_id
_symmetry_equiv_pos_as_xyz
1 x,y,z
2 -x,-y,-z
_cell_length_a                   8.1462(19)
_cell_length_b                   9.013(2)
_cell_length_c                   12.122(3)
_cell_angle_alpha                76.794(10)
_cell_angle_beta                 72.910(9)
_cell_angle_gamma                79.128(9)
_cell_volume                     821.134
_exptl_crystal_colour            colorless
_exptl_crystal_description       granular
_cell_formula_units_Z            2
loop_
_atom_site_label
_atom_site_type_symbol
_atom_site_fract_x
_atom_site_fract_y
_atom_site_fract_z
O1 O 0.57652(17) 0.78420(16) 0.47796(12)
O2 O 0.84220(13) 0.76234(13) 0.35503(10)
O3 O 0.67190(14) 0.81035(12) 0.22967(10)
O4 O 0.22415(13) 0.72891(12) 0.17712(10)
O5 O 0.26490(14) 0.48354(13) 0.24892(11)
C1 C 0.52687(17) 0.77107(16) 0.21598(12)
C2 C 0.41657(18) 0.90294(16) 0.17172(12)
C3 C 0.7237(2) 0.80507(18) 0.45388(15)
C4 C 0.77618(17) 0.69670(17) 0.28686(13)
C5 C 0.4532(2) 1.05418(17) 0.14622(14)
H1 H 0.5528 1.0754 0.1591
C6 C 0.3421(3) 1.1720(2) 0.10209(17)
H2 H 0.3661 1.2727 0.0861
C7 C 0.1946(2) 1.1410(2) 0.08133(17)
H3 H 0.1213 1.2211 0.0502
C8 C 0.26719(18) 0.87487(17) 0.15235(13)
C9 C 0.32341(17) 0.60399(16) 0.22479(13)
C10 C 0.48683(16) 0.62666(15) 0.23968(12)
C11 C 0.59254(16) 0.48582(15) 0.29076(12)
H4 H 0.5167 0.4431 0.3660
C12 C 0.64822(19) 0.35539(17) 0.21758(14)
H5 H 0.5424 0.3139 0.2237
C13 C 0.7655(2) 0.2238(2) 0.27089(18)
H6 H 0.7851 0.1388 0.2311
H7 H 0.7110 0.1920 0.3527
H8 H 0.8742 0.2575 0.2625
C14 C 0.7280(3) 0.4081(2) 0.08750(16)
H9 H 0.8316 0.4515 0.0772
H10 H 0.6470 0.4843 0.0549
H11 H 0.7558 0.3218 0.0482
C15 C 0.74151(17) 0.53470(16) 0.32035(12)
C16 C 0.8067(3) 0.8727(2) 0.52150(19)
H12 H 0.7301 0.9583 0.5505
H13 H 0.9130 0.9071 0.4713
H14 H 0.8306 0.7965 0.5864
N1 N 0.88816(16) 0.59130(16) 0.22007(12)
C17 C 0.78312(19) 0.44867(18) 0.42779(14)
N2 N 0.8143(2) 0.3798(2) 0.51203(14)
C18 C 0.1557(2) 0.9923(2) 0.10650(16)
H15 H 0.0566 0.9713 0.0929
H16 H 0.986(3) 0.567(3) 0.2402(19)
loop_
_geom_bond_atom_site_label_1
_geom_bond_atom_site_label_2
_geom_bond_site_symmetry_1
_geom_bond_site_symmetry_2
O1 C3 1_555 1_555
O2 C3 1_555 1_555
O3 C1 1_555 1_555
O4 C8 1_555 1_555
O5 C9 1_555 1_555
C1 C2 1_555 1_555
C2 C5 1_555 1_555
C3 C16 1_555 1_555
C4 O2 1_555 1_555
C5 H1 1_555 1_555
C6 C5 1_555 1_555
H2 C6 1_555 1_555
C7 C6 1_555 1_555
H3 C7 1_555 1_555
C8 C2 1_555 1_555
C9 O4 1_555 1_555
C10 C1 1_555 1_555
C11 C10 1_555 1_555
H4 C11 1_555 1_555
C12 C11 1_555 1_555
H5 C12 1_555 1_555
C13 C12 1_555 1_555
H6 C13 1_555 1_555
H7 C13 1_555 1_555
H8 C13 1_555 1_555
C14 C12 1_555 1_555
H9 C14 1_555 1_555
H10 C14 1_555 1_555
H11 C14 1_555 1_555
C15 C4 1_555 1_555
C16 H12 1_555 1_555
H13 C16 1_555 1_555
H14 C16 1_555 1_555
N1 C4 1_555 1_555
C17 C15 1_555 1_555
N2 C17 1_555 1_555
C18 C7 1_555 1_555
H15 C18 1_555 1_555
H16 N1 1_555 1_555
O3 C4 1_555 1_555
C8 C18 1_555 1_555
C9 C10 1_555 1_555
C11 C15 1_555 1_555
C15 N1 1_555 1_555

#END
