
#######################################################################
#
#                 Cambridge Crystallographic Data Centre
#                                CCDC 
#
#######################################################################
#
# If this CIF has been generated from an entry in the Cambridge 
# Structural Database, then it will include bibliographic, chemical, 
# crystal, experimental, refinement or atomic coordinate data resulting 
# from the CCDC's data processing and validation procedures.
#
#######################################################################

data_SUVWOX
_chemical_formula_moiety         'C31 H17 Br1 N2 O3'
_chemical_name_systematic        
3-(4-bromophenyl)-1-phenylspiro[benzo[g]indazole-4,2'-indene]-1',3',5(1H)-trione
_symmetry_cell_setting           monoclinic
_symmetry_space_group_name_H-M   'P 21/n'
_symmetry_Int_Tables_number      14
_space_group_name_Hall           '-P 2yn'
loop_
_symmetry_equiv_pos_site_id
_symmetry_equiv_pos_as_xyz
1 x,y,z
2 1/2-x,1/2+y,1/2-z
3 -x,-y,-z
4 1/2+x,1/2-y,1/2+z
_cell_length_a                   7.643(3)
_cell_length_b                   20.832(7)
_cell_length_c                   15.360(5)
_cell_angle_alpha                90
_cell_angle_beta                 99.066(4)
_cell_angle_gamma                90
_cell_volume                     2415.05
_exptl_crystal_colour            red
_exptl_crystal_description       needle
_cell_formula_units_Z            4
_exptl_crystal_recrystallization_method Ethanol
loop_
_atom_site_label
_atom_site_type_symbol
_atom_site_fract_x
_atom_site_fract_y
_atom_site_fract_z
Br1 Br 0.80321(5) 0.081579(15) 0.88437(2)
O1 O 0.4523(3) 0.36768(10) 1.09370(12)
O2 O 0.0891(3) 0.23049(9) 0.90557(11)
O3 O -0.0109(3) 0.34016(10) 1.07577(13)
N1 N 0.2734(3) 0.42018(9) 0.79347(13)
N2 N 0.3984(3) 0.37492(10) 0.78647(14)
C1 C 0.3694(5) 0.18316(19) 1.2225(2)
H1 H 0.4173 0.1692 1.2787
C2 C 0.4106(4) 0.24323(16) 1.19624(18)
H2 H 0.4871 0.2699 1.2330
C3 C 0.3338(3) 0.26282(13) 1.11259(15)
C4 C 0.3505(3) 0.32499(12) 1.06974(15)
C5 C 0.2108(3) 0.32616(11) 0.98423(15)
C6 C 0.2695(3) 0.35639(11) 0.90620(15)
C7 C 0.1896(3) 0.40935(11) 0.86466(15)
C8 C 0.2577(3) 0.47299(12) 0.73363(16)
C9 C 0.2892(4) 0.53393(12) 0.7658(2)
H3 H 0.3226 0.5404 0.8260
C10 C 0.2719(4) 0.58521(15) 0.7100(3)
H4 H 0.2919 0.6266 0.7321
C11 C 0.2258(5) 0.57584(19) 0.6229(3)
H5 H 0.2123 0.6111 0.5853
C12 C 0.6844(3) 0.16154(13) 0.87533(19)
C13 C 0.5917(4) 0.18000(13) 0.79549(18)
H6 H 0.5900 0.1542 0.7460
C14 C 0.5013(4) 0.23733(13) 0.78976(18)
H7 H 0.4374 0.2499 0.7359
C15 C 0.5033(3) 0.27655(12) 0.86217(17)
C16 C 0.6023(4) 0.25755(13) 0.94122(19)
H8 H 0.6087 0.2841 0.9903
C17 C 0.6919(4) 0.19972(14) 0.94822(19)
H9 H 0.7564 0.1869 1.0018
C18 C 0.3953(3) 0.33608(12) 0.85436(16)
C19 C 0.2232(3) 0.22210(12) 1.05750(16)
C20 C 0.1843(4) 0.16120(14) 1.08373(19)
H10 H 0.1113 0.1338 1.0465
C21 C 0.2591(5) 0.14262(17) 1.1682(2)
H11 H 0.2342 0.1021 1.1885
C22 C 0.1621(3) 0.25416(12) 0.97286(15)
C23 C 0.0447(3) 0.35943(12) 1.01099(15)
C24 C -0.0438(3) 0.41121(11) 0.95601(15)
C25 C 0.0254(3) 0.43780(11) 0.88439(14)
C26 C -0.0737(3) 0.48473(11) 0.83402(16)
H12 H -0.0311 0.5025 0.7859
C27 C -0.2334(3) 0.50507(13) 0.85438(17)
H13 H -0.2973 0.5365 0.8200
C28 C -0.3001(4) 0.47931(13) 0.92538(17)
H14 H -0.4080 0.4935 0.9390
C29 C -0.2062(3) 0.43272(12) 0.97551(16)
H15 H -0.2512 0.4152 1.0231
C30 C 0.2143(5) 0.46227(18) 0.6449(2)
H16 H 0.1958 0.4209 0.6225
C31 C 0.1986(5) 0.5162(2) 0.5887(2)
H17 H 0.1695 0.5107 0.5281
loop_
_geom_bond_atom_site_label_1
_geom_bond_atom_site_label_2
_geom_bond_site_symmetry_1
_geom_bond_site_symmetry_2
Br1 C12 1_555 1_555
O1 C4 1_555 1_555
O2 C22 1_555 1_555
O3 C23 1_555 1_555
N1 N2 1_555 1_555
N2 C18 1_555 1_555
C1 H1 1_555 1_555
C2 C1 1_555 1_555
H2 C2 1_555 1_555
C3 C2 1_555 1_555
C4 C3 1_555 1_555
C5 C4 1_555 1_555
C6 C5 1_555 1_555
C7 N1 1_555 1_555
C8 N1 1_555 1_555
C9 C8 1_555 1_555
H3 C9 1_555 1_555
C10 C9 1_555 1_555
H4 C10 1_555 1_555
C11 C10 1_555 1_555
H5 C11 1_555 1_555
C12 C13 1_555 1_555
C13 H6 1_555 1_555
C14 C13 1_555 1_555
H7 C14 1_555 1_555
C15 C14 1_555 1_555
C16 C15 1_555 1_555
H8 C16 1_555 1_555
C17 C12 1_555 1_555
H9 C17 1_555 1_555
C18 C6 1_555 1_555
C19 C3 1_555 1_555
C20 C19 1_555 1_555
H10 C20 1_555 1_555
C21 C1 1_555 1_555
H11 C21 1_555 1_555
C22 C5 1_555 1_555
C23 C5 1_555 1_555
C24 C23 1_555 1_555
C25 C7 1_555 1_555
C26 C25 1_555 1_555
H12 C26 1_555 1_555
C27 C26 1_555 1_555
H13 C27 1_555 1_555
C28 C27 1_555 1_555
H14 C28 1_555 1_555
C29 C24 1_555 1_555
H15 C29 1_555 1_555
C30 C8 1_555 1_555
H16 C30 1_555 1_555
C31 C11 1_555 1_555
H17 C31 1_555 1_555
C6 C7 1_555 1_555
C15 C18 1_555 1_555
C16 C17 1_555 1_555
C19 C22 1_555 1_555
C20 C21 1_555 1_555
C24 C25 1_555 1_555
C28 C29 1_555 1_555
C30 C31 1_555 1_555

#END
