
#######################################################################
#
#                 Cambridge Crystallographic Data Centre
#                                CCDC 
#
#######################################################################
#
# If this CIF has been generated from an entry in the Cambridge 
# Structural Database, then it will include bibliographic, chemical, 
# crystal, experimental, refinement or atomic coordinate data resulting 
# from the CCDC's data processing and validation procedures.
#
#######################################################################

data_SUVXOX
_chemical_formula_moiety         'C10 H11 Cl1 F4 O2'
_chemical_name_systematic        
6-(3-Chloro-2,2,3,3-tetrafluoropropyl)-3-oxabicyclo[3.2.1]octan-2-one
_symmetry_cell_setting           monoclinic
_symmetry_space_group_name_H-M   'P 21/c'
_symmetry_Int_Tables_number      14
_space_group_name_Hall           '-P 2ybc'
loop_
_symmetry_equiv_pos_site_id
_symmetry_equiv_pos_as_xyz
1 x,y,z
2 -x,1/2+y,1/2-z
3 -x,-y,-z
4 x,1/2-y,1/2+z
_cell_length_a                   12.2210(19)
_cell_length_b                   9.6574(15)
_cell_length_c                   10.6994(17)
_cell_angle_alpha                90
_cell_angle_beta                 115.960(2)
_cell_angle_gamma                90
_cell_volume                     1135.36
_exptl_crystal_colour            colorless
_exptl_crystal_description       prismatic
_cell_formula_units_Z            4
loop_
_atom_site_label
_atom_site_type_symbol
_atom_site_fract_x
_atom_site_fract_y
_atom_site_fract_z
Cl1 Cl 0.43463(7) 0.00814(8) 1.14644(9)
F1 F 0.36252(16) 0.29970(18) 1.15900(17)
F2 F 0.45479(15) 0.28029(17) 1.0281(2)
F3 F 0.21631(14) 0.08176(18) 1.02317(19)
F4 F 0.30872(18) 0.06288(17) 0.89362(19)
O1 O -0.0324(2) 0.6962(2) 0.9546(3)
O2 O -0.00407(18) 0.5759(2) 0.7996(2)
C1 C 0.0374(3) 0.6616(3) 0.9101(3)
C2 C 0.1682(3) 0.7017(3) 0.9695(3)
C3 C 0.2466(3) 0.5761(3) 1.0464(3)
H1 H 0.2026 0.5156 1.0808
H2 H 0.3215 0.6055 1.1237
C4 C 0.2730(3) 0.5024(3) 0.9337(3)
C5 C 0.1992(3) 0.5840(3) 0.8010(3)
C6 C 0.0685(3) 0.5440(3) 0.7264(3)
H3 H 0.0331 0.5907 0.6372
H4 H 0.0638 0.4451 0.7085
C7 C 0.2056(3) 0.7302(3) 0.8548(3)
H5 H 0.2872 0.7681 0.8903
H6 H 0.1489 0.7915 0.7844
C8 C 0.2480(2) 0.3463(3) 0.9199(3)
H7 H 0.1716 0.3289 0.9242
H8 H 0.2390 0.3162 0.8295
C9 C 0.3459(2) 0.2617(3) 1.0298(3)
C10 C 0.3211(3) 0.1064(3) 1.0166(3)
H9 H 0.233(2) 0.576(2) 0.737(2)
H10 H 0.3557(16) 0.515(2) 0.958(2)
H11 H 0.182(2) 0.780(3) 1.031(3)
loop_
_geom_bond_atom_site_label_1
_geom_bond_atom_site_label_2
_geom_bond_site_symmetry_1
_geom_bond_site_symmetry_2
Cl1 C10 1_555 1_555
F1 C9 1_555 1_555
F2 C9 1_555 1_555
F3 C10 1_555 1_555
F4 C10 1_555 1_555
O1 C1 1_555 1_555
O2 C1 1_555 1_555
C1 C2 1_555 1_555
C2 C3 1_555 1_555
C3 H1 1_555 1_555
H2 C3 1_555 1_555
C4 C3 1_555 1_555
C5 C4 1_555 1_555
C6 O2 1_555 1_555
H3 C6 1_555 1_555
H4 C6 1_555 1_555
C7 C2 1_555 1_555
H5 C7 1_555 1_555
H6 C7 1_555 1_555
C8 C4 1_555 1_555
H7 C8 1_555 1_555
H8 C8 1_555 1_555
C9 C8 1_555 1_555
C10 C9 1_555 1_555
H9 C5 1_555 1_555
H10 C4 1_555 1_555
H11 C2 1_555 1_555
C5 C6 1_555 1_555
C5 C7 1_555 1_555

#END
