
#######################################################################
#
#                 Cambridge Crystallographic Data Centre
#                                CCDC 
#
#######################################################################
#
# If this CIF has been generated from an entry in the Cambridge 
# Structural Database, then it will include bibliographic, chemical, 
# crystal, experimental, refinement or atomic coordinate data resulting 
# from the CCDC's data processing and validation procedures.
#
#######################################################################

data_SUVZEQ
_chemical_formula_moiety         'C20 H16 Br1 N1 O4'
_chemical_name_systematic        
4'-(4-bromophenyl)-5-methoxy-1-methylspiro[indole-3,2'-pyran]-2,6'(1H,3'H)-dione
_symmetry_cell_setting           orthorhombic
_symmetry_space_group_name_H-M   'P 21 21 21'
_symmetry_Int_Tables_number      19
_space_group_name_Hall           'P 2ac 2ab'
loop_
_symmetry_equiv_pos_site_id
_symmetry_equiv_pos_as_xyz
1 x,y,z
2 1/2-x,-y,1/2+z
3 -x,1/2+y,1/2-z
4 1/2+x,1/2-y,-z
_cell_length_a                   9.7918(15)
_cell_length_b                   10.8744(17)
_cell_length_c                   17.136(3)
_cell_angle_alpha                90
_cell_angle_beta                 90
_cell_angle_gamma                90
_cell_volume                     1824.64
_exptl_crystal_colour            colorless
_exptl_crystal_description       block
_cell_formula_units_Z            4
loop_
_atom_site_label
_atom_site_type_symbol
_atom_site_fract_x
_atom_site_fract_y
_atom_site_fract_z
Br1 Br -0.06620(4) 0.41961(3) -0.158595(18)
O1 O -0.07372(18) 0.01911(15) 0.29834(9)
C1 C -0.0595(2) 0.1274(2) 0.14838(13)
C2 C -0.0643(3) 0.3279(2) -0.06445(14)
C3 C 0.0587(2) 0.0674(2) 0.27361(13)
C4 C -0.0574(2) 0.1941(2) 0.07338(13)
C5 C 0.1299(2) 0.1119(2) 0.34616(14)
C6 C -0.0008(3) 0.3774(3) -0.00012(18)
H1 H 0.0385 0.4552 -0.0024
O2 O 0.12681(18) -0.11233(16) 0.19419(11)
O3 O -0.2644(2) -0.0715(2) 0.26418(12)
C7 C 0.1474(2) -0.0452(2) 0.25005(15)
C8 C -0.1695(3) -0.0093(2) 0.24355(16)
N1 N 0.2457(2) -0.05881(18) 0.30397(13)
C9 C -0.1231(3) 0.2128(3) -0.06210(15)
H2 H -0.1644 0.1799 -0.1063
C10 C -0.1554(2) 0.0440(2) 0.16567(15)
H3 H -0.2153 0.0191 0.1267
C11 C 0.0441(2) 0.1626(2) 0.20946(13)
H4 H 0.0174 0.2404 0.2326
H5 H 0.1320 0.1743 0.1845
O4 O 0.1464(3) 0.3245(2) 0.50645(13)
C12 C 0.0038(3) 0.3093(2) 0.06830(16)
H6 H 0.0486 0.3412 0.1116
C13 C 0.2380(3) 0.0324(2) 0.36250(15)
C14 C -0.1198(3) 0.1470(2) 0.00708(15)
H7 H -0.1602 0.0697 0.0091
C15 C 0.3464(3) -0.1569(3) 0.3026(2)
H8 H 0.3310 -0.2083 0.2580
H9 H 0.3385 -0.2052 0.3493
H10 H 0.4364 -0.1221 0.2997
C16 C 0.1012(3) 0.2093(2) 0.39377(15)
H11 H 0.0308 0.2637 0.3821
C17 C 0.1820(3) 0.2245(3) 0.46137(16)
C18 C 0.2860(3) 0.1440(3) 0.47778(19)
H12 H 0.3372 0.1544 0.5230
C19 C 0.3159(3) 0.0471(3) 0.42758(18)
H13 H 0.3875 -0.0064 0.4383
C20 C 0.1976(6) 0.3296(5) 0.5828(2)
H14 H 0.1611 0.2625 0.6126
H15 H 0.1713 0.4060 0.6065
H16 H 0.2954 0.3238 0.5816
loop_
_geom_bond_atom_site_label_1
_geom_bond_atom_site_label_2
_geom_bond_site_symmetry_1
_geom_bond_site_symmetry_2
Br1 C2 1_555 1_555
O1 C3 1_555 1_555
C1 C4 1_555 1_555
C2 C6 1_555 1_555
C3 C5 1_555 1_555
C4 C12 1_555 1_555
C5 C13 1_555 1_555
C6 H1 1_555 1_555
O2 C7 1_555 1_555
O3 C8 1_555 1_555
C7 C3 1_555 1_555
C8 O1 1_555 1_555
N1 C7 1_555 1_555
C9 C2 1_555 1_555
H2 C9 1_555 1_555
C10 C1 1_555 1_555
H3 C10 1_555 1_555
C11 C1 1_555 1_555
H4 C11 1_555 1_555
H5 C11 1_555 1_555
O4 C17 1_555 1_555
C12 C6 1_555 1_555
H6 C12 1_555 1_555
C13 N1 1_555 1_555
C14 C4 1_555 1_555
H7 C14 1_555 1_555
C15 N1 1_555 1_555
H8 C15 1_555 1_555
H9 C15 1_555 1_555
H10 C15 1_555 1_555
C16 C5 1_555 1_555
H11 C16 1_555 1_555
C17 C16 1_555 1_555
C18 C17 1_555 1_555
H12 C18 1_555 1_555
C19 C13 1_555 1_555
H13 C19 1_555 1_555
C20 O4 1_555 1_555
H14 C20 1_555 1_555
H15 C20 1_555 1_555
H16 C20 1_555 1_555
C3 C11 1_555 1_555
C8 C10 1_555 1_555
C9 C14 1_555 1_555
C18 C19 1_555 1_555

#END
