
#######################################################################
#
#                 Cambridge Crystallographic Data Centre
#                                CCDC 
#
#######################################################################
#
# If this CIF has been generated from an entry in the Cambridge 
# Structural Database, then it will include bibliographic, chemical, 
# crystal, experimental, refinement or atomic coordinate data resulting 
# from the CCDC's data processing and validation procedures.
#
#######################################################################

data_SUWDAP
_chemical_formula_moiety         'C19 H19 N1 O2'
_chemical_name_systematic        
(Z)-3-(2'-Hydroxy-2'-methyl)propylidene-N-(p-tolyl)isoindolin-1-one
_symmetry_cell_setting           triclinic
_symmetry_space_group_name_H-M   'P -1'
_symmetry_Int_Tables_number      2
_space_group_name_Hall           '-P 1'
loop_
_symmetry_equiv_pos_site_id
_symmetry_equiv_pos_as_xyz
1 x,y,z
2 -x,-y,-z
_cell_length_a                   9.426(2)
_cell_length_b                   9.795(2)
_cell_length_c                   9.909(2)
_cell_angle_alpha                68.70(2)
_cell_angle_beta                 81.17(2)
_cell_angle_gamma                70.00(2)
_cell_volume                     800.528
_exptl_crystal_colour            colorless
_exptl_crystal_description       prism
_chemical_melting_point          413K
_cell_formula_units_Z            2
loop_
_atom_site_label
_atom_site_type_symbol
_atom_site_fract_x
_atom_site_fract_y
_atom_site_fract_z
O1 O 0.2236(3) 0.4952(3) 0.2347(3)
O2 O 0.9094(2) 0.6333(3) 0.1788(3)
H1 H 0.9993 0.5831 0.1872
N1 N 0.4577(3) 0.5203(3) 0.2337(3)
C1 C 0.2598(4) 0.7424(4) 0.1852(4)
C2 C 0.1185(4) 0.8536(5) 0.1646(5)
H2 H 0.0316 0.8267 0.1707
C3 C 0.1108(4) 1.0030(5) 0.1353(5)
H3 H 0.0173 1.0792 0.1202
C4 C 0.2398(5) 1.0432(4) 0.1277(4)
H4 H 0.2316 1.1460 0.1074
C5 C 0.3797(4) 0.9338(4) 0.1495(4)
H5 H 0.4662 0.9614 0.1432
C6 C 0.3887(4) 0.7828(4) 0.1809(4)
C7 C 0.5203(4) 0.6396(4) 0.2112(4)
C8 C 0.3023(4) 0.5765(5) 0.2198(4)
C9 C 0.5343(3) 0.3571(4) 0.2814(5)
C10 C 0.5712(4) 0.2780(5) 0.1844(4)
H6 H 0.5450 0.3291 0.0880
C11 C 0.6476(4) 0.1221(5) 0.2323(5)
H7 H 0.6738 0.0689 0.1666
C12 C 0.6861(4) 0.0428(4) 0.3757(6)
C13 C 0.6448(5) 0.1250(5) 0.4689(5)
H8 H 0.6699 0.0741 0.5657
C14 C 0.5671(4) 0.2810(4) 0.4244(5)
H9 H 0.5376 0.3334 0.4908
C15 C 0.7724(5) -0.1269(5) 0.4250(6)
H10 H 0.8617 -0.1455 0.3644
H11 H 0.7099 -0.1836 0.4183
H12 H 0.8004 -0.1598 0.5237
C16 C 0.6612(4) 0.6412(4) 0.2126(4)
C17 C 0.8192(4) 0.5305(4) 0.2407(5)
C18 C 0.8459(5) 0.4531(5) 0.4025(5)
H13 H 0.7899 0.3810 0.4431
H14 H 0.8129 0.5299 0.4490
H15 H 0.9516 0.3996 0.4175
C19 C 0.8650(4) 0.4135(5) 0.1646(6)
H16 H 0.8156 0.3364 0.2117
H17 H 0.9725 0.3657 0.1681
H18 H 0.8361 0.4637 0.0654
H19 H 0.6629 0.7396 0.1881
loop_
_geom_bond_atom_site_label_1
_geom_bond_atom_site_label_2
_geom_bond_site_symmetry_1
_geom_bond_site_symmetry_2
O1 C8 1_555 1_555
O2 H1 1_555 1_555
N1 C7 1_555 1_555
C1 C2 1_555 1_555
C2 H2 1_555 1_555
C3 C2 1_555 1_555
H3 C3 1_555 1_555
C4 C3 1_555 1_555
H4 C4 1_555 1_555
C5 C4 1_555 1_555
H5 C5 1_555 1_555
C6 C1 1_555 1_555
C7 C6 1_555 1_555
C8 N1 1_555 1_555
C9 N1 1_555 1_555
C10 C9 1_555 1_555
H6 C10 1_555 1_555
C11 C10 1_555 1_555
H7 C11 1_555 1_555
C12 C11 1_555 1_555
C13 C12 1_555 1_555
H8 C13 1_555 1_555
C14 C9 1_555 1_555
H9 C14 1_555 1_555
C15 C12 1_555 1_555
H10 C15 1_555 1_555
H11 C15 1_555 1_555
H12 C15 1_555 1_555
C16 C7 1_555 1_555
C17 O2 1_555 1_555
C18 C17 1_555 1_555
H13 C18 1_555 1_555
H14 C18 1_555 1_555
H15 C18 1_555 1_555
C19 C17 1_555 1_555
H16 C19 1_555 1_555
H17 C19 1_555 1_555
H18 C19 1_555 1_555
H19 C16 1_555 1_555
C1 C8 1_555 1_555
C5 C6 1_555 1_555
C13 C14 1_555 1_555
C16 C17 1_555 1_555

#END
