
#######################################################################
#
#                 Cambridge Crystallographic Data Centre
#                                CCDC 
#
#######################################################################
#
# If this CIF has been generated from an entry in the Cambridge 
# Structural Database, then it will include bibliographic, chemical, 
# crystal, experimental, refinement or atomic coordinate data resulting 
# from the CCDC's data processing and validation procedures.
#
#######################################################################

data_SUWFEV01
_chemical_formula_moiety         'C32 H32 O8'
_chemical_name_systematic        Tetrabenzo-24-crown-8
_symmetry_cell_setting           monoclinic
_symmetry_space_group_name_H-M   'P 21/c'
_symmetry_Int_Tables_number      14
_space_group_name_Hall           '-P 2ybc'
loop_
_symmetry_equiv_pos_site_id
_symmetry_equiv_pos_as_xyz
1 x,y,z
2 x,1/2-y,1/2+z
3 -x,-y,-z
4 -x,1/2+y,1/2-z
_cell_length_a                   9.5854(15)
_cell_length_b                   18.931(2)
_cell_length_c                   7.2965(12)
_cell_angle_alpha                90.00
_cell_angle_beta                 94.291(12)
_cell_angle_gamma                90.00
_cell_volume                     1320.32
_exptl_crystal_description       plates
_cell_formula_units_Z            2
_exptl_crystal_recrystallization_method 'diethyl ether/chloroform'
loop_
_atom_site_label
_atom_site_type_symbol
_atom_site_fract_x
_atom_site_fract_y
_atom_site_fract_z
O1 O -0.1919(2) 0.00234(8) 0.4098(2)
C1 C -0.3068(3) -0.04355(13) 0.4301(3)
H1 H -0.3937(3) -0.01715(13) 0.4180(3)
H2 H -0.2983(3) -0.06547(13) 0.5506(3)
C2 C -0.3065(3) -0.09901(13) 0.2833(3)
H3 H -0.2158(3) -0.12183(13) 0.2865(3)
H4 H -0.3766(3) -0.13465(13) 0.3029(3)
O2 O -0.3372(2) -0.06507(8) 0.1083(2)
C3 C -0.3654(3) -0.11137(11) -0.0376(3)
C4 C -0.4974(3) -0.11209(13) -0.1267(3)
H5 H -0.5649(3) -0.08065(13) -0.0913(3)
C5 C -0.5302(3) -0.15923(14) -0.2683(3)
H6 H -0.6200(3) -0.16023(14) -0.3259(3)
C6 C -0.4291(3) -0.20474(13) -0.3237(3)
H7 H -0.4515(3) -0.23711(13) -0.4172(3)
C7 C -0.2958(3) -0.20246(12) -0.2415(3)
H8 H -0.2276(3) -0.23249(12) -0.2818(3)
C8 C -0.2616(2) -0.15574(11) -0.0987(3)
O3 O -0.1285(2) -0.15726(8) -0.0146(2)
C9 C -0.0504(3) -0.09228(12) -0.0191(3)
H9 H -0.0099(3) -0.08121(12) 0.1034(3)
H10 H -0.1126(3) -0.05398(12) -0.0593(3)
C10 C 0.0631(3) -0.09920(13) -0.1473(3)
H11 H 0.1279(3) -0.05996(13) -0.1309(3)
H12 H 0.1145(3) -0.14279(13) -0.1234(3)
O4 O -0.0022(2) -0.09932(10) -0.3314(2)
C11 C 0.0876(3) -0.11295(13) -0.4672(3)
C12 C 0.0782(3) -0.17628(14) -0.5596(4)
H13 H 0.0118(3) -0.20937(14) -0.5302(4)
C13 C 0.1666(3) -0.19123(14) -0.6958(4)
H14 H 0.1603(3) -0.23445(14) -0.7564(4)
C14 C 0.2635(3) -0.1423(2) -0.7414(4)
H15 H 0.3232(3) -0.1527(2) -0.8325(4)
C15 C 0.2734(3) -0.07738(14) -0.6526(3)
H16 H 0.3376(3) -0.04394(14) -0.6866(3)
C16 C -0.1868(3) 0.06247(12) 0.5126(3)
C16B C 0.1868(3) -0.06247(12) -0.5126(3)
O1B O 0.1919(2) -0.00234(8) -0.4098(2)
C1B C 0.3068(3) 0.04355(13) -0.4301(3)
H1B H 0.3937(3) 0.01715(13) -0.4180(3)
H2B H 0.2983(3) 0.06547(13) -0.5506(3)
C2B C 0.3065(3) 0.09901(13) -0.2833(3)
H3B H 0.2158(3) 0.12183(13) -0.2865(3)
H4B H 0.3766(3) 0.13465(13) -0.3029(3)
O2B O 0.3372(2) 0.06507(8) -0.1083(2)
C3B C 0.3654(3) 0.11137(11) 0.0376(3)
C4B C 0.4974(3) 0.11209(13) 0.1267(3)
H5B H 0.5649(3) 0.08065(13) 0.0913(3)
C5B C 0.5302(3) 0.15923(14) 0.2683(3)
H6B H 0.6200(3) 0.16023(14) 0.3259(3)
C6B C 0.4291(3) 0.20474(13) 0.3237(3)
H7B H 0.4515(3) 0.23711(13) 0.4172(3)
C7B C 0.2958(3) 0.20246(12) 0.2415(3)
H8B H 0.2276(3) 0.23249(12) 0.2818(3)
C8B C 0.2616(2) 0.15574(11) 0.0987(3)
O3B O 0.1285(2) 0.15726(8) 0.0146(2)
C9B C 0.0504(3) 0.09228(12) 0.0191(3)
H9B H 0.0099(3) 0.08121(12) -0.1034(3)
H10B H 0.1126(3) 0.05398(12) 0.0593(3)
C10B C -0.0631(3) 0.09920(13) 0.1473(3)
H11B H -0.1279(3) 0.05996(13) 0.1309(3)
H12B H -0.1145(3) 0.14279(13) 0.1234(3)
O4B O 0.0022(2) 0.09932(10) 0.3314(2)
C11B C -0.0876(3) 0.11295(13) 0.4672(3)
C12B C -0.0782(3) 0.17628(14) 0.5596(4)
H13B H -0.0118(3) 0.20937(14) 0.5302(4)
C13B C -0.1666(3) 0.19123(14) 0.6958(4)
H14B H -0.1603(3) 0.23445(14) 0.7564(4)
C14B C -0.2635(3) 0.1423(2) 0.7414(4)
H15B H -0.3232(3) 0.1527(2) 0.8325(4)
C15B C -0.2734(3) 0.07738(14) 0.6526(3)
H16B H -0.3376(3) 0.04394(14) 0.6866(3)
loop_
_geom_bond_atom_site_label_1
_geom_bond_atom_site_label_2
_geom_bond_site_symmetry_1
_geom_bond_site_symmetry_2
O1 C1 1_555 1_555
C1 H1 1_555 1_555
H2 C1 1_555 1_555
C2 C1 1_555 1_555
H3 C2 1_555 1_555
H4 C2 1_555 1_555
O2 C2 1_555 1_555
C3 O2 1_555 1_555
C4 C3 1_555 1_555
H5 C4 1_555 1_555
C5 C4 1_555 1_555
H6 C5 1_555 1_555
C6 C5 1_555 1_555
H7 C6 1_555 1_555
C7 C6 1_555 1_555
H8 C7 1_555 1_555
C8 C3 1_555 1_555
O3 C8 1_555 1_555
C9 O3 1_555 1_555
H9 C9 1_555 1_555
H10 C9 1_555 1_555
C10 C9 1_555 1_555
H11 C10 1_555 1_555
H12 C10 1_555 1_555
O4 C10 1_555 1_555
C11 O4 1_555 1_555
C12 C11 1_555 1_555
H13 C12 1_555 1_555
C13 C12 1_555 1_555
H14 C13 1_555 1_555
C14 C13 1_555 1_555
H15 C14 1_555 1_555
C15 C14 1_555 1_555
H16 C15 1_555 1_555
C16 O1 1_555 1_555
C16B C11 1_555 1_555
O1B C16B 1_555 1_555
C1B O1B 1_555 1_555
H1B C1B 1_555 1_555
H2B C1B 1_555 1_555
C2B C1B 1_555 1_555
H3B C2B 1_555 1_555
H4B C2B 1_555 1_555
O2B C2B 1_555 1_555
C3B O2B 1_555 1_555
C4B C3B 1_555 1_555
H5B C4B 1_555 1_555
C5B C4B 1_555 1_555
H6B C5B 1_555 1_555
C6B C5B 1_555 1_555
H7B C6B 1_555 1_555
C7B C6B 1_555 1_555
H8B C7B 1_555 1_555
C8B C3B 1_555 1_555
O3B C8B 1_555 1_555
C9B O3B 1_555 1_555
H9B C9B 1_555 1_555
H10B C9B 1_555 1_555
C10B C9B 1_555 1_555
H11B C10B 1_555 1_555
H12B C10B 1_555 1_555
O4B C10B 1_555 1_555
C11B C16 1_555 1_555
C12B C11B 1_555 1_555
H13B C12B 1_555 1_555
C13B C12B 1_555 1_555
H14B C13B 1_555 1_555
C14B C13B 1_555 1_555
H15B C14B 1_555 1_555
C15B C16 1_555 1_555
H16B C15B 1_555 1_555
C7 C8 1_555 1_555
C15 C16B 1_555 1_555
C7B C8B 1_555 1_555
O4B C11B 1_555 1_555
C14B C15B 1_555 1_555

#END
