
#######################################################################
#
#                 Cambridge Crystallographic Data Centre
#                                CCDC 
#
#######################################################################
#
# If this CIF has been generated from an entry in the Cambridge 
# Structural Database, then it will include bibliographic, chemical, 
# crystal, experimental, refinement or atomic coordinate data resulting 
# from the CCDC's data processing and validation procedures.
#
#######################################################################

data_SUWMII
_chemical_formula_moiety         'C40 H40 N4 O2 S4,0.5(C1 H1 Cl3)'
_chemical_name_systematic        
"2,9-dibutyl-5,12-bis(morpholin-4-yl)isoquinolino[4',5',6':6,5,10]anthra[2,1,9-def]isoquinoline-1,3,8,10(2H,9H)-tetrathione chloroform solvate"
_symmetry_cell_setting           triclinic
_symmetry_space_group_name_H-M   'P -1'
_symmetry_Int_Tables_number      2
_space_group_name_Hall           '-P 1'
loop_
_symmetry_equiv_pos_site_id
_symmetry_equiv_pos_as_xyz
1 x,y,z
2 -x,-y,-z
_cell_length_a                   12.8268(14)
_cell_length_b                   13.2644(13)
_cell_length_c                   24.5245(7)
_cell_angle_alpha                96.008(5)
_cell_angle_beta                 95.267(6)
_cell_angle_gamma                118.650(11)
_cell_volume                     3593.1
_exptl_crystal_colour            'dark red'
_exptl_crystal_description       plank
_cell_formula_units_Z            4
loop_
_atom_site_label
_atom_site_type_symbol
_atom_site_fract_x
_atom_site_fract_y
_atom_site_fract_z
S5 S 0.4130(2) 0.85103(18) 0.21801(8)
S6 S 0.4372(2) 0.6424(2) 0.02688(7)
S7 S 0.98089(19) 0.27800(19) 0.26684(9)
S8 S 1.0747(2) 0.6008(3) 0.43994(9)
O3 O 0.5188(6) 0.6548(7) 0.4676(2)
O4 O 0.4630(6) 0.0870(5) 0.0605(2)
N5 N 0.4432(6) 0.7467(5) 0.1266(3)
N6 N 1.0249(6) 0.4529(6) 0.3466(3)
N7 N 0.5796(6) 0.6768(6) 0.3597(2)
N8 N 0.6306(6) 0.2790(5) 0.1441(2)
C46 C 0.5800(6) 0.6719(6) 0.3020(3)
C47 C 0.5243(7) 0.7211(6) 0.2722(3)
H57 H 0.4932 0.7638 0.2916
C48 C 0.5131(7) 0.7097(6) 0.2150(3)
C49 C 0.5250(7) 0.6143(6) 0.1260(3)
C50 C 0.5554(7) 0.5378(7) 0.0988(3)
H58 H 0.5418 0.5225 0.0593
C51 C 0.6047(6) 0.4836(5) 0.1277(2)
H59 H 0.6210 0.4292 0.1073
C52 C 0.7042(7) 0.3560(6) 0.1926(3)
C53 C 0.7933(7) 0.3379(6) 0.2199(3)
H60 H 0.8051 0.2769 0.2033
C54 C 0.8655(6) 0.4055(6) 0.2703(3)
C55 C 0.9046(7) 0.5486(6) 0.3511(3)
C56 C 0.8733(7) 0.6242(6) 0.3786(3)
H61 H 0.9141 0.6639 0.4151
C57 C 0.7870(6) 0.6427(6) 0.3550(3)
H62 H 0.7686 0.6953 0.3757
C58 C 0.7223(6) 0.5883(6) 0.3013(2)
C59 C 0.6327(6) 0.6139(6) 0.2742(3)
C60 C 0.6043(6) 0.5846(6) 0.2151(3)
C61 C 0.5479(6) 0.6363(6) 0.1852(3)
C62 C 0.6321(6) 0.5041(6) 0.1852(3)
C63 C 0.6920(6) 0.4531(6) 0.2160(3)
C64 C 0.7513(6) 0.5090(6) 0.2709(3)
C65 C 0.8395(6) 0.4874(6) 0.2974(3)
C66 C 0.4571(7) 0.7673(6) 0.1854(3)
C67 C 0.4689(7) 0.6704(6) 0.0957(3)
C68 C 0.9578(7) 0.3833(7) 0.2961(3)
C69 C 1.0003(7) 0.5296(7) 0.3764(3)
C70 C 0.5458(8) 0.7556(7) 0.3887(3)
H63 H 0.4582 0.7250 0.3787
H64 H 0.5886 0.8331 0.3775
C71 C 0.5783(9) 0.7666(8) 0.4506(3)
H65 H 0.6665 0.8011 0.4607
H66 H 0.5545 0.8194 0.4704
C72 C 0.5526(9) 0.5774(9) 0.4397(3)
H67 H 0.5115 0.5009 0.4520
H68 H 0.6406 0.6094 0.4495
C73 C 0.5189(7) 0.5617(7) 0.3775(3)
H69 H 0.5440 0.5092 0.3585
H70 H 0.4305 0.5261 0.3673
C74 C 0.5003(7) 0.2222(6) 0.1438(3)
H71 H 0.4793 0.2799 0.1606
H72 H 0.4765 0.1596 0.1666
C75 C 0.4326(8) 0.1714(7) 0.0855(3)
H73 H 0.3449 0.1330 0.0862
H74 H 0.4534 0.2344 0.0631
C76 C 0.5857(8) 0.1406(7) 0.0610(3)
H75 H 0.6086 0.2025 0.0379
H76 H 0.6059 0.0825 0.0439
C77 C 0.6597(7) 0.1940(7) 0.1187(3)
H77 H 0.6417 0.1323 0.1417
H78 H 0.7466 0.2321 0.1161
C78 C 0.3906(7) 0.8073(6) 0.0966(3)
H79 H 0.4228 0.8225 0.0614
H80 H 0.4142 0.8833 0.1195
C79 C 0.2540(7) 0.7344(7) 0.0842(3)
H81 H 0.2232 0.7111 0.1190
H82 H 0.2310 0.6625 0.0579
C80 C 0.1946(10) 0.7992(9) 0.0593(3)
H83 H 0.2390 0.8389 0.0301
H84 H 0.1111 0.7419 0.0414
C81 C 0.1921(10) 0.8885(9) 0.1021(5)
H85 H 0.1533 0.9273 0.0841
H86 H 0.2746 0.9465 0.1194
H87 H 0.1466 0.8495 0.1307
C82 C 1.1260(8) 0.4400(8) 0.3714(4)
H88 H 1.1892 0.5160 0.3930
H89 H 1.1611 0.4175 0.3413
C83 C 1.0873(9) 0.3485(9) 0.4094(4)
H90 H 1.0408 0.3653 0.4354
H91 H 1.0318 0.2716 0.3861
C84 C 1.1863(18) 0.338(2) 0.4436(7)
H92 H 1.2521 0.4164 0.4617
H93 H 1.1536 0.2909 0.4729
C85 C 1.2325(17) 0.2802(16) 0.4042(8)
H94 H 1.1648 0.2073 0.3833
H95 H 1.2892 0.2633 0.4253
H96 H 1.2735 0.3323 0.3783
S1 S 0.65187(19) 1.0999(2) 0.28345(7)
S2 S 0.8661(2) 1.0793(2) 0.47346(7)
S3 S 1.2234(2) 0.52968(18) 0.23068(9)
S4 S 0.8936(2) 0.4408(2) 0.05843(8)
O1 O 0.8586(6) 0.9948(7) 0.0322(2)
O2 O 1.4171(5) 1.0302(6) 0.4410(2)
N1 N 0.7556(6) 1.0689(6) 0.3744(2)
N2 N 1.0458(6) 0.4890(5) 0.1514(3)
N3 N 0.8328(6) 0.9358(5) 0.1405(2)
N4 N 1.2244(5) 0.8706(6) 0.3552(2)
C1 C 0.8347(6) 0.9361(6) 0.1985(3)
C2 C 0.7826(6) 0.9872(6) 0.2282(3)
H1 H 0.7365 1.0148 0.2088
C3 C 0.7945(6) 1.0005(6) 0.2863(3)
C4 C 0.8899(6) 0.9872(6) 0.3742(3)
C5 C 0.9666(7) 0.9546(6) 0.4014(2)
H2 H 0.9828 0.9690 0.4408
C6 C 1.0180(6) 0.9028(6) 0.3727(3)
H3 H 1.0704 0.8830 0.3929
C7 C 1.1470(6) 0.8005(6) 0.3060(2)
C8 C 1.1653(7) 0.7142(6) 0.2785(3)
H4 H 1.2263 0.7008 0.2953
C9 C 1.0992(7) 0.6480(6) 0.2284(3)
C10 C 0.9535(6) 0.6127(6) 0.1470(3)
C11 C 0.8805(7) 0.6471(7) 0.1192(3)
H5 H 0.8426 0.6105 0.0820
C12 C 0.8620(7) 0.7314(6) 0.1437(3)
H6 H 0.8094 0.7505 0.1232
C13 C 0.9167(6) 0.7937(6) 0.1987(3)
C14 C 0.8908(6) 0.8794(6) 0.2251(2)
C15 C 0.9203(6) 0.9071(6) 0.2851(3)
C16 C 0.8675(6) 0.9635(6) 0.3154(3)
C17 C 0.9976(6) 0.8768(6) 0.3142(2)
C18 C 1.0501(6) 0.8156(6) 0.2834(3)
C19 C 0.9933(6) 0.7604(6) 0.2278(3)
C20 C 1.0132(6) 0.6729(6) 0.2008(3)
C21 C 0.7376(6) 1.0565(6) 0.3161(3)
C22 C 0.8357(6) 1.0453(7) 0.4046(3)
C23 C 1.1181(7) 0.5553(6) 0.2015(3)
C24 C 0.9669(7) 0.5152(7) 0.1213(3)
C25 C 0.7539(7) 0.9724(7) 0.1120(3)
H7 H 0.7872 1.0575 0.1227
H8 H 0.6727 0.9319 0.1224
C26 C 0.7469(9) 0.9411(9) 0.0497(3)
H9 H 0.7108 0.8555 0.0397
H10 H 0.6931 0.9640 0.0297
C27 C 0.9386(9) 0.9613(9) 0.0611(3)
H11 H 1.0188 1.0017 0.0497
H12 H 0.9061 0.8763 0.0508
C28 C 0.9510(7) 0.9930(6) 0.1234(3)
H13 H 1.0040 0.9682 0.1426
H14 H 0.9881 1.0786 0.1341
C29 C 1.2857(6) 0.9985(7) 0.3565(3)
H15 H 1.2281 1.0204 0.3395
H16 H 1.3527 1.0218 0.3348
C30 C 1.3342(7) 1.0610(8) 0.4161(3)
H17 H 1.3749 1.1463 0.4169
H18 H 1.2668 1.0398 0.4374
C31 C 1.3609(8) 0.9065(8) 0.4389(3)
H19 H 1.2941 0.8815 0.4608
H20 H 1.4204 0.8869 0.4561
C32 C 1.3129(7) 0.8414(7) 0.3806(3)
H21 H 1.3796 0.8631 0.3588
H22 H 1.2741 0.7565 0.3807
C33 C 0.6917(8) 1.1178(7) 0.4045(3)
H23 H 0.6755 1.0867 0.4396
H24 H 0.6137 1.0955 0.3817
C34 C 1.0542(8) 0.3854(7) 0.1276(4)
H25 H 0.9747 0.3258 0.1062
H26 H 1.0735 0.3514 0.1584
C35 C 1.1480(9) 0.4134(8) 0.0901(4)
H27 H 1.2289 0.4712 0.1107
H28 H 1.1294 0.4453 0.0582
C36 C 1.143(2) 0.2967(13) 0.0700(10)
H29 H 1.1485 0.2596 0.1023
H30 H 1.0653 0.2433 0.0454
C37 C 1.2460(13) 0.3186(13) 0.0388(6)
H31 H 1.2162 0.2981 -0.0013
H32 H 1.2810 0.2706 0.0494
H33 H 1.3076 0.4011 0.0480
C38 C 0.7706(17) 1.2517(11) 0.4171(13)
H34 H 0.7984 1.2800 0.3826
H35 H 0.8426 1.2728 0.4444
C39 C 0.7042(18) 1.3147(19) 0.4404(7)
H36 H 0.6610 1.2740 0.4697
H37 H 0.7653 1.3951 0.4583
C40 C 0.6151(16) 1.3214(16) 0.3982(6)
H38 H 0.6587 1.3798 0.3753
H39 H 0.5636 1.3435 0.4175
H40 H 0.5652 1.2451 0.3744
H41? H 0.6827 1.0902 0.4407
H42? H 0.6098 1.0849 0.3832
H43? H 1.2271 0.4617 0.1143
H44? H 1.1382 0.4646 0.0659
C41? C 0.748(2) 1.2497(13) 0.4158(17)
H45? H 0.7641 1.2818 0.3809
H46? H 0.8243 1.2857 0.4422
C42? C 0.654(2) 1.2725(17) 0.4408(9)
H47? H 0.5749 1.2272 0.4166
H48? H 0.6464 1.2497 0.4780
C43? C 0.6996(19) 1.4019(17) 0.4450(9)
H49? H 0.6768 1.4181 0.4091
H50? H 0.7875 1.4447 0.4552
H51? H 0.6638 1.4266 0.4735
C44? C 1.159(4) 0.321(3) 0.0518(9)
H52? H 1.0792 0.2591 0.0321
H53? H 1.2111 0.3567 0.0240
C45? C 1.216(3) 0.273(3) 0.0902(12)
H54? H 1.2162 0.2058 0.0695
H55? H 1.1691 0.2481 0.1205
H56? H 1.2985 0.3331 0.1057
H97? H 1.0202 0.2721 0.3900
H98? H 1.0642 0.3738 0.4435
C86? C 1.2063(19) 0.346(3) 0.4220(13)
H99? H 1.2309 0.3281 0.3867
H100? H 1.2708 0.4229 0.4419
C87? C 1.190(3) 0.253(2) 0.4575(12)
H101? H 1.2521 0.2315 0.4539
H102? H 1.1101 0.1843 0.4449
H103? H 1.1960 0.2842 0.4964
loop_
_geom_bond_atom_site_label_1
_geom_bond_atom_site_label_2
_geom_bond_site_symmetry_1
_geom_bond_site_symmetry_2
S1 C21 1_555 1_555
S2 C22 1_555 1_555
S3 C23 1_555 1_555
S4 C24 1_555 1_555
O1 C26 1_555 1_555
O2 C30 1_555 1_555
N1 C21 1_555 1_555
N2 C23 1_555 1_555
N3 C1 1_555 1_555
N4 C7 1_555 1_555
C1 C2 1_555 1_555
C2 H1 1_555 1_555
C3 C2 1_555 1_555
C4 C5 1_555 1_555
C5 H2 1_555 1_555
C6 C5 1_555 1_555
H3 C6 1_555 1_555
C7 C8 1_555 1_555
C8 H4 1_555 1_555
C9 C8 1_555 1_555
C10 C11 1_555 1_555
C11 H5 1_555 1_555
C12 C11 1_555 1_555
H6 C12 1_555 1_555
C13 C12 1_555 1_555
C14 C1 1_555 1_555
C15 C14 1_555 1_555
C16 C3 1_555 1_555
C17 C6 1_555 1_555
C18 C7 1_555 1_555
C19 C13 1_555 1_555
C20 C9 1_555 1_555
C21 C3 1_555 1_555
C22 N1 1_555 1_555
C23 C9 1_555 1_555
C24 N2 1_555 1_555
C25 N3 1_555 1_555
H7 C25 1_555 1_555
H8 C25 1_555 1_555
C26 C25 1_555 1_555
H9 C26 1_555 1_555
H10 C26 1_555 1_555
C27 O1 1_555 1_555
H11 C27 1_555 1_555
H12 C27 1_555 1_555
C28 N3 1_555 1_555
H13 C28 1_555 1_555
H14 C28 1_555 1_555
C29 N4 1_555 1_555
H15 C29 1_555 1_555
H16 C29 1_555 1_555
C30 C29 1_555 1_555
H17 C30 1_555 1_555
H18 C30 1_555 1_555
C31 O2 1_555 1_555
H19 C31 1_555 1_555
H20 C31 1_555 1_555
C32 N4 1_555 1_555
H21 C32 1_555 1_555
H22 C32 1_555 1_555
C33 N1 1_555 1_555
H23 C33 1_555 1_555
H24 C33 1_555 1_555
C34 N2 1_555 1_555
H25 C34 1_555 1_555
H26 C34 1_555 1_555
C35 C34 1_555 1_555
H27 C35 1_555 1_555
H28 C35 1_555 1_555
C36 C35 1_555 1_555
H29 C36 1_555 1_555
H30 C36 1_555 1_555
C37 C36 1_555 1_555
H31 C37 1_555 1_555
H32 C37 1_555 1_555
H33 C37 1_555 1_555
C38 C33 1_555 1_555
H34 C38 1_555 1_555
H35 C38 1_555 1_555
C39 C38 1_555 1_555
H36 C39 1_555 1_555
H37 C39 1_555 1_555
C40 C39 1_555 1_555
H38 C40 1_555 1_555
H39 C40 1_555 1_555
H40 C40 1_555 1_555
S5 C66 1_555 1_555
S6 C67 1_555 1_555
S7 C68 1_555 1_555
S8 C69 1_555 1_555
O3 C71 1_555 1_555
O4 C75 1_555 1_555
N5 C66 1_555 1_555
N6 C68 1_555 1_555
N7 C46 1_555 1_555
N8 C52 1_555 1_555
C46 C47 1_555 1_555
C47 H57 1_555 1_555
C48 C47 1_555 1_555
C49 C50 1_555 1_555
C50 H58 1_555 1_555
C51 C50 1_555 1_555
H59 C51 1_555 1_555
C52 C53 1_555 1_555
C53 H60 1_555 1_555
C54 C53 1_555 1_555
C55 C56 1_555 1_555
C56 H61 1_555 1_555
C57 C56 1_555 1_555
H62 C57 1_555 1_555
C58 C57 1_555 1_555
C59 C46 1_555 1_555
C60 C59 1_555 1_555
C61 C48 1_555 1_555
C62 C51 1_555 1_555
C63 C52 1_555 1_555
C64 C58 1_555 1_555
C65 C54 1_555 1_555
C66 C48 1_555 1_555
C67 N5 1_555 1_555
C68 C54 1_555 1_555
C69 N6 1_555 1_555
C70 N7 1_555 1_555
H63 C70 1_555 1_555
H64 C70 1_555 1_555
C71 C70 1_555 1_555
H65 C71 1_555 1_555
H66 C71 1_555 1_555
C72 O3 1_555 1_555
H67 C72 1_555 1_555
H68 C72 1_555 1_555
C73 N7 1_555 1_555
H69 C73 1_555 1_555
H70 C73 1_555 1_555
C74 N8 1_555 1_555
H71 C74 1_555 1_555
H72 C74 1_555 1_555
C75 C74 1_555 1_555
H73 C75 1_555 1_555
H74 C75 1_555 1_555
C76 O4 1_555 1_555
H75 C76 1_555 1_555
H76 C76 1_555 1_555
C77 N8 1_555 1_555
H77 C77 1_555 1_555
H78 C77 1_555 1_555
C78 N5 1_555 1_555
H79 C78 1_555 1_555
H80 C78 1_555 1_555
C79 C78 1_555 1_555
H81 C79 1_555 1_555
H82 C79 1_555 1_555
C80 C79 1_555 1_555
H83 C80 1_555 1_555
H84 C80 1_555 1_555
C81 C80 1_555 1_555
H85 C81 1_555 1_555
H86 C81 1_555 1_555
H87 C81 1_555 1_555
C82 N6 1_555 1_555
H88 C82 1_555 1_555
H89 C82 1_555 1_555
C83 C82 1_555 1_555
H90 C83 1_555 1_555
H91 C83 1_555 1_555
C84 C83 1_555 1_555
H92 C84 1_555 1_555
H93 C84 1_555 1_555
C85 C84 1_555 1_555
H94 C85 1_555 1_555
H95 C85 1_555 1_555
H96 C85 1_555 1_555
C4 C16 1_555 1_555
C4 C22 1_555 1_555
C10 C20 1_555 1_555
C10 C24 1_555 1_555
C13 C14 1_555 1_555
C15 C16 1_555 1_555
C15 C17 1_555 1_555
C17 C18 1_555 1_555
C18 C19 1_555 1_555
C19 C20 1_555 1_555
C27 C28 1_555 1_555
C31 C32 1_555 1_555
C49 C61 1_555 1_555
C49 C67 1_555 1_555
C55 C65 1_555 1_555
C55 C69 1_555 1_555
C58 C59 1_555 1_555
C60 C61 1_555 1_555
C60 C62 1_555 1_555
C62 C63 1_555 1_555
C63 C64 1_555 1_555
C64 C65 1_555 1_555
C72 C73 1_555 1_555
C76 C77 1_555 1_555

#END
