
#######################################################################
#
#                 Cambridge Crystallographic Data Centre
#                                CCDC 
#
#######################################################################
#
# If this CIF has been generated from an entry in the Cambridge 
# Structural Database, then it will include bibliographic, chemical, 
# crystal, experimental, refinement or atomic coordinate data resulting 
# from the CCDC's data processing and validation procedures.
#
#######################################################################

data_SUWPUV
_chemical_formula_moiety         'C30 H40 Cl2 N4 O2'
_chemical_name_systematic        
(+)-1,4-bis((4\b-(4-chlorophenyl)-1-methylpiperidine-3\a-carbonyl)amino)butane
_chemical_properties_biological  
'some selectivity for the dopamine and norepinephrine transporters'
_symmetry_cell_setting           triclinic
_symmetry_space_group_name_H-M   'P 1'
_symmetry_Int_Tables_number      1
_space_group_name_Hall           'P 1'
loop_
_symmetry_equiv_pos_site_id
_symmetry_equiv_pos_as_xyz
1 x,y,z
_cell_length_a                   4.956(1)
_cell_length_b                   12.584(2)
_cell_length_c                   13.623(2)
_cell_angle_alpha                116.00(1)
_cell_angle_beta                 92.68(1)
_cell_angle_gamma                96.49(2)
_cell_volume                     754.311
_exptl_crystal_colour            colorless
_exptl_crystal_description       rod
_cell_formula_units_Z            1
loop_
_atom_site_label
_atom_site_type_symbol
_atom_site_fract_x
_atom_site_fract_y
_atom_site_fract_z
C1 C 0.8568(10) 0.0116(4) 0.2796(3)
H1 H 1.0490 0.0102 0.2658
C2 C 0.7610(11) 0.0873(4) 0.1382(4)
C3 C 0.6290(13) 0.1890(5) 0.1766(5)
H2 H 0.4975 0.1964 0.2249
C4 C 0.6898(15) 0.2780(6) 0.1445(5)
H3 H 0.6003 0.3447 0.1713
C5 C 0.8789(15) 0.2684(5) 0.0744(4)
Cl1 Cl 0.9590(6) 0.37937(16) 0.03341(15)
C6 C 1.0171(15) 0.1725(6) 0.0362(4)
H4 H 1.1502 0.1672 -0.0110
C7 C 0.9557(13) 0.0818(5) 0.0691(4)
H5 H 1.0500 0.0165 0.0431
C8 C 0.6862(11) -0.0082(4) 0.1747(4)
H6 H 0.4949 -0.0073 0.1899
C9 C 0.7103(16) -0.1355(5) 0.0862(4)
H7 H 0.5962 -0.1530 0.0195
H8 H 0.8979 -0.1391 0.0691
C10 C 0.6239(18) -0.2278(5) 0.1253(5)
H9 H 0.4345 -0.2261 0.1402
H10 H 0.6385 -0.3067 0.0682
N1 N 0.7937(13) -0.2049(4) 0.2240(4)
C11 C 0.7652(14) -0.0881(5) 0.3118(4)
H11 H 0.8749 -0.0746 0.3783
H12 H 0.5759 -0.0867 0.3269
C12 C 0.8303(10) 0.1330(4) 0.3754(4)
O1 O 0.6042(7) 0.1614(3) 0.3996(3)
N2 N 1.0592(8) 0.2005(3) 0.4273(3)
H13 H 1.2094 0.1735 0.4072
C13 C 1.0742(13) 0.3209(4) 0.5190(4)
H14 H 1.2528 0.3438 0.5607
H15 H 0.9386 0.3193 0.5675
C14 C 1.0260(12) 0.4138(4) 0.4795(4)
H16 H 0.8370 0.3978 0.4485
H17 H 1.0540 0.4921 0.5423
C15 C 0.717(3) -0.2985(6) 0.2591(7)
H18 H 0.8305 -0.2819 0.3247
H19 H 0.7413 -0.3748 0.2020
H20 H 0.5291 -0.2999 0.2734
C16 C 1.3459(10) 0.8278(4) 0.6106(3)
H21 H 1.5383 0.8169 0.6053
C17 C 1.2793(10) 0.8511(4) 0.7264(3)
H22 H 1.0877 0.8635 0.7308
C18 C 1.3116(11) 0.7514(4) 0.7567(3)
C19 C 1.5000(12) 0.6723(5) 0.7137(4)
H23 H 1.6122 0.6806 0.6639
C20 C 1.5220(14) 0.5821(5) 0.7442(4)
H24 H 1.6450 0.5290 0.7134
C21 C 1.3629(16) 0.5705(5) 0.8200(5)
Cl2 Cl 1.3962(6) 0.45842(16) 0.85850(15)
C22 C 1.1761(15) 0.6483(6) 0.8645(5)
H25 H 1.0658 0.6405 0.9150
C23 C 1.1561(13) 0.7374(5) 0.8330(4)
H26 H 1.0329 0.7903 0.8642
C24 C 1.4552(13) 0.9698(4) 0.8087(4)
H27 H 1.4034 0.9908 0.8820
H28 H 1.6460 0.9592 0.8092
C25 C 1.4192(17) 1.0704(5) 0.7790(4)
H29 H 1.2315 1.0855 0.7845
H30 H 1.5364 1.1427 0.8305
N3 N 1.4864(12) 1.0405(4) 0.6682(3)
C26 C 1.3045(14) 0.9345(4) 0.5893(4)
H31 H 1.3429 0.9179 0.5152
H32 H 1.1162 0.9484 0.5962
C27 C 1.1718(10) 0.7146(4) 0.5237(3)
O2 O 0.9215(7) 0.7012(3) 0.5193(3)
N4 N 1.3117(8) 0.6348(3) 0.4528(3)
H33 H 1.4863 0.6531 0.4591
C28 C 1.1883(12) 0.5198(4) 0.3663(4)
H34 H 1.2774 0.5045 0.3005
H35 H 0.9975 0.5227 0.3499
C29 C 1.2070(11) 0.4170(5) 0.3953(4)
H36 H 1.1610 0.3424 0.3288
H37 H 1.3948 0.4218 0.4223
C30 C 1.464(2) 1.1416(6) 0.6431(6)
H38 H 1.5023 1.1201 0.5689
H39 H 1.5924 1.2095 0.6926
H40 H 1.2821 1.1613 0.6515
loop_
_geom_bond_atom_site_label_1
_geom_bond_atom_site_label_2
_geom_bond_site_symmetry_1
_geom_bond_site_symmetry_2
C1 H1 1_555 1_555
C2 C3 1_555 1_555
C3 H2 1_555 1_555
C4 C3 1_555 1_555
H3 C4 1_555 1_555
C5 C4 1_555 1_555
Cl1 C5 1_555 1_555
C6 C5 1_555 1_555
H4 C6 1_555 1_555
C7 C2 1_555 1_555
H5 C7 1_555 1_555
C8 C1 1_555 1_555
H6 C8 1_555 1_555
C9 C8 1_555 1_555
H7 C9 1_555 1_555
H8 C9 1_555 1_555
C10 C9 1_555 1_555
H9 C10 1_555 1_555
H10 C10 1_555 1_555
N1 C10 1_555 1_555
C11 C1 1_555 1_555
H11 C11 1_555 1_555
H12 C11 1_555 1_555
C12 C1 1_555 1_555
O1 C12 1_555 1_555
N2 C12 1_555 1_555
H13 N2 1_555 1_555
C13 N2 1_555 1_555
H14 C13 1_555 1_555
H15 C13 1_555 1_555
C14 C13 1_555 1_555
H16 C14 1_555 1_555
H17 C14 1_555 1_555
C15 N1 1_555 1_555
H18 C15 1_555 1_555
H19 C15 1_555 1_555
H20 C15 1_555 1_555
C16 H21 1_555 1_555
C17 C16 1_555 1_555
H22 C17 1_555 1_555
C18 C17 1_555 1_555
C19 C18 1_555 1_555
H23 C19 1_555 1_555
C20 C19 1_555 1_555
H24 C20 1_555 1_555
C21 C20 1_555 1_555
Cl2 C21 1_555 1_555
C22 C21 1_555 1_555
H25 C22 1_555 1_555
C23 C18 1_555 1_555
H26 C23 1_555 1_555
C24 C17 1_555 1_555
H27 C24 1_555 1_555
H28 C24 1_555 1_555
C25 C24 1_555 1_555
H29 C25 1_555 1_555
H30 C25 1_555 1_555
N3 C25 1_555 1_555
C26 C16 1_555 1_555
H31 C26 1_555 1_555
H32 C26 1_555 1_555
C27 C16 1_555 1_555
O2 C27 1_555 1_555
N4 C27 1_555 1_555
H33 N4 1_555 1_555
C28 N4 1_555 1_555
H34 C28 1_555 1_555
H35 C28 1_555 1_555
C29 C14 1_555 1_555
H36 C29 1_555 1_555
H37 C29 1_555 1_555
C30 N3 1_555 1_555
H38 C30 1_555 1_555
H39 C30 1_555 1_555
H40 C30 1_555 1_555
C2 C8 1_555 1_555
C6 C7 1_555 1_555
N1 C11 1_555 1_555
C22 C23 1_555 1_555
N3 C26 1_555 1_555
C28 C29 1_555 1_555

#END
