
#######################################################################
#
#                 Cambridge Crystallographic Data Centre
#                                CCDC 
#
#######################################################################
#
# If this CIF has been generated from an entry in the Cambridge 
# Structural Database, then it will include bibliographic, chemical, 
# crystal, experimental, refinement or atomic coordinate data resulting 
# from the CCDC's data processing and validation procedures.
#
#######################################################################

data_SUWQOR
_chemical_formula_moiety         'C22 H20 N2 O3 S2'
_chemical_name_systematic        
N-(4-Phenyl-1-(phenylsulfonyl)-1,2,3,6-tetrahydropyridin-3-yl)thiophene-2-carboxamide
_symmetry_cell_setting           orthorhombic
_symmetry_space_group_name_H-M   'P n a 21'
_symmetry_Int_Tables_number      33
_space_group_name_Hall           'P 2c -2n'
loop_
_symmetry_equiv_pos_site_id
_symmetry_equiv_pos_as_xyz
1 x,y,z
2 -x,-y,1/2+z
3 1/2+x,1/2-y,z
4 1/2-x,1/2+y,1/2+z
_cell_length_a                   23.9556(11)
_cell_length_b                   14.6166(6)
_cell_length_c                   5.7887(3)
_cell_angle_alpha                90
_cell_angle_beta                 90
_cell_angle_gamma                90
_cell_volume                     2026.91
_exptl_crystal_colour            colorless
_cell_formula_units_Z            4
loop_
_atom_site_label
_atom_site_type_symbol
_atom_site_fract_x
_atom_site_fract_y
_atom_site_fract_z
C1 C 0.75835(9) 0.53816(15) 0.6170(4)
C2 C 0.75780(10) 0.45957(15) 0.7508(6)
H1 H 0.7755 0.4582 0.8937
C3 C 0.73037(12) 0.38340(18) 0.6676(7)
H2 H 0.7297 0.3300 0.7548
C4 C 0.70397(13) 0.3858(2) 0.4570(7)
H3 H 0.6852 0.3344 0.4034
C5 C 0.70521(12) 0.4639(2) 0.3254(6)
H4 H 0.6874 0.4648 0.1826
C6 C 0.73284(10) 0.54152(19) 0.4042(5)
H5 H 0.7341 0.5944 0.3151
C7 C 0.89106(9) 0.55647(16) 0.8025(4)
H6 H 0.8817 0.4958 0.7465
H7 H 0.8809 0.5599 0.9645
C8 C 0.95236(9) 0.57233(15) 0.7767(4)
H8 H 0.9760 0.5394 0.8733
C9 C 0.97583(9) 0.62946(13) 0.6274(4)
C10 C 0.93913(9) 0.67892(13) 0.4521(4)
H9 H 0.9569 0.6733 0.3002
C11 C 0.88108(9) 0.63534(14) 0.4365(4)
H10 H 0.8563 0.6741 0.3473
H11 H 0.8834 0.5762 0.3613
C12 C 1.03684(9) 0.64893(14) 0.6225(4)
C13 C 1.07124(11) 0.62203(19) 0.8039(5)
H12 H 1.0558 0.5913 0.9292
C14 C 1.12805(11) 0.64004(19) 0.8015(6)
H13 H 1.1502 0.6207 0.9242
C15 C 1.15186(11) 0.68578(18) 0.6211(6)
H14 H 1.1900 0.6975 0.6199
C16 C 1.11888(12) 0.71411(19) 0.4419(6)
H15 H 1.1347 0.7459 0.3193
C17 C 1.06168(10) 0.69578(18) 0.4412(5)
H16 H 1.0399 0.7152 0.3175
C18 C 0.92931(9) 0.83980(15) 0.3408(5)
C19 C 0.92702(9) 0.93540(14) 0.4238(4)
C20 C 0.94391(10) 0.97151(15) 0.6328(5)
H17 H 0.9582 0.9374 0.7548
C21 C 0.93644(13) 1.06874(18) 0.6360(6)
H18 H 0.9452 1.1054 0.7623
C22 C 0.91541(13) 1.10138(18) 0.4371(6)
H19 H 0.9081 1.1630 0.4109
N1 N 0.85993(7) 0.62489(12) 0.6724(3)
N2 N 0.93604(8) 0.77572(12) 0.5089(3)
H20 H 0.9385 0.7927 0.6508
O1 O 0.78767(8) 0.63870(12) 0.9661(3)
O2 O 0.77567(7) 0.71279(11) 0.5851(4)
O3 O 0.92723(9) 0.81952(12) 0.1362(3)
S1 S 0.79327(2) 0.63654(3) 0.72156(12)
S2 S 0.90359(3) 1.01848(4) 0.24000(14)
loop_
_geom_bond_atom_site_label_1
_geom_bond_atom_site_label_2
_geom_bond_site_symmetry_1
_geom_bond_site_symmetry_2
C1 C2 1_555 1_555
C2 H1 1_555 1_555
C3 C2 1_555 1_555
H2 C3 1_555 1_555
C4 C3 1_555 1_555
H3 C4 1_555 1_555
C5 C4 1_555 1_555
H4 C5 1_555 1_555
C6 C1 1_555 1_555
H5 C6 1_555 1_555
C7 H6 1_555 1_555
H7 C7 1_555 1_555
C8 C7 1_555 1_555
H8 C8 1_555 1_555
C9 C8 1_555 1_555
C10 C9 1_555 1_555
H9 C10 1_555 1_555
C11 C10 1_555 1_555
H10 C11 1_555 1_555
H11 C11 1_555 1_555
C12 C9 1_555 1_555
C13 C12 1_555 1_555
H12 C13 1_555 1_555
C14 C13 1_555 1_555
H13 C14 1_555 1_555
C15 C14 1_555 1_555
H14 C15 1_555 1_555
C16 C15 1_555 1_555
H15 C16 1_555 1_555
C17 C12 1_555 1_555
H16 C17 1_555 1_555
C18 C19 1_555 1_555
C19 C20 1_555 1_555
C20 H17 1_555 1_555
C21 C20 1_555 1_555
H18 C21 1_555 1_555
C22 C21 1_555 1_555
H19 C22 1_555 1_555
N1 C7 1_555 1_555
N2 C10 1_555 1_555
H20 N2 1_555 1_555
O1 S1 1_555 1_555
O2 S1 1_555 1_555
O3 C18 1_555 1_555
S1 C1 1_555 1_555
S2 C19 1_555 1_555
C5 C6 1_555 1_555
C11 N1 1_555 1_555
C16 C17 1_555 1_555
C18 N2 1_555 1_555
C22 S2 1_555 1_555
N1 S1 1_555 1_555

#END
