
#######################################################################
#
#                 Cambridge Crystallographic Data Centre
#                                CCDC 
#
#######################################################################
#
# If this CIF has been generated from an entry in the Cambridge 
# Structural Database, then it will include bibliographic, chemical, 
# crystal, experimental, refinement or atomic coordinate data resulting 
# from the CCDC's data processing and validation procedures.
#
#######################################################################

data_SUWQAD
_chemical_formula_moiety         'C21 H26 Br1 N1 O4 S1'
_chemical_name_systematic        
3-Bromo-4-(2-ethoxyethoxy)-4-phenyl-1-(phenylsulfonyl)piperidine
_symmetry_cell_setting           orthorhombic
_symmetry_space_group_name_H-M   'P b c a'
_symmetry_Int_Tables_number      61
_space_group_name_Hall           '-P 2ac 2ab'
loop_
_symmetry_equiv_pos_site_id
_symmetry_equiv_pos_as_xyz
1 x,y,z
2 1/2-x,-y,1/2+z
3 -x,1/2+y,1/2-z
4 1/2+x,1/2-y,-z
5 -x,-y,-z
6 1/2+x,y,1/2-z
7 x,1/2-y,1/2+z
8 1/2-x,1/2+y,z
_cell_length_a                   14.2710(18)
_cell_length_b                   10.7148(14)
_cell_length_c                   27.839(4)
_cell_angle_alpha                90
_cell_angle_beta                 90
_cell_angle_gamma                90
_cell_volume                     4256.89
_exptl_crystal_colour            colorless
_cell_formula_units_Z            8
loop_
_atom_site_label
_atom_site_type_symbol
_atom_site_fract_x
_atom_site_fract_y
_atom_site_fract_z
Br1 Br 0.206600(16) 0.80539(2) 0.266606(9)
C1 C 0.12561(15) 0.7862(2) 0.36041(9)
H1 H 0.1572 0.8678 0.3647
H2 H 0.0686 0.7857 0.3807
C2 C 0.09816(15) 0.7698(2) 0.30790(8)
H3 H 0.0482 0.8322 0.3003
C3 C 0.05895(15) 0.6382(2) 0.29676(8)
C4 C 0.12700(17) 0.5402(2) 0.31641(9)
H4 H 0.1000 0.4559 0.3117
H5 H 0.1866 0.5444 0.2983
C5 C 0.14662(17) 0.5602(2) 0.36944(9)
H6 H 0.0876 0.5547 0.3880
H7 H 0.1899 0.4950 0.3814
C6 C 0.16291(16) 0.7052(2) 0.47286(8)
C7 C 0.14031(16) 0.5941(2) 0.49591(9)
H8 H 0.1707 0.5185 0.4872
C8 C 0.07251(18) 0.5951(3) 0.53184(9)
H9 H 0.0569 0.5202 0.5482
C9 C 0.0279(2) 0.7059(3) 0.54365(10)
H10 H -0.0193 0.7061 0.5677
C10 C 0.0514(2) 0.8163(3) 0.52070(11)
H11 H 0.0207 0.8917 0.5294
C11 C 0.11965(19) 0.8174(2) 0.48503(9)
H12 H 0.1364 0.8929 0.4693
C12 C 0.03531(15) 0.6210(2) 0.24374(8)
C13 C -0.04503(18) 0.6790(2) 0.22527(9)
H13 H -0.0823 0.7300 0.2456
C14 C -0.07072(18) 0.6628(2) 0.17766(10)
H14 H -0.1259 0.7017 0.1659
C15 C -0.01676(17) 0.5906(2) 0.14715(9)
H15 H -0.0344 0.5799 0.1145
C16 C 0.06352(17) 0.5340(2) 0.16490(9)
H16 H 0.1014 0.4849 0.1442
C17 C 0.08894(16) 0.5483(2) 0.21272(9)
H17 H 0.1437 0.5080 0.2244
C18 C -0.07579(18) 0.5234(3) 0.32692(10)
H18 H -0.0442 0.4666 0.3498
H19 H -0.0765 0.4831 0.2949
C19 C -0.1743(2) 0.5491(3) 0.34328(12)
H20 H -0.2045 0.6084 0.3208
H21 H -0.2108 0.4705 0.3429
C20 C -0.1985(3) 0.7283(4) 0.39364(19)
H22 H -0.2674 0.7375 0.3956
H23 H -0.1766 0.7729 0.3646
C21 C -0.1542(4) 0.7843(5) 0.43729(19)
H24 H -0.1704 0.7343 0.4656
H25 H -0.1771 0.8698 0.4416
H26 H -0.0859 0.7854 0.4333
N1 N 0.18912(13) 0.68485(16) 0.37579(7)
O1 O 0.28875(11) 0.82591(15) 0.42422(6)
O2 O 0.30567(10) 0.59676(15) 0.43202(6)
O3 O -0.02653(11) 0.64064(15) 0.32453(6)
O4 O -0.17492(17) 0.5995(2) 0.38999(9)
S1 S 0.24678(4) 0.70430(5) 0.42639(2)
loop_
_geom_bond_atom_site_label_1
_geom_bond_atom_site_label_2
_geom_bond_site_symmetry_1
_geom_bond_site_symmetry_2
Br1 C2 1_555 1_555
C1 H1 1_555 1_555
H2 C1 1_555 1_555
C2 C1 1_555 1_555
H3 C2 1_555 1_555
C3 C2 1_555 1_555
C4 C3 1_555 1_555
H4 C4 1_555 1_555
H5 C4 1_555 1_555
C5 C4 1_555 1_555
H6 C5 1_555 1_555
H7 C5 1_555 1_555
C6 C7 1_555 1_555
C7 H8 1_555 1_555
C8 C7 1_555 1_555
H9 C8 1_555 1_555
C9 C8 1_555 1_555
H10 C9 1_555 1_555
C10 C9 1_555 1_555
H11 C10 1_555 1_555
C11 C6 1_555 1_555
H12 C11 1_555 1_555
C12 C3 1_555 1_555
C13 C12 1_555 1_555
H13 C13 1_555 1_555
C14 C13 1_555 1_555
H14 C14 1_555 1_555
C15 C14 1_555 1_555
H15 C15 1_555 1_555
C16 C15 1_555 1_555
H16 C16 1_555 1_555
C17 C12 1_555 1_555
H17 C17 1_555 1_555
C18 H18 1_555 1_555
H19 C18 1_555 1_555
C19 C18 1_555 1_555
H20 C19 1_555 1_555
H21 C19 1_555 1_555
C20 H22 1_555 1_555
H23 C20 1_555 1_555
C21 C20 1_555 1_555
H24 C21 1_555 1_555
H25 C21 1_555 1_555
H26 C21 1_555 1_555
N1 C1 1_555 1_555
O1 S1 1_555 1_555
O2 S1 1_555 1_555
O3 C3 1_555 1_555
O4 C19 1_555 1_555
S1 C6 1_555 1_555
C5 N1 1_555 1_555
C10 C11 1_555 1_555
C16 C17 1_555 1_555
C18 O3 1_555 1_555
C20 O4 1_555 1_555
N1 S1 1_555 1_555

#END
