
#######################################################################
#
#                 Cambridge Crystallographic Data Centre
#                                CCDC 
#
#######################################################################
#
# If this CIF has been generated from an entry in the Cambridge 
# Structural Database, then it will include bibliographic, chemical, 
# crystal, experimental, refinement or atomic coordinate data resulting 
# from the CCDC's data processing and validation procedures.
#
#######################################################################

data_SUWRAE
_chemical_formula_moiety         'C23 H22 N2 O4 S2'
_chemical_name_systematic        
N-(4-Phenyl-1-(phenylsulfonyl)-1,2,3,6-tetrahydropyridin-3-yl)benzenesulfonamide
_symmetry_cell_setting           monoclinic
_symmetry_space_group_name_H-M   'P 21/c'
_symmetry_Int_Tables_number      14
_space_group_name_Hall           '-P 2ybc'
loop_
_symmetry_equiv_pos_site_id
_symmetry_equiv_pos_as_xyz
1 x,y,z
2 -x,1/2+y,1/2-z
3 -x,-y,-z
4 x,1/2-y,1/2+z
_cell_length_a                   5.9298(8)
_cell_length_b                   23.751(3)
_cell_length_c                   15.4156(19)
_cell_angle_alpha                90
_cell_angle_beta                 97.154(2)
_cell_angle_gamma                90
_cell_volume                     2154.21
_exptl_crystal_colour            colorless
_cell_formula_units_Z            4
loop_
_atom_site_label
_atom_site_type_symbol
_atom_site_fract_x
_atom_site_fract_y
_atom_site_fract_z
C1 C -0.0771(3) 0.73218(8) 0.14720(12)
H1 H -0.2385 0.7281 0.1507
H2 H -0.0476 0.7196 0.0898
C2 C -0.0112(3) 0.79254(8) 0.15917(12)
H3 H -0.1034 0.8190 0.1276
C3 C 0.1687(3) 0.81184(7) 0.21130(11)
C4 C 0.3291(3) 0.76969(7) 0.26083(11)
H4 H 0.4848 0.7813 0.2544
C5 C 0.2952(3) 0.71047(7) 0.22361(11)
H5 H 0.3499 0.7084 0.1670
H6 H 0.3798 0.6836 0.2623
C6 C 0.2215(3) 0.87299(7) 0.21996(11)
C7 C 0.0559(4) 0.91321(8) 0.19458(14)
H7 H -0.0918 0.9016 0.1758
C8 C 0.1057(4) 0.97026(9) 0.19656(16)
H8 H -0.0077 0.9962 0.1784
C9 C 0.3221(4) 0.98859(9) 0.22528(14)
H9 H 0.3564 1.0268 0.2259
C10 C 0.4872(4) 0.94972(9) 0.25301(15)
H10 H 0.6332 0.9618 0.2737
C11 C 0.4378(4) 0.89258(8) 0.25046(13)
H11 H 0.5517 0.8669 0.2695
C12 C 0.5527(3) 0.69233(8) 0.45054(12)
C13 C 0.7364(4) 0.66577(10) 0.42202(14)
H12 H 0.8346 0.6857 0.3908
C14 C 0.7739(4) 0.60921(11) 0.44010(16)
H13 H 0.8973 0.5910 0.4208
C15 C 0.6301(5) 0.58022(10) 0.48605(15)
H14 H 0.6567 0.5423 0.4985
C16 C 0.4460(5) 0.60654(11) 0.51418(16)
H15 H 0.3474 0.5863 0.5448
C17 C 0.4072(4) 0.66282(10) 0.49708(15)
H16 H 0.2839 0.6808 0.5167
C18 C 0.0491(3) 0.60231(7) 0.11351(12)
C19 C 0.2599(3) 0.57881(9) 0.10966(16)
H17 H 0.3650 0.5761 0.1596
C20 C 0.3122(5) 0.55923(11) 0.0297(2)
H18 H 0.4533 0.5430 0.0259
C21 C 0.1573(6) 0.56373(12) -0.04342(19)
H19 H 0.1935 0.5502 -0.0966
C22 C -0.0495(5) 0.58785(11) -0.03924(16)
H20 H -0.1524 0.5912 -0.0897
C23 C -0.1069(4) 0.60732(9) 0.03913(14)
H21 H -0.2483 0.6236 0.0422
N1 N 0.0522(2) 0.69711(6) 0.21486(9)
N2 N 0.3017(3) 0.77322(7) 0.35389(10)
H22 H 0.1684 0.7799 0.3680
O1 O -0.2589(2) 0.62855(6) 0.21167(10)
O2 O 0.1255(3) 0.60390(6) 0.28290(9)
O3 O 0.7119(3) 0.78609(7) 0.40011(11)
O4 O 0.4335(4) 0.78813(7) 0.50785(10)
S1 S -0.01750(8) 0.629983(19) 0.21284(3)
S2 S 0.50965(10) 0.76517(2) 0.43130(3)
loop_
_geom_bond_atom_site_label_1
_geom_bond_atom_site_label_2
_geom_bond_site_symmetry_1
_geom_bond_site_symmetry_2
C1 H1 1_555 1_555
H2 C1 1_555 1_555
C2 C1 1_555 1_555
H3 C2 1_555 1_555
C3 C2 1_555 1_555
C4 C3 1_555 1_555
H4 C4 1_555 1_555
C5 C4 1_555 1_555
H5 C5 1_555 1_555
H6 C5 1_555 1_555
C6 C3 1_555 1_555
C7 C6 1_555 1_555
H7 C7 1_555 1_555
C8 C7 1_555 1_555
H8 C8 1_555 1_555
C9 C8 1_555 1_555
H9 C9 1_555 1_555
C10 C9 1_555 1_555
H10 C10 1_555 1_555
C11 C6 1_555 1_555
H11 C11 1_555 1_555
C12 C13 1_555 1_555
C13 H12 1_555 1_555
C14 C13 1_555 1_555
H13 C14 1_555 1_555
C15 C14 1_555 1_555
H14 C15 1_555 1_555
C16 C15 1_555 1_555
H15 C16 1_555 1_555
C17 C12 1_555 1_555
H16 C17 1_555 1_555
C18 C19 1_555 1_555
C19 H17 1_555 1_555
C20 C19 1_555 1_555
H18 C20 1_555 1_555
C21 C20 1_555 1_555
H19 C21 1_555 1_555
C22 C21 1_555 1_555
H20 C22 1_555 1_555
C23 C18 1_555 1_555
H21 C23 1_555 1_555
N1 C1 1_555 1_555
N2 C4 1_555 1_555
H22 N2 1_555 1_555
O1 S1 1_555 1_555
O2 S1 1_555 1_555
O3 S2 1_555 1_555
O4 S2 1_555 1_555
S1 C18 1_555 1_555
S2 C12 1_555 1_555
C5 N1 1_555 1_555
C10 C11 1_555 1_555
C16 C17 1_555 1_555
C22 C23 1_555 1_555
N1 S1 1_555 1_555
N2 S2 1_555 1_555

#END
