
#######################################################################
#
#                 Cambridge Crystallographic Data Centre
#                                CCDC 
#
#######################################################################
#
# If this CIF has been generated from an entry in the Cambridge 
# Structural Database, then it will include bibliographic, chemical, 
# crystal, experimental, refinement or atomic coordinate data resulting 
# from the CCDC's data processing and validation procedures.
#
#######################################################################

data_SUWTIO
_chemical_formula_moiety         'C34 H39 N1 O5 S1'
_chemical_name_systematic        
'(4S,5R)-Methyl 5-benzoyl-4-phenyl-1-((2,4,6-triisopropylphenyl)sulfonyl)-4,5-dihydro-1H-pyrrole-2-carboxylate'
_symmetry_cell_setting           monoclinic
_symmetry_space_group_name_H-M   'P 21'
_symmetry_Int_Tables_number      4
_space_group_name_Hall           'P 2yb'
loop_
_symmetry_equiv_pos_site_id
_symmetry_equiv_pos_as_xyz
1 x,y,z
2 -x,1/2+y,-z
_cell_length_a                   9.028(3)
_cell_length_b                   9.616(3)
_cell_length_c                   18.213(6)
_cell_angle_alpha                90
_cell_angle_beta                 95.622(5)
_cell_angle_gamma                90
_cell_volume                     1573.52
_exptl_crystal_colour            purple
_exptl_crystal_description       block
_cell_formula_units_Z            2
loop_
_atom_site_label
_atom_site_type_symbol
_atom_site_fract_x
_atom_site_fract_y
_atom_site_fract_z
C1 C 0.4673(3) 0.0244(3) 0.27393(14)
C2 C 0.4846(3) 0.0265(3) 0.19872(15)
C3 C 0.5816(4) -0.0710(4) 0.17335(18)
H1 H 0.5962 -0.0711 0.1235
C4 C 0.6574(3) -0.1682(4) 0.21930(18)
C5 C 0.6360(3) -0.1663(3) 0.29201(17)
H2 H 0.6861 -0.2317 0.3228
C6 C 0.5437(3) -0.0726(3) 0.32301(16)
C7 C 0.4068(4) 0.1244(4) 0.14093(16)
H3 H 0.3381 0.1823 0.1661
C8 C 0.3145(6) 0.0429(6) 0.0818(2)
H4 H 0.2521 0.1056 0.0516
H5 H 0.2537 -0.0231 0.1045
H6 H 0.3793 -0.0053 0.0516
C9 C 0.5200(6) 0.2220(6) 0.1104(3)
H7 H 0.5733 0.2717 0.1504
H8 H 0.4688 0.2869 0.0768
H9 H 0.5887 0.1685 0.0849
C10 C 0.7599(5) -0.2761(5) 0.1904(2)
H10 H 0.8248 -0.3083 0.2333
C11 C 0.6750(7) -0.4029(6) 0.1602(4)
H11 H 0.6113 -0.4355 0.1957
H12 H 0.7440 -0.4748 0.1503
H13 H 0.6158 -0.3786 0.1153
C12 C 0.8603(5) -0.2199(6) 0.1374(3)
H14 H 0.8027 -0.1957 0.0920
H15 H 0.9326 -0.2891 0.1279
H16 H 0.9102 -0.1386 0.1580
C13 C 0.5363(4) -0.0829(4) 0.40623(18)
H17 H 0.4379 -0.0488 0.4160
C14 C 0.5482(9) -0.2303(7) 0.4344(3)
H18 H 0.6497 -0.2608 0.4359
H19 H 0.4861 -0.2897 0.4022
H20 H 0.5164 -0.2341 0.4832
C15 C 0.6479(6) 0.0116(8) 0.4461(2)
H21 H 0.6299 0.0169 0.4971
H22 H 0.6393 0.1027 0.4245
H23 H 0.7462 -0.0239 0.4423
C16 C 0.0887(3) 0.0150(3) 0.29297(13)
C17 C -0.0456(4) 0.0606(3) 0.30366(17)
H24 H -0.1180 0.0058 0.3224
C18 C -0.0684(3) 0.2091(3) 0.28248(15)
H25 H -0.1492 0.2149 0.2425
C19 C 0.0807(3) 0.2468(3) 0.25095(12)
H26 H 0.1281 0.3273 0.2766
C20 C 0.1387(4) -0.1298(3) 0.30227(19)
C21 C 0.0844(7) -0.3415(5) 0.3599(3)
H27 H 0.0873 -0.3874 0.3132
H28 H 0.0072 -0.3817 0.3857
H29 H 0.1785 -0.3527 0.3887
C22 C 0.0525(3) 0.2735(3) 0.16688(14)
C23 C 0.1132(4) 0.3973(4) 0.13274(15)
C24 C 0.0737(6) 0.4151(5) 0.05667(19)
H30 H 0.0118 0.3510 0.0306
C25 C 0.1269(8) 0.5266(6) 0.0214(2)
H31 H 0.1028 0.5374 -0.0291
C26 C 0.2150(7) 0.6227(6) 0.0595(3)
H32 H 0.2481 0.6999 0.0350
C27 C 0.2550(5) 0.6063(4) 0.1335(3)
H33 H 0.3168 0.6712 0.1589
C28 C 0.2038(4) 0.4936(4) 0.17031(18)
H34 H 0.2305 0.4827 0.2206
C29 C -0.1092(3) 0.2961(3) 0.34638(16)
C30 C -0.2495(4) 0.3551(4) 0.3441(2)
H35 H -0.3155 0.3467 0.3018
C31 C -0.2911(5) 0.4255(5) 0.4037(3)
H36 H -0.3860 0.4637 0.4017
C32 C -0.1964(6) 0.4411(4) 0.4661(3)
H37 H -0.2256 0.4913 0.5058
C33 C -0.0594(5) 0.3827(5) 0.4697(2)
H38 H 0.0053 0.3920 0.5124
C34 C -0.0148(4) 0.3092(4) 0.41019(16)
H39 H 0.0791 0.2687 0.4133
N1 N 0.1768(2) 0.1196(2) 0.26159(11)
O1 O 0.3347(2) 0.1363(3) 0.38420(10)
O2 O 0.3888(2) 0.2849(2) 0.28296(14)
O3 O 0.2326(3) -0.1836(3) 0.2714(2)
O4 O 0.0547(4) -0.1955(3) 0.34780(16)
O5 O -0.0254(4) 0.1902(3) 0.13152(12)
S1 S 0.34653(6) 0.15213(7) 0.30743(3)
loop_
_geom_bond_atom_site_label_1
_geom_bond_atom_site_label_2
_geom_bond_site_symmetry_1
_geom_bond_site_symmetry_2
C1 C2 1_555 1_555
C2 C3 1_555 1_555
C3 H1 1_555 1_555
C4 C3 1_555 1_555
C5 C4 1_555 1_555
H2 C5 1_555 1_555
C6 C1 1_555 1_555
C7 C2 1_555 1_555
H3 C7 1_555 1_555
C8 C7 1_555 1_555
H4 C8 1_555 1_555
H5 C8 1_555 1_555
H6 C8 1_555 1_555
C9 C7 1_555 1_555
H7 C9 1_555 1_555
H8 C9 1_555 1_555
H9 C9 1_555 1_555
C10 C4 1_555 1_555
H10 C10 1_555 1_555
C11 C10 1_555 1_555
H11 C11 1_555 1_555
H12 C11 1_555 1_555
H13 C11 1_555 1_555
C12 C10 1_555 1_555
H14 C12 1_555 1_555
H15 C12 1_555 1_555
H16 C12 1_555 1_555
C13 C6 1_555 1_555
H17 C13 1_555 1_555
C14 C13 1_555 1_555
H18 C14 1_555 1_555
H19 C14 1_555 1_555
H20 C14 1_555 1_555
C15 C13 1_555 1_555
H21 C15 1_555 1_555
H22 C15 1_555 1_555
H23 C15 1_555 1_555
C16 C17 1_555 1_555
C17 H24 1_555 1_555
C18 C17 1_555 1_555
H25 C18 1_555 1_555
C19 C18 1_555 1_555
H26 C19 1_555 1_555
C20 C16 1_555 1_555
C21 H27 1_555 1_555
H28 C21 1_555 1_555
H29 C21 1_555 1_555
C22 C19 1_555 1_555
C23 C22 1_555 1_555
C24 C23 1_555 1_555
H30 C24 1_555 1_555
C25 C24 1_555 1_555
H31 C25 1_555 1_555
C26 C25 1_555 1_555
H32 C26 1_555 1_555
C27 C26 1_555 1_555
H33 C27 1_555 1_555
C28 C23 1_555 1_555
H34 C28 1_555 1_555
C29 C18 1_555 1_555
C30 C29 1_555 1_555
H35 C30 1_555 1_555
C31 C30 1_555 1_555
H36 C31 1_555 1_555
C32 C31 1_555 1_555
H37 C32 1_555 1_555
C33 C32 1_555 1_555
H38 C33 1_555 1_555
C34 C29 1_555 1_555
H39 C34 1_555 1_555
N1 C16 1_555 1_555
O1 S1 1_555 1_555
O2 S1 1_555 1_555
O3 C20 1_555 1_555
O4 C20 1_555 1_555
O5 C22 1_555 1_555
S1 C1 1_555 1_555
C5 C6 1_555 1_555
C19 N1 1_555 1_555
C21 O4 1_555 1_555
C27 C28 1_555 1_555
C33 C34 1_555 1_555
N1 S1 1_555 1_555

#END
