
#######################################################################
#
#                 Cambridge Crystallographic Data Centre
#                                CCDC 
#
#######################################################################
#
# If this CIF has been generated from an entry in the Cambridge 
# Structural Database, then it will include bibliographic, chemical, 
# crystal, experimental, refinement or atomic coordinate data resulting 
# from the CCDC's data processing and validation procedures.
#
#######################################################################

data_SUXBUJ
_chemical_formula_moiety         'C36 H32 N2,C4 H8 O1'
_chemical_name_systematic        
"4,4'-((4,5,6,7,11,12,14,15-Octadehydro-1,2,3,8,9,10-hexahydro-13H-dicyclopenta[a,g]cyclotridecen-13-ylidene)methylene)bis(N,N-dimethylaniline) tetrahydrofuran solvate"
_symmetry_cell_setting           orthorhombic
_symmetry_space_group_name_H-M   'P b c n'
_symmetry_Int_Tables_number      60
_space_group_name_Hall           '-P 2n 2ab'
loop_
_symmetry_equiv_pos_site_id
_symmetry_equiv_pos_as_xyz
1 x,y,z
2 1/2-x,1/2-y,1/2+z
3 1/2+x,1/2-y,-z
4 -x,y,1/2-z
5 -x,-y,-z
6 1/2+x,1/2+y,1/2-z
7 1/2-x,1/2+y,z
8 x,-y,1/2+z
_cell_length_a                   32.7508(6)
_cell_length_b                   12.5342(2)
_cell_length_c                   15.0546(3)
_cell_angle_alpha                90
_cell_angle_beta                 90
_cell_angle_gamma                90
_cell_volume                     6179.99
_exptl_crystal_colour            'dark red'
_exptl_crystal_description       plate
_cell_formula_units_Z            8
loop_
_atom_site_label
_atom_site_type_symbol
_atom_site_fract_x
_atom_site_fract_y
_atom_site_fract_z
N1 N 0.62013(7) -0.09464(17) 0.35156(13)
N2 N 0.47100(6) 0.47711(16) 0.64709(14)
C1 C 0.65899(6) 0.30206(15) 0.61857(13)
C2 C 0.69721(6) 0.25349(16) 0.59557(13)
C3 C 0.72968(7) 0.21411(16) 0.57526(13)
C4 C 0.76755(6) 0.16887(16) 0.55071(13)
C5 C 0.77259(7) 0.06585(19) 0.50007(16)
C6 C 0.81837(7) 0.06380(19) 0.47819(16)
C7 C 0.83914(7) 0.14182(17) 0.54262(15)
C8 C 0.80429(7) 0.21029(16) 0.57402(13)
C9 C 0.80635(6) 0.30290(17) 0.62735(14)
C10 C 0.79754(7) 0.38010(17) 0.67191(14)
C11 C 0.77942(7) 0.46045(17) 0.71906(14)
C12 C 0.75650(7) 0.52257(16) 0.75407(14)
C13 C 0.72398(6) 0.58600(16) 0.78671(13)
C14 C 0.72825(7) 0.68854(18) 0.83810(16)
C15 C 0.68433(7) 0.71880(19) 0.86092(16)
C16 C 0.65610(7) 0.64312(18) 0.80906(15)
C17 C 0.68446(6) 0.55992(16) 0.77105(12)
C18 C 0.67189(6) 0.46872(16) 0.72167(13)
C19 C 0.66297(6) 0.39299(16) 0.67634(13)
C20 C 0.62225(6) 0.26477(16) 0.58419(13)
C21 C 0.62072(6) 0.16817(16) 0.52814(13)
C22 C 0.59623(7) 0.16698(17) 0.45186(13)
C23 C 0.59626(7) 0.08233(18) 0.39282(14)
C24 C 0.62088(7) -0.00799(17) 0.40825(14)
C25 C 0.64464(7) -0.00839(17) 0.48587(15)
C26 C 0.64442(7) 0.07712(16) 0.54385(14)
C27 C 0.59460(11) -0.0915(3) 0.2736(2)
C28 C 0.65386(9) -0.1688(2) 0.34822(19)
C29 C 0.58341(6) 0.32155(16) 0.59864(12)
C30 C 0.54726(7) 0.26396(17) 0.61371(13)
C31 C 0.51030(7) 0.31462(18) 0.62975(14)
C32 C 0.50719(7) 0.42594(17) 0.62937(13)
C33 C 0.54295(7) 0.48384(18) 0.60933(14)
C34 C 0.57983(7) 0.43234(17) 0.59570(14)
C35 C 0.43356(8) 0.4161(2) 0.6589(2)
C36 C 0.46782(9) 0.5917(2) 0.6381(2)
H9 H 0.7549(8) 0.0595(18) 0.4441(16)
H10 H 0.7653(7) 0.0074(18) 0.5437(16)
H11 H 0.8225(7) 0.0872(18) 0.4154(16)
H12 H 0.8316(8) -0.008(2) 0.4815(17)
H13 H 0.8624(7) 0.1861(18) 0.5150(15)
H14 H 0.8513(8) 0.108(2) 0.5931(17)
H15 H 0.7455(7) 0.6810(18) 0.8906(15)
H16 H 0.7420(7) 0.7426(18) 0.7989(15)
H17 H 0.6793(8) 0.792(2) 0.8489(16)
H18 H 0.6801(8) 0.710(2) 0.9249(17)
H19 H 0.6421(7) 0.6769(19) 0.7568(17)
H20 H 0.6351(8) 0.6077(19) 0.8462(16)
H21 H 0.5786(8) 0.228(2) 0.4349(16)
H22 H 0.5801(7) 0.0901(16) 0.3420(15)
H23 H 0.6640(8) -0.0736(19) 0.4957(17)
H24 H 0.6594(6) 0.0688(15) 0.5965(14)
H25 H 0.6025(9) -0.033(2) 0.231(2)
H26 H 0.5955(9) -0.163(2) 0.2452(19)
H27 H 0.5637(11) -0.068(3) 0.283(2)
H28 H 0.6450(10) -0.239(3) 0.315(3)
H29 H 0.6750(13) -0.147(3) 0.308(3)
H30 H 0.6612(11) -0.190(3) 0.405(2)
H31 H 0.5479(6) 0.1861(18) 0.6152(13)
H32 H 0.4862(7) 0.2676(18) 0.6421(14)
H33 H 0.5428(7) 0.5618(19) 0.6052(14)
H34 H 0.6043(7) 0.4753(18) 0.5781(14)
H35 H 0.4368(8) 0.362(2) 0.7100(18)
H36 H 0.4230(11) 0.381(3) 0.603(2)
H37 H 0.4114(10) 0.463(2) 0.685(2)
H38 H 0.4719(10) 0.618(3) 0.575(2)
H39 H 0.4413(11) 0.611(3) 0.667(2)
H40 H 0.4901(9) 0.635(2) 0.6715(19)
O1 O 0.54710(7) -0.1499(2) 0.69285(15)
C37 C 0.53145(11) -0.1051(3) 0.5478(2)
C38 C 0.56001(8) -0.1998(2) 0.54656(18)
C39 C 0.57651(9) -0.1997(3) 0.6399(2)
C40 C 0.51874(13) -0.0970(4) 0.6395(2)
H1 H 0.5470 -0.0334 0.5268
H2 H 0.5056 -0.1184 0.5048
H3 H 0.5438 -0.2728 0.5322
H4 H 0.5841 -0.1892 0.4984
H5 H 0.5817 -0.2803 0.6625
H6 H 0.6050 -0.1565 0.6429
H7 H 0.5168 -0.0142 0.6588
H8 H 0.4889 -0.1326 0.6477
loop_
_geom_bond_atom_site_label_1
_geom_bond_atom_site_label_2
_geom_bond_site_symmetry_1
_geom_bond_site_symmetry_2
N1 C24 1_555 1_555
N2 C32 1_555 1_555
O1 C39 1_555 1_555
C1 C2 1_555 1_555
C2 C3 1_555 1_555
C3 C4 1_555 1_555
C4 C5 1_555 1_555
C5 C6 1_555 1_555
C6 C7 1_555 1_555
C7 C8 1_555 1_555
C8 C4 1_555 1_555
C9 C8 1_555 1_555
C10 C9 1_555 1_555
C11 C10 1_555 1_555
C12 C11 1_555 1_555
C13 C12 1_555 1_555
C14 C13 1_555 1_555
C15 C14 1_555 1_555
C16 C15 1_555 1_555
C17 C13 1_555 1_555
C18 C17 1_555 1_555
C19 C1 1_555 1_555
C20 C1 1_555 1_555
C21 C20 1_555 1_555
C22 C21 1_555 1_555
C23 C22 1_555 1_555
C24 C23 1_555 1_555
C25 C24 1_555 1_555
C26 C21 1_555 1_555
C27 N1 1_555 1_555
C28 N1 1_555 1_555
C29 C20 1_555 1_555
C30 C29 1_555 1_555
C31 C30 1_555 1_555
C32 C31 1_555 1_555
C33 C32 1_555 1_555
C34 C29 1_555 1_555
C35 N2 1_555 1_555
C36 N2 1_555 1_555
C37 C38 1_555 1_555
C38 C39 1_555 1_555
C39 H5 1_555 1_555
C40 O1 1_555 1_555
H1 C37 1_555 1_555
H2 C37 1_555 1_555
H3 C38 1_555 1_555
H4 C38 1_555 1_555
H6 C39 1_555 1_555
H7 C40 1_555 1_555
H8 C40 1_555 1_555
H9 C5 1_555 1_555
H10 C5 1_555 1_555
H11 C6 1_555 1_555
H12 C6 1_555 1_555
H13 C7 1_555 1_555
H14 C7 1_555 1_555
H15 C14 1_555 1_555
H16 C14 1_555 1_555
H17 C15 1_555 1_555
H18 C15 1_555 1_555
H19 C16 1_555 1_555
H20 C16 1_555 1_555
H21 C22 1_555 1_555
H22 C23 1_555 1_555
H23 C25 1_555 1_555
H24 C26 1_555 1_555
H25 C27 1_555 1_555
H26 C27 1_555 1_555
H27 C27 1_555 1_555
H28 C28 1_555 1_555
H29 C28 1_555 1_555
H30 C28 1_555 1_555
H31 C30 1_555 1_555
H32 C31 1_555 1_555
H33 C33 1_555 1_555
H34 C34 1_555 1_555
H35 C35 1_555 1_555
H36 C35 1_555 1_555
H37 C35 1_555 1_555
H38 C36 1_555 1_555
H39 C36 1_555 1_555
H40 C36 1_555 1_555
C16 C17 1_555 1_555
C18 C19 1_555 1_555
C25 C26 1_555 1_555
C33 C34 1_555 1_555
C37 C40 1_555 1_555

#END
