
#######################################################################
#
#                 Cambridge Crystallographic Data Centre
#                                CCDC 
#
#######################################################################
#
# If this CIF has been generated from an entry in the Cambridge 
# Structural Database, then it will include bibliographic, chemical, 
# crystal, experimental, refinement or atomic coordinate data resulting 
# from the CCDC's data processing and validation procedures.
#
#######################################################################

data_SUXBIX
_chemical_formula_moiety         'C62 H64 N4 O4,2.5(C1 H1 Cl3)'
_chemical_name_systematic        
"4,4'-((14-(bis(4-nitrophenyl)methylene)-4,5,7,8,12,13,15,16-octadehydro-2,3,9,10,11,14-hexahydrodicyclopenta(a,h)cyclotetradecen-6-ylidene)methylene)-bis(N,N-dibutylaniline) chloroform solvate"
_symmetry_cell_setting           triclinic
_symmetry_space_group_name_H-M   'P -1'
_symmetry_Int_Tables_number      2
_space_group_name_Hall           '-P 1'
loop_
_symmetry_equiv_pos_site_id
_symmetry_equiv_pos_as_xyz
1 x,y,z
2 -x,-y,-z
_cell_length_a                   10.2879(3)
_cell_length_b                   14.0169(3)
_cell_length_c                   22.1651(8)
_cell_angle_alpha                81.7157(8)
_cell_angle_beta                 78.2439(13)
_cell_angle_gamma                81.6699(14)
_cell_volume                     3074.51
_exptl_crystal_colour            amber
_exptl_crystal_description       plate
_cell_formula_units_Z            2
loop_
_atom_site_label
_atom_site_type_symbol
_atom_site_fract_x
_atom_site_fract_y
_atom_site_fract_z
Cl1 Cl 0.69195(17) 0.13355(10) 0.50792(9)
Cl2 Cl 0.89606(17) 0.02469(12) 0.56925(8)
Cl3 Cl 0.6729(2) -0.06852(12) 0.55570(12)
C63 C 0.7786(6) 0.0187(4) 0.5214(3)
H65 H 0.8330 -0.0027 0.4775
Cl4 Cl 0.8735(2) 0.17924(17) 0.14594(11)
Cl5 Cl 0.61097(18) 0.12892(13) 0.20065(10)
Cl6 Cl 0.8372(2) -0.01755(13) 0.20066(12)
C64 C 0.7814(7) 0.1060(5) 0.2025(4)
H66 H 0.7937 0.1241 0.2466
O1 O 0.1806(4) 0.0512(2) 0.61040(18)
O2 O 0.3268(4) -0.0419(2) 0.6566(2)
O3 O 0.7385(4) 0.4812(3) 0.86189(18)
O4 O 0.5405(5) 0.4450(4) 0.9015(2)
N1 N 0.2835(4) 0.0374(3) 0.6325(2)
N2 N 0.6321(5) 0.4557(3) 0.8574(2)
N3 N 0.7948(4) 0.5522(2) 0.03308(18)
N4 N 1.2611(4) 0.9443(2) 0.21912(19)
C1 C 0.6215(4) 0.4089(3) 0.5668(2)
C2 C 0.6024(4) 0.3828(3) 0.5091(2)
C3 C 0.5929(4) 0.3677(3) 0.4583(2)
C4 C 0.5723(4) 0.3465(3) 0.4009(2)
C5 C 0.4824(5) 0.2727(3) 0.3950(2)
C6 C 0.4638(5) 0.2960(4) 0.3280(2)
C7 C 0.5855(5) 0.3458(3) 0.2932(2)
C8 C 0.6303(4) 0.3868(3) 0.3446(2)
C9 C 0.7220(4) 0.4558(3) 0.3326(2)
C10 C 0.8000(4) 0.5160(3) 0.32039(19)
C11 C 0.8870(4) 0.5886(3) 0.3120(2)
C12 C 0.9232(4) 0.6043(3) 0.3686(2)
C13 C 0.9377(4) 0.6153(3) 0.4193(2)
C14 C 0.9496(4) 0.6410(3) 0.47744(19)
C15 C 1.0391(4) 0.7151(3) 0.4831(2)
C16 C 1.0367(6) 0.7060(4) 0.5521(3)
C17 C 0.9163(4) 0.6550(3) 0.5852(2)
C18 C 0.8812(4) 0.6091(3) 0.5335(2)
C19 C 0.7852(4) 0.5423(3) 0.5447(2)
C20 C 0.7053(4) 0.4848(3) 0.5581(2)
C21 C 0.5714(4) 0.3610(3) 0.6236(2)
C22 C 0.4927(4) 0.2782(3) 0.6256(2)
C23 C 0.3900(4) 0.2853(3) 0.5925(2)
C24 C 0.3210(4) 0.2060(3) 0.5941(2)
C25 C 0.3570(4) 0.1208(3) 0.6295(2)
C26 C 0.4574(5) 0.1115(3) 0.6646(2)
C27 C 0.5233(5) 0.1907(3) 0.6628(2)
C28 C 0.5912(4) 0.3857(3) 0.68304(19)
C29 C 0.7077(4) 0.4183(3) 0.6909(2)
C30 C 0.7221(4) 0.4425(3) 0.7468(2)
C31 C 0.6161(5) 0.4327(3) 0.7973(2)
C32 C 0.4983(5) 0.3991(3) 0.7920(2)
C33 C 0.4873(4) 0.3756(3) 0.7355(2)
C34 C 0.9273(4) 0.6407(3) 0.2546(2)
C35 C 0.8903(4) 0.6158(3) 0.1986(2)
C36 C 0.9031(4) 0.5199(3) 0.1841(2)
C37 C 0.8727(4) 0.4993(3) 0.1301(2)
C38 C 0.8242(4) 0.5723(3) 0.0866(2)
C39 C 0.8100(4) 0.6686(3) 0.1016(2)
C40 C 0.8442(4) 0.6887(3) 0.1551(2)
C41 C 0.8328(5) 0.4569(3) 0.0106(2)
C42 C 0.7265(5) 0.3898(3) 0.0286(3)
C43 C 0.7735(6) 0.2958(4) -0.0024(3)
C44 C 0.6717(8) 0.2276(5) 0.0095(4)
C45 C 0.7214(5) 0.6243(3) -0.0058(2)
C46 C 0.8140(5) 0.6855(4) -0.0542(3)
C47 C 0.7352(7) 0.7622(4) -0.0941(3)
C48 C 0.6683(8) 0.7215(5) -0.1376(4)
C49 C 1.0093(4) 0.7217(3) 0.2467(2)
C50 C 1.1024(4) 0.7388(3) 0.1917(2)
C51 C 1.1861(5) 0.8094(3) 0.1822(2)
C52 C 1.1804(4) 0.8719(3) 0.2282(2)
C53 C 1.0856(5) 0.8558(3) 0.2830(2)
C54 C 1.0040(4) 0.7838(3) 0.2914(2)
C55 C 1.2418(5) 1.0163(3) 0.2627(2)
C56 C 1.1176(5) 1.0919(3) 0.2566(3)
C57 C 1.1108(7) 1.1779(3) 0.2928(3)
C58 C 0.9896(9) 1.2492(5) 0.2852(4)
C59 C 1.3502(5) 0.9645(3) 0.1603(3)
C60 C 1.4892(6) 0.9035(4) 0.1579(4)
C61 C 1.5820(9) 0.9215(7) 0.1008(5)
C62 C 1.5490(12) 0.8897(10) 0.0497(7)
H1 H 0.5298 0.1994 0.4038
H2 H 0.3879 0.2817 0.4267
H3 H 0.3724 0.3438 0.3250
H4 H 0.4594 0.2303 0.3087
H5 H 0.6631 0.2943 0.2716
H6 H 0.5581 0.4029 0.2582
H7 H 1.1393 0.6982 0.4578
H8 H 0.9999 0.7874 0.4660
H9 H 1.0289 0.7771 0.5669
H10 H 1.1277 0.6645 0.5629
H11 H 0.9419 0.6006 0.6220
H12 H 0.8347 0.7062 0.6043
H13 H 0.3657 0.3466 0.5678
H14 H 0.2489 0.2107 0.5705
H15 H 0.4802 0.0502 0.6898
H16 H 0.5928 0.1863 0.6878
H17 H 0.7816 0.4241 0.6553
H18 H 0.8044 0.4660 0.7513
H19 H 0.4252 0.3924 0.8278
H20 H 0.4054 0.3512 0.7313
H21 H 0.9346 0.4663 0.2132
H22 H 0.8851 0.4316 0.1216
H23 H 0.7751 0.7221 0.0734
H24 H 0.8359 0.7566 0.1630
H25 H 0.9207 0.4222 0.0281
H26 H 0.8594 0.4675 -0.0395
H27 H 0.6355 0.4251 0.0142
H28 H 0.7059 0.3723 0.0784
H29 H 0.8014 0.3148 -0.0518
H30 H 0.8617 0.2594 0.0143
H31 H 0.6395 0.2107 0.0590
H32 H 0.7141 0.1617 -0.0106
H33 H 0.5870 0.2606 -0.0111
H34 H 0.6520 0.6717 0.0234
H35 H 0.6642 0.5878 -0.0292
H36 H 0.8823 0.6383 -0.0839
H37 H 0.8724 0.7212 -0.0309
H38 H 0.6596 0.8038 -0.0636
H39 H 0.8026 0.8116 -0.1210
H40 H 0.7423 0.6778 -0.1673
H41 H 0.6208 0.7804 -0.1656
H42 H 0.5940 0.6772 -0.1110
H43 H 1.1079 0.6983 0.1585
H44 H 1.2508 0.8170 0.1432
H45 H 1.0777 0.8969 0.3161
H46 H 0.9393 0.7757 0.3304
H47 H 1.3298 1.0535 0.2545
H48 H 1.2299 0.9797 0.3095
H49 H 1.1203 1.1184 0.2082
H50 H 1.0282 1.0567 0.2733
H51 H 1.1069 1.1521 0.3414
H52 H 1.1999 1.2137 0.2764
H53 H 0.9945 1.2759 0.2367
H54 H 0.9867 1.3093 0.3112
H55 H 0.9005 1.2137 0.3022
H56 H 1.3630 1.0407 0.1528
H57 H 1.3054 0.9491 0.1233
H58 H 1.5324 0.9182 0.1956
H59 H 1.4755 0.8274 0.1652
H60 H 1.5884 0.9986 0.0911
H61 H 1.6798 0.8861 0.1068
H62 H 1.4574 0.9311 0.0395
H63 H 1.5355 0.8137 0.0600
H64 H 1.6286 0.8996 0.0100
Cl7? Cl 0.9628(5) 0.8982(3) 0.0367(3)
Cl8? Cl 0.9626(7) 1.0593(5) -0.0599(3)
Cl9? Cl 1.1163(5) 1.0526(4) 0.0328(4)
C65? C 0.9698(14) 1.0211(10) 0.0187(9)
H67? H 0.8860 1.0590 0.0472
C66? C 1.599(2) 1.0031(13) 0.0542(10)
H68? H 1.6752 0.9820 0.0156
H69? H 1.6294 1.0610 0.0735
H70? H 1.5060 1.0277 0.0385
loop_
_geom_bond_atom_site_label_1
_geom_bond_atom_site_label_2
_geom_bond_site_symmetry_1
_geom_bond_site_symmetry_2
Cl1 C63 1_555 1_555
Cl2 C63 1_555 1_555
Cl3 C63 1_555 1_555
Cl4 C64 1_555 1_555
Cl5 C64 1_555 1_555
Cl6 C64 1_555 1_555
O1 N1 1_555 1_555
O2 N1 1_555 1_555
O3 N2 1_555 1_555
O4 N2 1_555 1_555
N1 C25 1_555 1_555
N2 C31 1_555 1_555
N3 C38 1_555 1_555
N4 C52 1_555 1_555
C1 C2 1_555 1_555
C2 C3 1_555 1_555
C3 C4 1_555 1_555
C4 C5 1_555 1_555
C5 C6 1_555 1_555
C6 C7 1_555 1_555
C7 C8 1_555 1_555
C8 C4 1_555 1_555
C9 C8 1_555 1_555
C10 C9 1_555 1_555
C11 C10 1_555 1_555
C12 C11 1_555 1_555
C13 C12 1_555 1_555
C14 C13 1_555 1_555
C15 C14 1_555 1_555
C16 C15 1_555 1_555
C17 C16 1_555 1_555
C18 C14 1_555 1_555
C19 C18 1_555 1_555
C20 C1 1_555 1_555
C21 C1 1_555 1_555
C22 C21 1_555 1_555
C23 C22 1_555 1_555
C24 C23 1_555 1_555
C25 C24 1_555 1_555
C26 C25 1_555 1_555
C27 C22 1_555 1_555
C28 C21 1_555 1_555
C29 C28 1_555 1_555
C30 C29 1_555 1_555
C31 C30 1_555 1_555
C32 C31 1_555 1_555
C33 C28 1_555 1_555
C34 C11 1_555 1_555
C35 C34 1_555 1_555
C36 C35 1_555 1_555
C37 C36 1_555 1_555
C38 C37 1_555 1_555
C39 C38 1_555 1_555
C40 C35 1_555 1_555
C41 N3 1_555 1_555
C42 C41 1_555 1_555
C43 C42 1_555 1_555
C44 C43 1_555 1_555
C45 N3 1_555 1_555
C46 C45 1_555 1_555
C47 C46 1_555 1_555
C48 C47 1_555 1_555
C49 C34 1_555 1_555
C50 C49 1_555 1_555
C51 C50 1_555 1_555
C52 C51 1_555 1_555
C53 C52 1_555 1_555
C54 C49 1_555 1_555
C55 N4 1_555 1_555
C56 C55 1_555 1_555
C57 C56 1_555 1_555
C58 C57 1_555 1_555
C59 N4 1_555 1_555
C60 C59 1_555 1_555
C61 C60 1_555 1_555
C62 C61 1_555 1_555
C63 H65 1_555 1_555
C64 H66 1_555 1_555
H1 C5 1_555 1_555
H2 C5 1_555 1_555
H3 C6 1_555 1_555
H4 C6 1_555 1_555
H5 C7 1_555 1_555
H6 C7 1_555 1_555
H7 C15 1_555 1_555
H8 C15 1_555 1_555
H9 C16 1_555 1_555
H10 C16 1_555 1_555
H11 C17 1_555 1_555
H12 C17 1_555 1_555
H13 C23 1_555 1_555
H14 C24 1_555 1_555
H15 C26 1_555 1_555
H16 C27 1_555 1_555
H17 C29 1_555 1_555
H18 C30 1_555 1_555
H19 C32 1_555 1_555
H20 C33 1_555 1_555
H21 C36 1_555 1_555
H22 C37 1_555 1_555
H23 C39 1_555 1_555
H24 C40 1_555 1_555
H25 C41 1_555 1_555
H26 C41 1_555 1_555
H27 C42 1_555 1_555
H28 C42 1_555 1_555
H29 C43 1_555 1_555
H30 C43 1_555 1_555
H31 C44 1_555 1_555
H32 C44 1_555 1_555
H33 C44 1_555 1_555
H34 C45 1_555 1_555
H35 C45 1_555 1_555
H36 C46 1_555 1_555
H37 C46 1_555 1_555
H38 C47 1_555 1_555
H39 C47 1_555 1_555
H40 C48 1_555 1_555
H41 C48 1_555 1_555
H42 C48 1_555 1_555
H43 C50 1_555 1_555
H44 C51 1_555 1_555
H45 C53 1_555 1_555
H46 C54 1_555 1_555
H47 C55 1_555 1_555
H48 C55 1_555 1_555
H49 C56 1_555 1_555
H50 C56 1_555 1_555
H51 C57 1_555 1_555
H52 C57 1_555 1_555
H53 C58 1_555 1_555
H54 C58 1_555 1_555
H55 C58 1_555 1_555
H56 C59 1_555 1_555
H57 C59 1_555 1_555
H58 C60 1_555 1_555
H59 C60 1_555 1_555
H60 C61 1_555 1_555
H61 C61 1_555 1_555
H62 C62 1_555 1_555
H63 C62 1_555 1_555
H64 C62 1_555 1_555
C17 C18 1_555 1_555
C19 C20 1_555 1_555
C26 C27 1_555 1_555
C32 C33 1_555 1_555
C39 C40 1_555 1_555
C53 C54 1_555 1_555

#END
