
#######################################################################
#
#                 Cambridge Crystallographic Data Centre
#                                CCDC 
#
#######################################################################
#
# If this CIF has been generated from an entry in the Cambridge 
# Structural Database, then it will include bibliographic, chemical, 
# crystal, experimental, refinement or atomic coordinate data resulting 
# from the CCDC's data processing and validation procedures.
#
#######################################################################

data_SUXCIY
_chemical_formula_moiety         'C26 H22 N2 O3'
_chemical_name_systematic        
3-(1-Benzyl-1H-indol-3-yl)-4-(2-methoxyphenyl)pyrrolidine-2,5-dione
_symmetry_cell_setting           triclinic
_symmetry_space_group_name_H-M   'P -1'
_symmetry_Int_Tables_number      2
_space_group_name_Hall           '-P 1'
loop_
_symmetry_equiv_pos_site_id
_symmetry_equiv_pos_as_xyz
1 x,y,z
2 -x,-y,-z
_cell_length_a                   9.4289(5)
_cell_length_b                   10.4081(6)
_cell_length_c                   10.9481(6)
_cell_angle_alpha                89.763(5)
_cell_angle_beta                 80.782(4)
_cell_angle_gamma                80.790(5)
_cell_volume                     1046.61
_exptl_crystal_colour            colorless
_exptl_crystal_description       prism
_cell_formula_units_Z            2
loop_
_atom_site_label
_atom_site_type_symbol
_atom_site_fract_x
_atom_site_fract_y
_atom_site_fract_z
C1 C 0.14645(11) 0.05977(11) 0.86576(10)
C2 C 0.01595(13) 0.26344(12) 0.84258(11)
C3 C 0.16470(12) 0.26407(11) 0.76341(10)
H1 H 0.2201 0.3161 0.8097
C4 C 0.23912(11) 0.12003(10) 0.76202(10)
H2 H 0.2271 0.0791 0.6826
C5 C 0.39866(12) 0.09752(11) 0.76886(10)
C6 C 0.44842(12) 0.13323(11) 0.87494(11)
C7 C 0.59627(13) 0.11490(12) 0.88090(14)
H3 H 0.6296 0.1396 0.9534
C8 C 0.69412(14) 0.06034(16) 0.78025(16)
H4 H 0.7954 0.0487 0.7836
C9 C 0.64832(15) 0.02267(18) 0.67569(15)
H5 H 0.7169 -0.0160 0.6075
C10 C 0.49992(14) 0.04156(15) 0.67027(12)
H6 H 0.4677 0.0156 0.5977
C11 C 0.23103(12) 0.42209(11) 0.59503(11)
H7 H 0.2867 0.4669 0.6402
C12 C 0.16132(12) 0.32233(11) 0.63939(10)
C13 C 0.09262(11) 0.28236(10) 0.54126(10)
C14 C 0.00545(12) 0.18813(11) 0.52831(12)
H8 H -0.0205 0.1335 0.5951
C15 C -0.04195(14) 0.17590(13) 0.41748(13)
H9 H -0.1004 0.1115 0.4079
C16 C -0.00621(14) 0.25594(14) 0.31851(13)
H10 H -0.0401 0.2443 0.2428
C17 C 0.07732(13) 0.35172(12) 0.32824(11)
H11 H 0.1004 0.4073 0.2614
C18 C 0.12617(11) 0.36317(10) 0.44027(10)
C19 C 0.28003(13) 0.53906(11) 0.39609(11)
H12 H 0.3035 0.6080 0.4479
H13 H 0.2111 0.5812 0.3430
C20 C 0.41817(12) 0.47560(10) 0.31446(10)
C21 C 0.49262(12) 0.35517(11) 0.33999(11)
H14 H 0.4562 0.3092 0.4102
C22 C 0.61993(13) 0.30145(12) 0.26359(12)
H15 H 0.6700 0.2186 0.2815
C23 C 0.67428(13) 0.36724(13) 0.16211(12)
H16 H 0.7620 0.3304 0.1103
C24 C 0.60077(14) 0.48699(13) 0.13592(11)
H17 H 0.6379 0.5327 0.0658
C25 C 0.47324(13) 0.54077(12) 0.21121(11)
H18 H 0.4229 0.6230 0.1921
C26 C 0.38478(17) 0.22224(14) 1.08089(13)
H19 H 0.4439 0.1476 1.1130
H20 H 0.2980 0.2520 1.1421
H21 H 0.4420 0.2930 1.0645
N1 N 0.02079(10) 0.14498(10) 0.90141(10)
N2 N 0.20952(10) 0.44857(9) 0.47615(9)
O1 O 0.17437(9) -0.04832(8) 0.90686(8)
O2 O -0.08809(10) 0.34842(9) 0.85626(9)
O3 O 0.34164(9) 0.18449(8) 0.96843(8)
H22 H -0.0485(16) 0.1255(14) 0.9577(13)
loop_
_geom_bond_atom_site_label_1
_geom_bond_atom_site_label_2
_geom_bond_site_symmetry_1
_geom_bond_site_symmetry_2
C1 C4 1_555 1_555
C2 C3 1_555 1_555
C3 H1 1_555 1_555
C4 C3 1_555 1_555
H2 C4 1_555 1_555
C5 C4 1_555 1_555
C6 C5 1_555 1_555
C7 C6 1_555 1_555
H3 C7 1_555 1_555
C8 C7 1_555 1_555
H4 C8 1_555 1_555
C9 C8 1_555 1_555
H5 C9 1_555 1_555
C10 C5 1_555 1_555
H6 C10 1_555 1_555
C11 H7 1_555 1_555
C12 C3 1_555 1_555
C13 C12 1_555 1_555
C14 C13 1_555 1_555
H8 C14 1_555 1_555
C15 C14 1_555 1_555
H9 C15 1_555 1_555
C16 C15 1_555 1_555
H10 C16 1_555 1_555
C17 C16 1_555 1_555
H11 C17 1_555 1_555
C18 C13 1_555 1_555
C19 H12 1_555 1_555
H13 C19 1_555 1_555
C20 C19 1_555 1_555
C21 C20 1_555 1_555
H14 C21 1_555 1_555
C22 C21 1_555 1_555
H15 C22 1_555 1_555
C23 C22 1_555 1_555
H16 C23 1_555 1_555
C24 C23 1_555 1_555
H17 C24 1_555 1_555
C25 C20 1_555 1_555
H18 C25 1_555 1_555
C26 H19 1_555 1_555
H20 C26 1_555 1_555
H21 C26 1_555 1_555
N1 C1 1_555 1_555
N2 C11 1_555 1_555
O1 C1 1_555 1_555
O2 C2 1_555 1_555
O3 C6 1_555 1_555
H22 N1 1_555 1_555
C2 N1 1_555 1_555
C9 C10 1_555 1_555
C11 C12 1_555 1_555
C17 C18 1_555 1_555
C18 N2 1_555 1_555
C19 N2 1_555 1_555
C24 C25 1_555 1_555
C26 O3 1_555 1_555

#END
