
#######################################################################
#
#                 Cambridge Crystallographic Data Centre
#                                CCDC 
#
#######################################################################
#
# If this CIF has been generated from an entry in the Cambridge 
# Structural Database, then it will include bibliographic, chemical, 
# crystal, experimental, refinement or atomic coordinate data resulting 
# from the CCDC's data processing and validation procedures.
#
#######################################################################

data_SUXHOI
_chemical_compound_source        'Salvia prionitis'
_chemical_formula_moiety         'C40 H50 O5'
_chemical_name_systematic        Hongencaotone
_symmetry_cell_setting           tetragonal
_symmetry_space_group_name_H-M   'P 41'
_symmetry_Int_Tables_number      76
_space_group_name_Hall           'P 4w'
loop_
_symmetry_equiv_pos_site_id
_symmetry_equiv_pos_as_xyz
1 x,y,z
2 -x,-y,1/2+z
3 -y,x,1/4+z
4 y,-x,3/4+z
_cell_length_a                   12.979(4)
_cell_length_b                   12.979(4)
_cell_length_c                   39.863(9)
_cell_angle_alpha                90
_cell_angle_beta                 90
_cell_angle_gamma                90
_cell_volume                     6715.1
_exptl_crystal_colour            yellow
_exptl_crystal_description       prismatic
_chemical_melting_point          '191-192 deg.C'
_cell_formula_units_Z            8
_exptl_crystal_recrystallization_method cyclohexane
loop_
_atom_site_label
_atom_site_type_symbol
_atom_site_fract_x
_atom_site_fract_y
_atom_site_fract_z
O1 O -0.1244(5) 0.5639(4) 0.49877(17)
H1 H -0.1782 0.5345 0.4938
O2 O -0.0068(5) 0.5294(4) 0.45051(16)
O3 O -0.3404(3) 0.8550(4) 0.48238(13)
O4 O -0.2477(4) 1.0493(3) 0.48401(13)
O5 O -0.4933(5) 1.1148(4) 0.35893(14)
C1 C -0.2911(6) 0.6908(6) 0.5239(2)
H2 H -0.3322 0.6742 0.5043
H3 H -0.2543 0.6289 0.5304
C2 C -0.3616(9) 0.7202(8) 0.5516(3)
H4 H -0.4210 0.6749 0.5508
H5 H -0.3265 0.7074 0.5726
C3 C -0.3976(10) 0.8240(9) 0.5517(3)
H6 H -0.4171 0.8394 0.5747
H7 H -0.4606 0.8248 0.5387
C4 C -0.3326(6) 0.9150(7) 0.5395(2)
C5 C -0.2676(5) 0.8777(5) 0.50940(18)
C6 C -0.1952(5) 0.9588(5) 0.49552(19)
H8 H -0.1471 0.9789 0.5133
C7 C -0.1337(6) 0.9197(6) 0.4660(2)
H9 H -0.1094 0.9675 0.4505
C8 C -0.1114(5) 0.8173(6) 0.46068(18)
C9 C -0.1467(6) 0.7413(5) 0.48349(19)
C10 C -0.2120(5) 0.7738(6) 0.5141(2)
C11 C -0.1095(6) 0.6463(6) 0.4777(2)
C12 C -0.0400(6) 0.6189(6) 0.4503(2)
C13 C -0.0128(7) 0.7000(6) 0.4268(2)
C14 C -0.0481(6) 0.7932(6) 0.4322(2)
H10 H -0.0316 0.8453 0.4171
C15 C 0.0641(7) 0.6690(7) 0.3990(2)
H11 H 0.1110 0.6168 0.4081
C16 C 0.1292(9) 0.7611(10) 0.3865(4)
H12 H 0.0930 0.7959 0.3688
H13 H 0.1941 0.7365 0.3782
H14 H 0.1409 0.8080 0.4047
C17 C 0.0083(9) 0.6231(12) 0.3697(2)
H15 H -0.0285 0.5628 0.3768
H16 H 0.0571 0.6046 0.3526
H17 H -0.0394 0.6726 0.3609
C18 C -0.4124(7) 0.9952(7) 0.5299(2)
H18 H -0.4630 1.0006 0.5473
H19 H -0.4454 0.9751 0.5093
H20 H -0.3792 1.0607 0.5268
C19 C -0.2696(9) 0.9650(9) 0.5686(2)
H21 H -0.2171 1.0088 0.5594
H22 H -0.2381 0.9118 0.5819
H23 H -0.3148 1.0051 0.5825
C20 C -0.1251(6) 0.7778(6) 0.5427(2)
H24 H -0.1571 0.7890 0.5642
H25 H -0.0781 0.8330 0.5381
H26 H -0.0883 0.7136 0.5431
C21 C -0.3209(7) 1.2586(6) 0.46983(19)
H27 H -0.2883 1.2185 0.4874
H28 H -0.3948 1.2554 0.4733
C22 C -0.2862(8) 1.3697(6) 0.4730(2)
H29 H -0.3067 1.3963 0.4947
H30 H -0.2117 1.3729 0.4716
C23 C -0.3328(7) 1.4362(6) 0.4456(2)
H31 H -0.4069 1.4387 0.4486
H32 H -0.3067 1.5059 0.4479
C24 C -0.3099(6) 1.3984(6) 0.4110(2)
C25 C -0.3362(5) 1.2799(5) 0.40843(18)
C26 C -0.3951(6) 1.2465(6) 0.38408(18)
H33 H -0.4123 1.2921 0.3670
C27 C -0.4353(6) 1.1410(6) 0.38237(19)
C28 C -0.4151(5) 1.0722(5) 0.41048(17)
C29 C -0.3444(6) 1.1015(5) 0.43538(17)
C30 C -0.2955(6) 1.2094(5) 0.43578(18)
C31 C -0.3177(6) 1.0251(6) 0.45890(18)
C32 C -0.3630(5) 0.9291(5) 0.45863(17)
C33 C -0.4395(5) 0.9036(5) 0.43541(18)
C34 C -0.4651(6) 0.9742(6) 0.41227(19)
H34 H -0.5169 0.9590 0.3969
C35 C -0.4978(6) 0.7997(6) 0.4401(2)
H35 H -0.5065 0.7876 0.4642
C36 C -0.4323(7) 0.7168(8) 0.4263(3)
H36 H -0.4600 0.6511 0.4328
H37 H -0.3637 0.7236 0.4350
H38 H -0.4307 0.7217 0.4023
C37 C -0.6032(8) 0.8027(9) 0.4242(3)
H39 H -0.5972 0.7899 0.4006
H40 H -0.6335 0.8693 0.4277
H41 H -0.6461 0.7509 0.4342
C38 C -0.1983(6) 1.4196(6) 0.3997(2)
H42 H -0.1836 1.3804 0.3798
H43 H -0.1516 1.3998 0.4172
H44 H -0.1902 1.4917 0.3950
C39 C -0.3776(7) 1.4581(7) 0.3869(2)
H45 H -0.4483 1.4521 0.3938
H46 H -0.3697 1.4308 0.3647
H47 H -0.3577 1.5294 0.3871
C40 C -0.1788(6) 1.1955(6) 0.4311(2)
H48 H -0.1660 1.1580 0.4108
H49 H -0.1512 1.1580 0.4498
H50 H -0.1464 1.2619 0.4298
O6 O 0.4972(4) 0.6375(4) 0.21387(15)
H51 H 0.4799 0.6206 0.1949
O7 O 0.5356(4) 0.5368(5) 0.26711(16)
O8 O 0.2075(3) 0.8458(3) 0.22945(11)
O9 O 0.0118(3) 0.7554(4) 0.22911(12)
O10 O -0.0356(5) 0.9947(6) 0.35656(15)
C41 C 0.3695(6) 0.7894(6) 0.1844(2)
H52 H 0.3879 0.8367 0.2022
H53 H 0.4305 0.7505 0.1782
C42 C 0.3307(7) 0.8496(7) 0.1540(3)
H54 H 0.3820 0.9012 0.1484
H55 H 0.3261 0.8026 0.1352
C43 C 0.2327(8) 0.9006(8) 0.1576(3)
H56 H 0.2123 0.9252 0.1356
H57 H 0.2431 0.9608 0.1716
C44 C 0.1421(6) 0.8394(5) 0.17223(17)
C45 C 0.1807(5) 0.7713(5) 0.20280(16)
C46 C 0.0991(5) 0.6997(5) 0.21757(18)
H58 H 0.0766 0.6520 0.2000
C47 C 0.1413(6) 0.6375(6) 0.24644(19)
H59 H 0.0949 0.6064 0.2611
C48 C 0.2426(5) 0.6246(5) 0.25211(18)
C49 C 0.3186(5) 0.6603(5) 0.22951(17)
C50 C 0.2849(5) 0.7151(5) 0.19674(17)
C51 C 0.4150(6) 0.6264(6) 0.2352(2)
C52 C 0.4431(6) 0.5647(7) 0.2651(2)
C53 C 0.3676(6) 0.5414(6) 0.2902(2)
C54 C 0.2702(6) 0.5690(6) 0.2832(2)
H60 H 0.2185 0.5526 0.2984
C55 C 0.3975(7) 0.4866(7) 0.3215(2)
H61 H 0.4714 0.5001 0.3239
C56 C 0.3897(12) 0.3768(8) 0.3189(3)
H62 H 0.3207 0.3558 0.3243
H63 H 0.4370 0.3453 0.3343
H64 H 0.4060 0.3558 0.2965
C57 C 0.3499(11) 0.5299(12) 0.3527(3)
H65 H 0.2840 0.4982 0.3563
H66 H 0.3412 0.6029 0.3502
H67 H 0.3939 0.5161 0.3715
C58 C 0.0624(6) 0.9180(6) 0.18171(19)
H68 H 0.0870 0.9582 0.2002
H69 H -0.0002 0.8836 0.1880
H70 H 0.0492 0.9624 0.1629
C59 C 0.0921(8) 0.7733(7) 0.1441(2)
H71 H 0.0281 0.7453 0.1520
H72 H 0.1378 0.7180 0.1382
H73 H 0.0796 0.8155 0.1248
C60 C 0.2745(6) 0.6265(6) 0.1711(2)
H74 H 0.2436 0.6523 0.1509
H75 H 0.2319 0.5732 0.1804
H76 H 0.3414 0.5991 0.1662
C61 C -0.1976(5) 0.8263(6) 0.24703(18)
H77 H -0.1994 0.9006 0.2446
H78 H -0.1594 0.7983 0.2282
C62 C -0.3059(6) 0.7850(7) 0.2464(2)
H79 H -0.3039 0.7103 0.2473
H80 H -0.3387 0.8047 0.2255
C63 C -0.3698(6) 0.8262(7) 0.2760(2)
H81 H -0.3786 0.8999 0.2733
H82 H -0.4377 0.7949 0.2753
C64 C -0.3227(6) 0.8058(6) 0.3103(2)
C65 C -0.2065(6) 0.8350(6) 0.30971(17)
C66 C -0.1690(6) 0.8964(6) 0.3327(2)
H83 H -0.2128 0.9147 0.3502
C67 C -0.0666(7) 0.9382(7) 0.3335(2)
C68 C 0.0011(5) 0.9164(5) 0.30453(17)
C69 C -0.0332(5) 0.8465(5) 0.27964(16)
C70 C -0.1406(5) 0.7981(6) 0.28046(17)
C71 C 0.0397(5) 0.8253(5) 0.25426(18)
C72 C 0.1354(5) 0.8678(5) 0.25341(17)
C73 C 0.1688(6) 0.9391(6) 0.27787(19)
C74 C 0.1003(6) 0.9602(6) 0.30330(18)
H84 H 0.1202 1.0051 0.3203
C75 C 0.2742(6) 0.9844(6) 0.2770(2)
H85 H 0.2923 0.9907 0.2532
C76 C 0.3512(9) 0.9123(10) 0.2917(4)
H86 H 0.3329 0.8975 0.3146
H87 H 0.4183 0.9434 0.2911
H88 H 0.3520 0.8495 0.2790
C77 C 0.2792(9) 1.0969(7) 0.2918(3)
H89 H 0.2193 1.1093 0.3054
H90 H 0.2811 1.1458 0.2738
H91 H 0.3400 1.1041 0.3053
C78 C -0.3398(6) 0.6949(6) 0.3219(2)
H92 H -0.4121 0.6795 0.3214
H93 H -0.3142 0.6869 0.3443
H94 H -0.3039 0.6487 0.3071
C79 C -0.3841(7) 0.8778(8) 0.3356(3)
H95 H -0.4553 0.8578 0.3360
H96 H -0.3786 0.9482 0.3284
H97 H -0.3553 0.8710 0.3577
C80 C -0.1254(6) 0.6815(5) 0.28365(19)
H98 H -0.1157 0.6638 0.3068
H99 H -0.0660 0.6610 0.2710
H100 H -0.1852 0.6466 0.2752
loop_
_geom_bond_atom_site_label_1
_geom_bond_atom_site_label_2
_geom_bond_site_symmetry_1
_geom_bond_site_symmetry_2
O1 H1 1_555 1_555
O2 C12 1_555 1_555
O3 C5 1_555 1_555
O4 C6 1_555 1_555
O5 C27 1_555 1_555
C1 H2 1_555 1_555
H3 C1 1_555 1_555
C2 C1 1_555 1_555
H4 C2 1_555 1_555
H5 C2 1_555 1_555
C3 C2 1_555 1_555
H6 C3 1_555 1_555
H7 C3 1_555 1_555
C4 C3 1_555 1_555
C5 C4 1_555 1_555
C6 C5 1_555 1_555
H8 C6 1_555 1_555
C7 C6 1_555 1_555
H9 C7 1_555 1_555
C8 C7 1_555 1_555
C9 C8 1_555 1_555
C10 C1 1_555 1_555
C11 O1 1_555 1_555
C12 C11 1_555 1_555
C13 C12 1_555 1_555
C14 C8 1_555 1_555
H10 C14 1_555 1_555
C15 C13 1_555 1_555
H11 C15 1_555 1_555
C16 C15 1_555 1_555
H12 C16 1_555 1_555
H13 C16 1_555 1_555
H14 C16 1_555 1_555
C17 C15 1_555 1_555
H15 C17 1_555 1_555
H16 C17 1_555 1_555
H17 C17 1_555 1_555
C18 C4 1_555 1_555
H18 C18 1_555 1_555
H19 C18 1_555 1_555
H20 C18 1_555 1_555
C19 C4 1_555 1_555
H21 C19 1_555 1_555
H22 C19 1_555 1_555
H23 C19 1_555 1_555
C20 C10 1_555 1_555
H24 C20 1_555 1_555
H25 C20 1_555 1_555
H26 C20 1_555 1_555
C21 H27 1_555 1_555
H28 C21 1_555 1_555
C22 C21 1_555 1_555
H29 C22 1_555 1_555
H30 C22 1_555 1_555
C23 C22 1_555 1_555
H31 C23 1_555 1_555
H32 C23 1_555 1_555
C24 C23 1_555 1_555
C25 C24 1_555 1_555
C26 C25 1_555 1_555
H33 C26 1_555 1_555
C27 C26 1_555 1_555
C28 C27 1_555 1_555
C29 C28 1_555 1_555
C30 C21 1_555 1_555
C31 O4 1_555 1_555
C32 O3 1_555 1_555
C33 C32 1_555 1_555
C34 C28 1_555 1_555
H34 C34 1_555 1_555
C35 C33 1_555 1_555
H35 C35 1_555 1_555
C36 C35 1_555 1_555
H36 C36 1_555 1_555
H37 C36 1_555 1_555
H38 C36 1_555 1_555
C37 C35 1_555 1_555
H39 C37 1_555 1_555
H40 C37 1_555 1_555
H41 C37 1_555 1_555
C38 C24 1_555 1_555
H42 C38 1_555 1_555
H43 C38 1_555 1_555
H44 C38 1_555 1_555
C39 C24 1_555 1_555
H45 C39 1_555 1_555
H46 C39 1_555 1_555
H47 C39 1_555 1_555
C40 C30 1_555 1_555
H48 C40 1_555 1_555
H49 C40 1_555 1_555
H50 C40 1_555 1_555
O6 H51 1_555 1_555
O7 C52 1_555 1_555
O8 C45 1_555 1_555
O9 C46 1_555 1_555
O10 C67 1_555 1_555
C41 H52 1_555 1_555
H53 C41 1_555 1_555
C42 C41 1_555 1_555
H54 C42 1_555 1_555
H55 C42 1_555 1_555
C43 C42 1_555 1_555
H56 C43 1_555 1_555
H57 C43 1_555 1_555
C44 C43 1_555 1_555
C45 C44 1_555 1_555
C46 C45 1_555 1_555
H58 C46 1_555 1_555
C47 C46 1_555 1_555
H59 C47 1_555 1_555
C48 C47 1_555 1_555
C49 C48 1_555 1_555
C50 C41 1_555 1_555
C51 O6 1_555 1_555
C52 C51 1_555 1_555
C53 C52 1_555 1_555
C54 C48 1_555 1_555
H60 C54 1_555 1_555
C55 C53 1_555 1_555
H61 C55 1_555 1_555
C56 C55 1_555 1_555
H62 C56 1_555 1_555
H63 C56 1_555 1_555
H64 C56 1_555 1_555
C57 C55 1_555 1_555
H65 C57 1_555 1_555
H66 C57 1_555 1_555
H67 C57 1_555 1_555
C58 C44 1_555 1_555
H68 C58 1_555 1_555
H69 C58 1_555 1_555
H70 C58 1_555 1_555
C59 C44 1_555 1_555
H71 C59 1_555 1_555
H72 C59 1_555 1_555
H73 C59 1_555 1_555
C60 C50 1_555 1_555
H74 C60 1_555 1_555
H75 C60 1_555 1_555
H76 C60 1_555 1_555
C61 H77 1_555 1_555
H78 C61 1_555 1_555
C62 C61 1_555 1_555
H79 C62 1_555 1_555
H80 C62 1_555 1_555
C63 C62 1_555 1_555
H81 C63 1_555 1_555
H82 C63 1_555 1_555
C64 C63 1_555 1_555
C65 C64 1_555 1_555
C66 C65 1_555 1_555
H83 C66 1_555 1_555
C67 C66 1_555 1_555
C68 C67 1_555 1_555
C69 C68 1_555 1_555
C70 C61 1_555 1_555
C71 O9 1_555 1_555
C72 O8 1_555 1_555
C73 C72 1_555 1_555
C74 C68 1_555 1_555
H84 C74 1_555 1_555
C75 C73 1_555 1_555
H85 C75 1_555 1_555
C76 C75 1_555 1_555
H86 C76 1_555 1_555
H87 C76 1_555 1_555
H88 C76 1_555 1_555
C77 C75 1_555 1_555
H89 C77 1_555 1_555
H90 C77 1_555 1_555
H91 C77 1_555 1_555
C78 C64 1_555 1_555
H92 C78 1_555 1_555
H93 C78 1_555 1_555
H94 C78 1_555 1_555
C79 C64 1_555 1_555
H95 C79 1_555 1_555
H96 C79 1_555 1_555
H97 C79 1_555 1_555
C80 C70 1_555 1_555
H98 C80 1_555 1_555
H99 C80 1_555 1_555
H100 C80 1_555 1_555
C5 C10 1_555 1_555
C9 C11 1_555 1_555
C9 C10 1_555 1_555
C13 C14 1_555 1_555
C25 C30 1_555 1_555
C29 C31 1_555 1_555
C29 C30 1_555 1_555
C31 C32 1_555 1_555
C33 C34 1_555 1_555
C45 C50 1_555 1_555
C49 C51 1_555 1_555
C49 C50 1_555 1_555
C53 C54 1_555 1_555
C65 C70 1_555 1_555
C69 C71 1_555 1_555
C69 C70 1_555 1_555
C71 C72 1_555 1_555
C73 C74 1_555 1_555

#END
