
#######################################################################
#
#                 Cambridge Crystallographic Data Centre
#                                CCDC 
#
#######################################################################
#
# If this CIF has been generated from an entry in the Cambridge 
# Structural Database, then it will include bibliographic, chemical, 
# crystal, experimental, refinement or atomic coordinate data resulting 
# from the CCDC's data processing and validation procedures.
#
#######################################################################

data_SUXJAY
_chemical_formula_moiety         'C14 H8 F2 O2'
_chemical_name_systematic        6,7-difluoro-1-methoxy-9H-fluoren-9-one
_symmetry_cell_setting           monoclinic
_symmetry_space_group_name_H-M   'P 21/n'
_symmetry_Int_Tables_number      14
_space_group_name_Hall           '-P 2yn'
loop_
_symmetry_equiv_pos_site_id
_symmetry_equiv_pos_as_xyz
1 x,y,z
2 1/2-x,1/2+y,1/2-z
3 -x,-y,-z
4 1/2+x,1/2-y,1/2+z
_cell_length_a                   7.2744(3)
_cell_length_b                   11.9968(5)
_cell_length_c                   12.4989(6)
_cell_angle_alpha                90
_cell_angle_beta                 99.099(4)
_cell_angle_gamma                90
_cell_volume                     1077.05
_exptl_crystal_colour            colorless
_cell_formula_units_Z            4
loop_
_atom_site_label
_atom_site_type_symbol
_atom_site_fract_x
_atom_site_fract_y
_atom_site_fract_z
O1 O 0.2317(2) 0.78703(12) 0.59376(12)
F1 F 0.3241(3) 0.12559(11) 0.43241(14)
O2 O 0.3791(2) 0.58015(14) 0.71158(12)
F2 F 0.4730(2) 0.14054(13) 0.63915(14)
C1 C 0.2345(3) 0.60575(16) 0.52331(15)
C2 C 0.1957(3) 0.53079(17) 0.43658(16)
C3 C 0.2605(3) 0.41875(16) 0.47557(16)
C4 C 0.3379(3) 0.42655(16) 0.58480(16)
C5 C 0.3256(3) 0.54490(17) 0.62097(16)
C6 C 0.1893(3) 0.71843(17) 0.50823(16)
C7 C 0.1124(3) 0.56480(18) 0.33566(17)
H1 H 0.0879 0.5146 0.2785
C8 C 0.1034(3) 0.75278(18) 0.40504(17)
H2 H 0.0715 0.8273 0.3928
C9 C 0.4116(3) 0.33405(19) 0.64335(18)
H3 H 0.4633 0.3395 0.7161
C10 C 0.2541(3) 0.31778(18) 0.42226(19)
H4 H 0.2025 0.3115 0.3495
C11 C 0.0658(3) 0.6769(2) 0.32181(18)
H5 H 0.0076 0.7013 0.2543
C12 C 0.4046(3) 0.23453(18) 0.5893(2)
C13 C 0.3273(3) 0.22648(18) 0.4813(2)
C14 C 0.1987(4) 0.90336(19) 0.5779(2)
H6 H 0.2651 0.9299 0.5224
H7 H 0.2411 0.9424 0.6443
H8 H 0.0679 0.9162 0.5563
loop_
_geom_bond_atom_site_label_1
_geom_bond_atom_site_label_2
_geom_bond_site_symmetry_1
_geom_bond_site_symmetry_2
O1 C6 1_555 1_555
F1 C13 1_555 1_555
O2 C5 1_555 1_555
F2 C12 1_555 1_555
C1 C2 1_555 1_555
C2 C3 1_555 1_555
C3 C4 1_555 1_555
C4 C5 1_555 1_555
C5 C1 1_555 1_555
C6 C1 1_555 1_555
C7 C2 1_555 1_555
H1 C7 1_555 1_555
C8 C6 1_555 1_555
H2 C8 1_555 1_555
C9 C4 1_555 1_555
H3 C9 1_555 1_555
C10 C3 1_555 1_555
H4 C10 1_555 1_555
C11 C7 1_555 1_555
H5 C11 1_555 1_555
C12 C9 1_555 1_555
C13 C10 1_555 1_555
C14 O1 1_555 1_555
H6 C14 1_555 1_555
H7 C14 1_555 1_555
H8 C14 1_555 1_555
C8 C11 1_555 1_555
C12 C13 1_555 1_555

#END
