
#######################################################################
#
#                 Cambridge Crystallographic Data Centre
#                                CCDC 
#
#######################################################################
#
# If this CIF has been generated from an entry in the Cambridge 
# Structural Database, then it will include bibliographic, chemical, 
# crystal, experimental, refinement or atomic coordinate data resulting 
# from the CCDC's data processing and validation procedures.
#
#######################################################################

data_SUXJIG
_chemical_formula_moiety         'C76 H80'
_chemical_name_systematic        
7,7,18,18,29,29,40,40-octapropyltridecacyclo[39.3.1.1^2,6^.1^8,12^.1^13,17^.1^19,23^.1^24,28^.1^30,34^.1^35,39^.0^5,9^.0^16,20^.0^27,31^.0^38,42^]dopentaconta-1(45),2(52),3,5,8(51),9,11,13(50),14,16,19(49),20,22,24(48),25,27,30(47),31,33,35(46),36,38,41,43-tetracosaene
_symmetry_cell_setting           orthorhombic
_symmetry_space_group_name_H-M   'P n a 21'
_symmetry_Int_Tables_number      33
_space_group_name_Hall           'P 2c -2n'
loop_
_symmetry_equiv_pos_site_id
_symmetry_equiv_pos_as_xyz
1 x,y,z
2 -x,-y,1/2+z
3 1/2+x,1/2-y,z
4 1/2-x,1/2+y,1/2+z
_cell_length_a                   17.2194(10)
_cell_length_b                   18.3880(9)
_cell_length_c                   18.5977(11)
_cell_angle_alpha                90
_cell_angle_beta                 90
_cell_angle_gamma                90
_cell_volume                     5888.6
_exptl_crystal_colour            yellow
_exptl_crystal_description       column
_cell_formula_units_Z            4
loop_
_atom_site_label
_atom_site_type_symbol
_atom_site_fract_x
_atom_site_fract_y
_atom_site_fract_z
C1 C 0.9788(2) 0.41681(18) 0.8906(2)
C2 C 1.0261(2) 0.46138(19) 0.8487(2)
H1 H 1.0720 0.4820 0.8684
C3 C 1.0057(2) 0.47535(19) 0.77816(19)
H2 H 1.0376 0.5062 0.7497
C4 C 0.9385(2) 0.44458(18) 0.74783(19)
C5 C 0.9002(2) 0.38947(17) 0.78705(19)
H3 H 0.8611 0.3611 0.7645
C6 C 0.9192(2) 0.37667(17) 0.85740(19)
C7 C 0.8976(2) 0.37483(18) 0.98162(19)
C8 C 0.9654(2) 0.41589(18) 0.96848(19)
C9 C 0.9962(2) 0.45923(19) 1.0233(2)
H4 H 1.0450 0.4826 1.0176
C10 C 0.9539(2) 0.46743(19) 1.0863(2)
H5 H 0.9739 0.4980 1.1231
C11 C 0.8828(2) 0.43225(18) 1.09745(19)
C12 C 0.8576(2) 0.38193(18) 1.04581(19)
H6 H 0.8131 0.3528 1.0549
C13 C 0.8641(6) 0.3392(5) 0.9122(6)
C14 C 0.7768(6) 0.3505(6) 0.8972(9)
H7 H 0.7639 0.3262 0.8512
H8 H 0.7469 0.3256 0.9356
C15 C 0.7492(8) 0.4292(6) 0.8930(11)
H9 H 0.7392 0.4474 0.9422
H10 H 0.7909 0.4593 0.8717
C16 C 0.6757(9) 0.4380(6) 0.8482(10)
H11 H 0.6610 0.4895 0.8466
H12 H 0.6335 0.4097 0.8699
H13 H 0.6852 0.4205 0.7992
C17 C 0.8781(4) 0.2546(4) 0.9149(5)
H14 H 0.8481 0.2343 0.9557
H15 H 0.8572 0.2329 0.8702
C18 C 0.9616(4) 0.2317(3) 0.9229(4)
H16 H 0.9839 0.2543 0.9666
H17 H 0.9918 0.2487 0.8809
C19 C 0.9677(5) 0.1482(3) 0.9287(5)
H18 H 1.0224 0.1341 0.9328
H19 H 0.9452 0.1258 0.8857
H20 H 0.9394 0.1315 0.9714
C20 C 0.6962(2) 0.51272(18) 1.2245(2)
C21 C 0.7024(2) 0.43789(19) 1.2147(2)
H21 H 0.6631 0.4060 1.2318
C22 C 0.7680(2) 0.41083(19) 1.17911(19)
H22 H 0.7728 0.3598 1.1722
C23 C 0.82686(19) 0.45663(18) 1.15328(19)
C24 C 0.8231(2) 0.53054(19) 1.17053(19)
H23 H 0.8649 0.5618 1.1582
C25 C 0.7584(2) 0.55844(18) 1.2056(2)
C26 C 0.65108(19) 0.63118(19) 1.2309(2)
C27 C 0.6284(2) 0.55875(19) 1.23894(19)
C28 C 0.5494(2) 0.5419(2) 1.2425(2)
H24 H 0.5330 0.4950 1.2576
C29 C 0.4948(2) 0.59429(19) 1.2238(2)
H25 H 0.4411 0.5824 1.2251
C30 C 0.51761(19) 0.6644(2) 1.2030(2)
C31 C 0.5956(2) 0.68414(19) 1.2143(2)
H26 H 0.6106 0.7337 1.2107
C32 C 0.7388(4) 0.6359(4) 1.2238(5)
C33 C 0.7608(6) 0.6887(6) 1.1638(6)
H27 H 0.8182 0.6906 1.1604
H28 H 0.7426 0.7379 1.1773
C34 C 0.7282(7) 0.6702(7) 1.0894(6)
H29 H 0.7638 0.6357 1.0652
H30 H 0.6774 0.6457 1.0953
C35 C 0.7175(10) 0.7370(7) 1.0417(7)
H31 H 0.6967 0.7220 0.9950
H32 H 0.7677 0.7611 1.0348
H33 H 0.6812 0.7708 1.0647
C36 C 0.7798(6) 0.6583(6) 1.2949(5)
H34 H 0.8364 0.6601 1.2858
H35 H 0.7629 0.7083 1.3072
C37 C 0.7662(6) 0.6107(6) 1.3596(5)
H36 H 0.7842 0.5608 1.3486
H37 H 0.7098 0.6084 1.3695
C38 C 0.8084(7) 0.6384(7) 1.4271(6)
H38 H 0.7974 0.6059 1.4675
H39 H 0.7902 0.6876 1.4386
H40 H 0.8644 0.6395 1.4181
C39 C 0.46469(18) 0.76200(18) 1.0059(2)
C40 C 0.4827(2) 0.80846(19) 1.0635(2)
H41 H 0.4909 0.8589 1.0554
C41 C 0.4885(2) 0.77998(19) 1.1323(2)
H42 H 0.5014 0.8113 1.1711
C42 C 0.4755(2) 0.70582(19) 1.1458(2)
C43 C 0.44437(19) 0.66405(19) 1.0895(2)
H43 H 0.4259 0.6164 1.0991
C44 C 0.44012(19) 0.69103(18) 1.0206(2)
C45 C 0.4307(2) 0.64675(18) 0.9513(2)
C46 C 0.46746(19) 0.69930(18) 0.8973(2)
C47 C 0.48183(19) 0.76760(17) 0.9288(2)
C48 C 0.51843(19) 0.82115(18) 0.8879(2)
H44 H 0.5247 0.8689 0.9066
C49 C 0.5456(2) 0.80436(19) 0.8198(2)
H45 H 0.5710 0.8409 0.7924
C50 C 0.53648(19) 0.73480(19) 0.7903(2)
C51 C 0.4936(2) 0.68345(19) 0.8297(2)
H46 H 0.4827 0.6373 0.8091
C52 C 0.4745(2) 0.57417(18) 0.9563(2)
H47 H 0.4501 0.5443 0.9944
H48 H 0.4680 0.5479 0.9102
C53 C 0.5615(2) 0.58032(19) 0.9724(2)
H49 H 0.5902 0.5846 0.9265
H50 H 0.5710 0.6252 1.0005
C54 C 0.5924(2) 0.5155(2) 1.0139(3)
H51 H 0.6480 0.5221 1.0229
H52 H 0.5842 0.4711 0.9859
H53 H 0.5649 0.5116 1.0599
C55 C 0.3462(3) 0.6365(4) 0.9224(3)
H54 H 0.3216 0.6849 0.9175
H55 H 0.3487 0.6144 0.8739
C56 C 0.2952(3) 0.5891(3) 0.9700(3)
H56 H 0.2954 0.6089 1.0195
H57 H 0.3172 0.5394 0.9718
C57 C 0.2116(3) 0.5852(3) 0.9428(4)
H58 H 0.1809 0.5545 0.9752
H59 H 0.2110 0.5643 0.8943
H60 H 0.1893 0.6342 0.9415
C58 C 0.69370(19) 0.61654(19) 0.66132(19)
C59 C 0.6142(2) 0.6048(2) 0.6507(2)
H61 H 0.5967 0.5669 0.6200
C60 C 0.5614(2) 0.6494(2) 0.6856(2)
H62 H 0.5074 0.6411 0.6791
C61 C 0.58568(19) 0.70666(18) 0.7304(2)
C62 C 0.66499(19) 0.72319(18) 0.7323(2)
H63 H 0.6823 0.7658 0.7564
C63 C 0.71782(19) 0.67838(17) 0.69967(18)
C64 C 0.80478(19) 0.67666(17) 0.71375(19)
C65 C 0.82469(19) 0.60110(17) 0.68609(18)
C66 C 0.7604(2) 0.56761(19) 0.65292(19)
C67 C 0.7660(2) 0.49450(19) 0.6330(2)
H64 H 0.7263 0.4725 0.6050
C68 C 0.8302(2) 0.45428(19) 0.6545(2)
H65 H 0.8334 0.4044 0.6416
C69 C 0.8905(2) 0.48570(18) 0.69494(18)
C70 C 0.88935(19) 0.56131(18) 0.70548(19)
H66 H 0.9331 0.5851 0.7260
C71 C 0.8216(2) 0.68140(18) 0.79549(19)
H67 H 0.8781 0.6751 0.8031
H68 H 0.8076 0.7307 0.8125
C72 C 0.7782(2) 0.6251(2) 0.8418(2)
H69 H 0.7253 0.6433 0.8522
H70 H 0.7731 0.5792 0.8144
C73 C 0.8198(3) 0.6098(2) 0.9124(2)
H71 H 0.7902 0.5740 0.9401
H72 H 0.8243 0.6550 0.9400
H73 H 0.8718 0.5906 0.9024
C74 C 0.8512(2) 0.73614(18) 0.67424(18)
H74 H 0.8362 0.7840 0.6943
H75 H 0.9071 0.7289 0.6844
C75 C 0.8398(2) 0.7383(2) 0.5929(2)
H76 H 0.8579 0.6918 0.5720
H77 H 0.7838 0.7433 0.5822
C76 C 0.8835(3) 0.8004(2) 0.5582(2)
H78 H 0.8743 0.7998 0.5062
H79 H 0.9392 0.7951 0.5676
H80 H 0.8652 0.8467 0.5782
C77? C 0.8802(8) 0.3317(6) 0.9151(7)
C78? C 0.7939(8) 0.3330(8) 0.9011(11)
H81? H 0.7681 0.3046 0.9395
H82? H 0.7840 0.3076 0.8551
C79? C 0.7553(10) 0.4078(8) 0.8975(13)
H83? H 0.7426 0.4240 0.9469
H84? H 0.7925 0.4431 0.8768
C80? C 0.6813(11) 0.4080(8) 0.8523(13)
H85? H 0.6594 0.4572 0.8515
H86? H 0.6435 0.3743 0.8734
H87? H 0.6935 0.3926 0.8032
C81? C 0.9155(6) 0.2551(5) 0.9144(6)
H88? H 0.9053 0.2329 0.8668
H89? H 0.9725 0.2597 0.9197
C82? C 0.8860(5) 0.2041(4) 0.9718(4)
H90? H 0.8285 0.2026 0.9700
H91? H 0.9014 0.2228 1.0197
C83? C 0.9183(7) 0.1266(4) 0.9621(6)
H92? H 0.8991 0.0954 1.0010
H93? H 0.9751 0.1280 0.9635
H94? H 0.9012 0.1071 0.9157
C84? C 0.7384(10) 0.6421(10) 1.2115(12)
C85? C 0.7541(18) 0.6903(17) 1.1435(13)
H95? H 0.7395 0.7411 1.1547
H96? H 0.8105 0.6896 1.1331
C86? C 0.711(2) 0.6670(19) 1.0773(13)
H97? H 0.6579 0.6528 1.0909
H98? H 0.7373 0.6235 1.0570
C87? C 0.707(3) 0.726(2) 1.0187(16)
H99? H 0.6811 0.7063 0.9760
H100? H 0.7596 0.7417 1.0059
H101? H 0.6774 0.7678 1.0368
C88? C 0.7868(16) 0.6750(14) 1.2749(12)
H102? H 0.8421 0.6769 1.2602
H103? H 0.7694 0.7257 1.2831
C89? C 0.7810(15) 0.6340(15) 1.3445(12)
H104? H 0.7955 0.5827 1.3359
H105? H 0.7263 0.6348 1.3609
C90? C 0.8329(17) 0.6649(18) 1.4049(15)
H106? H 0.8258 0.6361 1.4487
H107? H 0.8184 0.7156 1.4143
H108? H 0.8874 0.6627 1.3899
C91? C 0.3417(8) 0.6354(11) 0.9543(9)
H109? H 0.3283 0.6070 0.9978
H110? H 0.3157 0.6833 0.9580
C92? C 0.3120(6) 0.5955(8) 0.8877(7)
H111? H 0.3312 0.6206 0.8440
H112? H 0.3328 0.5453 0.8874
C93? C 0.2235(7) 0.5929(9) 0.8860(10)
H113? H 0.2063 0.5692 0.8416
H114? H 0.2028 0.6425 0.8879
H115? H 0.2046 0.5652 0.9275
loop_
_geom_bond_atom_site_label_1
_geom_bond_atom_site_label_2
_geom_bond_site_symmetry_1
_geom_bond_site_symmetry_2
C1 C2 1_555 1_555
C2 H1 1_555 1_555
C3 C2 1_555 1_555
H2 C3 1_555 1_555
C4 C3 1_555 1_555
C5 C4 1_555 1_555
H3 C5 1_555 1_555
C6 C1 1_555 1_555
C7 C8 1_555 1_555
C8 C1 1_555 1_555
C9 C8 1_555 1_555
H4 C9 1_555 1_555
C10 C9 1_555 1_555
H5 C10 1_555 1_555
C11 C10 1_555 1_555
C12 C7 1_555 1_555
H6 C12 1_555 1_555
C13 C6 1_555 1_555
C14 C13 1_555 1_555
H7 C14 1_555 1_555
H8 C14 1_555 1_555
C15 C14 1_555 1_555
H9 C15 1_555 1_555
H10 C15 1_555 1_555
C16 C15 1_555 1_555
H11 C16 1_555 1_555
H12 C16 1_555 1_555
H13 C16 1_555 1_555
C17 C13 1_555 1_555
H14 C17 1_555 1_555
H15 C17 1_555 1_555
C18 C17 1_555 1_555
H16 C18 1_555 1_555
H17 C18 1_555 1_555
C19 C18 1_555 1_555
H18 C19 1_555 1_555
H19 C19 1_555 1_555
H20 C19 1_555 1_555
C20 C21 1_555 1_555
C21 H21 1_555 1_555
C22 C21 1_555 1_555
H22 C22 1_555 1_555
C23 C11 1_555 1_555
C24 C23 1_555 1_555
H23 C24 1_555 1_555
C25 C20 1_555 1_555
C26 C27 1_555 1_555
C27 C20 1_555 1_555
C28 C27 1_555 1_555
H24 C28 1_555 1_555
C29 C28 1_555 1_555
H25 C29 1_555 1_555
C30 C29 1_555 1_555
C31 C26 1_555 1_555
H26 C31 1_555 1_555
C32 C25 1_555 1_555
C33 C32 1_555 1_555
H27 C33 1_555 1_555
H28 C33 1_555 1_555
C34 C33 1_555 1_555
H29 C34 1_555 1_555
H30 C34 1_555 1_555
C35 C34 1_555 1_555
H31 C35 1_555 1_555
H32 C35 1_555 1_555
H33 C35 1_555 1_555
C36 C32 1_555 1_555
H34 C36 1_555 1_555
H35 C36 1_555 1_555
C37 C36 1_555 1_555
H36 C37 1_555 1_555
H37 C37 1_555 1_555
C38 C37 1_555 1_555
H38 C38 1_555 1_555
H39 C38 1_555 1_555
H40 C38 1_555 1_555
C39 C40 1_555 1_555
C40 H41 1_555 1_555
C41 C40 1_555 1_555
H42 C41 1_555 1_555
C42 C30 1_555 1_555
C43 C42 1_555 1_555
H43 C43 1_555 1_555
C44 C39 1_555 1_555
C45 C44 1_555 1_555
C46 C45 1_555 1_555
C47 C39 1_555 1_555
C48 C47 1_555 1_555
H44 C48 1_555 1_555
C49 C48 1_555 1_555
H45 C49 1_555 1_555
C50 C49 1_555 1_555
C51 C46 1_555 1_555
H46 C51 1_555 1_555
C52 C45 1_555 1_555
H47 C52 1_555 1_555
H48 C52 1_555 1_555
C53 C52 1_555 1_555
H49 C53 1_555 1_555
H50 C53 1_555 1_555
C54 C53 1_555 1_555
H51 C54 1_555 1_555
H52 C54 1_555 1_555
H53 C54 1_555 1_555
C55 C45 1_555 1_555
H54 C55 1_555 1_555
H55 C55 1_555 1_555
C56 C55 1_555 1_555
H56 C56 1_555 1_555
H57 C56 1_555 1_555
C57 C56 1_555 1_555
H58 C57 1_555 1_555
H59 C57 1_555 1_555
H60 C57 1_555 1_555
C58 C59 1_555 1_555
C59 H61 1_555 1_555
C60 C59 1_555 1_555
H62 C60 1_555 1_555
C61 C50 1_555 1_555
C62 C61 1_555 1_555
H63 C62 1_555 1_555
C63 C58 1_555 1_555
C64 C63 1_555 1_555
C65 C64 1_555 1_555
C66 C58 1_555 1_555
C67 C66 1_555 1_555
H64 C67 1_555 1_555
C68 C67 1_555 1_555
H65 C68 1_555 1_555
C69 C4 1_555 1_555
C70 C65 1_555 1_555
H66 C70 1_555 1_555
C71 C64 1_555 1_555
H67 C71 1_555 1_555
H68 C71 1_555 1_555
C72 C71 1_555 1_555
H69 C72 1_555 1_555
H70 C72 1_555 1_555
C73 C72 1_555 1_555
H71 C73 1_555 1_555
H72 C73 1_555 1_555
H73 C73 1_555 1_555
C74 C64 1_555 1_555
H74 C74 1_555 1_555
H75 C74 1_555 1_555
C75 C74 1_555 1_555
H76 C75 1_555 1_555
H77 C75 1_555 1_555
C76 C75 1_555 1_555
H78 C76 1_555 1_555
H79 C76 1_555 1_555
H80 C76 1_555 1_555
C5 C6 1_555 1_555
C7 C13 1_555 1_555
C11 C12 1_555 1_555
C22 C23 1_555 1_555
C24 C25 1_555 1_555
C26 C32 1_555 1_555
C30 C31 1_555 1_555
C41 C42 1_555 1_555
C43 C44 1_555 1_555
C46 C47 1_555 1_555
C50 C51 1_555 1_555
C60 C61 1_555 1_555
C62 C63 1_555 1_555
C65 C66 1_555 1_555
C68 C69 1_555 1_555
C69 C70 1_555 1_555

#END
