
#######################################################################
#
#                 Cambridge Crystallographic Data Centre
#                                CCDC 
#
#######################################################################
#
# If this CIF has been generated from an entry in the Cambridge 
# Structural Database, then it will include bibliographic, chemical, 
# crystal, experimental, refinement or atomic coordinate data resulting 
# from the CCDC's data processing and validation procedures.
#
#######################################################################

data_SUXLEE
_chemical_compound_source        
'isolated from the dried aerial parts of Artemisia sieversiana'
_chemical_name_common            1beta,10beta-epoxy-8alpha-acetoxyachillin
_chemical_formula_moiety         'C17 H20 O6'
_chemical_name_systematic        
'1,4a,7-trimethyl-3,8-dioxo-4a,5,6,6a,7,8,9a,9b-octahydro-3H-oxireno[8,8a]azuleno[4,5-b]furan-6-yl acetate'
_chemical_properties_biological  
'significant inhibitory effects on the NO production in LPS-stimulated BV-2 microglial cells'
_symmetry_cell_setting           orthorhombic
_symmetry_space_group_name_H-M   'P 21 21 21'
_symmetry_Int_Tables_number      19
_space_group_name_Hall           'P 2ac 2ab'
loop_
_symmetry_equiv_pos_site_id
_symmetry_equiv_pos_as_xyz
1 x,y,z
2 1/2-x,-y,1/2+z
3 1/2+x,1/2-y,-z
4 -x,1/2+y,1/2-z
_cell_length_a                   5.6858(12)
_cell_length_b                   14.651(3)
_cell_length_c                   18.313(4)
_cell_angle_alpha                90
_cell_angle_beta                 90
_cell_angle_gamma                90
_cell_volume                     1525.52
_exptl_crystal_colour            colorless
_exptl_crystal_description       Prism
_cell_formula_units_Z            4
loop_
_atom_site_label
_atom_site_type_symbol
_atom_site_fract_x
_atom_site_fract_y
_atom_site_fract_z
O1 O 1.7429(6) 1.4539(2) 1.09737(16)
O2 O 1.2586(6) 1.1567(2) 1.15070(19)
O3 O 2.2649(6) 1.3516(2) 1.42251(17)
O4 O 2.1584(5) 1.3479(2) 1.26588(16)
O5 O 1.5273(6) 1.1992(2) 1.23236(16)
C1 C 1.7603(9) 1.2298(3) 1.3750(2)
C2 C 2.0507(8) 1.4354(3) 1.2818(2)
C3 C 1.9042(9) 1.4720(3) 1.2190(2)
H1 H 1.9893 1.5221 1.1966
H2 H 1.7594 1.4967 1.2388
O6 O 2.1040(7) 1.4613(2) 1.04642(19)
C4 C 1.9791(9) 1.3526(3) 1.3228(2)
C5 C 1.7483(9) 1.2993(3) 1.3137(2)
H3 H 1.6177 1.3410 1.3241
C6 C 1.8408(9) 1.4035(3) 1.1594(2)
H4 H 1.9812 1.3697 1.1442
C7 C 1.5328(9) 1.2812(3) 1.1206(2)
H5 H 1.4124 1.3170 1.0953
C8 C 1.4200(9) 1.2067(3) 1.1664(3)
C9 C 1.5869(9) 1.1556(3) 1.3857(3)
H6 H 1.4309 1.1806 1.3850
H7 H 1.6146 1.1265 1.4319
H8 H 1.6029 1.1116 1.3472
C10 C 1.8954(10) 1.4750(3) 1.0429(3)
C11 C 1.6472(9) 1.3375(3) 1.1812(2)
H9 H 1.5222 1.3737 1.2040
C12 C 1.9376(10) 1.2477(3) 1.4213(3)
H10 H 1.9648 1.2158 1.4643
C13 C 2.0817(9) 1.3230(3) 1.3957(3)
C14 C 1.7204(8) 1.2650(3) 1.2361(2)
H11 H 1.8668 1.2359 1.2201
C15 C 1.7662(10) 1.5150(3) 0.9790(2)
H12 H 1.7769 1.4742 0.9382
H13 H 1.8350 1.5727 0.9663
H14 H 1.6039 1.5238 0.9918
C16 C 2.2055(9) 1.5069(3) 1.3160(3)
H15 H 2.2898 1.4806 1.3563
H16 H 2.1102 1.5565 1.3332
H17 H 2.3154 1.5291 1.2804
C17 C 1.7017(11) 1.2392(4) 1.0665(3)
H18 H 1.8312 1.2122 1.0922
H19 H 1.7594 1.2857 1.0342
H20 H 1.6217 1.1931 1.0387
loop_
_geom_bond_atom_site_label_1
_geom_bond_atom_site_label_2
_geom_bond_site_symmetry_1
_geom_bond_site_symmetry_2
O1 C6 1_555 1_555
O2 C8 1_555 1_555
O3 C13 1_555 1_555
O4 C2 1_555 1_555
O5 C8 1_555 1_555
C1 C5 1_555 1_555
C2 C3 1_555 1_555
C3 H1 1_555 1_555
H2 C3 1_555 1_555
O6 C10 1_555 1_555
C4 O4 1_555 1_555
C5 C4 1_555 1_555
H3 C5 1_555 1_555
C6 C3 1_555 1_555
H4 C6 1_555 1_555
C7 H5 1_555 1_555
C8 C7 1_555 1_555
C9 C1 1_555 1_555
H6 C9 1_555 1_555
H7 C9 1_555 1_555
H8 C9 1_555 1_555
C10 O1 1_555 1_555
C11 C6 1_555 1_555
H9 C11 1_555 1_555
C12 C1 1_555 1_555
H10 C12 1_555 1_555
C13 C4 1_555 1_555
C14 O5 1_555 1_555
H11 C14 1_555 1_555
C15 C10 1_555 1_555
H12 C15 1_555 1_555
H13 C15 1_555 1_555
H14 C15 1_555 1_555
C16 C2 1_555 1_555
H15 C16 1_555 1_555
H16 C16 1_555 1_555
H17 C16 1_555 1_555
C17 C7 1_555 1_555
H18 C17 1_555 1_555
H19 C17 1_555 1_555
H20 C17 1_555 1_555
C2 C4 1_555 1_555
C5 C14 1_555 1_555
C7 C11 1_555 1_555
C11 C14 1_555 1_555
C12 C13 1_555 1_555

#END
