
#######################################################################
#
#                 Cambridge Crystallographic Data Centre
#                                CCDC 
#
#######################################################################
#
# If this CIF has been generated from an entry in the Cambridge 
# Structural Database, then it will include bibliographic, chemical, 
# crystal, experimental, refinement or atomic coordinate data resulting 
# from the CCDC's data processing and validation procedures.
#
#######################################################################

data_SUXYUF
_chemical_formula_moiety         'C11 H20 N6 O1 2+,O4 S1 2-,H2 O1'
_chemical_name_systematic        
'2,6-bis(Guanidiniummethyl)-4-methylphenol sulfate monohydrate'
_symmetry_cell_setting           monoclinic
_symmetry_space_group_name_H-M   'P 21/c'
_symmetry_Int_Tables_number      14
_space_group_name_Hall           '-P 2ybc'
loop_
_symmetry_equiv_pos_site_id
_symmetry_equiv_pos_as_xyz
1 x,y,z
2 x,1/2-y,1/2+z
3 -x,-y,-z
4 -x,1/2+y,1/2-z
_cell_length_a                   7.6433(15)
_cell_length_b                   19.447(4)
_cell_length_c                   12.115(2)
_cell_angle_alpha                90
_cell_angle_beta                 107.81(3)
_cell_angle_gamma                90
_cell_volume                     1714.46
_exptl_crystal_colour            orange
_exptl_crystal_description       prismatic
_chemical_melting_point          308-309deg.C
_cell_formula_units_Z            4
loop_
_atom_site_label
_atom_site_type_symbol
_atom_site_fract_x
_atom_site_fract_y
_atom_site_fract_z
S1 S 0.21944(9) 0.33843(4) 0.42052(6)
O2 O 0.2509(3) 0.28116(11) 0.50216(18)
O3 O 0.3935(2) 0.37723(11) 0.43431(19)
O4 O 0.1509(3) 0.31270(11) 0.29954(17)
O5 O 0.0762(2) 0.38550(10) 0.44109(17)
O1 O 0.5350(2) 0.17293(10) 0.31799(15)
N1 N 0.8927(3) 0.03408(13) 0.0879(2)
H3 H 0.9787 0.0601 0.0796
H4 H 0.8889 -0.0086 0.0686
N2 N 0.7724(3) 0.12619(12) 0.1605(2)
H5 H 0.6903 0.1437 0.1873
H6 H 0.8602 0.1514 0.1526
N3 N 0.6288(3) 0.01897(12) 0.14230(19)
H7 H 0.6203 -0.0215 0.1126
N4 N 0.4493(3) 0.18478(12) 0.68008(19)
H8 H 0.3714 0.1746 0.7158
H9 H 0.4114 0.1983 0.6091
N5 N 0.7573(3) 0.19465(12) 0.67990(18)
H10 H 0.8674 0.2046 0.7215
N6 N 0.6919(3) 0.15869(13) 0.8446(2)
H11 H 0.6152 0.1484 0.8811
H12 H 0.8081 0.1555 0.8789
C1 C 0.8514(4) -0.06296(16) 0.5906(3)
H13 H 0.7993 -0.1045 0.5513
H14 H 0.8297 -0.0610 0.6645
H15 H 0.9814 -0.0625 0.6019
C2 C 0.7628(3) -0.00123(14) 0.5181(2)
C3 C 0.7768(4) 0.06448(14) 0.5666(2)
H16 H 0.8415 0.0699 0.6447
C4 C 0.6971(3) 0.12257(14) 0.5022(2)
C5 C 0.6020(3) 0.11367(14) 0.3833(2)
C6 C 0.5866(4) 0.04898(14) 0.3317(2)
C7 C 0.6674(3) -0.00781(15) 0.4008(2)
H17 H 0.6567 -0.0511 0.3668
C8 C 0.4929(4) 0.03886(16) 0.2025(2)
H18 H 0.4001 0.0033 0.1911
H19 H 0.4321 0.0812 0.1692
C9 C 0.7635(4) 0.06021(14) 0.1314(2)
C10 C 0.7157(4) 0.19498(15) 0.5540(2)
H20 H 0.8127 0.2192 0.5339
H21 H 0.6020 0.2199 0.5200
C11 C 0.6312(3) 0.17948(13) 0.7353(2)
H22 H 0.393(5) 0.1631(19) 0.281(3)
O6 O 0.1510(3) 0.18468(11) 0.19892(16)
H1 H 0.195(3) 0.2011(18) 0.1359(18)
H2 H 0.172(7) 0.2233(11) 0.252(2)
loop_
_geom_bond_atom_site_label_1
_geom_bond_atom_site_label_2
_geom_bond_site_symmetry_1
_geom_bond_site_symmetry_2
S1 O2 1_555 1_555
O1 C5 1_555 1_555
O3 S1 1_555 1_555
O4 S1 1_555 1_555
O5 S1 1_555 1_555
O6 H1 1_555 1_555
H2 O6 1_555 1_555
N1 H3 1_555 1_555
H4 N1 1_555 1_555
N2 H5 1_555 1_555
H6 N2 1_555 1_555
N3 H7 1_555 1_555
N4 H8 1_555 1_555
H9 N4 1_555 1_555
N5 H10 1_555 1_555
N6 H11 1_555 1_555
H12 N6 1_555 1_555
C1 H13 1_555 1_555
H14 C1 1_555 1_555
H15 C1 1_555 1_555
C2 C1 1_555 1_555
C3 C2 1_555 1_555
H16 C3 1_555 1_555
C4 C3 1_555 1_555
C5 C4 1_555 1_555
C6 C5 1_555 1_555
C7 C2 1_555 1_555
H17 C7 1_555 1_555
C8 N3 1_555 1_555
H18 C8 1_555 1_555
H19 C8 1_555 1_555
C9 N1 1_555 1_555
C10 N5 1_555 1_555
H20 C10 1_555 1_555
H21 C10 1_555 1_555
C11 N4 1_555 1_555
H22 O1 1_555 1_555
N2 C9 1_555 1_555
N3 C9 1_555 1_555
N5 C11 1_555 1_555
N6 C11 1_555 1_555
C4 C10 1_555 1_555
C6 C7 1_555 1_555
C6 C8 1_555 1_555

#END
