
#######################################################################
#
#                 Cambridge Crystallographic Data Centre
#                                CCDC 
#
#######################################################################
#
# If this CIF has been generated from an entry in the Cambridge 
# Structural Database, then it will include bibliographic, chemical, 
# crystal, experimental, refinement or atomic coordinate data resulting 
# from the CCDC's data processing and validation procedures.
#
#######################################################################

data_SUYKOM01
_chemical_formula_moiety         'C18 H16 N2 O1'
_chemical_name_systematic        
2,2'-dimethyl-1,2-dihydro-1'H,3H-[2,3'-biindol]-3-one
_symmetry_cell_setting           triclinic
_symmetry_space_group_name_H-M   'P -1'
_symmetry_Int_Tables_number      2
_space_group_name_Hall           '-P 1'
loop_
_symmetry_equiv_pos_site_id
_symmetry_equiv_pos_as_xyz
1 x,y,z
2 -x,-y,-z
_cell_length_a                   7.1656(18)
_cell_length_b                   9.8359(19)
_cell_length_c                   10.6551(16)
_cell_angle_alpha                106.495(15)
_cell_angle_beta                 95.204(17)
_cell_angle_gamma                93.306(18)
_cell_volume                     714.356
_exptl_crystal_colour            colorless
_exptl_crystal_description       plate
_cell_formula_units_Z            2
loop_
_atom_site_label
_atom_site_type_symbol
_atom_site_fract_x
_atom_site_fract_y
_atom_site_fract_z
O1 O -0.0989(5) 0.3688(3) 0.6559(3)
N1 N 0.2452(5) 0.5055(4) 1.0887(4)
N2 N 0.3976(6) 0.3999(4) 0.6630(4)
C1 C 0.2520(5) 0.3234(4) 0.9034(4)
C2 C 0.1488(6) 0.2554(4) 0.5323(4)
C3 C 0.2421(5) 0.4552(4) 0.8674(4)
C4 C 0.0627(7) 0.1381(5) 0.4306(4)
H1 H -0.0675 0.1204 0.4166
C5 C 0.3454(7) 0.2825(5) 0.5553(4)
C6 C 0.4580(7) 0.1921(5) 0.4745(5)
H2 H 0.5884 0.2091 0.4872
C7 C 0.2593(6) 0.1784(4) 0.8326(4)
H3 H 0.2605 0.1513 0.7416
C8 C 0.2513(6) 0.3587(4) 1.0406(4)
C9 C 0.2587(6) 0.2578(5) 1.1104(4)
H4 H 0.2601 0.2842 1.2015
C10 C 0.2341(6) 0.4601(4) 0.7248(4)
C11 C 0.3715(8) 0.0778(5) 0.3760(5)
H5 H 0.4463 0.0167 0.3232
C12 C 0.2372(6) 0.5631(4) 0.9824(4)
C13 C 0.0675(7) 0.3579(4) 0.6369(4)
C14 C 0.1765(8) 0.0490(5) 0.3513(4)
H6 H 0.1233 -0.0289 0.2826
C15 C 0.2640(7) 0.1167(5) 1.0379(5)
H7 H 0.2673 0.0469 1.0811
C16 C 0.2341(7) 0.7227(4) 1.0177(5)
H8 H 0.3488 0.7636 0.9982
H9 H 0.2221 0.7599 1.1099
H10 H 0.1292 0.7460 0.9673
C17 C 0.2645(7) 0.0775(4) 0.9013(5)
H11 H 0.2685 -0.0179 0.8554
C18 C 0.2122(7) 0.6084(4) 0.7050(5)
H12 H 0.3218 0.6711 0.7469
H13 H 0.1031 0.6464 0.7433
H14 H 0.1980 0.5998 0.6125
H15 H 0.520(6) 0.416(4) 0.693(4)
H16 H 0.203(7) 0.554(5) 1.182(6)
loop_
_geom_bond_atom_site_label_1
_geom_bond_atom_site_label_2
_geom_bond_site_symmetry_1
_geom_bond_site_symmetry_2
O1 C13 1_555 1_555
N1 C8 1_555 1_555
N2 C5 1_555 1_555
C1 C3 1_555 1_555
C2 C4 1_555 1_555
C3 C10 1_555 1_555
C4 H1 1_555 1_555
C5 C2 1_555 1_555
C6 C5 1_555 1_555
H2 C6 1_555 1_555
C7 C1 1_555 1_555
H3 C7 1_555 1_555
C8 C1 1_555 1_555
C9 C8 1_555 1_555
H4 C9 1_555 1_555
C10 N2 1_555 1_555
C11 C6 1_555 1_555
H5 C11 1_555 1_555
C12 N1 1_555 1_555
C13 C2 1_555 1_555
C14 C4 1_555 1_555
H6 C14 1_555 1_555
C15 C9 1_555 1_555
H7 C15 1_555 1_555
C16 C12 1_555 1_555
H8 C16 1_555 1_555
H9 C16 1_555 1_555
H10 C16 1_555 1_555
C17 C7 1_555 1_555
H11 C17 1_555 1_555
C18 C10 1_555 1_555
H12 C18 1_555 1_555
H13 C18 1_555 1_555
H14 C18 1_555 1_555
H15 N2 1_555 1_555
H16 N1 1_555 1_555
C3 C12 1_555 1_555
C10 C13 1_555 1_555
C11 C14 1_555 1_555
C15 C17 1_555 1_555

#END
