
#######################################################################
#
#                 Cambridge Crystallographic Data Centre
#                                CCDC 
#
#######################################################################
#
# If this CIF has been generated from an entry in the Cambridge 
# Structural Database, then it will include bibliographic, chemical, 
# crystal, experimental, refinement or atomic coordinate data resulting 
# from the CCDC's data processing and validation procedures.
#
#######################################################################

data_SUYLEE01
_chemical_name_common            Mg-MOF-2
_chemical_formula_moiety         'C14 H18 Mg2 N2 O14'
_chemical_name_systematic        
bis(\m~2~-Pyridine-2,4-dicarboxylato)-bis[triaqua-magnesium(ii)]
_symmetry_cell_setting           orthorhombic
_symmetry_space_group_name_H-M   'P b c a'
_symmetry_Int_Tables_number      61
_space_group_name_Hall           '-P 2ac 2ab'
loop_
_symmetry_equiv_pos_site_id
_symmetry_equiv_pos_as_xyz
1 x,y,z
2 1/2-x,-y,1/2+z
3 1/2+x,1/2-y,-z
4 -x,1/2+y,1/2-z
5 -x,-y,-z
6 1/2+x,y,1/2-z
7 1/2-x,1/2+y,z
8 x,1/2-y,1/2+z
_cell_length_a                   7.9273(18)
_cell_length_b                   12.057(3)
_cell_length_c                   20.301(4)
_cell_angle_alpha                90
_cell_angle_beta                 90
_cell_angle_gamma                90
_cell_volume                     1940.36
_exptl_crystal_colour            colorless
_exptl_crystal_description       prismatic
_cell_formula_units_Z            4
loop_
_atom_site_label
_atom_site_type_symbol
_atom_site_fract_x
_atom_site_fract_y
_atom_site_fract_z
Mg1 Mg 0.08038(7) 0.39821(4) 0.04314(2)
O1 O 0.10289(17) 0.47955(11) 0.39672(6)
O2 O -0.0105(4) 0.63394(16) 0.35841(7)
O3 O -0.0983(3) 0.69222(14) 0.12082(7)
O4 O -0.00860(15) 0.56164(9) 0.05149(5)
O5 O 0.1559(2) 0.23883(11) 0.04665(7)
H1 H 0.1159 0.1914 0.0771
H2 H 0.2211 0.2050 0.0213
O6 O -0.15907(15) 0.33644(9) 0.06627(6)
H3 H -0.2410 0.3781 0.0803
H4 H -0.1703 0.2795 0.0858
O7 O 0.32142(16) 0.44067(13) 0.01935(6)
H5 H 0.4106 0.4399 0.0460
H6 H 0.3548 0.4520 -0.0198
N1 N 0.11328(18) 0.43867(11) 0.14904(6)
C1 C 0.0453(2) 0.53726(13) 0.16496(7)
C2 C 0.0307(2) 0.57402(13) 0.22941(7)
H7 H -0.0145 0.6435 0.2385
C3 C 0.0845(2) 0.50540(13) 0.28013(7)
C4 C 0.1542(2) 0.40369(13) 0.26438(8)
H8 H 0.1914 0.3560 0.2973
C5 C 0.1678(2) 0.37394(14) 0.19830(8)
H9 H 0.2170 0.3061 0.1879
C6 C 0.0575(3) 0.54348(15) 0.35075(8)
C7 C -0.0259(3) 0.60581(14) 0.10884(8)
Mg1D Mg -0.08038(7) 0.60179(4) -0.04314(2)
O1D O -0.10289(17) 0.52045(11) -0.39672(6)
O2D O 0.0105(4) 0.36606(16) -0.35841(7)
O3D O 0.0983(3) 0.30778(14) -0.12082(7)
O4D O 0.00860(15) 0.43836(9) -0.05149(5)
O5D O -0.1559(2) 0.76117(11) -0.04665(7)
H1D H -0.1159 0.8086 -0.0771
H2D H -0.2211 0.7950 -0.0213
O6D O 0.15907(15) 0.66356(9) -0.06627(6)
H3D H 0.2410 0.6219 -0.0803
H4D H 0.1703 0.7205 -0.0858
O7D O -0.32142(16) 0.55933(13) -0.01935(6)
H5D H -0.4106 0.5601 -0.0460
H6D H -0.3548 0.5480 0.0198
N1D N -0.11328(18) 0.56133(11) -0.14904(6)
C1D C -0.0453(2) 0.46274(13) -0.16496(7)
C2D C -0.0307(2) 0.42598(13) -0.22941(7)
H7D H 0.0145 0.3565 -0.2385
C3D C -0.0845(2) 0.49460(13) -0.28013(7)
C4D C -0.1542(2) 0.59631(13) -0.26438(8)
H8D H -0.1914 0.6440 -0.2973
C5D C -0.1678(2) 0.62606(14) -0.19830(8)
H9D H -0.2170 0.6939 -0.1879
C6D C -0.0575(3) 0.45652(15) -0.35075(8)
C7D C 0.0259(3) 0.39419(14) -0.10884(8)
loop_
_geom_bond_atom_site_label_1
_geom_bond_atom_site_label_2
_geom_bond_site_symmetry_1
_geom_bond_site_symmetry_2
Mg1 O4 1_555 1_555
O1 C6 1_555 1_555
O2 C6 1_555 1_555
O3 C7 1_555 1_555
O4 C7 1_555 1_555
O5 Mg1 1_555 1_555
H1 O5 1_555 1_555
H2 O5 1_555 1_555
O6 Mg1 1_555 1_555
H3 O6 1_555 1_555
H4 O6 1_555 1_555
O7 Mg1 1_555 1_555
H5 O7 1_555 1_555
H6 O7 1_555 1_555
N1 Mg1 1_555 1_555
C1 N1 1_555 1_555
C2 C1 1_555 1_555
H7 C2 1_555 1_555
C3 C2 1_555 1_555
C4 C3 1_555 1_555
H8 C4 1_555 1_555
C5 N1 1_555 1_555
H9 C5 1_555 1_555
C6 C3 1_555 1_555
C7 C1 1_555 1_555
Mg1D O4 1_555 1_555
O1D C6D 1_555 1_555
O2D C6D 1_555 1_555
O3D C7D 1_555 1_555
O4D Mg1 1_555 1_555
O5D Mg1D 1_555 1_555
H1D O5D 1_555 1_555
H2D O5D 1_555 1_555
O6D Mg1D 1_555 1_555
H3D O6D 1_555 1_555
H4D O6D 1_555 1_555
O7D Mg1D 1_555 1_555
H5D O7D 1_555 1_555
H6D O7D 1_555 1_555
N1D Mg1D 1_555 1_555
C1D N1D 1_555 1_555
C2D C1D 1_555 1_555
H7D C2D 1_555 1_555
C3D C2D 1_555 1_555
C4D C3D 1_555 1_555
H8D C4D 1_555 1_555
C5D N1D 1_555 1_555
H9D C5D 1_555 1_555
C6D C3D 1_555 1_555
C7D O4D 1_555 1_555
C4 C5 1_555 1_555
Mg1D O4D 1_555 1_555
C1D C7D 1_555 1_555
C4D C5D 1_555 1_555

#END
