
#######################################################################
#
#                 Cambridge Crystallographic Data Centre
#                                CCDC 
#
#######################################################################
#
# If this CIF has been generated from an entry in the Cambridge 
# Structural Database, then it will include bibliographic, chemical, 
# crystal, experimental, refinement or atomic coordinate data resulting 
# from the CCDC's data processing and validation procedures.
#
#######################################################################

data_SUYPUZ
_chemical_formula_moiety         'C15 H28 O3'
_chemical_name_systematic        
1-(1-Hydroxy-2-methylpropyl)-3a,7-dimethyloctahydro-1H-indene-4,7-diol
_symmetry_cell_setting           orthorhombic
_symmetry_space_group_name_H-M   'P 21 21 2'
_symmetry_Int_Tables_number      18
_space_group_name_Hall           'P 2 2ab'
loop_
_symmetry_equiv_pos_site_id
_symmetry_equiv_pos_as_xyz
1 x,y,z
2 -x,-y,z
3 1/2-x,1/2+y,-z
4 1/2+x,1/2-y,-z
_cell_length_a                   12.2340(10)
_cell_length_b                   15.8951(18)
_cell_length_c                   7.8362(5)
_cell_angle_alpha                90
_cell_angle_beta                 90
_cell_angle_gamma                90
_cell_volume                     1523.83
_exptl_crystal_colour            colorless
_exptl_crystal_description       block
_cell_formula_units_Z            4
loop_
_atom_site_label
_atom_site_type_symbol
_atom_site_fract_x
_atom_site_fract_y
_atom_site_fract_z
O1 O 0.5411(3) 0.6897(2) 1.3177(4)
H1 H 0.4744 0.6845 1.3145
O2 O 0.6526(2) 0.7122(2) 0.6247(4)
H2 H 0.6186 0.7054 0.5356
O3 O 0.8127(2) 0.8297(2) 0.6846(4)
H3 H 0.7905 0.7818 0.6668
C1 C 0.5833(4) 0.6944(4) 1.1466(6)
H4 H 0.6598 0.6763 1.1498
C2 C 0.5220(5) 0.6344(3) 1.0302(6)
H5 H 0.4460 0.6513 1.0239
H6 H 0.5246 0.5782 1.0783
C3 C 0.5705(4) 0.6327(3) 0.8501(6)
H7 H 0.5265 0.5959 0.7792
H8 H 0.6436 0.6093 0.8555
C4 C 0.5760(4) 0.7200(3) 0.7664(5)
C5 C 0.6295(3) 0.7805(3) 0.8932(5)
H9 H 0.7029 0.7571 0.9100
C6 C 0.6505(4) 0.8729(3) 0.8477(6)
H10 H 0.5794 0.8995 0.8273
C7 C 0.6955(4) 0.9078(4) 1.0178(7)
H11 H 0.6639 0.9625 1.0421
H12 H 0.7743 0.9136 1.0120
C8 C 0.6634(4) 0.8439(3) 1.1582(6)
H13 H 0.7273 0.8134 1.1977
H14 H 0.6306 0.8726 1.2547
C9 C 0.5804(4) 0.7830(3) 1.0754(6)
C10 C 0.7213(4) 0.8872(3) 0.6871(6)
H15 H 0.6759 0.8753 0.5869
C11 C 0.7668(4) 0.9764(3) 0.6677(8)
H16 H 0.8124 0.9891 0.7672
C12 C 0.8371(5) 0.9829(4) 0.5077(7)
H17 H 0.7920 0.9759 0.4085
H18 H 0.8921 0.9398 0.5098
H19 H 0.8716 1.0371 0.5041
C13 C 0.6740(5) 1.0401(3) 0.6601(11)
H20 H 0.6366 1.0413 0.7678
H21 H 0.6236 1.0244 0.5718
H22 H 0.7032 1.0949 0.6359
C14 C 0.4660(4) 0.7494(3) 0.6987(6)
H23 H 0.4370 0.7078 0.6224
H24 H 0.4752 0.8015 0.6386
H25 H 0.4165 0.7574 0.7923
C15 C 0.4660(4) 0.8225(3) 1.0912(6)
H26 H 0.4493 0.8319 1.2094
H27 H 0.4127 0.7851 1.0428
H28 H 0.4645 0.8752 1.0312
loop_
_geom_bond_atom_site_label_1
_geom_bond_atom_site_label_2
_geom_bond_site_symmetry_1
_geom_bond_site_symmetry_2
O1 H1 1_555 1_555
O2 H2 1_555 1_555
O3 H3 1_555 1_555
C1 O1 1_555 1_555
H4 C1 1_555 1_555
C2 C1 1_555 1_555
H5 C2 1_555 1_555
H6 C2 1_555 1_555
C3 C2 1_555 1_555
H7 C3 1_555 1_555
H8 C3 1_555 1_555
C4 O2 1_555 1_555
C5 C4 1_555 1_555
H9 C5 1_555 1_555
C6 C5 1_555 1_555
H10 C6 1_555 1_555
C7 C6 1_555 1_555
H11 C7 1_555 1_555
H12 C7 1_555 1_555
C8 C7 1_555 1_555
H13 C8 1_555 1_555
H14 C8 1_555 1_555
C9 C1 1_555 1_555
C10 O3 1_555 1_555
H15 C10 1_555 1_555
C11 C10 1_555 1_555
H16 C11 1_555 1_555
C12 C11 1_555 1_555
H17 C12 1_555 1_555
H18 C12 1_555 1_555
H19 C12 1_555 1_555
C13 C11 1_555 1_555
H20 C13 1_555 1_555
H21 C13 1_555 1_555
H22 C13 1_555 1_555
C14 C4 1_555 1_555
H23 C14 1_555 1_555
H24 C14 1_555 1_555
H25 C14 1_555 1_555
C15 C9 1_555 1_555
H26 C15 1_555 1_555
H27 C15 1_555 1_555
H28 C15 1_555 1_555
C3 C4 1_555 1_555
C5 C9 1_555 1_555
C6 C10 1_555 1_555
C8 C9 1_555 1_555

#END
