
#######################################################################
#
#                 Cambridge Crystallographic Data Centre
#                                CCDC 
#
#######################################################################
#
# If this CIF has been generated from an entry in the Cambridge 
# Structural Database, then it will include bibliographic, chemical, 
# crystal, experimental, refinement or atomic coordinate data resulting 
# from the CCDC's data processing and validation procedures.
#
#######################################################################

data_SUYQEK
_chemical_formula_moiety         'C1 H9 N6 1+,C2 N5 O5 1-'
_chemical_name_systematic        
'Triaminoguanidinium 3-nitro-5-nitroimino-1,2,4-oxadiazole'
_symmetry_cell_setting           triclinic
_symmetry_space_group_name_H-M   'P -1'
_symmetry_Int_Tables_number      2
_space_group_name_Hall           '-P 1'
loop_
_symmetry_equiv_pos_site_id
_symmetry_equiv_pos_as_xyz
1 x,y,z
2 -x,-y,-z
_cell_length_a                   6.4968(19)
_cell_length_b                   8.044(2)
_cell_length_c                   11.014(3)
_cell_angle_alpha                69.479(8)
_cell_angle_beta                 86.486(11)
_cell_angle_gamma                76.085(8)
_cell_volume                     523.082
_exptl_crystal_colour            colorless
_exptl_crystal_description       Prism
_cell_formula_units_Z            2
loop_
_atom_site_label
_atom_site_type_symbol
_atom_site_fract_x
_atom_site_fract_y
_atom_site_fract_z
O1 O 0.44458(11) 0.63033(10) 0.21772(7)
O2 O 0.32909(12) 0.92543(10) 0.15757(7)
O3 O 0.10707(11) 0.81627(9) 0.51901(6)
O4 O 0.06042(11) 0.28729(10) 0.81329(7)
O5 O 0.23500(11) 0.27202(9) 0.64103(7)
N1 N 0.35211(12) 0.77079(11) 0.23658(8)
N2 N 0.17686(13) 0.89482(11) 0.39299(8)
N3 N 0.25880(12) 0.58377(10) 0.45243(7)
N4 N 0.09499(12) 0.54526(10) 0.66745(7)
N5 N 0.13460(12) 0.36282(11) 0.70561(7)
C1 C 0.26109(14) 0.74994(12) 0.36441(9)
C2 C 0.16078(13) 0.63095(12) 0.54830(9)
N6 N 0.34268(12) 0.26820(10) 0.27221(7)
H1 H 0.2123(14) 0.3298(16) 0.2475(12)
N7 N 0.40993(13) 0.21082(11) 0.40275(7)
H2 H 0.368(2) 0.3102(13) 0.4256(13)
H3 H 0.343(2) 0.1229(13) 0.4472(12)
N8 N 0.68975(12) 0.16881(11) 0.22274(8)
H4 H 0.719(2) 0.1200(18) 0.3074(8)
N9 N 0.83617(13) 0.13755(12) 0.12855(8)
H5 H 0.863(2) 0.0172(12) 0.1429(14)
H6 H 0.9538(17) 0.1709(17) 0.1401(14)
N10 N 0.43323(12) 0.30868(11) 0.06013(8)
H7 H 0.5279(18) 0.2865(18) 0.0036(11)
N11 N 0.21794(13) 0.39130(12) 0.02416(8)
H8 H 0.180(2) 0.3432(16) -0.0318(12)
H9 H 0.207(2) 0.5132(11) -0.0172(12)
C3 C 0.48749(14) 0.24767(11) 0.18541(8)
loop_
_geom_bond_atom_site_label_1
_geom_bond_atom_site_label_2
_geom_bond_site_symmetry_1
_geom_bond_site_symmetry_2
O1 N1 1_555 1_555
O2 N1 1_555 1_555
O3 N2 1_555 1_555
O4 N5 1_555 1_555
O5 N5 1_555 1_555
N1 C1 1_555 1_555
N2 C1 1_555 1_555
N3 C1 1_555 1_555
N4 N5 1_555 1_555
C2 O3 1_555 1_555
N6 H1 1_555 1_555
N7 N6 1_555 1_555
H2 N7 1_555 1_555
H3 N7 1_555 1_555
N8 H4 1_555 1_555
N9 N8 1_555 1_555
H5 N9 1_555 1_555
H6 N9 1_555 1_555
N10 H7 1_555 1_555
N11 N10 1_555 1_555
H8 N11 1_555 1_555
H9 N11 1_555 1_555
C3 N6 1_555 1_555
N3 C2 1_555 1_555
N4 C2 1_555 1_555
N8 C3 1_555 1_555
N10 C3 1_555 1_555

#END
