
#######################################################################
#
#                 Cambridge Crystallographic Data Centre
#                                CCDC 
#
#######################################################################
#
# If this CIF has been generated from an entry in the Cambridge 
# Structural Database, then it will include bibliographic, chemical, 
# crystal, experimental, refinement or atomic coordinate data resulting 
# from the CCDC's data processing and validation procedures.
#
#######################################################################

data_SUYROU
_chemical_formula_moiety         'C15 H16 O2 S1'
_chemical_name_systematic        5-t-Butyl-2-hydroxy-3-(2-thienyl)benzaldehyde
_symmetry_cell_setting           triclinic
_symmetry_space_group_name_H-M   'P -1'
_symmetry_Int_Tables_number      2
_space_group_name_Hall           '-P 1'
loop_
_symmetry_equiv_pos_site_id
_symmetry_equiv_pos_as_xyz
1 x,y,z
2 -x,-y,-z
_cell_length_a                   7.2016(14)
_cell_length_b                   8.9375(18)
_cell_length_c                   10.922(2)
_cell_angle_alpha                91.50(3)
_cell_angle_beta                 107.69(3)
_cell_angle_gamma                93.25(3)
_cell_volume                     667.972
_exptl_crystal_colour            yellow
_exptl_crystal_description       block
_cell_formula_units_Z            2
_exptl_crystal_recrystallization_method dichloromethane
loop_
_atom_site_label
_atom_site_type_symbol
_atom_site_fract_x
_atom_site_fract_y
_atom_site_fract_z
S1 S 0.39900(12) 0.44272(9) 0.30990(6)
O1 O 0.3088(3) 0.6482(2) 0.12395(19)
C1 C 0.2702(3) 0.3967(2) 0.0406(2)
C2 C 0.2152(3) 0.3004(2) -0.0692(2)
H1 H 0.2226 0.1957 -0.0574
C3 C 0.1403(3) 0.4992(3) -0.2105(2)
H2 H 0.0979 0.5352 -0.2949
C4 C 0.3408(3) 0.3350(3) 0.1694(2)
C5 C 0.1504(3) 0.3476(2) -0.1946(2)
C6 C 0.2573(3) 0.5507(3) 0.0206(2)
C7 C 0.1912(3) 0.6013(3) -0.1048(2)
C8 C 0.0927(4) 0.2304(3) -0.3084(2)
C9 C 0.3726(4) 0.1835(3) 0.1953(2)
O2 O 0.2186(4) 0.8609(2) -0.0407(2)
C10 C 0.1769(5) 0.7611(3) -0.1262(3)
C11 C 0.4400(4) 0.1649(3) 0.3312(3)
H3 H 0.4688 0.0706 0.3682
C12 C 0.2655(4) 0.1362(3) -0.3025(2)
H4 H 0.3763 0.2017 -0.3080
H5 H 0.2283 0.0616 -0.3746
H6 H 0.3026 0.0851 -0.2212
C13 C 0.0331(5) 0.3042(3) -0.4383(2)
H7 H 0.1425 0.3700 -0.4456
H8 H -0.0795 0.3635 -0.4446
H9 H -0.0017 0.2265 -0.5079
C14 C -0.0816(4) 0.1276(3) -0.2998(3)
H10 H -0.1191 0.0532 -0.3721
H11 H -0.1922 0.1881 -0.3032
H12 H -0.0443 0.0761 -0.2187
C15 C 0.4584(4) 0.2933(4) 0.4010(3)
H13 H 0.354(6) 0.109(3) 0.140(3)
H14 H 0.504(4) 0.303(4) 0.4875(10)
H15 H 0.135(6) 0.804(5) -0.213(4)
H16 H 0.292(4) 0.726(4) 0.093(3)
loop_
_geom_bond_atom_site_label_1
_geom_bond_atom_site_label_2
_geom_bond_site_symmetry_1
_geom_bond_site_symmetry_2
S1 C4 1_555 1_555
O1 C6 1_555 1_555
C1 C2 1_555 1_555
C2 H1 1_555 1_555
C3 H2 1_555 1_555
C4 C1 1_555 1_555
C5 C2 1_555 1_555
C6 C1 1_555 1_555
C7 C3 1_555 1_555
C8 C5 1_555 1_555
C9 C4 1_555 1_555
O2 C10 1_555 1_555
C10 C7 1_555 1_555
C11 C9 1_555 1_555
H3 C11 1_555 1_555
C12 C8 1_555 1_555
H4 C12 1_555 1_555
H5 C12 1_555 1_555
H6 C12 1_555 1_555
C13 C8 1_555 1_555
H7 C13 1_555 1_555
H8 C13 1_555 1_555
H9 C13 1_555 1_555
C14 C8 1_555 1_555
H10 C14 1_555 1_555
H11 C14 1_555 1_555
H12 C14 1_555 1_555
C15 S1 1_555 1_555
H13 C9 1_555 1_555
H14 C15 1_555 1_555
H15 C10 1_555 1_555
H16 O1 1_555 1_555
C3 C5 1_555 1_555
C6 C7 1_555 1_555
C11 C15 1_555 1_555

#END
