
#######################################################################
#
#                 Cambridge Crystallographic Data Centre
#                                CCDC 
#
#######################################################################
#
# If this CIF has been generated from an entry in the Cambridge 
# Structural Database, then it will include bibliographic, chemical, 
# crystal, experimental, refinement or atomic coordinate data resulting 
# from the CCDC's data processing and validation procedures.
#
#######################################################################

data_SUYREK
_chemical_formula_moiety         'C8 H15 N3 O4'
_chemical_name_systematic        
(E)-1-(2,2-Dimethoxyethyl)-2-(nitromethylidene)imidazolidine
_symmetry_cell_setting           monoclinic
_symmetry_space_group_name_H-M   'P 21/c'
_symmetry_Int_Tables_number      14
_space_group_name_Hall           '-P 2ybc'
loop_
_symmetry_equiv_pos_site_id
_symmetry_equiv_pos_as_xyz
1 x,y,z
2 -x,1/2+y,1/2-z
3 -x,-y,-z
4 x,1/2-y,1/2+z
_cell_length_a                   10.444(2)
_cell_length_b                   6.8676(17)
_cell_length_c                   14.441(3)
_cell_angle_alpha                90
_cell_angle_beta                 99.953(14)
_cell_angle_gamma                90
_cell_volume                     1020.2
_exptl_crystal_colour            colorless
_exptl_crystal_description       prism
_cell_formula_units_Z            4
loop_
_atom_site_label
_atom_site_type_symbol
_atom_site_fract_x
_atom_site_fract_y
_atom_site_fract_z
C1 C 0.00359(12) 0.08330(19) 0.63950(8)
H1 H 0.0562 0.0860 0.5937
C2 C 0.06233(12) 0.08637(17) 0.73529(8)
C3 C 0.09094(16) 0.0794(2) 0.89827(9)
H2 H 0.0816 -0.0387 0.9333
H3 H 0.0774 0.1913 0.9364
C4 C 0.22254(15) 0.0880(2) 0.86762(9)
H4 H 0.2701 0.2036 0.8921
H5 H 0.2741 -0.0262 0.8888
C5 C 0.29097(12) 0.08628(19) 0.70666(9)
H6 H 0.2533 0.0386 0.6447
H7 H 0.3573 -0.0057 0.7342
C6 C 0.35394(11) 0.28135(19) 0.69663(8)
H8 H 0.3643 0.3483 0.7574
C7 C 0.31179(18) 0.5845(2) 0.62367(12)
H9 H 0.3323 0.6410 0.6853
H10 H 0.2446 0.6594 0.5860
H11 H 0.3880 0.5846 0.5948
C8 C 0.48007(15) 0.1666(3) 0.58408(11)
H12 H 0.4495 0.0354 0.5873
H13 H 0.5676 0.1650 0.5719
H14 H 0.4252 0.2349 0.5343
N1 N -0.12619(11) 0.07657(17) 0.61267(8)
N2 N 0.00157(12) 0.0812(2) 0.80881(8)
H15 H -0.0816 0.0792 0.8041
N3 N 0.19059(11) 0.09392(17) 0.76437(7)
O1 O -0.17315(10) 0.07294(17) 0.52580(7)
O2 O -0.20198(10) 0.0741(2) 0.67215(8)
O3 O 0.26831(8) 0.39078(13) 0.63099(6)
O4 O 0.47709(8) 0.26264(15) 0.67127(6)
loop_
_geom_bond_atom_site_label_1
_geom_bond_atom_site_label_2
_geom_bond_site_symmetry_1
_geom_bond_site_symmetry_2
C1 H1 1_555 1_555
C2 C1 1_555 1_555
C3 H2 1_555 1_555
H3 C3 1_555 1_555
C4 C3 1_555 1_555
H4 C4 1_555 1_555
H5 C4 1_555 1_555
C5 H6 1_555 1_555
H7 C5 1_555 1_555
C6 C5 1_555 1_555
H8 C6 1_555 1_555
C7 H9 1_555 1_555
H10 C7 1_555 1_555
H11 C7 1_555 1_555
C8 H12 1_555 1_555
H13 C8 1_555 1_555
H14 C8 1_555 1_555
N1 C1 1_555 1_555
N2 C2 1_555 1_555
H15 N2 1_555 1_555
N3 C2 1_555 1_555
O1 N1 1_555 1_555
O2 N1 1_555 1_555
O3 C6 1_555 1_555
O4 C6 1_555 1_555
C3 N2 1_555 1_555
C4 N3 1_555 1_555
C5 N3 1_555 1_555
C7 O3 1_555 1_555
C8 O4 1_555 1_555

#END
