
#######################################################################
#
#                 Cambridge Crystallographic Data Centre
#                                CCDC 
#
#######################################################################
#
# If this CIF has been generated from an entry in the Cambridge 
# Structural Database, then it will include bibliographic, chemical, 
# crystal, experimental, refinement or atomic coordinate data resulting 
# from the CCDC's data processing and validation procedures.
#
#######################################################################

data_SUYTIQ
_chemical_compound_source        'marine-derived fungus Aspergillus aculeatus'
_chemical_name_common            'Paraherquamide E'
_chemical_formula_moiety         'C28 H35 N3 O4'
_chemical_name_systematic        
4,4,4',4',12,14-Hexamethyl-4'H,13H-spiro[9,14-diazatetracyclo[5.5.2.0^1,9^.0^3,7^]tetradecane-5,8'-[1,4]dioxepino-[2,3-g]indole]-9',13(10'H)-dione
_symmetry_cell_setting           orthorhombic
_symmetry_space_group_name_H-M   'P 21 21 21'
_symmetry_Int_Tables_number      19
_space_group_name_Hall           'P 2ac 2ab'
loop_
_symmetry_equiv_pos_site_id
_symmetry_equiv_pos_as_xyz
1 x,y,z
2 1/2-x,-y,1/2+z
3 -x,1/2+y,1/2-z
4 1/2+x,1/2-y,-z
_cell_length_a                   6.5069(2)
_cell_length_b                   16.0351(8)
_cell_length_c                   23.9713(11)
_cell_angle_alpha                90
_cell_angle_beta                 90
_cell_angle_gamma                90
_cell_volume                     2501.14
_exptl_crystal_colour            colorless
_exptl_crystal_description       needle
_cell_formula_units_Z            4
_exptl_crystal_recrystallization_method methanol/hexane
loop_
_atom_site_label
_atom_site_type_symbol
_atom_site_fract_x
_atom_site_fract_y
_atom_site_fract_z
N1 N 0.0595(4) 0.84401(16) 0.16792(11)
H1 H -0.0514 0.8699 0.1769
N2 N 0.6009(5) 0.47354(18) 0.15605(13)
N3 N 0.3520(4) 0.54738(18) 0.23432(11)
O1 O -0.0133(4) 0.71770(14) 0.20826(10)
O2 O 0.4573(4) 1.06380(14) 0.07563(9)
O3 O 0.0828(4) 1.01425(14) 0.13216(10)
O4 O 0.2499(4) 0.41513(15) 0.25453(10)
C1 C 0.0988(6) 0.7623(2) 0.17997(14)
C2 C 0.3025(5) 0.73668(19) 0.15236(13)
C3 C 0.5582(5) 0.8436(2) 0.10529(14)
H2 H 0.6645 0.8054 0.1007
C4 C 0.5796(5) 0.9252(2) 0.08689(14)
H3 H 0.7014 0.9414 0.0697
C5 C 0.4235(5) 0.9831(2) 0.09359(13)
C6 C 0.2432(6) 0.9606(2) 0.12015(14)
C7 C 0.2239(5) 0.8798(2) 0.13901(14)
C8 C 0.3764(5) 0.8200(2) 0.13052(13)
C9 C 0.4413(6) 0.6932(2) 0.19609(14)
H4 H 0.5828 0.7110 0.1916
H5 H 0.3968 0.7074 0.2335
C10 C 0.4239(5) 0.5991(2) 0.18678(12)
C11 C 0.6319(5) 0.5608(2) 0.17134(15)
H6 H 0.6918 0.5910 0.1403
H7 H 0.7252 0.5646 0.2028
C12 C 0.3851(5) 0.4474(2) 0.16074(14)
C13 C 0.4053(6) 0.3551(2) 0.14645(17)
H8 H 0.4357 0.3520 0.1065
C14 C 0.6035(8) 0.3309(3) 0.1771(2)
H9 H 0.5717 0.3047 0.2126
H10 H 0.6839 0.2923 0.1549
C15 C 0.7211(7) 0.4117(3) 0.1863(2)
H11 H 0.7289 0.4254 0.2256
H12 H 0.8593 0.4078 0.1713
C16 C 0.2264(8) 0.2967(2) 0.15698(19)
H13 H 0.1929 0.2970 0.1960
H14 H 0.2634 0.2412 0.1458
H15 H 0.1094 0.3149 0.1358
C17 C 0.3167(5) 0.4666(2) 0.22117(14)
C18 C 0.2626(6) 0.50045(19) 0.11950(13)
H16 H 0.1244 0.4786 0.1156
H17 H 0.3282 0.4998 0.0832
C19 C 0.2558(5) 0.58959(18) 0.14247(12)
H18 H 0.1259 0.5933 0.1630
C20 C 0.2623(5) 0.66842(19) 0.10578(13)
C21 C 0.4342(6) 0.6665(2) 0.06154(14)
H19 H 0.5655 0.6642 0.0798
H20 H 0.4266 0.7159 0.0390
H21 H 0.4175 0.6182 0.0383
C22 C 0.0595(6) 0.6830(2) 0.07491(15)
H22 H 0.0437 0.6417 0.0462
H23 H 0.0603 0.7375 0.0584
H24 H -0.0527 0.6788 0.1008
C23 C 0.0153(6) 1.0726(2) 0.09430(16)
H25 H -0.1173 1.0923 0.1003
C24 C 0.1105(6) 1.1046(2) 0.05100(17)
H26 H 0.0318 1.1411 0.0298
C25 C 0.3240(6) 1.0919(2) 0.03039(14)
C26 C 0.4195(8) 1.1744(2) 0.0128(2)
H27 H 0.4292 1.2107 0.0446
H28 H 0.3351 1.2001 -0.0152
H29 H 0.5543 1.1646 -0.0021
C27 C 0.3285(7) 1.0286(3) -0.01689(16)
H30 H 0.4682 1.0189 -0.0280
H31 H 0.2518 1.0497 -0.0480
H32 H 0.2685 0.9771 -0.0044
C28 C 0.3185(8) 0.5797(3) 0.28994(15)
H33 H 0.2896 0.5344 0.3149
H34 H 0.2042 0.6175 0.2895
H35 H 0.4394 0.6086 0.3023
loop_
_geom_bond_atom_site_label_1
_geom_bond_atom_site_label_2
_geom_bond_site_symmetry_1
_geom_bond_site_symmetry_2
N1 H1 1_555 1_555
N2 C11 1_555 1_555
N3 C10 1_555 1_555
O1 C1 1_555 1_555
O2 C5 1_555 1_555
O3 C6 1_555 1_555
O4 C17 1_555 1_555
C1 N1 1_555 1_555
C2 C1 1_555 1_555
C3 H2 1_555 1_555
C4 C3 1_555 1_555
H3 C4 1_555 1_555
C5 C4 1_555 1_555
C6 C5 1_555 1_555
C7 N1 1_555 1_555
C8 C2 1_555 1_555
C9 C2 1_555 1_555
H4 C9 1_555 1_555
H5 C9 1_555 1_555
C10 C9 1_555 1_555
C11 C10 1_555 1_555
H6 C11 1_555 1_555
H7 C11 1_555 1_555
C12 N2 1_555 1_555
C13 C12 1_555 1_555
H8 C13 1_555 1_555
C14 C13 1_555 1_555
H9 C14 1_555 1_555
H10 C14 1_555 1_555
C15 N2 1_555 1_555
H11 C15 1_555 1_555
H12 C15 1_555 1_555
C16 C13 1_555 1_555
H13 C16 1_555 1_555
H14 C16 1_555 1_555
H15 C16 1_555 1_555
C17 N3 1_555 1_555
C18 C12 1_555 1_555
H16 C18 1_555 1_555
H17 C18 1_555 1_555
C19 C10 1_555 1_555
H18 C19 1_555 1_555
C20 C2 1_555 1_555
C21 C20 1_555 1_555
H19 C21 1_555 1_555
H20 C21 1_555 1_555
H21 C21 1_555 1_555
C22 C20 1_555 1_555
H22 C22 1_555 1_555
H23 C22 1_555 1_555
H24 C22 1_555 1_555
C23 O3 1_555 1_555
H25 C23 1_555 1_555
C24 C23 1_555 1_555
H26 C24 1_555 1_555
C25 O2 1_555 1_555
C26 C25 1_555 1_555
H27 C26 1_555 1_555
H28 C26 1_555 1_555
H29 C26 1_555 1_555
C27 C25 1_555 1_555
H30 C27 1_555 1_555
H31 C27 1_555 1_555
H32 C27 1_555 1_555
C28 N3 1_555 1_555
H33 C28 1_555 1_555
H34 C28 1_555 1_555
H35 C28 1_555 1_555
C3 C8 1_555 1_555
C6 C7 1_555 1_555
C7 C8 1_555 1_555
C12 C17 1_555 1_555
C14 C15 1_555 1_555
C18 C19 1_555 1_555
C19 C20 1_555 1_555
C24 C25 1_555 1_555

#END
