
#######################################################################
#
#                 Cambridge Crystallographic Data Centre
#                                CCDC 
#
#######################################################################
#
# If this CIF has been generated from an entry in the Cambridge 
# Structural Database, then it will include bibliographic, chemical, 
# crystal, experimental, refinement or atomic coordinate data resulting 
# from the CCDC's data processing and validation procedures.
#
#######################################################################

data_SUYTOV
_chemical_formula_moiety         'C24 H44 N6 6+,6(N1 O3 1-),H2 O1'
_chemical_name_systematic        
'(3,6,9,17,20,23-Hexa-ammoniotricyclo(23.3.1.1^11,15^)triaconta-1(29),11,13,15(30),25,27-hexaene) hexanitrate monohydrate'
_symmetry_cell_setting           monoclinic
_symmetry_space_group_name_H-M   'P 21/n'
_symmetry_Int_Tables_number      14
_space_group_name_Hall           '-P 2yn'
loop_
_symmetry_equiv_pos_site_id
_symmetry_equiv_pos_as_xyz
1 x,y,z
2 1/2+x,1/2-y,1/2+z
3 -x,-y,-z
4 1/2-x,1/2+y,1/2-z
_cell_length_a                   13.6738(8)
_cell_length_b                   8.2208(5)
_cell_length_c                   15.5074(9)
_cell_angle_alpha                90
_cell_angle_beta                 94.633(2)
_cell_angle_gamma                90
_cell_volume                     1737.48
_exptl_crystal_colour            colorless
_exptl_crystal_description       prism
_cell_formula_units_Z            2
_exptl_crystal_recrystallization_method methanol/water(5:1)
loop_
_atom_site_label
_atom_site_type_symbol
_atom_site_fract_x
_atom_site_fract_y
_atom_site_fract_z
N1 N 0.49285(12) 0.6963(2) 0.40344(11)
H1 H 0.4940 0.7316 0.4598
H2 H 0.4980 0.5847 0.4041
C1 C 0.39840(15) 0.7437(2) 0.35648(14)
H3 H 0.3944 0.6963 0.2976
H4 H 0.3958 0.8636 0.3506
C2 C 0.31136(15) 0.6860(2) 0.40334(13)
H5 H 0.3140 0.5665 0.4113
H6 H 0.3119 0.7380 0.4610
N2 N 0.22093(12) 0.73299(19) 0.34847(11)
H7 H 0.2176 0.6712 0.2989
H8 H 0.2268 0.8400 0.3323
C3 C 0.12616(15) 0.7135(2) 0.39046(14)
H9 H 0.0712 0.7501 0.3495
H10 H 0.1277 0.7844 0.4422
C4 C 0.10737(14) 0.5405(2) 0.41721(13)
C5 C 0.13383(14) 0.4922(2) 0.50151(13)
H11 H 0.1637 0.5685 0.5414
C6 C 0.06270(16) 0.4285(3) 0.35894(13)
H12 H 0.0439 0.4604 0.3011
C7 C 0.04568(17) 0.2698(3) 0.38559(15)
H13 H 0.0150 0.1938 0.3460
C8 C 0.07339(16) 0.2229(2) 0.46977(14)
H14 H 0.0624 0.1142 0.4875
C9 C 0.11734(14) 0.3339(2) 0.52874(13)
C10 C 0.14629(15) 0.2868(3) 0.62115(14)
H15 H 0.1464 0.3851 0.6580
H16 H 0.0969 0.2103 0.6411
N3 N 0.24587(12) 0.2084(2) 0.63177(11)
H17 H 0.2606 0.1856 0.6894
H18 H 0.2432 0.1111 0.6023
C11 C 0.32662(15) 0.3084(2) 0.60051(13)
H19 H 0.3214 0.4223 0.6204
H20 H 0.3232 0.3077 0.5365
C12 C 0.57755(16) 0.7664(3) 0.36243(16)
H21 H 0.5695 0.7466 0.2993
H22 H 0.5795 0.8854 0.3720
C12B C 0.42245(16) 0.2336(3) 0.63757(16)
N1B N 0.50715(12) 0.3037(2) 0.59656(11)
H1B H 0.5060 0.2684 0.5402
H2B H 0.5020 0.4153 0.5959
C1B C 0.60160(15) 0.2563(2) 0.64352(14)
H3B H 0.6056 0.3037 0.7024
H4B H 0.6042 0.1364 0.6494
C2B C 0.68864(15) 0.3140(2) 0.59666(13)
H5B H 0.6860 0.4335 0.5887
H6B H 0.6881 0.2620 0.5390
N2B N 0.77907(12) 0.26701(19) 0.65153(11)
H7B H 0.7824 0.3288 0.7011
H8B H 0.7732 0.1600 0.6677
C3B C 0.87384(15) 0.2865(2) 0.60954(14)
H9B H 0.9288 0.2499 0.6505
H10B H 0.8723 0.2156 0.5578
C4B C 0.89263(14) 0.4595(2) 0.58279(13)
C5B C 0.86617(14) 0.5078(2) 0.49849(13)
H11B H 0.8363 0.4315 0.4586
C9B C 0.88266(14) 0.6661(2) 0.47126(13)
C8B C 0.92661(16) 0.7771(2) 0.53023(14)
C7B C 0.95432(17) 0.7302(3) 0.61441(15)
C6B C 0.93730(16) 0.5715(3) 0.64106(13)
H12B H 0.9561 0.5396 0.6989
H13B H 0.9850 0.8062 0.6540
H14B H 0.9376 0.8858 0.5125
C10B C 0.85371(15) 0.7132(3) 0.37885(14)
H15B H 0.8536 0.6149 0.3420
H16B H 0.9031 0.7897 0.3589
N3B N 0.75413(12) 0.7916(2) 0.36823(11)
H17B H 0.7394 0.8144 0.3106
H18B H 0.7568 0.8889 0.3977
C11B C 0.67338(15) 0.6916(2) 0.39949(13)
H19B H 0.6786 0.5777 0.3796
H20B H 0.6768 0.6923 0.4635
H21B H 0.4305 0.2534 0.7007
H22B H 0.4205 0.1146 0.6280
N4 N 0.50782(17) 0.3093(2) 0.34009(14)
O1 O 0.50963(19) 0.1614(2) 0.32645(14)
O2 O 0.49572(16) 0.4089(2) 0.27951(11)
O3 O 0.51975(14) 0.36206(19) 0.41802(11)
N5 N 0.22349(14) 0.6371(2) 0.13108(12)
O4 O 0.20623(14) 0.78404(18) 0.13735(12)
O5 O 0.24829(13) 0.55524(17) 0.19966(10)
O6 O 0.21799(14) 0.5644(2) 0.06082(10)
N6 N 0.28092(13) 0.32029(17) 0.84164(10)
O7 O 0.31493(17) 0.4161(2) 0.78895(12)
O8 O 0.26578(17) 0.1768(2) 0.81789(12)
O9 O 0.26981(17) 0.3676(2) 0.91496(11)
O10 O 0.4716(4) 0.9789(7) 0.5151(4)
H23 H 0.4117 1.0061 0.4911
H24 H 0.4763 0.8967 0.5536
O10B O 0.5284(4) 1.0211(7) 0.4849(4)
H23B H 0.5883 0.9939 0.5089
H24B H 0.5237 1.1033 0.4464
loop_
_geom_bond_atom_site_label_1
_geom_bond_atom_site_label_2
_geom_bond_site_symmetry_1
_geom_bond_site_symmetry_2
N1 H1 1_555 1_555
H2 N1 1_555 1_555
C1 N1 1_555 1_555
H3 C1 1_555 1_555
H4 C1 1_555 1_555
C2 C1 1_555 1_555
H5 C2 1_555 1_555
H6 C2 1_555 1_555
N2 C2 1_555 1_555
H7 N2 1_555 1_555
H8 N2 1_555 1_555
C3 N2 1_555 1_555
H9 C3 1_555 1_555
H10 C3 1_555 1_555
C4 C3 1_555 1_555
C5 C4 1_555 1_555
H11 C5 1_555 1_555
C6 C4 1_555 1_555
H12 C6 1_555 1_555
C7 C6 1_555 1_555
H13 C7 1_555 1_555
C8 C7 1_555 1_555
H14 C8 1_555 1_555
C9 C5 1_555 1_555
C10 C9 1_555 1_555
H15 C10 1_555 1_555
H16 C10 1_555 1_555
N3 C10 1_555 1_555
H17 N3 1_555 1_555
H18 N3 1_555 1_555
C11 N3 1_555 1_555
H19 C11 1_555 1_555
H20 C11 1_555 1_555
C12 N1 1_555 1_555
H21 C12 1_555 1_555
H22 C12 1_555 1_555
N4 O1 1_555 1_555
O2 N4 1_555 1_555
O3 N4 1_555 1_555
N5 O4 1_555 1_555
O5 N5 1_555 1_555
O6 N5 1_555 1_555
N6 O7 1_555 1_555
O8 N6 1_555 1_555
O9 N6 1_555 1_555
O10 H23 1_555 1_555
H24 O10 1_555 1_555
C12B C11 1_555 1_555
N1B C12B 1_555 1_555
H1B N1B 1_555 1_555
H2B N1B 1_555 1_555
C1B N1B 1_555 1_555
H3B C1B 1_555 1_555
H4B C1B 1_555 1_555
C2B C1B 1_555 1_555
H5B C2B 1_555 1_555
H6B C2B 1_555 1_555
N2B C2B 1_555 1_555
H7B N2B 1_555 1_555
H8B N2B 1_555 1_555
C3B N2B 1_555 1_555
H9B C3B 1_555 1_555
H10B C3B 1_555 1_555
C4B C3B 1_555 1_555
C5B C4B 1_555 1_555
H11B C5B 1_555 1_555
C9B C5B 1_555 1_555
C8B C9B 1_555 1_555
C7B C8B 1_555 1_555
C6B C4B 1_555 1_555
H12B C6B 1_555 1_555
H13B C7B 1_555 1_555
H14B C8B 1_555 1_555
C10B C9B 1_555 1_555
H15B C10B 1_555 1_555
H16B C10B 1_555 1_555
N3B C10B 1_555 1_555
H17B N3B 1_555 1_555
H18B N3B 1_555 1_555
C11B C12 1_555 1_555
H19B C11B 1_555 1_555
H20B C11B 1_555 1_555
H21B C12B 1_555 1_555
H22B C12B 1_555 1_555
O10B H23B 1_555 1_555
H24B O10B 1_555 1_555
C8 C9 1_555 1_555
C7B C6B 1_555 1_555
N3B C11B 1_555 1_555

#END
