
#######################################################################
#
#                 Cambridge Crystallographic Data Centre
#                                CCDC 
#
#######################################################################
#
# If this CIF has been generated from an entry in the Cambridge 
# Structural Database, then it will include bibliographic, chemical, 
# crystal, experimental, refinement or atomic coordinate data resulting 
# from the CCDC's data processing and validation procedures.
#
#######################################################################

data_SUYVIR
_chemical_formula_moiety         'C36 H60 N8 6+,6(C7 H7 O3 S1 1-),8(H2 O1)'
_chemical_name_systematic        
'4,12,18,26,31,39-Hexa-ammonio-1,15-diazapentacyclo-(13.13.13.1^6,10^.1^20,24^.1^33,37^)tetratetraconta-6(11),7,9,20(25),21,23,33(38),34,36-nonaene hexakis(p-toluenesulfonate) octahydrate'
_symmetry_cell_setting           triclinic
_symmetry_space_group_name_H-M   'P -1'
_symmetry_Int_Tables_number      2
_space_group_name_Hall           '-P 1'
loop_
_symmetry_equiv_pos_site_id
_symmetry_equiv_pos_as_xyz
1 x,y,z
2 -x,-y,-z
_cell_length_a                   13.726(2)
_cell_length_b                   14.990(3)
_cell_length_c                   22.818(4)
_cell_angle_alpha                79.04(2)
_cell_angle_beta                 82.05(2)
_cell_angle_gamma                83.39(2)
_cell_volume                     4545.85
_exptl_crystal_colour            colorless
_exptl_crystal_description       prism
_cell_formula_units_Z            2
loop_
_atom_site_label
_atom_site_type_symbol
_atom_site_fract_x
_atom_site_fract_y
_atom_site_fract_z
N1 N 1.0019(3) 0.6282(3) 0.2924(2)
C1 C 0.9721(5) 0.6104(5) 0.3573(3)
H1 H 0.9707 0.6664 0.3729
H2 H 1.0207 0.5663 0.3764
C2 C 0.8713(5) 0.5741(5) 0.3728(3)
H3 H 0.8203 0.6238 0.3652
H4 H 0.8657 0.5299 0.3477
N2 N 0.8575(4) 0.5303(3) 0.4369(2)
H5 H 0.8566 0.5735 0.4596
H6 H 0.9102 0.4901 0.4444
C3 C 0.7670(4) 0.4821(5) 0.4563(3)
H7 H 0.7667 0.4544 0.4983
H8 H 0.7696 0.4333 0.4335
C4 C 0.6712(5) 0.5417(4) 0.4487(3)
C5 C 0.6004(5) 0.5155(4) 0.4188(3)
H9 H 0.6148 0.4633 0.4017
C6 C 0.6489(5) 0.6198(5) 0.4732(3)
H10 H 0.6950 0.6389 0.4933
C7 C 0.5587(5) 0.6699(5) 0.4681(3)
H11 H 0.5448 0.7233 0.4841
C8 C 0.4891(5) 0.6414(5) 0.4395(3)
H12 H 0.4277 0.6746 0.4375
C9 C 0.5092(5) 0.5644(5) 0.4137(3)
C10 C 0.4333(5) 0.5317(5) 0.3843(3)
H13 H 0.3724 0.5285 0.4115
H14 H 0.4553 0.4704 0.3771
N3 N 0.4121(4) 0.5910(3) 0.3257(2)
H15 H 0.3635 0.5686 0.3118
H16 H 0.3896 0.6473 0.3327
C11 C 0.4983(5) 0.5991(5) 0.2776(3)
H17 H 0.5244 0.5392 0.2696
H18 H 0.5502 0.6268 0.2906
C12 C 0.4638(5) 0.6577(4) 0.2215(3)
H19 H 0.4056 0.6344 0.2124
H20 H 0.4454 0.7194 0.2287
N4 N 0.5395(4) 0.6595(3) 0.1699(2)
C13 C 0.5239(5) 0.7421(4) 0.1247(3)
H21 H 0.4539 0.7619 0.1260
H22 H 0.5474 0.7290 0.0848
C14 C 0.5797(5) 0.8174(4) 0.1372(3)
H23 H 0.5537 0.8324 0.1763
H24 H 0.6490 0.7960 0.1381
N5 N 0.5701(4) 0.8982(4) 0.0915(2)
H25 H 0.5056 0.9128 0.0875
H26 H 0.6004 0.8850 0.0562
C15 C 0.6117(4) 0.9789(4) 0.1039(3)
H27 H 0.5833 0.9908 0.1433
H28 H 0.5942 1.0319 0.0744
C16 C 0.7233(4) 0.9638(4) 0.1017(3)
C17 C 0.7679(5) 0.9405(4) 0.1540(3)
H29 H 0.7290 0.9334 0.1911
C18 C 0.7816(5) 0.9732(4) 0.0470(3)
H30 H 0.7522 0.9893 0.0117
C19 C 0.8826(5) 0.9590(5) 0.0440(3)
H31 H 0.9213 0.9643 0.0069
C20 C 0.9263(5) 0.9367(4) 0.0967(3)
H32 H 0.9948 0.9278 0.0950
C21 C 0.8688(5) 0.9277(4) 0.1518(3)
C22 C 0.9178(6) 0.9043(5) 0.2086(3)
H33 H 0.9692 0.9448 0.2059
H34 H 0.8693 0.9149 0.2423
N6 N 0.9621(4) 0.8081(3) 0.2204(2)
H35 H 0.9986 0.7950 0.1867
H36 H 0.9134 0.7706 0.2300
C23 C 1.0257(5) 0.7913(5) 0.2701(3)
H37 H 0.9857 0.8004 0.3074
H38 H 1.0757 0.8343 0.2614
C24 C 1.0745(4) 0.6957(4) 0.2770(3)
H39 H 1.1148 0.6871 0.2398
H40 H 1.1177 0.6865 0.3084
C25 C 1.0378(5) 0.5431(5) 0.2706(3)
H41 H 0.9969 0.4952 0.2909
H42 H 1.1050 0.5248 0.2797
C26 C 1.0352(5) 0.5557(5) 0.2025(3)
H43 H 0.9705 0.5824 0.1925
H44 H 1.0837 0.5966 0.1816
N7 N 1.0571(4) 0.4663(4) 0.1833(2)
H45 H 1.0064 0.4323 0.1983
H46 H 1.1112 0.4376 0.1992
C27 C 1.0743(5) 0.4708(5) 0.1164(3)
H47 H 1.0871 0.4091 0.1081
H48 H 1.1329 0.5022 0.1006
C28 C 0.9896(5) 0.5185(5) 0.0835(3)
C29 C 0.9092(5) 0.4734(5) 0.0786(3)
H49 H 0.9056 0.4134 0.0984
C30 C 0.9913(5) 0.6080(5) 0.0564(3)
H50 H 1.0437 0.6398 0.0603
C31 C 0.9181(6) 0.6522(5) 0.0236(3)
H51 H 0.9210 0.7129 0.0053
C32 C 0.8399(5) 0.6056(5) 0.0182(3)
H52 H 0.7902 0.6356 -0.0041
C33 C 0.8337(5) 0.5147(5) 0.0452(3)
C34 C 0.7462(5) 0.4663(5) 0.0415(3)
H53 H 0.7203 0.4906 0.0037
H54 H 0.7668 0.4021 0.0422
N8 N 0.6667(4) 0.4761(4) 0.0919(2)
H55 H 0.6142 0.4493 0.0861
H56 H 0.6883 0.4459 0.1263
C35 C 0.6342(5) 0.5703(5) 0.0989(3)
H57 H 0.6196 0.6057 0.0604
H58 H 0.6873 0.5967 0.1117
C36 C 0.5435(5) 0.5763(4) 0.1445(3)
H59 H 0.4846 0.5770 0.1252
H60 H 0.5457 0.5233 0.1763
S1 S 0.31080(14) 0.40766(12) 0.26343(8)
O1 O 0.2857(4) 0.4799(3) 0.2984(2)
O2 O 0.2260(4) 0.3861(3) 0.2390(2)
O3 O 0.3932(5) 0.4261(4) 0.2189(3)
C37 C 0.3484(5) 0.3076(4) 0.3137(3)
C38 C 0.3932(5) 0.2310(5) 0.2913(3)
H61 H 0.4083 0.2333 0.2500
C39 C 0.4152(5) 0.1518(5) 0.3307(4)
H62 H 0.4457 0.1011 0.3153
C40 C 0.3935(5) 0.1451(5) 0.3918(4)
C41 C 0.3484(5) 0.2228(5) 0.4127(3)
H63 H 0.3338 0.2204 0.4540
C42 C 0.3242(5) 0.3033(5) 0.3747(3)
H64 H 0.2923 0.3536 0.3901
C43 C 0.4140(7) 0.0579(6) 0.4341(4)
H65 H 0.4088 0.0699 0.4743
H66 H 0.4795 0.0315 0.4230
H67 H 0.3669 0.0162 0.4322
S2 S 0.55849(14) 0.87749(14) 0.30631(9)
O4 O 0.4809(4) 0.8672(4) 0.3558(2)
O5 O 0.5964(4) 0.7921(4) 0.2887(2)
O6 O 0.5307(4) 0.9469(4) 0.2560(2)
C44 C 0.6584(5) 0.9177(5) 0.3313(3)
C45 C 0.7207(6) 0.8595(5) 0.3665(3)
H68 H 0.7085 0.7986 0.3790
C46 C 0.8021(6) 0.8914(6) 0.3837(4)
H69 H 0.8443 0.8515 0.4072
C47 C 0.8204(6) 0.9825(6) 0.3659(3)
C48 C 0.7574(6) 1.0398(5) 0.3311(3)
H70 H 0.7686 1.1009 0.3189
C49 C 0.6765(5) 1.0069(5) 0.3140(3)
H71 H 0.6343 1.0466 0.2904
C50 C 0.9098(6) 1.0155(7) 0.3838(4)
H72 H 0.9214 1.0744 0.3602
H73 H 0.9664 0.9732 0.3769
H74 H 0.8986 1.0200 0.4256
S3 S 1.03873(13) 0.31454(15) 0.47687(10)
O7 O 1.1247(4) 0.3340(4) 0.4985(3)
O8 O 0.9680(6) 0.2820(6) 0.5253(3)
O9 O 0.9988(5) 0.3869(5) 0.4358(3)
C51 C 1.0754(4) 0.2236(5) 0.4376(3)
C52 C 1.1079(5) 0.2398(5) 0.3769(3)
H75 H 1.1051 0.2989 0.3550
C53 C 1.1446(5) 0.1667(8) 0.3492(4)
H76 H 1.1664 0.1775 0.3082
C54 C 1.1499(6) 0.0790(8) 0.3799(5)
C55 C 1.1162(7) 0.0638(6) 0.4393(5)
H77 H 1.1175 0.0046 0.4609
C56 C 1.0799(6) 0.1366(6) 0.4678(3)
H78 H 1.0580 0.1254 0.5087
C57 C 1.1930(8) -0.0001(8) 0.3484(6)
H79 H 1.1496 -0.0480 0.3587
H80 H 1.2565 -0.0227 0.3610
H81 H 1.2001 0.0206 0.3057
S4 S 0.79119(14) 0.41524(13) 0.24415(8)
O10 O 0.7870(5) 0.5035(4) 0.2585(2)
O11 O 0.7243(4) 0.4077(4) 0.2031(2)
O12 O 0.8899(4) 0.3816(4) 0.2250(3)
C58 C 0.7547(5) 0.3405(4) 0.3110(3)
C59 C 0.8209(5) 0.3094(5) 0.3519(3)
H82 H 0.8850 0.3266 0.3437
C60 C 0.7924(6) 0.2524(5) 0.4057(3)
H83 H 0.8380 0.2319 0.4330
C61 C 0.6989(6) 0.2259(5) 0.4192(3)
C62 C 0.6334(5) 0.2587(5) 0.3787(4)
H84 H 0.5686 0.2432 0.3879
C63 C 0.6602(5) 0.3143(5) 0.3241(3)
H85 H 0.6146 0.3337 0.2966
C64 C 0.6705(7) 0.1620(6) 0.4771(4)
H86 H 0.7156 0.1079 0.4799
H87 H 0.6046 0.1460 0.4777
H88 H 0.6734 0.1916 0.5105
S5 S 0.64900(14) 0.79741(13) -0.06180(9)
O13 O 0.6245(4) 0.7064(3) -0.0517(2)
O14 O 0.6622(5) 0.8197(5) -0.0040(3)
O15 O 0.5838(4) 0.8606(5) -0.0940(3)
C65 C 0.7657(5) 0.8054(4) -0.1048(3)
C66 C 0.7904(5) 0.7576(5) -0.1514(3)
H89 H 0.7482 0.7175 -0.1583
C67 C 0.8777(6) 0.7698(5) -0.1874(3)
H90 H 0.8939 0.7369 -0.2187
C68 C 0.9426(5) 0.8285(5) -0.1795(3)
C69 C 0.9162(6) 0.8733(5) -0.1314(4)
H91 H 0.9590 0.9122 -0.1236
C70 C 0.8291(6) 0.8622(6) -0.0949(3)
H92 H 0.8134 0.8939 -0.0630
C71 C 1.0374(6) 0.8429(7) -0.2210(4)
H93 H 1.0705 0.8889 -0.2097
H94 H 1.0225 0.8622 -0.2617
H95 H 1.0793 0.7868 -0.2181
S6 S 1.19183(14) 0.78493(16) 0.10301(8)
O16 O 1.0916(3) 0.7636(3) 0.1188(2)
O17 O 1.2596(4) 0.7236(5) 0.1342(3)
O18 O 1.1987(5) 0.8782(5) 0.1100(3)
C72 C 1.2230(5) 0.7835(4) 0.0254(3)
C73 C 1.3212(5) 0.7746(5) 0.0021(3)
H96 H 1.3700 0.7650 0.0277
C74 C 1.3474(6) 0.7801(5) -0.0589(3)
H97 H 1.4138 0.7742 -0.0741
C75 C 1.2775(6) 0.7939(5) -0.0970(3)
C76 C 1.1806(6) 0.8003(5) -0.0743(3)
H98 H 1.1323 0.8079 -0.1001
C77 C 1.1528(5) 0.7956(5) -0.0129(3)
H99 H 1.0862 0.8008 0.0020
C78 C 1.3075(7) 0.8039(6) -0.1644(3)
H100 H 1.2599 0.7788 -0.1822
H101 H 1.3713 0.7718 -0.1719
H102 H 1.3102 0.8673 -0.1815
O19 O 0.7859(4) 0.7149(4) 0.2420(3)
H103 H 0.7285 0.7401 0.2586
H104 H 0.7862 0.6539 0.2466
O20 O 0.6190(4) 1.0437(4) -0.0658(2)
H105 H 0.6248 0.9822 -0.0581
H106 H 0.6788 1.0604 -0.0829
O21 O 0.3333(4) 0.7718(3) 0.3342(2)
H107 H 0.2960 0.8014 0.3059
H108 H 0.3720 0.8123 0.3411
O22 O 0.6397(4) 0.9777(5) -0.2093(3)
H109 H 0.5861 1.0075 -0.2254
H110 H 0.6183 0.9280 -0.1840
O23 O 0.2584(5) 0.8701(5) 0.2333(2)
H111 H 0.3184 0.8871 0.2166
H112 H 0.2217 0.8777 0.2026
O24 O 0.2156(5) 0.6677(6) 0.4181(4)
H113 H 0.2410 0.6984 0.3822
H114 H 0.1579 0.7000 0.4282
O25 O 1.2959(6) 0.5380(6) 0.1065(4)
H115 H 1.3266 0.5015 0.1359
H116 H 1.2803 0.5922 0.1187
O26 O 0.4940(6) 0.3836(7) 0.1122(5)
H117 H 0.4631 0.3966 0.1449
H118 H 0.4595 0.3585 0.0898
O27 O 0.4965(14) 0.4389(14) 0.0493(11)
H119 H 0.5178 0.4573 0.0102
H120 H 0.4590 0.3950 0.0461
loop_
_geom_bond_atom_site_label_1
_geom_bond_atom_site_label_2
_geom_bond_site_symmetry_1
_geom_bond_site_symmetry_2
N1 C1 1_555 1_555
C1 H1 1_555 1_555
H2 C1 1_555 1_555
C2 C1 1_555 1_555
H3 C2 1_555 1_555
H4 C2 1_555 1_555
N2 C2 1_555 1_555
H5 N2 1_555 1_555
H6 N2 1_555 1_555
C3 N2 1_555 1_555
H7 C3 1_555 1_555
H8 C3 1_555 1_555
C4 C3 1_555 1_555
C5 C4 1_555 1_555
H9 C5 1_555 1_555
C6 C4 1_555 1_555
H10 C6 1_555 1_555
C7 C6 1_555 1_555
H11 C7 1_555 1_555
C8 C7 1_555 1_555
H12 C8 1_555 1_555
C9 C5 1_555 1_555
C10 C9 1_555 1_555
H13 C10 1_555 1_555
H14 C10 1_555 1_555
N3 C10 1_555 1_555
H15 N3 1_555 1_555
H16 N3 1_555 1_555
C11 N3 1_555 1_555
H17 C11 1_555 1_555
H18 C11 1_555 1_555
C12 C11 1_555 1_555
H19 C12 1_555 1_555
H20 C12 1_555 1_555
N4 C12 1_555 1_555
C13 N4 1_555 1_555
H21 C13 1_555 1_555
H22 C13 1_555 1_555
C14 C13 1_555 1_555
H23 C14 1_555 1_555
H24 C14 1_555 1_555
N5 C14 1_555 1_555
H25 N5 1_555 1_555
H26 N5 1_555 1_555
C15 N5 1_555 1_555
H27 C15 1_555 1_555
H28 C15 1_555 1_555
C16 C15 1_555 1_555
C17 C16 1_555 1_555
H29 C17 1_555 1_555
C18 C16 1_555 1_555
H30 C18 1_555 1_555
C19 C18 1_555 1_555
H31 C19 1_555 1_555
C20 C19 1_555 1_555
H32 C20 1_555 1_555
C21 C17 1_555 1_555
C22 C21 1_555 1_555
H33 C22 1_555 1_555
H34 C22 1_555 1_555
N6 C22 1_555 1_555
H35 N6 1_555 1_555
H36 N6 1_555 1_555
C23 N6 1_555 1_555
H37 C23 1_555 1_555
H38 C23 1_555 1_555
C24 N1 1_555 1_555
H39 C24 1_555 1_555
H40 C24 1_555 1_555
C25 N1 1_555 1_555
H41 C25 1_555 1_555
H42 C25 1_555 1_555
C26 C25 1_555 1_555
H43 C26 1_555 1_555
H44 C26 1_555 1_555
N7 C26 1_555 1_555
H45 N7 1_555 1_555
H46 N7 1_555 1_555
C27 N7 1_555 1_555
H47 C27 1_555 1_555
H48 C27 1_555 1_555
C28 C27 1_555 1_555
C29 C28 1_555 1_555
H49 C29 1_555 1_555
C30 C28 1_555 1_555
H50 C30 1_555 1_555
C31 C30 1_555 1_555
H51 C31 1_555 1_555
C32 C31 1_555 1_555
H52 C32 1_555 1_555
C33 C29 1_555 1_555
C34 C33 1_555 1_555
H53 C34 1_555 1_555
H54 C34 1_555 1_555
N8 C34 1_555 1_555
H55 N8 1_555 1_555
H56 N8 1_555 1_555
C35 N8 1_555 1_555
H57 C35 1_555 1_555
H58 C35 1_555 1_555
C36 N4 1_555 1_555
H59 C36 1_555 1_555
H60 C36 1_555 1_555
S1 O1 1_555 1_555
O2 S1 1_555 1_555
O3 S1 1_555 1_555
C37 S1 1_555 1_555
C38 C37 1_555 1_555
H61 C38 1_555 1_555
C39 C38 1_555 1_555
H62 C39 1_555 1_555
C40 C39 1_555 1_555
C41 C40 1_555 1_555
H63 C41 1_555 1_555
C42 C37 1_555 1_555
H64 C42 1_555 1_555
C43 C40 1_555 1_555
H65 C43 1_555 1_555
H66 C43 1_555 1_555
H67 C43 1_555 1_555
S2 O4 1_555 1_555
O5 S2 1_555 1_555
O6 S2 1_555 1_555
C44 S2 1_555 1_555
C45 C44 1_555 1_555
H68 C45 1_555 1_555
C46 C45 1_555 1_555
H69 C46 1_555 1_555
C47 C46 1_555 1_555
C48 C47 1_555 1_555
H70 C48 1_555 1_555
C49 C44 1_555 1_555
H71 C49 1_555 1_555
C50 C47 1_555 1_555
H72 C50 1_555 1_555
H73 C50 1_555 1_555
H74 C50 1_555 1_555
S3 O7 1_555 1_555
O8 S3 1_555 1_555
O9 S3 1_555 1_555
C51 S3 1_555 1_555
C52 C51 1_555 1_555
H75 C52 1_555 1_555
C53 C52 1_555 1_555
H76 C53 1_555 1_555
C54 C53 1_555 1_555
C55 C54 1_555 1_555
H77 C55 1_555 1_555
C56 C51 1_555 1_555
H78 C56 1_555 1_555
C57 C54 1_555 1_555
H79 C57 1_555 1_555
H80 C57 1_555 1_555
H81 C57 1_555 1_555
S4 O10 1_555 1_555
O11 S4 1_555 1_555
O12 S4 1_555 1_555
C58 S4 1_555 1_555
C59 C58 1_555 1_555
H82 C59 1_555 1_555
C60 C59 1_555 1_555
H83 C60 1_555 1_555
C61 C60 1_555 1_555
C62 C61 1_555 1_555
H84 C62 1_555 1_555
C63 C58 1_555 1_555
H85 C63 1_555 1_555
C64 C61 1_555 1_555
H86 C64 1_555 1_555
H87 C64 1_555 1_555
H88 C64 1_555 1_555
S5 O13 1_555 1_555
O14 S5 1_555 1_555
O15 S5 1_555 1_555
C65 S5 1_555 1_555
C66 C65 1_555 1_555
H89 C66 1_555 1_555
C67 C66 1_555 1_555
H90 C67 1_555 1_555
C68 C67 1_555 1_555
C69 C68 1_555 1_555
H91 C69 1_555 1_555
C70 C65 1_555 1_555
H92 C70 1_555 1_555
C71 C68 1_555 1_555
H93 C71 1_555 1_555
H94 C71 1_555 1_555
H95 C71 1_555 1_555
S6 O16 1_555 1_555
O17 S6 1_555 1_555
O18 S6 1_555 1_555
C72 S6 1_555 1_555
C73 C72 1_555 1_555
H96 C73 1_555 1_555
C74 C73 1_555 1_555
H97 C74 1_555 1_555
C75 C74 1_555 1_555
C76 C75 1_555 1_555
H98 C76 1_555 1_555
C77 C72 1_555 1_555
H99 C77 1_555 1_555
C78 C75 1_555 1_555
H100 C78 1_555 1_555
H101 C78 1_555 1_555
H102 C78 1_555 1_555
O19 H103 1_555 1_555
H104 O19 1_555 1_555
O20 H105 1_555 1_555
H106 O20 1_555 1_555
O21 H107 1_555 1_555
H108 O21 1_555 1_555
O22 H109 1_555 1_555
H110 O22 1_555 1_555
O23 H111 1_555 1_555
H112 O23 1_555 1_555
O24 H113 1_555 1_555
H114 O24 1_555 1_555
O25 H115 1_555 1_555
H116 O25 1_555 1_555
O26 H117 1_555 1_555
H118 O26 1_555 1_555
O27 H119 1_555 1_555
H120 O27 1_555 1_555
C8 C9 1_555 1_555
C20 C21 1_555 1_555
C23 C24 1_555 1_555
C32 C33 1_555 1_555
C35 C36 1_555 1_555
C41 C42 1_555 1_555
C48 C49 1_555 1_555
C55 C56 1_555 1_555
C62 C63 1_555 1_555
C69 C70 1_555 1_555
C76 C77 1_555 1_555

#END
