
#######################################################################
#
#                 Cambridge Crystallographic Data Centre
#                                CCDC 
#
#######################################################################
#
# If this CIF has been generated from an entry in the Cambridge 
# Structural Database, then it will include bibliographic, chemical, 
# crystal, experimental, refinement or atomic coordinate data resulting 
# from the CCDC's data processing and validation procedures.
#
#######################################################################

data_SUYVOY
_chemical_formula_moiety         'C19 H15 N1 O3 S1'
_chemical_name_systematic        
10-(2-Ethoxy-1,3-thiazol-5-yl)-10-hydroxyphenanthren-9(10H)-one
_symmetry_cell_setting           triclinic
_symmetry_space_group_name_H-M   'P -1'
_symmetry_Int_Tables_number      2
_space_group_name_Hall           '-P 1'
loop_
_symmetry_equiv_pos_site_id
_symmetry_equiv_pos_as_xyz
1 x,y,z
2 -x,-y,-z
_cell_length_a                   7.1386(4)
_cell_length_b                   9.6206(6)
_cell_length_c                   12.7743(8)
_cell_angle_alpha                106.863(2)
_cell_angle_beta                 97.746(2)
_cell_angle_gamma                104.667(2)
_cell_volume                     791.415
_exptl_crystal_colour            colorless
_exptl_crystal_description       block
_chemical_melting_point          '410-412 K'
_cell_formula_units_Z            2
_exptl_crystal_recrystallization_method 'petroleum ether/acetone'
loop_
_atom_site_label
_atom_site_type_symbol
_atom_site_fract_x
_atom_site_fract_y
_atom_site_fract_z
S1 S -0.03580(5) -0.12894(4) 0.11117(3)
O1 O 0.39811(18) -0.00646(13) 0.31190(10)
O2 O 0.36598(16) 0.12494(13) 0.15415(9)
O3 O -0.42108(15) -0.26001(11) 0.04040(8)
N1 N -0.30774(17) 0.00285(13) 0.14259(9)
C1 C 0.3195(2) 0.09376(16) 0.33170(11)
C2 C 0.2699(2) 0.15724(15) 0.44016(11)
C3 C 0.2670(2) 0.07575(17) 0.51513(12)
H1 H 0.2985 -0.0151 0.4963
C4 C 0.2174(2) 0.12966(18) 0.61688(12)
H2 H 0.2149 0.0754 0.6665
C5 C 0.1715(2) 0.26594(19) 0.64427(12)
H3 H 0.1340 0.3011 0.7116
C6 C 0.1809(2) 0.35008(17) 0.57240(12)
H4 H 0.1531 0.4424 0.5932
C7 C 0.23147(19) 0.29845(15) 0.46916(11)
C8 C 0.2552(2) 0.38983(16) 0.39351(11)
C9 C 0.2628(2) 0.54351(17) 0.42843(13)
H5 H 0.2493 0.5897 0.5006
C10 C 0.2901(2) 0.62833(17) 0.35718(14)
H6 H 0.2936 0.7301 0.3816
C11 C 0.3123(2) 0.56129(18) 0.24976(14)
H7 H 0.3321 0.6184 0.2024
C12 C 0.3050(2) 0.40867(17) 0.21277(13)
H8 H 0.3189 0.3637 0.1405
C13 C 0.2769(2) 0.32302(16) 0.28379(12)
C14 C 0.2567(2) 0.15402(15) 0.23775(11)
C15 C 0.0382(2) 0.06559(15) 0.18794(11)
C16 C -0.1246(2) 0.11260(15) 0.19485(11)
H9 H -0.1142 0.2136 0.2328
C17 C -0.2804(2) -0.12792(15) 0.09691(11)
C18 C -0.6223(2) -0.24987(16) 0.01743(12)
H10 H -0.6257 -0.1734 -0.0177
H11 H -0.6678 -0.2221 0.0866
C19 C -0.7522(2) -0.40515(19) -0.06037(15)
H12 H -0.8874 -0.4047 -0.0758
H13 H -0.7438 -0.4801 -0.0256
H14 H -0.7082 -0.4296 -0.1293
H15 H 0.446(4) 0.075(3) 0.170(2)
loop_
_geom_bond_atom_site_label_1
_geom_bond_atom_site_label_2
_geom_bond_site_symmetry_1
_geom_bond_site_symmetry_2
S1 C15 1_555 1_555
O1 C1 1_555 1_555
O2 C14 1_555 1_555
O3 C17 1_555 1_555
N1 C16 1_555 1_555
C1 C2 1_555 1_555
C2 C3 1_555 1_555
C3 H1 1_555 1_555
C4 C3 1_555 1_555
H2 C4 1_555 1_555
C5 C4 1_555 1_555
H3 C5 1_555 1_555
C6 C5 1_555 1_555
H4 C6 1_555 1_555
C7 C2 1_555 1_555
C8 C7 1_555 1_555
C9 C8 1_555 1_555
H5 C9 1_555 1_555
C10 C9 1_555 1_555
H6 C10 1_555 1_555
C11 C10 1_555 1_555
H7 C11 1_555 1_555
C12 C11 1_555 1_555
H8 C12 1_555 1_555
C13 C8 1_555 1_555
C14 C1 1_555 1_555
C15 C14 1_555 1_555
C16 C15 1_555 1_555
H9 C16 1_555 1_555
C17 S1 1_555 1_555
C18 O3 1_555 1_555
H10 C18 1_555 1_555
H11 C18 1_555 1_555
C19 C18 1_555 1_555
H12 C19 1_555 1_555
H13 C19 1_555 1_555
H14 C19 1_555 1_555
H15 O2 1_555 1_555
N1 C17 1_555 1_555
C6 C7 1_555 1_555
C12 C13 1_555 1_555
C13 C14 1_555 1_555

#END
