
#######################################################################
#
#                 Cambridge Crystallographic Data Centre
#                                CCDC 
#
#######################################################################
#
# If this CIF has been generated from an entry in the Cambridge 
# Structural Database, then it will include bibliographic, chemical, 
# crystal, experimental, refinement or atomic coordinate data resulting 
# from the CCDC's data processing and validation procedures.
#
#######################################################################

data_SUYYOB
_chemical_formula_moiety         'C19 H14 N2 O3 S1'
_chemical_name_systematic        
1'-Acetyl-3-phenyl-6-oxa-4-thia-2-azaspiro[bicyclo[3.2.0]hept-2-ene-7,3'-indolin]-2'-one
_symmetry_cell_setting           triclinic
_symmetry_space_group_name_H-M   'P -1'
_symmetry_Int_Tables_number      2
_space_group_name_Hall           '-P 1'
loop_
_symmetry_equiv_pos_site_id
_symmetry_equiv_pos_as_xyz
1 x,y,z
2 -x,-y,-z
_cell_length_a                   7.5054(3)
_cell_length_b                   9.4936(3)
_cell_length_c                   11.6359(4)
_cell_angle_alpha                103.502(3)
_cell_angle_beta                 91.163(3)
_cell_angle_gamma                100.200(3)
_cell_volume                     791.792
_exptl_crystal_colour            colorless
_exptl_crystal_description       block
_chemical_melting_point          '442-444 K'
_cell_formula_units_Z            2
_exptl_crystal_recrystallization_method 'acetone/petroleum ether'
loop_
_atom_site_label
_atom_site_type_symbol
_atom_site_fract_x
_atom_site_fract_y
_atom_site_fract_z
S1 S 0.31424(10) 0.63788(7) 0.48799(6)
O1 O 0.5459(3) 0.90182(19) 0.58975(16)
O2 O 0.6257(3) 0.7176(2) 0.74453(17)
O3 O 0.8183(3) 0.9955(2) 1.07309(17)
N1 N 0.6758(3) 0.9398(2) 0.89013(19)
N2 N 0.2265(3) 0.7250(2) 0.70929(19)
C1 C 0.5502(4) 1.0821(3) 0.7864(2)
C2 C 0.5067(4) 1.2098(3) 0.7631(2)
H1 H 0.4462 1.2074 0.6919
C3 C 0.5566(4) 1.3413(3) 0.8498(3)
H2 H 0.5333 1.4291 0.8358
C4 C 0.6407(4) 1.3411(3) 0.9567(3)
H3 H 0.6693 1.4293 1.0143
C5 C 0.6845(4) 1.2135(3) 0.9816(2)
H4 H 0.7404 1.2149 1.0540
C6 C 0.6399(4) 1.0849(3) 0.8924(2)
C7 C 0.6062(4) 0.8429(3) 0.7805(2)
C8 C 0.5034(4) 0.9279(3) 0.7127(2)
C9 C 0.2983(4) 0.8603(3) 0.6760(2)
H5 H 0.2192 0.9334 0.6934
C10 C 0.3596(4) 0.8344(3) 0.5480(2)
H6 H 0.3038 0.8885 0.4995
C11 C 0.2314(4) 0.6112(3) 0.6260(2)
C12 C 0.1634(4) 0.4594(3) 0.6374(2)
C13 C 0.0699(4) 0.4403(3) 0.7366(2)
H7 H 0.0553 0.5223 0.7949
C14 C -0.0011(4) 0.3003(3) 0.7486(2)
H8 H -0.0637 0.2881 0.8148
C15 C 0.0213(4) 0.1773(3) 0.6613(3)
H9 H -0.0262 0.0829 0.6691
C16 C 0.1142(4) 0.1963(3) 0.5632(3)
H10 H 0.1287 0.1142 0.5050
C17 C 0.1866(4) 0.3371(3) 0.5504(2)
H11 H 0.2497 0.3491 0.4844
C18 C 0.7757(4) 0.9051(3) 0.9798(2)
C19 C 0.8273(4) 0.7560(3) 0.9534(3)
H12 H 0.8923 0.7446 1.0216
H13 H 0.9029 0.7467 0.8875
H14 H 0.7197 0.6812 0.9343
loop_
_geom_bond_atom_site_label_1
_geom_bond_atom_site_label_2
_geom_bond_site_symmetry_1
_geom_bond_site_symmetry_2
S1 C10 1_555 1_555
O1 C8 1_555 1_555
O2 C7 1_555 1_555
O3 C18 1_555 1_555
N1 C6 1_555 1_555
N2 C9 1_555 1_555
C1 C2 1_555 1_555
C2 H1 1_555 1_555
C3 C2 1_555 1_555
H2 C3 1_555 1_555
C4 C3 1_555 1_555
H3 C4 1_555 1_555
C5 C4 1_555 1_555
H4 C5 1_555 1_555
C6 C1 1_555 1_555
C7 N1 1_555 1_555
C8 C1 1_555 1_555
C9 C8 1_555 1_555
H5 C9 1_555 1_555
C10 O1 1_555 1_555
H6 C10 1_555 1_555
C11 S1 1_555 1_555
C12 C11 1_555 1_555
C13 C12 1_555 1_555
H7 C13 1_555 1_555
C14 C13 1_555 1_555
H8 C14 1_555 1_555
C15 C14 1_555 1_555
H9 C15 1_555 1_555
C16 C15 1_555 1_555
H10 C16 1_555 1_555
C17 C12 1_555 1_555
H11 C17 1_555 1_555
C18 N1 1_555 1_555
C19 C18 1_555 1_555
H12 C19 1_555 1_555
H13 C19 1_555 1_555
H14 C19 1_555 1_555
N2 C11 1_555 1_555
C5 C6 1_555 1_555
C7 C8 1_555 1_555
C9 C10 1_555 1_555
C16 C17 1_555 1_555

#END
