
#######################################################################
#
#                 Cambridge Crystallographic Data Centre
#                                CCDC 
#
#######################################################################
#
# If this CIF has been generated from an entry in the Cambridge 
# Structural Database, then it will include bibliographic, chemical, 
# crystal, experimental, refinement or atomic coordinate data resulting 
# from the CCDC's data processing and validation procedures.
#
#######################################################################

data_SUYYUI
_chemical_formula_moiety         
'C9 H12 N1 O1 1+,C10 H6 O6 S2 2-,H4 N1 1+,H3 N1'
_chemical_name_systematic        
'ammonium 4-formyl-N,N-dimethylanilinium naphthalene-1,5-disulfonate ammonia'
_symmetry_cell_setting           orthorhombic
_symmetry_space_group_name_H-M   'P n m a'
_symmetry_Int_Tables_number      62
_space_group_name_Hall           '-P 2ac 2n'
loop_
_symmetry_equiv_pos_site_id
_symmetry_equiv_pos_as_xyz
1 x,y,z
2 1/2-x,-y,1/2+z
3 -x,1/2+y,-z
4 1/2+x,1/2-y,1/2-z
5 -x,-y,-z
6 1/2+x,y,1/2-z
7 x,1/2-y,z
8 1/2-x,1/2+y,1/2+z
_cell_length_a                   20.0202(18)
_cell_length_b                   13.4134(12)
_cell_length_c                   7.9152(5)
_cell_angle_alpha                90
_cell_angle_beta                 90
_cell_angle_gamma                90
_cell_volume                     2125.54
_exptl_crystal_colour            colorless
_exptl_crystal_description       block
_cell_formula_units_Z            4
loop_
_atom_site_label
_atom_site_type_symbol
_atom_site_fract_x
_atom_site_fract_y
_atom_site_fract_z
N2 N 0.71069(19) 0.3376(2) 0.9975(5)
H10 H 0.7071 0.3541 1.1074
H11 H 0.7526 0.3541 0.9676
H12 H 0.6808 0.3715 0.9352
H13 H 0.7037 0.2718 0.9830
O2 O 0.63602(13) 0.46853(19) 0.8418(3)
O3 O 0.71510(13) 0.5262(2) 0.6358(4)
O4 O 0.63323(14) 0.63954(18) 0.7477(4)
S1 S 0.64843(5) 0.53782(7) 0.70461(12)
C9 C 0.6170(2) 0.4806(3) 0.3858(5)
H14 H 0.6630 0.4770 0.3698
C10 C 0.59191(18) 0.5058(2) 0.5408(5)
C11 C 0.52140(17) 0.5105(2) 0.5690(4)
C12 C 0.4933(2) 0.5348(3) 0.7273(5)
H15 H 0.5212 0.5477 0.8187
C13 C 0.4259(2) 0.5397(3) 0.7478(5)
H16 H 0.4083 0.5568 0.8526
O2D O 0.36398(13) 0.53147(19) 0.1582(3)
O3D O 0.28490(13) 0.4738(2) 0.3642(4)
O4D O 0.36677(14) 0.36046(18) 0.2523(4)
S1D S 0.35157(5) 0.46218(7) 0.29539(12)
C9D C 0.3830(2) 0.5194(3) 0.6142(5)
H14D H 0.3370 0.5230 0.6302
C10D C 0.40809(18) 0.4942(2) 0.4592(5)
C11D C 0.47860(17) 0.4895(2) 0.4310(4)
C12D C 0.5067(2) 0.4652(3) 0.2727(5)
H15D H 0.4788 0.4523 0.1813
C13D C 0.5741(2) 0.4603(3) 0.2522(5)
H16D H 0.5917 0.4432 0.1474
N1 N 0.6626(2) 0.7500 0.0558(6)
H1 H 0.6534 0.7500 -0.0568
O1 O 0.3584(2) 0.7500 0.3285(7)
C1 C 0.4122(4) 0.7500 0.3949(9)
H2 H 0.4131 0.7500 0.5124
C2 C 0.4771(3) 0.7500 0.3065(8)
C3 C 0.5357(3) 0.7500 0.3998(8)
H3 H 0.5341 0.7500 0.5172
C4 C 0.5966(3) 0.7500 0.3177(7)
H4 H 0.6362 0.7500 0.3793
C5 C 0.5981(3) 0.7500 0.1435(7)
C6 C 0.5404(3) 0.7500 0.0504(7)
H5 H 0.5421 0.7500 -0.0671
C7 C 0.4801(3) 0.7500 0.1320(8)
H6 H 0.4407 0.7500 0.0695
C8 C 0.7029(2) 0.6584(3) 0.0899(6)
H7 H 0.7152 0.6567 0.2071
H8 H 0.7424 0.6592 0.0215
H9 H 0.6768 0.6004 0.0632
C8F C 0.7029(2) 0.8416(3) 0.0899(6)
H7F H 0.7152 0.8433 0.2071
H8F H 0.7424 0.8408 0.0215
H9F H 0.6768 0.8996 0.0632
loop_
_geom_bond_atom_site_label_1
_geom_bond_atom_site_label_2
_geom_bond_site_symmetry_1
_geom_bond_site_symmetry_2
N1 H1 1_555 1_555
O1 C1 1_555 1_555
C1 H2 1_555 1_555
C2 C1 1_555 1_555
C3 C2 1_555 1_555
H3 C3 1_555 1_555
C4 C3 1_555 1_555
H4 C4 1_555 1_555
C5 N1 1_555 1_555
C6 C5 1_555 1_555
H5 C6 1_555 1_555
C7 C2 1_555 1_555
H6 C7 1_555 1_555
C8 N1 1_555 1_555
H7 C8 1_555 1_555
H8 C8 1_555 1_555
H9 C8 1_555 1_555
N2 H10 1_555 1_555
H11 N2 1_555 1_555
H12 N2 1_555 1_555
H13 N2 1_555 1_555
O2 S1 1_555 1_555
O3 S1 1_555 1_555
O4 S1 1_555 1_555
S1 C10 1_555 1_555
C9 H14 1_555 1_555
C10 C9 1_555 1_555
C11 C10 1_555 1_555
C12 C11 1_555 1_555
H15 C12 1_555 1_555
C13 C12 1_555 1_555
H16 C13 1_555 1_555
C8F N1 1_555 1_555
H7F C8F 1_555 1_555
H8F C8F 1_555 1_555
H9F C8F 1_555 1_555
O2D S1D 1_555 1_555
O3D S1D 1_555 1_555
O4D S1D 1_555 1_555
S1D C10D 1_555 1_555
C9D C13 1_555 1_555
H14D C9D 1_555 1_555
C10D C9D 1_555 1_555
C11D C11 1_555 1_555
C12D C11D 1_555 1_555
H15D C12D 1_555 1_555
C13D C9 1_555 1_555
H16D C13D 1_555 1_555
C4 C5 1_555 1_555
C6 C7 1_555 1_555
C10D C11D 1_555 1_555
C12D C13D 1_555 1_555

#END
