
#######################################################################
#
#                 Cambridge Crystallographic Data Centre
#                                CCDC 
#
#######################################################################
#
# If this CIF has been generated from an entry in the Cambridge 
# Structural Database, then it will include bibliographic, chemical, 
# crystal, experimental, refinement or atomic coordinate data resulting 
# from the CCDC's data processing and validation procedures.
#
#######################################################################

data_SUYZET
_chemical_formula_moiety         'C9 H11 N1 O1,0.5(C4 H4 O4)'
_chemical_name_systematic        
'4-(dimethylamino)benzaldehyde hemikis(fumaric acid)'
_symmetry_cell_setting           monoclinic
_symmetry_space_group_name_H-M   'P 21/c'
_symmetry_Int_Tables_number      14
_space_group_name_Hall           '-P 2ybc'
loop_
_symmetry_equiv_pos_site_id
_symmetry_equiv_pos_as_xyz
1 x,y,z
2 -x,1/2+y,1/2-z
3 -x,-y,-z
4 x,1/2-y,1/2+z
_cell_length_a                   4.1940(3)
_cell_length_b                   10.6131(9)
_cell_length_c                   24.444(2)
_cell_angle_alpha                90
_cell_angle_beta                 94.6830(10)
_cell_angle_gamma                90
_cell_volume                     1084.4
_exptl_crystal_colour            colorless
_exptl_crystal_description       block
_cell_formula_units_Z            4
loop_
_atom_site_label
_atom_site_type_symbol
_atom_site_fract_x
_atom_site_fract_y
_atom_site_fract_z
N1 N 0.6577(6) 0.0302(3) 0.09940(10)
O1 O 0.0139(8) -0.0774(3) 0.32394(12)
C1 C 0.0787(7) 0.0219(4) 0.29870(12)
H1 H 0.0282 0.0987 0.3141
C2 C 0.2256(7) 0.0234(3) 0.24772(11)
C3 C 0.3006(7) -0.0876(3) 0.22107(12)
H2 H 0.2511 -0.1646 0.2364
C4 C 0.4441(7) -0.0858(3) 0.17328(12)
H3 H 0.4927 -0.1617 0.1569
C5 C 0.5209(7) 0.0275(3) 0.14808(11)
C6 C 0.4459(7) 0.1393(3) 0.17477(12)
H4 H 0.4944 0.2165 0.1595
C7 C 0.3019(7) 0.1362(3) 0.22312(13)
H5 H 0.2539 0.2117 0.2399
C8 C 0.7516(8) 0.1476(3) 0.07517(13)
H6 H 0.5673 0.2008 0.0685
H7 H 0.8422 0.1306 0.0411
H8 H 0.9074 0.1893 0.0998
C9 C 0.7484(8) -0.0856(3) 0.07283(13)
H9 H 0.8860 -0.1342 0.0980
H10 H 0.8591 -0.0654 0.0411
H11 H 0.5599 -0.1335 0.0618
O3 O 0.2575(6) 0.4306(2) 0.08483(9)
H13 H 0.1738 0.4354 0.1139
O4 O 0.2692(8) 0.6363(3) 0.09252(11)
C10 C 0.3255(9) 0.5412(4) 0.06874(14)
C11 C 0.4778(9) 0.5459(3) 0.01574(13)
H14 H 0.5474 0.6244 0.0047
O3B O 0.7425(6) 0.5694(2) -0.08483(9)
H13B H 0.8262 0.5646 -0.1139
O4B O 0.7308(8) 0.3637(3) -0.09252(11)
C10B C 0.6745(9) 0.4588(4) -0.06874(14)
C11B C 0.5222(9) 0.4541(3) -0.01574(13)
H14B H 0.4526 0.3756 -0.0047
O2? O 0.0120(19) 0.1263(7) 0.3225(3)
H12? H 0.0319 -0.0549 0.3146
loop_
_geom_bond_atom_site_label_1
_geom_bond_atom_site_label_2
_geom_bond_site_symmetry_1
_geom_bond_site_symmetry_2
N1 C5 1_555 1_555
O1 C1 1_555 1_555
C1 H1 1_555 1_555
C2 C1 1_555 1_555
C3 C2 1_555 1_555
H2 C3 1_555 1_555
C4 C3 1_555 1_555
H3 C4 1_555 1_555
C5 C4 1_555 1_555
C6 C5 1_555 1_555
H4 C6 1_555 1_555
C7 C2 1_555 1_555
H5 C7 1_555 1_555
C8 N1 1_555 1_555
H6 C8 1_555 1_555
H7 C8 1_555 1_555
H8 C8 1_555 1_555
C9 N1 1_555 1_555
H9 C9 1_555 1_555
H10 C9 1_555 1_555
H11 C9 1_555 1_555
O3 H13 1_555 1_555
O4 C10 1_555 1_555
C10 O3 1_555 1_555
C11 C10 1_555 1_555
H14 C11 1_555 1_555
O3B H13B 1_555 1_555
O4B C10B 1_555 1_555
C10B O3B 1_555 1_555
C11B C11 1_555 1_555
H14B C11B 1_555 1_555
C6 C7 1_555 1_555
C10B C11B 1_555 1_555

#END
