
#######################################################################
#
#                 Cambridge Crystallographic Data Centre
#                                CCDC 
#
#######################################################################
#
# If this CIF has been generated from an entry in the Cambridge 
# Structural Database, then it will include bibliographic, chemical, 
# crystal, experimental, refinement or atomic coordinate data resulting 
# from the CCDC's data processing and validation procedures.
#
#######################################################################

data_SUZBOF
_chemical_compound_source        'Areca catechu L'
_chemical_name_common            'Arborinol methyl ether'
_chemical_formula_moiety         'C31 H52 O1'
_chemical_name_systematic        
'3-Isopropyl-3a,5a,8,8,11a,13a-hexamethyl-2,3,3a,4,5,5a,5b,6,7,7a,8,9,10,11,11a,13,13a,13b-octadecahydro-1H-cyclopenta[a]chrysen-9-yl methyl ether'
_symmetry_cell_setting           triclinic
_symmetry_space_group_name_H-M   'P 1'
_symmetry_Int_Tables_number      1
_space_group_name_Hall           'P 1'
loop_
_symmetry_equiv_pos_site_id
_symmetry_equiv_pos_as_xyz
1 x,y,z
_cell_length_a                   6.2684(2)
_cell_length_b                   7.1162(3)
_cell_length_c                   16.0814(5)
_cell_angle_alpha                96.812(3)
_cell_angle_beta                 91.079(3)
_cell_angle_gamma                114.397(4)
_cell_volume                     646.852
_exptl_crystal_colour            colorless
_exptl_crystal_description       block
_cell_formula_units_Z            1
loop_
_atom_site_label
_atom_site_type_symbol
_atom_site_fract_x
_atom_site_fract_y
_atom_site_fract_z
C1 C 0.5138(3) -0.3358(2) 0.40741(9)
H1 H 0.5050 -0.4577 0.4335
H2 H 0.3552 -0.3370 0.4057
C2 C 0.5864(3) -0.3558(2) 0.31749(9)
H3 H 0.7412 -0.3622 0.3188
H4 H 0.4706 -0.4871 0.2852
C3 C 0.6011(3) -0.1728(2) 0.27380(9)
H5 H 0.6561 -0.1893 0.2165
C4 C 0.7721(3) 0.0390(2) 0.32172(8)
C5 C 0.7148(2) 0.0538(2) 0.41576(8)
H6 H 0.5571 0.0575 0.4149
C6 C 0.8804(3) 0.2588(2) 0.46836(9)
H7 H 1.0362 0.2578 0.4785
H8 H 0.9012 0.3767 0.4374
C7 C 0.7799(3) 0.2871(2) 0.55207(9)
H9 H 0.6303 0.2993 0.5415
H10 H 0.8907 0.4186 0.5857
C8 C 0.7348(2) 0.1057(2) 0.60306(8)
H11 H 0.8920 0.1098 0.6188
C9 C 0.5957(2) -0.1040(2) 0.54887(8)
C10 C 0.6864(2) -0.1349(2) 0.46198(8)
C11 C 0.4202(3) -0.2573(2) 0.57888(9)
H12 H 0.3307 -0.3797 0.5410
C12 C 0.3540(3) -0.2501(2) 0.66850(9)
H13 H 0.3205 -0.3859 0.6878
H14 H 0.2094 -0.2262 0.6713
C13 C 0.5521(2) -0.0759(2) 0.72699(8)
C14 C 0.6215(2) 0.1294(2) 0.68650(8)
C15 C 0.7946(3) 0.3152(2) 0.74854(8)
H15 H 0.9407 0.2963 0.7576
H16 H 0.8356 0.4446 0.7231
C16 C 0.6969(3) 0.3411(2) 0.83427(9)
H17 H 0.8175 0.4612 0.8710
H18 H 0.5581 0.3716 0.8261
C17 C 0.6263(2) 0.1459(2) 0.87773(8)
C18 C 0.4636(2) -0.0441(2) 0.81386(8)
H19 H 0.3244 -0.0145 0.8016
C19 C 0.3707(3) -0.2239(2) 0.86612(10)
H20 H 0.4854 -0.2846 0.8728
H21 H 0.2198 -0.3348 0.8404
C20 C 0.3376(3) -0.1160(3) 0.95141(10)
H22 H 0.4129 -0.1513 0.9982
H23 H 0.1684 -0.1626 0.9600
C21 C 0.4542(3) 0.1223(2) 0.94855(9)
H24 H 0.3286 0.1607 0.9274
C22 C 0.5449(3) 0.2481(3) 1.03637(9)
H25 H 0.6626 0.2042 1.0605
C23 C 0.7374(3) 0.2111(2) 0.28168(9)
H26 H 0.7427 0.1863 0.2206
H27 H 0.8627 0.3469 0.3041
H28 H 0.5848 0.2097 0.2947
C24 C 1.0260(3) 0.0673(2) 0.30911(10)
H29 H 1.0491 -0.0499 0.3275
H30 H 1.1358 0.1977 0.3423
H31 H 1.0547 0.0721 0.2495
C25 C 0.9183(3) -0.1575(2) 0.47981(9)
H32 H 0.8942 -0.2552 0.5205
H33 H 1.0420 -0.0212 0.5027
H34 H 0.9650 -0.2102 0.4274
C26 C 0.7569(3) -0.1429(2) 0.73227(9)
H35 H 0.7243 -0.2442 0.7719
H36 H 0.9031 -0.0205 0.7516
H37 H 0.7732 -0.2064 0.6766
C27 C 0.4046(3) 0.1723(2) 0.66699(9)
H38 H 0.4565 0.3150 0.6540
H39 H 0.3109 0.1553 0.7159
H40 H 0.3091 0.0738 0.6187
C28 C 0.8488(3) 0.1317(3) 0.91300(10)
H41 H 0.8048 -0.0020 0.9342
H42 H 0.9271 0.2459 0.9589
H43 H 0.9557 0.1421 0.8683
C29 C 0.3424(3) 0.1982(3) 1.09390(10)
H44 H 0.2243 0.2392 1.0712
H45 H 0.4025 0.2751 1.1502
H46 H 0.2708 0.0483 1.0971
C30 C 0.6642(4) 0.4834(3) 1.03546(11)
H47 H 0.8099 0.5187 1.0070
H48 H 0.7004 0.5551 1.0933
H49 H 0.5587 0.5273 1.0055
C31 C 0.2276(3) -0.3154(3) 0.19751(10)
H50 H 0.3059 -0.2873 0.1453
H51 H 0.0790 -0.3013 0.1929
H52 H 0.1965 -0.4573 0.2075
O1 O 0.37357(19) -0.17199(17) 0.26493(7)
loop_
_geom_bond_atom_site_label_1
_geom_bond_atom_site_label_2
_geom_bond_site_symmetry_1
_geom_bond_site_symmetry_2
C1 H1 1_555 1_555
H2 C1 1_555 1_555
C2 C1 1_555 1_555
H3 C2 1_555 1_555
H4 C2 1_555 1_555
C3 C2 1_555 1_555
H5 C3 1_555 1_555
C4 C3 1_555 1_555
C5 C4 1_555 1_555
H6 C5 1_555 1_555
C6 C5 1_555 1_555
H7 C6 1_555 1_555
H8 C6 1_555 1_555
C7 C6 1_555 1_555
H9 C7 1_555 1_555
H10 C7 1_555 1_555
C8 C7 1_555 1_555
H11 C8 1_555 1_555
C9 C8 1_555 1_555
C10 C1 1_555 1_555
C11 C9 1_555 1_555
H12 C11 1_555 1_555
C12 C11 1_555 1_555
H13 C12 1_555 1_555
H14 C12 1_555 1_555
C13 C12 1_555 1_555
C14 C8 1_555 1_555
C15 C14 1_555 1_555
H15 C15 1_555 1_555
H16 C15 1_555 1_555
C16 C15 1_555 1_555
H17 C16 1_555 1_555
H18 C16 1_555 1_555
C17 C16 1_555 1_555
C18 C13 1_555 1_555
H19 C18 1_555 1_555
C19 C18 1_555 1_555
H20 C19 1_555 1_555
H21 C19 1_555 1_555
C20 C19 1_555 1_555
H22 C20 1_555 1_555
H23 C20 1_555 1_555
C21 C17 1_555 1_555
H24 C21 1_555 1_555
C22 C21 1_555 1_555
H25 C22 1_555 1_555
C23 C4 1_555 1_555
H26 C23 1_555 1_555
H27 C23 1_555 1_555
H28 C23 1_555 1_555
C24 C4 1_555 1_555
H29 C24 1_555 1_555
H30 C24 1_555 1_555
H31 C24 1_555 1_555
C25 C10 1_555 1_555
H32 C25 1_555 1_555
H33 C25 1_555 1_555
H34 C25 1_555 1_555
C26 C13 1_555 1_555
H35 C26 1_555 1_555
H36 C26 1_555 1_555
H37 C26 1_555 1_555
C27 C14 1_555 1_555
H38 C27 1_555 1_555
H39 C27 1_555 1_555
H40 C27 1_555 1_555
C28 C17 1_555 1_555
H41 C28 1_555 1_555
H42 C28 1_555 1_555
H43 C28 1_555 1_555
C29 C22 1_555 1_555
H44 C29 1_555 1_555
H45 C29 1_555 1_555
H46 C29 1_555 1_555
C30 C22 1_555 1_555
H47 C30 1_555 1_555
H48 C30 1_555 1_555
H49 C30 1_555 1_555
C31 H50 1_555 1_555
H51 C31 1_555 1_555
H52 C31 1_555 1_555
O1 C3 1_555 1_555
C5 C10 1_555 1_555
C9 C10 1_555 1_555
C13 C14 1_555 1_555
C17 C18 1_555 1_555
C20 C21 1_555 1_555
C31 O1 1_555 1_555

#END
