
#######################################################################
#
#                 Cambridge Crystallographic Data Centre
#                                CCDC 
#
#######################################################################
#
# If this CIF has been generated from an entry in the Cambridge 
# Structural Database, then it will include bibliographic, chemical, 
# crystal, experimental, refinement or atomic coordinate data resulting 
# from the CCDC's data processing and validation procedures.
#
#######################################################################

data_SUZCUM
_chemical_formula_moiety         'C13 H14 N2 O1 S1'
_chemical_name_systematic        
1-(6-Methyl-4-phenyl-2-thioxo-1,2,3,4-tetrahydropyrimidin-5-yl)ethanone
_symmetry_cell_setting           monoclinic
_symmetry_space_group_name_H-M   'P 21/c'
_symmetry_Int_Tables_number      14
_space_group_name_Hall           '-P 2ybc'
loop_
_symmetry_equiv_pos_site_id
_symmetry_equiv_pos_as_xyz
1 x,y,z
2 -x,1/2+y,1/2-z
3 -x,-y,-z
4 x,1/2-y,1/2+z
_cell_length_a                   7.8849(10)
_cell_length_b                   7.2054(5)
_cell_length_c                   21.555(3)
_cell_angle_alpha                90
_cell_angle_beta                 94.401(12)
_cell_angle_gamma                90
_cell_volume                     1221.01
_exptl_crystal_colour            colorless
_exptl_crystal_description       prism
_chemical_melting_point          '523.5 K'
_cell_formula_units_Z            4
loop_
_atom_site_label
_atom_site_type_symbol
_atom_site_fract_x
_atom_site_fract_y
_atom_site_fract_z
S1 S 0.49206(14) -0.24803(15) 0.06167(5)
O1 O 0.7124(6) 0.5124(5) 0.21330(16)
N1 N 0.6473(5) -0.1160(5) 0.16583(16)
N2 N 0.5890(4) 0.0977(5) 0.08897(16)
C1 C 0.5819(5) -0.0771(5) 0.10664(18)
C2 C 0.6849(5) 0.2449(5) 0.12284(18)
C3 C 0.7078(5) 0.1972(5) 0.19220(17)
C4 C 0.6954(5) 0.0179(6) 0.21040(18)
C5 C 0.7438(6) 0.3575(6) 0.23320(19)
C6 C 0.8242(9) 0.3391(8) 0.2982(2)
C7 C 0.8574(5) 0.2795(5) 0.09762(17)
C8 C 0.9599(6) 0.1317(7) 0.0816(2)
C9 C 1.1194(6) 0.1664(8) 0.0619(2)
C10 C 1.1803(6) 0.3452(9) 0.0582(2)
C11 C 1.0782(6) 0.4909(8) 0.0726(2)
C12 C 0.9178(6) 0.4592(7) 0.0921(2)
C13 C 0.7244(7) -0.0627(6) 0.27457(19)
H1 H 0.642(7) -0.225(8) 0.173(2)
H2 H 0.565(5) 0.118(6) 0.049(2)
H3 H 0.61861 0.35972 0.11825
H4 H 0.86487 0.45818 0.31279
H5 H 0.91778 0.25375 0.29855
H6 H 0.74161 0.29367 0.32496
H7 H 0.92086 0.01038 0.08427
H8 H 1.18682 0.06759 0.05095
H9 H 1.28923 0.36677 0.04607
H10 H 1.11727 0.61201 0.06913
H11 H 0.84985 0.55915 0.10164
H12 H 0.84360 -0.05933 0.28748
H13 H 0.68524 -0.18890 0.27422
H14 H 0.66278 0.00853 0.30303
loop_
_geom_bond_atom_site_label_1
_geom_bond_atom_site_label_2
_geom_bond_site_symmetry_1
_geom_bond_site_symmetry_2
S1 C1 1_555 1_555
O1 C5 1_555 1_555
N1 C1 1_555 1_555
N2 C1 1_555 1_555
C2 N2 1_555 1_555
C3 C2 1_555 1_555
C4 N1 1_555 1_555
C5 C3 1_555 1_555
C6 C5 1_555 1_555
C7 C2 1_555 1_555
C8 C7 1_555 1_555
C9 C8 1_555 1_555
C10 C9 1_555 1_555
C11 C10 1_555 1_555
C12 C7 1_555 1_555
C13 C4 1_555 1_555
H1 N1 1_555 1_555
H2 N2 1_555 1_555
H3 C2 1_555 1_555
H4 C6 1_555 1_555
H5 C6 1_555 1_555
H6 C6 1_555 1_555
H7 C8 1_555 1_555
H8 C9 1_555 1_555
H9 C10 1_555 1_555
H10 C11 1_555 1_555
H11 C12 1_555 1_555
H12 C13 1_555 1_555
H13 C13 1_555 1_555
H14 C13 1_555 1_555
C3 C4 1_555 1_555
C11 C12 1_555 1_555

#END
