
#######################################################################
#
#                 Cambridge Crystallographic Data Centre
#                                CCDC 
#
#######################################################################
#
# If this CIF has been generated from an entry in the Cambridge 
# Structural Database, then it will include bibliographic, chemical, 
# crystal, experimental, refinement or atomic coordinate data resulting 
# from the CCDC's data processing and validation procedures.
#
#######################################################################

data_SUZCOH
_chemical_formula_moiety         'C9 H11 N1 O1,C8 H5 N1 O6'
_chemical_name_systematic        
'3-nitrophthalic acid 4-(dimethylamino)benzaldehyde'
_symmetry_cell_setting           triclinic
_symmetry_space_group_name_H-M   'P 1'
_symmetry_Int_Tables_number      1
_space_group_name_Hall           'P 1'
loop_
_symmetry_equiv_pos_site_id
_symmetry_equiv_pos_as_xyz
1 x,y,z
_cell_length_a                   8.0435(14)
_cell_length_b                   14.950(2)
_cell_length_c                   15.322(2)
_cell_angle_alpha                106.974(13)
_cell_angle_beta                 104.815(14)
_cell_angle_gamma                92.553(13)
_cell_volume                     1689.42
_exptl_crystal_colour            colorless
_exptl_crystal_description       block
_cell_formula_units_Z            4
loop_
_atom_site_label
_atom_site_type_symbol
_atom_site_fract_x
_atom_site_fract_y
_atom_site_fract_z
N1 N 0.5148(12) 0.9687(7) -0.0186(6)
O1 O 1.2551(11) 0.9097(6) 0.2186(6)
C1 C 1.1144(13) 0.9240(7) 0.2388(8)
H1 H 1.1099 0.9296 0.3002
C2 C 0.9601(13) 0.9322(7) 0.1704(7)
C3 C 0.9531(13) 0.9208(7) 0.0772(7)
H2 H 1.0493 0.9044 0.0560
C4 C 0.8054(13) 0.9334(7) 0.0143(7)
H3 H 0.8059 0.9274 -0.0478
C5 C 0.6581(13) 0.9547(6) 0.0416(7)
C6 C 0.6628(12) 0.9646(7) 0.1368(7)
H4 H 0.5663 0.9795 0.1583
C7 C 0.8142(12) 0.9518(6) 0.1978(7)
H5 H 0.8156 0.9568 0.2600
C8 C 0.3579(13) 0.9882(8) 0.0113(8)
H6 H 0.2930 0.9299 0.0045
H7 H 0.2883 1.0204 -0.0275
H8 H 0.3895 1.0270 0.0767
C9 C 0.5052(14) 0.9673(9) -0.1146(8)
H9 H 0.6112 0.9990 -0.1151
H10 H 0.4098 0.9988 -0.1372
H11 H 0.4883 0.9031 -0.1552
N2 N 0.5037(11) 0.7078(6) 0.0175(6)
O2 O 1.2668(12) 0.6632(6) 0.2451(7)
C10 C 1.1260(15) 0.6765(8) 0.2678(9)
H12 H 1.1245 0.6828 0.3298
C11 C 0.9699(12) 0.6821(6) 0.2001(7)
C12 C 0.9525(13) 0.6698(7) 0.1054(7)
H13 H 1.0477 0.6561 0.0821
C13 C 0.7994(12) 0.6771(6) 0.0438(7)
H14 H 0.7921 0.6674 -0.0199
C14 C 0.6555(13) 0.6990(6) 0.0769(7)
C15 C 0.6688(13) 0.7120(7) 0.1740(7)
H15 H 0.5735 0.7258 0.1971
C16 C 0.8240(13) 0.7040(6) 0.2343(7)
H16 H 0.8327 0.7132 0.2981
C17 C 0.3505(14) 0.7311(8) 0.0523(9)
H17 H 0.3017 0.6772 0.0636
H18 H 0.2655 0.7483 0.0055
H19 H 0.3849 0.7829 0.1105
C18 C 0.4864(13) 0.6985(7) -0.0810(7)
H20 H 0.5556 0.7505 -0.0847
H21 H 0.3671 0.6983 -0.1132
H22 H 0.5251 0.6405 -0.1106
N3 N 0.2305(11) 0.4258(5) 0.3306(6)
O3 O -0.5257(11) 0.4745(5) 0.0998(6)
C19 C -0.3859(15) 0.4574(7) 0.0760(9)
H23 H -0.3842 0.4496 0.0137
C20 C -0.2326(12) 0.4503(6) 0.1442(7)
C21 C -0.2185(12) 0.4656(6) 0.2409(7)
H24 H -0.3136 0.4811 0.2635
C22 C -0.0670(13) 0.4580(6) 0.3022(7)
H25 H -0.0612 0.4683 0.3659
C23 C 0.0827(12) 0.4346(6) 0.2706(7)
C24 C 0.0692(13) 0.4230(6) 0.1750(7)
H26 H 0.1656 0.4112 0.1525
C25 C -0.0829(14) 0.4288(7) 0.1148(8)
H27 H -0.0888 0.4182 0.0511
C26 C 0.3867(13) 0.4093(8) 0.3019(8)
H28 H 0.3749 0.3453 0.2616
H29 H 0.4834 0.4199 0.3572
H30 H 0.4058 0.4516 0.2678
C27 C 0.2421(12) 0.4369(7) 0.4302(7)
H31 H 0.2378 0.5018 0.4631
H32 H 0.3493 0.4181 0.4595
H33 H 0.1467 0.3982 0.4334
N4 N 0.3420(10) 0.1659(6) 0.3831(6)
O4 O -0.4127(10) 0.2268(6) 0.1588(6)
C28 C -0.2742(14) 0.2117(6) 0.1385(8)
H34 H -0.2718 0.2079 0.0772
C29 C -0.1200(13) 0.1999(7) 0.2012(7)
C30 C -0.1023(13) 0.2103(6) 0.2976(7)
H35 H -0.1958 0.2265 0.3215
C31 C 0.0447(13) 0.1977(7) 0.3568(7)
H36 H 0.0485 0.2039 0.4195
C32 C 0.1925(12) 0.1752(6) 0.3254(7)
C33 C 0.1761(12) 0.1664(6) 0.2299(7)
H37 H 0.2711 0.1528 0.2065
C34 C 0.0252(14) 0.1769(7) 0.1694(8)
H38 H 0.0196 0.1686 0.1061
C35 C 0.3595(14) 0.1747(8) 0.4829(7)
H39 H 0.2770 0.2134 0.5047
H40 H 0.4747 0.2031 0.5208
H41 H 0.3383 0.1133 0.4887
C36 C 0.4986(14) 0.1482(8) 0.3528(8)
H42 H 0.4927 0.0821 0.3206
H43 H 0.5982 0.1676 0.4074
H44 H 0.5079 0.1833 0.3104
N5 N 0.9387(11) 0.9492(6) 0.7470(7)
O5 O 0.5452(9) 0.9076(5) 0.3382(5)
H45 H 0.4456 0.9054 0.3060
O6 O 0.4118(9) 0.9106(6) 0.4490(5)
O7 O 0.5599(8) 1.0414(4) 0.6420(4)
H46 H 0.4773 1.0505 0.6642
O8 O 0.5148(9) 0.8967(4) 0.6530(5)
O9 O 0.8483(12) 0.9996(6) 0.7872(6)
O10 O 1.0553(12) 0.9162(7) 0.7868(6)
C37 C 0.5446(13) 0.9105(6) 0.4240(7)
C38 C 0.5900(12) 0.9520(7) 0.6293(6)
C39 C 0.7173(11) 0.9157(5) 0.4894(6)
C40 C 0.7441(11) 0.9326(6) 0.5884(7)
C41 C 0.9055(12) 0.9323(6) 0.6440(7)
C42 C 1.0472(13) 0.9159(6) 0.6087(8)
H47 H 1.1555 0.9147 0.6483
C43 C 1.0228(12) 0.9015(6) 0.5136(8)
H48 H 1.1168 0.8923 0.4886
C44 C 0.8594(12) 0.9005(6) 0.4537(7)
H49 H 0.8454 0.8895 0.3891
N6 N 0.8879(11) 0.7009(6) 0.7814(6)
O11 O 0.5470(8) 0.6646(5) 0.3691(4)
H50 H 0.4511 0.6617 0.3325
O12 O 0.3917(8) 0.6608(5) 0.4702(4)
O13 O 0.4543(7) 0.7313(4) 0.6727(4)
H51 H 0.5023 0.7800 0.6708
O14 O 0.4980(7) 0.5821(4) 0.6436(4)
O15 O 0.7658(11) 0.7215(7) 0.8113(6)
O16 O 1.0259(11) 0.6973(7) 0.8325(6)
C45 C 0.5299(13) 0.6636(6) 0.4506(7)
C46 C 0.5428(11) 0.6608(7) 0.6460(6)
C47 C 0.7012(11) 0.6693(6) 0.5217(6)
C48 C 0.7084(10) 0.6792(5) 0.6174(6)
C49 C 0.8707(11) 0.6899(6) 0.6811(6)
C50 C 1.0232(12) 0.6922(6) 0.6568(7)
H52 H 1.1299 0.7021 0.7020
C51 C 1.0117(11) 0.6793(6) 0.5621(7)
H53 H 1.1118 0.6761 0.5421
C52 C 0.8536(11) 0.6714(6) 0.4976(7)
H54 H 0.8499 0.6673 0.4354
N7 N 0.8152(12) 0.4151(6) 0.5645(7)
O17 O 1.2038(9) 0.4872(5) 0.9789(5)
H55 H 1.3024 0.4885 1.0119
O18 O 1.3282(9) 0.4433(6) 0.8642(5)
O19 O 1.2311(9) 0.3783(5) 0.6561(6)
O20 O 1.2313(7) 0.5341(4) 0.7044(4)
H56 H 1.3169 0.5338 0.6846
O21 O 0.9305(12) 0.4385(7) 0.5384(6)
O22 O 0.6746(11) 0.3787(7) 0.5078(6)
C53 C 1.2025(13) 0.4642(6) 0.8902(8)
C54 C 1.1678(12) 0.4471(7) 0.6906(7)
C55 C 1.0315(11) 0.4593(6) 0.8229(7)
C56 C 1.0142(12) 0.4455(6) 0.7272(7)
C57 C 0.8446(13) 0.4302(6) 0.6661(7)
C58 C 0.6976(12) 0.4311(6) 0.6988(7)
H57 H 0.5872 0.4198 0.6567
C59 C 0.7191(11) 0.4486(6) 0.7930(7)
H58 H 0.6222 0.4499 0.8157
C60 C 0.8807(12) 0.4645(6) 0.8553(7)
H59 H 0.8922 0.4790 0.9201
N8 N -0.0500(11) 0.1802(5) 0.6224(6)
O23 O 0.3099(8) 0.2356(5) 1.0363(5)
H60 H 0.4072 0.2399 1.0720
O24 O 0.4572(9) 0.2312(5) 0.9309(5)
O25 O 0.3269(8) 0.0962(4) 0.7355(4)
O26 O 0.3811(8) 0.2386(4) 0.7296(5)
H61 H 0.3402 0.2887 0.7398
O27 O 0.0570(10) 0.1433(6) 0.5881(5)
O28 O -0.1774(11) 0.2002(6) 0.5737(6)
C61 C 0.3215(14) 0.2297(6) 0.9510(7)
C62 C 0.2894(12) 0.1771(7) 0.7489(6)
C63 C 0.1506(11) 0.2232(5) 0.8819(6)
C64 C 0.1355(11) 0.2032(5) 0.7845(6)
C65 C -0.0263(11) 0.2022(5) 0.7259(7)
C66 C -0.1712(11) 0.2193(6) 0.7567(7)
H62 H -0.2778 0.2177 0.7140
C67 C -0.1547(12) 0.2388(6) 0.8520(7)
H63 H -0.2502 0.2518 0.8751
C68 C 0.0016(12) 0.2390(6) 0.9125(7)
H64 H 0.0100 0.2500 0.9766
loop_
_geom_bond_atom_site_label_1
_geom_bond_atom_site_label_2
_geom_bond_site_symmetry_1
_geom_bond_site_symmetry_2
N1 C5 1_555 1_555
O1 C1 1_555 1_555
C1 H1 1_555 1_555
C2 C1 1_555 1_555
C3 C2 1_555 1_555
H2 C3 1_555 1_555
C4 C3 1_555 1_555
H3 C4 1_555 1_555
C5 C4 1_555 1_555
C6 C5 1_555 1_555
H4 C6 1_555 1_555
C7 C2 1_555 1_555
H5 C7 1_555 1_555
C8 N1 1_555 1_555
H6 C8 1_555 1_555
H7 C8 1_555 1_555
H8 C8 1_555 1_555
C9 N1 1_555 1_555
H9 C9 1_555 1_555
H10 C9 1_555 1_555
H11 C9 1_555 1_555
N2 C14 1_555 1_555
O2 C10 1_555 1_555
C10 H12 1_555 1_555
C11 C10 1_555 1_555
C12 C11 1_555 1_555
H13 C12 1_555 1_555
C13 C12 1_555 1_555
H14 C13 1_555 1_555
C14 C13 1_555 1_555
C15 C14 1_555 1_555
H15 C15 1_555 1_555
C16 C11 1_555 1_555
H16 C16 1_555 1_555
C17 N2 1_555 1_555
H17 C17 1_555 1_555
H18 C17 1_555 1_555
H19 C17 1_555 1_555
C18 N2 1_555 1_555
H20 C18 1_555 1_555
H21 C18 1_555 1_555
H22 C18 1_555 1_555
N3 C23 1_555 1_555
O3 C19 1_555 1_555
C19 H23 1_555 1_555
C20 C19 1_555 1_555
C21 C20 1_555 1_555
H24 C21 1_555 1_555
C22 C21 1_555 1_555
H25 C22 1_555 1_555
C23 C22 1_555 1_555
C24 C23 1_555 1_555
H26 C24 1_555 1_555
C25 C20 1_555 1_555
H27 C25 1_555 1_555
C26 N3 1_555 1_555
H28 C26 1_555 1_555
H29 C26 1_555 1_555
H30 C26 1_555 1_555
C27 N3 1_555 1_555
H31 C27 1_555 1_555
H32 C27 1_555 1_555
H33 C27 1_555 1_555
N4 C32 1_555 1_555
O4 C28 1_555 1_555
C28 H34 1_555 1_555
C29 C28 1_555 1_555
C30 C29 1_555 1_555
H35 C30 1_555 1_555
C31 C30 1_555 1_555
H36 C31 1_555 1_555
C32 C31 1_555 1_555
C33 C32 1_555 1_555
H37 C33 1_555 1_555
C34 C29 1_555 1_555
H38 C34 1_555 1_555
C35 N4 1_555 1_555
H39 C35 1_555 1_555
H40 C35 1_555 1_555
H41 C35 1_555 1_555
C36 N4 1_555 1_555
H42 C36 1_555 1_555
H43 C36 1_555 1_555
H44 C36 1_555 1_555
N5 O9 1_555 1_555
O5 H45 1_555 1_555
O6 C37 1_555 1_555
O7 H46 1_555 1_555
O8 C38 1_555 1_555
O10 N5 1_555 1_555
C37 O5 1_555 1_555
C38 O7 1_555 1_555
C39 C37 1_555 1_555
C40 C38 1_555 1_555
C41 N5 1_555 1_555
C42 C41 1_555 1_555
H47 C42 1_555 1_555
C43 C42 1_555 1_555
H48 C43 1_555 1_555
C44 C39 1_555 1_555
H49 C44 1_555 1_555
N6 O15 1_555 1_555
O11 H50 1_555 1_555
O12 C45 1_555 1_555
O13 H51 1_555 1_555
O14 C46 1_555 1_555
O16 N6 1_555 1_555
C45 O11 1_555 1_555
C46 O13 1_555 1_555
C47 C45 1_555 1_555
C48 C46 1_555 1_555
C49 N6 1_555 1_555
C50 C49 1_555 1_555
H52 C50 1_555 1_555
C51 C50 1_555 1_555
H53 C51 1_555 1_555
C52 C47 1_555 1_555
H54 C52 1_555 1_555
N7 O21 1_555 1_555
O17 H55 1_555 1_555
O18 C53 1_555 1_555
O19 C54 1_555 1_555
O20 H56 1_555 1_555
O22 N7 1_555 1_555
C53 O17 1_555 1_555
C54 O20 1_555 1_555
C55 C53 1_555 1_555
C56 C54 1_555 1_555
C57 N7 1_555 1_555
C58 C57 1_555 1_555
H57 C58 1_555 1_555
C59 C58 1_555 1_555
H58 C59 1_555 1_555
C60 C55 1_555 1_555
H59 C60 1_555 1_555
N8 O27 1_555 1_555
O23 H60 1_555 1_555
O24 C61 1_555 1_555
O25 C62 1_555 1_555
O26 H61 1_555 1_555
O28 N8 1_555 1_555
C61 O23 1_555 1_555
C62 O26 1_555 1_555
C63 C61 1_555 1_555
C64 C62 1_555 1_555
C65 N8 1_555 1_555
C66 C65 1_555 1_555
H62 C66 1_555 1_555
C67 C66 1_555 1_555
H63 C67 1_555 1_555
C68 C63 1_555 1_555
H64 C68 1_555 1_555
C6 C7 1_555 1_555
C15 C16 1_555 1_555
C24 C25 1_555 1_555
C33 C34 1_555 1_555
C39 C40 1_555 1_555
C40 C41 1_555 1_555
C43 C44 1_555 1_555
C47 C48 1_555 1_555
C48 C49 1_555 1_555
C51 C52 1_555 1_555
C55 C56 1_555 1_555
C56 C57 1_555 1_555
C59 C60 1_555 1_555
C63 C64 1_555 1_555
C64 C65 1_555 1_555
C67 C68 1_555 1_555

#END
