
#######################################################################
#
#                 Cambridge Crystallographic Data Centre
#                                CCDC 
#
#######################################################################
#
# If this CIF has been generated from an entry in the Cambridge 
# Structural Database, then it will include bibliographic, chemical, 
# crystal, experimental, refinement or atomic coordinate data resulting 
# from the CCDC's data processing and validation procedures.
#
#######################################################################

data_SUZFID
_chemical_formula_moiety         'C20 H15 N3 O1'
_chemical_name_systematic        
(11-Methyl-11H-pyrido[2,3-b][1,4]benzodiazepin-6-yl)(phenyl)methanone
_symmetry_cell_setting           monoclinic
_symmetry_space_group_name_H-M   'P 21/c'
_symmetry_Int_Tables_number      14
_space_group_name_Hall           '-P 2ybc'
loop_
_symmetry_equiv_pos_site_id
_symmetry_equiv_pos_as_xyz
1 x,y,z
2 -x,1/2+y,1/2-z
3 -x,-y,-z
4 x,1/2-y,1/2+z
_cell_length_a                   8.4442(17)
_cell_length_b                   16.503(3)
_cell_length_c                   11.682(2)
_cell_angle_alpha                90
_cell_angle_beta                 98.14(3)
_cell_angle_gamma                90
_cell_volume                     1611.54
_exptl_crystal_colour            yellow
_exptl_crystal_description       block
_cell_formula_units_Z            4
loop_
_atom_site_label
_atom_site_type_symbol
_atom_site_fract_x
_atom_site_fract_y
_atom_site_fract_z
O1 O 0.84497(15) 0.36871(8) -0.05524(17)
N1 N 0.66756(14) 0.13174(8) 0.03808(12)
N2 N 0.99137(15) 0.19569(8) 0.04732(13)
C1 C 1.3716(2) 0.31549(11) -0.12859(17)
H1 H 1.4411 0.2799 -0.1580
C2 C 1.4173(2) 0.39435(11) -0.10549(16)
H2 H 1.5176 0.4119 -0.1192
C3 C 1.3153(2) 0.44719(11) -0.06219(16)
H3 H 1.3468 0.5004 -0.0457
C4 C 1.16610(19) 0.42134(10) -0.04322(16)
H4 H 1.0970 0.4575 -0.0146
C5 C 1.11770(18) 0.34200(9) -0.06626(14)
C6 C 1.2226(2) 0.28871(10) -0.10835(16)
H5 H 1.1930 0.2350 -0.1230
C7 C 0.9509(2) 0.31859(10) -0.05454(17)
C8 C 0.90799(18) 0.23004(9) -0.03891(15)
C9 C 0.5167(2) 0.11410(12) 0.08085(17)
H6 H 0.4339 0.1483 0.0421
H7 H 0.5284 0.1241 0.1626
H8 H 0.4887 0.0583 0.0660
C10 C 0.9020(2) -0.02679(11) 0.18587(17)
H9 H 0.8833 -0.0755 0.2217
C11 C 1.0573(2) -0.00296(11) 0.18578(16)
H10 H 1.1418 -0.0357 0.2177
C12 C 1.0848(2) 0.07088(11) 0.13706(15)
H11 H 1.1890 0.0897 0.1390
C13 C 0.95740(19) 0.11717(9) 0.08517(14)
C14 C 0.80223(18) 0.08588(9) 0.08663(13)
N3 N 0.77531(18) 0.01626(8) 0.13702(13)
C15 C 0.53710(19) 0.11522(10) -0.16328(16)
H12 H 0.4594 0.0820 -0.1390
C16 C 0.77505(18) 0.19642(9) -0.12099(14)
C17 C 0.65890(17) 0.14649(9) -0.08261(14)
C18 C 0.6450(2) 0.18248(12) -0.31775(16)
H13 H 0.6406 0.1941 -0.3960
C19 C 0.5310(2) 0.13338(11) -0.27957(16)
H14 H 0.4489 0.1122 -0.3326
C20 C 0.7655(2) 0.21400(11) -0.23854(16)
H15 H 0.8419 0.2476 -0.2639
loop_
_geom_bond_atom_site_label_1
_geom_bond_atom_site_label_2
_geom_bond_site_symmetry_1
_geom_bond_site_symmetry_2
O1 C7 1_555 1_555
N1 C9 1_555 1_555
N2 C8 1_555 1_555
C1 H1 1_555 1_555
C2 C1 1_555 1_555
H2 C2 1_555 1_555
C3 C2 1_555 1_555
H3 C3 1_555 1_555
C4 C3 1_555 1_555
H4 C4 1_555 1_555
C5 C4 1_555 1_555
C6 C1 1_555 1_555
H5 C6 1_555 1_555
C7 C5 1_555 1_555
C8 C7 1_555 1_555
C9 H6 1_555 1_555
H7 C9 1_555 1_555
H8 C9 1_555 1_555
C10 H9 1_555 1_555
C11 C10 1_555 1_555
H10 C11 1_555 1_555
C12 C11 1_555 1_555
H11 C12 1_555 1_555
C13 N2 1_555 1_555
C14 N1 1_555 1_555
N3 C10 1_555 1_555
C15 H12 1_555 1_555
C16 C8 1_555 1_555
C17 N1 1_555 1_555
C18 H13 1_555 1_555
C19 C15 1_555 1_555
H14 C19 1_555 1_555
C20 C16 1_555 1_555
H15 C20 1_555 1_555
C5 C6 1_555 1_555
C12 C13 1_555 1_555
C13 C14 1_555 1_555
C14 N3 1_555 1_555
C15 C17 1_555 1_555
C16 C17 1_555 1_555
C18 C19 1_555 1_555
C18 C20 1_555 1_555

#END
