
#######################################################################
#
#                 Cambridge Crystallographic Data Centre
#                                CCDC 
#
#######################################################################
#
# If this CIF has been generated from an entry in the Cambridge 
# Structural Database, then it will include bibliographic, chemical, 
# crystal, experimental, refinement or atomic coordinate data resulting 
# from the CCDC's data processing and validation procedures.
#
#######################################################################

data_SUZFIC
_chemical_formula_moiety         'C16 H14 S12 1+,C16 H14 S12,Cl1 O4 1-'
_chemical_name_systematic        
'bis(2-(4,5-bis(Ethylthio)-1,3-dithiol-2-ylidene)-5-(4,5-(ethylenedithio)-1,3-dithiol-2-ylidene)-1,3,4,6-tetrathiapentalene) perchlorate'
_symmetry_cell_setting           monoclinic
_symmetry_space_group_name_H-M   'C 2/c'
_symmetry_Int_Tables_number      15
_space_group_name_Hall           '-C 2yn'
loop_
_symmetry_equiv_pos_site_id
_symmetry_equiv_pos_as_xyz
1 x,y,z
2 x,-y,1/2+z
3 1/2+x,1/2+y,z
4 1/2+x,1/2-y,1/2+z
5 -x,-y,-z
6 -x,y,1/2-z
7 1/2-x,1/2-y,-z
8 1/2-x,1/2+y,1/2-z
_cell_length_a                   25.31(5)
_cell_length_b                   5.842(4)
_cell_length_c                   32.67(6)
_cell_angle_alpha                90
_cell_angle_beta                 97.94(9)
_cell_angle_gamma                90
_cell_volume                     4784.31
_exptl_crystal_colour            black
_exptl_crystal_description       needle
_cell_formula_units_Z            4
loop_
_atom_site_label
_atom_site_type_symbol
_atom_site_fract_x
_atom_site_fract_y
_atom_site_fract_z
S1 S 0.3711(3) 0.1111(9) 0.3293(2)
S2 S 0.2446(3) 0.1392(9) 0.3489(2)
S3 S 0.3813(2) -0.2934(9) 0.3862(2)
S4 S 0.2710(2) -0.2680(9) 0.4028(2)
S5 S 0.4050(2) -0.7219(9) 0.4423(2)
S6 S 0.2947(2) -0.7233(8) 0.4632(2)
S7 S 0.4307(2) -1.1479(9) 0.4946(2)
S8 S 0.3206(2) -1.1482(8) 0.5172(2)
S9 S 0.4584(2) -1.5868(9) 0.5525(2)
S10 S 0.3510(2) -1.5816(9) 0.5762(2)
S11 S 0.4964(2) -1.9791(9) 0.6041(2)
S12 S 0.3699(2) -1.968(1) 0.6345(2)
C1 C 0.366(1) -0.228(5) 0.2710(9)
C2 C 0.401(1) -0.083(4) 0.2958(8)
C3 C 0.209(1) -0.180(5) 0.2873(9)
C4 C 0.1940(9) -0.035(4) 0.3219(8)
C5 C 0.3411(8) -0.075(3) 0.3594(6)
C6 C 0.2908(8) -0.072(3) 0.3681(6)
C7 C 0.3312(8) -0.417(3) 0.4100(6)
C8 C 0.3398(8) -0.596(3) 0.4352(6)
C9 C 0.3880(7) -0.940(3) 0.4756(7)
C10 C 0.3376(8) -0.933(3) 0.4833(5)
C11 C 0.3837(7) -1.271(3) 0.5242(6)
C12 C 0.3957(8) -1.465(3) 0.5475(7)
C13 C 0.4436(8) -1.790(3) 0.5873(6)
C14 C 0.3960(7) -1.792(3) 0.5997(6)
C15 C 0.470(1) -2.165(4) 0.6406(9)
C16 C 0.432(1) -2.048(4) 0.6643(7)
H1 H 0.3402 -0.1373 0.2537
H2 H 0.3832 -0.3271 0.2546
H3 H 0.3459 -0.3199 0.2885
H4 H 0.4205 0.0000 0.2779
H5 H 0.4262 -0.1825 0.3127
H6 H 0.1794 -0.2696 0.2741
H7 H 0.2214 -0.0865 0.2666
H8 H 0.2369 -0.2848 0.2975
H9 H 0.1802 -0.1406 0.3406
H10 H 0.1644 0.0572 0.3096
H11 H 0.4521 -2.2950 0.6271
H12 H 0.4993 -2.2282 0.6603
H13 H 0.4499 -1.9100 0.6759
H14 H 0.4254 -2.1412 0.6872
Cl1 Cl 0.5000 0.519(2) 0.7500
O1 O 0.537(1) 0.646(5) 0.737(1)
O2 O 0.520(2) 0.391(6) 0.779(1)
O1E O 0.463(1) 0.646(5) 0.763(1)
O2E O 0.480(2) 0.391(6) 0.721(1)
loop_
_geom_bond_atom_site_label_1
_geom_bond_atom_site_label_2
_geom_bond_site_symmetry_1
_geom_bond_site_symmetry_2
Cl1 O1 1_555 1_555
S1 C2 1_555 1_555
S2 C4 1_555 1_555
S3 C5 1_555 1_555
S4 C6 1_555 1_555
S5 C8 1_555 1_555
S6 C8 1_555 1_555
S7 C9 1_555 1_555
S8 C10 1_555 1_555
S9 C12 1_555 1_555
S10 C12 1_555 1_555
S11 C13 1_555 1_555
S12 C14 1_555 1_555
O2 Cl1 1_555 1_555
C1 C2 1_555 1_555
C2 H4 1_555 1_555
C3 C4 1_555 1_555
C4 H9 1_555 1_555
C5 S1 1_555 1_555
C6 S2 1_555 1_555
C7 S3 1_555 1_555
C8 C7 1_555 1_555
C9 S5 1_555 1_555
C10 S6 1_555 1_555
C11 S7 1_555 1_555
C12 C11 1_555 1_555
C13 S9 1_555 1_555
C14 S10 1_555 1_555
C15 S11 1_555 1_555
C16 S12 1_555 1_555
H1 C1 1_555 1_555
H2 C1 1_555 1_555
H3 C1 1_555 1_555
H5 C2 1_555 1_555
H6 C3 1_555 1_555
H7 C3 1_555 1_555
H8 C3 1_555 1_555
H10 C4 1_555 1_555
H11 C15 1_555 1_555
H12 C15 1_555 1_555
H13 C16 1_555 1_555
H14 C16 1_555 1_555
O1E Cl1 1_555 1_555
O2E Cl1 1_555 1_555
S4 C7 1_555 1_555
S8 C11 1_555 1_555
C5 C6 1_555 1_555
C9 C10 1_555 1_555
C13 C14 1_555 1_555
C15 C16 1_555 1_555

#END
