
#######################################################################
#
#                 Cambridge Crystallographic Data Centre
#                                CCDC 
#
#######################################################################
#
# If this CIF has been generated from an entry in the Cambridge 
# Structural Database, then it will include bibliographic, chemical, 
# crystal, experimental, refinement or atomic coordinate data resulting 
# from the CCDC's data processing and validation procedures.
#
#######################################################################

data_SUZGOK
_chemical_formula_moiety         'C11 H13 N3 O1'
_chemical_name_systematic        
Spiro(cyclopentane-1,2'(1'H)-pyrido[2,3-d]pyrimidine)-4'(3'H)-one
_symmetry_cell_setting           orthorhombic
_symmetry_space_group_name_H-M   'P b c a'
_symmetry_Int_Tables_number      61
_space_group_name_Hall           '-P 2ac 2ab'
loop_
_symmetry_equiv_pos_site_id
_symmetry_equiv_pos_as_xyz
1 x,y,z
2 1/2-x,-y,1/2+z
3 1/2+x,1/2-y,-z
4 -x,1/2+y,1/2-z
5 -x,-y,-z
6 1/2+x,y,1/2-z
7 1/2-x,1/2+y,z
8 x,1/2-y,1/2+z
_cell_length_a                   10.400(1)
_cell_length_b                   12.1650(15)
_cell_length_c                   15.370(2)
_cell_angle_alpha                90
_cell_angle_beta                 90
_cell_angle_gamma                90
_cell_volume                     1944.55
_exptl_crystal_colour            colorless
_exptl_crystal_description       block
_chemical_melting_point          '527-528 K'
_cell_formula_units_Z            8
_exptl_crystal_recrystallization_method ethanol/tetrahydrofuran
loop_
_atom_site_label
_atom_site_type_symbol
_atom_site_fract_x
_atom_site_fract_y
_atom_site_fract_z
O1 O 0.59391(7) 0.42006(6) 0.57792(5)
N1 N 0.94264(9) 0.63850(8) 0.68372(6)
N2 N 0.80796(9) 0.69549(8) 0.57226(6)
N3 N 0.64694(9) 0.58137(7) 0.51402(6)
C1 C 0.84778(10) 0.61467(9) 0.62723(7)
C2 C 0.78414(10) 0.51204(9) 0.62574(7)
C3 C 0.82323(11) 0.43170(9) 0.68436(7)
H1 H 0.7818 0.3621 0.6855
C4 C 0.92347(11) 0.45420(9) 0.74123(7)
H2 H 0.9539 0.4001 0.7808
C5 C 0.97766(11) 0.55837(9) 0.73836(7)
H3 H 1.0449 0.5740 0.7783
C6 C 0.66943(10) 0.49939(9) 0.57020(7)
C7 C 0.74197(10) 0.66576(8) 0.49201(7)
C8 C 0.83702(11) 0.62728(9) 0.42121(7)
H4 H 0.9065 0.5818 0.4465
H5 H 0.7924 0.5845 0.3755
C9 C 0.88986(11) 0.73498(9) 0.38493(7)
H6 H 0.9265 0.7242 0.3261
H7 H 0.9571 0.7656 0.4235
C10 C 0.77185(12) 0.81065(10) 0.38176(8)
H8 H 0.7316 0.8083 0.3234
H9 H 0.7969 0.8875 0.3947
C11 C 0.67779(10) 0.76755(9) 0.45118(7)
H10 H 0.5946 0.7474 0.4242
H11 H 0.6620 0.8244 0.4960
H12 H 0.8471(15) 0.7598(14) 0.5750(10)
H13 H 0.5769(16) 0.5770(12) 0.4815(10)
loop_
_geom_bond_atom_site_label_1
_geom_bond_atom_site_label_2
_geom_bond_site_symmetry_1
_geom_bond_site_symmetry_2
O1 C6 1_555 1_555
N1 C1 1_555 1_555
N2 C1 1_555 1_555
N3 C6 1_555 1_555
C1 C2 1_555 1_555
C2 C3 1_555 1_555
C3 H1 1_555 1_555
C4 C3 1_555 1_555
H2 C4 1_555 1_555
C5 N1 1_555 1_555
H3 C5 1_555 1_555
C6 C2 1_555 1_555
C7 N2 1_555 1_555
C8 C7 1_555 1_555
H4 C8 1_555 1_555
H5 C8 1_555 1_555
C9 C8 1_555 1_555
H6 C9 1_555 1_555
H7 C9 1_555 1_555
C10 C9 1_555 1_555
H8 C10 1_555 1_555
H9 C10 1_555 1_555
C11 C7 1_555 1_555
H10 C11 1_555 1_555
H11 C11 1_555 1_555
H12 N2 1_555 1_555
H13 N3 1_555 1_555
N3 C7 1_555 1_555
C4 C5 1_555 1_555
C10 C11 1_555 1_555

#END
