
#######################################################################
#
#                 Cambridge Crystallographic Data Centre
#                                CCDC 
#
#######################################################################
#
# If this CIF has been generated from an entry in the Cambridge 
# Structural Database, then it will include bibliographic, chemical, 
# crystal, experimental, refinement or atomic coordinate data resulting 
# from the CCDC's data processing and validation procedures.
#
#######################################################################

data_SUZHUS
_chemical_formula_moiety         'C19 H15 N3 O2'
_chemical_name_systematic        
(3-cyano-4-(2-(4-methoxyphenyl)vinyl)-5,5-dimethylfuran-2(5H)-ylidene)malononitrile
_symmetry_cell_setting           monoclinic
_symmetry_space_group_name_H-M   'P 21/m'
_symmetry_Int_Tables_number      11
_space_group_name_Hall           '-P 2yb'
loop_
_symmetry_equiv_pos_site_id
_symmetry_equiv_pos_as_xyz
1 x,y,z
2 -x,1/2+y,-z
3 -x,-y,-z
4 x,1/2-y,z
_cell_length_a                   10.0110(9)
_cell_length_b                   6.9999(6)
_cell_length_c                   11.5760(10)
_cell_angle_alpha                90
_cell_angle_beta                 101.360(10)
_cell_angle_gamma                90
_cell_volume                     795.307
_exptl_crystal_colour            brown
_exptl_crystal_description       plate
_cell_formula_units_Z            2
_exptl_crystal_preparation       Luminescent
loop_
_atom_site_label
_atom_site_type_symbol
_atom_site_fract_x
_atom_site_fract_y
_atom_site_fract_z
O1 O 0.47818(14) 0.7500 -0.30866(12)
C1 C 0.6051(2) 0.7500 -0.24536(18)
C2 C 0.6011(2) 0.7500 -0.12130(17)
C3 C 0.4686(2) 0.7500 -0.10764(17)
C4 C 0.3778(2) 0.7500 -0.22930(17)
C5 C 0.29319(14) 0.5696(2) -0.25790(12)
H1 H 0.3490 0.4570 -0.2374
H2 H 0.2549 0.5675 -0.3420
H3 H 0.2207 0.5685 -0.2132
C6 C 0.4303(2) 0.750000(7) 0.00545(19)
C7 C 0.3023(2) 0.750000(7) 0.02493(19)
C8 C 0.2634(2) 0.7500 0.14032(19)
C9 C 0.3574(2) 0.750000(7) 0.2489(2)
C10 C 0.3138(2) 0.750000(7) 0.35523(19)
C11 C 0.1741(2) 0.7500 0.35490(17)
O2 O 0.13804(14) 0.7500 0.46261(12)
C12 C -0.0039(2) 0.750000(7) 0.4652(2)
H4 H -0.0462 0.6356 0.4268
H5 H -0.0130 0.7500 0.5480
C13 C 0.0805(2) 0.750000(7) 0.24810(18)
C14 C 0.1260(2) 0.750000(7) 0.14316(19)
H6 H 0.0603 0.7500 0.0703
H7 H -0.0159 0.7500 0.2477
H8 H 0.3742 0.7500 0.4278
H9 H 0.4527 0.7500 0.2529
H10 H 0.2305 0.7500 -0.0449
H11 H 0.5018 0.7500 0.0763
C15 C 0.7156(2) 0.7500 -0.02614(18)
N1 N 0.80148(19) 0.7500 0.05570(16)
C16 C 0.7135(2) 0.7500 -0.30124(18)
C17 C 0.6894(2) 0.7500 -0.42745(18)
N2 N 0.6689(2) 0.7500 -0.52900(17)
C18 C 0.8519(2) 0.7500 -0.23959(18)
N3 N 0.96503(19) 0.7500 -0.19418(18)
C5C C 0.29319(14) 0.9304(2) -0.25790(12)
H1C H 0.3490 1.0430 -0.2374
H2C H 0.2549 0.9325 -0.3420
H3C H 0.2207 0.9315 -0.2132
H4C H -0.0462 0.8644 0.4268
loop_
_geom_bond_atom_site_label_1
_geom_bond_atom_site_label_2
_geom_bond_site_symmetry_1
_geom_bond_site_symmetry_2
O1 C1 1_555 1_555
C1 C2 1_555 1_555
C2 C3 1_555 1_555
C3 C4 1_555 1_555
C4 O1 1_555 1_555
C5 C4 1_555 1_555
H1 C5 1_555 1_555
H2 C5 1_555 1_555
H3 C5 1_555 1_555
C6 C3 1_555 1_555
C7 C6 1_555 1_555
C8 C7 1_555 1_555
C9 C8 1_555 1_555
C10 C9 1_555 1_555
C11 C10 1_555 1_555
O2 C11 1_555 1_555
C12 O2 1_555 1_555
H4 C12 1_555 1_555
H5 C12 1_555 1_555
C13 C11 1_555 1_555
C14 C8 1_555 1_555
H6 C14 1_555 1_555
H7 C13 1_555 1_555
H8 C10 1_555 1_555
H9 C9 1_555 1_555
H10 C7 1_555 1_555
H11 C6 1_555 1_555
C15 C2 1_555 1_555
N1 C15 1_555 1_555
C16 C1 1_555 1_555
C17 C16 1_555 1_555
N2 C17 1_555 1_555
C18 C16 1_555 1_555
N3 C18 1_555 1_555
C5C C4 1_555 1_555
H1C C5C 1_555 1_555
H2C C5C 1_555 1_555
H3C C5C 1_555 1_555
H4C C12 1_555 1_555
C13 C14 1_555 1_555

#END
