
#######################################################################
#
#                 Cambridge Crystallographic Data Centre
#                                CCDC 
#
#######################################################################
#
# If this CIF has been generated from an entry in the Cambridge 
# Structural Database, then it will include bibliographic, chemical, 
# crystal, experimental, refinement or atomic coordinate data resulting 
# from the CCDC's data processing and validation procedures.
#
#######################################################################

data_SUZHOL
_chemical_formula_moiety         'C12 H8 Cl1 F3 N4 O1'
_chemical_name_systematic        
4-(4-Chloro-5-methyl-3-trifluoromethyl-1H-pyrazol-1-yl)-6-(prop-2-ynyloxy)pyrimidine
_symmetry_cell_setting           monoclinic
_symmetry_space_group_name_H-M   'P 21/n'
_symmetry_Int_Tables_number      14
_space_group_name_Hall           '-P 2yn'
loop_
_symmetry_equiv_pos_site_id
_symmetry_equiv_pos_as_xyz
1 x,y,z
2 1/2-x,1/2+y,1/2-z
3 -x,-y,-z
4 1/2+x,1/2-y,1/2+z
_cell_length_a                   7.8331(13)
_cell_length_b                   7.7258(12)
_cell_length_c                   21.757(4)
_cell_angle_alpha                90
_cell_angle_beta                 99.270(11)
_cell_angle_gamma                90
_cell_volume                     1299.47
_exptl_crystal_colour            colorless
_exptl_crystal_description       platelet
_cell_formula_units_Z            4
loop_
_atom_site_label
_atom_site_type_symbol
_atom_site_fract_x
_atom_site_fract_y
_atom_site_fract_z
Cl1 Cl 0.05485(8) 0.66461(9) 0.12912(3)
F1 F 0.0581(14) 1.0026(19) 0.2067(6)
F2 F 0.1586(17) 1.2382(8) 0.1787(5)
F3 F 0.3301(10) 1.040(2) 0.2184(4)
O1 O 0.4744(2) 1.4528(2) -0.08155(7)
N1 N 0.2473(2) 1.0968(3) 0.07612(9)
N2 N 0.2397(2) 0.9953(2) 0.02454(9)
N3 N 0.2814(3) 0.9661(3) -0.07855(9)
N4 N 0.4008(2) 1.1943(3) -0.13275(9)
C1 C 0.1864(3) 0.9977(3) 0.11729(11)
C2 C 0.1401(3) 0.8333(3) 0.09272(11)
C3 C 0.1757(3) 0.8320(3) 0.03301(11)
C4 C 0.1845(3) 1.0661(4) 0.18093(13)
C5 C 0.1542(3) 0.6869(3) -0.01239(12)
H1 H 0.2630 0.6681 -0.0282
H2 H 0.0626 0.7155 -0.0471
H3 H 0.1228 0.5814 0.0082
C6 C 0.2966(3) 1.0682(3) -0.02856(10)
C7 C 0.3362(3) 1.0361(3) -0.12775(12)
H4 H 0.3284 0.9648 -0.1637
C8 C 0.4111(3) 1.2901(3) -0.08172(11)
C9 C 0.3614(3) 1.2338(3) -0.02663(10)
H5 H 0.3714 1.3042 0.0096
C10 C 0.5077(3) 1.5223(3) -0.14053(11)
H6 H 0.5662 1.4332 -0.1624
H7 H 0.5861 1.6231 -0.1325
C11 C 0.3481(3) 1.5756(3) -0.18034(11)
C12 C 0.2244(4) 1.6239(4) -0.21331(13)
H8 H 0.1240 1.6632 -0.2401
F4? F 0.038(2) 1.038(4) 0.2018(12)
F5? F 0.229(4) 1.227(2) 0.1908(8)
F6? F 0.298(3) 0.977(3) 0.2215(7)
loop_
_geom_bond_atom_site_label_1
_geom_bond_atom_site_label_2
_geom_bond_site_symmetry_1
_geom_bond_site_symmetry_2
Cl1 C2 1_555 1_555
F1 C4 1_555 1_555
F2 C4 1_555 1_555
F3 C4 1_555 1_555
O1 C8 1_555 1_555
N1 N2 1_555 1_555
N2 C3 1_555 1_555
N3 C6 1_555 1_555
N4 C7 1_555 1_555
C1 N1 1_555 1_555
C2 C1 1_555 1_555
C3 C2 1_555 1_555
C4 C1 1_555 1_555
C5 C3 1_555 1_555
H1 C5 1_555 1_555
H2 C5 1_555 1_555
H3 C5 1_555 1_555
C6 N2 1_555 1_555
C7 N3 1_555 1_555
H4 C7 1_555 1_555
C8 N4 1_555 1_555
C9 C6 1_555 1_555
H5 C9 1_555 1_555
C10 O1 1_555 1_555
H6 C10 1_555 1_555
H7 C10 1_555 1_555
C11 C10 1_555 1_555
C12 C11 1_555 1_555
H8 C12 1_555 1_555
C8 C9 1_555 1_555

#END
