
#######################################################################
#
#                 Cambridge Crystallographic Data Centre
#                                CCDC 
#
#######################################################################
#
# If this CIF has been generated from an entry in the Cambridge 
# Structural Database, then it will include bibliographic, chemical, 
# crystal, experimental, refinement or atomic coordinate data resulting 
# from the CCDC's data processing and validation procedures.
#
#######################################################################

data_SUZJAZ
_chemical_formula_moiety         'C9 H13 N1 O2'
_chemical_name_systematic        'Ethyl 3,4-dimethyl-1H-pyrrole-2-carboxylate'
_symmetry_cell_setting           monoclinic
_symmetry_space_group_name_H-M   'P 21/c'
_symmetry_Int_Tables_number      14
_space_group_name_Hall           '-P 2ybc'
loop_
_symmetry_equiv_pos_site_id
_symmetry_equiv_pos_as_xyz
1 x,y,z
2 -x,1/2+y,1/2-z
3 -x,-y,-z
4 x,1/2-y,1/2+z
_cell_length_a                   7.7485(2)
_cell_length_b                   7.0611(2)
_cell_length_c                   17.2167(5)
_cell_angle_alpha                90
_cell_angle_beta                 95.103(2)
_cell_angle_gamma                90
_cell_volume                     938.243
_exptl_crystal_colour            colorless
_exptl_crystal_description       block
_cell_formula_units_Z            4
_exptl_crystal_recrystallization_method 'ethyl acetate'
loop_
_atom_site_label
_atom_site_type_symbol
_atom_site_fract_x
_atom_site_fract_y
_atom_site_fract_z
O1 O 0.14704(13) 0.48430(14) 0.11453(6)
O2 O -0.00527(14) 0.33077(15) 0.19987(7)
N1 N 0.24389(16) 0.04205(17) 0.20998(7)
H1 H 0.1597 0.0168 0.2377
C1 C 0.41028(18) 0.1886(2) 0.12961(8)
C2 C 0.12075(18) 0.34064(19) 0.16247(8)
C3 C 0.25621(17) 0.20054(19) 0.16438(8)
C4 C 0.0178(2) 0.6323(2) 0.10833(10)
H2 H 0.0125 0.6946 0.1583
H3 H -0.0953 0.5796 0.0923
C5 C 0.3843(2) -0.0672(2) 0.20438(10)
H4 H 0.4060 -0.1820 0.2299
C6 C 0.49035(19) 0.0178(2) 0.15508(9)
C7 C 0.0697(3) 0.7705(3) 0.04886(11)
H5 H 0.1837 0.8179 0.0644
H6 H -0.0111 0.8738 0.0447
H7 H 0.0699 0.7085 -0.0007
C8 C 0.4845(2) 0.3287(3) 0.07667(11)
H8 H 0.3973 0.3650 0.0363
H9 H 0.5806 0.2725 0.0536
H10 H 0.5234 0.4386 0.1060
C9 C 0.6620(2) -0.0563(3) 0.13353(13)
H11 H 0.7528 0.0278 0.1533
H12 H 0.6604 -0.0640 0.0778
H13 H 0.6820 -0.1799 0.1557
loop_
_geom_bond_atom_site_label_1
_geom_bond_atom_site_label_2
_geom_bond_site_symmetry_1
_geom_bond_site_symmetry_2
O1 C2 1_555 1_555
O2 C2 1_555 1_555
N1 H1 1_555 1_555
C1 C3 1_555 1_555
C2 C3 1_555 1_555
C3 N1 1_555 1_555
C4 O1 1_555 1_555
H2 C4 1_555 1_555
H3 C4 1_555 1_555
C5 N1 1_555 1_555
H4 C5 1_555 1_555
C6 C1 1_555 1_555
C7 C4 1_555 1_555
H5 C7 1_555 1_555
H6 C7 1_555 1_555
H7 C7 1_555 1_555
C8 C1 1_555 1_555
H8 C8 1_555 1_555
H9 C8 1_555 1_555
H10 C8 1_555 1_555
C9 C6 1_555 1_555
H11 C9 1_555 1_555
H12 C9 1_555 1_555
H13 C9 1_555 1_555
C5 C6 1_555 1_555

#END
