
#######################################################################
#
#                 Cambridge Crystallographic Data Centre
#                                CCDC 
#
#######################################################################
#
# If this CIF has been generated from an entry in the Cambridge 
# Structural Database, then it will include bibliographic, chemical, 
# crystal, experimental, refinement or atomic coordinate data resulting 
# from the CCDC's data processing and validation procedures.
#
#######################################################################

data_SUZJII
_chemical_formula_moiety         'C20 H17 N3 O3'
_chemical_name_systematic        
(3-cyano-4-(2-(2,6-dimethoxyphenyl)vinyl)-5,5-dimethylfuran-2(5H)-ylidene)malononitrile
_symmetry_cell_setting           monoclinic
_symmetry_space_group_name_H-M   'P 21/c'
_symmetry_Int_Tables_number      14
_space_group_name_Hall           '-P 2ybc'
loop_
_symmetry_equiv_pos_site_id
_symmetry_equiv_pos_as_xyz
1 x,y,z
2 -x,1/2+y,1/2-z
3 -x,-y,-z
4 x,1/2-y,1/2+z
_cell_length_a                   10.397(2)
_cell_length_b                   9.8280(10)
_cell_length_c                   17.179(2)
_cell_angle_alpha                90
_cell_angle_beta                 94.990(10)
_cell_angle_gamma                90
_cell_volume                     1748.73
_exptl_crystal_colour            red
_exptl_crystal_description       needle
_cell_formula_units_Z            4
_exptl_crystal_preparation       Luminescent
loop_
_atom_site_label
_atom_site_type_symbol
_atom_site_fract_x
_atom_site_fract_y
_atom_site_fract_z
O1 O 0.40874(19) 0.2726(2) 0.33411(10)
C1 C 0.3831(2) 0.3286(3) 0.40173(15)
C2 C 0.4652(3) 0.2702(3) 0.46434(15)
C3 C 0.4664(3) 0.3022(3) 0.54541(16)
N1 N 0.4730(3) 0.3244(3) 0.61074(15)
C4 C 0.5468(3) 0.1784(3) 0.43435(15)
C5 C 0.5190(3) 0.1779(3) 0.34648(15)
C6 C 0.6285(3) 0.2406(3) 0.30571(16)
H1 H 0.7025 0.1813 0.3099
H2 H 0.6011 0.2521 0.2502
H3 H 0.6520 0.3284 0.3284
C7 C 0.4721(3) 0.0431(3) 0.31137(16)
H4 H 0.5428 -0.0220 0.3153
H5 H 0.4408 0.0573 0.2577
H6 H 0.4024 0.0092 0.3405
C8 C 0.6437(3) 0.1047(3) 0.48061(16)
C9 C 0.7215(3) 0.0094(3) 0.45265(16)
C10 C 0.8197(3) -0.0723(3) 0.49546(15)
C11 C 0.8688(3) -0.0509(3) 0.57333(16)
O2 O 0.81975(19) 0.0586(2) 0.60975(11)
C12 C 0.8727(3) 0.0923(3) 0.68625(17)
H7 H 0.8341 0.1776 0.7006
H8 H 0.8519 0.0213 0.7217
H9 H 0.9653 0.1005 0.6859
C13 C 0.9631(3) -0.1351(3) 0.60964(18)
C14 C 1.0090(3) -0.2422(3) 0.56766(19)
C15 C 0.9645(3) -0.2667(3) 0.49104(19)
C16 C 0.8712(3) -0.1827(3) 0.45486(17)
O3 O 0.8222(2) -0.1962(2) 0.37906(12)
C17 C 0.8514(4) -0.3152(3) 0.33745(19)
H10 H 0.8066 -0.3100 0.2852
H11 H 0.8218 -0.3956 0.3646
H12 H 0.9439 -0.3213 0.3346
H13 H 0.9975 -0.3394 0.4640
H14 H 1.0723 -0.3000 0.5924
H15 H 0.9954 -0.1180 0.6614
H16 H 0.7101 -0.0055 0.3981
H17 H 0.6512 0.1251 0.5340
C18 C 0.2916(3) 0.4276(3) 0.40347(15)
C19 C 0.2196(3) 0.4732(3) 0.33414(17)
N2 N 0.1599(3) 0.5140(3) 0.28017(17)
C20 C 0.2687(3) 0.4955(3) 0.47377(17)
N3 N 0.2507(3) 0.5549(3) 0.52974(16)
loop_
_geom_bond_atom_site_label_1
_geom_bond_atom_site_label_2
_geom_bond_site_symmetry_1
_geom_bond_site_symmetry_2
O1 C1 1_555 1_555
C1 C2 1_555 1_555
C2 C3 1_555 1_555
C3 N1 1_555 1_555
C4 C2 1_555 1_555
C5 O1 1_555 1_555
C6 C5 1_555 1_555
H1 C6 1_555 1_555
H2 C6 1_555 1_555
H3 C6 1_555 1_555
C7 C5 1_555 1_555
H4 C7 1_555 1_555
H5 C7 1_555 1_555
H6 C7 1_555 1_555
C8 C4 1_555 1_555
C9 C8 1_555 1_555
C10 C9 1_555 1_555
C11 C10 1_555 1_555
O2 C11 1_555 1_555
C12 O2 1_555 1_555
H7 C12 1_555 1_555
H8 C12 1_555 1_555
H9 C12 1_555 1_555
C13 C11 1_555 1_555
C14 C13 1_555 1_555
C15 C14 1_555 1_555
C16 C10 1_555 1_555
O3 C16 1_555 1_555
C17 O3 1_555 1_555
H10 C17 1_555 1_555
H11 C17 1_555 1_555
H12 C17 1_555 1_555
H13 C15 1_555 1_555
H14 C14 1_555 1_555
H15 C13 1_555 1_555
H16 C9 1_555 1_555
H17 C8 1_555 1_555
C18 C1 1_555 1_555
C19 C18 1_555 1_555
N2 C19 1_555 1_555
C20 C18 1_555 1_555
N3 C20 1_555 1_555
C4 C5 1_555 1_555
C15 C16 1_555 1_555

#END
