
#######################################################################
#
#                 Cambridge Crystallographic Data Centre
#                                CCDC 
#
#######################################################################
#
# If this CIF has been generated from an entry in the Cambridge 
# Structural Database, then it will include bibliographic, chemical, 
# crystal, experimental, refinement or atomic coordinate data resulting 
# from the CCDC's data processing and validation procedures.
#
#######################################################################

data_SUZJEE
_chemical_formula_moiety         'C20 H17 N3 O3'
_chemical_name_systematic        
(3-cyano-4-(2-(2,4-dimethoxyphenyl)vinyl)-5,5-dimethylfuran-2(5H)-ylidene)malononitrile
_symmetry_cell_setting           orthorhombic
_symmetry_space_group_name_H-M   'P b c a'
_symmetry_Int_Tables_number      61
_space_group_name_Hall           '-P 2ac 2ab'
loop_
_symmetry_equiv_pos_site_id
_symmetry_equiv_pos_as_xyz
1 x,y,z
2 -x,1/2+y,1/2-z
3 1/2-x,-y,1/2+z
4 1/2+x,1/2-y,-z
5 -x,-y,-z
6 x,1/2-y,1/2+z
7 1/2+x,y,1/2-z
8 1/2-x,1/2+y,z
_cell_length_a                   13.854(2)
_cell_length_b                   15.110(2)
_cell_length_c                   16.697(3)
_cell_angle_alpha                90
_cell_angle_beta                 90
_cell_angle_gamma                90
_cell_volume                     3495.25
_exptl_crystal_colour            red
_exptl_crystal_description       block
_cell_formula_units_Z            8
_exptl_crystal_preparation       Luminescent
loop_
_atom_site_label
_atom_site_type_symbol
_atom_site_fract_x
_atom_site_fract_y
_atom_site_fract_z
O1 O 0.86765(13) 0.65499(11) 0.87586(11)
C1 C 0.87199(15) 0.57313(15) 0.90451(15)
C2 C 0.87504(15) 0.51121(16) 0.83977(14)
C3 C 0.87312(15) 0.55568(16) 0.76849(15)
C4 C 0.87033(17) 0.65414(15) 0.78701(14)
C5 C 0.96238(19) 0.70088(15) 0.76344(16)
H1 H 0.9645 0.7084 0.7050
H2 H 1.0175 0.6672 0.7834
H3 H 0.9618 0.7583 0.7892
C6 C 0.77967(19) 0.70083(14) 0.75954(16)
H4 H 0.7832 0.7132 0.7020
H5 H 0.7232 0.6651 0.7714
H6 H 0.7767 0.7562 0.7898
C7 C 0.87416(16) 0.51590(17) 0.69140(15)
C8 C 0.86983(16) 0.56215(16) 0.62199(16)
C9 C 0.87070(15) 0.53271(16) 0.54038(15)
C10 C 0.87793(15) 0.44405(16) 0.51398(16)
O2 O 0.88122(13) 0.38192(11) 0.57176(11)
C11 C 0.8882(2) 0.29104(17) 0.5490(2)
H7 H 0.8878 0.2559 0.5981
H8 H 0.8345 0.2741 0.5142
H9 H 0.9489 0.2815 0.5213
C12 C 0.88074(17) 0.42509(17) 0.43287(16)
C13 C 0.87586(16) 0.49267(17) 0.37738(16)
O3 O 0.87913(13) 0.46669(12) 0.29921(11)
C14 C 0.87566(19) 0.53362(19) 0.23949(17)
H10 H 0.8787 0.5049 0.1874
H11 H 0.8151 0.5667 0.2430
H12 H 0.9298 0.5735 0.2451
C15 C 0.86771(17) 0.58012(17) 0.40090(16)
C16 C 0.86510(18) 0.59806(16) 0.48172(16)
H13 H 0.8584 0.6566 0.4973
H14 H 0.8626 0.6268 0.3636
H15 H 0.8866 0.3671 0.4166
H16 H 0.8665 0.6239 0.6280
H17 H 0.8777 0.4543 0.6893
C17 C 0.88089(17) 0.41746(16) 0.84834(16)
N1 N 0.88599(18) 0.34196(14) 0.85163(17)
C18 C 0.87215(16) 0.56133(15) 0.98566(16)
C19 C 0.87942(17) 0.47612(16) 1.02250(16)
N2 N 0.8857(2) 0.41155(16) 1.05626(16)
C20 C 0.86951(18) 0.63554(18) 1.03846(16)
N3 N 0.86775(19) 0.69494(15) 1.08071(16)
loop_
_geom_bond_atom_site_label_1
_geom_bond_atom_site_label_2
_geom_bond_site_symmetry_1
_geom_bond_site_symmetry_2
O1 C1 1_555 1_555
C1 C2 1_555 1_555
C2 C3 1_555 1_555
C3 C4 1_555 1_555
C4 O1 1_555 1_555
C5 C4 1_555 1_555
H1 C5 1_555 1_555
H2 C5 1_555 1_555
H3 C5 1_555 1_555
C6 C4 1_555 1_555
H4 C6 1_555 1_555
H5 C6 1_555 1_555
H6 C6 1_555 1_555
C7 C3 1_555 1_555
C8 C7 1_555 1_555
C9 C8 1_555 1_555
C10 C9 1_555 1_555
O2 C10 1_555 1_555
C11 O2 1_555 1_555
H7 C11 1_555 1_555
H8 C11 1_555 1_555
H9 C11 1_555 1_555
C12 C10 1_555 1_555
C13 C12 1_555 1_555
O3 C13 1_555 1_555
C14 O3 1_555 1_555
H10 C14 1_555 1_555
H11 C14 1_555 1_555
H12 C14 1_555 1_555
C15 C13 1_555 1_555
C16 C9 1_555 1_555
H13 C16 1_555 1_555
H14 C15 1_555 1_555
H15 C12 1_555 1_555
H16 C8 1_555 1_555
H17 C7 1_555 1_555
C17 C2 1_555 1_555
N1 C17 1_555 1_555
C18 C1 1_555 1_555
C19 C18 1_555 1_555
N2 C19 1_555 1_555
C20 C18 1_555 1_555
N3 C20 1_555 1_555
C15 C16 1_555 1_555

#END
