
#######################################################################
#
#                 Cambridge Crystallographic Data Centre
#                                CCDC 
#
#######################################################################
#
# If this CIF has been generated from an entry in the Cambridge 
# Structural Database, then it will include bibliographic, chemical, 
# crystal, experimental, refinement or atomic coordinate data resulting 
# from the CCDC's data processing and validation procedures.
#
#######################################################################

data_SUZLAC
_chemical_formula_moiety         'C20 H14 Cl1 N1 O4'
_chemical_name_systematic        
'methyl 2-(4-chlorobenzyl)-4-oxo-2,4-dihydrochromeno[3,4-c]pyrrole-3-carboxylate'
_symmetry_cell_setting           triclinic
_symmetry_space_group_name_H-M   'P -1'
_symmetry_Int_Tables_number      2
_space_group_name_Hall           '-P 1'
loop_
_symmetry_equiv_pos_site_id
_symmetry_equiv_pos_as_xyz
1 x,y,z
2 -x,-y,-z
_cell_length_a                   7.9547(15)
_cell_length_b                   8.5268(16)
_cell_length_c                   14.076(3)
_cell_angle_alpha                85.276(5)
_cell_angle_beta                 82.284(5)
_cell_angle_gamma                63.553(5)
_cell_volume                     846.818
_exptl_crystal_colour            yellow
_exptl_crystal_description       block
_cell_formula_units_Z            2
loop_
_atom_site_label
_atom_site_type_symbol
_atom_site_fract_x
_atom_site_fract_y
_atom_site_fract_z
Cl1 Cl 1.30593(11) -0.09705(10) 1.03993(5)
O1 O 0.6530(2) 0.2409(2) 0.47618(11)
C1 C 0.9785(3) 0.2000(3) 0.44383(16)
O2 O 0.4611(2) 0.3684(2) 0.60260(12)
O3 O 0.5450(2) 0.4321(2) 0.78682(12)
C2 C 0.6179(3) 0.3219(3) 0.56192(17)
C3 C 0.9508(3) 0.2839(3) 0.53347(16)
C4 C 1.0648(3) 0.3289(3) 0.57880(16)
H1 H 1.1919 0.3050 0.5569
N1 N 0.9656(2) 0.4129(2) 0.66001(13)
C5 C 1.3351(3) 0.0410(3) 0.86380(18)
H2 H 1.4457 -0.0653 0.8511
C6 C 1.2770(3) 0.1707(3) 0.79389(17)
H3 H 1.3504 0.1543 0.7332
O4 O 0.6329(3) 0.6459(2) 0.78193(16)
C7 C 0.8303(4) 0.1113(3) 0.33336(17)
H4 H 0.7224 0.1038 0.3167
C8 C 0.8230(3) 0.1849(3) 0.41833(16)
C9 C 1.1133(3) 0.3248(3) 0.81038(16)
C10 C 1.1444(3) 0.1353(3) 0.38138(18)
H5 H 1.2527 0.1438 0.3969
C11 C 0.7869(3) 0.4201(3) 0.67035(16)
C12 C 0.7755(3) 0.3411(3) 0.59111(15)
C13 C 1.0506(3) 0.4619(3) 0.73223(17)
H6 H 0.9571 0.5745 0.7605
H7 H 1.1605 0.4789 0.7007
C14 C 1.1527(4) 0.0595(3) 0.29750(18)
H8 H 1.2672 0.0139 0.2559
C15 C 0.6488(3) 0.5132(3) 0.75060(17)
C16 C 1.0137(3) 0.3467(4) 0.89995(19)
H9 H 0.9025 0.4524 0.9132
C17 C 0.9959(4) 0.0490(3) 0.27318(18)
H10 H 1.0024 -0.0017 0.2144
C18 C 1.2322(4) 0.0670(3) 0.95125(17)
C19 C 1.0717(4) 0.2185(4) 0.97101(19)
H11 H 1.0015 0.2351 1.0326
C20 C 0.3991(4) 0.5222(4) 0.86242(19)
H12 H 0.4536 0.5552 0.9113
H13 H 0.3440 0.4448 0.8916
H14 H 0.3006 0.6278 0.8358
loop_
_geom_bond_atom_site_label_1
_geom_bond_atom_site_label_2
_geom_bond_site_symmetry_1
_geom_bond_site_symmetry_2
Cl1 C18 1_555 1_555
O1 C2 1_555 1_555
C1 C3 1_555 1_555
O2 C2 1_555 1_555
O3 C15 1_555 1_555
C2 C12 1_555 1_555
C3 C4 1_555 1_555
C4 H1 1_555 1_555
N1 C4 1_555 1_555
C5 H2 1_555 1_555
C6 C5 1_555 1_555
H3 C6 1_555 1_555
O4 C15 1_555 1_555
C7 H4 1_555 1_555
C8 O1 1_555 1_555
C9 C6 1_555 1_555
C10 C1 1_555 1_555
H5 C10 1_555 1_555
C11 N1 1_555 1_555
C12 C3 1_555 1_555
C13 N1 1_555 1_555
H6 C13 1_555 1_555
H7 C13 1_555 1_555
C14 C10 1_555 1_555
H8 C14 1_555 1_555
C15 C11 1_555 1_555
C16 C9 1_555 1_555
H9 C16 1_555 1_555
C17 C7 1_555 1_555
H10 C17 1_555 1_555
C18 C5 1_555 1_555
C19 C16 1_555 1_555
H11 C19 1_555 1_555
C20 O3 1_555 1_555
H12 C20 1_555 1_555
H13 C20 1_555 1_555
H14 C20 1_555 1_555
C1 C8 1_555 1_555
C7 C8 1_555 1_555
C9 C13 1_555 1_555
C11 C12 1_555 1_555
C14 C17 1_555 1_555
C18 C19 1_555 1_555

#END
