
#######################################################################
#
#                 Cambridge Crystallographic Data Centre
#                                CCDC 
#
#######################################################################
#
# If this CIF has been generated from an entry in the Cambridge 
# Structural Database, then it will include bibliographic, chemical, 
# crystal, experimental, refinement or atomic coordinate data resulting 
# from the CCDC's data processing and validation procedures.
#
#######################################################################

data_SUZMOQ
_chemical_formula_moiety         'C14 H18 N3 S2 1+,Cl1 O4 1-'
_chemical_name_systematic        
'bis[2-(2-pyridylsulfanyl)ethyl]ammonium perchlorate'
_symmetry_cell_setting           monoclinic
_symmetry_space_group_name_H-M   'P 2/n'
_symmetry_Int_Tables_number      13
_space_group_name_Hall           '-P 2yac'
loop_
_symmetry_equiv_pos_site_id
_symmetry_equiv_pos_as_xyz
1 x,y,z
2 1/2-x,y,1/2-z
3 -x,-y,-z
4 1/2+x,-y,1/2+z
_cell_length_a                   8.1265(6)
_cell_length_b                   9.2291(7)
_cell_length_c                   11.9872(9)
_cell_angle_alpha                90
_cell_angle_beta                 97.534(7)
_cell_angle_gamma                90
_cell_volume                     891.282
_exptl_crystal_colour            yellow
_exptl_crystal_description       prism
_cell_formula_units_Z            2
loop_
_atom_site_label
_atom_site_type_symbol
_atom_site_fract_x
_atom_site_fract_y
_atom_site_fract_z
Cl1 Cl 0.7500 -0.07951(11) 0.7500
O1 O 0.7006(6) -0.1628(4) 0.8355(3)
O2 O 0.6180(11) -0.001(2) 0.6944(18)
O1A O 0.7994(6) -0.1628(4) 0.6645(3)
O2A O 0.8820(11) -0.001(2) 0.8056(18)
S1 S 0.15849(15) 0.6905(2) 0.51373(9)
N1 N 0.4045(4) 0.6093(3) 0.6688(2)
N2 N 0.2500 0.8558(5) 0.7500
H1 H 0.3345 0.8007 0.7463
C1 C 0.2997(4) 0.5641(5) 0.5824(3)
C2 C 0.2947(7) 0.4216(6) 0.5433(4)
H2 H 0.2197 0.3938 0.4817
C3 C 0.4023(10) 0.3248(6) 0.5977(6)
H3 H 0.4022 0.2290 0.5736
C4 C 0.5080(8) 0.3672(5) 0.6857(5)
H4 H 0.5815 0.3016 0.7244
C5 C 0.5067(6) 0.5111(5) 0.7187(3)
H5 H 0.5823 0.5401 0.7796
C6 C 0.2658(7) 0.8617(6) 0.5449(5)
H6 H 0.3843 0.8432 0.5566
H7 H 0.2433 0.9242 0.4796
C7 C 0.2201(7) 0.9415(5) 0.6454(6)
H8 H 0.2841 1.0304 0.6551
H9 H 0.1036 0.9677 0.6318
S1A S 0.34151(15) 0.6905(2) 0.98627(9)
N1A N 0.0955(4) 0.6093(3) 0.8312(2)
H1A H 0.1655 0.8007 0.7537
C1A C 0.2003(4) 0.5641(5) 0.9176(3)
C2A C 0.2053(7) 0.4216(6) 0.9567(4)
H2A H 0.2803 0.3938 1.0183
C3A C 0.0977(10) 0.3248(6) 0.9023(6)
H3A H 0.0978 0.2290 0.9264
C4A C -0.0080(8) 0.3672(5) 0.8143(5)
H4A H -0.0815 0.3016 0.7756
C5A C -0.0067(6) 0.5111(5) 0.7813(3)
H5A H -0.0823 0.5401 0.7204
C6A C 0.2342(7) 0.8617(6) 0.9551(5)
H6A H 0.1157 0.8432 0.9434
H7A H 0.2567 0.9242 1.0204
C7A C 0.2799(7) 0.9415(5) 0.8546(6)
H8A H 0.2159 1.0304 0.8449
H9A H 0.3964 0.9677 0.8682
O3? O 0.8847(16) 0.0079(15) 0.7855(10)
loop_
_geom_bond_atom_site_label_1
_geom_bond_atom_site_label_2
_geom_bond_site_symmetry_1
_geom_bond_site_symmetry_2
Cl1 O1 1_555 1_555
S1 C1 1_555 1_555
O2 Cl1 1_555 1_555
N1 C1 1_555 1_555
N2 H1 1_555 1_555
C1 C2 1_555 1_555
C2 H2 1_555 1_555
C3 C2 1_555 1_555
H3 C3 1_555 1_555
C4 C3 1_555 1_555
H4 C4 1_555 1_555
C5 N1 1_555 1_555
H5 C5 1_555 1_555
C6 S1 1_555 1_555
H6 C6 1_555 1_555
H7 C6 1_555 1_555
C7 N2 1_555 1_555
H8 C7 1_555 1_555
H9 C7 1_555 1_555
S1A C1A 1_555 1_555
O1A Cl1 1_555 1_555
O2A Cl1 1_555 1_555
N1A C1A 1_555 1_555
H1A N2 1_555 1_555
C1A C2A 1_555 1_555
C2A H2A 1_555 1_555
C3A C2A 1_555 1_555
H3A C3A 1_555 1_555
C4A C3A 1_555 1_555
H4A C4A 1_555 1_555
C5A N1A 1_555 1_555
H5A C5A 1_555 1_555
C6A S1A 1_555 1_555
H6A C6A 1_555 1_555
H7A C6A 1_555 1_555
C7A N2 1_555 1_555
H8A C7A 1_555 1_555
H9A C7A 1_555 1_555
C4 C5 1_555 1_555
C6 C7 1_555 1_555
C4A C5A 1_555 1_555
C6A C7A 1_555 1_555

#END
