
#######################################################################
#
#                 Cambridge Crystallographic Data Centre
#                                CCDC 
#
#######################################################################
#
# If this CIF has been generated from an entry in the Cambridge 
# Structural Database, then it will include bibliographic, chemical, 
# crystal, experimental, refinement or atomic coordinate data resulting 
# from the CCDC's data processing and validation procedures.
#
#######################################################################

data_SUZNAD
_chemical_formula_moiety         'C17 H12 Cl1 N1'
_chemical_name_systematic        N-(4-Chlorobenzylidene)-1-naphthylamine
_symmetry_cell_setting           monoclinic
_symmetry_space_group_name_H-M   'P 21/c'
_symmetry_Int_Tables_number      14
_space_group_name_Hall           '-P 2ybc'
loop_
_symmetry_equiv_pos_site_id
_symmetry_equiv_pos_as_xyz
1 x,y,z
2 -x,1/2+y,1/2-z
3 -x,-y,-z
4 x,1/2-y,1/2+z
_cell_length_a                   12.8416(13)
_cell_length_b                   14.8771(15)
_cell_length_c                   7.1971(8)
_cell_angle_alpha                90
_cell_angle_beta                 92.8570(10)
_cell_angle_gamma                90
_cell_volume                     1373.27
_exptl_crystal_colour            colorless
_exptl_crystal_description       prism
_cell_formula_units_Z            4
_exptl_crystal_recrystallization_method ethanol
loop_
_atom_site_label
_atom_site_type_symbol
_atom_site_fract_x
_atom_site_fract_y
_atom_site_fract_z
Cl1 Cl 1.41202(5) 0.30834(6) 1.24470(11)
N1 N 0.92436(15) 0.37176(15) 0.8844(3)
C1 C 0.81851(19) 0.36531(17) 0.8206(4)
C2 C 0.7440(2) 0.3300(2) 0.9273(4)
H1 H 0.7634 0.3045 1.0418
C3 C 0.6383(2) 0.3315(2) 0.8669(4)
H2 H 0.5885 0.3071 0.9416
C4 C 0.6086(2) 0.3681(2) 0.7013(5)
H3 H 0.5383 0.3691 0.6635
C5 C 0.6828(2) 0.40512(19) 0.5839(4)
C6 C 0.78968(18) 0.40408(17) 0.6440(3)
C7 C 0.8628(2) 0.44051(18) 0.5263(4)
H4 H 0.9331 0.4402 0.5642
C8 C 0.8331(3) 0.4761(2) 0.3586(4)
H5 H 0.8830 0.4996 0.2829
C9 C 0.7281(3) 0.4776(2) 0.2989(4)
H6 H 0.7083 0.5022 0.1837
C10 C 0.6545(2) 0.4433(2) 0.4087(4)
H7 H 0.5847 0.4449 0.3679
C11 C 0.97066(19) 0.30238(18) 0.9492(3)
H8 H 0.9351 0.2479 0.9460
C12 C 1.07745(18) 0.30453(17) 1.0286(3)
C13 C 1.13264(19) 0.22522(18) 1.0563(3)
H9 H 1.0997 0.1706 1.0306
C14 C 1.23542(19) 0.2257(2) 1.1212(3)
H10 H 1.2720 0.1721 1.1381
C15 C 1.28284(18) 0.3068(2) 1.1604(3)
C16 C 1.22982(19) 0.3865(2) 1.1386(3)
H11 H 1.2628 0.4406 1.1686
C17 C 1.12764(19) 0.38576(18) 1.0719(3)
H12 H 1.0917 0.4397 1.0556
loop_
_geom_bond_atom_site_label_1
_geom_bond_atom_site_label_2
_geom_bond_site_symmetry_1
_geom_bond_site_symmetry_2
Cl1 C15 1_555 1_555
N1 C1 1_555 1_555
C1 C2 1_555 1_555
C2 H1 1_555 1_555
C3 C2 1_555 1_555
H2 C3 1_555 1_555
C4 C3 1_555 1_555
H3 C4 1_555 1_555
C5 C4 1_555 1_555
C6 C1 1_555 1_555
C7 C6 1_555 1_555
H4 C7 1_555 1_555
C8 C7 1_555 1_555
H5 C8 1_555 1_555
C9 C8 1_555 1_555
H6 C9 1_555 1_555
C10 C5 1_555 1_555
H7 C10 1_555 1_555
C11 N1 1_555 1_555
H8 C11 1_555 1_555
C12 C11 1_555 1_555
C13 C12 1_555 1_555
H9 C13 1_555 1_555
C14 C13 1_555 1_555
H10 C14 1_555 1_555
C15 C14 1_555 1_555
C16 C15 1_555 1_555
H11 C16 1_555 1_555
C17 C12 1_555 1_555
H12 C17 1_555 1_555
C5 C6 1_555 1_555
C9 C10 1_555 1_555
C16 C17 1_555 1_555

#END
