
#######################################################################
#
#                 Cambridge Crystallographic Data Centre
#                                CCDC 
#
#######################################################################
#
# If this CIF has been generated from an entry in the Cambridge 
# Structural Database, then it will include bibliographic, chemical, 
# crystal, experimental, refinement or atomic coordinate data resulting 
# from the CCDC's data processing and validation procedures.
#
#######################################################################

data_SUZRIQ
_chemical_formula_moiety         'C48 H34 N4 O1'
_chemical_name_systematic        
3-(4-(diphenylamino)phenyl)-2-(4-(2-(2-hydroxyphenyl)-4,5-diphenyl-1H-imidazol-1-yl)phenyl)acrylonitrile
_symmetry_cell_setting           triclinic
_symmetry_space_group_name_H-M   'P -1'
_symmetry_Int_Tables_number      2
_space_group_name_Hall           '-P 1'
loop_
_symmetry_equiv_pos_site_id
_symmetry_equiv_pos_as_xyz
1 x,y,z
2 -x,-y,-z
_cell_length_a                   9.8096(14)
_cell_length_b                   14.224(2)
_cell_length_c                   14.627(2)
_cell_angle_alpha                88.198(2)
_cell_angle_beta                 83.699(2)
_cell_angle_gamma                71.647(2)
_cell_volume                     1925.41
_cell_formula_units_Z            2
loop_
_atom_site_label
_atom_site_type_symbol
_atom_site_fract_x
_atom_site_fract_y
_atom_site_fract_z
O1 O 1.0893(4) 0.5427(3) 1.3036(2)
H1 H 1.1413 0.5029 1.2651
N1 N 1.2145(4) 0.4742(3) 1.1462(2)
N2 N 1.1966(4) 0.5623(3) 1.0184(2)
N3 N 0.6055(4) 1.2317(3) 0.5127(2)
N4 N 1.2376(5) 0.9388(3) 0.6898(3)
C1 C 1.2896(5) 0.4120(3) 1.0748(3)
C2 C 1.1582(5) 0.5647(3) 1.1128(3)
C3 C 1.2795(5) 0.4659(3) 0.9944(3)
C4 C 1.0713(5) 0.7991(3) 0.8318(3)
C5 C 1.1562(5) 0.6415(3) 0.9541(3)
C6 C 0.8973(5) 1.0421(3) 0.6181(3)
H2 H 0.9970 1.0144 0.6073
C7 C 0.6772(5) 1.1580(3) 0.5737(3)
C8 C 1.3403(4) 0.4385(3) 0.8988(3)
C9 C 0.8261(5) 1.1151(3) 0.5602(3)
H3 H 0.8786 1.1359 0.5114
C10 C 1.2418(5) 0.7005(3) 0.9310(3)
H4 H 1.3288 0.6880 0.9562
C11 C 1.0725(5) 0.6485(3) 1.1706(3)
C12 C 0.6777(5) 1.2970(3) 0.4698(3)
C13 C 0.4684(5) 1.2339(3) 0.4868(3)
C14 C 0.6743(5) 1.0533(3) 0.7043(3)
H5 H 0.6216 1.0322 0.7529
C15 C 1.1428(5) 0.9145(3) 0.7229(3)
C16 C 0.8893(5) 0.9287(3) 0.7538(3)
H6 H 0.8230 0.9053 0.7901
C17 C 1.0269(5) 0.8827(3) 0.7676(3)
C18 C 1.1994(5) 0.7784(3) 0.8705(3)
H7 H 1.2586 0.8176 0.8557
C19 C 0.6762(5) 1.3169(3) 0.3767(3)
H8 H 0.6276 1.2877 0.3410
C20 C 1.3642(5) 0.3068(3) 1.0922(3)
C21 C 0.8239(5) 1.0093(3) 0.6919(3)
C22 C 0.3659(5) 1.3241(3) 0.4700(3)
H9 H 0.3859 1.3830 0.4771
C23 C 1.0303(5) 0.6588(3) 0.9140(3)
H10 H 0.9734 0.6178 0.9275
C24 C 1.0412(5) 0.6328(4) 1.2645(3)
C25 C 0.7513(5) 1.3415(3) 0.5222(3)
H11 H 0.7521 1.3292 0.5850
C26 C 0.6017(5) 1.1265(3) 0.6476(3)
H12 H 0.5021 1.1548 0.6588
C27 C 0.9876(5) 0.7372(4) 0.8537(3)
H13 H 0.9016 0.7486 0.8275
C28 C 1.3845(5) 0.2743(4) 1.1802(3)
H14 H 1.3513 0.3194 1.2285
C29 C 1.4716(5) 0.4484(4) 0.8648(3)
H15 H 1.5220 0.4736 0.9027
C30 C 0.8221(5) 1.4029(3) 0.4813(4)
H16 H 0.8714 1.4318 0.5166
C31 C 0.2030(6) 1.2400(5) 0.4336(3)
H17 H 0.1140 1.2422 0.4155
C32 C 1.2699(5) 0.3999(4) 0.8410(3)
H18 H 1.1809 0.3925 0.8621
C33 C 0.2359(5) 1.3260(4) 0.4431(3)
H19 H 0.1686 1.3865 0.4310
C34 C 1.5301(6) 0.4216(4) 0.7756(4)
H20 H 1.6177 0.4304 0.7532
C35 C 0.4373(5) 1.1474(4) 0.4759(3)
H21 H 0.5066 1.0870 0.4852
C36 C 0.3046(6) 1.1490(4) 0.4513(3)
H22 H 0.2830 1.0903 0.4466
C37 C 1.4530(5) 0.1761(4) 1.1990(4)
H23 H 1.4644 0.1561 1.2596
C38 C 0.9578(6) 0.7104(4) 1.3213(4)
H24 H 0.9379 0.6985 1.3835
C39 C 1.3289(6) 0.3721(4) 0.7525(4)
H25 H 1.2797 0.3463 0.7142
C40 C 1.4143(6) 0.2384(4) 1.0226(4)
H26 H 1.4002 0.2581 0.9622
C41 C 0.7465(6) 1.3800(4) 0.3370(4)
H27 H 0.7437 1.3941 0.2746
C42 C 1.4590(6) 0.3824(4) 0.7210(4)
H28 H 1.4994 0.3623 0.6614
C43 C 0.8217(6) 1.4228(4) 0.3888(4)
H29 H 0.8711 1.4642 0.3614
C44 C 1.4866(7) 0.1389(4) 1.0413(5)
H30 H 1.5230 0.0932 0.9936
C45 C 0.9052(7) 0.8025(5) 1.2886(4)
H31 H 0.8502 0.8536 1.3282
C46 C 1.5032(6) 0.1094(5) 1.1310(5)
H32 H 1.5491 0.0433 1.1443
C47 C 1.0149(7) 0.7438(4) 1.1390(4)
H33 H 1.0316 0.7568 1.0767
C48 C 0.9320(8) 0.8216(5) 1.1978(5)
H34 H 0.8958 0.8854 1.1750
loop_
_geom_bond_atom_site_label_1
_geom_bond_atom_site_label_2
_geom_bond_site_symmetry_1
_geom_bond_site_symmetry_2
O1 H1 1_555 1_555
N1 C1 1_555 1_555
N2 C2 1_555 1_555
N3 C7 1_555 1_555
N4 C15 1_555 1_555
C1 C3 1_555 1_555
C2 N1 1_555 1_555
C3 N2 1_555 1_555
C4 C17 1_555 1_555
C5 N2 1_555 1_555
C6 H2 1_555 1_555
C7 C9 1_555 1_555
C8 C3 1_555 1_555
C9 C6 1_555 1_555
H3 C9 1_555 1_555
C10 C5 1_555 1_555
H4 C10 1_555 1_555
C11 C2 1_555 1_555
C12 N3 1_555 1_555
C13 N3 1_555 1_555
C14 H5 1_555 1_555
C15 C17 1_555 1_555
C16 H6 1_555 1_555
C17 C16 1_555 1_555
C18 C4 1_555 1_555
H7 C18 1_555 1_555
C19 C12 1_555 1_555
H8 C19 1_555 1_555
C20 C1 1_555 1_555
C21 C6 1_555 1_555
C22 C13 1_555 1_555
H9 C22 1_555 1_555
C23 C5 1_555 1_555
H10 C23 1_555 1_555
C24 O1 1_555 1_555
C25 C12 1_555 1_555
H11 C25 1_555 1_555
C26 C7 1_555 1_555
H12 C26 1_555 1_555
C27 C4 1_555 1_555
H13 C27 1_555 1_555
C28 C20 1_555 1_555
H14 C28 1_555 1_555
C29 C8 1_555 1_555
H15 C29 1_555 1_555
C30 C25 1_555 1_555
H16 C30 1_555 1_555
C31 H17 1_555 1_555
C32 C8 1_555 1_555
H18 C32 1_555 1_555
C33 C22 1_555 1_555
H19 C33 1_555 1_555
C34 C29 1_555 1_555
H20 C34 1_555 1_555
C35 C13 1_555 1_555
H21 C35 1_555 1_555
C36 C31 1_555 1_555
H22 C36 1_555 1_555
C37 C28 1_555 1_555
H23 C37 1_555 1_555
C38 C24 1_555 1_555
H24 C38 1_555 1_555
C39 C32 1_555 1_555
H25 C39 1_555 1_555
C40 C20 1_555 1_555
H26 C40 1_555 1_555
C41 C19 1_555 1_555
H27 C41 1_555 1_555
C42 C34 1_555 1_555
H28 C42 1_555 1_555
C43 C30 1_555 1_555
H29 C43 1_555 1_555
C44 C40 1_555 1_555
H30 C44 1_555 1_555
C45 C38 1_555 1_555
H31 C45 1_555 1_555
C46 C37 1_555 1_555
H32 C46 1_555 1_555
C47 C11 1_555 1_555
H33 C47 1_555 1_555
C48 C45 1_555 1_555
H34 C48 1_555 1_555
C10 C18 1_555 1_555
C11 C24 1_555 1_555
C14 C21 1_555 1_555
C14 C26 1_555 1_555
C16 C21 1_555 1_555
C23 C27 1_555 1_555
C31 C33 1_555 1_555
C35 C36 1_555 1_555
C39 C42 1_555 1_555
C41 C43 1_555 1_555
C44 C46 1_555 1_555
C47 C48 1_555 1_555

#END
