
#######################################################################
#
#                 Cambridge Crystallographic Data Centre
#                                CCDC 
#
#######################################################################
#
# If this CIF has been generated from an entry in the Cambridge 
# Structural Database, then it will include bibliographic, chemical, 
# crystal, experimental, refinement or atomic coordinate data resulting 
# from the CCDC's data processing and validation procedures.
#
#######################################################################

data_SUZWIV
_chemical_formula_moiety         'C31 H37 O2 P1 S1'
_chemical_name_systematic        
'2-Isopropyl-5-methylcyclohexyl (2-((4-methylphenyl)sulfanyl)-2-phenylvinyl)phenylphosphinate'
_symmetry_cell_setting           monoclinic
_symmetry_space_group_name_H-M   'P 21'
_symmetry_Int_Tables_number      4
_space_group_name_Hall           'P 2yb'
loop_
_symmetry_equiv_pos_site_id
_symmetry_equiv_pos_as_xyz
1 x,y,z
2 -x,1/2+y,-z
_cell_length_a                   5.8682(4)
_cell_length_b                   15.5218(14)
_cell_length_c                   14.1795(13)
_cell_angle_alpha                90
_cell_angle_beta                 92.4450(10)
_cell_angle_gamma                90
_cell_volume                     1290.36
_exptl_crystal_colour            colorless
_exptl_crystal_description       block
_cell_formula_units_Z            2
loop_
_atom_site_label
_atom_site_type_symbol
_atom_site_fract_x
_atom_site_fract_y
_atom_site_fract_z
S1 S 0.3845(6) 0.5761(2) 0.0971(3)
P1 P 0.4800(6) 0.6997(2) 0.2644(3)
O1 O 0.4476(14) 0.7360(5) 0.3651(6)
O2 O 0.7111(14) 0.6768(7) 0.2431(6)
C1 C -0.143(2) 0.6399(8) -0.1273(10)
C2 C 0.215(2) 0.5777(10) -0.0764(9)
H1 H 0.3469 0.5484 -0.0913
C3 C 0.070(2) 0.4929(8) 0.2008(10)
C4 C -0.021(3) 0.6354(9) 0.0335(11)
H2 H -0.0525 0.6489 0.0955
C5 C 0.237(2) 0.5638(8) 0.1968(8)
C6 C 0.772(2) 0.7129(10) 0.4699(10)
H3 H 0.6702 0.6892 0.5151
H4 H 0.8223 0.6661 0.4304
C7 C 0.895(3) 0.8232(12) 0.5796(13)
H5 H 1.0268 0.8489 0.6120
H6 H 0.7926 0.8025 0.6266
C8 C 0.208(3) 0.9069(11) 0.0768(12)
H7 H 0.1537 0.9488 0.0347
C9 C -0.116(2) 0.5016(9) 0.2542(11)
H8 H -0.1349 0.5520 0.2885
C10 C 0.158(2) 0.8097(8) 0.2007(11)
H9 H 0.0655 0.7865 0.2460
C11 C 0.645(2) 0.7786(9) 0.4090(10)
H10 H 0.7447 0.7990 0.3598
C12 C -0.240(3) 0.3670(13) 0.2058(14)
H11 H -0.3469 0.3230 0.2081
C13 C 0.076(3) 0.8792(9) 0.1459(11)
H12 H -0.0634 0.9050 0.1569
C14 C 0.771(3) 0.8914(11) 0.5152(12)
H13 H 0.7234 0.9394 0.5534
H14 H 0.8758 0.9131 0.4698
C15 C 0.171(2) 0.5966(8) 0.0142(9)
C16 C 0.3668(19) 0.7755(7) 0.1894(9)
C17 C -0.175(3) 0.6559(8) -0.0396(10)
H15 H -0.3104 0.6828 -0.0246
C18 C 0.503(2) 0.8072(9) 0.1195(11)
H16 H 0.6446 0.7837 0.1084
C19 C -0.064(3) 0.3550(10) 0.1506(12)
H17 H -0.0518 0.3055 0.1142
C20 C 0.568(3) 0.8530(9) 0.4644(11)
H18 H 0.4650 0.8315 0.5116
C21 C 0.416(3) 0.8744(10) 0.0685(11)
H19 H 0.5092 0.8997 0.0247
C22 C 0.062(3) 0.6023(10) -0.1443(11)
H20 H 0.0980 0.5933 -0.2068
C23 C 0.967(3) 0.7501(11) 0.5195(11)
H21 H 1.0663 0.7740 0.4720
C24 C -0.275(3) 0.4370(11) 0.2581(12)
H22 H -0.4014 0.4417 0.2952
C25 C 0.103(3) 0.4216(10) 0.1500(10)
H23 H 0.2329 0.4156 0.1152
C26 C 1.099(3) 0.6854(14) 0.5722(11)
H24 H 1.0009 0.6550 0.6132
H25 H 1.2189 0.7130 0.6091
H26 H 1.1636 0.6456 0.5290
C27 C 0.300(2) 0.6127(7) 0.2694(9)
H27 H 0.2422 0.5991 0.3276
C28 C -0.293(3) 0.6679(11) -0.2045(9)
H28 H -0.3550 0.7233 -0.1900
H29 H -0.4146 0.6271 -0.2138
H30 H -0.2089 0.6719 -0.2610
C29 C 0.343(3) 0.9856(12) 0.4632(13)
H31 H 0.4619 1.0252 0.4823
H32 H 0.2819 0.9596 0.5181
H33 H 0.2242 1.0159 0.4285
C30 C 0.438(3) 0.9177(9) 0.4027(11)
H34 H 0.3088 0.8874 0.3716
C31 C 0.575(3) 0.9538(10) 0.3292(13)
H35 H 0.4868 0.9961 0.2941
H36 H 0.6191 0.9087 0.2875
H37 H 0.7084 0.9805 0.3574
loop_
_geom_bond_atom_site_label_1
_geom_bond_atom_site_label_2
_geom_bond_site_symmetry_1
_geom_bond_site_symmetry_2
S1 C5 1_555 1_555
P1 O1 1_555 1_555
O1 C11 1_555 1_555
O2 P1 1_555 1_555
C1 C17 1_555 1_555
C2 H1 1_555 1_555
C3 C5 1_555 1_555
C4 H2 1_555 1_555
C5 C27 1_555 1_555
C6 H3 1_555 1_555
H4 C6 1_555 1_555
C7 H5 1_555 1_555
H6 C7 1_555 1_555
C8 H7 1_555 1_555
C9 C3 1_555 1_555
H8 C9 1_555 1_555
C10 H9 1_555 1_555
C11 C6 1_555 1_555
H10 C11 1_555 1_555
C12 H11 1_555 1_555
C13 C8 1_555 1_555
H12 C13 1_555 1_555
C14 C7 1_555 1_555
H13 C14 1_555 1_555
H14 C14 1_555 1_555
C15 S1 1_555 1_555
C16 P1 1_555 1_555
C17 C4 1_555 1_555
H15 C17 1_555 1_555
C18 C16 1_555 1_555
H16 C18 1_555 1_555
C19 C12 1_555 1_555
H17 C19 1_555 1_555
C20 C11 1_555 1_555
H18 C20 1_555 1_555
C21 C8 1_555 1_555
H19 C21 1_555 1_555
C22 C1 1_555 1_555
H20 C22 1_555 1_555
C23 C6 1_555 1_555
H21 C23 1_555 1_555
C24 C9 1_555 1_555
H22 C24 1_555 1_555
C25 C3 1_555 1_555
H23 C25 1_555 1_555
C26 C23 1_555 1_555
H24 C26 1_555 1_555
H25 C26 1_555 1_555
H26 C26 1_555 1_555
C27 P1 1_555 1_555
H27 C27 1_555 1_555
C28 C1 1_555 1_555
H28 C28 1_555 1_555
H29 C28 1_555 1_555
H30 C28 1_555 1_555
C29 H31 1_555 1_555
H32 C29 1_555 1_555
H33 C29 1_555 1_555
C30 C20 1_555 1_555
H34 C30 1_555 1_555
C31 C30 1_555 1_555
H35 C31 1_555 1_555
H36 C31 1_555 1_555
H37 C31 1_555 1_555
C2 C15 1_555 1_555
C2 C22 1_555 1_555
C4 C15 1_555 1_555
C7 C23 1_555 1_555
C10 C13 1_555 1_555
C10 C16 1_555 1_555
C12 C24 1_555 1_555
C14 C20 1_555 1_555
C18 C21 1_555 1_555
C19 C25 1_555 1_555
C29 C30 1_555 1_555

#END
