
#######################################################################
#
#                 Cambridge Crystallographic Data Centre
#                                CCDC 
#
#######################################################################
#
# If this CIF has been generated from an entry in the Cambridge 
# Structural Database, then it will include bibliographic, chemical, 
# crystal, experimental, refinement or atomic coordinate data resulting 
# from the CCDC's data processing and validation procedures.
#
#######################################################################

data_SUZXIW
_chemical_formula_moiety         'C5 O5 2-,5(H2 O1),2(C8 H20 N1 1+)'
_chemical_name_systematic        
'bis(Tetraethylammonium) croconate pentahydrate'
_symmetry_cell_setting           orthorhombic
_symmetry_space_group_name_H-M   'C m c 21'
_symmetry_Int_Tables_number      36
_space_group_name_Hall           'C 2n -2'
loop_
_symmetry_equiv_pos_site_id
_symmetry_equiv_pos_as_xyz
1 x,y,z
2 -x,-y,1/2+z
3 -x,y,z
4 x,-y,1/2+z
5 1/2+x,1/2+y,z
6 1/2-x,1/2-y,1/2+z
7 1/2-x,1/2+y,z
8 1/2+x,1/2-y,1/2+z
_cell_length_a                   12.9499(5)
_cell_length_b                   14.0813(5)
_cell_length_c                   14.8841(5)
_cell_angle_alpha                90
_cell_angle_beta                 90
_cell_angle_gamma                90
_cell_volume                     2714.14
_exptl_crystal_colour            yellow
_exptl_crystal_description       blocks
_cell_formula_units_Z            4
loop_
_atom_site_label
_atom_site_type_symbol
_atom_site_fract_x
_atom_site_fract_y
_atom_site_fract_z
O1 O 0.0000 0.48898(16) 0.60025(13)
H1 H 0.0000 0.535(2) 0.585(2)
H2 H 0.0000 0.447(3) 0.555(3)
O2 O 0.5000 0.86170(15) 0.45070(15)
H3 H 0.5000 0.870(3) 0.394(3)
H4 H 0.5000 0.805(3) 0.460(3)
O3 O 0.0000 0.61372(16) 0.75886(13)
H5 H 0.0000 0.566(3) 0.720(2)
H6 H 0.0000 0.667(3) 0.731(3)
O4 O 0.0000 0.84548(15) 0.18351(14)
H7 H 0.0000 0.903(3) 0.173(3)
H8 H 0.0000 0.833(4) 0.234(4)
O5 O 0.0000 0.83159(16) -0.00468(16)
H9 H 0.0000 0.828(3) 0.050(3)
H10 H 0.0000 0.893(4) -0.018(3)
O6 O 0.0000 0.97736(12) 0.40896(11)
O7 O 0.0000 0.78438(12) 0.67041(10)
O8 O 0.0000 0.65875(12) 0.51097(13)
O9 O 0.0000 0.97990(13) 0.60455(12)
O10 O 0.0000 0.77572(13) 0.35208(12)
C1 C 0.0000 0.80945(16) 0.59015(16)
C2 C 0.0000 0.90602(17) 0.45835(15)
C3 C 0.0000 0.80608(17) 0.43053(15)
C4 C 0.0000 0.90785(17) 0.55703(15)
C5 C 0.0000 0.74658(16) 0.51157(17)
N1 N 0.24153(9) 0.60575(11) 0.29176(9)
C6 C 0.31189(13) 0.68068(16) 0.33247(13)
H11 H 0.3602 0.6494 0.3725
H12 H 0.3517 0.7096 0.2845
C7 C 0.17213(12) 0.56230(14) 0.36312(12)
H13 H 0.1234 0.6102 0.3829
H14 H 0.1328 0.5112 0.3359
C8 C 0.31149(13) 0.53153(14) 0.25026(12)
H15 H 0.3582 0.5630 0.2089
H16 H 0.3530 0.5034 0.2975
C9 C 0.22748(14) 0.52363(16) 0.44436(13)
H17 H 0.1779 0.4982 0.4859
H18 H 0.2656 0.5737 0.4729
H19 H 0.2742 0.4743 0.4261
C10 C 0.22369(16) 0.68921(15) 0.13964(13)
H20 H 0.1730 0.7148 0.0993
H21 H 0.2615 0.6397 0.1099
H22 H 0.2704 0.7386 0.1577
C11 C 0.17043(13) 0.64910(13) 0.22153(12)
H23 H 0.1219 0.6008 0.2020
H24 H 0.1309 0.6995 0.2497
C12 C 0.25810(16) 0.75781(16) 0.38368(14)
H25 H 0.3083 0.8016 0.4069
H26 H 0.2200 0.7304 0.4326
H27 H 0.2115 0.7908 0.3444
C13 C 0.25662(15) 0.45297(15) 0.20054(13)
H28 H 0.3065 0.4093 0.1767
H29 H 0.2169 0.4796 0.1522
H30 H 0.2114 0.4200 0.2411
loop_
_geom_bond_atom_site_label_1
_geom_bond_atom_site_label_2
_geom_bond_site_symmetry_1
_geom_bond_site_symmetry_2
O1 H1 1_555 1_555
H2 O1 1_555 1_555
O2 H3 1_555 1_555
H4 O2 1_555 1_555
O3 H5 1_555 1_555
H6 O3 1_555 1_555
O4 H7 1_555 1_555
H8 O4 1_555 1_555
O5 H9 1_555 1_555
H10 O5 1_555 1_555
O6 C2 1_555 1_555
O7 C1 1_555 1_555
O8 C5 1_555 1_555
O9 C4 1_555 1_555
O10 C3 1_555 1_555
C1 C4 1_555 1_555
C2 C3 1_555 1_555
C3 C5 1_555 1_555
C4 C2 1_555 1_555
C5 C1 1_555 1_555
N1 C6 1_555 1_555
C6 H11 1_555 1_555
H12 C6 1_555 1_555
C7 N1 1_555 1_555
H13 C7 1_555 1_555
H14 C7 1_555 1_555
C8 N1 1_555 1_555
H15 C8 1_555 1_555
H16 C8 1_555 1_555
C9 C7 1_555 1_555
H17 C9 1_555 1_555
H18 C9 1_555 1_555
H19 C9 1_555 1_555
C10 H20 1_555 1_555
H21 C10 1_555 1_555
H22 C10 1_555 1_555
C11 N1 1_555 1_555
H23 C11 1_555 1_555
H24 C11 1_555 1_555
C12 C6 1_555 1_555
H25 C12 1_555 1_555
H26 C12 1_555 1_555
H27 C12 1_555 1_555
C13 C8 1_555 1_555
H28 C13 1_555 1_555
H29 C13 1_555 1_555
H30 C13 1_555 1_555
C10 C11 1_555 1_555

#END
