
#######################################################################
#
#                 Cambridge Crystallographic Data Centre
#                                CCDC 
#
#######################################################################
#
# If this CIF has been generated from an entry in the Cambridge 
# Structural Database, then it will include bibliographic, chemical, 
# crystal, experimental, refinement or atomic coordinate data resulting 
# from the CCDC's data processing and validation procedures.
#
#######################################################################

data_TABTAU
_chemical_formula_moiety         'C10 H21 N2 O1 P1'
_chemical_name_systematic        
'1,3-di-t-butyl-2,3-dihydro-1H-1,3,2-diazaphosphole 2-oxide'
_symmetry_cell_setting           monoclinic
_symmetry_space_group_name_H-M   'P 21/c'
_symmetry_Int_Tables_number      14
_space_group_name_Hall           '-P 2ybc'
loop_
_symmetry_equiv_pos_site_id
_symmetry_equiv_pos_as_xyz
1 x,y,z
2 -x,1/2+y,1/2-z
3 -x,-y,-z
4 x,1/2-y,1/2+z
_cell_length_a                   8.8616(3)
_cell_length_b                   11.5668(4)
_cell_length_c                   12.2800(5)
_cell_angle_alpha                90
_cell_angle_beta                 102.637(4)
_cell_angle_gamma                90
_cell_volume                     1228.21
_exptl_crystal_colour            colorless
_exptl_crystal_description       parallelepiped
_cell_formula_units_Z            4
loop_
_atom_site_label
_atom_site_type_symbol
_atom_site_fract_x
_atom_site_fract_y
_atom_site_fract_z
P1 P 0.70480(4) 0.59429(3) 0.23402(3)
O1 O 0.71370(11) 0.66663(8) 0.33399(8)
N1 N 0.86571(12) 0.54742(9) 0.20006(9)
N2 N 0.63917(12) 0.64981(10) 0.10748(9)
C1 C 0.88486(15) 0.60117(11) 0.10033(11)
H1 H 0.9773 0.5970 0.0733
C2 C 0.75947(15) 0.65808(11) 0.04876(11)
H2 H 0.7515 0.6993 -0.0192
C3 C 0.92799(17) 0.41735(13) 0.36032(13)
H3 H 0.8510 0.3624 0.3209
H4 H 0.8788 0.4705 0.4041
H5 H 1.0112 0.3751 0.4103
C4 C 1.06950(17) 0.40239(13) 0.20708(13)
H6 H 0.9922 0.3464 0.1699
H7 H 1.1546 0.3614 0.2564
H8 H 1.1096 0.4457 0.1509
C5 C 1.11271(16) 0.57374(12) 0.33567(12)
H9 H 1.0629 0.6257 0.3802
H10 H 1.1526 0.6189 0.2805
H11 H 1.1983 0.5331 0.3848
C6 C 0.99499(15) 0.48593(11) 0.27573(11)
C7 C 0.48839(15) 0.70927(11) 0.06751(11)
C8 C 0.42702(17) 0.67955(14) -0.05494(12)
H12 H 0.4133 0.5957 -0.0630
H13 H 0.5008 0.7058 -0.0986
H14 H 0.3274 0.7181 -0.0820
C9 C 0.37471(16) 0.66396(14) 0.13455(13)
H15 H 0.3617 0.5804 0.1233
H16 H 0.2746 0.7024 0.1094
H17 H 0.4148 0.6800 0.2140
C10 C 0.51030(18) 0.83968(12) 0.08266(15)
H18 H 0.5480 0.8573 0.1620
H19 H 0.4112 0.8788 0.0550
H20 H 0.5858 0.8666 0.0407
H21 H 0.6195(15) 0.5029(11) 0.2429(11)
loop_
_geom_bond_atom_site_label_1
_geom_bond_atom_site_label_2
_geom_bond_site_symmetry_1
_geom_bond_site_symmetry_2
P1 O1 1_555 1_555
N1 P1 1_555 1_555
N2 P1 1_555 1_555
C1 N1 1_555 1_555
H1 C1 1_555 1_555
C2 N2 1_555 1_555
H2 C2 1_555 1_555
C3 H3 1_555 1_555
H4 C3 1_555 1_555
H5 C3 1_555 1_555
C4 H6 1_555 1_555
H7 C4 1_555 1_555
H8 C4 1_555 1_555
C5 H9 1_555 1_555
H10 C5 1_555 1_555
H11 C5 1_555 1_555
C6 N1 1_555 1_555
C7 N2 1_555 1_555
C8 C7 1_555 1_555
H12 C8 1_555 1_555
H13 C8 1_555 1_555
H14 C8 1_555 1_555
C9 C7 1_555 1_555
H15 C9 1_555 1_555
H16 C9 1_555 1_555
H17 C9 1_555 1_555
C10 C7 1_555 1_555
H18 C10 1_555 1_555
H19 C10 1_555 1_555
H20 C10 1_555 1_555
H21 P1 1_555 1_555
C1 C2 1_555 1_555
C3 C6 1_555 1_555
C4 C6 1_555 1_555
C5 C6 1_555 1_555

#END
