
#######################################################################
#
#                 Cambridge Crystallographic Data Centre
#                                CCDC 
#
#######################################################################
#
# If this CIF has been generated from an entry in the Cambridge 
# Structural Database, then it will include bibliographic, chemical, 
# crystal, experimental, refinement or atomic coordinate data resulting 
# from the CCDC's data processing and validation procedures.
#
#######################################################################

data_TABTEY
_chemical_formula_moiety         'C26 H37 N2 O1 P1'
_chemical_name_systematic        
'1,3-bis(2,6-diisopropylphenyl)-2,3-dihydro-1H-1,3,2-diazaphosphole 2-oxide'
_symmetry_cell_setting           monoclinic
_symmetry_space_group_name_H-M   'P 21/n'
_symmetry_Int_Tables_number      14
_space_group_name_Hall           '-P 2yn'
loop_
_symmetry_equiv_pos_site_id
_symmetry_equiv_pos_as_xyz
1 x,y,z
2 1/2-x,1/2+y,1/2-z
3 -x,-y,-z
4 1/2+x,1/2-y,1/2+z
_cell_length_a                   19.5998(4)
_cell_length_b                   6.54340(10)
_cell_length_c                   20.1996(5)
_cell_angle_alpha                90
_cell_angle_beta                 106.417(2)
_cell_angle_gamma                90
_cell_volume                     2484.97
_exptl_crystal_colour            colorless
_exptl_crystal_description       pillar
_cell_formula_units_Z            4
loop_
_atom_site_label
_atom_site_type_symbol
_atom_site_fract_x
_atom_site_fract_y
_atom_site_fract_z
P1 P 0.212949(18) 0.21799(5) 0.010376(17)
O1 O 0.15600(10) 0.3548(3) 0.01520(9)
N1 N 0.21411(6) -0.02336(17) 0.03569(6)
N2 N 0.21567(6) 0.14876(17) -0.06821(6)
C1 C 0.21473(9) -0.1616(2) -0.01798(8)
H1 H 0.2141 -0.3030 -0.0135
C2 C 0.21625(8) -0.0659(2) -0.07524(7)
H2 H 0.2176 -0.1324 -0.1155
C3 C 0.22322(8) -0.0856(2) 0.10608(7)
C4 C 0.16240(8) -0.1054(2) 0.12964(7)
C5 C 0.17362(9) -0.1603(2) 0.19857(8)
H3 H 0.1346 -0.1743 0.2158
C6 C 0.24039(10) -0.1942(3) 0.24168(8)
H4 H 0.2463 -0.2287 0.2876
C7 C 0.29921(9) -0.1770(2) 0.21679(8)
H5 H 0.3444 -0.2019 0.2462
C8 C 0.29164(8) -0.1231(2) 0.14855(7)
C9 C 0.08777(8) -0.0765(2) 0.08295(8)
H6 H 0.0914 -0.0312 0.0378
C10 C 0.04773(9) 0.0883(3) 0.11058(9)
H7 H 0.0007 0.1031 0.0798
H8 H 0.0727 0.2159 0.1138
H9 H 0.0447 0.0495 0.1555
C11 C 0.04741(9) -0.2790(3) 0.07259(10)
H10 H 0.0735 -0.3790 0.0548
H11 H 0.0013 -0.2601 0.0404
H12 H 0.0421 -0.3251 0.1160
C12 C 0.35737(8) -0.1056(2) 0.12322(8)
H13 H 0.3415 -0.0827 0.0732
C13 C 0.40244(9) 0.0758(3) 0.15592(9)
H14 H 0.3740 0.1976 0.1473
H15 H 0.4415 0.0904 0.1364
H16 H 0.4204 0.0545 0.2048
C14 C 0.40133(10) -0.3031(3) 0.13637(11)
H17 H 0.4422 -0.2876 0.1195
H18 H 0.3727 -0.4145 0.1128
H19 H 0.4166 -0.3308 0.1850
C15 C 0.23496(7) 0.2862(2) -0.11560(6)
C16 C 0.30690(7) 0.3043(2) -0.11384(7)
C17 C 0.32383(7) 0.4361(2) -0.16090(7)
H20 H 0.3710 0.4489 -0.1612
C18 C 0.27199(8) 0.5480(2) -0.20714(7)
H21 H 0.2844 0.6355 -0.2382
C19 C 0.20162(7) 0.5300(2) -0.20727(7)
H22 H 0.1671 0.6071 -0.2383
C20 C 0.18137(7) 0.3990(2) -0.16203(7)
C21 C 0.10327(7) 0.3707(2) -0.16631(7)
H23 H 0.1005 0.3218 -0.1213
C22 C 0.07105(8) 0.2065(2) -0.21982(8)
H24 H 0.0983 0.0830 -0.2086
H25 H 0.0717 0.2528 -0.2647
H26 H 0.0228 0.1806 -0.2198
C23 C 0.06103(8) 0.5694(2) -0.18243(9)
H27 H 0.0819 0.6697 -0.1480
H28 H 0.0127 0.5449 -0.1825
H29 H 0.0619 0.6187 -0.2269
C24 C 0.36548(7) 0.1883(2) -0.06264(8)
H30 H 0.3440 0.1176 -0.0307
C25 C 0.39845(9) 0.0262(3) -0.09843(9)
H31 H 0.3619 -0.0636 -0.1244
H32 H 0.4329 -0.0512 -0.0644
H33 H 0.4214 0.0914 -0.1290
C26 C 0.42201(9) 0.3333(3) -0.02009(9)
H34 H 0.3999 0.4335 0.0018
H35 H 0.4455 0.4006 -0.0498
H36 H 0.4562 0.2570 0.0145
O2? O 0.26664(12) 0.3587(4) 0.04861(11)
loop_
_geom_bond_atom_site_label_1
_geom_bond_atom_site_label_2
_geom_bond_site_symmetry_1
_geom_bond_site_symmetry_2
P1 O1 1_555 1_555
N1 P1 1_555 1_555
N2 P1 1_555 1_555
C1 N1 1_555 1_555
H1 C1 1_555 1_555
C2 N2 1_555 1_555
H2 C2 1_555 1_555
C3 N1 1_555 1_555
C4 C3 1_555 1_555
C5 C4 1_555 1_555
H3 C5 1_555 1_555
C6 C5 1_555 1_555
H4 C6 1_555 1_555
C7 C6 1_555 1_555
H5 C7 1_555 1_555
C8 C3 1_555 1_555
C9 C4 1_555 1_555
H6 C9 1_555 1_555
C10 C9 1_555 1_555
H7 C10 1_555 1_555
H8 C10 1_555 1_555
H9 C10 1_555 1_555
C11 C9 1_555 1_555
H10 C11 1_555 1_555
H11 C11 1_555 1_555
H12 C11 1_555 1_555
C12 C8 1_555 1_555
H13 C12 1_555 1_555
C13 C12 1_555 1_555
H14 C13 1_555 1_555
H15 C13 1_555 1_555
H16 C13 1_555 1_555
C14 C12 1_555 1_555
H17 C14 1_555 1_555
H18 C14 1_555 1_555
H19 C14 1_555 1_555
C15 N2 1_555 1_555
C16 C15 1_555 1_555
C17 C16 1_555 1_555
H20 C17 1_555 1_555
C18 C17 1_555 1_555
H21 C18 1_555 1_555
C19 C18 1_555 1_555
H22 C19 1_555 1_555
C20 C15 1_555 1_555
C21 C20 1_555 1_555
H23 C21 1_555 1_555
C22 C21 1_555 1_555
H24 C22 1_555 1_555
H25 C22 1_555 1_555
H26 C22 1_555 1_555
C23 C21 1_555 1_555
H27 C23 1_555 1_555
H28 C23 1_555 1_555
H29 C23 1_555 1_555
C24 C16 1_555 1_555
H30 C24 1_555 1_555
C25 C24 1_555 1_555
H31 C25 1_555 1_555
H32 C25 1_555 1_555
H33 C25 1_555 1_555
C26 C24 1_555 1_555
H34 C26 1_555 1_555
H35 C26 1_555 1_555
H36 C26 1_555 1_555
C1 C2 1_555 1_555
C7 C8 1_555 1_555
C19 C20 1_555 1_555

#END
