
#######################################################################
#
#                 Cambridge Crystallographic Data Centre
#                                CCDC 
#
#######################################################################
#
# If this CIF has been generated from an entry in the Cambridge 
# Structural Database, then it will include bibliographic, chemical, 
# crystal, experimental, refinement or atomic coordinate data resulting 
# from the CCDC's data processing and validation procedures.
#
#######################################################################

data_TABTUO
_chemical_formula_moiety         'C33 H40 F3 N3 O3'
_chemical_name_systematic        
3-(1-((dihexylamino)acetyl)-5-(2-(trifluoromethyl)phenyl)-4,5-dihydro-1H-pyrazol-3-yl)-2H-chromen-2-one
_chemical_properties_biological  'antiproliferative activity'
_symmetry_cell_setting           triclinic
_symmetry_space_group_name_H-M   'P -1'
_symmetry_Int_Tables_number      2
_space_group_name_Hall           '-P 1'
loop_
_symmetry_equiv_pos_site_id
_symmetry_equiv_pos_as_xyz
1 x,y,z
2 -x,-y,-z
_cell_length_a                   11.473(5)
_cell_length_b                   13.612(5)
_cell_length_c                   21.594(9)
_cell_angle_alpha                74.192(4)
_cell_angle_beta                 88.993(4)
_cell_angle_gamma                76.119(4)
_cell_volume                     3145.92
_exptl_crystal_colour            yellow
_exptl_crystal_description       block
_chemical_melting_point          '219-220 deg.C'
_cell_formula_units_Z            4
loop_
_atom_site_label
_atom_site_type_symbol
_atom_site_fract_x
_atom_site_fract_y
_atom_site_fract_z
C1 C -0.0946(6) 0.8168(5) 0.4327(3)
H1 H -0.0832 0.7425 0.4544
H2 H -0.1063 0.8255 0.3870
C2 C -0.2050(6) 0.8740(6) 0.4547(3)
H3 H -0.2232 0.9460 0.4275
H4 H -0.2695 0.8435 0.4465
C3 C -0.2095(6) 0.8779(5) 0.5216(3)
H5 H -0.1514 0.9152 0.5291
H6 H -0.1849 0.8065 0.5494
C4 C -0.3293(6) 0.9293(6) 0.5414(3)
H7 H -0.3488 1.0024 0.5160
H8 H -0.3880 0.8971 0.5284
C5 C -0.3473(7) 0.9284(7) 0.6054(4)
H9 H -0.2944 0.9670 0.6172
H10 H -0.3203 0.8560 0.6313
C6 C -0.4642(7) 0.9692(7) 0.6245(4)
H11 H -0.4872 1.0441 0.6061
H12 H -0.4636 0.9533 0.6706
H13 H -0.5206 0.9376 0.6097
C7 C 0.1203(5) 0.7585(4) 0.4585(3)
H14 H 0.1406 0.7353 0.4201
H15 H 0.0993 0.7009 0.4905
C8 C 0.2285(6) 0.7807(4) 0.4834(3)
H16 H 0.2046 0.8174 0.5160
H17 H 0.2596 0.8275 0.4484
C9 C 0.3274(5) 0.6848(4) 0.5118(3)
H18 H 0.2962 0.6404 0.5479
H19 H 0.3462 0.6462 0.4797
C10 C 0.4402(6) 0.6991(5) 0.5342(3)
H20 H 0.4234 0.7332 0.5685
H21 H 0.4705 0.7461 0.4990
C11 C 0.5362(6) 0.6003(5) 0.5583(4)
H22 H 0.5070 0.5551 0.5950
H23 H 0.5489 0.5641 0.5248
C12 C 0.6471(7) 0.6114(7) 0.5768(5)
H24 H 0.6840 0.6455 0.5395
H25 H 0.6982 0.5432 0.5969
H26 H 0.6355 0.6532 0.6068
C13 C 0.0106(5) 1.3778(4) 0.1859(3)
C14 C 0.0095(5) 1.5013(4) 0.2476(3)
C15 C -0.0033(5) 1.6061(4) 0.2440(4)
H27 H -0.0154 1.6578 0.2047
C16 C 0.0030(6) 1.6299(5) 0.3016(4)
H28 H -0.0042 1.6997 0.3010
C17 C 0.0191(7) 1.5554(5) 0.3592(4)
H29 H 0.0228 1.5742 0.3973
C18 C 0.0299(6) 1.4529(5) 0.3609(3)
H30 H 0.0401 1.4023 0.4006
C19 C 0.0261(5) 1.4217(4) 0.3047(3)
C20 C 0.0365(5) 1.3181(4) 0.3020(3)
H31 H 0.0464 1.2648 0.3405
C21 C 0.0330(4) 1.2922(4) 0.2466(3)
C22 C 0.0459(4) 1.1847(3) 0.2441(3)
C23 C 0.0570(5) 1.1469(3) 0.1847(2)
H32 H 0.1218 1.1681 0.1592
H33 H -0.0173 1.1733 0.1582
C24 C 0.0847(4) 1.0268(4) 0.2129(2)
H34 H 0.0254 0.9986 0.1957
C25 C 0.2107(5) 0.9728(3) 0.1996(3)
C26 C 0.3049(5) 0.9711(4) 0.2387(3)
H35 H 0.2896 0.9985 0.2739
C27 C 0.4211(6) 0.9295(4) 0.2265(3)
H36 H 0.4840 0.9300 0.2528
C28 C 0.4447(6) 0.8876(5) 0.1762(4)
H37 H 0.5237 0.8580 0.1688
C29 C 0.3551(6) 0.8886(4) 0.1373(3)
H38 H 0.3723 0.8601 0.1026
C30 C 0.2350(6) 0.9323(4) 0.1481(3)
C31 C 0.1375(7) 0.9312(5) 0.1047(3)
C32 C 0.0539(4) 0.9321(4) 0.3253(3)
C33 C 0.0285(5) 0.9398(4) 0.3942(3)
H39 H 0.0931 0.9638 0.4091
H40 H -0.0448 0.9942 0.3918
F1 F 0.1768(4) 0.9037(3) 0.0515(2)
F2 F 0.0694(4) 0.8667(3) 0.1307(2)
F3 F 0.0617(4) 1.0257(3) 0.08128(18)
N1 N 0.0511(4) 1.1124(3) 0.2958(2)
N2 N 0.0675(4) 1.0182(3) 0.2818(2)
N3 N 0.0159(4) 0.8467(4) 0.4428(2)
O1 O 0.0015(5) 1.3669(3) 0.1331(2)
O2 O 0.0023(4) 1.4780(3) 0.1897(2)
O3 O 0.0625(3) 0.8500(3) 0.31084(17)
C34 C 0.8564(5) 0.7299(5) 0.0379(3)
H41 H 0.8672 0.7317 0.0820
H42 H 0.8525 0.7999 0.0100
C35 C 0.9617(5) 0.6539(5) 0.0221(3)
H43 H 0.9663 0.5844 0.0509
H44 H 0.9490 0.6505 -0.0215
C36 C 1.0768(6) 0.6812(5) 0.0272(4)
H45 H 1.0854 0.6918 0.0693
H46 H 1.0750 0.7474 -0.0048
C37 C 1.1829(6) 0.6010(6) 0.0180(4)
H47 H 1.1844 0.5349 0.0499
H48 H 1.1738 0.5903 -0.0241
C38 C 1.2969(7) 0.6264(8) 0.0226(5)
H49 H 1.3363 0.6212 -0.0169
H50 H 1.2787 0.7002 0.0218
C39 C 1.3737(10) 0.5790(10) 0.0675(6)
H51 H 1.3373 0.5390 0.1027
H52 H 1.4051 0.6291 0.0816
H53 H 1.4378 0.5324 0.0528
C40 C 0.6362(7) 0.7879(5) 0.0118(3)
H54 H 0.6498 0.8486 0.0231
H55 H 0.5701 0.7671 0.0362
C41 C 0.6013(8) 0.8186(6) -0.0573(4)
H56 H 0.5156 0.8505 -0.0604
H57 H 0.6393 0.8752 -0.0769
C42 C 0.6186(9) 0.7532(7) -0.1001(4)
H58 H 0.7046 0.7221 -0.0956
H59 H 0.5822 0.6964 -0.0786
C43 C 0.5913(9) 0.7681(7) -0.1651(4)
H60 H 0.6260 0.8240 -0.1899
H61 H 0.5047 0.7927 -0.1724
C44 C 0.6303(11) 0.6792(9) -0.1904(5)
H62 H 0.7164 0.6525 -0.1816
H63 H 0.5926 0.6243 -0.1671
C45 C 0.6074(11) 0.6964(9) -0.2527(5)
H64 H 0.6355 0.7562 -0.2764
H65 H 0.5224 0.7098 -0.2612
H66 H 0.6478 0.6356 -0.2660
C46 C 0.7472(5) 0.1796(4) 0.2967(3)
C47 C 0.7575(5) 0.0513(4) 0.2371(3)
C48 C 0.7649(5) -0.0533(4) 0.2433(3)
H67 H 0.7675 -0.1014 0.2835
C49 C 0.7682(6) -0.0834(5) 0.1877(4)
H68 H 0.7749 -0.1539 0.1903
C50 C 0.7621(6) -0.0134(5) 0.1286(4)
H69 H 0.7643 -0.0358 0.0915
C51 C 0.7526(6) 0.0911(5) 0.1243(3)
H70 H 0.7479 0.1392 0.0839
C52 C 0.7501(5) 0.1257(4) 0.1791(3)
C53 C 0.7372(4) 0.2317(4) 0.1807(3)
H71 H 0.7307 0.2836 0.1418
C54 C 0.7341(5) 0.2601(4) 0.2353(3)
C55 C 0.7189(4) 0.3697(4) 0.2352(3)
C56 C 0.7055(5) 0.4132(4) 0.2925(3)
H72 H 0.7785 0.3877 0.3200
H73 H 0.6390 0.3950 0.3176
C57 C 0.6807(5) 0.5329(4) 0.2612(3)
H74 H 0.7412 0.5614 0.2770
C58 C 0.5567(5) 0.5911(4) 0.2723(3)
C59 C 0.4621(6) 0.5805(5) 0.2393(3)
H75 H 0.4769 0.5426 0.2089
C60 C 0.3440(6) 0.6253(5) 0.2504(4)
H76 H 0.2804 0.6159 0.2283
C61 C 0.3221(7) 0.6834(5) 0.2941(4)
H77 H 0.2437 0.7159 0.3008
C62 C 0.4147(7) 0.6930(5) 0.3270(4)
H78 H 0.3987 0.7305 0.3576
C63 C 0.5333(6) 0.6494(4) 0.3174(3)
C64 C 0.6344(8) 0.6665(5) 0.3525(4)
C65 C 0.7071(5) 0.6253(4) 0.1465(3)
C66 C 0.7289(5) 0.6120(4) 0.0797(3)
H79 H 0.8003 0.5555 0.0824
H80 H 0.6618 0.5895 0.0661
F4 F 0.7017(4) 0.7180(3) 0.31503(19)
F5 F 0.7027(4) 0.5758(3) 0.38700(19)
F6 F 0.5917(5) 0.7202(3) 0.3946(2)
N4 N 0.7142(4) 0.4392(3) 0.1811(2)
N5 N 0.6965(4) 0.5375(3) 0.1930(2)
N6 N 0.7437(5) 0.7019(4) 0.0304(2)
O4 O 0.7510(4) 0.1932(3) 0.3489(2)
O5 O 0.7558(3) 0.0782(3) 0.2942(2)
O6 O 0.6994(3) 0.7069(3) 0.16079(18)
loop_
_geom_bond_atom_site_label_1
_geom_bond_atom_site_label_2
_geom_bond_site_symmetry_1
_geom_bond_site_symmetry_2
C1 H1 1_555 1_555
H2 C1 1_555 1_555
C2 C1 1_555 1_555
H3 C2 1_555 1_555
H4 C2 1_555 1_555
C3 C2 1_555 1_555
H5 C3 1_555 1_555
H6 C3 1_555 1_555
C4 C3 1_555 1_555
H7 C4 1_555 1_555
H8 C4 1_555 1_555
C5 C4 1_555 1_555
H9 C5 1_555 1_555
H10 C5 1_555 1_555
C6 C5 1_555 1_555
H11 C6 1_555 1_555
H12 C6 1_555 1_555
H13 C6 1_555 1_555
C7 H14 1_555 1_555
H15 C7 1_555 1_555
C8 C7 1_555 1_555
H16 C8 1_555 1_555
H17 C8 1_555 1_555
C9 C8 1_555 1_555
H18 C9 1_555 1_555
H19 C9 1_555 1_555
C10 C9 1_555 1_555
H20 C10 1_555 1_555
H21 C10 1_555 1_555
C11 C10 1_555 1_555
H22 C11 1_555 1_555
H23 C11 1_555 1_555
C12 C11 1_555 1_555
H24 C12 1_555 1_555
H25 C12 1_555 1_555
H26 C12 1_555 1_555
C13 C21 1_555 1_555
C14 C15 1_555 1_555
C15 H27 1_555 1_555
C16 C15 1_555 1_555
H28 C16 1_555 1_555
C17 C16 1_555 1_555
H29 C17 1_555 1_555
C18 C17 1_555 1_555
H30 C18 1_555 1_555
C19 C14 1_555 1_555
C20 C19 1_555 1_555
H31 C20 1_555 1_555
C21 C20 1_555 1_555
C22 C21 1_555 1_555
C23 C22 1_555 1_555
H32 C23 1_555 1_555
H33 C23 1_555 1_555
C24 C23 1_555 1_555
H34 C24 1_555 1_555
C25 C24 1_555 1_555
C26 C25 1_555 1_555
H35 C26 1_555 1_555
C27 C26 1_555 1_555
H36 C27 1_555 1_555
C28 C27 1_555 1_555
H37 C28 1_555 1_555
C29 C28 1_555 1_555
H38 C29 1_555 1_555
C30 C25 1_555 1_555
C31 C30 1_555 1_555
C32 C33 1_555 1_555
C33 H39 1_555 1_555
H40 C33 1_555 1_555
F1 C31 1_555 1_555
F2 C31 1_555 1_555
F3 C31 1_555 1_555
N1 C22 1_555 1_555
N2 C24 1_555 1_555
N3 C1 1_555 1_555
O1 C13 1_555 1_555
O2 C13 1_555 1_555
O3 C32 1_555 1_555
C34 H41 1_555 1_555
H42 C34 1_555 1_555
C35 C34 1_555 1_555
H43 C35 1_555 1_555
H44 C35 1_555 1_555
C36 C35 1_555 1_555
H45 C36 1_555 1_555
H46 C36 1_555 1_555
C37 C36 1_555 1_555
H47 C37 1_555 1_555
H48 C37 1_555 1_555
C38 C37 1_555 1_555
H49 C38 1_555 1_555
H50 C38 1_555 1_555
C39 C38 1_555 1_555
H51 C39 1_555 1_555
H52 C39 1_555 1_555
H53 C39 1_555 1_555
C40 H54 1_555 1_555
H55 C40 1_555 1_555
C41 C40 1_555 1_555
H56 C41 1_555 1_555
H57 C41 1_555 1_555
C42 C41 1_555 1_555
H58 C42 1_555 1_555
H59 C42 1_555 1_555
C43 C42 1_555 1_555
H60 C43 1_555 1_555
H61 C43 1_555 1_555
C44 C43 1_555 1_555
H62 C44 1_555 1_555
H63 C44 1_555 1_555
C45 C44 1_555 1_555
H64 C45 1_555 1_555
H65 C45 1_555 1_555
H66 C45 1_555 1_555
C46 C54 1_555 1_555
C47 C48 1_555 1_555
C48 H67 1_555 1_555
C49 C48 1_555 1_555
H68 C49 1_555 1_555
C50 C49 1_555 1_555
H69 C50 1_555 1_555
C51 C50 1_555 1_555
H70 C51 1_555 1_555
C52 C47 1_555 1_555
C53 C52 1_555 1_555
H71 C53 1_555 1_555
C54 C53 1_555 1_555
C55 C54 1_555 1_555
C56 C55 1_555 1_555
H72 C56 1_555 1_555
H73 C56 1_555 1_555
C57 C56 1_555 1_555
H74 C57 1_555 1_555
C58 C57 1_555 1_555
C59 C58 1_555 1_555
H75 C59 1_555 1_555
C60 C59 1_555 1_555
H76 C60 1_555 1_555
C61 C60 1_555 1_555
H77 C61 1_555 1_555
C62 C61 1_555 1_555
H78 C62 1_555 1_555
C63 C58 1_555 1_555
C64 C63 1_555 1_555
C65 C66 1_555 1_555
C66 H79 1_555 1_555
H80 C66 1_555 1_555
F4 C64 1_555 1_555
F5 C64 1_555 1_555
F6 C64 1_555 1_555
N4 C55 1_555 1_555
N5 C57 1_555 1_555
N6 C34 1_555 1_555
O4 C46 1_555 1_555
O5 C46 1_555 1_555
O6 C65 1_555 1_555
C7 N3 1_555 1_555
C14 O2 1_555 1_555
C18 C19 1_555 1_555
C29 C30 1_555 1_555
C32 N2 1_555 1_555
C33 N3 1_555 1_555
N1 N2 1_555 1_555
C40 N6 1_555 1_555
C47 O5 1_555 1_555
C51 C52 1_555 1_555
C62 C63 1_555 1_555
C65 N5 1_555 1_555
C66 N6 1_555 1_555
N4 N5 1_555 1_555

#END
