
#######################################################################
#
#                 Cambridge Crystallographic Data Centre
#                                CCDC 
#
#######################################################################
#
# If this CIF has been generated from an entry in the Cambridge 
# Structural Database, then it will include bibliographic, chemical, 
# crystal, experimental, refinement or atomic coordinate data resulting 
# from the CCDC's data processing and validation procedures.
#
#######################################################################

data_TABVAT
_chemical_formula_moiety         'C10 H16 B2 N4 Se2'
_chemical_name_systematic        
1,7-Diethyl-13,14-diselena-2,8-diaza-6,12-diazonia-1,7-diboratetracyclo(5.5.2.0^2,6^.0^8,12^)tetradeca-3,5,9,11-tetraene
_symmetry_cell_setting           monoclinic
_symmetry_space_group_name_H-M   'P 21/n'
_symmetry_Int_Tables_number      14
_space_group_name_Hall           '-P 2yn'
loop_
_symmetry_equiv_pos_site_id
_symmetry_equiv_pos_as_xyz
1 x,y,z
2 1/2-x,1/2+y,1/2-z
3 -x,-y,-z
4 1/2+x,1/2-y,1/2+z
_cell_length_a                   8.774(1)
_cell_length_b                   14.411(3)
_cell_length_c                   11.143(2)
_cell_angle_alpha                90
_cell_angle_beta                 95.88(1)
_cell_angle_gamma                90
_cell_volume                     1401.53
_chemical_melting_point          221-223deg.C
_cell_formula_units_Z            4
loop_
_atom_site_label
_atom_site_type_symbol
_atom_site_fract_x
_atom_site_fract_y
_atom_site_fract_z
Se1 Se 0.06111(6) 0.34836(4) 0.65190(5)
Se2 Se 0.07560(6) 0.29252(4) 0.85086(5)
B1 B 0.24441(62) 0.44255(41) 0.67485(51)
N1 N 0.38798(42) 0.38910(26) 0.73104(34)
C1 C 0.51798(62) 0.36239(37) 0.68818(53)
H1 H 0.5390(59) 0.3741(38) 0.6175(49)
C2 C 0.60719(60) 0.31447(38) 0.77459(52)
H2 H 0.7104(62) 0.2862(35) 0.7734(45)
C3 C 0.52621(59) 0.31317(35) 0.87319(50)
H3 H 0.5443(59) 0.2878(36) 0.9596(48)
N2 N 0.39258(42) 0.35849(24) 0.84671(34)
B2 B 0.25500(59) 0.37742(37) 0.92098(50)
N3 N 0.21102(42) 0.47950(26) 0.89095(36)
C4 C 0.16602(54) 0.54986(34) 0.95833(50)
H4 H 0.1534(46) 0.5453(27) 1.0398(39)
C5 C 0.13838(61) 0.62542(40) 0.88726(56)
H5 H 0.1015(64) 0.6744(41) 0.9035(51)
C6 C 0.16513(57) 0.60009(36) 0.77356(54)
H6 H 0.1574(57) 0.6279(35) 0.6913(48)
N4 N 0.20832(43) 0.51071(26) 0.77504(35)
C7 C 0.26246(67) 0.49158(39) 0.55040(46)
H7 H 0.35927(67) 0.52357(39) 0.55841(46)
H8 H 0.18327(67) 0.53770(39) 0.53736(46)
C8 C 0.25561(81) 0.43224(48) 0.43693(54)
H9 H 0.26846(81) 0.47009(48) 0.36778(54)
H10 H 0.33643(81) 0.38695(48) 0.44685(54)
H11 H 0.15799(81) 0.40128(48) 0.42551(54)
C9 C 0.29081(56) 0.35741(34) 1.06057(44)
H12 H 0.31581(56) 0.29278(34) 1.07005(44)
H13 H 0.19906(56) 0.36812(34) 1.09902(44)
C10 C 0.42370(57) 0.41361(40) 1.12814(46)
H14 H 0.43632(57) 0.39565(40) 1.21153(46)
H15 H 0.51745(57) 0.40213(40) 1.09271(46)
H16 H 0.39913(57) 0.47848(40) 1.12208(46)
loop_
_geom_bond_atom_site_label_1
_geom_bond_atom_site_label_2
_geom_bond_site_symmetry_1
_geom_bond_site_symmetry_2
Se1 Se2 1_555 1_555
Se2 B2 1_555 1_555
B1 Se1 1_555 1_555
N1 B1 1_555 1_555
C1 N1 1_555 1_555
H1 C1 1_555 1_555
C2 C1 1_555 1_555
H2 C2 1_555 1_555
C3 C2 1_555 1_555
H3 C3 1_555 1_555
N2 N1 1_555 1_555
B2 N2 1_555 1_555
N3 B2 1_555 1_555
C4 N3 1_555 1_555
H4 C4 1_555 1_555
C5 C4 1_555 1_555
H5 C5 1_555 1_555
C6 C5 1_555 1_555
H6 C6 1_555 1_555
N4 B1 1_555 1_555
C7 B1 1_555 1_555
H7 C7 1_555 1_555
H8 C7 1_555 1_555
C8 C7 1_555 1_555
H9 C8 1_555 1_555
H10 C8 1_555 1_555
H11 C8 1_555 1_555
C9 B2 1_555 1_555
H12 C9 1_555 1_555
H13 C9 1_555 1_555
C10 C9 1_555 1_555
H14 C10 1_555 1_555
H15 C10 1_555 1_555
H16 C10 1_555 1_555
C3 N2 1_555 1_555
N3 N4 1_555 1_555
C6 N4 1_555 1_555

#END
