
#######################################################################
#
#                 Cambridge Crystallographic Data Centre
#                                CCDC 
#
#######################################################################
#
# If this CIF has been generated from an entry in the Cambridge 
# Structural Database, then it will include bibliographic, chemical, 
# crystal, experimental, refinement or atomic coordinate data resulting 
# from the CCDC's data processing and validation procedures.
#
#######################################################################

data_TABVEX
_chemical_formula_moiety         'C14 H24 B2 N4 Se1'
_chemical_name_systematic        
1,7-Diethyl-3,5,9,11-tetramethyl-13-selena-2,8-diaza-6,12-diazonia-1,7-diboratetracyclo(5.5.1.0^2,6^.0^8,12^)trideca-3,5,9,11-tetraene
_symmetry_cell_setting           monoclinic
_symmetry_space_group_name_H-M   'P 21/c'
_symmetry_Int_Tables_number      14
_space_group_name_Hall           '-P 2ybc'
loop_
_symmetry_equiv_pos_site_id
_symmetry_equiv_pos_as_xyz
1 x,y,z
2 -x,1/2+y,1/2-z
3 -x,-y,-z
4 x,1/2-y,1/2+z
_cell_length_a                   7.915(1)
_cell_length_b                   13.494(2)
_cell_length_c                   16.648(3)
_cell_angle_alpha                90
_cell_angle_beta                 104.32(1)
_cell_angle_gamma                90
_cell_volume                     1722.84
_chemical_melting_point          261-262deg.C
_cell_formula_units_Z            4
loop_
_atom_site_label
_atom_site_type_symbol
_atom_site_fract_x
_atom_site_fract_y
_atom_site_fract_z
Se1 Se 0.72345(11) 0.25193(7) 0.26640(5)
B1 B 0.8613(11) 0.12171(74) 0.26696(58)
N1 N 0.80377(71) 0.06096(47) 0.33707(37)
C1 C 0.77177(98) -0.03255(65) 0.35636(58)
C2 C 0.7455(12) -0.03221(80) 0.43444(67)
H1 H 0.7342(83) -0.0850(54) 0.4607(44)
C3 C 0.76668(96) 0.06270(78) 0.46389(49)
N2 N 0.79946(75) 0.12000(47) 0.40370(40)
B2 B 0.8528(13) 0.22982(61) 0.39004(62)
N3 N 1.04752(83) 0.21635(45) 0.38054(42)
C4 C 1.2128(11) 0.24199(57) 0.41985(53)
C5 C 1.3173(14) 0.19681(80) 0.37541(63)
H2 H 1.4192(91) 0.1989(57) 0.3889(46)
C6 C 1.2165(10) 0.14317(61) 0.31161(56)
N4 N 1.05260(76) 0.15567(44) 0.31487(37)
C7 C 0.8438(11) 0.06851(71) 0.18092(54)
H3 H 0.8884(11) 0.00208(71) 0.18802(54)
H4 H 0.9093(11) 0.10650(71) 0.15034(54)
C8 C 0.6545(11) 0.05324(95) 0.13164(59)
H5 H 0.6437(11) 0.01201(95) 0.08365(59)
H6 H 0.6040(11) 0.11698(95) 0.11494(59)
H7 H 0.5947(11) 0.02284(95) 0.16888(59)
C9 C 0.8219(12) 0.30889(73) 0.45631(57)
H8 H 0.9010(12) 0.29737(73) 0.50932(57)
H9 H 0.7045(12) 0.29798(73) 0.46036(57)
C10 C 0.8210(18) 0.41428(74) 0.42907(76)
H10 H 0.8167(18) 0.46379(74) 0.46994(76)
H11 H 0.7250(18) 0.42361(74) 0.38155(76)
H12 H 0.9287(18) 0.42008(74) 0.41276(76)
C11 C 0.7710(14) -0.12036(75) 0.30034(72)
H13 H 0.7676(14) -0.18016(75) 0.33113(72)
H14 H 0.8715(14) -0.12136(75) 0.27775(72)
H15 H 0.6674(14) -0.11569(75) 0.25605(72)
C12 C 0.7534(14) 0.10160(80) 0.54706(57)
H16 H 0.7631(14) 0.05149(80) 0.58890(57)
H17 H 0.6450(14) 0.13629(80) 0.54062(57)
H18 H 0.8485(14) 0.14748(80) 0.56331(57)
C13 C 1.2592(12) 0.30744(78) 0.49390(58)
H19 H 1.3836(12) 0.30615(78) 0.51515(58)
H20 H 1.2043(12) 0.28497(78) 0.53595(58)
H21 H 1.2222(12) 0.37391(78) 0.47804(58)
C14 C 1.2730(11) 0.07797(79) 0.25067(59)
H22 H 1.3973(11) 0.08012(79) 0.25854(59)
H23 H 1.2174(11) 0.10195(79) 0.19626(59)
H24 H 1.2371(11) 0.01093(79) 0.25639(59)
loop_
_geom_bond_atom_site_label_1
_geom_bond_atom_site_label_2
_geom_bond_site_symmetry_1
_geom_bond_site_symmetry_2
Se1 B1 1_555 1_555
B1 N1 1_555 1_555
N1 C1 1_555 1_555
C1 C2 1_555 1_555
C2 H1 1_555 1_555
C3 C2 1_555 1_555
N2 N1 1_555 1_555
B2 Se1 1_555 1_555
N3 B2 1_555 1_555
C4 N3 1_555 1_555
C5 C4 1_555 1_555
H2 C5 1_555 1_555
C6 C5 1_555 1_555
N4 B1 1_555 1_555
C7 B1 1_555 1_555
H3 C7 1_555 1_555
H4 C7 1_555 1_555
C8 C7 1_555 1_555
H5 C8 1_555 1_555
H6 C8 1_555 1_555
H7 C8 1_555 1_555
C9 B2 1_555 1_555
H8 C9 1_555 1_555
H9 C9 1_555 1_555
C10 C9 1_555 1_555
H10 C10 1_555 1_555
H11 C10 1_555 1_555
H12 C10 1_555 1_555
C11 C1 1_555 1_555
H13 C11 1_555 1_555
H14 C11 1_555 1_555
H15 C11 1_555 1_555
C12 C3 1_555 1_555
H16 C12 1_555 1_555
H17 C12 1_555 1_555
H18 C12 1_555 1_555
C13 C4 1_555 1_555
H19 C13 1_555 1_555
H20 C13 1_555 1_555
H21 C13 1_555 1_555
C14 C6 1_555 1_555
H22 C14 1_555 1_555
H23 C14 1_555 1_555
H24 C14 1_555 1_555
C3 N2 1_555 1_555
N2 B2 1_555 1_555
N3 N4 1_555 1_555
C6 N4 1_555 1_555

#END
