
#######################################################################
#
#                 Cambridge Crystallographic Data Centre
#                                CCDC 
#
#######################################################################
#
# If this CIF has been generated from an entry in the Cambridge 
# Structural Database, then it will include bibliographic, chemical, 
# crystal, experimental, refinement or atomic coordinate data resulting 
# from the CCDC's data processing and validation procedures.
#
#######################################################################

data_TABVAW
_chemical_formula_moiety         'C20 H31 N3 O2'
_chemical_name_systematic        
2-(diisobutylamino)-1-(5-(2-hydroxyphenyl)-3-methyl-4,5-dihydro-1H-pyrazol-1-yl)ethanone
_chemical_properties_biological  'antiproliferative activity'
_symmetry_cell_setting           triclinic
_symmetry_space_group_name_H-M   'P -1'
_symmetry_Int_Tables_number      2
_space_group_name_Hall           '-P 1'
loop_
_symmetry_equiv_pos_site_id
_symmetry_equiv_pos_as_xyz
1 x,y,z
2 -x,-y,-z
_cell_length_a                   8.033(8)
_cell_length_b                   11.970(12)
_cell_length_c                   12.059(13)
_cell_angle_alpha                109.798(8)
_cell_angle_beta                 101.361(9)
_cell_angle_gamma                100.509(9)
_cell_volume                     1029.88
_exptl_crystal_colour            colorless
_exptl_crystal_description       block
_chemical_melting_point          '172-173 deg.C'
_cell_formula_units_Z            2
loop_
_atom_site_label
_atom_site_type_symbol
_atom_site_fract_x
_atom_site_fract_y
_atom_site_fract_z
C1 C 0.0225(3) -0.1436(2) 0.3761(2)
C2 C -0.1285(4) -0.2413(3) 0.3283(3)
H1 H -0.1690 -0.2771 0.3789
C3 C -0.2181(4) -0.2851(3) 0.2060(3)
H2 H -0.3199 -0.3502 0.1745
C4 C -0.1600(4) -0.2346(3) 0.1301(3)
H3 H -0.2199 -0.2663 0.0471
C5 C -0.0120(4) -0.1363(3) 0.1778(3)
H4 H 0.0269 -0.1011 0.1264
C6 C 0.0804(3) -0.0888(2) 0.3010(2)
C7 C 0.2446(3) 0.0175(2) 0.3540(2)
H5 H 0.2599 0.0632 0.4414
C8 C 0.4123(4) -0.0202(3) 0.3351(3)
H6 H 0.5084 0.0194 0.4103
H7 H 0.3924 -0.1089 0.3073
C9 C 0.4505(4) 0.0242(3) 0.2385(3)
C10 C 0.1427(4) 0.1820(2) 0.2981(2)
C11 C 0.1582(4) 0.2593(3) 0.2208(3)
H8 H 0.2826 0.2929 0.2319
H9 H 0.1069 0.2047 0.1351
C12 C 0.1599(5) 0.4602(3) 0.3630(3)
H10 H 0.0692 0.4980 0.3880
H11 H 0.2012 0.4261 0.4222
C13 C 0.3034(7) 0.5554(4) 0.3715(4)
H12 H 0.3986 0.5145 0.3686
C14 C 0.3745(7) 0.6593(4) 0.4973(4)
H13 H 0.2955 0.7108 0.5081
H14 H 0.4885 0.7074 0.5043
H15 H 0.3846 0.6254 0.5592
C15 C 0.3013(7) 0.5960(4) 0.2714(5)
H16 H 0.2692 0.5255 0.1954
H17 H 0.4164 0.6463 0.2836
H18 H 0.2170 0.6431 0.2687
C16 C -0.1144(4) 0.3203(4) 0.2139(4)
H19 H -0.1542 0.2330 0.1623
H20 H -0.1482 0.3308 0.2889
C17 C -0.2076(5) 0.3858(4) 0.1506(4)
H21 H -0.1605 0.4736 0.2033
C18 C -0.1760(7) 0.3723(6) 0.0312(4)
H22 H -0.0520 0.4018 0.0423
H23 H -0.2384 0.4194 -0.0033
H24 H -0.2170 0.2870 -0.0233
C19 C -0.4017(5) 0.3542(5) 0.1405(5)
H25 H -0.4525 0.2672 0.0954
H26 H -0.4584 0.3983 0.0984
H27 H -0.4180 0.3771 0.2212
C20 C 0.5911(5) -0.0033(3) 0.1783(3)
H28 H 0.5897 0.0322 0.1177
H29 H 0.5705 -0.0909 0.1394
H30 H 0.7038 0.0313 0.2388
N1 N 0.2397(3) 0.1013(2) 0.2878(2)
N2 N 0.3562(3) 0.0918(2) 0.2142(2)
N3 N 0.0781(3) 0.3587(2) 0.2452(2)
O1 O 0.1195(3) -0.09774(19) 0.49554(18)
H31 H 0.0640 -0.1259 0.5348
O2 O 0.0465(3) 0.19220(19) 0.36670(19)
loop_
_geom_bond_atom_site_label_1
_geom_bond_atom_site_label_2
_geom_bond_site_symmetry_1
_geom_bond_site_symmetry_2
C1 C2 1_555 1_555
C2 H1 1_555 1_555
C3 C2 1_555 1_555
H2 C3 1_555 1_555
C4 C3 1_555 1_555
H3 C4 1_555 1_555
C5 C4 1_555 1_555
H4 C5 1_555 1_555
C6 C1 1_555 1_555
C7 C6 1_555 1_555
H5 C7 1_555 1_555
C8 C7 1_555 1_555
H6 C8 1_555 1_555
H7 C8 1_555 1_555
C9 C8 1_555 1_555
C10 C11 1_555 1_555
C11 H8 1_555 1_555
H9 C11 1_555 1_555
C12 H10 1_555 1_555
H11 C12 1_555 1_555
C13 C12 1_555 1_555
H12 C13 1_555 1_555
C14 C13 1_555 1_555
H13 C14 1_555 1_555
H14 C14 1_555 1_555
H15 C14 1_555 1_555
C15 C13 1_555 1_555
H16 C15 1_555 1_555
H17 C15 1_555 1_555
H18 C15 1_555 1_555
C16 H19 1_555 1_555
H20 C16 1_555 1_555
C17 C16 1_555 1_555
H21 C17 1_555 1_555
C18 C17 1_555 1_555
H22 C18 1_555 1_555
H23 C18 1_555 1_555
H24 C18 1_555 1_555
C19 C17 1_555 1_555
H25 C19 1_555 1_555
H26 C19 1_555 1_555
H27 C19 1_555 1_555
C20 C9 1_555 1_555
H28 C20 1_555 1_555
H29 C20 1_555 1_555
H30 C20 1_555 1_555
N1 C7 1_555 1_555
N2 C9 1_555 1_555
N3 C11 1_555 1_555
O1 C1 1_555 1_555
H31 O1 1_555 1_555
O2 C10 1_555 1_555
C5 C6 1_555 1_555
C10 N1 1_555 1_555
C12 N3 1_555 1_555
C16 N3 1_555 1_555
N1 N2 1_555 1_555

#END
