
#######################################################################
#
#                 Cambridge Crystallographic Data Centre
#                                CCDC 
#
#######################################################################
#
# If this CIF has been generated from an entry in the Cambridge 
# Structural Database, then it will include bibliographic, chemical, 
# crystal, experimental, refinement or atomic coordinate data resulting 
# from the CCDC's data processing and validation procedures.
#
#######################################################################

data_TABVOI
_chemical_formula_moiety         'C16 H12 O4'
_chemical_name_systematic        'Diphenyl fumarate'
_symmetry_cell_setting           monoclinic
_symmetry_space_group_name_H-M   'P 21/c'
_symmetry_Int_Tables_number      14
_space_group_name_Hall           '-P 2ybc'
loop_
_symmetry_equiv_pos_site_id
_symmetry_equiv_pos_as_xyz
1 x,y,z
2 x,1/2-y,1/2+z
3 -x,-y,-z
4 -x,1/2+y,1/2-z
_cell_length_a                   10.8898(4)
_cell_length_b                   7.7762(3)
_cell_length_c                   16.3121(6)
_cell_angle_alpha                90
_cell_angle_beta                 106.639(2)
_cell_angle_gamma                90
_cell_volume                     1323.49
_exptl_crystal_colour            yellow
_exptl_crystal_description       needle
_cell_formula_units_Z            4
loop_
_atom_site_label
_atom_site_type_symbol
_atom_site_fract_x
_atom_site_fract_y
_atom_site_fract_z
C1 C 0.4164(1) -0.0256(2) 0.1022(1)
C2 C 0.5183(1) -0.1240(2) 0.0975(1)
C3 C 0.6323(1) -0.1106(2) 0.1609(1)
C4 C 0.6445(1) 0.0032(2) 0.2269(1)
C5 C 0.5420(2) 0.1029(2) 0.2302(1)
C6 C 0.4260(1) 0.0888(2) 0.1677(1)
C7 C 0.2064(1) -0.1340(2) 0.0493(1)
C8 C 0.0957(1) -0.1487(2) -0.0280(1)
C9 C 0.0897(1) -0.0815(2) -0.1025(1)
C10 C -0.0258(1) -0.1049(2) -0.1762(1)
C11 C -0.1136(1) -0.0183(2) -0.3202(1)
C12 C -0.2271(1) 0.0631(2) -0.3235(1)
C13 C -0.3209(1) 0.0702(2) -0.4011(1)
C14 C -0.3008(1) -0.0030(2) -0.4727(1)
C15 C -0.1863(2) -0.0828(2) -0.4680(1)
C16 C -0.0913(1) -0.0910(2) -0.3907(1)
O1 O 0.3007(1) -0.0384(1) 0.0351(1)
O2 O 0.2108(1) -0.2002(2) 0.1160(1)
O3 O -0.0117(1) -0.0182(1) -0.2440(1)
O4 O -0.1179(1) -0.1885(1) -0.1763(1)
H1 H 0.5101(14) -0.1980(2) 0.0530(10)
H2 H 0.6964(14) -0.1770(2) 0.1587(9)
H3 H 0.7213(15) 0.0110(2) 0.2699(10)
H4 H 0.5501(14) 0.1800(2) 0.2740(10)
H5 H 0.3566(14) 0.1550(2) 0.1712(9)
H6 H 0.0236(11) -0.2136(17) -0.0179(8)
H7 H 0.1632(11) -0.0215(17) -0.1103(8)
H8 H -0.2405(13) 0.1160(2) -0.2752(9)
H9 H -0.4002(14) 0.1246(19) -0.4022(9)
H10 H -0.3611(13) 0.0037(19) -0.5265(10)
H11 H -0.1710(14) -0.1360(2) -0.5187(10)
H12 H -0.0109(14) -0.1440(2) -0.3857(9)
loop_
_geom_bond_atom_site_label_1
_geom_bond_atom_site_label_2
_geom_bond_site_symmetry_1
_geom_bond_site_symmetry_2
C1 C2 1_555 1_555
C2 C3 1_555 1_555
C3 C4 1_555 1_555
C4 C5 1_555 1_555
C5 C6 1_555 1_555
C6 C1 1_555 1_555
C7 C8 1_555 1_555
C8 C9 1_555 1_555
C9 C10 1_555 1_555
C10 O3 1_555 1_555
C11 C12 1_555 1_555
C12 C13 1_555 1_555
C13 C14 1_555 1_555
C14 C15 1_555 1_555
C15 C16 1_555 1_555
C16 C11 1_555 1_555
O1 C1 1_555 1_555
O2 C7 1_555 1_555
O3 C11 1_555 1_555
O4 C10 1_555 1_555
H1 C2 1_555 1_555
H2 C3 1_555 1_555
H3 C4 1_555 1_555
H4 C5 1_555 1_555
H5 C6 1_555 1_555
H6 C8 1_555 1_555
H7 C9 1_555 1_555
H8 C12 1_555 1_555
H9 C13 1_555 1_555
H10 C14 1_555 1_555
H11 C15 1_555 1_555
H12 C16 1_555 1_555
C7 O1 1_555 1_555

#END
