
#######################################################################
#
#                 Cambridge Crystallographic Data Centre
#                                CCDC 
#
#######################################################################
#
# If this CIF has been generated from an entry in the Cambridge 
# Structural Database, then it will include bibliographic, chemical, 
# crystal, experimental, refinement or atomic coordinate data resulting 
# from the CCDC's data processing and validation procedures.
#
#######################################################################

data_TABVUQ
_chemical_formula_moiety         'C18 H15 Br2 Cl1 N2 O3'
_chemical_name_systematic        
2-(4-chlorophenoxy)-1-(5-(3,5-dibromo-2-hydroxyphenyl)-3-methyl-4,5-dihydro-1H-pyrazol-1-yl)ethanone
_chemical_properties_biological  'antiproliferative activity'
_symmetry_cell_setting           monoclinic
_symmetry_space_group_name_H-M   'P 21/c'
_symmetry_Int_Tables_number      14
_space_group_name_Hall           '-P 2ybc'
loop_
_symmetry_equiv_pos_site_id
_symmetry_equiv_pos_as_xyz
1 x,y,z
2 -x,1/2+y,1/2-z
3 -x,-y,-z
4 x,1/2-y,1/2+z
_cell_length_a                   17.662(11)
_cell_length_b                   10.468(6)
_cell_length_c                   20.953(13)
_cell_angle_alpha                90
_cell_angle_beta                 92.215(7)
_cell_angle_gamma                90
_cell_volume                     3871.02
_exptl_crystal_colour            colorless
_exptl_crystal_description       block
_chemical_melting_point          '208-210 deg.C'
_cell_formula_units_Z            8
loop_
_atom_site_label
_atom_site_type_symbol
_atom_site_fract_x
_atom_site_fract_y
_atom_site_fract_z
Br1 Br 0.46351(4) 0.72361(6) 0.44115(3)
Cl1 Cl 0.34771(12) -0.45373(15) 0.06406(8)
N1 N 0.2549(2) 0.3405(4) 0.18692(18)
O1 O 0.45033(19) 0.2902(3) 0.20978(17)
C1 C 0.3148(3) -0.2054(6) 0.0781(3)
H1 H 0.2705 -0.2243 0.0545
C2 C 0.4193(3) 0.5787(5) 0.4011(2)
Br2 Br 0.35184(4) 0.22066(6) 0.45921(3)
O2 O 0.41097(17) 0.0628(3) 0.15959(16)
N2 N 0.3301(2) 0.3552(4) 0.20926(17)
C3 C 0.1389(3) 0.4634(6) 0.1770(3)
H2 H 0.1189 0.3848 0.1598
H3 H 0.1337 0.5294 0.1453
H4 H 0.1114 0.4871 0.2138
O3 O 0.41477(18) 0.6810(3) 0.29835(15)
H5 H 0.4595 0.7017 0.3020
C4 C 0.3553(3) 0.1590(5) 0.1551(2)
H6 H 0.3082 0.1280 0.1715
H7 H 0.3462 0.1836 0.1108
C5 C 0.4425(3) -0.1511(5) 0.1498(2)
H8 H 0.4859 -0.1340 0.1749
C6 C 0.4040(3) 0.4734(5) 0.4387(2)
H9 H 0.4156 0.4741 0.4823
C7 C 0.2208(3) 0.4463(6) 0.1957(2)
C8 C 0.4289(3) -0.2739(5) 0.1269(3)
H10 H 0.4638 -0.3386 0.1361
C9 C 0.2693(3) 0.5494(5) 0.2241(2)
H11 H 0.2482 0.5827 0.2628
H12 H 0.2753 0.6190 0.1941
C10 C 0.3669(2) 0.4730(5) 0.3089(2)
C11 C 0.3712(3) 0.3678(5) 0.4099(2)
C12 C 0.3524(2) 0.3666(5) 0.3458(2)
H13 H 0.3301 0.2945 0.3272
C13 C 0.3836(3) 0.2728(5) 0.1938(2)
C14 C 0.3654(4) -0.2996(5) 0.0916(3)
C15 C 0.4020(3) 0.5804(5) 0.3368(2)
C16 C 0.3278(3) -0.0811(5) 0.0988(2)
H14 H 0.2935 -0.0165 0.0881
C17 C 0.3918(3) -0.0552(5) 0.1351(2)
C18 C 0.3455(3) 0.4810(4) 0.2387(2)
H15 H 0.3859 0.5240 0.2162
Cl2 Cl 0.16220(11) -0.39871(16) -0.06686(8)
C19 C 0.0941(3) 0.5333(6) -0.4415(3)
H16 H 0.0819 0.5350 -0.4850
Br3 Br 0.02674(4) 0.77934(7) -0.43925(3)
C20 C 0.0752(4) -0.2189(6) -0.1259(3)
H17 H 0.0392 -0.2831 -0.1318
Br4 Br 0.15871(4) 0.29155(8) -0.46520(3)
N3 N 0.2479(2) 0.3950(4) -0.19334(18)
N4 N 0.1721(2) 0.4094(4) -0.21367(17)
O4 O 0.05248(19) 0.3440(3) -0.21330(17)
O5 O 0.09281(18) 0.1145(3) -0.16411(17)
O6 O 0.08137(18) 0.7342(3) -0.29847(17)
H18 H 0.0364 0.7538 -0.3019
C21 C 0.1960(3) -0.1520(6) -0.0851(2)
H19 H 0.2424 -0.1705 -0.0645
C22 C 0.2336(3) 0.6046(4) -0.2289(2)
H20 H 0.2533 0.6372 -0.2683
H21 H 0.2293 0.6744 -0.1988
C23 C 0.1801(3) -0.0295(6) -0.1067(2)
H22 H 0.2153 0.0354 -0.0994
C24 C 0.1331(3) 0.5302(5) -0.3112(2)
C25 C 0.1428(4) -0.2448(6) -0.0943(3)
C26 C 0.0604(3) -0.0978(6) -0.1490(3)
H23 H 0.0150 -0.0805 -0.1713
C27 C 0.3638(3) 0.5160(5) -0.1846(3)
H24 H 0.3837 0.4373 -0.1675
H25 H 0.3700 0.5822 -0.1531
H26 H 0.3904 0.5389 -0.2220
C28 C 0.1508(3) 0.4288(5) -0.3495(2)
H27 H 0.1764 0.3588 -0.3319
C29 C 0.0951(3) 0.6351(5) -0.3382(3)
C30 C 0.1128(3) -0.0033(5) -0.1390(2)
C31 C 0.1309(3) 0.4300(5) -0.4142(3)
C32 C 0.0759(3) 0.6346(6) -0.4027(3)
C33 C 0.1191(3) 0.3246(5) -0.1983(2)
C34 C 0.1490(3) 0.2110(5) -0.1616(2)
H28 H 0.1950 0.1799 -0.1801
H29 H 0.1608 0.2347 -0.1175
C35 C 0.2821(3) 0.5000(5) -0.2018(2)
C36 C 0.1563(3) 0.5371(5) -0.2413(2)
H30 H 0.1170 0.5801 -0.2175
loop_
_geom_bond_atom_site_label_1
_geom_bond_atom_site_label_2
_geom_bond_site_symmetry_1
_geom_bond_site_symmetry_2
Br1 C2 1_555 1_555
Cl1 C14 1_555 1_555
N1 N2 1_555 1_555
O1 C13 1_555 1_555
C1 H1 1_555 1_555
C2 C6 1_555 1_555
Br2 C11 1_555 1_555
O2 C4 1_555 1_555
N2 C13 1_555 1_555
C3 H2 1_555 1_555
H3 C3 1_555 1_555
H4 C3 1_555 1_555
O3 H5 1_555 1_555
C4 H6 1_555 1_555
H7 C4 1_555 1_555
C5 H8 1_555 1_555
C6 H9 1_555 1_555
C7 N1 1_555 1_555
C8 C5 1_555 1_555
H10 C8 1_555 1_555
C9 C7 1_555 1_555
H11 C9 1_555 1_555
H12 C9 1_555 1_555
C10 C12 1_555 1_555
C11 C6 1_555 1_555
C12 C11 1_555 1_555
H13 C12 1_555 1_555
C13 C4 1_555 1_555
C14 C1 1_555 1_555
C15 C2 1_555 1_555
C16 C1 1_555 1_555
H14 C16 1_555 1_555
C17 O2 1_555 1_555
C18 N2 1_555 1_555
H15 C18 1_555 1_555
Cl2 C25 1_555 1_555
C19 H16 1_555 1_555
Br3 C32 1_555 1_555
C20 H17 1_555 1_555
Br4 C31 1_555 1_555
N3 N4 1_555 1_555
N4 C33 1_555 1_555
O4 C33 1_555 1_555
O5 C30 1_555 1_555
O6 H18 1_555 1_555
C21 H19 1_555 1_555
C22 H20 1_555 1_555
H21 C22 1_555 1_555
C23 C21 1_555 1_555
H22 C23 1_555 1_555
C24 C28 1_555 1_555
C25 C20 1_555 1_555
C26 C20 1_555 1_555
H23 C26 1_555 1_555
C27 H24 1_555 1_555
H25 C27 1_555 1_555
H26 C27 1_555 1_555
C28 H27 1_555 1_555
C29 O6 1_555 1_555
C30 C23 1_555 1_555
C31 C19 1_555 1_555
C32 C19 1_555 1_555
C33 C34 1_555 1_555
C34 O5 1_555 1_555
H28 C34 1_555 1_555
H29 C34 1_555 1_555
C35 N3 1_555 1_555
C36 N4 1_555 1_555
H30 C36 1_555 1_555
C3 C7 1_555 1_555
O3 C15 1_555 1_555
C5 C17 1_555 1_555
C8 C14 1_555 1_555
C9 C18 1_555 1_555
C10 C15 1_555 1_555
C10 C18 1_555 1_555
C16 C17 1_555 1_555
C21 C25 1_555 1_555
C22 C35 1_555 1_555
C22 C36 1_555 1_555
C24 C29 1_555 1_555
C24 C36 1_555 1_555
C26 C30 1_555 1_555
C27 C35 1_555 1_555
C28 C31 1_555 1_555
C29 C32 1_555 1_555

#END
