
#######################################################################
#
#                 Cambridge Crystallographic Data Centre
#                                CCDC 
#
#######################################################################
#
# If this CIF has been generated from an entry in the Cambridge 
# Structural Database, then it will include bibliographic, chemical, 
# crystal, experimental, refinement or atomic coordinate data resulting 
# from the CCDC's data processing and validation procedures.
#
#######################################################################

data_TABWIF
_chemical_formula_moiety         'C17 H17 Br1 N2 O3 S1'
_chemical_name_systematic        
4-bromo-2-(3-methyl-1-((4-methylphenyl)sulfonyl)-4,5-dihydro-1H-pyrazol-5-yl)phenol
_chemical_properties_biological  'antiproliferative activity'
_symmetry_cell_setting           monoclinic
_symmetry_space_group_name_H-M   'P 21/c'
_symmetry_Int_Tables_number      14
_space_group_name_Hall           '-P 2ybc'
loop_
_symmetry_equiv_pos_site_id
_symmetry_equiv_pos_as_xyz
1 x,y,z
2 -x,1/2+y,1/2-z
3 -x,-y,-z
4 x,1/2-y,1/2+z
_cell_length_a                   5.683(6)
_cell_length_b                   26.86(3)
_cell_length_c                   11.688(12)
_cell_angle_alpha                90
_cell_angle_beta                 102.509(15)
_cell_angle_gamma                90
_cell_volume                     1741.77
_exptl_crystal_colour            colorless
_exptl_crystal_description       block
_chemical_melting_point          '184-186 deg.C'
_cell_formula_units_Z            4
loop_
_atom_site_label
_atom_site_type_symbol
_atom_site_fract_x
_atom_site_fract_y
_atom_site_fract_z
Br1 Br 0.3120(3) 0.50382(4) 0.34996(9)
S1 S 0.3613(3) 0.65439(7) 0.78886(14)
N1 N 0.0482(10) 0.72289(19) 0.7135(4)
O1 O 0.4713(8) 0.61551(19) 0.7354(4)
O2 O 0.1367(8) 0.72023(17) 0.4291(4)
H1 H 0.0764 0.7240 0.4862
N2 N 0.1778(9) 0.68211(19) 0.6782(4)
O3 O 0.5016(8) 0.69340(18) 0.8529(4)
C1 C 0.1205(13) 0.6554(3) 0.9639(5)
H2 H 0.1753 0.6879 0.9780
C2 C 0.0087(11) 0.6508(2) 0.5899(5)
H3 H -0.0288 0.6204 0.6290
C3 C 0.1162(11) 0.6361(3) 0.4890(5)
C4 C 0.2742(12) 0.6566(3) 0.3206(5)
H4 H 0.3141 0.6805 0.2705
C5 C -0.1622(13) 0.7235(3) 0.6476(6)
C6 C -0.3354(11) 0.7652(3) 0.6543(6)
H5 H -0.2648 0.7876 0.7164
H6 H -0.4822 0.7518 0.6694
H7 H -0.3698 0.7830 0.5812
C7 C 0.1731(11) 0.6705(3) 0.4133(5)
C8 C 0.1013(14) 0.5789(3) 0.8574(6)
H8 H 0.1456 0.5597 0.7992
C9 C -0.2772(15) 0.5644(3) 1.0825(8)
H9 H -0.3206 0.5310 1.0569
H10 H -0.4201 0.5844 1.0735
H11 H -0.1954 0.5639 1.1635
C10 C -0.2161(11) 0.6828(3) 0.5615(6)
H12 H -0.2430 0.6955 0.4821
H13 H -0.3571 0.6642 0.5708
C11 C 0.1851(11) 0.6274(2) 0.8769(5)
C12 C -0.0263(14) 0.6343(3) 1.0295(6)
H14 H -0.0689 0.6530 1.0889
C13 C 0.1619(13) 0.5859(3) 0.4691(6)
H15 H 0.1269 0.5618 0.5200
C14 C -0.0458(13) 0.5595(3) 0.9239(6)
H16 H -0.1016 0.5271 0.9097
C15 C 0.2568(15) 0.5719(3) 0.3767(7)
C16 C 0.3152(14) 0.6068(4) 0.3034(6)
H17 H 0.3830 0.5970 0.2413
C17 C -0.1137(13) 0.5860(3) 1.0102(6)
loop_
_geom_bond_atom_site_label_1
_geom_bond_atom_site_label_2
_geom_bond_site_symmetry_1
_geom_bond_site_symmetry_2
Br1 C15 1_555 1_555
S1 O1 1_555 1_555
N1 N2 1_555 1_555
O2 H1 1_555 1_555
N2 S1 1_555 1_555
O3 S1 1_555 1_555
C1 H2 1_555 1_555
C2 N2 1_555 1_555
H3 C2 1_555 1_555
C3 C2 1_555 1_555
C4 H4 1_555 1_555
C5 N1 1_555 1_555
C6 C5 1_555 1_555
H5 C6 1_555 1_555
H6 C6 1_555 1_555
H7 C6 1_555 1_555
C7 O2 1_555 1_555
C8 H8 1_555 1_555
C9 H9 1_555 1_555
H10 C9 1_555 1_555
H11 C9 1_555 1_555
C10 C2 1_555 1_555
H12 C10 1_555 1_555
H13 C10 1_555 1_555
C11 S1 1_555 1_555
C12 C1 1_555 1_555
H14 C12 1_555 1_555
C13 C3 1_555 1_555
H15 C13 1_555 1_555
C14 C8 1_555 1_555
H16 C14 1_555 1_555
C15 C13 1_555 1_555
C16 C4 1_555 1_555
H17 C16 1_555 1_555
C17 C9 1_555 1_555
C1 C11 1_555 1_555
C3 C7 1_555 1_555
C4 C7 1_555 1_555
C5 C10 1_555 1_555
C8 C11 1_555 1_555
C12 C17 1_555 1_555
C14 C17 1_555 1_555
C15 C16 1_555 1_555

#END
