
#######################################################################
#
#                 Cambridge Crystallographic Data Centre
#                                CCDC 
#
#######################################################################
#
# If this CIF has been generated from an entry in the Cambridge 
# Structural Database, then it will include bibliographic, chemical, 
# crystal, experimental, refinement or atomic coordinate data resulting 
# from the CCDC's data processing and validation procedures.
#
#######################################################################

data_TABWOL
_chemical_formula_moiety         'C24 H25 N3 O3'
_chemical_name_systematic        
3-(1-((isobutylamino)acetyl)-5-phenyl-4,5-dihydro-1H-pyrazol-3-yl)-2H-chromen-2-one
_chemical_properties_biological  'antiproliferative activity'
_symmetry_cell_setting           monoclinic
_symmetry_space_group_name_H-M   'P 21/c'
_symmetry_Int_Tables_number      14
_space_group_name_Hall           '-P 2ybc'
loop_
_symmetry_equiv_pos_site_id
_symmetry_equiv_pos_as_xyz
1 x,y,z
2 -x,1/2+y,1/2-z
3 -x,-y,-z
4 x,1/2-y,1/2+z
_cell_length_a                   5.785(2)
_cell_length_b                   17.723(7)
_cell_length_c                   21.573(8)
_cell_angle_alpha                90
_cell_angle_beta                 102.149(9)
_cell_angle_gamma                90
_cell_volume                     2162.29
_exptl_crystal_colour            colorless
_exptl_crystal_description       block
_chemical_melting_point          '214-216 deg.C'
_cell_formula_units_Z            4
loop_
_atom_site_label
_atom_site_type_symbol
_atom_site_fract_x
_atom_site_fract_y
_atom_site_fract_z
O1 O 0.5222(6) -0.16199(19) -0.26822(14)
O2 O -0.5676(5) -0.08234(18) -0.46849(13)
O3 O -0.7491(5) 0.01642(17) -0.43976(12)
N1 N 0.5669(7) -0.0732(2) -0.15932(17)
H1 H 0.7080 -0.0554 -0.1536
N2 N 0.1622(6) -0.1177(2) -0.31045(15)
N3 N -0.0079(6) -0.06118(19) -0.31241(14)
C1 C -0.0595(9) -0.3549(3) -0.3115(2)
H2 H -0.1714 -0.3737 -0.2902
C2 C 0.4922(9) -0.1221(3) -0.1153(2)
H3 H 0.4437 -0.1698 -0.1360
H4 H 0.3554 -0.1001 -0.1027
C3 C 0.0896(9) -0.4037(3) -0.3314(2)
H5 H 0.0796 -0.4553 -0.3245
C4 C -0.0509(8) -0.2780(3) -0.32166(19)
H6 H -0.1550 -0.2459 -0.3071
C5 C 0.2656(8) -0.2983(3) -0.3731(2)
H7 H 0.3779 -0.2796 -0.3942
C6 C 0.2545(9) -0.3755(3) -0.3617(2)
H8 H 0.3608 -0.4080 -0.3749
C7 C -0.9681(8) 0.1867(3) -0.3813(2)
H9 H -1.1041 0.2161 -0.3898
C8 C 0.1105(7) -0.2495(2) -0.35315(16)
C9 C 0.3634(9) -0.1169(3) -0.2654(2)
C10 C -0.7805(9) 0.2072(3) -0.3325(2)
H10 H -0.7900 0.2507 -0.3090
C11 C -0.1153(8) -0.1336(3) -0.40459(19)
H11 H -0.1003 -0.1165 -0.4463
H12 H -0.2409 -0.1708 -0.4094
C12 C -0.9545(8) 0.1236(3) -0.4170(2)
H13 H -1.0785 0.1107 -0.4502
C13 C 0.1204(8) -0.1667(2) -0.36753(18)
H14 H 0.2444 -0.1577 -0.3914
C14 C -0.5823(9) 0.1631(3) -0.3191(2)
H15 H -0.4574 0.1767 -0.2864
C15 C 0.3882(8) -0.0566(3) -0.2145(2)
H16 H 0.4256 -0.0089 -0.2321
H17 H 0.2377 -0.0507 -0.2019
C16 C -0.1632(7) -0.0685(2) -0.36446(17)
C17 C -0.5576(8) -0.0306(3) -0.43107(18)
C18 C -0.5650(7) 0.0976(2) -0.35417(16)
C19 C -0.3615(7) -0.0160(2) -0.37769(16)
C20 C -0.7550(8) 0.0798(3) -0.40292(18)
C21 C -0.3686(7) 0.0468(2) -0.34319(17)
H18 H -0.2397 0.0577 -0.3107
C22 C 0.6819(14) -0.1369(4) -0.0562(3)
H19 H 0.8180 -0.1578 -0.0708
C23 C 0.5959(14) -0.1991(5) -0.0167(3)
H20 H 0.7166 -0.2095 0.0202
H21 H 0.5625 -0.2441 -0.0417
H22 H 0.4550 -0.1825 -0.0039
C24 C 0.762(2) -0.0738(5) -0.0212(4)
H23 H 0.7432 -0.0305 -0.0485
H24 H 0.9262 -0.0801 -0.0019
H25 H 0.6728 -0.0668 0.0112
loop_
_geom_bond_atom_site_label_1
_geom_bond_atom_site_label_2
_geom_bond_site_symmetry_1
_geom_bond_site_symmetry_2
O1 C9 1_555 1_555
O2 C17 1_555 1_555
O3 C17 1_555 1_555
N1 H1 1_555 1_555
N2 N3 1_555 1_555
N3 C16 1_555 1_555
C1 H2 1_555 1_555
C2 N1 1_555 1_555
H3 C2 1_555 1_555
H4 C2 1_555 1_555
C3 C1 1_555 1_555
H5 C3 1_555 1_555
C4 C1 1_555 1_555
H6 C4 1_555 1_555
C5 H7 1_555 1_555
C6 C3 1_555 1_555
H8 C6 1_555 1_555
C7 H9 1_555 1_555
C8 C4 1_555 1_555
C9 N2 1_555 1_555
C10 C7 1_555 1_555
H10 C10 1_555 1_555
C11 H11 1_555 1_555
H12 C11 1_555 1_555
C12 C7 1_555 1_555
H13 C12 1_555 1_555
C13 N2 1_555 1_555
H14 C13 1_555 1_555
C14 C10 1_555 1_555
H15 C14 1_555 1_555
C15 N1 1_555 1_555
H16 C15 1_555 1_555
H17 C15 1_555 1_555
C16 C11 1_555 1_555
C17 C19 1_555 1_555
C18 C14 1_555 1_555
C19 C16 1_555 1_555
C20 O3 1_555 1_555
C21 C18 1_555 1_555
H18 C21 1_555 1_555
C22 C2 1_555 1_555
H19 C22 1_555 1_555
C23 C22 1_555 1_555
H20 C23 1_555 1_555
H21 C23 1_555 1_555
H22 C23 1_555 1_555
C24 C22 1_555 1_555
H23 C24 1_555 1_555
H24 C24 1_555 1_555
H25 C24 1_555 1_555
C5 C6 1_555 1_555
C5 C8 1_555 1_555
C8 C13 1_555 1_555
C9 C15 1_555 1_555
C11 C13 1_555 1_555
C12 C20 1_555 1_555
C18 C20 1_555 1_555
C19 C21 1_555 1_555

#END
