
#######################################################################
#
#                 Cambridge Crystallographic Data Centre
#                                CCDC 
#
#######################################################################
#
# If this CIF has been generated from an entry in the Cambridge 
# Structural Database, then it will include bibliographic, chemical, 
# crystal, experimental, refinement or atomic coordinate data resulting 
# from the CCDC's data processing and validation procedures.
#
#######################################################################

data_TABWAX
_chemical_formula_moiety         'C17 H22 Cl1 N3 O2'
_chemical_name_systematic        
2-(4-chloropiperidin-1-yl)-1-(5-(2-hydroxyphenyl)-3-methyl-4,5-dihydro-1H-pyrazol-1-yl)ethanone
_chemical_properties_biological  'antiproliferative activity'
_symmetry_cell_setting           orthorhombic
_symmetry_space_group_name_H-M   'P n a 21'
_symmetry_Int_Tables_number      33
_space_group_name_Hall           'P 2c -2n'
loop_
_symmetry_equiv_pos_site_id
_symmetry_equiv_pos_as_xyz
1 x,y,z
2 -x,-y,1/2+z
3 1/2+x,1/2-y,z
4 1/2-x,1/2+y,1/2+z
_cell_length_a                   20.577(9)
_cell_length_b                   7.517(4)
_cell_length_c                   11.070(5)
_cell_angle_alpha                90
_cell_angle_beta                 90
_cell_angle_gamma                90
_cell_volume                     1712.28
_exptl_crystal_colour            colorless
_exptl_crystal_description       block
_chemical_melting_point          '220-222 deg.C'
_cell_formula_units_Z            4
loop_
_atom_site_label
_atom_site_type_symbol
_atom_site_fract_x
_atom_site_fract_y
_atom_site_fract_z
Cl1 Cl 0.84945(6) 0.24950(16) 0.24722(12)
O1 O 0.61875(12) -0.9278(3) 0.2035(2)
N1 N 0.70791(12) -0.1828(3) 0.1388(2)
C1 C 0.7715(2) 0.0825(5) 0.0846(3)
H1 H 0.7951 0.1388 0.0191
H2 H 0.7378 0.1637 0.1114
N2 N 0.60233(13) -0.6265(3) 0.0233(2)
O2 O 0.60975(12) -0.3375(3) 0.2711(2)
C2 C 0.74092(18) -0.0876(5) 0.0401(3)
H3 H 0.7098 -0.0604 -0.0229
H4 H 0.7743 -0.1635 0.0057
N3 N 0.59140(13) -0.5528(3) 0.1369(2)
C3 C 0.78439(17) -0.0583(5) 0.2851(3)
H5 H 0.7508 0.0141 0.3222
H6 H 0.8159 -0.0893 0.3468
C4 C 0.81690(17) 0.0445(5) 0.1867(3)
H7 H 0.8531 -0.0268 0.1556
C5 C 0.75461(16) -0.2253(4) 0.2334(4)
H8 H 0.7886 -0.3003 0.2005
H9 H 0.7330 -0.2909 0.2973
C6 C 0.67598(18) -0.3415(4) 0.0916(3)
H10 H 0.7081 -0.4344 0.0800
H11 H 0.6569 -0.3145 0.0137
C7 C 0.62377(17) -0.4077(4) 0.1757(3)
C8 C 0.50825(16) -0.7532(4) 0.1019(4)
H12 H 0.5040 -0.8753 0.1292
H13 H 0.4661 -0.7106 0.0754
C9 C 0.55744(17) -0.7387(4) 0.0030(3)
C10 C 0.5543(2) -0.8445(5) -0.1089(4)
H14 H 0.5905 -0.8151 -0.1597
H15 H 0.5145 -0.8186 -0.1507
H16 H 0.5557 -0.9688 -0.0892
C11 C 0.5484(2) -0.7572(5) 0.5313(4)
H17 H 0.5311 -0.7190 0.6044
C12 C 0.59064(18) -0.8988(5) 0.5285(3)
H18 H 0.6033 -0.9540 0.5999
C13 C 0.53189(19) -0.6725(5) 0.4264(3)
H19 H 0.5041 -0.5750 0.4296
C14 C 0.55535(15) -0.7280(4) 0.3157(3)
C15 C 0.61415(16) -0.9584(5) 0.4193(3)
H20 H 0.6419 -1.0560 0.4172
C16 C 0.53572(15) -0.6353(4) 0.2015(3)
H21 H 0.5039 -0.5426 0.2210
C17 C 0.59708(16) -0.8755(4) 0.3132(3)
loop_
_geom_bond_atom_site_label_1
_geom_bond_atom_site_label_2
_geom_bond_site_symmetry_1
_geom_bond_site_symmetry_2
Cl1 C4 1_555 1_555
O1 C17 1_555 1_555
N1 C2 1_555 1_555
C1 H1 1_555 1_555
H2 C1 1_555 1_555
N2 N3 1_555 1_555
O2 C7 1_555 1_555
C2 C1 1_555 1_555
H3 C2 1_555 1_555
H4 C2 1_555 1_555
N3 C7 1_555 1_555
C3 H5 1_555 1_555
H6 C3 1_555 1_555
C4 C1 1_555 1_555
H7 C4 1_555 1_555
C5 N1 1_555 1_555
H8 C5 1_555 1_555
H9 C5 1_555 1_555
C6 N1 1_555 1_555
H10 C6 1_555 1_555
H11 C6 1_555 1_555
C7 C6 1_555 1_555
C8 H12 1_555 1_555
H13 C8 1_555 1_555
C9 N2 1_555 1_555
C10 C9 1_555 1_555
H14 C10 1_555 1_555
H15 C10 1_555 1_555
H16 C10 1_555 1_555
C11 H17 1_555 1_555
C12 C11 1_555 1_555
H18 C12 1_555 1_555
C13 C11 1_555 1_555
H19 C13 1_555 1_555
C14 C13 1_555 1_555
C15 C12 1_555 1_555
H20 C15 1_555 1_555
C16 N3 1_555 1_555
H21 C16 1_555 1_555
C17 C14 1_555 1_555
C3 C4 1_555 1_555
C3 C5 1_555 1_555
C8 C9 1_555 1_555
C8 C16 1_555 1_555
C14 C16 1_555 1_555
C15 C17 1_555 1_555

#END
