
#######################################################################
#
#                 Cambridge Crystallographic Data Centre
#                                CCDC 
#
#######################################################################
#
# If this CIF has been generated from an entry in the Cambridge 
# Structural Database, then it will include bibliographic, chemical, 
# crystal, experimental, refinement or atomic coordinate data resulting 
# from the CCDC's data processing and validation procedures.
#
#######################################################################

data_TABXUS
_chemical_formula_moiety         'C12 H12 Br1 Cl1 N2 O2'
_chemical_name_systematic        
1-(5-(5-bromo-2-hydroxyphenyl)-3-methyl-4,5-dihydro-1H-pyrazol-1-yl)-2-chloroethanone
_chemical_properties_biological  'antiproliferative activity'
_symmetry_cell_setting           monoclinic
_symmetry_space_group_name_H-M   'P 21/c'
_symmetry_Int_Tables_number      14
_space_group_name_Hall           '-P 2ybc'
loop_
_symmetry_equiv_pos_site_id
_symmetry_equiv_pos_as_xyz
1 x,y,z
2 -x,1/2+y,1/2-z
3 -x,-y,-z
4 x,1/2-y,1/2+z
_cell_length_a                   10.879(3)
_cell_length_b                   8.932(2)
_cell_length_c                   13.687(3)
_cell_angle_alpha                90
_cell_angle_beta                 92.371(2)
_cell_angle_gamma                90
_cell_volume                     1328.84
_exptl_crystal_colour            colorless
_exptl_crystal_description       block
_chemical_melting_point          '160-161 deg.C'
_cell_formula_units_Z            4
loop_
_atom_site_label
_atom_site_type_symbol
_atom_site_fract_x
_atom_site_fract_y
_atom_site_fract_z
Br1 Br 0.92671(3) 0.06713(6) 0.29644(3)
Cl1 Cl 0.17826(9) 0.11973(13) 0.47778(7)
O1 O 0.45942(19) 0.1322(3) 0.40744(15)
N1 N 0.2388(2) 0.0957(3) 0.21414(19)
O2 O 0.45315(19) 0.2215(3) 0.07730(15)
C1 C 0.7788(3) 0.1136(4) 0.2246(2)
C2 C 0.4455(2) -0.0042(3) 0.2224(2)
H1 H 0.4673 -0.0834 0.2695
N2 N 0.3531(2) 0.0959(3) 0.26610(17)
C3 C 0.3677(3) -0.0736(4) 0.1375(2)
H2 H 0.4039 -0.0540 0.0752
H3 H 0.3593 -0.1809 0.1459
C4 C 0.5622(3) 0.1845(3) 0.1229(2)
C5 C 0.3640(3) 0.1505(4) 0.3568(2)
C6 C 0.6714(3) 0.0419(4) 0.2468(2)
H4 H 0.6724 -0.0299 0.2960
C7 C 0.2464(3) 0.0032(4) 0.1438(2)
C8 C 0.1387(3) -0.0257(5) 0.0757(3)
H5 H 0.0715 0.0374 0.0928
H6 H 0.1146 -0.1287 0.0805
H7 H 0.1606 -0.0044 0.0099
C9 C 0.6709(3) 0.2558(4) 0.1008(2)
H8 H 0.6710 0.3271 0.0513
C10 C 0.7797(3) 0.2206(4) 0.1528(2)
H9 H 0.8525 0.2693 0.1389
C11 C 0.5614(2) 0.0760(3) 0.19618(19)
C12 C 0.2552(3) 0.2345(4) 0.3943(2)
H10 H 0.1993 0.2615 0.3401
H11 H 0.2829 0.3258 0.4266
loop_
_geom_bond_atom_site_label_1
_geom_bond_atom_site_label_2
_geom_bond_site_symmetry_1
_geom_bond_site_symmetry_2
Br1 C1 1_555 1_555
Cl1 C12 1_555 1_555
O1 C5 1_555 1_555
N1 N2 1_555 1_555
O2 C4 1_555 1_555
C1 C6 1_555 1_555
C2 H1 1_555 1_555
N2 C2 1_555 1_555
C3 C2 1_555 1_555
H2 C3 1_555 1_555
H3 C3 1_555 1_555
C4 C9 1_555 1_555
C5 N2 1_555 1_555
C6 H4 1_555 1_555
C7 N1 1_555 1_555
C8 C7 1_555 1_555
H5 C8 1_555 1_555
H6 C8 1_555 1_555
H7 C8 1_555 1_555
C9 H8 1_555 1_555
C10 C1 1_555 1_555
H9 C10 1_555 1_555
C11 C2 1_555 1_555
C12 C5 1_555 1_555
H10 C12 1_555 1_555
H11 C12 1_555 1_555
C3 C7 1_555 1_555
C4 C11 1_555 1_555
C6 C11 1_555 1_555
C9 C10 1_555 1_555

#END
