
#######################################################################
#
#                 Cambridge Crystallographic Data Centre
#                                CCDC 
#
#######################################################################
#
# If this CIF has been generated from an entry in the Cambridge 
# Structural Database, then it will include bibliographic, chemical, 
# crystal, experimental, refinement or atomic coordinate data resulting 
# from the CCDC's data processing and validation procedures.
#
#######################################################################

data_TABYIH
_chemical_formula_moiety         'C24 H18 N4 O2,2(C1 H4 O1)'
_chemical_name_systematic        
'2-(10-methoxy-7,12-dihydro-6H-indolo[2,3-a]quinolizin-5-ium-4-yl)-4-oxo-4H-quinazolin-3-ide methanol solvate'
_symmetry_cell_setting           monoclinic
_symmetry_space_group_name_H-M   'P 21/c'
_symmetry_Int_Tables_number      14
_space_group_name_Hall           '-P 2ybc'
loop_
_symmetry_equiv_pos_site_id
_symmetry_equiv_pos_as_xyz
1 x,y,z
2 -x,1/2+y,1/2-z
3 -x,-y,-z
4 x,1/2-y,1/2+z
_cell_length_a                   14.9175(2)
_cell_length_b                   7.04670(10)
_cell_length_c                   22.1982(3)
_cell_angle_alpha                90
_cell_angle_beta                 105.2390(10)
_cell_angle_gamma                90
_cell_volume                     2251.41
_exptl_crystal_colour            orange
_exptl_crystal_description       block
_cell_formula_units_Z            4
loop_
_atom_site_label
_atom_site_type_symbol
_atom_site_fract_x
_atom_site_fract_y
_atom_site_fract_z
N1 N 0.37212(7) 0.83231(14) 0.55683(5)
N2 N 0.55754(7) 0.70177(15) 0.48264(5)
H1 H 0.5363 0.7032 0.4417
N3 N 0.15539(7) 0.90222(15) 0.58994(5)
N4 N 0.29462(7) 1.07326(15) 0.64075(5)
O1 O 0.88739(6) 0.54937(15) 0.52096(4)
O2 O 0.30325(6) 1.25292(15) 0.72655(4)
C1 C 0.41250(9) 0.80424(16) 0.50869(6)
C2 C 0.42070(9) 0.75294(18) 0.61997(5)
H2 H 0.4086 0.6148 0.6200
H3 H 0.3940 0.8119 0.6518
C3 C 0.52501(9) 0.78579(18) 0.63814(6)
H4 H 0.5385 0.9216 0.6479
H5 H 0.5546 0.7104 0.6757
C4 C 0.73818(9) 0.63097(18) 0.62320(6)
H6 H 0.7439 0.6344 0.6668
C5 C 0.81317(9) 0.58700(19) 0.60108(6)
H7 H 0.8711 0.5588 0.6298
C6 C 0.80595(9) 0.58272(18) 0.53596(6)
C7 C 0.72247(9) 0.61446(17) 0.49234(6)
H8 H 0.7170 0.6072 0.4488
C8 C 0.50719(8) 0.74331(17) 0.52496(6)
C9 C 0.56294(8) 0.72736(17) 0.58495(6)
C10 C 0.65223(8) 0.67104(17) 0.58016(6)
C11 C 0.64619(8) 0.65797(17) 0.51546(6)
C12 C 0.36055(9) 0.83560(17) 0.44727(6)
H9 H 0.3888 0.8214 0.4139
C13 C 0.26882(9) 0.88679(18) 0.43515(6)
H10 H 0.2323 0.9004 0.3933
C14 C 0.22986(9) 0.91848(18) 0.48467(6)
H11 H 0.1666 0.9555 0.4767
C15 C 0.28271(8) 0.89635(17) 0.54543(6)
C16 C 0.88628(10) 0.5695(2) 0.45648(7)
H12 H 0.8473 0.4699 0.4320
H13 H 0.9497 0.5582 0.4521
H14 H 0.8610 0.6942 0.4413
C17 C 0.24153(8) 0.95736(17) 0.59706(6)
C18 C 0.25523(9) 1.15058(18) 0.68406(6)
C19 C 0.10819(9) 1.1880(2) 0.71827(6)
H15 H 0.1380 1.2775 0.7491
C20 C 0.01727(9) 1.1378(2) 0.71284(6)
H16 H -0.0156 1.1930 0.7397
C21 C -0.02691(9) 1.0053(2) 0.66770(7)
H17 H -0.0892 0.9691 0.6648
C22 C 0.01898(9) 0.9272(2) 0.62759(6)
H18 H -0.0118 0.8387 0.5968
C23 C 0.11197(9) 0.97853(18) 0.63210(6)
C24 C 0.15723(9) 1.10752(18) 0.67847(6)
O3 O 0.53797(7) 0.75976(15) 0.85609(4)
H19 H 0.5870 0.7081 0.8524
C25 C 0.47927(10) 0.7998(2) 0.79612(6)
H20 H 0.4259 0.8747 0.8004
H21 H 0.4573 0.6806 0.7745
H22 H 0.5140 0.8719 0.7719
O4 O 0.73336(8) 0.04906(15) 0.70591(5)
H23 H 0.7195 -0.0470 0.7240
C26 C 0.77535(12) 0.1860(2) 0.75074(8)
H24 H 0.7306 0.2287 0.7732
H25 H 0.7953 0.2944 0.7298
H26 H 0.8294 0.1300 0.7804
loop_
_geom_bond_atom_site_label_1
_geom_bond_atom_site_label_2
_geom_bond_site_symmetry_1
_geom_bond_site_symmetry_2
N1 C1 1_555 1_555
N2 H1 1_555 1_555
N3 C17 1_555 1_555
N4 C17 1_555 1_555
O1 C6 1_555 1_555
O2 C18 1_555 1_555
C1 C8 1_555 1_555
C2 N1 1_555 1_555
H2 C2 1_555 1_555
H3 C2 1_555 1_555
C3 C2 1_555 1_555
H4 C3 1_555 1_555
H5 C3 1_555 1_555
C4 H6 1_555 1_555
C5 C4 1_555 1_555
H7 C5 1_555 1_555
C6 C5 1_555 1_555
C7 C6 1_555 1_555
H8 C7 1_555 1_555
C8 N2 1_555 1_555
C9 C3 1_555 1_555
C10 C4 1_555 1_555
C11 N2 1_555 1_555
C12 C1 1_555 1_555
H9 C12 1_555 1_555
C13 C12 1_555 1_555
H10 C13 1_555 1_555
C14 C13 1_555 1_555
H11 C14 1_555 1_555
C15 N1 1_555 1_555
C16 O1 1_555 1_555
H12 C16 1_555 1_555
H13 C16 1_555 1_555
H14 C16 1_555 1_555
C17 C15 1_555 1_555
C18 N4 1_555 1_555
C19 H15 1_555 1_555
C20 C19 1_555 1_555
H16 C20 1_555 1_555
C21 C20 1_555 1_555
H17 C21 1_555 1_555
C22 C21 1_555 1_555
H18 C22 1_555 1_555
C23 N3 1_555 1_555
C24 C18 1_555 1_555
O3 H19 1_555 1_555
C25 O3 1_555 1_555
H20 C25 1_555 1_555
H21 C25 1_555 1_555
H22 C25 1_555 1_555
O4 H23 1_555 1_555
C26 O4 1_555 1_555
H24 C26 1_555 1_555
H25 C26 1_555 1_555
H26 C26 1_555 1_555
C7 C11 1_555 1_555
C8 C9 1_555 1_555
C9 C10 1_555 1_555
C10 C11 1_555 1_555
C14 C15 1_555 1_555
C19 C24 1_555 1_555
C22 C23 1_555 1_555
C23 C24 1_555 1_555

#END
