
#######################################################################
#
#                 Cambridge Crystallographic Data Centre
#                                CCDC 
#
#######################################################################
#
# If this CIF has been generated from an entry in the Cambridge 
# Structural Database, then it will include bibliographic, chemical, 
# crystal, experimental, refinement or atomic coordinate data resulting 
# from the CCDC's data processing and validation procedures.
#
#######################################################################

data_TABZOO
_chemical_formula_moiety         'C18 H17 Cl1 N2 O3'
_chemical_name_systematic        
2-(4-chlorophenoxy)-1-(5-(2-hydroxyphenyl)-3-methyl-4,5-dihydro-1H-pyrazol-1-yl)ethanone
_symmetry_cell_setting           triclinic
_symmetry_space_group_name_H-M   'P -1'
_symmetry_Int_Tables_number      2
_space_group_name_Hall           '-P 1'
loop_
_symmetry_equiv_pos_site_id
_symmetry_equiv_pos_as_xyz
1 x,y,z
2 -x,-y,-z
_cell_length_a                   8.060(6)
_cell_length_b                   9.590(7)
_cell_length_c                   11.308(8)
_cell_angle_alpha                91.756(7)
_cell_angle_beta                 107.241(6)
_cell_angle_gamma                90.843(7)
_cell_volume                     834.131
_exptl_crystal_colour            colorless
_exptl_crystal_description       block
_cell_formula_units_Z            2
loop_
_atom_site_label
_atom_site_type_symbol
_atom_site_fract_x
_atom_site_fract_y
_atom_site_fract_z
Cl1 Cl 0.48208(12) 0.31713(8) 0.54605(7)
O1 O 0.8862(2) 0.7847(2) 1.23712(16)
O2 O 0.7538(2) 0.63260(18) 1.02142(16)
N1 N 0.6372(3) 0.9016(2) 1.21048(18)
O3 O 0.8730(2) 1.11527(19) 1.54846(16)
N2 N 0.4634(3) 0.9176(2) 1.13770(19)
C1 C 0.7364(3) 0.8061(3) 1.1753(2)
C2 C 0.7220(4) 0.3825(3) 0.7674(3)
H1 H 0.7906 0.3151 0.7456
C3 C 0.8915(3) 1.1730(3) 1.4436(2)
C4 C 0.6821(3) 0.9853(3) 1.3283(2)
H2 H 0.7342 0.9263 1.3983
C5 C 0.6819(3) 0.5595(2) 0.9105(2)
C6 C 0.6429(3) 0.7313(3) 1.0537(2)
H3 H 0.5394 0.6838 1.0607
H4 H 0.6074 0.7985 0.9891
C7 C 0.8016(3) 1.1093(2) 1.3293(2)
C8 C 0.5587(4) 0.4088(3) 0.6885(2)
C9 C 0.5175(4) 0.5827(3) 0.8316(2)
H5 H 0.4478 0.6492 0.8533
C10 C 0.7815(3) 0.4570(3) 0.8781(3)
H6 H 0.8902 0.4384 0.9320
C11 C 0.4572(4) 0.5068(3) 0.7206(3)
H7 H 0.3470 0.5227 0.6676
C12 C 0.3883(3) 0.9901(3) 1.2032(2)
C13 C 0.5003(4) 1.0304(3) 1.3305(2)
H8 H 0.4635 0.9814 1.3926
H9 H 0.4983 1.1301 1.3469
C14 C 0.8180(4) 1.1668(3) 1.2220(3)
H10 H 0.7583 1.1255 1.1454
C15 C 0.9955(4) 1.2907(3) 1.4484(3)
H11 H 1.0555 1.3326 1.5247
C16 C 1.0106(4) 1.3458(3) 1.3413(4)
H12 H 1.0809 1.4246 1.3455
C17 C 0.9219(4) 1.2849(3) 1.2271(3)
H13 H 0.9318 1.3225 1.1546
C18 C 0.2012(4) 1.0255(4) 1.1546(3)
H14 H 0.1552 0.9896 1.0709
H15 H 0.1903 1.1250 1.1567
H16 H 0.1379 0.9846 1.2052
loop_
_geom_bond_atom_site_label_1
_geom_bond_atom_site_label_2
_geom_bond_site_symmetry_1
_geom_bond_site_symmetry_2
Cl1 C8 1_555 1_555
O1 C1 1_555 1_555
O2 C5 1_555 1_555
N1 N2 1_555 1_555
O3 C3 1_555 1_555
N2 C12 1_555 1_555
C1 N1 1_555 1_555
C2 H1 1_555 1_555
C3 C7 1_555 1_555
C4 N1 1_555 1_555
H2 C4 1_555 1_555
C5 C9 1_555 1_555
C6 O2 1_555 1_555
H3 C6 1_555 1_555
H4 C6 1_555 1_555
C7 C4 1_555 1_555
C8 C2 1_555 1_555
C9 H5 1_555 1_555
C10 C2 1_555 1_555
H6 C10 1_555 1_555
C11 C8 1_555 1_555
H7 C11 1_555 1_555
C12 C13 1_555 1_555
C13 C4 1_555 1_555
H8 C13 1_555 1_555
H9 C13 1_555 1_555
C14 C7 1_555 1_555
H10 C14 1_555 1_555
C15 C3 1_555 1_555
H11 C15 1_555 1_555
C16 C15 1_555 1_555
H12 C16 1_555 1_555
C17 C14 1_555 1_555
H13 C17 1_555 1_555
C18 C12 1_555 1_555
H14 C18 1_555 1_555
H15 C18 1_555 1_555
H16 C18 1_555 1_555
C1 C6 1_555 1_555
C5 C10 1_555 1_555
C9 C11 1_555 1_555
C16 C17 1_555 1_555

#END
