
#######################################################################
#
#                 Cambridge Crystallographic Data Centre
#                                CCDC 
#
#######################################################################
#
# If this CIF has been generated from an entry in the Cambridge 
# Structural Database, then it will include bibliographic, chemical, 
# crystal, experimental, refinement or atomic coordinate data resulting 
# from the CCDC's data processing and validation procedures.
#
#######################################################################

data_TACKAJ
_chemical_formula_moiety         'C13 H20 N2 S2'
_chemical_name_systematic        
9-Cyano-(9S,9aR)-1,3,4,6,7,8,9,9a-octahydro-2H-quinolizine-1-spiro-2'-(1',3'-dithiane)
_symmetry_cell_setting           orthorhombic
_symmetry_space_group_name_H-M   'P 21 21 21'
_symmetry_Int_Tables_number      19
_space_group_name_Hall           'P 2ac 2ab'
loop_
_symmetry_equiv_pos_site_id
_symmetry_equiv_pos_as_xyz
1 x,y,z
2 1/2-x,-y,1/2+z
3 1/2+x,1/2-y,-z
4 -x,1/2+y,1/2-z
_cell_length_a                   8.366(1)
_cell_length_b                   23.193(2)
_cell_length_c                   6.854(1)
_cell_angle_alpha                90
_cell_angle_beta                 90
_cell_angle_gamma                90
_cell_volume                     1329.9
_exptl_crystal_colour            'light yellow'
_cell_formula_units_Z            4
loop_
_atom_site_label
_atom_site_type_symbol
_atom_site_fract_x
_atom_site_fract_y
_atom_site_fract_z
S1 S -0.02476(9) -0.37730(4) -0.5302(1)
S2 S -0.11465(10) -0.29252(3) -0.8465(1)
N1 N 0.3801(3) -0.3723(1) -0.5487(4)
N2 N 0.1125(3) -0.44508(9) -0.9235(3)
C1 C 0.3046(3) -0.3631(1) -0.6839(4)
C2 C 0.2303(3) -0.3489(1) -0.8729(4)
C3 C 0.3569(3) -0.3608(1) -1.0302(4)
C4 C 0.3908(4) -0.4248(1) -1.0397(5)
C5 C 0.2366(4) -0.4576(1) -1.0713(5)
C6 C -0.0271(4) -0.4797(1) -0.9767(5)
C7 C -0.1671(4) -0.4694(1) -0.8436(5)
C8 C -0.2133(3) -0.4065(1) -0.8471(5)
C9 C -0.0713(3) -0.3682(1) -0.7904(4)
C10 C 0.0768(3) -0.3832(1) -0.9180(4)
C11 C -0.2047(4) -0.3484(2) -0.4201(5)
C12 C -0.2412(4) -0.2867(2) -0.4690(6)
C13 C -0.2799(4) -0.2772(1) -0.6827(6)
H1 H 0.2052 -0.3087 -0.8758
H2 H 0.4516 -0.3404 -1.0029
H3 H 0.3170 -0.3493 -1.1556
H4 H 0.4392 -0.4378 -0.9172
H5 H 0.4678 -0.4339 -1.1404
H6 H 0.2573 -0.4991 -1.0727
H7 H 0.1961 -0.4482 -1.1994
H8 H -0.0032 -0.5198 -0.9818
H9 H -0.0631 -0.4690 -1.1094
H10 H -0.1375 -0.4806 -0.7136
H11 H -0.2572 -0.4943 -0.8802
H12 H -0.3048 -0.3998 -0.7617
H13 H -0.2523 -0.3967 -0.9785
H14 H 0.0475 -0.3737 -1.0520
H15 H -0.1976 -0.3545 -0.2787
H16 H -0.2950 -0.3733 -0.4605
H17 H -0.1498 -0.2641 -0.4344
H18 H -0.3293 -0.2734 -0.3875
H19 H -0.3158 -0.2380 -0.7046
H20 H -0.3708 -0.3017 -0.7193
loop_
_geom_bond_atom_site_label_1
_geom_bond_atom_site_label_2
_geom_bond_site_symmetry_1
_geom_bond_site_symmetry_2
S1 C9 1_555 1_555
S2 C9 1_555 1_555
N1 C1 1_555 1_555
N2 C5 1_555 1_555
C1 C2 1_555 1_555
C2 C3 1_555 1_555
C3 C4 1_555 1_555
C4 C5 1_555 1_555
C5 H6 1_555 1_555
C6 N2 1_555 1_555
C7 C6 1_555 1_555
C8 C7 1_555 1_555
C9 C8 1_555 1_555
C10 N2 1_555 1_555
C11 S1 1_555 1_555
C12 C11 1_555 1_555
C13 S2 1_555 1_555
H1 C2 1_555 1_555
H2 C3 1_555 1_555
H3 C3 1_555 1_555
H4 C4 1_555 1_555
H5 C4 1_555 1_555
H7 C5 1_555 1_555
H8 C6 1_555 1_555
H9 C6 1_555 1_555
H10 C7 1_555 1_555
H11 C7 1_555 1_555
H12 C8 1_555 1_555
H13 C8 1_555 1_555
H14 C10 1_555 1_555
H15 C11 1_555 1_555
H16 C11 1_555 1_555
H17 C12 1_555 1_555
H18 C12 1_555 1_555
H19 C13 1_555 1_555
H20 C13 1_555 1_555
C2 C10 1_555 1_555
C9 C10 1_555 1_555
C12 C13 1_555 1_555

#END
