
#######################################################################
#
#                 Cambridge Crystallographic Data Centre
#                                CCDC 
#
#######################################################################
#
# If this CIF has been generated from an entry in the Cambridge 
# Structural Database, then it will include bibliographic, chemical, 
# crystal, experimental, refinement or atomic coordinate data resulting 
# from the CCDC's data processing and validation procedures.
#
#######################################################################

data_TACMES
_chemical_formula_moiety         'C25 H34 O4 Si1'
_chemical_name_systematic        
10-(dimethyl(phenyl)silyl)-5-methoxy-5,10a-dimethyl-4-methylenedecahydro-8H-furo[3',4':4,4a]naphtho[1,8-bc]furan-8-one
_symmetry_cell_setting           monoclinic
_symmetry_space_group_name_H-M   'P 21'
_symmetry_Int_Tables_number      4
_space_group_name_Hall           'P 2yb'
loop_
_symmetry_equiv_pos_site_id
_symmetry_equiv_pos_as_xyz
1 x,y,z
2 -x,1/2+y,-z
_cell_length_a                   11.2623(2)
_cell_length_b                   8.91950(10)
_cell_length_c                   12.9754(9)
_cell_angle_alpha                90
_cell_angle_beta                 114.397(8)
_cell_angle_gamma                90
_cell_volume                     1187.04
_exptl_crystal_colour            colorless
_exptl_crystal_description       prism
_cell_formula_units_Z            2
loop_
_atom_site_label
_atom_site_type_symbol
_atom_site_fract_x
_atom_site_fract_y
_atom_site_fract_z
Si1 Si 0.27184(9) 0.72682(11) 0.90603(9)
O1 O -0.20742(19) 1.2191(3) 0.76129(17)
O2 O -0.2517(3) 1.2038(3) 0.57087(19)
O3 O -0.0737(2) 0.8751(3) 0.9157(2)
O4 O 0.1314(3) 1.0238(4) 0.5930(2)
C1 C 0.1405(3) 0.9657(4) 0.9600(2)
H1 H 0.1628 0.8981 1.0239
H2 H 0.1553 1.0670 0.9899
C2 C -0.0021(3) 0.9486(3) 0.8869(2)
C3 C -0.0517(3) 1.0338(3) 0.7738(2)
C4 C 0.0465(3) 0.9953(3) 0.7260(2)
H3 H 0.0414 0.8859 0.7184
C5 C 0.1898(3) 1.0261(3) 0.7914(3)
C6 C -0.1900(3) 0.9874(3) 0.6865(2)
H4 H -0.2273 0.9197 0.7248
C7 C -0.0700(3) 1.2016(3) 0.7951(3)
H5 H -0.0224 1.2266 0.8745
H6 H -0.0398 1.2655 0.7504
C8 C 0.3981(3) 0.6869(4) 0.8504(3)
C9 C 0.2256(3) 1.1912(4) 0.8163(4)
H7 H 0.3182 1.2005 0.8580
H8 H 0.1823 1.2317 0.8601
H9 H 0.1988 1.2453 0.7463
C10 C 0.0119(4) 1.0509(4) 0.6070(3)
H10 H -0.0079 1.1584 0.6016
C11 C 0.2370(3) 0.9355(4) 0.9031(3)
H11 H 0.3197 0.9817 0.9534
C12 C -0.1056(4) 0.9625(6) 0.5262(3)
H12 H -0.1576 1.0262 0.4631
H13 H -0.0754 0.8781 0.4964
C13 C -0.2685(3) 1.1334(4) 0.6609(2)
C14 C 0.5133(3) 0.7693(4) 0.8877(3)
H14 H 0.5263 0.8469 0.9391
C15 C 0.2317(4) 0.9744(5) 0.6981(3)
H15 H 0.3148 1.0187 0.7093
H16 H 0.2400 0.8662 0.6988
C16 C 0.5933(6) 0.6257(8) 0.7771(5)
H17 H 0.6584 0.6050 0.7527
C17 C -0.4104(4) 1.1138(6) 0.6383(3)
H18 H -0.4168 1.0660 0.7021
H19 H -0.4527 1.0528 0.5721
H20 H -0.4520 1.2101 0.6262
C18 C -0.1900(4) 0.9054(4) 0.5834(3)
C19 C -0.2593(5) 0.7818(6) 0.5482(4)
H21 H -0.2568 0.7286 0.4875
H22 H -0.3108 0.7479 0.5839
C20 C 0.6082(4) 0.7381(7) 0.8500(4)
H23 H 0.6837 0.7958 0.8755
C21 C 0.4814(7) 0.5413(9) 0.7386(5)
H24 H 0.4703 0.4634 0.6878
C22 C -0.3036(7) 1.3498(7) 0.5426(5)
H25 H -0.2886 1.3862 0.4793
H26 H -0.2618 1.4152 0.6062
H27 H -0.3956 1.3473 0.5230
C23 C 0.3478(6) 0.6770(7) 1.0591(5)
H28 H 0.4236 0.7381 1.0973
H29 H 0.3726 0.5732 1.0674
H30 H 0.2863 0.6940 1.0916
C24 C 0.3860(5) 0.5723(6) 0.7754(4)
H31 H 0.3108 0.5142 0.7488
C25 C 0.1235(5) 0.6099(5) 0.8298(8)
H32 H 0.0594 0.6314 0.8587
H33 H 0.1465 0.5056 0.8411
H34 H 0.0883 0.6324 0.7504
loop_
_geom_bond_atom_site_label_1
_geom_bond_atom_site_label_2
_geom_bond_site_symmetry_1
_geom_bond_site_symmetry_2
Si1 C8 1_555 1_555
O1 C7 1_555 1_555
O2 C13 1_555 1_555
O3 C2 1_555 1_555
O4 C10 1_555 1_555
C1 H1 1_555 1_555
H2 C1 1_555 1_555
C2 C1 1_555 1_555
C3 C2 1_555 1_555
C4 C3 1_555 1_555
H3 C4 1_555 1_555
C5 C4 1_555 1_555
C6 C3 1_555 1_555
H4 C6 1_555 1_555
C7 C3 1_555 1_555
H5 C7 1_555 1_555
H6 C7 1_555 1_555
C8 C14 1_555 1_555
C9 C5 1_555 1_555
H7 C9 1_555 1_555
H8 C9 1_555 1_555
H9 C9 1_555 1_555
C10 C4 1_555 1_555
H10 C10 1_555 1_555
C11 Si1 1_555 1_555
H11 C11 1_555 1_555
C12 C10 1_555 1_555
H12 C12 1_555 1_555
H13 C12 1_555 1_555
C13 O1 1_555 1_555
C14 H14 1_555 1_555
C15 O4 1_555 1_555
H15 C15 1_555 1_555
H16 C15 1_555 1_555
C16 H17 1_555 1_555
C17 C13 1_555 1_555
H18 C17 1_555 1_555
H19 C17 1_555 1_555
H20 C17 1_555 1_555
C18 C6 1_555 1_555
C19 C18 1_555 1_555
H21 C19 1_555 1_555
H22 C19 1_555 1_555
C20 C14 1_555 1_555
H23 C20 1_555 1_555
C21 C16 1_555 1_555
H24 C21 1_555 1_555
C22 O2 1_555 1_555
H25 C22 1_555 1_555
H26 C22 1_555 1_555
H27 C22 1_555 1_555
C23 Si1 1_555 1_555
H28 C23 1_555 1_555
H29 C23 1_555 1_555
H30 C23 1_555 1_555
C24 C8 1_555 1_555
H31 C24 1_555 1_555
C25 Si1 1_555 1_555
H32 C25 1_555 1_555
H33 C25 1_555 1_555
H34 C25 1_555 1_555
C1 C11 1_555 1_555
C5 C11 1_555 1_555
C5 C15 1_555 1_555
C6 C13 1_555 1_555
C12 C18 1_555 1_555
C16 C20 1_555 1_555
C21 C24 1_555 1_555

#END
