
#######################################################################
#
#                 Cambridge Crystallographic Data Centre
#                                CCDC 
#
#######################################################################
#
# If this CIF has been generated from an entry in the Cambridge 
# Structural Database, then it will include bibliographic, chemical, 
# crystal, experimental, refinement or atomic coordinate data resulting 
# from the CCDC's data processing and validation procedures.
#
#######################################################################

data_TACMAO
_chemical_formula_moiety         'C23 H36 O4 Si1'
_chemical_name_systematic        
'methyl 7a-methyl-5-oxo-3-(3-(triisopropylsilyl)prop-2-yn-1-yl)-1,3,3a,4,5,7a-hexahydro-2-benzofuran-4-carboxylate'
_symmetry_cell_setting           orthorhombic
_symmetry_space_group_name_H-M   'P 21 21 21'
_symmetry_Int_Tables_number      19
_space_group_name_Hall           'P 2ac 2ab'
loop_
_symmetry_equiv_pos_site_id
_symmetry_equiv_pos_as_xyz
1 x,y,z
2 1/2-x,-y,1/2+z
3 1/2+x,1/2-y,-z
4 -x,1/2+y,1/2-z
_cell_length_a                   7.71330(10)
_cell_length_b                   12.5483(2)
_cell_length_c                   25.0132(17)
_cell_angle_alpha                90
_cell_angle_beta                 90
_cell_angle_gamma                90
_cell_volume                     2421
_exptl_crystal_colour            colorless
_exptl_crystal_description       block
_cell_formula_units_Z            4
loop_
_atom_site_label
_atom_site_type_symbol
_atom_site_fract_x
_atom_site_fract_y
_atom_site_fract_z
Si1 Si 0.62814(10) 0.76296(7) 0.81470(3)
O1 O 0.7699(3) 0.85442(15) 1.01392(9)
C1 C 0.6899(3) 1.01499(18) 0.97384(10)
H1 H 0.6412 0.9856 0.9408
O2 O 0.7718(4) 1.1308(2) 0.87385(9)
C2 C 0.7105(3) 1.13441(19) 0.96524(10)
H2 H 0.7566 1.1654 0.9983
C3 C 0.5280(4) 1.1826(2) 0.95530(11)
C4 C 0.8322(4) 1.1617(2) 0.92081(13)
C5 C 0.5620(4) 0.9903(2) 1.01820(11)
C6 C 0.8464(4) 0.9458(2) 0.98854(11)
H3 H 0.9178 0.9840 1.0147
C7 C 0.7747(4) 0.8192(2) 0.86477(12)
C8 C 0.9605(4) 0.9092(2) 0.94261(12)
H4 H 1.0220 0.9702 0.9282
H5 H 1.0459 0.8593 0.9561
C9 C 0.3768(4) 1.1198(3) 0.97240(13)
H6 H 0.2670 1.1425 0.9621
O3 O 0.9728(4) 1.2004(2) 0.92709(12)
C10 C 0.6111(5) 1.0387(3) 1.07335(11)
H7 H 0.7230 1.0129 1.0840
H8 H 0.5262 1.0182 1.0995
H9 H 0.6143 1.1150 1.0706
C11 C 0.8610(4) 0.8581(2) 0.89951(11)
O4 O 0.5147(3) 1.27039(19) 0.93614(9)
C12 C 0.3897(4) 1.0324(3) 1.00180(13)
H10 H 0.2896 0.9969 1.0124
C13 C 0.6372(5) 0.6138(3) 0.82127(14)
H11 H 0.5474 0.5839 0.7979
C14 C 0.5865(5) 0.8699(2) 1.01991(15)
H12 H 0.5463 0.8410 1.0537
H13 H 0.5236 0.8358 0.9910
C15 C 0.8082(7) 0.5658(4) 0.8049(2)
H14 H 0.8349 0.5868 0.7689
H15 H 0.8008 0.4895 0.8068
H16 H 0.8977 0.5904 0.8285
C16 C 0.5986(8) 0.5769(4) 0.87846(19)
H17 H 0.4891 0.6054 0.8898
H18 H 0.6884 0.6016 0.9020
H19 H 0.5941 0.5004 0.8795
C17 C 0.7885(12) 0.9026(6) 0.7392(2)
H20 H 0.8560 0.9201 0.7702
H21 H 0.7014 0.9561 0.7338
H22 H 0.8627 0.8995 0.7084
C18 C 0.7088(8) 0.8035(5) 0.74666(14)
H23 H 0.8100 0.7567 0.7436
C19 C 0.4043(5) 0.8128(4) 0.8337(3)
H24 H 0.4002 0.7930 0.8716
C20 C 0.8877(8) 1.1513(5) 0.82974(18)
H25 H 0.8357 1.1266 0.7971
H26 H 0.9951 1.1144 0.8355
H27 H 0.9093 1.2264 0.8272
C21 C 0.2558(6) 0.7526(7) 0.8128(3)
H28 H 0.2851 0.6784 0.8108
H29 H 0.2269 0.7783 0.7778
H30 H 0.1582 0.7618 0.8362
C22 C 0.3846(8) 0.9285(5) 0.8372(3)
H31 H 0.4918 0.9597 0.8488
H32 H 0.2948 0.9453 0.8625
H33 H 0.3541 0.9564 0.8028
C23 C 0.6011(10) 0.7621(6) 0.70079(18)
H34 H 0.5563 0.6929 0.7097
H35 H 0.6720 0.7568 0.6693
H36 H 0.5066 0.8101 0.6942
loop_
_geom_bond_atom_site_label_1
_geom_bond_atom_site_label_2
_geom_bond_site_symmetry_1
_geom_bond_site_symmetry_2
Si1 C7 1_555 1_555
O1 C6 1_555 1_555
C1 H1 1_555 1_555
O2 C4 1_555 1_555
C2 C1 1_555 1_555
H2 C2 1_555 1_555
C3 C2 1_555 1_555
C4 C2 1_555 1_555
C5 C1 1_555 1_555
C6 C1 1_555 1_555
H3 C6 1_555 1_555
C7 C11 1_555 1_555
C8 C6 1_555 1_555
H4 C8 1_555 1_555
H5 C8 1_555 1_555
C9 C3 1_555 1_555
H6 C9 1_555 1_555
O3 C4 1_555 1_555
C10 C5 1_555 1_555
H7 C10 1_555 1_555
H8 C10 1_555 1_555
H9 C10 1_555 1_555
C11 C8 1_555 1_555
O4 C3 1_555 1_555
C12 C5 1_555 1_555
H10 C12 1_555 1_555
C13 Si1 1_555 1_555
H11 C13 1_555 1_555
C14 O1 1_555 1_555
H12 C14 1_555 1_555
H13 C14 1_555 1_555
C15 C13 1_555 1_555
H14 C15 1_555 1_555
H15 C15 1_555 1_555
H16 C15 1_555 1_555
C16 C13 1_555 1_555
H17 C16 1_555 1_555
H18 C16 1_555 1_555
H19 C16 1_555 1_555
C17 H20 1_555 1_555
H21 C17 1_555 1_555
H22 C17 1_555 1_555
C18 Si1 1_555 1_555
H23 C18 1_555 1_555
C19 Si1 1_555 1_555
H24 C19 1_555 1_555
C20 O2 1_555 1_555
H25 C20 1_555 1_555
H26 C20 1_555 1_555
H27 C20 1_555 1_555
C21 C19 1_555 1_555
H28 C21 1_555 1_555
H29 C21 1_555 1_555
H30 C21 1_555 1_555
C22 C19 1_555 1_555
H31 C22 1_555 1_555
H32 C22 1_555 1_555
H33 C22 1_555 1_555
C23 C18 1_555 1_555
H34 C23 1_555 1_555
H35 C23 1_555 1_555
H36 C23 1_555 1_555
C5 C14 1_555 1_555
C9 C12 1_555 1_555
C17 C18 1_555 1_555

#END
