
#######################################################################
#
#                 Cambridge Crystallographic Data Centre
#                                CCDC 
#
#######################################################################
#
# If this CIF has been generated from an entry in the Cambridge 
# Structural Database, then it will include bibliographic, chemical, 
# crystal, experimental, refinement or atomic coordinate data resulting 
# from the CCDC's data processing and validation procedures.
#
#######################################################################

data_TACMOC
_chemical_formula_moiety         'C30 H50 O4 Si2'
_chemical_name_systematic        
6-((t-butyl(dimethyl)silyl)ethynyl)-12-hydroxy-4-(3-(triisopropylsilyl)prop-2-yn-1-yl)-3,8-dioxatricyclo[4.3.3.0^1,5^]dodecan-7-one
_symmetry_cell_setting           monoclinic
_symmetry_space_group_name_H-M   'P 21/n'
_symmetry_Int_Tables_number      14
_space_group_name_Hall           '-P 2yn'
loop_
_symmetry_equiv_pos_site_id
_symmetry_equiv_pos_as_xyz
1 x,y,z
2 1/2-x,1/2+y,1/2-z
3 -x,-y,-z
4 1/2+x,1/2-y,1/2+z
_cell_length_a                   7.70560(10)
_cell_length_b                   31.3414(6)
_cell_length_c                   12.9403(9)
_cell_angle_alpha                90
_cell_angle_beta                 92.142(7)
_cell_angle_gamma                90
_cell_volume                     3122.95
_exptl_crystal_colour            colorless
_exptl_crystal_description       prism
_cell_formula_units_Z            4
loop_
_atom_site_label
_atom_site_type_symbol
_atom_site_fract_x
_atom_site_fract_y
_atom_site_fract_z
Si1 Si 0.00519(10) 0.40314(3) 0.65472(6)
Si2 Si 0.35250(9) 0.39848(2) 0.14980(6)
O1 O 0.2094(2) 0.24560(6) 0.30871(14)
O2 O 0.3713(3) 0.21512(6) 0.58745(15)
O3 O 0.2584(3) 0.25203(6) 0.71174(15)
O4 O 0.5577(3) 0.32120(7) 0.69446(16)
H1 H 0.5860 0.2995 0.7293
C1 C 0.0810(5) 0.48869(11) 0.7001(3)
H2 H 0.0224 0.4842 0.7652
H3 H -0.0047 0.4969 0.6459
H4 H 0.1675 0.5114 0.7094
C2 C 0.1716(4) 0.44724(10) 0.6687(2)
C3 C 0.1236(4) 0.35506(9) 0.6167(2)
C4 C 0.2170(4) 0.32577(9) 0.5962(2)
C5 C 0.3409(3) 0.29291(9) 0.5645(2)
C6 C 0.3304(3) 0.28563(8) 0.4476(2)
H5 H 0.3709 0.3124 0.4140
C7 C 0.1582(3) 0.27281(9) 0.3933(2)
H6 H 0.0874 0.2559 0.4419
C8 C 0.0495(3) 0.30972(9) 0.3490(2)
H7 H -0.0525 0.2980 0.3099
H8 H 0.0062 0.3269 0.4068
C9 C 0.1463(3) 0.33750(9) 0.2809(2)
C10 C 0.2308(3) 0.35991(9) 0.2263(2)
C11 C 0.5525(4) 0.41388(10) 0.2296(2)
H9 H 0.6182 0.4354 0.1894
C12 C 0.6742(4) 0.37609(11) 0.2534(3)
H10 H 0.7749 0.3859 0.2953
H11 H 0.7135 0.3640 0.1884
H12 H 0.6120 0.3542 0.2915
C13 C 0.2888(4) 0.48465(10) 0.0822(3)
H13 H 0.3147 0.4778 0.0105
H14 H 0.3968 0.4919 0.1207
H15 H 0.2092 0.5090 0.0832
C14 C 0.2041(4) 0.44599(9) 0.1326(2)
H16 H 0.1738 0.4552 0.2037
C15 C 0.0329(4) 0.43459(11) 0.0760(3)
H17 H -0.0473 0.4588 0.0793
H18 H -0.0183 0.4096 0.1089
H19 H 0.0545 0.4280 0.0036
C16 C 0.4999(4) 0.43505(11) 0.3309(2)
H20 H 0.4295 0.4151 0.3700
H21 H 0.4321 0.4609 0.3151
H22 H 0.6044 0.4427 0.3723
C17 C 0.3965(3) 0.24300(10) 0.3079(2)
H23 H 0.4441 0.2652 0.2625
H24 H 0.4340 0.2146 0.2836
C18 C 0.4559(3) 0.25023(8) 0.4203(2)
C19 C 0.4161(4) 0.20951(9) 0.4799(2)
H25 H 0.3187 0.1946 0.4431
H26 H 0.5188 0.1906 0.4780
C20 C 0.3155(3) 0.25237(9) 0.6260(2)
C21 C -0.1002(5) 0.39199(11) 0.7787(3)
H27 H -0.1851 0.3690 0.7684
H28 H -0.1592 0.4178 0.8019
H29 H -0.0118 0.3834 0.8310
C22 C -0.1611(5) 0.41580(13) 0.5522(3)
H30 H -0.1045 0.4203 0.4865
H31 H -0.2235 0.4418 0.5709
H32 H -0.2434 0.3920 0.5449
C23 C 0.2606(5) 0.45400(12) 0.5664(3)
H33 H 0.3461 0.4770 0.5744
H34 H 0.1735 0.4617 0.5125
H35 H 0.3193 0.4276 0.5469
C24 C 0.3085(5) 0.43538(12) 0.7518(3)
H36 H 0.3658 0.4088 0.7325
H37 H 0.2527 0.4315 0.8180
H38 H 0.3949 0.4583 0.7585
C25 C 0.5320(3) 0.30976(9) 0.5903(2)
H39 H 0.5456 0.3365 0.5493
C26 C 0.6694(3) 0.27873(9) 0.5536(2)
H40 H 0.6681 0.2528 0.5971
H41 H 0.7853 0.2921 0.5632
C27 C 0.6417(3) 0.26578(10) 0.4397(2)
H42 H 0.6641 0.2905 0.3946
H43 H 0.7241 0.2428 0.4227
C28 C 0.4060(4) 0.37356(9) 0.0218(2)
H44 H 0.3015 0.3776 -0.0254
C29 C 0.5570(4) 0.39591(11) -0.0293(3)
H45 H 0.6640 0.3915 0.0127
H46 H 0.5328 0.4265 -0.0347
H47 H 0.5711 0.3841 -0.0986
C30 C 0.4394(4) 0.32543(10) 0.0280(3)
H48 H 0.4553 0.3142 -0.0416
H49 H 0.3399 0.3113 0.0584
H50 H 0.5442 0.3200 0.0712
loop_
_geom_bond_atom_site_label_1
_geom_bond_atom_site_label_2
_geom_bond_site_symmetry_1
_geom_bond_site_symmetry_2
Si1 C2 1_555 1_555
Si2 C10 1_555 1_555
O1 C7 1_555 1_555
O2 C19 1_555 1_555
O3 C20 1_555 1_555
O4 H1 1_555 1_555
C1 H2 1_555 1_555
H3 C1 1_555 1_555
H4 C1 1_555 1_555
C2 C1 1_555 1_555
C3 Si1 1_555 1_555
C4 C3 1_555 1_555
C5 C4 1_555 1_555
C6 C5 1_555 1_555
H5 C6 1_555 1_555
C7 C6 1_555 1_555
H6 C7 1_555 1_555
C8 C7 1_555 1_555
H7 C8 1_555 1_555
H8 C8 1_555 1_555
C9 C8 1_555 1_555
C10 C9 1_555 1_555
C11 Si2 1_555 1_555
H9 C11 1_555 1_555
C12 C11 1_555 1_555
H10 C12 1_555 1_555
H11 C12 1_555 1_555
H12 C12 1_555 1_555
C13 H13 1_555 1_555
H14 C13 1_555 1_555
H15 C13 1_555 1_555
C14 Si2 1_555 1_555
H16 C14 1_555 1_555
C15 C14 1_555 1_555
H17 C15 1_555 1_555
H18 C15 1_555 1_555
H19 C15 1_555 1_555
C16 C11 1_555 1_555
H20 C16 1_555 1_555
H21 C16 1_555 1_555
H22 C16 1_555 1_555
C17 O1 1_555 1_555
H23 C17 1_555 1_555
H24 C17 1_555 1_555
C18 C6 1_555 1_555
C19 C18 1_555 1_555
H25 C19 1_555 1_555
H26 C19 1_555 1_555
C20 O2 1_555 1_555
C21 Si1 1_555 1_555
H27 C21 1_555 1_555
H28 C21 1_555 1_555
H29 C21 1_555 1_555
C22 Si1 1_555 1_555
H30 C22 1_555 1_555
H31 C22 1_555 1_555
H32 C22 1_555 1_555
C23 C2 1_555 1_555
H33 C23 1_555 1_555
H34 C23 1_555 1_555
H35 C23 1_555 1_555
C24 C2 1_555 1_555
H36 C24 1_555 1_555
H37 C24 1_555 1_555
H38 C24 1_555 1_555
C25 O4 1_555 1_555
H39 C25 1_555 1_555
C26 C25 1_555 1_555
H40 C26 1_555 1_555
H41 C26 1_555 1_555
C27 C18 1_555 1_555
H42 C27 1_555 1_555
H43 C27 1_555 1_555
C28 Si2 1_555 1_555
H44 C28 1_555 1_555
C29 C28 1_555 1_555
H45 C29 1_555 1_555
H46 C29 1_555 1_555
H47 C29 1_555 1_555
C30 C28 1_555 1_555
H48 C30 1_555 1_555
H49 C30 1_555 1_555
H50 C30 1_555 1_555
C5 C20 1_555 1_555
C5 C25 1_555 1_555
C13 C14 1_555 1_555
C17 C18 1_555 1_555
C26 C27 1_555 1_555

#END
