
#######################################################################
#
#                 Cambridge Crystallographic Data Centre
#                                CCDC 
#
#######################################################################
#
# If this CIF has been generated from an entry in the Cambridge 
# Structural Database, then it will include bibliographic, chemical, 
# crystal, experimental, refinement or atomic coordinate data resulting 
# from the CCDC's data processing and validation procedures.
#
#######################################################################

data_TACMAN
_chemical_formula_moiety         'C20 H22 Br1 N1 O1'
_chemical_name_systematic        
(2R,3R)-3-(4-Bromophenyl)-2-methyl-N-((R)-1-phenylethyl)pent-4-enamide
_symmetry_cell_setting           orthorhombic
_symmetry_space_group_name_H-M   'P 21 21 21'
_symmetry_Int_Tables_number      19
_space_group_name_Hall           'P 2ac 2ab'
loop_
_symmetry_equiv_pos_site_id
_symmetry_equiv_pos_as_xyz
1 x,y,z
2 1/2-x,-y,1/2+z
3 -x,1/2+y,1/2-z
4 1/2+x,1/2-y,-z
_cell_length_a                   5.0268(12)
_cell_length_b                   15.831(4)
_cell_length_c                   22.862(6)
_cell_angle_alpha                90
_cell_angle_beta                 90
_cell_angle_gamma                90
_cell_volume                     1819.34
_exptl_crystal_colour            colorless
_exptl_crystal_description       needle
_cell_formula_units_Z            4
loop_
_atom_site_label
_atom_site_type_symbol
_atom_site_fract_x
_atom_site_fract_y
_atom_site_fract_z
Br1 Br 0.21206(16) 0.66560(5) 0.60104(4)
O1 O -0.2440(8) 1.0844(3) 0.65302(17)
N1 N 0.1868(10) 1.0738(3) 0.67756(19)
H1 H 0.3496 1.0753 0.6647
C1 C 0.2697(18) 0.7995(4) 0.7889(3)
H2 H 0.262(14) 0.7409(10) 0.797(2)
C2 C 0.1847(11) 0.9675(4) 0.7550(2)
C3 C 0.160(3) 0.9471(6) 0.8132(6)
H3 H 0.1185 0.9880 0.8416
C4 C 0.201(3) 0.8629(5) 0.8281(4)
H4 H 0.1798 0.8477 0.8676
C5 C 0.285(3) 0.8255(6) 0.7309(3)
H5 H 0.3103 0.7840 0.7020
C6 C 0.264(3) 0.9092(5) 0.7131(4)
H6 H 0.3020 0.9255 0.6745
C7 C 0.1434(12) 1.0584(4) 0.7398(3)
H7 H -0.0447 1.0721 0.7484
C8 C -0.0087(12) 1.0855(4) 0.6399(3)
C9 C 0.0715(14) 1.0988(4) 0.5756(3)
H8 H 0.2660 1.0903 0.5722
C10 C -0.0675(13) 1.0342(4) 0.5366(3)
H9 H -0.2611 1.0407 0.5433
C11 C -0.1416(15) 0.9004(5) 0.5926(4)
H10 H -0.2903 0.9264 0.6098
C12 C -0.0793(15) 0.8183(4) 0.6088(4)
H11 H -0.1806 0.7902 0.6373
C13 C 0.1292(14) 0.7793(4) 0.5829(3)
C14 C 0.2709(16) 0.8202(5) 0.5429(3)
H12 H 0.4136 0.7928 0.5243
C15 C 0.2099(18) 0.9035(5) 0.5281(3)
H13 H 0.3155 0.9316 0.5003
C16 C 0.0027(12) 0.9450(4) 0.5528(3)
C17 C 0.3137(17) 1.1166(4) 0.7763(3)
H14 H 0.2787 1.1747 0.7653
H15 H 0.4999 1.1038 0.7696
H16 H 0.2719 1.1087 0.8173
C18 C -0.0174(16) 1.0532(5) 0.4728(3)
H17 H 0.1610 1.0524 0.4606
C19 C -0.190(2) 1.0703(5) 0.4339(4)
H18 H -0.3717 1.0720 0.4438
H19 H -0.1364 1.0812 0.3952
C20 C 0.0099(17) 1.1899(4) 0.5612(3)
H20 H 0.0587 1.2013 0.5209
H21 H 0.1103 1.2266 0.5870
H22 H -0.1788 1.2001 0.5664
C21? C -0.010(3) 0.9102(8) 0.7770(5)
C22? C 0.009(2) 0.8270(8) 0.7959(6)
C23? C 0.475(2) 0.8418(6) 0.7604(7)
C24? C 0.4228(17) 0.9252(7) 0.7452(6)
H23? H -0.1827 0.9327 0.7790
H24? H -0.1314 0.7946 0.8111
H25? H 0.6381 0.8156 0.7520
H26? H 0.5599 0.9554 0.7266
loop_
_geom_bond_atom_site_label_1
_geom_bond_atom_site_label_2
_geom_bond_site_symmetry_1
_geom_bond_site_symmetry_2
Br1 C13 1_555 1_555
O1 C8 1_555 1_555
N1 H1 1_555 1_555
C1 H2 1_555 1_555
C2 C3 1_555 1_555
C3 H3 1_555 1_555
C4 C1 1_555 1_555
H4 C4 1_555 1_555
C5 C1 1_555 1_555
H5 C5 1_555 1_555
C6 C2 1_555 1_555
H6 C6 1_555 1_555
C7 N1 1_555 1_555
H7 C7 1_555 1_555
C8 N1 1_555 1_555
C9 C8 1_555 1_555
H8 C9 1_555 1_555
C10 C9 1_555 1_555
H9 C10 1_555 1_555
C11 H10 1_555 1_555
C12 C11 1_555 1_555
H11 C12 1_555 1_555
C13 C12 1_555 1_555
C14 C13 1_555 1_555
H12 C14 1_555 1_555
C15 C14 1_555 1_555
H13 C15 1_555 1_555
C16 C10 1_555 1_555
C17 C7 1_555 1_555
H14 C17 1_555 1_555
H15 C17 1_555 1_555
H16 C17 1_555 1_555
C18 C10 1_555 1_555
H17 C18 1_555 1_555
C19 C18 1_555 1_555
H18 C19 1_555 1_555
H19 C19 1_555 1_555
C20 C9 1_555 1_555
H20 C20 1_555 1_555
H21 C20 1_555 1_555
H22 C20 1_555 1_555
C2 C7 1_555 1_555
C3 C4 1_555 1_555
C5 C6 1_555 1_555
C11 C16 1_555 1_555
C15 C16 1_555 1_555

#END
