
#######################################################################
#
#                 Cambridge Crystallographic Data Centre
#                                CCDC 
#
#######################################################################
#
# If this CIF has been generated from an entry in the Cambridge 
# Structural Database, then it will include bibliographic, chemical, 
# crystal, experimental, refinement or atomic coordinate data resulting 
# from the CCDC's data processing and validation procedures.
#
#######################################################################

data_TACTEZ
_chemical_formula_moiety         'C27 H23 N3 O3'
_chemical_name_systematic        
N-(4-Methoxybenzyl)-2,9-dimethyl-6-oxo-5,6-dihydrodibenzo[b,h][1,6]naphthyridine-11-carboxamide
_symmetry_cell_setting           tetragonal
_symmetry_space_group_name_H-M   'I 41/a'
_symmetry_Int_Tables_number      88
_space_group_name_Hall           '-I 4ad'
loop_
_symmetry_equiv_pos_site_id
_symmetry_equiv_pos_as_xyz
1 x,y,z
2 1/2-x,-y,1/2+z
3 3/4-y,1/4+x,1/4+z
4 3/4+y,3/4-x,3/4+z
5 1/2+x,1/2+y,1/2+z
6 -x,1/2-y,z
7 1/4-y,3/4+x,3/4+z
8 1/4+y,1/4-x,1/4+z
9 -x,-y,-z
10 1/2+x,y,1/2-z
11 1/4+y,3/4-x,3/4-z
12 1/4-y,1/4+x,1/4-z
13 1/2-x,1/2-y,1/2-z
14 x,1/2+y,-z
15 3/4+y,1/4-x,1/4-z
16 3/4-y,3/4+x,3/4-z
_cell_length_a                   14.9522(6)
_cell_length_b                   14.9522(6)
_cell_length_c                   39.844(3)
_cell_angle_alpha                90
_cell_angle_beta                 90
_cell_angle_gamma                90
_cell_volume                     8907.85
_exptl_crystal_colour            yellow
_exptl_crystal_description       block
_cell_formula_units_Z            16
loop_
_atom_site_label
_atom_site_type_symbol
_atom_site_fract_x
_atom_site_fract_y
_atom_site_fract_z
N1 N 0.41918(10) 0.15984(10) -0.08474(3)
N2 N 0.46728(9) 0.13559(9) 0.01695(3)
N3 N 0.42325(11) 0.15311(12) 0.08298(4)
H1 H 0.4108(13) 0.1558(13) 0.0614(3)
O1 O 0.53090(10) 0.12384(11) 0.12068(3)
O2 O 0.56070(9) 0.11925(9) -0.09760(3)
O3 O 0.02856(10) 0.00043(11) 0.07407(5)
C1 C 0.55060(11) 0.11360(10) 0.02791(4)
C2 C 0.45157(11) 0.14049(11) -0.01599(4)
C3 C 0.36295(11) 0.16599(11) -0.02760(4)
C4 C 0.29079(12) 0.18223(13) -0.00623(4)
H2 H 0.2985 0.1744 0.0167
C5 C 0.20857(13) 0.20936(15) -0.01798(5)
C6 C 0.19884(13) 0.22122(14) -0.05269(5)
H3 H 0.1441 0.2403 -0.0611
C7 C 0.26761(13) 0.20546(14) -0.07444(4)
H4 H 0.2595 0.2138 -0.0974
C8 C 0.34992(12) 0.17683(11) -0.06220(4)
C9 C 0.50206(12) 0.13326(11) -0.07633(4)
C10 C 0.51931(11) 0.12390(11) -0.04015(4)
C11 C 0.60300(12) 0.10094(12) -0.02929(4)
H5 H 0.6479 0.0895 -0.0448
C12 C 0.62143(11) 0.09459(11) 0.00497(4)
C13 C 0.70721(13) 0.07144(13) 0.01688(5)
H6 H 0.7524 0.0590 0.0015
C14 C 0.72530(13) 0.06683(13) 0.05036(5)
C15 C 0.65509(13) 0.08586(13) 0.07283(4)
H7 H 0.6671 0.0826 0.0957
C16 C 0.57027(12) 0.10891(11) 0.06314(4)
C17 C 0.50564(12) 0.12919(12) 0.09140(4)
C18 C 0.35379(13) 0.17251(15) 0.10747(5)
H8 H 0.3435 0.2365 0.1082
H9 H 0.3737 0.1536 0.1295
C19 C 0.26775(13) 0.12572(13) 0.09893(4)
C20 C 0.26644(14) 0.03453(14) 0.09297(5)
H10 H 0.3195 0.0024 0.0944
C21 C 0.18826(14) -0.01007(15) 0.08488(5)
H11 H 0.1890 -0.0714 0.0810
C22 C 0.10938(13) 0.03709(15) 0.08257(5)
C23 C 0.10856(14) 0.12769(15) 0.08954(6)
H12 H 0.0550 0.1593 0.0890
C24 C 0.18744(14) 0.17135(14) 0.09737(5)
H13 H 0.1864 0.2325 0.1017
C25 C 0.02926(17) -0.08844(19) 0.06211(7)
H14 H -0.0300 -0.1051 0.0553
H15 H 0.0492 -0.1278 0.0796
H16 H 0.0691 -0.0929 0.0433
C26 C 0.81637(15) 0.04256(19) 0.06333(6)
H17 H 0.8568 0.0355 0.0448
H18 H 0.8128 -0.0125 0.0756
H19 H 0.8377 0.0892 0.0778
C27 C 0.13179(15) 0.2269(2) 0.00555(6)
H20 H 0.1532 0.2581 0.0250
H21 H 0.1056 0.1711 0.0123
H22 H 0.0876 0.2626 -0.0056
H23 H 0.4081(14) 0.1706(13) -0.1060(3)
loop_
_geom_bond_atom_site_label_1
_geom_bond_atom_site_label_2
_geom_bond_site_symmetry_1
_geom_bond_site_symmetry_2
N1 C8 1_555 1_555
N2 C1 1_555 1_555
N3 H1 1_555 1_555
O1 C17 1_555 1_555
O2 C9 1_555 1_555
O3 C22 1_555 1_555
C1 C12 1_555 1_555
C2 N2 1_555 1_555
C3 C2 1_555 1_555
C4 C3 1_555 1_555
H2 C4 1_555 1_555
C5 C4 1_555 1_555
C6 C5 1_555 1_555
H3 C6 1_555 1_555
C7 C6 1_555 1_555
H4 C7 1_555 1_555
C8 C3 1_555 1_555
C9 N1 1_555 1_555
C10 C2 1_555 1_555
C11 C10 1_555 1_555
H5 C11 1_555 1_555
C12 C11 1_555 1_555
C13 C12 1_555 1_555
H6 C13 1_555 1_555
C14 C13 1_555 1_555
C15 C14 1_555 1_555
H7 C15 1_555 1_555
C16 C1 1_555 1_555
C17 N3 1_555 1_555
C18 N3 1_555 1_555
H8 C18 1_555 1_555
H9 C18 1_555 1_555
C19 C18 1_555 1_555
C20 C19 1_555 1_555
H10 C20 1_555 1_555
C21 C20 1_555 1_555
H11 C21 1_555 1_555
C22 C21 1_555 1_555
C23 C22 1_555 1_555
H12 C23 1_555 1_555
C24 C19 1_555 1_555
H13 C24 1_555 1_555
C25 O3 1_555 1_555
H14 C25 1_555 1_555
H15 C25 1_555 1_555
H16 C25 1_555 1_555
C26 C14 1_555 1_555
H17 C26 1_555 1_555
H18 C26 1_555 1_555
H19 C26 1_555 1_555
C27 C5 1_555 1_555
H20 C27 1_555 1_555
H21 C27 1_555 1_555
H22 C27 1_555 1_555
H23 N1 1_555 1_555
C7 C8 1_555 1_555
C9 C10 1_555 1_555
C15 C16 1_555 1_555
C16 C17 1_555 1_555
C23 C24 1_555 1_555

#END
