
#######################################################################
#
#                 Cambridge Crystallographic Data Centre
#                                CCDC 
#
#######################################################################
#
# If this CIF has been generated from an entry in the Cambridge 
# Structural Database, then it will include bibliographic, chemical, 
# crystal, experimental, refinement or atomic coordinate data resulting 
# from the CCDC's data processing and validation procedures.
#
#######################################################################

data_TADCEI
_chemical_formula_moiety         
'C36 H36 N24 O12,2(H1 O4 S1 1-),2(H3 O1 1+),8(H2 O1)'
_chemical_name_systematic        
'bis(Oxonium) cucurbit[6]uril bis(hydrogen sulfate) octahydrate'
_symmetry_cell_setting           orthorhombic
_symmetry_space_group_name_H-M   'P n n m'
_symmetry_Int_Tables_number      58
_space_group_name_Hall           '-P 2 2n'
loop_
_symmetry_equiv_pos_site_id
_symmetry_equiv_pos_as_xyz
1 x,y,z
2 -x,-y,z
3 1/2-x,1/2+y,1/2-z
4 1/2+x,1/2-y,1/2-z
5 -x,-y,-z
6 x,y,-z
7 1/2+x,1/2-y,1/2+z
8 1/2-x,1/2+y,1/2+z
_cell_length_a                   16.387(4)
_cell_length_b                   11.486(3)
_cell_length_c                   15.506(4)
_cell_angle_alpha                90
_cell_angle_beta                 90
_cell_angle_gamma                90
_cell_volume                     2918.56
_exptl_crystal_colour            colorless
_exptl_crystal_description       block
_cell_formula_units_Z            2
loop_
_atom_site_label
_atom_site_type_symbol
_atom_site_fract_x
_atom_site_fract_y
_atom_site_fract_z
O1 O -0.22929(17) -0.3284(2) -0.1132(2)
O2 O -0.1178(2) -0.8273(2) -0.10799(19)
N1 N -0.2100(2) -0.4849(3) -0.2035(2)
N2 N -0.23064(19) -0.7160(3) -0.0780(2)
N3 N -0.27287(17) -0.5128(3) -0.0773(2)
N4 N -0.0404(2) -0.6294(3) -0.2741(2)
N5 N -0.1643(2) -0.6867(3) -0.2007(2)
N6 N -0.0882(2) -0.4290(3) -0.2791(2)
C1 C -0.2322(2) -0.6070(3) -0.2061(3)
H1 H -0.2674 -0.6246 -0.2555
C2 C -0.2776(2) -0.6249(3) -0.1195(3)
H2 H -0.3343 -0.6488 -0.1287
C3 C -0.1756(3) -0.4211(4) -0.2734(3)
H3 H -0.1991 -0.4494 -0.3269
H4 H -0.1907 -0.3398 -0.2675
C4 C -0.1080(3) -0.7102(3) -0.2708(3)
H5 H -0.0868 -0.7886 -0.2644
H6 H -0.1375 -0.7067 -0.3249
C5 C -0.2546(4) -0.7749(5) 0.0000
H7 H -0.2307 -0.8522 0.0000
H8 H -0.3134 -0.7839 0.0000
C6 C -0.3159(3) -0.4826(5) 0.0000
H9 H -0.3684 -0.5218 0.0000
H10 H -0.3262 -0.3994 0.0000
C7 C -0.1653(2) -0.7499(3) -0.1264(2)
C8 C -0.2363(2) -0.4322(3) -0.1293(3)
C9 C -0.0435(3) -0.5209(3) -0.3223(3)
H11 H -0.061(3) -0.529(4) -0.380(3)
C10 C -0.0371(3) -0.3408(3) -0.2540(3)
O6 O -0.0587(2) -0.2512(2) -0.2185(2)
O1A O 0.22929(17) -0.6716(2) -0.1132(2)
O1D O 0.22929(17) -0.6716(2) 0.1132(2)
O1E O -0.22929(17) -0.3284(2) 0.1132(2)
O2E O -0.1178(2) -0.8273(2) 0.10799(19)
O2D O 0.1178(2) -0.1727(2) 0.10799(19)
O2A O 0.1178(2) -0.1727(2) -0.10799(19)
N1A N 0.2100(2) -0.5151(3) -0.2035(2)
N1D N 0.2100(2) -0.5151(3) 0.2035(2)
N1E N -0.2100(2) -0.4849(3) 0.2035(2)
N2A N 0.23064(19) -0.2840(3) -0.0780(2)
N2D N 0.23064(19) -0.2840(3) 0.0780(2)
N2E N -0.23064(19) -0.7160(3) 0.0780(2)
N3A N 0.27287(17) -0.4872(3) -0.0773(2)
N3D N 0.27287(17) -0.4872(3) 0.0773(2)
N3E N -0.27287(17) -0.5128(3) 0.0773(2)
N4A N 0.0404(2) -0.3706(3) -0.2741(2)
N4D N 0.0404(2) -0.3706(3) 0.2741(2)
N4E N -0.0404(2) -0.6294(3) 0.2741(2)
N5A N 0.1643(2) -0.3133(3) -0.2007(2)
N5D N 0.1643(2) -0.3133(3) 0.2007(2)
N5E N -0.1643(2) -0.6867(3) 0.2007(2)
N6A N 0.0882(2) -0.5710(3) -0.2791(2)
N6D N 0.0882(2) -0.5710(3) 0.2791(2)
N6E N -0.0882(2) -0.4290(3) 0.2791(2)
C1A C 0.2322(2) -0.3930(3) -0.2061(3)
C1D C 0.2322(2) -0.3930(3) 0.2061(3)
C1E C -0.2322(2) -0.6070(3) 0.2061(3)
H1E H -0.2674 -0.6246 0.2555
H1D H 0.2674 -0.3754 0.2555
H1A H 0.2674 -0.3754 -0.2555
C2A C 0.2776(2) -0.3751(3) -0.1195(3)
C2D C 0.2776(2) -0.3751(3) 0.1195(3)
C2E C -0.2776(2) -0.6249(3) 0.1195(3)
H2E H -0.3343 -0.6488 0.1287
H2D H 0.3343 -0.3512 0.1287
H2A H 0.3343 -0.3512 -0.1287
C3A C 0.1756(3) -0.5789(4) -0.2734(3)
C3D C 0.1756(3) -0.5789(4) 0.2734(3)
C3E C -0.1756(3) -0.4211(4) 0.2734(3)
H3A H 0.1991 -0.5506 -0.3269
H3D H 0.1991 -0.5506 0.3269
H3E H -0.1991 -0.4494 0.3269
H4A H 0.1907 -0.6602 -0.2675
H4D H 0.1907 -0.6602 0.2675
H4E H -0.1907 -0.3398 0.2675
C4A C 0.1080(3) -0.2898(3) -0.2708(3)
C4D C 0.1080(3) -0.2898(3) 0.2708(3)
C4E C -0.1080(3) -0.7102(3) 0.2708(3)
H5E H -0.0868 -0.7886 0.2644
H5D H 0.0868 -0.2114 0.2644
H5A H 0.0868 -0.2114 -0.2644
H6E H -0.1375 -0.7067 0.3249
H6D H 0.1375 -0.2933 0.3249
H6A H 0.1375 -0.2933 -0.3249
C5A C 0.2546(4) -0.2251(5) 0.0000
H7A H 0.2307 -0.1478 0.0000
H8A H 0.3134 -0.2161 0.0000
C6A C 0.3159(3) -0.5174(5) 0.0000
H9A H 0.3684 -0.4782 0.0000
H10A H 0.3262 -0.6006 0.0000
C7E C -0.1653(2) -0.7499(3) 0.1264(2)
C7D C 0.1653(2) -0.2501(3) 0.1264(2)
C7A C 0.1653(2) -0.2501(3) -0.1264(2)
C8A C 0.2363(2) -0.5678(3) -0.1293(3)
C8D C 0.2363(2) -0.5678(3) 0.1293(3)
C8E C -0.2363(2) -0.4322(3) 0.1293(3)
C9A C 0.0435(3) -0.4791(3) -0.3223(3)
C9D C 0.0435(3) -0.4791(3) 0.3223(3)
C9E C -0.0435(3) -0.5209(3) 0.3223(3)
H11A H 0.061(3) -0.471(4) -0.380(3)
H11D H 0.061(3) -0.471(4) 0.380(3)
H11E H -0.061(3) -0.529(4) 0.380(3)
C10A C 0.0371(3) -0.6592(3) -0.2540(3)
C10D C 0.0371(3) -0.6592(3) 0.2540(3)
C10E C -0.0371(3) -0.3408(3) 0.2540(3)
O6A O 0.0587(2) -0.7488(2) -0.2185(2)
O6E O -0.0587(2) -0.2512(2) 0.2185(2)
O6D O 0.0587(2) -0.7488(2) 0.2185(2)
S1 S 0.00142(8) 0.25926(12) 0.5000
O3 O -0.0813(3) 0.2883(6) 0.5000
O4 O 0.0493(4) 0.3630(7) 0.5000
O5 O 0.0289(3) 0.1969(6) 0.4275(4)
O5E O 0.0289(3) 0.1969(6) 0.5725(4)
O8 O -0.1324(12) -0.0650(15) 0.1366(16)
O9 O -0.2765(12) -0.096(2) 0.0000
O10 O -0.0258(12) -0.281(2) 0.0000
O7? O -0.0286(5) 0.0046(12) 0.6437(7)
O11? O -0.3229(14) -0.0302(18) 0.0000
O12? O -0.0207(18) -0.443(3) 0.0000
loop_
_geom_bond_atom_site_label_1
_geom_bond_atom_site_label_2
_geom_bond_site_symmetry_1
_geom_bond_site_symmetry_2
O1 C8 1_555 1_555
O2 C7 1_555 1_555
N1 C1 1_555 1_555
N2 C2 1_555 1_555
N3 C2 1_555 1_555
N4 C4 1_555 1_555
N5 C1 1_555 1_555
N6 C3 1_555 1_555
C1 H1 1_555 1_555
C2 C1 1_555 1_555
H2 C2 1_555 1_555
C3 N1 1_555 1_555
H3 C3 1_555 1_555
H4 C3 1_555 1_555
C4 N5 1_555 1_555
H5 C4 1_555 1_555
H6 C4 1_555 1_555
C5 N2 1_555 1_555
H7 C5 1_555 1_555
H8 C5 1_555 1_555
C6 N3 1_555 1_555
H9 C6 1_555 1_555
H10 C6 1_555 1_555
C7 N2 1_555 1_555
C8 N1 1_555 1_555
C9 N4 1_555 1_555
H11 C9 1_555 1_555
C10 N6 1_555 1_555
S1 O3 1_555 1_555
O4 S1 1_555 1_555
O5 S1 1_555 1_555
O6 C10 1_555 1_555
O1A C8A 1_555 1_555
O1D C8D 1_555 1_555
O1E C8E 1_555 1_555
O2E C7E 1_555 1_555
O2D C7D 1_555 1_555
O2A C7A 1_555 1_555
N1A C1A 1_555 1_555
N1D C1D 1_555 1_555
N1E C1E 1_555 1_555
N2A C2A 1_555 1_555
N2D C2D 1_555 1_555
N2E C5 1_555 1_555
N3A C2A 1_555 1_555
N3D C2D 1_555 1_555
N3E C6 1_555 1_555
N4A C10 1_555 1_555
N4D C4D 1_555 1_555
N4E C4E 1_555 1_555
N5A C1A 1_555 1_555
N5D C1D 1_555 1_555
N5E C1E 1_555 1_555
N6A C3A 1_555 1_555
N6D C3D 1_555 1_555
N6E C3E 1_555 1_555
C1A H1A 1_555 1_555
C1D H1D 1_555 1_555
C1E H1E 1_555 1_555
C2A C1A 1_555 1_555
C2D C1D 1_555 1_555
C2E N2E 1_555 1_555
H2E C2E 1_555 1_555
H2D C2D 1_555 1_555
H2A C2A 1_555 1_555
C3A N1A 1_555 1_555
C3D N1D 1_555 1_555
C3E N1E 1_555 1_555
H3A C3A 1_555 1_555
H3D C3D 1_555 1_555
H3E C3E 1_555 1_555
H4A C3A 1_555 1_555
H4D C3D 1_555 1_555
H4E C3E 1_555 1_555
C4A N4A 1_555 1_555
C4D N5D 1_555 1_555
C4E N5E 1_555 1_555
H5E C4E 1_555 1_555
H5D C4D 1_555 1_555
H5A C4A 1_555 1_555
H6E C4E 1_555 1_555
H6D C4D 1_555 1_555
H6A C4A 1_555 1_555
C5A N2A 1_555 1_555
H7A C5A 1_555 1_555
H8A C5A 1_555 1_555
C6A N3A 1_555 1_555
H9A C6A 1_555 1_555
H10A C6A 1_555 1_555
C7E N2E 1_555 1_555
C7D N2D 1_555 1_555
C7A N2A 1_555 1_555
C8A N1A 1_555 1_555
C8D N1D 1_555 1_555
C8E N1E 1_555 1_555
C9A C9 1_555 1_555
C9D N4D 1_555 1_555
C9E N4E 1_555 1_555
H11A C9A 1_555 1_555
H11D C9D 1_555 1_555
H11E C9E 1_555 1_555
C10A N4 1_555 1_555
C10D N4E 1_555 1_555
C10E N4D 1_555 1_555
O5E S1 1_555 1_555
O6A C10A 1_555 1_555
O6E C10E 1_555 1_555
O6D C10D 1_555 1_555
N3 C8 1_555 1_555
N5 C7 1_555 1_555
N6 C9 1_555 1_555
N2D C5A 1_555 1_555
N3A C8A 1_555 1_555
N3D C6A 1_555 1_555
N3D C8D 1_555 1_555
N3E C2E 1_555 1_555
N3E C8E 1_555 1_555
N4A C9A 1_555 1_555
N5A C4A 1_555 1_555
N5A C7A 1_555 1_555
N5D C7D 1_555 1_555
N5E C7E 1_555 1_555
N6A C9A 1_555 1_555
N6A C10A 1_555 1_555
N6D C9D 1_555 1_555
N6D C10D 1_555 1_555
N6E C9E 1_555 1_555
N6E C10E 1_555 1_555
C1E C2E 1_555 1_555
C9D C9E 1_555 1_555

#END
