
#######################################################################
#
#                 Cambridge Crystallographic Data Centre
#                                CCDC 
#
#######################################################################
#
# If this CIF has been generated from an entry in the Cambridge 
# Structural Database, then it will include bibliographic, chemical, 
# crystal, experimental, refinement or atomic coordinate data resulting 
# from the CCDC's data processing and validation procedures.
#
#######################################################################

data_TADKUH
_chemical_formula_moiety         'C10 H10 N2 O1'
_chemical_name_systematic        
2a,3,4,8b-tetrahydroazeto[3,2-c]isoquinolin-2(1H)-one
_symmetry_cell_setting           orthorhombic
_symmetry_space_group_name_H-M   'P 21 21 21'
_symmetry_Int_Tables_number      19
_space_group_name_Hall           'P 2ac 2ab'
loop_
_symmetry_equiv_pos_site_id
_symmetry_equiv_pos_as_xyz
1 x,y,z
2 1/2+x,1/2-y,-z
3 -x,1/2+y,1/2-z
4 1/2-x,-y,1/2+z
_cell_length_a                   6.61650(10)
_cell_length_b                   8.5077(2)
_cell_length_c                   15.0826(3)
_cell_angle_alpha                90
_cell_angle_beta                 90
_cell_angle_gamma                90
_cell_volume                     849.018
_exptl_crystal_colour            yellow
_exptl_crystal_description       prism
_cell_formula_units_Z            4
loop_
_atom_site_label
_atom_site_type_symbol
_atom_site_fract_x
_atom_site_fract_y
_atom_site_fract_z
O1 O 0.8422(3) 0.5593(3) 0.46769(15)
N1 N 0.5250(4) 0.6308(4) 0.52670(17)
H1 H 0.5261 0.7309 0.5413
N2 N 0.5890(4) 0.2598(3) 0.53892(18)
H2 H 0.6126 0.1671 0.5152
C1 C 0.6671(4) 0.5368(4) 0.49068(19)
C2 C 0.3661(4) 0.5082(4) 0.5335(2)
H3 H 0.2480 0.5298 0.4940
C3 C 0.3032(4) 0.4641(4) 0.6260(2)
C4 C 0.1243(5) 0.5212(4) 0.6620(2)
H4 H 0.0420 0.5909 0.6285
C5 C 0.0657(5) 0.4766(5) 0.7469(2)
H5 H -0.0564 0.5160 0.7715
C6 C 0.1860(5) 0.3744(5) 0.7955(2)
H6 H 0.1464 0.3442 0.8536
C7 C 0.5236(4) 0.3932(4) 0.4901(2)
H7 H 0.4833 0.3640 0.4284
C8 C 0.6125(5) 0.2953(4) 0.6337(2)
H8 H 0.7235 0.3721 0.6412
H9 H 0.6512 0.1979 0.6654
C9 C 0.4236(5) 0.3607(4) 0.6747(2)
C10 C 0.3630(6) 0.3165(4) 0.7597(2)
H10 H 0.4441 0.2461 0.7932
loop_
_geom_bond_atom_site_label_1
_geom_bond_atom_site_label_2
_geom_bond_site_symmetry_1
_geom_bond_site_symmetry_2
O1 C1 1_555 1_555
N1 H1 1_555 1_555
N2 H2 1_555 1_555
C1 N1 1_555 1_555
C2 N1 1_555 1_555
H3 C2 1_555 1_555
C3 C2 1_555 1_555
C4 C3 1_555 1_555
H4 C4 1_555 1_555
C5 C4 1_555 1_555
H5 C5 1_555 1_555
C6 C5 1_555 1_555
H6 C6 1_555 1_555
C7 N2 1_555 1_555
H7 C7 1_555 1_555
C8 N2 1_555 1_555
H8 C8 1_555 1_555
H9 C8 1_555 1_555
C9 C3 1_555 1_555
C10 C6 1_555 1_555
H10 C10 1_555 1_555
C1 C7 1_555 1_555
C2 C7 1_555 1_555
C8 C9 1_555 1_555
C9 C10 1_555 1_555

#END
