
#######################################################################
#
#                 Cambridge Crystallographic Data Centre
#                                CCDC 
#
#######################################################################
#
# If this CIF has been generated from an entry in the Cambridge 
# Structural Database, then it will include bibliographic, chemical, 
# crystal, experimental, refinement or atomic coordinate data resulting 
# from the CCDC's data processing and validation procedures.
#
#######################################################################

data_TADLIU01
_chemical_name_common            Fenofibrate
_chemical_formula_moiety         'C20 H21 Cl1 O4'
_chemical_name_systematic        
'1-Methylethyl 2-(4-(4-chlorobenzoyl)phenoxy)-2-methylpropanoate'
_chemical_properties_biological  'Fenofibrate is a hypolipidemic agent'
_symmetry_cell_setting           triclinic
_symmetry_space_group_name_H-M   'P -1'
_symmetry_Int_Tables_number      2
_space_group_name_Hall           '-P 1'
loop_
_symmetry_equiv_pos_site_id
_symmetry_equiv_pos_as_xyz
1 x,y,z
2 -x,-y,-z
_cell_length_a                   8.1325(15)
_cell_length_b                   8.2391(15)
_cell_length_c                   14.399(3)
_cell_angle_alpha                93.978(2)
_cell_angle_beta                 105.748(2)
_cell_angle_gamma                95.854(2)
_cell_volume                     918.983
_exptl_crystal_colour            colorless
_exptl_crystal_description       block
_cell_formula_units_Z            2
loop_
_atom_site_label
_atom_site_type_symbol
_atom_site_fract_x
_atom_site_fract_y
_atom_site_fract_z
C1 C 0.95374(15) 0.77876(13) 0.95123(8)
H1 H 0.840(2) 0.749(2) 0.9608(12)
C2 C 1.09907(16) 0.72731(14) 1.01165(8)
H2 H 1.091(2) 0.665(2) 1.0638(12)
C3 C 1.25858(15) 0.77441(14) 0.99804(8)
C4 C 1.27748(15) 0.87362(15) 0.92676(8)
H3 H 1.390(2) 0.902(2) 0.9187(12)
C5 C 1.13210(14) 0.92655(13) 0.86771(8)
H4 H 1.144(2) 0.994(2) 0.8194(12)
C6 C 0.96887(14) 0.87789(12) 0.87821(7)
C7 C 0.81893(13) 0.94140(13) 0.81212(7)
C8 C 0.64817(13) 0.83919(12) 0.77730(7)
C9 C 0.50473(14) 0.91726(12) 0.73536(8)
H5 H 0.519(2) 1.031(2) 0.7355(12)
C10 C 0.34409(13) 0.82877(12) 0.69740(8)
H6 H 0.247(2) 0.8826(19) 0.6703(11)
C11 C 0.32173(13) 0.65918(12) 0.70030(7)
C12 C 0.46300(13) 0.57852(12) 0.74073(8)
H7 H 0.4519(19) 0.4614(19) 0.7437(11)
C13 C 0.62478(13) 0.66920(12) 0.77882(8)
H8 H 0.721(2) 0.6085(19) 0.8050(11)
C14 C 0.09772(13) 0.43009(12) 0.68602(8)
C15 C 0.11874(15) 0.43517(14) 0.79442(8)
H9 H 0.239(2) 0.455(2) 0.8334(12)
H10 H 0.066(2) 0.332(2) 0.8074(12)
H11 H 0.059(2) 0.523(2) 0.8139(12)
C16 C -0.09187(14) 0.39783(14) 0.62860(10)
H12 H -0.154(2) 0.483(2) 0.6508(12)
H13 H -0.142(2) 0.292(2) 0.6408(12)
H14 H -0.106(2) 0.399(2) 0.5582(13)
C17 C 0.18634(13) 0.29180(12) 0.65140(8)
C18 C 0.28947(17) 0.18527(16) 0.52219(9)
H15 H 0.315(2) 0.105(2) 0.5651(14)
C19 C 0.4532(2) 0.2672(4) 0.5063(2)
H16 H 0.456(7) 0.352(7) 0.493(4)
H17 H 0.510(4) 0.190(3) 0.4801(19)
H18 H 0.520(4) 0.290(4) 0.573(3)
C20 C 0.1611(2) 0.11776(19) 0.42847(11)
H19 H 0.046(3) 0.070(3) 0.4414(19)
H20 H 0.209(2) 0.035(2) 0.3940(13)
H21 H 0.136(3) 0.205(3) 0.3869(17)
Cl1 Cl 1.44067(4) 0.70831(5) 1.07241(2)
O1 O 0.83901(11) 1.07746(10) 0.78481(6)
O2 O 0.15662(9) 0.58667(9) 0.65965(6)
O3 O 0.21932(13) 0.17530(10) 0.69551(7)
O4 O 0.21480(12) 0.31419(10) 0.56663(6)
loop_
_geom_bond_atom_site_label_1
_geom_bond_atom_site_label_2
_geom_bond_site_symmetry_1
_geom_bond_site_symmetry_2
C1 H1 1_555 1_555
C2 C1 1_555 1_555
H2 C2 1_555 1_555
C3 C2 1_555 1_555
C4 C3 1_555 1_555
H3 C4 1_555 1_555
C5 C4 1_555 1_555
H4 C5 1_555 1_555
C6 C1 1_555 1_555
C7 C6 1_555 1_555
C8 C7 1_555 1_555
C9 C8 1_555 1_555
H5 C9 1_555 1_555
C10 C9 1_555 1_555
H6 C10 1_555 1_555
C11 C10 1_555 1_555
C12 C11 1_555 1_555
H7 C12 1_555 1_555
C13 C8 1_555 1_555
H8 C13 1_555 1_555
C14 C15 1_555 1_555
C15 H9 1_555 1_555
H10 C15 1_555 1_555
H11 C15 1_555 1_555
C16 C14 1_555 1_555
H12 C16 1_555 1_555
H13 C16 1_555 1_555
H14 C16 1_555 1_555
C17 C14 1_555 1_555
C18 H15 1_555 1_555
C19 C18 1_555 1_555
H16 C19 1_555 1_555
H17 C19 1_555 1_555
H18 C19 1_555 1_555
C20 C18 1_555 1_555
H19 C20 1_555 1_555
H20 C20 1_555 1_555
H21 C20 1_555 1_555
Cl1 C3 1_555 1_555
O1 C7 1_555 1_555
O2 C11 1_555 1_555
O3 C17 1_555 1_555
O4 C17 1_555 1_555
C5 C6 1_555 1_555
C12 C13 1_555 1_555
C14 O2 1_555 1_555
C18 O4 1_555 1_555

#END
