
#######################################################################
#
#                 Cambridge Crystallographic Data Centre
#                                CCDC 
#
#######################################################################
#
# If this CIF has been generated from an entry in the Cambridge 
# Structural Database, then it will include bibliographic, chemical, 
# crystal, experimental, refinement or atomic coordinate data resulting 
# from the CCDC's data processing and validation procedures.
#
#######################################################################

data_TADLUH
_chemical_formula_moiety         'C36 H45 N3 O5'
_chemical_name_systematic        
'Ethyl 2-(3-((4-(cyclohexylmethyl)piperazin-1-yl)carbonyl)phenyl)-8,9-dimethoxy-3-methyl-5,6-dihydropyrrolo[2,1-a]isoquinoline-1-carboxylate'
_chemical_properties_biological  
'tested for cytotoxicity against various human cancer cell lines'
_symmetry_cell_setting           monoclinic
_symmetry_space_group_name_H-M   'P 21/n'
_symmetry_Int_Tables_number      14
_space_group_name_Hall           '-P 2yn'
loop_
_symmetry_equiv_pos_site_id
_symmetry_equiv_pos_as_xyz
1 x,y,z
2 1/2-x,1/2+y,1/2-z
3 -x,-y,-z
4 1/2+x,1/2-y,1/2+z
_cell_length_a                   10.400(1)
_cell_length_b                   11.217(1)
_cell_length_c                   27.800(2)
_cell_angle_alpha                90
_cell_angle_beta                 96.122(1)
_cell_angle_gamma                90
_cell_volume                     3224.56
_exptl_crystal_colour            colorless
_exptl_crystal_description       square-pyramid
_chemical_melting_point          '160 deg.C'
_cell_formula_units_Z            4
loop_
_atom_site_label
_atom_site_type_symbol
_atom_site_fract_x
_atom_site_fract_y
_atom_site_fract_z
O1 O 0.5741(3) 1.0142(3) 0.17649(10)
O2 O 0.64922(19) 0.8350(2) 0.17393(6)
O3 O 0.2190(3) 1.4204(2) 0.06979(9)
O4 O 0.4071(3) 1.3754(2) 0.13441(9)
O5 O 1.04529(18) 0.74987(18) 0.06392(7)
C1 C 0.5300(2) 0.8983(2) 0.10445(9)
C2 C 0.5535(2) 0.7901(2) 0.07949(9)
C3 C 0.4689(2) 0.7866(2) 0.03820(9)
N1 N 0.39558(19) 0.88877(19) 0.03710(7)
C4 C 0.2998(3) 0.9244(3) -0.00321(10)
H1 H 0.2595 0.8541 -0.0186
H2 H 0.3422 0.9680 -0.0272
C5 C 0.1997(3) 1.0009(3) 0.01566(11)
H3 H 0.1472 0.9531 0.0351
H4 H 0.1435 1.0336 -0.0112
C6 C 0.2611(3) 1.1006(3) 0.04575(10)
C7 C 0.2111(3) 1.2155(3) 0.04233(11)
H5 H 0.1416 1.2318 0.0194
C8 C 0.2615(4) 1.3054(3) 0.07184(11)
C9 C 0.3645(3) 1.2808(3) 0.10613(10)
C10 C 0.4189(3) 1.1696(3) 0.10882(10)
H6 H 0.4900 1.1551 0.1313
C11 C 0.3695(3) 1.0767(2) 0.07818(9)
C12 C 0.4313(2) 0.9594(2) 0.07646(9)
C13 C 0.5859(3) 0.9259(3) 0.15380(11)
C14 C 0.4509(3) 0.6964(3) -0.00119(10)
H7 H 0.5189 0.6383 0.0033
H8 H 0.4533 0.7351 -0.0319
H9 H 0.3689 0.6576 -0.0004
C15 C 0.6557(2) 0.6991(2) 0.09059(9)
C16 C 0.7857(2) 0.7310(2) 0.09267(9)
H10 H 0.8072 0.8106 0.0887
C17 C 0.8840(2) 0.6473(2) 0.10056(9)
C18 C 0.8514(3) 0.5285(2) 0.10520(10)
H11 H 0.9160 0.4712 0.1103
C19 C 0.7236(3) 0.4951(3) 0.10232(11)
H12 H 0.7023 0.4150 0.1049
C20 C 0.6265(3) 0.5794(3) 0.09556(10)
H13 H 0.5406 0.5556 0.0943
C21 C 1.0207(2) 0.6885(2) 0.09825(10)
N2 N 1.11184(19) 0.6535(2) 0.13325(8)
C22 C 1.0914(3) 0.5924(3) 0.17799(10)
H14 H 1.1286 0.5131 0.1779
H15 H 0.9994 0.5843 0.1803
C23 C 1.1529(3) 0.6609(3) 0.22087(10)
H16 H 1.1108 0.7378 0.2223
H17 H 1.1410 0.6178 0.2503
N3 N 1.2899(2) 0.6787(2) 0.21789(9)
C24 C 1.3075(3) 0.7436(3) 0.17357(12)
H18 H 1.3992 0.7545 0.1713
H19 H 1.2682 0.8218 0.1748
C25 C 1.2486(3) 0.6789(3) 0.12978(11)
H20 H 1.2568 0.7270 0.1013
H21 H 1.2947 0.6047 0.1264
C26 C 1.3690(13) 0.7417(10) 0.2557(3)
H22 H 1.3250 0.8141 0.2638
H23 H 1.4501 0.7643 0.2440
C27 C 1.3962(9) 0.6664(7) 0.3004(3)
H24 H 1.3132 0.6525 0.3132
C28 C 1.4791(11) 0.7390(9) 0.3380(4)
H25 H 1.5530 0.7692 0.3233
H26 H 1.4290 0.8072 0.3467
C29 C 1.5278(8) 0.6736(6) 0.3837(2)
H27 H 1.4557 0.6550 0.4019
H28 H 1.5873 0.7244 0.4037
C30 C 1.5966(10) 0.5584(8) 0.3721(3)
H29 H 1.6322 0.5177 0.4013
H30 H 1.6652 0.5734 0.3518
C31 C 1.4824(11) 0.4850(10) 0.3442(4)
H31 H 1.4063 0.4876 0.3615
H32 H 1.5075 0.4024 0.3406
C32 C 1.4543(8) 0.5467(5) 0.2928(2)
H33 H 1.5339 0.5555 0.2779
H34 H 1.3948 0.4985 0.2717
C33 C 0.7085(3) 0.8432(4) 0.22283(11)
H35 H 0.6443 0.8611 0.2446
H36 H 0.7736 0.9055 0.2257
C34 C 0.7687(4) 0.7248(4) 0.23446(13)
H37 H 0.7050 0.6634 0.2280
H38 H 0.8020 0.7227 0.2680
H39 H 0.8381 0.7121 0.2148
C35 C 0.1453(4) 1.4575(4) 0.02945(14)
H40 H 0.1888 1.4400 0.0015
H41 H 0.1314 1.5419 0.0313
H42 H 0.0636 1.4170 0.0269
C36 C 0.4835(4) 1.3575(4) 0.17532(14)
H43 H 0.4513 1.2915 0.1925
H44 H 0.4845 1.4278 0.1951
H45 H 0.5696 1.3402 0.1680
C37? C 1.3372(12) 0.7400(10) 0.2659(4)
C38? C 1.4412(8) 0.6725(7) 0.2953(4)
C39? C 1.5153(11) 0.7460(10) 0.3346(4)
C40? C 1.6200(8) 0.6754(6) 0.3648(3)
C41? C 1.5633(11) 0.5608(8) 0.3846(3)
C42? C 1.5157(11) 0.4856(9) 0.3388(4)
C43? C 1.3929(7) 0.5587(6) 0.3147(3)
H46? H 1.3693 0.8187 0.2591
H47? H 1.2645 0.7499 0.2847
H48? H 1.5038 0.6497 0.2730
H49? H 1.4552 0.7775 0.3558
H50? H 1.5551 0.8130 0.3199
H51? H 1.6574 0.7241 0.3916
H52? H 1.6882 0.6548 0.3450
H53? H 1.4919 0.5795 0.4031
H54? H 1.6287 0.5179 0.4052
H55? H 1.4912 0.4058 0.3477
H56? H 1.5821 0.4802 0.3169
H57? H 1.3470 0.5126 0.2888
H58? H 1.3340 0.5754 0.3387
loop_
_geom_bond_atom_site_label_1
_geom_bond_atom_site_label_2
_geom_bond_site_symmetry_1
_geom_bond_site_symmetry_2
O1 C13 1_555 1_555
O2 C13 1_555 1_555
O3 C8 1_555 1_555
O4 C9 1_555 1_555
O5 C21 1_555 1_555
C1 C2 1_555 1_555
C2 C3 1_555 1_555
C3 N1 1_555 1_555
N1 C4 1_555 1_555
C4 H1 1_555 1_555
H2 C4 1_555 1_555
C5 C4 1_555 1_555
H3 C5 1_555 1_555
H4 C5 1_555 1_555
C6 C5 1_555 1_555
C7 C6 1_555 1_555
H5 C7 1_555 1_555
C8 C7 1_555 1_555
C9 C8 1_555 1_555
C10 C9 1_555 1_555
H6 C10 1_555 1_555
C11 C6 1_555 1_555
C12 C1 1_555 1_555
C13 C1 1_555 1_555
C14 C3 1_555 1_555
H7 C14 1_555 1_555
H8 C14 1_555 1_555
H9 C14 1_555 1_555
C15 C2 1_555 1_555
C16 C15 1_555 1_555
H10 C16 1_555 1_555
C17 C16 1_555 1_555
C18 C17 1_555 1_555
H11 C18 1_555 1_555
C19 C18 1_555 1_555
H12 C19 1_555 1_555
C20 C15 1_555 1_555
H13 C20 1_555 1_555
C21 C17 1_555 1_555
N2 C21 1_555 1_555
C22 N2 1_555 1_555
H14 C22 1_555 1_555
H15 C22 1_555 1_555
C23 C22 1_555 1_555
H16 C23 1_555 1_555
H17 C23 1_555 1_555
N3 C23 1_555 1_555
C24 N3 1_555 1_555
H18 C24 1_555 1_555
H19 C24 1_555 1_555
C25 N2 1_555 1_555
H20 C25 1_555 1_555
H21 C25 1_555 1_555
C26 N3 1_555 1_555
H22 C26 1_555 1_555
H23 C26 1_555 1_555
C27 C26 1_555 1_555
H24 C27 1_555 1_555
C28 C27 1_555 1_555
H25 C28 1_555 1_555
H26 C28 1_555 1_555
C29 C28 1_555 1_555
H27 C29 1_555 1_555
H28 C29 1_555 1_555
C30 C29 1_555 1_555
H29 C30 1_555 1_555
H30 C30 1_555 1_555
C31 C30 1_555 1_555
H31 C31 1_555 1_555
H32 C31 1_555 1_555
C32 C27 1_555 1_555
H33 C32 1_555 1_555
H34 C32 1_555 1_555
C33 O2 1_555 1_555
H35 C33 1_555 1_555
H36 C33 1_555 1_555
C34 C33 1_555 1_555
H37 C34 1_555 1_555
H38 C34 1_555 1_555
H39 C34 1_555 1_555
C35 O3 1_555 1_555
H40 C35 1_555 1_555
H41 C35 1_555 1_555
H42 C35 1_555 1_555
C36 O4 1_555 1_555
H43 C36 1_555 1_555
H44 C36 1_555 1_555
H45 C36 1_555 1_555
N1 C12 1_555 1_555
C10 C11 1_555 1_555
C11 C12 1_555 1_555
C19 C20 1_555 1_555
C24 C25 1_555 1_555
C31 C32 1_555 1_555

#END
