
#######################################################################
#
#                 Cambridge Crystallographic Data Centre
#                                CCDC 
#
#######################################################################
#
# If this CIF has been generated from an entry in the Cambridge 
# Structural Database, then it will include bibliographic, chemical, 
# crystal, experimental, refinement or atomic coordinate data resulting 
# from the CCDC's data processing and validation procedures.
#
#######################################################################

data_TADMAN
_chemical_formula_moiety         'C23 H27 N1 O4 S1'
_chemical_name_systematic        
(1R,2S)-1-(6-Methoxy-2-naphthyl)-3-methyl-2-(p-methylphenylsulfonylamino)-butan-1-ol
_symmetry_cell_setting           orthorhombic
_symmetry_space_group_name_H-M   'P 21 21 21'
_symmetry_Int_Tables_number      19
_space_group_name_Hall           'P 2ac 2ab'
loop_
_symmetry_equiv_pos_site_id
_symmetry_equiv_pos_as_xyz
1 x,y,z
2 1/2-x,-y,1/2+z
3 -x,1/2+y,1/2-z
4 1/2+x,1/2-y,-z
_cell_length_a                   7.3107(13)
_cell_length_b                   11.5702(19)
_cell_length_c                   25.117(4)
_cell_angle_alpha                90
_cell_angle_beta                 90
_cell_angle_gamma                90
_cell_volume                     2124.55
_exptl_crystal_colour            colorless
_exptl_crystal_description       prism
_cell_formula_units_Z            4
_exptl_crystal_recrystallization_method dichloromethane-hexane
loop_
_atom_site_label
_atom_site_type_symbol
_atom_site_fract_x
_atom_site_fract_y
_atom_site_fract_z
S1 S 0.89213(11) 0.55394(7) 0.78967(3)
O1 O 0.3267(3) 0.78719(18) 0.76802(7)
H1 H 0.2157 0.7811 0.7718
O2 O 0.4350(4) 0.5250(2) 1.08884(9)
O3 O 0.9870(3) 0.46719(19) 0.75994(7)
O4 O 0.9685(3) 0.66785(16) 0.79438(8)
N1 N 0.6906(3) 0.5672(2) 0.76437(9)
H2 H 0.6325 0.5047 0.7567
C1 C 0.5976(4) 0.6775(2) 0.75330(10)
H3 H 0.6732 0.7397 0.7681
C2 C 0.4131(4) 0.6802(2) 0.78197(10)
H4 H 0.3377 0.6160 0.7690
C3 C 0.4319(4) 0.6707(3) 0.84175(12)
C4 C 0.3694(4) 0.5770(3) 0.86830(13)
H5 H 0.3144 0.5174 0.8494
C5 C 0.3861(5) 0.5677(3) 0.92531(13)
C6 C 0.3222(5) 0.4720(3) 0.95269(16)
H6 H 0.2658 0.4123 0.9341
C7 C 0.3411(5) 0.4646(4) 1.00643(15)
H7 H 0.2962 0.3999 1.0241
C8 C 0.4258(5) 0.5514(4) 1.03559(14)
C9 C 0.4884(5) 0.6479(3) 1.01131(13)
H8 H 0.5449 0.7060 1.0309
C10 C 0.4656(4) 0.6590(3) 0.95387(14)
C11 C 0.5270(5) 0.7561(3) 0.92686(14)
H9 H 0.5796 0.8171 0.9455
C12 C 0.5096(4) 0.7619(3) 0.87195(13)
H10 H 0.5501 0.8278 0.8543
C13 C 0.5269(7) 0.6015(3) 1.12179(14)
H11 H 0.5206 0.5745 1.1579
H12 H 0.4712 0.6764 1.1194
H13 H 0.6526 0.6065 1.1110
C14 C 0.5815(5) 0.6977(3) 0.69304(10)
H14 H 0.5159 0.7708 0.6880
C15 C 0.7690(5) 0.7120(3) 0.66811(12)
H15 H 0.7557 0.7300 0.6310
H16 H 0.8369 0.6414 0.6719
H17 H 0.8331 0.7736 0.6856
C16 C 0.4717(5) 0.6043(3) 0.66478(12)
H18 H 0.4553 0.6254 0.6281
H19 H 0.3544 0.5965 0.6816
H20 H 0.5362 0.5322 0.6668
C17 C 0.8640(4) 0.4988(3) 0.85464(11)
C18 C 0.8247(5) 0.3843(3) 0.86198(12)
H21 H 0.8102 0.3356 0.8328
C19 C 0.8067(5) 0.3418(3) 0.91305(13)
H22 H 0.7769 0.2643 0.9177
C20 C 0.8311(4) 0.4092(3) 0.95679(13)
C21 C 0.8687(5) 0.5237(3) 0.94852(13)
H23 H 0.8838 0.5722 0.9777
C22 C 0.8848(4) 0.5685(3) 0.89785(12)
H24 H 0.9098 0.6467 0.8932
C23 C 0.8160(5) 0.3623(3) 1.01318(12)
H25 H 0.6947 0.3331 1.0190
H26 H 0.8408 0.4231 1.0382
H27 H 0.9030 0.3010 1.0180
loop_
_geom_bond_atom_site_label_1
_geom_bond_atom_site_label_2
_geom_bond_site_symmetry_1
_geom_bond_site_symmetry_2
S1 O3 1_555 1_555
O1 H1 1_555 1_555
O2 C8 1_555 1_555
O4 S1 1_555 1_555
N1 S1 1_555 1_555
H2 N1 1_555 1_555
C1 N1 1_555 1_555
H3 C1 1_555 1_555
C2 O1 1_555 1_555
H4 C2 1_555 1_555
C3 C2 1_555 1_555
C4 C3 1_555 1_555
H5 C4 1_555 1_555
C5 C4 1_555 1_555
C6 C5 1_555 1_555
H6 C6 1_555 1_555
C7 C6 1_555 1_555
H7 C7 1_555 1_555
C8 C7 1_555 1_555
C9 C8 1_555 1_555
H8 C9 1_555 1_555
C10 C5 1_555 1_555
C11 C10 1_555 1_555
H9 C11 1_555 1_555
C12 C3 1_555 1_555
H10 C12 1_555 1_555
C13 O2 1_555 1_555
H11 C13 1_555 1_555
H12 C13 1_555 1_555
H13 C13 1_555 1_555
C14 C1 1_555 1_555
H14 C14 1_555 1_555
C15 C14 1_555 1_555
H15 C15 1_555 1_555
H16 C15 1_555 1_555
H17 C15 1_555 1_555
C16 C14 1_555 1_555
H18 C16 1_555 1_555
H19 C16 1_555 1_555
H20 C16 1_555 1_555
C17 S1 1_555 1_555
C18 C17 1_555 1_555
H21 C18 1_555 1_555
C19 C18 1_555 1_555
H22 C19 1_555 1_555
C20 C19 1_555 1_555
C21 C20 1_555 1_555
H23 C21 1_555 1_555
C22 C17 1_555 1_555
H24 C22 1_555 1_555
C23 C20 1_555 1_555
H25 C23 1_555 1_555
H26 C23 1_555 1_555
H27 C23 1_555 1_555
C1 C2 1_555 1_555
C9 C10 1_555 1_555
C11 C12 1_555 1_555
C21 C22 1_555 1_555

#END
