
#######################################################################
#
#                 Cambridge Crystallographic Data Centre
#                                CCDC 
#
#######################################################################
#
# If this CIF has been generated from an entry in the Cambridge 
# Structural Database, then it will include bibliographic, chemical, 
# crystal, experimental, refinement or atomic coordinate data resulting 
# from the CCDC's data processing and validation procedures.
#
#######################################################################

data_TADPAR
_chemical_name_common            'Proctolin ethanol solvate hydrate'
_chemical_formula_moiety         'C30 H48 N8 O8,0.5(C2 H6 O1),3.5(H2 O1)'
_chemical_name_systematic        
'Argininyl-tyrosinyl-prolinyl-threonine ethanol solvate hydrate'
_chemical_properties_biological  'myotropic insect neuromodulator'
_symmetry_cell_setting           orthorhombic
_symmetry_space_group_name_H-M   'P 21 21 2'
_symmetry_Int_Tables_number      18
_space_group_name_Hall           'P 2 2ab'
loop_
_symmetry_equiv_pos_site_id
_symmetry_equiv_pos_as_xyz
1 x,y,z
2 -x,-y,z
3 1/2-x,1/2+y,-z
4 1/2+x,1/2-y,-z
_cell_length_a                   34.710(7)
_cell_length_b                   42.495(9)
_cell_length_c                   15.363(3)
_cell_angle_alpha                90
_cell_angle_beta                 90
_cell_angle_gamma                90
_cell_volume                     22660.4
_exptl_crystal_description       plate
_cell_formula_units_Z            16
loop_
_atom_site_label
_atom_site_type_symbol
_atom_site_fract_x
_atom_site_fract_y
_atom_site_fract_z
O1 O 0.04428(15) 0.76502(11) 0.4713(3)
O2 O 0.10907(11) 0.70203(11) 0.5880(3)
O3 O 0.12800(11) 0.78691(10) 0.8082(3)
O4 O 0.21153(10) 0.76731(8) 0.9023(2)
O5 O 0.16315(11) 0.86201(9) 1.0153(3)
H1 H 0.1570 0.8539 1.0617
O6 O 0.23108(10) 0.83410(9) 1.1569(2)
O7 O 0.17492(9) 0.80917(8) 1.1688(2)
O8 O 0.05228(11) 0.70809(12) 1.0186(2)
H2 H 0.0474 0.7262 1.0334
N1 N 0.19085(12) 0.76777(11) 0.3052(3)
H3 H 0.2099 0.7697 0.3406
H4 H 0.1843 0.7832 0.2722
N2 N 0.18267(13) 0.71800(11) 0.3530(3)
H5 H 0.1701 0.7039 0.3461
N3 N 0.14171(11) 0.73796(11) 0.2482(3)
H6 H 0.1360 0.7538 0.2159
C1 C 0.17150(14) 0.74082(12) 0.3013(3)
C2 C 0.11791(15) 0.70978(14) 0.2407(4)
H7 H 0.1340 0.6913 0.2477
H8 H 0.1066 0.7090 0.1830
C3 C 0.08573(15) 0.70900(14) 0.3089(4)
H9 H 0.0732 0.6886 0.3070
H10 H 0.0969 0.7115 0.3663
N4 N -0.00651(12) 0.75604(13) 0.3365(3)
H11 H -0.0127 0.7704 0.3735
H12 H -0.0170 0.7558 0.2859
N5 N 0.03447(11) 0.71415(11) 0.5072(3)
H13 H 0.0289 0.6955 0.4891
N6 N 0.09780(12) 0.74784(11) 0.6567(3)
H14 H 0.0804 0.7615 0.6700
N7 N 0.14681(11) 0.73720(10) 0.8366(3)
N8 N 0.17393(11) 0.79063(9) 1.0031(3)
H15 H 0.1519 0.7907 1.0288
C4 C 0.05596(15) 0.73440(14) 0.2945(3)
H16 H 0.0461 0.7328 0.2357
H17 H 0.0681 0.7548 0.3006
C5 C 0.02188(15) 0.73207(15) 0.3598(3)
H18 H 0.0102 0.7111 0.3567
C6 C 0.03459(15) 0.73892(15) 0.4514(4)
C7 C 0.04395(14) 0.71962(13) 0.5986(3)
H19 H 0.0314 0.7391 0.6177
C8 C 0.08729(15) 0.72274(14) 0.6130(3)
C9 C 0.13751(14) 0.75386(13) 0.6838(3)
H20 H 0.1532 0.7351 0.6732
C10 C 0.13628(13) 0.76062(14) 0.7812(3)
C11 C 0.15451(17) 0.70451(13) 0.8151(4)
H21 H 0.1799 0.7024 0.7893
H22 H 0.1356 0.6968 0.7739
C12 C 0.1523(3) 0.68651(19) 0.8975(5)
H23 H 0.1684 0.6678 0.8956
H24 H 0.1261 0.6805 0.9112
C13 C 0.1682(3) 0.71123(19) 0.9633(6)
H25 H 0.1961 0.7118 0.9621
H26 H 0.1597 0.7066 1.0221
C16 C 0.15030(16) 0.74375(14) 0.9299(3)
C17 C 0.18078(13) 0.76889(12) 0.9438(3)
C18 C 0.20214(15) 0.81446(12) 1.0270(3)
H32 H 0.2276 0.8065 1.0103
C19 C 0.19597(16) 0.84583(13) 0.9799(4)
H33 H 0.2186 0.8589 0.9921
C20 C 0.19292(19) 0.84306(15) 0.8828(4)
H34 H 0.1889 0.8635 0.8580
H35 H 0.1716 0.8296 0.8682
H36 H 0.2163 0.8342 0.8601
C21 C 0.20227(14) 0.81931(11) 1.1252(3)
C22 C 0.02868(15) 0.69205(13) 0.6540(3)
H37 H 0.0013 0.6895 0.6430
H38 H 0.0415 0.6728 0.6362
C23 C 0.03504(10) 0.69698(8) 0.75224(14)
C24 C 0.02851(10) 0.72615(7) 0.79040(18)
H39 H 0.0206 0.7431 0.7564
C25 C 0.03386(10) 0.73007(6) 0.87942(18)
H40 H 0.0295 0.7496 0.9049
C26 C 0.04573(10) 0.70482(8) 0.93027(14)
C27 C 0.05226(11) 0.67564(7) 0.89211(19)
H41 H 0.0602 0.6587 0.9261
C28 C 0.04691(10) 0.67172(6) 0.8031(2)
H42 H 0.0513 0.6522 0.7776
C29 C 0.15490(16) 0.78185(14) 0.6351(4)
H43 H 0.1520 0.7784 0.5730
H44 H 0.1405 0.8007 0.6501
C30 C 0.19727(16) 0.78730(14) 0.6553(4)
H45 H 0.2006 0.7878 0.7186
C31 C 0.22243(18) 0.76174(16) 0.6185(4)
H46 H 0.2142 0.7417 0.6406
H47 H 0.2487 0.7654 0.6352
H48 H 0.2205 0.7618 0.5561
C32 C 0.2095(2) 0.8189(2) 0.6183(8)
H49 H 0.1936 0.8352 0.6424
H50 H 0.2067 0.8186 0.5562
H51 H 0.2359 0.8228 0.6331
O9 O 0.32005(17) 0.53974(10) 0.6723(3)
O10 O 0.34308(16) 0.46400(11) 0.4957(3)
O11 O 0.36435(14) 0.40247(9) 0.7506(3)
O12 O 0.44428(11) 0.35306(11) 0.7255(4)
O13 O 0.40261(13) 0.32925(11) 1.0063(3)
H52 H 0.3924 0.3127 0.9912
O14 O 0.45785(10) 0.26589(11) 0.9307(2)
O15 O 0.39587(10) 0.26833(9) 0.8931(2)
O16 O 0.27778(10) 0.33929(8) 0.6718(2)
H53 H 0.2720 0.3373 0.7233
N9 N 0.3796(8) 0.6462(7) 0.1970(17)
H54 H 0.3644 0.6589 0.1703
H55 H 0.3959 0.6351 0.1681
N10 N 0.3561(4) 0.6581(3) 0.3298(8)
N11 N 0.3740(6) 0.6115(5) 0.2977(15)
H56 H 0.3852 0.6003 0.2585
C33 C 0.3778(5) 0.6434(3) 0.2899(8)
C34 C 0.3515(7) 0.5930(4) 0.3702(11)
H57 H 0.3265 0.6026 0.3803
H58 H 0.3476 0.5713 0.3527
C35 C 0.3742(6) 0.5944(3) 0.4467(13)
H59 H 0.3740 0.6158 0.4692
H60 H 0.4006 0.5890 0.4327
N12 N 0.3053(2) 0.59743(13) 0.5933(4)
H61 H 0.3218 0.6119 0.6053
H62 H 0.2820 0.5990 0.6119
N13 N 0.29611(17) 0.51543(11) 0.5534(3)
H63 H 0.2866 0.5178 0.5021
N14 N 0.35056(15) 0.45329(11) 0.6384(4)
H64 H 0.3427 0.4573 0.6904
N15 N 0.38225(14) 0.37530(11) 0.6341(3)
N16 N 0.40499(12) 0.32428(11) 0.8135(3)
H65 H 0.3815 0.3193 0.8251
C36 C 0.3591(3) 0.57219(18) 0.5154(6)
H66 H 0.3673 0.5513 0.4983
H67 H 0.3729 0.5772 0.5686
C37 C 0.3171(2) 0.56949(13) 0.5400(4)
H68 H 0.3014 0.5685 0.4871
C38 C 0.31068(19) 0.54019(13) 0.5934(4)
C39 C 0.29537(19) 0.48391(13) 0.5926(4)
H69 H 0.2933 0.4861 0.6559
C40 C 0.3316(2) 0.46672(13) 0.5718(4)
C41 C 0.3827(2) 0.43296(15) 0.6284(5)
C42 C 0.37538(17) 0.40204(14) 0.6746(5)
C43 C 0.3938(2) 0.37153(16) 0.5428(5)
H70 H 0.4157 0.3848 0.5290
H71 H 0.3727 0.3767 0.5039
C44 C 0.4047(3) 0.33582(19) 0.5359(6)
H72 H 0.4319 0.3325 0.5473
H73 H 0.3984 0.3274 0.4790
C45 C 0.3793(2) 0.32094(16) 0.6080(5)
H74 H 0.3535 0.3168 0.5866
H75 H 0.3905 0.3014 0.6289
C46 C 0.37866(17) 0.34544(13) 0.6788(4)
H76 H 0.3542 0.3445 0.7108
C47 C 0.41218(16) 0.34152(13) 0.7406(5)
C48 C 0.43507(15) 0.31396(16) 0.8726(4)
H77 H 0.4598 0.3153 0.8422
C49 C 0.43697(17) 0.33493(19) 0.9528(5)
H78 H 0.4598 0.3291 0.9867
C50 C 0.4394(3) 0.3707(2) 0.9306(7)
H79 H 0.4403 0.3827 0.9836
H80 H 0.4171 0.3768 0.8976
H81 H 0.4622 0.3747 0.8971
C51 C 0.42877(16) 0.27980(14) 0.9001(3)
C52 C 0.2608(2) 0.46596(15) 0.5595(5)
H82 H 0.2603 0.4667 0.4965
H83 H 0.2374 0.4757 0.5811
C53 C 0.26228(13) 0.43134(6) 0.5897(2)
C54 C 0.27547(14) 0.40842(8) 0.53245(17)
H84 H 0.2811 0.4137 0.4751
C55 C 0.28028(13) 0.37763(7) 0.56092(19)
H85 H 0.2891 0.3623 0.5226
C56 C 0.27190(11) 0.36974(6) 0.6467(2)
C57 C 0.25872(12) 0.39266(7) 0.70395(17)
H86 H 0.2531 0.3874 0.7613
C58 C 0.25391(13) 0.42346(7) 0.6755(2)
H87 H 0.2451 0.4388 0.7138
C59 C 0.4194(4) 0.4463(3) 0.6541(11)
H88 H 0.4366 0.4284 0.6581
H89 H 0.4155 0.4534 0.7134
C60 C 0.4436(8) 0.4722(6) 0.6118(15)
H90 H 0.4212 0.4841 0.5915
C61 C 0.4549(8) 0.4965(6) 0.6784(17)
H91 H 0.4674 0.5138 0.6499
H92 H 0.4722 0.4873 0.7198
H93 H 0.4323 0.5039 0.7079
C62 C 0.4553(8) 0.4619(6) 0.5209(15)
H94 H 0.4710 0.4778 0.4947
H95 H 0.4326 0.4586 0.4862
H96 H 0.4696 0.4426 0.5245
O17 O 0.42441(16) 0.73803(12) -0.0166(3)
O18 O 0.36214(11) 0.80692(11) 0.0910(3)
O19 O 0.33851(10) 0.72371(9) 0.3100(2)
O20 O 0.25437(10) 0.74200(8) 0.3999(2)
O21 O 0.31075(11) 0.65260(9) 0.5037(3)
H97 H 0.3149 0.6358 0.4791
O22 O 0.23807(10) 0.67606(9) 0.6561(2)
O23 O 0.29443(9) 0.70108(8) 0.6677(2)
O24 O 0.41346(11) 0.81119(11) 0.5169(2)
H98 H 0.4142 0.7931 0.5354
N17 N 0.28546(14) 0.79087(12) -0.1390(3)
H99 H 0.2663 0.7881 -0.1043
H100 H 0.2983 0.8082 -0.1376
N18 N 0.27503(13) 0.74240(12) -0.1948(3)
H101 H 0.2811 0.7322 -0.2322
N19 N 0.32587(12) 0.77153(12) -0.2474(3)
H102 H 0.3308 0.7568 -0.2842
N20 N 0.46899(12) 0.74125(13) -0.1645(3)
H103 H 0.4612 0.7299 -0.2074
H104 H 0.4901 0.7366 -0.1381
N21 N 0.43578(12) 0.78912(12) 0.0092(3)
H105 H 0.4419 0.8071 -0.0127
N22 N 0.36978(12) 0.75954(11) 0.1552(3)
H106 H 0.3860 0.7448 0.1662
N23 N 0.31859(11) 0.77319(9) 0.3317(3)
N24 N 0.29318(11) 0.72023(10) 0.5015(3)
H107 H 0.3150 0.7212 0.5278
C63 C 0.29532(14) 0.76817(13) -0.1952(3)
C64 C 0.35175(18) 0.79942(18) -0.2453(4)
H108 H 0.3363 0.8181 -0.2351
H109 H 0.3638 0.8017 -0.3020
C65 C 0.38287(18) 0.79786(17) -0.1770(4)
H110 H 0.3712 0.7949 -0.1202
H111 H 0.3970 0.8176 -0.1761
C66 C 0.41073(17) 0.77075(17) -0.1957(4)
H112 H 0.4195 0.7726 -0.2555
H113 H 0.3966 0.7511 -0.1911
C67 C 0.44633(17) 0.76862(16) -0.1365(3)
H114 H 0.4618 0.7878 -0.1422
C68 C 0.43509(16) 0.76367(16) -0.0403(4)
C69 C 0.42601(14) 0.78652(14) 0.1020(3)
H115 H 0.4374 0.7672 0.1253
C70 C 0.38219(15) 0.78525(14) 0.1147(3)
C71 C 0.32910(14) 0.75516(13) 0.1824(3)
H116 H 0.3143 0.7742 0.1691
C72 C 0.32929(13) 0.74963(12) 0.2802(3)
C73 C 0.31260(16) 0.80623(12) 0.3080(3)
H117 H 0.2874 0.8093 0.2820
H118 H 0.3322 0.8134 0.2676
C74 C 0.31573(15) 0.82353(12) 0.3953(3)
H119 H 0.3422 0.8290 0.4083
H120 H 0.3002 0.8425 0.3955
C75 C 0.30016(16) 0.79921(13) 0.4598(3)
H121 H 0.3100 0.8033 0.5178
H122 H 0.2722 0.7998 0.4615
C76 C 0.31408(14) 0.76760(12) 0.4269(3)
H123 H 0.3389 0.7621 0.4534
C77 C 0.28519(13) 0.74179(12) 0.4408(3)
C78 C 0.26682(13) 0.69539(12) 0.5246(3)
H124 H 0.2409 0.7023 0.5080
C79 C 0.27425(15) 0.66412(12) 0.4786(4)
H125 H 0.2549 0.6491 0.4991
C80 C 0.2708(3) 0.66611(16) 0.3823(4)
H126 H 0.2761 0.6459 0.3572
H127 H 0.2890 0.6812 0.3605
H128 H 0.2452 0.6725 0.3670
C81 C 0.26665(14) 0.69035(11) 0.6240(3)
C82 C 0.44197(15) 0.81483(14) 0.1534(3)
H129 H 0.4696 0.8162 0.1440
H130 H 0.4304 0.8340 0.1309
C83 C 0.43421(10) 0.81284(8) 0.25142(14)
C84 C 0.42770(10) 0.84063(6) 0.2968(2)
H131 H 0.4277 0.8598 0.2675
C85 C 0.42115(11) 0.83980(6) 0.3861(2)
H132 H 0.4168 0.8584 0.4164
C86 C 0.42111(10) 0.81119(8) 0.42988(14)
C87 C 0.42762(10) 0.78340(6) 0.38447(18)
H133 H 0.4276 0.7643 0.4138
C88 C 0.43417(10) 0.78423(6) 0.29524(18)
H134 H 0.4385 0.7656 0.2649
C89 C 0.31108(16) 0.72682(14) 0.1350(4)
H135 H 0.3134 0.7299 0.0726
H136 H 0.3254 0.7080 0.1500
C90 C 0.26879(15) 0.72191(14) 0.1575(4)
H137 H 0.2661 0.7221 0.2211
C91 C 0.24472(16) 0.74807(15) 0.1208(4)
H138 H 0.2181 0.7446 0.1352
H139 H 0.2476 0.7486 0.0586
H140 H 0.2530 0.7678 0.1450
C92 C 0.2552(2) 0.69061(17) 0.1245(6)
H141 H 0.2716 0.6743 0.1469
H142 H 0.2562 0.6905 0.0620
H143 H 0.2292 0.6870 0.1434
O33 O 0.0219(2) 0.65313(17) 0.4372(6)
C123 C -0.0157(9) 0.6645(7) 0.4276(19)
C124 C -0.0517(8) 0.6446(6) 0.3838(18)
O34 O -0.0800(3) 0.7946(2) 0.8599(7)
C125 C -0.0431(5) 0.8037(4) 0.8398(11)
C126 C -0.0312(6) 0.8312(5) 0.8986(14)
O41 O 0.2956(9) 0.4907(5) 1.1118(15)
O44 O 0.0431(3) 0.7975(2) 0.6269(7)
O46 O 0.29779(16) 0.84423(17) 1.0686(5)
O47 O 0.3069(2) 0.85500(14) 0.8960(5)
O48 O -0.0450(2) 0.64992(17) 1.0613(5)
O49 O 0.2246(2) 0.5800(2) 0.5830(7)
O50 O -0.00846(18) 0.81975(18) 0.2989(6)
O51 O 0.2828(7) 0.5207(5) 0.3703(13)
O54 O 0.0808(4) 0.8353(3) 0.8225(8)
O55 O 0.2415(4) 0.4320(4) 0.9012(9)
O56 O 0.1613(3) 0.65473(19) 0.3846(6)
O57 O 0.0890(4) 0.6246(3) 0.3708(10)
O58 O 0.0807(13) 0.8904(6) 0.7832(19)
O59 O -0.1135(5) 0.6212(3) 1.1148(12)
O60 O 0.2867(8) 0.5278(6) 0.2185(17)
O62 O -0.0170(8) 0.6635(8) 0.267(2)
O63 O 0.3079(7) 0.4372(6) 0.1815(16)
O64 O 0.4801(12) 0.5779(9) 0.371(3)
O65 O 0.0686(19) 0.4745(16) 0.937(5)
O66 O 0.0831(17) 0.4717(14) 0.320(4)
O67 O 0.2427(12) 0.4071(9) 0.194(3)
C14? C 0.1714(6) 0.6970(5) 0.9154(13)
H27? H 0.1677 0.6750 0.9295
H28? H 0.1987 0.7016 0.9180
C15? C 0.1495(6) 0.7177(3) 0.9811(11)
H29? H 0.1236 0.7102 0.9923
H30? H 0.1633 0.7205 1.0354
H31? H 0.1256 0.7489 0.9574
O25? O 0.3175(3) 0.46995(18) 0.8056(5)
O26? O 0.3549(4) 0.5522(3) 0.9766(8)
O27? O 0.35812(19) 0.61590(13) 0.7248(3)
O28? O 0.41892(11) 0.67733(12) 0.7910(3)
O29? O 0.4163(2) 0.65057(16) 0.5783(6)
C93? C 0.4163(2) 0.65057(16) 0.5783(6)
H144? H 0.4178 0.6371 0.5282
H145? H 0.3969 0.6428 0.6173
H146? H 0.4408 0.6508 0.6075
O30? O 0.42281(10) 0.75461(10) 0.5786(2)
O31? O 0.36046(10) 0.74665(9) 0.5998(2)
O32? O 0.24453(12) 0.66980(8) 0.8266(3)
N25? N 0.4901(8) 0.4197(6) 1.1268(18)
N26? N 0.5061(8) 0.4561(6) 1.0241(18)
N27? N 0.4398(7) 0.4488(6) 1.0809(18)
H147? H 0.4239 0.4384 1.1130
C94? C 0.4800(8) 0.4431(8) 1.081(2)
C95? C 0.4270(9) 0.4754(8) 1.018(2)
H148? H 0.4358 0.4720 0.9584
H149? H 0.4348 0.4962 1.0373
C96? C 0.3804(4) 0.4692(4) 1.0294(11)
N28? N 0.31710(19) 0.41495(12) 0.8926(4)
H150? H 0.3348 0.4014 0.8813
H151? H 0.2941 0.4121 0.8732
N29? N 0.3042(2) 0.49599(13) 0.9303(4)
H152? H 0.2984 0.4939 0.9844
N30? N 0.34976(19) 0.55939(12) 0.8340(4)
H153? H 0.3412 0.5540 0.7836
N31? N 0.36123(13) 0.63685(10) 0.8573(3)
N32? N 0.37538(12) 0.69289(11) 0.6920(3)
H154? H 0.3513 0.6943 0.6796
C97? C 0.3679(3) 0.4413(2) 0.9686(7)
H155? H 0.3833 0.4418 0.9159
H156? H 0.3730 0.4215 0.9980
C98? C 0.3261(2) 0.44296(16) 0.9448(5)
H157? H 0.3102 0.4432 0.9976
C99? C 0.3175(2) 0.47198(14) 0.8899(5)
C100? C 0.2984(3) 0.52680(16) 0.8898(4)
C101? C 0.3340(2) 0.54701(15) 0.9027(4)
C102? C 0.3815(2) 0.58211(16) 0.8389(6)
H158? H 0.3907 0.5845 0.8989
C103? C 0.3659(2) 0.61347(15) 0.8031(5)
C104? C 0.3665(2) 0.63680(17) 0.9536(4)
C105? C 0.3422(4) 0.6635(3) 0.9798(8)
H159? H 0.3505 0.6720 1.0353
H160? H 0.3154 0.6572 0.9845
C106? C 0.3475(2) 0.68871(16) 0.9046(4)
C107? C 0.35196(16) 0.66800(13) 0.8237(4)
H161? H 0.3279 0.6675 0.7905
C108? C 0.38527(16) 0.68018(14) 0.7667(4)
C109? C 0.40336(14) 0.70468(14) 0.6292(4)
H162? H 0.4286 0.7050 0.6579
C110? C 0.40637(18) 0.68250(17) 0.5508(5)
C111? C 0.39411(14) 0.73801(13) 0.6013(3)
C112? C 0.2690(5) 0.5445(3) 0.9379(9)
H163? H 0.2787 0.5484 0.9961
H164? H 0.2464 0.5312 0.9436
C113? C 0.25612(18) 0.57629(7) 0.8986(2)
C114? C 0.2536(2) 0.59974(9) 0.96146(18)
H165? H 0.2548 0.5945 1.0202
C115? C 0.24942(18) 0.63099(8) 0.9365(2)
H166? H 0.2477 0.6467 0.9785
C116? C 0.24773(13) 0.63880(6) 0.8487(2)
C117? C 0.25023(17) 0.61535(8) 0.78589(17)
H167? H 0.2491 0.6206 0.7272
C118? C 0.25443(19) 0.58410(7) 0.8108(2)
H168? H 0.2561 0.5684 0.7688
C119? C 0.4146(2) 0.57053(18) 0.7775(8)
H169? H 0.4031 0.5637 0.7231
H170? H 0.4266 0.5523 0.8040
C120? C 0.4470(5) 0.5952(5) 0.7562(13)
H171? H 0.4344 0.6152 0.7425
C121? C 0.4732(5) 0.5854(4) 0.6719(12)
H172? H 0.4928 0.6011 0.6628
H173? H 0.4571 0.5841 0.6212
H174? H 0.4851 0.5654 0.6822
C122? C 0.4674(5) 0.5993(4) 0.8317(12)
H175? H 0.4500 0.6047 0.8779
H176? H 0.4857 0.6160 0.8239
H177? H 0.4807 0.5802 0.8461
O35? O -0.0730(8) 0.7876(6) 0.8256(18)
O36? O 0.1389(15) 0.3946(11) 0.841(3)
O37? O 0.1760(5) 0.4000(4) 0.8600(11)
C127? C 0.1537(9) 0.3918(7) 0.779(2)
C128? C 0.1441(13) 0.4121(10) 0.734(3)
O38? O 0.2004(13) 0.5023(11) 0.748(3)
C129? C 0.1965(17) 0.5158(14) 0.705(4)
C130? C 0.1852(11) 0.5336(9) 0.639(3)
O39? O 0.1727(2) 0.6629(2) 0.5644(6)
O40? O 0.1199(8) 0.6130(7) 0.643(2)
C131? C 0.1826(4) 0.6388(3) 0.5908(8)
O42? O 0.2735(11) 0.4900(5) 1.1034(16)
O43? O 0.2542(8) 0.4871(5) 1.0878(15)
C132? C -0.0148(19) 0.8160(14) 0.604(4)
O45? O 0.0249(4) 0.6675(4) 1.1372(8)
C133? C 0.0453(11) 0.6612(8) 1.136(2)
C134? C 0.0842(7) 0.6301(5) 0.2022(15)
O52? O 0.2709(11) 0.5286(8) 0.380(2)
O53? O 0.2588(7) 0.5216(6) 0.3835(15)
O61? O 0.3110(10) 0.5564(8) 0.185(2)
C135? C 0.1585(6) 0.6067(5) 0.6399(14)
C136? C 0.3699(5) 0.6744(4) 0.9721(11)
C137? C 0.0107(12) 0.8413(10) 0.559(3)
C138? C 0.37415(19) 0.68727(19) 0.4940(5)
C139? C 0.4293(5) 0.6897(3) 0.4826(10)
C140? C 0.3724(9) 0.4607(9) 1.294(2)
C141? C 0.2554(5) 0.5402(3) 0.9197(10)
C142? C 0.4200(4) 0.4489(3) 0.6942(12)
C143? C 0.4310(9) 0.4794(7) 0.6766(17)
C144? C 0.4250(9) 0.4989(7) 0.5970(17)
C145? C 0.3645(12) 0.4667(11) 1.1142(18)
C146? C 0.4613(8) 0.4915(7) 0.7391(18)
H178? H 0.3596 0.6796 1.0290
H179? H 0.3965 0.6812 0.9692
H180? H 0.3760 0.6731 0.4454
H181? H 0.3507 0.6833 0.5252
H182? H 0.3742 0.7086 0.4734
H183? H 0.4278 0.6733 0.4398
H184? H 0.4211 0.7092 0.4573
H185? H 0.4555 0.6917 0.5023
H186? H 0.2351 0.5298 0.8872
H187? H 0.2511 0.5367 0.9814
H188? H 0.4425 0.4355 0.6884
H189? H 0.4118 0.4478 0.7545
H190? H 0.4095 0.4888 0.7085
H191? H 0.3981 0.4989 0.5820
H192? H 0.4396 0.4902 0.5497
H193? H 0.4333 0.5200 0.6080
H194? H 0.3487 0.4480 1.1084
H195? H 0.3463 0.4840 1.1142
H196? H 0.4580 0.4817 0.7949
H197? H 0.4865 0.4866 0.7170
H198? H 0.4587 0.5139 0.7451
H199? H 0.3981 0.4713 1.1973
N33? N 0.3697(10) 0.4896(8) 1.334(2)
N34? N 0.3342(7) 0.4563(5) 1.3057(14)
N35? N 0.3890(5) 0.6736(4) 0.3282(11)
N36? N 0.3745(13) 0.4653(11) 1.201(2)
O68? O 0.2503(10) 0.3923(8) 0.276(2)
O69? O 0.3336(3) 0.4744(2) 0.8181(6)
O70? O 0.3393(4) 0.5511(3) 0.9812(8)
O71? O -0.0047(6) 0.8300(5) 0.3650(14)
O72? O 0.37415(19) 0.68727(19) 0.4940(5)
O73? O 0.4293(5) 0.6897(3) 0.4826(10)
O74? O 0.1410(12) 0.6207(10) 0.730(3)
O75? O 0.0658(4) 0.8227(3) 0.8346(9)
O76? O 0.0395(5) 0.7977(4) 0.6844(12)
O77? O 0.2375(5) 0.4151(4) 0.9170(11)
O78? O 0.1412(3) 0.6676(2) 0.4544(7)
loop_
_geom_bond_atom_site_label_1
_geom_bond_atom_site_label_2
_geom_bond_site_symmetry_1
_geom_bond_site_symmetry_2
O1 C6 1_555 1_555
O2 C8 1_555 1_555
O3 C10 1_555 1_555
O4 C17 1_555 1_555
O5 H1 1_555 1_555
O6 C21 1_555 1_555
O7 C21 1_555 1_555
O8 H2 1_555 1_555
N1 H3 1_555 1_555
H4 N1 1_555 1_555
N2 H5 1_555 1_555
N3 H6 1_555 1_555
C1 N1 1_555 1_555
C2 N3 1_555 1_555
H7 C2 1_555 1_555
H8 C2 1_555 1_555
C3 C2 1_555 1_555
H9 C3 1_555 1_555
H10 C3 1_555 1_555
N4 H11 1_555 1_555
H12 N4 1_555 1_555
N5 H13 1_555 1_555
N6 H14 1_555 1_555
N7 C10 1_555 1_555
N8 H15 1_555 1_555
C4 C3 1_555 1_555
H16 C4 1_555 1_555
H17 C4 1_555 1_555
C5 N4 1_555 1_555
H18 C5 1_555 1_555
C6 N5 1_555 1_555
C7 N5 1_555 1_555
H19 C7 1_555 1_555
C8 N6 1_555 1_555
C9 N6 1_555 1_555
H20 C9 1_555 1_555
C10 C9 1_555 1_555
C11 N7 1_555 1_555
H21 C11 1_555 1_555
H22 C11 1_555 1_555
C12 C11 1_555 1_555
H23 C12 1_555 1_555
H24 C12 1_555 1_555
C13 C12 1_555 1_555
H25 C13 1_555 1_555
H26 C13 1_555 1_555
C16 N7 1_555 1_555
C17 N8 1_555 1_555
C18 N8 1_555 1_555
H32 C18 1_555 1_555
C19 O5 1_555 1_555
H33 C19 1_555 1_555
C20 C19 1_555 1_555
H34 C20 1_555 1_555
H35 C20 1_555 1_555
H36 C20 1_555 1_555
C21 C18 1_555 1_555
C22 C7 1_555 1_555
H37 C22 1_555 1_555
H38 C22 1_555 1_555
C23 C22 1_555 1_555
C24 C23 1_555 1_555
H39 C24 1_555 1_555
C25 C24 1_555 1_555
H40 C25 1_555 1_555
C26 O8 1_555 1_555
C27 C26 1_555 1_555
H41 C27 1_555 1_555
C28 C23 1_555 1_555
H42 C28 1_555 1_555
C29 C9 1_555 1_555
H43 C29 1_555 1_555
H44 C29 1_555 1_555
C30 C29 1_555 1_555
H45 C30 1_555 1_555
C31 C30 1_555 1_555
H46 C31 1_555 1_555
H47 C31 1_555 1_555
H48 C31 1_555 1_555
C32 C30 1_555 1_555
H49 C32 1_555 1_555
H50 C32 1_555 1_555
H51 C32 1_555 1_555
O9 C38 1_555 1_555
O10 C40 1_555 1_555
O11 C42 1_555 1_555
O12 C47 1_555 1_555
O13 H52 1_555 1_555
O14 C51 1_555 1_555
O15 C51 1_555 1_555
O16 H53 1_555 1_555
N9 H54 1_555 1_555
H55 N9 1_555 1_555
N10 C33 1_555 1_555
N11 H56 1_555 1_555
C33 N9 1_555 1_555
C34 N11 1_555 1_555
H57 C34 1_555 1_555
H58 C34 1_555 1_555
C35 C34 1_555 1_555
H59 C35 1_555 1_555
H60 C35 1_555 1_555
N12 H61 1_555 1_555
H62 N12 1_555 1_555
N13 H63 1_555 1_555
N14 H64 1_555 1_555
N15 C42 1_555 1_555
N16 H65 1_555 1_555
C36 C35 1_555 1_555
H66 C36 1_555 1_555
H67 C36 1_555 1_555
C37 N12 1_555 1_555
H68 C37 1_555 1_555
C38 N13 1_555 1_555
C39 N13 1_555 1_555
H69 C39 1_555 1_555
C40 N14 1_555 1_555
C41 N14 1_555 1_555
C42 C41 1_555 1_555
C43 N15 1_555 1_555
H70 C43 1_555 1_555
H71 C43 1_555 1_555
C44 C43 1_555 1_555
H72 C44 1_555 1_555
H73 C44 1_555 1_555
C45 C44 1_555 1_555
H74 C45 1_555 1_555
H75 C45 1_555 1_555
C46 N15 1_555 1_555
H76 C46 1_555 1_555
C47 N16 1_555 1_555
C48 N16 1_555 1_555
H77 C48 1_555 1_555
C49 O13 1_555 1_555
H78 C49 1_555 1_555
C50 C49 1_555 1_555
H79 C50 1_555 1_555
H80 C50 1_555 1_555
H81 C50 1_555 1_555
C51 C48 1_555 1_555
C52 C39 1_555 1_555
H82 C52 1_555 1_555
H83 C52 1_555 1_555
C53 C52 1_555 1_555
C54 C53 1_555 1_555
H84 C54 1_555 1_555
C55 C54 1_555 1_555
H85 C55 1_555 1_555
C56 O16 1_555 1_555
C57 C56 1_555 1_555
H86 C57 1_555 1_555
C58 C53 1_555 1_555
H87 C58 1_555 1_555
C59 C41 1_555 1_555
H88 C59 1_555 1_555
H89 C59 1_555 1_555
C60 C59 1_555 1_555
H90 C60 1_555 1_555
C61 C60 1_555 1_555
H91 C61 1_555 1_555
H92 C61 1_555 1_555
H93 C61 1_555 1_555
C62 C60 1_555 1_555
H94 C62 1_555 1_555
H95 C62 1_555 1_555
H96 C62 1_555 1_555
O17 C68 1_555 1_555
O18 C70 1_555 1_555
O19 C72 1_555 1_555
O20 C77 1_555 1_555
O21 H97 1_555 1_555
O22 C81 1_555 1_555
O23 C81 1_555 1_555
O24 H98 1_555 1_555
N17 H99 1_555 1_555
H100 N17 1_555 1_555
N18 H101 1_555 1_555
N19 H102 1_555 1_555
N20 H103 1_555 1_555
H104 N20 1_555 1_555
N21 H105 1_555 1_555
N22 H106 1_555 1_555
N23 C72 1_555 1_555
N24 H107 1_555 1_555
C63 N17 1_555 1_555
C64 N19 1_555 1_555
H108 C64 1_555 1_555
H109 C64 1_555 1_555
C65 C64 1_555 1_555
H110 C65 1_555 1_555
H111 C65 1_555 1_555
C66 C65 1_555 1_555
H112 C66 1_555 1_555
H113 C66 1_555 1_555
C67 N20 1_555 1_555
H114 C67 1_555 1_555
C68 N21 1_555 1_555
C69 N21 1_555 1_555
H115 C69 1_555 1_555
C70 N22 1_555 1_555
C71 N22 1_555 1_555
H116 C71 1_555 1_555
C72 C71 1_555 1_555
C73 N23 1_555 1_555
H117 C73 1_555 1_555
H118 C73 1_555 1_555
C74 C73 1_555 1_555
H119 C74 1_555 1_555
H120 C74 1_555 1_555
C75 C74 1_555 1_555
H121 C75 1_555 1_555
H122 C75 1_555 1_555
C76 N23 1_555 1_555
H123 C76 1_555 1_555
C77 N24 1_555 1_555
C78 N24 1_555 1_555
H124 C78 1_555 1_555
C79 O21 1_555 1_555
H125 C79 1_555 1_555
C80 C79 1_555 1_555
H126 C80 1_555 1_555
H127 C80 1_555 1_555
H128 C80 1_555 1_555
C81 C78 1_555 1_555
C82 C69 1_555 1_555
H129 C82 1_555 1_555
H130 C82 1_555 1_555
C83 C82 1_555 1_555
C84 C83 1_555 1_555
H131 C84 1_555 1_555
C85 C84 1_555 1_555
H132 C85 1_555 1_555
C86 O24 1_555 1_555
C87 C86 1_555 1_555
H133 C87 1_555 1_555
C88 C83 1_555 1_555
H134 C88 1_555 1_555
C89 C71 1_555 1_555
H135 C89 1_555 1_555
H136 C89 1_555 1_555
C90 C89 1_555 1_555
H137 C90 1_555 1_555
C91 C90 1_555 1_555
H138 C91 1_555 1_555
H139 C91 1_555 1_555
H140 C91 1_555 1_555
C92 C90 1_555 1_555
H141 C92 1_555 1_555
H142 C92 1_555 1_555
H143 C92 1_555 1_555
O33 C123 1_555 1_555
C123 C124 1_555 1_555
O34 C125 1_555 1_555
C125 C126 1_555 1_555
N2 C1 1_555 1_555
N3 C1 1_555 1_555
C4 C5 1_555 1_555
C5 C6 1_555 1_555
C7 C8 1_555 1_555
C13 C16 1_555 1_555
C16 C17 1_555 1_555
C18 C19 1_555 1_555
C25 C26 1_555 1_555
C27 C28 1_555 1_555
N11 C33 1_555 1_555
C36 C37 1_555 1_555
C37 C38 1_555 1_555
C39 C40 1_555 1_555
C45 C46 1_555 1_555
C46 C47 1_555 1_555
C48 C49 1_555 1_555
C55 C56 1_555 1_555
C57 C58 1_555 1_555
N18 C63 1_555 1_555
N19 C63 1_555 1_555
C66 C67 1_555 1_555
C67 C68 1_555 1_555
C69 C70 1_555 1_555
C75 C76 1_555 1_555
C76 C77 1_555 1_555
C78 C79 1_555 1_555
C85 C86 1_555 1_555
C87 C88 1_555 1_555

#END
