
#######################################################################
#
#                 Cambridge Crystallographic Data Centre
#                                CCDC 
#
#######################################################################
#
# If this CIF has been generated from an entry in the Cambridge 
# Structural Database, then it will include bibliographic, chemical, 
# crystal, experimental, refinement or atomic coordinate data resulting 
# from the CCDC's data processing and validation procedures.
#
#######################################################################

data_TADPIZ
_chemical_formula_moiety         'C48 H36 O4'
_chemical_name_systematic        
2-(3-(4-Methoxyphenyl)-5-((4-methoxyphenyl)ethynyl)-4,6-diphenyl-4H-pyran-2-yl)-1,3-diphenylprop-2-en-1-one
_symmetry_cell_setting           monoclinic
_symmetry_space_group_name_H-M   'P 21'
_symmetry_Int_Tables_number      4
_space_group_name_Hall           'P 2yb'
loop_
_symmetry_equiv_pos_site_id
_symmetry_equiv_pos_as_xyz
1 x,y,z
2 -x,1/2+y,-z
_cell_length_a                   11.6442(5)
_cell_length_b                   24.3720(10)
_cell_length_c                   13.0153(6)
_cell_angle_alpha                90
_cell_angle_beta                 98.8200(10)
_cell_angle_gamma                90
_cell_volume                     3649.97
_exptl_crystal_colour            'light yellow'
_exptl_crystal_description       block
_cell_formula_units_Z            4
loop_
_atom_site_label
_atom_site_type_symbol
_atom_site_fract_x
_atom_site_fract_y
_atom_site_fract_z
O1 O 0.89649(11) -0.14954(5) 0.04497(10)
O2 O 0.80192(12) -0.01917(5) -0.04062(10)
O3 O 1.60973(19) -0.32972(9) 0.48788(17)
O4 O 1.18584(13) 0.02853(6) -0.34755(10)
C1 C 1.10447(16) -0.09100(8) -0.20152(14)
H1 H 1.1005 -0.1299 -0.2064
C2 C 1.14179(17) -0.06131(8) -0.28168(15)
H2 H 1.1629 -0.0797 -0.3404
C3 C 1.14768(16) -0.00489(8) -0.27469(15)
C4 C 1.11368(17) 0.02152(8) -0.19007(15)
H3 H 1.1153 0.0605 -0.1865
C5 C 1.07756(17) -0.00820(8) -0.11117(15)
H4 H 1.0554 0.0105 -0.0532
C6 C 1.07300(15) -0.06550(7) -0.11493(14)
C7 C 0.6642(2) 0.01725(8) -0.23244(16)
H5 H 0.6317 0.0274 -0.1726
C8 C 0.6221(2) 0.03982(9) -0.32702(18)
H6 H 0.5585 0.0646 -0.3329
C9 C 0.6716(2) 0.02671(9) -0.41449(17)
H7 H 0.6419 0.0425 -0.4799
C10 C 0.7644(2) -0.00952(8) -0.40594(16)
H8 H 0.8001 -0.0176 -0.4650
C11 C 0.80458(18) -0.03366(8) -0.31192(15)
H9 H 0.8665 -0.0594 -0.3066
C12 C 0.75463(17) -0.02049(7) -0.22401(15)
C13 C 0.87731(17) -0.23104(8) -0.13698(15)
H10 H 0.9454 -0.2128 -0.1045
C14 C 0.8739(2) -0.28746(8) -0.13787(18)
H11 H 0.9393 -0.3078 -0.1058
C15 C 0.7760(2) -0.31458(9) -0.1851(2)
H12 H 0.7729 -0.3535 -0.1839
C16 C 0.6833(2) -0.28513(10) -0.2339(2)
H13 H 0.6167 -0.3038 -0.2682
C17 C 0.68600(19) -0.22872(9) -0.23363(19)
H14 H 0.6214 -0.2088 -0.2684
C18 C 0.78264(17) -0.20044(8) -0.18282(15)
C19 C 0.97179(19) -0.22583(8) 0.27996(15)
H15 H 1.0298 -0.2024 0.3158
C20 C 0.9275(2) -0.26829(9) 0.33285(17)
H16 H 0.9552 -0.2738 0.4046
C21 C 0.8441(2) -0.30232(10) 0.28192(18)
H17 H 0.8148 -0.3318 0.3181
C22 C 0.8025(2) -0.29380(9) 0.17792(18)
H18 H 0.7440 -0.3172 0.1427
C23 C 0.84600(18) -0.25118(8) 0.12494(16)
H19 H 0.8165 -0.2452 0.0536
C24 C 0.93238(17) -0.21717(7) 0.17536(14)
C25 C 1.4711(2) -0.23195(10) 0.29985(19)
H20 H 1.4943 -0.2057 0.2531
C26 C 1.5540(2) -0.26190(11) 0.3620(2)
H21 H 1.6341 -0.2560 0.3588
C27 C 1.5211(2) -0.30087(10) 0.42943(19)
C28 C 1.4061(2) -0.30905(10) 0.43479(19)
H22 H 1.3834 -0.3358 0.4809
C29 C 1.3233(2) -0.27830(9) 0.37292(18)
H23 H 1.2435 -0.2839 0.3774
C30 C 1.35402(18) -0.23946(8) 0.30427(16)
C31 C 1.2807(2) -0.04679(11) 0.16310(18)
H24 H 1.3411 -0.0679 0.1412
C32 C 1.3069(4) -0.00083(16) 0.2285(2)
H25 H 1.3857 0.0092 0.2504
C33 C 1.2201(5) 0.02947(13) 0.2607(2)
H26 H 1.2389 0.0599 0.3058
C34 C 1.1075(4) 0.01612(11) 0.2283(2)
H27 H 1.0476 0.0377 0.2499
C35 C 1.0786(2) -0.02867(10) 0.16402(18)
H28 H 0.9992 -0.0376 0.1421
C36 C 1.16508(19) -0.06065(8) 0.13145(15)
C37 C 0.93252(16) -0.11723(7) -0.03170(14)
C38 C 1.03997(16) -0.09850(7) -0.02768(13)
C39 C 1.13307(16) -0.11081(8) 0.06315(14)
H29 H 1.2042 -0.1230 0.0351
C40 C 1.09357(16) -0.15796(7) 0.12608(14)
C41 C 0.98156(16) -0.17315(7) 0.11715(13)
C42 C 1.2296(2) 0.00260(10) -0.43085(19)
H30 H 1.2538 0.0305 -0.4773
H31 H 1.1689 -0.0204 -0.4696
H32 H 1.2965 -0.0203 -0.4033
C43 C 1.5815(3) -0.37291(15) 0.5494(3)
H33 H 1.6529 -0.3890 0.5871
H34 H 1.5384 -0.4009 0.5052
H35 H 1.5333 -0.3592 0.5994
C44 C 1.18365(17) -0.18560(8) 0.19165(15)
C45 C 1.26541(18) -0.20889(8) 0.24135(16)
C46 C 0.77505(16) -0.14042(7) -0.17974(15)
H36 H 0.7172 -0.1248 -0.2308
C47 C 0.83651(16) -0.10396(7) -0.11661(14)
C48 C 0.79898(16) -0.04528(7) -0.12056(15)
O5 O 0.64155(11) 0.27638(5) 0.28330(10)
O6 O 0.57277(13) 0.14242(6) 0.21169(12)
O7 O 1.34911(14) 0.46243(7) 0.73144(13)
O8 O 0.90149(14) 0.09987(6) -0.12164(10)
C49 C 0.82261(17) 0.21914(7) 0.02462(15)
H37 H 0.8047 0.2570 0.0148
C50 C 0.84983(18) 0.18874(8) -0.05835(15)
H38 H 0.8516 0.2058 -0.1237
C51 C 0.87441(18) 0.13355(8) -0.04548(15)
C52 C 0.87367(19) 0.10925(7) 0.05116(15)
H39 H 0.8915 0.0714 0.0606
C53 C 0.84716(18) 0.14002(8) 0.13316(15)
H40 H 0.8468 0.1230 0.1988
C54 C 0.82076(16) 0.19586(7) 0.12148(14)
C55 C 0.42304(19) 0.09667(8) 0.04000(19)
H41 H 0.4039 0.0867 0.1059
C56 C 0.3732(2) 0.06927(9) -0.0482(2)
H42 H 0.3193 0.0405 -0.0430
C57 C 0.4008(2) 0.08325(9) -0.1436(2)
H43 H 0.3656 0.0643 -0.2041
C58 C 0.4795(2) 0.12471(9) -0.15184(19)
H44 H 0.4989 0.1341 -0.2179
C59 C 0.53006(19) 0.15251(9) -0.06420(17)
H45 H 0.5845 0.1810 -0.0701
C60 C 0.50210(17) 0.13924(7) 0.03227(16)
C61 C 0.60008(19) 0.35516(8) 0.09241(16)
H46 H 0.6683 0.3408 0.1328
C62 C 0.58882(19) 0.41109(8) 0.07695(17)
H47 H 0.6496 0.4349 0.1068
C63 C 0.4906(2) 0.43279(8) 0.01885(18)
H48 H 0.4827 0.4714 0.0104
C64 C 0.40357(19) 0.39836(9) -0.02708(18)
H49 H 0.3364 0.4130 -0.0688
C65 C 0.41499(18) 0.34232(8) -0.01180(16)
H50 H 0.3550 0.3187 -0.0438
C66 C 0.51169(16) 0.31963(7) 0.04894(15)
C67 C 0.71077(19) 0.35506(8) 0.51721(15)
H51 H 0.7780 0.3366 0.5508
C68 C 0.6565(2) 0.39364(9) 0.57160(17)
H52 H 0.6873 0.4019 0.6418
C69 C 0.5579(2) 0.42007(9) 0.52399(18)
H53 H 0.5208 0.4466 0.5612
C70 C 0.51322(19) 0.40789(9) 0.42229(18)
H54 H 0.4447 0.4257 0.3896
C71 C 0.56772(18) 0.36986(8) 0.36784(17)
H55 H 0.5364 0.3618 0.2977
C72 C 0.66778(16) 0.34314(7) 0.41406(15)
C73 C 1.20826(18) 0.35898(8) 0.55747(17)
H56 H 1.2312 0.3282 0.5206
C74 C 1.29134(19) 0.38863(9) 0.62126(18)
H57 H 1.3705 0.3777 0.6292
C75 C 1.25979(19) 0.43429(8) 0.67389(16)
C76 C 1.14436(19) 0.44863(9) 0.66547(17)
H58 H 1.1218 0.4793 0.7027
C77 C 1.06160(19) 0.41817(9) 0.60262(17)
H59 H 0.9821 0.4282 0.5978
C78 C 1.09134(17) 0.37335(8) 0.54630(15)
C79 C 0.91945(18) 0.19473(8) 0.36758(14)
C80 C 1.0352(2) 0.18110(11) 0.39238(18)
H60 H 1.0922 0.2023 0.3653
C81 C 1.0693(3) 0.13682(14) 0.4563(2)
H61 H 1.1494 0.1281 0.4742
C82 C 0.9855(4) 0.10502(12) 0.4943(2)
H62 H 1.0075 0.0739 0.5367
C83 C 0.8719(3) 0.11928(11) 0.4698(2)
H63 H 0.8145 0.0982 0.4965
C84 C 0.8384(2) 0.16376(10) 0.4070(2)
H64 H 0.7584 0.1730 0.3908
C85 C 0.67938(16) 0.24482(7) 0.20700(14)
C86 C 0.78919(16) 0.22930(7) 0.20904(13)
C87 C 0.88137(16) 0.24427(7) 0.29906(14)
H65 H 0.9507 0.2581 0.2701
C88 C 0.83800(16) 0.29016(7) 0.36179(13)
C89 C 0.72388(16) 0.30224(7) 0.35431(14)
C90 C 1.3191(3) 0.51027(11) 0.7840(2)
H66 H 1.3898 0.5269 0.8220
H67 H 1.2667 0.5003 0.8332
H68 H 1.2803 0.5366 0.7333
C91 C 0.8859(2) 0.12091(9) -0.22464(16)
H69 H 0.9081 0.0929 -0.2719
H70 H 0.9347 0.1535 -0.2272
H71 H 0.8041 0.1308 -0.2459
C92 C 0.92520(17) 0.31936(7) 0.42888(14)
C93 C 1.00385(18) 0.34310(8) 0.48064(15)
C94 C 0.51243(17) 0.26008(7) 0.06271(15)
H72 H 0.4525 0.2414 0.0185
C95 C 0.58270(16) 0.22719(7) 0.12665(14)
C96 C 0.55488(17) 0.16726(8) 0.12940(16)
loop_
_geom_bond_atom_site_label_1
_geom_bond_atom_site_label_2
_geom_bond_site_symmetry_1
_geom_bond_site_symmetry_2
O1 C37 1_555 1_555
O2 C48 1_555 1_555
O3 C27 1_555 1_555
O4 C3 1_555 1_555
O5 C85 1_555 1_555
O6 C96 1_555 1_555
O7 C75 1_555 1_555
O8 C51 1_555 1_555
C1 H1 1_555 1_555
C2 C1 1_555 1_555
H2 C2 1_555 1_555
C3 C2 1_555 1_555
C4 C3 1_555 1_555
H3 C4 1_555 1_555
C5 C4 1_555 1_555
H4 C5 1_555 1_555
C6 C1 1_555 1_555
C7 H5 1_555 1_555
C8 C7 1_555 1_555
H6 C8 1_555 1_555
C9 C8 1_555 1_555
H7 C9 1_555 1_555
C10 C9 1_555 1_555
H8 C10 1_555 1_555
C11 C10 1_555 1_555
H9 C11 1_555 1_555
C12 C7 1_555 1_555
C13 H10 1_555 1_555
C14 C13 1_555 1_555
H11 C14 1_555 1_555
C15 C14 1_555 1_555
H12 C15 1_555 1_555
C16 C15 1_555 1_555
H13 C16 1_555 1_555
C17 C16 1_555 1_555
H14 C17 1_555 1_555
C18 C13 1_555 1_555
C19 H15 1_555 1_555
C20 C19 1_555 1_555
H16 C20 1_555 1_555
C21 C20 1_555 1_555
H17 C21 1_555 1_555
C22 C21 1_555 1_555
H18 C22 1_555 1_555
C23 C22 1_555 1_555
H19 C23 1_555 1_555
C24 C19 1_555 1_555
C25 H20 1_555 1_555
C26 C25 1_555 1_555
H21 C26 1_555 1_555
C27 C26 1_555 1_555
C28 C27 1_555 1_555
H22 C28 1_555 1_555
C29 C28 1_555 1_555
H23 C29 1_555 1_555
C30 C25 1_555 1_555
C31 H24 1_555 1_555
C32 C31 1_555 1_555
H25 C32 1_555 1_555
C33 C32 1_555 1_555
H26 C33 1_555 1_555
C34 C33 1_555 1_555
H27 C34 1_555 1_555
C35 C34 1_555 1_555
H28 C35 1_555 1_555
C36 C31 1_555 1_555
C37 C38 1_555 1_555
C38 C6 1_555 1_555
C39 C36 1_555 1_555
H29 C39 1_555 1_555
C40 C39 1_555 1_555
C41 O1 1_555 1_555
C42 O4 1_555 1_555
H30 C42 1_555 1_555
H31 C42 1_555 1_555
H32 C42 1_555 1_555
C43 O3 1_555 1_555
H33 C43 1_555 1_555
H34 C43 1_555 1_555
H35 C43 1_555 1_555
C44 C40 1_555 1_555
C45 C30 1_555 1_555
C46 C18 1_555 1_555
H36 C46 1_555 1_555
C47 C37 1_555 1_555
C48 C12 1_555 1_555
C49 H37 1_555 1_555
C50 C49 1_555 1_555
H38 C50 1_555 1_555
C51 C50 1_555 1_555
C52 C51 1_555 1_555
H39 C52 1_555 1_555
C53 C52 1_555 1_555
H40 C53 1_555 1_555
C54 C49 1_555 1_555
C55 H41 1_555 1_555
C56 C55 1_555 1_555
H42 C56 1_555 1_555
C57 C56 1_555 1_555
H43 C57 1_555 1_555
C58 C57 1_555 1_555
H44 C58 1_555 1_555
C59 C58 1_555 1_555
H45 C59 1_555 1_555
C60 C55 1_555 1_555
C61 H46 1_555 1_555
C62 C61 1_555 1_555
H47 C62 1_555 1_555
C63 C62 1_555 1_555
H48 C63 1_555 1_555
C64 C63 1_555 1_555
H49 C64 1_555 1_555
C65 C64 1_555 1_555
H50 C65 1_555 1_555
C66 C61 1_555 1_555
C67 H51 1_555 1_555
C68 C67 1_555 1_555
H52 C68 1_555 1_555
C69 C68 1_555 1_555
H53 C69 1_555 1_555
C70 C69 1_555 1_555
H54 C70 1_555 1_555
C71 C70 1_555 1_555
H55 C71 1_555 1_555
C72 C67 1_555 1_555
C73 H56 1_555 1_555
C74 C73 1_555 1_555
H57 C74 1_555 1_555
C75 C74 1_555 1_555
C76 C75 1_555 1_555
H58 C76 1_555 1_555
C77 C76 1_555 1_555
H59 C77 1_555 1_555
C78 C73 1_555 1_555
C79 C80 1_555 1_555
C80 H60 1_555 1_555
C81 C80 1_555 1_555
H61 C81 1_555 1_555
C82 C81 1_555 1_555
H62 C82 1_555 1_555
C83 C82 1_555 1_555
H63 C83 1_555 1_555
C84 C79 1_555 1_555
H64 C84 1_555 1_555
C85 C86 1_555 1_555
C86 C54 1_555 1_555
C87 C79 1_555 1_555
H65 C87 1_555 1_555
C88 C87 1_555 1_555
C89 O5 1_555 1_555
C90 O7 1_555 1_555
H66 C90 1_555 1_555
H67 C90 1_555 1_555
H68 C90 1_555 1_555
C91 O8 1_555 1_555
H69 C91 1_555 1_555
H70 C91 1_555 1_555
H71 C91 1_555 1_555
C92 C88 1_555 1_555
C93 C78 1_555 1_555
C94 C66 1_555 1_555
H72 C94 1_555 1_555
C95 C85 1_555 1_555
C96 C60 1_555 1_555
C5 C6 1_555 1_555
C11 C12 1_555 1_555
C17 C18 1_555 1_555
C23 C24 1_555 1_555
C24 C41 1_555 1_555
C29 C30 1_555 1_555
C35 C36 1_555 1_555
C38 C39 1_555 1_555
C40 C41 1_555 1_555
C44 C45 1_555 1_555
C46 C47 1_555 1_555
C47 C48 1_555 1_555
C53 C54 1_555 1_555
C59 C60 1_555 1_555
C65 C66 1_555 1_555
C71 C72 1_555 1_555
C72 C89 1_555 1_555
C77 C78 1_555 1_555
C83 C84 1_555 1_555
C86 C87 1_555 1_555
C88 C89 1_555 1_555
C92 C93 1_555 1_555
C94 C95 1_555 1_555
C95 C96 1_555 1_555

#END
