
#######################################################################
#
#                 Cambridge Crystallographic Data Centre
#                                CCDC 
#
#######################################################################
#
# If this CIF has been generated from an entry in the Cambridge 
# Structural Database, then it will include bibliographic, chemical, 
# crystal, experimental, refinement or atomic coordinate data resulting 
# from the CCDC's data processing and validation procedures.
#
#######################################################################

data_TADPUM
_chemical_formula_moiety         'C24 H17 Cl2 I1 N4 O3 S1'
_chemical_name_systematic        
3-(azidomethyl)-4-((4-chlorophenyl)(iodo)methylene)-1-((4-chlorophenyl)sulfonyl)-3-methyl-3,4-dihydroquinolin-2(1H)-one
_symmetry_cell_setting           triclinic
_symmetry_space_group_name_H-M   'P -1'
_symmetry_Int_Tables_number      2
_space_group_name_Hall           '-P 1'
loop_
_symmetry_equiv_pos_site_id
_symmetry_equiv_pos_as_xyz
1 x,y,z
2 -x,-y,-z
_cell_length_a                   8.0870(8)
_cell_length_b                   9.6789(9)
_cell_length_c                   16.5891(15)
_cell_angle_alpha                90.5130(10)
_cell_angle_beta                 103.315(2)
_cell_angle_gamma                92.5900(10)
_cell_volume                     1262.04
_exptl_crystal_colour            white
_exptl_crystal_description       block
_cell_formula_units_Z            2
loop_
_atom_site_label
_atom_site_type_symbol
_atom_site_fract_x
_atom_site_fract_y
_atom_site_fract_z
Cl1 Cl 0.2863(2) 0.66027(19) 0.55416(9)
Cl2 Cl 0.3086(3) 0.1574(2) 0.27507(15)
I1 I 0.31826(4) 0.76908(4) 0.14867(2)
N1 N 0.8773(5) 0.5937(4) 0.1592(2)
N2 N 0.9450(8) 0.9644(6) 0.3294(4)
N3 N 1.0440(9) 1.0119(7) 0.3898(4)
N4 N 1.1278(12) 1.0700(10) 0.4453(6)
O1 O 0.9701(5) 0.4972(4) 0.2844(2)
O2 O 0.7705(5) 0.4643(4) 0.0262(2)
O3 O 1.0019(5) 0.3662(4) 0.1308(3)
S1 S 0.84783(18) 0.43591(14) 0.11040(9)
C1 C 0.9119(6) 0.5940(6) 0.2467(3)
C2 C 0.8586(6) 0.7238(5) 0.2877(3)
C3 C 0.6923(6) 0.7635(5) 0.2311(3)
C4 C 0.7216(6) 0.8012(5) 0.1483(3)
C5 C 0.8222(6) 0.7143(5) 0.1148(3)
C6 C 0.8742(7) 0.7496(6) 0.0431(3)
H1 H 0.9420 0.6914 0.0213
C7 C 0.8252(7) 0.8697(7) 0.0052(3)
H2 H 0.8586 0.8935 -0.0431
C8 C 0.7254(7) 0.9568(6) 0.0385(3)
H3 H 0.6910 1.0384 0.0119
C9 C 0.6769(7) 0.9240(5) 0.1101(3)
H4 H 0.6135 0.9849 0.1329
C10 C 0.9988(6) 0.8407(5) 0.2924(3)
H5 H 1.1061 0.8122 0.3260
H6 H 1.0143 0.8606 0.2373
C11 C 0.8545(7) 0.6831(7) 0.3772(3)
H7 H 0.8393 0.7638 0.4082
H8 H 0.9598 0.6433 0.4030
H9 H 0.7619 0.6167 0.3758
C12 C 0.5378(6) 0.7540(5) 0.2468(3)
C13 C 0.4833(6) 0.7270(5) 0.3255(3)
C14 C 0.5069(7) 0.8279(6) 0.3854(3)
H10 H 0.5626 0.9114 0.3781
C15 C 0.4492(8) 0.8081(6) 0.4574(3)
H11 H 0.4650 0.8772 0.4981
C16 C 0.3679(7) 0.6832(6) 0.4666(3)
C17 C 0.3424(7) 0.5820(6) 0.4076(3)
H12 H 0.2864 0.4985 0.4148
C18 C 0.4006(6) 0.6042(5) 0.3367(3)
H13 H 0.3837 0.5350 0.2960
C19 C 0.6962(6) 0.3513(5) 0.1558(3)
C20 C 0.5303(6) 0.3888(6) 0.1317(3)
H14 H 0.4997 0.4546 0.0911
C21 C 0.4100(7) 0.3278(6) 0.1684(4)
H15 H 0.2974 0.3524 0.1535
C22 C 0.4592(8) 0.2304(6) 0.2270(4)
C23 C 0.6238(8) 0.1907(6) 0.2514(4)
H16 H 0.6530 0.1236 0.2913
C24 C 0.7465(7) 0.2538(5) 0.2149(3)
H17 H 0.8595 0.2303 0.2303
loop_
_geom_bond_atom_site_label_1
_geom_bond_atom_site_label_2
_geom_bond_site_symmetry_1
_geom_bond_site_symmetry_2
Cl1 C16 1_555 1_555
Cl2 C22 1_555 1_555
I1 C12 1_555 1_555
N1 S1 1_555 1_555
N2 N3 1_555 1_555
N3 N4 1_555 1_555
O1 C1 1_555 1_555
O2 S1 1_555 1_555
O3 S1 1_555 1_555
S1 C19 1_555 1_555
C1 N1 1_555 1_555
C2 C1 1_555 1_555
C3 C2 1_555 1_555
C4 C3 1_555 1_555
C5 N1 1_555 1_555
C6 C5 1_555 1_555
H1 C6 1_555 1_555
C7 C6 1_555 1_555
H2 C7 1_555 1_555
C8 C7 1_555 1_555
H3 C8 1_555 1_555
C9 C4 1_555 1_555
H4 C9 1_555 1_555
C10 N2 1_555 1_555
H5 C10 1_555 1_555
H6 C10 1_555 1_555
C11 C2 1_555 1_555
H7 C11 1_555 1_555
H8 C11 1_555 1_555
H9 C11 1_555 1_555
C12 C3 1_555 1_555
C13 C12 1_555 1_555
C14 C13 1_555 1_555
H10 C14 1_555 1_555
C15 C14 1_555 1_555
H11 C15 1_555 1_555
C16 C15 1_555 1_555
C17 C16 1_555 1_555
H12 C17 1_555 1_555
C18 C13 1_555 1_555
H13 C18 1_555 1_555
C19 C20 1_555 1_555
C20 H14 1_555 1_555
C21 C20 1_555 1_555
H15 C21 1_555 1_555
C22 C21 1_555 1_555
C23 C22 1_555 1_555
H16 C23 1_555 1_555
C24 C19 1_555 1_555
H17 C24 1_555 1_555
C2 C10 1_555 1_555
C4 C5 1_555 1_555
C8 C9 1_555 1_555
C17 C18 1_555 1_555
C23 C24 1_555 1_555

#END
