
#######################################################################
#
#                 Cambridge Crystallographic Data Centre
#                                CCDC 
#
#######################################################################
#
# If this CIF has been generated from an entry in the Cambridge 
# Structural Database, then it will include bibliographic, chemical, 
# crystal, experimental, refinement or atomic coordinate data resulting 
# from the CCDC's data processing and validation procedures.
#
#######################################################################

data_TADRAT
_chemical_formula_moiety         'C10 H8 N14 Si1'
_chemical_name_systematic        
tetrakis(Azido)-(2,2'-bipyridine-N,N')-silicon
_symmetry_cell_setting           monoclinic
_symmetry_space_group_name_H-M   'P 21'
_symmetry_Int_Tables_number      4
_space_group_name_Hall           'P 2yb'
loop_
_symmetry_equiv_pos_site_id
_symmetry_equiv_pos_as_xyz
1 x,y,z
2 -x,1/2+y,-z
_cell_length_a                   6.8348(20)
_cell_length_b                   14.824(4)
_cell_length_c                   7.533(2)
_cell_angle_alpha                90
_cell_angle_beta                 99.85(2)
_cell_angle_gamma                90
_cell_volume                     751.986
_exptl_crystal_colour            colorless
_exptl_crystal_description       needle
_chemical_melting_point          'sublimes at 485 K'
_cell_formula_units_Z            2
_chemical_properties_physical    moisture-sensitive
_exptl_crystal_recrystallization_method acetonitrile
loop_
_atom_site_label
_atom_site_type_symbol
_atom_site_fract_x
_atom_site_fract_y
_atom_site_fract_z
C1 C 0.0382(3) -0.17357(12) -0.2022(2)
H1 H 0.0284 -0.2311 -0.1489
C2 C 0.1536(3) -0.10771(13) -0.1057(2)
H2 H 0.2210 -0.1197 0.0130
C3 C 0.1704(3) -0.02422(13) -0.1836(3)
H3 H 0.2480 0.0221 -0.1187
C4 C 0.0720(3) -0.00908(11) -0.3581(2)
H4 H 0.0830 0.0474 -0.4152
C5 C -0.0418(2) -0.07724(10) -0.4472(2)
C6 C -0.1444(2) -0.07218(11) -0.6348(2)
C7 C -0.1469(3) 0.00395(12) -0.7433(2)
H5 H -0.0877 0.0588 -0.6960
C8 C -0.2382(3) -0.00224(13) -0.9224(2)
H6 H -0.2426 0.0487 -0.9996
C9 C -0.3224(3) -0.08310(12) -0.9873(2)
H7 H -0.3815 -0.0888 -1.1104
C10 C -0.3201(2) -0.15561(12) -0.8717(2)
H8 H -0.3816 -0.2105 -0.9159
N1 N 0.0039(2) -0.29067(9) -0.57324(19)
N2 N 0.0314(2) -0.30000(10) -0.7262(2)
N3 N 0.0676(3) -0.31145(13) -0.8670(2)
N4 N -0.2049(2) -0.32785(9) -0.33363(19)
N5 N -0.3278(3) -0.33840(11) -0.2355(2)
N6 N -0.4325(3) -0.35249(15) -0.1372(2)
N7 N -0.3859(3) -0.31435(10) -0.68551(19)
N8 N -0.4847(2) -0.37683(10) -0.64844(19)
N9 N -0.5784(3) -0.43742(13) -0.6244(3)
N10 N -0.4422(2) -0.18842(10) -0.43706(18)
N11 N -0.5718(2) -0.15292(11) -0.54395(19)
N12 N -0.6945(3) -0.11810(15) -0.6405(2)
N13 N -0.06071(19) -0.15825(9) -0.36974(17)
N14 N -0.2322(2) -0.15012(9) -0.69706(17)
Si1 Si -0.22932(6) -0.24566(3) -0.51514(5)
loop_
_geom_bond_atom_site_label_1
_geom_bond_atom_site_label_2
_geom_bond_site_symmetry_1
_geom_bond_site_symmetry_2
C1 H1 1_555 1_555
C2 C1 1_555 1_555
H2 C2 1_555 1_555
C3 C2 1_555 1_555
H3 C3 1_555 1_555
C4 C3 1_555 1_555
H4 C4 1_555 1_555
C5 C4 1_555 1_555
C6 C5 1_555 1_555
C7 C6 1_555 1_555
H5 C7 1_555 1_555
C8 C7 1_555 1_555
H6 C8 1_555 1_555
C9 C8 1_555 1_555
H7 C9 1_555 1_555
C10 C9 1_555 1_555
H8 C10 1_555 1_555
N1 N2 1_555 1_555
N2 N3 1_555 1_555
N4 N5 1_555 1_555
N5 N6 1_555 1_555
N7 N8 1_555 1_555
N8 N9 1_555 1_555
N10 N11 1_555 1_555
N11 N12 1_555 1_555
N13 C1 1_555 1_555
N14 C6 1_555 1_555
Si1 N1 1_555 1_555
C5 N13 1_555 1_555
C10 N14 1_555 1_555
N4 Si1 1_555 1_555
N7 Si1 1_555 1_555
N10 Si1 1_555 1_555
N13 Si1 1_555 1_555
N14 Si1 1_555 1_555

#END
