
#######################################################################
#
#                 Cambridge Crystallographic Data Centre
#                                CCDC 
#
#######################################################################
#
# If this CIF has been generated from an entry in the Cambridge 
# Structural Database, then it will include bibliographic, chemical, 
# crystal, experimental, refinement or atomic coordinate data resulting 
# from the CCDC's data processing and validation procedures.
#
#######################################################################

data_TADSIB
_chemical_formula_moiety         'C10 H12 N2 O2 S1'
_chemical_name_systematic        N-Benzoyl-N'-(2-hydroxyethyl)thiourea
_symmetry_cell_setting           monoclinic
_symmetry_space_group_name_H-M   'P 21/c'
_symmetry_Int_Tables_number      14
_space_group_name_Hall           '-P 2ybc'
loop_
_symmetry_equiv_pos_site_id
_symmetry_equiv_pos_as_xyz
1 x,y,z
2 x,1/2-y,1/2+z
3 -x,-y,-z
4 -x,1/2+y,1/2-z
_cell_length_a                   17.083(3)
_cell_length_b                   4.5490(10)
_cell_length_c                   14.279(3)
_cell_angle_alpha                90
_cell_angle_beta                 102.44(3)
_cell_angle_gamma                90
_cell_volume                     1083.58
_exptl_crystal_colour            colorless
_exptl_crystal_description       block
_cell_formula_units_Z            4
_exptl_crystal_recrystallization_method ethanol
loop_
_atom_site_label
_atom_site_type_symbol
_atom_site_fract_x
_atom_site_fract_y
_atom_site_fract_z
S1 S 0.08551(3) 0.45894(16) 0.95174(4)
N1 N 0.21786(9) 0.7725(4) 0.97426(12)
H1 H 0.2015 0.8143 1.0226
N2 N 0.18859(10) 0.4902(4) 0.83755(12)
H2 H 0.2362 0.5520 0.8277
O1 O 0.31531(10) 0.8284(5) 0.89041(12)
O2 O 0.13441(10) 0.6596(4) 0.64428(11)
H3 H 0.1046 0.7612 0.6008
C1 C 0.40592(16) 1.1841(8) 1.0294(2)
H4 H 0.4265 1.1317 0.9742
C2 C 0.45035(19) 1.3645(9) 1.0993(3)
H5 H 0.5019 1.4339 1.0925
C3 C 0.42197(18) 1.4399(7) 1.1765(3)
H6 H 0.4531 1.5631 1.2253
C4 C 0.3497(2) 1.3431(10) 1.1847(3)
H7 H 0.3288 1.4008 1.2391
C5 C 0.30506(16) 1.1622(9) 1.1165(2)
H8 H 0.2540 1.0911 1.1246
C6 C 0.33226(12) 1.0822(5) 1.03780(16)
C7 C 0.28909(12) 0.8850(5) 0.96115(15)
C8 C 0.16700(12) 0.5742(5) 0.91664(14)
C9 C 0.14017(13) 0.3015(5) 0.76514(16)
H9 H 0.1087 0.1731 0.7956
H10 H 0.1745 0.1819 0.7359
C10 C 0.08607(15) 0.4766(6) 0.68919(17)
H11 H 0.0544 0.3474 0.6429
H12 H 0.0506 0.5943 0.7173
loop_
_geom_bond_atom_site_label_1
_geom_bond_atom_site_label_2
_geom_bond_site_symmetry_1
_geom_bond_site_symmetry_2
S1 C8 1_555 1_555
N1 H1 1_555 1_555
N2 H2 1_555 1_555
O1 C7 1_555 1_555
O2 H3 1_555 1_555
C1 H4 1_555 1_555
C2 C1 1_555 1_555
H5 C2 1_555 1_555
C3 C2 1_555 1_555
H6 C3 1_555 1_555
C4 C3 1_555 1_555
H7 C4 1_555 1_555
C5 C4 1_555 1_555
H8 C5 1_555 1_555
C6 C1 1_555 1_555
C7 N1 1_555 1_555
C8 N1 1_555 1_555
C9 N2 1_555 1_555
H9 C9 1_555 1_555
H10 C9 1_555 1_555
C10 O2 1_555 1_555
H11 C10 1_555 1_555
H12 C10 1_555 1_555
N2 C8 1_555 1_555
C5 C6 1_555 1_555
C6 C7 1_555 1_555
C9 C10 1_555 1_555

#END
