
#######################################################################
#
#                 Cambridge Crystallographic Data Centre
#                                CCDC 
#
#######################################################################
#
# If this CIF has been generated from an entry in the Cambridge 
# Structural Database, then it will include bibliographic, chemical, 
# crystal, experimental, refinement or atomic coordinate data resulting 
# from the CCDC's data processing and validation procedures.
#
#######################################################################

data_TADSAT
_chemical_formula_moiety         'C25 H18 Cl1 N3 O1'
_chemical_name_systematic        
1-((5-Chloro-2-hydroxyphenyl)phenylmethyl)-2-(2-pyridyl)-1H-benzimidazole
_symmetry_cell_setting           monoclinic
_symmetry_space_group_name_H-M   'P 21/c'
_symmetry_Int_Tables_number      14
_space_group_name_Hall           '-P 2ybc'
loop_
_symmetry_equiv_pos_site_id
_symmetry_equiv_pos_as_xyz
1 x,y,z
2 x,1/2-y,1/2+z
3 -x,-y,-z
4 -x,1/2+y,1/2-z
_cell_length_a                   13.515(2)
_cell_length_b                   9.597(2)
_cell_length_c                   16.875(2)
_cell_angle_alpha                90
_cell_angle_beta                 110.010(10)
_cell_angle_gamma                90
_cell_volume                     2056.62
_exptl_crystal_colour            colorless
_exptl_crystal_description       block
_cell_formula_units_Z            4
_exptl_crystal_recrystallization_method methanol/acetonitrile
loop_
_atom_site_label
_atom_site_type_symbol
_atom_site_fract_x
_atom_site_fract_y
_atom_site_fract_z
N1 N 0.27370(8) 0.13167(11) 0.18508(6)
N2 N 0.39468(9) -0.02686(12) 0.18339(7)
C1 C 0.28406(11) 0.14024(14) 0.10580(8)
C2 C 0.34144(11) 0.02950(14) 0.22825(8)
C3 C 0.35919(11) 0.04011(15) 0.10617(9)
C4 C 0.35184(12) -0.02258(15) 0.31334(9)
C5 C 0.09869(11) 0.18864(14) 0.19490(8)
C6 C 0.23141(11) 0.37906(13) 0.19685(8)
C7 C 0.21320(11) 0.22933(13) 0.21886(9)
C8 C 0.15082(13) 0.46110(15) 0.14484(9)
N3 N 0.26999(11) -0.00367(14) 0.33936(8)
C9 C 0.23442(13) 0.22136(16) 0.03491(9)
C10 C 0.33245(11) 0.43563(15) 0.23018(9)
C11 C 0.05079(12) 0.08976(17) 0.13415(9)
C12 C 0.26988(14) 0.65271(18) 0.15976(10)
C13 C 0.38656(13) 0.01773(17) 0.03450(10)
C14 C 0.17066(13) 0.59602(16) 0.12594(9)
C15 C 0.33773(13) 0.09732(18) -0.03571(10)
C16 C 0.03843(12) 0.25473(18) 0.23605(10)
C17 C 0.26306(14) 0.19749(17) -0.03527(10)
C18 C 0.35072(14) 0.57270(17) 0.21221(11)
C19 C -0.06732(13) 0.2243(2) 0.21586(12)
C20 C -0.05565(14) 0.0605(2) 0.11388(12)
C21 C 0.4456(2) -0.1491(2) 0.43792(13)
C22 C 0.44085(16) -0.0947(2) 0.36024(12)
C23 C -0.11394(15) 0.1269(2) 0.15494(12)
C24 C 0.27714(17) -0.0583(2) 0.41450(11)
C25 C 0.36287(19) -0.1305(2) 0.46453(13)
Cl1 Cl 0.06903(5) 0.69575(5) 0.05804(3)
O1 O 0.41034(8) 0.35159(11) 0.28005(6)
H1 H 0.2429(10) 0.2156(13) 0.2782(8)
H2 H 0.1811(12) 0.2929(16) 0.0350(9)
H3 H 0.0784(13) 0.4275(16) 0.1212(9)
H4 H 0.0938(13) 0.0354(16) 0.1066(9)
H5 H 0.0747(13) 0.3327(17) 0.2798(10)
H6 H 0.2850(14) 0.749(2) 0.1481(11)
H7 H 0.4235(14) 0.6024(18) 0.2399(10)
H8 H 0.4402(14) -0.0545(18) 0.0399(10)
H9 H 0.2233(13) 0.2518(17) -0.0894(10)
H10 H 0.3580(12) 0.0765(16) -0.0898(10)
H11 H -0.0850(16) -0.008(2) 0.0682(11)
H12 H -0.1927(18) 0.110(2) 0.1410(13)
H13 H 0.2131(16) -0.044(2) 0.4339(11)
H14 H 0.3677(18) -0.169(2) 0.5182(14)
H15 H -0.1087(19) 0.271(2) 0.2452(14)
H16 H 0.4990(17) -0.091(2) 0.3391(12)
H17 H 0.516(2) -0.191(3) 0.4730(17)
H18 H 0.4802(18) 0.397(2) 0.2964(12)
loop_
_geom_bond_atom_site_label_1
_geom_bond_atom_site_label_2
_geom_bond_site_symmetry_1
_geom_bond_site_symmetry_2
N1 C1 1_555 1_555
N2 C2 1_555 1_555
C1 C3 1_555 1_555
C2 N1 1_555 1_555
C3 N2 1_555 1_555
C4 C2 1_555 1_555
C5 C7 1_555 1_555
C6 C7 1_555 1_555
C7 N1 1_555 1_555
C8 C6 1_555 1_555
N3 C4 1_555 1_555
C9 C1 1_555 1_555
C10 C6 1_555 1_555
C11 C5 1_555 1_555
C12 C14 1_555 1_555
C13 C3 1_555 1_555
C14 C8 1_555 1_555
C15 C13 1_555 1_555
C16 C5 1_555 1_555
C17 C9 1_555 1_555
C18 C10 1_555 1_555
C19 C16 1_555 1_555
C20 C11 1_555 1_555
C21 C22 1_555 1_555
C22 C4 1_555 1_555
C23 C19 1_555 1_555
C24 N3 1_555 1_555
C25 C21 1_555 1_555
Cl1 C14 1_555 1_555
O1 C10 1_555 1_555
H1 C7 1_555 1_555
H2 C9 1_555 1_555
H3 C8 1_555 1_555
H4 C11 1_555 1_555
H5 C16 1_555 1_555
H6 C12 1_555 1_555
H7 C18 1_555 1_555
H8 C13 1_555 1_555
H9 C17 1_555 1_555
H10 C15 1_555 1_555
H11 C20 1_555 1_555
H12 C23 1_555 1_555
H13 C24 1_555 1_555
H14 C25 1_555 1_555
H15 C19 1_555 1_555
H16 C22 1_555 1_555
H17 C21 1_555 1_555
H18 O1 1_555 1_555
C12 C18 1_555 1_555
C15 C17 1_555 1_555
C20 C23 1_555 1_555
C24 C25 1_555 1_555

#END
