
#######################################################################
#
#                 Cambridge Crystallographic Data Centre
#                                CCDC 
#
#######################################################################
#
# If this CIF has been generated from an entry in the Cambridge 
# Structural Database, then it will include bibliographic, chemical, 
# crystal, experimental, refinement or atomic coordinate data resulting 
# from the CCDC's data processing and validation procedures.
#
#######################################################################

data_TADSAU
_chemical_formula_moiety         'C31 H24 Br1 N1 O2,0.5(C6 H6)'
_chemical_name_systematic        
'(1S,4R)-4-(4-Bromophenyl)-7-methyl-1,3,5-triphenyl-3,4-dihydro-1H-furo[3,4-d][1,2]oxazine benzene solvate'
_symmetry_cell_setting           monoclinic
_symmetry_space_group_name_H-M   'C 2'
_symmetry_Int_Tables_number      5
_space_group_name_Hall           'C 2y'
loop_
_symmetry_equiv_pos_site_id
_symmetry_equiv_pos_as_xyz
1 x,y,z
2 -x,y,-z
3 1/2+x,1/2+y,z
4 1/2-x,1/2+y,-z
_cell_length_a                   25.5570(12)
_cell_length_b                   10.5227(5)
_cell_length_c                   12.1818(6)
_cell_angle_alpha                90
_cell_angle_beta                 117.488(1)
_cell_angle_gamma                90
_cell_volume                     2906.2
_exptl_crystal_colour            colorless
_exptl_crystal_description       block
_cell_formula_units_Z            4
loop_
_atom_site_label
_atom_site_type_symbol
_atom_site_fract_x
_atom_site_fract_y
_atom_site_fract_z
N1 N 0.39401(13) 0.8033(3) 0.8524(2)
Br1 Br 0.10180(2) 0.94899(6) 0.47713(4)
O1 O 0.35764(12) 0.5448(3) 1.0988(2)
O2 O 0.38663(11) 0.9009(2) 0.9288(2)
C1 C 0.45881(19) 1.0316(5) 1.2012(4)
H1 H 0.4944 1.0170 1.1965
C2 C 0.4563(2) 1.1287(5) 1.2741(5)
H2 H 0.4899 1.1806 1.3189
C3 C 0.4056(2) 1.1508(5) 1.2821(4)
H3 H 0.4039 1.2175 1.3330
C4 C 0.3575(2) 1.0772(4) 1.2172(4)
H4 H 0.3218 1.0938 1.2209
C5 C 0.36038(18) 0.9775(5) 1.1451(3)
H5 H 0.3270 0.9242 1.1023
C6 C 0.41098(15) 0.9554(4) 1.1353(3)
C7 C 0.30455(15) 0.4371(4) 0.9027(3)
C8 C 0.3097(2) 0.3195(5) 0.9616(5)
H6 H 0.3328 0.3129 1.0488
C9 C 0.2817(3) 0.2156(5) 0.8944(6)
H7 H 0.2853 0.1368 0.9354
C10 C 0.2478(3) 0.2220(5) 0.7665(5)
H8 H 0.2293 0.1481 0.7201
C11 C 0.24162(18) 0.3354(5) 0.7094(4)
H9 H 0.2176 0.3411 0.6225
C12 C 0.26948(15) 0.4425(4) 0.7751(3)
H10 H 0.2647 0.5209 0.7329
C13 C 0.25161(16) 0.8294(4) 0.7857(3)
H11 H 0.2664 0.8334 0.8729
C14 C 0.19766(18) 0.8841(4) 0.7095(3)
H12 H 0.1751 0.9248 0.7432
C15 C 0.17774(18) 0.8780(4) 0.5845(3)
C16 C 0.20859(19) 0.8208(4) 0.5330(3)
H13 H 0.1935 0.8185 0.4457
C17 C 0.26203(19) 0.7663(4) 0.6090(3)
H14 H 0.2840 0.7262 0.5736
C18 C 0.28450(15) 0.7689(3) 0.7373(3)
C19 C 0.4161(2) 0.7862(5) 0.6826(4)
H15 H 0.4275 0.7008 0.7073
C20 C 0.4194(2) 0.8338(6) 0.5820(4)
H16 H 0.4334 0.7818 0.5373
C21 C 0.4025(2) 0.9569(9) 0.5449(4)
H17 H 0.4039 0.9893 0.4736
C22 C 0.3838(2) 1.0323(6) 0.6103(5)
H18 H 0.3730 1.1178 0.5850
C23 C 0.38024(18) 0.9857(4) 0.7145(4)
H19 H 0.3671 1.0387 0.7599
C24 C 0.39620(16) 0.8616(4) 0.7495(3)
C25 C 0.38656(16) 0.7284(4) 1.0536(3)
C26 C 0.38873(19) 0.6553(4) 1.1464(3)
C27 C 0.33542(17) 0.5488(4) 0.9708(3)
C28 C 0.35270(16) 0.6600(3) 0.9417(3)
C29 C 0.34478(16) 0.7115(3) 0.8189(3)
H20 H 0.3511 0.6399 0.7723
C30 C 0.41553(17) 0.8520(3) 1.0541(3)
H21 H 0.4581 0.8363 1.0784
C31 C 0.4176(3) 0.6679(5) 1.2830(4)
H22 H 0.4385 0.7492 1.3070
H23 H 0.4458 0.5981 1.3204
H24 H 0.3877 0.6645 1.3119
C32 C 0.5000 0.2452(12) 1.0000
H25 H 0.5000 0.1549 1.0000
C33 C 0.4663(7) 0.3124(13) 0.8874(9)
H26 H 0.4427 0.2685 0.8125
C34 C 0.4693(5) 0.4428(11) 0.8908(7)
H27 H 0.4494 0.4882 0.8152
C35 C 0.5000 0.5118(12) 1.0000
H28 H 0.5000 0.6021 1.0000
C33A C 0.5337(7) 0.3124(13) 1.1126(9)
H26A H 0.5573 0.2685 1.1875
C34A C 0.5307(5) 0.4428(11) 1.1092(7)
H27A H 0.5506 0.4882 1.1848
loop_
_geom_bond_atom_site_label_1
_geom_bond_atom_site_label_2
_geom_bond_site_symmetry_1
_geom_bond_site_symmetry_2
N1 O2 1_555 1_555
Br1 C15 1_555 1_555
O1 C26 1_555 1_555
O2 C30 1_555 1_555
C1 H1 1_555 1_555
C2 C1 1_555 1_555
H2 C2 1_555 1_555
C3 C2 1_555 1_555
H3 C3 1_555 1_555
C4 C3 1_555 1_555
H4 C4 1_555 1_555
C5 C4 1_555 1_555
H5 C5 1_555 1_555
C6 C1 1_555 1_555
C7 C8 1_555 1_555
C8 H6 1_555 1_555
C9 C8 1_555 1_555
H7 C9 1_555 1_555
C10 C9 1_555 1_555
H8 C10 1_555 1_555
C11 C10 1_555 1_555
H9 C11 1_555 1_555
C12 C7 1_555 1_555
H10 C12 1_555 1_555
C13 H11 1_555 1_555
C14 C13 1_555 1_555
H12 C14 1_555 1_555
C15 C14 1_555 1_555
C16 C15 1_555 1_555
H13 C16 1_555 1_555
C17 C16 1_555 1_555
H14 C17 1_555 1_555
C18 C13 1_555 1_555
C19 H15 1_555 1_555
C20 C19 1_555 1_555
H16 C20 1_555 1_555
C21 C20 1_555 1_555
H17 C21 1_555 1_555
C22 C21 1_555 1_555
H18 C22 1_555 1_555
C23 C22 1_555 1_555
H19 C23 1_555 1_555
C24 N1 1_555 1_555
C25 C26 1_555 1_555
C26 C31 1_555 1_555
C27 O1 1_555 1_555
C28 C25 1_555 1_555
C29 N1 1_555 1_555
H20 C29 1_555 1_555
C30 C6 1_555 1_555
H21 C30 1_555 1_555
C31 H22 1_555 1_555
H23 C31 1_555 1_555
H24 C31 1_555 1_555
C32 H25 1_555 1_555
C33 C32 1_555 1_555
H26 C33 1_555 1_555
C34 C33 1_555 1_555
H27 C34 1_555 1_555
C35 C34 1_555 1_555
H28 C35 1_555 1_555
C33A C32 1_555 1_555
H26A C33A 1_555 1_555
C34A C35 1_555 1_555
H27A C34A 1_555 1_555
C5 C6 1_555 1_555
C7 C27 1_555 1_555
C11 C12 1_555 1_555
C17 C18 1_555 1_555
C18 C29 1_555 1_555
C19 C24 1_555 1_555
C23 C24 1_555 1_555
C25 C30 1_555 1_555
C27 C28 1_555 1_555
C28 C29 1_555 1_555
C33A C34A 1_555 1_555

#END
