
#######################################################################
#
#                 Cambridge Crystallographic Data Centre
#                                CCDC 
#
#######################################################################
#
# If this CIF has been generated from an entry in the Cambridge 
# Structural Database, then it will include bibliographic, chemical, 
# crystal, experimental, refinement or atomic coordinate data resulting 
# from the CCDC's data processing and validation procedures.
#
#######################################################################

data_TADVOL
_chemical_formula_moiety         'C68 H62 B2 N2'
_chemical_name_systematic        
3,3'-(1,4-Phenylenediethyne-2,1-diyl)bis(6,6-dimesityl-6H-5\l^5^,6\l^5^-pyrido[1,2-b][2,1]benzazaborole)
_symmetry_cell_setting           monoclinic
_symmetry_space_group_name_H-M   'P 21/c'
_symmetry_Int_Tables_number      14
_space_group_name_Hall           '-P 2ybc'
loop_
_symmetry_equiv_pos_site_id
_symmetry_equiv_pos_as_xyz
1 x,y,z
2 -x,1/2+y,1/2-z
3 -x,-y,-z
4 x,1/2-y,1/2+z
_cell_length_a                   17.38(3)
_cell_length_b                   10.300(18)
_cell_length_c                   14.88(3)
_cell_angle_alpha                90
_cell_angle_beta                 90.887(18)
_cell_angle_gamma                90
_cell_volume                     2663.41
_exptl_crystal_colour            yellow
_exptl_crystal_description       thin
_cell_formula_units_Z            2
loop_
_atom_site_label
_atom_site_type_symbol
_atom_site_fract_x
_atom_site_fract_y
_atom_site_fract_z
N1 N 0.2898(3) 0.8373(6) 0.0691(4)
B1 B 0.2432(5) 0.9188(9) -0.0098(6)
C1 C 0.3215(3) 0.8796(7) 0.1425(5)
H1 H 0.3200 0.9702 0.1542
C2 C 0.3571(4) 0.8014(8) 0.2039(5)
C3 C 0.3546(4) 0.6656(7) 0.1900(5)
H2 H 0.3776 0.6076 0.2321
C4 C 0.3189(4) 0.6210(7) 0.1153(5)
H3 H 0.3153 0.5301 0.1054
C5 C 0.2872(4) 0.7054(8) 0.0529(5)
C6 C 0.2496(4) 0.6777(8) -0.0315(5)
C7 C 0.2398(4) 0.5553(8) -0.0711(5)
H4 H 0.2587 0.4798 -0.0414
C8 C 0.2031(5) 0.5445(8) -0.1524(6)
H5 H 0.1941 0.4620 -0.1792
C9 C 0.1787(4) 0.6604(9) -0.1957(5)
H6 H 0.1562 0.6555 -0.2542
C10 C 0.1869(4) 0.7807(7) -0.1549(5)
H7 H 0.1696 0.8568 -0.1852
C11 C 0.2206(4) 0.7902(7) -0.0696(5)
C12 C 0.3928(4) 0.8522(7) 0.2835(5)
C13 C 0.4262(4) 0.8958(7) 0.3466(5)
C14 C 0.4638(4) 0.9479(7) 0.4247(5)
C15 C 0.5224(4) 0.8827(7) 0.4672(5)
C16 C 0.4416(5) 1.0647(8) 0.4585(5)
C17 C 0.1817(4) 0.9975(8) 0.0483(5)
C18 C 0.1089(5) 0.9446(9) 0.0735(5)
C19 C 0.0568(5) 1.0116(11) 0.1269(5)
H8 H 0.0082 0.9746 0.1401
C20 C 0.0767(6) 1.1318(11) 0.1602(6)
C21 C 0.1452(5) 1.1802(9) 0.1388(6)
H9 H 0.1582 1.2638 0.1615
C22 C 0.1987(5) 1.1187(8) 0.0864(5)
C23 C 0.0822(5) 0.8228(8) 0.0414(6)
H10 H 0.0793 0.8245 -0.0244
H11 H 0.0310 0.8054 0.0653
H12 H 0.1179 0.7544 0.0610
C24 C 0.0200(5) 1.1972(11) 0.2214(7)
H13 H 0.0447 1.2716 0.2510
H14 H 0.0030 1.1352 0.2670
H15 H -0.0246 1.2271 0.1859
C25 C 0.2700(4) 1.1921(6) 0.0720(5)
H16 H 0.3132 1.1316 0.0666
H17 H 0.2794 1.2504 0.1230
H18 H 0.2649 1.2433 0.0167
C26 C 0.2943(4) 1.0096(6) -0.0755(4)
C27 C 0.3742(4) 1.0026(7) -0.0875(5)
C28 C 0.4118(4) 1.0886(7) -0.1425(5)
H19 H 0.4661 1.0830 -0.1476
C29 C 0.3725(4) 1.1820(7) -0.1900(5)
C30 C 0.2940(4) 1.1839(8) -0.1830(5)
H20 H 0.2656 1.2470 -0.2162
C31 C 0.2547(4) 1.0982(7) -0.1296(5)
C32 C 0.4223(4) 0.9010(7) -0.0402(5)
H21 H 0.4740 0.8998 -0.0656
H22 H 0.3982 0.8157 -0.0482
H23 H 0.4260 0.9215 0.0241
C33 C 0.1683(4) 1.1144(8) -0.1298(5)
H24 H 0.1482 1.1090 -0.1916
H25 H 0.1553 1.1992 -0.1043
H26 H 0.1453 1.0455 -0.0935
C34 C 0.4161(4) 1.2792(8) -0.2464(5)
H27 H 0.3891 1.3627 -0.2461
H28 H 0.4192 1.2472 -0.3083
H29 H 0.4681 1.2904 -0.2214
H30 H 0.406(4) 1.108(6) 0.424(4)
H31 H 0.5393 0.7963 0.4435
N1B N 0.7102(3) 1.1627(6) 0.9309(4)
B1B B 0.7568(5) 1.0812(9) 1.0098(6)
C1B C 0.6785(3) 1.1204(7) 0.8575(5)
H1B H 0.6800 1.0298 0.8458
C2B C 0.6429(4) 1.1986(8) 0.7961(5)
C3B C 0.6454(4) 1.3344(7) 0.8100(5)
H2B H 0.6224 1.3924 0.7679
C4B C 0.6811(4) 1.3790(7) 0.8847(5)
H3B H 0.6847 1.4699 0.8946
C5B C 0.7128(4) 1.2946(8) 0.9471(5)
C6B C 0.7504(4) 1.3223(8) 1.0315(5)
C7B C 0.7602(4) 1.4447(8) 1.0711(5)
H4B H 0.7413 1.5202 1.0414
C8B C 0.7969(5) 1.4555(8) 1.1524(6)
H5B H 0.8059 1.5380 1.1792
C9B C 0.8213(4) 1.3396(9) 1.1957(5)
H6B H 0.8438 1.3445 1.2542
C10B C 0.8131(4) 1.2193(7) 1.1549(5)
H7B H 0.8304 1.1432 1.1852
C11B C 0.7794(4) 1.2098(7) 1.0696(5)
C12B C 0.6072(4) 1.1478(7) 0.7165(5)
C13B C 0.5738(4) 1.1042(7) 0.6534(5)
C14B C 0.5362(4) 1.0521(7) 0.5753(5)
C15B C 0.4776(4) 1.1173(7) 0.5328(5)
C16B C 0.5584(5) 0.9353(8) 0.5415(5)
C17B C 0.8183(4) 1.0025(8) 0.9517(5)
C18B C 0.8911(5) 1.0554(9) 0.9265(5)
C19B C 0.9432(5) 0.9884(11) 0.8731(5)
H8B H 0.9918 1.0254 0.8599
C20B C 0.9233(6) 0.8682(11) 0.8398(6)
C21B C 0.8548(5) 0.8198(9) 0.8612(6)
H9B H 0.8418 0.7362 0.8385
C22B C 0.8013(5) 0.8813(8) 0.9136(5)
C23B C 0.9178(5) 1.1772(8) 0.9586(6)
H10B H 0.9207 1.1755 1.0244
H11B H 0.9690 1.1946 0.9347
H12B H 0.8821 1.2456 0.9390
C24B C 0.9800(5) 0.8028(11) 0.7786(7)
H13B H 0.9553 0.7284 0.7490
H14B H 0.9970 0.8648 0.7330
H15B H 1.0246 0.7729 0.8141
C25B C 0.7300(4) 0.8079(6) 0.9280(5)
H16B H 0.6868 0.8684 0.9334
H17B H 0.7206 0.7496 0.8770
H18B H 0.7351 0.7567 0.9833
C26B C 0.7057(4) 0.9904(6) 1.0755(4)
C27B C 0.6258(4) 0.9974(7) 1.0875(5)
C28B C 0.5882(4) 0.9114(7) 1.1425(5)
H19B H 0.5339 0.9170 1.1476
C29B C 0.6275(4) 0.8180(7) 1.1900(5)
C30B C 0.7060(4) 0.8161(8) 1.1830(5)
H20B H 0.7344 0.7530 1.2162
C31B C 0.7453(4) 0.9018(7) 1.1296(5)
C32B C 0.5777(4) 1.0990(7) 1.0402(5)
H21B H 0.5260 1.1002 1.0656
H22B H 0.6018 1.1843 1.0482
H23B H 0.5740 1.0785 0.9759
C33B C 0.8317(4) 0.8856(8) 1.1298(5)
H24B H 0.8518 0.8910 1.1916
H25B H 0.8447 0.8008 1.1043
H26B H 0.8547 0.9545 1.0935
C34B C 0.5839(4) 0.7208(8) 1.2464(5)
H27B H 0.6109 0.6373 1.2461
H28B H 0.5808 0.7528 1.3083
H29B H 0.5319 0.7096 1.2214
H30B H 0.594(4) 0.892(6) 0.576(4)
H31B H 0.4607 1.2037 0.5565
loop_
_geom_bond_atom_site_label_1
_geom_bond_atom_site_label_2
_geom_bond_site_symmetry_1
_geom_bond_site_symmetry_2
N1 B1 1_555 1_555
B1 C11 1_555 1_555
C1 N1 1_555 1_555
H1 C1 1_555 1_555
C2 C1 1_555 1_555
C3 C2 1_555 1_555
H2 C3 1_555 1_555
C4 C3 1_555 1_555
H3 C4 1_555 1_555
C5 N1 1_555 1_555
C6 C5 1_555 1_555
C7 C6 1_555 1_555
H4 C7 1_555 1_555
C8 C7 1_555 1_555
H5 C8 1_555 1_555
C9 C8 1_555 1_555
H6 C9 1_555 1_555
C10 C9 1_555 1_555
H7 C10 1_555 1_555
C11 C6 1_555 1_555
C12 C2 1_555 1_555
C13 C12 1_555 1_555
C14 C13 1_555 1_555
C15 C14 1_555 1_555
C16 C14 1_555 1_555
C17 B1 1_555 1_555
C18 C17 1_555 1_555
C19 C18 1_555 1_555
H8 C19 1_555 1_555
C20 C19 1_555 1_555
C21 C20 1_555 1_555
H9 C21 1_555 1_555
C22 C17 1_555 1_555
C23 C18 1_555 1_555
H10 C23 1_555 1_555
H11 C23 1_555 1_555
H12 C23 1_555 1_555
C24 C20 1_555 1_555
H13 C24 1_555 1_555
H14 C24 1_555 1_555
H15 C24 1_555 1_555
C25 C22 1_555 1_555
H16 C25 1_555 1_555
H17 C25 1_555 1_555
H18 C25 1_555 1_555
C26 B1 1_555 1_555
C27 C26 1_555 1_555
C28 C27 1_555 1_555
H19 C28 1_555 1_555
C29 C28 1_555 1_555
C30 C29 1_555 1_555
H20 C30 1_555 1_555
C31 C26 1_555 1_555
C32 C27 1_555 1_555
H21 C32 1_555 1_555
H22 C32 1_555 1_555
H23 C32 1_555 1_555
C33 C31 1_555 1_555
H24 C33 1_555 1_555
H25 C33 1_555 1_555
H26 C33 1_555 1_555
C34 C29 1_555 1_555
H27 C34 1_555 1_555
H28 C34 1_555 1_555
H29 C34 1_555 1_555
H30 C16 1_555 1_555
H31 C15 1_555 1_555
N1B B1B 1_555 1_555
B1B C11B 1_555 1_555
C1B N1B 1_555 1_555
H1B C1B 1_555 1_555
C2B C1B 1_555 1_555
C3B C2B 1_555 1_555
H2B C3B 1_555 1_555
C4B C3B 1_555 1_555
H3B C4B 1_555 1_555
C5B N1B 1_555 1_555
C6B C5B 1_555 1_555
C7B C6B 1_555 1_555
H4B C7B 1_555 1_555
C8B C7B 1_555 1_555
H5B C8B 1_555 1_555
C9B C8B 1_555 1_555
H6B C9B 1_555 1_555
C10B C9B 1_555 1_555
H7B C10B 1_555 1_555
C11B C6B 1_555 1_555
C12B C2B 1_555 1_555
C13B C12B 1_555 1_555
C14B C13B 1_555 1_555
C15B C16 1_555 1_555
C16B C15 1_555 1_555
C17B B1B 1_555 1_555
C18B C17B 1_555 1_555
C19B C18B 1_555 1_555
H8B C19B 1_555 1_555
C20B C19B 1_555 1_555
C21B C20B 1_555 1_555
H9B C21B 1_555 1_555
C22B C17B 1_555 1_555
C23B C18B 1_555 1_555
H10B C23B 1_555 1_555
H11B C23B 1_555 1_555
H12B C23B 1_555 1_555
C24B C20B 1_555 1_555
H13B C24B 1_555 1_555
H14B C24B 1_555 1_555
H15B C24B 1_555 1_555
C25B C22B 1_555 1_555
H16B C25B 1_555 1_555
H17B C25B 1_555 1_555
H18B C25B 1_555 1_555
C26B B1B 1_555 1_555
C27B C26B 1_555 1_555
C28B C27B 1_555 1_555
H19B C28B 1_555 1_555
C29B C28B 1_555 1_555
C30B C29B 1_555 1_555
H20B C30B 1_555 1_555
C31B C26B 1_555 1_555
C32B C27B 1_555 1_555
H21B C32B 1_555 1_555
H22B C32B 1_555 1_555
H23B C32B 1_555 1_555
C33B C31B 1_555 1_555
H24B C33B 1_555 1_555
H25B C33B 1_555 1_555
H26B C33B 1_555 1_555
C34B C29B 1_555 1_555
H27B C34B 1_555 1_555
H28B C34B 1_555 1_555
H29B C34B 1_555 1_555
H30B C16B 1_555 1_555
H31B C15B 1_555 1_555
C4 C5 1_555 1_555
C10 C11 1_555 1_555
C21 C22 1_555 1_555
C30 C31 1_555 1_555
C4B C5B 1_555 1_555
C10B C11B 1_555 1_555
C14B C15B 1_555 1_555
C14B C16B 1_555 1_555
C21B C22B 1_555 1_555
C30B C31B 1_555 1_555

#END
