
#######################################################################
#
#                 Cambridge Crystallographic Data Centre
#                                CCDC 
#
#######################################################################
#
# If this CIF has been generated from an entry in the Cambridge 
# Structural Database, then it will include bibliographic, chemical, 
# crystal, experimental, refinement or atomic coordinate data resulting 
# from the CCDC's data processing and validation procedures.
#
#######################################################################

data_TADVUR
_chemical_formula_moiety         'C62 H58 B2 N2'
_chemical_name_systematic        
"3,3'-Buta-1,3-diyne-1,4-diylbis(6,6-dimesityl-6H-5\l^5^,6\l^5^-pyrido[1,2-b][2,1]benzazaborole) unknown solvate"
_symmetry_cell_setting           monoclinic
_symmetry_space_group_name_H-M   'P 2/c'
_symmetry_Int_Tables_number      13
_space_group_name_Hall           '-P 2yc'
loop_
_symmetry_equiv_pos_site_id
_symmetry_equiv_pos_as_xyz
1 x,y,z
2 -x,y,1/2-z
3 -x,-y,-z
4 x,-y,1/2+z
_cell_length_a                   13.3761(17)
_cell_length_b                   16.962(2)
_cell_length_c                   28.202(5)
_cell_angle_alpha                90
_cell_angle_beta                 92.146(10)
_cell_angle_gamma                90
_cell_volume                     6394.13
_exptl_crystal_colour            orange
_cell_formula_units_Z            4
loop_
_atom_site_label
_atom_site_type_symbol
_atom_site_fract_x
_atom_site_fract_y
_atom_site_fract_z
N1 N 0.7189(3) 0.3562(3) 0.10519(14)
C1 C 0.5952(4) 0.2942(4) 0.1513(2)
C2 C 0.5152(4) 0.2616(4) 0.1768(2)
H1 H 0.4702 0.2957 0.1921
C3 C 0.5020(5) 0.1794(4) 0.1794(2)
H2 H 0.4492 0.1593 0.1975
C4 C 0.5604(4) 0.1290(4) 0.1577(2)
H3 H 0.5490 0.0739 0.1603
C5 C 0.6383(4) 0.1567(4) 0.1311(2)
H4 H 0.6803 0.1215 0.1148
C6 C 0.6525(4) 0.2367(4) 0.1292(2)
C7 C 0.7323(4) 0.2771(4) 0.1056(2)
C8 C 0.8169(5) 0.2467(4) 0.0845(2)
H5 H 0.8285 0.1915 0.0853
C9 C 0.8838(4) 0.2950(4) 0.0626(2)
H6 H 0.9401 0.2735 0.0477
C10 C 0.8675(4) 0.3748(4) 0.0628(2)
C11 C 0.7878(4) 0.4033(4) 0.08502(18)
H7 H 0.7792 0.4589 0.0867
C12 C 0.9312(5) 0.4260(5) 0.0385(3)
C13 C 0.9751(4) 0.4717(5) 0.0132(2)
C14 C 0.5235(4) 0.4134(4) 0.1074(2)
C15 C 0.5049(4) 0.4073(3) 0.0571(2)
C16 C 0.4128(4) 0.4335(4) 0.0388(2)
H8 H 0.3973 0.4266 0.0059
C17 C 0.3421(4) 0.4695(4) 0.0670(3)
C18 C 0.3581(5) 0.4754(4) 0.1140(2)
H9 H 0.3084 0.4976 0.1332
C19 C 0.4512(4) 0.4479(4) 0.1353(2)
C20 C 0.5728(4) 0.3668(4) 0.02608(19)
H10 H 0.5380 0.3551 -0.0043
H11 H 0.5955 0.3175 0.0411
H12 H 0.6307 0.4006 0.0206
C21 C 0.2466(4) 0.4912(5) 0.0362(3)
H13 H 0.1879 0.4662 0.0496
H14 H 0.2543 0.4723 0.0036
H15 H 0.2378 0.5485 0.0359
C22 C 0.4533(4) 0.4613(4) 0.1853(2)
H16 H 0.4997 0.4241 0.2010
H17 H 0.3861 0.4536 0.1972
H18 H 0.4755 0.5153 0.1920
C23 C 0.6790(4) 0.4499(4) 0.1735(2)
C24 C 0.6806(4) 0.5287(4) 0.1629(2)
C25 C 0.7260(5) 0.5849(4) 0.1898(3)
H19 H 0.7224 0.6390 0.1811
C26 C 0.7823(5) 0.5589(5) 0.2339(2)
C27 C 0.7791(4) 0.4843(4) 0.24190(19)
H20 H 0.8133 0.4675 0.2702
C28 C 0.7344(4) 0.4265(4) 0.2162(2)
C29 C 0.8294(7) 0.6250(6) 0.2586(3)
H21 H 0.8338 0.6139 0.2928
H22 H 0.7894 0.6727 0.2529
H23 H 0.8967 0.6329 0.2470
C30 C 0.6333(5) 0.5661(4) 0.1176(3)
H24 H 0.6494 0.5339 0.0900
H25 H 0.6599 0.6194 0.1137
H26 H 0.5605 0.5686 0.1202
C31 C 0.7356(3) 0.3444(4) 0.23077(19)
H27 H 0.7814 0.3379 0.2584
H28 H 0.7582 0.3115 0.2047
H29 H 0.6680 0.3284 0.2390
B1 B 0.6245(4) 0.3851(5) 0.1362(2)
N1B N 1.2811(3) 0.6438(3) -0.10519(14)
C1B C 1.4048(4) 0.7058(4) -0.1513(2)
C2B C 1.4848(4) 0.7384(4) -0.1768(2)
H1B H 1.5298 0.7043 -0.1921
C3B C 1.4980(5) 0.8206(4) -0.1794(2)
H2B H 1.5508 0.8407 -0.1975
C4B C 1.4396(4) 0.8710(4) -0.1577(2)
H3B H 1.4510 0.9261 -0.1603
C5B C 1.3617(4) 0.8433(4) -0.1311(2)
H4B H 1.3197 0.8785 -0.1148
C6B C 1.3475(4) 0.7633(4) -0.1292(2)
C7B C 1.2677(4) 0.7229(4) -0.1056(2)
C8B C 1.1831(5) 0.7533(4) -0.0845(2)
H5B H 1.1715 0.8085 -0.0853
C9B C 1.1162(4) 0.7050(4) -0.0626(2)
H6B H 1.0599 0.7265 -0.0477
C10B C 1.1325(4) 0.6252(4) -0.0628(2)
C11B C 1.2122(4) 0.5967(4) -0.08502(18)
H7B H 1.2208 0.5411 -0.0867
C12B C 1.0688(5) 0.5740(5) -0.0385(3)
C13B C 1.0249(4) 0.5283(5) -0.0132(2)
C14B C 1.4765(4) 0.5866(4) -0.1074(2)
C15B C 1.4951(4) 0.5927(3) -0.0571(2)
C16B C 1.5872(4) 0.5665(4) -0.0388(2)
H8B H 1.6027 0.5734 -0.0059
C17B C 1.6579(4) 0.5305(4) -0.0670(3)
C18B C 1.6419(5) 0.5246(4) -0.1140(2)
H9B H 1.6916 0.5024 -0.1332
C19B C 1.5488(4) 0.5521(4) -0.1353(2)
C20B C 1.4272(4) 0.6332(4) -0.02608(19)
H10B H 1.4620 0.6449 0.0043
H11B H 1.4045 0.6825 -0.0411
H12B H 1.3693 0.5994 -0.0206
C21B C 1.7534(4) 0.5088(5) -0.0362(3)
H13B H 1.8121 0.5338 -0.0496
H14B H 1.7457 0.5277 -0.0036
H15B H 1.7622 0.4515 -0.0359
C22B C 1.5467(4) 0.5387(4) -0.1853(2)
H16B H 1.5003 0.5759 -0.2010
H17B H 1.6139 0.5464 -0.1972
H18B H 1.5245 0.4847 -0.1920
C23B C 1.3210(4) 0.5501(4) -0.1735(2)
C24B C 1.3194(4) 0.4713(4) -0.1629(2)
C25B C 1.2740(5) 0.4151(4) -0.1898(3)
H19B H 1.2776 0.3610 -0.1811
C26B C 1.2177(5) 0.4411(5) -0.2339(2)
C27B C 1.2209(4) 0.5157(4) -0.24190(19)
H20B H 1.1867 0.5325 -0.2702
C28B C 1.2656(4) 0.5735(4) -0.2162(2)
C29B C 1.1706(7) 0.3750(6) -0.2586(3)
H21B H 1.1662 0.3861 -0.2928
H22B H 1.2106 0.3273 -0.2529
H23B H 1.1033 0.3671 -0.2470
C30B C 1.3667(5) 0.4339(4) -0.1176(3)
H24B H 1.3506 0.4661 -0.0900
H25B H 1.3401 0.3806 -0.1137
H26B H 1.4395 0.4314 -0.1202
C31B C 1.2644(3) 0.6556(4) -0.23077(19)
H27B H 1.2186 0.6621 -0.2584
H28B H 1.2418 0.6885 -0.2047
H29B H 1.3320 0.6716 -0.2390
B1B B 1.3755(4) 0.6149(5) -0.1362(2)
N2 N 0.2251(3) 0.1425(3) 0.10634(17)
C32 C 0.0948(4) 0.2032(4) 0.1546(2)
C33 C 0.0107(4) 0.2312(4) 0.1800(2)
H30 H -0.0335 0.1957 0.1946
C34 C -0.0030(4) 0.3098(5) 0.1822(2)
H31 H -0.0572 0.3283 0.1999
C35 C 0.0572(5) 0.3668(4) 0.1603(2)
H32 H 0.0424 0.4214 0.1624
C36 C 0.1410(4) 0.3397(5) 0.1347(2)
H33 H 0.1837 0.3757 0.1195
C37 C 0.1576(4) 0.2588(4) 0.1329(2)
C38 C 0.2369(4) 0.2206(4) 0.1071(2)
C39 C 0.3174(3) 0.2577(4) 0.0859(2)
H34 H 0.3275 0.3130 0.0876
C40 C 0.3813(4) 0.2084(4) 0.0623(2)
H35 H 0.4362 0.2307 0.0466
C41 C 0.3672(4) 0.1264(5) 0.0609(2)
C42 C 0.2868(4) 0.0944(4) 0.0857(2)
H36 H 0.2776 0.0390 0.0873
C43 C 0.4297(4) 0.0723(3) 0.03665(19)
C44 C 0.4748(4) 0.0258(4) 0.0145(2)
C45 C 0.0265(4) 0.0838(3) 0.10643(19)
C46 C 0.0025(4) 0.0986(4) 0.0593(3)
C47 C -0.0853(4) 0.0698(4) 0.0338(2)
H37 H -0.0925 0.0741 0.0003
C48 C -0.1587(5) 0.0356(4) 0.0603(3)
C49 C -0.1379(4) 0.0236(4) 0.1094(2)
H38 H -0.1850 -0.0048 0.1272
C50 C -0.0536(4) 0.0508(3) 0.1323(2)
C51 C 0.0768(4) 0.1392(4) 0.0232(2)
H39 H 0.0923 0.1929 0.0339
H40 H 0.0447 0.1410 -0.0086
H41 H 0.1387 0.1085 0.0223
C52 C -0.2603(5) 0.0015(5) 0.0419(3)
H42 H -0.2583 -0.0079 0.0077
H43 H -0.3138 0.0392 0.0482
H44 H -0.2733 -0.0483 0.0582
C53 C -0.0378(4) 0.0369(4) 0.1878(2)
H45 H 0.0139 0.0729 0.2005
H46 H -0.0170 -0.0177 0.1936
H47 H -0.1008 0.0471 0.2034
C54 C 0.1782(5) 0.0508(4) 0.1704(2)
C55 C 0.1859(5) -0.0314(5) 0.1574(3)
C56 C 0.2380(7) -0.0862(7) 0.1876(3)
H48 H 0.2458 -0.1390 0.1772
C57 C 0.2719(10) -0.0673(8) 0.2257(6)
C58 C 0.2764(8) 0.0116(8) 0.2470(4)
H49 H 0.3077 0.0239 0.2769
C59 C 0.2252(5) 0.0691(5) 0.2154(3)
C60 C 0.1350(4) -0.0659(4) 0.1129(2)
H50 H 0.1317 -0.0257 0.0879
H51 H 0.0671 -0.0828 0.1200
H52 H 0.1734 -0.1113 0.1021
C61 C 0.2303(5) 0.1543(4) 0.2368(2)
H53 H 0.1624 0.1754 0.2389
H54 H 0.2692 0.1884 0.2163
H55 H 0.2626 0.1523 0.2686
C62 C 0.3350(7) -0.1195(5) 0.2697(3)
H56 H 0.3025 -0.1707 0.2738
H57 H 0.3339 -0.0899 0.2995
H58 H 0.4044 -0.1276 0.2609
B2 B 0.1252(5) 0.1171(5) 0.1376(3)
N2B N 0.7749(3) -0.1425(3) -0.10634(17)
C32B C 0.9052(4) -0.2032(4) -0.1546(2)
C33B C 0.9893(4) -0.2312(4) -0.1800(2)
H30B H 1.0335 -0.1957 -0.1946
C34B C 1.0030(4) -0.3098(5) -0.1822(2)
H31B H 1.0572 -0.3283 -0.1999
C35B C 0.9428(5) -0.3668(4) -0.1603(2)
H32B H 0.9576 -0.4214 -0.1624
C36B C 0.8590(4) -0.3397(5) -0.1347(2)
H33B H 0.8163 -0.3757 -0.1195
C37B C 0.8424(4) -0.2588(4) -0.1329(2)
C38B C 0.7631(4) -0.2206(4) -0.1071(2)
C39B C 0.6826(3) -0.2577(4) -0.0859(2)
H34B H 0.6725 -0.3130 -0.0876
C40B C 0.6187(4) -0.2084(4) -0.0623(2)
H35B H 0.5638 -0.2307 -0.0466
C41B C 0.6328(4) -0.1264(5) -0.0609(2)
C42B C 0.7132(4) -0.0944(4) -0.0857(2)
H36B H 0.7224 -0.0390 -0.0873
C43B C 0.5703(4) -0.0723(3) -0.03665(19)
C44B C 0.5252(4) -0.0258(4) -0.0145(2)
C45B C 0.9735(4) -0.0838(3) -0.10643(19)
C46B C 0.9975(4) -0.0986(4) -0.0593(3)
C47B C 1.0853(4) -0.0698(4) -0.0338(2)
H37B H 1.0925 -0.0741 -0.0003
C48B C 1.1587(5) -0.0356(4) -0.0603(3)
C49B C 1.1379(4) -0.0236(4) -0.1094(2)
H38B H 1.1850 0.0048 -0.1272
C50B C 1.0536(4) -0.0508(3) -0.1323(2)
C51B C 0.9232(4) -0.1392(4) -0.0232(2)
H39B H 0.9077 -0.1929 -0.0339
H40B H 0.9553 -0.1410 0.0086
H41B H 0.8613 -0.1085 -0.0223
C52B C 1.2603(5) -0.0015(5) -0.0419(3)
H42B H 1.2583 0.0079 -0.0077
H43B H 1.3138 -0.0392 -0.0482
H44B H 1.2733 0.0483 -0.0582
C53B C 1.0378(4) -0.0369(4) -0.1878(2)
H45B H 0.9861 -0.0729 -0.2005
H46B H 1.0170 0.0177 -0.1936
H47B H 1.1008 -0.0471 -0.2034
C54B C 0.8218(5) -0.0508(4) -0.1704(2)
C55B C 0.8141(5) 0.0314(5) -0.1574(3)
C56B C 0.7620(7) 0.0862(7) -0.1876(3)
H48B H 0.7542 0.1390 -0.1772
C57B C 0.7281(10) 0.0673(8) -0.2257(6)
C58B C 0.7236(8) -0.0116(8) -0.2470(4)
H49B H 0.6923 -0.0239 -0.2769
C59B C 0.7748(5) -0.0691(5) -0.2154(3)
C60B C 0.8650(4) 0.0659(4) -0.1129(2)
H50B H 0.8683 0.0257 -0.0879
H51B H 0.9329 0.0828 -0.1200
H52B H 0.8266 0.1113 -0.1021
C61B C 0.7697(5) -0.1543(4) -0.2368(2)
H53B H 0.8376 -0.1754 -0.2389
H54B H 0.7308 -0.1884 -0.2163
H55B H 0.7374 -0.1523 -0.2686
C62B C 0.6650(7) 0.1195(5) -0.2697(3)
H56B H 0.6975 0.1707 -0.2738
H57B H 0.6661 0.0899 -0.2995
H58B H 0.5956 0.1276 -0.2609
B2B B 0.8748(5) -0.1171(5) -0.1376(3)
loop_
_geom_bond_atom_site_label_1
_geom_bond_atom_site_label_2
_geom_bond_site_symmetry_1
_geom_bond_site_symmetry_2
N1 C7 1_555 1_555
N2 C38 1_555 1_555
C1 C2 1_555 1_555
C2 H1 1_555 1_555
C3 C2 1_555 1_555
H2 C3 1_555 1_555
C4 C3 1_555 1_555
H3 C4 1_555 1_555
C5 C4 1_555 1_555
H4 C5 1_555 1_555
C6 C1 1_555 1_555
C7 C6 1_555 1_555
C8 C7 1_555 1_555
H5 C8 1_555 1_555
C9 C8 1_555 1_555
H6 C9 1_555 1_555
C10 C9 1_555 1_555
C11 N1 1_555 1_555
H7 C11 1_555 1_555
C12 C10 1_555 1_555
C13 C12 1_555 1_555
C14 C15 1_555 1_555
C15 C16 1_555 1_555
C16 H8 1_555 1_555
C17 C16 1_555 1_555
C18 C17 1_555 1_555
H9 C18 1_555 1_555
C19 C14 1_555 1_555
C20 C15 1_555 1_555
H10 C20 1_555 1_555
H11 C20 1_555 1_555
H12 C20 1_555 1_555
C21 C17 1_555 1_555
H13 C21 1_555 1_555
H14 C21 1_555 1_555
H15 C21 1_555 1_555
C22 C19 1_555 1_555
H16 C22 1_555 1_555
H17 C22 1_555 1_555
H18 C22 1_555 1_555
C23 C24 1_555 1_555
C24 C25 1_555 1_555
C25 H19 1_555 1_555
C26 C25 1_555 1_555
C27 C26 1_555 1_555
H20 C27 1_555 1_555
C28 C23 1_555 1_555
C29 C26 1_555 1_555
H21 C29 1_555 1_555
H22 C29 1_555 1_555
H23 C29 1_555 1_555
C30 C24 1_555 1_555
H24 C30 1_555 1_555
H25 C30 1_555 1_555
H26 C30 1_555 1_555
C31 C28 1_555 1_555
H27 C31 1_555 1_555
H28 C31 1_555 1_555
H29 C31 1_555 1_555
C32 C33 1_555 1_555
C33 H30 1_555 1_555
C34 C33 1_555 1_555
H31 C34 1_555 1_555
C35 C34 1_555 1_555
H32 C35 1_555 1_555
C36 C35 1_555 1_555
H33 C36 1_555 1_555
C37 C32 1_555 1_555
C38 C37 1_555 1_555
C39 C38 1_555 1_555
H34 C39 1_555 1_555
C40 C39 1_555 1_555
H35 C40 1_555 1_555
C41 C40 1_555 1_555
C42 N2 1_555 1_555
H36 C42 1_555 1_555
C43 C41 1_555 1_555
C44 C43 1_555 1_555
C45 C46 1_555 1_555
C46 C47 1_555 1_555
C47 H37 1_555 1_555
C48 C47 1_555 1_555
C49 C48 1_555 1_555
H38 C49 1_555 1_555
C50 C45 1_555 1_555
C51 C46 1_555 1_555
H39 C51 1_555 1_555
H40 C51 1_555 1_555
H41 C51 1_555 1_555
C52 C48 1_555 1_555
H42 C52 1_555 1_555
H43 C52 1_555 1_555
H44 C52 1_555 1_555
C53 C50 1_555 1_555
H45 C53 1_555 1_555
H46 C53 1_555 1_555
H47 C53 1_555 1_555
C54 C55 1_555 1_555
C55 C56 1_555 1_555
C56 H48 1_555 1_555
C57 C56 1_555 1_555
C58 C57 1_555 1_555
H49 C58 1_555 1_555
C59 C54 1_555 1_555
C60 C55 1_555 1_555
H50 C60 1_555 1_555
H51 C60 1_555 1_555
H52 C60 1_555 1_555
C61 C59 1_555 1_555
H53 C61 1_555 1_555
H54 C61 1_555 1_555
H55 C61 1_555 1_555
C62 C57 1_555 1_555
H56 C62 1_555 1_555
H57 C62 1_555 1_555
H58 C62 1_555 1_555
B1 N1 1_555 1_555
B2 N2 1_555 1_555
N1B C7B 1_555 1_555
N2B C38B 1_555 1_555
C1B C2B 1_555 1_555
C2B H1B 1_555 1_555
C3B C2B 1_555 1_555
H2B C3B 1_555 1_555
C4B C3B 1_555 1_555
H3B C4B 1_555 1_555
C5B C4B 1_555 1_555
H4B C5B 1_555 1_555
C6B C1B 1_555 1_555
C7B C6B 1_555 1_555
C8B C7B 1_555 1_555
H5B C8B 1_555 1_555
C9B C8B 1_555 1_555
H6B C9B 1_555 1_555
C10B C9B 1_555 1_555
C11B N1B 1_555 1_555
H7B C11B 1_555 1_555
C12B C10B 1_555 1_555
C13B C13 1_555 1_555
C14B C15B 1_555 1_555
C15B C16B 1_555 1_555
C16B H8B 1_555 1_555
C17B C16B 1_555 1_555
C18B C17B 1_555 1_555
H9B C18B 1_555 1_555
C19B C14B 1_555 1_555
C20B C15B 1_555 1_555
H10B C20B 1_555 1_555
H11B C20B 1_555 1_555
H12B C20B 1_555 1_555
C21B C17B 1_555 1_555
H13B C21B 1_555 1_555
H14B C21B 1_555 1_555
H15B C21B 1_555 1_555
C22B C19B 1_555 1_555
H16B C22B 1_555 1_555
H17B C22B 1_555 1_555
H18B C22B 1_555 1_555
C23B C24B 1_555 1_555
C24B C25B 1_555 1_555
C25B H19B 1_555 1_555
C26B C25B 1_555 1_555
C27B C26B 1_555 1_555
H20B C27B 1_555 1_555
C28B C23B 1_555 1_555
C29B C26B 1_555 1_555
H21B C29B 1_555 1_555
H22B C29B 1_555 1_555
H23B C29B 1_555 1_555
C30B C24B 1_555 1_555
H24B C30B 1_555 1_555
H25B C30B 1_555 1_555
H26B C30B 1_555 1_555
C31B C28B 1_555 1_555
H27B C31B 1_555 1_555
H28B C31B 1_555 1_555
H29B C31B 1_555 1_555
C32B C33B 1_555 1_555
C33B H30B 1_555 1_555
C34B C33B 1_555 1_555
H31B C34B 1_555 1_555
C35B C34B 1_555 1_555
H32B C35B 1_555 1_555
C36B C35B 1_555 1_555
H33B C36B 1_555 1_555
C37B C32B 1_555 1_555
C38B C37B 1_555 1_555
C39B C38B 1_555 1_555
H34B C39B 1_555 1_555
C40B C39B 1_555 1_555
H35B C40B 1_555 1_555
C41B C40B 1_555 1_555
C42B N2B 1_555 1_555
H36B C42B 1_555 1_555
C43B C41B 1_555 1_555
C44B C44 1_555 1_555
C45B C46B 1_555 1_555
C46B C47B 1_555 1_555
C47B H37B 1_555 1_555
C48B C47B 1_555 1_555
C49B C48B 1_555 1_555
H38B C49B 1_555 1_555
C50B C45B 1_555 1_555
C51B C46B 1_555 1_555
H39B C51B 1_555 1_555
H40B C51B 1_555 1_555
H41B C51B 1_555 1_555
C52B C48B 1_555 1_555
H42B C52B 1_555 1_555
H43B C52B 1_555 1_555
H44B C52B 1_555 1_555
C53B C50B 1_555 1_555
H45B C53B 1_555 1_555
H46B C53B 1_555 1_555
H47B C53B 1_555 1_555
C54B C55B 1_555 1_555
C55B C56B 1_555 1_555
C56B H48B 1_555 1_555
C57B C56B 1_555 1_555
C58B C57B 1_555 1_555
H49B C58B 1_555 1_555
C59B C54B 1_555 1_555
C60B C55B 1_555 1_555
H50B C60B 1_555 1_555
H51B C60B 1_555 1_555
H52B C60B 1_555 1_555
C61B C59B 1_555 1_555
H53B C61B 1_555 1_555
H54B C61B 1_555 1_555
H55B C61B 1_555 1_555
C62B C57B 1_555 1_555
H56B C62B 1_555 1_555
H57B C62B 1_555 1_555
H58B C62B 1_555 1_555
B1B N1B 1_555 1_555
B2B N2B 1_555 1_555
C1 B1 1_555 1_555
C5 C6 1_555 1_555
C10 C11 1_555 1_555
C14 B1 1_555 1_555
C18 C19 1_555 1_555
C23 B1 1_555 1_555
C27 C28 1_555 1_555
C32 B2 1_555 1_555
C36 C37 1_555 1_555
C41 C42 1_555 1_555
C45 B2 1_555 1_555
C49 C50 1_555 1_555
C54 B2 1_555 1_555
C58 C59 1_555 1_555
C1B B1B 1_555 1_555
C5B C6B 1_555 1_555
C10B C11B 1_555 1_555
C12B C13B 1_555 1_555
C14B B1B 1_555 1_555
C18B C19B 1_555 1_555
C23B B1B 1_555 1_555
C27B C28B 1_555 1_555
C32B B2B 1_555 1_555
C36B C37B 1_555 1_555
C41B C42B 1_555 1_555
C43B C44B 1_555 1_555
C45B B2B 1_555 1_555
C49B C50B 1_555 1_555
C54B B2B 1_555 1_555
C58B C59B 1_555 1_555

#END
