
#######################################################################
#
#                 Cambridge Crystallographic Data Centre
#                                CCDC 
#
#######################################################################
#
# If this CIF has been generated from an entry in the Cambridge 
# Structural Database, then it will include bibliographic, chemical, 
# crystal, experimental, refinement or atomic coordinate data resulting 
# from the CCDC's data processing and validation procedures.
#
#######################################################################

data_TADVAX
_chemical_formula_moiety         'C18 H13 F2 N1 O1'
_chemical_name_systematic        
6-Fluoro-8b-(4-fluorophenyl)-4-methylene-3,3a,4,8b-tetrahydroindeno[1,2-b]pyrrol-2(1H)-one
_symmetry_cell_setting           monoclinic
_symmetry_space_group_name_H-M   'C 2/c'
_symmetry_Int_Tables_number      15
_space_group_name_Hall           '-C 2yn'
loop_
_symmetry_equiv_pos_site_id
_symmetry_equiv_pos_as_xyz
1 x,y,z
2 1/2+x,1/2+y,z
3 -x,y,1/2-z
4 1/2-x,1/2+y,1/2-z
5 -x,-y,-z
6 1/2-x,1/2-y,-z
7 x,-y,1/2+z
8 1/2+x,1/2-y,1/2+z
_cell_length_a                   25.9672(6)
_cell_length_b                   7.3668(2)
_cell_length_c                   17.6121(5)
_cell_angle_alpha                90
_cell_angle_beta                 124.3779(13)
_cell_angle_gamma                90
_cell_volume                     2780.63
_exptl_crystal_colour            colorless
_exptl_crystal_description       rod
_cell_formula_units_Z            8
loop_
_atom_site_label
_atom_site_type_symbol
_atom_site_fract_x
_atom_site_fract_y
_atom_site_fract_z
F1 F 0.20676(5) 0.14164(18) 0.60239(7)
F2 F -0.07189(5) -0.31694(16) 0.00600(8)
O1 O 0.24462(5) 0.31027(16) 0.19988(8)
N1 N 0.18209(6) 0.13545(19) 0.22320(9)
C1 C 0.13108(7) 0.1498(2) 0.23536(11)
C2 C 0.20052(7) 0.2927(2) 0.20777(10)
C3 C 0.16008(8) 0.4450(2) 0.20320(12)
C4 C 0.11165(7) 0.3559(2) 0.21550(11)
C5 C 0.11256(8) 0.4225(2) 0.29789(12)
C6 C 0.14295(7) 0.2821(2) 0.36952(11)
C7 C 0.16079(8) 0.2894(3) 0.46058(12)
C8 C 0.18884(7) 0.1374(3) 0.51355(11)
C9 C 0.20018(7) -0.0199(3) 0.48214(12)
C10 C 0.18215(7) -0.0263(2) 0.39117(11)
C11 C 0.15379(7) 0.1265(2) 0.33559(10)
C12 C 0.08855(11) 0.5778(3) 0.30281(17)
C13 C 0.07749(7) 0.0213(2) 0.17245(10)
C14 C 0.02214(7) 0.0377(2) 0.16788(11)
C15 C -0.02842(8) -0.0751(2) 0.11206(12)
C16 C -0.02275(8) -0.2046(2) 0.06091(11)
C17 C 0.03065(8) -0.2256(2) 0.06296(12)
C18 C 0.08104(8) -0.1103(2) 0.11949(11)
H1 H 0.0698(9) 0.368(3) 0.1588(13)
H2 H 0.2054(8) 0.038(3) 0.2419(12)
H3 H 0.1170(9) -0.126(3) 0.1198(13)
H4 H 0.0200(9) 0.136(3) 0.2077(14)
H5 H 0.1907(8) -0.138(3) 0.3657(13)
H6 H 0.1868(10) 0.535(3) 0.2508(15)
H7 H -0.0675(9) -0.063(3) 0.1096(14)
H8 H 0.0903(10) 0.609(3) 0.3591(16)
H9 H 0.0676(12) 0.660(4) 0.2517(19)
H10 H 0.1415(9) 0.510(3) 0.1442(15)
H11 H 0.1540(11) 0.393(3) 0.4870(16)
H12 H 0.0347(9) -0.323(3) 0.0251(14)
H13 H 0.2207(10) -0.127(3) 0.5272(16)
loop_
_geom_bond_atom_site_label_1
_geom_bond_atom_site_label_2
_geom_bond_site_symmetry_1
_geom_bond_site_symmetry_2
F1 C8 1_555 1_555
F2 C16 1_555 1_555
O1 C2 1_555 1_555
N1 C1 1_555 1_555
C1 C4 1_555 1_555
C2 N1 1_555 1_555
C3 C2 1_555 1_555
C4 C3 1_555 1_555
C5 C4 1_555 1_555
C6 C5 1_555 1_555
C7 C6 1_555 1_555
C8 C7 1_555 1_555
C9 C8 1_555 1_555
C10 C9 1_555 1_555
C11 C1 1_555 1_555
C12 C5 1_555 1_555
C13 C1 1_555 1_555
C14 C13 1_555 1_555
C15 C14 1_555 1_555
C16 C15 1_555 1_555
C17 C16 1_555 1_555
C18 C13 1_555 1_555
H1 C4 1_555 1_555
H2 N1 1_555 1_555
H3 C18 1_555 1_555
H4 C14 1_555 1_555
H5 C10 1_555 1_555
H6 C3 1_555 1_555
H7 C15 1_555 1_555
H8 C12 1_555 1_555
H9 C12 1_555 1_555
H10 C3 1_555 1_555
H11 C7 1_555 1_555
H12 C17 1_555 1_555
H13 C9 1_555 1_555
C6 C11 1_555 1_555
C10 C11 1_555 1_555
C17 C18 1_555 1_555

#END
