
#######################################################################
#
#                 Cambridge Crystallographic Data Centre
#                                CCDC 
#
#######################################################################
#
# If this CIF has been generated from an entry in the Cambridge 
# Structural Database, then it will include bibliographic, chemical, 
# crystal, experimental, refinement or atomic coordinate data resulting 
# from the CCDC's data processing and validation procedures.
#
#######################################################################

data_TADWUT
_chemical_formula_moiety         'C17 H16 Br1 N1 O5 S1'
_chemical_name_systematic        
'Diethyl 6-bromo-3-hydroxythieno[2,3-b]quinoline-2,2(3H)-dicarboxylate'
_symmetry_cell_setting           triclinic
_symmetry_space_group_name_H-M   'P -1'
_symmetry_Int_Tables_number      2
_space_group_name_Hall           '-P 1'
loop_
_symmetry_equiv_pos_site_id
_symmetry_equiv_pos_as_xyz
1 x,y,z
2 -x,-y,-z
_cell_length_a                   9.0005(5)
_cell_length_b                   9.8533(5)
_cell_length_c                   10.2837(5)
_cell_angle_alpha                86.350(3)
_cell_angle_beta                 84.591(3)
_cell_angle_gamma                85.213(3)
_cell_volume                     903.346
_cell_formula_units_Z            2
loop_
_atom_site_label
_atom_site_type_symbol
_atom_site_fract_x
_atom_site_fract_y
_atom_site_fract_z
Br1 Br 0.05766(5) 0.91175(4) 0.83605(4)
S1 S -0.30913(9) 0.32132(8) 1.38832(7)
N1 N -0.1114(3) 0.4780(3) 1.2542(3)
O1 O -0.6079(2) 0.5521(2) 1.3120(2)
H1 H -0.5553 0.5922 1.3554
O2 O -0.6029(3) 0.3220(2) 1.5445(2)
C1 C -0.1440(4) 0.7420(3) 0.9806(3)
H2 H -0.2140 0.7841 0.9270
C2 C -0.2501(3) 0.4444(3) 1.2669(3)
C3 C 0.0003(4) 0.7765(3) 0.9661(3)
C4 C -0.3673(3) 0.5033(3) 1.1936(3)
C5 C 0.0698(4) 0.6184(4) 1.1404(4)
H3 H 0.1413 0.5787 1.1937
C6 C -0.3355(3) 0.6022(3) 1.0999(3)
H4 H -0.4099 0.6436 1.0506
C7 C -0.5180(3) 0.4547(3) 1.2394(3)
H5 H -0.5687 0.4366 1.1627
C8 C 0.1086(4) 0.7155(4) 1.0450(4)
H6 H 0.2064 0.7408 1.0326
O3 O -0.7399(3) 0.2853(3) 1.3811(2)
O4 O -0.4760(3) 0.2052(2) 1.1187(2)
C9 C -0.1861(3) 0.6417(3) 1.0780(3)
C10 C -0.4809(4) 0.1961(3) 1.2356(3)
O5 O -0.4756(3) 0.0801(2) 1.3080(2)
C11 C -0.4897(3) 0.3178(3) 1.3212(3)
C12 C -0.6159(4) 0.3070(3) 1.4309(3)
C13 C -0.0782(3) 0.5779(3) 1.1585(3)
C14 C -0.4745(6) -0.0466(4) 1.2397(5)
H7 H -0.4273 -0.0336 1.1515
H8 H -0.4164 -0.1190 1.2850
C15 C -0.8788(4) 0.2913(5) 1.4680(4)
H9 H -0.8750 0.3604 1.5305
H10 H -0.9628 0.3176 1.4168
C16 C -0.9023(7) 0.1598(7) 1.5388(7)
H11 H -0.9935 0.1678 1.5952
H12 H -0.8198 0.1339 1.5903
H13 H -0.9089 0.0917 1.4773
C17 C -0.6252(8) -0.0854(5) 1.2344(9)
H14 H -0.6220 -0.1682 1.1894
H15 H -0.6823 -0.0142 1.1886
H16 H -0.6713 -0.0997 1.3217
loop_
_geom_bond_atom_site_label_1
_geom_bond_atom_site_label_2
_geom_bond_site_symmetry_1
_geom_bond_site_symmetry_2
Br1 C3 1_555 1_555
S1 C2 1_555 1_555
N1 C2 1_555 1_555
O1 H1 1_555 1_555
O2 C12 1_555 1_555
C1 H2 1_555 1_555
C2 C4 1_555 1_555
C3 C1 1_555 1_555
C4 C6 1_555 1_555
C5 H3 1_555 1_555
C6 H4 1_555 1_555
C7 O1 1_555 1_555
H5 C7 1_555 1_555
C8 C3 1_555 1_555
H6 C8 1_555 1_555
O3 C12 1_555 1_555
O4 C10 1_555 1_555
C9 C1 1_555 1_555
C10 O5 1_555 1_555
O5 C14 1_555 1_555
C11 S1 1_555 1_555
C12 C11 1_555 1_555
C13 N1 1_555 1_555
C14 H7 1_555 1_555
H8 C14 1_555 1_555
C15 O3 1_555 1_555
H9 C15 1_555 1_555
H10 C15 1_555 1_555
C16 C15 1_555 1_555
H11 C16 1_555 1_555
H12 C16 1_555 1_555
H13 C16 1_555 1_555
C17 C14 1_555 1_555
H14 C17 1_555 1_555
H15 C17 1_555 1_555
H16 C17 1_555 1_555
C4 C7 1_555 1_555
C5 C8 1_555 1_555
C5 C13 1_555 1_555
C6 C9 1_555 1_555
C7 C11 1_555 1_555
C9 C13 1_555 1_555
C10 C11 1_555 1_555

#END
