
#######################################################################
#
#                 Cambridge Crystallographic Data Centre
#                                CCDC 
#
#######################################################################
#
# If this CIF has been generated from an entry in the Cambridge 
# Structural Database, then it will include bibliographic, chemical, 
# crystal, experimental, refinement or atomic coordinate data resulting 
# from the CCDC's data processing and validation procedures.
#
#######################################################################

data_TADWON
_chemical_formula_moiety         'C18 H19 N1 O5 S1'
_chemical_name_systematic        
'Diethyl 3-hydroxy-6-methylthieno[2,3-b]quinoline-2,2(3H)-dicarboxylate'
_symmetry_cell_setting           monoclinic
_symmetry_space_group_name_H-M   'P 21/c'
_symmetry_Int_Tables_number      14
_space_group_name_Hall           '-P 2ybc'
loop_
_symmetry_equiv_pos_site_id
_symmetry_equiv_pos_as_xyz
1 x,y,z
2 -x,1/2+y,1/2-z
3 -x,-y,-z
4 x,1/2-y,1/2+z
_cell_length_a                   16.5377(2)
_cell_length_b                   7.97520(10)
_cell_length_c                   13.0814(2)
_cell_angle_alpha                90
_cell_angle_beta                 92.5750(10)
_cell_angle_gamma                90
_cell_volume                     1723.58
_cell_formula_units_Z            4
loop_
_atom_site_label
_atom_site_type_symbol
_atom_site_fract_x
_atom_site_fract_y
_atom_site_fract_z
S1 S 0.21147(2) 0.38069(6) 0.80808(3)
N1 N 0.35486(9) 0.38486(18) 0.71995(10)
O1 O 0.28251(7) 0.16508(15) 1.01209(9)
H1 H 0.3247 0.1224 1.0349
C1 C 0.31772(10) 0.3736(2) 0.80631(12)
C2 C 0.48190(10) 0.3688(2) 0.82378(12)
O2 O 0.13803(8) 0.39040(18) 1.08936(10)
C3 C 0.43827(10) 0.3836(2) 0.72831(12)
C4 C 0.21909(10) 0.6076(2) 0.96381(12)
C5 C 0.56737(10) 0.3690(2) 0.82639(13)
H2 H 0.5959 0.3580 0.8889
O3 O 0.14699(8) 0.67649(16) 0.94484(11)
C6 C 0.35516(9) 0.3560(2) 0.90569(11)
C7 C 0.29626(9) 0.3365(2) 0.98993(11)
H3 H 0.3162 0.3958 1.0517
C8 C 0.48235(12) 0.4014(2) 0.63896(13)
H4 H 0.4549 0.4132 0.5758
C9 C 0.43733(10) 0.3544(2) 0.91361(12)
H5 H 0.4641 0.3440 0.9773
O4 O 0.27912(8) 0.68222(17) 0.99000(11)
C10 C 0.14054(10) 0.3462(2) 0.99172(13)
C11 C 0.60933(11) 0.3851(2) 0.73844(14)
O5 O 0.08976(8) 0.2673(2) 0.94559(12)
C12 C 0.70068(12) 0.3865(3) 0.74158(17)
H6 H 0.7211 0.3734 0.8110
H7 H 0.7193 0.4911 0.7150
H8 H 0.7198 0.2959 0.7008
C13 C 0.56488(12) 0.4016(3) 0.64454(14)
H9 H 0.5926 0.4129 0.5847
C14 C 0.21642(9) 0.4179(2) 0.94650(11)
C15 C 0.13921(13) 0.8555(2) 0.96765(17)
H10 H 0.1893 0.9125 0.9533
H11 H 0.0963 0.9035 0.9240
C16 C 0.06206(14) 0.3565(3) 1.1381(2)
H12 H 0.0171 0.3679 1.0883
H13 H 0.0622 0.2426 1.1640
C17 C 0.1211(2) 0.8808(3) 1.0750(2)
H14 H 0.1165 0.9987 1.0885
H15 H 0.1639 0.8342 1.1182
H16 H 0.0710 0.8262 1.0888
C18 C 0.0525(2) 0.4718(4) 1.2203(2)
H17 H 0.0025 0.4493 1.2522
H18 H 0.0518 0.5843 1.1942
H19 H 0.0967 0.4593 1.2698
loop_
_geom_bond_atom_site_label_1
_geom_bond_atom_site_label_2
_geom_bond_site_symmetry_1
_geom_bond_site_symmetry_2
S1 C1 1_555 1_555
N1 C1 1_555 1_555
O1 H1 1_555 1_555
C1 C6 1_555 1_555
C2 C3 1_555 1_555
O2 C10 1_555 1_555
C3 N1 1_555 1_555
C4 O3 1_555 1_555
C5 C2 1_555 1_555
H2 C5 1_555 1_555
O3 C15 1_555 1_555
C6 C7 1_555 1_555
C7 O1 1_555 1_555
H3 C7 1_555 1_555
C8 C3 1_555 1_555
H4 C8 1_555 1_555
C9 C2 1_555 1_555
H5 C9 1_555 1_555
O4 C4 1_555 1_555
C10 O5 1_555 1_555
C11 C5 1_555 1_555
C12 C11 1_555 1_555
H6 C12 1_555 1_555
H7 C12 1_555 1_555
H8 C12 1_555 1_555
C13 C8 1_555 1_555
H9 C13 1_555 1_555
C14 S1 1_555 1_555
C15 H10 1_555 1_555
H11 C15 1_555 1_555
C16 O2 1_555 1_555
H12 C16 1_555 1_555
H13 C16 1_555 1_555
C17 C15 1_555 1_555
H14 C17 1_555 1_555
H15 C17 1_555 1_555
H16 C17 1_555 1_555
C18 C16 1_555 1_555
H17 C18 1_555 1_555
H18 C18 1_555 1_555
H19 C18 1_555 1_555
C4 C14 1_555 1_555
C6 C9 1_555 1_555
C7 C14 1_555 1_555
C10 C14 1_555 1_555
C11 C13 1_555 1_555

#END
