
#######################################################################
#
#                 Cambridge Crystallographic Data Centre
#                                CCDC 
#
#######################################################################
#
# If this CIF has been generated from an entry in the Cambridge 
# Structural Database, then it will include bibliographic, chemical, 
# crystal, experimental, refinement or atomic coordinate data resulting 
# from the CCDC's data processing and validation procedures.
#
#######################################################################

data_TAFCEK
_chemical_formula_moiety         'C18 H10 Cl2 O2,C6 H15 N1 O1'
_chemical_name_systematic        
'1,5-Dichloro-cis-9,10-diethynyl-9,10-dihydroanthracene-9,10-diol triethylamine oxide'
_symmetry_cell_setting           monoclinic
_symmetry_space_group_name_H-M   'P 21/n'
_symmetry_Int_Tables_number      14
_space_group_name_Hall           '-P 2yn'
loop_
_symmetry_equiv_pos_site_id
_symmetry_equiv_pos_as_xyz
1 x,y,z
2 1/2-x,1/2+y,1/2-z
3 -x,-y,-z
4 1/2+x,1/2-y,1/2+z
_cell_length_a                   9.2741(2)
_cell_length_b                   15.3177(3)
_cell_length_c                   15.8154(3)
_cell_angle_alpha                90
_cell_angle_beta                 91.0250(10)
_cell_angle_gamma                90
_cell_volume                     2246.34
_exptl_crystal_colour            colorless
_exptl_crystal_description       cube
_cell_formula_units_Z            4
loop_
_atom_site_label
_atom_site_type_symbol
_atom_site_fract_x
_atom_site_fract_y
_atom_site_fract_z
Cl1 Cl 0.49661(5) 0.95400(3) 0.15069(3)
H1 H 0.949(3) 0.8960(16) -0.0420(16)
H2 H 0.624(3) 0.6384(14) 0.2290(16)
O1 O 0.68654(13) 0.81523(8) 0.23977(7)
H3 H 0.775(3) 0.8280(14) 0.2425(14)
C1 C 0.64562(19) 0.93133(13) 0.08731(12)
Cl2 Cl 1.11204(5) 0.58403(4) 0.06199(4)
O2 O 1.06704(12) 0.78967(9) 0.09535(8)
H4 H 1.035(3) 0.8106(16) 0.1435(16)
C2 C 0.6876(2) 0.99633(15) 0.03358(14)
H5 H 0.633(3) 1.0527(17) 0.0324(16)
C3 C 0.8050(2) 0.98216(15) -0.01775(14)
H6 H 0.834(2) 1.0234(15) -0.0521(14)
C4 C 0.8793(2) 0.90450(15) -0.01301(13)
C5 C 0.94581(19) 0.60305(13) 0.10981(12)
C6 C 0.8920(2) 0.53575(14) 0.15697(14)
H7 H 0.940(2) 0.4847(17) 0.1605(14)
C7 C 0.7680(2) 0.54736(14) 0.20281(14)
H8 H 0.732(2) 0.5013(15) 0.2384(15)
C8 C 0.6990(2) 0.62689(13) 0.20016(12)
C9 C 0.66943(17) 0.78191(11) 0.15570(10)
C10 C 0.93842(17) 0.75968(12) 0.05292(10)
C11 C 0.75059(17) 0.69531(11) 0.15036(10)
C12 C 0.87519(17) 0.68450(12) 0.10316(10)
C13 C 0.71763(17) 0.85064(12) 0.09306(10)
C14 C 0.83781(17) 0.83865(12) 0.04271(10)
C15 C 0.51409(18) 0.76213(13) 0.13974(11)
C16 C 0.3934(2) 0.74414(15) 0.12113(13)
H9 H 0.294(3) 0.7421(15) 0.1055(14)
C17 C 0.97869(18) 0.73055(14) -0.03284(12)
C18 C 1.0092(2) 0.71313(17) -0.10266(14)
H10 H 1.042(3) 0.6959(16) -0.1565(16)
N1 N 1.06857(15) 0.85087(10) 0.30859(9)
O3 O 0.96838(12) 0.84945(9) 0.24188(7)
C19 C 1.0138(3) 0.69635(17) 0.35436(19)
H11 H 0.935(3) 0.6936(17) 0.3188(17)
H12 H 0.979(3) 0.7139(19) 0.4128(19)
H13 H 1.066(3) 0.637(2) 0.3525(16)
C20 C 1.1251(2) 0.75961(14) 0.32351(15)
H14 H 1.208(2) 0.7613(14) 0.3623(14)
H15 H 1.169(2) 0.7432(15) 0.2668(15)
C21 C 1.0876(3) 0.89272(17) 0.46363(13)
H16 H 1.170(3) 0.9379(17) 0.4566(15)
H17 H 1.025(3) 0.9129(16) 0.5078(17)
H18 H 1.128(2) 0.8351(17) 0.4816(15)
C22 C 0.9933(2) 0.88690(14) 0.38456(11)
H19 H 0.906(2) 0.8478(13) 0.3931(12)
H20 H 0.955(2) 0.9457(14) 0.3694(13)
C23 C 1.1512(3) 1.00002(15) 0.26164(16)
H21 H 1.066(2) 0.9955(15) 0.2207(14)
H22 H 1.124(2) 1.0353(15) 0.3135(15)
H23 H 1.243(3) 1.0261(17) 0.2400(16)
C24 C 1.1942(2) 0.90784(14) 0.28303(14)
H24 H 1.260(2) 0.9054(13) 0.3268(13)
H25 H 1.231(2) 0.8758(14) 0.2351(14)
Cl3? Cl 1.0443(7) 0.8945(4) -0.0802(4)
Cl4? Cl 0.5590(7) 0.6497(4) 0.2729(4)
loop_
_geom_bond_atom_site_label_1
_geom_bond_atom_site_label_2
_geom_bond_site_symmetry_1
_geom_bond_site_symmetry_2
Cl1 C1 1_555 1_555
H1 C4 1_555 1_555
H2 C8 1_555 1_555
O1 H3 1_555 1_555
N1 O3 1_555 1_555
C1 C2 1_555 1_555
Cl2 C5 1_555 1_555
O2 H4 1_555 1_555
C2 H5 1_555 1_555
C3 C2 1_555 1_555
H6 C3 1_555 1_555
C4 C3 1_555 1_555
C5 C6 1_555 1_555
C6 H7 1_555 1_555
C7 C6 1_555 1_555
H8 C7 1_555 1_555
C8 C7 1_555 1_555
C9 O1 1_555 1_555
C10 O2 1_555 1_555
C11 C8 1_555 1_555
C12 C5 1_555 1_555
C13 C1 1_555 1_555
C14 C4 1_555 1_555
C15 C9 1_555 1_555
C16 C15 1_555 1_555
H9 C16 1_555 1_555
C17 C10 1_555 1_555
C18 C17 1_555 1_555
H10 C18 1_555 1_555
C19 H11 1_555 1_555
H12 C19 1_555 1_555
H13 C19 1_555 1_555
C20 N1 1_555 1_555
H14 C20 1_555 1_555
H15 C20 1_555 1_555
C21 H16 1_555 1_555
H17 C21 1_555 1_555
H18 C21 1_555 1_555
C22 N1 1_555 1_555
H19 C22 1_555 1_555
H20 C22 1_555 1_555
C23 H21 1_555 1_555
H22 C23 1_555 1_555
H23 C23 1_555 1_555
C24 N1 1_555 1_555
H24 C24 1_555 1_555
H25 C24 1_555 1_555
C9 C11 1_555 1_555
C9 C13 1_555 1_555
C10 C12 1_555 1_555
C10 C14 1_555 1_555
C11 C12 1_555 1_555
C13 C14 1_555 1_555
C19 C20 1_555 1_555
C21 C22 1_555 1_555
C23 C24 1_555 1_555

#END
