
#######################################################################
#
#                 Cambridge Crystallographic Data Centre
#                                CCDC 
#
#######################################################################
#
# If this CIF has been generated from an entry in the Cambridge 
# Structural Database, then it will include bibliographic, chemical, 
# crystal, experimental, refinement or atomic coordinate data resulting 
# from the CCDC's data processing and validation procedures.
#
#######################################################################

data_TAFDUC
_chemical_formula_moiety         'C20 H15 N1 O1,C1 H2 Cl2'
_chemical_name_systematic        
"2'-amino-1,1'-binaphthalen-2-ol dichloromethane solvate"
_symmetry_cell_setting           orthorhombic
_symmetry_space_group_name_H-M   'P 21 21 21'
_symmetry_Int_Tables_number      19
_space_group_name_Hall           'P 2ac 2ab'
loop_
_symmetry_equiv_pos_site_id
_symmetry_equiv_pos_as_xyz
1 x,y,z
2 1/2+x,1/2-y,-z
3 -x,1/2+y,1/2-z
4 1/2-x,-y,1/2+z
_cell_length_a                   9.0085(5)
_cell_length_b                   11.9601(7)
_cell_length_c                   16.9214(10)
_cell_angle_alpha                90
_cell_angle_beta                 90
_cell_angle_gamma                90
_cell_volume                     1823.15
_exptl_crystal_colour            colorless
_exptl_crystal_description       prism
_cell_formula_units_Z            4
loop_
_atom_site_label
_atom_site_type_symbol
_atom_site_fract_x
_atom_site_fract_y
_atom_site_fract_z
O1 O 0.6186(3) 0.4297(2) 0.95115(19)
H1 H 0.5888 0.3649 0.9619
N1 N 0.8844(4) 0.2262(3) 1.04095(17)
H2 H 0.910(5) 0.302(4) 1.022(3)
H3 H 0.841(10) 0.237(7) 1.102(5)
C1 C 0.8171(4) 0.3244(3) 0.8912(2)
C2 C 0.7493(4) 0.4235(3) 0.9105(2)
C3 C 0.8152(5) 0.5267(3) 0.8891(3)
H4 H 0.7702 0.5951 0.9047
C4 C 0.9438(5) 0.5280(4) 0.8459(3)
H5 H 0.9849 0.5978 0.8306
C5 C 1.0155(5) 0.4310(4) 0.8240(2)
C6 C 1.1522(5) 0.4266(4) 0.7781(2)
H6 H 1.1937 0.4942 0.7586
C7 C 1.2212(5) 0.3294(5) 0.7624(2)
H7 H 1.3116 0.3305 0.7335
C8 C 1.1641(5) 0.2271(5) 0.7875(3)
H8 H 1.2148 0.1594 0.7761
C9 C 1.0304(4) 0.2260(4) 0.8300(2)
H9 H 0.9904 0.1567 0.8471
C10 C 0.9542(4) 0.3260(3) 0.84780(19)
C11 C 0.7520(4) 0.2150(3) 0.91612(19)
C12 C 0.7837(4) 0.1728(3) 0.9893(2)
C13 C 0.7234(4) 0.0686(3) 1.0135(2)
H10 H 0.7489 0.0390 1.0638
C14 C 0.6306(4) 0.0111(3) 0.9661(2)
H11 H 0.5889 -0.0572 0.9841
C15 C 0.5946(4) 0.0510(3) 0.8899(2)
C16 C 0.4994(4) -0.0096(4) 0.8377(3)
H12 H 0.4558 -0.0779 0.8547
C17 C 0.4704(5) 0.0296(4) 0.7637(3)
H13 H 0.4080 -0.0117 0.7291
C18 C 0.5328(5) 0.1313(4) 0.7383(3)
H14 H 0.5114 0.1584 0.6868
C19 C 0.6232(4) 0.1914(3) 0.7866(2)
H15 H 0.6643 0.2598 0.7682
C20 C 0.6570(4) 0.1536(3) 0.8635(2)
Cl1 Cl 0.14046(15) 0.82227(14) 0.87164(8)
Cl2 Cl -0.07724(18) 0.79158(9) 0.99672(7)
C21 C -0.0045(6) 0.8847(4) 0.9268(2)
H16 H 0.0338 0.9520 0.9541
H17 H -0.0845 0.9087 0.8904
loop_
_geom_bond_atom_site_label_1
_geom_bond_atom_site_label_2
_geom_bond_site_symmetry_1
_geom_bond_site_symmetry_2
O1 H1 1_555 1_555
N1 H2 1_555 1_555
H3 N1 1_555 1_555
C1 C2 1_555 1_555
C2 O1 1_555 1_555
C3 C2 1_555 1_555
H4 C3 1_555 1_555
C4 C3 1_555 1_555
H5 C4 1_555 1_555
C5 C4 1_555 1_555
C6 C5 1_555 1_555
H6 C6 1_555 1_555
C7 C6 1_555 1_555
H7 C7 1_555 1_555
C8 C7 1_555 1_555
H8 C8 1_555 1_555
C9 C8 1_555 1_555
H9 C9 1_555 1_555
C10 C1 1_555 1_555
C11 C1 1_555 1_555
C12 N1 1_555 1_555
C13 C12 1_555 1_555
H10 C13 1_555 1_555
C14 C13 1_555 1_555
H11 C14 1_555 1_555
C15 C14 1_555 1_555
C16 C15 1_555 1_555
H12 C16 1_555 1_555
C17 C16 1_555 1_555
H13 C17 1_555 1_555
C18 C17 1_555 1_555
H14 C18 1_555 1_555
C19 C18 1_555 1_555
H15 C19 1_555 1_555
C20 C11 1_555 1_555
Cl1 C21 1_555 1_555
Cl2 C21 1_555 1_555
C21 H16 1_555 1_555
H17 C21 1_555 1_555
C5 C10 1_555 1_555
C9 C10 1_555 1_555
C11 C12 1_555 1_555
C15 C20 1_555 1_555
C19 C20 1_555 1_555

#END
