
#######################################################################
#
#                 Cambridge Crystallographic Data Centre
#                                CCDC 
#
#######################################################################
#
# If this CIF has been generated from an entry in the Cambridge 
# Structural Database, then it will include bibliographic, chemical, 
# crystal, experimental, refinement or atomic coordinate data resulting 
# from the CCDC's data processing and validation procedures.
#
#######################################################################

data_TAFJUH
_chemical_formula_moiety         'C24 H22 Br1 N1 O4 S1'
_chemical_name_systematic        
N-(1-Bromo-1-(4-methoxyphenyl)-3-oxo-3-phenylprop-1-en-2-yl)-N,4-dimethylbenzenesulfonamide
_symmetry_cell_setting           monoclinic
_symmetry_space_group_name_H-M   'P 21/c'
_symmetry_Int_Tables_number      14
_space_group_name_Hall           '-P 2ybc'
loop_
_symmetry_equiv_pos_site_id
_symmetry_equiv_pos_as_xyz
1 x,y,z
2 -x,1/2+y,1/2-z
3 -x,-y,-z
4 x,1/2-y,1/2+z
_cell_length_a                   10.5553(14)
_cell_length_b                   8.6908(12)
_cell_length_c                   26.008(3)
_cell_angle_alpha                90
_cell_angle_beta                 109.346(4)
_cell_angle_gamma                90
_cell_volume                     2251.1
_cell_formula_units_Z            4
loop_
_atom_site_label
_atom_site_type_symbol
_atom_site_fract_x
_atom_site_fract_y
_atom_site_fract_z
Br1 Br 0.94240(3) 0.51737(4) 0.902490(16)
S1 S 1.21305(9) 0.17037(12) 0.93354(4)
O1 O 1.2065(3) 0.1474(3) 0.87855(11)
O2 O 1.2892(3) 0.2962(3) 0.96447(11)
O3 O 0.9241(2) -0.0659(3) 0.87539(11)
O4 O 0.4692(3) 0.3643(3) 0.66295(11)
N1 N 1.0577(3) 0.1879(4) 0.93088(12)
C1 C 1.4264(4) -0.4068(5) 1.06341(16)
H1 H 1.4844 -0.4585 1.0473
H2 H 1.3535 -0.4736 1.0628
H3 H 1.4762 -0.3798 1.1004
C2 C 1.3712(4) -0.2622(4) 1.03133(16)
C3 C 1.4090(4) -0.1185(4) 1.05375(15)
H4 H 1.4685 -0.1120 1.0892
C4 C 1.3612(4) 0.0186(5) 1.02506(16)
H5 H 1.3864 0.1149 1.0407
C5 C 1.2735(4) 0.0017(4) 0.97161(15)
C6 C 1.2364(4) -0.1402(5) 0.94790(16)
H6 H 1.1789 -0.1466 0.9121
C7 C 1.2845(4) -0.2738(5) 0.97717(15)
H7 H 1.2596 -0.3697 0.9612
C8 C 1.0279(4) 0.2105(5) 0.98237(16)
H8 H 1.0643 0.3072 0.9984
H9 H 1.0676 0.1286 1.0073
H10 H 0.9324 0.2103 0.9747
C9 C 0.9547(4) 0.2009(5) 0.87974(15)
C10 C 0.8874(4) 0.3302(5) 0.86297(16)
C11 C 0.9218(4) 0.0519(5) 0.84906(15)
C12 C 0.8878(4) 0.0464(4) 0.78900(16)
C13 C 0.8026(4) -0.0729(5) 0.76076(17)
H11 H 0.7712 -0.1459 0.7797
C14 C 0.7656(4) -0.0807(5) 0.70399(15)
H12 H 0.7085 -0.1581 0.6849
C15 C 0.8140(4) 0.0263(5) 0.67691(18)
H13 H 0.7886 0.0213 0.6391
C16 C 0.9005(4) 0.1426(5) 0.70447(17)
H14 H 0.9338 0.2130 0.6852
C17 C 0.9376(4) 0.1533(5) 0.76154(17)
H15 H 0.9946 0.2312 0.7804
C18 C 0.7671(4) 0.3489(5) 0.81322(17)
C19 C 0.7690(4) 0.4570(5) 0.77391(16)
H16 H 0.8387 0.5280 0.7812
C20 C 0.6675(4) 0.4587(5) 0.72428(16)
H17 H 0.6693 0.5303 0.6979
C21 C 0.5630(4) 0.3544(5) 0.71352(19)
C22 C 0.5567(4) 0.2507(5) 0.75275(17)
H18 H 0.4850 0.1826 0.7457
C23 C 0.6601(4) 0.2492(5) 0.80356(18)
H19 H 0.6563 0.1810 0.8306
C24 C 0.3794(4) 0.2378(5) 0.64440(17)
H20 H 0.4301 0.1445 0.6474
H21 H 0.3256 0.2539 0.6070
H22 H 0.3221 0.2298 0.6663
loop_
_geom_bond_atom_site_label_1
_geom_bond_atom_site_label_2
_geom_bond_site_symmetry_1
_geom_bond_site_symmetry_2
Br1 C10 1_555 1_555
S1 O1 1_555 1_555
O2 S1 1_555 1_555
O3 C11 1_555 1_555
O4 C21 1_555 1_555
N1 S1 1_555 1_555
C1 H1 1_555 1_555
H2 C1 1_555 1_555
H3 C1 1_555 1_555
C2 C1 1_555 1_555
C3 C2 1_555 1_555
H4 C3 1_555 1_555
C4 C3 1_555 1_555
H5 C4 1_555 1_555
C5 S1 1_555 1_555
C6 C5 1_555 1_555
H6 C6 1_555 1_555
C7 C2 1_555 1_555
H7 C7 1_555 1_555
C8 N1 1_555 1_555
H8 C8 1_555 1_555
H9 C8 1_555 1_555
H10 C8 1_555 1_555
C9 N1 1_555 1_555
C10 C9 1_555 1_555
C11 C9 1_555 1_555
C12 C11 1_555 1_555
C13 C12 1_555 1_555
H11 C13 1_555 1_555
C14 C13 1_555 1_555
H12 C14 1_555 1_555
C15 C14 1_555 1_555
H13 C15 1_555 1_555
C16 C15 1_555 1_555
H14 C16 1_555 1_555
C17 C12 1_555 1_555
H15 C17 1_555 1_555
C18 C10 1_555 1_555
C19 C18 1_555 1_555
H16 C19 1_555 1_555
C20 C19 1_555 1_555
H17 C20 1_555 1_555
C21 C20 1_555 1_555
C22 C21 1_555 1_555
H18 C22 1_555 1_555
C23 C18 1_555 1_555
H19 C23 1_555 1_555
C24 O4 1_555 1_555
H20 C24 1_555 1_555
H21 C24 1_555 1_555
H22 C24 1_555 1_555
C4 C5 1_555 1_555
C6 C7 1_555 1_555
C16 C17 1_555 1_555
C22 C23 1_555 1_555

#END
