
#######################################################################
#
#                 Cambridge Crystallographic Data Centre
#                                CCDC 
#
#######################################################################
#
# If this CIF has been generated from an entry in the Cambridge 
# Structural Database, then it will include bibliographic, chemical, 
# crystal, experimental, refinement or atomic coordinate data resulting 
# from the CCDC's data processing and validation procedures.
#
#######################################################################

data_TAFJOB
_chemical_formula_moiety         'C25 H26 Br1 N1 O4 S1'
_chemical_name_systematic        
N-(1-Bromo-1-(4-methoxyphenyl)-3-(4-methylphenyl)-3-oxopropan-2-yl)-N,4-dimethylbenzenesulfonamide
_symmetry_cell_setting           monoclinic
_symmetry_space_group_name_H-M   'P 21/c'
_symmetry_Int_Tables_number      14
_space_group_name_Hall           '-P 2ybc'
loop_
_symmetry_equiv_pos_site_id
_symmetry_equiv_pos_as_xyz
1 x,y,z
2 -x,1/2+y,1/2-z
3 -x,-y,-z
4 x,1/2-y,1/2+z
_cell_length_a                   14.2872(18)
_cell_length_b                   11.9099(15)
_cell_length_c                   16.8217(16)
_cell_angle_alpha                90
_cell_angle_beta                 121.648(8)
_cell_angle_gamma                90
_cell_volume                     2436.7
_cell_formula_units_Z            4
loop_
_atom_site_label
_atom_site_type_symbol
_atom_site_fract_x
_atom_site_fract_y
_atom_site_fract_z
Br1 Br 0.65986(4) -0.10750(4) 0.80638(3)
C1 C 0.4712(4) 0.1123(4) 0.8069(3)
H1 H 0.5285 0.1373 0.8645
C2 C 0.3632(3) 0.1247(4) 0.7838(3)
H2 H 0.3479 0.1587 0.8255
C3 C 0.2778(4) 0.0860(4) 0.6979(3)
C4 C 0.3005(4) 0.0365(4) 0.6357(3)
H3 H 0.2431 0.0116 0.5781
C5 C 0.4087(4) 0.0238(4) 0.6583(3)
H4 H 0.4237 -0.0104 0.6165
C6 C 0.4940(4) 0.0623(3) 0.7438(3)
C7 C 0.6123(4) 0.0503(4) 0.7722(3)
H5 H 0.6569 0.0971 0.8275
C8 C 0.6355(4) 0.0856(4) 0.6980(3)
H6 H 0.5957 0.0336 0.6455
C9 C 0.7612(4) 0.0714(4) 0.7355(3)
C10 C 0.8045(3) -0.0022(4) 0.6900(3)
C11 C 0.7401(4) -0.0817(4) 0.6193(3)
H7 H 0.6659 -0.0884 0.5986
C12 C 0.7824(4) -0.1478(4) 0.5810(3)
H8 H 0.7378 -0.1990 0.5346
C13 C 0.8928(4) -0.1391(4) 0.6110(3)
C14 C 0.9596(4) -0.0634(4) 0.6801(3)
H9 H 1.0338 -0.0586 0.7002
C15 C 0.9160(3) 0.0061(4) 0.7201(3)
H10 H 0.9608 0.0574 0.7663
C16 C 0.6586(4) 0.2918(4) 0.5490(3)
C17 C 0.7257(4) 0.2228(4) 0.5333(3)
H11 H 0.7135 0.1457 0.5268
C18 C 0.8114(4) 0.2692(4) 0.5274(3)
H12 H 0.8566 0.2232 0.5170
C19 C 0.8290(4) 0.3846(4) 0.5370(3)
C20 C 0.7624(4) 0.4533(4) 0.5531(3)
H13 H 0.7748 0.5304 0.5598
C21 C 0.6767(4) 0.4070(4) 0.5593(3)
H14 H 0.6319 0.4529 0.5701
C22 C 0.1399(4) 0.1716(4) 0.7227(3)
H15 H 0.1710 0.1424 0.7847
H16 H 0.0614 0.1760 0.6929
H17 H 0.1690 0.2452 0.7257
C23 C 0.9399(4) -0.2125(4) 0.5645(3)
H18 H 0.9836 -0.1668 0.5492
H19 H 0.8805 -0.2456 0.5086
H20 H 0.9848 -0.2708 0.6069
C24 C 0.9202(4) 0.4365(4) 0.5283(3)
H21 H 0.9900 0.4191 0.5830
H22 H 0.9107 0.5164 0.5223
H23 H 0.9175 0.4067 0.4741
C25 C 0.6348(4) 0.2906(4) 0.7300(3)
H24 H 0.6335 0.2684 0.7842
H25 H 0.5867 0.3537 0.7010
H26 H 0.7083 0.3113 0.7481
N1 N 0.5975(3) 0.1960(3) 0.6631(3)
O1 O 0.1684(3) 0.0958(3) 0.6677(2)
O2 O 0.8228(3) 0.1296(3) 0.8026(2)
O3 O 0.5228(2) 0.1277(3) 0.5035(2)
O4 O 0.4701(3) 0.3151(3) 0.5293(2)
S1 S 0.55108(9) 0.22983(10) 0.55495(8)
loop_
_geom_bond_atom_site_label_1
_geom_bond_atom_site_label_2
_geom_bond_site_symmetry_1
_geom_bond_site_symmetry_2
Br1 C7 1_555 1_555
C1 H1 1_555 1_555
C2 C1 1_555 1_555
H2 C2 1_555 1_555
C3 C2 1_555 1_555
C4 C3 1_555 1_555
H3 C4 1_555 1_555
C5 C4 1_555 1_555
H4 C5 1_555 1_555
C6 C1 1_555 1_555
C7 C6 1_555 1_555
H5 C7 1_555 1_555
C8 C7 1_555 1_555
H6 C8 1_555 1_555
C9 C8 1_555 1_555
C10 C9 1_555 1_555
C11 C10 1_555 1_555
H7 C11 1_555 1_555
C12 C11 1_555 1_555
H8 C12 1_555 1_555
C13 C12 1_555 1_555
C14 C13 1_555 1_555
H9 C14 1_555 1_555
C15 C10 1_555 1_555
H10 C15 1_555 1_555
C16 C17 1_555 1_555
C17 H11 1_555 1_555
C18 C17 1_555 1_555
H12 C18 1_555 1_555
C19 C18 1_555 1_555
C20 C19 1_555 1_555
H13 C20 1_555 1_555
C21 C16 1_555 1_555
H14 C21 1_555 1_555
C22 H15 1_555 1_555
H16 C22 1_555 1_555
H17 C22 1_555 1_555
C23 C13 1_555 1_555
H18 C23 1_555 1_555
H19 C23 1_555 1_555
H20 C23 1_555 1_555
C24 C19 1_555 1_555
H21 C24 1_555 1_555
H22 C24 1_555 1_555
H23 C24 1_555 1_555
C25 H24 1_555 1_555
H25 C25 1_555 1_555
H26 C25 1_555 1_555
N1 C8 1_555 1_555
O1 C3 1_555 1_555
O2 C9 1_555 1_555
O3 S1 1_555 1_555
O4 S1 1_555 1_555
S1 C16 1_555 1_555
C5 C6 1_555 1_555
C14 C15 1_555 1_555
C20 C21 1_555 1_555
C22 O1 1_555 1_555
C25 N1 1_555 1_555
N1 S1 1_555 1_555

#END
