
#######################################################################
#
#                 Cambridge Crystallographic Data Centre
#                                CCDC 
#
#######################################################################
#
# If this CIF has been generated from an entry in the Cambridge 
# Structural Database, then it will include bibliographic, chemical, 
# crystal, experimental, refinement or atomic coordinate data resulting 
# from the CCDC's data processing and validation procedures.
#
#######################################################################

data_TAFJUI
_chemical_formula_moiety         'C34 H35 Br1 N2 O1'
_chemical_name_systematic        
(2-((4-Bromophenyl)(3,5-di-t-butyl-4-hydroxyphenyl)methyl)-3,4-dihydronaphthalen-1(2H)-ylidene)malononitrile
_symmetry_cell_setting           orthorhombic
_symmetry_space_group_name_H-M   'P 21 21 21'
_symmetry_Int_Tables_number      19
_space_group_name_Hall           'P 2ac 2ab'
loop_
_symmetry_equiv_pos_site_id
_symmetry_equiv_pos_as_xyz
1 x,y,z
2 1/2-x,-y,1/2+z
3 1/2+x,1/2-y,-z
4 -x,1/2+y,1/2-z
_cell_length_a                   10.839(5)
_cell_length_b                   23.282(10)
_cell_length_c                   24.360(11)
_cell_angle_alpha                90
_cell_angle_beta                 90
_cell_angle_gamma                90
_cell_volume                     6147.33
_exptl_crystal_colour            'pale yellow'
_exptl_crystal_description       block
_cell_formula_units_Z            8
loop_
_atom_site_label
_atom_site_type_symbol
_atom_site_fract_x
_atom_site_fract_y
_atom_site_fract_z
Br1 Br 0.46454(10) 0.59152(4) 0.34172(4)
C1 C 0.4279(8) 0.5572(3) 0.2745(4)
C2 C 0.4992(8) 0.5669(3) 0.2294(4)
H1 H 0.5670 0.5912 0.2321
C3 C 0.4717(8) 0.5408(3) 0.1787(3)
H2 H 0.5220 0.5480 0.1486
C4 C 0.3725(7) 0.5050(3) 0.1731(3)
C5 C 0.2989(8) 0.4970(4) 0.2182(4)
H3 H 0.2288 0.4742 0.2153
C6 C 0.3275(9) 0.5225(4) 0.2686(4)
H4 H 0.2768 0.5157 0.2987
C7 C 0.3515(7) 0.4760(3) 0.1186(3)
H5 H 0.4112 0.4924 0.0927
C8 C 0.2206(7) 0.4900(3) 0.0958(4)
H6 H 0.1592 0.4810 0.1240
C9 C 0.2070(9) 0.5535(4) 0.0793(5)
H7 H 0.1227 0.5603 0.0676
H8 H 0.2224 0.5774 0.1112
C10 C 0.2927(10) 0.5713(4) 0.0341(5)
H9 H 0.2587 0.6048 0.0160
H10 H 0.3711 0.5823 0.0501
C11 C 0.3155(8) 0.5259(4) -0.0081(4)
C12 C 0.3890(10) 0.5367(5) -0.0539(6)
H11 H 0.4223 0.5733 -0.0578
C13 C 0.4147(11) 0.4980(7) -0.0924(5)
H12 H 0.4642 0.5076 -0.1222
C14 C 0.3674(10) 0.4441(6) -0.0876(5)
H13 H 0.3838 0.4170 -0.1147
C15 C 0.2950(8) 0.4288(4) -0.0429(4)
H14 H 0.2655 0.3915 -0.0393
C16 C 0.2672(7) 0.4705(4) -0.0033(4)
C17 C 0.1916(8) 0.4557(3) 0.0446(4)
C18 C 0.0996(8) 0.4180(3) 0.0443(3)
C19 C 0.0534(8) 0.3875(3) -0.0031(4)
C20 C 0.0311(8) 0.4050(4) 0.0923(4)
C21 C 0.3728(6) 0.4113(3) 0.1192(3)
C22 C 0.3104(7) 0.3741(3) 0.1521(3)
H15 H 0.2568 0.3891 0.1782
C23 C 0.3230(7) 0.3144(3) 0.1487(3)
C24 C 0.4010(7) 0.2933(3) 0.1087(3)
C25 C 0.4693(7) 0.3286(3) 0.0741(3)
C26 C 0.4535(7) 0.3882(3) 0.0805(3)
H16 H 0.4985 0.4130 0.0583
C27 C 0.5595(7) 0.3063(3) 0.0305(3)
C28 C 0.6269(9) 0.3544(4) 0.0006(4)
H17 H 0.6677 0.3786 0.0269
H18 H 0.5687 0.3768 -0.0199
H19 H 0.6869 0.3382 -0.0239
C29 C 0.4859(8) 0.2735(3) -0.0149(3)
H20 H 0.4763 0.2978 -0.0465
H21 H 0.4061 0.2631 -0.0010
H22 H 0.5301 0.2394 -0.0251
C30 C 0.6580(8) 0.2669(4) 0.0561(4)
H23 H 0.7023 0.2474 0.0274
H24 H 0.6187 0.2391 0.0794
H25 H 0.7145 0.2895 0.0774
C31 C 0.2497(8) 0.2748(4) 0.1886(3)
C32 C 0.1779(10) 0.3088(4) 0.2309(4)
H26 H 0.1174 0.3322 0.2127
H27 H 0.2334 0.3330 0.2511
H28 H 0.1373 0.2829 0.2556
C33 C 0.3389(9) 0.2360(4) 0.2204(4)
H29 H 0.3997 0.2593 0.2385
H30 H 0.3791 0.2103 0.1954
H31 H 0.2939 0.2143 0.2473
C34 C 0.1577(8) 0.2385(4) 0.1568(4)
H32 H 0.1126 0.2145 0.1818
H33 H 0.2010 0.2148 0.1309
H34 H 0.1014 0.2631 0.1376
N1 N -0.0286(8) 0.3928(4) 0.1292(4)
N2 N 0.0097(7) 0.3629(3) -0.0376(3)
O1 O 0.4036(5) 0.2339(2) 0.1052(2)
H35 H 0.4293 0.2244 0.0749
Br2 Br 0.96564(14) 0.63496(5) 0.21355(6)
C35 C 0.8493(7) 0.3582(3) 0.4750(4)
C36 C 0.7813(6) 0.4085(3) 0.4660(3)
C37 C 0.7587(6) 0.4247(3) 0.4120(4)
H36 H 0.7135 0.4578 0.4052
C38 C 0.8021(7) 0.3925(3) 0.3681(3)
C39 C 0.8710(7) 0.3445(3) 0.3794(3)
H37 H 0.9029 0.3238 0.3499
C40 C 0.8958(7) 0.3249(3) 0.4317(4)
C41 C 0.9708(8) 0.2699(3) 0.4405(3)
C42 C 1.0248(9) 0.2471(4) 0.3859(4)
H38 H 1.0745 0.2138 0.3930
H39 H 1.0747 0.2764 0.3692
H40 H 0.9587 0.2370 0.3615
C43 C 0.8862(9) 0.2227(3) 0.4626(4)
H41 H 0.8476 0.2356 0.4959
H42 H 0.9339 0.1888 0.4700
H43 H 0.8239 0.2140 0.4358
C44 C 1.0807(8) 0.2776(4) 0.4788(4)
H44 H 1.0528 0.2923 0.5135
H45 H 1.1380 0.3042 0.4627
H46 H 1.1207 0.2413 0.4842
C45 C 0.7334(7) 0.4464(3) 0.5138(4)
C46 C 0.6665(9) 0.4999(4) 0.4933(4)
H47 H 0.5957 0.4887 0.4721
H48 H 0.7213 0.5221 0.4707
H49 H 0.6405 0.5226 0.5241
C47 C 0.8428(8) 0.4677(4) 0.5476(4)
H50 H 0.8135 0.4912 0.5772
H51 H 0.8966 0.4899 0.5246
H52 H 0.8871 0.4354 0.5621
C48 C 0.6451(9) 0.4139(4) 0.5494(4)
H53 H 0.6860 0.3811 0.5649
H54 H 0.5761 0.4014 0.5278
H55 H 0.6166 0.4384 0.5785
C49 C 0.7706(7) 0.4068(3) 0.3090(3)
H56 H 0.8105 0.3772 0.2865
C50 C 0.8184(8) 0.4638(4) 0.2879(4)
C51 C 0.9051(9) 0.4640(4) 0.2479(4)
H57 H 0.9363 0.4294 0.2351
C52 C 0.9481(10) 0.5150(5) 0.2259(4)
H58 H 1.0049 0.5140 0.1973
C53 C 0.9091(9) 0.5658(4) 0.2451(4)
C54 C 0.8233(9) 0.5678(4) 0.2862(4)
H59 H 0.7957 0.6028 0.2998
C55 C 0.7782(8) 0.5165(4) 0.3074(4)
H60 H 0.7198 0.5175 0.3354
C56 C 0.6301(7) 0.4010(3) 0.2981(3)
H61 H 0.5866 0.4325 0.3165
C57 C 0.5982(8) 0.4019(4) 0.2368(4)
H62 H 0.5094 0.3994 0.2325
H63 H 0.6248 0.4382 0.2212
C58 C 0.6576(9) 0.3536(4) 0.2057(4)
H64 H 0.7391 0.3657 0.1941
H65 H 0.6095 0.3460 0.1730
C59 C 0.6695(9) 0.2990(4) 0.2378(5)
C60 C 0.7189(11) 0.2511(6) 0.2111(5)
H66 H 0.7424 0.2533 0.1745
C61 C 0.7325(14) 0.1995(7) 0.2404(8)
H67 H 0.7645 0.1673 0.2229
C62 C 0.6993(15) 0.1961(5) 0.2943(8)
H68 H 0.7102 0.1618 0.3133
C63 C 0.6501(9) 0.2425(5) 0.3208(5)
H69 H 0.6270 0.2400 0.3575
C64 C 0.6350(8) 0.2938(4) 0.2917(5)
C65 C 0.5830(8) 0.3446(4) 0.3196(4)
C66 C 0.4937(10) 0.3438(5) 0.3588(5)
C67 C 0.4337(10) 0.2926(6) 0.3756(5)
C68 C 0.4527(11) 0.3936(7) 0.3852(5)
N3 N 0.3830(11) 0.2527(5) 0.3910(5)
N4 N 0.4147(10) 0.4325(6) 0.4088(5)
O2 O 0.8681(6) 0.3440(2) 0.5293(2)
H70 H 0.8677 0.3090 0.5326
loop_
_geom_bond_atom_site_label_1
_geom_bond_atom_site_label_2
_geom_bond_site_symmetry_1
_geom_bond_site_symmetry_2
Br1 C1 1_555 1_555
C1 C2 1_555 1_555
C2 H1 1_555 1_555
C3 C2 1_555 1_555
H2 C3 1_555 1_555
C4 C3 1_555 1_555
C5 C4 1_555 1_555
H3 C5 1_555 1_555
C6 C1 1_555 1_555
H4 C6 1_555 1_555
C7 C4 1_555 1_555
H5 C7 1_555 1_555
C8 C7 1_555 1_555
H6 C8 1_555 1_555
C9 C8 1_555 1_555
H7 C9 1_555 1_555
H8 C9 1_555 1_555
C10 C9 1_555 1_555
H9 C10 1_555 1_555
H10 C10 1_555 1_555
C11 C10 1_555 1_555
C12 C11 1_555 1_555
H11 C12 1_555 1_555
C13 C12 1_555 1_555
H12 C13 1_555 1_555
C14 C13 1_555 1_555
H13 C14 1_555 1_555
C15 C14 1_555 1_555
H14 C15 1_555 1_555
C16 C11 1_555 1_555
C17 C8 1_555 1_555
C18 C17 1_555 1_555
C19 C18 1_555 1_555
C20 C18 1_555 1_555
C21 C7 1_555 1_555
C22 C21 1_555 1_555
H15 C22 1_555 1_555
C23 C22 1_555 1_555
C24 C23 1_555 1_555
C25 C24 1_555 1_555
C26 C21 1_555 1_555
H16 C26 1_555 1_555
C27 C25 1_555 1_555
C28 C27 1_555 1_555
H17 C28 1_555 1_555
H18 C28 1_555 1_555
H19 C28 1_555 1_555
C29 C27 1_555 1_555
H20 C29 1_555 1_555
H21 C29 1_555 1_555
H22 C29 1_555 1_555
C30 C27 1_555 1_555
H23 C30 1_555 1_555
H24 C30 1_555 1_555
H25 C30 1_555 1_555
C31 C23 1_555 1_555
C32 C31 1_555 1_555
H26 C32 1_555 1_555
H27 C32 1_555 1_555
H28 C32 1_555 1_555
C33 C31 1_555 1_555
H29 C33 1_555 1_555
H30 C33 1_555 1_555
H31 C33 1_555 1_555
C34 C31 1_555 1_555
H32 C34 1_555 1_555
H33 C34 1_555 1_555
H34 C34 1_555 1_555
N1 C20 1_555 1_555
N2 C19 1_555 1_555
O1 C24 1_555 1_555
H35 O1 1_555 1_555
Br2 C53 1_555 1_555
C35 C36 1_555 1_555
C36 C37 1_555 1_555
C37 H36 1_555 1_555
C38 C37 1_555 1_555
C39 C38 1_555 1_555
H37 C39 1_555 1_555
C40 C35 1_555 1_555
C41 C40 1_555 1_555
C42 C41 1_555 1_555
H38 C42 1_555 1_555
H39 C42 1_555 1_555
H40 C42 1_555 1_555
C43 C41 1_555 1_555
H41 C43 1_555 1_555
H42 C43 1_555 1_555
H43 C43 1_555 1_555
C44 C41 1_555 1_555
H44 C44 1_555 1_555
H45 C44 1_555 1_555
H46 C44 1_555 1_555
C45 C36 1_555 1_555
C46 C45 1_555 1_555
H47 C46 1_555 1_555
H48 C46 1_555 1_555
H49 C46 1_555 1_555
C47 C45 1_555 1_555
H50 C47 1_555 1_555
H51 C47 1_555 1_555
H52 C47 1_555 1_555
C48 C45 1_555 1_555
H53 C48 1_555 1_555
H54 C48 1_555 1_555
H55 C48 1_555 1_555
C49 C38 1_555 1_555
H56 C49 1_555 1_555
C50 C49 1_555 1_555
C51 C50 1_555 1_555
H57 C51 1_555 1_555
C52 C51 1_555 1_555
H58 C52 1_555 1_555
C53 C52 1_555 1_555
C54 C53 1_555 1_555
H59 C54 1_555 1_555
C55 C50 1_555 1_555
H60 C55 1_555 1_555
C56 C49 1_555 1_555
H61 C56 1_555 1_555
C57 C56 1_555 1_555
H62 C57 1_555 1_555
H63 C57 1_555 1_555
C58 C57 1_555 1_555
H64 C58 1_555 1_555
H65 C58 1_555 1_555
C59 C58 1_555 1_555
C60 C59 1_555 1_555
H66 C60 1_555 1_555
C61 C60 1_555 1_555
H67 C61 1_555 1_555
C62 C61 1_555 1_555
H68 C62 1_555 1_555
C63 C62 1_555 1_555
H69 C63 1_555 1_555
C64 C59 1_555 1_555
C65 C56 1_555 1_555
C66 C65 1_555 1_555
C67 C66 1_555 1_555
C68 C66 1_555 1_555
N3 C67 1_555 1_555
N4 C68 1_555 1_555
O2 C35 1_555 1_555
H70 O2 1_555 1_555
C5 C6 1_555 1_555
C15 C16 1_555 1_555
C16 C17 1_555 1_555
C25 C26 1_555 1_555
C39 C40 1_555 1_555
C54 C55 1_555 1_555
C63 C64 1_555 1_555
C64 C65 1_555 1_555

#END
