
#######################################################################
#
#                 Cambridge Crystallographic Data Centre
#                                CCDC 
#
#######################################################################
#
# If this CIF has been generated from an entry in the Cambridge 
# Structural Database, then it will include bibliographic, chemical, 
# crystal, experimental, refinement or atomic coordinate data resulting 
# from the CCDC's data processing and validation procedures.
#
#######################################################################

data_TAFJOZ
_chemical_formula_moiety         'C18 H44 Li2 N7 1+,Na1 1-'
_chemical_name_systematic        
'(\m~2~-1,4-Dimethyl-1,4,7-triazacyclononamido) (methylamine)(1,4,7-trimethyl-1,4,7-triazacyclo-nonane) dilithium natride'
_symmetry_cell_setting           orthorhombic
_symmetry_space_group_name_H-M   'P b c a'
_symmetry_Int_Tables_number      61
_space_group_name_Hall           '-P 2ac 2ab'
loop_
_symmetry_equiv_pos_site_id
_symmetry_equiv_pos_as_xyz
1 x,y,z
2 1/2-x,1/2+y,z
3 x,1/2-y,1/2+z
4 1/2-x,-y,1/2+z
5 -x,-y,-z
6 1/2+x,1/2-y,-z
7 -x,1/2+y,1/2-z
8 1/2+x,y,1/2-z
_cell_length_a                   25.271(8)
_cell_length_b                   10.904(3)
_cell_length_c                   21.566(6)
_cell_angle_alpha                90
_cell_angle_beta                 90
_cell_angle_gamma                90
_cell_volume                     5942.62
_cell_formula_units_Z            8
loop_
_atom_site_label
_atom_site_type_symbol
_atom_site_fract_x
_atom_site_fract_y
_atom_site_fract_z
Na1 Na 0.5999(3) 0.6300(8) 0.6043(5)
N1 N 0.3412(4) 0.719(1) 0.6417(6)
N2 N 0.3157(5) 0.809(1) 0.5160(6)
N3 N 0.3901(6) 0.938(1) 0.5924(6)
N4 N 0.3180(6) 0.508(2) 0.7641(6)
N5 N 0.3841(5) 0.414(1) 0.6698(6)
N6 N 0.4259(5) 0.572(1) 0.7616(8)
N7 N 0.4442(5) 0.673(1) 0.5184(6)
C1 C 0.2925(6) 0.694(2) 0.6125(7)
C2 C 0.2735(7) 0.782(2) 0.5627(8)
C3 C 0.3260(7) 0.939(2) 0.5067(8)
C4 C 0.3447(7) 1.004(2) 0.5617(8)
C5 C 0.3862(7) 0.919(2) 0.6584(7)
C6 C 0.3408(6) 0.836(1) 0.6765(7)
C7 C 0.3055(7) 0.744(2) 0.4589(8)
C8 C 0.4392(7) 1.005(2) 0.5774(9)
C9 C 0.3091(9) 0.384(2) 0.736(1)
C10 C 0.3494(8) 0.336(2) 0.7017(9)
C11 C 0.4409(8) 0.408(2) 0.687(1)
C12 C 0.4552(8) 0.464(2) 0.743(1)
C13 C 0.3952(8) 0.560(2) 0.8209(9)
C14 C 0.3481(8) 0.502(2) 0.818(1)
C15 C 0.2682(8) 0.571(2) 0.7763(9)
C16 C 0.3780(8) 0.392(2) 0.6036(8)
C17 C 0.4606(7) 0.671(2) 0.7643(9)
C18 C 0.4638(7) 0.746(2) 0.4664(9)
Li1 Li 0.364(1) 0.590(3) 0.694(1)
Li2 Li 0.382(1) 0.757(3) 0.566(1)
H1 H 0.297 0.616 0.593
H2 H 0.266 0.688 0.644
H3 H 0.261 0.855 0.581
H4 H 0.245 0.743 0.541
H5 H 0.354 0.942 0.477
H6 H 0.296 0.979 0.491
H7 H 0.316 1.007 0.591
H8 H 0.355 1.085 0.551
H9 H 0.418 0.881 0.673
H10 H 0.382 0.996 0.678
H11 H 0.308 0.876 0.668
H12 H 0.343 0.818 0.720
H13 H 0.277 0.779 0.437
H14 H 0.336 0.744 0.434
H15 H 0.297 0.662 0.470
H16 H 0.438 1.082 0.598
H17 H 0.469 0.960 0.592
H18 H 0.442 1.017 0.534
H19 H 0.280 0.390 0.709
H20 H 0.301 0.329 0.769
H21 H 0.369 0.290 0.731
H22 H 0.335 0.283 0.671
H23 H 0.460 0.452 0.656
H24 H 0.451 0.324 0.686
H25 H 0.449 0.404 0.774
H26 H 0.492 0.483 0.742
H27 H 0.390 0.639 0.838
H28 H 0.416 0.512 0.849
H29 H 0.353 0.418 0.826
H30 H 0.327 0.537 0.849
H31 H 0.249 0.524 0.806
H32 H 0.248 0.581 0.740
H33 H 0.276 0.649 0.793
H34 H 0.391 0.312 0.594
H35 H 0.396 0.451 0.579
H36 H 0.341 0.396 0.595
H37 H 0.484 0.663 0.798
H38 H 0.440 0.743 0.770
H39 H 0.480 0.678 0.727
H40 H 0.472 0.659 0.547
H41 H 0.432 0.598 0.502
H42 H 0.492 0.702 0.447
H43 H 0.437 0.761 0.437
H44 H 0.477 0.822 0.481
loop_
_geom_bond_atom_site_label_1
_geom_bond_atom_site_label_2
_geom_bond_site_symmetry_1
_geom_bond_site_symmetry_2
N1 C1 1_555 1_555
N2 C2 1_555 1_555
N3 C4 1_555 1_555
N4 C9 1_555 1_555
N5 C10 1_555 1_555
N6 C12 1_555 1_555
N7 C18 1_555 1_555
C1 C2 1_555 1_555
C2 H3 1_555 1_555
C3 N2 1_555 1_555
C4 C3 1_555 1_555
C5 N3 1_555 1_555
C6 N1 1_555 1_555
C7 N2 1_555 1_555
C8 N3 1_555 1_555
C9 C10 1_555 1_555
C10 H21 1_555 1_555
C11 N5 1_555 1_555
C12 C11 1_555 1_555
C13 N6 1_555 1_555
C14 N4 1_555 1_555
C15 N4 1_555 1_555
C16 N5 1_555 1_555
C17 N6 1_555 1_555
C18 H42 1_555 1_555
Li1 N1 1_555 1_555
Li2 N1 1_555 1_555
H1 C1 1_555 1_555
H2 C1 1_555 1_555
H4 C2 1_555 1_555
H5 C3 1_555 1_555
H6 C3 1_555 1_555
H7 C4 1_555 1_555
H8 C4 1_555 1_555
H9 C5 1_555 1_555
H10 C5 1_555 1_555
H11 C6 1_555 1_555
H12 C6 1_555 1_555
H13 C7 1_555 1_555
H14 C7 1_555 1_555
H15 C7 1_555 1_555
H16 C8 1_555 1_555
H17 C8 1_555 1_555
H18 C8 1_555 1_555
H19 C9 1_555 1_555
H20 C9 1_555 1_555
H22 C10 1_555 1_555
H23 C11 1_555 1_555
H24 C11 1_555 1_555
H25 C12 1_555 1_555
H26 C12 1_555 1_555
H27 C13 1_555 1_555
H28 C13 1_555 1_555
H29 C14 1_555 1_555
H30 C14 1_555 1_555
H31 C15 1_555 1_555
H32 C15 1_555 1_555
H33 C15 1_555 1_555
H34 C16 1_555 1_555
H35 C16 1_555 1_555
H36 C16 1_555 1_555
H37 C17 1_555 1_555
H38 C17 1_555 1_555
H39 C17 1_555 1_555
H40 N7 1_555 1_555
H41 N7 1_555 1_555
H43 C18 1_555 1_555
H44 C18 1_555 1_555
N2 Li2 1_555 1_555
N3 Li2 1_555 1_555
N4 Li1 1_555 1_555
N5 Li1 1_555 1_555
N6 Li1 1_555 1_555
N7 Li2 1_555 1_555
C5 C6 1_555 1_555
C13 C14 1_555 1_555

#END
