
#######################################################################
#
#                 Cambridge Crystallographic Data Centre
#                                CCDC 
#
#######################################################################
#
# If this CIF has been generated from an entry in the Cambridge 
# Structural Database, then it will include bibliographic, chemical, 
# crystal, experimental, refinement or atomic coordinate data resulting 
# from the CCDC's data processing and validation procedures.
#
#######################################################################

data_TAFMEU
_chemical_formula_moiety         'C7 H10 I1 N1 O2'
_chemical_name_systematic        3-Iodo-5-oxa-1-azabicyclo[5.2.0]nonan-9-one
_symmetry_cell_setting           orthorhombic
_symmetry_space_group_name_H-M   'P 21 21 21'
_symmetry_Int_Tables_number      19
_space_group_name_Hall           'P 2ac 2ab'
loop_
_symmetry_equiv_pos_site_id
_symmetry_equiv_pos_as_xyz
1 x,y,z
2 1/2-x,-y,1/2+z
3 -x,1/2+y,1/2-z
4 1/2+x,1/2-y,-z
_cell_length_a                   6.634(3)
_cell_length_b                   9.052(3)
_cell_length_c                   14.778(6)
_cell_angle_alpha                90
_cell_angle_beta                 90
_cell_angle_gamma                90
_cell_volume                     887.433
_exptl_crystal_colour            colorless
_exptl_crystal_description       needle
_chemical_melting_point          '46.0-47.0 deg.C'
_cell_formula_units_Z            4
loop_
_atom_site_label
_atom_site_type_symbol
_atom_site_fract_x
_atom_site_fract_y
_atom_site_fract_z
I1 I -0.15372(7) -0.09787(6) 0.54046(3)
O1 O -0.1237(8) -0.1342(6) 0.8850(3)
O2 O 0.3452(8) -0.0220(5) 0.7244(3)
N1 N 0.1114(8) -0.2568(6) 0.7924(4)
C1 C 0.0446(12) -0.1786(8) 0.8654(4)
C2 C 0.2556(11) -0.1663(9) 0.9064(5)
H1 H 0.2757 -0.2253 0.9621
H2 H 0.3045 -0.0637 0.9140
C3 C 0.3280(11) -0.2430(8) 0.8183(5)
H3 H 0.3915 -0.3412 0.8305
C4 C 0.4501(11) -0.1516(8) 0.7541(6)
H4 H 0.5771 -0.1217 0.7841
H5 H 0.4857 -0.2123 0.7007
C5 C 0.2258(10) -0.0386(8) 0.6447(5)
H6 H 0.2987 -0.1022 0.6011
H7 H 0.2071 0.0594 0.6162
C6 C 0.0208(9) -0.1058(8) 0.6640(4)
H8 H -0.0481 -0.0407 0.7091
C7 C 0.0224(10) -0.2612(7) 0.7025(4)
H9 H -0.1170 -0.3000 0.7060
H10 H 0.1019 -0.3273 0.6628
loop_
_geom_bond_atom_site_label_1
_geom_bond_atom_site_label_2
_geom_bond_site_symmetry_1
_geom_bond_site_symmetry_2
I1 C6 1_555 1_555
O1 C1 1_555 1_555
O2 C4 1_555 1_555
N1 C1 1_555 1_555
C1 C2 1_555 1_555
C2 H1 1_555 1_555
H2 C2 1_555 1_555
C3 N1 1_555 1_555
H3 C3 1_555 1_555
C4 C3 1_555 1_555
H4 C4 1_555 1_555
H5 C4 1_555 1_555
C5 O2 1_555 1_555
H6 C5 1_555 1_555
H7 C5 1_555 1_555
C6 C5 1_555 1_555
H8 C6 1_555 1_555
C7 N1 1_555 1_555
H9 C7 1_555 1_555
H10 C7 1_555 1_555
C2 C3 1_555 1_555
C6 C7 1_555 1_555

#END
