
#######################################################################
#
#                 Cambridge Crystallographic Data Centre
#                                CCDC 
#
#######################################################################
#
# If this CIF has been generated from an entry in the Cambridge 
# Structural Database, then it will include bibliographic, chemical, 
# crystal, experimental, refinement or atomic coordinate data resulting 
# from the CCDC's data processing and validation procedures.
#
#######################################################################

data_TAFQUM
_chemical_formula_moiety         'C21 H32 O6'
_chemical_name_systematic        
1,7,12,17,22-Pentaoxapentaspiro(4.0.4.0.4.0.4.0.4.1)hexacosan-26-ol
_symmetry_cell_setting           monoclinic
_symmetry_space_group_name_H-M   'P 21/c'
_symmetry_Int_Tables_number      14
_space_group_name_Hall           '-P 2ybc'
loop_
_symmetry_equiv_pos_site_id
_symmetry_equiv_pos_as_xyz
1 x,y,z
2 -x,1/2+y,1/2-z
3 -x,-y,-z
4 x,1/2-y,1/2+z
_cell_length_a                   8.2081(1)
_cell_length_b                   14.3799(2)
_cell_length_c                   15.9301(2)
_cell_angle_alpha                90
_cell_angle_beta                 99.648(1)
_cell_angle_gamma                90
_cell_volume                     1853.66
_exptl_crystal_colour            colorless
_cell_formula_units_Z            4
loop_
_atom_site_label
_atom_site_type_symbol
_atom_site_fract_x
_atom_site_fract_y
_atom_site_fract_z
O1 O 0.5178(2) 0.5285(1) 0.1995(1)
O2 O 0.2619(2) 0.3969(1) 0.1246(1)
O3 O 0.0731(2) 0.3285(1) 0.2520(1)
O4 O 0.2919(2) 0.2498(1) 0.3992(1)
O5 O 0.5387(2) 0.3925(1) 0.4722(1)
O6 O 0.5044(2) 0.5298(1) 0.3619(1)
C1 C 0.5562(3) 0.4437(2) 0.3314(2)
C2 C 0.4903(3) 0.4379(2) 0.2345(2)
C3 C 0.3015(3) 0.4183(2) 0.2147(2)
C4 C 0.2524(3) 0.3311(2) 0.2637(2)
C5 C 0.3156(3) 0.3395(2) 0.3619(2)
C6 C 0.5051(3) 0.3612(2) 0.3837(2)
C7 C 0.5961(3) 0.3711(2) 0.1901(2)
C8 C 0.7037(5) 0.4349(3) 0.1491(3)
C10 C 0.6003(4) 0.5184(2) 0.1281(2)
C11 C 0.1974(3) 0.5059(2) 0.2255(2)
C12 C 0.1471(4) 0.5439(2) 0.1366(2)
C13 C 0.1404(4) 0.4597(2) 0.0822(2)
C14 C 0.2986(3) 0.2372(2) 0.2256(2)
C15 C 0.1456(4) 0.1780(2) 0.2177(2)
C16 C 0.0112(4) 0.2477(2) 0.2040(2)
C17 C 0.2110(4) 0.4077(2) 0.4064(2)
C18 C 0.1757(4) 0.3545(2) 0.4842(2)
C19 C 0.1698(4) 0.2557(2) 0.4532(2)
C20 C 0.6195(4) 0.2759(2) 0.3831(2)
C21 C 0.6644(6) 0.2457(3) 0.4742(3)
C23 C 0.6581(4) 0.3335(2) 0.5224(2)
H1 H 0.5216(33) 0.5296(8) 0.4141(1)
H2 H 0.6772(3) 0.4445(2) 0.3391(2)
H3 H 0.6621(3) 0.3306(2) 0.2311(2)
H4 H 0.5272(3) 0.3333(2) 0.1479(2)
H7 H 0.8042(5) 0.4499(3) 0.1880(3)
H8 H 0.7327(5) 0.4071(3) 0.0981(3)
H11 H 0.6678(4) 0.5725(2) 0.1216(2)
H12 H 0.5218(4) 0.5094(2) 0.0760(2)
H15 H 0.1009(3) 0.4898(2) 0.2502(2)
H16 H 0.2624(3) 0.5512(2) 0.2619(2)
H17 H 0.0401(4) 0.5741(2) 0.1303(2)
H18 H 0.2280(4) 0.5880(2) 0.1228(2)
H19 H 0.0315(4) 0.4317(2) 0.0751(2)
H20 H 0.1647(4) 0.4757(2) 0.0264(2)
H21 H 0.3305(3) 0.2467(2) 0.1703(2)
H22 H 0.3896(3) 0.2079(2) 0.2630(2)
H23 H 0.1382(4) 0.1357(2) 0.1697(2)
H24 H 0.1432(4) 0.1424(2) 0.2692(2)
H25 H -0.0177(4) 0.2628(2) 0.1440(2)
H26 H -0.0863(4) 0.2240(2) 0.2238(2)
H27 H 0.2721(4) 0.4643(2) 0.4232(2)
H28 H 0.1090(4) 0.4238(2) 0.3690(2)
H29 H 0.2632(4) 0.3633(2) 0.5326(2)
H30 H 0.0712(4) 0.3731(2) 0.4997(2)
H31 H 0.1950(4) 0.2129(2) 0.5007(2)
H32 H 0.0611(4) 0.2409(2) 0.4217(2)
H33 H 0.5626(4) 0.2263(2) 0.3487(2)
H34 H 0.7178(4) 0.2925(2) 0.3602(2)
H37 H 0.5857(6) 0.2007(3) 0.4889(3)
H38 H 0.7742(6) 0.2186(3) 0.4851(3)
H41 H 0.6259(4) 0.3211(2) 0.5772(2)
H42 H 0.7657(4) 0.3632(2) 0.5320(2)
C9? C 0.6239(15) 0.4164(7) 0.1096(7)
C22? C 0.7326(11) 0.2825(6) 0.4644(5)
H5? H 0.7010(3) 0.3592(2) 0.2266(2)
H6? H 0.5391(3) 0.3123(2) 0.1778(2)
H9? H 0.5440(15) 0.3954(7) 0.0614(7)
H10? H 0.7346(15) 0.4043(7) 0.0984(7)
H13? H 0.7071(4) 0.5490(2) 0.1398(2)
H14? H 0.5357(4) 0.5479(2) 0.0786(2)
H35? H 0.5567(4) 0.2185(2) 0.3796(2)
H36? H 0.6793(4) 0.2788(2) 0.3356(2)
H39? H 0.7597(11) 0.2206(6) 0.4868(5)
H40? H 0.8342(11) 0.3127(6) 0.4559(5)
H43? H 0.7398(4) 0.3704(2) 0.5591(2)
H44? H 0.6047(4) 0.2923(2) 0.5576(2)
loop_
_geom_bond_atom_site_label_1
_geom_bond_atom_site_label_2
_geom_bond_site_symmetry_1
_geom_bond_site_symmetry_2
O1 C2 1_555 1_555
O2 C3 1_555 1_555
O3 C4 1_555 1_555
O4 C5 1_555 1_555
O5 C6 1_555 1_555
O6 C1 1_555 1_555
C1 C2 1_555 1_555
C2 C3 1_555 1_555
C3 C4 1_555 1_555
C4 C5 1_555 1_555
C5 C6 1_555 1_555
C6 C1 1_555 1_555
C7 C2 1_555 1_555
C8 C7 1_555 1_555
C10 O1 1_555 1_555
C11 C3 1_555 1_555
C12 C11 1_555 1_555
C13 O2 1_555 1_555
C14 C4 1_555 1_555
C15 C14 1_555 1_555
C16 O3 1_555 1_555
C17 C5 1_555 1_555
C18 C17 1_555 1_555
C19 O4 1_555 1_555
C20 C6 1_555 1_555
C21 C20 1_555 1_555
C23 O5 1_555 1_555
H1 O6 1_555 1_555
H2 C1 1_555 1_555
H3 C7 1_555 1_555
H4 C7 1_555 1_555
H7 C8 1_555 1_555
H8 C8 1_555 1_555
H11 C10 1_555 1_555
H12 C10 1_555 1_555
H15 C11 1_555 1_555
H16 C11 1_555 1_555
H17 C12 1_555 1_555
H18 C12 1_555 1_555
H19 C13 1_555 1_555
H20 C13 1_555 1_555
H21 C14 1_555 1_555
H22 C14 1_555 1_555
H23 C15 1_555 1_555
H24 C15 1_555 1_555
H25 C16 1_555 1_555
H26 C16 1_555 1_555
H27 C17 1_555 1_555
H28 C17 1_555 1_555
H29 C18 1_555 1_555
H30 C18 1_555 1_555
H31 C19 1_555 1_555
H32 C19 1_555 1_555
H33 C20 1_555 1_555
H34 C20 1_555 1_555
H37 C21 1_555 1_555
H38 C21 1_555 1_555
H41 C23 1_555 1_555
H42 C23 1_555 1_555
C8 C10 1_555 1_555
C12 C13 1_555 1_555
C15 C16 1_555 1_555
C18 C19 1_555 1_555
C21 C23 1_555 1_555

#END
