
#######################################################################
#
#                 Cambridge Crystallographic Data Centre
#                                CCDC 
#
#######################################################################
#
# If this CIF has been generated from an entry in the Cambridge 
# Structural Database, then it will include bibliographic, chemical, 
# crystal, experimental, refinement or atomic coordinate data resulting 
# from the CCDC's data processing and validation procedures.
#
#######################################################################

data_TAFWAB
_chemical_formula_moiety         'C31 H21 F1 O2'
_chemical_name_systematic        
10-(4-fluorophenyl)-7-methoxy-5-(4-methylphenyl)-11H-benzo[b]fluoren-11-one
_symmetry_cell_setting           triclinic
_symmetry_space_group_name_H-M   'P -1'
_symmetry_Int_Tables_number      2
_space_group_name_Hall           '-P 1'
loop_
_symmetry_equiv_pos_site_id
_symmetry_equiv_pos_as_xyz
1 x,y,z
2 -x,-y,-z
_cell_length_a                   7.6236(14)
_cell_length_b                   11.458(2)
_cell_length_c                   14.056(3)
_cell_angle_alpha                108.113(2)
_cell_angle_beta                 90.803(2)
_cell_angle_gamma                96.502(2)
_cell_volume                     1157.88
_exptl_crystal_colour            yellow
_exptl_crystal_description       block
_cell_formula_units_Z            2
loop_
_atom_site_label
_atom_site_type_symbol
_atom_site_fract_x
_atom_site_fract_y
_atom_site_fract_z
C1 C 0.0501(2) 0.22656(14) 0.66425(12)
C2 C 0.0717(2) 0.22145(14) 0.76494(12)
C3 C -0.0730(2) 0.30104(14) 0.64248(12)
O1 O 0.20770(18) 0.10060(12) 0.40771(9)
C4 C 0.1470(2) 0.15889(15) 0.58491(12)
H1 H 0.2288 0.1106 0.5977
C5 C -0.0308(2) 0.28782(14) 0.83664(12)
C6 C -0.1738(2) 0.37180(14) 0.71946(13)
C7 C -0.1501(2) 0.36452(15) 0.81444(13)
C8 C 0.1220(2) 0.16363(16) 0.48984(13)
C9 C 0.2057(2) 0.14846(15) 0.78995(12)
F1 F -0.66716(18) 0.64513(12) 0.61789(10)
O2 O -0.33649(18) 0.50665(12) 0.91984(11)
C10 C -0.3048(2) 0.44721(15) 0.69465(12)
C11 C -0.0936(2) 0.30238(16) 0.54231(13)
H2 H -0.1739 0.3502 0.5272
C12 C 0.0003(2) 0.23610(17) 0.46850(14)
H3 H -0.0157 0.2385 0.4035
C13 C -0.2354(2) 0.42916(16) 0.90794(14)
C14 C -0.5463(3) 0.57839(18) 0.64233(14)
C15 C 0.4579(3) 0.01194(18) 0.83881(14)
C16 C 0.1857(2) 0.02101(16) 0.75364(14)
H4 H 0.0868 -0.0207 0.7126
C17 C 0.3534(2) 0.20706(16) 0.85218(14)
H5 H 0.3701 0.2930 0.8780
C18 C -0.0503(2) 0.29400(15) 0.94327(13)
C19 C 0.4761(2) 0.13940(18) 0.87635(15)
H6 H 0.5734 0.1808 0.9190
C20 C 0.3103(3) -0.04593(17) 0.77724(15)
H7 H 0.2941 -0.1318 0.7510
C21 C -0.4820(2) 0.40387(17) 0.68321(16)
H8 H -0.5200 0.3290 0.6937
C22 C 0.3337(3) 0.0249(2) 0.42283(18)
H9 H 0.4300 0.0758 0.4664
H10 H 0.3777 -0.0184 0.3595
H11 H 0.2787 -0.0337 0.4528
C23 C -0.6043(3) 0.46942(19) 0.65653(17)
H12 H -0.7240 0.4394 0.6485
C24 C 0.0169(3) 0.22834(18) 1.00019(14)
H13 H 0.0961 0.1719 0.9738
C25 C -0.2221(3) 0.39833(18) 1.08190(15)
H14 H -0.3014 0.4545 1.1085
C26 C -0.3729(3) 0.62440(19) 0.65115(17)
H15 H -0.3367 0.6991 0.6399
C27 C -0.2513(3) 0.55759(18) 0.67728(17)
H16 H -0.1316 0.5874 0.6832
C28 C -0.1695(2) 0.37787(16) 0.98525(13)
C29 C -0.0366(3) 0.2486(2) 1.09774(16)
H17 H 0.0070 0.2048 1.1366
C30 C 0.5959(3) -0.0604(2) 0.8647(2)
H18 H 0.6780 -0.0782 0.8125
H19 H 0.5390 -0.1365 0.8712
H20 H 0.6580 -0.0122 0.9269
C31 C -0.1534(3) 0.3328(2) 1.13779(16)
H21 H -0.1861 0.3454 1.2034
loop_
_geom_bond_atom_site_label_1
_geom_bond_atom_site_label_2
_geom_bond_site_symmetry_1
_geom_bond_site_symmetry_2
C1 C2 1_555 1_555
C2 C5 1_555 1_555
C3 C1 1_555 1_555
O1 C8 1_555 1_555
C4 C1 1_555 1_555
H1 C4 1_555 1_555
C5 C7 1_555 1_555
C6 C3 1_555 1_555
C7 C6 1_555 1_555
C8 C4 1_555 1_555
C9 C2 1_555 1_555
F1 C14 1_555 1_555
O2 C13 1_555 1_555
C10 C6 1_555 1_555
C11 C3 1_555 1_555
H2 C11 1_555 1_555
C12 C8 1_555 1_555
H3 C12 1_555 1_555
C13 C7 1_555 1_555
C14 C23 1_555 1_555
C15 C19 1_555 1_555
C16 C9 1_555 1_555
H4 C16 1_555 1_555
C17 C9 1_555 1_555
H5 C17 1_555 1_555
C18 C5 1_555 1_555
C19 C17 1_555 1_555
H6 C19 1_555 1_555
C20 C15 1_555 1_555
H7 C20 1_555 1_555
C21 C10 1_555 1_555
H8 C21 1_555 1_555
C22 O1 1_555 1_555
H9 C22 1_555 1_555
H10 C22 1_555 1_555
H11 C22 1_555 1_555
C23 C21 1_555 1_555
H12 C23 1_555 1_555
C24 C18 1_555 1_555
H13 C24 1_555 1_555
C25 H14 1_555 1_555
C26 C14 1_555 1_555
H15 C26 1_555 1_555
C27 C10 1_555 1_555
H16 C27 1_555 1_555
C28 C13 1_555 1_555
C29 C24 1_555 1_555
H17 C29 1_555 1_555
C30 C15 1_555 1_555
H18 C30 1_555 1_555
H19 C30 1_555 1_555
H20 C30 1_555 1_555
C31 C25 1_555 1_555
H21 C31 1_555 1_555
C11 C12 1_555 1_555
C16 C20 1_555 1_555
C18 C28 1_555 1_555
C25 C28 1_555 1_555
C26 C27 1_555 1_555
C29 C31 1_555 1_555

#END
