
#######################################################################
#
#                 Cambridge Crystallographic Data Centre
#                                CCDC 
#
#######################################################################
#
# If this CIF has been generated from an entry in the Cambridge 
# Structural Database, then it will include bibliographic, chemical, 
# crystal, experimental, refinement or atomic coordinate data resulting 
# from the CCDC's data processing and validation procedures.
#
#######################################################################

data_TAFXUW
_chemical_formula_moiety         'C34 H31 Br1 N2 O4 S1,0.5(C4 H10 O1)'
_chemical_name_systematic        
'2-(4-(4-bromophenyl)-3-methyl-1,5-diphenyl-1,4,5,6-tetrahydropyrano[2,3-c]pyrazol-6-yl)ethyl 4-methylbenzenesulfonate diethyl ether solvate'
_symmetry_cell_setting           monoclinic
_symmetry_space_group_name_H-M   'C 2'
_symmetry_Int_Tables_number      5
_space_group_name_Hall           'C 2y'
loop_
_symmetry_equiv_pos_site_id
_symmetry_equiv_pos_as_xyz
1 x,y,z
2 -x,y,-z
3 1/2+x,1/2+y,z
4 1/2-x,1/2+y,-z
_cell_length_a                   27.2716(8)
_cell_length_b                   10.7113(3)
_cell_length_c                   11.2422(3)
_cell_angle_alpha                90
_cell_angle_beta                 90.5644(9)
_cell_angle_gamma                90
_cell_volume                     3283.85
_exptl_crystal_colour            colorless
_exptl_crystal_description       block
_cell_formula_units_Z            4
loop_
_atom_site_label
_atom_site_type_symbol
_atom_site_fract_x
_atom_site_fract_y
_atom_site_fract_z
Br1 Br 0.91355(2) 1.05127(3) 0.20884(2)
S1 S 0.71723(2) 0.37882(6) 1.00803(6)
N1 N 0.90466(6) 0.51854(17) 0.79242(17)
N2 N 0.94491(7) 0.59526(19) 0.77935(19)
O1 O 0.81952(5) 0.52238(13) 0.75614(14)
O2 O 0.71541(6) 0.46922(16) 0.89726(15)
O3 O 0.76447(6) 0.32175(17) 1.01650(17)
O4 O 0.70076(7) 0.45413(19) 1.10388(17)
C1 C 0.86358(8) 0.5784(2) 0.7545(2)
C2 C 0.92701(8) 0.7012(2) 0.7345(2)
C3 C 0.87569(8) 0.6947(2) 0.7151(2)
C4 C 0.83805(8) 0.7787(2) 0.6571(2)
H1 H 0.8271 0.8427 0.7159
C5 C 0.79393(8) 0.6938(2) 0.6232(2)
H2 H 0.8050 0.6383 0.5572
C6 C 0.77947(8) 0.6082(2) 0.7277(2)
H3 H 0.7718 0.6601 0.7990
C7 C 0.73596(8) 0.5250(2) 0.6974(2)
H4 H 0.7058 0.5766 0.6968
H5 H 0.7403 0.4914 0.6162
C8 C 0.72885(8) 0.4172(2) 0.7819(2)
H6 H 0.7026 0.3614 0.7519
H7 H 0.7595 0.3683 0.7894
C9 C 0.91019(8) 0.3913(2) 0.8265(2)
C10 C 0.87315(8) 0.3306(2) 0.8864(2)
H8 H 0.8439 0.3739 0.9056
C11 C 0.87887(9) 0.2062(2) 0.9186(2)
H9 H 0.8534 0.1640 0.9596
C12 C 0.92179(11) 0.1435(3) 0.8909(3)
H10 H 0.9259 0.0585 0.9128
C13 C 0.95874(10) 0.2057(3) 0.8310(3)
H11 H 0.9882 0.1629 0.8128
C14 C 0.95320(9) 0.3288(2) 0.7975(3)
H12 H 0.9784 0.3703 0.7552
C15 C 0.96072(9) 0.8092(2) 0.7127(3)
H13 H 0.9944 0.7851 0.7335
H14 H 0.9508 0.8802 0.7619
H15 H 0.9590 0.8328 0.6286
C16 C 0.85795(8) 0.8440(2) 0.5482(2)
C17 C 0.87609(9) 0.7774(2) 0.4524(2)
H16 H 0.8766 0.6888 0.4558
C18 C 0.89353(8) 0.8376(2) 0.3515(2)
H17 H 0.9056 0.7910 0.2861
C19 C 0.89289(8) 0.9663(2) 0.3484(2)
C20 C 0.87595(8) 1.0363(2) 0.4431(2)
H18 H 0.8763 1.1249 0.4400
C21 C 0.85848(8) 0.9744(2) 0.5424(2)
H19 H 0.8467 1.0215 0.6078
C22 C 0.74928(8) 0.7647(2) 0.5775(2)
C23 C 0.72858(9) 0.7320(2) 0.4673(2)
H20 H 0.7441 0.6704 0.4198
C24 C 0.68564(9) 0.7884(2) 0.4267(2)
H21 H 0.6719 0.7650 0.3520
C25 C 0.66297(9) 0.8786(3) 0.4950(2)
H22 H 0.6335 0.9166 0.4678
C26 C 0.68371(9) 0.9134(3) 0.6041(2)
H23 H 0.6685 0.9760 0.6509
C27 C 0.72675(9) 0.8566(2) 0.6446(2)
H24 H 0.7408 0.8811 0.7187
C28 C 0.67381(8) 0.2625(2) 0.9734(2)
C29 C 0.62427(9) 0.2894(3) 0.9877(2)
H25 H 0.6141 0.3678 1.0184
C30 C 0.59008(9) 0.1990(3) 0.9562(2)
H26 H 0.5562 0.2165 0.9651
C31 C 0.60425(9) 0.0838(3) 0.9119(2)
C32 C 0.65422(9) 0.0590(3) 0.9010(2)
H27 H 0.6645 -0.0202 0.8726
C33 C 0.68925(9) 0.1484(2) 0.9311(2)
H28 H 0.7232 0.1311 0.9226
C34 C 0.56639(11) -0.0131(3) 0.8781(3)
H29 H 0.5398 0.0267 0.8329
H30 H 0.5532 -0.0511 0.9503
H31 H 0.5817 -0.0777 0.8291
O5? O 1.0064(3) 0.3522(3) 0.5108(11)
C35? C 0.97389(19) 0.2505(5) 0.4838(6)
H32? H 0.9636 0.2539 0.3991
H33? H 0.9442 0.2558 0.5335
C36? C 1.0009(9) 0.1298(5) 0.509(3)
H34? H 1.0107 0.1270 0.5930
H35? H 1.0302 0.1253 0.4592
H36? H 0.9794 0.0589 0.4909
C37? C 0.9838(2) 0.4733(5) 0.4987(6)
H37? H 0.9557 0.4807 0.5534
H38? H 0.9716 0.4855 0.4162
C38? C 1.0226(2) 0.5702(6) 0.5292(5)
H39? H 1.0507 0.5598 0.4765
H40? H 1.0333 0.5594 0.6120
H41? H 1.0088 0.6541 0.5187
loop_
_geom_bond_atom_site_label_1
_geom_bond_atom_site_label_2
_geom_bond_site_symmetry_1
_geom_bond_site_symmetry_2
Br1 C19 1_555 1_555
S1 O2 1_555 1_555
N1 N2 1_555 1_555
N2 C2 1_555 1_555
O1 C1 1_555 1_555
O2 C8 1_555 1_555
O3 S1 1_555 1_555
O4 S1 1_555 1_555
C1 N1 1_555 1_555
C2 C3 1_555 1_555
C3 C1 1_555 1_555
C4 C3 1_555 1_555
H1 C4 1_555 1_555
C5 C4 1_555 1_555
H2 C5 1_555 1_555
C6 O1 1_555 1_555
H3 C6 1_555 1_555
C7 C6 1_555 1_555
H4 C7 1_555 1_555
H5 C7 1_555 1_555
C8 C7 1_555 1_555
H6 C8 1_555 1_555
H7 C8 1_555 1_555
C9 N1 1_555 1_555
C10 C9 1_555 1_555
H8 C10 1_555 1_555
C11 C10 1_555 1_555
H9 C11 1_555 1_555
C12 C11 1_555 1_555
H10 C12 1_555 1_555
C13 C12 1_555 1_555
H11 C13 1_555 1_555
C14 C9 1_555 1_555
H12 C14 1_555 1_555
C15 C2 1_555 1_555
H13 C15 1_555 1_555
H14 C15 1_555 1_555
H15 C15 1_555 1_555
C16 C4 1_555 1_555
C17 C16 1_555 1_555
H16 C17 1_555 1_555
C18 C17 1_555 1_555
H17 C18 1_555 1_555
C19 C18 1_555 1_555
C20 C19 1_555 1_555
H18 C20 1_555 1_555
C21 C16 1_555 1_555
H19 C21 1_555 1_555
C22 C5 1_555 1_555
C23 C22 1_555 1_555
H20 C23 1_555 1_555
C24 C23 1_555 1_555
H21 C24 1_555 1_555
C25 C24 1_555 1_555
H22 C25 1_555 1_555
C26 C25 1_555 1_555
H23 C26 1_555 1_555
C27 C22 1_555 1_555
H24 C27 1_555 1_555
C28 S1 1_555 1_555
C29 C28 1_555 1_555
H25 C29 1_555 1_555
C30 C29 1_555 1_555
H26 C30 1_555 1_555
C31 C30 1_555 1_555
C32 C31 1_555 1_555
H27 C32 1_555 1_555
C33 C28 1_555 1_555
H28 C33 1_555 1_555
C34 C31 1_555 1_555
H29 C34 1_555 1_555
H30 C34 1_555 1_555
H31 C34 1_555 1_555
C5 C6 1_555 1_555
C13 C14 1_555 1_555
C20 C21 1_555 1_555
C26 C27 1_555 1_555
C32 C33 1_555 1_555

#END
