
#######################################################################
#
#                 Cambridge Crystallographic Data Centre
#                                CCDC 
#
#######################################################################
#
# If this CIF has been generated from an entry in the Cambridge 
# Structural Database, then it will include bibliographic, chemical, 
# crystal, experimental, refinement or atomic coordinate data resulting 
# from the CCDC's data processing and validation procedures.
#
#######################################################################

data_TAFXAC
_chemical_formula_moiety         'C26 H23 Br1 O2'
_chemical_name_systematic        
(2-(4-bromophenyl)-4-methyl-6-phenylcyclohex-3-en-1-yl)(2-hydroxyphenyl)methanone
_symmetry_cell_setting           orthorhombic
_symmetry_space_group_name_H-M   'P 21 21 21'
_symmetry_Int_Tables_number      19
_space_group_name_Hall           'P 2ac 2ab'
loop_
_symmetry_equiv_pos_site_id
_symmetry_equiv_pos_as_xyz
1 x,y,z
2 1/2-x,-y,1/2+z
3 -x,1/2+y,1/2-z
4 1/2+x,1/2-y,-z
_cell_length_a                   11.8799(10)
_cell_length_b                   12.0496(12)
_cell_length_c                   14.8783(13)
_cell_angle_alpha                90
_cell_angle_beta                 90
_cell_angle_gamma                90
_cell_volume                     2129.8
_exptl_crystal_colour            colorless
_exptl_crystal_description       block
_cell_formula_units_Z            4
loop_
_atom_site_label
_atom_site_type_symbol
_atom_site_fract_x
_atom_site_fract_y
_atom_site_fract_z
Br1 Br 0.18550(3) 0.91356(3) 0.42704(2)
O1 O 0.28270(17) 0.39070(18) 0.53924(13)
H1 H 0.251(3) 0.392(4) 0.490(3)
O2 O 0.25292(15) 0.4130(2) 0.36970(11)
C1 C 0.3909(3) 0.3681(2) 0.51935(17)
C2 C 0.4986(2) 0.5530(2) 0.16216(17)
H2 H 0.5513 0.6112 0.1531
C3 C 0.4318(2) 0.3691(2) 0.42958(18)
C4 C 0.4624(2) 0.4994(2) 0.09039(17)
C5 C 0.3541(2) 0.3973(2) 0.35561(16)
C6 C 0.4626(2) 0.5288(2) 0.25777(16)
H3 H 0.5328 0.5216 0.2943
C7 C 0.2862(3) 0.1977(2) 0.20432(18)
H4 H 0.3655 0.1909 0.2109
C8 C 0.4631(3) 0.3431(2) 0.59043(17)
H5 H 0.4349 0.3421 0.6502
C9 C 0.3945(2) 0.6235(2) 0.29844(17)
C10 C 0.2395(2) 0.3022(3) 0.19142(17)
C11 C 0.3471(2) 0.7380(2) 0.42787(19)
H6 H 0.3575 0.7565 0.4894
C12 C 0.2703(2) 0.7955(2) 0.37615(19)
C13 C 0.5466(2) 0.3463(2) 0.41616(17)
H7 H 0.5760 0.3474 0.3568
C14 C 0.3126(2) 0.4054(2) 0.18649(14)
H8 H 0.2627 0.4721 0.1895
C15 C 0.6176(3) 0.3223(2) 0.48673(19)
H9 H 0.6949 0.3075 0.4758
C16 C 0.4088(3) 0.6531(2) 0.38904(17)
H10 H 0.4621 0.6139 0.4245
C17 C 0.4013(2) 0.4140(2) 0.26170(15)
H11 H 0.4589 0.3550 0.2510
C18 C 0.1045(3) 0.1108(3) 0.19546(17)
H12 H 0.0586 0.0462 0.1974
C19 C 0.1236(3) 0.3092(3) 0.17926(18)
H13 H 0.0896 0.3797 0.1701
C20 C 0.3167(3) 0.6838(2) 0.24743(15)
H14 H 0.3063 0.6659 0.1858
C21 C 0.3765(2) 0.4073(3) 0.09608(15)
H15 H 0.4150 0.3352 0.0876
H16 H 0.3215 0.4161 0.0466
C22 C 0.5073(3) 0.5244(3) -0.00220(18)
H17 H 0.5583 0.5882 0.0008
H18 H 0.4445 0.5416 -0.0426
H19 H 0.5481 0.4597 -0.0251
C23 C 0.2545(2) 0.7694(2) 0.28540(18)
H20 H 0.2018 0.8097 0.2502
C24 C 0.0568(3) 0.2143(3) 0.18029(18)
H21 H -0.0220 0.2205 0.1705
C25 C 0.5752(2) 0.3197(2) 0.57481(19)
H22 H 0.6235 0.3020 0.6236
C26 C 0.2199(2) 0.1029(3) 0.20779(18)
H23 H 0.2536 0.0327 0.2186
loop_
_geom_bond_atom_site_label_1
_geom_bond_atom_site_label_2
_geom_bond_site_symmetry_1
_geom_bond_site_symmetry_2
Br1 C12 1_555 1_555
O1 H1 1_555 1_555
O2 C5 1_555 1_555
C1 O1 1_555 1_555
C2 H2 1_555 1_555
C3 C1 1_555 1_555
C4 C2 1_555 1_555
C5 C3 1_555 1_555
C6 C2 1_555 1_555
H3 C6 1_555 1_555
C7 H4 1_555 1_555
C8 C1 1_555 1_555
H5 C8 1_555 1_555
C9 C6 1_555 1_555
C10 C7 1_555 1_555
C11 H6 1_555 1_555
C12 C11 1_555 1_555
C13 C3 1_555 1_555
H7 C13 1_555 1_555
C14 C10 1_555 1_555
H8 C14 1_555 1_555
C15 C13 1_555 1_555
H9 C15 1_555 1_555
C16 C9 1_555 1_555
H10 C16 1_555 1_555
C17 C5 1_555 1_555
H11 C17 1_555 1_555
C18 H12 1_555 1_555
C19 C10 1_555 1_555
H13 C19 1_555 1_555
C20 C9 1_555 1_555
H14 C20 1_555 1_555
C21 C4 1_555 1_555
H15 C21 1_555 1_555
H16 C21 1_555 1_555
C22 C4 1_555 1_555
H17 C22 1_555 1_555
H18 C22 1_555 1_555
H19 C22 1_555 1_555
C23 C12 1_555 1_555
H20 C23 1_555 1_555
C24 C18 1_555 1_555
H21 C24 1_555 1_555
C25 C8 1_555 1_555
H22 C25 1_555 1_555
C26 C7 1_555 1_555
H23 C26 1_555 1_555
C6 C17 1_555 1_555
C11 C16 1_555 1_555
C14 C17 1_555 1_555
C14 C21 1_555 1_555
C15 C25 1_555 1_555
C18 C26 1_555 1_555
C19 C24 1_555 1_555
C20 C23 1_555 1_555

#END
