
#######################################################################
#
#                 Cambridge Crystallographic Data Centre
#                                CCDC 
#
#######################################################################
#
# If this CIF has been generated from an entry in the Cambridge 
# Structural Database, then it will include bibliographic, chemical, 
# crystal, experimental, refinement or atomic coordinate data resulting 
# from the CCDC's data processing and validation procedures.
#
#######################################################################

data_TAGFUF
_chemical_formula_moiety         'C25 H26 O2'
_chemical_name_systematic        
6,7-dimethoxy-4-methyl-1,2-diphenyl-1,2,3,4-tetrahydronaphthalene
_symmetry_cell_setting           monoclinic
_symmetry_space_group_name_H-M   'P 21/c'
_symmetry_Int_Tables_number      14
_space_group_name_Hall           '-P 2ybc'
loop_
_symmetry_equiv_pos_site_id
_symmetry_equiv_pos_as_xyz
1 x,y,z
2 -x,1/2+y,1/2-z
3 -x,-y,-z
4 x,1/2-y,1/2+z
_cell_length_a                   10.2155(13)
_cell_length_b                   18.822(2)
_cell_length_c                   10.6623(15)
_cell_angle_alpha                90
_cell_angle_beta                 110.299(3)
_cell_angle_gamma                90
_cell_volume                     1922.78
_exptl_crystal_colour            colorless
_cell_formula_units_Z            4
loop_
_atom_site_label
_atom_site_type_symbol
_atom_site_fract_x
_atom_site_fract_y
_atom_site_fract_z
O1 O 0.24495(11) 0.20600(5) 0.54717(9)
O2 O 0.07810(11) 0.25864(5) 0.32604(9)
C1 C 0.33581(16) 0.17549(8) 0.66931(14)
H1 H 0.4313 0.1924 0.6871
H2 H 0.3335 0.1236 0.6615
H3 H 0.3049 0.1896 0.7430
C2 C 0.23506(15) 0.27875(7) 0.54295(13)
C3 C 0.14455(14) 0.30793(7) 0.42163(13)
C4 C 0.13243(14) 0.38083(7) 0.40777(13)
H4 H 0.0713 0.4003 0.3263
C5 C 0.20859(14) 0.42716(7) 0.51153(13)
C6 C 0.19690(14) 0.50780(7) 0.48887(13)
H5 H 0.1178 0.5249 0.5157
C7 C 0.33179(15) 0.54444(7) 0.58194(13)
H6 H 0.4117 0.5258 0.5578
C8 C 0.33076(15) 0.62460(7) 0.56819(13)
C9 C 0.41788(16) 0.65880(8) 0.51204(14)
H7 H 0.4748 0.6314 0.4764
C10 C 0.42289(17) 0.73251(8) 0.50734(15)
H8 H 0.4829 0.7549 0.4684
C11 C 0.34108(16) 0.77358(8) 0.55890(14)
H9 H 0.3458 0.8240 0.5568
C12 C -0.00579(16) 0.28356(8) 0.19676(13)
H10 H -0.0831 0.3120 0.2041
H11 H -0.0431 0.2429 0.1377
H12 H 0.0512 0.3129 0.1596
C13 C 0.29556(14) 0.39805(7) 0.63234(13)
C14 C 0.38527(15) 0.44275(8) 0.74977(13)
H13 H 0.4850 0.4349 0.7588
C15 C 0.36939(17) 0.42028(8) 0.88228(13)
H14 H 0.4320 0.4488 0.9555
H15 H 0.3934 0.3699 0.8989
H16 H 0.2727 0.4278 0.8770
C16 C 0.35532(16) 0.52170(7) 0.72643(13)
H17 H 0.4347 0.5489 0.7878
H18 H 0.2713 0.5337 0.7482
C17 C 0.16572(15) 0.52925(7) 0.34395(13)
C18 C 0.25015(15) 0.50578(8) 0.27357(13)
H19 H 0.3270 0.4754 0.3164
C19 C 0.22325(16) 0.52626(8) 0.14193(14)
H20 H 0.2817 0.5099 0.0954
C20 C 0.11141(16) 0.57059(8) 0.07793(14)
H21 H 0.0926 0.5842 -0.0124
C21 C 0.02753(16) 0.59478(8) 0.14673(15)
H22 H -0.0484 0.6257 0.1039
C22 C 0.05405(15) 0.57397(7) 0.27868(14)
H23 H -0.0047 0.5905 0.3247
C23 C 0.24676(16) 0.66684(8) 0.61732(15)
H24 H 0.1846 0.6447 0.6541
C24 C 0.25223(16) 0.74045(8) 0.61354(15)
H25 H 0.1950 0.7681 0.6484
C25 C 0.30719(15) 0.32377(7) 0.64524(13)
H26 H 0.3667 0.3040 0.7272
loop_
_geom_bond_atom_site_label_1
_geom_bond_atom_site_label_2
_geom_bond_site_symmetry_1
_geom_bond_site_symmetry_2
O1 C1 1_555 1_555
O2 C3 1_555 1_555
C1 H1 1_555 1_555
H2 C1 1_555 1_555
H3 C1 1_555 1_555
C2 O1 1_555 1_555
C3 C2 1_555 1_555
C4 C3 1_555 1_555
H4 C4 1_555 1_555
C5 C4 1_555 1_555
C6 C5 1_555 1_555
H5 C6 1_555 1_555
C7 C6 1_555 1_555
H6 C7 1_555 1_555
C8 C7 1_555 1_555
C9 C8 1_555 1_555
H7 C9 1_555 1_555
C10 C9 1_555 1_555
H8 C10 1_555 1_555
C11 C10 1_555 1_555
H9 C11 1_555 1_555
C12 O2 1_555 1_555
H10 C12 1_555 1_555
H11 C12 1_555 1_555
H12 C12 1_555 1_555
C13 C5 1_555 1_555
C14 C13 1_555 1_555
H13 C14 1_555 1_555
C15 C14 1_555 1_555
H14 C15 1_555 1_555
H15 C15 1_555 1_555
H16 C15 1_555 1_555
C16 C7 1_555 1_555
H17 C16 1_555 1_555
H18 C16 1_555 1_555
C17 C6 1_555 1_555
C18 C17 1_555 1_555
H19 C18 1_555 1_555
C19 C18 1_555 1_555
H20 C19 1_555 1_555
C20 C19 1_555 1_555
H21 C20 1_555 1_555
C21 C20 1_555 1_555
H22 C21 1_555 1_555
C22 C17 1_555 1_555
H23 C22 1_555 1_555
C23 C8 1_555 1_555
H24 C23 1_555 1_555
C24 C11 1_555 1_555
H25 C24 1_555 1_555
C25 C2 1_555 1_555
H26 C25 1_555 1_555
C13 C25 1_555 1_555
C14 C16 1_555 1_555
C21 C22 1_555 1_555
C23 C24 1_555 1_555

#END
