
#######################################################################
#
#                 Cambridge Crystallographic Data Centre
#                                CCDC 
#
#######################################################################
#
# If this CIF has been generated from an entry in the Cambridge 
# Structural Database, then it will include bibliographic, chemical, 
# crystal, experimental, refinement or atomic coordinate data resulting 
# from the CCDC's data processing and validation procedures.
#
#######################################################################

data_TAGFOZ
_chemical_formula_moiety         'C32 H32 O4 S1'
_chemical_name_systematic        
'1-(biphenyl-4-yl)-6,7-dimethoxy-4-methyl-1,2,3,4-tetrahydronaphthalen-2-yl 4-methylphenyl sulfone'
_symmetry_cell_setting           monoclinic
_symmetry_space_group_name_H-M   'P 21/c'
_symmetry_Int_Tables_number      14
_space_group_name_Hall           '-P 2ybc'
loop_
_symmetry_equiv_pos_site_id
_symmetry_equiv_pos_as_xyz
1 x,y,z
2 -x,1/2+y,1/2-z
3 -x,-y,-z
4 x,1/2-y,1/2+z
_cell_length_a                   12.1307(4)
_cell_length_b                   11.0079(3)
_cell_length_c                   20.0330(5)
_cell_angle_alpha                90
_cell_angle_beta                 104.5380(10)
_cell_angle_gamma                90
_cell_volume                     2589.42
_exptl_crystal_colour            colorless
_cell_formula_units_Z            4
loop_
_atom_site_label
_atom_site_type_symbol
_atom_site_fract_x
_atom_site_fract_y
_atom_site_fract_z
S1 S 0.26216(3) 0.74562(4) 1.01193(2)
O1 O 0.16071(10) 0.80488(11) 0.97168(6)
O2 O 0.28970(11) 0.75621(11) 1.08627(6)
O3 O -0.02730(11) 0.26382(12) 0.75190(6)
O4 O -0.04973(11) 0.11856(12) 0.84893(6)
C1 C 0.76038(16) 0.5947(2) 0.71731(10)
H1 H 0.8247 0.6024 0.6987
C2 C 0.74366(15) 0.48916(19) 0.75118(9)
H2 H 0.7967 0.4243 0.7557
C3 C 0.64937(15) 0.47799(17) 0.77857(9)
H3 H 0.6385 0.4051 0.8015
C4 C 0.57047(15) 0.57256(17) 0.77283(8)
C5 C 0.47305(14) 0.56307(16) 0.80548(8)
C6 C 0.36846(15) 0.62060(16) 0.77826(9)
H4 H 0.3557 0.6618 0.7353
C7 C 0.28280(14) 0.61810(15) 0.81340(9)
H5 H 0.2127 0.6582 0.7941
C8 C 0.29805(14) 0.55787(15) 0.87633(8)
C9 C 0.20473(14) 0.55652(15) 0.91541(8)
H6 H 0.1495 0.6223 0.8954
C10 C 0.25082(14) 0.58463(15) 0.99309(8)
H7 H 0.3291 0.5493 1.0082
C11 C 0.38004(15) 0.80019(15) 0.98467(9)
C12 C 0.48794(15) 0.79214(17) 1.02951(9)
H8 H 0.4975 0.7585 1.0743
C13 C 0.58158(16) 0.83395(18) 1.00806(10)
H9 H 0.6555 0.8281 1.0383
C14 C 0.56836(17) 0.88405(18) 0.94299(10)
C15 C 0.66983(19) 0.9275(2) 0.91906(12)
H10 H 0.7365 0.9317 0.9585
H11 H 0.6540 1.0083 0.8984
H12 H 0.6850 0.8707 0.8847
C16 C 0.68278(16) 0.68913(19) 0.71078(10)
H13 H 0.6938 0.7614 0.6874
C17 C 0.58866(16) 0.67847(18) 0.73844(10)
H14 H 0.5362 0.7439 0.7339
C18 C 0.48547(14) 0.49738(16) 0.86673(9)
H15 H 0.5540 0.4538 0.8849
C19 C 0.40003(15) 0.49448(16) 0.90144(9)
H16 H 0.4108 0.4488 0.9428
C20 C 0.13923(14) 0.43574(15) 0.90321(8)
C21 C 0.08796(14) 0.40528(16) 0.83428(8)
H17 H 0.0962 0.4584 0.7985
C22 C 0.02587(14) 0.29977(16) 0.81751(8)
C23 C -0.00254(17) 0.33475(18) 0.69770(9)
H18 H -0.0286 0.4184 0.7007
H19 H -0.0419 0.3000 0.6530
H20 H 0.0798 0.3346 0.7021
C24 C 0.01340(15) 0.22078(16) 0.87042(9)
C25 C -0.06633(18) 0.03870(17) 0.90189(10)
H21 H 0.0068 0.0028 0.9259
H22 H -0.1196 -0.0259 0.8812
H23 H -0.0976 0.0846 0.9348
C26 C 0.06397(17) 0.25034(16) 0.93816(9)
H24 H 0.0559 0.1967 0.9738
C27 C 0.12729(16) 0.35818(16) 0.95585(9)
C28 C 0.18050(19) 0.39014(18) 1.03132(9)
H25 H 0.2617 0.3629 1.0429
C29 C 0.17960(17) 0.52921(17) 1.03813(9)
H26 H 0.1004 0.5597 1.0234
H27 H 0.2114 0.5529 1.0868
C30 C 0.12387(19) 0.3324(2) 1.08239(10)
H28 H 0.0442 0.3587 1.0725
H29 H 0.1636 0.3574 1.1292
H30 H 0.1270 0.2438 1.0786
C31 C 0.36471(16) 0.85179(17) 0.91978(9)
H31 H 0.2907 0.8585 0.8897
C32 C 0.45915(18) 0.89338(19) 0.89960(10)
H32 H 0.4493 0.9290 0.8553
loop_
_geom_bond_atom_site_label_1
_geom_bond_atom_site_label_2
_geom_bond_site_symmetry_1
_geom_bond_site_symmetry_2
S1 O1 1_555 1_555
O2 S1 1_555 1_555
O3 C22 1_555 1_555
O4 C24 1_555 1_555
C1 H1 1_555 1_555
C2 C1 1_555 1_555
H2 C2 1_555 1_555
C3 C2 1_555 1_555
H3 C3 1_555 1_555
C4 C3 1_555 1_555
C5 C4 1_555 1_555
C6 C5 1_555 1_555
H4 C6 1_555 1_555
C7 C6 1_555 1_555
H5 C7 1_555 1_555
C8 C7 1_555 1_555
C9 C8 1_555 1_555
H6 C9 1_555 1_555
C10 S1 1_555 1_555
H7 C10 1_555 1_555
C11 S1 1_555 1_555
C12 C11 1_555 1_555
H8 C12 1_555 1_555
C13 C12 1_555 1_555
H9 C13 1_555 1_555
C14 C13 1_555 1_555
C15 C14 1_555 1_555
H10 C15 1_555 1_555
H11 C15 1_555 1_555
H12 C15 1_555 1_555
C16 C1 1_555 1_555
H13 C16 1_555 1_555
C17 C4 1_555 1_555
H14 C17 1_555 1_555
C18 C5 1_555 1_555
H15 C18 1_555 1_555
C19 C8 1_555 1_555
H16 C19 1_555 1_555
C20 C9 1_555 1_555
C21 C20 1_555 1_555
H17 C21 1_555 1_555
C22 C21 1_555 1_555
C23 O3 1_555 1_555
H18 C23 1_555 1_555
H19 C23 1_555 1_555
H20 C23 1_555 1_555
C24 C22 1_555 1_555
C25 O4 1_555 1_555
H21 C25 1_555 1_555
H22 C25 1_555 1_555
H23 C25 1_555 1_555
C26 C24 1_555 1_555
H24 C26 1_555 1_555
C27 C20 1_555 1_555
C28 C27 1_555 1_555
H25 C28 1_555 1_555
C29 C10 1_555 1_555
H26 C29 1_555 1_555
H27 C29 1_555 1_555
C30 C28 1_555 1_555
H28 C30 1_555 1_555
H29 C30 1_555 1_555
H30 C30 1_555 1_555
C31 C11 1_555 1_555
H31 C31 1_555 1_555
C32 C14 1_555 1_555
H32 C32 1_555 1_555
C9 C10 1_555 1_555
C16 C17 1_555 1_555
C18 C19 1_555 1_555
C26 C27 1_555 1_555
C28 C29 1_555 1_555
C31 C32 1_555 1_555

#END
