
#######################################################################
#
#                 Cambridge Crystallographic Data Centre
#                                CCDC 
#
#######################################################################
#
# If this CIF has been generated from an entry in the Cambridge 
# Structural Database, then it will include bibliographic, chemical, 
# crystal, experimental, refinement or atomic coordinate data resulting 
# from the CCDC's data processing and validation procedures.
#
#######################################################################

data_TAGGAM
_chemical_formula_moiety         'C25 H25 F1 O2'
_chemical_name_systematic        
1-(4-fluorophenyl)-6,7-dimethoxy-4-methyl-2-phenyl-1,2,3,4-tetrahydronaphthalene
_symmetry_cell_setting           monoclinic
_symmetry_space_group_name_H-M   'P 21/c'
_symmetry_Int_Tables_number      14
_space_group_name_Hall           '-P 2ybc'
loop_
_symmetry_equiv_pos_site_id
_symmetry_equiv_pos_as_xyz
1 x,y,z
2 -x,1/2+y,1/2-z
3 -x,-y,-z
4 x,1/2-y,1/2+z
_cell_length_a                   10.3721(7)
_cell_length_b                   18.7809(11)
_cell_length_c                   10.7938(6)
_cell_angle_alpha                90
_cell_angle_beta                 110.397(2)
_cell_angle_gamma                90
_cell_volume                     1970.77
_exptl_crystal_colour            colorless
_cell_formula_units_Z            4
loop_
_atom_site_label
_atom_site_type_symbol
_atom_site_fract_x
_atom_site_fract_y
_atom_site_fract_z
F1 F 0.09580(15) 0.58369(6) -0.03998(10)
O1 O 0.24554(12) 0.20631(5) 0.55797(10)
O2 O 0.07967(13) 0.25660(5) 0.33996(11)
C1 C 0.33729(19) 0.77226(9) 0.54324(19)
H1 H 0.3413 0.8216 0.5373
C2 C 0.2520(2) 0.74134(9) 0.5994(2)
H2 H 0.1969 0.7696 0.6314
C3 C 0.24745(19) 0.66827(9) 0.6089(2)
H3 H 0.1882 0.6480 0.6467
C4 C 0.32851(14) 0.62432(8) 0.56389(14)
C5 C 0.32852(14) 0.54454(7) 0.58145(14)
H4 H 0.4060 0.5254 0.5598
C6 C 0.19659(14) 0.50715(7) 0.48977(14)
H5 H 0.1196 0.5245 0.5141
C7 C 0.20789(13) 0.42679(7) 0.51510(13)
C8 C 0.13311(14) 0.37935(7) 0.41492(14)
H6 H 0.0738 0.3976 0.3353
C9 C 0.14535(15) 0.30669(8) 0.43157(14)
C10 C 0.23532(15) 0.27896(7) 0.55120(14)
C11 C 0.3372(2) 0.17657(9) 0.67696(17)
H7 H 0.4282 0.1947 0.6935
H8 H 0.3378 0.1257 0.6689
H9 H 0.3076 0.1892 0.7490
C12 C -0.00330(18) 0.27891(9) 0.21216(15)
H10 H -0.0769 0.3081 0.2180
H11 H -0.0408 0.2380 0.1584
H12 H 0.0514 0.3058 0.1731
C13 C 0.16706(14) 0.52689(7) 0.34639(13)
C14 C 0.25178(15) 0.50315(8) 0.27997(14)
H13 H 0.3260 0.4738 0.3236
C15 C 0.22810(18) 0.52228(8) 0.15001(16)
H14 H 0.2851 0.5060 0.1060
C16 C 0.11873(19) 0.56570(8) 0.08806(15)
C17 C 0.03332(19) 0.59105(9) 0.14897(18)
H15 H -0.0397 0.6209 0.1046
C18 C 0.05801(16) 0.57120(8) 0.27904(16)
H16 H 0.0003 0.5879 0.3220
C19 C 0.35058(17) 0.52331(8) 0.72407(15)
H17 H 0.4269 0.5505 0.7831
H18 H 0.2690 0.5355 0.7440
C20 C 0.38013(15) 0.44455(8) 0.74986(14)
H19 H 0.4767 0.4369 0.7597
C21 C 0.3642(2) 0.42322(10) 0.88055(15)
H20 H 0.4255 0.4511 0.9511
H21 H 0.3858 0.3736 0.8972
H22 H 0.2711 0.4315 0.8753
C22 C 0.29367(14) 0.39889(7) 0.63492(13)
C23 C 0.30618(15) 0.32481(8) 0.65010(14)
H23 H 0.3644 0.3062 0.7298
C24 C 0.4169(2) 0.72984(10) 0.4957(2)
H24 H 0.4743 0.7505 0.4562
C25 C 0.41273(18) 0.65639(9) 0.50588(17)
H25 H 0.4675 0.6284 0.4731
loop_
_geom_bond_atom_site_label_1
_geom_bond_atom_site_label_2
_geom_bond_site_symmetry_1
_geom_bond_site_symmetry_2
F1 C16 1_555 1_555
O1 C10 1_555 1_555
O2 C9 1_555 1_555
C1 H1 1_555 1_555
C2 C1 1_555 1_555
H2 C2 1_555 1_555
C3 C2 1_555 1_555
H3 C3 1_555 1_555
C4 C3 1_555 1_555
C5 C4 1_555 1_555
H4 C5 1_555 1_555
C6 C5 1_555 1_555
H5 C6 1_555 1_555
C7 C6 1_555 1_555
C8 C7 1_555 1_555
H6 C8 1_555 1_555
C9 C8 1_555 1_555
C10 C9 1_555 1_555
C11 O1 1_555 1_555
H7 C11 1_555 1_555
H8 C11 1_555 1_555
H9 C11 1_555 1_555
C12 O2 1_555 1_555
H10 C12 1_555 1_555
H11 C12 1_555 1_555
H12 C12 1_555 1_555
C13 C6 1_555 1_555
C14 C13 1_555 1_555
H13 C14 1_555 1_555
C15 C14 1_555 1_555
H14 C15 1_555 1_555
C16 C15 1_555 1_555
C17 C16 1_555 1_555
H15 C17 1_555 1_555
C18 C13 1_555 1_555
H16 C18 1_555 1_555
C19 C5 1_555 1_555
H17 C19 1_555 1_555
H18 C19 1_555 1_555
C20 C19 1_555 1_555
H19 C20 1_555 1_555
C21 C20 1_555 1_555
H20 C21 1_555 1_555
H21 C21 1_555 1_555
H22 C21 1_555 1_555
C22 C7 1_555 1_555
C23 C10 1_555 1_555
H23 C23 1_555 1_555
C24 C1 1_555 1_555
H24 C24 1_555 1_555
C25 C4 1_555 1_555
H25 C25 1_555 1_555
C17 C18 1_555 1_555
C20 C22 1_555 1_555
C22 C23 1_555 1_555
C24 C25 1_555 1_555

#END
