
#######################################################################
#
#                 Cambridge Crystallographic Data Centre
#                                CCDC 
#
#######################################################################
#
# If this CIF has been generated from an entry in the Cambridge 
# Structural Database, then it will include bibliographic, chemical, 
# crystal, experimental, refinement or atomic coordinate data resulting 
# from the CCDC's data processing and validation procedures.
#
#######################################################################

data_TAGGAJ
_chemical_formula_moiety         'C21 H22 N2 O4,C3 H6 O1'
_chemical_name_systematic        
'Methyl (4aS*-(4\a,4a\b,7\b,14b\b,14a\b))-7,8,13,13b,14,14a-hexahydro-4-methyl-5-oxo-4H-indolo-(2,3-a)pyrano(3,4-g)quinolizine-7-carboxylate acetone solvate'
_symmetry_cell_setting           triclinic
_symmetry_space_group_name_H-M   'P -1'
_symmetry_Int_Tables_number      2
_space_group_name_Hall           '-P 1'
loop_
_symmetry_equiv_pos_site_id
_symmetry_equiv_pos_as_xyz
1 x,y,z
2 -x,-y,-z
_cell_length_a                   9.9955(13)
_cell_length_b                   10.8523(14)
_cell_length_c                   11.9352(14)
_cell_angle_alpha                63.189(9)
_cell_angle_beta                 72.286(9)
_cell_angle_gamma                72.901(10)
_cell_volume                     1081.82
_exptl_crystal_colour            colorless
_cell_formula_units_Z            2
loop_
_atom_site_label
_atom_site_type_symbol
_atom_site_fract_x
_atom_site_fract_y
_atom_site_fract_z
C1 C -0.1803(2) 0.6098(2) 0.3130(2)
C2 C -0.1600(2) 0.5982(2) 0.2036(2)
O1 O -0.14455(13) 0.70388(12) 0.08427(11)
C3 C -0.1762(2) 0.8442(2) 0.0816(2)
C4 C -0.1258(2) 0.84946(15) 0.18732(14)
C5 C 0.0351(2) 0.83054(14) 0.16255(13)
N1 N 0.08482(13) 0.83574(12) 0.25414(11)
C6 C 0.2391(2) 0.80669(15) 0.24366(13)
C7 C 0.2820(2) 0.8878(2) 0.29951(15)
C8 C 0.1960(2) 0.85644(15) 0.43247(13)
C9 C 0.2296(2) 0.84653(15) 0.54455(14)
C10 C 0.3473(2) 0.8671(2) 0.5699(2)
C11 C 0.3450(2) 0.8455(2) 0.6940(2)
C12 C 0.2273(2) 0.8037(2) 0.7922(2)
C13 C 0.1089(2) 0.7847(2) 0.76999(15)
C14 C 0.1098(2) 0.80736(15) 0.64463(14)
N2 N 0.0088(2) 0.79655(13) 0.59419(2)
C15 C 0.0626(2) 0.82676(14) 0.46524(13)
C16 C -0.0180(2) 0.83590(15) 0.37473(13)
C17 C -0.1060(2) 0.7215(2) 0.42385(15)
C18 C -0.1864(2) 0.7449(2) 0.32233(14)
C19 C -0.3350(2) 0.8998(2) 0.0869(2)
O2 O 0.11452(13) 0.81779(12) 0.06580(10)
C20 C 0.2927(2) 0.6489(2) 0.30357(14)
O3 O 0.22166(13) 0.56087(12) 0.34338(13)
O4 O 0.43166(13) 0.61903(13) 0.30289(13)
C21 C 0.4930(3) 0.4704(2) 0.3520(3)
H1 H -0.186(2) 0.527(2) 0.390(2)
H2 H -0.157(2) 0.504(2) 0.200(2)
H3 H -0.124(2) 0.903(2) -0.002(2)
H4 H -0.162(2) 0.945(2) 0.1855(15)
H5 H 0.277(2) 0.835(2) 0.156(2)
H6 H 0.385(2) 0.856(2) 0.302(2)
H7 H 0.261(2) 0.985(2) 0.2470(15)
H8 H 0.435(2) 0.896(2) 0.495(2)
H9 H 0.432(2) 0.853(2) 0.717(2)
H10 H 0.224(2) 0.790(2) 0.880(2)
H11 H 0.032(2) 0.757(2) 0.834(2)
H12 H -0.078(2) 0.775(2) 0.641(2)
H13 H -0.082(2) 0.928(2) 0.3501(13)
H14 H -0.040(2) 0.631(2) 0.447(2)
H15 H -0.171(2) 0.718(2) 0.505(2)
H16 H -0.290(2) 0.791(2) 0.343(2)
H17 H -0.392(2) 0.838(2) 0.164(2)
H18 H -0.360(2) 0.993(2) 0.090(2)
H19 H -0.362(2) 0.908(2) 0.010(2)
H20 H 0.589(3) 0.453(3) 0.338(3)
H21 H 0.445(3) 0.419(3) 0.436(3)
H22 H 0.471(3) 0.415(3) 0.303(3)
O5 O -0.2785(2) 0.76622(14) 0.76443(13)
C22 C -0.3005(2) 0.6666(2) 0.8642(2)
C23 C -0.1975(3) 0.5325(3) 0.8939(3)
C24 C -0.4331(3) 0.6764(3) 0.9625(3)
H23 H -0.481(4) 0.780(5) 0.939(4)
H24 H -0.482(3) 0.620(3) 0.956(3)
H25 H -0.410(3) 0.626(3) 1.046(3)
H26 H -0.122(3) 0.530(3) 0.825(3)
H27 H -0.168(4) 0.498(4) 0.975(4)
H28 H -0.239(4) 0.464(4) 0.916(3)
loop_
_geom_bond_atom_site_label_1
_geom_bond_atom_site_label_2
_geom_bond_site_symmetry_1
_geom_bond_site_symmetry_2
C1 C2 1_555 1_555
C2 O1 1_555 1_555
O1 C3 1_555 1_555
C3 C4 1_555 1_555
C4 C5 1_555 1_555
C5 N1 1_555 1_555
N1 C6 1_555 1_555
C6 C7 1_555 1_555
C7 C8 1_555 1_555
C8 C9 1_555 1_555
C9 C10 1_555 1_555
C10 C11 1_555 1_555
C11 C12 1_555 1_555
C12 C13 1_555 1_555
C13 C14 1_555 1_555
C14 C9 1_555 1_555
N2 C14 1_555 1_555
C15 C8 1_555 1_555
C16 N1 1_555 1_555
C17 C16 1_555 1_555
C18 C1 1_555 1_555
C19 C3 1_555 1_555
O2 C5 1_555 1_555
C20 C6 1_555 1_555
O3 C20 1_555 1_555
O4 C20 1_555 1_555
C21 O4 1_555 1_555
O5 C22 1_555 1_555
C22 C23 1_555 1_555
C23 H26 1_555 1_555
C24 C22 1_555 1_555
H1 C1 1_555 1_555
H2 C2 1_555 1_555
H3 C3 1_555 1_555
H4 C4 1_555 1_555
H5 C6 1_555 1_555
H6 C7 1_555 1_555
H7 C7 1_555 1_555
H8 C10 1_555 1_555
H9 C11 1_555 1_555
H10 C12 1_555 1_555
H11 C13 1_555 1_555
H12 N2 1_555 1_555
H13 C16 1_555 1_555
H14 C17 1_555 1_555
H15 C17 1_555 1_555
H16 C18 1_555 1_555
H17 C19 1_555 1_555
H18 C19 1_555 1_555
H19 C19 1_555 1_555
H20 C21 1_555 1_555
H21 C21 1_555 1_555
H22 C21 1_555 1_555
H23 C24 1_555 1_555
H24 C24 1_555 1_555
H25 C24 1_555 1_555
H27 C23 1_555 1_555
H28 C23 1_555 1_555
C4 C18 1_555 1_555
N2 C15 1_555 1_555
C15 C16 1_555 1_555
C17 C18 1_555 1_555

#END
