
#######################################################################
#
#                 Cambridge Crystallographic Data Centre
#                                CCDC 
#
#######################################################################
#
# If this CIF has been generated from an entry in the Cambridge 
# Structural Database, then it will include bibliographic, chemical, 
# crystal, experimental, refinement or atomic coordinate data resulting 
# from the CCDC's data processing and validation procedures.
#
#######################################################################

data_TAGGUG
_chemical_formula_moiety         'C20 H24 O3 S1'
_chemical_name_systematic        
2,2-dimethyl-5-((4-methylphenyl)sulfonyl)-6-phenyltetrahydro-2H-pyran
_symmetry_cell_setting           monoclinic
_symmetry_space_group_name_H-M   'P 21/c'
_symmetry_Int_Tables_number      14
_space_group_name_Hall           '-P 2ybc'
loop_
_symmetry_equiv_pos_site_id
_symmetry_equiv_pos_as_xyz
1 x,y,z
2 -x,1/2+y,1/2-z
3 -x,-y,-z
4 x,1/2-y,1/2+z
_cell_length_a                   6.0190(2)
_cell_length_b                   22.9167(10)
_cell_length_c                   13.0996(6)
_cell_angle_alpha                90
_cell_angle_beta                 101.5250(10)
_cell_angle_gamma                90
_cell_volume                     1770.47
_exptl_crystal_colour            colorless
_cell_formula_units_Z            4
loop_
_atom_site_label
_atom_site_type_symbol
_atom_site_fract_x
_atom_site_fract_y
_atom_site_fract_z
S1 S 0.34780(7) 0.29618(2) 0.70594(3)
O1 O 0.3789(2) 0.23475(5) 0.68885(9)
O2 O 0.11936(19) 0.31759(5) 0.69711(9)
O3 O 0.24019(18) 0.41727(4) 0.56414(8)
C1 C 0.8575(3) 0.34617(8) 1.14425(14)
H1 H 0.9775 0.3170 1.1638
H2 H 0.7513 0.3436 1.1919
H3 H 0.9248 0.3852 1.1485
C2 C 0.7327(3) 0.33484(7) 1.03465(12)
C3 C 0.8359(3) 0.30397(7) 0.96517(13)
H4 H 0.9874 0.2906 0.9871
C4 C 0.7211(3) 0.29241(7) 0.86451(12)
H5 H 0.7921 0.2708 0.8181
C5 C 0.5011(3) 0.31282(7) 0.83239(11)
C6 C 0.4923(3) 0.33397(6) 0.61668(11)
H6 H 0.6580 0.3257 0.6394
C7 C 0.4637(2) 0.40090(6) 0.61104(11)
H7 H 0.5635 0.4152 0.5638
C8 C 0.5348(3) 0.43372(6) 0.71245(11)
C9 C 0.7607(3) 0.43081(7) 0.76373(12)
H8 H 0.8644 0.4069 0.7367
C10 C 0.8347(3) 0.46261(7) 0.85400(13)
H9 H 0.9887 0.4602 0.8891
C11 C 0.6851(3) 0.49795(7) 0.89332(13)
H10 H 0.7365 0.5200 0.9549
C12 C 0.1643(3) 0.39788(7) 0.45704(11)
C13 C 0.1843(3) 0.33125(7) 0.45308(12)
H11 H 0.0677 0.3136 0.4871
H12 H 0.1531 0.3185 0.3794
C14 C 0.4171(3) 0.30873(7) 0.50633(12)
H13 H 0.5297 0.3194 0.4638
H14 H 0.4124 0.2656 0.5105
C15 C 0.2954(3) 0.42900(8) 0.38499(13)
H15 H 0.2970 0.4710 0.3988
H16 H 0.2221 0.4217 0.3123
H17 H 0.4513 0.4143 0.3974
C16 C -0.0820(3) 0.41614(8) 0.43217(13)
H18 H -0.1633 0.3973 0.4810
H19 H -0.1499 0.4044 0.3608
H20 H -0.0925 0.4586 0.4386
C17 C 0.4608(3) 0.50102(7) 0.84270(12)
H21 H 0.3579 0.5252 0.8696
C18 C 0.3851(3) 0.46874(7) 0.75241(12)
H22 H 0.2305 0.4707 0.7182
C19 C 0.3955(3) 0.34428(6) 0.89994(12)
H23 H 0.2457 0.3586 0.8772
C20 C 0.5111(3) 0.35451(7) 1.00088(12)
H24 H 0.4382 0.3752 1.0478
loop_
_geom_bond_atom_site_label_1
_geom_bond_atom_site_label_2
_geom_bond_site_symmetry_1
_geom_bond_site_symmetry_2
S1 O1 1_555 1_555
O2 S1 1_555 1_555
O3 C7 1_555 1_555
C1 H1 1_555 1_555
H2 C1 1_555 1_555
H3 C1 1_555 1_555
C2 C1 1_555 1_555
C3 C2 1_555 1_555
H4 C3 1_555 1_555
C4 C3 1_555 1_555
H5 C4 1_555 1_555
C5 S1 1_555 1_555
C6 S1 1_555 1_555
H6 C6 1_555 1_555
C7 C6 1_555 1_555
H7 C7 1_555 1_555
C8 C7 1_555 1_555
C9 C8 1_555 1_555
H8 C9 1_555 1_555
C10 C9 1_555 1_555
H9 C10 1_555 1_555
C11 C10 1_555 1_555
H10 C11 1_555 1_555
C12 O3 1_555 1_555
C13 C12 1_555 1_555
H11 C13 1_555 1_555
H12 C13 1_555 1_555
C14 C6 1_555 1_555
H13 C14 1_555 1_555
H14 C14 1_555 1_555
C15 C12 1_555 1_555
H15 C15 1_555 1_555
H16 C15 1_555 1_555
H17 C15 1_555 1_555
C16 C12 1_555 1_555
H18 C16 1_555 1_555
H19 C16 1_555 1_555
H20 C16 1_555 1_555
C17 C11 1_555 1_555
H21 C17 1_555 1_555
C18 C8 1_555 1_555
H22 C18 1_555 1_555
C19 C5 1_555 1_555
H23 C19 1_555 1_555
C20 C2 1_555 1_555
H24 C20 1_555 1_555
C4 C5 1_555 1_555
C13 C14 1_555 1_555
C17 C18 1_555 1_555
C19 C20 1_555 1_555

#END
