
#######################################################################
#
#                 Cambridge Crystallographic Data Centre
#                                CCDC 
#
#######################################################################
#
# If this CIF has been generated from an entry in the Cambridge 
# Structural Database, then it will include bibliographic, chemical, 
# crystal, experimental, refinement or atomic coordinate data resulting 
# from the CCDC's data processing and validation procedures.
#
#######################################################################

data_TAGJUJ
_chemical_formula_moiety         'C29 H40 O11'
_chemical_name_systematic        
"dimethyl 2,2'-(4'-(3-furyl(methoxy)methyl)-5',6,7-trihydroxy-2',3a,4',5,5-pentamethyl-3-oxo-3a,4,5,6,7,7a-hexahydro-3H-spiro[1-benzofuran-2,1'-cyclopent[2]ene]-3',4-diyl)diacetate"
_symmetry_cell_setting           monoclinic
_symmetry_space_group_name_H-M   'P 21'
_symmetry_Int_Tables_number      4
_space_group_name_Hall           'P 2yb'
loop_
_symmetry_equiv_pos_site_id
_symmetry_equiv_pos_as_xyz
1 x,y,z
2 -x,1/2+y,-z
_cell_length_a                   8.78520(10)
_cell_length_b                   14.5469(2)
_cell_length_c                   11.59900(10)
_cell_angle_alpha                90
_cell_angle_beta                 110.90
_cell_angle_gamma                90
_cell_volume                     1384.79
_exptl_crystal_colour            colorless
_exptl_crystal_description       block
_cell_formula_units_Z            2
loop_
_atom_site_label
_atom_site_type_symbol
_atom_site_fract_x
_atom_site_fract_y
_atom_site_fract_z
O1 O 0.15151(14) 0.68730(10) 0.16288(11)
O2 O 0.34761(16) 0.74465(11) 0.02557(12)
H1 H 0.3796 0.6979 0.0701
O3 O 0.16835(17) 0.57729(10) -0.03281(12)
H2 H 0.1498 0.5803 0.0333
O4 O -0.30381(18) 0.50694(12) -0.00658(13)
O5 O -0.52859(16) 0.53969(11) -0.16849(13)
O6 O -0.23067(16) 0.74807(11) 0.17007(12)
O7 O 0.01581(16) 0.51384(10) 0.16972(12)
H3 H -0.0744 0.5071 0.1122
O8 O 0.34700(16) 0.48533(11) 0.52810(12)
O9 O 0.43030(16) 0.76604(12) 0.63015(13)
O10 O 0.23280(16) 0.79836(10) 0.70427(12)
O11 O 0.51496(17) 0.59906(12) 0.22764(13)
C1 C 0.0987(2) 0.76013(14) 0.07165(16)
H4 H 0.1362 0.8207 0.1128
C2 C 0.1748(2) 0.74456(15) -0.02640(16)
H5 H 0.1425 0.7981 -0.0841
C3 C 0.1093(2) 0.65845(15) -0.10361(16)
H6 H 0.1536 0.6585 -0.1720
C4 C -0.0794(2) 0.65942(15) -0.16468(16)
C5 C -0.1488(2) 0.66983(14) -0.05911(15)
H7 H -0.1024 0.6167 -0.0029
C6 C -0.3350(2) 0.65734(15) -0.10125(16)
H8 H -0.3782 0.6990 -0.0527
H9 H -0.3850 0.6752 -0.1891
C7 C -0.3836(2) 0.56012(16) -0.08620(16)
C8 C 0.1050(2) 0.72170(14) 0.35717(16)
C9 C -0.1121(2) 0.73198(13) 0.14379(15)
C10 C -0.0881(2) 0.75668(14) 0.02359(15)
C11 C 0.0394(2) 0.68135(14) 0.22816(15)
C12 C 0.0008(2) 0.58042(14) 0.25381(16)
H10 H -0.1151 0.5792 0.2490
C13 C 0.1084(2) 0.55965(14) 0.38952(16)
C14 C 0.1405(2) 0.65574(14) 0.44288(16)
C15 C 0.1984(2) 0.66554(15) 0.58183(16)
H11 H 0.1013 0.6664 0.6062
H12 H 0.2620 0.6099 0.6189
C16 C 0.3006(2) 0.74820(15) 0.63784(15)
C17 C 0.2670(2) 0.50685(14) 0.40002(16)
H13 H 0.2354 0.4478 0.3533
C18 C 0.0120(2) 0.49970(16) 0.44902(17)
H14 H 0.0762 0.4911 0.5368
H15 H -0.0104 0.4397 0.4079
H16 H -0.0911 0.5301 0.4402
C19 C -0.1692(2) 0.84781(15) -0.02761(18)
H17 H -0.2877 0.8413 -0.0532
H18 H -0.1407 0.8655 -0.0989
H19 H -0.1314 0.8953 0.0363
C20 C 0.3814(2) 0.55755(15) 0.35168(17)
C21 C 0.4047(2) 0.53973(15) 0.24504(18)
H20 H 0.3513 0.4921 0.1893
C22 C 0.4870(2) 0.63340(16) 0.40724(18)
H21 H 0.5000 0.6621 0.4837
C23 C 0.5638(2) 0.65564(17) 0.32920(19)
H22 H 0.6411 0.7039 0.3426
C24 C -0.5951(3) 0.45053(18) -0.1548(2)
H23 H -0.5090 0.4040 -0.1357
H24 H -0.6831 0.4342 -0.2319
H25 H -0.6380 0.4533 -0.0876
C25 C 0.3287(3) 0.87527(17) 0.7699(2)
H26 H 0.4237 0.8526 0.8381
H27 H 0.2622 0.9139 0.8027
H28 H 0.3652 0.9115 0.7134
C26 C 0.4723(3) 0.4191(2) 0.5481(2)
H29 H 0.4266 0.3630 0.5019
H30 H 0.5202 0.4048 0.6363
H31 H 0.5568 0.4437 0.5197
C27 C -0.1351(2) 0.73515(16) -0.26392(16)
H32 H -0.1065 0.7175 -0.3351
H33 H -0.0809 0.7931 -0.2297
H34 H -0.2534 0.7430 -0.2900
C28 C -0.1353(3) 0.56655(17) -0.22957(19)
H35 H -0.2526 0.5688 -0.2770
H36 H -0.1127 0.5176 -0.1676
H37 H -0.0763 0.5541 -0.2854
C29 C 0.1206(2) 0.82381(15) 0.37248(18)
H38 H 0.1543 0.8394 0.4603
H39 H 0.0153 0.8527 0.3274
H40 H 0.2024 0.8462 0.3398
loop_
_geom_bond_atom_site_label_1
_geom_bond_atom_site_label_2
_geom_bond_site_symmetry_1
_geom_bond_site_symmetry_2
O1 C1 1_555 1_555
O2 H1 1_555 1_555
O3 H2 1_555 1_555
O4 C7 1_555 1_555
O5 C7 1_555 1_555
O6 C9 1_555 1_555
O7 H3 1_555 1_555
O8 C17 1_555 1_555
O9 C16 1_555 1_555
O10 C16 1_555 1_555
O11 C21 1_555 1_555
C1 H4 1_555 1_555
C2 O2 1_555 1_555
H5 C2 1_555 1_555
C3 O3 1_555 1_555
H6 C3 1_555 1_555
C4 C3 1_555 1_555
C5 C4 1_555 1_555
H7 C5 1_555 1_555
C6 C5 1_555 1_555
H8 C6 1_555 1_555
H9 C6 1_555 1_555
C7 C6 1_555 1_555
C8 C11 1_555 1_555
C9 C10 1_555 1_555
C10 C1 1_555 1_555
C11 O1 1_555 1_555
C12 O7 1_555 1_555
H10 C12 1_555 1_555
C13 C12 1_555 1_555
C14 C8 1_555 1_555
C15 C14 1_555 1_555
H11 C15 1_555 1_555
H12 C15 1_555 1_555
C16 C15 1_555 1_555
C17 C13 1_555 1_555
H13 C17 1_555 1_555
C18 C13 1_555 1_555
H14 C18 1_555 1_555
H15 C18 1_555 1_555
H16 C18 1_555 1_555
C19 C10 1_555 1_555
H17 C19 1_555 1_555
H18 C19 1_555 1_555
H19 C19 1_555 1_555
C20 C17 1_555 1_555
C21 C20 1_555 1_555
H20 C21 1_555 1_555
C22 C20 1_555 1_555
H21 C22 1_555 1_555
C23 O11 1_555 1_555
H22 C23 1_555 1_555
C24 O5 1_555 1_555
H23 C24 1_555 1_555
H24 C24 1_555 1_555
H25 C24 1_555 1_555
C25 O10 1_555 1_555
H26 C25 1_555 1_555
H27 C25 1_555 1_555
H28 C25 1_555 1_555
C26 O8 1_555 1_555
H29 C26 1_555 1_555
H30 C26 1_555 1_555
H31 C26 1_555 1_555
C27 C4 1_555 1_555
H32 C27 1_555 1_555
H33 C27 1_555 1_555
H34 C27 1_555 1_555
C28 C4 1_555 1_555
H35 C28 1_555 1_555
H36 C28 1_555 1_555
H37 C28 1_555 1_555
C29 C8 1_555 1_555
H38 C29 1_555 1_555
H39 C29 1_555 1_555
H40 C29 1_555 1_555
C1 C2 1_555 1_555
C2 C3 1_555 1_555
C5 C10 1_555 1_555
C9 C11 1_555 1_555
C11 C12 1_555 1_555
C13 C14 1_555 1_555
C22 C23 1_555 1_555

#END
