
#######################################################################
#
#                 Cambridge Crystallographic Data Centre
#                                CCDC 
#
#######################################################################
#
# If this CIF has been generated from an entry in the Cambridge 
# Structural Database, then it will include bibliographic, chemical, 
# crystal, experimental, refinement or atomic coordinate data resulting 
# from the CCDC's data processing and validation procedures.
#
#######################################################################

data_TAGJOD
_chemical_formula_moiety         'C29 H40 O10'
_chemical_name_systematic        
"dimethyl 2,2'-(4'-(3-furyl(methoxy)methyl)-5',6-dihydroxy-2',3a,4',5,5-pentamethyl-3-oxo-3a,4,5,6,7,7a-hexahydro-3H-spiro[1-benzofuran-2,1'-cyclopent[2]ene]-3',4-diyl)diacetate"
_symmetry_cell_setting           monoclinic
_symmetry_space_group_name_H-M   'P 21'
_symmetry_Int_Tables_number      4
_space_group_name_Hall           'P 2yb'
loop_
_symmetry_equiv_pos_site_id
_symmetry_equiv_pos_as_xyz
1 x,y,z
2 -x,1/2+y,-z
_cell_length_a                   8.30560(10)
_cell_length_b                   28.5217(5)
_cell_length_c                   12.1649(2)
_cell_angle_alpha                90
_cell_angle_beta                 90.9090(10)
_cell_angle_gamma                90
_cell_volume                     2881.38
_exptl_crystal_colour            colorless
_exptl_crystal_description       plate
_cell_formula_units_Z            4
loop_
_atom_site_label
_atom_site_type_symbol
_atom_site_fract_x
_atom_site_fract_y
_atom_site_fract_z
O1 O 0.7901(2) 0.23720(7) 0.89375(13)
O2 O 0.9447(3) 0.28320(9) 1.07107(16)
H1 H 0.9069 0.2814 1.0067
O3 O 0.4411(3) 0.32224(7) 1.13514(15)
O4 O 0.3010(2) 0.29031(7) 1.27210(15)
O5 O 0.3782(2) 0.21839(7) 0.92532(14)
O6 O 0.5893(2) 0.16075(7) 0.75724(16)
H2 H 0.5261 0.1508 0.7080
O7 O 0.7220(2) 0.36379(9) 0.62854(16)
O8 O 0.5783(2) 0.35932(8) 0.47396(15)
O9 O 0.3610(3) 0.16820(7) 0.59601(16)
O10 O 0.0300(3) 0.28059(11) 0.5155(2)
C1 C 0.7928(3) 0.19654(10) 0.9656(2)
H3 H 0.7991 0.1675 0.9198
C2 C 0.9404(3) 0.19932(12) 1.0400(2)
H4 H 1.0367 0.2042 0.9944
H5 H 0.9539 0.1691 1.0792
C3 C 0.9300(3) 0.23877(12) 1.1240(2)
H6 H 1.0242 0.2354 1.1757
C4 C 0.7765(3) 0.23601(10) 1.19299(19)
C5 C 0.6283(3) 0.23691(9) 1.11300(18)
H7 H 0.6372 0.2672 1.0720
C6 C 0.4651(3) 0.23941(9) 1.17147(19)
H8 H 0.3838 0.2221 1.1271
H9 H 0.4756 0.2235 1.2436
C7 C 0.4053(3) 0.28896(9) 1.18950(19)
C8 C 0.5888(3) 0.28598(9) 0.79918(19)
C9 C 0.5227(3) 0.21786(9) 0.92890(18)
C10 C 0.6284(3) 0.19794(9) 1.02261(19)
C11 C 0.6347(3) 0.23800(9) 0.83971(18)
C12 C 0.6315(3) 0.20818(9) 0.73397(19)
H10 H 0.7423 0.2083 0.7030
C13 C 0.5180(3) 0.23420(9) 0.65174(17)
C14 C 0.5217(3) 0.28370(9) 0.69850(18)
C15 C 0.4647(3) 0.32568(9) 0.63204(19)
H11 H 0.3893 0.3150 0.5734
H12 H 0.4056 0.3474 0.6805
C16 C 0.6032(3) 0.35160(9) 0.5805(2)
C17 C 0.3490(3) 0.21139(10) 0.6560(2)
H13 H 0.3287 0.2031 0.7344
C18 C 0.5837(3) 0.23295(11) 0.53445(19)
H14 H 0.5098 0.2497 0.4847
H15 H 0.5936 0.2003 0.5103
H16 H 0.6898 0.2480 0.5335
C19 C 0.5676(4) 0.14959(10) 1.0565(2)
H17 H 0.4617 0.1527 1.0900
H18 H 0.6434 0.1356 1.1097
H19 H 0.5589 0.1294 0.9915
C20 C 0.2110(3) 0.24124(11) 0.6168(2)
C21 C 0.1583(4) 0.25110(14) 0.5142(3)
H20 H 0.2048 0.2390 0.4492
C22 C 0.1068(3) 0.26640(13) 0.6874(3)
H21 H 0.1118 0.2665 0.7655
C23 C 0.0005(4) 0.28985(14) 0.6247(3)
H22 H -0.0821 0.3097 0.6511
C24 C 0.2289(5) 0.13763(14) 0.6171(3)
H23 H 0.2225 0.1319 0.6963
H24 H 0.2449 0.1078 0.5787
H25 H 0.1287 0.1522 0.5908
C25 C 0.7090(4) 0.38239(13) 0.4177(3)
H26 H 0.7297 0.4130 0.4517
H27 H 0.6792 0.3867 0.3401
H28 H 0.8062 0.3630 0.4233
C26 C 0.2270(4) 0.33574(11) 1.2900(3)
H29 H 0.3111 0.3596 1.2983
H30 H 0.1627 0.3346 1.3567
H31 H 0.1573 0.3436 1.2269
C27 C 0.7704(4) 0.27941(12) 1.2670(2)
H32 H 0.6775 0.2772 1.3153
H33 H 0.7605 0.3076 1.2214
H34 H 0.8695 0.2812 1.3117
C28 C 0.7853(4) 0.19244(12) 1.2673(2)
H35 H 0.8022 0.1645 1.2221
H36 H 0.6844 0.1892 1.3072
H37 H 0.8751 0.1958 1.3200
C29 C 0.6200(3) 0.32856(10) 0.8679(2)
H38 H 0.5675 0.3558 0.8336
H39 H 0.7363 0.3341 0.8736
H40 H 0.5767 0.3237 0.9415
O11 O 0.32516(19) 0.50304(6) 0.47666(13)
O12 O 0.4559(2) 0.44744(7) 0.30270(16)
H41 H 0.4141 0.4511 0.3645
O13 O -0.0540(2) 0.41972(7) 0.23571(16)
O14 O -0.1736(2) 0.45187(7) 0.08673(15)
O15 O -0.08094(19) 0.52910(7) 0.43433(13)
O16 O 0.1569(2) 0.58999(7) 0.59131(16)
H42 H 0.1074 0.6048 0.6399
O17 O 0.2627(2) 0.40545(8) 0.77886(17)
O18 O 0.0707(2) 0.37855(8) 0.88673(15)
O19 O -0.0846(2) 0.59518(8) 0.74410(17)
O20 O -0.4159(3) 0.49567(15) 0.8718(3)
C30 C 0.3373(3) 0.54082(9) 0.39722(19)
H43 H 0.3533 0.5711 0.4374
C31 C 0.4823(3) 0.53177(10) 0.3256(2)
H44 H 0.5768 0.5248 0.3735
H45 H 0.5065 0.5606 0.2835
C32 C 0.4570(3) 0.49127(10) 0.2455(2)
H46 H 0.5509 0.4909 0.1950
C33 C 0.3038(3) 0.49763(9) 0.17423(19)
C34 C 0.1582(3) 0.50096(9) 0.25251(18)
H47 H 0.1606 0.4713 0.2965
C35 C -0.0069(3) 0.50123(9) 0.19294(19)
H48 H -0.0832 0.5201 0.2362
H49 H 0.0044 0.5165 0.1204
C36 C -0.0758(3) 0.45290(10) 0.17638(19)
C37 C 0.1139(3) 0.46395(9) 0.58024(19)
C38 C 0.0636(3) 0.52697(8) 0.43358(18)
C39 C 0.1721(3) 0.54156(9) 0.33863(18)
C40 C 0.1713(3) 0.50839(9) 0.52817(18)
C41 C 0.1807(3) 0.54287(9) 0.62632(18)
H50 H 0.2917 0.5406 0.6591
C42 C 0.0612(3) 0.52353(9) 0.71267(18)
C43 C 0.0520(3) 0.47213(9) 0.67938(19)
C44 C -0.0087(3) 0.43440(10) 0.7554(2)
H51 H -0.0710 0.4492 0.8148
H52 H -0.0826 0.4135 0.7136
C45 C 0.1247(3) 0.40533(9) 0.80627(19)
C46 C -0.1046(3) 0.54868(10) 0.6990(2)
H53 H -0.1288 0.5518 0.6185
C47 C 0.1284(3) 0.52997(12) 0.8301(2)
H54 H 0.0516 0.5174 0.8827
H55 H 0.1456 0.5634 0.8446
H56 H 0.2311 0.5132 0.8378
C48 C 0.1219(3) 0.59032(9) 0.2974(2)
H57 H 0.0144 0.5886 0.2633
H58 H 0.1992 0.6013 0.2431
H59 H 0.1200 0.6122 0.3595
C49 C -0.2417(3) 0.52343(11) 0.7503(2)
C50 C -0.2889(4) 0.52408(19) 0.8563(3)
H60 H -0.2388 0.5423 0.9126
C51 C -0.3493(4) 0.49282(13) 0.6942(4)
H61 H -0.3498 0.4856 0.6179
C52 C -0.4504(4) 0.47600(15) 0.7697(6)
H62 H -0.5335 0.4538 0.7553
C53 C -0.2115(4) 0.62633(13) 0.7120(3)
H63 H -0.2106 0.6307 0.6321
H64 H -0.1959 0.6567 0.7485
H65 H -0.3152 0.6130 0.7334
C54 C 0.1925(4) 0.34976(12) 0.9414(3)
H66 H 0.2399 0.3283 0.8879
H67 H 0.1428 0.3316 1.0002
H68 H 0.2769 0.3700 0.9727
C55 C -0.2553(4) 0.40783(11) 0.0673(3)
H69 H -0.1757 0.3826 0.0617
H70 H -0.3183 0.4098 -0.0014
H71 H -0.3274 0.4012 0.1284
C56 C 0.2835(4) 0.45379(11) 0.1003(2)
H72 H 0.1923 0.4585 0.0493
H73 H 0.2633 0.4263 0.1462
H74 H 0.3819 0.4489 0.0584
C57 C 0.3247(3) 0.54020(11) 0.0988(2)
H75 H 0.4066 0.5333 0.0441
H76 H 0.3586 0.5673 0.1428
H77 H 0.2221 0.5472 0.0614
C58 C 0.1292(3) 0.41811(10) 0.5217(2)
H78 H 0.0725 0.3937 0.5626
H79 H 0.2432 0.4097 0.5164
H80 H 0.0817 0.4208 0.4477
loop_
_geom_bond_atom_site_label_1
_geom_bond_atom_site_label_2
_geom_bond_site_symmetry_1
_geom_bond_site_symmetry_2
O1 C1 1_555 1_555
O2 H1 1_555 1_555
O3 C7 1_555 1_555
O4 C7 1_555 1_555
O5 C9 1_555 1_555
O6 H2 1_555 1_555
O7 C16 1_555 1_555
O8 C16 1_555 1_555
O9 C17 1_555 1_555
O10 C21 1_555 1_555
C1 H3 1_555 1_555
C2 C1 1_555 1_555
H4 C2 1_555 1_555
H5 C2 1_555 1_555
C3 O2 1_555 1_555
H6 C3 1_555 1_555
C4 C3 1_555 1_555
C5 C4 1_555 1_555
H7 C5 1_555 1_555
C6 C5 1_555 1_555
H8 C6 1_555 1_555
H9 C6 1_555 1_555
C7 C6 1_555 1_555
C8 C11 1_555 1_555
C9 C10 1_555 1_555
C10 C1 1_555 1_555
C11 O1 1_555 1_555
C12 O6 1_555 1_555
H10 C12 1_555 1_555
C13 C12 1_555 1_555
C14 C8 1_555 1_555
C15 C14 1_555 1_555
H11 C15 1_555 1_555
H12 C15 1_555 1_555
C16 C15 1_555 1_555
C17 C13 1_555 1_555
H13 C17 1_555 1_555
C18 C13 1_555 1_555
H14 C18 1_555 1_555
H15 C18 1_555 1_555
H16 C18 1_555 1_555
C19 C10 1_555 1_555
H17 C19 1_555 1_555
H18 C19 1_555 1_555
H19 C19 1_555 1_555
C20 C17 1_555 1_555
C21 C20 1_555 1_555
H20 C21 1_555 1_555
C22 C20 1_555 1_555
H21 C22 1_555 1_555
C23 O10 1_555 1_555
H22 C23 1_555 1_555
C24 O9 1_555 1_555
H23 C24 1_555 1_555
H24 C24 1_555 1_555
H25 C24 1_555 1_555
C25 O8 1_555 1_555
H26 C25 1_555 1_555
H27 C25 1_555 1_555
H28 C25 1_555 1_555
C26 O4 1_555 1_555
H29 C26 1_555 1_555
H30 C26 1_555 1_555
H31 C26 1_555 1_555
C27 C4 1_555 1_555
H32 C27 1_555 1_555
H33 C27 1_555 1_555
H34 C27 1_555 1_555
C28 C4 1_555 1_555
H35 C28 1_555 1_555
H36 C28 1_555 1_555
H37 C28 1_555 1_555
C29 C8 1_555 1_555
H38 C29 1_555 1_555
H39 C29 1_555 1_555
H40 C29 1_555 1_555
O11 C30 1_555 1_555
O12 H41 1_555 1_555
O13 C36 1_555 1_555
O14 C36 1_555 1_555
O15 C38 1_555 1_555
O16 H42 1_555 1_555
O17 C45 1_555 1_555
O18 C45 1_555 1_555
O19 C46 1_555 1_555
O20 C50 1_555 1_555
C30 H43 1_555 1_555
C31 C30 1_555 1_555
H44 C31 1_555 1_555
H45 C31 1_555 1_555
C32 O12 1_555 1_555
H46 C32 1_555 1_555
C33 C32 1_555 1_555
C34 C33 1_555 1_555
H47 C34 1_555 1_555
C35 C34 1_555 1_555
H48 C35 1_555 1_555
H49 C35 1_555 1_555
C36 C35 1_555 1_555
C37 C40 1_555 1_555
C38 C39 1_555 1_555
C39 C30 1_555 1_555
C40 O11 1_555 1_555
C41 O16 1_555 1_555
H50 C41 1_555 1_555
C42 C41 1_555 1_555
C43 C37 1_555 1_555
C44 C43 1_555 1_555
H51 C44 1_555 1_555
H52 C44 1_555 1_555
C45 C44 1_555 1_555
C46 C42 1_555 1_555
H53 C46 1_555 1_555
C47 C42 1_555 1_555
H54 C47 1_555 1_555
H55 C47 1_555 1_555
H56 C47 1_555 1_555
C48 C39 1_555 1_555
H57 C48 1_555 1_555
H58 C48 1_555 1_555
H59 C48 1_555 1_555
C49 C46 1_555 1_555
C50 C49 1_555 1_555
H60 C50 1_555 1_555
C51 C49 1_555 1_555
H61 C51 1_555 1_555
C52 O20 1_555 1_555
H62 C52 1_555 1_555
C53 O19 1_555 1_555
H63 C53 1_555 1_555
H64 C53 1_555 1_555
H65 C53 1_555 1_555
C54 O18 1_555 1_555
H66 C54 1_555 1_555
H67 C54 1_555 1_555
H68 C54 1_555 1_555
C55 O14 1_555 1_555
H69 C55 1_555 1_555
H70 C55 1_555 1_555
H71 C55 1_555 1_555
C56 C33 1_555 1_555
H72 C56 1_555 1_555
H73 C56 1_555 1_555
H74 C56 1_555 1_555
C57 C33 1_555 1_555
H75 C57 1_555 1_555
H76 C57 1_555 1_555
H77 C57 1_555 1_555
C58 C37 1_555 1_555
H78 C58 1_555 1_555
H79 C58 1_555 1_555
H80 C58 1_555 1_555
C2 C3 1_555 1_555
C5 C10 1_555 1_555
C9 C11 1_555 1_555
C11 C12 1_555 1_555
C13 C14 1_555 1_555
C22 C23 1_555 1_555
C31 C32 1_555 1_555
C34 C39 1_555 1_555
C38 C40 1_555 1_555
C40 C41 1_555 1_555
C42 C43 1_555 1_555
C51 C52 1_555 1_555

#END
