
#######################################################################
#
#                 Cambridge Crystallographic Data Centre
#                                CCDC 
#
#######################################################################
#
# If this CIF has been generated from an entry in the Cambridge 
# Structural Database, then it will include bibliographic, chemical, 
# crystal, experimental, refinement or atomic coordinate data resulting 
# from the CCDC's data processing and validation procedures.
#
#######################################################################

data_TAGLEV
_chemical_formula_moiety         'C26 H54 N2 Si5'
_chemical_name_systematic        
2,2,5,5-tetrakis(Trimethylsilyl)dispiro[silolane-1,2'-[1,3]diaza[2]silabicyclo[1.1.0]butane-4',2''-tricyclo[3.3.1.1^3,7^]decane]
_symmetry_cell_setting           monoclinic
_symmetry_space_group_name_H-M   'P 21/c'
_symmetry_Int_Tables_number      14
_space_group_name_Hall           '-P 2ybc'
loop_
_symmetry_equiv_pos_site_id
_symmetry_equiv_pos_as_xyz
1 x,y,z
2 -x,1/2+y,1/2-z
3 -x,-y,-z
4 x,1/2-y,1/2+z
_cell_length_a                   16.070(3)
_cell_length_b                   11.641(2)
_cell_length_c                   17.243(3)
_cell_angle_alpha                90
_cell_angle_beta                 92.474(4)
_cell_angle_gamma                90
_cell_volume                     3222.66
_exptl_crystal_colour            'light yellow'
_exptl_crystal_description       block
_cell_formula_units_Z            4
loop_
_atom_site_label
_atom_site_type_symbol
_atom_site_fract_x
_atom_site_fract_y
_atom_site_fract_z
Si1 Si 0.75553(7) 0.50580(11) 0.62436(7)
Si2 Si 0.60122(12) 0.5942(2) 0.71927(16)
Si3 Si 0.68817(15) 0.76763(16) 0.61294(15)
Si4 Si 0.80983(10) 0.42836(17) 0.46156(9)
Si5 Si 0.69525(10) 0.26706(14) 0.55607(10)
N1 N 0.8637(2) 0.5232(3) 0.6408(2)
N2 N 0.8129(2) 0.4235(3) 0.6929(2)
C1 C 0.7247(3) 0.4226(4) 0.5356(2)
C2 C 0.6656(3) 0.6102(4) 0.6288(3)
C3 C 0.8521(6) 0.5769(8) 0.4525(6)
H1 H 0.8533 0.6138 0.5023
H2 H 0.8171 0.6199 0.4165
H3 H 0.9075 0.5732 0.4340
C4 C 0.7686(5) 0.3808(12) 0.3643(4)
H4 H 0.8142 0.3650 0.3318
H5 H 0.7345 0.4405 0.3413
H6 H 0.7359 0.3126 0.3698
C5 C 0.9029(4) 0.3441(7) 0.4889(4)
H7 H 0.8904 0.2637 0.4837
H8 H 0.9199 0.3606 0.5418
H9 H 0.9470 0.3638 0.4556
C6 C 0.6475(3) 0.4904(5) 0.5032(3)
H10 H 0.6653 0.5481 0.4669
H11 H 0.6100 0.4381 0.4752
C7 C 0.6010(6) 0.5488(12) 0.5678(6)
H12 H 0.5686 0.4921 0.5947
H13 H 0.5629 0.6056 0.5455
C8 C 0.6209(6) 0.4522(9) 0.7712(6)
H14 H 0.5926 0.4519 0.8191
H15 H 0.6796 0.4427 0.7819
H16 H 0.6004 0.3903 0.7389
C9 C 0.6358(6) 0.7028(10) 0.8036(5)
H17 H 0.6522 0.7745 0.7813
H18 H 0.6818 0.6709 0.8336
H19 H 0.5900 0.7155 0.8365
C10 C 0.4895(4) 0.6199(11) 0.7038(5)
H20 H 0.4648 0.5574 0.6747
H21 H 0.4809 0.6902 0.6755
H22 H 0.4642 0.6255 0.7531
C11 C 0.5883(7) 0.8564(10) 0.6320(8)
H23 H 0.5748 0.8486 0.6855
H24 H 0.5428 0.8285 0.5994
H25 H 0.5981 0.9359 0.6207
C12 C 0.6870(8) 0.7892(10) 0.4998(6)
H26 H 0.6855 0.8698 0.4880
H27 H 0.6387 0.7525 0.4763
H28 H 0.7363 0.7558 0.4797
C13 C 0.7771(8) 0.8309(10) 0.6577(9)
H29 H 0.7762 0.8200 0.7128
H30 H 0.7775 0.9116 0.6462
H31 H 0.8261 0.7956 0.6384
C14 C 0.5807(5) 0.2630(9) 0.5849(7)
H32 H 0.5777 0.2819 0.6389
H33 H 0.5585 0.1873 0.5760
H34 H 0.5489 0.3176 0.5543
C15 C 0.7592(7) 0.1895(9) 0.6245(7)
H35 H 0.8166 0.1990 0.6126
H36 H 0.7449 0.1095 0.6221
H37 H 0.7507 0.2181 0.6758
C16 C 0.6863(8) 0.1881(10) 0.4579(6)
H38 H 0.7401 0.1844 0.4359
H39 H 0.6485 0.2288 0.4232
H40 H 0.6659 0.1116 0.4656
C17 C 0.8732(3) 0.5068(4) 0.7245(2)
C18 C 0.8483(3) 0.5976(4) 0.7807(3)
H41 H 0.7955 0.6331 0.7629
C19 C 0.9169(3) 0.6880(4) 0.7875(3)
H42 H 0.9239 0.7232 0.7372
H43 H 0.9010 0.7477 0.8233
C20 C 0.9989(3) 0.6340(5) 0.8164(3)
H44 H 1.0422 0.6931 0.8205
C21 C 1.0227(3) 0.5438(5) 0.7578(3)
H45 H 1.0294 0.5795 0.7076
H46 H 1.0752 0.5086 0.7743
C22 C 0.9554(3) 0.4533(5) 0.7512(3)
H47 H 0.9711 0.3951 0.7134
C23 C 0.9457(4) 0.3966(5) 0.8293(3)
H48 H 0.9033 0.3374 0.8250
H49 H 0.9978 0.3608 0.8466
C24 C 0.9213(4) 0.4862(5) 0.8874(3)
H50 H 0.9147 0.4496 0.9380
C25 C 0.8392(3) 0.5407(6) 0.8603(3)
H51 H 0.8230 0.5978 0.8977
H52 H 0.7961 0.4824 0.8566
C26 C 0.9890(4) 0.5785(5) 0.8954(3)
H53 H 0.9734 0.6361 0.9327
H54 H 1.0412 0.5442 0.9135
H55? H 0.6553 0.5079 0.4490
H56? H 0.5989 0.4413 0.5055
C27? C 0.6311(18) 0.5950(17) 0.5431(12)
H57? H 0.5712 0.6048 0.5429
H58? H 0.6530 0.6574 0.5128
C28? C 0.6260(17) 0.541(2) 0.8081(11)
H59? H 0.5943 0.4723 0.8163
H60? H 0.6134 0.5968 0.8468
H61? H 0.6843 0.5231 0.8119
C29? C 0.531(2) 0.729(2) 0.707(2)
H62? H 0.4811 0.7180 0.7346
H63? H 0.5170 0.7408 0.6529
H64? H 0.5604 0.7949 0.7275
C30? C 0.5180(12) 0.4793(18) 0.6630(12)
H65? H 0.5406 0.4030 0.6659
H66? H 0.5096 0.5013 0.6096
H67? H 0.4657 0.4810 0.6879
C31? C 0.6245(14) 0.8719(19) 0.5662(14)
H68? H 0.5678 0.8604 0.5796
H69? H 0.6287 0.8651 0.5110
H70? H 0.6425 0.9471 0.5825
C32? C 0.8072(9) 0.7881(16) 0.5828(11)
H71? H 0.8121 0.7663 0.5295
H72? H 0.8430 0.7406 0.6152
H73? H 0.8231 0.8671 0.5893
C33? C 0.7145(13) 0.8305(17) 0.7245(9)
H74? H 0.7689 0.8647 0.7269
H75? H 0.7128 0.7686 0.7611
H76? H 0.6738 0.8873 0.7368
C34? C 0.6151(11) 0.2013(18) 0.4937(11)
H77? H 0.6256 0.2177 0.4404
H78? H 0.5617 0.2316 0.5059
H79? H 0.6155 0.1196 0.5017
C35? C 0.6668(13) 0.2447(17) 0.6653(8)
H80? H 0.6389 0.3119 0.6833
H81? H 0.7168 0.2322 0.6966
H82? H 0.6308 0.1793 0.6690
C36? C 0.7948(9) 0.1656(16) 0.5565(13)
H83? H 0.7789 0.0885 0.5689
H84? H 0.8355 0.1925 0.5947
H85? H 0.8182 0.1669 0.5062
loop_
_geom_bond_atom_site_label_1
_geom_bond_atom_site_label_2
_geom_bond_site_symmetry_1
_geom_bond_site_symmetry_2
Si1 N1 1_555 1_555
Si2 C2 1_555 1_555
Si3 C2 1_555 1_555
Si4 C1 1_555 1_555
Si5 C1 1_555 1_555
N1 N2 1_555 1_555
N2 Si1 1_555 1_555
C1 Si1 1_555 1_555
C2 Si1 1_555 1_555
C3 Si4 1_555 1_555
H1 C3 1_555 1_555
H2 C3 1_555 1_555
H3 C3 1_555 1_555
C4 Si4 1_555 1_555
H4 C4 1_555 1_555
H5 C4 1_555 1_555
H6 C4 1_555 1_555
C5 Si4 1_555 1_555
H7 C5 1_555 1_555
H8 C5 1_555 1_555
H9 C5 1_555 1_555
C6 C1 1_555 1_555
H10 C6 1_555 1_555
H11 C6 1_555 1_555
C7 C2 1_555 1_555
H12 C7 1_555 1_555
H13 C7 1_555 1_555
C8 Si2 1_555 1_555
H14 C8 1_555 1_555
H15 C8 1_555 1_555
H16 C8 1_555 1_555
C9 Si2 1_555 1_555
H17 C9 1_555 1_555
H18 C9 1_555 1_555
H19 C9 1_555 1_555
C10 Si2 1_555 1_555
H20 C10 1_555 1_555
H21 C10 1_555 1_555
H22 C10 1_555 1_555
C11 Si3 1_555 1_555
H23 C11 1_555 1_555
H24 C11 1_555 1_555
H25 C11 1_555 1_555
C12 Si3 1_555 1_555
H26 C12 1_555 1_555
H27 C12 1_555 1_555
H28 C12 1_555 1_555
C13 Si3 1_555 1_555
H29 C13 1_555 1_555
H30 C13 1_555 1_555
H31 C13 1_555 1_555
C14 Si5 1_555 1_555
H32 C14 1_555 1_555
H33 C14 1_555 1_555
H34 C14 1_555 1_555
C15 Si5 1_555 1_555
H35 C15 1_555 1_555
H36 C15 1_555 1_555
H37 C15 1_555 1_555
C16 Si5 1_555 1_555
H38 C16 1_555 1_555
H39 C16 1_555 1_555
H40 C16 1_555 1_555
C17 N1 1_555 1_555
C18 C17 1_555 1_555
H41 C18 1_555 1_555
C19 C18 1_555 1_555
H42 C19 1_555 1_555
H43 C19 1_555 1_555
C20 C19 1_555 1_555
H44 C20 1_555 1_555
C21 C20 1_555 1_555
H45 C21 1_555 1_555
H46 C21 1_555 1_555
C22 C17 1_555 1_555
H47 C22 1_555 1_555
C23 C22 1_555 1_555
H48 C23 1_555 1_555
H49 C23 1_555 1_555
C24 C23 1_555 1_555
H50 C24 1_555 1_555
C25 C18 1_555 1_555
H51 C25 1_555 1_555
H52 C25 1_555 1_555
C26 C20 1_555 1_555
H53 C26 1_555 1_555
H54 C26 1_555 1_555
N2 C17 1_555 1_555
C6 C7 1_555 1_555
C21 C22 1_555 1_555
C24 C25 1_555 1_555
C24 C26 1_555 1_555

#END
