
#######################################################################
#
#                 Cambridge Crystallographic Data Centre
#                                CCDC 
#
#######################################################################
#
# If this CIF has been generated from an entry in the Cambridge 
# Structural Database, then it will include bibliographic, chemical, 
# crystal, experimental, refinement or atomic coordinate data resulting 
# from the CCDC's data processing and validation procedures.
#
#######################################################################

data_TAGSAV
_chemical_compound_source        'Heartwood of Juniperus formosana'
_chemical_name_common            'Junipediol monohydrate'
_chemical_formula_moiety         'C15 H26 O2,H2 O1'
_chemical_name_systematic        
'5,9-Dihydroxy-4,8,11,11-tetramethyltricyclo-(6.3.0.0^2,4^)undecane monohydrate'
_symmetry_cell_setting           monoclinic
_symmetry_space_group_name_H-M   'P 21/c'
_symmetry_Int_Tables_number      14
_space_group_name_Hall           '-P 2ybc'
loop_
_symmetry_equiv_pos_site_id
_symmetry_equiv_pos_as_xyz
1 x,y,z
2 -x,1/2+y,1/2-z
3 -x,-y,-z
4 x,1/2-y,1/2+z
_cell_length_a                   15.343(2)
_cell_length_b                   6.308(1)
_cell_length_c                   16.726(2)
_cell_angle_alpha                90
_cell_angle_beta                 109.88(1)
_cell_angle_gamma                90
_cell_volume                     1522.33
_chemical_melting_point          170-171deg.C
_cell_formula_units_Z            4
loop_
_atom_site_label
_atom_site_type_symbol
_atom_site_fract_x
_atom_site_fract_y
_atom_site_fract_z
C1 C 0.7060(5) 0.2413(12) 0.4023(4)
C2 C 0.6736(5) 0.0861(12) 0.3280(4)
C3 C 0.7363(5) 0.0287(12) 0.2798(4)
C4 C 0.8321(4) 0.1280(12) 0.3115(4)
C5 C 0.8934(5) 0.0198(13) 0.3929(4)
C6 C 0.8436(5) -0.0218(13) 0.4572(4)
C7 C 0.7914(5) 0.1671(12) 0.4777(4)
C8 C 0.7473(5) 0.0991(13) 0.5445(4)
C9 C 0.6720(5) 0.2608(15) 0.5364(4)
C10 C 0.6274(5) 0.2990(13) 0.4409(5)
C11 C 0.6535(5) 0.1620(13) 0.2390(4)
C12 C 0.7321(6) -0.2044(14) 0.2472(5)
O1 O 0.8796(3) 0.1046(8) 0.2503(3)
C13 C 0.8587(5) 0.3555(14) 0.5126(5)
O2 O 0.8092(4) 0.0945(9) 0.6301(3)
C14 C 0.5387(5) 0.1640(14) 0.4057(5)
C15 C 0.6006(6) 0.5346(15) 0.4229(5)
O3 O 0.9298(3) -0.2255(9) 0.6834(4)
loop_
_geom_bond_atom_site_label_1
_geom_bond_atom_site_label_2
_geom_bond_site_symmetry_1
_geom_bond_site_symmetry_2
C1 C2 1_555 1_555
C2 C3 1_555 1_555
C3 C4 1_555 1_555
C4 C5 1_555 1_555
C5 C6 1_555 1_555
C6 C7 1_555 1_555
C7 C1 1_555 1_555
C8 C7 1_555 1_555
C9 C8 1_555 1_555
C10 C1 1_555 1_555
C11 C2 1_555 1_555
C12 C3 1_555 1_555
O1 C4 1_555 1_555
C13 C7 1_555 1_555
O2 C8 1_555 1_555
C14 C10 1_555 1_555
C15 C10 1_555 1_555
C3 C11 1_555 1_555
C9 C10 1_555 1_555

#END
