
#######################################################################
#
#                 Cambridge Crystallographic Data Centre
#                                CCDC 
#
#######################################################################
#
# If this CIF has been generated from an entry in the Cambridge 
# Structural Database, then it will include bibliographic, chemical, 
# crystal, experimental, refinement or atomic coordinate data resulting 
# from the CCDC's data processing and validation procedures.
#
#######################################################################

data_TAGYAE
_chemical_formula_moiety         'C14 H16 Cl1 N5 O3'
_chemical_name_systematic        
3-((6-chloropyridin-3-yl)methyl)-7-methyl-9-nitro-2,3,4,5-tetrahydro-1H-pyrrolo[1,2-a][1,3,5]triazepin-8(7H)-one
_symmetry_cell_setting           monoclinic
_symmetry_space_group_name_H-M   'P 21/n'
_symmetry_Int_Tables_number      14
_space_group_name_Hall           '-P 2yn'
loop_
_symmetry_equiv_pos_site_id
_symmetry_equiv_pos_as_xyz
1 x,y,z
2 1/2-x,1/2+y,1/2-z
3 -x,-y,-z
4 1/2+x,1/2-y,1/2+z
_cell_length_a                   9.3404(11)
_cell_length_b                   16.727(2)
_cell_length_c                   9.7723(12)
_cell_angle_alpha                90
_cell_angle_beta                 94.313(3)
_cell_angle_gamma                90
_cell_volume                     1522.47
_exptl_crystal_colour            colorless
_exptl_crystal_description       prismatic
_cell_formula_units_Z            4
loop_
_atom_site_label
_atom_site_type_symbol
_atom_site_fract_x
_atom_site_fract_y
_atom_site_fract_z
Cl1 Cl 0.67278(11) 0.15736(8) -0.21605(12)
N1 N -0.2727(3) 0.31180(13) 0.1576(2)
N2 N 0.1056(2) 0.06620(14) 0.1378(2)
N3 N -0.1576(2) 0.12018(13) 0.2943(2)
N4 N -0.0572(2) 0.18269(14) 0.1105(2)
N5 N 0.5207(3) 0.20294(18) -0.0165(3)
O1 O -0.4413(2) 0.24303(14) 0.3855(2)
O2 O -0.3719(2) 0.35660(12) 0.1836(2)
O3 O -0.1929(2) 0.32732(12) 0.0659(2)
C1 C -0.2657(3) 0.13802(18) 0.3920(3)
H1 H -0.2166 0.1470 0.4828
C2 C -0.3323(3) 0.21559(18) 0.3408(3)
C3 C -0.2495(3) 0.24216(15) 0.2342(3)
C4 C -0.1481(3) 0.18255(15) 0.2068(2)
C5 C 0.0048(3) 0.11060(15) 0.0517(3)
H2 H -0.0736 0.0751 0.0219
H3 H 0.0513 0.1264 -0.0295
C6 C 0.0375(4) 0.0240(2) 0.2454(4)
H4 H 0.1091 -0.0096 0.2939
H5 H -0.0353 -0.0111 0.2022
C7 C -0.0312(4) 0.0742(2) 0.3487(3)
H6 H -0.0599 0.0398 0.4216
H7 H 0.0398 0.1113 0.3888
C8 C -0.3735(4) 0.0722(2) 0.4026(4)
H8 H -0.4225 0.0630 0.3141
H9 H -0.4418 0.0874 0.4665
H10 H -0.3251 0.0243 0.4340
C9 C 0.2335(3) 0.1108(2) 0.1849(3)
H11 H 0.2840 0.0821 0.2601
H12 H 0.2050 0.1624 0.2195
C10 C 0.3338(3) 0.12376(18) 0.0730(3)
C11 C 0.4189(3) 0.1904(2) 0.0730(3)
H13 H 0.4061 0.2296 0.1386
C12 C 0.5340(3) 0.1454(2) -0.1078(3)
C13 C 0.4514(3) 0.07962(19) -0.1211(4)
H14 H 0.4625 0.0426 -0.1905
C14 C 0.3512(3) 0.06951(19) -0.0291(4)
H15 H 0.2927 0.0245 -0.0357
H16 H -0.057(3) 0.2227(17) 0.065(3)
loop_
_geom_bond_atom_site_label_1
_geom_bond_atom_site_label_2
_geom_bond_site_symmetry_1
_geom_bond_site_symmetry_2
Cl1 C12 1_555 1_555
N1 O2 1_555 1_555
N2 C5 1_555 1_555
N3 C1 1_555 1_555
N4 C4 1_555 1_555
N5 C11 1_555 1_555
O1 C2 1_555 1_555
O3 N1 1_555 1_555
C1 H1 1_555 1_555
C2 C1 1_555 1_555
C3 N1 1_555 1_555
C4 N3 1_555 1_555
C5 N4 1_555 1_555
H2 C5 1_555 1_555
H3 C5 1_555 1_555
C6 N2 1_555 1_555
H4 C6 1_555 1_555
H5 C6 1_555 1_555
C7 N3 1_555 1_555
H6 C7 1_555 1_555
H7 C7 1_555 1_555
C8 C1 1_555 1_555
H8 C8 1_555 1_555
H9 C8 1_555 1_555
H10 C8 1_555 1_555
C9 N2 1_555 1_555
H11 C9 1_555 1_555
H12 C9 1_555 1_555
C10 C9 1_555 1_555
C11 C10 1_555 1_555
H13 C11 1_555 1_555
C12 N5 1_555 1_555
C13 C12 1_555 1_555
H14 C13 1_555 1_555
C14 C10 1_555 1_555
H15 C14 1_555 1_555
H16 N4 1_555 1_555
C2 C3 1_555 1_555
C3 C4 1_555 1_555
C6 C7 1_555 1_555
C13 C14 1_555 1_555

#END
