
#######################################################################
#
#                 Cambridge Crystallographic Data Centre
#                                CCDC 
#
#######################################################################
#
# If this CIF has been generated from an entry in the Cambridge 
# Structural Database, then it will include bibliographic, chemical, 
# crystal, experimental, refinement or atomic coordinate data resulting 
# from the CCDC's data processing and validation procedures.
#
#######################################################################

data_TAGZAD
_chemical_formula_moiety         'C15 H10 N4'
_chemical_name_systematic        
1,2,2-Tricyano-2-(2'-(4-dimethylaminophenyl)ethynyl)ethene
_symmetry_cell_setting           triclinic
_symmetry_space_group_name_H-M   'P -1'
_symmetry_Int_Tables_number      2
_space_group_name_Hall           '-P 1'
loop_
_symmetry_equiv_pos_site_id
_symmetry_equiv_pos_as_xyz
1 x,y,z
2 -x,-y,-z
_cell_length_a                   7.014(1)
_cell_length_b                   7.085(1)
_cell_length_c                   14.149(2)
_cell_angle_alpha                77.79(2)
_cell_angle_beta                 89.21(1)
_cell_angle_gamma                77.40(2)
_cell_volume                     670.282
_exptl_crystal_colour            black
_cell_formula_units_Z            2
_exptl_crystal_recrystallization_method hexane/dichloromethane
loop_
_atom_site_label
_atom_site_type_symbol
_atom_site_fract_x
_atom_site_fract_y
_atom_site_fract_z
C1 C 0.4159(2) 0.2533(2) -0.07767(10)
C2 C 0.2214(3) 0.2811(3) -0.10724(11)
H1 H 0.1225 0.3023 -0.0627
C3 C 0.1715(3) 0.2781(3) -0.19984(12)
H2 H 0.0389 0.2986 -0.2180
C4 C 0.3161(3) 0.2448(2) -0.26880(10)
C5 C 0.5125(3) 0.2174(3) -0.23812(12)
H3 H 0.6122 0.1962 -0.2823
C6 C 0.5610(3) 0.2210(2) -0.14514(12)
H4 H 0.6931 0.2016 -0.1264
N1 N 0.2667(3) 0.2356(2) -0.35977(10)
C7 C 0.0648(4) 0.2685(4) -0.39125(16)
H5 H 0.0586 0.2567 -0.4581
H6 H -0.0036 0.4001 -0.3857
H7 H 0.0039 0.1708 -0.3511
C8 C 0.4148(5) 0.2254(4) -0.43342(14)
H8 H 0.3550 0.2202 -0.4940
H9 H 0.5173 0.1076 -0.4126
H10 H 0.4703 0.3418 -0.4425
C9 C 0.4650(3) 0.2590(2) 0.01784(11)
C10 C 0.5046(3) 0.2646(2) 0.09996(11)
C11 C 0.5438(3) 0.2693(2) 0.19568(11)
C12 C 0.3827(3) 0.2997(3) 0.25918(12)
N2 N 0.2544(3) 0.3204(3) 0.30835(14)
C13 C 0.7278(3) 0.2456(2) 0.23338(11)
C14 C 0.7574(3) 0.2535(3) 0.33228(12)
N3 N 0.7836(3) 0.2588(3) 0.41084(11)
C15 C 0.8924(3) 0.2069(3) 0.17396(13)
N4 N 1.0240(3) 0.1745(4) 0.12828(16)
loop_
_geom_bond_atom_site_label_1
_geom_bond_atom_site_label_2
_geom_bond_site_symmetry_1
_geom_bond_site_symmetry_2
C1 C2 1_555 1_555
C2 H1 1_555 1_555
C3 C2 1_555 1_555
H2 C3 1_555 1_555
C4 C3 1_555 1_555
C5 C4 1_555 1_555
H3 C5 1_555 1_555
C6 C1 1_555 1_555
H4 C6 1_555 1_555
N1 C4 1_555 1_555
C7 N1 1_555 1_555
H5 C7 1_555 1_555
H6 C7 1_555 1_555
H7 C7 1_555 1_555
C8 N1 1_555 1_555
H8 C8 1_555 1_555
H9 C8 1_555 1_555
H10 C8 1_555 1_555
C9 C1 1_555 1_555
C10 C9 1_555 1_555
C11 C10 1_555 1_555
C12 C11 1_555 1_555
N2 C12 1_555 1_555
C13 C11 1_555 1_555
C14 C13 1_555 1_555
N3 C14 1_555 1_555
C15 C13 1_555 1_555
N4 C15 1_555 1_555
C5 C6 1_555 1_555

#END
