
#######################################################################
#
#                 Cambridge Crystallographic Data Centre
#                                CCDC 
#
#######################################################################
#
# If this CIF has been generated from an entry in the Cambridge 
# Structural Database, then it will include bibliographic, chemical, 
# crystal, experimental, refinement or atomic coordinate data resulting 
# from the CCDC's data processing and validation procedures.
#
#######################################################################

data_TAGZUZ
_chemical_formula_moiety         'C19 H12 O2'
_chemical_name_systematic        naphtho[2,1-b]furan-2-yl(phenyl)methanone
_symmetry_cell_setting           monoclinic
_symmetry_space_group_name_H-M   'C 2/c'
_symmetry_Int_Tables_number      15
_space_group_name_Hall           '-C 2yn'
loop_
_symmetry_equiv_pos_site_id
_symmetry_equiv_pos_as_xyz
1 x,y,z
2 -x,y,1/2-z
3 1/2+x,1/2+y,z
4 1/2-x,1/2+y,1/2-z
5 -x,-y,-z
6 x,-y,1/2+z
7 1/2-x,1/2-y,-z
8 1/2+x,1/2-y,1/2+z
_cell_length_a                   19.218(3)
_cell_length_b                   6.3397(11)
_cell_length_c                   21.980(4)
_cell_angle_alpha                90
_cell_angle_beta                 92.285(2)
_cell_angle_gamma                90
_cell_volume                     2675.83
_exptl_crystal_colour            colorless
_exptl_crystal_description       block
_cell_formula_units_Z            8
loop_
_atom_site_label
_atom_site_type_symbol
_atom_site_fract_x
_atom_site_fract_y
_atom_site_fract_z
C1 C 0.04484(6) 0.53707(19) -0.07210(5)
C2 C -0.00820(6) 0.6785(2) -0.09131(6)
H1 H -0.0124 0.8078 -0.0718
C3 C -0.05363(7) 0.6265(3) -0.13855(7)
H2 H -0.0884 0.7209 -0.1510
C4 C -0.04817(7) 0.4335(3) -0.16812(7)
H3 H -0.0792 0.4003 -0.2003
C5 C 0.00218(7) 0.2926(2) -0.15036(6)
H4 H 0.0050 0.1638 -0.1704
C6 C 0.05022(6) 0.33984(19) -0.10194(5)
C7 C 0.10380(6) 0.1943(2) -0.08335(5)
H5 H 0.1060 0.0648 -0.1031
C8 C 0.15167(6) 0.23816(19) -0.03795(6)
H6 H 0.1866 0.1430 -0.0266
C9 C 0.14570(6) 0.43324(18) -0.00921(5)
C10 C 0.09488(6) 0.58148(18) -0.02394(5)
C11 C 0.10790(6) 0.75314(19) 0.01648(5)
H7 H 0.0825 0.8777 0.0181
C12 C 0.16425(6) 0.70106(18) 0.05217(5)
C13 C 0.20118(7) 0.8210(2) 0.10046(6)
C14 C 0.25450(6) 0.71797(19) 0.14178(5)
C15 C 0.24701(7) 0.5142(2) 0.16363(6)
H8 H 0.2104 0.4303 0.1489
C16 C 0.29399(7) 0.4359(2) 0.20719(6)
H9 H 0.2877 0.3017 0.2232
C17 C 0.35016(8) 0.5565(3) 0.22699(6)
H10 H 0.3818 0.5032 0.2562
C18 C 0.35961(7) 0.7557(3) 0.20363(6)
H11 H 0.3986 0.8343 0.2159
C19 C 0.31139(7) 0.8384(2) 0.16219(6)
H12 H 0.3168 0.9751 0.1478
O1 O 0.18884(4) 0.50329(13) 0.03727(4)
O2 O 0.18701(7) 1.00762(16) 0.10614(6)
loop_
_geom_bond_atom_site_label_1
_geom_bond_atom_site_label_2
_geom_bond_site_symmetry_1
_geom_bond_site_symmetry_2
C1 C2 1_555 1_555
C2 H1 1_555 1_555
C3 C2 1_555 1_555
H2 C3 1_555 1_555
C4 C3 1_555 1_555
H3 C4 1_555 1_555
C5 C4 1_555 1_555
H4 C5 1_555 1_555
C6 C1 1_555 1_555
C7 C6 1_555 1_555
H5 C7 1_555 1_555
C8 C7 1_555 1_555
H6 C8 1_555 1_555
C9 C8 1_555 1_555
C10 C1 1_555 1_555
C11 C10 1_555 1_555
H7 C11 1_555 1_555
C12 C11 1_555 1_555
C13 C12 1_555 1_555
C14 C13 1_555 1_555
C15 C14 1_555 1_555
H8 C15 1_555 1_555
C16 C15 1_555 1_555
H9 C16 1_555 1_555
C17 C16 1_555 1_555
H10 C17 1_555 1_555
C18 C17 1_555 1_555
H11 C18 1_555 1_555
C19 C14 1_555 1_555
H12 C19 1_555 1_555
O1 C9 1_555 1_555
O2 C13 1_555 1_555
C5 C6 1_555 1_555
C9 C10 1_555 1_555
C12 O1 1_555 1_555
C18 C19 1_555 1_555

#END
