
#######################################################################
#
#                 Cambridge Crystallographic Data Centre
#                                CCDC 
#
#######################################################################
#
# If this CIF has been generated from an entry in the Cambridge 
# Structural Database, then it will include bibliographic, chemical, 
# crystal, experimental, refinement or atomic coordinate data resulting 
# from the CCDC's data processing and validation procedures.
#
#######################################################################

data_TAHFUG
_chemical_formula_moiety         'C18 H24 O3'
_chemical_name_systematic        
3,7,10a-trimethyl-3,4,4a,6a,6b,9a,10a,10b-octahydro-2H-benzo[4,5]indeno[1,2-c]furan-9,10(1H,7H)-dione
_symmetry_cell_setting           orthorhombic
_symmetry_space_group_name_H-M   'P 21 21 21'
_symmetry_Int_Tables_number      19
_space_group_name_Hall           'P 2ac 2ab'
loop_
_symmetry_equiv_pos_site_id
_symmetry_equiv_pos_as_xyz
1 x,y,z
2 1/2-x,-y,1/2+z
3 -x,1/2+y,1/2-z
4 1/2+x,1/2-y,-z
_cell_length_a                   7.8269(15)
_cell_length_b                   8.7254(17)
_cell_length_c                   23.407(5)
_cell_angle_alpha                90
_cell_angle_beta                 90
_cell_angle_gamma                90
_cell_volume                     1598.53
_exptl_crystal_colour            colorless
_exptl_crystal_description       block
_cell_formula_units_Z            4
loop_
_atom_site_label
_atom_site_type_symbol
_atom_site_fract_x
_atom_site_fract_y
_atom_site_fract_z
C1 C 0.6581(3) 0.7028(3) 0.14798(10)
C2 C 0.6396(3) 0.8401(3) 0.10642(10)
H1 H 0.6441 0.9330 0.1299
O1 O 0.3796(2) 0.6544(2) 0.18982(8)
C3 C 0.5802(3) 0.8105(3) 0.24176(10)
H2 H 0.5134 0.9052 0.2449
O2 O 0.4586(4) 0.6581(3) 0.31829(9)
O3 O 0.7334(3) 0.7218(3) 0.32038(8)
C4 C 0.4739(4) 0.8476(3) 0.07308(11)
H3 H 0.3783 0.8454 0.0994
H4 H 0.4653 0.7588 0.0484
C5 C 0.7921(4) 0.8481(3) 0.06569(11)
H5 H 0.7820 0.7623 0.0389
C6 C 0.8198(3) 0.7285(3) 0.18411(11)
H6 H 0.8483 0.6315 0.2029
C7 C 0.5190(3) 0.7135(3) 0.19218(10)
C8 C 0.7675(3) 0.8451(3) 0.23094(11)
H7 H 0.7818 0.9504 0.2171
C9 C 0.7818(5) 0.9963(4) 0.03105(14)
H8 H 0.7915 1.0830 0.0568
H9 H 0.8774 1.0003 0.0047
C10 C 0.4650(4) 0.9924(4) 0.03727(12)
H10 H 0.4593 1.0805 0.0624
H11 H 0.3611 0.9906 0.0147
C11 C 0.8490(4) 0.8259(4) 0.29026(13)
H12 H 0.8472 0.9254 0.3097
C12 C 0.5776(5) 0.7220(4) 0.29732(11)
C13 C 0.6542(4) 0.5476(3) 0.11745(12)
H13 H 0.5482 0.5370 0.0972
H14 H 0.6643 0.4668 0.1451
H15 H 0.7476 0.5418 0.0910
C14 C 0.6172(5) 1.0100(3) -0.00235(12)
H16 H 0.6138 0.9255 -0.0299
C15 C 0.9564(4) 0.8297(4) 0.09693(14)
H17 H 1.0562 0.8576 0.0780
C16 C 0.9708(4) 0.7769(4) 0.14923(14)
H18 H 1.0791 0.7692 0.1653
C17 C 0.6074(6) 1.1596(4) -0.03595(16)
H19 H 0.6085 1.2446 -0.0099
H20 H 0.5039 1.1616 -0.0579
H21 H 0.7038 1.1668 -0.0612
C18 C 1.0272(5) 0.7627(5) 0.29327(15)
H22 H 1.0646 0.7610 0.3323
H23 H 1.1026 0.8263 0.2712
H24 H 1.0284 0.6604 0.2782
loop_
_geom_bond_atom_site_label_1
_geom_bond_atom_site_label_2
_geom_bond_site_symmetry_1
_geom_bond_site_symmetry_2
C1 C2 1_555 1_555
C2 H1 1_555 1_555
O1 C7 1_555 1_555
C3 H2 1_555 1_555
O2 C12 1_555 1_555
O3 C11 1_555 1_555
C4 C2 1_555 1_555
H3 C4 1_555 1_555
H4 C4 1_555 1_555
C5 C2 1_555 1_555
H5 C5 1_555 1_555
C6 C1 1_555 1_555
H6 C6 1_555 1_555
C7 C1 1_555 1_555
C8 C3 1_555 1_555
H7 C8 1_555 1_555
C9 C5 1_555 1_555
H8 C9 1_555 1_555
H9 C9 1_555 1_555
C10 C4 1_555 1_555
H10 C10 1_555 1_555
H11 C10 1_555 1_555
C11 C8 1_555 1_555
H12 C11 1_555 1_555
C12 C3 1_555 1_555
C13 C1 1_555 1_555
H13 C13 1_555 1_555
H14 C13 1_555 1_555
H15 C13 1_555 1_555
C14 C9 1_555 1_555
H16 C14 1_555 1_555
C15 C5 1_555 1_555
H17 C15 1_555 1_555
C16 C6 1_555 1_555
H18 C16 1_555 1_555
C17 C14 1_555 1_555
H19 C17 1_555 1_555
H20 C17 1_555 1_555
H21 C17 1_555 1_555
C18 C11 1_555 1_555
H22 C18 1_555 1_555
H23 C18 1_555 1_555
H24 C18 1_555 1_555
C3 C7 1_555 1_555
O3 C12 1_555 1_555
C6 C8 1_555 1_555
C10 C14 1_555 1_555
C15 C16 1_555 1_555

#END
