
#######################################################################
#
#                 Cambridge Crystallographic Data Centre
#                                CCDC 
#
#######################################################################
#
# If this CIF has been generated from an entry in the Cambridge 
# Structural Database, then it will include bibliographic, chemical, 
# crystal, experimental, refinement or atomic coordinate data resulting 
# from the CCDC's data processing and validation procedures.
#
#######################################################################

data_TAHHOZ
_chemical_formula_moiety         'C22 H18 Cl2 O1'
_chemical_name_systematic        
1,1-Dichloro-cis-2-(4-benzyloxyphenyl)-3-phenylcyclopropane
_chemical_properties_biological  'analogue of antiestrogenic drug'
_symmetry_cell_setting           monoclinic
_symmetry_space_group_name_H-M   'P 21/a'
_symmetry_Int_Tables_number      14
_space_group_name_Hall           '-P 2yab'
loop_
_symmetry_equiv_pos_site_id
_symmetry_equiv_pos_as_xyz
1 x,y,z
2 1/2-x,1/2+y,-z
3 -x,-y,-z
4 1/2+x,1/2-y,z
_cell_length_a                   21.064(3)
_cell_length_b                   14.749(2)
_cell_length_c                   5.8222(8)
_cell_angle_alpha                90
_cell_angle_beta                 95.48(2)
_cell_angle_gamma                90
_cell_volume                     1800.53
_cell_formula_units_Z            4
loop_
_atom_site_label
_atom_site_type_symbol
_atom_site_fract_x
_atom_site_fract_y
_atom_site_fract_z
Cl1 Cl 0.12544(2) -0.00738(3) 0.99398(6)
Cl2 Cl 0.10241(2) 0.06684(3) 0.53448(7)
O1 O -0.03056(5) -0.38377(8) 1.1424(2)
C1 C 0.11581(8) -0.0333(1) 0.6987(3)
C2 C 0.08284(8) -0.1177(1) 0.6107(3)
C3 C 0.15552(7) -0.1063(1) 0.6020(3)
C4 C 0.05393(7) -0.1854(1) 0.7603(3)
C5 C 0.01363(7) -0.1596(1) 0.9237(3)
C6 C -0.01433(8) -0.2230(1) 1.0597(3)
C7 C -0.00338(7) -0.3152(1) 1.0287(3)
C8 C 0.03723(7) -0.3422(1) 0.8639(3)
C9 C 0.06506(8) -0.2782(1) 0.7336(3)
C10 C 0.20610(7) -0.1604(1) 0.7368(3)
C11 C 0.2000(8) -0.2019(1) 0.9487(3)
C12 C 0.24890(8) -0.2561(1) 1.0509(3)
C13 C 0.30413(8) -0.2690(1) 0.9463(4)
C14 C 0.31152(8) -0.2260(1) 0.7392(3)
C15 C 0.26295(8) -0.1720(1) 0.6371(3)
C16 C -0.07207(8) -0.3588(1) 1.3146(3)
C17 C -0.11304(7) -0.4390(1) 1.3599(3)
C18 C -0.16176(8) -0.4641(1) 1.1925(3)
C19 C -0.20271(8) -0.5338(1) 1.2335(3)
C20 C -0.19652(9) -0.5788(1) 1.4435(3)
C21 C -0.1481(1) -0.5552(1) 1.6096(3)
C22 C -0.10635(9) -0.4857(1) 1.5680(3)
H1 H 0.0639(9) -0.110(1) 0.456(4)
H2 H 0.1673(8) -0.090(1) 0.450(3)
H3 H 0.0051(9) -0.094(1) 0.949(3)
H4 H -0.0382(8) -0.203(1) 1.176(3)
H5 H 0.0437(8) -0.406(1) 0.844(3)
H6 H 0.0924(9) -0.297(1) 0.623(3)
H7 H 0.162(1) -0.196(1) 1.023(4)
H8 H 0.2433(9) -0.288(1) 1.203(4)
H9 H 0.337(1) -0.306(1) 1.020(3)
H10 H 0.3519(9) -0.234(1) 0.671(3)
H11 H 0.2682(9) -0.147(1) 0.503(3)
H12 H -0.1014(9) -0.306(1) 1.262(3)
H13 H -0.0463(9) -0.339(1) 1.460(3)
H14 H -0.1673(9) -0.431(1) 1.047(3)
H15 H -0.237(1) -0.551(1) 1.114(3)
H16 H -0.225(1) -0.626(2) 1.474(4)
H17 H -0.144(1) -0.586(2) 1.747(4)
H18 H -0.072(1) -0.468(1) 1.689(4)
loop_
_geom_bond_atom_site_label_1
_geom_bond_atom_site_label_2
_geom_bond_site_symmetry_1
_geom_bond_site_symmetry_2
Cl1 C1 1_555 1_555
Cl2 C1 1_555 1_555
O1 C7 1_555 1_555
C1 C2 1_555 1_555
C2 C3 1_555 1_555
C3 C1 1_555 1_555
C4 C2 1_555 1_555
C5 C4 1_555 1_555
C6 C5 1_555 1_555
C7 C6 1_555 1_555
C8 C7 1_555 1_555
C9 C4 1_555 1_555
C10 C3 1_555 1_555
C11 C10 1_555 1_555
C12 C11 1_555 1_555
C13 C12 1_555 1_555
C14 C13 1_555 1_555
C15 C10 1_555 1_555
C16 O1 1_555 1_555
C17 C16 1_555 1_555
C18 C17 1_555 1_555
C19 C18 1_555 1_555
C20 C19 1_555 1_555
C21 C20 1_555 1_555
C22 C17 1_555 1_555
H1 C2 1_555 1_555
H2 C3 1_555 1_555
H3 C5 1_555 1_555
H4 C6 1_555 1_555
H5 C8 1_555 1_555
H6 C9 1_555 1_555
H7 C11 1_555 1_555
H8 C12 1_555 1_555
H9 C13 1_555 1_555
H10 C14 1_555 1_555
H11 C15 1_555 1_555
H12 C16 1_555 1_555
H13 C16 1_555 1_555
H14 C18 1_555 1_555
H15 C19 1_555 1_555
H16 C20 1_555 1_555
H17 C21 1_555 1_555
H18 C22 1_555 1_555
C8 C9 1_555 1_555
C14 C15 1_555 1_555
C21 C22 1_555 1_555

#END
