
#######################################################################
#
#                 Cambridge Crystallographic Data Centre
#                                CCDC 
#
#######################################################################
#
# If this CIF has been generated from an entry in the Cambridge 
# Structural Database, then it will include bibliographic, chemical, 
# crystal, experimental, refinement or atomic coordinate data resulting 
# from the CCDC's data processing and validation procedures.
#
#######################################################################

data_TAHHUF
_chemical_formula_moiety         'C17 H14 Cl2 O2'
_chemical_name_systematic        
1,1-Dichloro-trans-2-(4-acetoxyphenyl)-3-phenylcyclopropane
_chemical_properties_biological  'analogue of antiestrogenic drug'
_symmetry_cell_setting           monoclinic
_symmetry_space_group_name_H-M   'P 21/n'
_symmetry_Int_Tables_number      14
_space_group_name_Hall           '-P 2yn'
loop_
_symmetry_equiv_pos_site_id
_symmetry_equiv_pos_as_xyz
1 x,y,z
2 1/2-x,1/2+y,1/2-z
3 -x,-y,-z
4 1/2+x,1/2-y,1/2+z
_cell_length_a                   16.555(4)
_cell_length_b                   12.297(2)
_cell_length_c                   7.439(1)
_cell_angle_alpha                90
_cell_angle_beta                 98.31(2)
_cell_angle_gamma                90
_cell_volume                     1498.51
_cell_formula_units_Z            4
loop_
_atom_site_label
_atom_site_type_symbol
_atom_site_fract_x
_atom_site_fract_y
_atom_site_fract_z
Cl1 Cl 0.27873(3) 0.45469(4) 0.34654(7)
Cl2 Cl 0.10173(3) 0.44987(7) 0.28476(7)
O1 O -0.06423(7) 0.1843(1) -0.4038(2)
O2 O 0.02173(8) 0.1132(1) -0.5799(2)
C1 C 0.1919(1) 0.3730(1) 0.2899(3)
C2 C 0.1955(1) 0.2831(1) 0.1558(3)
C3 C 0.1912(1) 0.2567(1) 0.3539(2)
C4 C 0.1260(1) 0.2580(2) 0.0102(3)
C5 C 0.1075(1) 0.3284(2) -0.1368(3)
C6 C 0.0449(1) 0.3047(2) -0.2765(3)
C7 C 0.0021(1) 0.2089(2) -0.2692(3)
C8 C 0.0187(1) 0.1381(2) -0.1255(3)
C9 C 0.0806(1) 0.1635(1) 0.0157(3)
C10 C 0.2583(1) 0.2064(2) 0.4831(3)
C11 C 0.3388(1) 0.1999(2) 0.4490(3)
C12 C 0.3986(1) 0.1551(2) 0.5768(3)
C13 C 0.3794(1) 0.1159(2) 0.7393(3)
C14 C 0.2994(1) 0.1198(2) 0.7734(3)
C15 C 0.2393(1) 0.1650(1) 0.6454(3)
C16 C -0.0464(1) 0.1298(1) -0.5536(3)
C17 C -0.1234(1) 0.0948(2) -0.6698(3)
H1 H 0.247(1) 0.276(2) 0.117(3)
H2 H 0.139(1) 0.236(2) 0.373(3)
H3 H 0.136(1) 0.393(2) -0.135(3)
H4 H 0.032(1) 0.350(2) -0.381(3)
H5 H -0.011(1) 0.073(2) -0.122(3)
H6 H 0.090(1) 0.119(2) 0.117(3)
H7 H 0.355(1) 0.230(2) 0.331(4)
H8 H 0.451(1) 0.150(2) 0.551(3)
H9 H 0.419(1) 0.083(2) 0.817(3)
H10 H 0.285(1) 0.096(2) 0.887(3)
H11 H 0.184(1) 0.166(2) 0.668(3)
H12 H -0.162(2) 0.154(2) -0.689(4)
H13 H -0.111(2) 0.062(3) -0.767(5)
H14 H -0.154(2) 0.048(3) -0.594(5)
loop_
_geom_bond_atom_site_label_1
_geom_bond_atom_site_label_2
_geom_bond_site_symmetry_1
_geom_bond_site_symmetry_2
Cl1 C1 1_555 1_555
Cl2 C1 1_555 1_555
O1 C7 1_555 1_555
O2 C16 1_555 1_555
C1 C2 1_555 1_555
C2 C3 1_555 1_555
C3 C1 1_555 1_555
C4 C2 1_555 1_555
C5 C4 1_555 1_555
C6 C5 1_555 1_555
C7 C6 1_555 1_555
C8 C7 1_555 1_555
C9 C4 1_555 1_555
C10 C3 1_555 1_555
C11 C10 1_555 1_555
C12 C11 1_555 1_555
C13 C12 1_555 1_555
C14 C13 1_555 1_555
C15 C10 1_555 1_555
C16 O1 1_555 1_555
C17 C16 1_555 1_555
H1 C2 1_555 1_555
H2 C3 1_555 1_555
H3 C5 1_555 1_555
H4 C6 1_555 1_555
H5 C8 1_555 1_555
H6 C9 1_555 1_555
H7 C11 1_555 1_555
H8 C12 1_555 1_555
H9 C13 1_555 1_555
H10 C14 1_555 1_555
H11 C15 1_555 1_555
H12 C17 1_555 1_555
H13 C17 1_555 1_555
H14 C17 1_555 1_555
C8 C9 1_555 1_555
C14 C15 1_555 1_555

#END
