
#######################################################################
#
#                 Cambridge Crystallographic Data Centre
#                                CCDC 
#
#######################################################################
#
# If this CIF has been generated from an entry in the Cambridge 
# Structural Database, then it will include bibliographic, chemical, 
# crystal, experimental, refinement or atomic coordinate data resulting 
# from the CCDC's data processing and validation procedures.
#
#######################################################################

data_TAHTOO
_chemical_formula_moiety         'C26 H26,C26 H10 F12 N2 S1'
_chemical_name_systematic        
"3,3'-thiene-2,5-diylbis(2-(3,5-bis(trifluoromethyl)phenyl)acrylonitrile) 1-(2-(4-(2-(3,5-dimethylphenyl)vinyl)phenyl)vinyl)-3,5-dimethylbenzene unknown solvate"
_symmetry_cell_setting           triclinic
_symmetry_space_group_name_H-M   'P -1'
_symmetry_Int_Tables_number      2
_space_group_name_Hall           '-P 1'
loop_
_symmetry_equiv_pos_site_id
_symmetry_equiv_pos_as_xyz
1 x,y,z
2 -x,-y,-z
_cell_length_a                   10.9520(3)
_cell_length_b                   14.4295(4)
_cell_length_c                   15.9432(4)
_cell_angle_alpha                89.667(2)
_cell_angle_beta                 77.845(2)
_cell_angle_gamma                70.3940(10)
_cell_volume                     2314.49
_exptl_crystal_colour            red
_exptl_crystal_description       block
_cell_formula_units_Z            2
_chemical_properties_physical    'Light-sensitive, Photo-sensitive'
_exptl_crystal_recrystallization_method 
chloroform/1,2-dichloroethane/1,2-dichloromethane/THF/MeOH
_exptl_crystal_preparation       Luminescent
loop_
_atom_site_label
_atom_site_type_symbol
_atom_site_fract_x
_atom_site_fract_y
_atom_site_fract_z
S1 S 0.07492(9) 0.48901(7) 0.23930(6)
N1 N -0.2306(5) 0.3370(3) 0.4739(2)
N2 N 0.2434(5) 0.5872(3) 0.0929(3)
F1 F -0.3650(3) 0.0468(2) 0.3780(2)
F2 F -0.4356(6) 0.0330(4) 0.2695(3)
F3 F -0.5260(3) 0.1612(3) 0.3573(3)
F4 F -0.0176(4) 0.1327(3) 0.0114(2)
F5 F -0.2033(5) 0.2224(3) -0.0064(2)
F6 F -0.1663(4) 0.0731(3) 0.0066(2)
F7 F 0.5620(4) 0.9114(3) 0.11131(19)
F8 F 0.4298(3) 0.8799(3) 0.04381(19)
F9 F 0.6024(3) 0.7667(3) 0.0584(2)
F10 F 0.4008(4) 0.9520(2) 0.41768(18)
F11 F 0.2360(3) 0.9077(2) 0.47154(17)
F12 F 0.4310(3) 0.8074(2) 0.46385(18)
C1 C -0.1563(4) 0.2350(3) 0.1735(2)
H1 H -0.0999 0.2663 0.1412
C2 C -0.1956(4) 0.1694(3) 0.1317(3)
C3 C -0.2785(4) 0.1242(3) 0.1763(3)
H2 H -0.3057 0.0799 0.1471
C4 C -0.3221(4) 0.1440(3) 0.2645(3)
C5 C -0.2823(4) 0.2081(3) 0.3074(3)
H3 H -0.3121 0.2201 0.3680
C6 C -0.1985(3) 0.2554(2) 0.2621(2)
C7 C -0.1562(3) 0.3237(3) 0.3081(2)
C8 C -0.1981(4) 0.3320(3) 0.4005(3)
C9 C -0.0815(4) 0.3761(3) 0.2692(2)
H4 H -0.0561 0.3664 0.2083
C10 C -0.0347(3) 0.4449(3) 0.3068(2)
C11 C -0.0639(4) 0.4863(3) 0.3897(3)
H5 H -0.1226 0.4717 0.4365
C12 C 0.0026(4) 0.5519(3) 0.3969(3)
H6 H -0.0063 0.5862 0.4498
C13 C 0.0823(3) 0.5629(3) 0.3212(2)
C14 C 0.1569(4) 0.6284(3) 0.3150(3)
H7 H 0.1558 0.6574 0.3686
C15 C 0.2285(3) 0.6559(3) 0.2459(2)
C16 C 0.2370(4) 0.6164(3) 0.1606(3)
C17 C 0.2979(3) 0.7272(3) 0.2511(2)
C18 C 0.3664(4) 0.7540(3) 0.1764(3)
H8 H 0.3694 0.7260 0.1219
C19 C 0.4309(4) 0.8221(3) 0.1817(2)
C20 C 0.4279(4) 0.8639(3) 0.2596(3)
H9 H 0.4713 0.9105 0.2625
C21 C 0.3600(4) 0.8367(3) 0.3345(2)
C22 C 0.2968(3) 0.7683(3) 0.3301(2)
H10 H 0.2525 0.7494 0.3816
C23 C -0.1463(5) 0.1507(4) 0.0368(3)
C24 C -0.4131(5) 0.0965(3) 0.3154(3)
C25 C 0.5052(5) 0.8458(4) 0.0997(3)
C26 C 0.3576(4) 0.8765(3) 0.4209(3)
C27 C 0.5122(4) 0.4939(3) 0.3302(3)
H11 H 0.5204 0.5247 0.3802
C28 C 0.4421(4) 0.4294(3) 0.3390(3)
C29 C 0.4298(4) 0.3853(3) 0.2653(3)
H12 H 0.3811 0.3412 0.2713
C30 C 0.4863(4) 0.4035(3) 0.1834(3)
C31 C 0.5562(4) 0.4687(3) 0.1768(3)
H13 H 0.5951 0.4823 0.1212
C32 C 0.5718(4) 0.5149(3) 0.2483(3)
C33 C 0.6468(4) 0.5831(3) 0.2352(3)
H14 H 0.6833 0.5913 0.1772
C34 C 0.6692(4) 0.6346(3) 0.2951(3)
H15 H 0.6326 0.6268 0.3532
C35 C 0.7445(4) 0.7022(3) 0.2811(3)
C36 C 0.8114(5) 0.7164(4) 0.1999(3)
H16 H 0.8085 0.6812 0.1506
C37 C 0.8817(5) 0.7807(4) 0.1901(3)
H17 H 0.9255 0.7891 0.1340
C38 C 0.8900(4) 0.8331(3) 0.2593(3)
C39 C 0.8246(5) 0.8193(3) 0.3402(3)
H18 H 0.8283 0.8546 0.3892
C40 C 0.7535(5) 0.7545(4) 0.3508(3)
H19 H 0.7103 0.7460 0.4070
C41 C 0.9665(4) 0.9007(3) 0.2440(3)
H20 H 1.0085 0.9036 0.1860
C42 C 0.9833(4) 0.9577(3) 0.3020(3)
H21 H 0.9426 0.9541 0.3601
C43 C 1.0582(4) 1.0262(3) 0.2863(3)
C44 C 1.1212(4) 1.0422(3) 0.2056(3)
H22 H 1.1184 1.0066 0.1565
C45 C 1.1890(4) 1.1096(3) 0.1947(3)
C46 C 1.1930(4) 1.1604(3) 0.2679(3)
H23 H 1.2393 1.2061 0.2617
C47 C 1.1313(4) 1.1457(3) 0.3490(3)
C48 C 1.0635(4) 1.0786(3) 0.3568(3)
H24 H 1.0197 1.0686 0.4124
C49 C 0.3802(5) 0.4082(4) 0.4276(4)
H25 H 0.2912 0.4067 0.4282
H26 H 0.3735 0.4599 0.4697
H27 H 0.4356 0.3441 0.4425
C50 C 0.4703(6) 0.3557(4) 0.1059(4)
H28 H 0.4536 0.2944 0.1209
H29 H 0.5516 0.3408 0.0608
H30 H 0.3951 0.4003 0.0850
C51 C 1.2560(6) 1.1272(5) 0.1063(4)
H31 H 1.2167 1.1965 0.0950
H32 H 1.2437 1.0850 0.0632
H33 H 1.3512 1.1114 0.1033
C52 C 1.1406(6) 1.2011(5) 0.4264(4)
H34 H 1.0659 1.2051 0.4743
H35 H 1.1376 1.2678 0.4118
H36 H 1.2244 1.1662 0.4433
Cl1? Cl 1.0787(5) 0.3613(3) 0.0368(2)
C53? C 0.9378(10) 0.4597(10) 0.0311(7)
loop_
_geom_bond_atom_site_label_1
_geom_bond_atom_site_label_2
_geom_bond_site_symmetry_1
_geom_bond_site_symmetry_2
S1 C10 1_555 1_555
N1 C8 1_555 1_555
N2 C16 1_555 1_555
F1 C24 1_555 1_555
F2 C24 1_555 1_555
F3 C24 1_555 1_555
F4 C23 1_555 1_555
F5 C23 1_555 1_555
F6 C23 1_555 1_555
F7 C25 1_555 1_555
F8 C25 1_555 1_555
F9 C25 1_555 1_555
F10 C26 1_555 1_555
F11 C26 1_555 1_555
F12 C26 1_555 1_555
C1 H1 1_555 1_555
C2 C1 1_555 1_555
C3 C2 1_555 1_555
H2 C3 1_555 1_555
C4 C3 1_555 1_555
C5 C4 1_555 1_555
H3 C5 1_555 1_555
C6 C1 1_555 1_555
C7 C6 1_555 1_555
C8 C7 1_555 1_555
C9 C7 1_555 1_555
H4 C9 1_555 1_555
C10 C9 1_555 1_555
C11 C10 1_555 1_555
H5 C11 1_555 1_555
C12 C11 1_555 1_555
H6 C12 1_555 1_555
C13 S1 1_555 1_555
C14 C13 1_555 1_555
H7 C14 1_555 1_555
C15 C14 1_555 1_555
C16 C15 1_555 1_555
C17 C15 1_555 1_555
C18 C17 1_555 1_555
H8 C18 1_555 1_555
C19 C18 1_555 1_555
C20 C19 1_555 1_555
H9 C20 1_555 1_555
C21 C20 1_555 1_555
C22 C17 1_555 1_555
H10 C22 1_555 1_555
C23 C2 1_555 1_555
C24 C4 1_555 1_555
C25 C19 1_555 1_555
C26 C21 1_555 1_555
C27 H11 1_555 1_555
C28 C27 1_555 1_555
C29 C28 1_555 1_555
H12 C29 1_555 1_555
C30 C29 1_555 1_555
C31 C30 1_555 1_555
H13 C31 1_555 1_555
C32 C27 1_555 1_555
C33 C32 1_555 1_555
H14 C33 1_555 1_555
C34 C33 1_555 1_555
H15 C34 1_555 1_555
C35 C34 1_555 1_555
C36 C35 1_555 1_555
H16 C36 1_555 1_555
C37 C36 1_555 1_555
H17 C37 1_555 1_555
C38 C37 1_555 1_555
C39 C38 1_555 1_555
H18 C39 1_555 1_555
C40 C35 1_555 1_555
H19 C40 1_555 1_555
C41 C38 1_555 1_555
H20 C41 1_555 1_555
C42 C41 1_555 1_555
H21 C42 1_555 1_555
C43 C42 1_555 1_555
C44 C43 1_555 1_555
H22 C44 1_555 1_555
C45 C44 1_555 1_555
C46 C45 1_555 1_555
H23 C46 1_555 1_555
C47 C46 1_555 1_555
C48 C43 1_555 1_555
H24 C48 1_555 1_555
C49 C28 1_555 1_555
H25 C49 1_555 1_555
H26 C49 1_555 1_555
H27 C49 1_555 1_555
C50 C30 1_555 1_555
H28 C50 1_555 1_555
H29 C50 1_555 1_555
H30 C50 1_555 1_555
C51 C45 1_555 1_555
H31 C51 1_555 1_555
H32 C51 1_555 1_555
H33 C51 1_555 1_555
C52 C47 1_555 1_555
H34 C52 1_555 1_555
H35 C52 1_555 1_555
H36 C52 1_555 1_555
C5 C6 1_555 1_555
C12 C13 1_555 1_555
C21 C22 1_555 1_555
C31 C32 1_555 1_555
C39 C40 1_555 1_555
C47 C48 1_555 1_555

#END
