
#######################################################################
#
#                 Cambridge Crystallographic Data Centre
#                                CCDC 
#
#######################################################################
#
# If this CIF has been generated from an entry in the Cambridge 
# Structural Database, then it will include bibliographic, chemical, 
# crystal, experimental, refinement or atomic coordinate data resulting 
# from the CCDC's data processing and validation procedures.
#
#######################################################################

data_TAHVAC
_chemical_formula_moiety         'C19 H25 N1 O1 Si1'
_chemical_name_systematic        
2-(dimethyl(phenyl)silyl)-N,N-dimethyl-3-phenylpropanamide
_symmetry_cell_setting           triclinic
_symmetry_space_group_name_H-M   'P -1'
_symmetry_Int_Tables_number      2
_space_group_name_Hall           '-P 1'
loop_
_symmetry_equiv_pos_site_id
_symmetry_equiv_pos_as_xyz
1 x,y,z
2 -x,-y,-z
_cell_length_a                   6.4413(3)
_cell_length_b                   11.5947(5)
_cell_length_c                   12.9527(6)
_cell_angle_alpha                107.898(2)
_cell_angle_beta                 94.844(2)
_cell_angle_gamma                101.7928(19)
_cell_volume                     889.796
_exptl_crystal_colour            white
_exptl_crystal_description       platy
_cell_formula_units_Z            2
loop_
_atom_site_label
_atom_site_type_symbol
_atom_site_fract_x
_atom_site_fract_y
_atom_site_fract_z
Si1 Si 0.76641(4) 0.90059(2) 0.298559(19)
O1 O 0.25213(12) 0.73587(7) 0.17013(7)
N1 N 0.44769(15) 0.59178(7) 0.14947(8)
C1 C 0.80047(13) 0.79206(8) 0.37746(7)
C2 C 0.98834(15) 0.75014(9) 0.38497(9)
H1 H 1.1033 0.7779 0.3502
C3 C 1.00975(17) 0.66845(11) 0.44259(10)
H2 H 1.1388 0.6413 0.4469
C4 C 0.84327(18) 0.62647(10) 0.49384(9)
H3 H 0.8586 0.5713 0.5335
C5 C 0.65424(17) 0.66577(10) 0.48658(9)
H4 H 0.5390 0.6366 0.5205
C6 C 0.63380(15) 0.74811(9) 0.42945(8)
H5 H 0.5045 0.7750 0.4256
C7 C 0.61929(14) 0.80528(7) 0.15307(7)
H6 H 0.7193 0.7622 0.1097
C8 C 0.54878(16) 0.89501(8) 0.09790(7)
H7 H 0.4329 0.9273 0.1338
H8 H 0.6718 0.9671 0.1099
C9 C 0.46972(15) 0.83436(8) -0.02408(7)
C10 C 0.61467(16) 0.82481(9) -0.09872(8)
H9 H 0.7642 0.8561 -0.0722
C11 C 0.54386(18) 0.77015(10) -0.21137(8)
H10 H 0.6447 0.7646 -0.2610
C12 C 0.32578(19) 0.72387(10) -0.25096(9)
H11 H 0.2768 0.6862 -0.3277
C13 C 0.17993(18) 0.73289(11) -0.17797(9)
H12 H 0.0305 0.7020 -0.2049
C14 C 0.25094(16) 0.78713(10) -0.06506(9)
H13 H 0.1495 0.7919 -0.0157
C15 C 1.03078(16) 0.99199(10) 0.28582(10)
H14 H 1.1103 1.0421 0.3592
H15 H 1.0078 1.0473 0.2443
H16 H 1.1134 0.9346 0.2472
C16 C 0.60588(16) 1.00765(9) 0.37076(8)
H17 H 0.6817 1.0563 0.4452
H18 H 0.4654 0.9586 0.3748
H19 H 0.5859 1.0645 0.3303
C17 C 0.42624(15) 0.70820(8) 0.15718(7)
C18 C 0.6437(2) 0.54846(9) 0.14234(10)
H20 H 0.7592 0.6135 0.1348
H21 H 0.6203 0.4727 0.0783
H22 H 0.6838 0.5299 0.2091
C19 C 0.2624(2) 0.50311(11) 0.16105(14)
H23 H 0.1377 0.5397 0.1650
H24 H 0.2941 0.4839 0.2284
H25 H 0.2310 0.4262 0.0976
loop_
_geom_bond_atom_site_label_1
_geom_bond_atom_site_label_2
_geom_bond_site_symmetry_1
_geom_bond_site_symmetry_2
Si1 C1 1_555 1_555
O1 C17 1_555 1_555
N1 C17 1_555 1_555
C1 C2 1_555 1_555
C2 H1 1_555 1_555
C3 C2 1_555 1_555
H2 C3 1_555 1_555
C4 C3 1_555 1_555
H3 C4 1_555 1_555
C5 C4 1_555 1_555
H4 C5 1_555 1_555
C6 C1 1_555 1_555
H5 C6 1_555 1_555
C7 Si1 1_555 1_555
H6 C7 1_555 1_555
C8 C7 1_555 1_555
H7 C8 1_555 1_555
H8 C8 1_555 1_555
C9 C8 1_555 1_555
C10 C9 1_555 1_555
H9 C10 1_555 1_555
C11 C10 1_555 1_555
H10 C11 1_555 1_555
C12 C11 1_555 1_555
H11 C12 1_555 1_555
C13 C12 1_555 1_555
H12 C13 1_555 1_555
C14 C9 1_555 1_555
H13 C14 1_555 1_555
C15 Si1 1_555 1_555
H14 C15 1_555 1_555
H15 C15 1_555 1_555
H16 C15 1_555 1_555
C16 Si1 1_555 1_555
H17 C16 1_555 1_555
H18 C16 1_555 1_555
H19 C16 1_555 1_555
C17 C7 1_555 1_555
C18 N1 1_555 1_555
H20 C18 1_555 1_555
H21 C18 1_555 1_555
H22 C18 1_555 1_555
C19 N1 1_555 1_555
H23 C19 1_555 1_555
H24 C19 1_555 1_555
H25 C19 1_555 1_555
C5 C6 1_555 1_555
C13 C14 1_555 1_555

#END
