
#######################################################################
#
#                 Cambridge Crystallographic Data Centre
#                                CCDC 
#
#######################################################################
#
# If this CIF has been generated from an entry in the Cambridge 
# Structural Database, then it will include bibliographic, chemical, 
# crystal, experimental, refinement or atomic coordinate data resulting 
# from the CCDC's data processing and validation procedures.
#
#######################################################################

data_TAHWAD
_chemical_formula_moiety         'C30 H24 Br1 N1 O3'
_chemical_name_systematic        
4-(4-bromophenyl)-1-(2-furyl)-6-methyl-2,8-diphenyl-1,2,4,5-tetrahydrofuro[3,4-d][1,2]oxazepine
_symmetry_cell_setting           orthorhombic
_symmetry_space_group_name_H-M   'P 21 21 21'
_symmetry_Int_Tables_number      19
_space_group_name_Hall           'P 2ac 2ab'
loop_
_symmetry_equiv_pos_site_id
_symmetry_equiv_pos_as_xyz
1 x,y,z
2 1/2-x,-y,1/2+z
3 -x,1/2+y,1/2-z
4 1/2+x,1/2-y,-z
_cell_length_a                   11.6858(3)
_cell_length_b                   13.1886(3)
_cell_length_c                   16.5539(4)
_cell_angle_alpha                90
_cell_angle_beta                 90
_cell_angle_gamma                90
_cell_volume                     2551.28
_exptl_crystal_colour            colorless
_exptl_crystal_description       block
_cell_formula_units_Z            4
loop_
_atom_site_label
_atom_site_type_symbol
_atom_site_fract_x
_atom_site_fract_y
_atom_site_fract_z
Br1 Br 0.80938(4) 0.17690(3) 0.89507(3)
O1 O 1.28527(16) -0.48654(15) 0.83420(13)
O2 O 0.91025(15) -0.33029(13) 0.91336(10)
O3 O 1.0403(2) -0.4138(2) 1.04886(14)
N1 N 0.90615(17) -0.43075(15) 0.87863(13)
C1 C 0.7587(2) -0.5535(2) 0.8488(2)
H1 H 0.8117 -0.5871 0.8166
C2 C 0.6491(3) -0.5902(2) 0.8545(2)
H2 H 0.6290 -0.6484 0.8262
C3 C 0.5701(2) -0.5429(2) 0.9007(2)
H3 H 0.4957 -0.5675 0.9039
C4 C 0.6022(3) -0.4585(3) 0.9424(3)
H4 H 0.5490 -0.4254 0.9748
C5 C 0.7117(3) -0.4213(3) 0.9373(2)
H5 H 0.7318 -0.3636 0.9664
C6 C 0.7911(2) -0.46813(18) 0.88997(16)
C7 C 0.8573(2) -0.1298(2) 0.93257(18)
H6 H 0.8314 -0.1780 0.9692
C8 C 0.8203(3) -0.0308(2) 0.93929(19)
H7 H 0.7698 -0.0121 0.9801
C9 C 0.8592(2) 0.0397(2) 0.8849(2)
C10 C 0.9319(3) 0.0141(2) 0.82430(19)
H8 H 0.9570 0.0626 0.7875
C11 C 0.9677(3) -0.0850(2) 0.81830(17)
H9 H 1.0172 -0.1030 0.7767
C12 C 0.9325(2) -0.15831(19) 0.87209(15)
C13 C 1.2540(3) -0.6909(3) 0.7904(2)
H10 H 1.2913 -0.6495 0.7534
C14 C 1.2570(3) -0.7945(3) 0.7807(3)
H11 H 1.2977 -0.8226 0.7378
C15 C 1.2012(3) -0.8557(3) 0.8331(3)
H12 H 1.2016 -0.9255 0.8252
C16 C 1.1442(3) -0.8153(3) 0.8977(3)
H13 H 1.1070 -0.8577 0.9342
C17 C 1.1418(3) -0.7109(2) 0.9089(2)
H14 H 1.1036 -0.6837 0.9531
C18 C 1.1958(2) -0.6475(2) 0.85487(17)
C19 C 1.0243(4) -0.4295(4) 1.1296(2)
H15 H 1.0511 -0.3870 1.1703
C20 C 0.9653(4) -0.5134(4) 1.1419(3)
H16 H 0.9434 -0.5405 1.1914
C21 C 0.9419(3) -0.5540(3) 1.0643(2)
H17 H 0.9017 -0.6133 1.0532
C22 C 0.9880(2) -0.4917(2) 1.01020(18)
C23 C 0.9787(2) -0.2642(2) 0.86407(17)
H18 H 0.9733 -0.2858 0.8075
C24 C 1.1031(2) -0.2704(2) 0.8916(2)
H19 H 1.1465 -0.2177 0.8646
H20 H 1.1064 -0.2571 0.9492
C25 C 1.1585(2) -0.3704(2) 0.87512(17)
C26 C 1.1109(2) -0.4692(2) 0.88825(18)
C27 C 0.9943(2) -0.4943(2) 0.92038(16)
H21 H 0.9790 -0.5646 0.9045
C28 C 1.1907(2) -0.5372(2) 0.86288(16)
C29 C 1.2634(2) -0.3847(2) 0.8427(2)
C30 C 1.3570(3) -0.3155(3) 0.8165(2)
H22 H 1.3338 -0.2464 0.8245
H23 H 1.3730 -0.3265 0.7603
H24 H 1.4246 -0.3290 0.8477
loop_
_geom_bond_atom_site_label_1
_geom_bond_atom_site_label_2
_geom_bond_site_symmetry_1
_geom_bond_site_symmetry_2
Br1 C9 1_555 1_555
O1 C28 1_555 1_555
O2 N1 1_555 1_555
O3 C19 1_555 1_555
N1 C6 1_555 1_555
C1 H1 1_555 1_555
C2 C1 1_555 1_555
H2 C2 1_555 1_555
C3 C2 1_555 1_555
H3 C3 1_555 1_555
C4 C3 1_555 1_555
H4 C4 1_555 1_555
C5 C4 1_555 1_555
H5 C5 1_555 1_555
C6 C1 1_555 1_555
C7 H6 1_555 1_555
C8 C7 1_555 1_555
H7 C8 1_555 1_555
C9 C8 1_555 1_555
C10 C9 1_555 1_555
H8 C10 1_555 1_555
C11 C10 1_555 1_555
H9 C11 1_555 1_555
C12 C7 1_555 1_555
C13 H10 1_555 1_555
C14 C13 1_555 1_555
H11 C14 1_555 1_555
C15 C14 1_555 1_555
H12 C15 1_555 1_555
C16 C15 1_555 1_555
H13 C16 1_555 1_555
C17 C16 1_555 1_555
H14 C17 1_555 1_555
C18 C13 1_555 1_555
C19 H15 1_555 1_555
C20 C19 1_555 1_555
H16 C20 1_555 1_555
C21 C20 1_555 1_555
H17 C21 1_555 1_555
C22 O3 1_555 1_555
C23 O2 1_555 1_555
H18 C23 1_555 1_555
C24 C23 1_555 1_555
H19 C24 1_555 1_555
H20 C24 1_555 1_555
C25 C24 1_555 1_555
C26 C25 1_555 1_555
C27 N1 1_555 1_555
H21 C27 1_555 1_555
C28 C18 1_555 1_555
C29 O1 1_555 1_555
C30 C29 1_555 1_555
H22 C30 1_555 1_555
H23 C30 1_555 1_555
H24 C30 1_555 1_555
C5 C6 1_555 1_555
C11 C12 1_555 1_555
C12 C23 1_555 1_555
C17 C18 1_555 1_555
C21 C22 1_555 1_555
C22 C27 1_555 1_555
C25 C29 1_555 1_555
C26 C27 1_555 1_555
C26 C28 1_555 1_555

#END
