
#######################################################################
#
#                 Cambridge Crystallographic Data Centre
#                                CCDC 
#
#######################################################################
#
# If this CIF has been generated from an entry in the Cambridge 
# Structural Database, then it will include bibliographic, chemical, 
# crystal, experimental, refinement or atomic coordinate data resulting 
# from the CCDC's data processing and validation procedures.
#
#######################################################################

data_TAHXUW
_chemical_name_common            
'Ethyl 3-((2,3,4,6-tetra-O-acetyl-alpha-D-glucopyranosyl)methyl)-4,6-di-O-acetyl-2,3-dideoxy-hexopyranoside'
_chemical_formula_moiety         'C27 H40 O15'
_chemical_name_systematic        
"Ethyl 2,3-dideoxy-3-C-(2',6'-anhydro-3',4',5',7'-tetra-O-acetyl-1'-deoxy-D-glycero-D-ido-heptitol-1'-yl)-4,6-di-O-acetyl-\b-L-arabino-hexapyranoside"
_symmetry_cell_setting           monoclinic
_symmetry_space_group_name_H-M   'P 21'
_symmetry_Int_Tables_number      4
_space_group_name_Hall           'P 2yb'
loop_
_symmetry_equiv_pos_site_id
_symmetry_equiv_pos_as_xyz
1 x,y,z
2 -x,1/2+y,-z
_cell_length_a                   12.8390(3)
_cell_length_b                   8.6060(2)
_cell_length_c                   13.8230(3)
_cell_angle_alpha                90
_cell_angle_beta                 101.0210(14)
_cell_angle_gamma                90
_cell_volume                     1499.17
_exptl_crystal_colour            colorless
_exptl_crystal_description       rods
_chemical_melting_point          '145-151 deg.C'
_cell_formula_units_Z            2
_exptl_crystal_recrystallization_method 'acetone/light petroleum'
loop_
_atom_site_label
_atom_site_type_symbol
_atom_site_fract_x
_atom_site_fract_y
_atom_site_fract_z
O1 O -0.19996(8) 0.20121(18) 0.34132(7)
O2 O 0.17859(8) 0.19949(18) 0.52668(7)
O3 O 0.09387(8) 0.28646(19) 0.64678(7)
O4 O 0.14644(8) 0.28596(18) 0.26458(7)
O5 O 0.05721(9) 0.0887(2) 0.17954(9)
O6 O -0.14959(8) 0.30384(19) 0.09687(7)
O7 O -0.19458(14) 0.0898(2) 0.00513(10)
O8 O -0.36994(9) 0.35883(18) 0.07455(8)
O9 O -0.37152(14) 0.6177(2) 0.05708(13)
O10 O -0.43864(8) 0.43725(18) 0.25271(8)
O11 O -0.56490(10) 0.2548(2) 0.25074(12)
O12 O -0.37749(9) 0.0730 0.38063(8)
O13 O -0.44590(11) 0.0157(2) 0.51292(9)
O14 O 0.22723(8) -0.04223(18) 0.40219(7)
O15 O 0.27975(10) -0.0863(2) 0.25796(9)
C1 C -0.13656(11) 0.2429(2) 0.27024(11)
C2 C -0.21020(11) 0.2537(2) 0.16853(11)
C3 C -0.29942(12) 0.3688(2) 0.16904(11)
C4 C -0.36003(11) 0.3192(2) 0.24757(11)
C5 C -0.28730(12) 0.3012(2) 0.34809(11)
C6 C -0.34356(14) 0.2231(2) 0.42181(12)
C7 C -0.06782(12) 0.3873(2) 0.29794(11)
C8 C 0.11288(12) 0.3213(2) 0.55391(11)
C9 C 0.00869(12) 0.3284(2) 0.48060(11)
C10 C 0.03135(11) 0.3651(2) 0.37850(11)
C11 C 0.10843(11) 0.2424(2) 0.35346(10)
C12 C 0.20829(11) 0.2305(2) 0.43434(10)
C13 C 0.28346(12) 0.1047(2) 0.41530(12)
C14 C 0.18576(13) 0.3039(2) 0.72424(11)
C15 C 0.14909(15) 0.2961(3) 0.82124(12)
C16 C -0.14736(14) 0.2103(2) 0.01878(11)
C17 C -0.08097(19) 0.2809(3) -0.04729(15)
C18 C -0.39969(14) 0.4928(3) 0.02545(14)
C19 C -0.4705(3) 0.4600(4) -0.0717(2)
C20 C -0.54025(13) 0.3890(2) 0.24727(13)
C21 C -0.61489(17) 0.5234(3) 0.23673(19)
C22 C 0.12090(12) 0.1921(2) 0.18470(11)
C23 C 0.18279(16) 0.2337(3) 0.10683(13)
C24 C -0.46497(16) -0.1628(3) 0.37724(14)
C25 C -0.43008(11) -0.0182(2) 0.43272(11)
C26 C 0.22943(12) -0.1237(2) 0.31928(11)
C27 C 0.16100(15) -0.2644(3) 0.31513(14)
H1 H -0.0866(14) 0.152(2) 0.2722(13)
H2 H -0.2389(12) 0.1524(19) 0.1514(11)
H3 H -0.2707(14) 0.473(2) 0.1815(12)
H4 H -0.3961(12) 0.226(2) 0.2292(11)
H5 H -0.2602(15) 0.406(2) 0.3760(14)
H6 H 0.1525(15) 0.421(2) 0.5574(13)
H7 H -0.0273(14) 0.231(2) 0.4788(13)
H8 H -0.0366(14) 0.413(2) 0.4995(13)
H9 H 0.0695(13) 0.469(2) 0.3849(11)
H10 H 0.0778(13) 0.139(2) 0.3431(12)
H11 H 0.2472(13) 0.331(2) 0.4376(12)
H12 H 0.3410(14) 0.084(2) 0.4707(13)
H13 H 0.3141(15) 0.130(2) 0.3585(14)
H14 H -0.1073(14) 0.468(2) 0.3211(12)
H15 H -0.0399(14) 0.423(2) 0.2353(13)
H16 H -0.4048(14) 0.280(2) 0.4303(13)
H17 H -0.2961(15) 0.212(2) 0.4819(15)
H18 H 0.2206(14) 0.399(2) 0.7129(13)
H19 H 0.2363(15) 0.223(2) 0.7179(13)
H20 H 0.2140(17) 0.307(3) 0.8774(16)
H21 H 0.0929(16) 0.382(2) 0.8241(15)
H22 H 0.1166(17) 0.195(3) 0.8282(15)
H23 H 0.1571(17) 0.169(2) 0.0441(15)
H24 H 0.1733(15) 0.340(3) 0.0935(14)
H25 H 0.2579(19) 0.219(3) 0.1291(16)
H26 H 0.090(3) -0.230(4) 0.300(2)
H27 H 0.167(2) -0.317(4) 0.374(2)
H28 H 0.1703(19) -0.332(3) 0.2616(18)
H29 H -0.129(2) 0.342(3) -0.098(2)
H30 H -0.025(2) 0.361(4) -0.006(2)
H31 H -0.050(2) 0.195(4) -0.080(2)
H32 H -0.512(4) 0.537(7) -0.082(4)
H33 H -0.422(5) 0.390(8) -0.116(4)
H34 H -0.516(2) 0.371(4) -0.066(2)
H35 H -0.596(3) 0.591(5) 0.292(3)
H36 H -0.611(3) 0.571(5) 0.175(3)
H37 H -0.681(4) 0.487(6) 0.226(3)
H38 H -0.5153(19) -0.135(3) 0.3217(18)
H39 H -0.5016(19) -0.236(3) 0.4152(18)
H40 H -0.413(2) -0.209(3) 0.3527(18)
loop_
_geom_bond_atom_site_label_1
_geom_bond_atom_site_label_2
_geom_bond_site_symmetry_1
_geom_bond_site_symmetry_2
O1 C1 1_555 1_555
O2 C8 1_555 1_555
O3 C8 1_555 1_555
O4 C11 1_555 1_555
O5 C22 1_555 1_555
O6 C2 1_555 1_555
O7 C16 1_555 1_555
O8 C3 1_555 1_555
O9 C18 1_555 1_555
O10 C4 1_555 1_555
O11 C20 1_555 1_555
O12 C6 1_555 1_555
O13 C25 1_555 1_555
O14 C13 1_555 1_555
O15 C26 1_555 1_555
C1 C2 1_555 1_555
C2 C3 1_555 1_555
C3 C4 1_555 1_555
C4 C5 1_555 1_555
C5 O1 1_555 1_555
C6 C5 1_555 1_555
C7 C1 1_555 1_555
C8 C9 1_555 1_555
C9 C10 1_555 1_555
C10 C7 1_555 1_555
C11 C10 1_555 1_555
C12 O2 1_555 1_555
C13 C12 1_555 1_555
C14 O3 1_555 1_555
C15 C14 1_555 1_555
C16 O6 1_555 1_555
C17 C16 1_555 1_555
C18 O8 1_555 1_555
C19 C18 1_555 1_555
C20 O10 1_555 1_555
C21 C20 1_555 1_555
C22 O4 1_555 1_555
C23 C22 1_555 1_555
C24 C25 1_555 1_555
C25 O12 1_555 1_555
C26 O14 1_555 1_555
C27 C26 1_555 1_555
H1 C1 1_555 1_555
H2 C2 1_555 1_555
H3 C3 1_555 1_555
H4 C4 1_555 1_555
H5 C5 1_555 1_555
H6 C8 1_555 1_555
H7 C9 1_555 1_555
H8 C9 1_555 1_555
H9 C10 1_555 1_555
H10 C11 1_555 1_555
H11 C12 1_555 1_555
H12 C13 1_555 1_555
H13 C13 1_555 1_555
H14 C7 1_555 1_555
H15 C7 1_555 1_555
H16 C6 1_555 1_555
H17 C6 1_555 1_555
H18 C14 1_555 1_555
H19 C14 1_555 1_555
H20 C15 1_555 1_555
H21 C15 1_555 1_555
H22 C15 1_555 1_555
H23 C23 1_555 1_555
H24 C23 1_555 1_555
H25 C23 1_555 1_555
H26 C27 1_555 1_555
H27 C27 1_555 1_555
H28 C27 1_555 1_555
H29 C17 1_555 1_555
H30 C17 1_555 1_555
H31 C17 1_555 1_555
H32 C19 1_555 1_555
H33 C19 1_555 1_555
H34 C19 1_555 1_555
H35 C21 1_555 1_555
H36 C21 1_555 1_555
H37 C21 1_555 1_555
H38 C24 1_555 1_555
H39 C24 1_555 1_555
H40 C24 1_555 1_555
C11 C12 1_555 1_555

#END
