
#######################################################################
#
#                 Cambridge Crystallographic Data Centre
#                                CCDC 
#
#######################################################################
#
# If this CIF has been generated from an entry in the Cambridge 
# Structural Database, then it will include bibliographic, chemical, 
# crystal, experimental, refinement or atomic coordinate data resulting 
# from the CCDC's data processing and validation procedures.
#
#######################################################################

data_TAJCIR
_chemical_formula_moiety         'C70 H40 N2'
_chemical_name_systematic        
15,16-bis(2-(4-Dimethylaminophenyl)ethynyl)-5,10-bis(1,5-diphenylpenta-1,4-diyn-3-ylidene)cyclohexadec-15-ene-1,3,6,8,11,13-hexayne
_symmetry_cell_setting           triclinic
_symmetry_space_group_name_H-M   'P -1'
_symmetry_Int_Tables_number      2
_space_group_name_Hall           '-P 1'
loop_
_symmetry_equiv_pos_site_id
_symmetry_equiv_pos_as_xyz
1 x,y,z
2 -x,-y,-z
_cell_length_a                   13.6643(5)
_cell_length_b                   14.0449(6)
_cell_length_c                   15.9105(8)
_cell_angle_alpha                66.12(1)
_cell_angle_beta                 68.03(1)
_cell_angle_gamma                83.06(1)
_cell_volume                     2587.61
_exptl_crystal_colour            black
_cell_formula_units_Z            2
_exptl_crystal_recrystallization_method chloroform/hexane
loop_
_atom_site_label
_atom_site_type_symbol
_atom_site_fract_x
_atom_site_fract_y
_atom_site_fract_z
C1 C 0.34890(14) 0.42497(13) 0.52040(13)
C2 C 0.34116(14) 0.31502(14) 0.57506(13)
C3 C 0.33670(14) 0.22210(14) 0.61991(13)
C4 C 0.34195(13) 0.11710(13) 0.66660(13)
C5 C 0.35307(13) 0.02459(13) 0.70437(13)
C6 C 0.39584(13) -0.07635(12) 0.72670(12)
C7 C 0.49650(14) -0.07635(13) 0.65465(13)
C8 C 0.57766(14) -0.05223(13) 0.58415(13)
C9 C 0.66388(13) -0.00637(14) 0.50295(13)
C10 C 0.73337(13) 0.04835(13) 0.43070(13)
C11 C 0.79630(13) 0.13540(13) 0.35064(12)
C12 C 0.74348(14) 0.23025(14) 0.34568(13)
C13 C 0.67844(14) 0.29281(14) 0.36242(13)
C14 C 0.60057(15) 0.35879(14) 0.38551(13)
C15 C 0.52679(15) 0.40970(13) 0.41166(13)
C16 C 0.43985(14) 0.47074(13) 0.44045(13)
C17 C 0.26186(15) 0.48541(14) 0.54935(14)
C18 C 0.18938(15) 0.53881(14) 0.57199(14)
C19 C 0.10549(14) 0.60586(14) 0.59297(14)
C20 C 0.00545(15) 0.56809(15) 0.66299(14)
H1 H -0.0067 0.4952 0.7000
C21 C -0.07585(15) 0.63369(15) 0.67973(15)
H2 H -0.1429 0.6054 0.7280
C22 C -0.06142(15) 0.74210(15) 0.62652(14)
C23 C 0.03938(15) 0.78022(14) 0.55736(14)
H3 H 0.0521 0.8532 0.5211
C24 C 0.12003(14) 0.71378(14) 0.54120(14)
H4 H 0.1875 0.7419 0.4936
N1 N -0.14268(14) 0.80833(14) 0.64154(14)
C25 C -0.2443(2) 0.7682(3) 0.7143(3)
H5 H -0.2925 0.8257 0.7150
H6 H -0.2380 0.7325 0.7791
H7 H -0.2719 0.7189 0.6985
C26 C -0.12363(19) 0.91928(17) 0.5960(2)
H8 H -0.1902 0.9539 0.6148
H9 H -0.0943 0.9414 0.5243
H10 H -0.0734 0.9383 0.6178
C27 C 0.45017(15) 0.57964(14) 0.38288(14)
C28 C 0.46336(15) 0.67072(14) 0.33060(15)
C29 C 0.47961(15) 0.77794(13) 0.26432(14)
C30 C 0.41132(15) 0.85436(14) 0.28397(15)
H11 H 0.3530 0.8359 0.3445
C31 C 0.42663(16) 0.95665(14) 0.21722(15)
H12 H 0.3784 1.0071 0.2325
C32 C 0.51206(15) 0.98737(14) 0.12728(14)
C33 C 0.58200(15) 0.91026(15) 0.10925(14)
H13 H 0.6417 0.9287 0.0498
C34 C 0.56593(15) 0.80872(14) 0.17566(15)
H14 H 0.6145 0.7582 0.1611
N2 N 0.52628(14) 1.08829(12) 0.05935(12)
C35 C 0.4481(2) 1.16411(16) 0.07449(18)
H15 H 0.4712 1.2315 0.0191
H16 H 0.4392 1.1711 0.1357
H17 H 0.3807 1.1413 0.0789
C36 C 0.62049(19) 1.12155(17) -0.02816(16)
H18 H 0.6168 1.1956 -0.0676
H19 H 0.6258 1.0807 -0.0670
H20 H 0.6827 1.1109 -0.0092
C37 C 0.89568(13) 0.12653(13) 0.28874(12)
C38 C 0.95993(13) 0.21480(14) 0.21253(13)
C39 C 1.01968(14) 0.28458(14) 0.14789(13)
C40 C 1.08774(15) 0.36834(15) 0.06674(14)
C41 C 1.07742(17) 0.46881(15) 0.06357(16)
H21 H 1.0280 0.4826 0.1176
C42 C 1.14001(19) 0.54960(17) -0.01939(19)
H22 H 1.1326 0.6188 -0.0220
C43 C 1.2120(2) 0.5304(2) -0.0971(2)
H23 H 1.2551 0.5858 -0.1530
C44 C 1.2218(2) 0.4316(3) -0.0942(2)
H24 H 1.2709 0.4187 -0.1490
C45 C 1.1613(2) 0.3500(2) -0.01273(18)
H25 H 1.1699 0.2812 -0.0110
C46 C 0.93805(13) 0.02606(14) 0.30059(13)
C47 C 0.97549(14) -0.05785(14) 0.31020(13)
C48 C 1.02095(15) -0.15796(14) 0.32326(14)
C49 C 0.95851(16) -0.24898(15) 0.38441(15)
H26 H 0.8849 -0.2451 0.4168
C50 C 1.00409(19) -0.34505(16) 0.39788(17)
H27 H 0.9614 -0.4070 0.4391
C51 C 1.11057(19) -0.35133(17) 0.35202(17)
H28 H 1.1413 -0.4175 0.3619
C52 C 1.17299(18) -0.26175(17) 0.29167(18)
H29 H 1.2467 -0.2664 0.2603
C53 C 1.12890(16) -0.16563(16) 0.27674(16)
H30 H 1.1722 -0.1042 0.2345
C54 C 0.34991(13) -0.16442(12) 0.80889(12)
C55 C 0.40726(13) -0.25787(13) 0.82491(13)
C56 C 0.46181(14) -0.33229(14) 0.83532(13)
C57 C 0.53183(14) -0.41780(13) 0.84693(13)
C58 C 0.59413(16) -0.43249(16) 0.90272(16)
H31 H 0.5886 -0.3873 0.9353
C59 C 0.66397(16) -0.51226(16) 0.91108(16)
H32 H 0.7064 -0.5213 0.9492
C60 C 0.67287(18) -0.57802(17) 0.86565(18)
H33 H 0.7234 -0.6309 0.8694
C61 C 0.6081(2) -0.5677(2) 0.8141(2)
H34 H 0.6117 -0.6156 0.7848
C62 C 0.5381(2) -0.48791(19) 0.80457(19)
H35 H 0.4938 -0.4812 0.7686
C63 C 0.24760(14) -0.16386(13) 0.87819(13)
C64 C 0.16064(14) -0.16668(14) 0.93620(14)
C65 C 0.05477(14) -0.16817(16) 1.00321(14)
C66 C -0.01612(16) -0.09666(17) 0.97014(18)
H36 H 0.0052 -0.0480 0.9037
C67 C -0.11785(18) -0.0971(2) 1.0347(2)
H37 H -0.1663 -0.0481 1.0126
C68 C -0.14922(19) -0.1683(3) 1.1311(2)
H38 H -0.2191 -0.1681 1.1751
C69 C -0.0801(2) -0.2395(3) 1.16359(19)
H39 H -0.1025 -0.2890 1.2298
C70 C 0.02243(18) -0.2397(2) 1.10031(16)
H40 H 0.0704 -0.2886 1.1232
loop_
_geom_bond_atom_site_label_1
_geom_bond_atom_site_label_2
_geom_bond_site_symmetry_1
_geom_bond_site_symmetry_2
C1 C2 1_555 1_555
C2 C3 1_555 1_555
C3 C4 1_555 1_555
C4 C5 1_555 1_555
C5 C6 1_555 1_555
C6 C7 1_555 1_555
C7 C8 1_555 1_555
C8 C9 1_555 1_555
C9 C10 1_555 1_555
C10 C11 1_555 1_555
C11 C12 1_555 1_555
C12 C13 1_555 1_555
C13 C14 1_555 1_555
C14 C15 1_555 1_555
C15 C16 1_555 1_555
C16 C1 1_555 1_555
C17 C1 1_555 1_555
C18 C17 1_555 1_555
C19 C18 1_555 1_555
C20 C19 1_555 1_555
H1 C20 1_555 1_555
C21 C20 1_555 1_555
H2 C21 1_555 1_555
C22 C21 1_555 1_555
C23 C22 1_555 1_555
H3 C23 1_555 1_555
C24 C19 1_555 1_555
H4 C24 1_555 1_555
N1 C22 1_555 1_555
C25 N1 1_555 1_555
H5 C25 1_555 1_555
H6 C25 1_555 1_555
H7 C25 1_555 1_555
C26 N1 1_555 1_555
H8 C26 1_555 1_555
H9 C26 1_555 1_555
H10 C26 1_555 1_555
C27 C16 1_555 1_555
C28 C27 1_555 1_555
C29 C28 1_555 1_555
C30 C29 1_555 1_555
H11 C30 1_555 1_555
C31 C30 1_555 1_555
H12 C31 1_555 1_555
C32 C31 1_555 1_555
C33 C32 1_555 1_555
H13 C33 1_555 1_555
C34 C29 1_555 1_555
H14 C34 1_555 1_555
N2 C32 1_555 1_555
C35 N2 1_555 1_555
H15 C35 1_555 1_555
H16 C35 1_555 1_555
H17 C35 1_555 1_555
C36 N2 1_555 1_555
H18 C36 1_555 1_555
H19 C36 1_555 1_555
H20 C36 1_555 1_555
C37 C11 1_555 1_555
C38 C37 1_555 1_555
C39 C38 1_555 1_555
C40 C39 1_555 1_555
C41 C40 1_555 1_555
H21 C41 1_555 1_555
C42 C41 1_555 1_555
H22 C42 1_555 1_555
C43 C42 1_555 1_555
H23 C43 1_555 1_555
C44 C43 1_555 1_555
H24 C44 1_555 1_555
C45 C40 1_555 1_555
H25 C45 1_555 1_555
C46 C37 1_555 1_555
C47 C46 1_555 1_555
C48 C47 1_555 1_555
C49 C48 1_555 1_555
H26 C49 1_555 1_555
C50 C49 1_555 1_555
H27 C50 1_555 1_555
C51 C50 1_555 1_555
H28 C51 1_555 1_555
C52 C51 1_555 1_555
H29 C52 1_555 1_555
C53 C48 1_555 1_555
H30 C53 1_555 1_555
C54 C6 1_555 1_555
C55 C54 1_555 1_555
C56 C55 1_555 1_555
C57 C56 1_555 1_555
C58 C57 1_555 1_555
H31 C58 1_555 1_555
C59 C58 1_555 1_555
H32 C59 1_555 1_555
C60 C59 1_555 1_555
H33 C60 1_555 1_555
C61 C60 1_555 1_555
H34 C61 1_555 1_555
C62 C57 1_555 1_555
H35 C62 1_555 1_555
C63 C54 1_555 1_555
C64 C63 1_555 1_555
C65 C64 1_555 1_555
C66 C65 1_555 1_555
H36 C66 1_555 1_555
C67 C66 1_555 1_555
H37 C67 1_555 1_555
C68 C67 1_555 1_555
H38 C68 1_555 1_555
C69 C68 1_555 1_555
H39 C69 1_555 1_555
C70 C65 1_555 1_555
H40 C70 1_555 1_555
C23 C24 1_555 1_555
C33 C34 1_555 1_555
C44 C45 1_555 1_555
C52 C53 1_555 1_555
C61 C62 1_555 1_555
C69 C70 1_555 1_555

#END
