
#######################################################################
#
#                 Cambridge Crystallographic Data Centre
#                                CCDC 
#
#######################################################################
#
# If this CIF has been generated from an entry in the Cambridge 
# Structural Database, then it will include bibliographic, chemical, 
# crystal, experimental, refinement or atomic coordinate data resulting 
# from the CCDC's data processing and validation procedures.
#
#######################################################################

data_TAJPEZ
_chemical_formula_moiety         'C38 H56 N2 O9'
_chemical_name_systematic        
(3S,4R,5S,6R,7R,9R,10S,11S,12S,13S,14R)-14-Benzyloxymethoxy-10,12-O-carbonyl-4-N-imidazolylcarbonyl-6,7-O-isopropylidene-3,5,7,9,11,13-hexamethylhexadec-1-eme-4,6,7,10,12,14-hexol
_symmetry_cell_setting           monoclinic
_symmetry_space_group_name_H-M   'P 21'
_symmetry_Int_Tables_number      4
_space_group_name_Hall           'P 2yb'
loop_
_symmetry_equiv_pos_site_id
_symmetry_equiv_pos_as_xyz
1 x,y,z
2 -x,1/2+y,-z
_cell_length_a                   8.7302(12)
_cell_length_b                   15.597(2)
_cell_length_c                   14.463(2)
_cell_angle_alpha                90
_cell_angle_beta                 104.797(10)
_cell_angle_gamma                90
_cell_volume                     1904.04
_exptl_crystal_colour            colorless
_cell_formula_units_Z            2
loop_
_atom_site_label
_atom_site_type_symbol
_atom_site_fract_x
_atom_site_fract_y
_atom_site_fract_z
C1 C 0.7245(4) 1.0995(2) 0.6967(2)
C2 C 0.6189(3) 1.0930(2) 0.7462(2)
C3 C 0.6493(3) 1.0665(2) 0.8498(2)
C4 C 0.5670(3) 0.98045(15) 0.85469(15)
C5 C 0.3869(3) 0.97592(14) 0.8122(2)
C6 C 0.3339(3) 0.88264(14) 0.81719(14)
C7 C 0.1801(2) 0.84912(13) 0.74952(14)
C8 C 0.2059(3) 0.81927(15) 0.65442(15)
C9 C 0.0598(2) 0.77845(15) 0.58457(14)
C10 C 0.1078(3) 0.69390(15) 0.5465(2)
C11 C 0.1484(3) 0.62101(14) 0.6177(2)
C12 C -0.0044(2) 0.58969(15) 0.63804(15)
C13 C 0.0075(3) 0.51398(15) 0.7064(3)
C14 C -0.1509(3) 0.4957(2) 0.7296(2)
C15 C -0.1563(4) 0.4115(2) 0.7820(2)
C16 C -0.1338(4) 0.3322(2) 0.7287(3)
C17 C 0.8248(3) 1.0613(2) 0.9009(2)
O1 O 0.5960(2) 0.95666(10) 0.95660(10)
C18 C 0.6586(3) 0.8802(2) 0.98143(15)
O2 O 0.7221(2) 0.83355(12) 0.93705(12)
N1 N 0.6438(2) 0.85876(13) 1.07328(12)
C19 C 0.5445(3) 0.8942(2) 1.1221(2)
N2 N 0.5572(3) 0.8567(2) 1.2042(2)
C20 C 0.6699(4) 0.7931(2) 1.2083(2)
C21 C 0.7235(3) 0.7926(2) 1.1295(2)
C22 C 0.2991(3) 1.0416(2) 0.8585(2)
O3 O 0.3095(2) 0.86427(10) 0.90943(10)
C23 C 0.2346(3) 0.7823(2) 0.9014(2)
O4 O 0.1537(2) 0.77310(11) 0.80187(10)
C24 C 0.1169(5) 0.7827(3) 0.9618(2)
C25 C 0.3594(4) 0.7127(2) 0.9293(2)
C26 C 0.0388(3) 0.9086(2) 0.7375(2)
C27 C -0.0133(4) 0.8409(2) 0.5039(2)
O5 O -0.0186(2) 0.66622(12) 0.46321(10)
C28 C -0.1194(3) 0.6030(2) 0.4659(2)
O6 O -0.1129(2) 0.56202(11) 0.54783(11)
O7 O -0.2161(2) 0.58237(13) 0.39407(12)
C29 C 0.2414(3) 0.5508(2) 0.5827(2)
C30 C 0.1364(4) 0.5313(2) 0.7978(2)
O8 O -0.1779(2) 0.56568(13) 0.78912(11)
C31 C -0.3380(4) 0.5866(3) 0.7785(3)
O9 O -0.3977(2) 0.63977(13) 0.69905(14)
C32 C -0.3335(3) 0.7243(2) 0.7103(2)
C33 C -0.3847(2) 0.7710(2) 0.6170(2)
C34 C -0.4103(3) 0.7283(2) 0.5300(2)
C35 C -0.4539(3) 0.7735(2) 0.4449(2)
C36 C -0.4731(3) 0.8611(2) 0.4448(2)
C37 C -0.4496(3) 0.9041(2) 0.5305(2)
C38 C -0.4054(3) 0.8594(2) 0.6149(2)
H1 H 0.847(4) 1.086(2) 0.730(2)
H2 H 0.699(3) 1.114(2) 0.630(2)
H3 H 0.515(3) 1.103(2) 0.719(2)
H4 H 0.597(3) 1.108(2) 0.877(2)
H5 H 0.619(2) 0.9370(13) 0.8262(13)
H6 H 0.367(3) 0.988(2) 0.745(2)
H7 H 0.424(2) 0.8441(13) 0.8079(13)
H8 H 0.241(2) 0.8688(15) 0.625(2)
H9 H 0.294(2) 0.7804(15) 0.6682(14)
H10 H -0.022(2) 0.7650(14) 0.6188(14)
H11 H 0.194(3) 0.7057(14) 0.5193(15)
H12 H 0.213(3) 0.6428(14) 0.672(2)
H13 H -0.048(2) 0.6364(14) 0.6608(13)
H14 H 0.032(2) 0.464(2) 0.675(2)
H15 H -0.235(3) 0.4967(15) 0.669(2)
H16 H -0.082(4) 0.414(2) 0.842(2)
H17 H -0.257(4) 0.408(2) 0.797(2)
H18 H -0.024(4) 0.326(2) 0.716(2)
H19 H -0.208(4) 0.333(2) 0.664(2)
H20 H -0.155(4) 0.286(3) 0.768(3)
H21 H 0.878(3) 1.112(2) 0.894(2)
H22 H 0.841(3) 1.044(2) 0.971(2)
H23 H 0.872(3) 1.012(2) 0.873(2)
H24 H 0.471(3) 0.943(2) 1.095(2)
H25 H 0.703(4) 0.760(2) 1.257(2)
H26 H 0.796(3) 0.755(2) 1.109(2)
H27 H 0.190(4) 1.049(2) 0.824(2)
H28 H 0.307(3) 1.029(2) 0.922(2)
H29 H 0.343(4) 1.101(2) 0.856(2)
H30 H 0.063(3) 0.732(2) 0.953(2)
H31 H 0.170(3) 0.793(2) 1.030(2)
H32 H 0.029(4) 0.830(2) 0.938(2)
H33 H 0.436(4) 0.717(2) 0.886(2)
H34 H 0.424(3) 0.719(2) 0.992(2)
H35 H 0.313(3) 0.661(2) 0.924(2)
H36 H 0.025(3) 0.927(2) 0.802(2)
H37 H 0.053(3) 0.960(2) 0.704(2)
H38 H -0.057(3) 0.883(2) 0.704(2)
H39 H -0.110(4) 0.818(2) 0.461(2)
H40 H -0.036(4) 0.897(3) 0.530(2)
H41 H 0.069(4) 0.849(2) 0.465(2)
H42 H 0.342(4) 0.576(2) 0.575(2)
H43 H 0.270(3) 0.506(2) 0.627(2)
H44 H 0.182(4) 0.529(2) 0.515(2)
H45 H 0.135(4) 0.485(2) 0.843(3)
H46 H 0.115(3) 0.586(2) 0.827(2)
H47 H 0.238(3) 0.534(2) 0.788(2)
H48 H -0.408(4) 0.539(3) 0.771(2)
H49 H -0.332(4) 0.618(2) 0.840(2)
H50 H -0.217(3) 0.7193(15) 0.731(2)
H51 H -0.366(3) 0.751(2) 0.755(2)
H52 H -0.394(3) 0.665(2) 0.530(2)
H53 H -0.473(4) 0.742(2) 0.387(2)
H54 H -0.501(3) 0.889(2) 0.385(2)
H55 H -0.469(4) 0.969(3) 0.529(2)
H56 H -0.386(3) 0.889(2) 0.675(2)
loop_
_geom_bond_atom_site_label_1
_geom_bond_atom_site_label_2
_geom_bond_site_symmetry_1
_geom_bond_site_symmetry_2
C1 C2 1_555 1_555
C2 C3 1_555 1_555
C3 C4 1_555 1_555
C4 C5 1_555 1_555
C5 C6 1_555 1_555
C6 C7 1_555 1_555
C7 C8 1_555 1_555
C8 C9 1_555 1_555
C9 C10 1_555 1_555
C10 C11 1_555 1_555
C11 C12 1_555 1_555
C12 C13 1_555 1_555
C13 C14 1_555 1_555
C14 C15 1_555 1_555
C15 C16 1_555 1_555
C16 H18 1_555 1_555
C17 C3 1_555 1_555
O1 C4 1_555 1_555
C18 O1 1_555 1_555
O2 C18 1_555 1_555
N1 C18 1_555 1_555
C19 N1 1_555 1_555
N2 C19 1_555 1_555
C20 N2 1_555 1_555
C21 N1 1_555 1_555
C22 C5 1_555 1_555
O3 C6 1_555 1_555
C23 O3 1_555 1_555
O4 C7 1_555 1_555
C24 C23 1_555 1_555
C25 C23 1_555 1_555
C26 C7 1_555 1_555
C27 C9 1_555 1_555
O5 C10 1_555 1_555
C28 O5 1_555 1_555
O6 C12 1_555 1_555
O7 C28 1_555 1_555
C29 C11 1_555 1_555
C30 C13 1_555 1_555
O8 C14 1_555 1_555
C31 O8 1_555 1_555
O9 C31 1_555 1_555
C32 O9 1_555 1_555
C33 C32 1_555 1_555
C34 C33 1_555 1_555
C35 C34 1_555 1_555
C36 C35 1_555 1_555
C37 C36 1_555 1_555
C38 C33 1_555 1_555
H1 C1 1_555 1_555
H2 C1 1_555 1_555
H3 C2 1_555 1_555
H4 C3 1_555 1_555
H5 C4 1_555 1_555
H6 C5 1_555 1_555
H7 C6 1_555 1_555
H8 C8 1_555 1_555
H9 C8 1_555 1_555
H10 C9 1_555 1_555
H11 C10 1_555 1_555
H12 C11 1_555 1_555
H13 C12 1_555 1_555
H14 C13 1_555 1_555
H15 C14 1_555 1_555
H16 C15 1_555 1_555
H17 C15 1_555 1_555
H19 C16 1_555 1_555
H20 C16 1_555 1_555
H21 C17 1_555 1_555
H22 C17 1_555 1_555
H23 C17 1_555 1_555
H24 C19 1_555 1_555
H25 C20 1_555 1_555
H26 C21 1_555 1_555
H27 C22 1_555 1_555
H28 C22 1_555 1_555
H29 C22 1_555 1_555
H30 C24 1_555 1_555
H31 C24 1_555 1_555
H32 C24 1_555 1_555
H33 C25 1_555 1_555
H34 C25 1_555 1_555
H35 C25 1_555 1_555
H36 C26 1_555 1_555
H37 C26 1_555 1_555
H38 C26 1_555 1_555
H39 C27 1_555 1_555
H40 C27 1_555 1_555
H41 C27 1_555 1_555
H42 C29 1_555 1_555
H43 C29 1_555 1_555
H44 C29 1_555 1_555
H45 C30 1_555 1_555
H46 C30 1_555 1_555
H47 C30 1_555 1_555
H48 C31 1_555 1_555
H49 C31 1_555 1_555
H50 C32 1_555 1_555
H51 C32 1_555 1_555
H52 C34 1_555 1_555
H53 C35 1_555 1_555
H54 C36 1_555 1_555
H55 C37 1_555 1_555
H56 C38 1_555 1_555
C20 C21 1_555 1_555
C23 O4 1_555 1_555
C28 O6 1_555 1_555
C37 C38 1_555 1_555

#END
