
#######################################################################
#
#                 Cambridge Crystallographic Data Centre
#                                CCDC 
#
#######################################################################
#
# If this CIF has been generated from an entry in the Cambridge 
# Structural Database, then it will include bibliographic, chemical, 
# crystal, experimental, refinement or atomic coordinate data resulting 
# from the CCDC's data processing and validation procedures.
#
#######################################################################

data_TAJZIQ
_chemical_formula_moiety         'C35 H36 N4 O5'
_chemical_name_systematic        
3',6'-bis(Diethylamino)-2-(2-methoxy-4-nitrophenyl)spiro[isoindole-1,9'-xanthen]-3(2H)-one
_symmetry_cell_setting           triclinic
_symmetry_space_group_name_H-M   'P -1'
_symmetry_Int_Tables_number      2
_space_group_name_Hall           '-P 1'
loop_
_symmetry_equiv_pos_site_id
_symmetry_equiv_pos_as_xyz
1 x,y,z
2 -x,-y,-z
_cell_length_a                   9.376(3)
_cell_length_b                   12.051(4)
_cell_length_c                   14.783(5)
_cell_angle_alpha                70.869(6)
_cell_angle_beta                 74.940(5)
_cell_angle_gamma                78.883(6)
_cell_volume                     1513.24
_exptl_crystal_colour            yellow
_exptl_crystal_description       block
_cell_formula_units_Z            2
loop_
_atom_site_label
_atom_site_type_symbol
_atom_site_fract_x
_atom_site_fract_y
_atom_site_fract_z
O1 O 0.64339(19) 0.95814(16) 0.08787(13)
O2 O 0.4803(2) 0.44742(15) 0.31023(13)
O3 O 0.43020(19) 0.62928(16) 0.41559(13)
N1 N 0.5424(2) 0.63560(18) 0.22572(15)
N2 N 0.2931(2) 1.12675(19) 0.31724(16)
O4 O 0.8781(2) 0.60916(19) 0.55251(15)
N3 N 1.0146(2) 0.8380(2) -0.15948(16)
N4 N 0.9185(3) 0.6478(2) 0.46392(18)
C1 C 0.6227(3) 0.7740(2) 0.06054(18)
C2 C 0.4670(3) 1.0372(2) 0.20104(19)
H1 H 0.5211 1.1014 0.1791
C3 C 0.4376(3) 0.8470(2) 0.18811(19)
C4 C 0.4954(3) 0.7433(2) 0.14736(18)
C5 C 0.6847(3) 0.6983(2) 0.00240(19)
H2 H 0.6397 0.6311 0.0140
C6 C 0.6930(3) 0.8738(2) 0.03867(18)
C7 C 0.6709(3) 0.6367(2) 0.4437(2)
H3 H 0.6342 0.6310 0.5097
C8 C 0.5137(3) 0.9443(2) 0.15965(18)
C9 C 0.3395(3) 1.0342(2) 0.27509(19)
C10 C 0.2604(3) 0.9359(2) 0.30472(19)
H4 H 0.1749 0.9311 0.3540
C11 C 0.3546(3) 0.5814(2) 0.18408(19)
C12 C 0.6379(3) 0.6400(2) 0.28559(19)
C13 C 0.3091(3) 0.8464(2) 0.26103(19)
H5 H 0.2538 0.7830 0.2811
O5 O 1.0366(2) 0.6885(2) 0.42361(16)
C14 C 0.5784(3) 0.6364(2) 0.3835(2)
C15 C 0.8092(3) 0.7192(2) -0.0711(2)
H6 H 0.8448 0.6674 -0.1089
C16 C 0.8199(3) 0.8973(2) -0.03446(19)
H7 H 0.8627 0.9657 -0.0466
C17 C 0.8199(3) 0.6460(2) 0.4006(2)
C18 C 0.7882(3) 0.6475(2) 0.2468(2)
H8 H 0.8269 0.6493 0.1817
C19 C 0.4624(3) 0.5430(2) 0.24917(19)
C20 C 0.1571(3) 0.5787(2) 0.1118(2)
H9 H 0.0838 0.5403 0.1066
C21 C 0.8820(3) 0.6521(2) 0.3044(2)
H10 H 0.9826 0.6591 0.2787
C22 C 0.2824(3) 0.7539(2) 0.05872(19)
H11 H 0.2937 0.8308 0.0190
C23 C 0.8846(3) 0.8186(2) -0.09041(19)
C24 C 0.1751(3) 0.6934(2) 0.0532(2)
H12 H 0.1136 0.7307 0.0090
C25 C 0.3728(3) 0.6960(2) 0.12570(19)
C26 C 1.0776(3) 0.7603(3) -0.2219(2)
H13 H 1.1365 0.8050 -0.2826
H14 H 0.9966 0.7364 -0.2382
C27 C 0.2477(3) 0.5207(2) 0.17807(19)
H15 H 0.2369 0.4434 0.2173
C28 C 0.3970(3) 1.2076(2) 0.3074(2)
H16 H 0.3426 1.2714 0.3334
H17 H 0.4371 1.2419 0.2383
C29 C 1.1120(3) 0.9184(2) -0.1591(2)
H18 H 1.2144 0.8851 -0.1769
H19 H 1.0958 0.9235 -0.0930
C30 C 0.3570(3) 0.6666(3) 0.5003(2)
H20 H 0.2532 0.6573 0.5154
H21 H 0.3680 0.7483 0.4876
H22 H 0.4005 0.6193 0.5548
C31 C 0.5256(3) 1.1522(3) 0.3586(2)
H23 H 0.5882 1.2114 0.3484
H24 H 0.5825 1.0903 0.3321
H25 H 0.4876 1.1198 0.4275
C32 C 1.1741(3) 0.6502(3) -0.1767(2)
H26 H 1.2107 0.6042 -0.2219
H27 H 1.1163 0.6040 -0.1174
H28 H 1.2565 0.6726 -0.1621
C33 C 0.1800(4) 1.0563(3) 0.4965(2)
H29 H 0.0864 1.0593 0.5420
H30 H 0.2499 1.0910 0.5130
H31 H 0.2170 0.9754 0.4994
C34 C 1.0906(4) 1.0421(3) -0.2275(2)
H32 H 1.1587 1.0892 -0.2229
H33 H 0.9904 1.0771 -0.2095
H34 H 1.1092 1.0387 -0.2936
C35 C 0.1589(3) 1.1244(3) 0.3936(2)
H35 H 0.0859 1.0898 0.3786
H36 H 0.1185 1.2052 0.3922
loop_
_geom_bond_atom_site_label_1
_geom_bond_atom_site_label_2
_geom_bond_site_symmetry_1
_geom_bond_site_symmetry_2
O1 C6 1_555 1_555
O2 C19 1_555 1_555
O3 C14 1_555 1_555
N1 C4 1_555 1_555
N2 C9 1_555 1_555
O4 N4 1_555 1_555
N3 C23 1_555 1_555
N4 O5 1_555 1_555
C1 C4 1_555 1_555
C2 H1 1_555 1_555
C3 C4 1_555 1_555
C4 C25 1_555 1_555
C5 C1 1_555 1_555
H2 C5 1_555 1_555
C6 C1 1_555 1_555
C7 H3 1_555 1_555
C8 O1 1_555 1_555
C9 C2 1_555 1_555
C10 C9 1_555 1_555
H4 C10 1_555 1_555
C11 C19 1_555 1_555
C12 N1 1_555 1_555
C13 C3 1_555 1_555
H5 C13 1_555 1_555
C14 C7 1_555 1_555
C15 C5 1_555 1_555
H6 C15 1_555 1_555
C16 C6 1_555 1_555
H7 C16 1_555 1_555
C17 N4 1_555 1_555
C18 C12 1_555 1_555
H8 C18 1_555 1_555
C19 N1 1_555 1_555
C20 H9 1_555 1_555
C21 C17 1_555 1_555
H10 C21 1_555 1_555
C22 H11 1_555 1_555
C23 C15 1_555 1_555
C24 C20 1_555 1_555
H12 C24 1_555 1_555
C25 C11 1_555 1_555
C26 N3 1_555 1_555
H13 C26 1_555 1_555
H14 C26 1_555 1_555
C27 C11 1_555 1_555
H15 C27 1_555 1_555
C28 N2 1_555 1_555
H16 C28 1_555 1_555
H17 C28 1_555 1_555
C29 N3 1_555 1_555
H18 C29 1_555 1_555
H19 C29 1_555 1_555
C30 O3 1_555 1_555
H20 C30 1_555 1_555
H21 C30 1_555 1_555
H22 C30 1_555 1_555
C31 C28 1_555 1_555
H23 C31 1_555 1_555
H24 C31 1_555 1_555
H25 C31 1_555 1_555
C32 C26 1_555 1_555
H26 C32 1_555 1_555
H27 C32 1_555 1_555
H28 C32 1_555 1_555
C33 H29 1_555 1_555
H30 C33 1_555 1_555
H31 C33 1_555 1_555
C34 C29 1_555 1_555
H32 C34 1_555 1_555
H33 C34 1_555 1_555
H34 C34 1_555 1_555
C35 N2 1_555 1_555
H35 C35 1_555 1_555
H36 C35 1_555 1_555
C2 C8 1_555 1_555
C3 C8 1_555 1_555
C7 C17 1_555 1_555
C10 C13 1_555 1_555
C12 C14 1_555 1_555
C16 C23 1_555 1_555
C18 C21 1_555 1_555
C20 C27 1_555 1_555
C22 C24 1_555 1_555
C22 C25 1_555 1_555
C33 C35 1_555 1_555

#END
