
#######################################################################
#
#                 Cambridge Crystallographic Data Centre
#                                CCDC 
#
#######################################################################
#
# If this CIF has been generated from an entry in the Cambridge 
# Structural Database, then it will include bibliographic, chemical, 
# crystal, experimental, refinement or atomic coordinate data resulting 
# from the CCDC's data processing and validation procedures.
#
#######################################################################

data_TAKFAN
_chemical_formula_moiety         'C26 H26 N2 P1 1+,Br1 1-'
_chemical_name_systematic        
'Triphenyl(2-(2-phenylhydrazino)ethyl)phosphonium bromide'
_symmetry_cell_setting           monoclinic
_symmetry_space_group_name_H-M   'P 21/n'
_symmetry_Int_Tables_number      14
_space_group_name_Hall           '-P 2yn'
loop_
_symmetry_equiv_pos_site_id
_symmetry_equiv_pos_as_xyz
1 x,y,z
2 1/2+x,1/2-y,1/2+z
3 -x,-y,-z
4 1/2-x,1/2+y,1/2-z
_cell_length_a                   9.535(2)
_cell_length_b                   18.172(4)
_cell_length_c                   13.715(3)
_cell_angle_alpha                90
_cell_angle_beta                 95.72(3)
_cell_angle_gamma                90
_cell_volume                     2364.57
_chemical_melting_point          '218 deg.C'
_cell_formula_units_Z            4
_exptl_crystal_recrystallization_method 'ethyl acetate/ethanol'
loop_
_atom_site_label
_atom_site_type_symbol
_atom_site_fract_x
_atom_site_fract_y
_atom_site_fract_z
Br1 Br 0.09769(5) 0.08825(3) 0.34755(4)
P1 P 0.93556(11) 0.19475(6) 0.64488(8)
C1 C 0.8971(5) 0.1135(3) 0.5728(3)
C2 C 0.7393(5) 0.1017(3) 0.5417(4)
N1 N 0.7097(4) 0.0326(2) 0.4908(3)
N2 N 0.7648(5) 0.0274(2) 0.4004(3)
C3 C 0.6717(5) 0.0342(2) 0.3158(3)
C4 C 0.7259(5) 0.0298(3) 0.2263(3)
C5 C 0.6359(7) 0.0334(3) 0.1402(3)
C6 C 0.4952(7) 0.0406(3) 0.1434(4)
C7 C 0.4404(6) 0.0445(3) 0.2318(4)
C8 C 0.5272(5) 0.0409(3) 0.3186(3)
C9 C 0.8728(4) 0.1843(2) 0.7631(3)
C10 C 0.8669(7) 0.2437(3) 0.8254(4)
C11 C 0.8241(8) 0.2337(4) 0.9179(5)
C12 C 0.7852(8) 0.1671(5) 0.9471(5)
C13 C 0.7938(8) 0.1077(4) 0.8869(4)
C14 C 0.8366(6) 0.1151(3) 0.7951(4)
C15 C 0.8474(5) 0.2702(2) 0.5805(3)
C16 C 0.8913(7) 0.2902(3) 0.4911(4)
C17 C 0.8125(10) 0.3437(3) 0.4342(4)
C18 C 0.6969(8) 0.3749(4) 0.4691(6)
C19 C 0.6579(7) 0.3580(4) 0.5572(6)
C20 C 0.7327(6) 0.3053(3) 0.6155(5)
C21 C 1.1226(4) 0.2089(2) 0.6614(3)
C22 C 1.1759(5) 0.2737(3) 0.7033(4)
C23 C 1.3188(6) 0.2819(3) 0.7255(4)
C24 C 1.4079(6) 0.2266(4) 0.7057(5)
C25 C 1.3574(6) 0.1624(4) 0.6633(5)
C26 C 1.2138(5) 0.1535(3) 0.6408(4)
H1 H 0.9412(54) 0.0705(30) 0.6063(39)
H2 H 0.9489(53) 0.1172(29) 0.5176(39)
H3 H 0.6901(55) 0.0974(28) 0.5972(40)
H4 H 0.6965(52) 0.1433(30) 0.4997(37)
H5 H 0.7407(58) -0.0002(32) 0.5237(39)
H6 H 0.8621(56) 0.0383(29) 0.3923(37)
H7 H 0.8229(56) 0.0258(29) 0.2225(35)
H8 H 0.6836(55) 0.0306(30) 0.0901(39)
H9 H 0.4444(58) 0.0421(31) 0.0964(40)
H10 H 0.3427(57) 0.0464(28) 0.2387(36)
H11 H 0.4896(53) 0.0447(28) 0.3787(38)
H12 H 0.8967(55) 0.2833(32) 0.8053(39)
H13 H 0.8103(57) 0.2737(32) 0.9451(40)
H14 H 0.7595(53) 0.1648(30) 1.0061(40)
H15 H 0.7601(57) 0.0661(30) 0.9096(39)
H16 H 0.8357(54) 0.0766(28) 0.7468(39)
H17 H 0.9717(53) 0.2696(30) 0.4700(37)
H18 H 0.8403(55) 0.3528(31) 0.3824(43)
H19 H 0.6491(56) 0.4094(29) 0.4232(41)
H20 H 0.5731(55) 0.3857(28) 0.5951(37)
H21 H 0.6972(51) 0.2921(28) 0.6824(37)
H22 H 1.1171(54) 0.3080(30) 0.7127(39)
H23 H 1.3560(54) 0.3254(31) 0.7493(36)
H24 H 1.5003(56) 0.2282(30) 0.7192(36)
H25 H 1.4144(51) 0.1212(33) 0.6457(36)
H26 H 1.1803(54) 0.1132(30) 0.6099(39)
loop_
_geom_bond_atom_site_label_1
_geom_bond_atom_site_label_2
_geom_bond_site_symmetry_1
_geom_bond_site_symmetry_2
P1 C1 1_555 1_555
C1 C2 1_555 1_555
C2 N1 1_555 1_555
N1 N2 1_555 1_555
N2 C3 1_555 1_555
C3 C4 1_555 1_555
C4 C5 1_555 1_555
C5 C6 1_555 1_555
C6 C7 1_555 1_555
C7 C8 1_555 1_555
C8 C3 1_555 1_555
C9 P1 1_555 1_555
C10 C9 1_555 1_555
C11 C10 1_555 1_555
C12 C11 1_555 1_555
C13 C12 1_555 1_555
C14 C9 1_555 1_555
C15 P1 1_555 1_555
C16 C15 1_555 1_555
C17 C16 1_555 1_555
C18 C17 1_555 1_555
C19 C18 1_555 1_555
C20 C15 1_555 1_555
C21 P1 1_555 1_555
C22 C21 1_555 1_555
C23 C22 1_555 1_555
C24 C23 1_555 1_555
C25 C24 1_555 1_555
C26 C21 1_555 1_555
H1 C1 1_555 1_555
H2 C1 1_555 1_555
H3 C2 1_555 1_555
H4 C2 1_555 1_555
H5 N1 1_555 1_555
H6 N2 1_555 1_555
H7 C4 1_555 1_555
H8 C5 1_555 1_555
H9 C6 1_555 1_555
H10 C7 1_555 1_555
H11 C8 1_555 1_555
H12 C10 1_555 1_555
H13 C11 1_555 1_555
H14 C12 1_555 1_555
H15 C13 1_555 1_555
H16 C14 1_555 1_555
H17 C16 1_555 1_555
H18 C17 1_555 1_555
H19 C18 1_555 1_555
H20 C19 1_555 1_555
H21 C20 1_555 1_555
H22 C22 1_555 1_555
H23 C23 1_555 1_555
H24 C24 1_555 1_555
H25 C25 1_555 1_555
H26 C26 1_555 1_555
C13 C14 1_555 1_555
C19 C20 1_555 1_555
C25 C26 1_555 1_555

#END
