
#######################################################################
#
#                 Cambridge Crystallographic Data Centre
#                                CCDC 
#
#######################################################################
#
# If this CIF has been generated from an entry in the Cambridge 
# Structural Database, then it will include bibliographic, chemical, 
# crystal, experimental, refinement or atomic coordinate data resulting 
# from the CCDC's data processing and validation procedures.
#
#######################################################################

data_TAKFOD
_chemical_name_common            
'methyl (6-(methoxymethoxy)-15-oxo-16-oxapentacyclo[6.6.2.2$4,7!.0$1,10!.0$2,7!]octadec-11-ylidene)acetate'
_chemical_formula_moiety         'C22 H30 O6'
_chemical_name_systematic        
'methyl (E)-2-((4aS,6S,8S,8aS,9R)-8-(methoxymethoxy)-12-oxooctahydro-2H,6H-9,4a-(epoxymethano)-6,8a-ethanophenanthren-1(9H)-ylidene)acetate'
_symmetry_cell_setting           orthorhombic
_symmetry_space_group_name_H-M   'P 21 21 21'
_symmetry_Int_Tables_number      19
_space_group_name_Hall           'P 2ac 2ab'
loop_
_symmetry_equiv_pos_site_id
_symmetry_equiv_pos_as_xyz
1 x,y,z
2 1/2-x,-y,1/2+z
3 1/2+x,1/2-y,-z
4 -x,1/2+y,1/2-z
_cell_length_a                   6.9218(9)
_cell_length_b                   11.3888(18)
_cell_length_c                   25.067(3)
_cell_angle_alpha                90
_cell_angle_beta                 90
_cell_angle_gamma                90
_cell_volume                     1976.06
_exptl_crystal_colour            colorless
_cell_formula_units_Z            4
loop_
_atom_site_label
_atom_site_type_symbol
_atom_site_fract_x
_atom_site_fract_y
_atom_site_fract_z
C1 C 0.1743(5) 0.8290(3) 0.62028(13)
H1 H 0.0406 0.8264 0.6087
H2 H 0.1860 0.8891 0.6475
C2 C 0.3042(6) 0.8599(4) 0.57282(13)
H3 H 0.2359 0.8463 0.5396
H4 H 0.3409 0.9420 0.5744
C3 C 0.4831(6) 0.7824(4) 0.57561(13)
H5 H 0.5800 0.8090 0.5498
C4 C 0.4198(6) 0.6565(4) 0.56292(14)
H6 H 0.5273 0.6033 0.5687
H7 H 0.3825 0.6512 0.5257
C5 C 0.2468(6) 0.6192(3) 0.59875(11)
H8 H 0.2726 0.5414 0.6138
C6 C 0.2325(5) 0.7083(3) 0.64389(11)
C7 C 0.4379(5) 0.7116(3) 0.66794(11)
H9 H 0.4899 0.6322 0.6635
C8 C 0.5636(5) 0.7912(3) 0.63280(12)
H10 H 0.6971 0.7654 0.6337
H11 H 0.5577 0.8716 0.6454
C9 C 0.0975(5) 0.6751(3) 0.68970(11)
H12 H -0.0310 0.6568 0.6756
C10 C 0.1701(5) 0.5730(3) 0.72292(12)
H13 H 0.1995 0.5067 0.7000
H14 H 0.0714 0.5490 0.7481
C11 C 0.3526(4) 0.6116(3) 0.75296(11)
H15 H 0.4529 0.5537 0.7446
C12 C 0.4232(4) 0.7314(3) 0.72940(11)
C13 C 0.2618(5) 0.8171(3) 0.74001(11)
C14 C 0.6162(4) 0.7678(3) 0.75412(12)
H16 H 0.7163 0.7149 0.7416
H17 H 0.6487 0.8462 0.7420
C15 C 0.6136(5) 0.7665(4) 0.81488(13)
H18 H 0.5322 0.8299 0.8277
H19 H 0.7434 0.7799 0.8281
C16 C 0.5378(6) 0.6492(4) 0.83679(14)
H20 H 0.6286 0.5872 0.8282
H21 H 0.5274 0.6539 0.8753
C17 C 0.3442(5) 0.6203(3) 0.81356(12)
C18 C 0.1811(5) 0.6069(3) 0.84087(12)
H22 H 0.0703 0.5906 0.8212
C19 C 0.1584(6) 0.6155(4) 0.89978(14)
C20 C -0.0751(9) 0.6441(5) 0.96743(14)
H23 H -0.2128 0.6492 0.9714
H24 H -0.0168 0.7155 0.9799
H25 H -0.0272 0.5792 0.9880
C21 C 0.0309(8) 0.5087(4) 0.54506(13)
H26 H -0.0854 0.5157 0.5237
H27 H 0.1374 0.4918 0.5211
C22 C -0.1624(8) 0.4213(5) 0.61033(16)
H28 H -0.2711 0.4035 0.5879
H29 H -0.1775 0.4987 0.6250
H30 H -0.1552 0.3651 0.6388
O1 O 0.0095(5) 0.4167(3) 0.57971(11)
O2 O 0.0661(4) 0.6165(2) 0.57070(9)
O3 O 0.0859(3) 0.7783(2) 0.72475(8)
O4 O 0.2740(4) 0.9125(2) 0.76157(9)
O5 O -0.0278(4) 0.6268(3) 0.91180(9)
O6 O 0.2821(5) 0.6130(4) 0.93269(11)
loop_
_geom_bond_atom_site_label_1
_geom_bond_atom_site_label_2
_geom_bond_site_symmetry_1
_geom_bond_site_symmetry_2
C1 H1 1_555 1_555
H2 C1 1_555 1_555
C2 C1 1_555 1_555
H3 C2 1_555 1_555
H4 C2 1_555 1_555
C3 C2 1_555 1_555
H5 C3 1_555 1_555
C4 C3 1_555 1_555
H6 C4 1_555 1_555
H7 C4 1_555 1_555
C5 C4 1_555 1_555
H8 C5 1_555 1_555
C6 C1 1_555 1_555
C7 C6 1_555 1_555
H9 C7 1_555 1_555
C8 C3 1_555 1_555
H10 C8 1_555 1_555
H11 C8 1_555 1_555
C9 C6 1_555 1_555
H12 C9 1_555 1_555
C10 C9 1_555 1_555
H13 C10 1_555 1_555
H14 C10 1_555 1_555
C11 C10 1_555 1_555
H15 C11 1_555 1_555
C12 C7 1_555 1_555
C13 C12 1_555 1_555
C14 C12 1_555 1_555
H16 C14 1_555 1_555
H17 C14 1_555 1_555
C15 C14 1_555 1_555
H18 C15 1_555 1_555
H19 C15 1_555 1_555
C16 C15 1_555 1_555
H20 C16 1_555 1_555
H21 C16 1_555 1_555
C17 C11 1_555 1_555
C18 C17 1_555 1_555
H22 C18 1_555 1_555
C19 C18 1_555 1_555
C20 H23 1_555 1_555
H24 C20 1_555 1_555
H25 C20 1_555 1_555
C21 H26 1_555 1_555
H27 C21 1_555 1_555
C22 H28 1_555 1_555
H29 C22 1_555 1_555
H30 C22 1_555 1_555
O1 C21 1_555 1_555
O2 C5 1_555 1_555
O3 C9 1_555 1_555
O4 C13 1_555 1_555
O5 C19 1_555 1_555
O6 C19 1_555 1_555
C5 C6 1_555 1_555
C7 C8 1_555 1_555
C11 C12 1_555 1_555
C13 O3 1_555 1_555
C16 C17 1_555 1_555
C20 O5 1_555 1_555
C21 O2 1_555 1_555
C22 O1 1_555 1_555

#END
