
#######################################################################
#
#                 Cambridge Crystallographic Data Centre
#                                CCDC 
#
#######################################################################
#
# If this CIF has been generated from an entry in the Cambridge 
# Structural Database, then it will include bibliographic, chemical, 
# crystal, experimental, refinement or atomic coordinate data resulting 
# from the CCDC's data processing and validation procedures.
#
#######################################################################

data_TAKHUL
_chemical_formula_moiety         'C50 H32 F6 N4,C5 H12'
_chemical_name_systematic        
"3,3'-(2,5-bis(diphenylamino)-1,4-phenylene)bis(2-(4-(trifluoromethyl)phenyl)acrylonitrile) pentane solvate"
_symmetry_cell_setting           triclinic
_symmetry_space_group_name_H-M   'P -1'
_symmetry_Int_Tables_number      2
_space_group_name_Hall           '-P 1'
loop_
_symmetry_equiv_pos_site_id
_symmetry_equiv_pos_as_xyz
1 x,y,z
2 -x,-y,-z
_cell_length_a                   6.7664(14)
_cell_length_b                   12.499(3)
_cell_length_c                   13.721(3)
_cell_angle_alpha                92.79(3)
_cell_angle_beta                 103.47(3)
_cell_angle_gamma                94.98(3)
_cell_volume                     1121.4
_cell_formula_units_Z            1
loop_
_atom_site_label
_atom_site_type_symbol
_atom_site_fract_x
_atom_site_fract_y
_atom_site_fract_z
F1 F 0.3367(5) -0.22059(18) -0.3887(2)
F2 F 0.2337(5) -0.1355(2) -0.5192(2)
F3 F 0.5486(4) -0.1331(2) -0.4525(2)
N1 N 0.3591(4) 0.4721(2) 0.17679(18)
N2 N -0.0331(4) 0.2819(3) -0.1550(2)
C1 C 0.2012(5) 0.3915(2) 0.1809(2)
C2 C 0.0281(5) 0.3706(2) 0.1021(2)
H1 H 0.0138 0.4118 0.0449
C3 C -0.1233(5) 0.2903(3) 0.1065(2)
H2 H -0.2384 0.2753 0.0513
C4 C -0.1088(5) 0.2317(3) 0.1903(3)
H3 H -0.2139 0.1774 0.1934
C5 C 0.0611(6) 0.2534(3) 0.2695(3)
H4 H 0.0715 0.2142 0.3278
C6 C 0.2164(5) 0.3317(3) 0.2652(2)
H5 H 0.3334 0.3447 0.3197
C7 C 0.4977(5) 0.5137(2) 0.2693(2)
C8 C 0.4250(5) 0.5733(3) 0.3394(2)
H6 H 0.2845 0.5847 0.3263
C9 C 0.5570(6) 0.6161(3) 0.4282(3)
H7 H 0.5070 0.6560 0.4764
C10 C 0.7621(6) 0.6005(3) 0.4466(2)
H8 H 0.8533 0.6309 0.5070
C11 C 0.8341(6) 0.5414(3) 0.3779(3)
H9 H 0.9751 0.5312 0.3911
C12 C 0.7022(5) 0.4960(3) 0.2886(2)
H10 H 0.7519 0.4537 0.2419
C13 C 0.4242(4) 0.4858(2) 0.0864(2)
C14 C 0.4106(4) 0.4008(2) 0.0156(2)
H11 H 0.3487 0.3325 0.0258
C15 C 0.4855(4) 0.4129(2) -0.0706(2)
C16 C 0.4859(4) 0.3194(2) -0.1388(2)
H12 H 0.6111 0.3090 -0.1562
C17 C 0.3254(4) 0.2468(2) -0.1792(2)
C18 C 0.1271(5) 0.2665(3) -0.1641(2)
C19 C 0.3334(5) 0.1494(2) -0.2437(2)
C20 C 0.1567(5) 0.0949(3) -0.3043(2)
H13 H 0.0282 0.1199 -0.3039
C21 C 0.1651(5) 0.0044(3) -0.3654(2)
H14 H 0.0429 -0.0325 -0.4062
C22 C 0.3527(5) -0.0320(3) -0.3665(2)
C23 C 0.5291(5) 0.0209(3) -0.3054(3)
H15 H 0.6574 -0.0047 -0.3051
C24 C 0.5197(5) 0.1104(3) -0.2450(3)
H16 H 0.6421 0.1463 -0.2035
C25 C 0.3632(6) -0.1304(3) -0.4311(3)
F1A F 0.6633(5) 1.22059(18) 0.3887(2)
F2A F 0.7663(5) 1.1355(2) 0.5192(2)
F3A F 0.4514(4) 1.1331(2) 0.4525(2)
N1A N 0.6409(4) 0.5279(2) -0.17679(18)
N2A N 1.0331(4) 0.7181(3) 0.1550(2)
C1A C 0.7988(5) 0.6085(2) -0.1809(2)
C2A C 0.9719(5) 0.6294(2) -0.1021(2)
H1A H 0.9862 0.5882 -0.0449
C3A C 1.1233(5) 0.7097(3) -0.1065(2)
H2A H 1.2384 0.7247 -0.0513
C4A C 1.1088(5) 0.7683(3) -0.1903(3)
H3A H 1.2139 0.8226 -0.1934
C5A C 0.9389(6) 0.7466(3) -0.2695(3)
H4A H 0.9285 0.7858 -0.3278
C6A C 0.7836(5) 0.6683(3) -0.2652(2)
H5A H 0.6666 0.6553 -0.3197
C7A C 0.5023(5) 0.4863(2) -0.2693(2)
C8A C 0.5750(5) 0.4267(3) -0.3394(2)
H6A H 0.7155 0.4153 -0.3263
C9A C 0.4430(6) 0.3839(3) -0.4282(3)
H7A H 0.4930 0.3440 -0.4764
C10A C 0.2379(6) 0.3995(3) -0.4466(2)
H8A H 0.1467 0.3691 -0.5070
C11A C 0.1659(6) 0.4586(3) -0.3779(3)
H9A H 0.0249 0.4688 -0.3911
C12A C 0.2978(5) 0.5040(3) -0.2886(2)
H10A H 0.2481 0.5463 -0.2419
C13A C 0.5758(4) 0.5142(2) -0.0864(2)
C14A C 0.5894(4) 0.5992(2) -0.0156(2)
H11A H 0.6513 0.6675 -0.0258
C15A C 0.5145(4) 0.5871(2) 0.0706(2)
C16A C 0.5141(4) 0.6806(2) 0.1388(2)
H12A H 0.3889 0.6910 0.1562
C17A C 0.6746(4) 0.7532(2) 0.1792(2)
C18A C 0.8729(5) 0.7335(3) 0.1641(2)
C19A C 0.6666(5) 0.8506(2) 0.2437(2)
C20A C 0.8433(5) 0.9051(3) 0.3043(2)
H13A H 0.9718 0.8801 0.3039
C21A C 0.8349(5) 0.9956(3) 0.3654(2)
H14A H 0.9571 1.0325 0.4062
C22A C 0.6473(5) 1.0320(3) 0.3665(2)
C23A C 0.4709(5) 0.9791(3) 0.3054(3)
H15A H 0.3426 1.0047 0.3051
C24A C 0.4803(5) 0.8896(3) 0.2450(3)
H16A H 0.3579 0.8537 0.2035
C25A C 0.6368(6) 1.1304(3) 0.4311(3)
C26? C 0.636(2) 0.9368(13) 0.9792(11)
C27? C 0.7823(19) 0.9103(13) 0.9164(12)
C28? C 0.9792(16) 0.9915(9) 0.9257(9)
C29? C 1.1102(18) 1.0007(8) 1.0366(8)
C30? C 1.2790(17) 1.0996(8) 1.0580(8)
loop_
_geom_bond_atom_site_label_1
_geom_bond_atom_site_label_2
_geom_bond_site_symmetry_1
_geom_bond_site_symmetry_2
F1 C25 1_555 1_555
F2 C25 1_555 1_555
F3 C25 1_555 1_555
N1 C1 1_555 1_555
N2 C18 1_555 1_555
C1 C2 1_555 1_555
C2 H1 1_555 1_555
C3 C2 1_555 1_555
H2 C3 1_555 1_555
C4 C3 1_555 1_555
H3 C4 1_555 1_555
C5 C4 1_555 1_555
H4 C5 1_555 1_555
C6 C1 1_555 1_555
H5 C6 1_555 1_555
C7 N1 1_555 1_555
C8 C7 1_555 1_555
H6 C8 1_555 1_555
C9 C8 1_555 1_555
H7 C9 1_555 1_555
C10 C9 1_555 1_555
H8 C10 1_555 1_555
C11 C10 1_555 1_555
H9 C11 1_555 1_555
C12 C7 1_555 1_555
H10 C12 1_555 1_555
C13 N1 1_555 1_555
C14 C13 1_555 1_555
H11 C14 1_555 1_555
C15 C14 1_555 1_555
C16 C15 1_555 1_555
H12 C16 1_555 1_555
C17 C16 1_555 1_555
C18 C17 1_555 1_555
C19 C17 1_555 1_555
C20 C19 1_555 1_555
H13 C20 1_555 1_555
C21 C20 1_555 1_555
H14 C21 1_555 1_555
C22 C21 1_555 1_555
C23 C22 1_555 1_555
H15 C23 1_555 1_555
C24 C19 1_555 1_555
H16 C24 1_555 1_555
C25 C22 1_555 1_555
F1A C25A 1_555 1_555
F2A C25A 1_555 1_555
F3A C25A 1_555 1_555
N1A C1A 1_555 1_555
N2A C18A 1_555 1_555
C1A C2A 1_555 1_555
C2A H1A 1_555 1_555
C3A C2A 1_555 1_555
H2A C3A 1_555 1_555
C4A C3A 1_555 1_555
H3A C4A 1_555 1_555
C5A C4A 1_555 1_555
H4A C5A 1_555 1_555
C6A C1A 1_555 1_555
H5A C6A 1_555 1_555
C7A N1A 1_555 1_555
C8A C7A 1_555 1_555
H6A C8A 1_555 1_555
C9A C8A 1_555 1_555
H7A C9A 1_555 1_555
C10A C9A 1_555 1_555
H8A C10A 1_555 1_555
C11A C10A 1_555 1_555
H9A C11A 1_555 1_555
C12A C7A 1_555 1_555
H10A C12A 1_555 1_555
C13A C15 1_555 1_555
C14A C13A 1_555 1_555
H11A C14A 1_555 1_555
C15A C13 1_555 1_555
C16A C15A 1_555 1_555
H12A C16A 1_555 1_555
C17A C16A 1_555 1_555
C18A C17A 1_555 1_555
C19A C17A 1_555 1_555
C20A C19A 1_555 1_555
H13A C20A 1_555 1_555
C21A C20A 1_555 1_555
H14A C21A 1_555 1_555
C22A C21A 1_555 1_555
C23A C22A 1_555 1_555
H15A C23A 1_555 1_555
C24A C19A 1_555 1_555
H16A C24A 1_555 1_555
C25A C22A 1_555 1_555
C5 C6 1_555 1_555
C11 C12 1_555 1_555
C23 C24 1_555 1_555
N1A C13A 1_555 1_555
C5A C6A 1_555 1_555
C11A C12A 1_555 1_555
C14A C15A 1_555 1_555
C23A C24A 1_555 1_555

#END
