
#######################################################################
#
#                 Cambridge Crystallographic Data Centre
#                                CCDC 
#
#######################################################################
#
# If this CIF has been generated from an entry in the Cambridge 
# Structural Database, then it will include bibliographic, chemical, 
# crystal, experimental, refinement or atomic coordinate data resulting 
# from the CCDC's data processing and validation procedures.
#
#######################################################################

data_TAKJEX
_chemical_formula_moiety         'C48 H34 N4'
_chemical_name_systematic        
3,3'-(2,5-bis(diphenylamino)-1,4-phenylene)bis(2-phenylacrylonitrile)
_symmetry_cell_setting           triclinic
_symmetry_space_group_name_H-M   'P -1'
_symmetry_Int_Tables_number      2
_space_group_name_Hall           '-P 1'
loop_
_symmetry_equiv_pos_site_id
_symmetry_equiv_pos_as_xyz
1 x,y,z
2 -x,-y,-z
_cell_length_a                   6.8893(14)
_cell_length_b                   11.568(2)
_cell_length_c                   12.399(3)
_cell_angle_alpha                109.08(3)
_cell_angle_beta                 95.00(3)
_cell_angle_gamma                105.59(3)
_cell_volume                     882.721
_cell_formula_units_Z            1
loop_
_atom_site_label
_atom_site_type_symbol
_atom_site_fract_x
_atom_site_fract_y
_atom_site_fract_z
N1 N 0.3365(3) 0.73029(17) 0.59929(15)
N2 N 0.3241(3) 0.3948(2) 0.21365(17)
C1 C 0.4916(3) 0.7617(2) 0.53601(18)
C2 C 0.5568(3) 0.6665(2) 0.46181(18)
H1 H 0.5020 0.5797 0.4564
C3 C 0.7003(3) 0.6967(2) 0.39596(19)
H2 H 0.7405 0.6302 0.3442
C4 C 0.7862(4) 0.8235(2) 0.4048(2)
H3 H 0.8846 0.8441 0.3593
C5 C 0.7269(4) 0.9187(2) 0.48042(19)
H4 H 0.7876 1.0058 0.4883
C6 C 0.5804(3) 0.8895(2) 0.54518(19)
H5 H 0.5397 0.9564 0.5961
C7 C 0.3014(3) 0.8321(2) 0.69085(18)
C8 C 0.4594(4) 0.9104(2) 0.78512(19)
H6 H 0.5876 0.8944 0.7897
C9 C 0.4309(4) 1.0111(2) 0.8721(2)
H7 H 0.5410 1.0665 0.9350
C10 C 0.2429(5) 1.0319(3) 0.8681(2)
H8 H 0.2224 1.1002 0.9289
C11 C 0.0848(4) 0.9530(2) 0.7756(2)
H9 H -0.0451 0.9668 0.7734
C12 C 0.1130(4) 0.8540(2) 0.6859(2)
H10 H 0.0044 0.8014 0.6214
C13 C 0.1713(3) 0.6128(2) 0.54783(18)
C14 C 0.0919(3) 0.5592(2) 0.42933(18)
H11 H 0.1545 0.6002 0.3804
C15 C -0.0767(3) 0.4474(2) 0.37937(18)
C16 C -0.1637(3) 0.40048(19) 0.25495(18)
H12 H -0.3083 0.3787 0.2332
C17 C -0.0552(3) 0.3858(2) 0.16900(18)
C18 C 0.1578(4) 0.3941(2) 0.19610(18)
C19 C -0.1416(3) 0.3520(2) 0.04473(18)
C20 C -0.3255(4) 0.3704(2) 0.01156(19)
H13 H -0.3968 0.4059 0.0695
C21 C -0.4061(4) 0.3382(2) -0.10401(19)
H14 H -0.5325 0.3510 -0.1250
C22 C -0.3036(4) 0.2873(2) -0.1895(2)
H15 H -0.3597 0.2639 -0.2693
C23 C -0.1201(4) 0.2710(3) -0.1578(2)
H16 H -0.0482 0.2367 -0.2159
C24 C -0.0382(4) 0.3039(3) -0.0416(2)
H17 H 0.0903 0.2935 -0.0209
N1A N -0.3365(3) 0.26971(17) 0.40071(15)
N2A N -0.3241(3) 0.6052(2) 0.78635(17)
C1A C -0.4916(3) 0.2383(2) 0.46399(18)
C2A C -0.5568(3) 0.3335(2) 0.53819(18)
H1A H -0.5020 0.4203 0.5436
C3A C -0.7003(3) 0.3033(2) 0.60404(19)
H2A H -0.7405 0.3698 0.6558
C4A C -0.7862(4) 0.1765(2) 0.5952(2)
H3A H -0.8846 0.1559 0.6407
C5A C -0.7269(4) 0.0813(2) 0.51958(19)
H4A H -0.7876 -0.0058 0.5117
C6A C -0.5804(3) 0.1105(2) 0.45482(19)
H5A H -0.5397 0.0436 0.4039
C7A C -0.3014(3) 0.1679(2) 0.30915(18)
C8A C -0.4594(4) 0.0896(2) 0.21488(19)
H6A H -0.5876 0.1056 0.2103
C9A C -0.4309(4) -0.0111(2) 0.1279(2)
H7A H -0.5410 -0.0665 0.0650
C10A C -0.2429(5) -0.0319(3) 0.1319(2)
H8A H -0.2224 -0.1002 0.0711
C11A C -0.0848(4) 0.0470(2) 0.2244(2)
H9A H 0.0451 0.0332 0.2266
C12A C -0.1130(4) 0.1460(2) 0.3141(2)
H10A H -0.0044 0.1986 0.3786
C13A C -0.1713(3) 0.3872(2) 0.45217(18)
C14A C -0.0919(3) 0.4408(2) 0.57067(18)
H11A H -0.1545 0.3998 0.6196
C15A C 0.0767(3) 0.5526(2) 0.62063(18)
C16A C 0.1637(3) 0.59952(19) 0.74505(18)
H12A H 0.3083 0.6213 0.7668
C17A C 0.0552(3) 0.6142(2) 0.83100(18)
C18A C -0.1578(4) 0.6059(2) 0.80390(18)
C19A C 0.1416(3) 0.6480(2) 0.95527(18)
C20A C 0.3255(4) 0.6296(2) 0.98844(19)
H13A H 0.3968 0.5941 0.9305
C21A C 0.4061(4) 0.6618(2) 1.10401(19)
H14A H 0.5325 0.6490 1.1250
C22A C 0.3036(4) 0.7127(2) 1.1895(2)
H15A H 0.3597 0.7361 1.2693
C23A C 0.1201(4) 0.7290(3) 1.1578(2)
H16A H 0.0482 0.7633 1.2159
C24A C 0.0382(4) 0.6961(3) 1.0416(2)
H17A H -0.0903 0.7065 1.0209
loop_
_geom_bond_atom_site_label_1
_geom_bond_atom_site_label_2
_geom_bond_site_symmetry_1
_geom_bond_site_symmetry_2
N1 C1 1_555 1_555
N2 C18 1_555 1_555
C1 C2 1_555 1_555
C2 H1 1_555 1_555
C3 C2 1_555 1_555
H2 C3 1_555 1_555
C4 C3 1_555 1_555
H3 C4 1_555 1_555
C5 C4 1_555 1_555
H4 C5 1_555 1_555
C6 C1 1_555 1_555
H5 C6 1_555 1_555
C7 N1 1_555 1_555
C8 C7 1_555 1_555
H6 C8 1_555 1_555
C9 C8 1_555 1_555
H7 C9 1_555 1_555
C10 C9 1_555 1_555
H8 C10 1_555 1_555
C11 C10 1_555 1_555
H9 C11 1_555 1_555
C12 C7 1_555 1_555
H10 C12 1_555 1_555
C13 N1 1_555 1_555
C14 C13 1_555 1_555
H11 C14 1_555 1_555
C15 C14 1_555 1_555
C16 C15 1_555 1_555
H12 C16 1_555 1_555
C17 C16 1_555 1_555
C18 C17 1_555 1_555
C19 C17 1_555 1_555
C20 C19 1_555 1_555
H13 C20 1_555 1_555
C21 C20 1_555 1_555
H14 C21 1_555 1_555
C22 C21 1_555 1_555
H15 C22 1_555 1_555
C23 C22 1_555 1_555
H16 C23 1_555 1_555
C24 C19 1_555 1_555
H17 C24 1_555 1_555
N1A C1A 1_555 1_555
N2A C18A 1_555 1_555
C1A C2A 1_555 1_555
C2A H1A 1_555 1_555
C3A C2A 1_555 1_555
H2A C3A 1_555 1_555
C4A C3A 1_555 1_555
H3A C4A 1_555 1_555
C5A C4A 1_555 1_555
H4A C5A 1_555 1_555
C6A C1A 1_555 1_555
H5A C6A 1_555 1_555
C7A N1A 1_555 1_555
C8A C7A 1_555 1_555
H6A C8A 1_555 1_555
C9A C8A 1_555 1_555
H7A C9A 1_555 1_555
C10A C9A 1_555 1_555
H8A C10A 1_555 1_555
C11A C10A 1_555 1_555
H9A C11A 1_555 1_555
C12A C7A 1_555 1_555
H10A C12A 1_555 1_555
C13A C15 1_555 1_555
C14A C13A 1_555 1_555
H11A C14A 1_555 1_555
C15A C13 1_555 1_555
C16A C15A 1_555 1_555
H12A C16A 1_555 1_555
C17A C16A 1_555 1_555
C18A C17A 1_555 1_555
C19A C17A 1_555 1_555
C20A C19A 1_555 1_555
H13A C20A 1_555 1_555
C21A C20A 1_555 1_555
H14A C21A 1_555 1_555
C22A C21A 1_555 1_555
H15A C22A 1_555 1_555
C23A C22A 1_555 1_555
H16A C23A 1_555 1_555
C24A C19A 1_555 1_555
H17A C24A 1_555 1_555
C5 C6 1_555 1_555
C11 C12 1_555 1_555
C23 C24 1_555 1_555
N1A C13A 1_555 1_555
C5A C6A 1_555 1_555
C11A C12A 1_555 1_555
C14A C15A 1_555 1_555
C23A C24A 1_555 1_555

#END
