
#######################################################################
#
#                 Cambridge Crystallographic Data Centre
#                                CCDC 
#
#######################################################################
#
# If this CIF has been generated from an entry in the Cambridge 
# Structural Database, then it will include bibliographic, chemical, 
# crystal, experimental, refinement or atomic coordinate data resulting 
# from the CCDC's data processing and validation procedures.
#
#######################################################################

data_TAKMEX
_chemical_formula_moiety         'C12 H13 N1 O1'
_chemical_name_systematic        3,4-Dihydro-2-oxo-1,4-propanoquinoline
_symmetry_cell_setting           monoclinic
_symmetry_space_group_name_H-M   'P 21/c'
_symmetry_Int_Tables_number      14
_space_group_name_Hall           '-P 2ybc'
loop_
_symmetry_equiv_pos_site_id
_symmetry_equiv_pos_as_xyz
1 x,y,z
2 -x,1/2+y,1/2-z
3 -x,-y,-z
4 x,1/2-y,1/2+z
_cell_length_a                   6.686(4)
_cell_length_b                   10.508(4)
_cell_length_c                   28.397(9)
_cell_angle_alpha                90
_cell_angle_beta                 102.80(5)
_cell_angle_gamma                90
_cell_volume                     1945.49
_exptl_crystal_colour            colorless
_chemical_melting_point          36-37deg.C
_cell_formula_units_Z            8
loop_
_atom_site_label
_atom_site_type_symbol
_atom_site_fract_x
_atom_site_fract_y
_atom_site_fract_z
N1 N 0.1332(8) 0.2461(6) 0.2547(2)
C1 C 0.0778(10) 0.3712(7) 0.2387(2)
O1 O -0.0908(7) 0.3900(6) 0.2122(2)
C2 C 0.2468(10) 0.4708(7) 0.2480(3)
C3 C 0.4368(10) 0.3941(7) 0.2385(2)
C4 C 0.4932(9) 0.3062(7) 0.2805(2)
C5 C 0.6848(10) 0.2879(7) 0.3114(2)
C6 C 0.7089(10) 0.2025(7) 0.3491(2)
C7 C 0.5444(10) 0.1333(8) 0.3575(2)
C8 C 0.3493(10) 0.1499(7) 0.3272(2)
C9 C 0.3272(8) 0.2325(7) 0.2899(2)
C10 C 0.3858(10) 0.3240(7) 0.1895(2)
C11 C 0.3145(9) 0.1837(7) 0.1903(2)
C12 C 0.1261(10) 0.1611(7) 0.2127(2)
H1 H 0.273 0.502 0.282
H2 H 0.212 0.544 0.225
H3 H 0.555 0.450 0.236
H4 H 0.808 0.338 0.306
H5 H 0.848 0.190 0.371
H6 H 0.564 0.071 0.385
H7 H 0.228 0.102 0.333
H8 H 0.512 0.325 0.176
H9 H 0.274 0.373 0.168
H10 H 0.432 0.133 0.209
H11 H 0.278 0.153 0.156
H12 H -0.003 0.178 0.188
H13 H 0.127 0.071 0.224
N2 N 0.0282(8) 0.2696(6) 0.5595(2)
C13 C 0.0069(11) 0.1390(9) 0.5700(3)
O2 O 0.1367(8) 0.0627(6) 0.5627(2)
C14 C -0.1873(11) 0.1002(8) 0.5843(3)
C15 C -0.3556(11) 0.1865(8) 0.5532(3)
C16 C -0.3113(10) 0.3173(7) 0.5734(2)
C17 C -0.4480(11) 0.4002(9) 0.5880(3)
C18 C -0.3853(12) 0.5195(8) 0.6058(3)
C19 C -0.1840(11) 0.5602(8) 0.6081(3)
C20 C -0.0453(11) 0.4769(8) 0.5937(2)
C21 C -0.1103(10) 0.3573(8) 0.5769(2)
C22 C -0.3543(12) 0.1819(2) 0.4985(3)
C23 C -0.2211(11) 0.2832(8) 0.4807(3)
C24 C 0.0065(12) 0.2846(9) 0.5065(3)
H14 H -0.177 0.115 0.620
H15 H -0.218 0.008 0.577
H16 H -0.496 0.157 0.555
H17 H -0.594 0.374 0.585
H18 H -0.484 0.577 0.617
H19 H -0.140 0.648 0.620
H20 H 0.100 0.504 0.596
H21 H -0.499 0.193 0.480
H22 H -0.303 0.096 0.491
H23 H -0.280 0.369 0.485
H24 H -0.230 0.268 0.446
H25 H 0.079 0.213 0.494
H26 H 0.068 0.367 0.500
loop_
_geom_bond_atom_site_label_1
_geom_bond_atom_site_label_2
_geom_bond_site_symmetry_1
_geom_bond_site_symmetry_2
N1 C1 1_555 1_555
C1 O1 1_555 1_555
C2 C1 1_555 1_555
C3 C2 1_555 1_555
C4 C3 1_555 1_555
C5 C4 1_555 1_555
C6 C5 1_555 1_555
C7 C6 1_555 1_555
C8 C7 1_555 1_555
C9 N1 1_555 1_555
C10 C3 1_555 1_555
C11 C10 1_555 1_555
C12 N1 1_555 1_555
H1 C2 1_555 1_555
H2 C2 1_555 1_555
H3 C3 1_555 1_555
H4 C5 1_555 1_555
H5 C6 1_555 1_555
H6 C7 1_555 1_555
H7 C8 1_555 1_555
H8 C10 1_555 1_555
H9 C10 1_555 1_555
H10 C11 1_555 1_555
H11 C11 1_555 1_555
H12 C12 1_555 1_555
H13 C12 1_555 1_555
N2 C13 1_555 1_555
C13 O2 1_555 1_555
C14 C13 1_555 1_555
C15 C14 1_555 1_555
C16 C15 1_555 1_555
C17 C16 1_555 1_555
C18 C17 1_555 1_555
C19 C18 1_555 1_555
C20 C19 1_555 1_555
C21 N2 1_555 1_555
C22 C15 1_555 1_555
C23 C22 1_555 1_555
C24 N2 1_555 1_555
H14 C14 1_555 1_555
H15 C14 1_555 1_555
H16 C15 1_555 1_555
H17 C17 1_555 1_555
H18 C18 1_555 1_555
H19 C19 1_555 1_555
H20 C20 1_555 1_555
H21 C22 1_555 1_555
H22 C22 1_555 1_555
H23 C23 1_555 1_555
H24 C23 1_555 1_555
H25 C24 1_555 1_555
H26 C24 1_555 1_555
C4 C9 1_555 1_555
C8 C9 1_555 1_555
C11 C12 1_555 1_555
C16 C21 1_555 1_555
C20 C21 1_555 1_555
C23 C24 1_555 1_555

#END
