
#######################################################################
#
#                 Cambridge Crystallographic Data Centre
#                                CCDC 
#
#######################################################################
#
# If this CIF has been generated from an entry in the Cambridge 
# Structural Database, then it will include bibliographic, chemical, 
# crystal, experimental, refinement or atomic coordinate data resulting 
# from the CCDC's data processing and validation procedures.
#
#######################################################################

data_TAKSIK
_chemical_formula_moiety         'C24 H20 O2'
_chemical_name_systematic        
3',4'-Diphenyl-4,5-dihydro-3H-spiro[furan-2,1'-isochromene]
_symmetry_cell_setting           orthorhombic
_symmetry_space_group_name_H-M   'P b c a'
_symmetry_Int_Tables_number      61
_space_group_name_Hall           '-P 2ac 2ab'
loop_
_symmetry_equiv_pos_site_id
_symmetry_equiv_pos_as_xyz
1 x,y,z
2 1/2+x,1/2-y,-z
3 -x,1/2+y,1/2-z
4 1/2-x,-y,1/2+z
5 -x,-y,-z
6 1/2-x,1/2+y,z
7 x,1/2-y,1/2+z
8 1/2+x,y,1/2-z
_cell_length_a                   9.182(4)
_cell_length_b                   18.331(8)
_cell_length_c                   20.666(8)
_cell_angle_alpha                90
_cell_angle_beta                 90
_cell_angle_gamma                90
_cell_volume                     3478.4
_exptl_crystal_colour            colorless
_exptl_crystal_description       block
_cell_formula_units_Z            8
loop_
_atom_site_label
_atom_site_type_symbol
_atom_site_fract_x
_atom_site_fract_y
_atom_site_fract_z
O1 O 0.3394(3) 0.95555(14) 0.10608(11)
O2 O 0.1394(2) 0.99369(13) 0.16629(11)
C1 C 0.4330(4) 1.0184(2) 0.10724(19)
H1 H 0.3770 1.0636 0.0988
H2 H 0.5112 1.0140 0.0745
C2 C 0.4954(4) 1.0187(2) 0.1746(2)
H3 H 0.5233 1.0687 0.1880
H4 H 0.5817 0.9865 0.1776
C3 C 0.3702(4) 0.9898(2) 0.21555(17)
H5 H 0.3180 1.0303 0.2371
H6 H 0.4063 0.9556 0.2490
C4 C 0.2698(3) 0.9503(2) 0.16715(16)
C5 C 0.2343(3) 0.8717(2) 0.17769(15)
C6 C 0.3279(4) 0.8243(2) 0.20937(17)
H7 H 0.4160 0.8424 0.2274
C7 C 0.2945(4) 0.7507(2) 0.21507(17)
H8 H 0.3593 0.7186 0.2368
C8 C 0.1653(4) 0.7244(2) 0.18867(17)
H9 H 0.1415 0.6742 0.1926
C9 C 0.0709(4) 0.77127(19) 0.15657(16)
H10 H -0.0166 0.7527 0.1384
C10 C 0.1037(4) 0.84542(17) 0.15072(16)
C11 C 0.0040(3) 0.89741(18) 0.11950(15)
C12 C 0.0242(3) 0.96938(18) 0.12891(16)
C13 C -0.0684(3) 1.03200(18) 0.10980(16)
C14 C -0.0637(4) 1.09585(19) 0.14716(17)
H11 H 0.0007 1.0981 0.1831
C15 C -0.1501(4) 1.15573(18) 0.13323(18)
H12 H -0.1461 1.1980 0.1597
C16 C -0.2430(4) 1.15332(19) 0.07991(18)
H13 H -0.3036 1.1939 0.0701
C17 C -0.2467(3) 1.09152(18) 0.04111(18)
H14 H -0.3088 1.0903 0.0044
C18 C -0.1607(4) 1.03183(19) 0.05555(16)
H15 H -0.1640 0.9901 0.0284
C19 C -0.1219(3) 0.86797(18) 0.08153(16)
C20 C -0.1008(4) 0.84313(16) 0.01850(16)
H16 H -0.0054 0.8427 0.0007
C21 C -0.2176(4) 0.8190(2) -0.01863(17)
H17 H -0.2020 0.8029 -0.0618
C22 C -0.3570(4) 0.8186(2) 0.00734(18)
H18 H -0.4374 0.8029 -0.0180
C23 C -0.3777(4) 0.84128(18) 0.07077(19)
H19 H -0.4726 0.8402 0.0890
C24 C -0.2623(4) 0.86525(19) 0.10749(17)
H20 H -0.2782 0.8801 0.1510
loop_
_geom_bond_atom_site_label_1
_geom_bond_atom_site_label_2
_geom_bond_site_symmetry_1
_geom_bond_site_symmetry_2
O1 C1 1_555 1_555
O2 C4 1_555 1_555
C1 H1 1_555 1_555
H2 C1 1_555 1_555
C2 C1 1_555 1_555
H3 C2 1_555 1_555
H4 C2 1_555 1_555
C3 C2 1_555 1_555
H5 C3 1_555 1_555
H6 C3 1_555 1_555
C4 O1 1_555 1_555
C5 C4 1_555 1_555
C6 C5 1_555 1_555
H7 C6 1_555 1_555
C7 C6 1_555 1_555
H8 C7 1_555 1_555
C8 C7 1_555 1_555
H9 C8 1_555 1_555
C9 C8 1_555 1_555
H10 C9 1_555 1_555
C10 C5 1_555 1_555
C11 C10 1_555 1_555
C12 O2 1_555 1_555
C13 C12 1_555 1_555
C14 C13 1_555 1_555
H11 C14 1_555 1_555
C15 C14 1_555 1_555
H12 C15 1_555 1_555
C16 C15 1_555 1_555
H13 C16 1_555 1_555
C17 C16 1_555 1_555
H14 C17 1_555 1_555
C18 C13 1_555 1_555
H15 C18 1_555 1_555
C19 C11 1_555 1_555
C20 C19 1_555 1_555
H16 C20 1_555 1_555
C21 C20 1_555 1_555
H17 C21 1_555 1_555
C22 C21 1_555 1_555
H18 C22 1_555 1_555
C23 C22 1_555 1_555
H19 C23 1_555 1_555
C24 C19 1_555 1_555
H20 C24 1_555 1_555
C3 C4 1_555 1_555
C9 C10 1_555 1_555
C11 C12 1_555 1_555
C17 C18 1_555 1_555
C23 C24 1_555 1_555

#END
