
#######################################################################
#
#                 Cambridge Crystallographic Data Centre
#                                CCDC 
#
#######################################################################
#
# If this CIF has been generated from an entry in the Cambridge 
# Structural Database, then it will include bibliographic, chemical, 
# crystal, experimental, refinement or atomic coordinate data resulting 
# from the CCDC's data processing and validation procedures.
#
#######################################################################

data_TAKSEG
_chemical_formula_moiety         'C26 H22 O3'
_chemical_name_systematic        
4,5-bis(4-Methoxyphenyl)-2,3-dihydronaphtho[1,2-b]furan
_symmetry_cell_setting           triclinic
_symmetry_space_group_name_H-M   'P -1'
_symmetry_Int_Tables_number      2
_space_group_name_Hall           '-P 1'
loop_
_symmetry_equiv_pos_site_id
_symmetry_equiv_pos_as_xyz
1 x,y,z
2 -x,-y,-z
_cell_length_a                   9.5352(13)
_cell_length_b                   10.3557(14)
_cell_length_c                   11.5617(16)
_cell_angle_alpha                76.163(3)
_cell_angle_beta                 68.917(3)
_cell_angle_gamma                69.229(3)
_cell_volume                     987.808
_exptl_crystal_colour            colorless
_exptl_crystal_description       prismatic
_cell_formula_units_Z            2
loop_
_atom_site_label
_atom_site_type_symbol
_atom_site_fract_x
_atom_site_fract_y
_atom_site_fract_z
O1 O 1.14019(19) 0.8542(2) 0.05753(16)
C1 C 0.3218(2) 0.7750(2) 0.51902(18)
C2 C 0.1578(2) 0.8391(3) 0.5279(2)
O2 O 0.5481(10) 0.4950(7) 0.7055(9)
C3 C 0.0409(4) 0.8035(4) 0.6150(3)
H1 H -0.0622 0.8517 0.6155
C4 C 0.0724(5) 0.6885(4) 0.7110(4)
H2 H -0.0098 0.6602 0.7720
C5 C 0.2224(14) 0.6228(9) 0.7111(8)
H3 H 0.2441 0.5495 0.7729
C6 C 0.7196(5) 0.4487(5) 0.6572(5)
H4 H 0.7539 0.3594 0.6271
H5 H 0.7640 0.4369 0.7239
C7 C 0.3499(2) 0.6669(2) 0.61462(18)
C8 C 0.5054(2) 0.6019(2) 0.61647(19)
C9 C 0.6276(2) 0.6409(2) 0.52582(19)
C10 C 0.6012(2) 0.7474(2) 0.42691(18)
C11 C 0.4487(2) 0.8156(2) 0.42357(17)
C12 C 0.7794(3) 0.5566(3) 0.5492(2)
C13 C 0.7397(2) 0.7798(2) 0.32705(18)
C14 C 0.8372(2) 0.8359(2) 0.3511(2)
H6 H 0.8133 0.8578 0.4308
C15 C 0.9681(3) 0.8594(3) 0.2597(2)
H7 H 1.0311 0.8981 0.2777
C16 C 1.0069(2) 0.8265(2) 0.1417(2)
C17 C 0.9115(3) 0.7734(2) 0.1142(2)
H8 H 0.9355 0.7524 0.0341
C18 C 0.7789(3) 0.7514(2) 0.2072(2)
H9 H 0.7139 0.7161 0.1880
C19 C 1.1836(3) 0.8231(3) -0.0654(2)
H10 H 1.2088 0.7245 -0.0638
H11 H 1.2739 0.8532 -0.1163
H12 H 1.0978 0.8705 -0.0995
C20 C 0.4156(2) 0.9334(2) 0.32453(17)
C21 C 0.4362(2) 1.0593(2) 0.32178(18)
H13 H 0.4720 1.0700 0.3828
C22 C 0.4053(2) 1.1703(2) 0.23107(19)
H14 H 0.4197 1.2542 0.2319
C23 C 0.3535(2) 1.1559(2) 0.14007(19)
C24 C 0.3317(2) 1.0301(2) 0.1401(2)
H15 H 0.2968 1.0196 0.0785
C25 C 0.3616(2) 0.9224(2) 0.23083(19)
H16 H 0.3457 0.8390 0.2304
O3 O 0.319(6) 1.251(4) 0.047(4)
C26 C 0.3996(9) 1.3644(8) 0.0155(7)
H17 H 0.3496 1.4246 0.0796
H18 H 0.3912 1.4176 -0.0633
H19 H 0.5086 1.3220 0.0104
H20 H 0.132(3) 0.912(3) 0.469(2)
H21 H 0.860(4) 0.510(4) 0.481(3)
H22 H 0.842(4) 0.613(4) 0.560(3)
O4? O 0.220(3) 0.6455(19) 0.6890(15)
C27? C 0.7901(11) 0.4708(9) 0.6501(9)
H23? H 0.8884 0.4342 0.6628
C28? C 0.6770(11) 0.4331(8) 0.7325(9)
H24? H 0.6891 0.3600 0.7965
C29? C 0.532(6) 0.515(4) 0.715(5)
H25? H 0.4432 0.5061 0.7819
C30? C 0.0816(10) 0.7373(10) 0.6525(8)
H26? H 0.0065 0.7914 0.7188
H27? H 0.0303 0.6845 0.6311
O5? O 0.320(6) 1.266(4) 0.045(4)
C31? C 0.3078(11) 1.3955(9) 0.0532(8)
H28? H 0.2211 1.4279 0.1246
H29? H 0.2902 1.4546 -0.0212
H30? H 0.4033 1.3977 0.0619
loop_
_geom_bond_atom_site_label_1
_geom_bond_atom_site_label_2
_geom_bond_site_symmetry_1
_geom_bond_site_symmetry_2
O1 C16 1_555 1_555
C1 C2 1_555 1_555
C2 C3 1_555 1_555
O2 C6 1_555 1_555
C3 H1 1_555 1_555
C4 C3 1_555 1_555
H2 C4 1_555 1_555
C5 C4 1_555 1_555
H3 C5 1_555 1_555
C6 H4 1_555 1_555
H5 C6 1_555 1_555
C7 C1 1_555 1_555
C8 O2 1_555 1_555
C9 C8 1_555 1_555
C10 C9 1_555 1_555
C11 C1 1_555 1_555
C12 C6 1_555 1_555
C13 C10 1_555 1_555
C14 C13 1_555 1_555
H6 C14 1_555 1_555
C15 C14 1_555 1_555
H7 C15 1_555 1_555
C16 C15 1_555 1_555
C17 C16 1_555 1_555
H8 C17 1_555 1_555
C18 C13 1_555 1_555
H9 C18 1_555 1_555
C19 O1 1_555 1_555
H10 C19 1_555 1_555
H11 C19 1_555 1_555
H12 C19 1_555 1_555
C20 C11 1_555 1_555
C21 C20 1_555 1_555
H13 C21 1_555 1_555
C22 C21 1_555 1_555
H14 C22 1_555 1_555
C23 C22 1_555 1_555
C24 C23 1_555 1_555
H15 C24 1_555 1_555
C25 C20 1_555 1_555
H16 C25 1_555 1_555
O3 C23 1_555 1_555
C26 O3 1_555 1_555
H17 C26 1_555 1_555
H18 C26 1_555 1_555
H19 C26 1_555 1_555
H20 C2 1_555 1_555
H21 C12 1_555 1_555
H22 C12 1_555 1_555
C5 C7 1_555 1_555
C7 C8 1_555 1_555
C9 C12 1_555 1_555
C10 C11 1_555 1_555
C17 C18 1_555 1_555
C24 C25 1_555 1_555

#END
