
#######################################################################
#
#                 Cambridge Crystallographic Data Centre
#                                CCDC 
#
#######################################################################
#
# If this CIF has been generated from an entry in the Cambridge 
# Structural Database, then it will include bibliographic, chemical, 
# crystal, experimental, refinement or atomic coordinate data resulting 
# from the CCDC's data processing and validation procedures.
#
#######################################################################

data_TALDIW
_chemical_formula_moiety         'C6 H11 N1 O7'
_chemical_name_systematic        3-Deoxy-3-nitro-\a-D-glucose
_symmetry_cell_setting           orthorhombic
_symmetry_space_group_name_H-M   'P 21 21 21'
_symmetry_Int_Tables_number      19
_space_group_name_Hall           'P 2ac 2ab'
loop_
_symmetry_equiv_pos_site_id
_symmetry_equiv_pos_as_xyz
1 x,y,z
2 1/2-x,-y,1/2+z
3 -x,1/2+y,1/2-z
4 1/2+x,1/2-y,-z
_cell_length_a                   5.01440(10)
_cell_length_b                   8.9552(2)
_cell_length_c                   18.9027(5)
_cell_angle_alpha                90
_cell_angle_beta                 90
_cell_angle_gamma                90
_cell_volume                     848.825
_exptl_crystal_colour            colorless
_exptl_crystal_description       plate
_cell_formula_units_Z            4
loop_
_atom_site_label
_atom_site_type_symbol
_atom_site_fract_x
_atom_site_fract_y
_atom_site_fract_z
C1 C 0.7972(4) 0.5674(2) 0.48218(9)
H1 H 0.7313 0.5753 0.5320
C2 C 0.6706(4) 0.4313(2) 0.44697(9)
H2 H 0.4720 0.4399 0.4492
C3 C 0.7600(4) 0.4273(2) 0.36962(9)
H3 H 0.9578 0.4137 0.3674
C4 C 0.6832(4) 0.5712(2) 0.33154(9)
H4 H 0.4849 0.5826 0.3305
C5 C 0.8104(4) 0.7022(2) 0.37116(9)
H5 H 1.0090 0.6928 0.3696
C6 C 0.7281(4) 0.85278(19) 0.34206(10)
H6 H 0.8035 0.9335 0.3717
H7 H 0.7972 0.8649 0.2933
N1 N 0.6251(3) 0.29799(18) 0.33376(8)
O1 O 0.7206(3) 0.69862(14) 0.44384(6)
O2 O 1.0728(3) 0.54886(16) 0.48278(7)
H8 H 1.138(7) 0.626(4) 0.5093(17)
O3 O 0.7530(3) 0.29767(15) 0.48122(7)
H9 H 0.622(7) 0.256(4) 0.4906(18)
O4 O 0.7849(3) 0.55708(16) 0.26151(6)
H10 H 0.747(6) 0.639(4) 0.2413(15)
O5 O 0.4451(3) 0.86204(15) 0.34185(7)
H11 H 0.406(6) 0.925(3) 0.3108(15)
O6 O 0.7632(3) 0.19937(15) 0.30889(7)
O7 O 0.3796(3) 0.29848(16) 0.33071(7)
loop_
_geom_bond_atom_site_label_1
_geom_bond_atom_site_label_2
_geom_bond_site_symmetry_1
_geom_bond_site_symmetry_2
C1 H1 1_555 1_555
C2 C1 1_555 1_555
H2 C2 1_555 1_555
C3 C2 1_555 1_555
H3 C3 1_555 1_555
C4 C3 1_555 1_555
H4 C4 1_555 1_555
C5 C4 1_555 1_555
H5 C5 1_555 1_555
C6 C5 1_555 1_555
H6 C6 1_555 1_555
H7 C6 1_555 1_555
N1 C3 1_555 1_555
O1 C1 1_555 1_555
O2 C1 1_555 1_555
H8 O2 1_555 1_555
O3 C2 1_555 1_555
H9 O3 1_555 1_555
O4 C4 1_555 1_555
H10 O4 1_555 1_555
O5 C6 1_555 1_555
H11 O5 1_555 1_555
O6 N1 1_555 1_555
O7 N1 1_555 1_555
C5 O1 1_555 1_555

#END
