
#######################################################################
#
#                 Cambridge Crystallographic Data Centre
#                                CCDC 
#
#######################################################################
#
# If this CIF has been generated from an entry in the Cambridge 
# Structural Database, then it will include bibliographic, chemical, 
# crystal, experimental, refinement or atomic coordinate data resulting 
# from the CCDC's data processing and validation procedures.
#
#######################################################################

data_TALDAO
_chemical_formula_moiety         'C6 H11 N1 O6'
_chemical_name_systematic        3,4-Dideoxy-3-nitro-\a-D-glucose
_symmetry_cell_setting           monoclinic
_symmetry_space_group_name_H-M   'P 21'
_symmetry_Int_Tables_number      4
_space_group_name_Hall           'P 2yb'
loop_
_symmetry_equiv_pos_site_id
_symmetry_equiv_pos_as_xyz
1 x,y,z
2 -x,1/2+y,-z
_cell_length_a                   8.3913(4)
_cell_length_b                   5.0220(3)
_cell_length_c                   9.6538(5)
_cell_angle_alpha                90
_cell_angle_beta                 99.417(2)
_cell_angle_gamma                90
_cell_volume                     401.339
_exptl_crystal_colour            colorless
_exptl_crystal_description       block
_cell_formula_units_Z            2
loop_
_atom_site_label
_atom_site_type_symbol
_atom_site_fract_x
_atom_site_fract_y
_atom_site_fract_z
C1 C 0.1942(2) 0.4266(5) 0.0505(2)
H1 H 0.1720 0.4847 -0.0499
C2 C 0.3514(3) 0.5560(5) 0.1218(2)
H2 H 0.3435 0.7535 0.1095
C3 C 0.3776(3) 0.4892(5) 0.2773(2)
H3 H 0.3929 0.2927 0.2901
C4 C 0.2327(2) 0.5793(5) 0.3436(2)
H4 H 0.2491 0.5300 0.4442
H5 H 0.2203 0.7751 0.3361
C5 C 0.0824(3) 0.4421(5) 0.2653(2)
H6 H 0.0960 0.2450 0.2759
C6 C -0.0706(3) 0.5243(5) 0.3174(2)
H7 H -0.1652 0.4423 0.2579
H8 H -0.0674 0.4612 0.4150
N1 N 0.5268(2) 0.6331(4) 0.34934(18)
O1 O 0.06283(17) 0.5093(3) 0.11798(14)
O2 O 0.21382(18) 0.1510(4) 0.05493(16)
H9 H 0.139(5) 0.087(7) -0.006(4)
O3 O 0.48374(19) 0.4588(4) 0.06124(15)
H10 H 0.518(4) 0.583(7) 0.024(3)
O4 O 0.60620(18) 0.5251(4) 0.45166(15)
O5 O 0.56138(18) 0.8496(4) 0.30358(16)
O6 O -0.0856(2) 0.8075(4) 0.31270(17)
H11 H -0.184(5) 0.826(10) 0.318(4)
loop_
_geom_bond_atom_site_label_1
_geom_bond_atom_site_label_2
_geom_bond_site_symmetry_1
_geom_bond_site_symmetry_2
C1 H1 1_555 1_555
C2 C1 1_555 1_555
H2 C2 1_555 1_555
C3 C2 1_555 1_555
H3 C3 1_555 1_555
C4 C3 1_555 1_555
H4 C4 1_555 1_555
H5 C4 1_555 1_555
C5 C4 1_555 1_555
H6 C5 1_555 1_555
C6 C5 1_555 1_555
H7 C6 1_555 1_555
H8 C6 1_555 1_555
N1 C3 1_555 1_555
O1 C1 1_555 1_555
O2 C1 1_555 1_555
H9 O2 1_555 1_555
O3 C2 1_555 1_555
H10 O3 1_555 1_555
O4 N1 1_555 1_555
O5 N1 1_555 1_555
O6 C6 1_555 1_555
H11 O6 1_555 1_555
C5 O1 1_555 1_555

#END
