
#######################################################################
#
#                 Cambridge Crystallographic Data Centre
#                                CCDC 
#
#######################################################################
#
# If this CIF has been generated from an entry in the Cambridge 
# Structural Database, then it will include bibliographic, chemical, 
# crystal, experimental, refinement or atomic coordinate data resulting 
# from the CCDC's data processing and validation procedures.
#
#######################################################################

data_TALDES
_chemical_formula_moiety         'C6 H11 N1 O6'
_chemical_name_systematic        3,6-Dideoxy-3-nitro-\a-D-glucose
_symmetry_cell_setting           orthorhombic
_symmetry_space_group_name_H-M   'P 21 21 21'
_symmetry_Int_Tables_number      19
_space_group_name_Hall           'P 2ac 2ab'
loop_
_symmetry_equiv_pos_site_id
_symmetry_equiv_pos_as_xyz
1 x,y,z
2 1/2-x,-y,1/2+z
3 -x,1/2+y,1/2-z
4 1/2+x,1/2-y,-z
_cell_length_a                   4.91280(10)
_cell_length_b                   8.7364(3)
_cell_length_c                   19.6714(6)
_cell_angle_alpha                90
_cell_angle_beta                 90
_cell_angle_gamma                90
_cell_volume                     844.3
_exptl_crystal_colour            colorless
_exptl_crystal_description       block
_cell_formula_units_Z            4
loop_
_atom_site_label
_atom_site_type_symbol
_atom_site_fract_x
_atom_site_fract_y
_atom_site_fract_z
C1 C 0.3022(4) 0.4304(2) 0.47729(9)
H1 H 0.3967 0.4199 0.5221
C2 C 0.4149(4) 0.5699(2) 0.44067(9)
H2 H 0.6169 0.5597 0.4362
C3 C 0.2878(4) 0.5782(2) 0.37019(9)
H3 H 0.0883 0.5983 0.3750
C4 C 0.3281(4) 0.4309(2) 0.32979(9)
H4 H 0.5254 0.4158 0.3192
C5 C 0.2201(4) 0.2961(2) 0.37172(9)
H5 H 0.0194 0.3078 0.3783
C6 C 0.2786(5) 0.1427(2) 0.33989(10)
H6 H 0.1799 0.1342 0.2968
H7 H 0.2195 0.0611 0.3707
H8 H 0.4745 0.1331 0.3315
N1 N 0.4150(3) 0.70697(19) 0.33086(7)
O1 O 0.3548(3) 0.29669(15) 0.43760(6)
O2 O 0.0261(3) 0.45287(16) 0.48889(7)
O3 O 0.3527(3) 0.70703(16) 0.47634(7)
O4 O 0.1773(3) 0.44980(17) 0.26912(7)
O5 O 0.6648(3) 0.71736(18) 0.33107(7)
O6 O 0.2677(3) 0.79231(18) 0.29881(7)
H9 H -0.028(6) 0.385(3) 0.5177(14)
H10 H 0.499(8) 0.749(4) 0.4892(17)
H11 H 0.218(7) 0.382(4) 0.2395(15)
loop_
_geom_bond_atom_site_label_1
_geom_bond_atom_site_label_2
_geom_bond_site_symmetry_1
_geom_bond_site_symmetry_2
C1 H1 1_555 1_555
C2 C1 1_555 1_555
H2 C2 1_555 1_555
C3 C2 1_555 1_555
H3 C3 1_555 1_555
C4 C3 1_555 1_555
H4 C4 1_555 1_555
C5 C4 1_555 1_555
H5 C5 1_555 1_555
C6 C5 1_555 1_555
H6 C6 1_555 1_555
H7 C6 1_555 1_555
H8 C6 1_555 1_555
N1 C3 1_555 1_555
O1 C1 1_555 1_555
O2 C1 1_555 1_555
O3 C2 1_555 1_555
O4 C4 1_555 1_555
O5 N1 1_555 1_555
O6 N1 1_555 1_555
H9 O2 1_555 1_555
H10 O3 1_555 1_555
H11 O4 1_555 1_555
C5 O1 1_555 1_555

#END
