
#######################################################################
#
#                 Cambridge Crystallographic Data Centre
#                                CCDC 
#
#######################################################################
#
# If this CIF has been generated from an entry in the Cambridge 
# Structural Database, then it will include bibliographic, chemical, 
# crystal, experimental, refinement or atomic coordinate data resulting 
# from the CCDC's data processing and validation procedures.
#
#######################################################################

data_TALXAF
_chemical_formula_moiety         'C10 H12 Br1 N1 O1'
_chemical_name_systematic        p-Bromo-N,2-dimethylacetanilide
_symmetry_cell_setting           orthorhombic
_symmetry_space_group_name_H-M   'P n a 21'
_symmetry_Int_Tables_number      33
_space_group_name_Hall           'P 2c -2n'
loop_
_symmetry_equiv_pos_site_id
_symmetry_equiv_pos_as_xyz
1 x,y,z
2 1/2-x,1/2+y,1/2+z
3 1/2+x,1/2-y,z
4 -x,-y,1/2+z
_cell_length_a                   11.305(7)
_cell_length_b                   10.217(5)
_cell_length_c                   9.144(3)
_cell_angle_alpha                90
_cell_angle_beta                 90
_cell_angle_gamma                90
_cell_volume                     1056.16
_chemical_melting_point          93.5-94.5deg.C
_cell_formula_units_Z            4
loop_
_atom_site_label
_atom_site_type_symbol
_atom_site_fract_x
_atom_site_fract_y
_atom_site_fract_z
Br1 Br 0.13894(4) 0.18697(4) 0.2500
C1 C 0.0707(4) 0.4647(4) -0.2362(6)
C2 C 0.0324(4) 0.3513(4) -0.1435(5)
C3 C 0.0911(4) 0.3263(4) -0.0137(5)
C4 C 0.0568(4) 0.2213(4) 0.0728(5)
C5 C -0.0337(4) 0.1387(5) 0.0328(5)
C6 C -0.0912(4) 0.1652(4) -0.0984(5)
C7 C -0.0613(4) 0.2710(5) -0.1838(5)
C8 C -0.0899(5) 0.2165(5) -0.4478(5)
C9 C -0.2188(4) 0.3740(5) -0.3253(5)
C10 C -0.2535(4) 0.4467(5) -0.1889(5)
O1 O -0.2724(3) 0.3901(4) -0.4416(3)
N1 N -0.1259(3) 0.2932(4) -0.3183(4)
loop_
_geom_bond_atom_site_label_1
_geom_bond_atom_site_label_2
_geom_bond_site_symmetry_1
_geom_bond_site_symmetry_2
Br1 C4 1_555 1_555
C1 C2 1_555 1_555
C2 C3 1_555 1_555
C3 C4 1_555 1_555
C4 C5 1_555 1_555
C5 C6 1_555 1_555
C6 C7 1_555 1_555
C7 C2 1_555 1_555
C8 N1 1_555 1_555
C9 C10 1_555 1_555
O1 C9 1_555 1_555
N1 C7 1_555 1_555
C9 N1 1_555 1_555

#END
