
#######################################################################
#
#                 Cambridge Crystallographic Data Centre
#                                CCDC 
#
#######################################################################
#
# If this CIF has been generated from an entry in the Cambridge 
# Structural Database, then it will include bibliographic, chemical, 
# crystal, experimental, refinement or atomic coordinate data resulting 
# from the CCDC's data processing and validation procedures.
#
#######################################################################

data_TAMCAM
_chemical_formula_moiety         'C16 H21 N1 O11'
_chemical_name_systematic        
'Ethyl (3aR,4R,5R,6R,7aR)-4,5-diacetoxy-6-acetoxymethyl-2-oxy-3a,5,6,7a-tetrahydro-4H-pyrano(3,2-d)isoxazole-3-carboxylate'
_symmetry_cell_setting           monoclinic
_symmetry_space_group_name_H-M   'P 21'
_symmetry_Int_Tables_number      4
_space_group_name_Hall           'P 2yb'
loop_
_symmetry_equiv_pos_site_id
_symmetry_equiv_pos_as_xyz
1 x,y,z
2 -x,1/2+y,-z
_cell_length_a                   8.181(1)
_cell_length_b                   11.604(2)
_cell_length_c                   10.193(1)
_cell_angle_alpha                90
_cell_angle_beta                 101.59(1)
_cell_angle_gamma                90
_cell_volume                     947.915
_exptl_crystal_colour            colorless
_exptl_crystal_description       plate
_cell_formula_units_Z            2
loop_
_atom_site_label
_atom_site_type_symbol
_atom_site_fract_x
_atom_site_fract_y
_atom_site_fract_z
C1 C 0.3877(3) 0.1601(3) 0.5691(3)
H1 H 0.4972 0.1458 0.6262
C2 C 0.2606(3) 0.1808(3) 0.6602(2)
H2 H 0.3143 0.2185 0.7438
C3 C 0.1091(3) 0.2510(3) 0.5885(2)
H3 H 0.0361 0.2006 0.5252
O1 O 0.0167(2) 0.2954(2) 0.68343(18)
C4 C 0.1642(3) 0.3510(3) 0.5121(2)
H4 H 0.0665 0.3943 0.4660
O2 O 0.2760(2) 0.4264(2) 0.60005(18)
C5 C 0.2575(3) 0.3015(3) 0.4106(2)
H5 H 0.1848 0.2479 0.3514
C6 C 0.3181(4) 0.3938(3) 0.3279(3)
H6 H 0.2297 0.4489 0.2963
H7 H 0.4120 0.4347 0.3811
O3 O 0.3682(3) 0.3373(3) 0.2154(2)
C7 C 0.2156(3) 0.0595(3) 0.6856(3)
N1 N 0.2523(3) -0.0096(3) 0.5933(3)
O4 O 0.2377(3) -0.1125(3) 0.5732(3)
O5 O 0.3286(2) 0.0523(2) 0.5002(2)
O6 O 0.4057(2) 0.2418(2) 0.4772(2)
C8 C 0.1469(5) 0.0127(4) 0.7963(4)
O7 O 0.1110(5) -0.0854(3) 0.8091(4)
O8 O 0.1339(5) 0.0958(3) 0.8819(3)
C9 C 0.0621(10) 0.0614(7) 0.9937(7)
H8 H -0.0456 0.0260 0.9602
H9 H 0.1335 0.0038 1.0454
C10 C 0.0426(12) 0.1477(9) 1.0730(8)
H10 H 0.0101 0.1184 1.1521
H11 H -0.0424 0.1986 1.0270
H12 H 0.1458 0.1891 1.0978
C11 C -0.1323(3) 0.2457(3) 0.6843(3)
O9 O -0.1769(3) 0.1574(3) 0.6305(3)
C12 C -0.2323(5) 0.3165(5) 0.7622(5)
H13 H -0.3122 0.2682 0.7929
H14 H -0.2896 0.3762 0.7059
H15 H -0.1592 0.3505 0.8378
C13 C 0.2096(4) 0.5236(3) 0.6415(3)
O10 O 0.0649(3) 0.5453(3) 0.6177(2)
C14 C 0.3437(5) 0.5992(4) 0.7178(4)
H16 H 0.2994 0.6438 0.7819
H17 H 0.3838 0.6499 0.6569
H18 H 0.4340 0.5523 0.7637
C15 C 0.4210(4) 0.4067(4) 0.1276(3)
O11 O 0.4327(4) 0.5070(3) 0.1398(3)
C16 C 0.4692(8) 0.3388(6) 0.0153(4)
H19 H 0.4707 0.3889 -0.0595
H20 H 0.3897 0.2782 -0.0115
H21 H 0.5781 0.3061 0.0452
loop_
_geom_bond_atom_site_label_1
_geom_bond_atom_site_label_2
_geom_bond_site_symmetry_1
_geom_bond_site_symmetry_2
C1 H1 1_555 1_555
C2 C1 1_555 1_555
H2 C2 1_555 1_555
C3 C2 1_555 1_555
H3 C3 1_555 1_555
O1 C3 1_555 1_555
C4 C3 1_555 1_555
H4 C4 1_555 1_555
O2 C4 1_555 1_555
C5 C4 1_555 1_555
H5 C5 1_555 1_555
C6 C5 1_555 1_555
H6 C6 1_555 1_555
H7 C6 1_555 1_555
O3 C6 1_555 1_555
C7 C2 1_555 1_555
N1 C7 1_555 1_555
O4 N1 1_555 1_555
O5 C1 1_555 1_555
O6 C1 1_555 1_555
C8 C7 1_555 1_555
O7 C8 1_555 1_555
O8 C8 1_555 1_555
C9 O8 1_555 1_555
H8 C9 1_555 1_555
H9 C9 1_555 1_555
C10 C9 1_555 1_555
H10 C10 1_555 1_555
H11 C10 1_555 1_555
H12 C10 1_555 1_555
C11 O1 1_555 1_555
O9 C11 1_555 1_555
C12 C11 1_555 1_555
H13 C12 1_555 1_555
H14 C12 1_555 1_555
H15 C12 1_555 1_555
C13 O2 1_555 1_555
O10 C13 1_555 1_555
C14 C13 1_555 1_555
H16 C14 1_555 1_555
H17 C14 1_555 1_555
H18 C14 1_555 1_555
C15 O3 1_555 1_555
O11 C15 1_555 1_555
C16 C15 1_555 1_555
H19 C16 1_555 1_555
H20 C16 1_555 1_555
H21 C16 1_555 1_555
C5 O6 1_555 1_555
N1 O5 1_555 1_555

#END
