
#######################################################################
#
#                 Cambridge Crystallographic Data Centre
#                                CCDC 
#
#######################################################################
#
# If this CIF has been generated from an entry in the Cambridge 
# Structural Database, then it will include bibliographic, chemical, 
# crystal, experimental, refinement or atomic coordinate data resulting 
# from the CCDC's data processing and validation procedures.
#
#######################################################################

data_TAMFAQ
_chemical_formula_moiety         'C32 H38 N2 O2,0.5(C2 H3 N1)'
_chemical_name_systematic        
'9,9,14,14,26,26,28,28-octamethyl-2,21-dioxa-25,27-diazaheptacyclo[20.2.1.1^1,4^.1^10,13^.1^19,22^.0^3,8^.0^15,20^]octacosa-3,5,7,10,12,15,17,19-octaene acetonitrile solvate'
_symmetry_cell_setting           orthorhombic
_symmetry_space_group_name_H-M   'P n a 21'
_symmetry_Int_Tables_number      33
_space_group_name_Hall           'P 2c -2n'
loop_
_symmetry_equiv_pos_site_id
_symmetry_equiv_pos_as_xyz
1 x,y,z
2 -x,-y,1/2+z
3 1/2+x,1/2-y,z
4 1/2-x,1/2+y,1/2+z
_cell_length_a                   24.3554(10)
_cell_length_b                   11.3368(3)
_cell_length_c                   20.2929(4)
_cell_angle_alpha                90
_cell_angle_beta                 90
_cell_angle_gamma                90
_cell_volume                     5603.12
_exptl_crystal_colour            colorless
_exptl_crystal_description       prism
_cell_formula_units_Z            8
loop_
_atom_site_label
_atom_site_type_symbol
_atom_site_fract_x
_atom_site_fract_y
_atom_site_fract_z
O1 O 0.61999(10) 0.5078(2) 0.52804(13)
O2 O 0.62482(10) 0.5084(2) 0.68525(12)
N1 N 0.65804(11) 0.3699(2) 0.60554(15)
H1 H 0.6899(16) 0.399(3) 0.602(3)
N2 N 0.64991(10) 0.7326(2) 0.60082(16)
H2 H 0.6320 0.6652 0.6020
C1 C 0.63041(14) 0.3819(3) 0.66627(16)
C2 C 0.57339(16) 0.3358(4) 0.6521(2)
H3 H 0.5454 0.3819 0.6764
H4 H 0.5702 0.2518 0.6650
C3 C 0.56624(15) 0.3502(4) 0.5785(2)
H5 H 0.5394 0.4134 0.5689
H6 H 0.5529 0.2758 0.5586
C4 C 0.62305(15) 0.3827(3) 0.55050(17)
C5 C 0.64485(16) 0.3184(3) 0.48823(18)
C6 C 0.68023(16) 0.4157(3) 0.45940(18)
C7 C 0.72284(19) 0.4129(4) 0.4152(2)
H7 H 0.7369 0.3398 0.3997
C8 C 0.74504(18) 0.5183(3) 0.3936(2)
H8 H 0.7760 0.5178 0.3651
C9 C 0.72227(17) 0.6248(4) 0.4136(2)
H9 H 0.7372 0.6959 0.3965
C10 C 0.67834(15) 0.6316(3) 0.45768(18)
C11 C 0.66053(14) 0.5228(3) 0.48113(17)
C12 C 0.65033(14) 0.7484(3) 0.47547(17)
C13 C 0.66576(14) 0.7900(3) 0.54388(16)
C14 C 0.69345(15) 0.8890(3) 0.5634(2)
H10 H 0.7100 0.9453 0.5350
C15 C 0.69340(15) 0.8935(3) 0.6328(2)
H11 H 0.7095 0.9537 0.6591
C16 C 0.66611(15) 0.7959(3) 0.65587(17)
C17 C 0.65179(14) 0.7586(3) 0.72528(17)
C18 C 0.68320(14) 0.6474(3) 0.74599(18)
C19 C 0.73034(16) 0.6511(4) 0.7856(2)
H12 H 0.7437 0.7262 0.7989
C20 C 0.7586(2) 0.5521(4) 0.8066(2)
H13 H 0.7903 0.5601 0.8334
C21 C 0.7404(2) 0.4415(4) 0.7882(2)
H14 H 0.7593 0.3727 0.8022
C22 C 0.69389(16) 0.4327(3) 0.74889(18)
C23 C 0.66816(14) 0.5339(3) 0.72751(18)
C24 C 0.66313(18) 0.3261(3) 0.72450(18)
C25 C 0.6754(2) 0.2053(4) 0.5058(2)
H15 H 0.7084 0.2248 0.5312
H16 H 0.6859 0.1639 0.4654
H17 H 0.6515 0.1544 0.5323
C26 C 0.5968(2) 0.2908(4) 0.4406(2)
H18 H 0.6115 0.2636 0.3983
H19 H 0.5749 0.3622 0.4337
H20 H 0.5736 0.2290 0.4597
C27 C 0.58750(14) 0.7336(4) 0.4704(2)
H21 H 0.5777 0.7114 0.4252
H22 H 0.5695 0.8081 0.4818
H23 H 0.5754 0.6717 0.5008
C28 C 0.6658(2) 0.8459(4) 0.4260(2)
H24 H 0.6565 0.8201 0.3813
H25 H 0.7053 0.8615 0.4287
H26 H 0.6455 0.9181 0.4365
C29 C 0.58953(15) 0.7378(4) 0.7318(2)
H27 H 0.5701 0.8131 0.7272
H28 H 0.5815 0.7036 0.7751
H29 H 0.5773 0.6835 0.6972
C30 C 0.66650(19) 0.8617(4) 0.7715(2)
H30 H 0.7052 0.8829 0.7655
H31 H 0.6603 0.8380 0.8173
H32 H 0.6433 0.9299 0.7611
C31 C 0.7002(3) 0.2238(4) 0.7028(2)
H33 H 0.7282 0.2533 0.6724
H34 H 0.6780 0.1636 0.6807
H35 H 0.7180 0.1892 0.7416
C32 C 0.6257(3) 0.2845(5) 0.7798(2)
H36 H 0.6476 0.2686 0.8193
H37 H 0.6067 0.2123 0.7662
H38 H 0.5985 0.3460 0.7895
N3 N 0.77001(13) 0.4888(3) 0.6011(3)
C33 C 0.78664(14) 0.5819(4) 0.6049(3)
C34 C 0.80894(19) 0.6988(4) 0.6120(4)
H39 H 0.8157 0.7150 0.6588
H40 H 0.7827 0.7565 0.5946
H41 H 0.8435 0.7044 0.5875
O3 O 0.36831(12) 0.4344(3) 0.57979(15)
O4 O 0.40184(12) 0.1624(3) 0.58509(16)
N4 N 0.4194(2) 0.3146(4) 0.5041(3)
N5 N 0.4176(2) 0.3065(4) 0.7075(4)
H42 H 0.3987 0.2946 0.6712
C35 C 0.39725(17) 0.1996(4) 0.5146(2)
C36 C 0.33627(18) 0.2124(4) 0.4993(3)
H43 H 0.3139 0.1884 0.5378
H44 H 0.3260 0.1628 0.4611
C37 C 0.32736(19) 0.3426(4) 0.4837(3)
H45 H 0.3237 0.3550 0.4356
H46 H 0.2939 0.3726 0.5058
C38 C 0.37842(17) 0.4041(4) 0.5101(2)
C39 C 0.39574(19) 0.5239(4) 0.4787(3)
C40 C 0.4204(2) 0.5843(5) 0.5380(3)
C41 C 0.4545(2) 0.6810(6) 0.5437(3)
H47 H 0.4687 0.7177 0.5053
C42 C 0.4680(3) 0.7246(6) 0.6055(3)
H48 H 0.4915 0.7913 0.6091
C43 C 0.4476(3) 0.6717(6) 0.6623(4)
H49 H 0.4575 0.7017 0.7043
C44 C 0.4121(2) 0.5734(5) 0.6577(2)
C45 C 0.4008(2) 0.5322(4) 0.5947(2)
C46 C 0.38773(19) 0.5199(4) 0.7205(3)
C47 C 0.42054(17) 0.4130(4) 0.7410(2)
C48 C 0.45369(18) 0.3949(5) 0.7940(2)
H50 H 0.4635 0.4521 0.8262
C49 C 0.4712(2) 0.2744(4) 0.7929(2)
H51 H 0.4947 0.2377 0.8242
C50 C 0.44855(17) 0.2215(4) 0.7395(2)
C51 C 0.44932(19) 0.0936(4) 0.7183(2)
C52 C 0.47731(17) 0.0778(4) 0.6515(2)
C53 C 0.52924(17) 0.0276(3) 0.6444(3)
H52 H 0.5491 0.0091 0.6833
C54 C 0.55391(19) 0.0029(4) 0.5840(3)
H53 H 0.5897 -0.0302 0.5824
C55 C 0.52558(19) 0.0271(4) 0.5259(3)
H54 H 0.5413 0.0093 0.4843
C56 C 0.47405(18) 0.0776(4) 0.5304(2)
C57 C 0.45238(16) 0.1050(4) 0.5919(2)
C58 C 0.43098(19) 0.1023(4) 0.4787(2)
C59 C 0.3440(2) 0.5921(5) 0.4565(3)
H55 H 0.3168 0.5915 0.4920
H56 H 0.3285 0.5543 0.4172
H57 H 0.3540 0.6737 0.4460
C60 C 0.4351(2) 0.5087(5) 0.4203(3)
H58 H 0.4443 0.5863 0.4021
H59 H 0.4175 0.4605 0.3862
H60 H 0.4688 0.4697 0.4353
C61 C 0.3899(3) 0.6082(5) 0.7782(3)
H61 H 0.3707 0.5748 0.8164
H62 H 0.3720 0.6820 0.7651
H63 H 0.4283 0.6239 0.7899
C62 C 0.32677(17) 0.4877(5) 0.7117(3)
H64 H 0.3232 0.4266 0.6778
H65 H 0.3062 0.5579 0.6981
H66 H 0.3121 0.4582 0.7535
C63 C 0.3899(2) 0.0436(5) 0.7154(3)
H67 H 0.3677 0.0917 0.6854
H68 H 0.3736 0.0454 0.7595
H69 H 0.3909 -0.0380 0.6993
C64 C 0.4794(3) 0.0222(5) 0.7718(3)
H70 H 0.4819 -0.0605 0.7582
H71 H 0.4590 0.0275 0.8134
H72 H 0.5164 0.0542 0.7780
C65 C 0.3971(3) -0.0119(5) 0.4690(3)
H73 H 0.4210 -0.0746 0.4523
H74 H 0.3675 0.0028 0.4373
H75 H 0.3813 -0.0361 0.5113
C66 C 0.4532(2) 0.1433(5) 0.4119(2)
H76 H 0.4773 0.2116 0.4184
H77 H 0.4225 0.1656 0.3832
H78 H 0.4740 0.0791 0.3914
H79 H 0.4494(17) 0.326(4) 0.524(2)
O5? O 0.4039(4) 0.1600(10) 0.6276(6)
O6? O 0.3712(5) 0.4294(10) 0.6319(5)
N6? N 0.4234(8) 0.3105(13) 0.7055(18)
N7? N 0.4137(8) 0.2982(14) 0.5050(10)
C67? C 0.3840(6) 0.4009(12) 0.6997(6)
C68? C 0.3343(6) 0.3398(13) 0.7296(9)
C69? C 0.3430(8) 0.2087(13) 0.7182(10)
C70? C 0.4030(6) 0.1953(13) 0.6960(6)
C71? C 0.4377(7) 0.1010(15) 0.7331(8)
C72? C 0.4794(6) 0.0761(14) 0.6801(9)
C73? C 0.5313(6) 0.0275(13) 0.6804(9)
C74? C 0.5554(8) 0.0034(15) 0.6198(9)
C75? C 0.5324(9) 0.0230(17) 0.5581(9)
C76? C 0.4776(9) 0.0742(18) 0.5566(10)
C77? C 0.4549(6) 0.0982(14) 0.6206(9)
C78? C 0.4474(7) 0.0883(13) 0.4917(8)
C79? C 0.4424(6) 0.2148(13) 0.4678(7)
C80? C 0.4631(7) 0.2617(17) 0.4113(7)
C81? C 0.4471(7) 0.3837(19) 0.4112(8)
C82? C 0.4176(6) 0.4016(14) 0.4677(7)
C83? C 0.3850(7) 0.5107(15) 0.4871(10)
C84? C 0.4116(10) 0.570(3) 0.5465(13)
C85? C 0.4439(10) 0.669(3) 0.5338(15)
C86? C 0.4657(12) 0.726(3) 0.5883(13)
C87? C 0.4542(11) 0.682(2) 0.6508(15)
C88? C 0.4235(9) 0.587(2) 0.6719(10)
C89? C 0.4027(8) 0.5326(15) 0.6167(12)
C90? C 0.4000(7) 0.5218(15) 0.7305(9)
C91? C 0.4649(8) 0.147(2) 0.7971(9)
C92? C 0.4028(10) -0.011(2) 0.7445(14)
C93? C 0.3884(7) 0.038(2) 0.4963(12)
C94? C 0.4742(9) 0.0141(19) 0.4370(10)
C95? C 0.3242(7) 0.4806(19) 0.4998(11)
C96? C 0.3854(11) 0.604(2) 0.4319(11)
C97? C 0.4427(8) 0.5149(19) 0.7862(10)
C98? C 0.3508(9) 0.598(2) 0.7528(11)
loop_
_geom_bond_atom_site_label_1
_geom_bond_atom_site_label_2
_geom_bond_site_symmetry_1
_geom_bond_site_symmetry_2
O1 C4 1_555 1_555
O2 C1 1_555 1_555
N1 H1 1_555 1_555
N2 H2 1_555 1_555
C1 N1 1_555 1_555
C2 C1 1_555 1_555
H3 C2 1_555 1_555
H4 C2 1_555 1_555
C3 C2 1_555 1_555
H5 C3 1_555 1_555
H6 C3 1_555 1_555
C4 N1 1_555 1_555
C5 C4 1_555 1_555
C6 C5 1_555 1_555
C7 C6 1_555 1_555
H7 C7 1_555 1_555
C8 C7 1_555 1_555
H8 C8 1_555 1_555
C9 C8 1_555 1_555
H9 C9 1_555 1_555
C10 C9 1_555 1_555
C11 O1 1_555 1_555
C12 C10 1_555 1_555
C13 N2 1_555 1_555
C14 C13 1_555 1_555
H10 C14 1_555 1_555
C15 C14 1_555 1_555
H11 C15 1_555 1_555
C16 N2 1_555 1_555
C17 C16 1_555 1_555
C18 C17 1_555 1_555
C19 C18 1_555 1_555
H12 C19 1_555 1_555
C20 C19 1_555 1_555
H13 C20 1_555 1_555
C21 C20 1_555 1_555
H14 C21 1_555 1_555
C22 C21 1_555 1_555
C23 O2 1_555 1_555
C24 C1 1_555 1_555
C25 C5 1_555 1_555
H15 C25 1_555 1_555
H16 C25 1_555 1_555
H17 C25 1_555 1_555
C26 C5 1_555 1_555
H18 C26 1_555 1_555
H19 C26 1_555 1_555
H20 C26 1_555 1_555
C27 C12 1_555 1_555
H21 C27 1_555 1_555
H22 C27 1_555 1_555
H23 C27 1_555 1_555
C28 C12 1_555 1_555
H24 C28 1_555 1_555
H25 C28 1_555 1_555
H26 C28 1_555 1_555
C29 C17 1_555 1_555
H27 C29 1_555 1_555
H28 C29 1_555 1_555
H29 C29 1_555 1_555
C30 C17 1_555 1_555
H30 C30 1_555 1_555
H31 C30 1_555 1_555
H32 C30 1_555 1_555
C31 C24 1_555 1_555
H33 C31 1_555 1_555
H34 C31 1_555 1_555
H35 C31 1_555 1_555
C32 C24 1_555 1_555
H36 C32 1_555 1_555
H37 C32 1_555 1_555
H38 C32 1_555 1_555
N3 C33 1_555 1_555
C33 C34 1_555 1_555
C34 H39 1_555 1_555
H40 C34 1_555 1_555
H41 C34 1_555 1_555
O3 C38 1_555 1_555
O4 C35 1_555 1_555
N4 C35 1_555 1_555
N5 H42 1_555 1_555
C35 C36 1_555 1_555
C36 H43 1_555 1_555
H44 C36 1_555 1_555
C37 C36 1_555 1_555
H45 C37 1_555 1_555
H46 C37 1_555 1_555
C38 N4 1_555 1_555
C39 C38 1_555 1_555
C40 C39 1_555 1_555
C41 C40 1_555 1_555
H47 C41 1_555 1_555
C42 C41 1_555 1_555
H48 C42 1_555 1_555
C43 C42 1_555 1_555
H49 C43 1_555 1_555
C44 C43 1_555 1_555
C45 O3 1_555 1_555
C46 C44 1_555 1_555
C47 N5 1_555 1_555
C48 C47 1_555 1_555
H50 C48 1_555 1_555
C49 C48 1_555 1_555
H51 C49 1_555 1_555
C50 N5 1_555 1_555
C51 C50 1_555 1_555
C52 C51 1_555 1_555
C53 C52 1_555 1_555
H52 C53 1_555 1_555
C54 C53 1_555 1_555
H53 C54 1_555 1_555
C55 C54 1_555 1_555
H54 C55 1_555 1_555
C56 C55 1_555 1_555
C57 O4 1_555 1_555
C58 C35 1_555 1_555
C59 C39 1_555 1_555
H55 C59 1_555 1_555
H56 C59 1_555 1_555
H57 C59 1_555 1_555
C60 C39 1_555 1_555
H58 C60 1_555 1_555
H59 C60 1_555 1_555
H60 C60 1_555 1_555
C61 C46 1_555 1_555
H61 C61 1_555 1_555
H62 C61 1_555 1_555
H63 C61 1_555 1_555
C62 C46 1_555 1_555
H64 C62 1_555 1_555
H65 C62 1_555 1_555
H66 C62 1_555 1_555
C63 C51 1_555 1_555
H67 C63 1_555 1_555
H68 C63 1_555 1_555
H69 C63 1_555 1_555
C64 C51 1_555 1_555
H70 C64 1_555 1_555
H71 C64 1_555 1_555
H72 C64 1_555 1_555
C65 C58 1_555 1_555
H73 C65 1_555 1_555
H74 C65 1_555 1_555
H75 C65 1_555 1_555
C66 C58 1_555 1_555
H76 C66 1_555 1_555
H77 C66 1_555 1_555
H78 C66 1_555 1_555
H79 N4 1_555 1_555
C3 C4 1_555 1_555
C6 C11 1_555 1_555
C10 C11 1_555 1_555
C12 C13 1_555 1_555
C15 C16 1_555 1_555
C18 C23 1_555 1_555
C22 C23 1_555 1_555
C22 C24 1_555 1_555
C37 C38 1_555 1_555
C40 C45 1_555 1_555
C44 C45 1_555 1_555
C46 C47 1_555 1_555
C49 C50 1_555 1_555
C52 C57 1_555 1_555
C56 C57 1_555 1_555
C56 C58 1_555 1_555

#END
