
#######################################################################
#
#                 Cambridge Crystallographic Data Centre
#                                CCDC 
#
#######################################################################
#
# If this CIF has been generated from an entry in the Cambridge 
# Structural Database, then it will include bibliographic, chemical, 
# crystal, experimental, refinement or atomic coordinate data resulting 
# from the CCDC's data processing and validation procedures.
#
#######################################################################

data_TAMFIZ
_chemical_name_common            
'1-(8-(4-(t-pentyl)phenoxy)octyl)piperidine hydrogen oxalate'
_chemical_formula_moiety         'C24 H42 N1 O1 1+,C2 H1 O4 1-'
_chemical_name_systematic        
'1-(8-(4-(2-methylbutan-2-yl)phenoxy)octyl)piperidinium hydrogen oxalate'
_chemical_properties_biological  'Histamine H3 receptor affinity'
_symmetry_cell_setting           triclinic
_symmetry_space_group_name_H-M   'P 1'
_symmetry_Int_Tables_number      1
_space_group_name_Hall           'P 1'
loop_
_symmetry_equiv_pos_site_id
_symmetry_equiv_pos_as_xyz
1 x,y,z
_cell_length_a                   8.4543(2)
_cell_length_b                   11.1330(3)
_cell_length_c                   14.7601(11)
_cell_angle_alpha                89.3630(10)
_cell_angle_beta                 84.8700(9)
_cell_angle_gamma                73.511(6)
_cell_volume                     1326.63
_exptl_crystal_colour            colorless
_exptl_crystal_description       plate
_chemical_melting_point          '126-128 deg.C'
_cell_formula_units_Z            2
loop_
_atom_site_label
_atom_site_type_symbol
_atom_site_fract_x
_atom_site_fract_y
_atom_site_fract_z
C1 C -0.1625(11) 0.8273(9) 0.9702(8)
H1 H -0.1579 0.8896 0.9243
H2 H -0.2690 0.8105 0.9702
C2 C -0.1492(14) 0.8782(10) 1.0596(9)
H3 H -0.2406 0.9531 1.0726
H4 H -0.0472 0.9020 1.0578
C3 C -0.1510(19) 0.7884(12) 1.1334(9)
H5 H -0.2568 0.7699 1.1399
H6 H -0.1351 0.8239 1.1904
C4 C -0.0114(14) 0.6684(12) 1.1102(8)
H7 H 0.0946 0.6860 1.1099
H8 H -0.0156 0.6065 1.1564
C5 C -0.0260(11) 0.6160(8) 1.0182(8)
H9 H 0.0664 0.5420 1.0042
H10 H -0.1273 0.5910 1.0203
C6 C -0.0218(11) 0.6400(7) 0.8557(7)
H11 H 0.0589 0.5585 0.8574
H12 H -0.1291 0.6261 0.8513
C7 C 0.0180(17) 0.7010(17) 0.7770(8)
H13 H 0.1271 0.7121 0.7800
H14 H -0.0604 0.7837 0.7760
C8 C 0.0167(18) 0.6334(12) 0.6898(10)
H15 H 0.0002 0.6928 0.6405
H16 H -0.0750 0.5969 0.6948
C9 C 0.1818(14) 0.5281(10) 0.6673(9)
H17 H 0.2727 0.5654 0.6587
H18 H 0.2018 0.4718 0.7184
C10 C 0.1782(15) 0.4583(12) 0.5875(11)
H19 H 0.1537 0.5141 0.5365
H20 H 0.0927 0.4158 0.5968
C11 C 0.342(2) 0.3656(18) 0.5682(11)
H21 H 0.3639 0.3195 0.6240
H22 H 0.3256 0.3069 0.5244
C12 C 0.4898(18) 0.3905(15) 0.5372(10)
H23 H 0.5310 0.4218 0.5886
H24 H 0.4638 0.4582 0.4941
C13 C 0.6313(16) 0.2856(14) 0.4922(11)
H25 H 0.6561 0.2144 0.5324
H26 H 0.5983 0.2589 0.4363
C14 C 0.9002(9) 0.2523(8) 0.4163(5)
C15 C 1.0269(11) 0.3068(8) 0.3930(8)
H27 H 1.0238 0.3832 0.4192
C16 C 1.1582(10) 0.2473(9) 0.3307(8)
H28 H 1.2430 0.2837 0.3151
C17 C 1.1628(9) 0.1331(8) 0.2916(6)
C18 C 1.0361(11) 0.0786(7) 0.3149(7)
H29 H 1.0392 0.0023 0.2888
C19 C 0.9048(9) 0.1382(8) 0.3773(6)
H30 H 0.8201 0.1017 0.3929
C20 C 1.3054(15) 0.0721(14) 0.2202(9)
C21 C 1.339(3) 0.178(2) 0.1551(15)
H31 H 1.3604 0.1469 0.0934
H32 H 1.4328 0.2012 0.1726
H33 H 1.2432 0.2498 0.1597
C22 C 1.253(3) -0.022(2) 0.1593(12)
H34 H 1.3503 -0.0773 0.1276
H35 H 1.1815 0.0236 0.1161
H36 H 1.1962 -0.0702 0.1970
C23 C 1.4266(19) -0.0329(14) 0.2706(15)
H37 H 1.3688 -0.0713 0.3169
H38 H 1.4965 -0.0969 0.2289
C24 C 1.522(2) 0.044(2) 0.3111(16)
H39 H 1.5112 0.1201 0.2772
H40 H 1.6371 -0.0023 0.3087
H41 H 1.4801 0.0650 0.3732
N1 N -0.0274(8) 0.7091(6) 0.9456(5)
H42 H 0.0692 0.7302 0.9442
O1 O 0.7711(12) 0.3259(11) 0.4732(7)
C25 C -0.5167(18) 0.9009(15) 0.6097(12)
C26 C 0.9652(10) 0.1418(8) -0.1314(8)
H43 H 0.9640 0.0820 -0.0832
H44 H 1.0691 0.1629 -0.1329
C27 C 0.9544(13) 0.0829(9) -0.2208(9)
H45 H 0.8570 0.0528 -0.2171
H46 H 1.0510 0.0116 -0.2337
C28 C 0.9446(14) 0.1777(12) -0.2987(9)
H47 H 1.0491 0.1979 -0.3088
H48 H 0.9253 0.1407 -0.3543
C29 C 0.8101(16) 0.2928(11) -0.2762(8)
H49 H 0.7045 0.2742 -0.2741
H50 H 0.8119 0.3539 -0.3234
C30 C 0.8272(11) 0.3475(8) -0.1857(8)
H51 H 0.9293 0.3713 -0.1890
H52 H 0.7358 0.4222 -0.1721
C31 C 0.8430(12) 0.3121(13) -0.0234(7)
H53 H 0.9559 0.3161 -0.0224
H54 H 0.7715 0.3975 -0.0206
C32 C 0.8023(15) 0.2489(8) 0.0569(8)
H55 H 0.8869 0.1698 0.0610
H56 H 0.6981 0.2306 0.0512
C33 C 0.7876(15) 0.3243(11) 0.1449(8)
H57 H 0.7904 0.2667 0.1949
H58 H 0.8867 0.3518 0.1446
C34 C 0.646(2) 0.4344(16) 0.1669(10)
H59 H 0.6550 0.4973 0.1223
H60 H 0.5475 0.4102 0.1555
C35 C 0.614(2) 0.491(2) 0.2465(12)
H61 H 0.7155 0.5103 0.2574
H62 H 0.6040 0.4265 0.2893
C36 C 0.4721(17) 0.6110(13) 0.2823(12)
H63 H 0.4976 0.6413 0.3390
H64 H 0.4597 0.6774 0.2380
C37 C 0.3128(16) 0.5704(12) 0.2968(9)
H65 H 0.2792 0.5524 0.2385
H66 H 0.3327 0.4947 0.3325
C38 C 0.1776(16) 0.6732(10) 0.3454(8)
H67 H 0.2120 0.6922 0.4033
H68 H 0.1564 0.7484 0.3092
C39 C -0.0935(10) 0.7025(7) 0.4234(6)
C40 C -0.2221(11) 0.6500(7) 0.4465(7)
H69 H -0.2198 0.5733 0.4212
C41 C -0.3542(10) 0.7120(9) 0.5076(8)
H70 H -0.4403 0.6768 0.5231
C42 C -0.3577(9) 0.8266(8) 0.5454(6)
C43 C -0.2291(10) 0.8792(6) 0.5222(6)
H71 H -0.2314 0.9558 0.5476
C44 C -0.0970(9) 0.8171(7) 0.4612(6)
H72 H -0.0109 0.8523 0.4457
C45 C -0.6648(19) 0.955(3) 0.5575(14)
H73 H -0.7542 0.9229 0.5808
H74 H -0.6365 0.9322 0.4943
H75 H -0.6983 1.0447 0.5639
C46 C -0.469(4) 0.9859(19) 0.6802(17)
H76 H -0.3517 0.9581 0.6848
H77 H -0.5263 0.9806 0.7385
H78 H -0.4997 1.0712 0.6603
C47 C -0.5858(19) 0.8137(17) 0.6616(17)
H79 H -0.6433 0.7753 0.6217
H80 H -0.6666 0.8596 0.7089
C48 C -0.4584(19) 0.713(2) 0.7046(12)
H81 H -0.3951 0.6537 0.6585
H82 H -0.5126 0.6700 0.7487
H83 H -0.3858 0.7490 0.7339
N2 N 0.8282(8) 0.2547(6) -0.1114(5)
H84 H 0.7301 0.2357 -0.1086
O2 O 0.0337(11) 0.6356(8) 0.3601(6)
C49 C 0.3623(9) 0.3043(7) 0.9047(6)
C50 C 0.4447(9) 0.1607(6) 0.9034(6)
O3 O 0.2216(7) 0.3446(6) 0.8930(7)
O4 O 0.4621(7) 0.3673(5) 0.9130(6)
H85 H 0.4129 0.4421 0.9115
O5 O 0.3410(7) 0.0967(5) 0.9092(5)
O6 O 0.5956(7) 0.1187(5) 0.9050(5)
C51 C 0.4379(9) 0.6617(7) 0.9351(6)
C52 C 0.3573(8) 0.8043(7) 0.9305(6)
O7 O 0.3356(8) 0.5970(6) 0.9260(7)
O8 O 0.5857(6) 0.6188(5) 0.9421(6)
O9 O 0.2090(6) 0.8440(5) 0.9316(5)
O10 O 0.4577(7) 0.8684(5) 0.9274(5)
H86 H 0.4066 0.9429 0.9327
loop_
_geom_bond_atom_site_label_1
_geom_bond_atom_site_label_2
_geom_bond_site_symmetry_1
_geom_bond_site_symmetry_2
C1 H1 1_555 1_555
H2 C1 1_555 1_555
C2 C1 1_555 1_555
H3 C2 1_555 1_555
H4 C2 1_555 1_555
C3 C2 1_555 1_555
H5 C3 1_555 1_555
H6 C3 1_555 1_555
C4 C3 1_555 1_555
H7 C4 1_555 1_555
H8 C4 1_555 1_555
C5 C4 1_555 1_555
H9 C5 1_555 1_555
H10 C5 1_555 1_555
C6 H11 1_555 1_555
H12 C6 1_555 1_555
C7 C6 1_555 1_555
H13 C7 1_555 1_555
H14 C7 1_555 1_555
C8 C7 1_555 1_555
H15 C8 1_555 1_555
H16 C8 1_555 1_555
C9 C8 1_555 1_555
H17 C9 1_555 1_555
H18 C9 1_555 1_555
C10 C9 1_555 1_555
H19 C10 1_555 1_555
H20 C10 1_555 1_555
C11 C10 1_555 1_555
H21 C11 1_555 1_555
H22 C11 1_555 1_555
C12 C11 1_555 1_555
H23 C12 1_555 1_555
H24 C12 1_555 1_555
C13 C12 1_555 1_555
H25 C13 1_555 1_555
H26 C13 1_555 1_555
C14 C15 1_555 1_555
C15 H27 1_555 1_555
C16 C15 1_555 1_555
H28 C16 1_555 1_555
C17 C16 1_555 1_555
C18 C17 1_555 1_555
H29 C18 1_555 1_555
C19 C14 1_555 1_555
H30 C19 1_555 1_555
C20 C17 1_555 1_555
C21 C20 1_555 1_555
H31 C21 1_555 1_555
H32 C21 1_555 1_555
H33 C21 1_555 1_555
C22 C20 1_555 1_555
H34 C22 1_555 1_555
H35 C22 1_555 1_555
H36 C22 1_555 1_555
C23 C20 1_555 1_555
H37 C23 1_555 1_555
H38 C23 1_555 1_555
C24 C23 1_555 1_555
H39 C24 1_555 1_555
H40 C24 1_555 1_555
H41 C24 1_555 1_555
N1 C1 1_555 1_555
H42 N1 1_555 1_555
O1 C13 1_555 1_555
C25 C42 1_555 1_555
C26 H43 1_555 1_555
H44 C26 1_555 1_555
C27 C26 1_555 1_555
H45 C27 1_555 1_555
H46 C27 1_555 1_555
C28 C27 1_555 1_555
H47 C28 1_555 1_555
H48 C28 1_555 1_555
C29 C28 1_555 1_555
H49 C29 1_555 1_555
H50 C29 1_555 1_555
C30 C29 1_555 1_555
H51 C30 1_555 1_555
H52 C30 1_555 1_555
C31 H53 1_555 1_555
H54 C31 1_555 1_555
C32 C31 1_555 1_555
H55 C32 1_555 1_555
H56 C32 1_555 1_555
C33 C32 1_555 1_555
H57 C33 1_555 1_555
H58 C33 1_555 1_555
C34 C33 1_555 1_555
H59 C34 1_555 1_555
H60 C34 1_555 1_555
C35 C34 1_555 1_555
H61 C35 1_555 1_555
H62 C35 1_555 1_555
C36 C35 1_555 1_555
H63 C36 1_555 1_555
H64 C36 1_555 1_555
C37 C36 1_555 1_555
H65 C37 1_555 1_555
H66 C37 1_555 1_555
C38 C37 1_555 1_555
H67 C38 1_555 1_555
H68 C38 1_555 1_555
C39 C40 1_555 1_555
C40 H69 1_555 1_555
C41 C40 1_555 1_555
H70 C41 1_555 1_555
C42 C41 1_555 1_555
C43 C42 1_555 1_555
H71 C43 1_555 1_555
C44 C39 1_555 1_555
H72 C44 1_555 1_555
C45 C25 1_555 1_555
H73 C45 1_555 1_555
H74 C45 1_555 1_555
H75 C45 1_555 1_555
C46 C25 1_555 1_555
H76 C46 1_555 1_555
H77 C46 1_555 1_555
H78 C46 1_555 1_555
C47 C25 1_555 1_555
H79 C47 1_555 1_555
H80 C47 1_555 1_555
C48 C47 1_555 1_555
H81 C48 1_555 1_555
H82 C48 1_555 1_555
H83 C48 1_555 1_555
N2 C26 1_555 1_555
H84 N2 1_555 1_555
O2 C38 1_555 1_555
C49 C50 1_555 1_555
C50 O5 1_555 1_555
O3 C49 1_555 1_555
O4 C49 1_555 1_555
H85 O4 1_555 1_555
O6 C50 1_555 1_555
C51 C52 1_555 1_555
C52 O9 1_555 1_555
O7 C51 1_555 1_555
O8 C51 1_555 1_555
O10 C52 1_555 1_555
H86 O10 1_555 1_555
C5 N1 1_555 1_555
C6 N1 1_555 1_555
C14 O1 1_555 1_555
C18 C19 1_555 1_555
C30 N2 1_555 1_555
C31 N2 1_555 1_555
C39 O2 1_555 1_555
C43 C44 1_555 1_555

#END
