
#######################################################################
#
#                 Cambridge Crystallographic Data Centre
#                                CCDC 
#
#######################################################################
#
# If this CIF has been generated from an entry in the Cambridge 
# Structural Database, then it will include bibliographic, chemical, 
# crystal, experimental, refinement or atomic coordinate data resulting 
# from the CCDC's data processing and validation procedures.
#
#######################################################################

data_TAMPUU
_chemical_formula_moiety         'C15 H5 B1 Br6 F2 N2'
_chemical_name_systematic        
1,2,3,7,8,9-Hexabromo-5,5-difluoro-10-phenyl-5H-4\l^5^,5\l^5^-dipyrrolo[1,2-c:2',1'-f][1,3,2]diazaborinine
_symmetry_cell_setting           monoclinic
_symmetry_space_group_name_H-M   'C 2/c'
_symmetry_Int_Tables_number      15
_space_group_name_Hall           '-C 2yn'
loop_
_symmetry_equiv_pos_site_id
_symmetry_equiv_pos_as_xyz
1 x,y,z
2 -x,y,1/2-z
3 1/2+x,1/2+y,z
4 1/2-x,1/2+y,1/2-z
5 -x,-y,-z
6 x,-y,1/2+z
7 1/2-x,1/2-y,-z
8 1/2+x,1/2-y,1/2+z
_cell_length_a                   13.367(2)
_cell_length_b                   18.949(3)
_cell_length_c                   7.8492(13)
_cell_angle_alpha                90
_cell_angle_beta                 90.778(2)
_cell_angle_gamma                90
_cell_volume                     1987.95
_exptl_crystal_colour            red
_exptl_crystal_description       block
_cell_formula_units_Z            4
_exptl_crystal_recrystallization_method dichloromethane/hexane
loop_
_atom_site_label
_atom_site_type_symbol
_atom_site_fract_x
_atom_site_fract_y
_atom_site_fract_z
B1 B 0.0000 -0.0410(3) 0.2500
Br1 Br 0.22628(3) -0.10558(2) 0.19441(6)
Br2 Br 0.38482(3) 0.04276(3) 0.15063(8)
Br3 Br 0.23989(3) 0.19592(2) 0.19600(7)
C1 C 0.1863(3) -0.0123(2) 0.2056(5)
C2 C 0.2485(3) 0.0463(2) 0.1905(5)
C3 C 0.1897(3) 0.10468(19) 0.2090(5)
C4 C 0.0900(2) 0.08204(18) 0.2357(4)
C5 C 0.0000 0.1184(2) 0.2500
C6 C 0.0000 0.1968(2) 0.2500
C7 C 0.0169(3) 0.2331(2) 0.3995(6)
H1 H 0.0286 0.2086 0.5005
C8 C 0.0164(4) 0.3058(2) 0.3989(7)
H2 H 0.0273 0.3306 0.4998
C9 C 0.0000 0.3415(3) 0.2500
H3 H 0.0000 0.3906 0.2500
F1 F 0.01051(16) -0.08183(11) 0.3924(3)
N1 N 0.0917(2) 0.00841(15) 0.2327(3)
Br1A Br -0.22628(3) -0.10558(2) 0.30559(6)
Br2A Br -0.38482(3) 0.04276(3) 0.34937(8)
Br3A Br -0.23989(3) 0.19592(2) 0.30400(7)
C1A C -0.1863(3) -0.0123(2) 0.2944(5)
C2A C -0.2485(3) 0.0463(2) 0.3095(5)
C3A C -0.1897(3) 0.10468(19) 0.2910(5)
C4A C -0.0900(2) 0.08204(18) 0.2643(4)
C7A C -0.0169(3) 0.2331(2) 0.1005(6)
H1A H -0.0286 0.2086 -0.0005
C8A C -0.0164(4) 0.3058(2) 0.1011(7)
H2A H -0.0273 0.3306 0.0002
F1A F -0.01051(16) -0.08183(11) 0.1076(3)
N1A N -0.0917(2) 0.00841(15) 0.2673(3)
loop_
_geom_bond_atom_site_label_1
_geom_bond_atom_site_label_2
_geom_bond_site_symmetry_1
_geom_bond_site_symmetry_2
B1 F1 1_555 1_555
Br1 C1 1_555 1_555
Br2 C2 1_555 1_555
Br3 C3 1_555 1_555
C1 C2 1_555 1_555
C2 C3 1_555 1_555
C3 C4 1_555 1_555
C4 C5 1_555 1_555
C5 C6 1_555 1_555
C6 C7 1_555 1_555
C7 H1 1_555 1_555
C8 C7 1_555 1_555
H2 C8 1_555 1_555
C9 C8 1_555 1_555
H3 C9 1_555 1_555
N1 B1 1_555 1_555
Br1A C1A 1_555 1_555
Br2A C2A 1_555 1_555
Br3A C3A 1_555 1_555
C1A C2A 1_555 1_555
C2A C3A 1_555 1_555
C3A C4A 1_555 1_555
C4A C5 1_555 1_555
C7A C6 1_555 1_555
H1A C7A 1_555 1_555
C8A C9 1_555 1_555
H2A C8A 1_555 1_555
F1A B1 1_555 1_555
N1A B1 1_555 1_555
C1 N1 1_555 1_555
C4 N1 1_555 1_555
C1A N1A 1_555 1_555
C4A N1A 1_555 1_555
C7A C8A 1_555 1_555

#END
