
#######################################################################
#
#                 Cambridge Crystallographic Data Centre
#                                CCDC 
#
#######################################################################
#
# If this CIF has been generated from an entry in the Cambridge 
# Structural Database, then it will include bibliographic, chemical, 
# crystal, experimental, refinement or atomic coordinate data resulting 
# from the CCDC's data processing and validation procedures.
#
#######################################################################

data_TAMPOO
_chemical_formula_moiety         'C15 H7 B1 Br4 F2 N2'
_chemical_name_systematic        
2,3,7,8-Tetrabromo-5,5-difluoro-10-phenyl-5H-4\l^5^,5\l^5^-dipyrrolo[1,2-c:2',1'-f][1,3,2]diazaborinine
_symmetry_cell_setting           monoclinic
_symmetry_space_group_name_H-M   'C 2/c'
_symmetry_Int_Tables_number      15
_space_group_name_Hall           '-C 2yn'
loop_
_symmetry_equiv_pos_site_id
_symmetry_equiv_pos_as_xyz
1 x,y,z
2 -x,y,1/2-z
3 1/2+x,1/2+y,z
4 1/2-x,1/2+y,1/2-z
5 -x,-y,-z
6 x,-y,1/2+z
7 1/2-x,1/2-y,-z
8 1/2+x,1/2-y,1/2+z
_cell_length_a                   18.795(10)
_cell_length_b                   11.342(6)
_cell_length_c                   8.188(4)
_cell_angle_alpha                90
_cell_angle_beta                 100.865(7)
_cell_angle_gamma                90
_cell_volume                     1714.17
_exptl_crystal_colour            red
_exptl_crystal_description       block
_cell_formula_units_Z            4
_exptl_crystal_recrystallization_method dichloromethane/hexane
loop_
_atom_site_label
_atom_site_type_symbol
_atom_site_fract_x
_atom_site_fract_y
_atom_site_fract_z
B1 B 0.0000 1.1025(4) 0.7500
Br1 Br 0.274555(16) 0.96009(3) 1.01900(5)
C1 C 0.13496(15) 1.0526(3) 0.8596(4)
F1 F -0.00570(9) 1.17103(16) 0.8846(2)
N1 N 0.06670(12) 1.0190(2) 0.7942(3)
Br2 Br 0.165175(17) 1.20855(3) 0.86632(5)
C2 C 0.17744(15) 0.9546(3) 0.9130(4)
C3 C 0.13430(15) 0.8567(3) 0.8795(4)
H1 H 0.1482 0.7788 0.9022
C4 C 0.06486(14) 0.8968(2) 0.8040(4)
C5 C 0.0000 0.8342(3) 0.7500
C6 C 0.0000 0.7046(3) 0.7500
C7 C -0.05315(16) 0.6414(3) 0.8109(4)
H2 H -0.0890 0.6816 0.8525
C8 C -0.05292(19) 0.5195(3) 0.8101(4)
H3 H -0.0888 0.4784 0.8504
C9 C 0.0000 0.4586(4) 0.7500
H4 H 0.0000 0.3766 0.7500
Br1A Br -0.274555(16) 0.96009(3) 0.48100(5)
C1A C -0.13496(15) 1.0526(3) 0.6404(4)
F1A F 0.00570(9) 1.17103(16) 0.6154(2)
N1A N -0.06670(12) 1.0190(2) 0.7058(3)
Br2A Br -0.165175(17) 1.20855(3) 0.63368(5)
C2A C -0.17744(15) 0.9546(3) 0.5870(4)
C3A C -0.13430(15) 0.8567(3) 0.6205(4)
H1A H -0.1482 0.7788 0.5978
C4A C -0.06486(14) 0.8968(2) 0.6960(4)
C7A C 0.05315(16) 0.6414(3) 0.6891(4)
H2A H 0.0890 0.6816 0.6475
C8A C 0.05292(19) 0.5195(3) 0.6899(4)
H3A H 0.0888 0.4784 0.6496
loop_
_geom_bond_atom_site_label_1
_geom_bond_atom_site_label_2
_geom_bond_site_symmetry_1
_geom_bond_site_symmetry_2
B1 F1 1_555 1_555
Br1 C2 1_555 1_555
C1 N1 1_555 1_555
N1 B1 1_555 1_555
Br2 C1 1_555 1_555
C2 C1 1_555 1_555
C3 C2 1_555 1_555
H1 C3 1_555 1_555
C4 N1 1_555 1_555
C5 C4 1_555 1_555
C6 C5 1_555 1_555
C7 C6 1_555 1_555
H2 C7 1_555 1_555
C8 C7 1_555 1_555
H3 C8 1_555 1_555
C9 C8 1_555 1_555
H4 C9 1_555 1_555
Br1A C2A 1_555 1_555
C1A N1A 1_555 1_555
F1A B1 1_555 1_555
N1A B1 1_555 1_555
Br2A C1A 1_555 1_555
C2A C1A 1_555 1_555
C3A C2A 1_555 1_555
H1A C3A 1_555 1_555
C4A C5 1_555 1_555
C7A C6 1_555 1_555
H2A C7A 1_555 1_555
C8A C9 1_555 1_555
H3A C8A 1_555 1_555
C3 C4 1_555 1_555
N1A C4A 1_555 1_555
C3A C4A 1_555 1_555
C7A C8A 1_555 1_555

#END
