
#######################################################################
#
#                 Cambridge Crystallographic Data Centre
#                                CCDC 
#
#######################################################################
#
# If this CIF has been generated from an entry in the Cambridge 
# Structural Database, then it will include bibliographic, chemical, 
# crystal, experimental, refinement or atomic coordinate data resulting 
# from the CCDC's data processing and validation procedures.
#
#######################################################################

data_TAMQIJ
_chemical_formula_moiety         'C16 H9 B1 Br4 F2 N2 O1'
_chemical_name_systematic        
2,3,7,8-Tetrabromo-5,5-difluoro-10-(4-methoxyphenyl)-5H-4\l^5^,5\l^5^-dipyrrolo[1,2-c:2',1'-f][1,3,2]diazaborinine
_symmetry_cell_setting           triclinic
_symmetry_space_group_name_H-M   'P -1'
_symmetry_Int_Tables_number      2
_space_group_name_Hall           '-P 1'
loop_
_symmetry_equiv_pos_site_id
_symmetry_equiv_pos_as_xyz
1 x,y,z
2 -x,-y,-z
_cell_length_a                   8.0077(9)
_cell_length_b                   11.2415(13)
_cell_length_c                   11.3767(13)
_cell_angle_alpha                73.2940(10)
_cell_angle_beta                 74.2140(10)
_cell_angle_gamma                83.9630(10)
_cell_volume                     943.49
_exptl_crystal_colour            red
_exptl_crystal_description       block
_cell_formula_units_Z            2
_exptl_crystal_recrystallization_method dichloromethane/hexane
loop_
_atom_site_label
_atom_site_type_symbol
_atom_site_fract_x
_atom_site_fract_y
_atom_site_fract_z
Br1 Br 0.90452(9) 0.43565(5) 0.77216(5)
Br2 Br 0.69846(7) -0.20580(5) 0.32788(6)
Br3 Br 0.75430(8) -0.27002(4) 0.63941(6)
Br4 Br 0.82990(9) 0.11154(5) 0.91776(5)
F1 F 0.8911(4) -0.0637(2) 0.7329(3)
F2 F 0.5998(4) -0.0340(3) 0.7801(3)
O1 O 0.7167(6) 0.5929(3) 0.0167(3)
N1 N 0.7783(5) 0.1447(3) 0.6747(3)
N2 N 0.7509(5) -0.0087(3) 0.5615(3)
C1 C 0.8158(6) 0.1980(4) 0.7549(4)
C2 C 0.8398(6) 0.3254(4) 0.6990(4)
C3 C 0.8151(6) 0.3509(4) 0.5792(4)
H1 H 0.8231 0.4280 0.5196
C4 C 0.7756(6) 0.2385(4) 0.5637(4)
C5 C 0.7471(5) 0.2124(4) 0.4573(4)
C6 C 0.7378(5) 0.3149(4) 0.3438(4)
C7 C 0.6267(6) 0.4175(4) 0.3530(4)
H2 H 0.5599 0.4228 0.4323
C8 C 0.6137(6) 0.5125(4) 0.2455(4)
H3 H 0.5373 0.5798 0.2528
C9 C 0.7152(7) 0.5057(4) 0.1283(4)
C10 C 0.8287(7) 0.4045(4) 0.1175(4)
H4 H 0.8975 0.4005 0.0383
C11 C 0.8391(6) 0.3099(4) 0.2243(4)
H5 H 0.9144 0.2421 0.2165
C12 C 0.7328(6) 0.0903(4) 0.4569(4)
C13 C 0.7057(6) 0.0402(4) 0.3640(4)
H6 H 0.6862 0.0850 0.2862
C14 C 0.7133(6) -0.0865(4) 0.4091(5)
C15 C 0.7383(6) -0.1134(4) 0.5313(5)
B1 B 0.7535(7) 0.0036(4) 0.6943(5)
C16 C 0.6011(12) 0.6990(7) 0.0202(6)
H7 H 0.4832 0.6726 0.0484
H8 H 0.6200 0.7555 -0.0632
H9 H 0.6226 0.7400 0.0777
loop_
_geom_bond_atom_site_label_1
_geom_bond_atom_site_label_2
_geom_bond_site_symmetry_1
_geom_bond_site_symmetry_2
Br1 C2 1_555 1_555
Br2 C14 1_555 1_555
Br3 C15 1_555 1_555
Br4 C1 1_555 1_555
F1 B1 1_555 1_555
F2 B1 1_555 1_555
O1 C9 1_555 1_555
N1 C1 1_555 1_555
N2 C12 1_555 1_555
C1 C2 1_555 1_555
C2 C3 1_555 1_555
C3 H1 1_555 1_555
C4 N1 1_555 1_555
C5 C4 1_555 1_555
C6 C5 1_555 1_555
C7 C6 1_555 1_555
H2 C7 1_555 1_555
C8 C7 1_555 1_555
H3 C8 1_555 1_555
C9 C8 1_555 1_555
C10 C9 1_555 1_555
H4 C10 1_555 1_555
C11 C6 1_555 1_555
H5 C11 1_555 1_555
C12 C5 1_555 1_555
C13 C12 1_555 1_555
H6 C13 1_555 1_555
C14 C13 1_555 1_555
C15 N2 1_555 1_555
B1 N1 1_555 1_555
C16 O1 1_555 1_555
H7 C16 1_555 1_555
H8 C16 1_555 1_555
H9 C16 1_555 1_555
N2 B1 1_555 1_555
C3 C4 1_555 1_555
C10 C11 1_555 1_555
C14 C15 1_555 1_555

#END
