
#######################################################################
#
#                 Cambridge Crystallographic Data Centre
#                                CCDC 
#
#######################################################################
#
# If this CIF has been generated from an entry in the Cambridge 
# Structural Database, then it will include bibliographic, chemical, 
# crystal, experimental, refinement or atomic coordinate data resulting 
# from the CCDC's data processing and validation procedures.
#
#######################################################################

data_TAMRIK
_chemical_formula_moiety         'C43 H33 B1 Br2 F2 N2 S4'
_chemical_name_systematic        
"2,8-Dibromo-5,5-difluoro-1,3,7,9-tetrakis((4-methylphenyl)sulfanyl)-10-phenyl-5H-6\l^5^,5\l^5^-dipyrrolo[1,2-c:2',1'-f][1,3,2]diazaborinine unknown solvate"
_symmetry_cell_setting           triclinic
_symmetry_space_group_name_H-M   'P -1'
_symmetry_Int_Tables_number      2
_space_group_name_Hall           '-P 1'
loop_
_symmetry_equiv_pos_site_id
_symmetry_equiv_pos_as_xyz
1 x,y,z
2 -x,-y,-z
_cell_length_a                   12.6861(9)
_cell_length_b                   13.9611(10)
_cell_length_c                   14.4382(10)
_cell_angle_alpha                62.897(1)
_cell_angle_beta                 79.707(1)
_cell_angle_gamma                67.317(1)
_cell_volume                     2100.29
_exptl_crystal_colour            blue
_exptl_crystal_description       block
_cell_formula_units_Z            2
_exptl_crystal_recrystallization_method dichloromethane/hexane
loop_
_atom_site_label
_atom_site_type_symbol
_atom_site_fract_x
_atom_site_fract_y
_atom_site_fract_z
B1 B 0.6694(3) 0.9419(2) -0.0551(2)
Br1 Br 0.72571(3) 1.10641(3) 0.20593(2)
Br2 Br 0.54490(3) 0.61466(3) -0.06890(3)
C1 C 0.7859(2) 1.2141(2) -0.0467(2)
C2 C 0.7588(2) 1.3302(2) -0.0825(2)
H1 H 0.6851 1.3799 -0.1048
C3 C 0.8414(3) 1.3728(3) -0.0851(3)
H2 H 0.8232 1.4517 -0.1114
C4 C 0.9513(3) 1.3002(3) -0.0493(2)
C5 C 0.9754(2) 1.1839(3) -0.0104(2)
H3 H 1.0476 1.1335 0.0163
C6 C 0.8946(2) 1.1412(3) -0.0102(2)
H4 H 0.9131 1.0624 0.0147
C7 C 1.0414(3) 1.3485(3) -0.0533(3)
H5 H 1.1049 1.2882 -0.0105
H6 H 1.0093 1.4069 -0.0282
H7 H 1.0669 1.3811 -0.1238
C8 C 0.6949(2) 1.0395(2) 0.0508(2)
C9 C 0.7130(2) 1.0110(2) 0.1548(2)
C10 C 0.7118(2) 0.9004(2) 0.2150(2)
C11 C 0.6853(2) 0.8652(2) 0.1459(2)
C12 C 0.8814(3) 0.8238(2) 0.3516(2)
C13 C 0.9610(3) 0.8218(3) 0.2730(3)
H8 H 0.9424 0.8225 0.2133
C14 C 1.0674(3) 0.8190(4) 0.2833(3)
H9 H 1.1198 0.8186 0.2293
C15 C 1.0997(3) 0.8166(3) 0.3704(3)
C16 C 1.0209(3) 0.8164(3) 0.4477(3)
H10 H 1.0409 0.8128 0.5084
C17 C 0.9121(3) 0.8213(3) 0.4390(2)
H11 H 0.8595 0.8229 0.4927
C18 C 1.2177(3) 0.8188(4) 0.3759(3)
H12 H 1.2683 0.7920 0.3280
H13 H 1.2470 0.7699 0.4452
H14 H 1.2120 0.8958 0.3578
C19 C 0.6597(2) 0.7699(2) 0.1659(2)
C20 C 0.6365(2) 0.7529(2) 0.0837(2)
C21 C 0.6035(2) 0.6667(2) 0.0827(2)
C22 C 0.5948(2) 0.6935(2) -0.0210(2)
C23 C 0.6185(2) 0.7937(2) -0.0828(2)
C24 C 0.6526(2) 0.6867(2) 0.2760(2)
C25 C 0.7377(3) 0.5828(3) 0.3196(2)
H15 H 0.8014 0.5623 0.2801
C26 C 0.7293(4) 0.5082(3) 0.4222(3)
H16 H 0.7875 0.4377 0.4519
C27 C 0.6344(4) 0.5387(4) 0.4802(3)
H17 H 0.6280 0.4883 0.5490
C28 C 0.5497(3) 0.6431(4) 0.4366(3)
H18 H 0.4860 0.6638 0.4760
C29 C 0.5585(3) 0.7179(3) 0.3345(2)
H19 H 0.5012 0.7891 0.3053
C30 C 0.6827(3) 0.4347(2) 0.2159(2)
C31 C 0.7828(3) 0.4281(3) 0.1599(2)
H20 H 0.7887 0.4923 0.1012
C32 C 0.8749(3) 0.3264(3) 0.1903(3)
H21 H 0.9422 0.3240 0.1517
C33 C 0.8703(3) 0.2296(3) 0.2749(3)
C34 C 0.7688(4) 0.2361(3) 0.3302(3)
H22 H 0.7628 0.1710 0.3878
C35 C 0.6755(3) 0.3378(3) 0.3014(2)
H23 H 0.6082 0.3404 0.3400
C36 C 0.9715(4) 0.1187(3) 0.3055(4)
H24 H 0.9966 0.1009 0.2467
H25 H 0.9496 0.0579 0.3609
H26 H 1.0326 0.1270 0.3286
C37 C 0.7001(3) 0.7653(2) -0.2591(2)
C38 C 0.6559(3) 0.7312(3) -0.3142(3)
H27 H 0.5778 0.7615 -0.3269
C39 C 0.7274(4) 0.6516(3) -0.3512(3)
H28 H 0.6960 0.6274 -0.3865
C40 C 0.8438(4) 0.6077(3) -0.3365(3)
C41 C 0.8865(3) 0.6427(3) -0.2821(3)
H29 H 0.9647 0.6132 -0.2703
C42 C 0.8167(3) 0.7206(3) -0.2441(2)
H30 H 0.8485 0.7435 -0.2078
C43 C 0.9202(4) 0.5225(4) -0.3792(3)
H31 H 0.9986 0.5036 -0.3650
H32 H 0.9095 0.5558 -0.4530
H33 H 0.9009 0.4542 -0.3467
F1 F 0.57968(13) 1.03446(12) -0.11515(12)
F2 F 0.77020(13) 0.93503(13) -0.10937(12)
N1 N 0.67905(17) 0.95210(17) 0.04543(16)
N2 N 0.64332(17) 0.82938(17) -0.01854(16)
S1 S 0.68139(6) 1.16646(6) -0.06059(6)
S2 S 0.74398(8) 0.81917(8) 0.34801(6)
S3 S 0.56031(7) 0.56081(6) 0.18735(6)
S4 S 0.60995(7) 0.87231(6) -0.21704(6)
loop_
_geom_bond_atom_site_label_1
_geom_bond_atom_site_label_2
_geom_bond_site_symmetry_1
_geom_bond_site_symmetry_2
B1 F1 1_555 1_555
Br1 C9 1_555 1_555
Br2 C22 1_555 1_555
C1 C2 1_555 1_555
C2 H1 1_555 1_555
C3 C2 1_555 1_555
H2 C3 1_555 1_555
C4 C3 1_555 1_555
C5 C4 1_555 1_555
H3 C5 1_555 1_555
C6 C1 1_555 1_555
H4 C6 1_555 1_555
C7 C4 1_555 1_555
H5 C7 1_555 1_555
H6 C7 1_555 1_555
H7 C7 1_555 1_555
C8 C9 1_555 1_555
C9 C10 1_555 1_555
C10 C11 1_555 1_555
C11 C19 1_555 1_555
C12 C13 1_555 1_555
C13 H8 1_555 1_555
C14 C13 1_555 1_555
H9 C14 1_555 1_555
C15 C14 1_555 1_555
C16 C15 1_555 1_555
H10 C16 1_555 1_555
C17 C12 1_555 1_555
H11 C17 1_555 1_555
C18 C15 1_555 1_555
H12 C18 1_555 1_555
H13 C18 1_555 1_555
H14 C18 1_555 1_555
C19 C20 1_555 1_555
C20 C21 1_555 1_555
C21 C22 1_555 1_555
C22 C23 1_555 1_555
C23 N2 1_555 1_555
C24 C19 1_555 1_555
C25 C24 1_555 1_555
H15 C25 1_555 1_555
C26 C25 1_555 1_555
H16 C26 1_555 1_555
C27 C26 1_555 1_555
H17 C27 1_555 1_555
C28 C27 1_555 1_555
H18 C28 1_555 1_555
C29 C24 1_555 1_555
H19 C29 1_555 1_555
C30 C31 1_555 1_555
C31 H20 1_555 1_555
C32 C31 1_555 1_555
H21 C32 1_555 1_555
C33 C32 1_555 1_555
C34 C33 1_555 1_555
H22 C34 1_555 1_555
C35 C30 1_555 1_555
H23 C35 1_555 1_555
C36 C33 1_555 1_555
H24 C36 1_555 1_555
H25 C36 1_555 1_555
H26 C36 1_555 1_555
C37 C38 1_555 1_555
C38 H27 1_555 1_555
C39 C38 1_555 1_555
H28 C39 1_555 1_555
C40 C39 1_555 1_555
C41 C40 1_555 1_555
H29 C41 1_555 1_555
C42 C37 1_555 1_555
H30 C42 1_555 1_555
C43 C40 1_555 1_555
H31 C43 1_555 1_555
H32 C43 1_555 1_555
H33 C43 1_555 1_555
F2 B1 1_555 1_555
N1 B1 1_555 1_555
N2 B1 1_555 1_555
S1 C1 1_555 1_555
S2 C10 1_555 1_555
S3 C21 1_555 1_555
S4 C23 1_555 1_555
C5 C6 1_555 1_555
C8 N1 1_555 1_555
C8 S1 1_555 1_555
C11 N1 1_555 1_555
C12 S2 1_555 1_555
C16 C17 1_555 1_555
C20 N2 1_555 1_555
C28 C29 1_555 1_555
C30 S3 1_555 1_555
C34 C35 1_555 1_555
C37 S4 1_555 1_555
C41 C42 1_555 1_555

#END
