
#######################################################################
#
#                 Cambridge Crystallographic Data Centre
#                                CCDC 
#
#######################################################################
#
# If this CIF has been generated from an entry in the Cambridge 
# Structural Database, then it will include bibliographic, chemical, 
# crystal, experimental, refinement or atomic coordinate data resulting 
# from the CCDC's data processing and validation procedures.
#
#######################################################################

data_TAMROR
_chemical_formula_moiety         'C22 H17 Cl1 O4'
_chemical_name_systematic        
7-(3-chlorophenyl)-7,7a,9,10,11,11a-hexahydro-6H,8H-chromeno[4,3-b]chromene-6,8-dione
_symmetry_cell_setting           orthorhombic
_symmetry_space_group_name_H-M   'P 21 21 21'
_symmetry_Int_Tables_number      19
_space_group_name_Hall           'P 2ac 2ab'
loop_
_symmetry_equiv_pos_site_id
_symmetry_equiv_pos_as_xyz
1 x,y,z
2 1/2-x,-y,1/2+z
3 1/2+x,1/2-y,-z
4 -x,1/2+y,1/2-z
_cell_length_a                   9.3404(10)
_cell_length_b                   11.2518(11)
_cell_length_c                   16.982(2)
_cell_angle_alpha                90
_cell_angle_beta                 90
_cell_angle_gamma                90
_cell_volume                     1784.75
_exptl_crystal_colour            colorless
_exptl_crystal_description       BAR
_cell_formula_units_Z            4
loop_
_atom_site_label
_atom_site_type_symbol
_atom_site_fract_x
_atom_site_fract_y
_atom_site_fract_z
Cl1 Cl -0.07836(7) 0.98174(5) -0.41294(3)
O1 O -0.48546(14) 1.17334(11) -0.16226(8)
O2 O -0.2774(2) 1.26136(15) 0.00676(9)
O3 O -0.11183(15) 0.92550(12) -0.07303(9)
O4 O -0.33124(14) 0.85580(11) -0.07865(8)
C1 C -0.5292(2) 0.97879(17) -0.11864(10)
C2 C -0.6766(2) 0.9888(2) -0.13027(12)
H1 H -0.7155 1.0594 -0.1489
C3 C -0.7643(2) 0.8929(2) -0.11396(15)
H2 H -0.8624 0.8990 -0.1226
C4 C -0.7087(3) 0.7896(2) -0.08533(15)
H3 H -0.7696 0.7264 -0.0740
C5 C -0.5641(3) 0.77728(19) -0.07293(13)
H4 H -0.5266 0.7068 -0.0530
C6 C -0.4757(2) 0.87196(17) -0.09072(12)
C7 C -0.4277(2) 1.07223(15) -0.13500(10)
C8 C -0.28606(19) 1.05747(15) -0.12132(10)
C9 C -0.2339(2) 0.94653(16) -0.09022(12)
C10 C -0.17924(19) 1.15598(15) -0.13208(11)
H5 H -0.1169 1.1564 -0.0856
C11 C -0.0835(2) 1.14337(15) -0.20434(11)
C12 C -0.1188(2) 1.07343(17) -0.26802(11)
H6 H -0.2015 1.0275 -0.2668
C13 C -0.0316(2) 1.07124(17) -0.33375(11)
C14 C 0.0900(2) 1.13904(19) -0.33797(14)
H7 H 0.1460 1.1394 -0.3833
C15 C 0.1274(2) 1.2062(2) -0.27405(16)
H8 H 0.2108 1.2512 -0.2754
C16 C 0.0425(2) 1.20769(19) -0.20786(14)
H9 H 0.0704 1.2528 -0.1646
C17 C -0.3896(2) 1.26758(16) -0.18743(11)
H10 H -0.3570 1.2510 -0.2412
C18 C -0.26031(19) 1.27407(16) -0.13313(11)
H11 H -0.1954 1.3344 -0.1545
C19 C -0.3066(2) 1.31565(18) -0.05195(13)
C20 C -0.3935(2) 1.42690(18) -0.05071(14)
H12 H -0.3344 1.4933 -0.0672
H13 H -0.4260 1.4422 0.0026
C21 C -0.5224(2) 1.41680(19) -0.10515(14)
H14 H -0.5885 1.3582 -0.0843
H15 H -0.5717 1.4926 -0.1072
C22 C -0.4776(2) 1.38089(18) -0.18763(13)
H16 H -0.5623 1.3693 -0.2197
H17 H -0.4218 1.4445 -0.2110
loop_
_geom_bond_atom_site_label_1
_geom_bond_atom_site_label_2
_geom_bond_site_symmetry_1
_geom_bond_site_symmetry_2
Cl1 C13 1_555 1_555
O1 C7 1_555 1_555
O2 C19 1_555 1_555
O3 C9 1_555 1_555
O4 C6 1_555 1_555
C1 C2 1_555 1_555
C2 H1 1_555 1_555
C3 C2 1_555 1_555
H2 C3 1_555 1_555
C4 C3 1_555 1_555
H3 C4 1_555 1_555
C5 C4 1_555 1_555
H4 C5 1_555 1_555
C6 C1 1_555 1_555
C7 C1 1_555 1_555
C8 C7 1_555 1_555
C9 O4 1_555 1_555
C10 C8 1_555 1_555
H5 C10 1_555 1_555
C11 C10 1_555 1_555
C12 C11 1_555 1_555
H6 C12 1_555 1_555
C13 C12 1_555 1_555
C14 C13 1_555 1_555
H7 C14 1_555 1_555
C15 C14 1_555 1_555
H8 C15 1_555 1_555
C16 C11 1_555 1_555
H9 C16 1_555 1_555
C17 O1 1_555 1_555
H10 C17 1_555 1_555
C18 C10 1_555 1_555
H11 C18 1_555 1_555
C19 C18 1_555 1_555
C20 C19 1_555 1_555
H12 C20 1_555 1_555
H13 C20 1_555 1_555
C21 C20 1_555 1_555
H14 C21 1_555 1_555
H15 C21 1_555 1_555
C22 C17 1_555 1_555
H16 C22 1_555 1_555
H17 C22 1_555 1_555
C5 C6 1_555 1_555
C8 C9 1_555 1_555
C15 C16 1_555 1_555
C17 C18 1_555 1_555
C21 C22 1_555 1_555

#END
