
#######################################################################
#
#                 Cambridge Crystallographic Data Centre
#                                CCDC 
#
#######################################################################
#
# If this CIF has been generated from an entry in the Cambridge 
# Structural Database, then it will include bibliographic, chemical, 
# crystal, experimental, refinement or atomic coordinate data resulting 
# from the CCDC's data processing and validation procedures.
#
#######################################################################

data_TAMTUY
_chemical_formula_moiety         'C75 H26 I1 N1 O9'
_chemical_name_systematic        
'15,18-bis(t-Butylperoxo)-2,12-epoxy-2-iodo-12-methoxy-5-phenylimino-1,6,9-trioxo-open-cage-C60fullerene unknown solvate'
_symmetry_cell_setting           triclinic
_symmetry_space_group_name_H-M   'P -1'
_symmetry_Int_Tables_number      2
_space_group_name_Hall           '-P 1'
loop_
_symmetry_equiv_pos_site_id
_symmetry_equiv_pos_as_xyz
1 x,y,z
2 -x,-y,-z
_cell_length_a                   11.550(1)
_cell_length_b                   12.4940(11)
_cell_length_c                   19.908(3)
_cell_angle_alpha                95.16(1)
_cell_angle_beta                 104.40(1)
_cell_angle_gamma                112.710(8)
_cell_volume                     2510.65
_exptl_crystal_colour            red
_exptl_crystal_description       block
_cell_formula_units_Z            2
_exptl_crystal_recrystallization_method toluene
loop_
_atom_site_label
_atom_site_type_symbol
_atom_site_fract_x
_atom_site_fract_y
_atom_site_fract_z
I1 I -0.16629(4) 0.66284(4) 0.14970(2)
O1 O 0.2211(4) 1.0029(4) 0.4086(2)
O2 O 0.0919(4) 1.1070(4) 0.2851(2)
O3 O -0.0701(4) 0.8661(4) 0.3013(2)
O4 O 0.0682(4) 0.9069(3) 0.19872(19)
O5 O -0.0197(4) 0.8895(4) 0.0779(2)
O6 O 0.0748(4) 0.5915(4) 0.1562(2)
O7 O 0.1194(4) 0.5334(4) 0.1058(2)
O8 O 0.3066(4) 0.7016(3) 0.40002(19)
O9 O 0.2231(4) 0.5793(3) 0.3578(2)
N1 N 0.0714(5) 0.7535(4) 0.4027(2)
C1 C 0.3296(6) 1.0496(5) 0.4036(3)
C2 C 0.1975(7) 1.1463(5) 0.2747(3)
C3 C -0.0012(5) 0.8193(5) 0.2909(3)
C4 C 0.0956(6) 0.9248(6) 0.1342(3)
C5 C 0.7498(6) 1.0034(7) 0.3495(3)
C6 C 0.1816(5) 0.7083(5) 0.1859(3)
C7 C 0.0474(6) 0.4050(6) 0.0988(3)
C8 C -0.0984(6) 0.3703(6) 0.0669(4)
H1 H -0.1140 0.3963 0.0218
H2 H -0.1290 0.4082 0.0996
H3 H -0.1468 0.2839 0.0585
C9 C 0.1025(8) 0.3580(7) 0.0475(4)
H4 H 0.1971 0.3827 0.0697
H5 H 0.0886 0.3896 0.0044
H6 H 0.0572 0.2711 0.0353
C10 C 0.0797(8) 0.3723(7) 0.1700(4)
H7 H 0.0380 0.2859 0.1642
H8 H 0.0464 0.4085 0.2020
H9 H 0.1755 0.4014 0.1900
C11 C 0.3132(5) 0.7724(5) 0.3475(3)
C12 C 0.2199(6) 0.5008(5) 0.4077(3)
C13 C 0.1452(7) 0.3802(6) 0.3583(4)
H10 H 0.0567 0.3707 0.3323
H11 H 0.1381 0.3183 0.3860
H12 H 0.1925 0.3736 0.3246
C14 C 0.1428(6) 0.5175(7) 0.4554(4)
H13 H 0.0538 0.5026 0.4265
H14 H 0.1874 0.5990 0.4833
H15 H 0.1369 0.4618 0.4874
C15 C 0.3590(6) 0.5194(6) 0.4474(4)
H16 H 0.3549 0.4583 0.4755
H17 H 0.4057 0.5979 0.4790
H18 H 0.4060 0.5140 0.4134
C16 C -0.0385(6) 0.7503(5) 0.4211(3)
C17 C -0.1642(6) 0.6638(6) 0.3849(3)
H19 H -0.1776 0.6059 0.3459
C18 C -0.2712(6) 0.6625(7) 0.4063(4)
H20 H -0.3577 0.6045 0.3809
C19 C -0.2526(7) 0.7443(7) 0.4640(4)
H21 H -0.3255 0.7424 0.4786
C20 C -0.1272(7) 0.8288(6) 0.5000(3)
H22 H -0.1139 0.8857 0.5395
C21 C -0.0203(6) 0.8320(6) 0.4795(3)
H23 H 0.0658 0.8901 0.5053
C22 C 0.0840(5) 0.7802(5) 0.3438(3)
C23 C 0.1813(5) 0.7717(5) 0.3101(3)
C24 C 0.1332(5) 0.7567(5) 0.2394(3)
C25 C 0.0241(5) 0.7965(5) 0.2190(3)
C26 C 0.3717(5) 0.7377(5) 0.2922(3)
C27 C 0.3123(5) 0.7072(5) 0.2217(3)
C28 C 0.5135(5) 0.7961(5) 0.3205(3)
C29 C 0.5919(6) 0.8104(6) 0.2759(3)
C30 C 0.5288(6) 0.7774(6) 0.2000(3)
C31 C 0.3923(6) 0.7324(5) 0.1747(3)
C32 C 0.2134(5) 0.7812(5) 0.1291(3)
C33 C 0.3301(6) 0.7750(5) 0.1174(3)
C34 C 0.4050(6) 0.8521(6) 0.0845(3)
C35 C 0.3718(6) 0.9456(6) 0.0634(3)
C36 C 0.2642(6) 0.9556(6) 0.0782(3)
C37 C 0.1809(5) 0.8705(6) 0.1090(3)
C38 C 0.1875(6) 1.0600(6) 0.1464(3)
C39 C 0.2683(6) 1.0699(6) 0.1013(3)
C40 C 0.3847(7) 1.1717(7) 0.1116(3)
C41 C 0.4275(7) 1.2641(6) 0.1723(3)
C42 C 0.3538(6) 1.2505(6) 0.2187(3)
C43 C 0.2276(6) 1.1485(6) 0.2046(3)
C44 C 0.4186(7) 1.2865(6) 0.2945(4)
C45 C 0.3340(6) 1.2095(6) 0.3286(3)
C46 C 0.3895(6) 1.1683(5) 0.3844(3)
C47 C 0.5307(6) 1.2077(6) 0.4075(3)
C48 C 0.6136(7) 1.2917(6) 0.3792(3)
C49 C 0.5551(7) 1.3301(6) 0.3199(3)
C50 C 0.4362(5) 1.0051(5) 0.4129(3)
C51 C 0.4305(5) 0.8940(5) 0.3898(3)
C52 C 0.5482(6) 0.8890(6) 0.3800(3)
C53 C 0.6667(5) 0.9893(6) 0.3959(3)
C54 C 0.6727(6) 1.1036(6) 0.4196(3)
C55 C 0.5572(5) 1.1077(5) 0.4265(3)
C56 C 0.7589(6) 1.1904(6) 0.3893(3)
C57 C 0.7280(6) 1.2811(6) 0.3698(3)
C58 C 0.8043(6) 1.1279(7) 0.3460(4)
C59 C 0.8163(6) 1.1612(7) 0.2820(4)
C60 C 0.7839(6) 1.2547(7) 0.2599(4)
C61 C 0.7413(6) 1.3152(7) 0.3030(4)
C62 C 0.6341(7) 1.3462(6) 0.2729(4)
C63 C 0.5711(7) 1.3125(6) 0.1995(4)
C64 C -0.0988(6) 0.9528(7) 0.0847(3)
H24 H -0.1907 0.9040 0.0560
H25 H -0.0653 1.0272 0.0683
H26 H -0.0943 0.9704 0.1345
C65 C 0.6146(7) 1.2494(7) 0.1550(4)
C66 C 0.7194(6) 1.2202(7) 0.1841(4)
C67 C 0.7130(6) 1.1057(8) 0.1585(4)
C68 C 0.7739(6) 1.0681(8) 0.2189(4)
C69 C 0.7234(6) 0.9501(8) 0.2236(4)
C70 C 0.6084(6) 0.8634(7) 0.1674(3)
C71 C 0.5496(6) 0.9004(7) 0.1102(3)
C72 C 0.6023(7) 1.0233(7) 0.1050(3)
C73 C 0.4943(6) 1.0533(7) 0.0768(3)
C74 C 0.4997(7) 1.1624(7) 0.1000(3)
C75 C 0.7107(5) 0.9174(7) 0.2903(3)
loop_
_geom_bond_atom_site_label_1
_geom_bond_atom_site_label_2
_geom_bond_site_symmetry_1
_geom_bond_site_symmetry_2
I1 C25 1_555 1_555
O1 C1 1_555 1_555
O2 C2 1_555 1_555
O3 C3 1_555 1_555
O4 C4 1_555 1_555
O5 C4 1_555 1_555
O6 O7 1_555 1_555
O7 C7 1_555 1_555
O8 O9 1_555 1_555
O9 C12 1_555 1_555
N1 C16 1_555 1_555
C1 C46 1_555 1_555
C2 C43 1_555 1_555
C3 C22 1_555 1_555
C4 C37 1_555 1_555
C5 C53 1_555 1_555
C6 O6 1_555 1_555
C7 C8 1_555 1_555
C8 H1 1_555 1_555
H2 C8 1_555 1_555
H3 C8 1_555 1_555
C9 C7 1_555 1_555
H4 C9 1_555 1_555
H5 C9 1_555 1_555
H6 C9 1_555 1_555
C10 C7 1_555 1_555
H7 C10 1_555 1_555
H8 C10 1_555 1_555
H9 C10 1_555 1_555
C11 O8 1_555 1_555
C12 C13 1_555 1_555
C13 H10 1_555 1_555
H11 C13 1_555 1_555
H12 C13 1_555 1_555
C14 C12 1_555 1_555
H13 C14 1_555 1_555
H14 C14 1_555 1_555
H15 C14 1_555 1_555
C15 C12 1_555 1_555
H16 C15 1_555 1_555
H17 C15 1_555 1_555
H18 C15 1_555 1_555
C16 C17 1_555 1_555
C17 H19 1_555 1_555
C18 C17 1_555 1_555
H20 C18 1_555 1_555
C19 C18 1_555 1_555
H21 C19 1_555 1_555
C20 C19 1_555 1_555
H22 C20 1_555 1_555
C21 C16 1_555 1_555
H23 C21 1_555 1_555
C22 N1 1_555 1_555
C23 C11 1_555 1_555
C24 C6 1_555 1_555
C25 O4 1_555 1_555
C26 C11 1_555 1_555
C27 C6 1_555 1_555
C28 C26 1_555 1_555
C29 C28 1_555 1_555
C30 C29 1_555 1_555
C31 C27 1_555 1_555
C32 C6 1_555 1_555
C33 C31 1_555 1_555
C34 C33 1_555 1_555
C35 C34 1_555 1_555
C36 C35 1_555 1_555
C37 C32 1_555 1_555
C38 C4 1_555 1_555
C39 C36 1_555 1_555
C40 C39 1_555 1_555
C41 C40 1_555 1_555
C42 C41 1_555 1_555
C43 C38 1_555 1_555
C44 C42 1_555 1_555
C45 C2 1_555 1_555
C46 C45 1_555 1_555
C47 C46 1_555 1_555
C48 C47 1_555 1_555
C49 C44 1_555 1_555
C50 C1 1_555 1_555
C51 C11 1_555 1_555
C52 C28 1_555 1_555
C53 C52 1_555 1_555
C54 C53 1_555 1_555
C55 C47 1_555 1_555
C56 C54 1_555 1_555
C57 C48 1_555 1_555
C58 C5 1_555 1_555
C59 C58 1_555 1_555
C60 C59 1_555 1_555
C61 C57 1_555 1_555
C62 C49 1_555 1_555
C63 C41 1_555 1_555
C64 O5 1_555 1_555
H24 C64 1_555 1_555
H25 C64 1_555 1_555
H26 C64 1_555 1_555
C65 C63 1_555 1_555
C66 C60 1_555 1_555
C67 C66 1_555 1_555
C68 C59 1_555 1_555
C69 C68 1_555 1_555
C70 C30 1_555 1_555
C71 C34 1_555 1_555
C72 C67 1_555 1_555
C73 C35 1_555 1_555
C74 C40 1_555 1_555
C75 C5 1_555 1_555
C3 C25 1_555 1_555
C20 C21 1_555 1_555
C22 C23 1_555 1_555
C23 C24 1_555 1_555
C24 C25 1_555 1_555
C26 C27 1_555 1_555
C29 C75 1_555 1_555
C30 C31 1_555 1_555
C32 C33 1_555 1_555
C36 C37 1_555 1_555
C38 C39 1_555 1_555
C42 C43 1_555 1_555
C44 C45 1_555 1_555
C48 C49 1_555 1_555
C50 C51 1_555 1_555
C50 C55 1_555 1_555
C51 C52 1_555 1_555
C54 C55 1_555 1_555
C56 C57 1_555 1_555
C56 C58 1_555 1_555
C60 C61 1_555 1_555
C61 C62 1_555 1_555
C62 C63 1_555 1_555
C65 C66 1_555 1_555
C65 C74 1_555 1_555
C67 C68 1_555 1_555
C69 C70 1_555 1_555
C69 C75 1_555 1_555
C70 C71 1_555 1_555
C71 C72 1_555 1_555
C72 C73 1_555 1_555
C73 C74 1_555 1_555

#END
