
#######################################################################
#
#                 Cambridge Crystallographic Data Centre
#                                CCDC 
#
#######################################################################
#
# If this CIF has been generated from an entry in the Cambridge 
# Structural Database, then it will include bibliographic, chemical, 
# crystal, experimental, refinement or atomic coordinate data resulting 
# from the CCDC's data processing and validation procedures.
#
#######################################################################

data_TAMWIP
_chemical_formula_moiety         'C20 H25 N1 O6'
_chemical_name_systematic        
'Methyl 9-methyl-5,10-dioxo-11-(propionyloxy)-3-vinyl-2,3,5,6,7,8,10,11-octahydro-1H-cyclopenta[b]pyrrolo[1,2-a]azepine-11-carboxylate'
_symmetry_cell_setting           monoclinic
_symmetry_space_group_name_H-M   'P 21/c'
_symmetry_Int_Tables_number      14
_space_group_name_Hall           '-P 2ybc'
loop_
_symmetry_equiv_pos_site_id
_symmetry_equiv_pos_as_xyz
1 x,y,z
2 -x,1/2+y,1/2-z
3 -x,-y,-z
4 x,1/2-y,1/2+z
_cell_length_a                   7.721(8)
_cell_length_b                   13.669(14)
_cell_length_c                   18.145(18)
_cell_angle_alpha                90
_cell_angle_beta                 92.817(10)
_cell_angle_gamma                90
_cell_volume                     1912.68
_exptl_crystal_colour            colorless
_exptl_crystal_description       block
_cell_formula_units_Z            4
loop_
_atom_site_label
_atom_site_type_symbol
_atom_site_fract_x
_atom_site_fract_y
_atom_site_fract_z
C1 C 1.0013(5) 0.8328(3) 0.2760(2)
C2 C 1.1136(5) 0.7424(3) 0.2988(3)
C3 C 1.0630(5) 0.7110(3) 0.3708(3)
C4 C 0.9632(5) 0.7783(3) 0.4006(2)
C5 C 0.8716(6) 0.7726(3) 0.4720(2)
H1 H 0.8613 0.8375 0.4930
H2 H 0.9376 0.7321 0.5071
C6 C 0.6904(6) 0.7285(4) 0.4564(3)
H3 H 0.6974 0.6581 0.4631
H4 H 0.6129 0.7539 0.4922
C7 C 0.6131(6) 0.7500(3) 0.3788(3)
H5 H 0.6816 0.7168 0.3430
H6 H 0.4964 0.7238 0.3743
C8 C 0.6071(6) 0.8575(4) 0.3608(2)
C9 C 0.9375(5) 0.8682(3) 0.3528(2)
C10 C 1.0433(5) 0.9573(3) 0.3818(2)
H7 H 1.0444 0.9612 0.4352
H8 H 1.1617 0.9546 0.3664
C11 C 0.9450(5) 1.0435(3) 0.3460(3)
H9 H 0.9748 1.1044 0.3710
H10 H 0.9694 1.0496 0.2943
C12 C 0.7567(5) 1.0168(3) 0.3553(2)
H11 H 0.6835 1.0425 0.3141
C13 C 0.6875(6) 1.0501(4) 0.4293(3)
H12 H 0.6361 1.0029 0.4580
C14 C 0.6948(7) 1.1358(5) 0.4542(3)
H13 H 0.7452 1.1852 0.4273
H14 H 0.6497 1.1499 0.4996
C15 C 0.8450(6) 0.8114(4) 0.2226(2)
C16 C 0.6537(6) 0.6869(4) 0.1774(3)
H15 H 0.5523 0.7164 0.1965
H16 H 0.6419 0.6170 0.1781
H17 H 0.6664 0.7085 0.1276
C17 C 1.1688(6) 0.8907(4) 0.1761(3)
C18 C 1.3164(6) 0.9600(4) 0.1639(3)
H18 H 1.2755 1.0266 0.1690
H19 H 1.4072 0.9490 0.2018
C19 C 1.3912(7) 0.9487(4) 0.0899(3)
H20 H 1.4276 0.8822 0.0836
H21 H 1.4891 0.9915 0.0866
H22 H 1.3049 0.9651 0.0520
C20 C 1.1278(6) 0.6157(3) 0.4035(3)
H23 H 1.2495 0.6209 0.4163
H24 H 1.1087 0.5642 0.3681
H25 H 1.0664 0.6013 0.4470
N1 N 0.7591(4) 0.9078(3) 0.35340(17)
O1 O 1.1102(3) 0.9059(2) 0.24497(14)
O2 O 1.1090(4) 0.8302(3) 0.13400(18)
O3 O 1.2294(4) 0.7107(2) 0.26317(17)
O4 O 0.7663(4) 0.8732(3) 0.18905(18)
O5 O 0.8066(4) 0.7155(2) 0.22305(16)
O6 O 0.4681(4) 0.9020(3) 0.35642(19)
loop_
_geom_bond_atom_site_label_1
_geom_bond_atom_site_label_2
_geom_bond_site_symmetry_1
_geom_bond_site_symmetry_2
C1 C2 1_555 1_555
C2 C3 1_555 1_555
C3 C4 1_555 1_555
C4 C5 1_555 1_555
C5 H1 1_555 1_555
H2 C5 1_555 1_555
C6 C5 1_555 1_555
H3 C6 1_555 1_555
H4 C6 1_555 1_555
C7 C6 1_555 1_555
H5 C7 1_555 1_555
H6 C7 1_555 1_555
C8 C7 1_555 1_555
C9 C1 1_555 1_555
C10 C9 1_555 1_555
H7 C10 1_555 1_555
H8 C10 1_555 1_555
C11 C10 1_555 1_555
H9 C11 1_555 1_555
H10 C11 1_555 1_555
C12 C11 1_555 1_555
H11 C12 1_555 1_555
C13 C12 1_555 1_555
H12 C13 1_555 1_555
C14 C13 1_555 1_555
H13 C14 1_555 1_555
H14 C14 1_555 1_555
C15 C1 1_555 1_555
C16 H15 1_555 1_555
H16 C16 1_555 1_555
H17 C16 1_555 1_555
C17 C18 1_555 1_555
C18 H18 1_555 1_555
H19 C18 1_555 1_555
C19 C18 1_555 1_555
H20 C19 1_555 1_555
H21 C19 1_555 1_555
H22 C19 1_555 1_555
C20 C3 1_555 1_555
H23 C20 1_555 1_555
H24 C20 1_555 1_555
H25 C20 1_555 1_555
N1 C8 1_555 1_555
O1 C1 1_555 1_555
O2 C17 1_555 1_555
O3 C2 1_555 1_555
O4 C15 1_555 1_555
O5 C15 1_555 1_555
O6 C8 1_555 1_555
C4 C9 1_555 1_555
C9 N1 1_555 1_555
C12 N1 1_555 1_555
C16 O5 1_555 1_555
C17 O1 1_555 1_555

#END
