
#######################################################################
#
#                 Cambridge Crystallographic Data Centre
#                                CCDC 
#
#######################################################################
#
# If this CIF has been generated from an entry in the Cambridge 
# Structural Database, then it will include bibliographic, chemical, 
# crystal, experimental, refinement or atomic coordinate data resulting 
# from the CCDC's data processing and validation procedures.
#
#######################################################################

data_TAMWOV
_chemical_name_common            (+-)-Isomaistemonine
_chemical_formula_moiety         'C23 H29 N1 O6'
_chemical_name_systematic        
3'-Methoxy-4',9-dimethyl-3-(4-methyl-5-oxotetrahydrofuran-2-yl)-2,3,5,6,7,8-hexahydro-1H,5'H,10H-spiro[cyclopenta[b]pyrrolo[1,2-a]azepine-11,2'-furan]-5',10-dione
_symmetry_cell_setting           triclinic
_symmetry_space_group_name_H-M   'P -1'
_symmetry_Int_Tables_number      2
_space_group_name_Hall           '-P 1'
loop_
_symmetry_equiv_pos_site_id
_symmetry_equiv_pos_as_xyz
1 x,y,z
2 -x,-y,-z
_cell_length_a                   8.632(7)
_cell_length_b                   11.038(9)
_cell_length_c                   12.753(11)
_cell_angle_alpha                105.682(8)
_cell_angle_beta                 95.718(9)
_cell_angle_gamma                110.662(7)
_cell_volume                     1068.67
_exptl_crystal_colour            yellow
_exptl_crystal_description       block
_cell_formula_units_Z            2
loop_
_atom_site_label
_atom_site_type_symbol
_atom_site_fract_x
_atom_site_fract_y
_atom_site_fract_z
C1 C 0.9028(5) 0.2180(4) 0.3232(3)
C2 C 1.0955(5) 0.2542(4) 0.3705(3)
C3 C 1.0971(6) 0.2458(5) 0.4879(4)
C4 C 0.9260(6) 0.1649(5) 0.4919(4)
C5 C 0.8176(6) 0.1427(5) 0.3979(4)
C6 C 0.6301(6) 0.0586(6) 0.3697(5)
H1 H 0.5715 0.1079 0.3420
H2 H 0.5938 0.0468 0.4372
C7 C 0.5790(7) -0.0825(6) 0.2825(5)
H3 H 0.6457 -0.1282 0.3075
H4 H 0.4608 -0.1369 0.2779
C8 C 0.6022(7) -0.0790(5) 0.1677(5)
H5 H 0.5337 -0.0350 0.1422
H6 H 0.5600 -0.1725 0.1172
C9 C 0.7850(6) -0.0043(5) 0.1611(4)
H7 H 0.8563 -0.0349 0.2018
H8 H 0.7930 -0.0323 0.0836
C10 C 0.7840(6) 0.2169(5) 0.1430(4)
H9 H 0.6608 0.1820 0.1357
C11 C 0.8639(6) 0.3634(5) 0.2215(4)
H10 H 0.9791 0.4093 0.2144
H11 H 0.7981 0.4151 0.2078
C12 C 0.8603(6) 0.3453(5) 0.3347(4)
H12 H 0.7492 0.3296 0.3517
H13 H 0.9443 0.4253 0.3928
C13 C 1.2553(6) 0.1895(5) 0.2523(4)
C14 C 1.3160(5) 0.3377(5) 0.2822(4)
C15 C 1.2274(5) 0.3757(4) 0.3548(4)
C16 C 1.4494(7) 0.4132(6) 0.2289(5)
H14 H 1.4074 0.4648 0.1929
H15 H 1.4762 0.3486 0.1748
H16 H 1.5496 0.4744 0.2852
C17 C 1.3502(8) 0.6182(5) 0.4030(5)
H17 H 1.4636 0.6256 0.4254
H18 H 1.3366 0.6969 0.4489
H19 H 1.3297 0.6135 0.3264
C18 C 0.8888(8) 0.1197(7) 0.5908(5)
H20 H 0.8358 0.1730 0.6338
H21 H 0.9927 0.1328 0.6362
H22 H 0.8141 0.0245 0.5657
C19 C 0.8241(7) 0.1923(5) 0.0276(4)
H23 H 0.7570 0.0964 -0.0181
C20 C 1.0079(7) 0.2282(6) 0.0196(4)
H24 H 1.0395 0.1512 0.0148
H25 H 1.0833 0.3063 0.0828
C21 C 1.0097(8) 0.2624(6) -0.0879(4)
H26 H 0.9680 0.1759 -0.1500
C22 C 0.8766(7) 0.3202(6) -0.0896(4)
C23 C 1.1798(8) 0.3532(7) -0.1012(5)
H27 H 1.1669 0.3667 -0.1722
H28 H 1.2584 0.3102 -0.0969
H29 H 1.2220 0.4402 -0.0428
N1 N 0.8543(4) 0.1445(4) 0.2035(3)
O1 O 1.2213(5) 0.2981(5) 0.5630(3)
O2 O 1.1365(4) 0.1429(3) 0.3102(3)
O3 O 1.3032(5) 0.1113(4) 0.1917(4)
O4 O 1.2326(4) 0.4975(3) 0.4155(3)
O5 O 0.7739(4) 0.2818(4) -0.0222(3)
O6 O 0.8555(5) 0.3899(4) -0.1429(3)
loop_
_geom_bond_atom_site_label_1
_geom_bond_atom_site_label_2
_geom_bond_site_symmetry_1
_geom_bond_site_symmetry_2
C1 C2 1_555 1_555
C2 C3 1_555 1_555
C3 C4 1_555 1_555
C4 C5 1_555 1_555
C5 C1 1_555 1_555
C6 C5 1_555 1_555
H1 C6 1_555 1_555
H2 C6 1_555 1_555
C7 C6 1_555 1_555
H3 C7 1_555 1_555
H4 C7 1_555 1_555
C8 C7 1_555 1_555
H5 C8 1_555 1_555
H6 C8 1_555 1_555
C9 C8 1_555 1_555
H7 C9 1_555 1_555
H8 C9 1_555 1_555
C10 H9 1_555 1_555
C11 C10 1_555 1_555
H10 C11 1_555 1_555
H11 C11 1_555 1_555
C12 C1 1_555 1_555
H12 C12 1_555 1_555
H13 C12 1_555 1_555
C13 C14 1_555 1_555
C14 C15 1_555 1_555
C15 C2 1_555 1_555
C16 C14 1_555 1_555
H14 C16 1_555 1_555
H15 C16 1_555 1_555
H16 C16 1_555 1_555
C17 H17 1_555 1_555
H18 C17 1_555 1_555
H19 C17 1_555 1_555
C18 C4 1_555 1_555
H20 C18 1_555 1_555
H21 C18 1_555 1_555
H22 C18 1_555 1_555
C19 C10 1_555 1_555
H23 C19 1_555 1_555
C20 C19 1_555 1_555
H24 C20 1_555 1_555
H25 C20 1_555 1_555
C21 C20 1_555 1_555
H26 C21 1_555 1_555
C22 C21 1_555 1_555
C23 C21 1_555 1_555
H27 C23 1_555 1_555
H28 C23 1_555 1_555
H29 C23 1_555 1_555
N1 C1 1_555 1_555
O1 C3 1_555 1_555
O2 C2 1_555 1_555
O3 C13 1_555 1_555
O4 C15 1_555 1_555
O5 C19 1_555 1_555
O6 C22 1_555 1_555
C9 N1 1_555 1_555
C10 N1 1_555 1_555
C11 C12 1_555 1_555
C13 O2 1_555 1_555
C17 O4 1_555 1_555
C22 O5 1_555 1_555

#END
