
#######################################################################
#
#                 Cambridge Crystallographic Data Centre
#                                CCDC 
#
#######################################################################
#
# If this CIF has been generated from an entry in the Cambridge 
# Structural Database, then it will include bibliographic, chemical, 
# crystal, experimental, refinement or atomic coordinate data resulting 
# from the CCDC's data processing and validation procedures.
#
#######################################################################

data_TAMXAJ
_chemical_formula_moiety         'C3 H1 N9 O1 2-,2(H4 N1 O1 1+),H2 O1'
_chemical_name_systematic        
"bis(hydroxyammonium) 5,5'-(hydroxycarbonimidoyl)bis(tetrazol-1-ide) monohydrate"
_symmetry_cell_setting           monoclinic
_symmetry_space_group_name_H-M   'P c'
_symmetry_Int_Tables_number      7
_space_group_name_Hall           'P -2yc'
loop_
_symmetry_equiv_pos_site_id
_symmetry_equiv_pos_as_xyz
1 x,y,z
2 x,-y,1/2+z
_cell_length_a                   9.8616(9)
_cell_length_b                   3.6153(2)
_cell_length_c                   14.6726(9)
_cell_angle_alpha                90
_cell_angle_beta                 91.883(6)
_cell_angle_gamma                90
_cell_volume                     522.834
_cell_formula_units_Z            2
loop_
_atom_site_label
_atom_site_type_symbol
_atom_site_fract_x
_atom_site_fract_y
_atom_site_fract_z
O1 O -0.2617(2) -0.1407(6) -0.43611(14)
H1 H -0.2447 -0.0679 -0.3826
N1 N -0.3508(3) 0.1124(7) -0.48091(17)
H2 H -0.3936 0.2505 -0.4387
H3 H -0.4136 -0.0143 -0.5154
H4 H -0.3027 0.2636 -0.5174
N2 N -0.8814(3) -0.9421(8) -0.80127(19)
H5 H -0.8195 -0.8451 -0.7606
H6 H -0.8442 -1.1384 -0.8301
H7 H -0.9558 -1.0181 -0.7713
O2 O -0.9200(2) -0.6698(7) -0.86621(16)
H8 H -0.9451 -0.7729 -0.9152
O3 O 0.0204(2) 0.0571(7) -0.50522(15)
H9 H 0.093(2) 0.136(9) -0.5313(19)
H10 H -0.026(3) -0.069(8) -0.5455(17)
N3 N -0.5104(3) -0.4203(8) -0.82403(17)
O4 O -0.6462(2) -0.4919(7) -0.84374(16)
H11 H -0.6585 -0.5158 -0.9004
N4 N -0.7453(3) -0.6166(8) -0.58454(17)
N5 N -0.1308(3) -0.1571(8) -0.72558(18)
N6 N -0.5438(3) -0.3678(8) -0.57611(17)
N7 N -0.6993(3) -0.6128(8) -0.66984(18)
N8 N -0.2504(3) -0.1720(8) -0.77211(17)
C1 C -0.4802(3) -0.4078(8) -0.7375(2)
C2 C -0.5753(3) -0.4623(9) -0.6632(2)
N9 N -0.6522(3) -0.4676(8) -0.52875(18)
N10 N -0.1440(3) -0.3004(8) -0.64411(17)
N11 N -0.2735(3) -0.4116(8) -0.63470(17)
C3 C -0.3360(3) -0.3279(8) -0.71489(19)
loop_
_geom_bond_atom_site_label_1
_geom_bond_atom_site_label_2
_geom_bond_site_symmetry_1
_geom_bond_site_symmetry_2
O1 H1 1_555 1_555
N1 O1 1_555 1_555
H2 N1 1_555 1_555
H3 N1 1_555 1_555
H4 N1 1_555 1_555
N2 H5 1_555 1_555
H6 N2 1_555 1_555
H7 N2 1_555 1_555
O2 N2 1_555 1_555
H8 O2 1_555 1_555
O3 H9 1_555 1_555
H10 O3 1_555 1_555
N3 O4 1_555 1_555
O4 H11 1_555 1_555
N4 N7 1_555 1_555
N5 N8 1_555 1_555
N6 C2 1_555 1_555
N7 C2 1_555 1_555
N8 C3 1_555 1_555
C1 N3 1_555 1_555
C2 C1 1_555 1_555
N9 N4 1_555 1_555
N10 N5 1_555 1_555
N11 N10 1_555 1_555
C3 C1 1_555 1_555
N6 N9 1_555 1_555
N11 C3 1_555 1_555

#END
