
#######################################################################
#
#                 Cambridge Crystallographic Data Centre
#                                CCDC 
#
#######################################################################
#
# If this CIF has been generated from an entry in the Cambridge 
# Structural Database, then it will include bibliographic, chemical, 
# crystal, experimental, refinement or atomic coordinate data resulting 
# from the CCDC's data processing and validation procedures.
#
#######################################################################

data_TAMZIQ
_chemical_formula_moiety         'C44 H62 N2 Si2'
_chemical_name_systematic        
E-1,6-bis(4-N,N-Dimethylaminophenyl)-3,4-bis((tri-isopropylsilyl)ethynyl)-3-hexene-1,5-diyne
_symmetry_cell_setting           triclinic
_symmetry_space_group_name_H-M   'P -1'
_symmetry_Int_Tables_number      2
_space_group_name_Hall           '-P 1'
loop_
_symmetry_equiv_pos_site_id
_symmetry_equiv_pos_as_xyz
1 x,y,z
2 -x,-y,-z
_cell_length_a                   7.694(8)
_cell_length_b                   12.273(9)
_cell_length_c                   12.528(8)
_cell_angle_alpha                74.00(5)
_cell_angle_beta                 77.94(7)
_cell_angle_gamma                84.47(7)
_cell_volume                     1111.13
_exptl_crystal_colour            yellowish
_chemical_melting_point          217-218deg.C
_cell_formula_units_Z            1
_exptl_crystal_recrystallization_method 'hexane/dichloromethane at RT'
loop_
_atom_site_label
_atom_site_type_symbol
_atom_site_fract_x
_atom_site_fract_y
_atom_site_fract_z
Si1 Si -0.3665(2) -0.1852(1) -0.1629(1)
N1 N 0.2774(8) 0.6292(5) -0.5033(5)
C1 C 0.2377(8) 0.5234(5) -0.4281(6)
C2 C 0.2150(9) 0.5053(5) -0.3133(6)
C3 C 0.1729(8) 0.4015(5) -0.2415(5)
C4 C 0.1506(7) 0.3092(5) -0.2801(5)
C5 C 0.1719(9) 0.3265(6) -0.3941(6)
C6 C 0.2154(9) 0.4312(6) -0.4677(5)
C7 C 0.0985(7) 0.2043(5) -0.2025(5)
C8 C 0.0501(7) 0.1168(5) -0.1341(5)
C9 C -0.0168(7) 0.0157(4) -0.0529(4)
C10 C -0.1248(7) -0.0511(4) -0.0901(4)
C11 C -0.2189(8) -0.1037(4) -0.1215(4)
C12 C -0.5761(10) -0.1972(8) -0.0555(7)
C13 C -0.5581(14) -0.2322(11) 0.0648(7)
C14 C -0.7195(11) -0.2587(8) -0.0831(9)
C15 C -0.2415(13) -0.3230(6) -0.1758(8)
C16 C -0.1699(14) -0.3879(7) -0.0724(8)
C17 C -0.3378(15) -0.4007(7) -0.2160(8)
C18 C -0.4042(12) -0.1044(7) -0.3066(6)
C19 C -0.5110(15) 0.0089(9) -0.3028(9)
C20 C -0.2250(16) -0.0850(10) -0.3941(8)
C21 C 0.3132(12) 0.6446(8) -0.6246(6)
C22 C 0.3003(15) 0.7237(6) -0.4590(7)
H1 H 0.2288 0.5667 -0.2825
H2 H 0.1575 0.3915 -0.1614
H3 H 0.1560 0.2648 -0.4240
H4 H 0.2307 0.4408 -0.5477
H5 H -0.6244 -0.1207 -0.0666
H6 H -0.6751 -0.2353 0.1108
H7 H -0.4990 -0.3057 0.0818
H8 H -0.4912 -0.1781 0.0802
H9 H -0.8241 -0.2628 -0.0252
H10 H -0.7487 -0.2189 -0.1551
H11 H -0.6746 -0.3340 -0.0851
H12 H -0.1391 -0.3009 -0.2343
H13 H -0.1088 -0.4562 -0.0860
H14 H -0.0884 -0.3422 -0.0571
H15 H -0.2657 -0.4070 -0.0085
H16 H -0.2635 -0.4675 -0.2201
H17 H -0.4470 -0.4218 -0.1636
H18 H -0.3632 -0.3632 -0.2894
H19 H -0.4759 -0.1494 -0.3309
H20 H -0.5281 0.0484 -0.3777
H21 H -0.6247 -0.0058 -0.2535
H22 H -0.4454 0.0547 -0.2755
H23 H -0.2497 -0.0429 -0.4665
H24 H -0.1476 -0.0433 -0.3705
H25 H -0.1686 -0.1570 -0.3996
H26 H 0.2925 0.5755 -0.6410
H27 H 0.2357 0.7044 -0.6582
H28 H 0.4347 0.6643 -0.6551
H29 H 0.2726 0.7015 -0.3778
H30 H 0.4214 0.7461 -0.4838
H31 H 0.2224 0.7862 -0.4869
C9A C 0.0168(7) -0.0157(4) 0.0529(4)
C8A C -0.0501(7) -0.1168(5) 0.1341(5)
C7A C -0.0985(7) -0.2043(5) 0.2025(5)
C4A C -0.1506(7) -0.3092(5) 0.2801(5)
C3A C -0.1729(8) -0.4015(5) 0.2415(5)
C2A C -0.2150(9) -0.5053(5) 0.3133(6)
C1A C -0.2377(8) -0.5234(5) 0.4281(6)
N1A N -0.2774(8) -0.6292(5) 0.5033(5)
C21A C -0.3132(12) -0.6446(8) 0.6246(6)
H26A H -0.2925 -0.5755 0.6410
H27A H -0.2357 -0.7044 0.6582
H28A H -0.4347 -0.6643 0.6551
C22A C -0.3003(15) -0.7237(6) 0.4590(7)
H29A H -0.2726 -0.7015 0.3778
H30A H -0.4214 -0.7461 0.4838
H31A H -0.2224 -0.7862 0.4869
C6A C -0.2154(9) -0.4312(6) 0.4677(5)
C5A C -0.1719(9) -0.3265(6) 0.3941(6)
H3A H -0.1560 -0.2648 0.4240
H4A H -0.2307 -0.4408 0.5477
H1A H -0.2288 -0.5667 0.2825
H2A H -0.1575 -0.3915 0.1614
C10A C 0.1248(7) 0.0511(4) 0.0901(4)
C11A C 0.2189(8) 0.1037(4) 0.1215(4)
Si1A Si 0.3665(2) 0.1852(1) 0.1629(1)
C12A C 0.5761(10) 0.1972(8) 0.0555(7)
C13A C 0.5581(14) 0.2322(11) -0.0648(7)
H6A H 0.6751 0.2353 -0.1108
H7A H 0.4990 0.3057 -0.0818
H8A H 0.4912 0.1781 -0.0802
C14A C 0.7195(11) 0.2587(8) 0.0831(9)
H9A H 0.8241 0.2628 0.0252
H10A H 0.7487 0.2189 0.1551
H11A H 0.6746 0.3340 0.0851
H5A H 0.6244 0.1207 0.0666
C15A C 0.2415(13) 0.3230(6) 0.1758(8)
C16A C 0.1699(14) 0.3879(7) 0.0724(8)
H13A H 0.1088 0.4562 0.0860
H14A H 0.0884 0.3422 0.0571
H15A H 0.2657 0.4070 0.0085
C17A C 0.3378(15) 0.4007(7) 0.2160(8)
H16A H 0.2635 0.4675 0.2201
H17A H 0.4470 0.4218 0.1636
H18A H 0.3632 0.3632 0.2894
H12A H 0.1391 0.3009 0.2343
C18A C 0.4042(12) 0.1044(7) 0.3066(6)
C19A C 0.5110(15) -0.0089(9) 0.3028(9)
H20A H 0.5281 -0.0484 0.3777
H21A H 0.6247 0.0058 0.2535
H22A H 0.4454 -0.0547 0.2755
C20A C 0.2250(16) 0.0850(10) 0.3941(8)
H23A H 0.2497 0.0429 0.4665
H24A H 0.1476 0.0433 0.3705
H25A H 0.1686 0.1570 0.3996
H19A H 0.4759 0.1494 0.3309
loop_
_geom_bond_atom_site_label_1
_geom_bond_atom_site_label_2
_geom_bond_site_symmetry_1
_geom_bond_site_symmetry_2
Si1 C11 1_555 1_555
N1 C1 1_555 1_555
C1 C2 1_555 1_555
C2 C3 1_555 1_555
C3 C4 1_555 1_555
C4 C5 1_555 1_555
C5 C6 1_555 1_555
C6 C1 1_555 1_555
C7 C4 1_555 1_555
C8 C7 1_555 1_555
C9 C8 1_555 1_555
C10 C9 1_555 1_555
C11 C10 1_555 1_555
C12 Si1 1_555 1_555
C13 C12 1_555 1_555
C14 C12 1_555 1_555
C15 Si1 1_555 1_555
C16 C15 1_555 1_555
C17 C15 1_555 1_555
C18 Si1 1_555 1_555
C19 C18 1_555 1_555
C20 C18 1_555 1_555
C21 N1 1_555 1_555
C22 N1 1_555 1_555
H1 C2 1_555 1_555
H2 C3 1_555 1_555
H3 C5 1_555 1_555
H4 C6 1_555 1_555
H5 C12 1_555 1_555
H6 C13 1_555 1_555
H7 C13 1_555 1_555
H8 C13 1_555 1_555
H9 C14 1_555 1_555
H10 C14 1_555 1_555
H11 C14 1_555 1_555
H12 C15 1_555 1_555
H13 C16 1_555 1_555
H14 C16 1_555 1_555
H15 C16 1_555 1_555
H16 C17 1_555 1_555
H17 C17 1_555 1_555
H18 C17 1_555 1_555
H19 C18 1_555 1_555
H20 C19 1_555 1_555
H21 C19 1_555 1_555
H22 C19 1_555 1_555
H23 C20 1_555 1_555
H24 C20 1_555 1_555
H25 C20 1_555 1_555
H26 C21 1_555 1_555
H27 C21 1_555 1_555
H28 C21 1_555 1_555
H29 C22 1_555 1_555
H30 C22 1_555 1_555
H31 C22 1_555 1_555
C9A C9 1_555 1_555
C8A C9A 1_555 1_555
C7A C8A 1_555 1_555
C4A C7A 1_555 1_555
C3A C4A 1_555 1_555
C2A C3A 1_555 1_555
C1A C2A 1_555 1_555
N1A C1A 1_555 1_555
C21A N1A 1_555 1_555
H26A C21A 1_555 1_555
H27A C21A 1_555 1_555
H28A C21A 1_555 1_555
C22A N1A 1_555 1_555
H29A C22A 1_555 1_555
H30A C22A 1_555 1_555
H31A C22A 1_555 1_555
C6A C1A 1_555 1_555
C5A C4A 1_555 1_555
H3A C5A 1_555 1_555
H4A C6A 1_555 1_555
H1A C2A 1_555 1_555
H2A C3A 1_555 1_555
C10A C9A 1_555 1_555
C11A C10A 1_555 1_555
Si1A C11A 1_555 1_555
C12A Si1A 1_555 1_555
C13A C12A 1_555 1_555
H6A C13A 1_555 1_555
H7A C13A 1_555 1_555
H8A C13A 1_555 1_555
C14A C12A 1_555 1_555
H9A C14A 1_555 1_555
H10A C14A 1_555 1_555
H11A C14A 1_555 1_555
H5A C12A 1_555 1_555
C15A Si1A 1_555 1_555
C16A C15A 1_555 1_555
H13A C16A 1_555 1_555
H14A C16A 1_555 1_555
H15A C16A 1_555 1_555
C17A C15A 1_555 1_555
H16A C17A 1_555 1_555
H17A C17A 1_555 1_555
H18A C17A 1_555 1_555
H12A C15A 1_555 1_555
C18A Si1A 1_555 1_555
C19A C18A 1_555 1_555
H20A C19A 1_555 1_555
H21A C19A 1_555 1_555
H22A C19A 1_555 1_555
C20A C18A 1_555 1_555
H23A C20A 1_555 1_555
H24A C20A 1_555 1_555
H25A C20A 1_555 1_555
H19A C18A 1_555 1_555
C6A C5A 1_555 1_555

#END
