
#######################################################################
#
#                 Cambridge Crystallographic Data Centre
#                                CCDC 
#
#######################################################################
#
# If this CIF has been generated from an entry in the Cambridge 
# Structural Database, then it will include bibliographic, chemical, 
# crystal, experimental, refinement or atomic coordinate data resulting 
# from the CCDC's data processing and validation procedures.
#
#######################################################################

data_TANCIW
_chemical_name_common            
'Phenylalanine hydrogen peroxide solvate hemihydrate'
_chemical_formula_moiety         'C9 H11 N1 O2,H2 O2,0.5(H2 O1)'
_chemical_name_systematic        
'(S)-2-Amino-3-phenylpropionic acid hydrogen peroxide solvate hemihydrate'
_symmetry_cell_setting           monoclinic
_symmetry_space_group_name_H-M   'C 2'
_symmetry_Int_Tables_number      5
_space_group_name_Hall           'C 2y'
loop_
_symmetry_equiv_pos_site_id
_symmetry_equiv_pos_as_xyz
1 x,y,z
2 -x,y,-z
3 1/2+x,1/2+y,z
4 1/2-x,1/2+y,-z
_cell_length_a                   10.0268(16)
_cell_length_b                   7.2283(12)
_cell_length_c                   14.150(2)
_cell_angle_alpha                90
_cell_angle_beta                 92.780(3)
_cell_angle_gamma                90
_cell_volume                     1024.34
_exptl_crystal_colour            colorless
_exptl_crystal_description       plate
_cell_formula_units_Z            4
loop_
_atom_site_label
_atom_site_type_symbol
_atom_site_fract_x
_atom_site_fract_y
_atom_site_fract_z
O1 O 0.5000 0.5821(3) 1.0000
H1 H 0.543(3) 0.516(5) 1.043(2)
H1A H 0.457(3) 0.516(5) 0.957(2)
O2 O 0.19882(14) 0.69918(19) 0.93354(9)
O3 O 0.25865(15) 0.6664(2) 0.84217(10)
H2 H 0.121(3) 0.715(4) 0.9171(18)
H3 H 0.319(3) 0.760(5) 0.843(2)
O4 O 0.94388(13) 0.74791(18) 0.88626(10)
O5 O 0.92299(13) 0.45026(19) 0.84396(10)
N1 N 0.68458(17) 0.8104(2) 0.88712(12)
C1 C 0.87782(17) 0.6094(3) 0.86049(12)
C2 C 0.72506(18) 0.6308(2) 0.84632(13)
H4 H 0.6823 0.5298 0.8825
C3 C 0.67501(19) 0.6148(3) 0.74228(14)
H5 H 0.7090 0.4979 0.7161
H6 H 0.5763 0.6076 0.7396
C4 C 0.71660(19) 0.7736(3) 0.68023(13)
C5 C 0.8497(2) 0.7965(3) 0.65766(14)
H7 H 0.9153 0.7108 0.6808
C6 C 0.8864(2) 0.9439(4) 0.60157(14)
H8 H 0.9773 0.9592 0.5872
C7 C 0.7921(3) 1.0685(3) 0.56645(15)
H9 H 0.8177 1.1684 0.5276
C8 C 0.6599(3) 1.0468(4) 0.58822(17)
H10 H 0.5945 1.1322 0.5644
C9 C 0.6225(2) 0.8999(3) 0.64508(14)
H11 H 0.5316 0.8861 0.6599
H12 H 0.739(3) 0.897(5) 0.867(2)
H13 H 0.589(3) 0.838(4) 0.8744(18)
H14 H 0.706(2) 0.805(4) 0.9535(17)
loop_
_geom_bond_atom_site_label_1
_geom_bond_atom_site_label_2
_geom_bond_site_symmetry_1
_geom_bond_site_symmetry_2
O1 H1 1_555 1_555
O2 O3 1_555 1_555
O3 H3 1_555 1_555
H2 O2 1_555 1_555
O4 C1 1_555 1_555
O5 C1 1_555 1_555
N1 C2 1_555 1_555
C1 C2 1_555 1_555
C2 H4 1_555 1_555
C3 C2 1_555 1_555
H5 C3 1_555 1_555
H6 C3 1_555 1_555
C4 C3 1_555 1_555
C5 C4 1_555 1_555
H7 C5 1_555 1_555
C6 C5 1_555 1_555
H8 C6 1_555 1_555
C7 C6 1_555 1_555
H9 C7 1_555 1_555
C8 C7 1_555 1_555
H10 C8 1_555 1_555
C9 C4 1_555 1_555
H11 C9 1_555 1_555
H12 N1 1_555 1_555
H13 N1 1_555 1_555
H14 N1 1_555 1_555
H1A O1 1_555 1_555
C8 C9 1_555 1_555

#END
