
#######################################################################
#
#                 Cambridge Crystallographic Data Centre
#                                CCDC 
#
#######################################################################
#
# If this CIF has been generated from an entry in the Cambridge 
# Structural Database, then it will include bibliographic, chemical, 
# crystal, experimental, refinement or atomic coordinate data resulting 
# from the CCDC's data processing and validation procedures.
#
#######################################################################

data_TANCOC
_chemical_name_common            'Threonine hydrogen peroxide solvate'
_chemical_formula_moiety         'C4 H9 N1 O3,H2 O2'
_chemical_name_systematic        
'(2S,3R)-2-Amino-3-hydroxybutyric acid hydrogen peroxide solvate'
_symmetry_cell_setting           orthorhombic
_symmetry_space_group_name_H-M   'P 21 21 21'
_symmetry_Int_Tables_number      19
_space_group_name_Hall           'P 2ac 2ab'
loop_
_symmetry_equiv_pos_site_id
_symmetry_equiv_pos_as_xyz
1 x,y,z
2 1/2-x,-y,1/2+z
3 -x,1/2+y,1/2-z
4 1/2+x,1/2-y,-z
_cell_length_a                   6.129(3)
_cell_length_b                   6.387(3)
_cell_length_c                   17.177(7)
_cell_angle_alpha                90
_cell_angle_beta                 90
_cell_angle_gamma                90
_cell_volume                     672.41
_exptl_crystal_colour            colorless
_exptl_crystal_description       plate
_cell_formula_units_Z            4
loop_
_atom_site_label
_atom_site_type_symbol
_atom_site_fract_x
_atom_site_fract_y
_atom_site_fract_z
O1 O 0.4653(2) 0.3690(2) 0.42127(8)
O2 O 0.3421(2) 0.1888(2) 0.45113(8)
H6 H 0.381(5) 0.418(5) 0.3822(16)
H7 H 0.414(5) 0.090(5) 0.4289(16)
N1 N 0.1150(3) 0.7073(2) 0.12126(9)
O3 O 0.4496(2) 0.3828(2) 0.12565(8)
O4 O 0.1925(2) 0.4583(2) 0.30727(7)
O5 O 0.3156(2) 0.7573(2) 0.25441(8)
C1 C 0.2157(3) 0.5879(3) 0.25244(10)
C2 C 0.1096(3) 0.5240(3) 0.17505(10)
H1 H -0.0461 0.4861 0.1851
C3 C 0.2260(3) 0.3331(3) 0.14042(10)
H2 H 0.2206 0.2169 0.1794
C4 C 0.1217(3) 0.2567(3) 0.06542(11)
H3 H 0.1330 0.3661 0.0256
H4 H -0.0323 0.2243 0.0748
H5 H 0.1973 0.1304 0.0474
H8 H 0.516(5) 0.345(4) 0.1619(16)
H9 H 0.249(5) 0.757(4) 0.1157(13)
H10 H 0.056(5) 0.681(5) 0.0739(16)
H11 H 0.040(5) 0.819(5) 0.1439(15)
loop_
_geom_bond_atom_site_label_1
_geom_bond_atom_site_label_2
_geom_bond_site_symmetry_1
_geom_bond_site_symmetry_2
O1 O2 1_555 1_555
O2 H7 1_555 1_555
N1 C2 1_555 1_555
O3 C3 1_555 1_555
O4 C1 1_555 1_555
O5 C1 1_555 1_555
C1 C2 1_555 1_555
C2 H1 1_555 1_555
C3 C2 1_555 1_555
H2 C3 1_555 1_555
C4 C3 1_555 1_555
H3 C4 1_555 1_555
H4 C4 1_555 1_555
H5 C4 1_555 1_555
H6 O1 1_555 1_555
H8 O3 1_555 1_555
H9 N1 1_555 1_555
H10 N1 1_555 1_555
H11 N1 1_555 1_555

#END
