
#######################################################################
#
#                 Cambridge Crystallographic Data Centre
#                                CCDC 
#
#######################################################################
#
# If this CIF has been generated from an entry in the Cambridge 
# Structural Database, then it will include bibliographic, chemical, 
# crystal, experimental, refinement or atomic coordinate data resulting 
# from the CCDC's data processing and validation procedures.
#
#######################################################################

data_TANCUI
_chemical_name_common            'Tyrosine hydrogen peroxide solvate'
_chemical_formula_moiety         'C9 H11 N1 O3,2(H2 O2)'
_chemical_name_systematic        
'(S)-2-Amino-3-(4-hydroxyphenyl)propionic acidhydrogen peroxide disolvate'
_symmetry_cell_setting           monoclinic
_symmetry_space_group_name_H-M   'P 21'
_symmetry_Int_Tables_number      4
_space_group_name_Hall           'P 2yb'
loop_
_symmetry_equiv_pos_site_id
_symmetry_equiv_pos_as_xyz
1 x,y,z
2 -x,1/2+y,-z
_cell_length_a                   8.7005(19)
_cell_length_b                   5.9331(13)
_cell_length_c                   10.929(2)
_cell_angle_alpha                90
_cell_angle_beta                 94.650(4)
_cell_angle_gamma                90
_cell_volume                     562.308
_exptl_crystal_colour            colorless
_exptl_crystal_description       needle
_cell_formula_units_Z            2
loop_
_atom_site_label
_atom_site_type_symbol
_atom_site_fract_x
_atom_site_fract_y
_atom_site_fract_z
O1 O 0.1523(4) 0.1739(6) 0.1192(4)
H1 H 0.231(8) 0.283(12) 0.133(6)
O2 O 0.0584(3) 0.2797(5) 0.0196(2)
H2 H -0.020(5) 0.324(9) 0.067(4)
O3 O 0.7110(3) 0.2577(6) 0.9099(2)
H3 H 0.790(6) 0.269(10) 0.864(5)
O4 O 0.6610(3) 0.0380(6) 0.8644(4)
H4 H 0.550(7) 0.065(11) 0.851(5)
N1 N 0.7647(3) 0.0050(5) 0.1545(3)
H5 H 0.714(4) -0.142(8) 0.161(3)
H6 H 0.800(4) 0.025(8) 0.081(4)
H7 H 0.854(4) 0.038(7) 0.211(3)
O5 O 0.9536(3) 0.2590(4) 0.7346(2)
O6 O 0.6356(3) 0.5811(4) 0.1838(2)
O7 O 0.8664(2) 0.4168(4) 0.19444(19)
C1 C 0.7231(3) 0.4118(5) 0.1845(2)
C2 C 0.6456(3) 0.1787(5) 0.1767(3)
H8 H 0.5652 0.1781 0.1059
C3 C 0.5679(3) 0.1259(5) 0.2955(3)
H9 H 0.4772 0.2257 0.2995
H10 H 0.5300 -0.0315 0.2914
C4 C 0.6719(3) 0.1550(5) 0.4118(3)
C5 C 0.6713(3) 0.3592(5) 0.4763(3)
H11 H 0.6044 0.4772 0.4468
C6 C 0.7674(3) 0.3914(6) 0.5829(3)
H12 H 0.7662 0.5308 0.6256
C7 C 0.8652(3) 0.2190(5) 0.6268(3)
C8 C 0.8686(4) 0.0156(6) 0.5637(3)
H13 H 0.9362 -0.1018 0.5931
C9 C 0.7716(4) -0.0139(5) 0.4570(3)
H14 H 0.7738 -0.1530 0.4141
H15 H 1.014(4) 0.158(8) 0.756(3)
loop_
_geom_bond_atom_site_label_1
_geom_bond_atom_site_label_2
_geom_bond_site_symmetry_1
_geom_bond_site_symmetry_2
O1 H1 1_555 1_555
O2 O1 1_555 1_555
H2 O2 1_555 1_555
O3 H3 1_555 1_555
O4 O3 1_555 1_555
H4 O4 1_555 1_555
N1 H5 1_555 1_555
H6 N1 1_555 1_555
H7 N1 1_555 1_555
O5 C7 1_555 1_555
O6 C1 1_555 1_555
O7 C1 1_555 1_555
C1 C2 1_555 1_555
C2 N1 1_555 1_555
H8 C2 1_555 1_555
C3 C2 1_555 1_555
H9 C3 1_555 1_555
H10 C3 1_555 1_555
C4 C3 1_555 1_555
C5 C4 1_555 1_555
H11 C5 1_555 1_555
C6 C5 1_555 1_555
H12 C6 1_555 1_555
C7 C6 1_555 1_555
C8 C7 1_555 1_555
H13 C8 1_555 1_555
C9 C4 1_555 1_555
H14 C9 1_555 1_555
H15 O5 1_555 1_555
C8 C9 1_555 1_555

#END
