
#######################################################################
#
#                 Cambridge Crystallographic Data Centre
#                                CCDC 
#
#######################################################################
#
# If this CIF has been generated from an entry in the Cambridge 
# Structural Database, then it will include bibliographic, chemical, 
# crystal, experimental, refinement or atomic coordinate data resulting 
# from the CCDC's data processing and validation procedures.
#
#######################################################################

data_TANCEQ
_chemical_formula_moiety         'C42 H56 N2 O2 Si2'
_chemical_name_systematic        
cis-1-(p-Dimethylaminophenyl)-6-(p-nitrophenyl)-3,4-bis(2-tri-isopropylsilylethynyl)-hex-3-ene-1,5-diyne
_symmetry_cell_setting           triclinic
_symmetry_space_group_name_H-M   'P -1'
_symmetry_Int_Tables_number      2
_space_group_name_Hall           '-P 1'
loop_
_symmetry_equiv_pos_site_id
_symmetry_equiv_pos_as_xyz
1 x,y,z
2 -x,-y,-z
_cell_length_a                   7.611(2)
_cell_length_b                   13.077(3)
_cell_length_c                   20.980(4)
_cell_angle_alpha                96.96(3)
_cell_angle_beta                 94.99(3)
_cell_angle_gamma                95.23(3)
_cell_volume                     2053.93
_exptl_crystal_colour            red
_chemical_melting_point          182-183deg.C
_cell_formula_units_Z            2
loop_
_atom_site_label
_atom_site_type_symbol
_atom_site_fract_x
_atom_site_fract_y
_atom_site_fract_z
Si1 Si 0.8233(3) 1.2918(3) 0.4064(1)
Si2 Si 0.3482(3) 0.8348(2) 0.2778(1)
C1 C 0.7595(8) 1.1459(5) 0.2022(3)
C2 C 0.6820(8) 1.0499(5) 0.1768(3)
C3 C 0.6884(9) 1.0077(5) 0.1118(3)
C4 C 0.6895(8) 0.9651(4) 0.0576(3)
C5 C 0.6796(8) 0.9124(4) -0.0061(3)
C6 C 0.5751(8) 0.8167(5) -0.0230(3)
C7 C 0.5626(8) 0.7643(4) -0.0840(3)
C8 C 0.6521(7) 0.8055(4) -0.1327(3)
C9 C 0.7583(8) 0.9002(4) -0.1162(3)
C10 C 0.7703(8) 0.9518(4) -0.0541(3)
N1 N 0.6400(7) 0.7525(4) -0.1942(2)
C11 C 0.5430(9) 0.6516(5) -0.2094(3)
C12 C 0.7159(9) 0.8020(5) -0.2455(3)
C13 C 0.8454(8) 1.2120(5) 0.1623(3)
C14 C 0.9175(8) 1.2666(5) 0.1271(3)
C15 C 1.0055(8) 1.3241(5) 0.0841(3)
C16 C 1.0071(8) 1.2817(5) 0.0199(3)
C17 C 1.1010(9) 1.3347(5) -0.0220(4)
C18 C 1.1869(9) 1.4304(6) 0.0020(5)
C19 C 1.1855(10) 1.4758(5) 0.0650(5)
C20 C 1.0943(9) 1.4219(5) 0.1054(4)
N2 N 1.2825(9) 1.4906(7) -0.0400(6)
O1 O 1.2823(12) 1.4541(7) -0.0956(5)
O2 O 1.3626(9) 1.5738(6) -0.0190(5)
C21 C 0.7594(8) 1.1873(5) 0.2686(3)
C22 C 0.7695(9) 1.2258(6) 0.3240(3)
C23 C 0.9389(18) 1.4230(8) 0.3987(5)
C24 C 1.1149(16) 1.4092(7) 0.3661(5)
C25 C 0.7889(31) 1.4799(10) 0.3728(10)
C26 C 0.6128(21) 1.3472(18) 0.4353(7)
C27 C 0.4976(18) 1.2824(9) 0.4392(8)
C28 C 0.6500(26) 1.4423(14) 0.4931(10)
C29 C 0.9742(12) 1.2129(10) 0.4475(4)
C30 C 1.0197(18) 1.2813(12) 0.5199(6)
C31 C 0.9055(14) 1.0932(12) 0.4388(6)
C32 C 0.5829(9) 0.9848(5) 0.2151(3)
C33 C 0.4949(10) 0.9263(6) 0.2422(3)
C34 C 0.1238(13) 0.8790(7) 0.2572(4)
C35 C -0.0194(18) 0.8381(11) 0.2978(6)
C36 C 0.0586(12) 0.8481(6) 0.1834(4)
C37 C 0.4070(8) 0.8719(8) 0.3712(7)
C38 C 0.3893(16) 0.9871(7) 0.3947(5)
C39 C 0.5975(21) 0.8448(10) 0.3909(6)
C40 C 0.3833(24) 0.7079(9) 0.2462(6)
C41 C 0.4305(28) 0.6947(11) 0.1759(10)
C42 C 0.2672(27) 0.6268(9) 0.2745(10)
loop_
_geom_bond_atom_site_label_1
_geom_bond_atom_site_label_2
_geom_bond_site_symmetry_1
_geom_bond_site_symmetry_2
Si1 C22 1_555 1_555
Si2 C33 1_555 1_555
C1 C2 1_555 1_555
C2 C3 1_555 1_555
C3 C4 1_555 1_555
C4 C5 1_555 1_555
C5 C6 1_555 1_555
C6 C7 1_555 1_555
C7 C8 1_555 1_555
C8 C9 1_555 1_555
C9 C10 1_555 1_555
C10 C5 1_555 1_555
N1 C8 1_555 1_555
C11 N1 1_555 1_555
C12 N1 1_555 1_555
C13 C1 1_555 1_555
C14 C13 1_555 1_555
C15 C14 1_555 1_555
C16 C15 1_555 1_555
C17 C16 1_555 1_555
C18 C17 1_555 1_555
C19 C18 1_555 1_555
C20 C15 1_555 1_555
N2 C18 1_555 1_555
O1 N2 1_555 1_555
O2 N2 1_555 1_555
C21 C1 1_555 1_555
C22 C21 1_555 1_555
C23 Si1 1_555 1_555
C24 C23 1_555 1_555
C25 C23 1_555 1_555
C26 Si1 1_555 1_555
C27 C26 1_555 1_555
C28 C26 1_555 1_555
C29 Si1 1_555 1_555
C30 C29 1_555 1_555
C31 C29 1_555 1_555
C32 C2 1_555 1_555
C33 C32 1_555 1_555
C34 Si2 1_555 1_555
C35 C34 1_555 1_555
C36 C34 1_555 1_555
C37 Si2 1_555 1_555
C38 C37 1_555 1_555
C39 C37 1_555 1_555
C40 Si2 1_555 1_555
C41 C40 1_555 1_555
C42 C40 1_555 1_555
C19 C20 1_555 1_555

#END
