
#######################################################################
#
#                 Cambridge Crystallographic Data Centre
#                                CCDC 
#
#######################################################################
#
# If this CIF has been generated from an entry in the Cambridge 
# Structural Database, then it will include bibliographic, chemical, 
# crystal, experimental, refinement or atomic coordinate data resulting 
# from the CCDC's data processing and validation procedures.
#
#######################################################################

data_TANDET
_chemical_name_common            'Isoleucine hydrogen peroxide solvate'
_chemical_formula_moiety         'C6 H13 N1 O2,H2 O2'
_chemical_name_systematic        
'(2S,3S)-2-Amino-3-methylpentanoic acid hydrogen peroxide solvate'
_symmetry_cell_setting           monoclinic
_symmetry_space_group_name_H-M   'C 2'
_symmetry_Int_Tables_number      5
_space_group_name_Hall           'C 2y'
loop_
_symmetry_equiv_pos_site_id
_symmetry_equiv_pos_as_xyz
1 x,y,z
2 -x,y,-z
3 1/2+x,1/2+y,z
4 1/2-x,1/2+y,-z
_cell_length_a                   9.906(3)
_cell_length_b                   7.645(2)
_cell_length_c                   11.427(3)
_cell_angle_alpha                90
_cell_angle_beta                 98.162(4)
_cell_angle_gamma                90
_cell_volume                     856.617
_exptl_crystal_colour            colorless
_exptl_crystal_description       block
_cell_formula_units_Z            4
loop_
_atom_site_label
_atom_site_type_symbol
_atom_site_fract_x
_atom_site_fract_y
_atom_site_fract_z
O1 O 0.56116(9) 0.74109(13) 0.87505(8)
O2 O 0.53029(9) 0.45183(13) 0.86359(9)
N1 N 0.30296(11) 0.80878(15) 0.89183(10)
C1 C 0.48824(11) 0.60605(17) 0.86393(10)
C2 C 0.33252(11) 0.63267(15) 0.84463(10)
H1 H 0.2904 0.5418 0.8910
C3 C 0.30475(19) 0.6961(3) 0.50227(13)
H2 H 0.3515 0.7791 0.4564
H3 H 0.2060 0.7046 0.4780
H4 H 0.3352 0.5770 0.4881
C4 C 0.33830(14) 0.7391(2) 0.63367(12)
H5 H 0.3051 0.8585 0.6475
H6 H 0.4386 0.7387 0.6562
C5 C 0.27491(11) 0.61035(16) 0.71285(10)
H7 H 0.3005 0.4901 0.6893
C6 C 0.11901(12) 0.6189(2) 0.69458(12)
H8 H 0.0838 0.5809 0.6141
H9 H 0.0898 0.7393 0.7063
H10 H 0.0836 0.5418 0.7517
H13 H 0.210(2) 0.836(3) 0.8815(17)
H14 H 0.3333(19) 0.813(3) 0.9689(19)
H15 H 0.352(2) 0.889(4) 0.863(2)
O3 O 0.79596(10) 0.66333(16) 0.79069(9)
O4 O 0.87723(11) 0.67756(16) 0.90809(10)
H11 H 0.718(2) 0.687(3) 0.8064(19)
H12 H 0.933(2) 0.760(4) 0.893(2)
loop_
_geom_bond_atom_site_label_1
_geom_bond_atom_site_label_2
_geom_bond_site_symmetry_1
_geom_bond_site_symmetry_2
O1 C1 1_555 1_555
O2 C1 1_555 1_555
N1 C2 1_555 1_555
C1 C2 1_555 1_555
C2 H1 1_555 1_555
C3 H2 1_555 1_555
H3 C3 1_555 1_555
H4 C3 1_555 1_555
C4 C3 1_555 1_555
H5 C4 1_555 1_555
H6 C4 1_555 1_555
C5 C2 1_555 1_555
H7 C5 1_555 1_555
C6 C5 1_555 1_555
H8 C6 1_555 1_555
H9 C6 1_555 1_555
H10 C6 1_555 1_555
O3 O4 1_555 1_555
O4 H12 1_555 1_555
H11 O3 1_555 1_555
H13 N1 1_555 1_555
H14 N1 1_555 1_555
H15 N1 1_555 1_555
C4 C5 1_555 1_555

#END
