
#######################################################################
#
#                 Cambridge Crystallographic Data Centre
#                                CCDC 
#
#######################################################################
#
# If this CIF has been generated from an entry in the Cambridge 
# Structural Database, then it will include bibliographic, chemical, 
# crystal, experimental, refinement or atomic coordinate data resulting 
# from the CCDC's data processing and validation procedures.
#
#######################################################################

data_TANFIA
_chemical_formula_moiety         'C14 H11 N3 O2'
_chemical_name_systematic        '1-(pyrimidin-2-yl)-1H-indol-3-yl acetate'
_symmetry_cell_setting           monoclinic
_symmetry_space_group_name_H-M   'P 21/c'
_symmetry_Int_Tables_number      14
_space_group_name_Hall           '-P 2ybc'
loop_
_symmetry_equiv_pos_site_id
_symmetry_equiv_pos_as_xyz
1 x,y,z
2 -x,1/2+y,1/2-z
3 -x,-y,-z
4 x,1/2-y,1/2+z
_cell_length_a                   7.3299(8)
_cell_length_b                   10.6602(13)
_cell_length_c                   14.9394(17)
_cell_angle_alpha                90
_cell_angle_beta                 93.877(2)
_cell_angle_gamma                90
_cell_volume                     1164.67
_exptl_crystal_colour            colorless
_exptl_crystal_description       block
_cell_formula_units_Z            4
loop_
_atom_site_label
_atom_site_type_symbol
_atom_site_fract_x
_atom_site_fract_y
_atom_site_fract_z
C1 C 0.41761(19) -0.01171(15) 0.76049(9)
H1 H 0.4538 0.0192 0.7062
C2 C 0.41874(18) -0.13975(15) 0.77398(10)
H2 H 0.4538 -0.1954 0.7304
C3 C 0.36500(19) -0.18067(15) 0.85566(10)
H3 H 0.3637 -0.2665 0.8668
C4 C 0.31861(17) 0.01832(14) 0.89849(9)
C5 C 0.21077(17) 0.07932(14) 1.04988(9)
C6 C 0.18286(18) -0.03238(14) 1.09524(9)
H4 H 0.2012 -0.1097 1.0685
C7 C 0.12688(19) -0.02401(15) 1.18159(10)
H5 H 0.1077 -0.0975 1.2132
C8 C 0.09829(18) 0.09112(15) 1.22286(9)
H6 H 0.0608 0.0930 1.2811
C9 C 0.12497(18) 0.20191(15) 1.17835(9)
H7 H 0.1059 0.2787 1.2057
C10 C 0.18171(17) 0.19611(13) 1.09053(9)
C11 C 0.22331(18) 0.28937(14) 1.02662(9)
C12 C 0.27347(18) 0.23372(13) 0.95096(9)
H8 H 0.3060 0.2746 0.8994
C13 C 0.26016(18) 0.50815(14) 0.99593(9)
C14 C 0.2302(2) 0.63360(14) 1.03701(10)
H9 H 0.3462 0.6726 1.0523
H10 H 0.1653 0.6234 1.0902
H11 H 0.1599 0.6854 0.9949
N1 N 0.36674(15) 0.06972(12) 0.82196(8)
N2 N 0.31475(15) -0.10287(11) 0.91952(8)
N3 N 0.26787(15) 0.10372(11) 0.96370(7)
O1 O 0.20252(13) 0.41530(9) 1.04955(7)
O2 O 0.32641(15) 0.48948(10) 0.92581(7)
loop_
_geom_bond_atom_site_label_1
_geom_bond_atom_site_label_2
_geom_bond_site_symmetry_1
_geom_bond_site_symmetry_2
C1 H1 1_555 1_555
C2 C1 1_555 1_555
H2 C2 1_555 1_555
C3 C2 1_555 1_555
H3 C3 1_555 1_555
C4 N1 1_555 1_555
C5 C6 1_555 1_555
C6 H4 1_555 1_555
C7 C6 1_555 1_555
H5 C7 1_555 1_555
C8 C7 1_555 1_555
H6 C8 1_555 1_555
C9 C8 1_555 1_555
H7 C9 1_555 1_555
C10 C5 1_555 1_555
C11 C10 1_555 1_555
C12 C11 1_555 1_555
H8 C12 1_555 1_555
C13 C14 1_555 1_555
C14 H9 1_555 1_555
H10 C14 1_555 1_555
H11 C14 1_555 1_555
N1 C1 1_555 1_555
N2 C3 1_555 1_555
N3 C4 1_555 1_555
O1 C11 1_555 1_555
O2 C13 1_555 1_555
C4 N2 1_555 1_555
C5 N3 1_555 1_555
C9 C10 1_555 1_555
C12 N3 1_555 1_555
C13 O1 1_555 1_555

#END
