
#######################################################################
#
#                 Cambridge Crystallographic Data Centre
#                                CCDC 
#
#######################################################################
#
# If this CIF has been generated from an entry in the Cambridge 
# Structural Database, then it will include bibliographic, chemical, 
# crystal, experimental, refinement or atomic coordinate data resulting 
# from the CCDC's data processing and validation procedures.
#
#######################################################################

data_TANHEY
_chemical_formula_moiety         'C34 H49 N1 O5 S1'
_chemical_name_systematic        
'3-hydroxy-2,4,7,14-tetramethyl-9-oxo-4-vinyltricyclo[5.4.3.0^1,8^]tetradecan-6-yl ((2-methyl-1-((3-methylbenzoyl)amino)propan-2-yl)sulfanyl)acetate'
_symmetry_cell_setting           monoclinic
_symmetry_space_group_name_H-M   'P 21'
_symmetry_Int_Tables_number      4
_space_group_name_Hall           'P 2yb'
loop_
_symmetry_equiv_pos_site_id
_symmetry_equiv_pos_as_xyz
1 x,y,z
2 -x,1/2+y,-z
_cell_length_a                   14.4605(4)
_cell_length_b                   9.9703(4)
_cell_length_c                   22.7599(7)
_cell_angle_alpha                90
_cell_angle_beta                 94.799(3)
_cell_angle_gamma                90
_cell_volume                     3269.92
_exptl_crystal_colour            'light colorless'
_exptl_crystal_description       block
_cell_formula_units_Z            4
loop_
_atom_site_label
_atom_site_type_symbol
_atom_site_fract_x
_atom_site_fract_y
_atom_site_fract_z
S1 S 0.49527(10) 0.2562(2) 0.26776(6)
O1 O 0.3369(4) 0.0282(6) 0.6105(2)
O2 O 0.1137(3) 0.5768(5) 0.53492(18)
H1 H 0.1223 0.6037 0.5690
O3 O 0.4257(2) 0.3043(4) 0.42586(16)
O4 O 0.3510(2) 0.3602(5) 0.33942(17)
O5 O 0.8192(3) 0.1258(6) 0.34510(19)
N1 N 0.7371(3) 0.0472(6) 0.2635(2)
H2 H 0.7390 0.0053 0.2306
C1 C 0.3410(3) 0.3181(6) 0.4578(2)
H3 H 0.2862 0.3128 0.4295
C2 C 0.3433(3) 0.1945(6) 0.4992(2)
C3 C 0.2767(3) 0.2158(6) 0.5483(2)
H4 H 0.2942 0.3015 0.5671
C4 C 0.1711(4) 0.2250(7) 0.5290(3)
C5 C 0.1408(3) 0.3533(6) 0.4950(3)
H5 H 0.1647 0.3456 0.4561
C6 C 0.1843(4) 0.4814(6) 0.5236(3)
H6 H 0.2154 0.4555 0.5618
C7 C 0.2584(4) 0.5467(6) 0.4874(3)
C8 C 0.3459(4) 0.4578(6) 0.4861(3)
H7 H 0.3912 0.5090 0.4663
H8 H 0.3711 0.4462 0.5266
C9 C 0.3115(4) 0.0660(7) 0.4656(3)
H9 H 0.3175 -0.0066 0.4947
C10 C 0.2079(4) 0.0720(7) 0.4442(3)
H10 H 0.1982 0.1431 0.4153
H11 H 0.1900 -0.0119 0.4250
C11 C 0.1461(4) 0.0968(8) 0.4940(4)
H12 H 0.1508 0.0208 0.5207
H13 H 0.0821 0.1029 0.4776
C12 C 0.2786(5) 0.1127(9) 0.5972(3)
C13 C 0.1905(5) 0.1248(10) 0.6280(4)
H14 H 0.2034 0.1621 0.6671
H15 H 0.1615 0.0377 0.6313
C14 C 0.1281(4) 0.2181(9) 0.5895(3)
H16 H 0.1265 0.3065 0.6072
H17 H 0.0654 0.1831 0.5845
C15 C 0.3673(5) 0.0212(8) 0.4149(3)
H18 H 0.3489 0.0731 0.3803
H19 H 0.3558 -0.0721 0.4068
H20 H 0.4322 0.0345 0.4257
C16 C 0.4425(3) 0.1779(7) 0.5280(3)
H21 H 0.4462 0.0975 0.5514
H22 H 0.4582 0.2538 0.5528
H23 H 0.4851 0.1719 0.4980
C17 C 0.0338(3) 0.3624(8) 0.4842(3)
H24 H 0.0105 0.2828 0.4643
H25 H 0.0174 0.4394 0.4603
H26 H 0.0072 0.3705 0.5213
C18 C 0.2186(4) 0.5749(8) 0.4241(3)
H27 H 0.2404 0.5196 0.3954
C19 C 0.1603(6) 0.6629(10) 0.4054(4)
H28 H 0.1357 0.7216 0.4318
H29 H 0.1421 0.6688 0.3653
C20 C 0.2904(4) 0.6786(7) 0.5173(3)
H30 H 0.2392 0.7402 0.5162
H31 H 0.3396 0.7168 0.4969
H32 H 0.3123 0.6613 0.5576
C21 C 0.4201(4) 0.3255(6) 0.3679(3)
C22 C 0.5128(3) 0.2954(8) 0.3445(2)
H33 H 0.5420 0.2203 0.3658
H34 H 0.5534 0.3727 0.3502
C23 C 0.6141(4) 0.2230(6) 0.2483(2)
C24 C 0.6027(4) 0.2023(8) 0.1816(3)
H35 H 0.5617 0.1281 0.1725
H36 H 0.6621 0.1838 0.1675
H37 H 0.5772 0.2819 0.1630
C25 C 0.6782(4) 0.3400(7) 0.2633(3)
H38 H 0.6507 0.4208 0.2468
H39 H 0.7366 0.3248 0.2472
H40 H 0.6879 0.3490 0.3054
C26 C 0.6478(4) 0.0948(7) 0.2798(3)
H41 H 0.6521 0.1106 0.3220
H42 H 0.6019 0.0249 0.2712
C27 C 0.8172(4) 0.0658(7) 0.2974(3)
C28 C 0.9049(4) 0.0086(7) 0.2754(3)
C29 C 0.9108(4) -0.0249(7) 0.2177(3)
H43 H 0.8586 -0.0169 0.1911
C30 C 0.9939(4) -0.0712(7) 0.1978(3)
C31 C 1.0687(4) -0.0828(8) 0.2383(3)
H44 H 1.1248 -0.1138 0.2263
C32 C 1.0629(5) -0.0500(9) 0.2958(4)
H45 H 1.1151 -0.0598 0.3222
C33 C 0.9821(4) -0.0026(8) 0.3161(3)
H46 H 0.9791 0.0211 0.3554
C34 C 1.0008(5) -0.1042(9) 0.1339(3)
H47 H 0.9907 -0.0244 0.1106
H48 H 0.9546 -0.1699 0.1215
H49 H 1.0613 -0.1395 0.1287
S2 S 0.45272(10) 0.2528(2) 0.76987(7)
O6 O 0.1262(3) 0.6114(5) 1.06007(18)
H50 H 0.1326 0.6306 1.0952
O7 O 0.3711(3) 0.0703(6) 1.1284(2)
O8 O 0.4093(2) 0.3295(4) 0.92966(16)
O9 O 0.3170(3) 0.3737(5) 0.84763(17)
O10 O 0.7918(3) 0.1680(5) 0.82648(18)
N2 N 0.6988(3) 0.0562(6) 0.7589(2)
H51 H 0.6962 0.0050 0.7284
C35 C 0.3342(3) 0.3444(6) 0.9693(2)
H52 H 0.2739 0.3365 0.9465
C36 C 0.3476(4) 0.2258(6) 1.0134(2)
C37 C 0.2950(3) 0.2505(7) 1.0683(2)
H53 H 0.3160 0.3380 1.0839
C38 C 0.1878(3) 0.2576(7) 1.0606(2)
C39 C 0.1465(3) 0.3800(6) 1.0266(3)
H54 H 0.1587 0.3677 0.9852
C40 C 0.1940(4) 0.5126(6) 1.0473(3)
H55 H 0.2322 0.4940 1.0840
C41 C 0.2584(4) 0.5752(6) 1.0029(3)
C42 C 0.3451(4) 0.4849(6) 0.9952(3)
H56 H 0.3852 0.5344 0.9708
H57 H 0.3785 0.4760 1.0338
C43 C 0.4520(4) 0.2132(8) 1.0334(3)
H58 H 0.4622 0.1340 1.0570
H59 H 0.4717 0.2906 1.0561
H60 H 0.4868 0.2071 0.9993
C44 C 0.3095(4) 0.0911(7) 0.9854(3)
H61 H 0.3241 0.0210 1.0149
C45 C 0.2025(4) 0.0957(8) 0.9747(3)
H62 H 0.1851 0.1642 0.9456
H63 H 0.1803 0.0102 0.9589
C46 C 0.1560(4) 0.1253(7) 1.0303(3)
H64 H 0.1687 0.0521 1.0578
H65 H 0.0895 0.1290 1.0207
C47 C 0.3105(5) 0.1518(8) 1.1194(3)
C48 C 0.2332(5) 0.1703(8) 1.1595(3)
H66 H 0.2560 0.2154 1.1956
H67 H 0.2075 0.0842 1.1695
C49 C 0.1605(4) 0.2551(8) 1.1250(3)
H68 H 0.1600 0.3453 1.1410
H69 H 0.0994 0.2161 1.1268
C50 C 0.3516(5) 0.0452(7) 0.9289(3)
H70 H 0.3276 0.0997 0.8964
H71 H 0.3356 -0.0469 0.9211
H72 H 0.4179 0.0541 0.9340
C51 C 0.0401(3) 0.3872(8) 1.0283(3)
H73 H 0.0253 0.4029 1.0681
H74 H 0.0128 0.3041 1.0144
H75 H 0.0159 0.4592 1.0035
C52 C 0.2073(4) 0.5956(7) 0.9425(3)
H76 H 0.2107 0.5241 0.9166
C53 C 0.1612(5) 0.6945(8) 0.9225(4)
H77 H 0.1548 0.7697 0.9460
H78 H 0.1334 0.6925 0.8841
C54 C 0.2960(4) 0.7079(7) 1.0284(3)
H79 H 0.3269 0.6927 1.0668
H80 H 0.2456 0.7695 1.0314
H81 H 0.3392 0.7449 1.0030
C55 C 0.3906(4) 0.3456(7) 0.8719(3)
C56 C 0.4790(4) 0.3215(8) 0.8425(2)
H82 H 0.5184 0.2597 0.8661
H83 H 0.5124 0.4053 0.8398
C57 C 0.5693(4) 0.2238(6) 0.7447(2)
C58 C 0.5474(4) 0.1856(9) 0.6792(3)
H84 H 0.5055 0.1108 0.6764
H85 H 0.6038 0.1617 0.6624
H86 H 0.5192 0.2606 0.6581
C59 C 0.6293(4) 0.3482(7) 0.7502(3)
H87 H 0.5963 0.4222 0.7314
H88 H 0.6855 0.3329 0.7316
H89 H 0.6441 0.3684 0.7912
C60 C 0.6122(4) 0.1046(7) 0.7799(3)
H90 H 0.6236 0.1310 0.8209
H91 H 0.5677 0.0316 0.7781
C61 C 0.7826(4) 0.0884(7) 0.7854(3)
C62 C 0.8665(4) 0.0194(7) 0.7638(3)
C63 C 0.9525(4) 0.0605(8) 0.7872(3)
H92 H 0.9565 0.1290 0.8150
C64 C 1.0331(5) 0.0030(9) 0.7705(3)
C65 C 1.0267(5) -0.0990(9) 0.7311(4)
H93 H 1.0806 -0.1398 0.7204
C66 C 0.9427(5) -0.1431(9) 0.7069(3)
H94 H 0.9397 -0.2121 0.6792
C67 C 0.8620(5) -0.0849(8) 0.7235(3)
H95 H 0.8047 -0.1160 0.7075
C68 C 1.1259(4) 0.0544(12) 0.7977(4)
H96 H 1.1335 0.0296 0.8386
H97 H 1.1278 0.1504 0.7943
H98 H 1.1751 0.0159 0.7774
loop_
_geom_bond_atom_site_label_1
_geom_bond_atom_site_label_2
_geom_bond_site_symmetry_1
_geom_bond_site_symmetry_2
S1 C22 1_555 1_555
O1 C12 1_555 1_555
O2 H1 1_555 1_555
O3 C1 1_555 1_555
O4 C21 1_555 1_555
O5 C27 1_555 1_555
N1 H2 1_555 1_555
C1 H3 1_555 1_555
C2 C1 1_555 1_555
C3 C2 1_555 1_555
H4 C3 1_555 1_555
C4 C3 1_555 1_555
C5 C4 1_555 1_555
H5 C5 1_555 1_555
C6 O2 1_555 1_555
H6 C6 1_555 1_555
C7 C6 1_555 1_555
C8 C1 1_555 1_555
H7 C8 1_555 1_555
H8 C8 1_555 1_555
C9 C2 1_555 1_555
H9 C9 1_555 1_555
C10 C9 1_555 1_555
H10 C10 1_555 1_555
H11 C10 1_555 1_555
C11 C4 1_555 1_555
H12 C11 1_555 1_555
H13 C11 1_555 1_555
C12 C3 1_555 1_555
C13 C12 1_555 1_555
H14 C13 1_555 1_555
H15 C13 1_555 1_555
C14 C4 1_555 1_555
H16 C14 1_555 1_555
H17 C14 1_555 1_555
C15 C9 1_555 1_555
H18 C15 1_555 1_555
H19 C15 1_555 1_555
H20 C15 1_555 1_555
C16 C2 1_555 1_555
H21 C16 1_555 1_555
H22 C16 1_555 1_555
H23 C16 1_555 1_555
C17 C5 1_555 1_555
H24 C17 1_555 1_555
H25 C17 1_555 1_555
H26 C17 1_555 1_555
C18 C7 1_555 1_555
H27 C18 1_555 1_555
C19 C18 1_555 1_555
H28 C19 1_555 1_555
H29 C19 1_555 1_555
C20 C7 1_555 1_555
H30 C20 1_555 1_555
H31 C20 1_555 1_555
H32 C20 1_555 1_555
C21 O3 1_555 1_555
C22 C21 1_555 1_555
H33 C22 1_555 1_555
H34 C22 1_555 1_555
C23 S1 1_555 1_555
C24 C23 1_555 1_555
H35 C24 1_555 1_555
H36 C24 1_555 1_555
H37 C24 1_555 1_555
C25 C23 1_555 1_555
H38 C25 1_555 1_555
H39 C25 1_555 1_555
H40 C25 1_555 1_555
C26 N1 1_555 1_555
H41 C26 1_555 1_555
H42 C26 1_555 1_555
C27 N1 1_555 1_555
C28 C27 1_555 1_555
C29 C28 1_555 1_555
H43 C29 1_555 1_555
C30 C29 1_555 1_555
C31 C30 1_555 1_555
H44 C31 1_555 1_555
C32 C31 1_555 1_555
H45 C32 1_555 1_555
C33 C28 1_555 1_555
H46 C33 1_555 1_555
C34 C30 1_555 1_555
H47 C34 1_555 1_555
H48 C34 1_555 1_555
H49 C34 1_555 1_555
S2 C56 1_555 1_555
O6 H50 1_555 1_555
O7 C47 1_555 1_555
O8 C35 1_555 1_555
O9 C55 1_555 1_555
O10 C61 1_555 1_555
N2 H51 1_555 1_555
C35 H52 1_555 1_555
C36 C35 1_555 1_555
C37 C36 1_555 1_555
H53 C37 1_555 1_555
C38 C37 1_555 1_555
C39 C38 1_555 1_555
H54 C39 1_555 1_555
C40 O6 1_555 1_555
H55 C40 1_555 1_555
C41 C40 1_555 1_555
C42 C35 1_555 1_555
H56 C42 1_555 1_555
H57 C42 1_555 1_555
C43 C36 1_555 1_555
H58 C43 1_555 1_555
H59 C43 1_555 1_555
H60 C43 1_555 1_555
C44 C36 1_555 1_555
H61 C44 1_555 1_555
C45 C44 1_555 1_555
H62 C45 1_555 1_555
H63 C45 1_555 1_555
C46 C38 1_555 1_555
H64 C46 1_555 1_555
H65 C46 1_555 1_555
C47 C37 1_555 1_555
C48 C47 1_555 1_555
H66 C48 1_555 1_555
H67 C48 1_555 1_555
C49 C38 1_555 1_555
H68 C49 1_555 1_555
H69 C49 1_555 1_555
C50 C44 1_555 1_555
H70 C50 1_555 1_555
H71 C50 1_555 1_555
H72 C50 1_555 1_555
C51 C39 1_555 1_555
H73 C51 1_555 1_555
H74 C51 1_555 1_555
H75 C51 1_555 1_555
C52 C41 1_555 1_555
H76 C52 1_555 1_555
C53 C52 1_555 1_555
H77 C53 1_555 1_555
H78 C53 1_555 1_555
C54 C41 1_555 1_555
H79 C54 1_555 1_555
H80 C54 1_555 1_555
H81 C54 1_555 1_555
C55 O8 1_555 1_555
C56 C55 1_555 1_555
H82 C56 1_555 1_555
H83 C56 1_555 1_555
C57 S2 1_555 1_555
C58 C57 1_555 1_555
H84 C58 1_555 1_555
H85 C58 1_555 1_555
H86 C58 1_555 1_555
C59 C57 1_555 1_555
H87 C59 1_555 1_555
H88 C59 1_555 1_555
H89 C59 1_555 1_555
C60 N2 1_555 1_555
H90 C60 1_555 1_555
H91 C60 1_555 1_555
C61 N2 1_555 1_555
C62 C61 1_555 1_555
C63 C62 1_555 1_555
H92 C63 1_555 1_555
C64 C63 1_555 1_555
C65 C64 1_555 1_555
H93 C65 1_555 1_555
C66 C65 1_555 1_555
H94 C66 1_555 1_555
C67 C62 1_555 1_555
H95 C67 1_555 1_555
C68 C64 1_555 1_555
H96 C68 1_555 1_555
H97 C68 1_555 1_555
H98 C68 1_555 1_555
C5 C6 1_555 1_555
C7 C8 1_555 1_555
C10 C11 1_555 1_555
C13 C14 1_555 1_555
C23 C26 1_555 1_555
C32 C33 1_555 1_555
C39 C40 1_555 1_555
C41 C42 1_555 1_555
C45 C46 1_555 1_555
C48 C49 1_555 1_555
C57 C60 1_555 1_555
C66 C67 1_555 1_555

#END
