
#######################################################################
#
#                 Cambridge Crystallographic Data Centre
#                                CCDC 
#
#######################################################################
#
# If this CIF has been generated from an entry in the Cambridge 
# Structural Database, then it will include bibliographic, chemical, 
# crystal, experimental, refinement or atomic coordinate data resulting 
# from the CCDC's data processing and validation procedures.
#
#######################################################################

data_TANNII
_chemical_name_common            1-methyl-2,4-dinitro-5-iodoimidzole
_chemical_formula_moiety         'C4 H3 I1 N4 O4'
_chemical_name_systematic        5-iodo-1-methyl-2,4-dinitro-1H-imidazole
_symmetry_cell_setting           orthorhombic
_symmetry_space_group_name_H-M   'P b c a'
_symmetry_Int_Tables_number      61
_space_group_name_Hall           '-P 2ac 2ab'
loop_
_symmetry_equiv_pos_site_id
_symmetry_equiv_pos_as_xyz
1 x,y,z
2 1/2-x,-y,1/2+z
3 1/2+x,1/2-y,-z
4 -x,1/2+y,1/2-z
5 -x,-y,-z
6 1/2+x,y,1/2-z
7 1/2-x,1/2+y,z
8 x,1/2-y,1/2+z
_cell_length_a                   9.9513(6)
_cell_length_b                   11.3365(4)
_cell_length_c                   14.3295(12)
_cell_angle_alpha                90
_cell_angle_beta                 90
_cell_angle_gamma                90
_cell_volume                     1616.55
_exptl_crystal_colour            colorless
_exptl_crystal_description       block
_chemical_melting_point          '493.2 K'
_cell_formula_units_Z            8
loop_
_atom_site_label
_atom_site_type_symbol
_atom_site_fract_x
_atom_site_fract_y
_atom_site_fract_z
I1 I 0.07674(3) 0.75983(2) 0.287870(18)
N1 N 0.1556(3) 0.9159(3) 0.1234(2)
C1 C 0.2290(4) 0.9996(3) 0.1853(3)
H1 H 0.1875 1.0778 0.1811
H2 H 0.3231 1.0046 0.1656
H3 H 0.2247 0.9715 0.2499
N2 N -0.0396(3) 0.6637(3) 0.0563(2)
C2 C 0.0916(4) 0.8142(3) 0.1503(3)
C3 C 0.0405(4) 0.7684(3) 0.0682(3)
O1 O -0.0608(3) 0.6024(3) 0.1253(2)
O2 O -0.0825(3) 0.6424(3) -0.02254(19)
O3 O 0.1504(3) 1.0180(2) -0.11046(19)
O4 O 0.2522(3) 1.0967(2) 0.0084(2)
N3 N 0.0690(3) 0.8360(3) -0.0068(2)
N4 N 0.1866(3) 1.0214(3) -0.0291(2)
C4 C 0.1378(4) 0.9227(3) 0.0290(3)
loop_
_geom_bond_atom_site_label_1
_geom_bond_atom_site_label_2
_geom_bond_site_symmetry_1
_geom_bond_site_symmetry_2
I1 C2 1_555 1_555
N1 C1 1_555 1_555
C1 H1 1_555 1_555
H2 C1 1_555 1_555
H3 C1 1_555 1_555
N2 C3 1_555 1_555
C2 N1 1_555 1_555
C3 C2 1_555 1_555
O1 N2 1_555 1_555
O2 N2 1_555 1_555
O3 N4 1_555 1_555
O4 N4 1_555 1_555
N3 C3 1_555 1_555
N4 C4 1_555 1_555
C4 N1 1_555 1_555
N3 C4 1_555 1_555

#END
