
#######################################################################
#
#                 Cambridge Crystallographic Data Centre
#                                CCDC 
#
#######################################################################
#
# If this CIF has been generated from an entry in the Cambridge 
# Structural Database, then it will include bibliographic, chemical, 
# crystal, experimental, refinement or atomic coordinate data resulting 
# from the CCDC's data processing and validation procedures.
#
#######################################################################

data_TANPUW
_chemical_formula_moiety         'C6 H4 Cl1 N3 O4'
_chemical_name_systematic        4-chloro-3,5-dinitroaniline
_symmetry_cell_setting           monoclinic
_symmetry_space_group_name_H-M   'C c'
_symmetry_Int_Tables_number      9
_space_group_name_Hall           'C -2yc'
loop_
_symmetry_equiv_pos_site_id
_symmetry_equiv_pos_as_xyz
1 x,y,z
2 x,-y,1/2+z
3 1/2+x,1/2+y,z
4 1/2+x,1/2-y,1/2+z
_cell_length_a                   14.1945(7)
_cell_length_b                   8.1107(3)
_cell_length_c                   15.3834(6)
_cell_angle_alpha                90
_cell_angle_beta                 115.472(6)
_cell_angle_gamma                90
_cell_volume                     1598.9
_exptl_crystal_colour            'brownish red'
_exptl_crystal_description       block
_chemical_melting_point          '481.2 K'
_cell_formula_units_Z            8
loop_
_atom_site_label
_atom_site_type_symbol
_atom_site_fract_x
_atom_site_fract_y
_atom_site_fract_z
Cl1 Cl -0.27657(4) -0.20277(6) -0.21736(4)
O1 O -0.31206(14) -0.3147(2) 0.03255(12)
O2 O -0.08117(14) -0.2233(2) -0.24315(12)
O3 O -0.31047(15) -0.1024(2) -0.05187(14)
O4 O -0.04694(14) -0.4856(2) -0.22877(12)
N1 N -0.07356(15) -0.3566(2) -0.20375(13)
N2 N 0.04874(16) -0.5335(3) 0.12546(13)
H1 H 0.1034 -0.5726 0.1221
H2 H 0.0422 -0.5405 0.1784
N3 N -0.27819(15) -0.2369(2) -0.01607(13)
C1 C -0.01844(19) -0.4478(3) -0.04011(15)
H3 H 0.0381 -0.4959 -0.0458
C2 C -0.09293(18) -0.3644(3) -0.11685(15)
C3 C -0.02805(18) -0.4600(3) 0.04634(15)
C4 C -0.18116(19) -0.2901(3) -0.11618(16)
C5 C -0.18946(19) -0.3083(3) -0.02876(16)
C6 C -0.11649(18) -0.3898(3) 0.04997(15)
H4 H -0.1260 -0.3984 0.1060
Cl2 Cl -0.27376(4) -0.67217(6) -0.23098(4)
O5 O -0.00013(15) -0.8617(2) -0.22916(12)
O6 O -0.25860(15) -0.6992(2) 0.05115(12)
O7 O -0.36188(14) -0.7317(2) -0.09930(13)
O8 O -0.16757(15) -0.8849(2) -0.31063(11)
N4 N 0.05061(16) -1.0357(2) 0.09724(13)
H5 H 0.1020 -1.0804 0.0905
H6 H 0.0475 -1.0406 0.1518
N5 N -0.27561(16) -0.7382(2) -0.03103(14)
N6 N -0.08922(17) -0.8693(2) -0.23525(14)
C7 C -0.18559(18) -0.7890(3) -0.13825(16)
C8 C -0.02612(18) -0.9566(3) 0.02117(16)
C9 C -0.18703(19) -0.8014(3) -0.04777(17)
C10 C -0.02283(19) -0.9469(3) -0.06826(16)
H7 H 0.0318 -0.9958 -0.0768
C11 C -0.10028(18) -0.8649(3) -0.14372(16)
C12 C -0.11030(19) -0.8806(3) 0.03037(16)
H8 H -0.1145 -0.8835 0.0890
loop_
_geom_bond_atom_site_label_1
_geom_bond_atom_site_label_2
_geom_bond_site_symmetry_1
_geom_bond_site_symmetry_2
Cl1 C4 1_555 1_555
O1 N3 1_555 1_555
O2 N1 1_555 1_555
O3 N3 1_555 1_555
O4 N1 1_555 1_555
N1 C2 1_555 1_555
N2 H1 1_555 1_555
H2 N2 1_555 1_555
N3 C5 1_555 1_555
C1 H3 1_555 1_555
C2 C1 1_555 1_555
C3 N2 1_555 1_555
C4 C2 1_555 1_555
C5 C4 1_555 1_555
C6 C3 1_555 1_555
H4 C6 1_555 1_555
Cl2 C7 1_555 1_555
O5 N6 1_555 1_555
O6 N5 1_555 1_555
O7 N5 1_555 1_555
O8 N6 1_555 1_555
N4 H5 1_555 1_555
H6 N4 1_555 1_555
N5 C9 1_555 1_555
N6 C11 1_555 1_555
C7 C9 1_555 1_555
C8 N4 1_555 1_555
C9 C12 1_555 1_555
C10 C8 1_555 1_555
H7 C10 1_555 1_555
C11 C7 1_555 1_555
C12 C8 1_555 1_555
H8 C12 1_555 1_555
C1 C3 1_555 1_555
C5 C6 1_555 1_555
C10 C11 1_555 1_555

#END
