
#######################################################################
#
#                 Cambridge Crystallographic Data Centre
#                                CCDC 
#
#######################################################################
#
# If this CIF has been generated from an entry in the Cambridge 
# Structural Database, then it will include bibliographic, chemical, 
# crystal, experimental, refinement or atomic coordinate data resulting 
# from the CCDC's data processing and validation procedures.
#
#######################################################################

data_TANPIJ
_chemical_formula_moiety         'C35 H28 N2 O2 S2'
_chemical_name_systematic        
9-Octyl-8,10-dioxo-7,11-bis(2-thienyl)-9,10-dihydro-8H-acenaphtho[1,2-f]isoindole-3-carbonitrile
_symmetry_cell_setting           monoclinic
_symmetry_space_group_name_H-M   'P 21/n'
_symmetry_Int_Tables_number      14
_space_group_name_Hall           '-P 2yn'
loop_
_symmetry_equiv_pos_site_id
_symmetry_equiv_pos_as_xyz
1 x,y,z
2 1/2-x,1/2+y,1/2-z
3 -x,-y,-z
4 1/2+x,1/2-y,1/2+z
_cell_length_a                   8.206(2)
_cell_length_b                   16.797(4)
_cell_length_c                   20.764(6)
_cell_angle_alpha                90
_cell_angle_beta                 92.004(5)
_cell_angle_gamma                90
_cell_volume                     2860.28
_exptl_crystal_colour            colorless
_exptl_crystal_description       prism
_cell_formula_units_Z            4
loop_
_atom_site_label
_atom_site_type_symbol
_atom_site_fract_x
_atom_site_fract_y
_atom_site_fract_z
O1 O 0.22107(19) 0.26365(9) 0.14836(7)
O2 O 0.24260(19) 0.17260(9) -0.05863(7)
N1 N 0.1940(2) 0.21207(10) 0.04537(8)
C1 C 0.2752(3) 0.25261(12) 0.09544(10)
C2 C 0.4366(3) 0.27667(12) 0.06996(10)
C3 C 0.5656(3) 0.31739(12) 0.10057(10)
C4 C 0.6998(3) 0.33281(12) 0.06198(10)
C5 C 0.8539(3) 0.37503(12) 0.07711(10)
C6 C 0.9246(3) 0.41031(13) 0.13089(11)
H1 H 0.8703 0.4106 0.1706
C7 C 1.0796(3) 0.44615(13) 0.12602(11)
H2 H 1.1280 0.4706 0.1633
C8 C 1.1641(3) 0.44726(13) 0.06948(11)
C9 C 1.0955(3) 0.40922(12) 0.01374(11)
C10 C 1.1673(3) 0.40131(13) -0.04786(11)
C11 C 1.0850(3) 0.36027(14) -0.09675(11)
H3 H 1.1348 0.3552 -0.1372
C12 C 0.9303(3) 0.32561(13) -0.08912(11)
H4 H 0.8771 0.2976 -0.1236
C13 C 0.8579(3) 0.33337(12) -0.03043(10)
C14 C 0.7024(3) 0.30683(12) -0.00347(10)
C15 C 0.5738(3) 0.26382(12) -0.03249(10)
C16 C 0.4407(3) 0.25004(12) 0.00618(10)
C17 C 0.2863(3) 0.20683(13) -0.00955(11)
S1 S 0.6860(3) 0.15368(13) -0.12023(12)
C18 C 0.5896(10) 0.2378(5) -0.1008(4)
C19 C 0.5269(16) 0.2756(8) -0.1537(4)
H5 H 0.4798 0.3275 -0.1564
C20 C 0.5636(10) 0.2382(4) -0.2164(5)
H6 H 0.5220 0.2692 -0.2514
C21 C 0.6509(12) 0.1736(4) -0.2000(3)
H7 H 0.6959 0.1374 -0.2297
S3 S 0.63084(17) 0.27754(8) 0.22799(6)
C26 C 0.5646(8) 0.3430(3) 0.1674(2)
C27 C 0.5402(14) 0.4155(6) 0.1921(4)
H11 H 0.5036 0.4599 0.1643
C28 C 0.5667(10) 0.4195(3) 0.2619(3)
H12 H 0.5578 0.4665 0.2871
C29 C 0.6179(9) 0.3503(3) 0.2867(3)
H13 H 0.6586 0.3331 0.3278
C34 C 0.9425(3) 0.37455(12) 0.01941(10)
C35 C 0.0337(3) 0.17511(13) 0.05052(11)
H17 H -0.0227 0.1749 0.0076
H18 H -0.0325 0.2071 0.0799
C36 C 0.0465(3) 0.09025(13) 0.07561(12)
H19 H 0.1315 0.0617 0.0520
H20 H 0.0810 0.0915 0.1218
C37 C -0.1130(3) 0.04487(14) 0.06815(13)
H21 H -0.0926 -0.0116 0.0795
H22 H -0.1502 0.0466 0.0223
C38 C -0.2490(3) 0.07604(14) 0.10899(13)
H23 H -0.2814 0.1297 0.0936
H24 H -0.2082 0.0810 0.1542
C39 C -0.3977(3) 0.02187(15) 0.10643(13)
H25 H -0.4306 0.0126 0.0607
H26 H -0.3666 -0.0302 0.1255
C40 C -0.5434(3) 0.05402(15) 0.14125(12)
H27 H -0.6385 0.0195 0.1308
H28 H -0.5691 0.1078 0.1242
C41 C -0.5225(3) 0.05960(15) 0.21419(12)
H29 H -0.4959 0.0063 0.2319
H30 H -0.4301 0.0955 0.2254
C42 C -0.6759(3) 0.09072(16) 0.24482(13)
H31 H -0.7020 0.1437 0.2276
H32 H -0.6575 0.0941 0.2916
H33 H -0.7668 0.0544 0.2349
N2 N 1.4358(7) 0.5270(3) 0.0690(2)
C43 C 1.3084(6) 0.4899(3) 0.0692(2)
S2? S 0.4999(7) 0.2866(3) -0.16336(18)
C22? C 0.5671(14) 0.2331(7) -0.0991(7)
C23? C 0.6454(12) 0.1672(8) -0.1181(7)
H8? H 0.6747 0.1400 -0.0791
C24? C 0.5845(13) 0.2170(5) -0.2120(6)
H9? H 0.5496 0.2255 -0.2556
C25? C 0.6619(17) 0.1531(7) -0.1884(5)
H10? H 0.7001 0.0998 -0.1896
S4? S 0.5166(7) 0.4226(3) 0.2001(2)
C30? C 0.586(2) 0.3323(8) 0.1783(7)
C31? C 0.6759(12) 0.2837(7) 0.2217(5)
H14? H 0.6782 0.2280 0.2159
C32? C 0.574(2) 0.4005(10) 0.2759(5)
H15? H 0.542(8) 0.447(3) 0.299(3)
C33? C 0.644(2) 0.3282(9) 0.2823(7)
H16? H 0.7002 0.3030 0.3175
N3? N 1.4508(5) 0.4550(2) -0.0691(2)
C44? C 1.3242(5) 0.4305(2) -0.05960(19)
loop_
_geom_bond_atom_site_label_1
_geom_bond_atom_site_label_2
_geom_bond_site_symmetry_1
_geom_bond_site_symmetry_2
O1 C1 1_555 1_555
O2 C17 1_555 1_555
N1 C1 1_555 1_555
C1 C2 1_555 1_555
C2 C3 1_555 1_555
C3 C4 1_555 1_555
C4 C5 1_555 1_555
C5 C6 1_555 1_555
C6 H1 1_555 1_555
C7 C6 1_555 1_555
H2 C7 1_555 1_555
C8 C7 1_555 1_555
C9 C8 1_555 1_555
C10 C9 1_555 1_555
C11 C10 1_555 1_555
H3 C11 1_555 1_555
C12 C11 1_555 1_555
H4 C12 1_555 1_555
C13 C12 1_555 1_555
C14 C4 1_555 1_555
C15 C14 1_555 1_555
C16 C2 1_555 1_555
C17 N1 1_555 1_555
S1 C18 1_555 1_555
C18 C15 1_555 1_555
C19 C18 1_555 1_555
H5 C19 1_555 1_555
C20 C19 1_555 1_555
H6 C20 1_555 1_555
C21 S1 1_555 1_555
H7 C21 1_555 1_555
S3 C26 1_555 1_555
C26 C3 1_555 1_555
C27 C26 1_555 1_555
H11 C27 1_555 1_555
C28 C27 1_555 1_555
H12 C28 1_555 1_555
C29 S3 1_555 1_555
H13 C29 1_555 1_555
C34 C5 1_555 1_555
C35 N1 1_555 1_555
H17 C35 1_555 1_555
H18 C35 1_555 1_555
C36 C35 1_555 1_555
H19 C36 1_555 1_555
H20 C36 1_555 1_555
C37 C36 1_555 1_555
H21 C37 1_555 1_555
H22 C37 1_555 1_555
C38 C37 1_555 1_555
H23 C38 1_555 1_555
H24 C38 1_555 1_555
C39 C38 1_555 1_555
H25 C39 1_555 1_555
H26 C39 1_555 1_555
C40 C39 1_555 1_555
H27 C40 1_555 1_555
H28 C40 1_555 1_555
C41 C40 1_555 1_555
H29 C41 1_555 1_555
H30 C41 1_555 1_555
C42 C41 1_555 1_555
H31 C42 1_555 1_555
H32 C42 1_555 1_555
H33 C42 1_555 1_555
N2 C43 1_555 1_555
C43 C8 1_555 1_555
C9 C34 1_555 1_555
C13 C14 1_555 1_555
C13 C34 1_555 1_555
C15 C16 1_555 1_555
C16 C17 1_555 1_555
C20 C21 1_555 1_555
C28 C29 1_555 1_555

#END
