
#######################################################################
#
#                 Cambridge Crystallographic Data Centre
#                                CCDC 
#
#######################################################################
#
# If this CIF has been generated from an entry in the Cambridge 
# Structural Database, then it will include bibliographic, chemical, 
# crystal, experimental, refinement or atomic coordinate data resulting 
# from the CCDC's data processing and validation procedures.
#
#######################################################################

data_TANWAJ
_chemical_formula_moiety         'C21 H22 N3 1+,I1 1-'
_chemical_name_systematic        
'2-(4-(dimethylamino)phenyl)-1,3-dimethyl-1H-perimidin-3-ium iodide'
_symmetry_cell_setting           monoclinic
_symmetry_space_group_name_H-M   'C 2/c'
_symmetry_Int_Tables_number      15
_space_group_name_Hall           '-C 2yn'
loop_
_symmetry_equiv_pos_site_id
_symmetry_equiv_pos_as_xyz
1 x,y,z
2 -x,y,1/2-z
3 1/2+x,1/2+y,z
4 1/2-x,1/2+y,1/2-z
5 -x,-y,-z
6 x,-y,1/2+z
7 1/2-x,1/2-y,-z
8 1/2+x,1/2-y,1/2+z
_cell_length_a                   21.829(7)
_cell_length_b                   10.741(3)
_cell_length_c                   17.564(5)
_cell_angle_alpha                90
_cell_angle_beta                 109.446(3)
_cell_angle_gamma                90
_cell_volume                     3883.23
_exptl_crystal_colour            'light yellow'
_exptl_crystal_description       needle
_cell_formula_units_Z            8
loop_
_atom_site_label
_atom_site_type_symbol
_atom_site_fract_x
_atom_site_fract_y
_atom_site_fract_z
N1 N 0.20884(10) 0.37508(18) 0.33968(12)
N2 N 0.12126(10) 0.36977(19) 0.38674(13)
N3 N 0.07296(12) 0.8984(2) 0.20445(13)
C1 C 0.09106(12) 0.5596(2) 0.23325(15)
H1 H 0.0760 0.4870 0.2041
C2 C 0.13725(12) 0.2486(2) 0.41971(15)
C3 C 0.23068(12) 0.2553(2) 0.37200(14)
C4 C 0.09188(13) 0.7843(2) 0.23960(15)
C5 C 0.15675(18) 0.6603(3) 0.35194(18)
H2 H 0.1861 0.6565 0.4042
C6 C 0.13451(12) 0.5516(2) 0.31087(15)
C7 C 0.26907(13) 0.0197(2) 0.43570(14)
H3 H 0.2826 -0.0590 0.4567
C8 C 0.17423(13) 0.0124(2) 0.48431(15)
H4 H 0.1862 -0.0659 0.5069
C9 C 0.28508(13) 0.2008(3) 0.36377(16)
H5 H 0.3094 0.2420 0.3370
C10 C 0.06461(15) 0.4315(3) 0.3995(2)
H6 H 0.0262 0.3833 0.3742
H7 H 0.0593 0.5133 0.3762
H8 H 0.0717 0.4377 0.4563
C11 C 0.06958(12) 0.6732(2) 0.19824(15)
H9 H 0.0397 0.6761 0.1462
C12 C 0.15587(12) 0.4273(2) 0.34743(14)
C13 C 0.19375(11) 0.1936(2) 0.41275(13)
C14 C 0.11971(14) 0.0676(3) 0.48915(17)
H10 H 0.0946 0.0253 0.5144
C15 C 0.24644(15) 0.4374(3) 0.29498(18)
H11 H 0.2910 0.4440 0.3289
H12 H 0.2291 0.5191 0.2792
H13 H 0.2437 0.3897 0.2477
C16 C 0.10001(13) 0.1862(3) 0.45725(18)
H14 H 0.0625 0.2222 0.4613
C17 C 0.13655(19) 0.7745(3) 0.31749(18)
H15 H 0.1529 0.8464 0.3466
C18 C 0.09575(18) 1.0116(3) 0.24875(19)
H16 H 0.0814 1.0147 0.2948
H17 H 0.0787 1.0819 0.2145
H18 H 0.1424 1.0137 0.2665
C19 C 0.02107(15) 0.9075(3) 0.12874(17)
H19 H 0.0313 0.8583 0.0890
H20 H 0.0156 0.9929 0.1116
H21 H -0.0184 0.8775 0.1350
C20 C 0.21287(12) 0.0729(2) 0.44523(13)
C21 C 0.30325(14) 0.0818(3) 0.39640(16)
H22 H 0.3400 0.0446 0.3908
I1 I 0.098190(12) 0.27074(2) 0.080683(16)
loop_
_geom_bond_atom_site_label_1
_geom_bond_atom_site_label_2
_geom_bond_site_symmetry_1
_geom_bond_site_symmetry_2
N1 C3 1_555 1_555
N2 C2 1_555 1_555
N3 C4 1_555 1_555
C1 H1 1_555 1_555
C2 C13 1_555 1_555
C3 C9 1_555 1_555
C4 C11 1_555 1_555
C5 H2 1_555 1_555
C6 C1 1_555 1_555
C7 H3 1_555 1_555
C8 H4 1_555 1_555
C9 H5 1_555 1_555
C10 N2 1_555 1_555
H6 C10 1_555 1_555
H7 C10 1_555 1_555
H8 C10 1_555 1_555
C11 C1 1_555 1_555
H9 C11 1_555 1_555
C12 N1 1_555 1_555
C13 C3 1_555 1_555
C14 C8 1_555 1_555
H10 C14 1_555 1_555
C15 N1 1_555 1_555
H11 C15 1_555 1_555
H12 C15 1_555 1_555
H13 C15 1_555 1_555
C16 C2 1_555 1_555
H14 C16 1_555 1_555
C17 C4 1_555 1_555
H15 C17 1_555 1_555
C18 N3 1_555 1_555
H16 C18 1_555 1_555
H17 C18 1_555 1_555
H18 C18 1_555 1_555
C19 N3 1_555 1_555
H19 C19 1_555 1_555
H20 C19 1_555 1_555
H21 C19 1_555 1_555
C20 C7 1_555 1_555
C21 C7 1_555 1_555
H22 C21 1_555 1_555
N2 C12 1_555 1_555
C5 C6 1_555 1_555
C5 C17 1_555 1_555
C6 C12 1_555 1_555
C8 C20 1_555 1_555
C9 C21 1_555 1_555
C13 C20 1_555 1_555
C14 C16 1_555 1_555

#END
