
#######################################################################
#
#                 Cambridge Crystallographic Data Centre
#                                CCDC 
#
#######################################################################
#
# If this CIF has been generated from an entry in the Cambridge 
# Structural Database, then it will include bibliographic, chemical, 
# crystal, experimental, refinement or atomic coordinate data resulting 
# from the CCDC's data processing and validation procedures.
#
#######################################################################

data_TANXUD
_chemical_formula_moiety         'C34 H54 Cl2 Li2 N6 O2'
_chemical_name_systematic        
bis(\m~2~-1-(4-Chlorophenyl)-2,3-diisopropylguanidinido)-bis(tetrahydrofuran)-di-lithium
_symmetry_cell_setting           monoclinic
_symmetry_space_group_name_H-M   'P 2/n'
_symmetry_Int_Tables_number      13
_space_group_name_Hall           '-P 2yac'
loop_
_symmetry_equiv_pos_site_id
_symmetry_equiv_pos_as_xyz
1 x,y,z
2 1/2-x,y,1/2-z
3 -x,-y,-z
4 1/2+x,-y,1/2+z
_cell_length_a                   13.453(5)
_cell_length_b                   9.887(4)
_cell_length_c                   14.865(5)
_cell_angle_alpha                90
_cell_angle_beta                 96.677(5)
_cell_angle_gamma                90
_cell_volume                     1963.78
_exptl_crystal_colour            colorless
_exptl_crystal_description       prism
_cell_formula_units_Z            2
loop_
_atom_site_label
_atom_site_type_symbol
_atom_site_fract_x
_atom_site_fract_y
_atom_site_fract_z
Cl1 Cl 0.17244(13) 0.21457(12) 0.56089(8)
O1 O 0.0279(2) 0.6652(4) 0.1849(2)
N1 N 0.2318(2) 0.7172(3) 0.35550(19)
N2 N 0.1426(2) 0.9060(3) 0.31080(19)
N3 N 0.2082(2) 0.8871(3) 0.46562(18)
H1 H 0.181(3) 0.964(4) 0.477(2)
C1 C 0.1917(2) 0.8409(3) 0.3779(2)
C2 C 0.2136(2) 0.6029(4) 0.4040(2)
C3 C 0.1465(3) 0.5943(4) 0.4702(2)
H2 H 0.1098 0.6713 0.4833
C4 C 0.1338(3) 0.4757(4) 0.5160(3)
H3 H 0.0887 0.4729 0.5599
C5 C 0.1863(3) 0.3614(4) 0.4982(3)
C6 C 0.2495(3) 0.3634(4) 0.4310(3)
H4 H 0.2835 0.2845 0.4168
C7 C 0.2620(3) 0.4817(4) 0.3852(2)
H5 H 0.3047 0.4818 0.3394
C8 C 0.1091(3) 1.0440(4) 0.3224(2)
H6 H 0.1590 1.0909 0.3657
C9 C 0.0087(3) 1.0477(5) 0.3591(3)
H7 H -0.0417 1.0064 0.3157
H8 H -0.0096 1.1409 0.3694
H9 H 0.0132 0.9982 0.4158
C10 C 0.1029(4) 1.1162(5) 0.2314(3)
H10 H 0.1680 1.1147 0.2095
H11 H 0.0822 1.2092 0.2386
H12 H 0.0545 1.0708 0.1883
C11 C 0.2951(3) 0.8477(4) 0.5290(2)
H13 H 0.3085 0.7509 0.5184
C12 C 0.3869(3) 0.9261(6) 0.5115(3)
H14 H 0.3985 0.9150 0.4487
H15 H 0.4444 0.8926 0.5507
H16 H 0.3771 1.0212 0.5239
C13 C 0.2714(3) 0.8618(5) 0.6256(3)
H17 H 0.2580 0.9560 0.6380
H18 H 0.3279 0.8307 0.6668
H19 H 0.2129 0.8078 0.6339
C14 C -0.0157(5) 0.6114(7) 0.1024(4)
H20 H 0.0358 0.5840 0.0646
H21 H -0.0599 0.6778 0.0692
C15 C -0.0741(5) 0.4913(7) 0.1282(4)
H22 H -0.1352 0.4795 0.0861
H23 H -0.0339 0.4086 0.1285
C16 C -0.0987(5) 0.5233(7) 0.2204(4)
H24 H -0.1698 0.5456 0.2190
H25 H -0.0835 0.4462 0.2610
C17 C -0.0373(5) 0.6384(7) 0.2504(4)
H26 H -0.0796 0.7174 0.2576
H27 H 0.0014 0.6188 0.3089
Li1 Li 0.1556(4) 0.7521(7) 0.2225(4)
Cl1A Cl 0.32756(13) 0.21457(12) -0.06089(8)
O1A O 0.4721(2) 0.6652(4) 0.3151(2)
N1A N 0.2682(2) 0.7172(3) 0.14450(19)
N2A N 0.3574(2) 0.9060(3) 0.18920(19)
N3A N 0.2918(2) 0.8871(3) 0.03438(18)
H1A H 0.319(3) 0.964(4) 0.023(2)
C1A C 0.3083(2) 0.8409(3) 0.1221(2)
C2A C 0.2864(2) 0.6029(4) 0.0960(2)
C3A C 0.3535(3) 0.5943(4) 0.0298(2)
H2A H 0.3902 0.6713 0.0167
C4A C 0.3662(3) 0.4757(4) -0.0160(3)
H3A H 0.4113 0.4729 -0.0599
C5A C 0.3137(3) 0.3614(4) 0.0018(3)
C6A C 0.2505(3) 0.3634(4) 0.0690(3)
H4A H 0.2165 0.2845 0.0832
C7A C 0.2380(3) 0.4817(4) 0.1148(2)
H5A H 0.1953 0.4818 0.1606
C8A C 0.3909(3) 1.0440(4) 0.1776(2)
H6A H 0.3410 1.0909 0.1343
C9A C 0.4913(3) 1.0477(5) 0.1409(3)
H7A H 0.5417 1.0064 0.1843
H8A H 0.5096 1.1409 0.1306
H9A H 0.4868 0.9982 0.0842
C10A C 0.3971(4) 1.1162(5) 0.2686(3)
H10A H 0.3320 1.1147 0.2905
H11A H 0.4178 1.2092 0.2614
H12A H 0.4455 1.0708 0.3117
C11A C 0.2049(3) 0.8477(4) -0.0290(2)
H13A H 0.1915 0.7509 -0.0184
C12A C 0.1131(3) 0.9261(6) -0.0115(3)
H14A H 0.1015 0.9150 0.0513
H15A H 0.0556 0.8926 -0.0507
H16A H 0.1229 1.0212 -0.0239
C13A C 0.2286(3) 0.8618(5) -0.1256(3)
H17A H 0.2420 0.9560 -0.1380
H18A H 0.1721 0.8307 -0.1668
H19A H 0.2871 0.8078 -0.1339
C14A C 0.5157(5) 0.6114(7) 0.3976(4)
H20A H 0.4642 0.5840 0.4354
H21A H 0.5599 0.6778 0.4308
C15A C 0.5741(5) 0.4913(7) 0.3718(4)
H22A H 0.6352 0.4795 0.4139
H23A H 0.5339 0.4086 0.3715
C16A C 0.5987(5) 0.5233(7) 0.2796(4)
H24A H 0.6698 0.5456 0.2810
H25A H 0.5835 0.4462 0.2390
C17A C 0.5373(5) 0.6384(7) 0.2496(4)
H26A H 0.5796 0.7174 0.2424
H27A H 0.4986 0.6188 0.1911
Li1A Li 0.3444(4) 0.7521(7) 0.2775(4)
loop_
_geom_bond_atom_site_label_1
_geom_bond_atom_site_label_2
_geom_bond_site_symmetry_1
_geom_bond_site_symmetry_2
Cl1 C5 1_555 1_555
O1 C14 1_555 1_555
N1 C1 1_555 1_555
N2 C1 1_555 1_555
N3 H1 1_555 1_555
C1 N3 1_555 1_555
C2 N1 1_555 1_555
C3 C2 1_555 1_555
H2 C3 1_555 1_555
C4 C3 1_555 1_555
H3 C4 1_555 1_555
C5 C4 1_555 1_555
C6 C5 1_555 1_555
H4 C6 1_555 1_555
C7 C2 1_555 1_555
H5 C7 1_555 1_555
C8 N2 1_555 1_555
H6 C8 1_555 1_555
C9 C8 1_555 1_555
H7 C9 1_555 1_555
H8 C9 1_555 1_555
H9 C9 1_555 1_555
C10 C8 1_555 1_555
H10 C10 1_555 1_555
H11 C10 1_555 1_555
H12 C10 1_555 1_555
C11 N3 1_555 1_555
H13 C11 1_555 1_555
C12 C11 1_555 1_555
H14 C12 1_555 1_555
H15 C12 1_555 1_555
H16 C12 1_555 1_555
C13 C11 1_555 1_555
H17 C13 1_555 1_555
H18 C13 1_555 1_555
H19 C13 1_555 1_555
C14 H20 1_555 1_555
H21 C14 1_555 1_555
C15 C14 1_555 1_555
H22 C15 1_555 1_555
H23 C15 1_555 1_555
C16 C15 1_555 1_555
H24 C16 1_555 1_555
H25 C16 1_555 1_555
C17 O1 1_555 1_555
H26 C17 1_555 1_555
H27 C17 1_555 1_555
Li1 O1 1_555 1_555
Cl1A C5A 1_555 1_555
O1A C14A 1_555 1_555
N1A Li1 1_555 1_555
N2A C1A 1_555 1_555
N3A H1A 1_555 1_555
C1A N1A 1_555 1_555
C2A N1A 1_555 1_555
C3A C2A 1_555 1_555
H2A C3A 1_555 1_555
C4A C3A 1_555 1_555
H3A C4A 1_555 1_555
C5A C4A 1_555 1_555
C6A C5A 1_555 1_555
H4A C6A 1_555 1_555
C7A C2A 1_555 1_555
H5A C7A 1_555 1_555
C8A N2A 1_555 1_555
H6A C8A 1_555 1_555
C9A C8A 1_555 1_555
H7A C9A 1_555 1_555
H8A C9A 1_555 1_555
H9A C9A 1_555 1_555
C10A C8A 1_555 1_555
H10A C10A 1_555 1_555
H11A C10A 1_555 1_555
H12A C10A 1_555 1_555
C11A N3A 1_555 1_555
H13A C11A 1_555 1_555
C12A C11A 1_555 1_555
H14A C12A 1_555 1_555
H15A C12A 1_555 1_555
H16A C12A 1_555 1_555
C13A C11A 1_555 1_555
H17A C13A 1_555 1_555
H18A C13A 1_555 1_555
H19A C13A 1_555 1_555
C14A H20A 1_555 1_555
H21A C14A 1_555 1_555
C15A C14A 1_555 1_555
H22A C15A 1_555 1_555
H23A C15A 1_555 1_555
C16A C15A 1_555 1_555
H24A C16A 1_555 1_555
H25A C16A 1_555 1_555
C17A O1A 1_555 1_555
H26A C17A 1_555 1_555
H27A C17A 1_555 1_555
Li1A N1 1_555 1_555
N1 Li1 1_555 1_555
N2 Li1 1_555 1_555
C6 C7 1_555 1_555
C16 C17 1_555 1_555
O1A Li1A 1_555 1_555
N1A Li1A 1_555 1_555
N2A Li1A 1_555 1_555
N3A C1A 1_555 1_555
C6A C7A 1_555 1_555
C16A C17A 1_555 1_555

#END
