
#######################################################################
#
#                 Cambridge Crystallographic Data Centre
#                                CCDC 
#
#######################################################################
#
# If this CIF has been generated from an entry in the Cambridge 
# Structural Database, then it will include bibliographic, chemical, 
# crystal, experimental, refinement or atomic coordinate data resulting 
# from the CCDC's data processing and validation procedures.
#
#######################################################################

data_TANYUF
_chemical_formula_moiety         '2(C12 H7 Cl1 N2),C6 F4 I2'
_chemical_name_systematic        
'bis(2-chloro-1,10-phenanthroline) 1,2,4,5-tetrafluoro-3,6-diiodobenzene'
_symmetry_cell_setting           monoclinic
_symmetry_space_group_name_H-M   'I 2/a'
_symmetry_Int_Tables_number      15
_space_group_name_Hall           '-I 2ya'
loop_
_symmetry_equiv_pos_site_id
_symmetry_equiv_pos_as_xyz
1 x,y,z
2 1/2-x,y,-z
3 1/2+x,1/2+y,1/2+z
4 -x,1/2+y,1/2-z
5 -x,-y,-z
6 1/2+x,-y,z
7 1/2-x,1/2-y,1/2-z
8 x,1/2-y,1/2+z
_cell_length_a                   17.3143(9)
_cell_length_b                   8.7081(4)
_cell_length_c                   19.6795(8)
_cell_angle_alpha                90
_cell_angle_beta                 101.795(4)
_cell_angle_gamma                90
_cell_volume                     2904.52
_exptl_crystal_colour            yellow
_exptl_crystal_description       block
_cell_formula_units_Z            4
loop_
_atom_site_label
_atom_site_type_symbol
_atom_site_fract_x
_atom_site_fract_y
_atom_site_fract_z
I1 I 0.464018(14) 0.84114(3) 0.653802(12)
F1 F 0.59263(13) 0.7692(3) 0.56108(13)
F2 F 0.61909(14) 0.8892(3) 0.44490(14)
C1 C 0.48665(19) 0.9366(4) 0.56225(17)
C2 C 0.5461(2) 0.8851(4) 0.53199(19)
C3 C 0.55938(19) 0.9463(4) 0.47132(18)
I1D I 0.535982(14) 1.15886(3) 0.346198(12)
F1D F 0.40737(13) 1.2308(3) 0.43892(13)
F2D F 0.38091(14) 1.1108(3) 0.55510(14)
C1D C 0.51335(19) 1.0634(4) 0.43775(17)
C2D C 0.4539(2) 1.1149(4) 0.46801(19)
C3D C 0.44062(19) 1.0537(4) 0.52868(18)
Cl1 Cl 0.29627(10) 0.4627(2) 0.58798(8)
N1 N 0.33559(18) 0.5813(4) 0.71058(16)
N2 N 0.43706(18) 0.7782(4) 0.79387(15)
C4 C 0.2844(3) 0.4934(5) 0.6723(2)
C5 C 0.2199(3) 0.4198(5) 0.6937(3)
H1 H 0.1841 0.3588 0.6637
C6 C 0.2138(3) 0.4444(6) 0.7608(3)
H2 H 0.1733 0.3968 0.7774
C7 C 0.2657(2) 0.5375(5) 0.8045(2)
C8 C 0.2609(3) 0.5687(6) 0.8747(3)
H3 H 0.2219 0.5205 0.8932
C9 C 0.3106(3) 0.6647(6) 0.9147(2)
H4 H 0.3057 0.6816 0.9604
C10 C 0.3703(2) 0.7409(5) 0.88866(19)
C11 C 0.4206(3) 0.8459(5) 0.9276(2)
H5 H 0.4152 0.8690 0.9726
C12 C 0.4777(3) 0.9154(6) 0.9009(2)
H6 H 0.5114 0.9865 0.9268
C13 C 0.4847(3) 0.8785(5) 0.8343(2)
H7 H 0.5245 0.9254 0.8164
C14 C 0.3799(2) 0.7099(4) 0.81990(18)
C15 C 0.3272(2) 0.6068(4) 0.77691(19)
loop_
_geom_bond_atom_site_label_1
_geom_bond_atom_site_label_2
_geom_bond_site_symmetry_1
_geom_bond_site_symmetry_2
I1 C1 1_555 1_555
F1 C2 1_555 1_555
F2 C3 1_555 1_555
C1 C2 1_555 1_555
C2 C3 1_555 1_555
C3 C1D 1_555 1_555
Cl1 C4 1_555 1_555
N1 C4 1_555 1_555
N2 C13 1_555 1_555
C4 C5 1_555 1_555
C5 H1 1_555 1_555
C6 C5 1_555 1_555
H2 C6 1_555 1_555
C7 C6 1_555 1_555
C8 C7 1_555 1_555
H3 C8 1_555 1_555
C9 C8 1_555 1_555
H4 C9 1_555 1_555
C10 C9 1_555 1_555
C11 C10 1_555 1_555
H5 C11 1_555 1_555
C12 C11 1_555 1_555
H6 C12 1_555 1_555
C13 C12 1_555 1_555
H7 C13 1_555 1_555
C14 N2 1_555 1_555
C15 N1 1_555 1_555
I1D C1D 1_555 1_555
F1D C2D 1_555 1_555
F2D C3D 1_555 1_555
C1D C2D 1_555 1_555
C2D C3D 1_555 1_555
C3D C1 1_555 1_555
C7 C15 1_555 1_555
C10 C14 1_555 1_555
C14 C15 1_555 1_555

#END
