
#######################################################################
#
#                 Cambridge Crystallographic Data Centre
#                                CCDC 
#
#######################################################################
#
# If this CIF has been generated from an entry in the Cambridge 
# Structural Database, then it will include bibliographic, chemical, 
# crystal, experimental, refinement or atomic coordinate data resulting 
# from the CCDC's data processing and validation procedures.
#
#######################################################################

data_TANZPH
_chemical_formula_moiety         'C24 H22 N4 P2 S2'
_chemical_name_systematic        
trans-2,4-Dithio-2,4-dianilino-1,3-diphenyl-1,3,2,4-diazadiphosphetidine
_symmetry_cell_setting           monoclinic
_symmetry_space_group_name_H-M   'P 21/c'
_symmetry_Int_Tables_number      14
_space_group_name_Hall           '-P 2ybc'
loop_
_symmetry_equiv_pos_site_id
_symmetry_equiv_pos_as_xyz
1 x,y,z
2 -x,1/2+y,1/2-z
3 -x,-y,-z
4 x,1/2-y,1/2+z
_cell_length_a                   15.287(5)
_cell_length_b                   8.639(2)
_cell_length_c                   18.728(5)
_cell_angle_alpha                90
_cell_angle_beta                 108.97(2)
_cell_angle_gamma                90
_cell_volume                     2338.97
_cell_formula_units_Z            4
loop_
_atom_site_label
_atom_site_type_symbol
_atom_site_fract_x
_atom_site_fract_y
_atom_site_fract_z
S1 S -0.18603 0.43195 0.39709
P1 P -0.06093 0.40536 0.46053
N1 N 0.02590 0.51730 0.45130
N2 N -0.02890 0.22530 0.46390
C1 C 0.05260 0.55190 0.38770
C2 C 0.01020 0.48020 0.31970
C3 C 0.03830 0.52000 0.25750
C4 C 0.10610 0.62510 0.26370
C5 C 0.14800 0.69520 0.33150
C6 C 0.12300 0.65950 0.39510
C7 C 0.06270 0.16640 0.50160
C8 C 0.11600 0.11760 0.45880
C9 C 0.20280 0.05690 0.49360
C10 C 0.23810 0.04800 0.57100
C11 C 0.18540 0.09540 0.61420
C12 C 0.09730 0.15670 0.57850
H1 H -0.07000 0.15700 0.44300
H2 H -0.03500 0.41100 0.31800
H3 H 0.00400 0.45900 0.20700
H4 H 0.12300 0.65900 0.21800
H5 H 0.18900 0.76800 0.34400
H6 H 0.16000 0.71000 0.44600
H7 H 0.08900 0.12300 0.40500
H8 H 0.22900 0.03100 0.46600
H9 H 0.30200 0.01400 0.59700
H10 H 0.20500 0.10400 0.66800
H11 H 0.06100 0.17800 0.60500
N1B N -0.02590 0.48270 0.54870
P1B P 0.06093 0.59464 0.53947
C1B C -0.05260 0.44810 0.61230
S1B S 0.18603 0.56805 0.60291
N2B N 0.02890 0.77470 0.53610
C2B C -0.01020 0.51980 0.68030
C6B C -0.12300 0.34050 0.60490
C7B C -0.06270 0.83360 0.49840
H1B H 0.07000 0.84300 0.55700
C3B C -0.03830 0.48000 0.74250
H2B H 0.03500 0.58900 0.68200
C5B C -0.14800 0.30480 0.66850
H6B H -0.16000 0.29000 0.55400
C8B C -0.11600 0.88240 0.54120
C12B C -0.09730 0.84330 0.42150
C4B C -0.10610 0.37490 0.73630
H3B H -0.00400 0.54100 0.79300
H5B H -0.18900 0.23200 0.65600
C9B C -0.20280 0.94310 0.50640
H7B H -0.08900 0.87700 0.59500
C11B C -0.18540 0.90460 0.38580
H11B H -0.06100 0.82200 0.39500
H4B H -0.12300 0.34100 0.78200
C10B C -0.23810 0.95200 0.42900
H8B H -0.22900 0.96900 0.53400
H10B H -0.20500 0.89600 0.33200
H9B H -0.30200 0.98600 0.40300
S2 S -0.36941 0.23129 -0.01731
P2 P -0.41769 0.04391 0.00818
N3 N -0.49350 0.04560 0.05720
N4 N -0.33090 -0.07400 0.04730
C13 C -0.48600 0.11040 0.12890
C14 C -0.56400 0.16190 0.14130
C15 C -0.55540 0.22600 0.21390
C16 C -0.47160 0.23760 0.26680
C17 C -0.39510 0.18600 0.25370
C18 C -0.40090 0.11930 0.18410
C19 C -0.32590 -0.20660 0.09340
C20 C -0.39180 -0.31980 0.07550
C21 C -0.38310 -0.44920 0.12370
C22 C -0.30650 -0.46370 0.18630
C23 C -0.23990 -0.35440 0.20270
C24 C -0.24800 -0.22500 0.15640
H12 H -0.28100 -0.03400 0.04900
H13 H -0.62400 0.16300 0.10400
H14 H -0.60500 0.25600 0.20400
H15 H -0.46900 0.27400 0.32100
H16 H -0.33100 0.18000 0.28500
H17 H -0.34900 0.08200 0.17700
H18 H -0.44000 -0.32100 0.03200
H19 H -0.43300 -0.50900 0.10700
H20 H -0.29900 -0.56200 0.22600
H21 H -0.18000 -0.36200 0.25100
H22 H -0.20100 -0.16000 0.16200
N3B N -0.50650 -0.04560 -0.05720
P2B P -0.58231 -0.04391 -0.00818
C13B C -0.51400 -0.11040 -0.12890
S2B S -0.63059 -0.23129 0.01731
N4B N -0.66910 0.07400 -0.04730
C14B C -0.43600 -0.16190 -0.14130
C18B C -0.59910 -0.11930 -0.18410
C19B C -0.67410 0.20660 -0.09340
H12B H -0.71900 0.03400 -0.04900
C15B C -0.44460 -0.22600 -0.21390
H13B H -0.37600 -0.16300 -0.10400
C17B C -0.60490 -0.18600 -0.25370
H17B H -0.65100 -0.08200 -0.17700
C20B C -0.60820 0.31980 -0.07550
C24B C -0.75200 0.22500 -0.15640
C16B C -0.52840 -0.23760 -0.26680
H14B H -0.39500 -0.25600 -0.20400
H16B H -0.66900 -0.18000 -0.28500
C21B C -0.61690 0.44920 -0.12370
H18B H -0.56000 0.32100 -0.03200
C23B C -0.76010 0.35440 -0.20270
H22B H -0.79900 0.16000 -0.16200
H15B H -0.53100 -0.27400 -0.32100
C22B C -0.69350 0.46370 -0.18630
H19B H -0.56700 0.50900 -0.10700
H21B H -0.82000 0.36200 -0.25100
H20B H -0.70100 0.56200 -0.22600
loop_
_geom_bond_atom_site_label_1
_geom_bond_atom_site_label_2
_geom_bond_site_symmetry_1
_geom_bond_site_symmetry_2
S1 P1 1_555 1_555
P1 N1 1_555 1_555
N1 C1 1_555 1_555
N2 P1 1_555 1_555
C1 C2 1_555 1_555
C2 C3 1_555 1_555
C3 C4 1_555 1_555
C4 C5 1_555 1_555
C5 C6 1_555 1_555
C6 C1 1_555 1_555
C7 N2 1_555 1_555
C8 C7 1_555 1_555
C9 C8 1_555 1_555
C10 C9 1_555 1_555
C11 C10 1_555 1_555
C12 C7 1_555 1_555
H1 N2 1_555 1_555
H2 C2 1_555 1_555
H3 C3 1_555 1_555
H4 C4 1_555 1_555
H5 C5 1_555 1_555
H6 C6 1_555 1_555
H7 C8 1_555 1_555
H8 C9 1_555 1_555
H9 C10 1_555 1_555
H10 C11 1_555 1_555
H11 C12 1_555 1_555
S2 P2 1_555 1_555
P2 N3 1_555 1_555
N3 C13 1_555 1_555
N4 P2 1_555 1_555
C13 C14 1_555 1_555
C14 C15 1_555 1_555
C15 C16 1_555 1_555
C16 C17 1_555 1_555
C17 C18 1_555 1_555
C18 C13 1_555 1_555
C19 N4 1_555 1_555
C20 C19 1_555 1_555
C21 C20 1_555 1_555
C22 C21 1_555 1_555
C23 C22 1_555 1_555
C24 C19 1_555 1_555
H12 N4 1_555 1_555
H13 C14 1_555 1_555
H14 C15 1_555 1_555
H15 C16 1_555 1_555
H16 C17 1_555 1_555
H17 C18 1_555 1_555
H18 C20 1_555 1_555
H19 C21 1_555 1_555
H20 C22 1_555 1_555
H21 C23 1_555 1_555
H22 C24 1_555 1_555
N1B P1 1_555 1_555
P1B N1 1_555 1_555
C1B N1B 1_555 1_555
S1B P1B 1_555 1_555
N2B P1B 1_555 1_555
C2B C1B 1_555 1_555
C6B C1B 1_555 1_555
C7B N2B 1_555 1_555
H1B N2B 1_555 1_555
C3B C2B 1_555 1_555
H2B C2B 1_555 1_555
C5B C6B 1_555 1_555
H6B C6B 1_555 1_555
C8B C7B 1_555 1_555
C12B C7B 1_555 1_555
C4B C3B 1_555 1_555
H3B C3B 1_555 1_555
H5B C5B 1_555 1_555
C9B C8B 1_555 1_555
H7B C8B 1_555 1_555
C11B C12B 1_555 1_555
H11B C12B 1_555 1_555
H4B C4B 1_555 1_555
C10B C9B 1_555 1_555
H8B C9B 1_555 1_555
H10B C11B 1_555 1_555
H9B C10B 1_555 1_555
N3B P2 1_555 1_555
P2B N3 1_555 1_555
C13B N3B 1_555 1_555
S2B P2B 1_555 1_555
N4B P2B 1_555 1_555
C14B C13B 1_555 1_555
C18B C13B 1_555 1_555
C19B N4B 1_555 1_555
H12B N4B 1_555 1_555
C15B C14B 1_555 1_555
H13B C14B 1_555 1_555
C17B C18B 1_555 1_555
H17B C18B 1_555 1_555
C20B C19B 1_555 1_555
C24B C19B 1_555 1_555
C16B C15B 1_555 1_555
H14B C15B 1_555 1_555
H16B C17B 1_555 1_555
C21B C20B 1_555 1_555
H18B C20B 1_555 1_555
C23B C24B 1_555 1_555
H22B C24B 1_555 1_555
H15B C16B 1_555 1_555
C22B C21B 1_555 1_555
H19B C21B 1_555 1_555
H21B C23B 1_555 1_555
H20B C22B 1_555 1_555
C11 C12 1_555 1_555
C23 C24 1_555 1_555
N1B P1B 1_555 1_555
C5B C4B 1_555 1_555
C11B C10B 1_555 1_555
N3B P2B 1_555 1_555
C17B C16B 1_555 1_555
C23B C22B 1_555 1_555

#END
