
#######################################################################
#
#                 Cambridge Crystallographic Data Centre
#                                CCDC 
#
#######################################################################
#
# If this CIF has been generated from an entry in the Cambridge 
# Structural Database, then it will include bibliographic, chemical, 
# crystal, experimental, refinement or atomic coordinate data resulting 
# from the CCDC's data processing and validation procedures.
#
#######################################################################

data_TAPJIF
_chemical_name_common            
'1-Carbamoylmethyl-3-ethoxycarbonylpyridinium trifluoromethanesulfonate'
_chemical_formula_moiety         'C10 H13 N2 O3 1+,C1 F3 O3 S1 1-'
_chemical_name_systematic        
'1-(2-Amino-2-oxoethyl)-3-(ethoxycarbonyl)pyridinium trifluoromethanesulfonate'
_symmetry_cell_setting           triclinic
_symmetry_space_group_name_H-M   'P -1'
_symmetry_Int_Tables_number      2
_space_group_name_Hall           '-P 1'
loop_
_symmetry_equiv_pos_site_id
_symmetry_equiv_pos_as_xyz
1 x,y,z
2 -x,-y,-z
_cell_length_a                   10.812(2)
_cell_length_b                   11.241(2)
_cell_length_c                   13.008(2)
_cell_angle_alpha                88.651(4)
_cell_angle_beta                 86.423(4)
_cell_angle_gamma                73.822(4)
_cell_volume                     1515.37
_exptl_crystal_colour            colorless
_cell_formula_units_Z            4
loop_
_atom_site_label
_atom_site_type_symbol
_atom_site_fract_x
_atom_site_fract_y
_atom_site_fract_z
C1 C 0.6163(3) 0.8047(3) 0.0952(3)
H1 H 0.5555 0.8794 0.0758
C2 C 0.5861(3) 0.7369(3) 0.1779(3)
H2 H 0.5054 0.7650 0.2156
C3 C 0.6739(3) 0.6281(3) 0.2056(3)
H3 H 0.6551 0.5810 0.2630
C4 C 0.7909(3) 0.5886(3) 0.1480(2)
C5 C 0.8180(3) 0.6596(3) 0.0661(3)
H4 H 0.8980 0.6336 0.0271
C6 C 0.7616(3) 0.8417(3) -0.0453(3)
H5 H 0.6825 0.9051 -0.0643
H6 H 0.7949 0.7877 -0.1057
C7 C 0.8630(3) 0.9055(3) -0.0174(3)
C8 C 0.8904(3) 0.4705(3) 0.1712(3)
C9 C 0.9548(4) 0.3083(4) 0.2917(3)
H7 H 1.0407 0.3205 0.3003
H8 H 0.9637 0.2442 0.2386
C10 C 0.9005(5) 0.2697(5) 0.3918(4)
H9 H 0.8840 0.3374 0.4413
H10 H 0.9625 0.1964 0.4188
H11 H 0.8196 0.2501 0.3805
N1 N 0.7299(3) 0.7667(3) 0.0417(2)
N2 N 0.8737(3) 0.9956(3) -0.0815(2)
H23 H 0.9321 1.0350 -0.0728
H24 H 0.8225 1.0162 -0.1329
O1 O 0.9302(3) 0.8698(3) 0.05683(19)
O2 O 0.9840(3) 0.4254(3) 0.1153(2)
O3 O 0.8636(3) 0.4247(2) 0.26143(19)
C11 C 0.6884(3) 0.8634(3) 0.4082(3)
H12 H 0.6072 0.9189 0.4283
C12 C 0.7576(4) 0.8906(4) 0.3228(3)
H13 H 0.7251 0.9648 0.2848
C13 C 0.8753(3) 0.8083(3) 0.2929(3)
H14 H 0.9240 0.8247 0.2336
C14 C 0.9209(3) 0.7010(3) 0.3512(3)
C15 C 0.8481(3) 0.6781(3) 0.4367(3)
H15 H 0.8785 0.6049 0.4764
C16 C 0.6543(3) 0.7308(4) 0.5518(3)
H16 H 0.5907 0.8078 0.5765
H17 H 0.7101 0.6959 0.6089
C17 C 0.5837(3) 0.6379(3) 0.5213(3)
C18 C 1.0456(3) 0.6060(3) 0.3236(3)
C19 C 1.2155(4) 0.5427(4) 0.1936(3)
H18 H 1.2213 0.5423 0.1173
H19 H 1.2202 0.4575 0.2180
C20 C 1.3257(4) 0.5818(4) 0.2318(4)
H20 H 1.3154 0.6692 0.2145
H21 H 1.4069 0.5311 0.1993
H22 H 1.3269 0.5707 0.3067
N3 N 0.7340(3) 0.7598(3) 0.4636(2)
N4 N 0.4825(3) 0.6363(3) 0.5827(2)
H25 H 0.4386 0.5831 0.5720
H26 H 0.4589 0.6885 0.6343
O4 O 0.6256(3) 0.5691(3) 0.4466(2)
O5 O 1.0948(3) 0.5211(3) 0.3798(2)
O6 O 1.0919(3) 0.6277(3) 0.23078(19)
C21 C 0.1862(5) 0.9224(4) 0.3953(3)
F1 F 0.1467(3) 0.9759(3) 0.48691(19)
F2 F 0.0795(3) 0.9330(4) 0.3435(3)
F3 F 0.2407(4) 0.8036(3) 0.4100(2)
O7 O 0.3228(2) 0.9304(3) 0.22838(19)
O8 O 0.4004(3) 0.9763(3) 0.3904(2)
O9 O 0.2177(3) 1.1236(3) 0.3166(2)
S1 S 0.29408(8) 0.99745(8) 0.32486(6)
C22 C 0.6697(5) 0.2639(4) 0.0900(3)
F4 F 0.7893(3) 0.1973(3) 0.1036(3)
F5 F 0.6548(3) 0.3770(3) 0.1291(3)
F6 F 0.6565(4) 0.2770(4) -0.0111(2)
O10 O 0.5883(3) 0.1775(3) 0.2568(2)
O11 O 0.4304(3) 0.2829(3) 0.1365(3)
O12 O 0.5740(3) 0.0794(3) 0.0954(2)
S2 S 0.55096(9) 0.19356(8) 0.15148(7)
loop_
_geom_bond_atom_site_label_1
_geom_bond_atom_site_label_2
_geom_bond_site_symmetry_1
_geom_bond_site_symmetry_2
C1 H1 1_555 1_555
C2 C1 1_555 1_555
H2 C2 1_555 1_555
C3 C2 1_555 1_555
H3 C3 1_555 1_555
C4 C3 1_555 1_555
C5 C4 1_555 1_555
H4 C5 1_555 1_555
C6 H5 1_555 1_555
H6 C6 1_555 1_555
C7 C6 1_555 1_555
C8 C4 1_555 1_555
C9 H7 1_555 1_555
H8 C9 1_555 1_555
C10 C9 1_555 1_555
H9 C10 1_555 1_555
H10 C10 1_555 1_555
H11 C10 1_555 1_555
C11 H12 1_555 1_555
C12 C11 1_555 1_555
H13 C12 1_555 1_555
C13 C12 1_555 1_555
H14 C13 1_555 1_555
C14 C13 1_555 1_555
C15 C14 1_555 1_555
H15 C15 1_555 1_555
C16 H16 1_555 1_555
H17 C16 1_555 1_555
C17 C16 1_555 1_555
C18 C14 1_555 1_555
C19 H18 1_555 1_555
H19 C19 1_555 1_555
C20 C19 1_555 1_555
H20 C20 1_555 1_555
H21 C20 1_555 1_555
H22 C20 1_555 1_555
C21 F1 1_555 1_555
C22 F4 1_555 1_555
F2 C21 1_555 1_555
F3 C21 1_555 1_555
F5 C22 1_555 1_555
F6 C22 1_555 1_555
N1 C1 1_555 1_555
N2 C7 1_555 1_555
H23 N2 1_555 1_555
H24 N2 1_555 1_555
N3 C11 1_555 1_555
N4 C17 1_555 1_555
H25 N4 1_555 1_555
H26 N4 1_555 1_555
O1 C7 1_555 1_555
O2 C8 1_555 1_555
O3 C8 1_555 1_555
O4 C17 1_555 1_555
O5 C18 1_555 1_555
O6 C18 1_555 1_555
O7 S1 1_555 1_555
O8 S1 1_555 1_555
O9 S1 1_555 1_555
O10 S2 1_555 1_555
O11 S2 1_555 1_555
O12 S2 1_555 1_555
S1 C21 1_555 1_555
S2 C22 1_555 1_555
C5 N1 1_555 1_555
C6 N1 1_555 1_555
C9 O3 1_555 1_555
C15 N3 1_555 1_555
C16 N3 1_555 1_555
C19 O6 1_555 1_555

#END
