
#######################################################################
#
#                 Cambridge Crystallographic Data Centre
#                                CCDC 
#
#######################################################################
#
# If this CIF has been generated from an entry in the Cambridge 
# Structural Database, then it will include bibliographic, chemical, 
# crystal, experimental, refinement or atomic coordinate data resulting 
# from the CCDC's data processing and validation procedures.
#
#######################################################################

data_TAPJOL
_chemical_name_common            
'1-Carbamoylmethyl-3-ethoxycarbonylpyridinium bromide hemihydrate'
_chemical_formula_moiety         'C10 H13 N2 O3 1+,Br1 1-,0.5(H2 O1)'
_chemical_name_systematic        
'1-(2-Amino-2-oxoethyl)-3-(ethoxycarbonyl)pyridinium bromide hemihydrate'
_symmetry_cell_setting           monoclinic
_symmetry_space_group_name_H-M   'C 2/c'
_symmetry_Int_Tables_number      15
_space_group_name_Hall           '-C 2yn'
loop_
_symmetry_equiv_pos_site_id
_symmetry_equiv_pos_as_xyz
1 x,y,z
2 -x,y,1/2-z
3 1/2+x,1/2+y,z
4 1/2-x,1/2+y,1/2-z
5 -x,-y,-z
6 x,-y,1/2+z
7 1/2-x,1/2-y,-z
8 1/2+x,1/2-y,1/2+z
_cell_length_a                   30.056(6)
_cell_length_b                   5.1055(9)
_cell_length_c                   20.239(4)
_cell_angle_alpha                90
_cell_angle_beta                 129.083(3)
_cell_angle_gamma                90
_cell_volume                     2410.74
_exptl_crystal_colour            colorless
_cell_formula_units_Z            8
_exptl_crystal_recrystallization_method 'diethyl ether/methanol'
loop_
_atom_site_label
_atom_site_type_symbol
_atom_site_fract_x
_atom_site_fract_y
_atom_site_fract_z
Br1 Br 0.046660(13) 0.44717(6) 0.424085(19)
C1 C 0.13861(12) 0.7705(6) 0.65515(19)
C2 C 0.10568(13) 0.9641(7) 0.5950(2)
H1 H 0.1104 1.0050 0.5540
C3 C 0.06541(13) 1.0984(6) 0.5954(2)
H2 H 0.0418 1.2289 0.5539
C4 C 0.06033(13) 1.0397(6) 0.6566(2)
H3 H 0.0332 1.1312 0.6575
C5 C 0.13184(12) 0.7165(6) 0.71531(19)
H4 H 0.1542 0.5834 0.7565
C6 C 0.08994(13) 0.8156(6) 0.78412(19)
H5 H 0.1099 0.6519 0.8154
H6 H 0.0493 0.8003 0.7596
C7 C 0.11776(13) 1.0492(6) 0.8453(2)
C8 C 0.18394(13) 0.6201(7) 0.6614(2)
C9 C 0.24211(17) 0.6228(11) 0.6190(3)
H7 H 0.2561 0.7602 0.6016
H8 H 0.2735 0.5803 0.6795
C10 C 0.2277(2) 0.3954(13) 0.5687(4)
H9 H 0.2155 0.2562 0.5875
H10 H 0.2613 0.3367 0.5750
H11 H 0.1964 0.4364 0.5088
N1 N 0.09348(10) 0.8531(5) 0.71546(16)
N2 N 0.11885(14) 1.0284(6) 0.91215(19)
H12 H 0.1347 1.1527 0.9509
H13 H 0.1037 0.8904 0.9174
O1 O 0.13769(10) 1.2339(4) 0.83263(15)
O2 O 0.19326(10) 0.7228(6) 0.61022(15)
O3 O 0.20838(11) 0.4349(5) 0.70783(17)
O4 O 0.0000 0.7661(7) 0.2500
H14 H 0.0178 0.6421 0.3022
H14A H -0.0178 0.6421 0.1978
loop_
_geom_bond_atom_site_label_1
_geom_bond_atom_site_label_2
_geom_bond_site_symmetry_1
_geom_bond_site_symmetry_2
C1 C2 1_555 1_555
C2 H1 1_555 1_555
C3 C2 1_555 1_555
H2 C3 1_555 1_555
C4 C3 1_555 1_555
H3 C4 1_555 1_555
C5 C1 1_555 1_555
H4 C5 1_555 1_555
C6 H5 1_555 1_555
H6 C6 1_555 1_555
C7 C6 1_555 1_555
C8 C1 1_555 1_555
C9 H7 1_555 1_555
H8 C9 1_555 1_555
C10 C9 1_555 1_555
H9 C10 1_555 1_555
H10 C10 1_555 1_555
H11 C10 1_555 1_555
N1 C4 1_555 1_555
N2 C7 1_555 1_555
H12 N2 1_555 1_555
H13 N2 1_555 1_555
O1 C7 1_555 1_555
O2 C8 1_555 1_555
O3 C8 1_555 1_555
O4 H14 1_555 1_555
H14A O4 1_555 1_555
C5 N1 1_555 1_555
C6 N1 1_555 1_555
C9 O2 1_555 1_555

#END
