
#######################################################################
#
#                 Cambridge Crystallographic Data Centre
#                                CCDC 
#
#######################################################################
#
# If this CIF has been generated from an entry in the Cambridge 
# Structural Database, then it will include bibliographic, chemical, 
# crystal, experimental, refinement or atomic coordinate data resulting 
# from the CCDC's data processing and validation procedures.
#
#######################################################################

data_TAPJAX
_chemical_name_common            
'1-Carbamoylmethyl-3-ethoxycarbonylpyridinium hexafluorophosphate'
_chemical_formula_moiety         'C10 H13 N2 O3 1+,F6 P1 1-'
_chemical_name_systematic        
'1-(2-Amino-2-oxoethyl)-3-(ethoxycarbonyl)pyridinium hexafluorophosphate'
_symmetry_cell_setting           monoclinic
_symmetry_space_group_name_H-M   'P 21/c'
_symmetry_Int_Tables_number      14
_space_group_name_Hall           '-P 2ybc'
loop_
_symmetry_equiv_pos_site_id
_symmetry_equiv_pos_as_xyz
1 x,y,z
2 -x,1/2+y,1/2-z
3 -x,-y,-z
4 x,1/2-y,1/2+z
_cell_length_a                   6.2214(5)
_cell_length_b                   8.6255(6)
_cell_length_c                   26.3909(18)
_cell_angle_alpha                90
_cell_angle_beta                 93.039(4)
_cell_angle_gamma                90
_cell_volume                     1414.21
_exptl_crystal_colour            colorless
_exptl_crystal_description       columnar
_cell_formula_units_Z            4
_exptl_crystal_recrystallization_method methanol
loop_
_atom_site_label
_atom_site_type_symbol
_atom_site_fract_x
_atom_site_fract_y
_atom_site_fract_z
C1 C 0.8344(2) 0.75136(16) 0.12101(6)
H1 H 0.9551 0.6870 0.1157
C2 C 0.7448(3) 0.83948(17) 0.08159(6)
C3 C 0.5684(3) 0.93328(17) 0.09010(6)
H2 H 0.5055 0.9951 0.0634
C4 C 0.4851(3) 0.93582(17) 0.13784(6)
H3 H 0.3641 0.9988 0.1441
C5 C 0.5790(2) 0.84655(17) 0.17588(6)
H4 H 0.5230 0.8480 0.2087
C6 C 0.8330(3) 0.83487(19) 0.02983(6)
C7 C 1.0872(3) 0.7160(2) -0.02198(6)
H5 H 0.9849 0.6603 -0.0455
H6 H 1.1185 0.8184 -0.0369
C8 C 1.2866(3) 0.6263(3) -0.01385(7)
H7 H 1.3905 0.6860 0.0074
H8 H 1.3472 0.6046 -0.0466
H9 H 1.2551 0.5283 0.0031
C9 C 0.8538(2) 0.66677(16) 0.20909(5)
H10 H 0.9141 0.5697 0.1957
H11 H 0.7453 0.6388 0.2336
C10 C 1.0328(2) 0.76130(16) 0.23576(5)
N1 N 0.7505(2) 0.75670(13) 0.16702(5)
N2 N 1.1190(2) 0.69403(14) 0.27707(5)
H12 H 1.2252 0.7395 0.2947
H13 H 1.0700 0.6038 0.2869
O1 O 0.7613(2) 0.91309(15) -0.00482(4)
O2 O 0.9944(2) 0.73577(14) 0.02776(4)
O3 O 1.08915(18) 0.88704(12) 0.21873(4)
F1 F 0.62559(14) 0.40808(10) 0.15078(3)
F2 F 0.10913(15) 0.40837(11) 0.14802(4)
F3 F 0.37377(16) 0.26798(11) 0.18961(4)
F4 F 0.36287(16) 0.54943(11) 0.11030(4)
F5 F 0.36103(15) 0.28703(11) 0.10393(3)
F6 F 0.37343(16) 0.52859(12) 0.19580(4)
P1 P 0.36636(6) 0.40833(4) 0.149328(14)
loop_
_geom_bond_atom_site_label_1
_geom_bond_atom_site_label_2
_geom_bond_site_symmetry_1
_geom_bond_site_symmetry_2
C1 H1 1_555 1_555
C2 C1 1_555 1_555
C3 C2 1_555 1_555
H2 C3 1_555 1_555
C4 C3 1_555 1_555
H3 C4 1_555 1_555
C5 C4 1_555 1_555
H4 C5 1_555 1_555
C6 C2 1_555 1_555
C7 H5 1_555 1_555
H6 C7 1_555 1_555
C8 C7 1_555 1_555
H7 C8 1_555 1_555
H8 C8 1_555 1_555
H9 C8 1_555 1_555
C9 H10 1_555 1_555
H11 C9 1_555 1_555
C10 C9 1_555 1_555
F1 P1 1_555 1_555
F2 P1 1_555 1_555
F3 P1 1_555 1_555
F4 P1 1_555 1_555
F5 P1 1_555 1_555
F6 P1 1_555 1_555
N1 C1 1_555 1_555
N2 C10 1_555 1_555
H12 N2 1_555 1_555
H13 N2 1_555 1_555
O1 C6 1_555 1_555
O2 C6 1_555 1_555
O3 C10 1_555 1_555
C5 N1 1_555 1_555
C7 O2 1_555 1_555
C9 N1 1_555 1_555

#END
