
#######################################################################
#
#                 Cambridge Crystallographic Data Centre
#                                CCDC 
#
#######################################################################
#
# If this CIF has been generated from an entry in the Cambridge 
# Structural Database, then it will include bibliographic, chemical, 
# crystal, experimental, refinement or atomic coordinate data resulting 
# from the CCDC's data processing and validation procedures.
#
#######################################################################

data_TAPKEC
_chemical_formula_moiety         'C25 H34 N2 O9'
_chemical_name_systematic        
2,5,8,11,18,21,24,27-Octaoxatricyclo[26.3.1.0^12,17^]dotriaconta-1(32),12,14,16,28,30-hexaene-30-carbohydrazide
_symmetry_cell_setting           triclinic
_symmetry_space_group_name_H-M   'P -1'
_symmetry_Int_Tables_number      2
_space_group_name_Hall           '-P 1'
loop_
_symmetry_equiv_pos_site_id
_symmetry_equiv_pos_as_xyz
1 x,y,z
2 -x,-y,-z
_cell_length_a                   9.1761(3)
_cell_length_b                   11.7881(7)
_cell_length_c                   11.8683(7)
_cell_angle_alpha                103.977(2)
_cell_angle_beta                 97.401(3)
_cell_angle_gamma                94.414(3)
_cell_volume                     1227.58
_exptl_crystal_colour            colorless
_exptl_crystal_description       block
_cell_formula_units_Z            2
loop_
_atom_site_label
_atom_site_type_symbol
_atom_site_fract_x
_atom_site_fract_y
_atom_site_fract_z
C1 C 0.7218(2) 0.3404(2) 0.1620(2)
C2 C 0.7932(2) 0.3393(2) 0.2717(2)
H1 H 0.7623 0.2806 0.3088
C3 C 0.9107(3) 0.4247(2) 0.3274(2)
H2 H 0.9607 0.4236 0.4023
C4 C 0.9545(3) 0.5104(2) 0.2747(2)
H3 H 1.0349 0.5682 0.3131
C5 C 0.8813(2) 0.5128(2) 0.1649(2)
H4 H 0.9111 0.5730 0.1291
C6 C 0.7654(2) 0.4278(2) 0.1078(2)
C7 C 0.7188(2) 0.5189(2) -0.0503(2)
H5 H 0.8190 0.5167 -0.0726
H6 H 0.7166 0.5947 0.0075
C8 C 0.6074(3) 0.5090(2) -0.1562(2)
H7 H 0.5068 0.4944 -0.1373
H8 H 0.6141 0.5838 -0.1802
C9 C 0.5325(3) 0.4097(2) -0.3542(2)
H9 H 0.5326 0.4883 -0.3702
H10 H 0.4308 0.3827 -0.3451
C10 C 0.5828(2) 0.3246(2) -0.4532(2)
H11 H 0.6825 0.3543 -0.4642
H12 H 0.5891 0.2478 -0.4340
C11 C 0.3607(2) 0.2220(2) -0.5742(2)
H13 H 0.3434 0.2083 -0.4976
H14 H 0.3800 0.1469 -0.6258
C12 C 0.2296(2) 0.2682(2) -0.6296(2)
H15 H 0.1936 0.3283 -0.5689
H16 H 0.2600 0.3067 -0.6897
C13 C 0.0116(2) 0.1433(2) -0.6183(2)
C14 C -0.1015(2) 0.05651(19) -0.68271(19)
H17 H -0.1022 0.0239 -0.7642
C15 C -0.2122(2) 0.01852(19) -0.62734(19)
C16 C -0.2126(2) 0.06523(19) -0.50756(19)
H18 H -0.2908 0.0415 -0.4702
C17 C -0.0960(2) 0.14714(19) -0.44440(19)
C18 C 0.0154(2) 0.1880(2) -0.49972(19)
H19 H 0.0928 0.2460 -0.4557
C19 C -0.1828(2) 0.1524(2) -0.26117(19)
H20 H -0.1853 0.0659 -0.2752
H21 H -0.2832 0.1710 -0.2868
C20 C -0.1344(2) 0.2106(2) -0.13358(19)
H22 H -0.1212 0.2971 -0.1212
H23 H -0.2104 0.1906 -0.0873
C21 C 0.0348(2) 0.1866(2) 0.02709(18)
H24 H -0.0546 0.1629 0.0582
H25 H 0.0680 0.2705 0.0660
C22 C 0.1558(2) 0.1116(2) 0.0510(2)
H26 H 0.1349 0.0745 0.1146
H27 H 0.1584 0.0482 -0.0204
C23 C 0.4109(2) 0.1089(2) 0.0887(2)
H28 H 0.4297 0.0741 0.0079
H29 H 0.3812 0.0438 0.1233
C24 C 0.5490(2) 0.1786(2) 0.1605(2)
H30 H 0.5276 0.2221 0.2379
H31 H 0.6238 0.1252 0.1738
C25 C -0.3358(2) -0.0731(2) -0.69436(19)
N1 N -0.2998(2) -0.15467(18) -0.78348(18)
N2 N -0.3990(2) -0.25509(18) -0.8457(2)
O1 O 0.68573(15) 0.42329(14) 0.00077(13)
O2 O 0.63221(16) 0.41550(14) -0.25011(13)
O3 O 0.48231(17) 0.30996(16) -0.55848(14)
O4 O 0.11189(17) 0.17657(16) -0.68345(14)
O5 O -0.07902(15) 0.19565(14) -0.32537(12)
O6 O 0.00214(15) 0.17050(15) -0.09613(13)
O7 O 0.29498(15) 0.18145(13) 0.08459(14)
O8 O 0.60474(15) 0.25945(13) 0.09978(13)
O9 O -0.46075(16) -0.07404(16) -0.66970(15)
H32 H -0.473(3) -0.266(3) -0.794(3)
H33 H -0.218(3) -0.162(2) -0.788(2)
H34 H -0.447(3) -0.239(3) -0.911(3)
loop_
_geom_bond_atom_site_label_1
_geom_bond_atom_site_label_2
_geom_bond_site_symmetry_1
_geom_bond_site_symmetry_2
C1 C2 1_555 1_555
C2 H1 1_555 1_555
C3 C2 1_555 1_555
H2 C3 1_555 1_555
C4 C3 1_555 1_555
H3 C4 1_555 1_555
C5 C4 1_555 1_555
H4 C5 1_555 1_555
C6 C1 1_555 1_555
C7 H5 1_555 1_555
H6 C7 1_555 1_555
C8 C7 1_555 1_555
H7 C8 1_555 1_555
H8 C8 1_555 1_555
C9 H9 1_555 1_555
H10 C9 1_555 1_555
C10 C9 1_555 1_555
H11 C10 1_555 1_555
H12 C10 1_555 1_555
C11 H13 1_555 1_555
H14 C11 1_555 1_555
C12 C11 1_555 1_555
H15 C12 1_555 1_555
H16 C12 1_555 1_555
C13 C14 1_555 1_555
C14 H17 1_555 1_555
C15 C14 1_555 1_555
C16 C15 1_555 1_555
H18 C16 1_555 1_555
C17 C16 1_555 1_555
C18 C13 1_555 1_555
H19 C18 1_555 1_555
C19 H20 1_555 1_555
H21 C19 1_555 1_555
C20 C19 1_555 1_555
H22 C20 1_555 1_555
H23 C20 1_555 1_555
C21 H24 1_555 1_555
H25 C21 1_555 1_555
C22 C21 1_555 1_555
H26 C22 1_555 1_555
H27 C22 1_555 1_555
C23 H28 1_555 1_555
H29 C23 1_555 1_555
C24 C23 1_555 1_555
H30 C24 1_555 1_555
H31 C24 1_555 1_555
C25 C15 1_555 1_555
N1 C25 1_555 1_555
N2 N1 1_555 1_555
O1 C6 1_555 1_555
O2 C8 1_555 1_555
O3 C10 1_555 1_555
O4 C12 1_555 1_555
O5 C17 1_555 1_555
O6 C20 1_555 1_555
O7 C22 1_555 1_555
O8 C1 1_555 1_555
O9 C25 1_555 1_555
H32 N2 1_555 1_555
H33 N1 1_555 1_555
H34 N2 1_555 1_555
C5 C6 1_555 1_555
C7 O1 1_555 1_555
C9 O2 1_555 1_555
C11 O3 1_555 1_555
C13 O4 1_555 1_555
C17 C18 1_555 1_555
C19 O5 1_555 1_555
C21 O6 1_555 1_555
C23 O7 1_555 1_555
C24 O8 1_555 1_555

#END
