
#######################################################################
#
#                 Cambridge Crystallographic Data Centre
#                                CCDC 
#
#######################################################################
#
# If this CIF has been generated from an entry in the Cambridge 
# Structural Database, then it will include bibliographic, chemical, 
# crystal, experimental, refinement or atomic coordinate data resulting 
# from the CCDC's data processing and validation procedures.
#
#######################################################################

data_TAPKOM
_chemical_formula_moiety         'C12 H29 N4 O2 3+,3(Cl1 1-),2(H2 O1)'
_chemical_name_systematic        
'1,4,8,12-Tetraazoniacyclopentadecane-10-carboxylate trichloride dihydrate'
_symmetry_cell_setting           monoclinic
_symmetry_space_group_name_H-M   'P 21/n'
_symmetry_Int_Tables_number      14
_space_group_name_Hall           '-P 2yn'
loop_
_symmetry_equiv_pos_site_id
_symmetry_equiv_pos_as_xyz
1 x,y,z
2 1/2-x,1/2+y,1/2-z
3 -x,-y,-z
4 1/2+x,1/2-y,1/2+z
_cell_length_a                   9.7106(2)
_cell_length_b                   19.4586(4)
_cell_length_c                   11.0090(2)
_cell_angle_alpha                90
_cell_angle_beta                 113.827(1)
_cell_angle_gamma                90
_cell_volume                     1902.91
_cell_formula_units_Z            4
loop_
_atom_site_label
_atom_site_type_symbol
_atom_site_fract_x
_atom_site_fract_y
_atom_site_fract_z
C1 C 0.61678(19) -0.04378(9) -0.28055(17)
H1 H 0.6074 0.0048 -0.3126
C2 C 0.78137(19) -0.05618(9) -0.18671(17)
H2 H 0.8075 -0.0258 -0.1084
H3 H 0.7927 -0.1043 -0.1550
N1 N 0.88917(16) -0.04328(8) -0.24970(14)
H4 H 0.8707 -0.0750 -0.3164
H5 H 0.9849 -0.0513 -0.1871
C3 C 0.8865(2) 0.02656(9) -0.30702(17)
H6 H 0.7856 0.0349 -0.3782
H7 H 0.9607 0.0280 -0.3477
C4 C 0.9225(2) 0.08361(9) -0.20380(18)
H8 H 1.0258 0.0771 -0.1351
H9 H 0.8517 0.0810 -0.1598
C5 C 0.9106(2) 0.15434(10) -0.26722(19)
H10 H 0.9735 0.1872 -0.1986
H11 H 0.9516 0.1517 -0.3361
N2 N 0.75242(17) 0.18132(8) -0.32928(15)
H12 H 0.7462 0.2136 -0.3923
H13 H 0.6884 0.1458 -0.3716
C6 C 0.7018(2) 0.21303(10) -0.23079(18)
H14 H 0.7669 0.2530 -0.1890
H15 H 0.7141 0.1792 -0.1601
C7 C 0.5395(2) 0.23650(10) -0.29233(19)
H16 H 0.5222 0.2686 -0.2301
H17 H 0.5230 0.2624 -0.3745
N3 N 0.42532(18) 0.17994(8) -0.32586(15)
H18 H 0.4303 0.1542 -0.3941
H19 H 0.3308 0.1991 -0.3556
C8 C 0.4466(2) 0.13307(10) -0.21074(19)
H20 H 0.4584 0.1612 -0.1322
H21 H 0.5400 0.1061 -0.1886
C9 C 0.3152(2) 0.08433(10) -0.2411(2)
H22 H 0.2211 0.1115 -0.2768
H23 H 0.3228 0.0634 -0.1566
C10 C 0.3021(2) 0.02657(9) -0.33878(18)
H24 H 0.1951 0.0217 -0.4006
H25 H 0.3594 0.0396 -0.3919
N4 N 0.35806(16) -0.04149(8) -0.27497(15)
H26 H 0.3266 -0.0743 -0.3408
H27 H 0.3108 -0.0507 -0.2192
C11 C 0.5234(2) -0.05121(10) -0.19712(17)
H28 H 0.5408 -0.0975 -0.1563
H29 H 0.5590 -0.0170 -0.1243
C12 C 0.5634(2) -0.09141(9) -0.40294(17)
O1 O 0.42783(14) -0.08491(7) -0.48467(12)
O2 O 0.65668(15) -0.13093(7) -0.41801(13)
O3 O 0.18057(19) 0.30913(9) -0.21939(16)
H30 H 0.272(3) 0.3257(15) -0.189(3)
H31 H 0.187(3) 0.2761(15) -0.160(3)
O4 O 0.16090(18) 0.24720(9) -0.45059(16)
H32 H 0.148(3) 0.2668(14) -0.390(3)
H33 H 0.090(3) 0.2141(14) -0.481(3)
Cl1 Cl 0.77450(5) 0.06697(3) 0.06076(4)
Cl2 Cl -0.02107(5) 0.11268(2) -0.56057(4)
Cl3 Cl 0.25510(6) 0.19666(2) 0.00042(5)
loop_
_geom_bond_atom_site_label_1
_geom_bond_atom_site_label_2
_geom_bond_site_symmetry_1
_geom_bond_site_symmetry_2
C1 H1 1_555 1_555
C2 C1 1_555 1_555
H2 C2 1_555 1_555
H3 C2 1_555 1_555
N1 C2 1_555 1_555
H4 N1 1_555 1_555
H5 N1 1_555 1_555
C3 N1 1_555 1_555
H6 C3 1_555 1_555
H7 C3 1_555 1_555
C4 C3 1_555 1_555
H8 C4 1_555 1_555
H9 C4 1_555 1_555
C5 C4 1_555 1_555
H10 C5 1_555 1_555
H11 C5 1_555 1_555
N2 C5 1_555 1_555
H12 N2 1_555 1_555
H13 N2 1_555 1_555
C6 N2 1_555 1_555
H14 C6 1_555 1_555
H15 C6 1_555 1_555
C7 C6 1_555 1_555
H16 C7 1_555 1_555
H17 C7 1_555 1_555
N3 C7 1_555 1_555
H18 N3 1_555 1_555
H19 N3 1_555 1_555
C8 N3 1_555 1_555
H20 C8 1_555 1_555
H21 C8 1_555 1_555
C9 C8 1_555 1_555
H22 C9 1_555 1_555
H23 C9 1_555 1_555
C10 C9 1_555 1_555
H24 C10 1_555 1_555
H25 C10 1_555 1_555
N4 C10 1_555 1_555
H26 N4 1_555 1_555
H27 N4 1_555 1_555
C11 C1 1_555 1_555
H28 C11 1_555 1_555
H29 C11 1_555 1_555
C12 C1 1_555 1_555
O1 C12 1_555 1_555
O2 C12 1_555 1_555
O3 H30 1_555 1_555
H31 O3 1_555 1_555
O4 H32 1_555 1_555
H33 O4 1_555 1_555
N4 C11 1_555 1_555

#END
