
#######################################################################
#
#                 Cambridge Crystallographic Data Centre
#                                CCDC 
#
#######################################################################
#
# If this CIF has been generated from an entry in the Cambridge 
# Structural Database, then it will include bibliographic, chemical, 
# crystal, experimental, refinement or atomic coordinate data resulting 
# from the CCDC's data processing and validation procedures.
#
#######################################################################

data_TAPROU01
_chemical_formula_moiety         'C24 H18 N2 O1'
_chemical_name_systematic        
phenyl(2-phenyl-2,3-dihydro-1H-perimidin-2-yl)methanone
_symmetry_cell_setting           monoclinic
_symmetry_space_group_name_H-M   'P 21/n'
_symmetry_Int_Tables_number      14
_space_group_name_Hall           '-P 2yn'
loop_
_symmetry_equiv_pos_site_id
_symmetry_equiv_pos_as_xyz
1 x,y,z
2 1/2-x,1/2+y,1/2-z
3 -x,-y,-z
4 1/2+x,1/2-y,1/2+z
_cell_length_a                   5.9198(2)
_cell_length_b                   16.4914(6)
_cell_length_c                   18.2065(7)
_cell_angle_alpha                90
_cell_angle_beta                 98.311(4)
_cell_angle_gamma                90
_cell_volume                     1758.76
_exptl_crystal_colour            colorless
_exptl_crystal_description       block
_cell_formula_units_Z            4
loop_
_atom_site_label
_atom_site_type_symbol
_atom_site_fract_x
_atom_site_fract_y
_atom_site_fract_z
C1 C 0.3540(3) 0.49514(11) 0.64759(10)
C2 C 0.1281(3) 0.38648(12) 0.58273(10)
C3 C -0.0749(3) 0.35863(13) 0.54519(10)
H1 H -0.1800 0.3948 0.5205
C4 C -0.1233(4) 0.27510(14) 0.54423(11)
H2 H -0.2608 0.2568 0.5183
C5 C 0.0254(4) 0.22021(13) 0.58012(11)
H3 H -0.0116 0.1654 0.5786
C6 C 0.2374(3) 0.24657(12) 0.61997(10)
C7 C 0.3995(4) 0.19294(12) 0.65885(12)
H4 H 0.3694 0.1376 0.6591
C8 C 0.6009(4) 0.22234(13) 0.69620(12)
H5 H 0.7043 0.1866 0.7224
C9 C 0.6541(3) 0.30533(12) 0.69572(11)
H6 H 0.7919 0.3240 0.7211
C10 C 0.5023(3) 0.35899(12) 0.65766(10)
C11 C 0.2884(3) 0.33083(12) 0.62037(10)
C12 C 0.5959(3) 0.60173(12) 0.59620(11)
H7 H 0.6670 0.5606 0.5732
C13 C 0.6614(4) 0.68192(13) 0.58889(12)
H8 H 0.7775 0.6942 0.5613
C14 C 0.5549(4) 0.74355(13) 0.62248(12)
H9 H 0.6017 0.7970 0.6184
C15 C 0.3790(4) 0.72559(13) 0.66211(12)
H10 H 0.3045 0.7670 0.6836
C16 C 0.3138(3) 0.64571(12) 0.66969(11)
H11 H 0.1950 0.6339 0.6963
C17 C 0.2415(3) 0.48729(11) 0.72057(11)
C18 C 0.3877(3) 0.47798(11) 0.79425(11)
C19 C 0.2981(4) 0.43242(12) 0.84773(11)
H12 H 0.1511 0.4115 0.8372
C20 C 0.4250(4) 0.41809(15) 0.91606(13)
H13 H 0.3649 0.3865 0.9509
C21 C 0.6414(4) 0.45055(15) 0.93300(13)
H14 H 0.7277 0.4402 0.9789
C22 C 0.7296(4) 0.49850(14) 0.88152(12)
H15 H 0.8727 0.5222 0.8937
C23 C 0.4233(3) 0.58297(11) 0.63814(10)
C24 C 0.6056(3) 0.51125(12) 0.81198(11)
H16 H 0.6676 0.5420 0.7770
N1 N 0.5479(3) 0.44109(9) 0.65077(9)
H17 H 0.6834 0.4588 0.6485
N2 N 0.1878(3) 0.46969(10) 0.58381(9)
H18 H 0.1310 0.5029 0.5496
O1 O 0.0345(2) 0.48576(9) 0.71664(8)
loop_
_geom_bond_atom_site_label_1
_geom_bond_atom_site_label_2
_geom_bond_site_symmetry_1
_geom_bond_site_symmetry_2
C1 C17 1_555 1_555
C2 C3 1_555 1_555
C3 H1 1_555 1_555
C4 C3 1_555 1_555
H2 C4 1_555 1_555
C5 C4 1_555 1_555
H3 C5 1_555 1_555
C6 C5 1_555 1_555
C7 C6 1_555 1_555
H4 C7 1_555 1_555
C8 C7 1_555 1_555
H5 C8 1_555 1_555
C9 C8 1_555 1_555
H6 C9 1_555 1_555
C10 C9 1_555 1_555
C11 C2 1_555 1_555
C12 H7 1_555 1_555
C13 C12 1_555 1_555
H8 C13 1_555 1_555
C14 C13 1_555 1_555
H9 C14 1_555 1_555
C15 C14 1_555 1_555
H10 C15 1_555 1_555
C16 C15 1_555 1_555
H11 C16 1_555 1_555
C17 C18 1_555 1_555
C18 C19 1_555 1_555
C19 H12 1_555 1_555
C20 C19 1_555 1_555
H13 C20 1_555 1_555
C21 C20 1_555 1_555
H14 C21 1_555 1_555
C22 C21 1_555 1_555
H15 C22 1_555 1_555
C23 C1 1_555 1_555
C24 C18 1_555 1_555
H16 C24 1_555 1_555
N1 C1 1_555 1_555
H17 N1 1_555 1_555
N2 C1 1_555 1_555
H18 N2 1_555 1_555
O1 C17 1_555 1_555
C2 N2 1_555 1_555
C6 C11 1_555 1_555
C10 C11 1_555 1_555
C10 N1 1_555 1_555
C12 C23 1_555 1_555
C16 C23 1_555 1_555
C22 C24 1_555 1_555

#END
