
#######################################################################
#
#                 Cambridge Crystallographic Data Centre
#                                CCDC 
#
#######################################################################
#
# If this CIF has been generated from an entry in the Cambridge 
# Structural Database, then it will include bibliographic, chemical, 
# crystal, experimental, refinement or atomic coordinate data resulting 
# from the CCDC's data processing and validation procedures.
#
#######################################################################

data_TAPSIO
_chemical_formula_moiety         'C22 H19 I1 N2 O5 S1'
_chemical_name_systematic        
N-(2-Iodo-1-(3-nitrophenyl)-3-oxo-3-phenylpropyl)-4-methylbenzenesulfonamide
_symmetry_cell_setting           monoclinic
_symmetry_space_group_name_H-M   'P 21'
_symmetry_Int_Tables_number      4
_space_group_name_Hall           'P 2yb'
loop_
_symmetry_equiv_pos_site_id
_symmetry_equiv_pos_as_xyz
1 x,y,z
2 -x,1/2+y,-z
_cell_length_a                   10.4546(5)
_cell_length_b                   8.3540(3)
_cell_length_c                   13.3800(6)
_cell_angle_alpha                90
_cell_angle_beta                 110.596(5)
_cell_angle_gamma                90
_cell_volume                     1093.89
_cell_formula_units_Z            2
loop_
_atom_site_label
_atom_site_type_symbol
_atom_site_fract_x
_atom_site_fract_y
_atom_site_fract_z
I1 I 0.80609(4) 0.74821(5) 0.27963(3)
S1 S 0.66519(15) 0.31924(16) 0.56018(12)
O1 O 0.6493(4) 0.3581(5) 0.2392(3)
O2 O 0.6988(5) 0.9614(5) 0.6843(4)
O3 O 0.9044(6) 1.0165(6) 0.7886(4)
O4 O 0.5391(3) 0.2401(7) 0.5495(3)
O5 O 0.7799(4) 0.2289(6) 0.5582(3)
N1 N 0.8218(6) 0.9435(6) 0.7132(4)
N2 N 0.6279(5) 0.4473(6) 0.4634(4)
H1 H 0.552(7) 0.492(8) 0.458(5)
C1 C 0.8757(6) 0.8270(6) 0.6553(5)
C2 C 0.7842(5) 0.7415(10) 0.5735(3)
H2 H 0.6889 0.7605 0.5529
C3 C 0.8343(6) 0.6255(6) 0.5208(4)
C4 C 0.9730(6) 0.6005(6) 0.5536(4)
H3 H 1.0075 0.5203 0.5195
C5 C 1.0636(6) 0.6902(6) 0.6355(4)
H4 H 1.1591 0.6723 0.6558
C6 C 1.0153(6) 0.8056(6) 0.6877(4)
H5 H 1.0762 0.8677 0.7439
C7 C 0.7372(6) 0.5231(7) 0.4333(4)
H6 H 0.7925 0.4346 0.4185
C8 C 0.6633(6) 0.6067(6) 0.3269(4)
H7 H 0.5898 0.6775 0.3340
C9 C 0.6030(6) 0.4926(7) 0.2351(5)
C10 C 0.4923(6) 0.5491(6) 0.1367(4)
C11 C 0.3877(6) 0.6493(7) 0.1393(5)
H8 H 0.3878 0.6900 0.2056
C12 C 0.2832(6) 0.6902(7) 0.0459(5)
H9 H 0.2098 0.7553 0.0482
C13 C 0.2859(7) 0.6363(7) -0.0503(5)
H10 H 0.2145 0.6655 -0.1145
C14 C 0.3899(7) 0.5412(8) -0.0550(5)
H11 H 0.3916 0.5066 -0.1222
C15 C 0.4927(7) 0.4953(7) 0.0380(4)
H12 H 0.5638 0.4270 0.0348
C16 C 0.7111(7) 0.4268(7) 0.6813(5)
C17 C 0.6155(7) 0.5224(7) 0.7022(5)
H13 H 0.5240 0.5258 0.6534
C18 C 0.6535(8) 0.6126(8) 0.7940(5)
H14 H 0.5871 0.6782 0.8076
C19 C 0.7858(8) 0.6105(7) 0.8673(5)
C20 C 0.8829(7) 0.5155(8) 0.8444(5)
H15 H 0.9750 0.5142 0.8923
C21 C 0.8454(7) 0.4242(7) 0.7527(5)
H16 H 0.9113 0.3592 0.7382
C22 C 0.8274(7) 0.7110(7) 0.9662(5)
H17 H 0.8466 0.8203 0.9488
H18 H 0.9095 0.6655 1.0195
H19 H 0.7532 0.7131 0.9950
loop_
_geom_bond_atom_site_label_1
_geom_bond_atom_site_label_2
_geom_bond_site_symmetry_1
_geom_bond_site_symmetry_2
I1 C8 1_555 1_555
S1 O4 1_555 1_555
O1 C9 1_555 1_555
O2 N1 1_555 1_555
O3 N1 1_555 1_555
O5 S1 1_555 1_555
N1 C1 1_555 1_555
N2 S1 1_555 1_555
H1 N2 1_555 1_555
C1 C2 1_555 1_555
C2 H2 1_555 1_555
C3 C2 1_555 1_555
C4 C3 1_555 1_555
H3 C4 1_555 1_555
C5 C4 1_555 1_555
H4 C5 1_555 1_555
C6 C1 1_555 1_555
H5 C6 1_555 1_555
C7 N2 1_555 1_555
H6 C7 1_555 1_555
C8 C7 1_555 1_555
H7 C8 1_555 1_555
C9 C8 1_555 1_555
C10 C9 1_555 1_555
C11 C10 1_555 1_555
H8 C11 1_555 1_555
C12 C11 1_555 1_555
H9 C12 1_555 1_555
C13 C12 1_555 1_555
H10 C13 1_555 1_555
C14 C13 1_555 1_555
H11 C14 1_555 1_555
C15 C10 1_555 1_555
H12 C15 1_555 1_555
C16 S1 1_555 1_555
C17 C16 1_555 1_555
H13 C17 1_555 1_555
C18 C17 1_555 1_555
H14 C18 1_555 1_555
C19 C18 1_555 1_555
C20 C19 1_555 1_555
H15 C20 1_555 1_555
C21 C16 1_555 1_555
H16 C21 1_555 1_555
C22 C19 1_555 1_555
H17 C22 1_555 1_555
H18 C22 1_555 1_555
H19 C22 1_555 1_555
C3 C7 1_555 1_555
C5 C6 1_555 1_555
C14 C15 1_555 1_555
C20 C21 1_555 1_555

#END
