
#######################################################################
#
#                 Cambridge Crystallographic Data Centre
#                                CCDC 
#
#######################################################################
#
# If this CIF has been generated from an entry in the Cambridge 
# Structural Database, then it will include bibliographic, chemical, 
# crystal, experimental, refinement or atomic coordinate data resulting 
# from the CCDC's data processing and validation procedures.
#
#######################################################################

data_TAPWUF
_chemical_formula_moiety         'C26 H36 Cl1 N5 O10 S1'
_chemical_name_systematic        
'1,2-di-isopropyl 3-methyl 5-((1,2-bis(isopropoxycarbonyl)hydrazino)sulfanyl)-3-(2-chlorophenyl)-1H-1,2,4-triazole-1,2,3(3H)-tricarboxylate'
_symmetry_cell_setting           monoclinic
_symmetry_space_group_name_H-M   'P 21'
_symmetry_Int_Tables_number      4
_space_group_name_Hall           'P 2yb'
loop_
_symmetry_equiv_pos_site_id
_symmetry_equiv_pos_as_xyz
1 x,y,z
2 -x,1/2+y,-z
_cell_length_a                   10.3480(5)
_cell_length_b                   15.6841(6)
_cell_length_c                   10.7299(5)
_cell_angle_alpha                90
_cell_angle_beta                 109.506(5)
_cell_angle_gamma                90
_cell_volume                     1641.5
_cell_formula_units_Z            2
loop_
_atom_site_label
_atom_site_type_symbol
_atom_site_fract_x
_atom_site_fract_y
_atom_site_fract_z
S1 S 0.99407(8) 0.24608(6) 0.94044(8)
Cl1 Cl 0.69686(12) 0.47739(6) 1.09728(9)
O1 O 0.3939(2) 0.29915(17) 0.6559(2)
O2 O 0.4353(2) 0.37612(17) 0.9212(2)
O3 O 0.5138(2) 0.20157(18) 0.5818(2)
O4 O 0.7201(2) 0.31218(18) 0.5344(2)
O5 O 0.9602(3) 0.13093(17) 1.1285(3)
O6 O 1.1392(3) 0.45598(17) 1.2625(3)
O7 O 0.9300(2) 0.26808(18) 0.6695(2)
O8 O 0.5231(2) 0.24375(18) 0.9376(3)
O9 O 1.2618(2) 0.33686(18) 1.2535(2)
O10 O 0.9784(3) 0.22680(19) 1.2905(3)
N1 N 0.6191(3) 0.3081(2) 0.7266(3)
C1 C 0.5063(3) 0.2613(2) 0.6488(3)
N2 N 1.0179(3) 0.2652(2) 1.1009(3)
N3 N 1.0319(3) 0.3488(2) 1.1416(3)
H1 H 0.9632 0.3830 1.1152
N4 N 0.7491(3) 0.2727(2) 0.7426(3)
N5 N 0.7659(3) 0.3270(2) 0.9434(3)
C2 C 1.1560(4) 0.3771(3) 1.2242(3)
C3 C 0.6618(4) 0.5096(3) 0.9339(4)
C4 C 0.6009(4) 0.4829(3) 0.7031(4)
H2 H 0.5773 0.4454 0.6318
C5 C 0.5222(3) 0.3174(3) 0.9078(3)
C6 C 0.9817(4) 0.2074(3) 1.1838(4)
C7 C 0.8261(3) 0.2857(2) 0.8763(3)
C8 C 0.6301(3) 0.3542(2) 0.8511(3)
C9 C 0.6290(3) 0.4505(2) 0.8300(3)
C10 C 0.8099(3) 0.2851(3) 0.6457(3)
C11 C 1.2646(4) 0.5031(3) 1.3348(4)
H3 H 1.3302 0.4648 1.3965
C12 C 0.7700(4) 0.3234(3) 0.4216(3)
H4 H 0.8463 0.2842 0.4302
C13 C 0.2618(3) 0.2653(3) 0.5672(3)
H5 H 0.2696 0.2520 0.4807
C14 C 0.6073(4) 0.5699(3) 0.6799(4)
H6 H 0.5892 0.5899 0.5942
C15 C 0.6673(5) 0.5959(3) 0.9127(4)
H7 H 0.6887 0.6336 0.9835
C16 C 0.9277(5) 0.0618(3) 1.2063(4)
H8 H 0.9757 0.0720 1.3007
C17 C 0.6406(5) 0.6262(3) 0.7847(5)
H9 H 0.6452 0.6843 0.7698
C18 C 0.1634(4) 0.3376(3) 0.5536(4)
H10 H 0.1500 0.3472 0.6367
H11 H 0.0772 0.3236 0.4877
H12 H 0.2000 0.3882 0.5275
C19 C 0.8186(4) 0.4144(3) 0.4253(4)
H13 H 0.7425 0.4524 0.4124
H14 H 0.8572 0.4230 0.3563
H15 H 0.8871 0.4257 0.5095
C20 C 0.2241(4) 0.1856(3) 0.6261(5)
H16 H 0.2963 0.1444 0.6414
H17 H 0.1407 0.1624 0.5660
H18 H 0.2112 0.1994 0.7083
C21 C 0.9833(4) -0.0175(3) 1.1641(5)
H19 H 0.9411 -0.0251 1.0705
H20 H 0.9637 -0.0658 1.2096
H21 H 1.0807 -0.0121 1.1853
C22 C 1.2186(5) 0.5706(3) 1.4111(5)
H22 H 1.1519 0.6068 1.3505
H23 H 1.2960 0.6041 1.4614
H24 H 1.1785 0.5438 1.4699
C23 C 0.3347(4) 0.3438(3) 0.9748(4)
H25 H 0.2803 0.3010 0.9167
H26 H 0.2765 0.3896 0.9831
H27 H 0.3801 0.3193 1.0602
C24 C 0.6501(4) 0.3006(3) 0.3010(4)
H28 H 0.6225 0.2430 0.3087
H29 H 0.6763 0.3059 0.2235
H30 H 0.5751 0.3385 0.2940
C25 C 1.3264(6) 0.5386(4) 1.2373(5)
H31 H 1.3490 0.4927 1.1892
H32 H 1.4079 0.5700 1.2837
H33 H 1.2616 0.5759 1.1768
C26 C 0.7757(5) 0.0609(3) 1.1800(5)
H34 H 0.7488 0.1130 1.2113
H35 H 0.7527 0.0135 1.2252
H36 H 0.7284 0.0555 1.0867
loop_
_geom_bond_atom_site_label_1
_geom_bond_atom_site_label_2
_geom_bond_site_symmetry_1
_geom_bond_site_symmetry_2
S1 N2 1_555 1_555
Cl1 C3 1_555 1_555
O1 C1 1_555 1_555
O2 C5 1_555 1_555
O3 C1 1_555 1_555
O4 C10 1_555 1_555
O5 C6 1_555 1_555
O6 C2 1_555 1_555
O7 C10 1_555 1_555
O8 C5 1_555 1_555
O9 C2 1_555 1_555
O10 C6 1_555 1_555
N1 C1 1_555 1_555
N2 N3 1_555 1_555
N3 H1 1_555 1_555
N4 N1 1_555 1_555
N5 C7 1_555 1_555
C2 N3 1_555 1_555
C3 C9 1_555 1_555
C4 H2 1_555 1_555
C5 C8 1_555 1_555
C6 N2 1_555 1_555
C7 S1 1_555 1_555
C8 N1 1_555 1_555
C9 C4 1_555 1_555
C10 N4 1_555 1_555
C11 O6 1_555 1_555
H3 C11 1_555 1_555
C12 O4 1_555 1_555
H4 C12 1_555 1_555
C13 O1 1_555 1_555
H5 C13 1_555 1_555
C14 C4 1_555 1_555
H6 C14 1_555 1_555
C15 C3 1_555 1_555
H7 C15 1_555 1_555
C16 O5 1_555 1_555
H8 C16 1_555 1_555
C17 C14 1_555 1_555
H9 C17 1_555 1_555
C18 C13 1_555 1_555
H10 C18 1_555 1_555
H11 C18 1_555 1_555
H12 C18 1_555 1_555
C19 C12 1_555 1_555
H13 C19 1_555 1_555
H14 C19 1_555 1_555
H15 C19 1_555 1_555
C20 C13 1_555 1_555
H16 C20 1_555 1_555
H17 C20 1_555 1_555
H18 C20 1_555 1_555
C21 C16 1_555 1_555
H19 C21 1_555 1_555
H20 C21 1_555 1_555
H21 C21 1_555 1_555
C22 C11 1_555 1_555
H22 C22 1_555 1_555
H23 C22 1_555 1_555
H24 C22 1_555 1_555
C23 O2 1_555 1_555
H25 C23 1_555 1_555
H26 C23 1_555 1_555
H27 C23 1_555 1_555
C24 C12 1_555 1_555
H28 C24 1_555 1_555
H29 C24 1_555 1_555
H30 C24 1_555 1_555
C25 C11 1_555 1_555
H31 C25 1_555 1_555
H32 C25 1_555 1_555
H33 C25 1_555 1_555
C26 C16 1_555 1_555
H34 C26 1_555 1_555
H35 C26 1_555 1_555
H36 C26 1_555 1_555
N4 C7 1_555 1_555
N5 C8 1_555 1_555
C8 C9 1_555 1_555
C15 C17 1_555 1_555

#END
