
#######################################################################
#
#                 Cambridge Crystallographic Data Centre
#                                CCDC 
#
#######################################################################
#
# If this CIF has been generated from an entry in the Cambridge 
# Structural Database, then it will include bibliographic, chemical, 
# crystal, experimental, refinement or atomic coordinate data resulting 
# from the CCDC's data processing and validation procedures.
#
#######################################################################

data_TAPYOB
_chemical_formula_moiety         'C10 H18 B10 F3 N1 O2 S1'
_chemical_name_systematic        
7-(3-(trifluoromethyl)phenylsulfonylamino)-1-methyl-1,2-dicarba-closo-dodecaborane
_symmetry_cell_setting           monoclinic
_symmetry_space_group_name_H-M   'P 21/c'
_symmetry_Int_Tables_number      14
_space_group_name_Hall           '-P 2ybc'
loop_
_symmetry_equiv_pos_site_id
_symmetry_equiv_pos_as_xyz
1 x,y,z
2 -x,1/2+y,1/2-z
3 -x,-y,-z
4 x,1/2-y,1/2+z
_cell_length_a                   10.2821(11)
_cell_length_b                   8.3533(8)
_cell_length_c                   22.036(2)
_cell_angle_alpha                90
_cell_angle_beta                 100.272(3)
_cell_angle_gamma                90
_cell_volume                     1862.33
_exptl_crystal_colour            colorless
_exptl_crystal_description       block
_cell_formula_units_Z            4
loop_
_atom_site_label
_atom_site_type_symbol
_atom_site_fract_x
_atom_site_fract_y
_atom_site_fract_z
S1 S 1.05034(7) 0.27304(9) 0.21047(3)
F1 F 0.9846(17) 0.841(2) 0.1022(13)
F2 F 1.192(2) 0.872(3) 0.1288(16)
F3 F 1.101(4) 0.8555(18) 0.0324(6)
N1 N 0.9071(3) 0.3344(3) 0.21974(12)
H1 H 0.912(3) 0.403(4) 0.2423(14)
O1 O 1.1429(2) 0.3221(3) 0.26352(9)
O2 O 1.0408(2) 0.1064(2) 0.19491(9)
B1 B 0.6546(4) 0.2035(6) 0.2122(2)
H2 H 0.6686 0.1751 0.2617
B2 B 0.6365(4) 0.0881(6) 0.0911(3)
H3 H 0.6405 -0.0169 0.0614
B3 B 0.7669(4) 0.2257(5) 0.10267(18)
H4 H 0.8548 0.2128 0.0810
B4 B 0.7797(3) 0.3008(4) 0.17906(16)
B5 B 0.4982(4) 0.2588(6) 0.1702(2)
H5 H 0.4111 0.2690 0.1926
B6 B 0.6300(4) 0.4010(5) 0.1835(2)
H6 H 0.6283 0.5047 0.2141
B7 B 0.6986(4) 0.4120(5) 0.11423(18)
H7 H 0.7411 0.5231 0.0994
B8 B 0.6097(4) 0.2774(6) 0.0603(2)
H8 H 0.5942 0.2998 0.0103
B9 B 0.4869(4) 0.1838(5) 0.0948(2)
H9 H 0.3913 0.1452 0.0681
B10 B 0.5247(4) 0.3875(5) 0.1096(2)
H10 H 0.4545 0.4833 0.0922
C1 C 0.7307(4) 0.1103(5) 0.16087(19)
H11 H 0.786(4) 0.029(5) 0.1717(18)
C2 C 0.5713(4) 0.0782(5) 0.1548(2)
C3 C 0.5325(6) -0.0932(8) 0.1673(3)
H12 H 0.5007 -0.1461 0.1288
H13 H 0.4641 -0.0921 0.1918
H14 H 0.6081 -0.1493 0.1890
C4 C 1.0899(3) 0.3742(3) 0.14493(13)
C5 C 1.1299(3) 0.2865(4) 0.09806(13)
H15 H 1.1348 0.1754 0.1004
C6 C 1.1622(3) 0.3659(4) 0.04778(14)
H16 H 1.1896 0.3082 0.0162
C7 C 1.1540(3) 0.5306(4) 0.04434(14)
H17 H 1.1756 0.5838 0.0104
C8 C 1.1137(3) 0.6170(4) 0.09146(14)
C9 C 1.0811(3) 0.5385(4) 0.14225(13)
H18 H 1.0538 0.5960 0.1739
C10 C 1.1038(4) 0.7949(4) 0.08880(16)
F4? F 0.987(3) 0.863(4) 0.083(2)
F5? F 1.177(4) 0.854(4) 0.1410(15)
F6? F 1.168(8) 0.854(3) 0.045(2)
B11? B 0.5713(4) 0.0782(5) 0.1548(2)
H19? H 0.5309 -0.0368 0.1672
C11? C 0.6365(4) 0.0881(6) 0.0911(3)
C12? C 0.6394(10) -0.0778(14) 0.0768(5)
H20? H 0.6506 -0.1391 0.1142
H21? H 0.7116 -0.0987 0.0557
H22? H 0.5578 -0.1074 0.0508
loop_
_geom_bond_atom_site_label_1
_geom_bond_atom_site_label_2
_geom_bond_site_symmetry_1
_geom_bond_site_symmetry_2
S1 N1 1_555 1_555
F1 C10 1_555 1_555
F2 C10 1_555 1_555
F3 C10 1_555 1_555
N1 H1 1_555 1_555
O1 S1 1_555 1_555
O2 S1 1_555 1_555
B1 H2 1_555 1_555
B2 H3 1_555 1_555
B3 B2 1_555 1_555
H4 B3 1_555 1_555
B4 N1 1_555 1_555
B5 B1 1_555 1_555
H5 B5 1_555 1_555
B6 B1 1_555 1_555
H6 B6 1_555 1_555
B7 B3 1_555 1_555
H7 B7 1_555 1_555
B8 B2 1_555 1_555
H8 B8 1_555 1_555
B9 B2 1_555 1_555
H9 B9 1_555 1_555
B10 B5 1_555 1_555
H10 B10 1_555 1_555
C1 B1 1_555 1_555
H11 C1 1_555 1_555
C2 B1 1_555 1_555
C3 C2 1_555 1_555
H12 C3 1_555 1_555
H13 C3 1_555 1_555
H14 C3 1_555 1_555
C4 S1 1_555 1_555
C5 C4 1_555 1_555
H15 C5 1_555 1_555
C6 C5 1_555 1_555
H16 C6 1_555 1_555
C7 C6 1_555 1_555
H17 C7 1_555 1_555
C8 C7 1_555 1_555
C9 C4 1_555 1_555
H18 C9 1_555 1_555
C10 C8 1_555 1_555
B1 B4 1_555 1_555
B2 C1 1_555 1_555
B2 C2 1_555 1_555
B3 B4 1_555 1_555
B3 B8 1_555 1_555
B3 C1 1_555 1_555
B4 B6 1_555 1_555
B4 B7 1_555 1_555
B4 C1 1_555 1_555
B5 B6 1_555 1_555
B5 B9 1_555 1_555
B5 C2 1_555 1_555
B6 B7 1_555 1_555
B6 B10 1_555 1_555
B7 B8 1_555 1_555
B7 B10 1_555 1_555
B8 B9 1_555 1_555
B8 B10 1_555 1_555
B9 B10 1_555 1_555
B9 C2 1_555 1_555
C1 C2 1_555 1_555
C8 C9 1_555 1_555

#END
