
#######################################################################
#
#                 Cambridge Crystallographic Data Centre
#                                CCDC 
#
#######################################################################
#
# If this CIF has been generated from an entry in the Cambridge 
# Structural Database, then it will include bibliographic, chemical, 
# crystal, experimental, refinement or atomic coordinate data resulting 
# from the CCDC's data processing and validation procedures.
#
#######################################################################

data_TAQFOG
_chemical_formula_moiety         'C14 H16 B1 N1 O4'
_chemical_name_systematic        (2-Hydroxyethylamine)-tris(2-furyl)borane
_symmetry_cell_setting           monoclinic
_symmetry_space_group_name_H-M   'P 21/c'
_symmetry_Int_Tables_number      14
_space_group_name_Hall           '-P 2ybc'
loop_
_symmetry_equiv_pos_site_id
_symmetry_equiv_pos_as_xyz
1 x,y,z
2 -x,1/2+y,1/2-z
3 -x,-y,-z
4 x,1/2-y,1/2+z
_cell_length_a                   10.053(2)
_cell_length_b                   8.211(9)
_cell_length_c                   16.509(2)
_cell_angle_alpha                90
_cell_angle_beta                 95.09
_cell_angle_gamma                90
_cell_volume                     1357.36
_cell_formula_units_Z            4
loop_
_atom_site_label
_atom_site_type_symbol
_atom_site_fract_x
_atom_site_fract_y
_atom_site_fract_z
O1 O 0.1925(2) -0.3758(3) 0.5904(1)
O2 O 0.3883(2) 0.1904(3) 0.4401(1)
O3 O 0.1263(2) 0.2919(2) 0.6356(1)
O4 O 0.4914(2) 0.0760(2) 0.6870(1)
N1 N 0.3245(2) -0.0797(3) 0.5671(1)
B1 B 0.3021(3) 0.1157(3) 0.5767(2)
C1 C 0.2381(3) -0.1635(3) 0.5011(2)
C2 C 0.2412(3) -0.3447(4) 0.5142(2)
C3 C 0.2814(2) 0.1942(3) 0.4879(1)
C4 C 0.1757(3) 0.2555(3) 0.4422(2)
C5 C 0.2154(3) 0.2914(4) 0.3629(2)
C6 C 0.3431(3) 0.2500(4) 0.3645(2)
C7 C 0.1685(2) 0.1345(3) 0.6220(1)
C8 C 0.0770(3) 0.0328(3) 0.6495(2)
C9 C -0.0257(3) 0.1278(4) 0.6808(2)
C10 C 0.0079(3) 0.2812(4) 0.6712(2)
C11 C 0.4337(2) 0.1814(3) 0.6286(1)
C12 C 0.5073(3) 0.3184(4) 0.6322(2)
C13 C 0.6146(3) 0.2989(4) 0.6941(2)
C14 C 0.6015(3) 0.1526(4) 0.7247(2)
loop_
_geom_bond_atom_site_label_1
_geom_bond_atom_site_label_2
_geom_bond_site_symmetry_1
_geom_bond_site_symmetry_2
O1 C2 1_555 1_555
O2 C3 1_555 1_555
O3 C7 1_555 1_555
O4 C11 1_555 1_555
N1 B1 1_555 1_555
B1 C3 1_555 1_555
C1 N1 1_555 1_555
C2 C1 1_555 1_555
C3 C4 1_555 1_555
C4 C5 1_555 1_555
C5 C6 1_555 1_555
C6 O2 1_555 1_555
C7 B1 1_555 1_555
C8 C7 1_555 1_555
C9 C8 1_555 1_555
C10 O3 1_555 1_555
C11 B1 1_555 1_555
C12 C11 1_555 1_555
C13 C12 1_555 1_555
C14 O4 1_555 1_555
C9 C10 1_555 1_555
C13 C14 1_555 1_555

#END
