
#######################################################################
#
#                 Cambridge Crystallographic Data Centre
#                                CCDC 
#
#######################################################################
#
# If this CIF has been generated from an entry in the Cambridge 
# Structural Database, then it will include bibliographic, chemical, 
# crystal, experimental, refinement or atomic coordinate data resulting 
# from the CCDC's data processing and validation procedures.
#
#######################################################################

data_TAQKII
_chemical_formula_moiety         'C19 H21 N1 O5'
_chemical_name_systematic        
2,2-dimethyl-3a,4,4a,5,6,7a,13b,13c-octahydro-2H,8H,11H-bis[1,3]dioxolo[4,5-a:4',5'-j]pyrrolo[3,2,1-de]phenanthridin-8-one
_symmetry_cell_setting           monoclinic
_symmetry_space_group_name_H-M   'P 21'
_symmetry_Int_Tables_number      4
_space_group_name_Hall           'P 2yb'
loop_
_symmetry_equiv_pos_site_id
_symmetry_equiv_pos_as_xyz
1 x,y,z
2 -x,1/2+y,-z
_cell_length_a                   8.0595(15)
_cell_length_b                   10.015(2)
_cell_length_c                   10.618(2)
_cell_angle_alpha                90
_cell_angle_beta                 104.787(9)
_cell_angle_gamma                90
_cell_volume                     828.657
_exptl_crystal_colour            colorless
_exptl_crystal_description       block
_cell_formula_units_Z            2
loop_
_atom_site_label
_atom_site_type_symbol
_atom_site_fract_x
_atom_site_fract_y
_atom_site_fract_z
O1 O 0.9098(2) 0.6234(2) 0.97018(17)
C1 C 0.3936(3) 0.5799(3) 0.4032(3)
O2 O 0.2282(3) 0.5347(3) 0.3722(2)
O3 O 0.6721(2) 0.6142(2) 0.80504(16)
N1 N 0.9789(3) 0.7698(3) 0.5604(2)
C2 C 0.6794(3) 0.6149(3) 0.5276(2)
C3 C 0.8712(3) 0.7677(3) 0.4394(3)
C4 C 0.7033(3) 0.7024(3) 0.4307(2)
C5 C 0.4191(4) 0.6653(3) 0.3076(3)
C6 C 0.7286(3) 0.6288(3) 0.9431(2)
C7 C 0.7923(3) 0.5305(3) 0.7630(2)
H1 H 0.7455 0.4391 0.7446
C8 C 0.9533(3) 0.5293(3) 0.8825(2)
H2 H 0.9676 0.4395 0.9228
O4 O 0.2693(3) 0.6760(3) 0.2091(2)
C9 C 0.5215(3) 0.5516(3) 0.5141(3)
H3 H 0.5030 0.4922 0.5777
C10 C 0.8330(3) 0.5896(3) 0.6425(2)
H4 H 0.9092 0.5258 0.6131
O5 O 0.9100(3) 0.8153(3) 0.3439(2)
C11 C 0.1501(4) 0.5895(4) 0.2462(3)
H5 H 0.1171 0.5173 0.1824
H6 H 0.0464 0.6393 0.2491
C12 C 0.5705(4) 0.7284(3) 0.3177(2)
H7 H 0.5866 0.7867 0.2525
C13 C 0.6789(4) 0.7650(4) 0.9808(3)
H8 H 0.7342 0.7814 1.0719
H9 H 0.5554 0.7693 0.9672
H10 H 0.7152 0.8321 0.9276
C14 C 1.1037(3) 0.7053(3) 0.7801(3)
H11 H 1.1129 0.7785 0.8442
C15 C 1.1182(3) 0.5719(3) 0.8519(3)
H12 H 1.1530 0.5029 0.7984
H13 H 1.2083 0.5788 0.9334
C16 C 0.9304(3) 0.7190(3) 0.6755(2)
H14 H 0.8573 0.7855 0.7047
C17 C 1.1552(4) 0.8156(4) 0.5908(3)
H15 H 1.1640 0.9099 0.6161
H16 H 1.2059 0.8027 0.5171
C18 C 1.2395(4) 0.7263(4) 0.7044(3)
H17 H 1.3418 0.7694 0.7594
H18 H 1.2731 0.6409 0.6733
C19 C 0.6588(5) 0.5168(4) 1.0110(3)
H19 H 0.6963 0.4316 0.9847
H20 H 0.5344 0.5202 0.9871
H21 H 0.7010 0.5269 1.1046
loop_
_geom_bond_atom_site_label_1
_geom_bond_atom_site_label_2
_geom_bond_site_symmetry_1
_geom_bond_site_symmetry_2
O1 C6 1_555 1_555
C1 O2 1_555 1_555
O2 C11 1_555 1_555
O3 C6 1_555 1_555
N1 C3 1_555 1_555
C2 C4 1_555 1_555
C3 C4 1_555 1_555
C4 C12 1_555 1_555
C5 C1 1_555 1_555
C6 C13 1_555 1_555
C7 O3 1_555 1_555
H1 C7 1_555 1_555
C8 O1 1_555 1_555
H2 C8 1_555 1_555
O4 C5 1_555 1_555
C9 C1 1_555 1_555
H3 C9 1_555 1_555
C10 C2 1_555 1_555
H4 C10 1_555 1_555
O5 C3 1_555 1_555
C11 O4 1_555 1_555
H5 C11 1_555 1_555
H6 C11 1_555 1_555
C12 C5 1_555 1_555
H7 C12 1_555 1_555
C13 H8 1_555 1_555
H9 C13 1_555 1_555
H10 C13 1_555 1_555
C14 H11 1_555 1_555
C15 C8 1_555 1_555
H12 C15 1_555 1_555
H13 C15 1_555 1_555
C16 N1 1_555 1_555
H14 C16 1_555 1_555
C17 N1 1_555 1_555
H15 C17 1_555 1_555
H16 C17 1_555 1_555
C18 C14 1_555 1_555
H17 C18 1_555 1_555
H18 C18 1_555 1_555
C19 C6 1_555 1_555
H19 C19 1_555 1_555
H20 C19 1_555 1_555
H21 C19 1_555 1_555
C2 C9 1_555 1_555
C7 C8 1_555 1_555
C7 C10 1_555 1_555
C10 C16 1_555 1_555
C14 C15 1_555 1_555
C14 C16 1_555 1_555
C17 C18 1_555 1_555

#END
