
#######################################################################
#
#                 Cambridge Crystallographic Data Centre
#                                CCDC 
#
#######################################################################
#
# If this CIF has been generated from an entry in the Cambridge 
# Structural Database, then it will include bibliographic, chemical, 
# crystal, experimental, refinement or atomic coordinate data resulting 
# from the CCDC's data processing and validation procedures.
#
#######################################################################

data_TAQPUY
_chemical_formula_moiety         'C20 H18 O2'
_chemical_name_systematic        
(E)-3-(1,3-Diphenylprop-2-en-1-ylidene)pentane-2,4-dione
_symmetry_cell_setting           orthorhombic
_symmetry_space_group_name_H-M   'P n a 21'
_symmetry_Int_Tables_number      33
_space_group_name_Hall           'P 2c -2n'
loop_
_symmetry_equiv_pos_site_id
_symmetry_equiv_pos_as_xyz
1 x,y,z
2 -x,-y,1/2+z
3 1/2+x,1/2-y,z
4 1/2-x,1/2+y,1/2+z
_cell_length_a                   9.9470(11)
_cell_length_b                   20.244(2)
_cell_length_c                   7.9602(9)
_cell_angle_alpha                90
_cell_angle_beta                 90
_cell_angle_gamma                90
_cell_volume                     1602.92
_cell_formula_units_Z            4
loop_
_atom_site_label
_atom_site_type_symbol
_atom_site_fract_x
_atom_site_fract_y
_atom_site_fract_z
C1 C 0.38381(19) 0.88919(11) -0.0270(3)
C2 C 0.3742(2) 0.94325(11) 0.0814(3)
H1 H 0.3828 0.9371 0.1992
C3 C 0.3520(2) 1.00586(12) 0.0169(3)
H2 H 0.3466 1.0424 0.0913
C4 C 0.3378(2) 1.01605(12) -0.1535(3)
H3 H 0.3232 1.0593 -0.1961
C5 C 0.3449(2) 0.96284(12) -0.2615(3)
H4 H 0.3339 0.9693 -0.3789
C6 C 0.3680(2) 0.90007(12) -0.1987(3)
H5 H 0.3733 0.8638 -0.2741
C7 C 0.4125(2) 0.82181(10) 0.0323(3)
H6 H 0.4067 0.7875 -0.0489
C8 C 0.44576(19) 0.80383(10) 0.1883(3)
H7 H 0.4463 0.8367 0.2735
C9 C 0.48141(18) 0.73601(10) 0.2351(3)
C10 C 0.4414(2) 0.68180(10) 0.1177(3)
C11 C 0.5393(2) 0.64153(11) 0.0464(3)
H8 H 0.6315 0.6503 0.0681
C12 C 0.5045(2) 0.58909(11) -0.0551(3)
H9 H 0.5724 0.5617 -0.1020
C13 C 0.3711(2) 0.57643(12) -0.0886(3)
H10 H 0.3468 0.5399 -0.1570
C14 C 0.2732(2) 0.61681(11) -0.0227(3)
H11 H 0.1813 0.6084 -0.0474
C15 C 0.3074(2) 0.66961(11) 0.0792(3)
H12 H 0.2392 0.6976 0.1230
C16 C 0.5526(2) 0.72071(10) 0.3758(3)
C17 C 0.5855(2) 0.64977(11) 0.4205(3)
C18 C 0.4734(3) 0.60189(12) 0.4518(4)
H13 H 0.4428 0.5834 0.3445
H14 H 0.3986 0.6248 0.5068
H15 H 0.5056 0.5661 0.5243
C19 C 0.6086(2) 0.77060(12) 0.4950(3)
C20 C 0.6283(3) 0.74959(14) 0.6735(4)
H16 H 0.7124 0.7247 0.6833
H17 H 0.5529 0.7216 0.7084
H18 H 0.6325 0.7887 0.7458
O1 O 0.70216(16) 0.63430(8) 0.4400(2)
O2 O 0.6358(2) 0.82627(9) 0.4524(2)
loop_
_geom_bond_atom_site_label_1
_geom_bond_atom_site_label_2
_geom_bond_site_symmetry_1
_geom_bond_site_symmetry_2
C1 C2 1_555 1_555
C2 H1 1_555 1_555
C3 C2 1_555 1_555
H2 C3 1_555 1_555
C4 C3 1_555 1_555
H3 C4 1_555 1_555
C5 C4 1_555 1_555
H4 C5 1_555 1_555
C6 C1 1_555 1_555
H5 C6 1_555 1_555
C7 C1 1_555 1_555
H6 C7 1_555 1_555
C8 C7 1_555 1_555
H7 C8 1_555 1_555
C9 C8 1_555 1_555
C10 C9 1_555 1_555
C11 C10 1_555 1_555
H8 C11 1_555 1_555
C12 C11 1_555 1_555
H9 C12 1_555 1_555
C13 C12 1_555 1_555
H10 C13 1_555 1_555
C14 C13 1_555 1_555
H11 C14 1_555 1_555
C15 C10 1_555 1_555
H12 C15 1_555 1_555
C16 C9 1_555 1_555
C17 C16 1_555 1_555
C18 C17 1_555 1_555
H13 C18 1_555 1_555
H14 C18 1_555 1_555
H15 C18 1_555 1_555
C19 C16 1_555 1_555
C20 C19 1_555 1_555
H16 C20 1_555 1_555
H17 C20 1_555 1_555
H18 C20 1_555 1_555
O1 C17 1_555 1_555
O2 C19 1_555 1_555
C5 C6 1_555 1_555
C14 C15 1_555 1_555

#END
