
#######################################################################
#
#                 Cambridge Crystallographic Data Centre
#                                CCDC 
#
#######################################################################
#
# If this CIF has been generated from an entry in the Cambridge 
# Structural Database, then it will include bibliographic, chemical, 
# crystal, experimental, refinement or atomic coordinate data resulting 
# from the CCDC's data processing and validation procedures.
#
#######################################################################

data_TAQQEI
_chemical_formula_moiety         'C14 H14 N1 O1 1+,C24 H20 B1 1-,C2 H6 O1 S1'
_chemical_name_systematic        
"4'-Hydroxy-4-methylstilbazolium tetraphenylborate dimethyl sulfoxide solvate"
_symmetry_cell_setting           monoclinic
_symmetry_space_group_name_H-M   'P 21/n'
_symmetry_Int_Tables_number      14
_space_group_name_Hall           '-P 2yn'
loop_
_symmetry_equiv_pos_site_id
_symmetry_equiv_pos_as_xyz
1 x,y,z
2 1/2-x,1/2+y,1/2-z
3 -x,-y,-z
4 1/2+x,1/2-y,1/2+z
_cell_length_a                   13.624(2)
_cell_length_b                   10.1880(10)
_cell_length_c                   24.248(3)
_cell_angle_alpha                90
_cell_angle_beta                 98.530(10)
_cell_angle_gamma                90
_cell_volume                     3328.42
_exptl_crystal_colour            yellow
_exptl_crystal_description       chunk
_cell_formula_units_Z            4
loop_
_atom_site_label
_atom_site_type_symbol
_atom_site_fract_x
_atom_site_fract_y
_atom_site_fract_z
C1 C 1.0568(17) 1.2600(12) 0.1900(5)
H1 H 1.1222 1.2597 0.2112
H2 H 1.0159 1.3220 0.2059
H3 H 1.0608 1.2843 0.1521
N1 N 1.013(5) 1.127(3) 0.1911(9)
C2 C 1.001(4) 1.051(2) 0.1454(6)
H4 H 1.0197 1.0823 0.1125
C3 C 0.9607(13) 0.9270(9) 0.1462(3)
H5 H 0.9519 0.8765 0.1139
C4 C 0.9333(7) 0.8770(6) 0.1949(2)
C5 C 0.9422(17) 0.9616(10) 0.2403(4)
H6 H 0.9167 0.9369 0.2723
C6 C 0.987(4) 1.079(2) 0.2386(7)
H7 H 1.0011 1.1285 0.2711
C7 C 0.8960(4) 0.7453(5) 0.19594(19)
H8 H 0.8781 0.7185 0.2297
C8 C 0.8836(4) 0.6574(5) 0.15582(18)
H9 H 0.8986 0.6856 0.1216
C9 C 0.8494(8) 0.5211(5) 0.1574(2)
C10 C 0.8263(15) 0.4751(9) 0.2083(3)
H10 H 0.8316 0.5315 0.2388
C11 C 0.795(3) 0.3458(15) 0.2141(6)
H11 H 0.7768 0.3176 0.2475
C12 C 0.793(2) 0.2593(12) 0.1696(6)
C13 C 0.807(3) 0.3073(13) 0.1180(5)
H12 H 0.7959 0.2532 0.0868
C14 C 0.8363(15) 0.4348(9) 0.1128(3)
H13 H 0.8480 0.4644 0.0781
O1 O 0.753(4) 0.1380(18) 0.1763(7)
H14 H 0.7209 0.1140 0.1466
B1 B 0.26093(17) 0.5591(2) 0.10727(10)
C29 C 0.26044(13) 0.4175(2) 0.07470(8)
C30 C 0.27868(16) 0.4145(2) 0.01944(9)
H29 H 0.2907 0.4934 0.0024
C31 C 0.27981(17) 0.3007(3) -0.01093(10)
H30 H 0.2931 0.3043 -0.0474
C32 C 0.26149(16) 0.1818(2) 0.01213(10)
H31 H 0.2623 0.1047 -0.0083
C33 C 0.24197(17) 0.1795(2) 0.06605(10)
H32 H 0.2287 0.1002 0.0825
C34 C 0.24206(15) 0.2955(2) 0.09609(9)
H33 H 0.2290 0.2910 0.1326
C35 C 0.23204(14) 0.54572(19) 0.17051(8)
C36 C 0.28875(15) 0.4684(2) 0.21099(8)
H34 H 0.3407 0.4195 0.2006
C37 C 0.27148(17) 0.4609(2) 0.26572(9)
H35 H 0.3107 0.4070 0.2909
C38 C 0.19610(18) 0.5334(2) 0.28283(9)
H36 H 0.1845 0.5299 0.3196
C39 C 0.13846(18) 0.6109(2) 0.24461(10)
H37 H 0.0874 0.6605 0.2556
C40 C 0.15584(16) 0.6155(2) 0.18986(9)
H38 H 0.1148 0.6676 0.1647
C41 C 0.37365(15) 0.6227(2) 0.11621(8)
C42 C 0.39199(16) 0.7471(2) 0.13989(9)
H39 H 0.3388 0.7947 0.1495
C43 C 0.48579(19) 0.8028(2) 0.14964(9)
H40 H 0.4941 0.8868 0.1647
C44 C 0.56656(19) 0.7341(3) 0.13709(10)
H41 H 0.6295 0.7714 0.1429
C45 C 0.55267(17) 0.6097(3) 0.11583(10)
H42 H 0.6068 0.5605 0.1085
C46 C 0.45789(15) 0.5573(2) 0.10525(9)
H43 H 0.4504 0.4736 0.0899
C47 C 0.17938(14) 0.6527(2) 0.06876(8)
C48 C 0.19727(16) 0.7753(2) 0.04659(9)
H44 H 0.2612 0.8097 0.0534
C49 C 0.12328(18) 0.8480(2) 0.01475(10)
H45 H 0.1386 0.9294 0.0009
C50 C 0.02840(17) 0.8017(2) 0.00349(9)
H46 H -0.0211 0.8513 -0.0174
C51 C 0.00743(16) 0.6807(2) 0.02345(9)
H47 H -0.0565 0.6469 0.0156
C52 C 0.08158(16) 0.6086(2) 0.05536(9)
H48 H 0.0654 0.5268 0.0685
S1 S 0.54701(5) 0.09763(8) 0.06096(3)
O3 O 0.65231(14) 0.05482(18) 0.07682(8)
C53 C 0.5136(2) 0.1857(3) 0.11799(11)
H49 H 0.5167 0.1286 0.1497
H50 H 0.4473 0.2189 0.1085
H51 H 0.5587 0.2577 0.1269
C54 C 0.5515(2) 0.2316(3) 0.01576(12)
H52 H 0.5972 0.2959 0.0334
H53 H 0.4866 0.2699 0.0073
H54 H 0.5730 0.2020 -0.0181
C15? C 1.0606(16) 1.2631(11) 0.2088(5)
H15? H 1.1287 1.2500 0.2248
H16? H 1.0264 1.3080 0.2351
H17? H 1.0577 1.3149 0.1755
N2? N 1.013(5) 1.135(3) 0.1949(9)
C16? C 1.009(4) 1.083(2) 0.1435(6)
H18? H 1.0313 1.1329 0.1156
C17? C 0.9721(14) 0.9594(9) 0.1313(3)
H19? H 0.9719 0.9251 0.0957
C18? C 0.9354(7) 0.8850(5) 0.1717(2)
C19? C 0.9436(16) 0.9394(10) 0.2246(4)
H20? H 0.9256 0.8901 0.2538
C20? C 0.977(3) 1.064(2) 0.2342(6)
H21? H 0.9757 1.1007 0.2691
C21? C 0.8985(4) 0.7550(5) 0.15692(19)
H22? H 0.8897 0.7329 0.1193
C22? C 0.8763(4) 0.6656(5) 0.19151(19)
H23? H 0.8809 0.6916 0.2286
C23? C 0.8449(8) 0.5291(5) 0.1797(2)
C24? C 0.8282(16) 0.4541(9) 0.2258(3)
H24? H 0.8380 0.4916 0.2612
C25? C 0.797(3) 0.3237(16) 0.2195(6)
H25? H 0.7920 0.2722 0.2506
C26? C 0.774(2) 0.2714(12) 0.1662(6)
C27? C 0.801(3) 0.3398(13) 0.1215(5)
H26? H 0.7956 0.3001 0.0867
C28? C 0.8347(15) 0.4664(9) 0.1285(3)
H27? H 0.8515 0.5114 0.0979
O2? O 0.752(4) 0.1399(18) 0.1634(7)
H28? H 0.7314 0.1196 0.1310
loop_
_geom_bond_atom_site_label_1
_geom_bond_atom_site_label_2
_geom_bond_site_symmetry_1
_geom_bond_site_symmetry_2
C1 H1 1_555 1_555
H2 C1 1_555 1_555
H3 C1 1_555 1_555
N1 C1 1_555 1_555
C2 N1 1_555 1_555
H4 C2 1_555 1_555
C3 C2 1_555 1_555
H5 C3 1_555 1_555
C4 C3 1_555 1_555
C5 C4 1_555 1_555
H6 C5 1_555 1_555
C6 N1 1_555 1_555
H7 C6 1_555 1_555
C7 C4 1_555 1_555
H8 C7 1_555 1_555
C8 C7 1_555 1_555
H9 C8 1_555 1_555
C9 C8 1_555 1_555
C10 C9 1_555 1_555
H10 C10 1_555 1_555
C11 C10 1_555 1_555
H11 C11 1_555 1_555
C12 C11 1_555 1_555
C13 C12 1_555 1_555
H12 C13 1_555 1_555
C14 C9 1_555 1_555
H13 C14 1_555 1_555
O1 C12 1_555 1_555
H14 O1 1_555 1_555
B1 C29 1_555 1_555
C29 C30 1_555 1_555
C30 H29 1_555 1_555
C31 C30 1_555 1_555
H30 C31 1_555 1_555
C32 C31 1_555 1_555
H31 C32 1_555 1_555
C33 C32 1_555 1_555
H32 C33 1_555 1_555
C34 C29 1_555 1_555
H33 C34 1_555 1_555
C35 B1 1_555 1_555
C36 C35 1_555 1_555
H34 C36 1_555 1_555
C37 C36 1_555 1_555
H35 C37 1_555 1_555
C38 C37 1_555 1_555
H36 C38 1_555 1_555
C39 C38 1_555 1_555
H37 C39 1_555 1_555
C40 C35 1_555 1_555
H38 C40 1_555 1_555
C41 B1 1_555 1_555
C42 C41 1_555 1_555
H39 C42 1_555 1_555
C43 C42 1_555 1_555
H40 C43 1_555 1_555
C44 C43 1_555 1_555
H41 C44 1_555 1_555
C45 C44 1_555 1_555
H42 C45 1_555 1_555
C46 C41 1_555 1_555
H43 C46 1_555 1_555
C47 B1 1_555 1_555
C48 C47 1_555 1_555
H44 C48 1_555 1_555
C49 C48 1_555 1_555
H45 C49 1_555 1_555
C50 C49 1_555 1_555
H46 C50 1_555 1_555
C51 C50 1_555 1_555
H47 C51 1_555 1_555
C52 C47 1_555 1_555
H48 C52 1_555 1_555
S1 O3 1_555 1_555
C53 S1 1_555 1_555
H49 C53 1_555 1_555
H50 C53 1_555 1_555
H51 C53 1_555 1_555
C54 S1 1_555 1_555
H52 C54 1_555 1_555
H53 C54 1_555 1_555
H54 C54 1_555 1_555
C5 C6 1_555 1_555
C13 C14 1_555 1_555
C33 C34 1_555 1_555
C39 C40 1_555 1_555
C45 C46 1_555 1_555
C51 C52 1_555 1_555

#END
