
#######################################################################
#
#                 Cambridge Crystallographic Data Centre
#                                CCDC 
#
#######################################################################
#
# If this CIF has been generated from an entry in the Cambridge 
# Structural Database, then it will include bibliographic, chemical, 
# crystal, experimental, refinement or atomic coordinate data resulting 
# from the CCDC's data processing and validation procedures.
#
#######################################################################

data_TAQQAE
_chemical_name_common            'PDB Chemical Component code: S2D'
_chemical_formula_moiety         'C10 H11 N1 O3'
_chemical_name_systematic        'N-Benzoyl alanine'
_symmetry_cell_setting           monoclinic
_symmetry_space_group_name_H-M   'P 21/c'
_symmetry_Int_Tables_number      14
_space_group_name_Hall           '-P 2ybc'
loop_
_symmetry_equiv_pos_site_id
_symmetry_equiv_pos_as_xyz
1 x,y,z
2 -x,1/2+y,1/2-z
3 -x,-y,-z
4 x,1/2-y,1/2+z
_cell_length_a                   9.263(2)
_cell_length_b                   10.308(3)
_cell_length_c                   10.974(3)
_cell_angle_alpha                90
_cell_angle_beta                 112.872(3)
_cell_angle_gamma                90
_cell_volume                     965.445
_exptl_crystal_colour            yellow
_exptl_crystal_description       block
_cell_formula_units_Z            4
_exptl_crystal_recrystallization_method ethanol
loop_
_atom_site_label
_atom_site_type_symbol
_atom_site_fract_x
_atom_site_fract_y
_atom_site_fract_z
N1 N 0.09419(16) 0.29785(14) 0.48452(14)
O1 O -0.09681(17) 0.40131(13) 0.15127(13)
O2 O -0.00401(17) 0.51439(11) 0.33878(13)
O3 O 0.19421(14) 0.09504(10) 0.51286(12)
C1 C -0.03423(18) 0.41247(15) 0.28065(16)
C2 C -0.00969(18) 0.28128(15) 0.34712(17)
C3 C -0.1663(3) 0.2217(3) 0.3312(3)
C4 C 0.19029(17) 0.20527(14) 0.55534(16)
C5 C 0.30081(16) 0.24210(14) 0.69219(16)
C6 C 0.3611(2) 0.36658(17) 0.72216(19)
C7 C 0.4677(2) 0.3955(2) 0.8481(2)
C8 C 0.5127(2) 0.3019(2) 0.9441(2)
C9 C 0.4530(2) 0.1788(2) 0.9159(2)
C10 C 0.3484(2) 0.14773(18) 0.78915(19)
H1 H -0.129(3) 0.483(3) 0.116(3)
H2 H 0.087(2) 0.368(2) 0.524(2)
H3 H 0.0415(19) 0.2286(17) 0.301(2)
H4 H -0.220(3) 0.283(3) 0.360(3)
H5 H -0.234(3) 0.211(2) 0.231(3)
H6 H -0.150(2) 0.140(2) 0.375(2)
H7 H 0.331(2) 0.4344(19) 0.654(2)
H8 H 0.511(2) 0.477(2) 0.864(2)
H9 H 0.593(3) 0.323(2) 1.033(3)
H10 H 0.485(3) 0.110(3) 0.980(3)
H11 H 0.310(2) 0.063(2) 0.774(2)
loop_
_geom_bond_atom_site_label_1
_geom_bond_atom_site_label_2
_geom_bond_site_symmetry_1
_geom_bond_site_symmetry_2
N1 C2 1_555 1_555
O1 C1 1_555 1_555
O2 C1 1_555 1_555
O3 C4 1_555 1_555
C1 C2 1_555 1_555
C2 C3 1_555 1_555
C3 H4 1_555 1_555
C4 N1 1_555 1_555
C5 C4 1_555 1_555
C6 C5 1_555 1_555
C7 C6 1_555 1_555
C8 C7 1_555 1_555
C9 C8 1_555 1_555
C10 C5 1_555 1_555
H1 O1 1_555 1_555
H2 N1 1_555 1_555
H3 C2 1_555 1_555
H5 C3 1_555 1_555
H6 C3 1_555 1_555
H7 C6 1_555 1_555
H8 C7 1_555 1_555
H9 C8 1_555 1_555
H10 C9 1_555 1_555
H11 C10 1_555 1_555
C9 C10 1_555 1_555

#END
