
#######################################################################
#
#                 Cambridge Crystallographic Data Centre
#                                CCDC 
#
#######################################################################
#
# If this CIF has been generated from an entry in the Cambridge 
# Structural Database, then it will include bibliographic, chemical, 
# crystal, experimental, refinement or atomic coordinate data resulting 
# from the CCDC's data processing and validation procedures.
#
#######################################################################

data_TAQRIO
_chemical_compound_source        'Schisandra lancifolia'
_chemical_name_common            
4a-Hydroxy-3a,8,8-trimethyl-11a-(1-(4-methyl-5-oxofuran-2(5H)-ylidene)propan-2-yl)dodecahydrofuro[3',4':5,6]azuleno[1,2-b]furo[3,2-d]furan-2,6(3H,3bH)-dione
_chemical_formula_moiety         'C27 H34 O8'
_chemical_name_systematic        'Schilancitrilactone B'
_symmetry_cell_setting           monoclinic
_symmetry_space_group_name_H-M   'P 21'
_symmetry_Int_Tables_number      4
_space_group_name_Hall           'P 2yb'
loop_
_symmetry_equiv_pos_site_id
_symmetry_equiv_pos_as_xyz
1 x,y,z
2 -x,1/2+y,-z
_cell_length_a                   10.40640(10)
_cell_length_b                   6.95520(10)
_cell_length_c                   18.3789(2)
_cell_angle_alpha                90
_cell_angle_beta                 102.0530(10)
_cell_angle_gamma                90
_cell_volume                     1300.91
_exptl_crystal_colour            colorless
_exptl_crystal_description       chunk
_cell_formula_units_Z            2
loop_
_atom_site_label
_atom_site_type_symbol
_atom_site_fract_x
_atom_site_fract_y
_atom_site_fract_z
O1 O 0.17231(16) -0.1186(2) 0.72106(8)
O2 O -0.27032(17) 0.1918(3) 0.66505(10)
O3 O 0.37277(18) -0.0628(3) 0.96467(9)
H1 H 0.3369 -0.1680 0.9634
O4 O 0.17515(15) 0.0416(3) 0.61165(8)
O5 O 0.2804(3) 0.2441(5) 0.55203(11)
O6 O 0.8574(2) -0.0952(5) 0.94945(14)
C1 C 0.7594(3) -0.0115(6) 0.97437(17)
C2 C 0.6284(2) -0.0962(4) 0.93962(11)
H2 H 0.5919 -0.1514 0.9800
C3 C 0.5289(2) 0.0536(3) 0.90017(11)
H3 H 0.5415 0.1728 0.9282
H4 H 0.5461 0.0792 0.8512
C4 C 0.3859(2) -0.0109(3) 0.89183(10)
C5 C 0.3405(2) -0.1716(3) 0.83372(12)
H5 H 0.2582 -0.2222 0.8441
C6 C 0.30275(19) -0.0623(3) 0.75938(10)
H6 H 0.3674 -0.0835 0.7283
C7 C 0.11705(19) 0.0352(3) 0.67796(10)
C8 C -0.0299(2) -0.0034(4) 0.65202(13)
H7 H -0.0684 -0.0016 0.6963
C9 C -0.0979(2) 0.1501(4) 0.60051(12)
H8 H -0.0598 0.1876 0.5613
C10 C -0.2084(2) 0.2354(4) 0.60726(11)
C11 C -0.3776(3) 0.3090(5) 0.65991(17)
O7 O -0.4481(3) 0.2975(6) 0.70401(16)
C12 C 0.8886(5) -0.4104(9) 0.9026(3)
H9 H 0.9684 -0.3944 0.8848
H10 H 0.8390 -0.5152 0.8767
H11 H 0.9095 -0.4375 0.9550
C13 C 0.8084(3) -0.2280(6) 0.88890(15)
C14 C 0.6642(2) -0.2634(4) 0.89435(12)
H12 H 0.6643 -0.3788 0.9250
C15 C 0.5689(3) -0.3030(4) 0.82097(13)
H13 H 0.5996 -0.4126 0.7968
H14 H 0.5662 -0.1926 0.7884
C16 C 0.4300(3) -0.3442(3) 0.83342(15)
H15 H 0.3872 -0.4319 0.7948
H16 H 0.4383 -0.4103 0.8806
C17 C 0.2906(2) 0.1517(3) 0.86062(10)
H17 H 0.3210 0.2739 0.8833
H18 H 0.2032 0.1260 0.8691
C18 C 0.2909(2) 0.1525(3) 0.77696(10)
H19 H 0.3684 0.2216 0.7683
C19 C 0.1660(2) 0.2245(3) 0.72125(10)
C20 C 0.2265(2) 0.2157(4) 0.60222(12)
C21 C 0.2033(3) 0.3517(4) 0.66070(12)
H20 H 0.1326 0.4401 0.6407
H21 H 0.2821 0.4252 0.6805
C22 C -0.0573(3) -0.2014(5) 0.6165(2)
H22 H -0.1491 -0.2307 0.6105
H23 H -0.0065 -0.2964 0.6479
H24 H -0.0337 -0.2018 0.5687
C23 C -0.3826(3) 0.4375(4) 0.59679(17)
C24 C -0.2825(2) 0.3886(4) 0.56480(15)
H25 H -0.2639 0.4443 0.5222
C25 C -0.4838(4) 0.5906(7) 0.5767(4)
H26 H -0.4414 0.7116 0.5727
H27 H -0.5348 0.5990 0.6145
H28 H -0.5404 0.5599 0.5299
C26 C 0.0661(3) 0.3216(4) 0.75943(12)
H29 H 0.1076 0.4261 0.7896
H30 H 0.0338 0.2298 0.7903
H31 H -0.0057 0.3698 0.7224
O8 O 0.7808(3) 0.1127(6) 1.02071(19)
C27 C 0.8229(5) -0.1248(14) 0.8190(3)
H32 H 0.7842 0.0007 0.8180
H33 H 0.7792 -0.1967 0.7764
H34 H 0.9144 -0.1126 0.8181
loop_
_geom_bond_atom_site_label_1
_geom_bond_atom_site_label_2
_geom_bond_site_symmetry_1
_geom_bond_site_symmetry_2
O1 C6 1_555 1_555
O2 C10 1_555 1_555
O3 H1 1_555 1_555
O4 C7 1_555 1_555
O5 C20 1_555 1_555
O6 C1 1_555 1_555
C1 C2 1_555 1_555
C2 H2 1_555 1_555
C3 C2 1_555 1_555
H3 C3 1_555 1_555
H4 C3 1_555 1_555
C4 O3 1_555 1_555
C5 C4 1_555 1_555
H5 C5 1_555 1_555
C6 C5 1_555 1_555
H6 C6 1_555 1_555
C7 O1 1_555 1_555
C8 C7 1_555 1_555
H7 C8 1_555 1_555
C9 C8 1_555 1_555
H8 C9 1_555 1_555
C10 C9 1_555 1_555
C11 O2 1_555 1_555
O7 C11 1_555 1_555
C12 H9 1_555 1_555
H10 C12 1_555 1_555
H11 C12 1_555 1_555
C13 O6 1_555 1_555
C14 C2 1_555 1_555
H12 C14 1_555 1_555
C15 C14 1_555 1_555
H13 C15 1_555 1_555
H14 C15 1_555 1_555
C16 C5 1_555 1_555
H15 C16 1_555 1_555
H16 C16 1_555 1_555
C17 C4 1_555 1_555
H17 C17 1_555 1_555
H18 C17 1_555 1_555
C18 C6 1_555 1_555
H19 C18 1_555 1_555
C19 C7 1_555 1_555
C20 O4 1_555 1_555
C21 C19 1_555 1_555
H20 C21 1_555 1_555
H21 C21 1_555 1_555
C22 C8 1_555 1_555
H22 C22 1_555 1_555
H23 C22 1_555 1_555
H24 C22 1_555 1_555
C23 C11 1_555 1_555
C24 C10 1_555 1_555
H25 C24 1_555 1_555
C25 C23 1_555 1_555
H26 C25 1_555 1_555
H27 C25 1_555 1_555
H28 C25 1_555 1_555
C26 C19 1_555 1_555
H29 C26 1_555 1_555
H30 C26 1_555 1_555
H31 C26 1_555 1_555
O8 C1 1_555 1_555
C27 C13 1_555 1_555
H32 C27 1_555 1_555
H33 C27 1_555 1_555
H34 C27 1_555 1_555
C3 C4 1_555 1_555
C12 C13 1_555 1_555
C13 C14 1_555 1_555
C15 C16 1_555 1_555
C17 C18 1_555 1_555
C18 C19 1_555 1_555
C20 C21 1_555 1_555
C23 C24 1_555 1_555

#END
