
#######################################################################
#
#                 Cambridge Crystallographic Data Centre
#                                CCDC 
#
#######################################################################
#
# If this CIF has been generated from an entry in the Cambridge 
# Structural Database, then it will include bibliographic, chemical, 
# crystal, experimental, refinement or atomic coordinate data resulting 
# from the CCDC's data processing and validation procedures.
#
#######################################################################

data_TAQRAG
_chemical_formula_moiety         'C33 H25 N1 O3'
_chemical_name_systematic        
1-Benzyl-4'-phenyl-2'-(phenylethynyl)-4'H-spiro[indole-3,3'-pyran]-2,6'(1H,5'H)-dione
_symmetry_cell_setting           triclinic
_symmetry_space_group_name_H-M   'P -1'
_symmetry_Int_Tables_number      2
_space_group_name_Hall           '-P 1'
loop_
_symmetry_equiv_pos_site_id
_symmetry_equiv_pos_as_xyz
1 x,y,z
2 -x,-y,-z
_cell_length_a                   9.6270(19)
_cell_length_b                   10.047(2)
_cell_length_c                   13.365(3)
_cell_angle_alpha                87.97(3)
_cell_angle_beta                 87.03(3)
_cell_angle_gamma                85.14(3)
_cell_volume                     1285.69
_cell_formula_units_Z            2
loop_
_atom_site_label
_atom_site_type_symbol
_atom_site_fract_x
_atom_site_fract_y
_atom_site_fract_z
N1 N 0.2319(2) 0.0940(2) 0.29853(16)
O1 O 0.4368(2) -0.00450(18) 0.35716(15)
C1 C 0.0426(3) -0.0990(3) 0.1522(3)
H1 H -0.0433 -0.0620 0.1774
O2 O 0.6625(2) 0.14908(18) 0.26742(17)
C2 C 0.0517(4) -0.1592(4) 0.0603(3)
H2 H -0.0282 -0.1617 0.0244
O3 O 0.8026(2) 0.0995(3) 0.3875(2)
C3 C 0.1757(3) -0.2148(3) 0.0219(3)
H3 H 0.1818 -0.2542 -0.0403
C4 C 0.2904(3) -0.2115(3) 0.0762(3)
H4 H 0.3757 -0.2506 0.0514
C5 C 0.2823(3) -0.1513(3) 0.1672(3)
H5 H 0.3624 -0.1499 0.2030
C6 C 0.1584(3) -0.0933(3) 0.2062(2)
C7 C 0.1524(3) -0.0241(3) 0.3053(2)
H6 H 0.0560 0.0024 0.3252
H7 H 0.1900 -0.0859 0.3564
C8 C 0.3663(3) 0.0934(3) 0.3243(2)
C9 C 0.4149(3) 0.2341(2) 0.30350(19)
C10 C 0.2871(3) 0.3082(2) 0.26054(19)
C11 C 0.1822(3) 0.2215(3) 0.2609(2)
C12 C 0.2588(3) 0.4398(3) 0.2290(2)
H8 H 0.3270 0.4999 0.2299
C13 C 0.1275(3) 0.4811(3) 0.1960(2)
H9 H 0.1078 0.5690 0.1735
C14 C 0.0268(3) 0.3926(3) 0.1962(2)
H10 H -0.0607 0.4222 0.1739
C15 C 0.0509(3) 0.2605(3) 0.2287(2)
H11 H -0.0182 0.2011 0.2288
C16 C 0.5410(3) 0.2241(3) 0.2279(2)
H12 H 0.5141 0.1771 0.1699
C17 C 0.6918(3) 0.1520(3) 0.3652(3)
C18 C 0.5871(3) 0.2119(3) 0.4396(2)
H13 H 0.6348 0.2670 0.4826
H14 H 0.5520 0.1400 0.4813
C19 C 0.4615(3) 0.2971(3) 0.3991(2)
H15 H 0.4939 0.3843 0.3786
C20 C 0.3427(3) 0.3227(3) 0.4756(2)
C21 C 0.2870(3) 0.4517(3) 0.4911(2)
H16 H 0.3276 0.5224 0.4576
C22 C 0.1725(4) 0.4774(4) 0.5551(3)
H17 H 0.1372 0.5651 0.5659
C23 C 0.1104(4) 0.3734(5) 0.6031(3)
H18 H 0.0311 0.3902 0.6450
C24 C 0.1654(4) 0.2441(4) 0.5892(2)
H19 H 0.1237 0.1735 0.6221
C25 C 0.2814(3) 0.2194(3) 0.5269(2)
H20 H 0.3195 0.1320 0.5191
C26 C 0.5812(3) 0.3565(3) 0.1918(2)
C27 C 0.6120(3) 0.4655(3) 0.1655(2)
C28 C 0.6408(3) 0.5997(3) 0.1361(2)
C29 C 0.6684(3) 0.6351(3) 0.0365(2)
H21 H 0.6728 0.5709 -0.0123
C30 C 0.6894(3) 0.7661(4) 0.0099(3)
H22 H 0.7085 0.7897 -0.0570
C31 C 0.6823(3) 0.8617(3) 0.0810(3)
H23 H 0.6948 0.9502 0.0623
C32 C 0.6569(3) 0.8264(3) 0.1791(3)
H24 H 0.6538 0.8908 0.2277
C33 C 0.6358(3) 0.6965(3) 0.2069(2)
H25 H 0.6181 0.6738 0.2741
loop_
_geom_bond_atom_site_label_1
_geom_bond_atom_site_label_2
_geom_bond_site_symmetry_1
_geom_bond_site_symmetry_2
N1 C7 1_555 1_555
O1 C8 1_555 1_555
C1 H1 1_555 1_555
O2 C16 1_555 1_555
C2 C1 1_555 1_555
H2 C2 1_555 1_555
O3 C17 1_555 1_555
C3 C2 1_555 1_555
H3 C3 1_555 1_555
C4 C3 1_555 1_555
H4 C4 1_555 1_555
C5 C4 1_555 1_555
H5 C5 1_555 1_555
C6 C1 1_555 1_555
C7 C6 1_555 1_555
H6 C7 1_555 1_555
H7 C7 1_555 1_555
C8 N1 1_555 1_555
C9 C8 1_555 1_555
C10 C9 1_555 1_555
C11 N1 1_555 1_555
C12 C10 1_555 1_555
H8 C12 1_555 1_555
C13 C12 1_555 1_555
H9 C13 1_555 1_555
C14 C13 1_555 1_555
H10 C14 1_555 1_555
C15 C11 1_555 1_555
H11 C15 1_555 1_555
C16 C9 1_555 1_555
H12 C16 1_555 1_555
C17 O2 1_555 1_555
C18 C17 1_555 1_555
H13 C18 1_555 1_555
H14 C18 1_555 1_555
C19 C9 1_555 1_555
H15 C19 1_555 1_555
C20 C19 1_555 1_555
C21 C20 1_555 1_555
H16 C21 1_555 1_555
C22 C21 1_555 1_555
H17 C22 1_555 1_555
C23 C22 1_555 1_555
H18 C23 1_555 1_555
C24 C23 1_555 1_555
H19 C24 1_555 1_555
C25 C20 1_555 1_555
H20 C25 1_555 1_555
C26 C16 1_555 1_555
C27 C26 1_555 1_555
C28 C27 1_555 1_555
C29 C28 1_555 1_555
H21 C29 1_555 1_555
C30 C29 1_555 1_555
H22 C30 1_555 1_555
C31 C30 1_555 1_555
H23 C31 1_555 1_555
C32 C31 1_555 1_555
H24 C32 1_555 1_555
C33 C28 1_555 1_555
H25 C33 1_555 1_555
C5 C6 1_555 1_555
C10 C11 1_555 1_555
C14 C15 1_555 1_555
C18 C19 1_555 1_555
C24 C25 1_555 1_555
C32 C33 1_555 1_555

#END
