
#######################################################################
#
#                 Cambridge Crystallographic Data Centre
#                                CCDC 
#
#######################################################################
#
# If this CIF has been generated from an entry in the Cambridge 
# Structural Database, then it will include bibliographic, chemical, 
# crystal, experimental, refinement or atomic coordinate data resulting 
# from the CCDC's data processing and validation procedures.
#
#######################################################################

data_TAQROT
_chemical_formula_moiety         'C40 H50 O5 Si2'
_chemical_name_systematic        
'Isopropyl 2,5-anhydro-3,4-di-O-t-butyldiphenylsilyl-L-ribonate'
_symmetry_cell_setting           monoclinic
_symmetry_space_group_name_H-M   'P 21'
_symmetry_Int_Tables_number      4
_space_group_name_Hall           'P 2yb'
loop_
_symmetry_equiv_pos_site_id
_symmetry_equiv_pos_as_xyz
1 x,y,z
2 -x,1/2+y,-z
_cell_length_a                   17.2952(2)
_cell_length_b                   10.7468(2)
_cell_length_c                   20.4914(4)
_cell_angle_alpha                90
_cell_angle_beta                 100.7864(5)
_cell_angle_gamma                90
_cell_volume                     3741.4
_exptl_crystal_colour            colorless
_exptl_crystal_description       prism
_cell_formula_units_Z            4
_exptl_crystal_recrystallization_method 'ethyl acetate/hexane'
loop_
_atom_site_label
_atom_site_type_symbol
_atom_site_fract_x
_atom_site_fract_y
_atom_site_fract_z
Si1 Si 0.27529(3) 0.30044(6) 0.61323(3)
O1 O 0.22809(7) 0.31163(14) 0.53577(7)
C1 C 0.16486(10) 0.23538(18) 0.50601(11)
C2 C 0.10903(11) 0.3046(2) 0.45241(11)
O2 O 0.06189(8) 0.20842(15) 0.41694(9)
C3 C 0.10724(10) 0.0968(2) 0.42112(11)
C4 C 0.18749(10) 0.12338(18) 0.46664(10)
O3 O 0.24611(7) 0.16056(13) 0.43144(8)
Si2 Si 0.28559(3) 0.09829(6) 0.37194(3)
C5 C 0.33216(10) -0.05648(19) 0.39734(11)
C6 C 0.34049(12) -0.1010(2) 0.46209(13)
C7 C 0.37400(13) -0.2174(2) 0.47959(14)
C8 C 0.40042(13) -0.2900(2) 0.43265(16)
C9 C 0.39413(12) -0.2468(2) 0.36844(14)
C10 C 0.35986(11) -0.1320(2) 0.35080(13)
C11 C 0.20935(10) 0.06992(19) 0.29509(11)
C12 C 0.17521(14) 0.1650(2) 0.25346(14)
C13 C 0.11585(17) 0.1416(3) 0.19988(16)
C14 C 0.08840(14) 0.0229(3) 0.18565(15)
C15 C 0.12005(12) -0.0733(3) 0.22609(13)
C16 C 0.17941(11) -0.0500(2) 0.27999(12)
C17 C 0.36373(11) 0.2169(2) 0.36274(12)
C18 C 0.42608(13) 0.2113(3) 0.42695(14)
C19 C 0.32958(14) 0.3495(2) 0.35564(15)
C20 C 0.29827(17) 0.5551(2) 0.62102(18)
C21 C 0.40210(14) 0.1865(2) 0.30316(14)
C22 C 0.06575(10) -0.00860(19) 0.45023(11)
O4 O 0.09712(9) -0.11542(14) 0.43647(9)
C23 C 0.07317(14) -0.2296(2) 0.46593(14)
C24 C 0.1227(2) -0.2470(5) 0.5320(3)
C25 C 0.0765(4) -0.3287(3) 0.4166(3)
O5 O 0.01441(10) 0.00282(16) 0.48086(11)
C26 C 0.34696(12) 0.4345(2) 0.62344(13)
C27 C 0.39454(14) 0.4398(2) 0.56774(14)
C28 C 0.40334(15) 0.4268(3) 0.69109(14)
C29 C 0.20439(11) 0.31981(19) 0.67144(11)
C30 C 0.22535(12) 0.2833(2) 0.73774(12)
C31 C 0.17757(14) 0.3079(2) 0.78365(13)
C32 C 0.10643(14) 0.3670(2) 0.76361(15)
C33 C 0.08355(14) 0.4029(2) 0.69816(15)
C34 C 0.13198(13) 0.3803(2) 0.65244(14)
C35 C 0.32126(11) 0.1427(2) 0.62873(11)
C36 C 0.39989(12) 0.1172(2) 0.62551(13)
C37 C 0.43137(13) -0.0014(2) 0.63734(13)
C38 C 0.38510(14) -0.0979(2) 0.65155(12)
C39 C 0.30716(13) -0.0770(2) 0.65378(11)
C40 C 0.27602(12) 0.0428(2) 0.64295(11)
H1 H 0.1376 0.2056 0.5394
H2 H 0.1397 0.3480 0.4233
H3 H 0.0772 0.3644 0.4692
H4 H 0.1140 0.0722 0.3764
H5 H 0.2038 0.0506 0.4953
H6 H 0.3233 -0.0524 0.4946
H7 H 0.3788 -0.2470 0.5242
H8 H 0.4235 -0.3674 0.4446
H9 H 0.4138 -0.2959 0.3365
H10 H 0.3546 -0.1055 0.3062
H11 H 0.1932 0.2471 0.2614
H12 H 0.0953 0.2078 0.1737
H13 H 0.0486 0.0078 0.1491
H14 H 0.0998 -0.1562 0.2170
H15 H 0.2018 -0.1190 0.3079
H16 H 0.4668 0.2728 0.4252
H17 H 0.4509 0.1318 0.4315
H18 H 0.4015 0.2263 0.4648
H19 H 0.3711 0.4093 0.3573
H20 H 0.2942 0.3572 0.3128
H21 H 0.3004 0.3650 0.3918
H22 H 0.0173 -0.2170 0.4720
H23 H 0.1030 -0.3142 0.5558
H24 H 0.1743 -0.2726 0.5226
H25 H 0.1277 -0.1714 0.5573
H26 H 0.0446 -0.3984 0.4247
H27 H 0.0602 -0.2953 0.3730
H28 H 0.1307 -0.3525 0.4223
H29 H 0.4273 0.5142 0.5714
H30 H 0.3594 0.4434 0.5249
H31 H 0.4280 0.3667 0.5689
H32 H 0.4376 0.4988 0.6959
H33 H 0.4372 0.3521 0.6953
H34 H 0.3727 0.4290 0.7274
H35 H 0.2740 0.2420 0.7510
H36 H 0.1945 0.2836 0.8290
H37 H 0.0710 0.3800 0.7938
H38 H 0.0352 0.4432 0.6844
H39 H 0.1158 0.4078 0.6075
H40 H 0.4336 0.1828 0.6146
H41 H 0.4839 -0.0177 0.6323
H42 H 0.4055 -0.1784 0.6598
H43 H 0.2759 -0.1458 0.6626
H44 H 0.2235 0.0561 0.6482
H45 H 0.3341 0.6245 0.6241
H46 H 0.2621 0.5606 0.5790
H47 H 0.2694 0.5575 0.6573
H48 H 0.4459 0.2468 0.2991
H49 H 0.3638 0.1872 0.2623
H50 H 0.4250 0.1035 0.3083
Si3 Si 0.72364(3) 0.30675(6) 1.12684(3)
O6 O 0.75835(7) 0.24766(14) 1.06464(8)
C41 C 0.82073(11) 0.26353(19) 1.03004(12)
C42 C 0.90180(11) 0.2759(2) 1.07447(12)
O7 O 0.92895(9) 0.15133(16) 1.09127(10)
C43 C 0.87482(11) 0.06489(19) 1.05594(11)
C44 C 0.83186(10) 0.13924(18) 0.99583(10)
O8 O 0.76326(7) 0.07700(13) 0.96519(7)
Si4 Si 0.71442(3) 0.09575(6) 0.88852(3)
C45 C 0.66986(11) 0.25538(19) 0.87472(11)
C46 C 0.59149(12) 0.2803(2) 0.87726(12)
C47 C 0.56001(13) 0.3987(2) 0.86442(13)
C48 C 0.60653(14) 0.4952(2) 0.84966(12)
C49 C 0.68474(14) 0.4740(2) 0.84830(12)
C50 C 0.71607(12) 0.3554(2) 0.86050(12)
C51 C 0.78341(10) 0.07544(18) 0.82865(11)
C52 C 0.85308(12) 0.0067(2) 0.84432(13)
C53 C 0.90013(13) -0.0147(2) 0.79708(15)
C54 C 0.87767(14) 0.0310(2) 0.73354(14)
C55 C 0.80865(14) 0.0981(2) 0.71612(13)
C56 C 0.76297(12) 0.1211(2) 0.76376(12)
C57 C 0.64055(12) -0.0354(2) 0.87710(12)
C58 C 0.59349(14) -0.0406(2) 0.93337(14)
C59 C 0.68739(15) -0.1577(2) 0.87864(16)
C60 C 0.58456(13) -0.0253(3) 0.81001(13)
C61 C 0.91929(10) -0.04672(19) 1.03593(10)
O9 O 0.88236(9) -0.15138(14) 1.04527(11)
C62 C 0.91735(14) -0.2698(2) 1.02870(15)
C63 C 0.9674(3) -0.3147(4) 1.0886(2)
C64 C 0.8509(2) -0.3547(4) 1.0019(3)
O10 O 0.97855(9) -0.04067(15) 1.01401(10)
C65 C 0.64550(11) 0.18924(19) 1.13738(12)
C66 C 0.58200(13) 0.1943(2) 1.07413(15)
C67 C 0.60892(14) 0.2200(2) 1.19755(14)
C68 C 0.67821(13) 0.0551(2) 1.14394(15)
C69 C 0.80372(10) 0.33135(19) 1.20143(11)
C70 C 0.83211(12) 0.4511(2) 1.21847(12)
C71 C 0.89514(12) 0.4715(2) 1.27029(13)
C72 C 0.93142(14) 0.3739(3) 1.30614(14)
C73 C 0.90507(16) 0.2544(3) 1.29044(16)
C74 C 0.84217(14) 0.2334(2) 1.23836(14)
C75 C 0.67599(10) 0.46124(19) 1.10335(11)
C76 C 0.64981(11) 0.5375(2) 1.15032(12)
C77 C 0.61324(11) 0.6509(2) 1.13260(13)
C78 C 0.60239(13) 0.6909(2) 1.06750(16)
C79 C 0.62701(13) 0.6172(2) 1.02008(14)
C80 C 0.66296(12) 0.5029(2) 1.03770(12)
H51 H 0.8099 0.3330 0.9981
H52 H 0.9003 0.3225 1.1146
H53 H 0.9368 0.3186 1.0504
H54 H 0.8380 0.0319 1.0828
H55 H 0.8700 0.1499 0.9647
H56 H 0.5578 0.2129 0.8884
H57 H 0.5055 0.4116 0.8656
H58 H 0.5852 0.5746 0.8413
H59 H 0.7181 0.5375 0.8382
H60 H 0.7695 0.3425 0.8590
H61 H 0.8684 -0.0266 0.8870
H62 H 0.9472 -0.0615 0.8081
H63 H 0.9091 0.0150 0.7022
H64 H 0.7933 0.1303 0.6730
H65 H 0.7173 0.1693 0.7523
H66 H 0.5613 -0.1158 0.9258
H67 H 0.6271 -0.0484 0.9771
H68 H 0.5590 0.0293 0.9327
H69 H 0.6503 -0.2273 0.8742
H70 H 0.7251 -0.1668 0.9209
H71 H 0.7162 -0.1589 0.8413
H72 H 0.5511 -0.0992 0.8046
H73 H 0.5508 0.0490 0.8086
H74 H 0.6140 -0.0220 0.7725
H75 H 0.9427 -0.2555 0.9917
H76 H 1.0073 -0.3692 1.0765
H77 H 0.9275 -0.3628 1.1093
H78 H 0.9889 -0.2487 1.1179
H79 H 0.8700 -0.4403 1.0034
H80 H 0.8063 -0.3442 1.0243
H81 H 0.8342 -0.3322 0.9556
H82 H 0.5420 0.1350 1.0755
H83 H 0.5573 0.2752 1.0679
H84 H 0.6027 0.1747 1.0344
H85 H 0.5667 0.1604 1.1991
H86 H 0.6478 0.2112 1.2378
H87 H 0.5884 0.3041 1.1940
H88 H 0.6351 -0.0039 1.1449
H89 H 0.7169 0.0447 1.1836
H90 H 0.7019 0.0374 1.1068
H91 H 0.8103 0.5183 1.1929
H92 H 0.9109 0.5541 1.2814
H93 H 0.9746 0.3889 1.3415
H94 H 0.9275 0.1871 1.3145
H95 H 0.8261 0.1523 1.2278
H96 H 0.6578 0.5132 1.1955
H97 H 0.5950 0.7015 1.1651
H98 H 0.5773 0.7684 1.0554
H99 H 0.6197 0.6445 0.9761
H100 H 0.6791 0.4522 1.0050
loop_
_geom_bond_atom_site_label_1
_geom_bond_atom_site_label_2
_geom_bond_site_symmetry_1
_geom_bond_site_symmetry_2
Si1 O1 1_555 1_555
O1 C1 1_555 1_555
C1 C2 1_555 1_555
C2 O2 1_555 1_555
O2 C3 1_555 1_555
C3 C4 1_555 1_555
C4 C1 1_555 1_555
O3 C4 1_555 1_555
Si2 O3 1_555 1_555
C5 Si2 1_555 1_555
C6 C5 1_555 1_555
C7 C6 1_555 1_555
C8 C7 1_555 1_555
C9 C8 1_555 1_555
C10 C5 1_555 1_555
C11 Si2 1_555 1_555
C12 C11 1_555 1_555
C13 C12 1_555 1_555
C14 C13 1_555 1_555
C15 C14 1_555 1_555
C16 C11 1_555 1_555
C17 Si2 1_555 1_555
C18 C17 1_555 1_555
C19 C17 1_555 1_555
C20 C26 1_555 1_555
C21 C17 1_555 1_555
C22 C3 1_555 1_555
O4 C22 1_555 1_555
C23 O4 1_555 1_555
C24 C23 1_555 1_555
C25 C23 1_555 1_555
O5 C22 1_555 1_555
C26 Si1 1_555 1_555
C27 C26 1_555 1_555
C28 C26 1_555 1_555
C29 Si1 1_555 1_555
C30 C29 1_555 1_555
C31 C30 1_555 1_555
C32 C31 1_555 1_555
C33 C32 1_555 1_555
C34 C29 1_555 1_555
C35 Si1 1_555 1_555
C36 C35 1_555 1_555
C37 C36 1_555 1_555
C38 C37 1_555 1_555
C39 C38 1_555 1_555
C40 C35 1_555 1_555
H1 C1 1_555 1_555
H2 C2 1_555 1_555
H3 C2 1_555 1_555
H4 C3 1_555 1_555
H5 C4 1_555 1_555
H6 C6 1_555 1_555
H7 C7 1_555 1_555
H8 C8 1_555 1_555
H9 C9 1_555 1_555
H10 C10 1_555 1_555
H11 C12 1_555 1_555
H12 C13 1_555 1_555
H13 C14 1_555 1_555
H14 C15 1_555 1_555
H15 C16 1_555 1_555
H16 C18 1_555 1_555
H17 C18 1_555 1_555
H18 C18 1_555 1_555
H19 C19 1_555 1_555
H20 C19 1_555 1_555
H21 C19 1_555 1_555
H22 C23 1_555 1_555
H23 C24 1_555 1_555
H24 C24 1_555 1_555
H25 C24 1_555 1_555
H26 C25 1_555 1_555
H27 C25 1_555 1_555
H28 C25 1_555 1_555
H29 C27 1_555 1_555
H30 C27 1_555 1_555
H31 C27 1_555 1_555
H32 C28 1_555 1_555
H33 C28 1_555 1_555
H34 C28 1_555 1_555
H35 C30 1_555 1_555
H36 C31 1_555 1_555
H37 C32 1_555 1_555
H38 C33 1_555 1_555
H39 C34 1_555 1_555
H40 C36 1_555 1_555
H41 C37 1_555 1_555
H42 C38 1_555 1_555
H43 C39 1_555 1_555
H44 C40 1_555 1_555
H45 C20 1_555 1_555
H46 C20 1_555 1_555
H47 C20 1_555 1_555
H48 C21 1_555 1_555
H49 C21 1_555 1_555
H50 C21 1_555 1_555
Si3 O6 1_555 1_555
O6 C41 1_555 1_555
C41 C42 1_555 1_555
C42 O7 1_555 1_555
O7 C43 1_555 1_555
C43 C44 1_555 1_555
C44 C41 1_555 1_555
O8 C44 1_555 1_555
Si4 O8 1_555 1_555
C45 Si4 1_555 1_555
C46 C45 1_555 1_555
C47 C46 1_555 1_555
C48 C47 1_555 1_555
C49 C48 1_555 1_555
C50 C45 1_555 1_555
C51 Si4 1_555 1_555
C52 C51 1_555 1_555
C53 C52 1_555 1_555
C54 C53 1_555 1_555
C55 C54 1_555 1_555
C56 C51 1_555 1_555
C57 Si4 1_555 1_555
C58 C57 1_555 1_555
C59 C57 1_555 1_555
C60 C57 1_555 1_555
C61 C43 1_555 1_555
O9 C61 1_555 1_555
C62 O9 1_555 1_555
C63 C62 1_555 1_555
C64 C62 1_555 1_555
O10 C61 1_555 1_555
C65 Si3 1_555 1_555
C66 C65 1_555 1_555
C67 C65 1_555 1_555
C68 C65 1_555 1_555
C69 Si3 1_555 1_555
C70 C69 1_555 1_555
C71 C70 1_555 1_555
C72 C71 1_555 1_555
C73 C72 1_555 1_555
C74 C69 1_555 1_555
C75 Si3 1_555 1_555
C76 C75 1_555 1_555
C77 C76 1_555 1_555
C78 C77 1_555 1_555
C79 C78 1_555 1_555
C80 C75 1_555 1_555
H51 C41 1_555 1_555
H52 C42 1_555 1_555
H53 C42 1_555 1_555
H54 C43 1_555 1_555
H55 C44 1_555 1_555
H56 C46 1_555 1_555
H57 C47 1_555 1_555
H58 C48 1_555 1_555
H59 C49 1_555 1_555
H60 C50 1_555 1_555
H61 C52 1_555 1_555
H62 C53 1_555 1_555
H63 C54 1_555 1_555
H64 C55 1_555 1_555
H65 C56 1_555 1_555
H66 C58 1_555 1_555
H67 C58 1_555 1_555
H68 C58 1_555 1_555
H69 C59 1_555 1_555
H70 C59 1_555 1_555
H71 C59 1_555 1_555
H72 C60 1_555 1_555
H73 C60 1_555 1_555
H74 C60 1_555 1_555
H75 C62 1_555 1_555
H76 C63 1_555 1_555
H77 C63 1_555 1_555
H78 C63 1_555 1_555
H79 C64 1_555 1_555
H80 C64 1_555 1_555
H81 C64 1_555 1_555
H82 C66 1_555 1_555
H83 C66 1_555 1_555
H84 C66 1_555 1_555
H85 C67 1_555 1_555
H86 C67 1_555 1_555
H87 C67 1_555 1_555
H88 C68 1_555 1_555
H89 C68 1_555 1_555
H90 C68 1_555 1_555
H91 C70 1_555 1_555
H92 C71 1_555 1_555
H93 C72 1_555 1_555
H94 C73 1_555 1_555
H95 C74 1_555 1_555
H96 C76 1_555 1_555
H97 C77 1_555 1_555
H98 C78 1_555 1_555
H99 C79 1_555 1_555
H100 C80 1_555 1_555
C9 C10 1_555 1_555
C15 C16 1_555 1_555
C33 C34 1_555 1_555
C39 C40 1_555 1_555
C49 C50 1_555 1_555
C55 C56 1_555 1_555
C73 C74 1_555 1_555
C79 C80 1_555 1_555

#END
