
#######################################################################
#
#                 Cambridge Crystallographic Data Centre
#                                CCDC 
#
#######################################################################
#
# If this CIF has been generated from an entry in the Cambridge 
# Structural Database, then it will include bibliographic, chemical, 
# crystal, experimental, refinement or atomic coordinate data resulting 
# from the CCDC's data processing and validation procedures.
#
#######################################################################

data_TAQTAI
_chemical_formula_moiety         'C32 H26 O3 S1'
_chemical_name_systematic        
'2-(5-Phenyl-11H-benzo[b]fluoren-11-yl)ethyl 4-methylbenzenesulfonate'
_symmetry_cell_setting           triclinic
_symmetry_space_group_name_H-M   'P -1'
_symmetry_Int_Tables_number      2
_space_group_name_Hall           '-P 1'
loop_
_symmetry_equiv_pos_site_id
_symmetry_equiv_pos_as_xyz
1 x,y,z
2 -x,-y,-z
_cell_length_a                   7.3720(7)
_cell_length_b                   13.1046(14)
_cell_length_c                   13.6194(14)
_cell_angle_alpha                87.929(2)
_cell_angle_beta                 84.678(2)
_cell_angle_gamma                75.454(2)
_cell_volume                     1267.95
_exptl_crystal_colour            colorless
_cell_formula_units_Z            2
loop_
_atom_site_label
_atom_site_type_symbol
_atom_site_fract_x
_atom_site_fract_y
_atom_site_fract_z
S1 S 0.28174(9) 0.27443(6) -0.01935(5)
O1 O 0.4593(2) 0.20733(15) 0.03165(14)
O2 O 0.1386(3) 0.21825(17) -0.00868(17)
O3 O 0.3575(3) 0.29941(19) -0.11442(15)
C1 C 0.7825(3) 0.12931(19) 0.14707(18)
H1 H 0.8070 0.1583 0.0813
C2 C 0.7657(3) 0.21348(19) 0.22316(17)
C3 C 0.6490(3) 0.3122(2) 0.22925(19)
H2 H 0.5576 0.3336 0.1849
C4 C 0.6657(3) 0.3825(2) 0.3024(2)
C5 C 0.5572(4) 0.4882(2) 0.3055(3)
H3 H 0.4680 0.5116 0.2604
C6 C 0.5816(4) 0.5564(3) 0.3737(3)
H4 H 0.5102 0.6259 0.3742
C7 C 0.7122(4) 0.5226(3) 0.4422(3)
H5 H 0.7266 0.5698 0.4885
C8 C 0.8203(4) 0.4214(2) 0.4431(2)
H6 H 0.9056 0.4002 0.4905
C9 C 0.8034(3) 0.3481(2) 0.37192(19)
C10 C 0.9255(3) 0.24477(19) 0.36481(18)
C11 C 0.9078(3) 0.18014(18) 0.29085(17)
C12 C 1.0260(3) 0.07623(18) 0.25846(17)
C13 C 1.1868(3) 0.0099(2) 0.2935(2)
H7 H 1.2332 0.0266 0.3505
C14 C 1.2765(4) -0.0810(2) 0.2426(2)
H8 H 1.3857 -0.1243 0.2647
C15 C 1.2063(4) -0.1084(2) 0.1594(2)
H9 H 1.2686 -0.1698 0.1261
C16 C 1.0448(4) -0.0452(2) 0.12549(19)
H10 H 0.9956 -0.0648 0.0707
C17 C 0.9562(3) 0.04762(19) 0.17353(18)
C18 C 0.6144(3) 0.0794(2) 0.1470(2)
H11 H 0.6459 0.0235 0.0988
H12 H 0.5965 0.0471 0.2113
C19 C 0.4305(4) 0.1540(2) 0.1245(2)
H13 H 0.3356 0.1152 0.1203
H14 H 0.3874 0.2052 0.1767
C20 C 0.2091(3) 0.3885(2) 0.0514(2)
C21 C 0.0942(4) 0.3895(2) 0.1379(2)
H15 H 0.0493 0.3308 0.1566
C22 C 0.0466(4) 0.4774(2) 0.1959(2)
H16 H -0.0293 0.4769 0.2543
C23 C 0.1086(4) 0.5664(2) 0.1699(2)
C24 C 0.2187(4) 0.5655(2) 0.0824(3)
H17 H 0.2598 0.6252 0.0629
C25 C 0.2693(4) 0.4783(2) 0.0230(2)
H18 H 0.3435 0.4796 -0.0359
C26 C 0.0556(5) 0.6604(3) 0.2371(3)
H19 H 0.0070 0.7231 0.1995
H20 H 0.1649 0.6673 0.2670
H21 H -0.0386 0.6507 0.2876
C27 C 1.0796(3) 0.2103(2) 0.43273(18)
C28 C 1.2527(3) 0.2324(2) 0.4092(2)
H22 H 1.2707 0.2730 0.3534
C29 C 1.3986(4) 0.1945(3) 0.4678(3)
H23 H 1.5150 0.2089 0.4513
C30 C 1.3714(6) 0.1354(4) 0.5508(3)
H24 H 1.4699 0.1088 0.5900
C31 C 1.1999(7) 0.1158(4) 0.5753(3)
H25 H 1.1809 0.0778 0.6327
C32 C 1.0544(5) 0.1513(3) 0.5163(2)
H26 H 0.9392 0.1355 0.5329
loop_
_geom_bond_atom_site_label_1
_geom_bond_atom_site_label_2
_geom_bond_site_symmetry_1
_geom_bond_site_symmetry_2
S1 O1 1_555 1_555
O1 C19 1_555 1_555
O2 S1 1_555 1_555
O3 S1 1_555 1_555
C1 H1 1_555 1_555
C2 C1 1_555 1_555
C3 C2 1_555 1_555
H2 C3 1_555 1_555
C4 C3 1_555 1_555
C5 C4 1_555 1_555
H3 C5 1_555 1_555
C6 C5 1_555 1_555
H4 C6 1_555 1_555
C7 C6 1_555 1_555
H5 C7 1_555 1_555
C8 C7 1_555 1_555
H6 C8 1_555 1_555
C9 C4 1_555 1_555
C10 C9 1_555 1_555
C11 C2 1_555 1_555
C12 C11 1_555 1_555
C13 C12 1_555 1_555
H7 C13 1_555 1_555
C14 C13 1_555 1_555
H8 C14 1_555 1_555
C15 C14 1_555 1_555
H9 C15 1_555 1_555
C16 C15 1_555 1_555
H10 C16 1_555 1_555
C17 C1 1_555 1_555
C18 C1 1_555 1_555
H11 C18 1_555 1_555
H12 C18 1_555 1_555
C19 C18 1_555 1_555
H13 C19 1_555 1_555
H14 C19 1_555 1_555
C20 S1 1_555 1_555
C21 C20 1_555 1_555
H15 C21 1_555 1_555
C22 C21 1_555 1_555
H16 C22 1_555 1_555
C23 C22 1_555 1_555
C24 C23 1_555 1_555
H17 C24 1_555 1_555
C25 C20 1_555 1_555
H18 C25 1_555 1_555
C26 C23 1_555 1_555
H19 C26 1_555 1_555
H20 C26 1_555 1_555
H21 C26 1_555 1_555
C27 C10 1_555 1_555
C28 C27 1_555 1_555
H22 C28 1_555 1_555
C29 C28 1_555 1_555
H23 C29 1_555 1_555
C30 C29 1_555 1_555
H24 C30 1_555 1_555
C31 C30 1_555 1_555
H25 C31 1_555 1_555
C32 C27 1_555 1_555
H26 C32 1_555 1_555
C8 C9 1_555 1_555
C10 C11 1_555 1_555
C12 C17 1_555 1_555
C16 C17 1_555 1_555
C24 C25 1_555 1_555
C31 C32 1_555 1_555

#END
