
#######################################################################
#
#                 Cambridge Crystallographic Data Centre
#                                CCDC 
#
#######################################################################
#
# If this CIF has been generated from an entry in the Cambridge 
# Structural Database, then it will include bibliographic, chemical, 
# crystal, experimental, refinement or atomic coordinate data resulting 
# from the CCDC's data processing and validation procedures.
#
#######################################################################

data_TAQTEM
_chemical_formula_moiety         'C16 H20 O1'
_chemical_name_systematic        4-Cyclohexyl-1-phenylbuta-2,3-dien-1-ol
_symmetry_cell_setting           monoclinic
_symmetry_space_group_name_H-M   'P 21'
_symmetry_Int_Tables_number      4
_space_group_name_Hall           'P 2yb'
loop_
_symmetry_equiv_pos_site_id
_symmetry_equiv_pos_as_xyz
1 x,y,z
2 -x,1/2+y,-z
_cell_length_a                   11.7903(3)
_cell_length_b                   4.71280(10)
_cell_length_c                   12.0475(3)
_cell_angle_alpha                90
_cell_angle_beta                 93.5840(10)
_cell_angle_gamma                90
_cell_volume                     668.114
_exptl_crystal_colour            colorless
_exptl_crystal_description       block
_cell_formula_units_Z            2
loop_
_atom_site_label
_atom_site_type_symbol
_atom_site_fract_x
_atom_site_fract_y
_atom_site_fract_z
O1 O 0.01506(6) 0.52344(17) 0.94487(6)
H1 H 0.0044 0.6721 0.9812
C1 C 0.18275(10) 0.4266(3) 0.69854(9)
H2 H 0.2430 0.5585 0.7121
C2 C 0.17451(10) 0.2757(3) 0.59993(9)
H3 H 0.2286 0.3058 0.5459
C3 C 0.08765(10) 0.0807(3) 0.57949(9)
H4 H 0.0824 -0.0239 0.5120
C4 C 0.00876(10) 0.0397(3) 0.65811(9)
H5 H -0.0509 -0.0936 0.6445
C5 C 0.01631(9) 0.1924(3) 0.75681(9)
H6 H -0.0385 0.1637 0.8102
C6 C 0.10358(9) 0.3869(2) 0.77797(8)
C7 C 0.11634(9) 0.5533(2) 0.88568(8)
H7 H 0.1269 0.7584 0.8677
C8 C 0.21912(10) 0.4515(2) 0.95674(9)
H8 H 0.2224(11) 0.249(4) 0.9713(11)
C9 C 0.30057(9) 0.6181(2) 0.99550(8)
C10 C 0.38170(9) 0.7857(3) 1.03535(9)
H9 H 0.4479(11) 0.828(3) 0.9889(11)
C11 C 0.38577(9) 0.9214(3) 1.14954(9)
H10 H 0.3933 1.1311 1.1397
C12 C 0.27863(9) 0.8669(3) 1.21020(9)
H11 H 0.2652 0.6598 1.2138
H12 H 0.2129 0.9533 1.1676
C13 C 0.28632(11) 0.9881(3) 1.32834(10)
H13 H 0.2895 1.1978 1.3247
H14 H 0.2174 0.9346 1.3663
C14 C 0.39155(11) 0.8777(3) 1.39542(9)
H15 H 0.3969 0.9690 1.4696
H16 H 0.3844 0.6704 1.4063
C15 C 0.49850(10) 0.9399(3) 1.33607(10)
H17 H 0.5649 0.8582 1.3792
H18 H 0.5096 1.1478 1.3320
C16 C 0.49173(10) 0.8161(3) 1.21844(10)
H19 H 0.4897 0.6064 1.2229
H20 H 0.5606 0.8708 1.1806
loop_
_geom_bond_atom_site_label_1
_geom_bond_atom_site_label_2
_geom_bond_site_symmetry_1
_geom_bond_site_symmetry_2
O1 H1 1_555 1_555
C1 H2 1_555 1_555
C2 C1 1_555 1_555
H3 C2 1_555 1_555
C3 C2 1_555 1_555
H4 C3 1_555 1_555
C4 C3 1_555 1_555
H5 C4 1_555 1_555
C5 C4 1_555 1_555
H6 C5 1_555 1_555
C6 C1 1_555 1_555
C7 O1 1_555 1_555
H7 C7 1_555 1_555
C8 C7 1_555 1_555
H8 C8 1_555 1_555
C9 C8 1_555 1_555
C10 C9 1_555 1_555
H9 C10 1_555 1_555
C11 C10 1_555 1_555
H10 C11 1_555 1_555
C12 C11 1_555 1_555
H11 C12 1_555 1_555
H12 C12 1_555 1_555
C13 C12 1_555 1_555
H13 C13 1_555 1_555
H14 C13 1_555 1_555
C14 C13 1_555 1_555
H15 C14 1_555 1_555
H16 C14 1_555 1_555
C15 C14 1_555 1_555
H17 C15 1_555 1_555
H18 C15 1_555 1_555
C16 C11 1_555 1_555
H19 C16 1_555 1_555
H20 C16 1_555 1_555
C5 C6 1_555 1_555
C6 C7 1_555 1_555
C15 C16 1_555 1_555

#END
