
#######################################################################
#
#                 Cambridge Crystallographic Data Centre
#                                CCDC 
#
#######################################################################
#
# If this CIF has been generated from an entry in the Cambridge 
# Structural Database, then it will include bibliographic, chemical, 
# crystal, experimental, refinement or atomic coordinate data resulting 
# from the CCDC's data processing and validation procedures.
#
#######################################################################

data_TAQXAL
_chemical_formula_moiety         'C6 H6 N2 O4'
_chemical_name_systematic        1-(Carboxymethyl)uracil
_symmetry_cell_setting           monoclinic
_symmetry_space_group_name_H-M   'P c'
_symmetry_Int_Tables_number      7
_space_group_name_Hall           'P -2yc'
loop_
_symmetry_equiv_pos_site_id
_symmetry_equiv_pos_as_xyz
1 x,y,z
2 x,-y,1/2+z
_cell_length_a                   5.0999(8)
_cell_length_b                   4.6273(8)
_cell_length_c                   15.0106(19)
_cell_angle_alpha                90
_cell_angle_beta                 107.093(5)
_cell_angle_gamma                90
_cell_volume                     338.585
_exptl_crystal_colour            colorless
_exptl_crystal_description       Rod
_cell_formula_units_Z            2
_exptl_crystal_recrystallization_method 'anhydrous ethanol'
loop_
_atom_site_label
_atom_site_type_symbol
_atom_site_fract_x
_atom_site_fract_y
_atom_site_fract_z
O1 O 0.9156(10) 0.3732(10) 0.5139(3)
O2 O 0.4403(10) 0.9587(11) 0.2833(3)
O3 O 0.9652(10) 0.5312(11) 0.7798(3)
O4 O 0.9946(9) 0.8467(10) 0.6727(3)
N1 N 0.5691(10) 0.6351(11) 0.5402(3)
N2 N 0.6688(11) 0.6708(13) 0.3997(4)
C1 C 0.7309(12) 0.5479(13) 0.4864(4)
C2 C 0.4686(13) 0.8753(13) 0.3631(5)
C3 C 0.3159(13) 0.9613(16) 0.4239(5)
H1 H 0.1790 1.1003 0.4051
C4 C 0.3702(12) 0.8410(14) 0.5085(5)
H2 H 0.2685 0.8998 0.5476
C5 C 0.6290(14) 0.5115(14) 0.6334(4)
H3 H 0.6522 0.3044 0.6290
H4 H 0.4720 0.5430 0.6562
C6 C 0.8787(12) 0.6316(13) 0.7031(4)
H5 H 0.741(14) 0.593(14) 0.362(4)
H6 H 1.139(9) 0.873(15) 0.715(4)
loop_
_geom_bond_atom_site_label_1
_geom_bond_atom_site_label_2
_geom_bond_site_symmetry_1
_geom_bond_site_symmetry_2
O1 C1 1_555 1_555
O2 C2 1_555 1_555
O3 C6 1_555 1_555
O4 C6 1_555 1_555
N1 C1 1_555 1_555
N2 C1 1_555 1_555
C2 N2 1_555 1_555
C3 C2 1_555 1_555
H1 C3 1_555 1_555
C4 N1 1_555 1_555
H2 C4 1_555 1_555
C5 N1 1_555 1_555
H3 C5 1_555 1_555
H4 C5 1_555 1_555
C6 C5 1_555 1_555
H5 N2 1_555 1_555
H6 O4 1_555 1_555
C3 C4 1_555 1_555

#END
