
#######################################################################
#
#                 Cambridge Crystallographic Data Centre
#                                CCDC 
#
#######################################################################
#
# If this CIF has been generated from an entry in the Cambridge 
# Structural Database, then it will include bibliographic, chemical, 
# crystal, experimental, refinement or atomic coordinate data resulting 
# from the CCDC's data processing and validation procedures.
#
#######################################################################

data_TARCEW
_chemical_formula_moiety         'C15 H17 N1 O2 S1'
_chemical_name_systematic        
1-((4-Methylphenyl)sulfonyl)-3-(prop-2-en-1-ylidene)-1,2,3,6-tetrahydropyridine
_symmetry_cell_setting           orthorhombic
_symmetry_space_group_name_H-M   'P 21 21 21'
_symmetry_Int_Tables_number      19
_space_group_name_Hall           'P 2ac 2ab'
loop_
_symmetry_equiv_pos_site_id
_symmetry_equiv_pos_as_xyz
1 x,y,z
2 1/2-x,-y,1/2+z
3 1/2+x,1/2-y,-z
4 -x,1/2+y,1/2-z
_cell_length_a                   8.0592(2)
_cell_length_b                   10.6389(4)
_cell_length_c                   16.7180(7)
_cell_angle_alpha                90
_cell_angle_beta                 90
_cell_angle_gamma                90
_cell_volume                     1433.42
_exptl_crystal_colour            colorless
_exptl_crystal_description       prism
_cell_formula_units_Z            4
loop_
_atom_site_label
_atom_site_type_symbol
_atom_site_fract_x
_atom_site_fract_y
_atom_site_fract_z
O1 O 1.04856(15) 0.47624(15) 0.72056(9)
O2 O 0.86074(19) 0.32968(13) 0.79103(10)
S1 S 0.91165(5) 0.45544(4) 0.77298(3)
N1 N 0.75054(17) 0.52573(14) 0.73275(10)
C1 C 0.9513(2) 0.53260(18) 0.86423(11)
C2 C 0.5893(2) 0.49711(19) 0.77002(13)
H1 H 0.5894 0.5255 0.8252
H2 H 0.5710 0.4070 0.7698
C3 C 0.7721(2) 0.66002(19) 0.71295(12)
H3 H 0.8810 0.6733 0.6898
H4 H 0.7643 0.7100 0.7613
C4 C 1.0440(3) 0.6431(2) 0.86423(13)
H5 H 1.0888 0.6742 0.8169
C5 C 1.0684(3) 0.7053(2) 0.93549(14)
H6 H 1.1301 0.7792 0.9358
C6 C 0.4534(2) 0.5610(2) 0.72515(15)
H7 H 0.3447 0.5367 0.7357
C7 C 0.4779(2) 0.6503(2) 0.67116(14)
H8 H 0.3875 0.6815 0.6429
C8 C 0.9119(3) 0.5510(2) 1.00538(13)
H9 H 0.8676 0.5200 1.0528
C9 C 0.6411(2) 0.70083(19) 0.65480(12)
C10 C 0.8851(3) 0.48643(19) 0.93470(12)
H10 H 0.8232 0.4127 0.9346
C11 C 0.6783(3) 0.7837(2) 0.59617(13)
H11 H 0.7878 0.8109 0.5937
C12 C 1.0364(5) 0.7287(3) 1.08437(18)
H12 H 1.1005 0.8030 1.0740
H13 H 1.0967 0.6745 1.1198
H14 H 0.9328 0.7518 1.1086
C13 C 1.0034(3) 0.6608(2) 1.00662(13)
C14 C 0.5668(4) 0.8343(3) 0.53729(15)
H15 H 0.4582 0.8049 0.5368
C15 C 0.6088(5) 0.9196(3) 0.48414(18)
H16 H 0.7165 0.9509 0.4831
H17 H 0.5308 0.9486 0.4475
loop_
_geom_bond_atom_site_label_1
_geom_bond_atom_site_label_2
_geom_bond_site_symmetry_1
_geom_bond_site_symmetry_2
O1 S1 1_555 1_555
O2 S1 1_555 1_555
S1 N1 1_555 1_555
N1 C2 1_555 1_555
C1 S1 1_555 1_555
C2 H1 1_555 1_555
H2 C2 1_555 1_555
C3 N1 1_555 1_555
H3 C3 1_555 1_555
H4 C3 1_555 1_555
C4 C1 1_555 1_555
H5 C4 1_555 1_555
C5 C4 1_555 1_555
H6 C5 1_555 1_555
C6 C2 1_555 1_555
H7 C6 1_555 1_555
C7 C6 1_555 1_555
H8 C7 1_555 1_555
C8 H9 1_555 1_555
C9 C3 1_555 1_555
C10 C1 1_555 1_555
H10 C10 1_555 1_555
C11 C9 1_555 1_555
H11 C11 1_555 1_555
C12 H12 1_555 1_555
H13 C12 1_555 1_555
H14 C12 1_555 1_555
C13 C5 1_555 1_555
C14 C11 1_555 1_555
H15 C14 1_555 1_555
C15 C14 1_555 1_555
H16 C15 1_555 1_555
H17 C15 1_555 1_555
C7 C9 1_555 1_555
C8 C10 1_555 1_555
C8 C13 1_555 1_555
C12 C13 1_555 1_555

#END
