
#######################################################################
#
#                 Cambridge Crystallographic Data Centre
#                                CCDC 
#
#######################################################################
#
# If this CIF has been generated from an entry in the Cambridge 
# Structural Database, then it will include bibliographic, chemical, 
# crystal, experimental, refinement or atomic coordinate data resulting 
# from the CCDC's data processing and validation procedures.
#
#######################################################################

data_TARGEB
_chemical_formula_moiety         'C15 H22 O1'
_chemical_name_systematic        
2,2,7,7-tetramethyltricyclo[6.2.1.0^1,6^]undec-5-en-4-one
_symmetry_cell_setting           monoclinic
_symmetry_space_group_name_H-M   'C c'
_symmetry_Int_Tables_number      9
_space_group_name_Hall           'C -2yc'
loop_
_symmetry_equiv_pos_site_id
_symmetry_equiv_pos_as_xyz
1 x,y,z
2 x,-y,1/2+z
3 1/2+x,1/2+y,z
4 1/2+x,1/2-y,1/2+z
_cell_length_a                   15.953(11)
_cell_length_b                   10.223(9)
_cell_length_c                   8.005(8)
_cell_angle_alpha                90
_cell_angle_beta                 95.648(13)
_cell_angle_gamma                90
_cell_volume                     1299.18
_cell_formula_units_Z            4
loop_
_atom_site_label
_atom_site_type_symbol
_atom_site_fract_x
_atom_site_fract_y
_atom_site_fract_z
C1 C 0.40032(19) 0.6175(3) 0.6731(4)
H1 H 0.4425 0.5976 0.5975
H2 H 0.3967 0.5450 0.7502
C2 C 0.5760(2) 0.7337(5) 0.7141(6)
H3 H 0.6322 0.7570 0.7582
H4 H 0.5612 0.7806 0.6116
H5 H 0.5734 0.6413 0.6924
C3 C 0.38496(19) 0.7308(3) 1.0684(4)
H6 H 0.3446 0.7356 1.1444
C4 C 0.4722(2) 0.7024(4) 1.1291(4)
C5 C 0.53097(19) 0.6799(4) 0.9972(4)
H7 H 0.5263 0.5893 0.9612
H8 H 0.5883 0.6939 1.0465
C6 C 0.51449(18) 0.7688(3) 0.8416(4)
C7 C 0.42173(18) 0.7478(3) 0.7703(3)
C8 C 0.36220(17) 0.7499(3) 0.9065(3)
C9 C 0.3784(2) 0.8461(3) 0.6439(4)
H9 H 0.3779 0.9344 0.6883
H10 H 0.4024 0.8457 0.5372
C10 C 0.2913(2) 0.7799(3) 0.6344(4)
H11 H 0.2478 0.8247 0.5606
C11 C 0.27387(17) 0.7765(3) 0.8212(4)
C12 C 0.3136(2) 0.6452(4) 0.5741(4)
H12 H 0.3178 0.6448 0.4540
H13 H 0.2720 0.5810 0.6003
C13 C 0.5289(2) 0.9111(4) 0.8947(5)
H14 H 0.5840 0.9202 0.9534
H15 H 0.4872 0.9367 0.9671
H16 H 0.5245 0.9660 0.7969
C14 C 0.2405(3) 0.9090(4) 0.8774(6)
H17 H 0.2366 0.9074 0.9963
H18 H 0.1858 0.9249 0.8199
H19 H 0.2783 0.9773 0.8510
C15 C 0.2110(2) 0.6707(4) 0.8641(4)
H20 H 0.2321 0.5861 0.8374
H21 H 0.1578 0.6854 0.8000
H22 H 0.2039 0.6745 0.9817
O1 O 0.49557(18) 0.6922(4) 1.2785(3)
loop_
_geom_bond_atom_site_label_1
_geom_bond_atom_site_label_2
_geom_bond_site_symmetry_1
_geom_bond_site_symmetry_2
C1 H1 1_555 1_555
H2 C1 1_555 1_555
C2 H3 1_555 1_555
H4 C2 1_555 1_555
H5 C2 1_555 1_555
C3 H6 1_555 1_555
C4 C3 1_555 1_555
C5 C4 1_555 1_555
H7 C5 1_555 1_555
H8 C5 1_555 1_555
C6 C2 1_555 1_555
C7 C1 1_555 1_555
C8 C3 1_555 1_555
C9 C7 1_555 1_555
H9 C9 1_555 1_555
H10 C9 1_555 1_555
C10 C9 1_555 1_555
H11 C10 1_555 1_555
C11 C8 1_555 1_555
C12 C1 1_555 1_555
H12 C12 1_555 1_555
H13 C12 1_555 1_555
C13 C6 1_555 1_555
H14 C13 1_555 1_555
H15 C13 1_555 1_555
H16 C13 1_555 1_555
C14 C11 1_555 1_555
H17 C14 1_555 1_555
H18 C14 1_555 1_555
H19 C14 1_555 1_555
C15 C11 1_555 1_555
H20 C15 1_555 1_555
H21 C15 1_555 1_555
H22 C15 1_555 1_555
O1 C4 1_555 1_555
C5 C6 1_555 1_555
C6 C7 1_555 1_555
C7 C8 1_555 1_555
C10 C11 1_555 1_555
C10 C12 1_555 1_555

#END
