
#######################################################################
#
#                 Cambridge Crystallographic Data Centre
#                                CCDC 
#
#######################################################################
#
# If this CIF has been generated from an entry in the Cambridge 
# Structural Database, then it will include bibliographic, chemical, 
# crystal, experimental, refinement or atomic coordinate data resulting 
# from the CCDC's data processing and validation procedures.
#
#######################################################################

data_TARMIJ
_chemical_formula_moiety         'C8 H9 N3 O3'
_chemical_name_systematic        '4-Guanidino-2-hydroxybenzoic acid'
_symmetry_cell_setting           orthorhombic
_symmetry_space_group_name_H-M   'P b c a'
_symmetry_Int_Tables_number      61
_space_group_name_Hall           '-P 2ac 2ab'
loop_
_symmetry_equiv_pos_site_id
_symmetry_equiv_pos_as_xyz
1 x,y,z
2 1/2-x,-y,1/2+z
3 -x,1/2+y,1/2-z
4 1/2+x,1/2-y,-z
5 -x,-y,-z
6 1/2+x,y,1/2-z
7 x,1/2-y,1/2+z
8 1/2-x,1/2+y,z
_cell_length_a                   8.0900(16)
_cell_length_b                   12.470(3)
_cell_length_c                   16.430(3)
_cell_angle_alpha                90
_cell_angle_beta                 90
_cell_angle_gamma                90
_cell_volume                     1657.5
_exptl_crystal_colour            colorless
_exptl_crystal_description       block
_cell_formula_units_Z            8
loop_
_atom_site_label
_atom_site_type_symbol
_atom_site_fract_x
_atom_site_fract_y
_atom_site_fract_z
O1 O -0.0428(3) 0.36566(17) 0.18621(12)
H1 H -0.0425 0.3879 0.2332
O2 O 0.1516(3) 0.23817(17) 0.39574(11)
O3 O 0.0224(3) 0.37219(18) 0.33328(12)
N1 N 0.1964(3) 0.0987(2) 0.01803(13)
H2 H 0.1856 0.1447 -0.0207
N2 N 0.2050(3) -0.0844(2) 0.04255(14)
H3 H 0.2331 -0.1479 0.0273
H4 H 0.1544 -0.0754 0.0881
N3 N 0.3172(4) -0.0161(2) -0.07341(14)
H5 H 0.3449 -0.0798 -0.0883
H6 H 0.3401 0.0379 -0.1040
C1 C 0.2395(4) -0.0014(2) -0.00374(16)
C2 C 0.2218(4) 0.1407(2) 0.24065(17)
H7 H 0.2726 0.1108 0.2860
C3 C 0.2467(4) 0.0939(2) 0.16608(16)
H8 H 0.3159 0.0348 0.1609
C4 C 0.1669(4) 0.1364(2) 0.09811(16)
C5 C 0.0663(4) 0.2263(2) 0.10639(16)
H9 H 0.0110 0.2536 0.0613
C6 C 0.0483(4) 0.2752(2) 0.18169(16)
C7 C 0.1231(4) 0.2315(2) 0.25113(16)
C8 C 0.0983(4) 0.2830(2) 0.33244(17)
loop_
_geom_bond_atom_site_label_1
_geom_bond_atom_site_label_2
_geom_bond_site_symmetry_1
_geom_bond_site_symmetry_2
O1 H1 1_555 1_555
O2 C8 1_555 1_555
O3 C8 1_555 1_555
N1 H2 1_555 1_555
N2 H3 1_555 1_555
H4 N2 1_555 1_555
N3 H5 1_555 1_555
H6 N3 1_555 1_555
C1 N1 1_555 1_555
C2 H7 1_555 1_555
C3 C2 1_555 1_555
H8 C3 1_555 1_555
C4 N1 1_555 1_555
C5 C4 1_555 1_555
H9 C5 1_555 1_555
C6 O1 1_555 1_555
C7 C2 1_555 1_555
C8 C7 1_555 1_555
N2 C1 1_555 1_555
N3 C1 1_555 1_555
C3 C4 1_555 1_555
C5 C6 1_555 1_555
C6 C7 1_555 1_555

#END
