
#######################################################################
#
#                 Cambridge Crystallographic Data Centre
#                                CCDC 
#
#######################################################################
#
# If this CIF has been generated from an entry in the Cambridge 
# Structural Database, then it will include bibliographic, chemical, 
# crystal, experimental, refinement or atomic coordinate data resulting 
# from the CCDC's data processing and validation procedures.
#
#######################################################################

data_TARRIO
_chemical_formula_moiety         'C15 H14 Br1 N1 Se1'
_chemical_name_systematic        
Bromo-(o-((R)-(\a-methylbenzyl)iminomethyl)phenyl)-selenium
_symmetry_cell_setting           orthorhombic
_symmetry_space_group_name_H-M   'P 21 21 21'
_symmetry_Int_Tables_number      19
_space_group_name_Hall           'P 2ac 2ab'
loop_
_symmetry_equiv_pos_site_id
_symmetry_equiv_pos_as_xyz
1 x,y,z
2 1/2-x,-y,1/2+z
3 -x,1/2+y,1/2-z
4 1/2+x,1/2-y,-z
_cell_length_a                   11.1543(7)
_cell_length_b                   11.1669(8)
_cell_length_c                   11.5569(10)
_cell_angle_alpha                90
_cell_angle_beta                 90
_cell_angle_gamma                90
_cell_volume                     1439.52
_exptl_crystal_colour            colorless
_exptl_crystal_description       block
_cell_formula_units_Z            4
_exptl_crystal_recrystallization_method chloroform/pentane
loop_
_atom_site_label
_atom_site_type_symbol
_atom_site_fract_x
_atom_site_fract_y
_atom_site_fract_z
Se1 Se 0.82575(4) 0.34202(3) 0.13041(3)
Br1 Br 0.97833(4) 0.26249(4) 0.30400(3)
N1 N 0.7175(3) 0.3894(3) 0.0068(3)
C1 C 0.7854(3) 0.1857(3) 0.0811(3)
C2 C 0.8273(4) 0.0786(3) 0.1248(3)
H1 H 0.8826 0.0770 0.1850
C3 C 0.7846(4) -0.0256(4) 0.0769(4)
H2 H 0.8116 -0.0984 0.1060
C4 C 0.7036(4) -0.0261(4) -0.0124(4)
H3 H 0.6766 -0.0984 -0.0426
C5 C 0.6627(5) 0.0792(3) -0.0571(3)
H4 H 0.6081 0.0791 -0.1179
C6 C 0.7032(4) 0.1863(3) -0.0111(3)
C7 C 0.6697(4) 0.3029(3) -0.0482(3)
H5 H 0.6163 0.3153 -0.1089
C8 C 0.6956(5) 0.5185(3) -0.0198(3)
H6 H 0.6386 0.5221 -0.0842
C9 C 0.8120(5) 0.5751(4) -0.0604(4)
H7 H 0.8693 0.5739 0.0016
H8 H 0.7974 0.6563 -0.0835
H9 H 0.8430 0.5307 -0.1249
C10 C 0.6367(4) 0.5764(3) 0.0835(3)
C11 C 0.5270(4) 0.5376(4) 0.1200(4)
H10 H 0.4918 0.4716 0.0845
C12 C 0.4680(5) 0.5944(5) 0.2080(5)
H11 H 0.3927 0.5674 0.2308
C13 C 0.5181(6) 0.6891(4) 0.2620(4)
H12 H 0.4775 0.7272 0.3219
C14 C 0.6261(5) 0.7281(4) 0.2292(4)
H13 H 0.6608 0.7935 0.2661
C15 C 0.6855(4) 0.6714(3) 0.1412(4)
H14 H 0.7613 0.6984 0.1201
loop_
_geom_bond_atom_site_label_1
_geom_bond_atom_site_label_2
_geom_bond_site_symmetry_1
_geom_bond_site_symmetry_2
Se1 Br1 1_555 1_555
N1 Se1 1_555 1_555
C1 Se1 1_555 1_555
C2 C1 1_555 1_555
H1 C2 1_555 1_555
C3 C2 1_555 1_555
H2 C3 1_555 1_555
C4 C3 1_555 1_555
H3 C4 1_555 1_555
C5 C4 1_555 1_555
H4 C5 1_555 1_555
C6 C1 1_555 1_555
C7 N1 1_555 1_555
H5 C7 1_555 1_555
C8 N1 1_555 1_555
H6 C8 1_555 1_555
C9 C8 1_555 1_555
H7 C9 1_555 1_555
H8 C9 1_555 1_555
H9 C9 1_555 1_555
C10 C8 1_555 1_555
C11 C10 1_555 1_555
H10 C11 1_555 1_555
C12 C11 1_555 1_555
H11 C12 1_555 1_555
C13 C12 1_555 1_555
H12 C13 1_555 1_555
C14 C13 1_555 1_555
H13 C14 1_555 1_555
C15 C10 1_555 1_555
H14 C15 1_555 1_555
C5 C6 1_555 1_555
C6 C7 1_555 1_555
C14 C15 1_555 1_555

#END
