
#######################################################################
#
#                 Cambridge Crystallographic Data Centre
#                                CCDC 
#
#######################################################################
#
# If this CIF has been generated from an entry in the Cambridge 
# Structural Database, then it will include bibliographic, chemical, 
# crystal, experimental, refinement or atomic coordinate data resulting 
# from the CCDC's data processing and validation procedures.
#
#######################################################################

data_TASCOG
_chemical_formula_moiety         'C33 H44 O4'
_chemical_name_systematic        '6-Octyloxy-2-naphthyl 4-octyloxybenzoate'
_symmetry_cell_setting           monoclinic
_symmetry_space_group_name_H-M   'P 21/a'
_symmetry_Int_Tables_number      14
_space_group_name_Hall           '-P 2yab'
loop_
_symmetry_equiv_pos_site_id
_symmetry_equiv_pos_as_xyz
1 x,y,z
2 1/2-x,1/2+y,-z
3 -x,-y,-z
4 1/2+x,1/2-y,z
_cell_length_a                   19.738(2)
_cell_length_b                   8.448(2)
_cell_length_c                   20.121(3)
_cell_angle_alpha                90
_cell_angle_beta                 116.275(9)
_cell_angle_gamma                90
_cell_volume                     3008.46
_exptl_crystal_colour            colorless
_exptl_crystal_description       plate
_chemical_melting_point          '342.7 K'
_cell_formula_units_Z            4
loop_
_atom_site_label
_atom_site_type_symbol
_atom_site_fract_x
_atom_site_fract_y
_atom_site_fract_z
O1 O 0.41948(14) 0.2321(3) -0.00198(13)
O2 O 0.4332(2) 0.0739(4) 0.0927(2)
O3 O -0.01318(15) 0.0918(3) -0.2090(2)
O4 O 0.76443(14) 0.3490(3) 0.21153(13)
C1 C 0.3016(2) 0.1206(5) -0.0886(2)
H1 H 0.3272(2) 0.0605(5) -0.1090(2)
C2 C 0.3403(2) 0.2167(5) -0.0300(2)
C3 C 0.3043(2) 0.3093(5) 0.0024(2)
H2 H 0.3324(2) 0.3744(5) 0.0425(2)
C4 C 0.2279(2) 0.3033(5) -0.0252(2)
H3 H 0.2039(2) 0.3653(5) -0.0038(2)
C5 C 0.1049(2) 0.1974(5) -0.1150(2)
H4 H 0.0805(2) 0.2573(5) -0.0933(2)
C6 C 0.0632(2) 0.1039(5) -0.1746(2)
C7 C 0.1011(2) 0.0097(5) -0.2065(2)
H5 H 0.0732(2) -0.0559(5) -0.2464(2)
C8 C 0.1773(2) 0.0144(5) -0.1794(2)
H6 H 0.2008(2) -0.0479(5) -0.2011(2)
C9 C 0.2217(2) 0.1124(4) -0.1185(2)
C10 C 0.1841(2) 0.2047(4) -0.0860(2)
C11 C 0.4614(2) 0.1645(5) 0.0653(2)
C12 C 0.5406(2) 0.2132(4) 0.0991(2)
C13 C 0.5860(2) 0.1666(5) 0.1715(2)
H7 H 0.5658(2) 0.1034(5) 0.1962(2)
C14 C 0.6605(2) 0.2128(5) 0.2074(2)
H8 H 0.6904(2) 0.1807(5) 0.2559(2)
C15 C 0.6911(2) 0.3075(4) 0.1709(2)
C16 C 0.6464(2) 0.3538(5) 0.0984(2)
H9 H 0.6666(2) 0.4162(5) 0.0735(2)
C17 C 0.5720(2) 0.3071(5) 0.0635(2)
H10 H 0.5421(2) 0.3393(5) 0.0150(2)
C18 C -0.0556(2) 0.1898(6) -0.1830(2)
H11 H -0.0382(2) 0.2985(6) -0.1783(2)
H12 H -0.0491(2) 0.1537(6) -0.1348(2)
C19 C -0.1376(2) 0.1794(6) -0.2384(2)
H13 H -0.1529(2) 0.0691(6) -0.2448(2)
H14 H -0.1678(2) 0.2346(6) -0.2187(2)
C20 C -0.1539(2) 0.2485(6) -0.3131(2)
H15 H -0.1217(2) 0.1966(6) -0.3315(2)
H16 H -0.1405(2) 0.3598(6) -0.3068(2)
C21 C -0.2352(2) 0.2330(6) -0.3708(2)
H17 H -0.2499(2) 0.1226(6) -0.3743(2)
H18 H -0.2670(2) 0.2924(6) -0.3543(2)
C22 C -0.2493(3) 0.2905(7) -0.4465(3)
H19 H -0.2377(3) 0.4027(7) -0.4431(3)
H20 H -0.2142(3) 0.2370(7) -0.4607(3)
C23 C -0.3271(3) 0.2672(7) -0.5065(3)
H21 H -0.3621(3) 0.3236(7) -0.4930(3)
H22 H -0.3394(3) 0.1555(7) -0.5089(3)
C24 C -0.3397(3) 0.3207(9) -0.5822(3)
H23 H -0.3261(3) 0.4317(9) -0.5791(3)
H24 H -0.3052(3) 0.2627(9) -0.5957(3)
C25 C -0.4152(3) 0.3027(10) -0.6416(3)
H25 H -0.4163(3) 0.3408(10) -0.6870(3)
H26 H -0.4501(3) 0.3625(10) -0.6303(3)
H27 H -0.4291(3) 0.1930(10) -0.6469(3)
C26 C 0.8006(2) 0.4426(5) 0.1766(2)
H28 H 0.7738(2) 0.5416(5) 0.1588(2)
H29 H 0.8009(2) 0.3859(5) 0.1348(2)
C27 C 0.8806(2) 0.4743(5) 0.2339(2)
H30 H 0.9048(2) 0.3740(5) 0.2544(2)
H31 H 0.9082(2) 0.5229(5) 0.2096(2)
C28 C 0.8864(2) 0.5795(6) 0.2964(2)
H32 H 0.8608(2) 0.5288(6) 0.3223(2)
H33 H 0.8604(2) 0.6782(6) 0.2760(2)
C29 C 0.9670(2) 0.6155(6) 0.3514(2)
H34 H 0.9943(2) 0.5164(6) 0.3670(2)
H35 H 0.9905(2) 0.6766(6) 0.3264(2)
C30 C 0.9757(3) 0.7042(7) 0.4190(3)
H36 H 0.9490(3) 0.6468(7) 0.4419(3)
H37 H 0.9512(3) 0.8063(7) 0.4035(3)
C31 C 1.0552(3) 0.7315(7) 0.4765(3)
H38 H 1.0814(3) 0.6306(7) 0.4874(3)
H39 H 1.0801(3) 0.7994(7) 0.4551(3)
C32 C 1.0649(3) 0.8022(9) 0.5466(3)
H40 H 1.0395(3) 0.7351(9) 0.5678(3)
H41 H 1.0394(3) 0.9038(9) 0.5358(3)
C33 C 1.1445(3) 0.8272(9) 0.6042(3)
H42 H 1.1441(3) 0.8737(9) 0.6476(3)
H43 H 1.1701(3) 0.8965(9) 0.5850(3)
H44 H 1.1703(3) 0.7272(9) 0.6170(3)
loop_
_geom_bond_atom_site_label_1
_geom_bond_atom_site_label_2
_geom_bond_site_symmetry_1
_geom_bond_site_symmetry_2
O1 C2 1_555 1_555
O2 C11 1_555 1_555
O3 C6 1_555 1_555
O4 C15 1_555 1_555
C1 H1 1_555 1_555
C2 C1 1_555 1_555
C3 C2 1_555 1_555
H2 C3 1_555 1_555
C4 C3 1_555 1_555
H3 C4 1_555 1_555
C5 H4 1_555 1_555
C6 C5 1_555 1_555
C7 C6 1_555 1_555
H5 C7 1_555 1_555
C8 C7 1_555 1_555
H6 C8 1_555 1_555
C9 C1 1_555 1_555
C10 C4 1_555 1_555
C11 O1 1_555 1_555
C12 C11 1_555 1_555
C13 C12 1_555 1_555
H7 C13 1_555 1_555
C14 C13 1_555 1_555
H8 C14 1_555 1_555
C15 C14 1_555 1_555
C16 C15 1_555 1_555
H9 C16 1_555 1_555
C17 C12 1_555 1_555
H10 C17 1_555 1_555
C18 O3 1_555 1_555
H11 C18 1_555 1_555
H12 C18 1_555 1_555
C19 C18 1_555 1_555
H13 C19 1_555 1_555
H14 C19 1_555 1_555
C20 C19 1_555 1_555
H15 C20 1_555 1_555
H16 C20 1_555 1_555
C21 C20 1_555 1_555
H17 C21 1_555 1_555
H18 C21 1_555 1_555
C22 C21 1_555 1_555
H19 C22 1_555 1_555
H20 C22 1_555 1_555
C23 C22 1_555 1_555
H21 C23 1_555 1_555
H22 C23 1_555 1_555
C24 C23 1_555 1_555
H23 C24 1_555 1_555
H24 C24 1_555 1_555
C25 C24 1_555 1_555
H25 C25 1_555 1_555
H26 C25 1_555 1_555
H27 C25 1_555 1_555
C26 O4 1_555 1_555
H28 C26 1_555 1_555
H29 C26 1_555 1_555
C27 C26 1_555 1_555
H30 C27 1_555 1_555
H31 C27 1_555 1_555
C28 C27 1_555 1_555
H32 C28 1_555 1_555
H33 C28 1_555 1_555
C29 C28 1_555 1_555
H34 C29 1_555 1_555
H35 C29 1_555 1_555
C30 C29 1_555 1_555
H36 C30 1_555 1_555
H37 C30 1_555 1_555
C31 C30 1_555 1_555
H38 C31 1_555 1_555
H39 C31 1_555 1_555
C32 C31 1_555 1_555
H40 C32 1_555 1_555
H41 C32 1_555 1_555
C33 C32 1_555 1_555
H42 C33 1_555 1_555
H43 C33 1_555 1_555
H44 C33 1_555 1_555
C5 C10 1_555 1_555
C8 C9 1_555 1_555
C9 C10 1_555 1_555
C16 C17 1_555 1_555

#END
