
#######################################################################
#
#                 Cambridge Crystallographic Data Centre
#                                CCDC 
#
#######################################################################
#
# If this CIF has been generated from an entry in the Cambridge 
# Structural Database, then it will include bibliographic, chemical, 
# crystal, experimental, refinement or atomic coordinate data resulting 
# from the CCDC's data processing and validation procedures.
#
#######################################################################

data_TASFOL01
_chemical_formula_moiety         'C23 H18 N2 O3 S1'
_chemical_name_systematic        
N-(4-((4-methylphenyl)sulfonyl)naphthalen-1-yl)pyridine-2-carboxamide
_symmetry_cell_setting           triclinic
_symmetry_space_group_name_H-M   'P -1'
_symmetry_Int_Tables_number      2
_space_group_name_Hall           '-P 1'
loop_
_symmetry_equiv_pos_site_id
_symmetry_equiv_pos_as_xyz
1 x,y,z
2 -x,-y,-z
_cell_length_a                   8.1462(3)
_cell_length_b                   9.4252(4)
_cell_length_c                   13.2617(6)
_cell_angle_alpha                104.796(4)
_cell_angle_beta                 102.654(4)
_cell_angle_gamma                103.208(4)
_cell_volume                     915.852
_exptl_crystal_colour            colorless
_exptl_crystal_description       block
_cell_formula_units_Z            2
loop_
_atom_site_label
_atom_site_type_symbol
_atom_site_fract_x
_atom_site_fract_y
_atom_site_fract_z
S1 S 0.30666(4) 0.35024(4) 0.09882(3)
O1 O 0.32564(13) 0.41109(12) 0.01122(8)
O2 O 0.13380(13) 0.25867(12) 0.09117(8)
O3 O 0.83828(15) 1.05851(12) 0.44198(9)
N1 N 0.66095(16) 0.89292(14) 0.50283(10)
C1 C 0.52602(19) 0.62615(17) 0.22046(12)
N2 N 0.77463(17) 1.09433(15) 0.70213(10)
C2 C 0.34374(18) 0.51178(16) 0.32014(11)
C3 C 0.39391(18) 0.50787(16) 0.22245(11)
C4 C 0.43366(18) 0.64521(16) 0.41440(11)
C5 C 0.45588(18) 0.24252(15) 0.11386(11)
C6 C 0.3818(2) 0.65326(18) 0.51063(12)
C7 C 0.57198(18) 0.76555(16) 0.40868(11)
C8 C 0.70474(19) 0.08727(16) 0.14971(11)
C9 C 0.84770(19) 1.13693(17) 0.62917(11)
C10 C 0.8393(2) 0.00320(18) 0.16888(13)
C11 C 1.0296(2) 1.37818(19) 0.75868(13)
C12 C 0.71611(19) 0.18341(17) 0.08534(12)
C13 C 0.9554(2) 1.33655(19) 0.83469(13)
C14 C 0.78407(19) 1.02618(17) 0.51438(12)
C15 C 0.8293(2) 1.1950(2) 0.80355(13)
C16 C 0.21010(19) 0.39286(17) 0.32873(12)
C17 C 0.9749(2) 1.27610(18) 0.65335(12)
H1 H 1.0226(2) 1.30056(18) 0.60011(12)
C18 C 0.4405(2) 0.14628(17) 0.17792(12)
C19 C 0.61623(19) 0.75483(17) 0.31327(12)
C20 C 0.1659(2) 0.40429(18) 0.42400(13)
C21 C 0.59327(19) 0.26214(17) 0.06775(12)
C22 C 0.5658(2) 0.07068(17) 0.19572(12)
C23 C 0.2523(2) 0.53657(18) 0.51580(13)
H2 H 0.925(2) 0.025(2) 0.1300(15)
H3 H 0.901(3) 0.036(2) 0.2463(17)
H4 H 0.782(2) -0.110(2) 0.1465(15)
H5 H 0.150(2) 0.301(2) 0.2682(15)
H6 H 0.221(2) 0.547(2) 0.5851(16)
H7 H 0.435(2) 0.740(2) 0.5705(16)
H8 H 0.554(2) 0.005(2) 0.2399(16)
H9 H 0.637(3) 0.891(2) 0.5638(17)
H10 H 0.809(2) 0.197(2) 0.0526(14)
H11 H 0.713(2) 0.832(2) 0.3087(14)
H12 H 1.119(3) 1.479(2) 0.7802(16)
H13 H 0.080(2) 0.326(2) 0.4286(15)
H14 H 0.560(2) 0.622(2) 0.1575(15)
H15 H 0.346(2) 0.134(2) 0.2087(14)
H16 H 0.773(3) 1.160(2) 0.8546(17)
H17 H 0.606(2) 0.331(2) 0.0256(16)
H18 H 0.9895(2) 1.40275(19) 0.90600(13)
loop_
_geom_bond_atom_site_label_1
_geom_bond_atom_site_label_2
_geom_bond_site_symmetry_1
_geom_bond_site_symmetry_2
S1 O1 1_555 1_555
O2 S1 1_555 1_555
O3 C14 1_555 1_555
N1 C7 1_555 1_555
C1 C3 1_555 1_555
N2 C9 1_555 1_555
C2 C3 1_555 1_555
C3 S1 1_555 1_555
C4 C2 1_555 1_555
C5 S1 1_555 1_555
C6 C4 1_555 1_555
C7 C4 1_555 1_555
C8 C10 1_555 1_555
C9 C14 1_555 1_555
C10 H2 1_555 1_555
C11 C13 1_555 1_555
C12 C8 1_555 1_555
C13 C15 1_555 1_555
C14 N1 1_555 1_555
C15 N2 1_555 1_555
C16 C2 1_555 1_555
C17 C9 1_555 1_555
H1 C17 1_555 1_555
C18 C5 1_555 1_555
C19 C1 1_555 1_555
C20 C16 1_555 1_555
C21 C5 1_555 1_555
C22 C8 1_555 1_555
C23 C6 1_555 1_555
H3 C10 1_555 1_555
H4 C10 1_555 1_555
H5 C16 1_555 1_555
H6 C23 1_555 1_555
H7 C6 1_555 1_555
H8 C22 1_555 1_555
H9 N1 1_555 1_555
H10 C12 1_555 1_555
H11 C19 1_555 1_555
H12 C11 1_555 1_555
H13 C20 1_555 1_555
H14 C1 1_555 1_555
H15 C18 1_555 1_555
H16 C15 1_555 1_555
H17 C21 1_555 1_555
H18 C13 1_555 1_555
C7 C19 1_555 1_555
C11 C17 1_555 1_555
C12 C21 1_555 1_555
C18 C22 1_555 1_555
C20 C23 1_555 1_555

#END
