
#######################################################################
#
#                 Cambridge Crystallographic Data Centre
#                                CCDC 
#
#######################################################################
#
# If this CIF has been generated from an entry in the Cambridge 
# Structural Database, then it will include bibliographic, chemical, 
# crystal, experimental, refinement or atomic coordinate data resulting 
# from the CCDC's data processing and validation procedures.
#
#######################################################################

data_TASLII
_chemical_formula_moiety         'C22 H27 N1 O4'
_chemical_name_systematic        
4-(p-Nitrobenzoyloxy)-2,6,6-trimethyl-8-methylenetricyclo(5.3.1.0^1,5^)undecane
_symmetry_cell_setting           triclinic
_symmetry_space_group_name_H-M   'P -1'
_symmetry_Int_Tables_number      2
_space_group_name_Hall           '-P 1'
loop_
_symmetry_equiv_pos_site_id
_symmetry_equiv_pos_as_xyz
1 x,y,z
2 -x,-y,-z
_cell_length_a                   7.699(3)
_cell_length_b                   13.700(4)
_cell_length_c                   18.802(5)
_cell_angle_alpha                80.56(2)
_cell_angle_beta                 78.24(2)
_cell_angle_gamma                89.79(3)
_cell_volume                     1914.34
_exptl_crystal_colour            colorless
_chemical_melting_point          181-183deg.C
_cell_formula_units_Z            4
loop_
_atom_site_label
_atom_site_type_symbol
_atom_site_fract_x
_atom_site_fract_y
_atom_site_fract_z
N1 N -0.0721(6) 0.8602(3) 0.3955(2)
O1 O 0.2462(3) 0.9130(2) 0.6741(1)
O2 O 0.5025(4) 0.8959(3) 0.5960(2)
O3 O 0.0097(5) 0.8492(3) 0.3343(2)
O4 O -0.2319(5) 0.8653(3) 0.4120(2)
C1 C 0.2931(5) 0.8281(3) 0.8491(2)
C2 C 0.1372(5) 0.8967(3) 0.8430(2)
C3 C 0.2205(6) 0.9826(3) 0.7842(3)
C4 C 0.3478(5) 0.9367(3) 0.7278(2)
C5 C 0.4097(5) 0.8413(3) 0.7696(2)
C6 C 0.6079(5) 0.8373(3) 0.7782(2)
C7 C 0.5893(5) 0.8071(3) 0.8635(2)
C8 C 0.5591(5) 0.6977(3) 0.8914(2)
C9 C 0.3946(6) 0.6533(3) 0.8767(3)
C10 C 0.2352(5) 0.7208(3) 0.8800(2)
C11 C 0.4233(5) 0.8594(3) 0.8933(2)
C12 C 0.6641(7) 0.6470(3) 0.9298(3)
C13 C 0.7145(6) 0.7644(3) 0.7345(2)
C14 C 0.7067(6) 0.9377(3) 0.7541(3)
C15 C 0.0392(6) 0.9256(4) 0.9158(3)
C16 C 0.3439(6) 0.8973(3) 0.6096(2)
C17 C 0.2299(5) 0.8853(3) 0.5557(2)
C18 C 0.3151(5) 0.8753(3) 0.4844(2)
C19 C 0.2167(6) 0.8661(3) 0.4327(2)
C20 C 0.0352(6) 0.8659(3) 0.4525(2)
C21 C -0.0529(5) 0.8751(3) 0.5218(2)
C22 C 0.0458(6) 0.8839(3) 0.5739(2)
H1 H 0.0504 0.8564 0.8233
H2 H 0.2812 1.0293 0.8051
H3 H 0.1353 1.0189 0.7631
H4 H 0.4473 0.9813 0.6976
H5 H 0.3836 0.7836 0.7448
H6 H 0.7016 0.8291 0.8790
H7 H 0.3616 0.5841 0.9086
H8 H 0.4253 0.6303 0.8238
H9 H 0.1544 0.6970 0.8531
H10 H 0.1610 0.7191 0.9333
H11 H 0.3981 0.8382 0.9430
H12 H 0.4474 0.9376 0.8863
H13 H 0.7720 0.6812 0.9417
H14 H 0.6397 0.5787 0.9497
H15 H 0.8405 0.7555 0.7426
H16 H 0.6563 0.6956 0.7467
H17 H 0.7108 0.7773 0.6844
H18 H 0.6407 0.9908 0.7851
H19 H 0.8252 0.9363 0.7647
H20 H 0.7117 0.9551 0.7056
H21 H -0.0230 0.8458 0.9577
H22 H 0.1195 0.9722 0.9381
H23 H -0.0772 0.9658 0.9050
H24 H 0.4413 0.8787 0.4739
H25 H 0.2631 0.8554 0.3916
H26 H -0.1746 0.8742 0.5356
H27 H -0.0138 0.8951 0.6223
N2 N -0.6761(6) 0.6401(3) 0.6047(2)
O5 O -0.0794(3) 0.5869(2) 0.3259(1)
O6 O 0.0985(4) 0.6042(3) 0.4039(2)
O7 O -0.6553(5) 0.6504(3) 0.6659(2)
O8 O -0.8184(5) 0.6348(3) 0.5877(2)
C23 C 0.1415(5) 0.6716(3) 0.1515(2)
C24 C -0.0203(5) 0.6037(3) 0.1571(2)
C25 C 0.0050(6) 0.5180(3) 0.2158(2)
C26 C 0.0747(5) 0.5630(3) 0.2722(2)
C27 C 0.1797(5) 0.6582(3) 0.2304(2)
C28 C 0.3856(5) 0.6632(3) 0.2218(2)
C29 C 0.4532(5) 0.6932(3) 0.1374(2)
C30 C 0.4495(5) 0.8015(3) 0.1088(2)
C31 C 0.2712(6) 0.8468(3) 0.1235(3)
C32 C 0.1163(5) 0.7789(3) 0.1204(2)
C33 C 0.3177(5) 0.6409(3) 0.1064(2)
C34 C 0.5926(6) 0.8533(3) 0.0702(3)
C35 C 0.4483(6) 0.7359(3) 0.2654(2)
C36 C 0.4602(6) 0.5629(3) 0.2460(3)
C37 C -0.0463(6) 0.5744(4) 0.0854(3)
C38 C -0.0475(6) 0.6024(3) 0.3904(2)
C39 C -0.2140(5) 0.6150(3) 0.4441(2)
C40 C -0.1995(5) 0.6251(3) 0.5155(2)
C41 C -0.3508(6) 0.6342(3) 0.5676(2)
C42 C -0.5122(5) 0.6341(3) 0.5477(2)
C43 C -0.5309(5) 0.6249(3) 0.4781(2)
C44 C -0.3793(6) 0.6157(3) 0.4263(2)
H28 H -0.1330 0.6377 0.1769
H29 H 0.0867 0.4733 0.1970
H30 H -0.1111 0.4843 0.2354
H31 H 0.1461 0.5187 0.3036
H32 H 0.1299 0.7163 0.2523
H33 H 0.5802 0.6738 0.1207
H34 H 0.2809 0.9105 0.0896
H35 H 0.2415 0.8630 0.1767
H36 H 0.0021 0.7952 0.1483
H37 H 0.0813 0.7832 0.0764
H38 H 0.3315 0.6622 0.0554
H39 H 0.3290 0.5714 0.1144
H40 H 0.7125 0.8158 0.0664
H41 H 0.5868 0.9203 0.0508
H42 H 0.4145 0.8041 0.2464
H43 H 0.5789 0.7369 0.2536
H44 H 0.4046 0.7191 0.3125
H45 H 0.5898 0.5691 0.2303
H46 H 0.4208 0.5057 0.2202
H47 H 0.4335 0.5343 0.2952
H48 H -0.0544 0.6443 0.0432
H49 H 0.0483 0.5462 0.0656
H50 H -0.1742 0.5458 0.0957
H51 H -0.0716 0.6198 0.5265
H52 H -0.3411 0.6395 0.6166
H53 H -0.6457 0.6243 0.4679
H54 H -0.3958 0.6122 0.3789
loop_
_geom_bond_atom_site_label_1
_geom_bond_atom_site_label_2
_geom_bond_site_symmetry_1
_geom_bond_site_symmetry_2
N1 O3 1_555 1_555
O1 C4 1_555 1_555
O2 C16 1_555 1_555
O4 N1 1_555 1_555
C1 C2 1_555 1_555
C2 C3 1_555 1_555
C3 C4 1_555 1_555
C4 C5 1_555 1_555
C5 C1 1_555 1_555
C6 C5 1_555 1_555
C7 C6 1_555 1_555
C8 C7 1_555 1_555
C9 C8 1_555 1_555
C10 C1 1_555 1_555
C11 C1 1_555 1_555
C12 C8 1_555 1_555
C13 C6 1_555 1_555
C14 C6 1_555 1_555
C15 C2 1_555 1_555
C16 O1 1_555 1_555
C17 C16 1_555 1_555
C18 C17 1_555 1_555
C19 C18 1_555 1_555
C20 N1 1_555 1_555
C21 C20 1_555 1_555
C22 C17 1_555 1_555
N2 O7 1_555 1_555
O5 C26 1_555 1_555
O6 C38 1_555 1_555
O8 N2 1_555 1_555
C23 C24 1_555 1_555
C24 C25 1_555 1_555
C25 C26 1_555 1_555
C26 C27 1_555 1_555
C27 C23 1_555 1_555
C28 C27 1_555 1_555
C29 C28 1_555 1_555
C30 C29 1_555 1_555
C31 C30 1_555 1_555
C32 C23 1_555 1_555
C33 C23 1_555 1_555
C34 C30 1_555 1_555
C35 C28 1_555 1_555
C36 C28 1_555 1_555
C37 C24 1_555 1_555
C38 O5 1_555 1_555
C39 C38 1_555 1_555
C40 C39 1_555 1_555
C41 C40 1_555 1_555
C42 N2 1_555 1_555
C43 C42 1_555 1_555
C44 C39 1_555 1_555
H1 C2 1_555 1_555
H2 C3 1_555 1_555
H3 C3 1_555 1_555
H4 C4 1_555 1_555
H5 C5 1_555 1_555
H6 C7 1_555 1_555
H7 C9 1_555 1_555
H8 C9 1_555 1_555
H9 C10 1_555 1_555
H10 C10 1_555 1_555
H11 C11 1_555 1_555
H12 C11 1_555 1_555
H13 C12 1_555 1_555
H14 C12 1_555 1_555
H15 C13 1_555 1_555
H16 C13 1_555 1_555
H17 C13 1_555 1_555
H18 C14 1_555 1_555
H19 C14 1_555 1_555
H20 C14 1_555 1_555
H21 C15 1_555 1_555
H22 C15 1_555 1_555
H23 C15 1_555 1_555
H24 C18 1_555 1_555
H25 C19 1_555 1_555
H26 C21 1_555 1_555
H27 C22 1_555 1_555
H28 C24 1_555 1_555
H29 C25 1_555 1_555
H30 C25 1_555 1_555
H31 C26 1_555 1_555
H32 C27 1_555 1_555
H33 C29 1_555 1_555
H34 C31 1_555 1_555
H35 C31 1_555 1_555
H36 C32 1_555 1_555
H37 C32 1_555 1_555
H38 C33 1_555 1_555
H39 C33 1_555 1_555
H40 C34 1_555 1_555
H41 C34 1_555 1_555
H42 C35 1_555 1_555
H43 C35 1_555 1_555
H44 C35 1_555 1_555
H45 C36 1_555 1_555
H46 C36 1_555 1_555
H47 C36 1_555 1_555
H48 C37 1_555 1_555
H49 C37 1_555 1_555
H50 C37 1_555 1_555
H51 C40 1_555 1_555
H52 C41 1_555 1_555
H53 C43 1_555 1_555
H54 C44 1_555 1_555
C7 C11 1_555 1_555
C9 C10 1_555 1_555
C19 C20 1_555 1_555
C21 C22 1_555 1_555
C29 C33 1_555 1_555
C31 C32 1_555 1_555
C41 C42 1_555 1_555
C43 C44 1_555 1_555

#END
