
#######################################################################
#
#                 Cambridge Crystallographic Data Centre
#                                CCDC 
#
#######################################################################
#
# If this CIF has been generated from an entry in the Cambridge 
# Structural Database, then it will include bibliographic, chemical, 
# crystal, experimental, refinement or atomic coordinate data resulting 
# from the CCDC's data processing and validation procedures.
#
#######################################################################

data_TASMIJ
_chemical_formula_moiety         'C19 H27 N1 O2 S1'
_chemical_name_systematic        
(+)-(S)-S-(((1S,2R,4S,5S)-2-Hydroxy-1,4-dimethyl-8-methylenebicyclo(3.2.1)oct-2-yl)methyl)-N-methyl-S-phenylsulfoxime
_symmetry_cell_setting           monoclinic
_symmetry_space_group_name_H-M   'C 2'
_symmetry_Int_Tables_number      5
_space_group_name_Hall           'C 2y'
loop_
_symmetry_equiv_pos_site_id
_symmetry_equiv_pos_as_xyz
1 x,y,z
2 -x,y,-z
3 1/2+x,1/2+y,z
4 1/2-x,1/2+y,-z
_cell_length_a                   19.708(9)
_cell_length_b                   7.686(5)
_cell_length_c                   15.146(9)
_cell_angle_alpha                90
_cell_angle_beta                 127.47(9)
_cell_angle_gamma                90
_cell_volume                     1820.88
_exptl_crystal_colour            colorless
_chemical_melting_point          164-165deg.C
_cell_formula_units_Z            4
loop_
_atom_site_label
_atom_site_type_symbol
_atom_site_fract_x
_atom_site_fract_y
_atom_site_fract_z
S1 S -0.31099(6) 0.0000 -0.26376(8)
O1 O -0.5130(2) 0.0422(5) -0.3770(2)
O2 O -0.2519(2) -0.0560(5) -0.1493(2)
N1 N -0.3757(2) -0.1248(6) -0.3543(3)
C1 C -0.4503(3) 0.1316(7) -0.2770(3)
C2 C -0.4231(3) 0.0192(7) -0.1766(3)
C3 C -0.3759(3) 0.1182(7) -0.0659(3)
C4 C -0.4263(3) 0.2833(7) -0.0827(4)
C5 C -0.4287(3) 0.3936(6) -0.1658(4)
C6 C -0.4925(3) 0.3049(6) -0.2768(4)
C7 C -0.5651(3) 0.2591(8) -0.2683(4)
C8 C -0.5216(3) 0.2479(8) -0.1408(4)
C9 C -0.3603(4) -0.002(1) 0.0256(4)
C10 C -0.3857(4) 0.5368(7) -0.1451(5)
C11 C -0.5243(3) 0.4162(8) -0.3780(4)
C12 C -0.3748(3) 0.1778(6) -0.2776(3)
C13 C -0.2457(3) 0.0986(6) -0.2952(3)
C14 C -0.2807(3) 0.1302(8) -0.4058(4)
C15 C -0.2307(3) 0.2144(8) -0.4278(4)
C16 C -0.1489(3) 0.2637(8) -0.3441(5)
C17 C -0.1155(3) 0.2288(8) -0.2362(5)
C18 C -0.1634(3) 0.1472(7) -0.2104(4)
C19 C -0.3419(4) -0.2804(9) -0.3707(5)
H1 H -0.472 -0.033 -0.387
H2 H -0.473 -0.031 -0.191
H3 H -0.387 -0.070 -0.169
H4 H -0.321 0.155 -0.042
H5 H -0.400 0.335 -0.012
H6 H -0.589 0.150 -0.303
H7 H -0.608 0.346 -0.303
H8 H -0.545 0.333 -0.121
H9 H -0.529 0.136 -0.121
H10 H -0.326 0.053 0.096
H11 H -0.415 -0.028 0.006
H12 H -0.333 -0.107 0.029
H13 H -0.340 0.578 -0.060
H14 H -0.380 0.615 -0.184
H15 H -0.565 0.349 -0.442
H16 H -0.551 0.518 -0.377
H17 H -0.479 0.448 -0.381
H18 H -0.338 0.254 -0.217
H19 H -0.397 0.237 -0.345
H20 H -0.338 0.096 -0.464
H21 H -0.253 0.237 -0.503
H22 H -0.115 0.322 -0.361
H23 H -0.058 0.260 -0.178
H24 H -0.141 0.125 -0.135
H25 H -0.391 -0.337 -0.433
H26 H -0.305 -0.247 -0.388
H27 H -0.313 -0.358 -0.309
loop_
_geom_bond_atom_site_label_1
_geom_bond_atom_site_label_2
_geom_bond_site_symmetry_1
_geom_bond_site_symmetry_2
S1 O2 1_555 1_555
O1 C1 1_555 1_555
N1 S1 1_555 1_555
C1 C2 1_555 1_555
C2 C3 1_555 1_555
C3 C4 1_555 1_555
C4 C5 1_555 1_555
C5 C6 1_555 1_555
C6 C1 1_555 1_555
C7 C6 1_555 1_555
C8 C4 1_555 1_555
C9 C3 1_555 1_555
C10 C5 1_555 1_555
C11 C6 1_555 1_555
C12 S1 1_555 1_555
C13 S1 1_555 1_555
C14 C13 1_555 1_555
C15 C14 1_555 1_555
C16 C15 1_555 1_555
C17 C16 1_555 1_555
C18 C13 1_555 1_555
C19 N1 1_555 1_555
H1 O1 1_555 1_555
H2 C2 1_555 1_555
H3 C2 1_555 1_555
H4 C3 1_555 1_555
H5 C4 1_555 1_555
H6 C7 1_555 1_555
H7 C7 1_555 1_555
H8 C8 1_555 1_555
H9 C8 1_555 1_555
H10 C9 1_555 1_555
H11 C9 1_555 1_555
H12 C9 1_555 1_555
H13 C10 1_555 1_555
H14 C10 1_555 1_555
H15 C11 1_555 1_555
H16 C11 1_555 1_555
H17 C11 1_555 1_555
H18 C12 1_555 1_555
H19 C12 1_555 1_555
H20 C14 1_555 1_555
H21 C15 1_555 1_555
H22 C16 1_555 1_555
H23 C17 1_555 1_555
H24 C18 1_555 1_555
H25 C19 1_555 1_555
H26 C19 1_555 1_555
H27 C19 1_555 1_555
C1 C12 1_555 1_555
C7 C8 1_555 1_555
C17 C18 1_555 1_555

#END
