
#######################################################################
#
#                 Cambridge Crystallographic Data Centre
#                                CCDC 
#
#######################################################################
#
# If this CIF has been generated from an entry in the Cambridge 
# Structural Database, then it will include bibliographic, chemical, 
# crystal, experimental, refinement or atomic coordinate data resulting 
# from the CCDC's data processing and validation procedures.
#
#######################################################################

data_TASMUV
_chemical_formula_moiety         'C15 H15 N3 O2'
_chemical_name_systematic        
2-Methylamino-5-(2-azatricyclo(6.3.1.0^4,12^)dodecane-1(12),3,8,10-tetraen-5-yl)-1H-4-oxazolone
_symmetry_cell_setting           monoclinic
_symmetry_space_group_name_H-M   'P 21/n'
_symmetry_Int_Tables_number      14
_space_group_name_Hall           '-P 2yn'
loop_
_symmetry_equiv_pos_site_id
_symmetry_equiv_pos_as_xyz
1 x,y,z
2 1/2-x,1/2+y,1/2-z
3 -x,-y,-z
4 1/2+x,1/2-y,1/2+z
_cell_length_a                   7.988(1)
_cell_length_b                   13.622(1)
_cell_length_c                   12.064(3)
_cell_angle_alpha                90
_cell_angle_beta                 90.87(2)
_cell_angle_gamma                90
_cell_volume                     1312.56
_exptl_crystal_colour            colorless
_cell_formula_units_Z            4
loop_
_atom_site_label
_atom_site_type_symbol
_atom_site_fract_x
_atom_site_fract_y
_atom_site_fract_z
O1 O 0.8753(5) 0.7742(3) 1.0832(3)
O2 O 0.6634(5) 0.8403(3) 0.8376(3)
N1 N 0.4640(6) 0.9631(4) 1.1807(4)
N2 N 0.8598(6) 0.9021(3) 0.9608(4)
N3 N 1.0245(7) 0.9110(4) 1.1236(4)
C1 C 0.4615(7) 0.9030(4) 1.0887(5)
C2 C 0.5295(7) 0.8143(4) 1.1162(5)
C3 C 0.5732(7) 0.8198(5) 1.2307(5)
C4 C 0.6462(7) 0.7475(5) 1.2965(5)
C5 C 0.6784(7) 0.7732(6) 1.4056(5)
C6 C 0.6430(8) 0.8679(6) 1.4455(6)
C7 C 0.5707(7) 0.9379(5) 1.3787(5)
C8 C 0.5340(7) 0.9133(5) 1.2700(5)
C9 C 0.5828(7) 0.7243(4) 1.0523(5)
C10 C 0.5863(8) 0.6370(5) 1.1316(5)
C11 C 0.6857(8) 0.6508(5) 1.2413(5)
C12 C 0.7548(7) 0.7439(5) 0.9989(5)
C13 C 0.7512(8) 0.8321(4) 0.9211(5)
C14 C 0.9234(7) 0.8653(4) 1.0559(5)
C15 C 1.0780(8) 0.8702(5) 1.2309(5)
H1 H 0.4212(66) 1.0254(45) 1.1893(4)
H2 H 1.0553(68) 0.9707(44) 1.1038(44)
H3 H 0.4196(7) 0.9204(4) 1.0181(5)
H4 H 0.7250(7) 0.7264(6) 1.4542(5)
H5 H 0.6695(8) 0.8834(6) 1.5196(6)
H6 H 0.5469(7) 1.0009(5) 1.4062(5)
H7 H 0.4991(7) 0.7113(4) 0.9927(5)
H8 H 0.6337(8) 0.5806(5) 1.0925(5)
H9 H 0.4706(8) 0.6203(5) 1.1497(5)
H10 H 0.6589(8) 0.5970(5) 1.2920(5)
H11 H 0.8058(8) 0.6479(5) 1.2264(5)
H12 H 0.7946(7) 0.6847(5) 0.9797(5)
H13 H 1.1658(33) 0.8222(20) 1.2197(5)
H14 H 0.9835(13) 0.8388(24) 1.2660(15)
H15 H 1.1200(43) 0.9225(6) 1.2782(12)
loop_
_geom_bond_atom_site_label_1
_geom_bond_atom_site_label_2
_geom_bond_site_symmetry_1
_geom_bond_site_symmetry_2
O1 C12 1_555 1_555
O2 C13 1_555 1_555
N1 C1 1_555 1_555
N2 C13 1_555 1_555
N3 C14 1_555 1_555
C1 C2 1_555 1_555
C2 C3 1_555 1_555
C3 C4 1_555 1_555
C4 C5 1_555 1_555
C5 C6 1_555 1_555
C6 C7 1_555 1_555
C7 C8 1_555 1_555
C8 N1 1_555 1_555
C9 C2 1_555 1_555
C10 C9 1_555 1_555
C11 C4 1_555 1_555
C12 C9 1_555 1_555
C13 C12 1_555 1_555
C14 O1 1_555 1_555
C15 N3 1_555 1_555
H1 N1 1_555 1_555
H2 N3 1_555 1_555
H3 C1 1_555 1_555
H4 C5 1_555 1_555
H5 C6 1_555 1_555
H6 C7 1_555 1_555
H7 C9 1_555 1_555
H8 C10 1_555 1_555
H9 C10 1_555 1_555
H10 C11 1_555 1_555
H11 C11 1_555 1_555
H12 C12 1_555 1_555
H13 C15 1_555 1_555
H14 C15 1_555 1_555
H15 C15 1_555 1_555
N2 C14 1_555 1_555
C3 C8 1_555 1_555
C10 C11 1_555 1_555

#END
