
#######################################################################
#
#                 Cambridge Crystallographic Data Centre
#                                CCDC 
#
#######################################################################
#
# If this CIF has been generated from an entry in the Cambridge 
# Structural Database, then it will include bibliographic, chemical, 
# crystal, experimental, refinement or atomic coordinate data resulting 
# from the CCDC's data processing and validation procedures.
#
#######################################################################

data_TASQOW02
_chemical_name_common            
4,9,14,19,24,29,31,33,35,37,39,41-dodecaethoxypillar[6]arene
_chemical_formula_moiety         'C66 H84 O12'
_chemical_name_systematic        
4,9,14,19,24,29,31,33,35,37,39,41-dodecaethoxyheptacyclo[26.2.2.2^3,6^.2^8,11^.2^13,16^.2^18,21^.2^23,26^]dotetraconta-1(30),3,5,8,10,13,15,18,20,23,25,28,31,33,35,37,39,41-octadecaene
_symmetry_cell_setting           triclinic
_symmetry_space_group_name_H-M   'P -1'
_symmetry_Int_Tables_number      2
_space_group_name_Hall           '-P 1'
loop_
_symmetry_equiv_pos_site_id
_symmetry_equiv_pos_as_xyz
1 x,y,z
2 -x,-y,-z
_cell_length_a                   11.0743(4)
_cell_length_b                   12.6665(4)
_cell_length_c                   23.3275(6)
_cell_angle_alpha                86.472(3)
_cell_angle_beta                 82.616(3)
_cell_angle_gamma                71.064(3)
_cell_volume                     3068.77
_exptl_crystal_colour            colorless
_exptl_crystal_description       block
_cell_formula_units_Z            2
_exptl_crystal_preparation       
'solvent was removed by heating to 160 deg.C for 1 h prior to data collection'
loop_
_atom_site_label
_atom_site_type_symbol
_atom_site_fract_x
_atom_site_fract_y
_atom_site_fract_z
O1 O 0.3067(3) 0.5595(3) 0.63465(15)
O2 O 0.7857(3) 0.4986(3) 0.51511(14)
O3 O 0.2529(4) 0.8802(3) 0.74100(16)
O4 O 0.0762(3) 0.8468(3) 0.53418(14)
O5 O -0.0416(5) 1.0145(3) 0.85311(19)
O6 O -0.1911(4) 0.6943(3) 0.75889(16)
O7 O -0.2302(4) 0.5068(3) 0.93994(17)
O8 O 0.2737(4) 0.4889(3) 0.88425(19)
O9 O 0.4689(4) 0.1627(3) 0.96273(15)
O10 O 0.3394(4) 0.1808(3) 0.74204(15)
O11 O 0.7671(4) 0.3488(3) 0.72351(15)
O12 O 0.6263(4) 0.0153(3) 0.63859(16)
C1 C 0.6548(5) 0.4431(4) 0.58964(19)
C2 C 0.5356(5) 0.4575(4) 0.61952(18)
H1 H 0.5269 0.4067 0.6490
C3 C 0.4282(5) 0.5444(4) 0.60742(19)
C4 C 0.4391(5) 0.6223(4) 0.56341(19)
C5 C 0.5587(5) 0.6074(4) 0.53345(18)
H2 H 0.5677 0.6586 0.5042
C6 C 0.6664(5) 0.5194(4) 0.5450(2)
C7 C 0.3214(4) 0.7140(4) 0.54732(18)
H3 H 0.3485 0.7565 0.5151
H4 H 0.2650 0.6791 0.5334
C8 C 0.2431(5) 0.7954(4) 0.5929(2)
C9 C 0.2913(5) 0.8043(4) 0.6439(2)
H5 H 0.3762 0.7643 0.6486
C10 C 0.2146(6) 0.8718(4) 0.6876(2)
C11 C 0.0882(5) 0.9348(4) 0.6804(2)
C12 C 0.0434(5) 0.9272(4) 0.6285(2)
H6 H -0.0400 0.9705 0.6228
C13 C 0.1171(6) 0.8586(4) 0.5853(2)
C14 C -0.0005(5) 0.9994(4) 0.7315(2)
H7 H 0.0483 1.0303 0.7535
H8 H -0.0684 1.0610 0.7170
C15 C -0.0595(5) 0.9245(4) 0.7709(2)
C16 C -0.0753(6) 0.9302(5) 0.8304(3)
C17 C -0.1217(5) 0.8564(5) 0.8641(2)
H9 H -0.1291 0.8616 0.9040
C18 C -0.1579(5) 0.7750(5) 0.8416(2)
C19 C -0.1504(5) 0.7726(5) 0.7813(3)
C20 C -0.1001(5) 0.8459(4) 0.7478(2)
H10 H -0.0934 0.8420 0.7078
C21 C -0.1957(5) 0.6888(4) 0.8802(2)
H11 H -0.2528 0.6619 0.8612
H12 H -0.2432 0.7239 0.9157
C22 C -0.0808(6) 0.5881(5) 0.8955(2)
C23 C -0.1020(6) 0.4988(5) 0.9267(2)
C24 C -0.0010(6) 0.4082(5) 0.9418(2)
H13 H -0.0182 0.3484 0.9622
C25 C 0.1247(6) 0.4049(5) 0.9271(2)
C26 C 0.1470(6) 0.4957(5) 0.8967(2)
C27 C 0.0447(6) 0.5874(5) 0.8817(2)
H14 H 0.0612 0.6485 0.8622
C28 C 0.2344(5) 0.3076(4) 0.9453(2)
H15 H 0.1990 0.2597 0.9714
H16 H 0.2861 0.3360 0.9669
C29 C 0.3219(5) 0.2372(4) 0.8966(2)
C30 C 0.4414(6) 0.1647(4) 0.9067(2)
C31 C 0.5232(5) 0.1026(4) 0.8629(2)
H17 H 0.6035 0.0554 0.8706
C32 C 0.4893(5) 0.1083(4) 0.8076(2)
C33 C 0.3684(6) 0.1779(4) 0.7979(2)
C34 C 0.2871(5) 0.2404(4) 0.8413(2)
H18 H 0.2062 0.2865 0.8336
C35 C 0.5816(5) 0.0426(4) 0.7585(2)
H19 H 0.6495 -0.0166 0.7746
H20 H 0.5358 0.0081 0.7368
C36 C 0.6403(5) 0.1145(4) 0.7182(2)
C37 C 0.6794(4) 0.1970(4) 0.7394(2)
H21 H 0.6718 0.2052 0.7792
C38 C 0.7288(5) 0.2667(4) 0.7034(2)
C39 C 0.7374(4) 0.2589(4) 0.6436(2)
C40 C 0.7041(5) 0.1746(4) 0.6227(2)
H22 H 0.7138 0.1654 0.5830
C41 C 0.6566(5) 0.1026(4) 0.6588(2)
C42 C 0.7710(4) 0.3459(4) 0.60332(18)
H23 H 0.8161 0.3107 0.5675
H24 H 0.8289 0.3743 0.6207
C43 C 0.2948(5) 0.5054(5) 0.6890(2)
H25 H 0.3516 0.5188 0.7141
H26 H 0.3174 0.4256 0.6843
C44 C 0.1566(5) 0.5531(5) 0.7149(2)
H27 H 0.1013 0.5407 0.6893
H28 H 0.1361 0.6318 0.7202
H29 H 0.1443 0.5170 0.7515
C45 C 0.7965(5) 0.5635(5) 0.4636(2)
H30 H 0.7873 0.6393 0.4732
H31 H 0.7298 0.5657 0.4399
C46 C 0.9279(5) 0.5088(5) 0.4313(2)
H32 H 0.9381 0.5506 0.3963
H33 H 0.9359 0.4339 0.4220
H34 H 0.9931 0.5073 0.4550
C47 C 0.3781(6) 0.8247(5) 0.7507(2)
H35 H 0.4362 0.8502 0.7229
H36 H 0.3973 0.7452 0.7459
C48 C 0.3966(6) 0.8469(5) 0.8113(2)
H37 H 0.3679 0.9259 0.8172
H38 H 0.4860 0.8163 0.8166
H39 H 0.3476 0.8125 0.8387
C49 C -0.0599(6) 0.8796(5) 0.5330(2)
H40 H -0.0969 0.9600 0.5362
H41 H -0.0984 0.8451 0.5654
C50 C -0.0870(5) 0.8439(5) 0.4776(2)
H42 H -0.0451 0.8753 0.4457
H43 H -0.1780 0.8695 0.4756
H44 H -0.0552 0.7639 0.4758
C51 C 0.0112(8) 0.9996(6) 0.9035(3)
H45 H 0.0849 0.9321 0.9015
H46 H -0.0511 0.9894 0.9348
C52 C 0.0512(7) 1.0920(6) 0.9162(3)
H47 H 0.1160 1.1002 0.8864
H48 H 0.0855 1.0785 0.9527
H49 H -0.0213 1.1591 0.9180
C53 C -0.2148(6) 0.7105(5) 0.6989(3)
H50 H -0.2677 0.7870 0.6925
H51 H -0.1338 0.6978 0.6745
C54 C -0.2787(7) 0.6354(6) 0.6829(3)
H52 H -0.3034 0.6546 0.6447
H53 H -0.3539 0.6417 0.7098
H54 H -0.2213 0.5601 0.6837
C55 C 0.3111(7) 0.5636(7) 0.8488(3)
H55 H 0.2825 0.6356 0.8671
H56 H 0.2720 0.5720 0.8131
C56 C 0.4551(7) 0.5248(7) 0.8356(3)
H57 H 0.4806 0.5774 0.8095
H58 H 0.4831 0.4530 0.8180
H59 H 0.4934 0.5194 0.8707
C57 C -0.2588(7) 0.4197(7) 0.9769(4)
H60 H -0.2264 0.4159 1.0139
H61 H -0.2217 0.3476 0.9589
C58 C 0.5944(6) 0.1016(6) 0.9748(2)
H62 H 0.6571 0.1273 0.9501
H63 H 0.6124 0.0227 0.9685
C59 C 0.5991(6) 0.1221(6) 1.0387(2)
H64 H 0.5723 0.2009 1.0450
H65 H 0.6853 0.0884 1.0483
H66 H 0.5427 0.0897 1.0628
C60 C 0.2163(6) 0.2047(6) 0.7313(3)
H67 H 0.1686 0.2806 0.7429
H68 H 0.1780 0.1552 0.7546
C61 C 0.2043(6) 0.1932(5) 0.6688(2)
H69 H 0.2628 0.2236 0.6449
H70 H 0.1179 0.2330 0.6611
H71 H 0.2244 0.1157 0.6605
C62 C 0.8093(7) 0.3299(6) 0.7797(3)
H72 H 0.7354 0.3438 0.8088
H73 H 0.8622 0.2526 0.7838
C63 C 0.8830(7) 0.4028(6) 0.7886(3)
H74 H 0.9464 0.3993 0.7559
H75 H 0.9250 0.3791 0.8229
H76 H 0.8264 0.4782 0.7928
C64 C 0.5794(7) 0.0259(5) 0.5858(3)
H77 H 0.6457 0.0305 0.5552
H78 H 0.5072 0.0941 0.5846
C65 C 0.5378(7) -0.0716(6) 0.5767(3)
H79 H 0.5340 -0.0778 0.5362
H80 H 0.4543 -0.0616 0.5974
H81 H 0.5981 -0.1384 0.5905
C66 C -0.4013(10) 0.4540(12) 0.9840(6)
H82 H -0.4360 0.5295 0.9969
H83 H -0.4295 0.4056 1.0120
H84 H -0.4307 0.4489 0.9476
H85? H -0.3384 0.4517 1.0017
H86? H -0.1908 0.3881 1.0014
C67? C -0.2711(16) 0.3315(12) 0.9430(6)
H87? H -0.3539 0.3555 0.9291
H88? H -0.2623 0.2654 0.9668
H89? H -0.2052 0.3156 0.9107
loop_
_geom_bond_atom_site_label_1
_geom_bond_atom_site_label_2
_geom_bond_site_symmetry_1
_geom_bond_site_symmetry_2
O1 C3 1_555 1_555
O2 C6 1_555 1_555
O3 C10 1_555 1_555
O4 C13 1_555 1_555
O5 C16 1_555 1_555
O6 C19 1_555 1_555
O7 C23 1_555 1_555
O8 C26 1_555 1_555
O9 C30 1_555 1_555
O10 C33 1_555 1_555
O11 C38 1_555 1_555
O12 C41 1_555 1_555
C1 C2 1_555 1_555
C2 H1 1_555 1_555
C3 C2 1_555 1_555
C4 C3 1_555 1_555
C5 C4 1_555 1_555
H2 C5 1_555 1_555
C6 C1 1_555 1_555
C7 C4 1_555 1_555
H3 C7 1_555 1_555
H4 C7 1_555 1_555
C8 C7 1_555 1_555
C9 C8 1_555 1_555
H5 C9 1_555 1_555
C10 C9 1_555 1_555
C11 C10 1_555 1_555
C12 C11 1_555 1_555
H6 C12 1_555 1_555
C13 C8 1_555 1_555
C14 C11 1_555 1_555
H7 C14 1_555 1_555
H8 C14 1_555 1_555
C15 C14 1_555 1_555
C16 C15 1_555 1_555
C17 C16 1_555 1_555
H9 C17 1_555 1_555
C18 C17 1_555 1_555
C19 C18 1_555 1_555
C20 C15 1_555 1_555
H10 C20 1_555 1_555
C21 C18 1_555 1_555
H11 C21 1_555 1_555
H12 C21 1_555 1_555
C22 C21 1_555 1_555
C23 C22 1_555 1_555
C24 C23 1_555 1_555
H13 C24 1_555 1_555
C25 C24 1_555 1_555
C26 C25 1_555 1_555
C27 C22 1_555 1_555
H14 C27 1_555 1_555
C28 C25 1_555 1_555
H15 C28 1_555 1_555
H16 C28 1_555 1_555
C29 C28 1_555 1_555
C30 C29 1_555 1_555
C31 C30 1_555 1_555
H17 C31 1_555 1_555
C32 C31 1_555 1_555
C33 C32 1_555 1_555
C34 C29 1_555 1_555
H18 C34 1_555 1_555
C35 C32 1_555 1_555
H19 C35 1_555 1_555
H20 C35 1_555 1_555
C36 C35 1_555 1_555
C37 C36 1_555 1_555
H21 C37 1_555 1_555
C38 C37 1_555 1_555
C39 C38 1_555 1_555
C40 C39 1_555 1_555
H22 C40 1_555 1_555
C41 C36 1_555 1_555
C42 C1 1_555 1_555
H23 C42 1_555 1_555
H24 C42 1_555 1_555
C43 O1 1_555 1_555
H25 C43 1_555 1_555
H26 C43 1_555 1_555
C44 C43 1_555 1_555
H27 C44 1_555 1_555
H28 C44 1_555 1_555
H29 C44 1_555 1_555
C45 O2 1_555 1_555
H30 C45 1_555 1_555
H31 C45 1_555 1_555
C46 C45 1_555 1_555
H32 C46 1_555 1_555
H33 C46 1_555 1_555
H34 C46 1_555 1_555
C47 O3 1_555 1_555
H35 C47 1_555 1_555
H36 C47 1_555 1_555
C48 C47 1_555 1_555
H37 C48 1_555 1_555
H38 C48 1_555 1_555
H39 C48 1_555 1_555
C49 O4 1_555 1_555
H40 C49 1_555 1_555
H41 C49 1_555 1_555
C50 C49 1_555 1_555
H42 C50 1_555 1_555
H43 C50 1_555 1_555
H44 C50 1_555 1_555
C51 O5 1_555 1_555
H45 C51 1_555 1_555
H46 C51 1_555 1_555
C52 C51 1_555 1_555
H47 C52 1_555 1_555
H48 C52 1_555 1_555
H49 C52 1_555 1_555
C53 O6 1_555 1_555
H50 C53 1_555 1_555
H51 C53 1_555 1_555
C54 C53 1_555 1_555
H52 C54 1_555 1_555
H53 C54 1_555 1_555
H54 C54 1_555 1_555
C55 O8 1_555 1_555
H55 C55 1_555 1_555
H56 C55 1_555 1_555
C56 C55 1_555 1_555
H57 C56 1_555 1_555
H58 C56 1_555 1_555
H59 C56 1_555 1_555
C57 O7 1_555 1_555
H60 C57 1_555 1_555
H61 C57 1_555 1_555
C58 O9 1_555 1_555
H62 C58 1_555 1_555
H63 C58 1_555 1_555
C59 C58 1_555 1_555
H64 C59 1_555 1_555
H65 C59 1_555 1_555
H66 C59 1_555 1_555
C60 O10 1_555 1_555
H67 C60 1_555 1_555
H68 C60 1_555 1_555
C61 C60 1_555 1_555
H69 C61 1_555 1_555
H70 C61 1_555 1_555
H71 C61 1_555 1_555
C62 O11 1_555 1_555
H72 C62 1_555 1_555
H73 C62 1_555 1_555
C63 C62 1_555 1_555
H74 C63 1_555 1_555
H75 C63 1_555 1_555
H76 C63 1_555 1_555
C64 O12 1_555 1_555
H77 C64 1_555 1_555
H78 C64 1_555 1_555
C65 C64 1_555 1_555
H79 C65 1_555 1_555
H80 C65 1_555 1_555
H81 C65 1_555 1_555
C66 C57 1_555 1_555
H82 C66 1_555 1_555
H83 C66 1_555 1_555
H84 C66 1_555 1_555
C5 C6 1_555 1_555
C12 C13 1_555 1_555
C19 C20 1_555 1_555
C26 C27 1_555 1_555
C33 C34 1_555 1_555
C39 C42 1_555 1_555
C40 C41 1_555 1_555

#END
