
#######################################################################
#
#                 Cambridge Crystallographic Data Centre
#                                CCDC 
#
#######################################################################
#
# If this CIF has been generated from an entry in the Cambridge 
# Structural Database, then it will include bibliographic, chemical, 
# crystal, experimental, refinement or atomic coordinate data resulting 
# from the CCDC's data processing and validation procedures.
#
#######################################################################

data_TASROX
_chemical_formula_moiety         'C24 H21 F1 O5 S2'
_chemical_name_systematic        
2-[2,2-bis(phenylsulfonyl)ethyl]-2-fluoro-3,4-dihydronaphthalen-1(2H)-one
_symmetry_cell_setting           monoclinic
_symmetry_space_group_name_H-M   'P 21/c'
_symmetry_Int_Tables_number      14
_space_group_name_Hall           '-P 2ybc'
loop_
_symmetry_equiv_pos_site_id
_symmetry_equiv_pos_as_xyz
1 x,y,z
2 -x,1/2+y,1/2-z
3 -x,-y,-z
4 x,1/2-y,1/2+z
_cell_length_a                   11.920(7)
_cell_length_b                   16.011(9)
_cell_length_c                   11.245(6)
_cell_angle_alpha                90
_cell_angle_beta                 100.817(16)
_cell_angle_gamma                90
_cell_volume                     2107.99
_cell_formula_units_Z            4
loop_
_atom_site_label
_atom_site_type_symbol
_atom_site_fract_x
_atom_site_fract_y
_atom_site_fract_z
C1 C 0.6642(9) 0.7994(7) 0.3198(11)
C2 C 0.7427(9) 0.7535(7) 0.2703(11)
C3 C 0.8517(9) 0.7413(6) 0.3313(10)
C4 C 0.8842(9) 0.7751(7) 0.4469(10)
C5 C 0.8076(10) 0.8217(7) 0.4984(11)
C6 C 0.6951(9) 0.8322(7) 0.4377(9)
C7 C 0.6104(9) 0.8790(7) 0.4961(10)
C8 C 0.5140(9) 0.9145(7) 0.4071(10)
C9 C 0.4608(9) 0.8512(6) 0.3118(10)
C10 C 0.5497(9) 0.8171(6) 0.2470(9)
C11 C 0.3946(8) 0.7828(6) 0.3632(8)
C12 C 0.3193(8) 0.7331(6) 0.2619(8)
C13 C 0.1201(8) 0.8772(7) 0.1630(10)
C14 C 0.0928(9) 0.9615(7) 0.1575(11)
C15 C 0.0806(9) 1.0043(7) 0.2616(11)
C16 C 0.0967(9) 0.9643(7) 0.3697(11)
C17 C 0.1260(8) 0.8804(6) 0.3807(9)
C18 C 0.1345(8) 0.8372(6) 0.2732(8)
C19 C 0.3185(8) 0.5557(6) 0.3213(9)
C20 C 0.3693(9) 0.5466(6) 0.4440(9)
C21 C 0.3315(10) 0.4819(7) 0.5088(10)
C22 C 0.2474(10) 0.4293(7) 0.4527(11)
C23 C 0.1963(9) 0.4389(7) 0.3355(12)
C24 C 0.2321(9) 0.5042(7) 0.2669(11)
O1 O 0.1692(6) 0.7026(4) 0.4044(7)
O2 O 0.5278(6) 0.8030(5) 0.1399(7)
O3 O 0.4934(6) 0.6350(4) 0.2726(7)
O4 O 0.3300(7) 0.6124(5) 0.1074(6)
O5 O 0.1069(6) 0.6861(4) 0.1846(7)
F1 F 0.3814(5) 0.8950(4) 0.2275(5)
S1 S 0.3730(2) 0.63027(16) 0.2324(2)
S2 S 0.1720(2) 0.73104(15) 0.2838(2)
loop_
_geom_bond_atom_site_label_1
_geom_bond_atom_site_label_2
_geom_bond_site_symmetry_1
_geom_bond_site_symmetry_2
C1 C2 1_555 1_555
C2 C3 1_555 1_555
C3 C4 1_555 1_555
C4 C5 1_555 1_555
C5 C6 1_555 1_555
C6 C1 1_555 1_555
C7 C6 1_555 1_555
C8 C7 1_555 1_555
C9 C8 1_555 1_555
C10 C1 1_555 1_555
C11 C9 1_555 1_555
C12 C11 1_555 1_555
C13 C14 1_555 1_555
C14 C15 1_555 1_555
C15 C16 1_555 1_555
C16 C17 1_555 1_555
C17 C18 1_555 1_555
C18 C13 1_555 1_555
C19 C20 1_555 1_555
C20 C21 1_555 1_555
C21 C22 1_555 1_555
C22 C23 1_555 1_555
C23 C24 1_555 1_555
C24 C19 1_555 1_555
O1 S2 1_555 1_555
O2 C10 1_555 1_555
O3 S1 1_555 1_555
O4 S1 1_555 1_555
O5 S2 1_555 1_555
F1 C9 1_555 1_555
S1 C12 1_555 1_555
S2 C12 1_555 1_555
C9 C10 1_555 1_555
C18 S2 1_555 1_555
C19 S1 1_555 1_555

#END
