
#######################################################################
#
#                 Cambridge Crystallographic Data Centre
#                                CCDC 
#
#######################################################################
#
# If this CIF has been generated from an entry in the Cambridge 
# Structural Database, then it will include bibliographic, chemical, 
# crystal, experimental, refinement or atomic coordinate data resulting 
# from the CCDC's data processing and validation procedures.
#
#######################################################################

data_TASWUH
_chemical_formula_moiety         
'C48 H40 N4 4+,C44 H60 O14,4(F6 P1 1-),7(C1 H3 N1 O2)'
_chemical_name_systematic        
'[2]-(2,5,8,11,14,17,20,22,25,28,31,34,37,40-Tetradecaoxa-1,21(1,5)-dinaphthalenacyclotetracontaphane)-(1,7(1,4),2,8(4,1)-tetrapyridinia-4,5,10,11(1,4)-tetrabenzenacyclododecaphane)-rotaxane tetrakis(hexafluorophosphate) nitromethane solvate'
_symmetry_cell_setting           triclinic
_symmetry_space_group_name_H-M   'P -1'
_symmetry_Int_Tables_number      2
_space_group_name_Hall           '-P 1'
loop_
_symmetry_equiv_pos_site_id
_symmetry_equiv_pos_as_xyz
1 x,y,z
2 -x,-y,-z
_cell_length_a                   18.7969(10)
_cell_length_b                   21.3322(11)
_cell_length_c                   29.2218(15)
_cell_angle_alpha                69.696(3)
_cell_angle_beta                 84.942(4)
_cell_angle_gamma                89.939(4)
_cell_volume                     10941
_exptl_crystal_colour            red
_exptl_crystal_description       plate
_cell_formula_units_Z            4
loop_
_atom_site_label
_atom_site_type_symbol
_atom_site_fract_x
_atom_site_fract_y
_atom_site_fract_z
O1 O 0.53995(19) 0.00609(18) 0.34451(14)
O2 O 0.5352(3) -0.1331(2) 0.40841(15)
O3 O 0.6882(4) -0.1650(3) 0.40957(19)
O4 O 0.7811(3) -0.0425(4) 0.39306(19)
O5 O 0.7313(2) 0.0915(3) 0.42759(15)
O6 O 0.6226(3) 0.1912(3) 0.40673(18)
O7 O 0.5000(2) 0.22780(18) 0.35198(14)
O8 O 0.42060(18) 0.20390(17) 0.16564(13)
O9 O 0.3201(2) 0.2310(2) 0.08717(14)
O10 O 0.2947(2) 0.3617(2) 0.08394(16)
O11 O 0.3908(3) 0.4604(3) 0.09130(17)
O12 O 0.5730(2) 0.4364(2) 0.06235(16)
O13 O 0.66465(17) 0.33084(18) 0.08952(12)
O14 O 0.67352(17) 0.19533(16) 0.15321(12)
C49 C 0.5413(3) -0.0146(3) 0.3967(2)
H41 H 0.5201 0.0198 0.4090
H42 H 0.5910 -0.0213 0.4057
C50 C 0.4979(4) -0.0794(3) 0.4183(2)
H43 H 0.4885 -0.0907 0.4542
H44 H 0.4514 -0.0740 0.4042
C51 C 0.5725(6) -0.1749(4) 0.4507(3)
H45 H 0.5919 -0.1462 0.4673
H46 H 0.5380 -0.2078 0.4746
C52 C 0.6285(5) -0.2088(6) 0.4353(4)
H47 H 0.6105 -0.2308 0.4135
H48 H 0.6447 -0.2442 0.4642
C53 C 0.7397(5) -0.1568(5) 0.4385(4)
H49 H 0.7165 -0.1427 0.4649
H50 H 0.7621 -0.2002 0.4540
C54 C 0.7913(6) -0.1104(4) 0.4118(3)
H51 H 0.8085 -0.1236 0.3836
H52 H 0.8315 -0.1165 0.4325
C55 C 0.7807(8) -0.0090(5) 0.4249(4)
H53 H 0.8190 -0.0273 0.4465
H54 H 0.7349 -0.0209 0.4458
C56 C 0.7890(5) 0.0618(5) 0.4080(3)
H55 H 0.7914 0.0796 0.3717
H56 H 0.8346 0.0742 0.4177
C57 C 0.7428(5) 0.1587(5) 0.4151(3)
H57 H 0.7515 0.1795 0.3790
H58 H 0.7856 0.1673 0.4296
C58 C 0.6791(5) 0.1894(4) 0.4330(3)
H59 H 0.6653 0.1631 0.4679
H60 H 0.6923 0.2354 0.4305
C59 C 0.5618(5) 0.2204(4) 0.4226(2)
H61 H 0.5671 0.2698 0.4088
H62 H 0.5568 0.2064 0.4588
C60 C 0.4927(4) 0.1960(3) 0.4041(2)
H63 H 0.4912 0.1467 0.4133
H64 H 0.4485 0.2096 0.4186
C61 C 0.4601(3) 0.2020(3) 0.3250(2)
C62 C 0.4058(3) 0.1540(3) 0.3459(2)
H65 H 0.3929 0.1381 0.3802
C63 C 0.3708(3) 0.1299(3) 0.3152(2)
H66 H 0.3336 0.0969 0.3292
C64 C 0.3875(3) 0.1512(2) 0.2662(2)
H67 H 0.3629 0.1326 0.2467
C65 C 0.4425(3) 0.2021(3) 0.2436(2)
C66 C 0.4612(3) 0.2288(3) 0.1924(2)
C67 C 0.5154(3) 0.2768(3) 0.1725(2)
H68 H 0.5278 0.2941 0.1381
C68 C 0.5521(3) 0.2995(3) 0.2040(2)
H69 H 0.5902 0.3316 0.1905
C69 C 0.5345(3) 0.2768(3) 0.2526(2)
H70 H 0.5586 0.2948 0.2727
C70 C 0.4806(3) 0.2264(2) 0.2740(2)
C71 C 0.4407(3) 0.2257(3) 0.1146(2)
H71 H 0.4889 0.2099 0.1084
H72 H 0.4421 0.2751 0.1007
C72 C 0.3863(3) 0.1973(3) 0.0909(2)
H73 H 0.4066 0.2006 0.0577
H74 H 0.3770 0.1493 0.1103
C73 C 0.3164(6) 0.2860(5) 0.0425(3)
H75 H 0.3657 0.3006 0.0276
H76 H 0.2920 0.2703 0.0196
C74 C 0.2825(5) 0.3384(5) 0.0474(3)
H77 H 0.2306 0.3275 0.0508
H78 H 0.2927 0.3761 0.0161
C75 C 0.2805(6) 0.4238(5) 0.0777(4)
H79 H 0.2523 0.4228 0.1083
H80 H 0.2473 0.4374 0.0517
C76 C 0.3280(4) 0.4750(4) 0.0667(3)
H81 H 0.3043 0.5121 0.0745
H82 H 0.3419 0.4911 0.0310
C77 C 0.4473(4) 0.4471(4) 0.0659(3)
H83 H 0.4475 0.4761 0.0311
H84 H 0.4433 0.4001 0.0676
C78 C 0.5151(4) 0.4576(3) 0.0839(2)
H85 H 0.5220 0.5059 0.0781
H86 H 0.5122 0.4336 0.1198
C79 C 0.6393(3) 0.4415(3) 0.0802(2)
H87 H 0.6326 0.4289 0.1163
H88 H 0.6578 0.4884 0.0662
C80 C 0.6929(3) 0.3965(3) 0.0668(2)
H89 H 0.6997 0.4081 0.0308
H90 H 0.7396 0.4012 0.0787
C81 C 0.7086(3) 0.2837(3) 0.07914(18)
H91 H 0.7551 0.2838 0.0926
H92 H 0.7175 0.2952 0.0432
C82 C 0.6725(3) 0.2155(3) 0.10177(19)
H93 H 0.6226 0.2173 0.0931
H94 H 0.6981 0.1832 0.0894
C83 C 0.6270(3) 0.1425(2) 0.18160(19)
C84 C 0.6254(2) 0.1291(2) 0.23287(18)
C85 C 0.6686(3) 0.1672(2) 0.25281(19)
H95 H 0.6989 0.2030 0.2317
C86 C 0.6654(3) 0.1514(3) 0.3017(2)
H96 H 0.6930 0.1776 0.3145
C87 C 0.6223(3) 0.0969(3) 0.3349(2)
H97 H 0.6221 0.0858 0.3693
C88 C 0.5818(3) 0.0616(3) 0.3158(2)
C89 C 0.5809(3) 0.0769(2) 0.26491(19)
C90 C 0.5373(3) 0.0418(3) 0.2438(2)
H98 H 0.5047 0.0078 0.2647
C91 C 0.5408(3) 0.0552(3) 0.1953(2)
H99 H 0.5112 0.0304 0.1826
C92 C 0.5877(3) 0.1054(3) 0.1634(2)
H100 H 0.5919 0.1132 0.1292
N5 N -0.2852(2) 0.6315(2) 0.2189(2)
N6 N -0.04083(19) 0.37532(19) 0.26418(15)
N7 N 0.3602(2) 0.7210(2) 0.23196(16)
N8 N 0.1021(2) 0.9374(2) 0.27381(16)
C93 C -0.2849(3) 0.5889(3) 0.2639(2)
H101 H -0.3161 0.5951 0.2894
C94 C -0.2399(3) 0.5352(3) 0.2750(2)
H102 H -0.2406 0.5042 0.3076
C95 C -0.1925(2) 0.5276(2) 0.23649(18)
C96 C -0.1962(3) 0.5726(3) 0.18928(19)
H103 H -0.1667 0.5681 0.1625
C97 C -0.2433(3) 0.6237(3) 0.1819(2)
H104 H -0.2462 0.6545 0.1497
C98 C -0.1419(2) 0.4729(2) 0.24735(18)
C99 C -0.1194(3) 0.4430(2) 0.29297(19)
H105 H -0.1387 0.4561 0.3193
C100 C -0.0692(2) 0.3941(2) 0.30141(18)
H106 H -0.0545 0.3737 0.3334
C101 C -0.0608(2) 0.4025(2) 0.21905(18)
H107 H -0.0405 0.3885 0.1933
C102 C -0.1112(2) 0.4511(2) 0.21013(18)
H108 H -0.1257 0.4704 0.1780
C103 C 0.0192(2) 0.3255(2) 0.27376(18)
H109 H 0.0110 0.2924 0.3074
H110 H 0.0202 0.3012 0.2503
C104 C 0.0891(2) 0.3630(2) 0.26780(19)
C105 C 0.1271(3) 0.3909(3) 0.22221(19)
H111 H 0.1124 0.3808 0.1952
C106 C 0.1849(3) 0.4324(3) 0.21529(19)
H112 H 0.2099 0.4504 0.1836
C107 C 0.2085(2) 0.4494(2) 0.25452(19)
C108 C 0.1722(3) 0.4183(2) 0.30034(19)
H113 H 0.1876 0.4267 0.3278
C109 C 0.1147(3) 0.3756(2) 0.3070(2)
H114 H 0.0919 0.3543 0.3390
C110 C 0.2657(2) 0.5013(3) 0.24536(18)
C111 C 0.2851(3) 0.5470(3) 0.19938(19)
H115 H 0.2648 0.5424 0.1720
C112 C 0.3340(3) 0.6003(3) 0.19153(19)
H116 H 0.3459 0.6314 0.1594
C113 C 0.3648(2) 0.6072(2) 0.23092(19)
C114 C 0.3477(3) 0.5594(2) 0.27723(18)
H117 H 0.3691 0.5631 0.3045
C115 C 0.2997(3) 0.5064(2) 0.28435(19)
H118 H 0.2901 0.4736 0.3161
C116 C 0.4084(2) 0.6699(2) 0.22391(19)
H119 H 0.4453 0.6597 0.2475
H120 H 0.4328 0.6871 0.1903
C117 C 0.3204(3) 0.7556(3) 0.19640(19)
H121 H 0.3262 0.7493 0.1657
C118 C 0.2706(2) 0.8007(2) 0.20338(19)
H122 H 0.2439 0.8261 0.1774
C119 C 0.2609(3) 0.8076(2) 0.24893(18)
C120 C 0.3018(3) 0.7704(2) 0.28582(18)
H123 H 0.2962 0.7743 0.3173
C121 C 0.3505(3) 0.7280(3) 0.2758(2)
H124 H 0.3784 0.7025 0.3010
C122 C 0.2058(2) 0.8542(2) 0.25772(19)
C123 C 0.1857(2) 0.9082(3) 0.21922(18)
H125 H 0.2080 0.9171 0.1871
C124 C 0.1343(3) 0.9484(2) 0.22741(18)
H126 H 0.1201 0.9849 0.2007
C125 C 0.1230(2) 0.8868(2) 0.31121(18)
H127 H 0.1021 0.8803 0.3434
C126 C 0.1732(3) 0.8443(3) 0.30493(18)
H128 H 0.1863 0.8080 0.3322
C127 C 0.0402(3) 0.9789(3) 0.2811(2)
H129 H 0.0470 1.0254 0.2578
H130 H 0.0361 0.9798 0.3149
C128 C -0.0262(3) 0.9465(3) 0.2722(2)
C129 C -0.0493(3) 0.9671(2) 0.2249(2)
H131 H -0.0274 1.0051 0.1997
C130 C -0.1047(3) 0.9314(2) 0.21531(19)
H132 H -0.1209 0.9454 0.1835
C131 C -0.1369(2) 0.8744(2) 0.25259(19)
C132 C -0.1140(3) 0.8575(3) 0.29948(19)
H133 H -0.1358 0.8198 0.3250
C133 C -0.0607(3) 0.8937(2) 0.31008(19)
H134 H -0.0479 0.8826 0.3426
C134 C -0.1894(2) 0.8325(2) 0.24081(19)
C135 C -0.1900(3) 0.8308(2) 0.1938(2)
H135 H -0.1579 0.8592 0.1681
C136 C -0.2380(3) 0.7873(3) 0.1837(2)
H136 H -0.2377 0.7867 0.1513
C137 C -0.2851(3) 0.7458(3) 0.2203(3)
C138 C -0.2862(3) 0.7485(3) 0.2667(2)
H137 H -0.3194 0.7208 0.2921
C139 C -0.2397(3) 0.7910(2) 0.2769(2)
H138 H -0.2418 0.7922 0.3092
C140 C -0.3287(3) 0.6943(3) 0.2096(2)
H139 H -0.3401 0.7116 0.1750
H140 H -0.3741 0.6839 0.2310
O15 O 0.00492(18) 0.50776(17) 0.33971(13)
O16 O -0.0094(3) 0.3690(2) 0.40476(16)
O17 O -0.1583(3) 0.3335(3) 0.4060(2)
O18 O -0.2467(3) 0.4546(4) 0.3901(2)
O19 O -0.2097(2) 0.5908(3) 0.42544(16)
O20 O -0.0972(3) 0.6910(3) 0.4067(2)
O21 O 0.0411(2) 0.72858(18) 0.35252(14)
O22 O 0.16929(18) 0.70308(18) 0.16476(13)
O23 O 0.2876(3) 0.7326(3) 0.08905(19)
O24 O 0.3113(3) 0.8603(4) 0.0909(2)
O25 O 0.2211(4) 0.9669(4) 0.1005(2)
O26 O 0.0587(3) 0.9323(3) 0.0636(2)
O27 O -0.0461(2) 0.8289(2) 0.08275(15)
O28 O -0.07476(17) 0.69498(17) 0.14776(12)
C141 C -0.0106(3) 0.4887(3) 0.3914(2)
H141 H -0.0629 0.4844 0.4002
H142 H 0.0090 0.5230 0.4031
C142 C 0.0235(4) 0.4227(3) 0.4147(2)
H143 H 0.0747 0.4266 0.4025
H144 H 0.0205 0.4121 0.4506
C143 C -0.0587(7) 0.3288(5) 0.4470(3)
H145 H -0.0316 0.2989 0.4732
H146 H -0.0876 0.3583 0.4605
C144 C -0.1038(6) 0.2905(5) 0.4290(4)
H147 H -0.0760 0.2745 0.4050
H148 H -0.1252 0.2512 0.4563
C145 C -0.2149(5) 0.3483(8) 0.4285(5)
H149 H -0.2391 0.3045 0.4472
H150 H -0.1962 0.3641 0.4533
C146 C -0.2662(6) 0.3875(4) 0.4126(4)
H151 H -0.3023 0.3829 0.4404
H152 H -0.2894 0.3725 0.3888
C147 C -0.2597(9) 0.4956(7) 0.4175(5)
H153 H -0.3062 0.4786 0.4366
H154 H -0.2237 0.4830 0.4417
C148 C -0.2626(6) 0.5592(6) 0.4053(4)
H155 H -0.3110 0.5702 0.4161
H156 H -0.2562 0.5792 0.3691
C149 C -0.2170(5) 0.6572(5) 0.4145(3)
H157 H -0.2637 0.6647 0.4300
H158 H -0.2177 0.6785 0.3786
C150 C -0.1623(7) 0.6892(5) 0.4300(3)
H159 H -0.1762 0.7357 0.4252
H160 H -0.1595 0.6659 0.4655
C151 C -0.0429(5) 0.7219(4) 0.4226(2)
H161 H -0.0486 0.7086 0.4587
H162 H -0.0458 0.7712 0.4083
C152 C 0.0339(4) 0.6986(3) 0.4048(2)
H163 H 0.0731 0.7143 0.4191
H164 H 0.0347 0.6492 0.4150
C153 C 0.0872(3) 0.7018(3) 0.3256(2)
C154 C 0.1356(3) 0.6552(3) 0.3446(2)
H165 H 0.1407 0.6406 0.3788
C155 C 0.1785(3) 0.6280(3) 0.3147(2)
H166 H 0.2101 0.5934 0.3291
C156 C 0.1751(3) 0.6510(3) 0.2650(2)
H167 H 0.2050 0.6332 0.2449
C157 C 0.1269(3) 0.7011(3) 0.2440(2)
C158 C 0.1219(3) 0.7278(3) 0.1923(2)
C159 C 0.0745(3) 0.7770(3) 0.1714(2)
H168 H 0.0717 0.7946 0.1370
C160 C 0.0303(3) 0.7999(3) 0.2040(2)
H169 H -0.0033 0.8329 0.1903
C161 C 0.0325(3) 0.7786(2) 0.2521(2)
H170 H 0.0026 0.7969 0.2719
C162 C 0.0819(3) 0.7265(3) 0.2738(2)
C163 C 0.1635(3) 0.7229(3) 0.1147(2)
H171 H 0.1662 0.7724 0.1001
H172 H 0.1167 0.7073 0.1088
C164 C 0.2199(4) 0.6958(3) 0.0917(2)
H173 H 0.2088 0.6998 0.0583
H174 H 0.2245 0.6478 0.1109
C165 C 0.2985(6) 0.7912(5) 0.0437(3)
H175 H 0.2520 0.8097 0.0330
H176 H 0.3239 0.7786 0.0172
C166 C 0.3422(5) 0.8418(5) 0.0549(3)
H177 H 0.3891 0.8229 0.0641
H178 H 0.3508 0.8818 0.0249
C167 C 0.3371(6) 0.9204(4) 0.0956(4)
H179 H 0.3861 0.9308 0.0790
H180 H 0.3402 0.9126 0.1308
C168 C 0.2916(4) 0.9808(5) 0.0745(3)
H181 H 0.3136 1.0207 0.0783
H182 H 0.2885 0.9900 0.0392
C169 C 0.1730(5) 0.9388(5) 0.0805(3)
H183 H 0.1698 0.8899 0.0983
H184 H 0.1902 0.9464 0.0459
C170 C 0.1043(5) 0.9652(5) 0.0822(4)
H185 H 0.0871 0.9593 0.1165
H186 H 0.1062 1.0136 0.0627
C171 C -0.0123(5) 0.9412(4) 0.0727(3)
H187 H -0.0224 0.9887 0.0557
H188 H -0.0230 0.9316 0.1083
C172 C -0.0608(4) 0.8995(4) 0.0575(3)
H189 H -0.1111 0.9083 0.0660
H190 H -0.0532 0.9104 0.0216
C173 C -0.0890(3) 0.7824(3) 0.0708(2)
H191 H -0.0861 0.7933 0.0349
H192 H -0.1396 0.7833 0.0832
C174 C -0.0586(3) 0.7150(3) 0.09549(18)
H193 H -0.0793 0.6816 0.0835
H194 H -0.0061 0.7172 0.0874
C175 C -0.0373(3) 0.6433(3) 0.17600(19)
C176 C 0.0067(3) 0.6048(3) 0.1590(2)
H195 H 0.0126 0.6124 0.1249
C177 C 0.0436(3) 0.5536(3) 0.1912(2)
H196 H 0.0756 0.5278 0.1786
C178 C 0.0341(3) 0.5404(3) 0.2409(2)
H197 H 0.0600 0.5062 0.2625
C179 C -0.0148(3) 0.5782(2) 0.2596(2)
C180 C -0.0297(3) 0.5637(3) 0.3105(2)
C181 C -0.0749(3) 0.5995(3) 0.3287(2)
H198 H -0.0847 0.5881 0.3632
C182 C -0.1076(3) 0.6541(3) 0.2962(2)
H199 H -0.1380 0.6810 0.3090
C183 C -0.0968(2) 0.6694(3) 0.24663(19)
H200 H -0.1199 0.7061 0.2251
C184 C -0.0502(2) 0.6295(2) 0.2278(2)
P1 P 0.53015(8) 0.62134(9) 0.35518(6)
F1 F 0.46533(17) 0.57729(18) 0.35133(12)
F2 F 0.47734(18) 0.68018(18) 0.35283(15)
F3 F 0.51811(15) 0.59278(15) 0.41199(10)
F4 F 0.59599(19) 0.6676(2) 0.35765(14)
F5 F 0.58443(19) 0.5645(2) 0.35460(16)
F6 F 0.5427(2) 0.6545(3) 0.29620(14)
P2 P 0.72656(11) 0.99294(11) 0.07353(6)
F7 F 0.7603(3) 1.0568(3) 0.03309(16)
F8 F 0.6837(2) 0.9365(2) 0.11517(12)
F9 F 0.79041(18) 0.9893(2) 0.10659(13)
F10 F 0.6901(3) 1.0451(2) 0.09705(17)
F11 F 0.6600(3) 0.9977(2) 0.04096(14)
F12 F 0.7608(3) 0.9435(3) 0.0506(2)
P3 P 0.05004(8) 0.13807(8) 0.11661(5)
F13 F 0.06251(16) 0.14704(17) 0.06059(10)
F14 F -0.0066(2) 0.1946(2) 0.10531(13)
F15 F 0.1121(2) 0.18906(18) 0.11123(12)
F16 F 0.03653(16) 0.12522(17) 0.17457(10)
F17 F 0.10458(19) 0.07934(18) 0.12967(12)
F18 F -0.01458(18) 0.08596(19) 0.12319(12)
P4 P 0.01175(8) 0.12005(9) 0.35519(6)
F19 F -0.0426(2) 0.0619(3) 0.35763(15)
F20 F -0.05445(18) 0.1665(2) 0.35511(14)
F21 F 0.0169(2) 0.1477(3) 0.29681(13)
F22 F 0.06650(18) 0.17792(18) 0.34994(15)
F23 F 0.07758(17) 0.07385(19) 0.35383(12)
F24 F 0.00746(15) 0.09513(16) 0.41236(10)
P5 P 0.75591(9) 0.16938(9) 0.56810(6)
F25 F 0.78770(17) 0.15236(18) 0.52186(11)
F26 F 0.72371(18) 0.18700(19) 0.61458(11)
F27 F 0.7632(4) 0.1002(2) 0.60082(16)
F28 F 0.7500(5) 0.2437(3) 0.5362(2)
F29 F 0.6811(2) 0.1608(4) 0.5576(2)
F30 F 0.8301(3) 0.1893(4) 0.5746(2)
P6 P 0.27380(9) 0.33196(9) 0.42999(6)
F31 F 0.25583(17) 0.31610(19) 0.38264(11)
F32 F 0.29161(17) 0.34738(18) 0.47746(11)
F33 F 0.1978(2) 0.3206(4) 0.4485(2)
F34 F 0.2684(6) 0.4045(3) 0.4024(2)
F35 F 0.3521(3) 0.3436(7) 0.4109(3)
F36 F 0.2904(6) 0.2608(3) 0.4529(2)
P7 P 0.86319(11) 0.52368(10) 0.06103(6)
F37 F 0.7976(2) 0.5124(2) 0.10064(12)
F38 F 0.8755(2) 0.4457(2) 0.08287(14)
F39 F 0.9102(2) 0.5413(2) 0.09629(13)
F40 F 0.93062(19) 0.5304(2) 0.02276(12)
F41 F 0.8506(3) 0.6018(2) 0.03721(17)
F42 F 0.81223(18) 0.51188(18) 0.02400(11)
P8 P 0.55991(9) 0.63696(8) 0.11718(6)
F43 F 0.6200(2) 0.5842(2) 0.12095(15)
F44 F 0.55880(17) 0.62209(16) 0.17481(11)
F45 F 0.5598(2) 0.65078(19) 0.06015(12)
F46 F 0.5008(2) 0.57996(18) 0.12926(12)
F47 F 0.49988(19) 0.68954(17) 0.11407(13)
F48 F 0.6204(2) 0.69304(19) 0.10616(13)
N1 N 0.6039(2) -0.12456(19) 0.27074(17)
N2 N 0.8650(2) 0.1292(2) 0.21986(16)
N3 N 0.4616(2) 0.4389(2) 0.27081(16)
N4 N 0.2152(2) 0.22536(19) 0.22777(16)
C1 C 0.1681(3) 0.1737(2) 0.2198(2)
H1 H 0.1538 0.1902 0.1859
H2 H 0.1244 0.1644 0.2429
C2 C 0.2103(2) 0.1106(3) 0.2284(2)
C3 C 0.2113(3) 0.0635(3) 0.27600(19)
H3 H 0.1802 0.0679 0.3021
C4 C 0.2576(2) 0.0102(3) 0.2851(2)
H4 H 0.2581 -0.0212 0.3174
C5 C 0.3034(3) 0.0028(2) 0.24676(19)
C6 C 0.3001(3) 0.0488(3) 0.1996(2)
H5 H 0.3309 0.0447 0.1733
C7 C 0.2528(3) 0.1003(3) 0.1906(2)
H6 H 0.2493 0.1292 0.1578
C8 C 0.3592(2) -0.0501(2) 0.2575(2)
C9 C 0.3798(3) -0.0802(2) 0.3041(2)
H7 H 0.3548 -0.0717 0.3309
C10 C 0.4359(3) -0.1223(2) 0.31210(19)
H8 H 0.4494 -0.1426 0.3444
C11 C 0.4736(3) -0.1359(2) 0.2735(2)
C12 C 0.4492(3) -0.1106(3) 0.2271(2)
H9 H 0.4709 -0.1232 0.2011
C13 C 0.3935(3) -0.0672(3) 0.21927(19)
H10 H 0.3782 -0.0486 0.1873
C14 C 0.5427(2) -0.1741(2) 0.28120(19)
H11 H 0.5413 -0.2056 0.3154
H12 H 0.5486 -0.2000 0.2589
C15 C 0.6243(3) -0.1058(3) 0.3076(2)
H13 H 0.6018 -0.1260 0.3399
C16 C 0.6774(3) -0.0579(2) 0.29842(18)
H14 H 0.6915 -0.0451 0.3244
C17 C 0.7111(2) -0.0279(2) 0.25121(19)
C18 C 0.6900(2) -0.0492(2) 0.21487(19)
H15 H 0.7118 -0.0298 0.1823
C19 C 0.6370(3) -0.0989(3) 0.2257(2)
H16 H 0.6242 -0.1146 0.2008
C20 C 0.7666(2) 0.0258(2) 0.23987(18)
C21 C 0.7829(3) 0.0700(3) 0.19229(19)
H17 H 0.7603 0.0643 0.1661
C22 C 0.8321(3) 0.1223(3) 0.1831(2)
H18 H 0.8425 0.1532 0.1507
C23 C 0.8520(3) 0.0873(3) 0.2658(2)
H19 H 0.8761 0.0939 0.2911
C24 C 0.8042(3) 0.0345(3) 0.27681(18)
H20 H 0.7964 0.0038 0.3095
C25 C 0.9101(2) 0.1923(2) 0.21087(19)
H21 H 0.9489 0.1821 0.2329
H22 H 0.9321 0.2090 0.1766
C26 C 0.8635(2) 0.2451(2) 0.2202(2)
C27 C 0.8274(3) 0.2874(2) 0.18316(18)
H23 H 0.8364 0.2870 0.1508
C28 C 0.7785(3) 0.3303(3) 0.19274(19)
H24 H 0.7544 0.3593 0.1667
C29 C 0.7633(2) 0.3322(2) 0.24016(18)
C30 C 0.8026(2) 0.2908(2) 0.27680(18)
H25 H 0.7964 0.2932 0.3088
C31 C 0.8512(2) 0.2458(2) 0.2673(2)
H26 H 0.8753 0.2161 0.2931
C32 C 0.7072(2) 0.3742(2) 0.25176(18)
C33 C 0.6863(2) 0.4313(2) 0.21497(18)
H27 H 0.7114 0.4457 0.1832
C34 C 0.6280(3) 0.4671(2) 0.22539(18)
H28 H 0.6146 0.5063 0.2004
C35 C 0.5898(3) 0.4469(2) 0.27070(19)
C36 C 0.6143(3) 0.3920(3) 0.30787(19)
H29 H 0.5912 0.3790 0.3402
C37 C 0.6711(3) 0.3569(2) 0.29815(18)
H30 H 0.6862 0.3195 0.3239
C38 C 0.5211(2) 0.4800(3) 0.2793(2)
H31 H 0.5152 0.4803 0.3132
H32 H 0.5213 0.5267 0.2562
C39 C 0.4301(2) 0.3880(2) 0.30770(18)
H33 H 0.4415 0.3808 0.3401
C40 C 0.3821(2) 0.3462(2) 0.30011(17)
H34 H 0.3609 0.3096 0.3269
C41 C 0.3639(2) 0.3572(2) 0.25279(18)
C42 C 0.3960(3) 0.4097(3) 0.21502(17)
H35 H 0.3850 0.4178 0.1824
C43 C 0.4441(2) 0.4507(3) 0.22437(19)
H36 H 0.4656 0.4879 0.1982
C44 C 0.3102(2) 0.3110(2) 0.24373(18)
C45 C 0.3105(3) 0.3043(3) 0.19809(19)
H37 H 0.3438 0.3299 0.1719
C46 C 0.2630(3) 0.2610(3) 0.1908(2)
H38 H 0.2637 0.2560 0.1597
C47 C 0.2140(2) 0.2309(2) 0.27212(19)
H39 H 0.1805 0.2044 0.2979
C48 C 0.2606(2) 0.2743(2) 0.28096(18)
H40 H 0.2584 0.2789 0.3122
loop_
_geom_bond_atom_site_label_1
_geom_bond_atom_site_label_2
_geom_bond_site_symmetry_1
_geom_bond_site_symmetry_2
N1 C14 1_555 1_555
N2 C22 1_555 1_555
N3 C38 1_555 1_555
N4 C1 1_555 1_555
C1 H1 1_555 1_555
H2 C1 1_555 1_555
C2 C1 1_555 1_555
C3 C2 1_555 1_555
H3 C3 1_555 1_555
C4 C3 1_555 1_555
H4 C4 1_555 1_555
C5 C4 1_555 1_555
C6 C5 1_555 1_555
H5 C6 1_555 1_555
C7 C2 1_555 1_555
H6 C7 1_555 1_555
C8 C5 1_555 1_555
C9 C8 1_555 1_555
H7 C9 1_555 1_555
C10 C9 1_555 1_555
H8 C10 1_555 1_555
C11 C10 1_555 1_555
C12 C11 1_555 1_555
H9 C12 1_555 1_555
C13 C8 1_555 1_555
H10 C13 1_555 1_555
C14 C11 1_555 1_555
H11 C14 1_555 1_555
H12 C14 1_555 1_555
C15 N1 1_555 1_555
H13 C15 1_555 1_555
C16 C15 1_555 1_555
H14 C16 1_555 1_555
C17 C16 1_555 1_555
C18 C17 1_555 1_555
H15 C18 1_555 1_555
C19 N1 1_555 1_555
H16 C19 1_555 1_555
C20 C17 1_555 1_555
C21 C20 1_555 1_555
H17 C21 1_555 1_555
C22 C21 1_555 1_555
H18 C22 1_555 1_555
C23 N2 1_555 1_555
H19 C23 1_555 1_555
C24 C20 1_555 1_555
H20 C24 1_555 1_555
C25 N2 1_555 1_555
H21 C25 1_555 1_555
H22 C25 1_555 1_555
C26 C25 1_555 1_555
C27 C26 1_555 1_555
H23 C27 1_555 1_555
C28 C27 1_555 1_555
H24 C28 1_555 1_555
C29 C28 1_555 1_555
C30 C29 1_555 1_555
H25 C30 1_555 1_555
C31 C26 1_555 1_555
H26 C31 1_555 1_555
C32 C29 1_555 1_555
C33 C32 1_555 1_555
H27 C33 1_555 1_555
C34 C33 1_555 1_555
H28 C34 1_555 1_555
C35 C34 1_555 1_555
C36 C35 1_555 1_555
H29 C36 1_555 1_555
C37 C32 1_555 1_555
H30 C37 1_555 1_555
C38 C35 1_555 1_555
H31 C38 1_555 1_555
H32 C38 1_555 1_555
C39 N3 1_555 1_555
H33 C39 1_555 1_555
C40 C39 1_555 1_555
H34 C40 1_555 1_555
C41 C40 1_555 1_555
C42 C41 1_555 1_555
H35 C42 1_555 1_555
C43 N3 1_555 1_555
H36 C43 1_555 1_555
C44 C41 1_555 1_555
C45 C44 1_555 1_555
H37 C45 1_555 1_555
C46 N4 1_555 1_555
H38 C46 1_555 1_555
C47 N4 1_555 1_555
H39 C47 1_555 1_555
C48 C44 1_555 1_555
H40 C48 1_555 1_555
O1 C49 1_555 1_555
O2 C50 1_555 1_555
O3 C52 1_555 1_555
O4 C54 1_555 1_555
O5 C56 1_555 1_555
O6 C58 1_555 1_555
O7 C60 1_555 1_555
O8 C66 1_555 1_555
O9 C72 1_555 1_555
O10 C74 1_555 1_555
O11 C76 1_555 1_555
O12 C78 1_555 1_555
O13 C80 1_555 1_555
O14 C82 1_555 1_555
C49 H41 1_555 1_555
H42 C49 1_555 1_555
C50 C49 1_555 1_555
H43 C50 1_555 1_555
H44 C50 1_555 1_555
C51 O2 1_555 1_555
H45 C51 1_555 1_555
H46 C51 1_555 1_555
C52 C51 1_555 1_555
H47 C52 1_555 1_555
H48 C52 1_555 1_555
C53 O3 1_555 1_555
H49 C53 1_555 1_555
H50 C53 1_555 1_555
C54 C53 1_555 1_555
H51 C54 1_555 1_555
H52 C54 1_555 1_555
C55 O4 1_555 1_555
H53 C55 1_555 1_555
H54 C55 1_555 1_555
C56 C55 1_555 1_555
H55 C56 1_555 1_555
H56 C56 1_555 1_555
C57 O5 1_555 1_555
H57 C57 1_555 1_555
H58 C57 1_555 1_555
C58 C57 1_555 1_555
H59 C58 1_555 1_555
H60 C58 1_555 1_555
C59 O6 1_555 1_555
H61 C59 1_555 1_555
H62 C59 1_555 1_555
C60 C59 1_555 1_555
H63 C60 1_555 1_555
H64 C60 1_555 1_555
C61 O7 1_555 1_555
C62 C61 1_555 1_555
H65 C62 1_555 1_555
C63 C62 1_555 1_555
H66 C63 1_555 1_555
C64 C63 1_555 1_555
H67 C64 1_555 1_555
C65 C64 1_555 1_555
C66 C65 1_555 1_555
C67 C66 1_555 1_555
H68 C67 1_555 1_555
C68 C67 1_555 1_555
H69 C68 1_555 1_555
C69 C68 1_555 1_555
H70 C69 1_555 1_555
C70 C61 1_555 1_555
C71 O8 1_555 1_555
H71 C71 1_555 1_555
H72 C71 1_555 1_555
C72 C71 1_555 1_555
H73 C72 1_555 1_555
H74 C72 1_555 1_555
C73 O9 1_555 1_555
H75 C73 1_555 1_555
H76 C73 1_555 1_555
C74 C73 1_555 1_555
H77 C74 1_555 1_555
H78 C74 1_555 1_555
C75 O10 1_555 1_555
H79 C75 1_555 1_555
H80 C75 1_555 1_555
C76 C75 1_555 1_555
H81 C76 1_555 1_555
H82 C76 1_555 1_555
C77 O11 1_555 1_555
H83 C77 1_555 1_555
H84 C77 1_555 1_555
C78 C77 1_555 1_555
H85 C78 1_555 1_555
H86 C78 1_555 1_555
C79 O12 1_555 1_555
H87 C79 1_555 1_555
H88 C79 1_555 1_555
C80 C79 1_555 1_555
H89 C80 1_555 1_555
H90 C80 1_555 1_555
C81 O13 1_555 1_555
H91 C81 1_555 1_555
H92 C81 1_555 1_555
C82 C81 1_555 1_555
H93 C82 1_555 1_555
H94 C82 1_555 1_555
C83 O14 1_555 1_555
C84 C83 1_555 1_555
C85 C84 1_555 1_555
H95 C85 1_555 1_555
C86 C85 1_555 1_555
H96 C86 1_555 1_555
C87 C86 1_555 1_555
H97 C87 1_555 1_555
C88 O1 1_555 1_555
C89 C84 1_555 1_555
C90 C89 1_555 1_555
H98 C90 1_555 1_555
C91 C90 1_555 1_555
H99 C91 1_555 1_555
C92 C83 1_555 1_555
H100 C92 1_555 1_555
N5 C93 1_555 1_555
N6 C100 1_555 1_555
N7 C116 1_555 1_555
N8 C124 1_555 1_555
C93 H101 1_555 1_555
C94 C93 1_555 1_555
H102 C94 1_555 1_555
C95 C94 1_555 1_555
C96 C95 1_555 1_555
H103 C96 1_555 1_555
C97 N5 1_555 1_555
H104 C97 1_555 1_555
C98 C95 1_555 1_555
C99 C98 1_555 1_555
H105 C99 1_555 1_555
C100 C99 1_555 1_555
H106 C100 1_555 1_555
C101 N6 1_555 1_555
H107 C101 1_555 1_555
C102 C98 1_555 1_555
H108 C102 1_555 1_555
C103 N6 1_555 1_555
H109 C103 1_555 1_555
H110 C103 1_555 1_555
C104 C103 1_555 1_555
C105 C104 1_555 1_555
H111 C105 1_555 1_555
C106 C105 1_555 1_555
H112 C106 1_555 1_555
C107 C106 1_555 1_555
C108 C107 1_555 1_555
H113 C108 1_555 1_555
C109 C104 1_555 1_555
H114 C109 1_555 1_555
C110 C107 1_555 1_555
C111 C110 1_555 1_555
H115 C111 1_555 1_555
C112 C111 1_555 1_555
H116 C112 1_555 1_555
C113 C112 1_555 1_555
C114 C113 1_555 1_555
H117 C114 1_555 1_555
C115 C110 1_555 1_555
H118 C115 1_555 1_555
C116 C113 1_555 1_555
H119 C116 1_555 1_555
H120 C116 1_555 1_555
C117 N7 1_555 1_555
H121 C117 1_555 1_555
C118 C117 1_555 1_555
H122 C118 1_555 1_555
C119 C118 1_555 1_555
C120 C119 1_555 1_555
H123 C120 1_555 1_555
C121 N7 1_555 1_555
H124 C121 1_555 1_555
C122 C119 1_555 1_555
C123 C122 1_555 1_555
H125 C123 1_555 1_555
C124 C123 1_555 1_555
H126 C124 1_555 1_555
C125 N8 1_555 1_555
H127 C125 1_555 1_555
C126 C122 1_555 1_555
H128 C126 1_555 1_555
C127 N8 1_555 1_555
H129 C127 1_555 1_555
H130 C127 1_555 1_555
C128 C127 1_555 1_555
C129 C128 1_555 1_555
H131 C129 1_555 1_555
C130 C129 1_555 1_555
H132 C130 1_555 1_555
C131 C130 1_555 1_555
C132 C131 1_555 1_555
H133 C132 1_555 1_555
C133 C128 1_555 1_555
H134 C133 1_555 1_555
C134 C131 1_555 1_555
C135 C134 1_555 1_555
H135 C135 1_555 1_555
C136 C135 1_555 1_555
H136 C136 1_555 1_555
C137 C136 1_555 1_555
C138 C137 1_555 1_555
H137 C138 1_555 1_555
C139 C134 1_555 1_555
H138 C139 1_555 1_555
C140 N5 1_555 1_555
H139 C140 1_555 1_555
H140 C140 1_555 1_555
O15 C141 1_555 1_555
O16 C142 1_555 1_555
O17 C144 1_555 1_555
O18 C146 1_555 1_555
O19 C148 1_555 1_555
O20 C150 1_555 1_555
O21 C152 1_555 1_555
O22 C158 1_555 1_555
O23 C164 1_555 1_555
O24 C166 1_555 1_555
O25 C168 1_555 1_555
O26 C170 1_555 1_555
O27 C172 1_555 1_555
O28 C174 1_555 1_555
C141 H141 1_555 1_555
H142 C141 1_555 1_555
C142 C141 1_555 1_555
H143 C142 1_555 1_555
H144 C142 1_555 1_555
C143 O16 1_555 1_555
H145 C143 1_555 1_555
H146 C143 1_555 1_555
C144 C143 1_555 1_555
H147 C144 1_555 1_555
H148 C144 1_555 1_555
C145 O17 1_555 1_555
H149 C145 1_555 1_555
H150 C145 1_555 1_555
C146 C145 1_555 1_555
H151 C146 1_555 1_555
H152 C146 1_555 1_555
C147 O18 1_555 1_555
H153 C147 1_555 1_555
H154 C147 1_555 1_555
C148 C147 1_555 1_555
H155 C148 1_555 1_555
H156 C148 1_555 1_555
C149 O19 1_555 1_555
H157 C149 1_555 1_555
H158 C149 1_555 1_555
C150 C149 1_555 1_555
H159 C150 1_555 1_555
H160 C150 1_555 1_555
C151 O20 1_555 1_555
H161 C151 1_555 1_555
H162 C151 1_555 1_555
C152 C151 1_555 1_555
H163 C152 1_555 1_555
H164 C152 1_555 1_555
C153 O21 1_555 1_555
C154 C153 1_555 1_555
H165 C154 1_555 1_555
C155 C154 1_555 1_555
H166 C155 1_555 1_555
C156 C155 1_555 1_555
H167 C156 1_555 1_555
C157 C156 1_555 1_555
C158 C157 1_555 1_555
C159 C158 1_555 1_555
H168 C159 1_555 1_555
C160 C159 1_555 1_555
H169 C160 1_555 1_555
C161 C160 1_555 1_555
H170 C161 1_555 1_555
C162 C153 1_555 1_555
C163 O22 1_555 1_555
H171 C163 1_555 1_555
H172 C163 1_555 1_555
C164 C163 1_555 1_555
H173 C164 1_555 1_555
H174 C164 1_555 1_555
C165 O23 1_555 1_555
H175 C165 1_555 1_555
H176 C165 1_555 1_555
C166 C165 1_555 1_555
H177 C166 1_555 1_555
H178 C166 1_555 1_555
C167 O24 1_555 1_555
H179 C167 1_555 1_555
H180 C167 1_555 1_555
C168 C167 1_555 1_555
H181 C168 1_555 1_555
H182 C168 1_555 1_555
C169 O25 1_555 1_555
H183 C169 1_555 1_555
H184 C169 1_555 1_555
C170 C169 1_555 1_555
H185 C170 1_555 1_555
H186 C170 1_555 1_555
C171 O26 1_555 1_555
H187 C171 1_555 1_555
H188 C171 1_555 1_555
C172 C171 1_555 1_555
H189 C172 1_555 1_555
H190 C172 1_555 1_555
C173 O27 1_555 1_555
H191 C173 1_555 1_555
H192 C173 1_555 1_555
C174 C173 1_555 1_555
H193 C174 1_555 1_555
H194 C174 1_555 1_555
C175 O28 1_555 1_555
C176 C175 1_555 1_555
H195 C176 1_555 1_555
C177 C176 1_555 1_555
H196 C177 1_555 1_555
C178 C177 1_555 1_555
H197 C178 1_555 1_555
C179 C178 1_555 1_555
C180 O15 1_555 1_555
C181 C180 1_555 1_555
H198 C181 1_555 1_555
C182 C181 1_555 1_555
H199 C182 1_555 1_555
C183 C182 1_555 1_555
H200 C183 1_555 1_555
C184 C175 1_555 1_555
P1 F1 1_555 1_555
F2 P1 1_555 1_555
F3 P1 1_555 1_555
F4 P1 1_555 1_555
F5 P1 1_555 1_555
F6 P1 1_555 1_555
P2 F7 1_555 1_555
F8 P2 1_555 1_555
F9 P2 1_555 1_555
F10 P2 1_555 1_555
F11 P2 1_555 1_555
F12 P2 1_555 1_555
P3 F13 1_555 1_555
F14 P3 1_555 1_555
F15 P3 1_555 1_555
F16 P3 1_555 1_555
F17 P3 1_555 1_555
F18 P3 1_555 1_555
P4 F19 1_555 1_555
F20 P4 1_555 1_555
F21 P4 1_555 1_555
F22 P4 1_555 1_555
F23 P4 1_555 1_555
F24 P4 1_555 1_555
P5 F25 1_555 1_555
F26 P5 1_555 1_555
F27 P5 1_555 1_555
F28 P5 1_555 1_555
F29 P5 1_555 1_555
F30 P5 1_555 1_555
P6 F31 1_555 1_555
F32 P6 1_555 1_555
F33 P6 1_555 1_555
F34 P6 1_555 1_555
F35 P6 1_555 1_555
F36 P6 1_555 1_555
P7 F37 1_555 1_555
F38 P7 1_555 1_555
F39 P7 1_555 1_555
F40 P7 1_555 1_555
F41 P7 1_555 1_555
F42 P7 1_555 1_555
P8 F43 1_555 1_555
F44 P8 1_555 1_555
F45 P8 1_555 1_555
F46 P8 1_555 1_555
F47 P8 1_555 1_555
F48 P8 1_555 1_555
C6 C7 1_555 1_555
C12 C13 1_555 1_555
C18 C19 1_555 1_555
C23 C24 1_555 1_555
C30 C31 1_555 1_555
C36 C37 1_555 1_555
C42 C43 1_555 1_555
C45 C46 1_555 1_555
C47 C48 1_555 1_555
C65 C70 1_555 1_555
C69 C70 1_555 1_555
C87 C88 1_555 1_555
C88 C89 1_555 1_555
C91 C92 1_555 1_555
C96 C97 1_555 1_555
C101 C102 1_555 1_555
C108 C109 1_555 1_555
C114 C115 1_555 1_555
C120 C121 1_555 1_555
C125 C126 1_555 1_555
C132 C133 1_555 1_555
C137 C140 1_555 1_555
C138 C139 1_555 1_555
C157 C162 1_555 1_555
C161 C162 1_555 1_555
C179 C180 1_555 1_555
C179 C184 1_555 1_555
C183 C184 1_555 1_555

#END
