
#######################################################################
#
#                 Cambridge Crystallographic Data Centre
#                                CCDC 
#
#######################################################################
#
# If this CIF has been generated from an entry in the Cambridge 
# Structural Database, then it will include bibliographic, chemical, 
# crystal, experimental, refinement or atomic coordinate data resulting 
# from the CCDC's data processing and validation procedures.
#
#######################################################################

data_TASXAO
_chemical_formula_moiety         
'2(C14 H16 N1 1+),C44 H60 O14,2(F6 P1 1-),0.5(C1 H3 N1 O2)'
_chemical_name_systematic        
'[3]-bis(Dibenzylammonium)-(2,5,8,11,14,17,20,22,25,28,31,34,37,40-tetradecaoxa-1,21(1,5)-dinaphthalenacyclotetracontaphane)-pseudorotaxane bis(hexafluorophosphate) nitromethane solvate'
_symmetry_cell_setting           monoclinic
_symmetry_space_group_name_H-M   'P 21/c'
_symmetry_Int_Tables_number      14
_space_group_name_Hall           '-P 2ybc'
loop_
_symmetry_equiv_pos_site_id
_symmetry_equiv_pos_as_xyz
1 x,y,z
2 -x,1/2+y,1/2-z
3 -x,-y,-z
4 x,1/2-y,1/2+z
_cell_length_a                   11.514(2)
_cell_length_b                   18.767(3)
_cell_length_c                   20.245(4)
_cell_angle_alpha                90
_cell_angle_beta                 120.553(7)
_cell_angle_gamma                90
_cell_volume                     3767.23
_cell_formula_units_Z            2
loop_
_atom_site_label
_atom_site_type_symbol
_atom_site_fract_x
_atom_site_fract_y
_atom_site_fract_z
N1 N 0.1505(5) 0.9262(2) 0.3414(3)
C23 C 0.1180(6) 0.8627(3) 0.2900(4)
H28 H 0.1214 0.8766 0.2449
H29 H 0.1861 0.8264 0.3168
C24 C -0.0176(7) 0.8321(3) 0.2656(4)
C25 C -0.0313(8) 0.7684(3) 0.2940(5)
H30 H 0.0449 0.7442 0.3306
C26 C -0.1596(9) 0.7395(4) 0.2682(5)
H31 H -0.1673 0.6963 0.2881
C27 C -0.2714(9) 0.7731(4) 0.2155(6)
H32 H -0.3562 0.7548 0.2009
C28 C -0.2584(8) 0.8359(4) 0.1830(6)
H33 H -0.3341 0.8585 0.1440
C29 C -0.1349(7) 0.8632(4) 0.2088(5)
H34 H -0.1280 0.9056 0.1873
C30 C 0.2918(6) 0.9524(3) 0.3754(4)
H35 H 0.3107 0.9630 0.3350
H36 H 0.3542 0.9158 0.4080
C31 C 0.3101(6) 1.0183(3) 0.4219(4)
C32 C 0.2954(6) 1.0849(3) 0.3905(4)
H37 H 0.2807 1.0894 0.3411
C33 C 0.3023(7) 1.1454(4) 0.4314(5)
H38 H 0.2947 1.1903 0.4102
C34 C 0.3203(6) 1.1387(3) 0.5039(4)
H39 H 0.3185 1.1788 0.5302
C35 C 0.3416(7) 1.0709(3) 0.5378(5)
H40 H 0.3602 1.0663 0.5880
C36 C 0.3348(6) 1.0126(3) 0.4968(4)
H41 H 0.3468 0.9678 0.5189
P1 P 0.4912(2) 0.92794(10) 0.74198(14)
F1 F 0.5756(5) 0.8621(2) 0.7414(4)
F2 F 0.4146(8) 0.9349(3) 0.6533(4)
F3 F 0.4058(5) 0.9959(3) 0.7410(4)
F4 F 0.5605(6) 0.9252(4) 0.8301(4)
F5 F 0.3751(5) 0.8768(2) 0.7348(4)
F6 F 0.6052(5) 0.9803(2) 0.7491(3)
O1 O -0.0192(5) 1.0843(2) 0.0501(3)
O2 O 0.0656(4) 1.0303(2) 0.2100(3)
O3 O -0.0645(4) 1.0262(2) 0.2930(3)
O4 O 0.0243(5) 0.93590(19) 0.4299(3)
O5 O 0.2051(5) 0.8187(2) 0.4695(3)
O6 O 0.3773(5) 0.7687(2) 0.4143(3)
O7 O -0.3109(5) 1.2285(2) -0.2536(3)
C1 C -0.0283(7) 1.1287(3) -0.0073(4)
C2 C 0.0902(7) 1.1600(4) -0.0001(4)
H1 H 0.1759 1.1517 0.0417
C3 C 0.0659(7) 1.2052(3) -0.0628(4)
H2 H 0.1392 1.2284 -0.0606
C4 C -0.0558(7) 1.2159(3) -0.1242(5)
H3 H -0.0654 1.2456 -0.1634
C5 C -0.1713(7) 1.1819(3) -0.1298(4)
C6 C -0.3002(7) 1.1893(3) -0.1938(5)
C7 C -0.4130(7) 1.1546(4) -0.1979(4)
H4 H -0.4988 1.1591 -0.2408
C8 C -0.3895(8) 1.1124(4) -0.1335(5)
H5 H -0.4618 1.0891 -0.1347
C9 C -0.2706(7) 1.1055(3) -0.0737(5)
H6 H -0.2594 1.0778 -0.0328
C10 C -0.1568(7) 1.1396(3) -0.0692(4)
C11 C 0.1070(7) 1.0551(4) 0.1053(4)
H7 H 0.1654 1.0925 0.1388
H8 H 0.1502 1.0335 0.0798
C12 C 0.0849(8) 1.0010(4) 0.1506(5)
H9 H 0.0063 0.9729 0.1163
H10 H 0.1620 0.9691 0.1739
C13 C -0.0608(7) 1.0672(3) 0.1830(5)
H11 H -0.1357 1.0363 0.1500
H12 H -0.0648 1.1092 0.1540
C14 C -0.0683(7) 1.0881(4) 0.2522(4)
H13 H 0.0070 1.1189 0.2849
H14 H -0.1512 1.1141 0.2364
C15 C -0.0702(7) 1.0434(3) 0.3612(4)
H15 H -0.1407 1.0781 0.3490
H16 H 0.0151 1.0635 0.4002
C16 C -0.0993(6) 0.9757(3) 0.3905(4)
H17 H -0.1315 0.9869 0.4252
H18 H -0.1680 0.9481 0.3481
C17 C 0.0086(8) 0.8690(3) 0.4606(5)
H19 H -0.0385 0.8769 0.4883
H20 H -0.0439 0.8359 0.4190
C18 C 0.1393(8) 0.8398(4) 0.5111(5)
H21 H 0.1771 0.8351 0.5638
C19 C 0.3345(8) 0.7894(4) 0.5169(5)
H22 H 0.3921 0.8024 0.5678
C20 C 0.3673(7) 0.7347(4) 0.4753(4)
H23 H 0.4520 0.7116 0.5106
H24 H 0.2973 0.6986 0.4540
C21 C 0.4267(8) 0.7221(3) 0.3794(5)
H25 H 0.3646 0.6826 0.3553
H26 H 0.5135 0.7029 0.4176
C22 C -0.4405(8) 1.2377(4) -0.3212(5)
H27 H -0.5214 1.2207 -0.3275
O1B O 0.0192(5) 0.9157(2) -0.0501(3)
O2B O -0.0656(4) 0.9697(2) -0.2100(3)
O3B O 0.0645(4) 0.9738(2) -0.2930(3)
O4B O -0.0243(5) 1.06410(19) -0.4299(3)
O5B O -0.2051(5) 1.1813(2) -0.4695(3)
O6B O -0.3773(5) 1.2313(2) -0.4143(3)
O7B O 0.3109(5) 0.7715(2) 0.2536(3)
C1B C 0.0283(7) 0.8713(3) 0.0073(4)
C2B C -0.0902(7) 0.8400(4) 0.0001(4)
H1B H -0.1759 0.8483 -0.0417
C3B C -0.0659(7) 0.7948(3) 0.0628(4)
H2B H -0.1392 0.7716 0.0606
C4B C 0.0558(7) 0.7841(3) 0.1242(5)
H3B H 0.0654 0.7544 0.1634
C5B C 0.1713(7) 0.8181(3) 0.1298(4)
C6B C 0.3002(7) 0.8107(3) 0.1938(5)
C7B C 0.4130(7) 0.8454(4) 0.1979(4)
H4B H 0.4988 0.8409 0.2408
C8B C 0.3895(8) 0.8876(4) 0.1335(5)
H5B H 0.4618 0.9109 0.1347
C9B C 0.2706(7) 0.8945(3) 0.0737(5)
H6B H 0.2594 0.9222 0.0328
C10B C 0.1568(7) 0.8604(3) 0.0692(4)
C11B C -0.1070(7) 0.9449(4) -0.1053(4)
H7B H -0.1654 0.9075 -0.1388
H8B H -0.1502 0.9665 -0.0798
C12B C -0.0849(8) 0.9990(4) -0.1506(5)
H9B H -0.0063 1.0271 -0.1163
H10B H -0.1620 1.0309 -0.1739
C13B C 0.0608(7) 0.9328(3) -0.1830(5)
H11B H 0.1357 0.9637 -0.1500
H12B H 0.0648 0.8908 -0.1540
C14B C 0.0683(7) 0.9119(4) -0.2522(4)
H13B H -0.0070 0.8811 -0.2849
H14B H 0.1512 0.8859 -0.2364
C15B C 0.0702(7) 0.9566(3) -0.3612(4)
H15B H 0.1407 0.9219 -0.3490
H16B H -0.0151 0.9365 -0.4002
C16B C 0.0993(6) 1.0243(3) -0.3905(4)
H17B H 0.1315 1.0131 -0.4252
H18B H 0.1680 1.0519 -0.3481
C17B C -0.0086(8) 1.1310(3) -0.4606(5)
H19B H 0.0385 1.1231 -0.4883
H20B H 0.0439 1.1641 -0.4190
C18B C -0.1393(8) 1.1602(4) -0.5111(5)
H21B H -0.1771 1.1649 -0.5638
C19B C -0.3345(8) 1.2106(4) -0.5169(5)
H22B H -0.3921 1.1976 -0.5678
C20B C -0.3673(7) 1.2653(4) -0.4753(4)
H23B H -0.4520 1.2884 -0.5106
H24B H -0.2973 1.3014 -0.4540
C21B C -0.4267(8) 1.2779(3) -0.3794(5)
H25B H -0.3646 1.3174 -0.3553
H26B H -0.5135 1.2971 -0.4176
C22B C 0.4405(8) 0.7623(4) 0.3212(5)
H27B H 0.5214 0.7793 0.3275
loop_
_geom_bond_atom_site_label_1
_geom_bond_atom_site_label_2
_geom_bond_site_symmetry_1
_geom_bond_site_symmetry_2
O1 C1 1_555 1_555
O2 C12 1_555 1_555
O3 C14 1_555 1_555
O4 C16 1_555 1_555
O5 C18 1_555 1_555
O6 C20 1_555 1_555
O7 C6 1_555 1_555
N1 C23 1_555 1_555
C1 C2 1_555 1_555
C2 H1 1_555 1_555
C3 C2 1_555 1_555
H2 C3 1_555 1_555
C4 C3 1_555 1_555
H3 C4 1_555 1_555
C5 C4 1_555 1_555
C6 C5 1_555 1_555
C7 C6 1_555 1_555
H4 C7 1_555 1_555
C8 C7 1_555 1_555
H5 C8 1_555 1_555
C9 C8 1_555 1_555
H6 C9 1_555 1_555
C10 C1 1_555 1_555
C11 O1 1_555 1_555
H7 C11 1_555 1_555
H8 C11 1_555 1_555
C12 C11 1_555 1_555
H9 C12 1_555 1_555
H10 C12 1_555 1_555
C13 O2 1_555 1_555
H11 C13 1_555 1_555
H12 C13 1_555 1_555
C14 C13 1_555 1_555
H13 C14 1_555 1_555
H14 C14 1_555 1_555
C15 O3 1_555 1_555
H15 C15 1_555 1_555
H16 C15 1_555 1_555
C16 C15 1_555 1_555
H17 C16 1_555 1_555
H18 C16 1_555 1_555
C17 O4 1_555 1_555
H19 C17 1_555 1_555
H20 C17 1_555 1_555
C18 C17 1_555 1_555
H21 C18 1_555 1_555
C19 O5 1_555 1_555
H22 C19 1_555 1_555
C20 C19 1_555 1_555
H23 C20 1_555 1_555
H24 C20 1_555 1_555
C21 O6 1_555 1_555
H25 C21 1_555 1_555
H26 C21 1_555 1_555
C22 O7 1_555 1_555
H27 C22 1_555 1_555
C23 H28 1_555 1_555
H29 C23 1_555 1_555
C24 C23 1_555 1_555
C25 C24 1_555 1_555
H30 C25 1_555 1_555
C26 C25 1_555 1_555
H31 C26 1_555 1_555
C27 C26 1_555 1_555
H32 C27 1_555 1_555
C28 C27 1_555 1_555
H33 C28 1_555 1_555
C29 C24 1_555 1_555
H34 C29 1_555 1_555
C30 N1 1_555 1_555
H35 C30 1_555 1_555
H36 C30 1_555 1_555
C31 C30 1_555 1_555
C32 C31 1_555 1_555
H37 C32 1_555 1_555
C33 C32 1_555 1_555
H38 C33 1_555 1_555
C34 C33 1_555 1_555
H39 C34 1_555 1_555
C35 C34 1_555 1_555
H40 C35 1_555 1_555
C36 C31 1_555 1_555
H41 C36 1_555 1_555
P1 F1 1_555 1_555
F2 P1 1_555 1_555
F3 P1 1_555 1_555
F4 P1 1_555 1_555
F5 P1 1_555 1_555
F6 P1 1_555 1_555
O1B C1B 1_555 1_555
O2B C12B 1_555 1_555
O3B C14B 1_555 1_555
O4B C16B 1_555 1_555
O5B C18B 1_555 1_555
O6B C20B 1_555 1_555
O7B C6B 1_555 1_555
C1B C2B 1_555 1_555
C2B H1B 1_555 1_555
C3B C2B 1_555 1_555
H2B C3B 1_555 1_555
C4B C3B 1_555 1_555
H3B C4B 1_555 1_555
C5B C4B 1_555 1_555
C6B C5B 1_555 1_555
C7B C6B 1_555 1_555
H4B C7B 1_555 1_555
C8B C7B 1_555 1_555
H5B C8B 1_555 1_555
C9B C8B 1_555 1_555
H6B C9B 1_555 1_555
C10B C1B 1_555 1_555
C11B O1B 1_555 1_555
H7B C11B 1_555 1_555
H8B C11B 1_555 1_555
C12B C11B 1_555 1_555
H9B C12B 1_555 1_555
H10B C12B 1_555 1_555
C13B O2B 1_555 1_555
H11B C13B 1_555 1_555
H12B C13B 1_555 1_555
C14B C13B 1_555 1_555
H13B C14B 1_555 1_555
H14B C14B 1_555 1_555
C15B O3B 1_555 1_555
H15B C15B 1_555 1_555
H16B C15B 1_555 1_555
C16B C15B 1_555 1_555
H17B C16B 1_555 1_555
H18B C16B 1_555 1_555
C17B O4B 1_555 1_555
H19B C17B 1_555 1_555
H20B C17B 1_555 1_555
C18B C17B 1_555 1_555
H21B C18B 1_555 1_555
C19B O5B 1_555 1_555
H22B C19B 1_555 1_555
C20B C19B 1_555 1_555
H23B C20B 1_555 1_555
H24B C20B 1_555 1_555
C21B C22 1_555 1_555
H25B C21B 1_555 1_555
H26B C21B 1_555 1_555
C22B C21 1_555 1_555
H27B C22B 1_555 1_555
C5 C10 1_555 1_555
C9 C10 1_555 1_555
C28 C29 1_555 1_555
C35 C36 1_555 1_555
O6B C21B 1_555 1_555
O7B C22B 1_555 1_555
C5B C10B 1_555 1_555
C9B C10B 1_555 1_555

#END
