
#######################################################################
#
#                 Cambridge Crystallographic Data Centre
#                                CCDC 
#
#######################################################################
#
# If this CIF has been generated from an entry in the Cambridge 
# Structural Database, then it will include bibliographic, chemical, 
# crystal, experimental, refinement or atomic coordinate data resulting 
# from the CCDC's data processing and validation procedures.
#
#######################################################################

data_TATDUP
_chemical_formula_moiety         'C32 H38 Br1 N3 O2'
_chemical_name_systematic        
N-((6-Bromo-2-methoxyquinolin-3-yl)(phenyl)methyl)-N-(1-adamantyl)-3-(dimethylamino)propanamide
_chemical_properties_biological  'Anti-tubercular activity'
_symmetry_cell_setting           monoclinic
_symmetry_space_group_name_H-M   'P 21/c'
_symmetry_Int_Tables_number      14
_space_group_name_Hall           '-P 2ybc'
loop_
_symmetry_equiv_pos_site_id
_symmetry_equiv_pos_as_xyz
1 x,y,z
2 -x,1/2+y,1/2-z
3 -x,-y,-z
4 x,1/2-y,1/2+z
_cell_length_a                   10.760(5)
_cell_length_b                   14.768(5)
_cell_length_c                   19.635(5)
_cell_angle_alpha                90
_cell_angle_beta                 113.969(16)
_cell_angle_gamma                90
_cell_volume                     2851.02
_exptl_crystal_colour            colorless
_exptl_crystal_description       block
_cell_formula_units_Z            4
_exptl_crystal_recrystallization_method acetonitrile/methanol
loop_
_atom_site_label
_atom_site_type_symbol
_atom_site_fract_x
_atom_site_fract_y
_atom_site_fract_z
Br1 Br 0.68124(8) 1.03713(5) 1.13698(4)
O1 O 0.3093(4) 0.5545(2) 1.10142(19)
O2 O -0.0482(4) 0.7683(3) 0.80794(19)
N1 N 0.4803(4) 0.6593(2) 1.1416(2)
N2 N 0.0476(4) 0.7221(2) 0.92857(19)
N3 N 0.2783(5) 0.6505(3) 0.7686(2)
C1 C 0.4911(5) 0.8959(3) 1.0820(3)
H1 H 0.4381 0.9383 1.0473
C2 C 0.6172(5) 0.9187(3) 1.1347(3)
C3 C 0.6995(5) 0.8584(4) 1.1863(3)
H2 H 0.7853 0.8761 1.2202
C4 C 0.6543(5) 0.7717(3) 1.1875(3)
H3 H 0.7099 0.7306 1.2225
C5 C 0.5253(5) 0.7447(3) 1.1363(2)
C6 C 0.4439(5) 0.8068(3) 1.0818(2)
C7 C 0.3165(5) 0.7745(3) 1.0288(2)
H4 H 0.2616 0.8131 0.9912
C8 C 0.2737(4) 0.6894(3) 1.0319(2)
C9 C 0.3617(5) 0.6353(3) 1.0941(2)
C10 C 0.3936(7) 0.5002(5) 1.1648(4)
H5 H 0.3474 0.4449 1.1653
H6 H 0.4115 0.5333 1.2099
H7 H 0.4780 0.4867 1.1612
C11 C 0.1412(4) 0.6507(3) 0.9779(2)
H8 H 0.0957 0.6314 1.0097
C12 C 0.1410(5) 0.5664(3) 0.9342(3)
C13 C 0.2580(6) 0.5298(3) 0.9328(3)
H9 H 0.3420 0.5555 0.9616
C14 C 0.2505(7) 0.4552(4) 0.8889(4)
H10 H 0.3298 0.4309 0.8883
C15 C 0.1264(8) 0.4161(4) 0.8459(3)
H11 H 0.1216 0.3670 0.8153
C16 C 0.0131(8) 0.4499(4) 0.8488(4)
H12 H -0.0707 0.4235 0.8206
C17 C 0.0204(6) 0.5248(3) 0.8941(3)
H13 H -0.0586 0.5464 0.8969
C18 C 0.0496(5) 0.7372(3) 0.8593(3)
C19 C 0.1793(5) 0.7219(3) 0.8484(3)
H14 H 0.2447 0.6909 0.8916
H15 H 0.2178 0.7800 0.8443
C20 C 0.1548(5) 0.6659(3) 0.7787(3)
H16 H 0.1154 0.6080 0.7825
H17 H 0.0901 0.6971 0.7353
C21 C 0.3296(8) 0.7315(6) 0.7481(4)
H18 H 0.4067 0.7165 0.7374
H19 H 0.3565 0.7740 0.7885
H20 H 0.2598 0.7577 0.7047
C22 C 0.2602(8) 0.5815(5) 0.7131(4)
H21 H 0.2279 0.5268 0.7268
H22 H 0.3456 0.5699 0.7100
H23 H 0.1951 0.6019 0.6655
C23 C -0.0614(5) 0.7650(3) 0.9470(2)
C24 C -0.0687(6) 0.8669(3) 0.9279(4)
H24 H 0.0182 0.8952 0.9569
H25 H -0.0877 0.8744 0.8755
C25 C -0.1813(7) 0.9132(4) 0.9452(4)
H26 H -0.1870 0.9773 0.9313
C26 C -0.1491(7) 0.9054(4) 1.0269(4)
H27 H -0.2194 0.9349 1.0379
H28 H -0.0630 0.9348 1.0557
C27 C -0.3158(7) 0.8667(5) 0.8992(4)
H29 H -0.3888 0.8967 0.9074
H30 H -0.3346 0.8714 0.8467
C28 C -0.1411(6) 0.8057(4) 1.0475(3)
H31 H -0.1189 0.8004 1.1009
C29 C -0.0355(6) 0.7590(4) 1.0309(3)
H32 H -0.0323 0.6959 1.0450
H33 H 0.0523 0.7857 1.0606
C30 C -0.1999(5) 0.7198(4) 0.9046(3)
H34 H -0.2223 0.7215 0.8515
H35 H -0.1954 0.6568 0.9195
C31 C -0.3106(6) 0.7685(4) 0.9206(4)
H36 H -0.3988 0.7402 0.8918
C32 C -0.2776(7) 0.7598(4) 1.0040(4)
H37 H -0.3481 0.7886 1.0152
H38 H -0.2728 0.6964 1.0178
loop_
_geom_bond_atom_site_label_1
_geom_bond_atom_site_label_2
_geom_bond_site_symmetry_1
_geom_bond_site_symmetry_2
Br1 C2 1_555 1_555
O1 C9 1_555 1_555
O2 C18 1_555 1_555
N1 C5 1_555 1_555
N2 C11 1_555 1_555
N3 C20 1_555 1_555
C1 H1 1_555 1_555
C2 C1 1_555 1_555
C3 C2 1_555 1_555
H2 C3 1_555 1_555
C4 C3 1_555 1_555
H3 C4 1_555 1_555
C5 C4 1_555 1_555
C6 C1 1_555 1_555
C7 C6 1_555 1_555
H4 C7 1_555 1_555
C8 C7 1_555 1_555
C9 N1 1_555 1_555
C10 O1 1_555 1_555
H5 C10 1_555 1_555
H6 C10 1_555 1_555
H7 C10 1_555 1_555
C11 C8 1_555 1_555
H8 C11 1_555 1_555
C12 C11 1_555 1_555
C13 C12 1_555 1_555
H9 C13 1_555 1_555
C14 C13 1_555 1_555
H10 C14 1_555 1_555
C15 C14 1_555 1_555
H11 C15 1_555 1_555
C16 C15 1_555 1_555
H12 C16 1_555 1_555
C17 C12 1_555 1_555
H13 C17 1_555 1_555
C18 N2 1_555 1_555
C19 C18 1_555 1_555
H14 C19 1_555 1_555
H15 C19 1_555 1_555
C20 C19 1_555 1_555
H16 C20 1_555 1_555
H17 C20 1_555 1_555
C21 N3 1_555 1_555
H18 C21 1_555 1_555
H19 C21 1_555 1_555
H20 C21 1_555 1_555
C22 N3 1_555 1_555
H21 C22 1_555 1_555
H22 C22 1_555 1_555
H23 C22 1_555 1_555
C23 N2 1_555 1_555
C24 C23 1_555 1_555
H24 C24 1_555 1_555
H25 C24 1_555 1_555
C25 C24 1_555 1_555
H26 C25 1_555 1_555
C26 C25 1_555 1_555
H27 C26 1_555 1_555
H28 C26 1_555 1_555
C27 C25 1_555 1_555
H29 C27 1_555 1_555
H30 C27 1_555 1_555
C28 C26 1_555 1_555
H31 C28 1_555 1_555
C29 C23 1_555 1_555
H32 C29 1_555 1_555
H33 C29 1_555 1_555
C30 C23 1_555 1_555
H34 C30 1_555 1_555
H35 C30 1_555 1_555
C31 C27 1_555 1_555
H36 C31 1_555 1_555
C32 C28 1_555 1_555
H37 C32 1_555 1_555
H38 C32 1_555 1_555
C5 C6 1_555 1_555
C8 C9 1_555 1_555
C16 C17 1_555 1_555
C28 C29 1_555 1_555
C30 C31 1_555 1_555
C31 C32 1_555 1_555

#END
