
#######################################################################
#
#                 Cambridge Crystallographic Data Centre
#                                CCDC 
#
#######################################################################
#
# If this CIF has been generated from an entry in the Cambridge 
# Structural Database, then it will include bibliographic, chemical, 
# crystal, experimental, refinement or atomic coordinate data resulting 
# from the CCDC's data processing and validation procedures.
#
#######################################################################

data_TATJUT
_chemical_formula_moiety         'C21 H40 O1 Si4'
_chemical_name_systematic        
3-Methyl-2-phenyl-2-trimethylsilyloxy-1,1-bis(trimethylsilyl)-1-sila-cyclohex-4-ene
_symmetry_cell_setting           triclinic
_symmetry_space_group_name_H-M   'P -1'
_symmetry_Int_Tables_number      2
_space_group_name_Hall           '-P 1'
loop_
_symmetry_equiv_pos_site_id
_symmetry_equiv_pos_as_xyz
1 x,y,z
2 -x,-y,-z
_cell_length_a                   9.014(1)
_cell_length_b                   9.434(1)
_cell_length_c                   16.804(1)
_cell_angle_alpha                101.30(1)
_cell_angle_beta                 93.83(1)
_cell_angle_gamma                111.61(1)
_cell_volume                     1287.56
_cell_formula_units_Z            2
loop_
_atom_site_label
_atom_site_type_symbol
_atom_site_fract_x
_atom_site_fract_y
_atom_site_fract_z
Si1 Si 0.15775(6) 0.27188(6) 0.20675(3)
Si2 Si -0.03191(6) 0.28505(6) 0.10795(3)
Si3 Si 0.02769(6) 0.12152(6) 0.29730(3)
Si4 Si 0.26416(6) 0.68355(6) 0.40040(3)
O1 O 0.2302(2) 0.5410(2) 0.3186(1)
C1 C 0.3188(2) 0.4747(2) 0.2642(1)
C2 C 0.4565(2) 0.4538(2) 0.3157(1)
C3 C 0.5008(2) 0.3169(3) 0.2786(1)
C4 C 0.4314(3) 0.1997(3) 0.2123(1)
C5 C 0.2852(3) 0.1734(2) 0.1531(1)
C6 C 0.6110(3) 0.6032(3) 0.3438(1)
C7 C 0.3751(2) 0.5715(2) 0.2016(1)
C8 C 0.3059(2) 0.6753(2) 0.1857(1)
C9 C 0.3505(3) 0.7564(2) 0.1248(1)
C10 C 0.4647(3) 0.7359(3) 0.0780(1)
C11 C 0.5352(3) 0.6343(3) 0.0930(1)
C12 C 0.4909(2) 0.5522(2) 0.1535(1)
C13 C -0.1957(3) 0.0825(3) 0.0725(3)
C14 C 0.0646(3) 0.3347(3) 0.0163(1)
C15 C -0.1298(3) 0.4225(3) 0.1488(2)
C16 C -0.0289(4) -0.0896(3) 0.2441(2)
C17 C 0.1553(3) 0.1629(3) 0.3986(1)
C18 C -0.1593(3) 0.1550(4) 0.3197(2)
C19 C 0.3599(3) 0.6526(3) 0.4938(1)
C20 C 0.3858(3) 0.8826(3) 0.3863(2)
C21 C 0.0584(3) 0.6713(4) 0.4155(2)
H1 H 0.4072(24) 0.4241(23) 0.3647(12)
H2 H 0.5934(29) 0.3180(27) 0.3111(14)
H3 H 0.4782(29) 0.1252(59) 0.2003(14)
H4 H 0.2202(30) 0.0619(31) 0.1316(15)
H5 H 0.3193(29) 0.2159(29) 0.1046(15)
H6 H 0.6808(32) 0.5913(30) 0.3896(16)
H7 H 0.5881(29) 0.6964(31) 0.3618(15)
H8 H 0.6691(29) 0.6154(27) 0.2979(15)
H9 H 0.2266(27) 0.6907(26) 0.2174(13)
H10 H 0.3023(32) 0.8267(32) 0.1168(16)
H11 H 0.4949(31) 0.7915(31) 0.0350(16)
H12 H 0.6128(32) 0.6211(30) 0.0618(16)
H13 H 0.5388(27) 0.4829(26) 0.1630(13)
H14 H -0.1516(38) 0.0062(39) 0.0482(19)
H15 H -0.2726(34) 0.0815(32) 0.0303(17)
H16 H -0.2516(33) 0.0515(32) 0.1179(17)
H17 H 0.1003(32) 0.2564(33) -0.0061(16)
H18 H 0.1533(33) 0.4323(33) 0.0302(15)
H19 H -0.0092(35) 0.3406(33) -0.0237(18)
H20 H -0.1836(38) 0.3927(36) 0.1961(19)
H21 H -0.2132(39) 0.4139(36) 0.1062(19)
H22 H -0.0529(34) 0.5309(35) 0.1654(16)
H23 H -0.0926(40) -0.1217(37) 0.1952(21)
H24 H -0.0865(38) -0.1539(39) 0.2805(19)
H25 H 0.0741(39) -0.1078(35) 0.2373(18)
H26 H 0.2584(31) 0.1533(28) 0.3916(14)
H27 H 0.1011(34) 0.0888(34) 0.4277(17)
H28 H 0.1733(3) 0.2647(36) 0.4311(17)
H29 H -0.2342(37) 0.1177(35) 0.2747(19)
H30 H -0.1358(43) 0.2697(46) 0.3495(22)
H31 H -0.2101(37) 0.0951(36) 0.3593(19)
H32 H 0.3642(31) 0.7314(32) 0.5406(17)
H33 H 0.4642(36) 0.6572(32) 0.4900(16)
H34 H 0.2940(37) 0.5561(37) 0.5049(17)
H35 H 0.3935(33) 0.9599(34) 0.4376(18)
H36 H 0.3343(40) 0.9057(38) 0.3410(21)
H37 H 0.4877(40) 0.8929(36) 0.3779(18)
H38 H 0.0646(41) 0.7553(43) 0.4605(22)
H39 H -0.0038(40) 0.5712(42) 0.4257(20)
H40 H 0.0045(38) 0.6718(36) 0.3717(20)
loop_
_geom_bond_atom_site_label_1
_geom_bond_atom_site_label_2
_geom_bond_site_symmetry_1
_geom_bond_site_symmetry_2
Si1 Si2 1_555 1_555
Si2 C13 1_555 1_555
Si3 Si1 1_555 1_555
Si4 O1 1_555 1_555
O1 C1 1_555 1_555
C1 Si1 1_555 1_555
C2 C1 1_555 1_555
C3 C2 1_555 1_555
C4 C3 1_555 1_555
C5 Si1 1_555 1_555
C6 C2 1_555 1_555
C7 C1 1_555 1_555
C8 C7 1_555 1_555
C9 C8 1_555 1_555
C10 C9 1_555 1_555
C11 C10 1_555 1_555
C12 C7 1_555 1_555
C13 H14 1_555 1_555
C14 Si2 1_555 1_555
C15 Si2 1_555 1_555
C16 Si3 1_555 1_555
C17 Si3 1_555 1_555
C18 Si3 1_555 1_555
C19 Si4 1_555 1_555
C20 Si4 1_555 1_555
C21 Si4 1_555 1_555
H1 C2 1_555 1_555
H2 C3 1_555 1_555
H3 C4 1_555 1_555
H4 C5 1_555 1_555
H5 C5 1_555 1_555
H6 C6 1_555 1_555
H7 C6 1_555 1_555
H8 C6 1_555 1_555
H9 C8 1_555 1_555
H10 C9 1_555 1_555
H11 C10 1_555 1_555
H12 C11 1_555 1_555
H13 C12 1_555 1_555
H15 C13 1_555 1_555
H16 C13 1_555 1_555
H17 C14 1_555 1_555
H18 C14 1_555 1_555
H19 C14 1_555 1_555
H20 C15 1_555 1_555
H21 C15 1_555 1_555
H22 C15 1_555 1_555
H23 C16 1_555 1_555
H24 C16 1_555 1_555
H25 C16 1_555 1_555
H26 C17 1_555 1_555
H27 C17 1_555 1_555
H28 C17 1_555 1_555
H29 C18 1_555 1_555
H30 C18 1_555 1_555
H31 C18 1_555 1_555
H32 C19 1_555 1_555
H33 C19 1_555 1_555
H34 C19 1_555 1_555
H35 C20 1_555 1_555
H36 C20 1_555 1_555
H37 C20 1_555 1_555
H38 C21 1_555 1_555
H39 C21 1_555 1_555
H40 C21 1_555 1_555
C4 C5 1_555 1_555
C11 C12 1_555 1_555

#END
