
#######################################################################
#
#                 Cambridge Crystallographic Data Centre
#                                CCDC 
#
#######################################################################
#
# If this CIF has been generated from an entry in the Cambridge 
# Structural Database, then it will include bibliographic, chemical, 
# crystal, experimental, refinement or atomic coordinate data resulting 
# from the CCDC's data processing and validation procedures.
#
#######################################################################

data_TATYIY
_chemical_formula_moiety         'C35 H28 N4 O6'
_chemical_name_systematic        
'Methylene bis(5-methyl-2-(6-methyl-4-oxoquinazolin-3(4H)-yl)benzoate)'
_symmetry_cell_setting           orthorhombic
_symmetry_space_group_name_H-M   'P 21 21 21'
_symmetry_Int_Tables_number      19
_space_group_name_Hall           'P 2ac 2ab'
loop_
_symmetry_equiv_pos_site_id
_symmetry_equiv_pos_as_xyz
1 x,y,z
2 1/2+x,1/2-y,-z
3 -x,1/2+y,1/2-z
4 1/2-x,-y,1/2+z
_cell_length_a                   8.00000(10)
_cell_length_b                   16.3146(3)
_cell_length_c                   22.4422(4)
_cell_angle_alpha                90
_cell_angle_beta                 90
_cell_angle_gamma                90
_cell_volume                     2929.08
_exptl_crystal_colour            colorless
_exptl_crystal_description       plate
_cell_formula_units_Z            4
loop_
_atom_site_label
_atom_site_type_symbol
_atom_site_fract_x
_atom_site_fract_y
_atom_site_fract_z
O1 O 0.04997(19) 0.57946(9) 0.16092(7)
O2 O -0.0545(2) 0.69475(12) 0.12272(11)
O3 O 0.4786(2) 0.53025(10) 0.19137(7)
O4 O -0.1294(2) 0.47090(9) 0.17074(7)
O5 O -0.17013(19) 0.50171(9) 0.07470(7)
O6 O -0.45735(19) 0.41664(10) 0.01244(7)
N1 N 0.3249(2) 0.51754(10) 0.10658(8)
N2 N 0.2035(2) 0.39237(11) 0.07522(8)
N3 N -0.1897(2) 0.37478(11) -0.00456(7)
N4 N -0.0326(2) 0.41531(13) -0.08930(8)
C1 C 0.0601(3) 0.64856(14) 0.12858(10)
C2 C 0.2285(3) 0.66247(13) 0.10178(9)
C3 C 0.2631(3) 0.74299(13) 0.08430(10)
H1 H 0.1801 0.7839 0.0901
C4 C 0.4144(3) 0.76524(14) 0.05878(10)
C5 C 0.5329(3) 0.70426(15) 0.05006(11)
H2 H 0.6377 0.7180 0.0329
C6 C 0.5009(3) 0.62346(14) 0.06598(10)
H3 H 0.5830 0.5825 0.0590
C7 C 0.3499(3) 0.60252(13) 0.09193(9)
C8 C 0.2344(2) 0.46861(13) 0.06815(9)
H4 H 0.1910 0.4939 0.0333
C9 C 0.2675(2) 0.35592(14) 0.12654(9)
C10 C 0.2373(3) 0.27273(14) 0.13694(11)
H5 H 0.1766 0.2414 0.1085
C11 C 0.2949(3) 0.23608(14) 0.18797(11)
H6 H 0.2734 0.1794 0.1941
C12 C 0.3840(3) 0.27945(14) 0.23111(10)
C13 C 0.4174(3) 0.36124(14) 0.22015(10)
H7 H 0.4802 0.3918 0.2484
C14 C 0.3608(2) 0.39959(13) 0.16845(9)
C15 C 0.3966(3) 0.48647(13) 0.15874(10)
C16 C 0.4358(4) 0.23940(16) 0.28857(12)
H8 H 0.4723 0.1831 0.2806
H9 H 0.3409 0.2386 0.3161
H10 H 0.5281 0.2704 0.3064
C17 C 0.4494(4) 0.85256(15) 0.04146(13)
H11 H 0.4921 0.8542 0.0006
H12 H 0.5329 0.8758 0.0686
H13 H 0.3460 0.8846 0.0440
C18 C -0.1128(3) 0.55613(15) 0.18157(11)
H14 H -0.1241 0.5678 0.2247
H15 H -0.2002 0.5870 0.1598
C19 C -0.1632(2) 0.45094(13) 0.11343(9)
C20 C -0.1821(2) 0.36062(13) 0.10565(9)
C21 C -0.1828(3) 0.30859(14) 0.15489(10)
H16 H -0.1817 0.3318 0.1937
C22 C -0.1851(3) 0.22382(14) 0.14897(10)
C23 C -0.1821(3) 0.19149(13) 0.09186(10)
H17 H -0.1793 0.1337 0.0867
C24 C -0.1830(3) 0.24186(13) 0.04221(10)
H18 H -0.1811 0.2184 0.0035
C25 C -0.1868(2) 0.32600(12) 0.04870(9)
C26 C -0.0496(3) 0.37698(14) -0.03945(10)
H19 H 0.0447 0.3472 -0.0255
C27 C -0.1727(3) 0.45864(14) -0.10842(9)
C28 C -0.1623(4) 0.50008(15) -0.16316(10)
H20 H -0.0631 0.4972 -0.1864
C29 C -0.2971(4) 0.54493(16) -0.18291(11)
H21 H -0.2889 0.5730 -0.2199
C30 C -0.4450(4) 0.55057(16) -0.15053(12)
C31 C -0.4554(3) 0.50940(14) -0.09639(11)
H22 H -0.5548 0.5127 -0.0734
C32 C -0.3200(3) 0.46313(13) -0.07562(9)
C33 C -0.3341(3) 0.41857(13) -0.01943(9)
C34 C -0.5904(5) 0.5994(2) -0.17404(17)
H23 H -0.6882 0.5904 -0.1486
H24 H -0.6160 0.5817 -0.2148
H25 H -0.5617 0.6578 -0.1741
C35 C -0.1854(4) 0.16854(16) 0.20255(12)
H26 H -0.1698 0.2014 0.2387
H27 H -0.0941 0.1287 0.1991
H28 H -0.2923 0.1394 0.2048
loop_
_geom_bond_atom_site_label_1
_geom_bond_atom_site_label_2
_geom_bond_site_symmetry_1
_geom_bond_site_symmetry_2
O1 C1 1_555 1_555
O2 C1 1_555 1_555
O3 C15 1_555 1_555
O4 C18 1_555 1_555
O5 C19 1_555 1_555
O6 C33 1_555 1_555
N1 C7 1_555 1_555
N2 C8 1_555 1_555
N3 C25 1_555 1_555
N4 C26 1_555 1_555
C1 C2 1_555 1_555
C2 C3 1_555 1_555
C3 H1 1_555 1_555
C4 C3 1_555 1_555
C5 C4 1_555 1_555
H2 C5 1_555 1_555
C6 C5 1_555 1_555
H3 C6 1_555 1_555
C7 C2 1_555 1_555
C8 N1 1_555 1_555
H4 C8 1_555 1_555
C9 N2 1_555 1_555
C10 C9 1_555 1_555
H5 C10 1_555 1_555
C11 C10 1_555 1_555
H6 C11 1_555 1_555
C12 C11 1_555 1_555
C13 C12 1_555 1_555
H7 C13 1_555 1_555
C14 C9 1_555 1_555
C15 N1 1_555 1_555
C16 C12 1_555 1_555
H8 C16 1_555 1_555
H9 C16 1_555 1_555
H10 C16 1_555 1_555
C17 C4 1_555 1_555
H11 C17 1_555 1_555
H12 C17 1_555 1_555
H13 C17 1_555 1_555
C18 O1 1_555 1_555
H14 C18 1_555 1_555
H15 C18 1_555 1_555
C19 O4 1_555 1_555
C20 C19 1_555 1_555
C21 C20 1_555 1_555
H16 C21 1_555 1_555
C22 C21 1_555 1_555
C23 C22 1_555 1_555
H17 C23 1_555 1_555
C24 C23 1_555 1_555
H18 C24 1_555 1_555
C25 C20 1_555 1_555
C26 N3 1_555 1_555
H19 C26 1_555 1_555
C27 N4 1_555 1_555
C28 C27 1_555 1_555
H20 C28 1_555 1_555
C29 C28 1_555 1_555
H21 C29 1_555 1_555
C30 C29 1_555 1_555
C31 C30 1_555 1_555
H22 C31 1_555 1_555
C32 C27 1_555 1_555
C33 N3 1_555 1_555
C34 C30 1_555 1_555
H23 C34 1_555 1_555
H24 C34 1_555 1_555
H25 C34 1_555 1_555
C35 C22 1_555 1_555
H26 C35 1_555 1_555
H27 C35 1_555 1_555
H28 C35 1_555 1_555
C6 C7 1_555 1_555
C13 C14 1_555 1_555
C14 C15 1_555 1_555
C24 C25 1_555 1_555
C31 C32 1_555 1_555
C32 C33 1_555 1_555

#END
