
#######################################################################
#
#                 Cambridge Crystallographic Data Centre
#                                CCDC 
#
#######################################################################
#
# If this CIF has been generated from an entry in the Cambridge 
# Structural Database, then it will include bibliographic, chemical, 
# crystal, experimental, refinement or atomic coordinate data resulting 
# from the CCDC's data processing and validation procedures.
#
#######################################################################

data_TAVBIC
_chemical_formula_moiety         'C23 H18 N1 O1 1+,C1 H3 O3 S1 1-'
_chemical_name_systematic        
'2-Methoxy-12-phenyl-7H-indeno(1,2-b)quinolizin-5-ium methanesulfonate'
_symmetry_cell_setting           triclinic
_symmetry_space_group_name_H-M   'P -1'
_symmetry_Int_Tables_number      2
_space_group_name_Hall           '-P 1'
loop_
_symmetry_equiv_pos_site_id
_symmetry_equiv_pos_as_xyz
1 x,y,z
2 -x,-y,-z
_cell_length_a                   7.9459(15)
_cell_length_b                   10.902(2)
_cell_length_c                   12.047(2)
_cell_angle_alpha                96.386(3)
_cell_angle_beta                 94.215(4)
_cell_angle_gamma                95.746(4)
_cell_volume                     1028.11
_exptl_crystal_colour            yellow
_cell_formula_units_Z            2
_exptl_crystal_recrystallization_method dichloromethane/hexanes
loop_
_atom_site_label
_atom_site_type_symbol
_atom_site_fract_x
_atom_site_fract_y
_atom_site_fract_z
S1 S 0.17153(17) 0.26395(14) 0.82983(11)
O2 O 0.3210(6) 0.3369(5) 0.8184(5)
O3 O 0.1443(8) 0.1506(4) 0.7601(4)
O4 O 0.0290(6) 0.3391(5) 0.8130(4)
C24 C 0.1733(10) 0.2304(8) 0.9675(5)
H19 H 0.0759 0.1734 0.9753
H20 H 0.1702 0.3056 1.0167
H21 H 0.2748 0.1938 0.9867
O1 O -0.3579(3) 0.5234(3) 0.6667(3)
N1 N 0.0248(4) 0.6753(3) 0.4959(3)
C1 C 0.5801(5) 0.8581(4) 0.5198(4)
C2 C 0.7465(5) 0.9123(4) 0.5203(4)
H1 H 0.7929 0.9239 0.4531
C3 C 0.8416(5) 0.9486(4) 0.6205(5)
H2 H 0.9521 0.9860 0.6209
C4 C 0.7745(5) 0.9299(4) 0.7211(4)
H3 H 0.8418 0.9544 0.7879
C5 C 0.6098(5) 0.8758(4) 0.7248(4)
H4 H 0.5657 0.8638 0.7927
C6 C 0.5119(5) 0.8397(4) 0.6223(3)
C7 C 0.3353(4) 0.7808(3) 0.5967(3)
C8 C 0.2140(4) 0.7415(3) 0.6648(3)
C9 C 0.0534(4) 0.6839(3) 0.6116(3)
C10 C -0.0783(4) 0.6329(4) 0.6722(4)
H5 H -0.0621 0.6376 0.7498
C11 C -0.2277(5) 0.5775(4) 0.6184(4)
C12 C -0.2537(5) 0.5745(4) 0.5012(4)
H6 H -0.3571 0.5399 0.4640
C13 C -0.1301(5) 0.6213(4) 0.4426(4)
H7 H -0.1486 0.6174 0.3651
C14 C 0.1484(5) 0.7173(4) 0.4303(4)
H8 H 0.1254 0.7112 0.3529
C15 C 0.3019(5) 0.7669(3) 0.4780(3)
C16 C 0.4540(5) 0.8142(4) 0.4218(4)
H9 H 0.4936 0.7486 0.3725
H10 H 0.4294 0.8818 0.3792
C17 C 0.2445(4) 0.7551(4) 0.7886(3)
C18 C 0.2831(6) 0.6562(5) 0.8439(4)
H11 H 0.2799 0.5777 0.8041
C19 C 0.3267(8) 0.6731(7) 0.9585(5)
H12 H 0.3560 0.6063 0.9947
C20 C 0.3271(8) 0.7852(8) 1.0179(5)
H13 H 0.3546 0.7952 1.0950
C21 C 0.2869(7) 0.8843(6) 0.9649(5)
H14 H 0.2883 0.9617 1.0063
C22 C 0.2442(6) 0.8707(5) 0.8502(4)
H15 H 0.2156 0.9383 0.8148
C23 C -0.3325(6) 0.5126(5) 0.7848(4)
H16 H -0.2343 0.4702 0.7988
H17 H -0.4305 0.4665 0.8080
H18 H -0.3159 0.5940 0.8262
loop_
_geom_bond_atom_site_label_1
_geom_bond_atom_site_label_2
_geom_bond_site_symmetry_1
_geom_bond_site_symmetry_2
S1 O2 1_555 1_555
O1 C11 1_555 1_555
O3 S1 1_555 1_555
O4 S1 1_555 1_555
N1 C9 1_555 1_555
C1 C2 1_555 1_555
C2 H1 1_555 1_555
C3 C2 1_555 1_555
H2 C3 1_555 1_555
C4 C3 1_555 1_555
H3 C4 1_555 1_555
C5 C4 1_555 1_555
H4 C5 1_555 1_555
C6 C1 1_555 1_555
C7 C6 1_555 1_555
C8 C7 1_555 1_555
C9 C8 1_555 1_555
C10 C9 1_555 1_555
H5 C10 1_555 1_555
C11 C10 1_555 1_555
C12 C11 1_555 1_555
H6 C12 1_555 1_555
C13 N1 1_555 1_555
H7 C13 1_555 1_555
C14 N1 1_555 1_555
H8 C14 1_555 1_555
C15 C7 1_555 1_555
C16 C1 1_555 1_555
H9 C16 1_555 1_555
H10 C16 1_555 1_555
C17 C8 1_555 1_555
C18 C17 1_555 1_555
H11 C18 1_555 1_555
C19 C18 1_555 1_555
H12 C19 1_555 1_555
C20 C19 1_555 1_555
H13 C20 1_555 1_555
C21 C20 1_555 1_555
H14 C21 1_555 1_555
C22 C17 1_555 1_555
H15 C22 1_555 1_555
C23 O1 1_555 1_555
H16 C23 1_555 1_555
H17 C23 1_555 1_555
H18 C23 1_555 1_555
C24 S1 1_555 1_555
H19 C24 1_555 1_555
H20 C24 1_555 1_555
H21 C24 1_555 1_555
C5 C6 1_555 1_555
C12 C13 1_555 1_555
C14 C15 1_555 1_555
C15 C16 1_555 1_555
C21 C22 1_555 1_555

#END
