
#######################################################################
#
#                 Cambridge Crystallographic Data Centre
#                                CCDC 
#
#######################################################################
#
# If this CIF has been generated from an entry in the Cambridge 
# Structural Database, then it will include bibliographic, chemical, 
# crystal, experimental, refinement or atomic coordinate data resulting 
# from the CCDC's data processing and validation procedures.
#
#######################################################################

data_TAVBAU
_chemical_formula_moiety         'C20 H14 N2'
_chemical_name_systematic        
11-Phenyl-6H-indeno(1,2-d)imidazo(1,2-a)pyridine
_symmetry_cell_setting           monoclinic
_symmetry_space_group_name_H-M   'P 21/c'
_symmetry_Int_Tables_number      14
_space_group_name_Hall           '-P 2ybc'
loop_
_symmetry_equiv_pos_site_id
_symmetry_equiv_pos_as_xyz
1 x,y,z
2 -x,1/2+y,1/2-z
3 -x,-y,-z
4 x,1/2-y,1/2+z
_cell_length_a                   12.1159(12)
_cell_length_b                   11.3755(11)
_cell_length_c                   10.6198(10)
_cell_angle_alpha                90
_cell_angle_beta                 95.253(2)
_cell_angle_gamma                90
_cell_volume                     1457.52
_exptl_crystal_colour            'red orange'
_cell_formula_units_Z            4
_exptl_crystal_recrystallization_method dichloromethane/hexanes
loop_
_atom_site_label
_atom_site_type_symbol
_atom_site_fract_x
_atom_site_fract_y
_atom_site_fract_z
N1 N 0.90944(17) 0.29903(18) 1.19845(18)
N2 N 0.94239(18) 0.48699(18) 1.25720(18)
C1 C 0.7281(2) 0.1547(2) 0.9347(2)
H1 H 0.6790 0.1040 0.9774
H2 H 0.7779 0.1066 0.8902
C2 C 0.6634(2) 0.2379(2) 0.8458(2)
C3 C 0.5927(3) 0.2126(3) 0.7403(3)
H3 H 0.5802 0.1350 0.7155
C4 C 0.5408(2) 0.3026(3) 0.6720(3)
H4 H 0.4922 0.2855 0.6015
C5 C 0.5601(2) 0.4179(3) 0.7070(2)
H5 H 0.5250 0.4783 0.6598
C6 C 0.6317(2) 0.4438(2) 0.8122(2)
H6 H 0.6442 0.5216 0.8361
C7 C 0.6846(2) 0.3547(2) 0.8815(2)
C8 C 0.76466(19) 0.3563(2) 0.9949(2)
C9 C 0.81135(19) 0.4467(2) 1.06607(19)
C10 C 0.8859(2) 0.4176(2) 1.1724(2)
C11 C 1.0011(2) 0.4110(3) 1.3363(2)
H7 H 1.0484 0.4350 1.4054
C12 C 0.9835(2) 0.2970(3) 1.3044(2)
H8 H 1.0149 0.2312 1.3455
C13 C 0.8618(2) 0.2094(2) 1.1272(2)
H9 H 0.8781 0.1315 1.1482
C14 C 0.7910(2) 0.2356(2) 1.0261(2)
C15 C 0.78700(19) 0.5737(2) 1.04152(19)
C16 C 0.7158(2) 0.6337(2) 1.1128(2)
H10 H 0.6821 0.5944 1.1759
C17 C 0.6940(2) 0.7509(2) 1.0914(3)
H11 H 0.6459 0.7905 1.1401
C18 C 0.7428(2) 0.8092(2) 0.9991(3)
H12 H 0.7282 0.8887 0.9855
C19 C 0.8129(2) 0.7516(2) 0.9265(2)
H13 H 0.8453 0.7916 0.8629
C20 C 0.8356(2) 0.6338(2) 0.9476(2)
H14 H 0.8838 0.5948 0.8985
loop_
_geom_bond_atom_site_label_1
_geom_bond_atom_site_label_2
_geom_bond_site_symmetry_1
_geom_bond_site_symmetry_2
N1 C10 1_555 1_555
N2 C10 1_555 1_555
C1 H1 1_555 1_555
H2 C1 1_555 1_555
C2 C1 1_555 1_555
C3 C2 1_555 1_555
H3 C3 1_555 1_555
C4 C3 1_555 1_555
H4 C4 1_555 1_555
C5 C4 1_555 1_555
H5 C5 1_555 1_555
C6 C5 1_555 1_555
H6 C6 1_555 1_555
C7 C2 1_555 1_555
C8 C7 1_555 1_555
C9 C8 1_555 1_555
C10 C9 1_555 1_555
C11 N2 1_555 1_555
H7 C11 1_555 1_555
C12 N1 1_555 1_555
H8 C12 1_555 1_555
C13 N1 1_555 1_555
H9 C13 1_555 1_555
C14 C1 1_555 1_555
C15 C9 1_555 1_555
C16 C15 1_555 1_555
H10 C16 1_555 1_555
C17 C16 1_555 1_555
H11 C17 1_555 1_555
C18 C17 1_555 1_555
H12 C18 1_555 1_555
C19 C18 1_555 1_555
H13 C19 1_555 1_555
C20 C15 1_555 1_555
H14 C20 1_555 1_555
C6 C7 1_555 1_555
C8 C14 1_555 1_555
C11 C12 1_555 1_555
C13 C14 1_555 1_555
C19 C20 1_555 1_555

#END
