
#######################################################################
#
#                 Cambridge Crystallographic Data Centre
#                                CCDC 
#
#######################################################################
#
# If this CIF has been generated from an entry in the Cambridge 
# Structural Database, then it will include bibliographic, chemical, 
# crystal, experimental, refinement or atomic coordinate data resulting 
# from the CCDC's data processing and validation procedures.
#
#######################################################################

data_TAVBOI
_chemical_formula_moiety         'C22 H25 N2 1+,Cl1 1-'
_chemical_name_systematic        
'2-(Dimethylamino)-12-t-butyl-7H-indeno(1,2-b)quinolizin-5-ium chloride'
_symmetry_cell_setting           monoclinic
_symmetry_space_group_name_H-M   'P 21/c'
_symmetry_Int_Tables_number      14
_space_group_name_Hall           '-P 2ybc'
loop_
_symmetry_equiv_pos_site_id
_symmetry_equiv_pos_as_xyz
1 x,y,z
2 -x,1/2+y,1/2-z
3 -x,-y,-z
4 x,1/2-y,1/2+z
_cell_length_a                   10.6260(16)
_cell_length_b                   20.419(3)
_cell_length_c                   9.0204(12)
_cell_angle_alpha                90
_cell_angle_beta                 108.971(3)
_cell_angle_gamma                90
_cell_volume                     1850.87
_exptl_crystal_colour            yellow
_chemical_melting_point          'above 360deg.C'
_cell_formula_units_Z            4
_exptl_crystal_recrystallization_method dichloromethane/hexanes
loop_
_atom_site_label
_atom_site_type_symbol
_atom_site_fract_x
_atom_site_fract_y
_atom_site_fract_z
Cl1 Cl 0.22891(10) 0.00810(6) 0.32311(10)
N1 N 0.5893(3) 0.09037(14) -0.0691(3)
N2 N 0.1891(3) 0.04612(15) -0.1884(3)
C1 C 0.9428(4) 0.1337(2) 0.1684(4)
H1 H 0.9909 0.0933 0.1688
H2 H 0.9704 0.1663 0.1071
C2 C 0.9629(4) 0.15728(18) 0.3304(4)
C3 C 1.0844(4) 0.1707(2) 0.4441(5)
H3 H 1.1632 0.1681 0.4206
C4 C 1.0856(5) 0.1879(2) 0.5910(6)
H4 H 1.1659 0.1987 0.6667
C5 C 0.9699(5) 0.1894(2) 0.6289(5)
H5 H 0.9733 0.1994 0.7307
C6 C 0.8490(4) 0.1762(2) 0.5161(5)
H6 H 0.7711 0.1775 0.5418
C7 C 0.8441(4) 0.16094(17) 0.3630(4)
C8 C 0.7326(3) 0.14231(16) 0.2202(4)
C9 C 0.5943(3) 0.14148(17) 0.1786(3)
C10 C 0.5219(3) 0.10651(17) 0.0359(3)
C11 C 0.3911(4) 0.08726(17) -0.0047(4)
H7 H 0.3479 0.0925 0.0692
C12 C 0.3186(3) 0.06021(17) -0.1504(4)
C13 C 0.3903(4) 0.04909(18) -0.2559(4)
H8 H 0.3469 0.0326 -0.3557
C14 C 0.5202(4) 0.06234(18) -0.2116(4)
H9 H 0.5665 0.0522 -0.2802
C15 C 0.7237(4) 0.09969(18) -0.0338(4)
H10 H 0.7652 0.0899 -0.1075
C16 C 0.7946(4) 0.12294(17) 0.1068(4)
C17 C 0.5209(4) 0.17676(19) 0.2786(4)
C18 C 0.3728(4) 0.1955(2) 0.1940(6)
H11 H 0.3618 0.2089 0.0885
H12 H 0.3482 0.2309 0.2490
H13 H 0.3170 0.1583 0.1922
C19 C 0.5245(5) 0.1328(2) 0.4191(4)
H14 H 0.4681 0.0954 0.3824
H15 H 0.4935 0.1572 0.4914
H16 H 0.6141 0.1184 0.4709
C20 C 0.5852(4) 0.24509(19) 0.3263(4)
H17 H 0.6803 0.2408 0.3632
H18 H 0.5561 0.2630 0.4081
H19 H 0.5589 0.2737 0.2371
C21 C 0.1144(4) 0.01907(19) -0.3415(4)
H20 H 0.1146 0.0498 -0.4219
H21 H 0.0244 0.0107 -0.3457
H22 H 0.1550 -0.0211 -0.3575
C22 C 0.1146(4) 0.0617(2) -0.0834(4)
H23 H 0.1531 0.0391 0.0142
H24 H 0.0237 0.0482 -0.1303
H25 H 0.1179 0.1081 -0.0648
loop_
_geom_bond_atom_site_label_1
_geom_bond_atom_site_label_2
_geom_bond_site_symmetry_1
_geom_bond_site_symmetry_2
N1 C10 1_555 1_555
N2 C12 1_555 1_555
C1 H1 1_555 1_555
H2 C1 1_555 1_555
C2 C1 1_555 1_555
C3 C2 1_555 1_555
H3 C3 1_555 1_555
C4 C3 1_555 1_555
H4 C4 1_555 1_555
C5 C4 1_555 1_555
H5 C5 1_555 1_555
C6 C5 1_555 1_555
H6 C6 1_555 1_555
C7 C2 1_555 1_555
C8 C7 1_555 1_555
C9 C8 1_555 1_555
C10 C9 1_555 1_555
C11 C10 1_555 1_555
H7 C11 1_555 1_555
C12 C11 1_555 1_555
C13 C12 1_555 1_555
H8 C13 1_555 1_555
C14 N1 1_555 1_555
H9 C14 1_555 1_555
C15 N1 1_555 1_555
H10 C15 1_555 1_555
C16 C1 1_555 1_555
C17 C9 1_555 1_555
C18 C17 1_555 1_555
H11 C18 1_555 1_555
H12 C18 1_555 1_555
H13 C18 1_555 1_555
C19 C17 1_555 1_555
H14 C19 1_555 1_555
H15 C19 1_555 1_555
H16 C19 1_555 1_555
C20 C17 1_555 1_555
H17 C20 1_555 1_555
H18 C20 1_555 1_555
H19 C20 1_555 1_555
C21 N2 1_555 1_555
H20 C21 1_555 1_555
H21 C21 1_555 1_555
H22 C21 1_555 1_555
C22 N2 1_555 1_555
H23 C22 1_555 1_555
H24 C22 1_555 1_555
H25 C22 1_555 1_555
C6 C7 1_555 1_555
C8 C16 1_555 1_555
C13 C14 1_555 1_555
C15 C16 1_555 1_555

#END
