
#######################################################################
#
#                 Cambridge Crystallographic Data Centre
#                                CCDC 
#
#######################################################################
#
# If this CIF has been generated from an entry in the Cambridge 
# Structural Database, then it will include bibliographic, chemical, 
# crystal, experimental, refinement or atomic coordinate data resulting 
# from the CCDC's data processing and validation procedures.
#
#######################################################################

data_TAVFOM
_chemical_formula_moiety         
'4(C8 H20 N1 1+),8(C1 H6 N3 1+),3(C1 O3 2-),3(C2 O4 2-),2(H2 O1)'
_chemical_name_systematic        
'tetrakis(Tetraethylammonium) octakis(guanidinium) tricarbonate tris(oxalate) dihydrate'
_symmetry_cell_setting           orthorhombic
_symmetry_space_group_name_H-M   'P n m a'
_symmetry_Int_Tables_number      62
_space_group_name_Hall           '-P 2ac 2n'
loop_
_symmetry_equiv_pos_site_id
_symmetry_equiv_pos_as_xyz
1 x,y,z
2 1/2-x,-y,1/2+z
3 -x,1/2+y,-z
4 1/2+x,1/2-y,1/2-z
5 -x,-y,-z
6 1/2+x,y,1/2-z
7 x,1/2-y,z
8 1/2-x,1/2+y,1/2+z
_cell_length_a                   35.9775(16)
_cell_length_b                   14.2730(6)
_cell_length_c                   11.9582(5)
_cell_angle_alpha                90
_cell_angle_beta                 90
_cell_angle_gamma                90
_cell_volume                     6140.62
_exptl_crystal_colour            colorless
_exptl_crystal_description       block
_chemical_melting_point          196-198deg.C
_cell_formula_units_Z            4
loop_
_atom_site_label
_atom_site_type_symbol
_atom_site_fract_x
_atom_site_fract_y
_atom_site_fract_z
N1 N 0.33771(13) 0.2500 0.3584(4)
H1 H 0.3359 0.3046 0.3956
N2 N 0.34595(10) 0.3288(2) 0.1942(3)
H2 H 0.3501 0.3286 0.1234
H3 H 0.3439 0.3811 0.2294
C2 C 0.34277(13) 0.2500 0.2480(4)
H1F H 0.3359 0.1954 0.3956
N2F N 0.34595(10) 0.1712(2) 0.1942(3)
H2F H 0.3501 0.1714 0.1234
H3F H 0.3439 0.1189 0.2294
N3 N 0.23319(8) 0.5304(2) 0.2064(2)
H4 H 0.2320 0.5242 0.1349
H5 H 0.2514 0.5062 0.2429
N4 N 0.17925(8) 0.6142(2) 0.2040(2)
H6 H 0.1780 0.6080 0.1326
H7 H 0.1622 0.6446 0.2391
N5 N 0.20934(8) 0.5858(2) 0.3703(2)
H8 H 0.2276 0.5612 0.4061
H9 H 0.1924 0.6162 0.4060
C3 C 0.20717(9) 0.5770(2) 0.2597(3)
N6 N 0.26140(13) 0.2500 0.5093(5)
H10 H 0.2739 0.3046 0.5067
N7 N 0.20658(9) 0.3298(3) 0.5202(3)
H11 H 0.1827 0.3308 0.5242
H12 H 0.2189 0.3814 0.5181
C4 C 0.22414(15) 0.2500 0.5172(5)
H10F H 0.2739 0.1954 0.5067
N7F N 0.20658(9) 0.1702(3) 0.5202(3)
H11F H 0.1827 0.1692 0.5242
H12F H 0.2189 0.1186 0.5181
N8 N 0.08299(10) 0.5831(3) 0.2411(3)
H13 H 0.0926 0.6352 0.2626
H14 H 0.0694 0.5814 0.1820
N9 N 0.07460(11) 0.4246(3) 0.2654(4)
H15 H 0.0611 0.4220 0.2062
H16 H 0.0788 0.3746 0.3036
N10 N 0.10999(10) 0.5094(3) 0.3887(3)
H17 H 0.1196 0.5617 0.4099
H18 H 0.1141 0.4592 0.4265
C5 C 0.08908(11) 0.5062(3) 0.2982(4)
N11 N 0.07274(11) 0.4002(4) 0.8045(4)
H19 H 0.0709 0.3658 0.7457
H20 H 0.0540 0.4066 0.8486
N12 N 0.10785(13) 0.4955(4) 0.9180(5)
H21 H 0.1286 0.5229 0.9329
H22 H 0.0892 0.5021 0.9623
N13 N 0.13319(10) 0.4337(3) 0.7597(4)
H23 H 0.1539 0.4610 0.7745
H24 H 0.1311 0.3998 0.7005
C6 C 0.10470(13) 0.4437(5) 0.8274(6)
O4 O 0.09054(12) 0.2500 0.3900(3)
O5 O -0.0013(2) 0.4160(5) 0.9010(6)
O6 O -0.04209(15) 0.5173(8) 0.9533(4)
C7 C -0.01231(18) 0.4795(6) 0.9606(5)
O5D O 0.0013(2) 0.5840(5) 1.0990(6)
O6D O 0.04209(15) 0.4827(8) 1.0467(4)
C7D C 0.01231(18) 0.5205(6) 1.0394(5)
O7 O -0.0268(4) 0.2500 0.8250(8)
H25 H -0.0168 0.3091 0.8514
H25F H -0.0168 0.1909 0.8514
O8 O -0.0272(3) 0.7500 0.8996(6)
H26 H -0.0299 0.6983 0.9011
H26F H -0.0299 0.8017 0.9011
N14 N 0.18777(12) 0.2500 0.0562(4)
C8 C 0.2208(3) 0.1952(8) 0.0910(9)
C9 C 0.2568(2) 0.2500 0.1098(9)
C10 C 0.1955(3) 0.3029(6) -0.0523(7)
C11 C 0.2045(3) 0.2500 -0.1506(7)
C12 C 0.1544(3) 0.1933(7) 0.0479(9)
C13 C 0.1186(2) 0.2500 0.0136(10)
C14 C 0.1795(3) 0.3349(7) 0.1412(8)
C15 C 0.1728(5) 0.3055(13) 0.2563(10)
C8F C 0.2208(3) 0.3048(8) 0.0910(9)
C10F C 0.1955(3) 0.1971(6) -0.0523(7)
C12F C 0.1544(3) 0.3067(7) 0.0479(9)
C14F C 0.1795(3) 0.1651(7) 0.1412(8)
C15F C 0.1728(5) 0.1945(13) 0.2563(10)
N15 N -0.02566(12) 0.2500 0.4354(4)
C16 C -0.0114(3) 0.2971(9) 0.3376(10)
C17 C -0.0617(2) 0.1936(8) 0.4130(11)
C18 C -0.0511(4) 0.1234(9) 0.3067(10)
C19 C 0.0061(2) 0.1799(8) 0.4668(10)
C20 C -0.0350(3) 0.3056(7) 0.5379(9)
C21 C -0.0026(2) 0.1245(5) 0.5754(7)
C16F C -0.0114(3) 0.2029(9) 0.3376(10)
C17F C -0.0617(2) 0.3064(8) 0.4130(11)
C18F C -0.0511(4) 0.3766(9) 0.3067(10)
C19F C 0.0061(2) 0.3201(8) 0.4668(10)
C20F C -0.0350(3) 0.1944(7) 0.5379(9)
C21F C -0.0026(2) 0.3755(5) 0.5754(7)
O9 O 0.12490(10) 0.7500 0.3132(3)
O10 O 0.14338(7) 0.67275(17) 0.46322(19)
C22 C 0.13701(13) 0.7500 0.4131(4)
O10F O 0.14338(7) 0.82725(17) 0.46322(19)
O1 O 0.26393(7) 0.47032(19) 0.4692(2)
O2 O 0.32161(8) 0.4174(2) 0.4715(2)
O3 O 0.29927(7) 0.4836(2) 0.3178(2)
C1 C 0.29487(11) 0.4582(3) 0.4199(3)
O11? O 0.1279(2) 0.3571(5) 0.5624(6)
O12? O 0.08090(14) 0.2794(3) 0.6447(4)
O13? O 0.1254(2) 0.1465(5) 0.5039(6)
C23? C 0.10498(14) 0.2912(4) 0.5700(5)
C24? C 0.10645(16) 0.2162(4) 0.4746(4)
loop_
_geom_bond_atom_site_label_1
_geom_bond_atom_site_label_2
_geom_bond_site_symmetry_1
_geom_bond_site_symmetry_2
O1 C1 1_555 1_555
O2 C1 1_555 1_555
O3 C1 1_555 1_555
N1 H1 1_555 1_555
N2 H2 1_555 1_555
H3 N2 1_555 1_555
C2 N1 1_555 1_555
N3 H4 1_555 1_555
H5 N3 1_555 1_555
N4 H6 1_555 1_555
H7 N4 1_555 1_555
N5 H8 1_555 1_555
H9 N5 1_555 1_555
C3 N3 1_555 1_555
N6 H10 1_555 1_555
N7 H11 1_555 1_555
H12 N7 1_555 1_555
C4 N6 1_555 1_555
N8 H13 1_555 1_555
H14 N8 1_555 1_555
N9 H15 1_555 1_555
H16 N9 1_555 1_555
N10 H17 1_555 1_555
H18 N10 1_555 1_555
C5 N8 1_555 1_555
N11 H19 1_555 1_555
H20 N11 1_555 1_555
N12 H21 1_555 1_555
H22 N12 1_555 1_555
N13 H23 1_555 1_555
H24 N13 1_555 1_555
C6 N11 1_555 1_555
O5 C7 1_555 1_555
O6 C7 1_555 1_555
C7 C7D 1_555 1_555
O7 H25 1_555 1_555
O8 H26 1_555 1_555
N14 C8 1_555 1_555
C8 C9 1_555 1_555
C9 C8F 1_555 1_555
C10 N14 1_555 1_555
C11 C10 1_555 1_555
C12 N14 1_555 1_555
C13 C12 1_555 1_555
C14 N14 1_555 1_555
C15 C14 1_555 1_555
N15 C16 1_555 1_555
C16 C16F 1_555 1_555
C17 N15 1_555 1_555
C18 C17 1_555 1_555
C19 N15 1_555 1_555
C20 N15 1_555 1_555
C21 C19 1_555 1_555
O9 C22 1_555 1_555
O10 C22 1_555 1_555
C22 O10F 1_555 1_555
H1F N1 1_555 1_555
N2F C2 1_555 1_555
H2F N2F 1_555 1_555
H3F N2F 1_555 1_555
H10F N6 1_555 1_555
N7F C4 1_555 1_555
H11F N7F 1_555 1_555
H12F N7F 1_555 1_555
O5D C7D 1_555 1_555
O6D C7D 1_555 1_555
H25F O7 1_555 1_555
H26F O8 1_555 1_555
C8F N14 1_555 1_555
C10F N14 1_555 1_555
C12F N14 1_555 1_555
C14F N14 1_555 1_555
C15F C15 1_555 1_555
C16F N15 1_555 1_555
C17F N15 1_555 1_555
C18F C17F 1_555 1_555
C19F N15 1_555 1_555
C20F N15 1_555 1_555
C21F C20 1_555 1_555
N2 C2 1_555 1_555
N4 C3 1_555 1_555
N5 C3 1_555 1_555
N7 C4 1_555 1_555
N9 C5 1_555 1_555
N10 C5 1_555 1_555
N12 C6 1_555 1_555
N13 C6 1_555 1_555
C8 C8F 1_555 1_555
C8 C14F 1_555 1_555
C10 C10F 1_555 1_555
C11 C10F 1_555 1_555
C12 C12F 1_555 1_555
C12 C14F 1_555 1_555
C13 C12F 1_555 1_555
C14 C8F 1_555 1_555
C14 C12F 1_555 1_555
C16 C19F 1_555 1_555
C17 C17F 1_555 1_555
C19 C16F 1_555 1_555
C19 C20F 1_555 1_555
C20 C19F 1_555 1_555
C20 C20F 1_555 1_555
C21 C20F 1_555 1_555
C14F C15F 1_555 1_555
C19F C21F 1_555 1_555

#END
