
#######################################################################
#
#                 Cambridge Crystallographic Data Centre
#                                CCDC 
#
#######################################################################
#
# If this CIF has been generated from an entry in the Cambridge 
# Structural Database, then it will include bibliographic, chemical, 
# crystal, experimental, refinement or atomic coordinate data resulting 
# from the CCDC's data processing and validation procedures.
#
#######################################################################

data_TAVFUS
_chemical_formula_moiety         
'2(C8 H20 N1 1+),C1 H6 N3 1+,C9 H3 O6 3-,6(H2 O1)'
_chemical_name_systematic        
'bis(Tetraethylammonium) guanidinium benzene-1,3,5-tricarboxylate hexahydrate'
_symmetry_cell_setting           orthorhombic
_symmetry_space_group_name_H-M   'P b c n'
_symmetry_Int_Tables_number      60
_space_group_name_Hall           '-P 2n 2ab'
loop_
_symmetry_equiv_pos_site_id
_symmetry_equiv_pos_as_xyz
1 x,y,z
2 1/2-x,1/2-y,1/2+z
3 -x,y,1/2-z
4 1/2+x,1/2-y,-z
5 -x,-y,-z
6 1/2+x,1/2+y,1/2-z
7 x,-y,1/2+z
8 1/2-x,1/2+y,z
_cell_length_a                   12.0977(9)
_cell_length_b                   20.9279(15)
_cell_length_c                   14.5969(10)
_cell_angle_alpha                90
_cell_angle_beta                 90
_cell_angle_gamma                90
_cell_volume                     3695.64
_exptl_crystal_colour            colorless
_exptl_crystal_description       block
_chemical_melting_point          251-252deg.C
_cell_formula_units_Z            4
loop_
_atom_site_label
_atom_site_type_symbol
_atom_site_fract_x
_atom_site_fract_y
_atom_site_fract_z
N1 N 0.5000 0.34806(8) 0.2500
H1 H 0.4357 0.3696 0.2463
N2 N 0.40546(10) 0.25291(6) 0.24450(9)
H2 H 0.4055 0.2118 0.2445
H3 H 0.3440 0.2734 0.2409
C1 C 0.5000 0.28461(9) 0.2500
H1B H 0.5643 0.3696 0.2537
N2B N 0.59454(10) 0.25291(6) 0.25550(9)
H2B H 0.5945 0.2118 0.2555
H3B H 0.6560 0.2734 0.2591
O1 O 0.29552(8) 0.41319(5) 0.23527(8)
O2 O 0.20444(9) 0.32130(5) 0.23960(8)
O3 O 0.09184(9) 0.61765(5) 0.25197(8)
C2 C 0.20811(12) 0.38125(7) 0.23906(10)
C3 C 0.0000 0.38446(9) 0.2500
H4 H 0.0000 0.3400 0.2500
C4 C 0.09956(11) 0.41732(7) 0.24470(9)
C5 C 0.09901(11) 0.48382(7) 0.24578(9)
H5 H 0.1656 0.5060 0.2437
C6 C 0.0000 0.51759(9) 0.2500
C7 C 0.0000 0.58989(9) 0.2500
O1B O -0.29552(8) 0.41319(5) 0.26473(8)
O2B O -0.20444(9) 0.32130(5) 0.26040(8)
O3B O -0.09184(9) 0.61765(5) 0.24803(8)
C2B C -0.20811(12) 0.38125(7) 0.26094(10)
C4B C -0.09956(11) 0.41732(7) 0.25530(9)
C5B C -0.09901(11) 0.48382(7) 0.25422(9)
H5B H -0.1656 0.5060 0.2563
N3 N 0.29520(12) 0.63470(7) 0.02203(9)
C8 C 0.29831(19) 0.69571(10) 0.07749(13)
H6 H 0.3661 0.6963 0.1130
H7 H 0.2371 0.6952 0.1204
C9 C 0.2921(3) 0.75687(12) 0.02162(17)
H8 H 0.2946 0.7930 0.0620
H9 H 0.2243 0.7576 -0.0125
H10 H 0.3536 0.7586 -0.0199
C10 C 0.39028(14) 0.63221(8) -0.04577(11)
H11 H 0.3842 0.5930 -0.0809
H12 H 0.3825 0.6676 -0.0882
C11 C 0.50411(16) 0.63506(13) -0.00402(15)
H13 H 0.5587 0.6332 -0.0517
H14 H 0.5139 0.5995 0.0368
H15 H 0.5122 0.6743 0.0295
C12 C 0.30203(18) 0.58005(10) 0.08982(13)
H16 H 0.3699 0.5844 0.1247
H17 H 0.2409 0.5837 0.1325
C13 C 0.2994(3) 0.51478(12) 0.04791(18)
H18 H 0.3041 0.4831 0.0954
H19 H 0.3609 0.5100 0.0069
H20 H 0.2316 0.5093 0.0146
C14 C 0.19074(16) 0.63106(12) -0.03467(13)
H21 H 0.1925 0.5919 -0.0702
H22 H 0.1905 0.6665 -0.0775
C15 C 0.0836(2) 0.6327(2) 0.01960(19)
H23 H 0.0220 0.6302 -0.0217
H24 H 0.0796 0.6719 0.0537
H25 H 0.0815 0.5971 0.0611
O4 O 0.41178(11) 0.51348(6) 0.31006(10)
H26 H 0.3755 0.4847 0.2869
H27 H 0.3823 0.5412 0.3162
O5 O 0.28541(11) 0.61730(7) 0.35571(10)
H29 H 0.2225 0.6173 0.3297
H30 H 0.3050 0.6458 0.3386
O6 O 0.41439(11) 0.72156(6) 0.31211(11)
H32 H 0.3762 0.7545 0.2897
H33 H 0.4414 0.7179 0.2664
H28? H 0.4553 0.5176 0.2730
H31? H 0.3208 0.5867 0.3415
H34? H 0.3767 0.6945 0.3194
loop_
_geom_bond_atom_site_label_1
_geom_bond_atom_site_label_2
_geom_bond_site_symmetry_1
_geom_bond_site_symmetry_2
N1 H1 1_555 1_555
N2 H2 1_555 1_555
H3 N2 1_555 1_555
C1 N1 1_555 1_555
O1 C2 1_555 1_555
O2 C2 1_555 1_555
O3 C7 1_555 1_555
C2 C4 1_555 1_555
C3 H4 1_555 1_555
C4 C3 1_555 1_555
C5 C4 1_555 1_555
H5 C5 1_555 1_555
C6 C5 1_555 1_555
C7 C6 1_555 1_555
N3 C8 1_555 1_555
C8 H6 1_555 1_555
H7 C8 1_555 1_555
C9 C8 1_555 1_555
H8 C9 1_555 1_555
H9 C9 1_555 1_555
H10 C9 1_555 1_555
C10 N3 1_555 1_555
H11 C10 1_555 1_555
H12 C10 1_555 1_555
C11 C10 1_555 1_555
H13 C11 1_555 1_555
H14 C11 1_555 1_555
H15 C11 1_555 1_555
C12 N3 1_555 1_555
H16 C12 1_555 1_555
H17 C12 1_555 1_555
C13 C12 1_555 1_555
H18 C13 1_555 1_555
H19 C13 1_555 1_555
H20 C13 1_555 1_555
C14 N3 1_555 1_555
H21 C14 1_555 1_555
H22 C14 1_555 1_555
C15 C14 1_555 1_555
H23 C15 1_555 1_555
H24 C15 1_555 1_555
H25 C15 1_555 1_555
O4 H26 1_555 1_555
H27 O4 1_555 1_555
O5 H29 1_555 1_555
H30 O5 1_555 1_555
O6 H32 1_555 1_555
H33 O6 1_555 1_555
H1B N1 1_555 1_555
N2B C1 1_555 1_555
H2B N2B 1_555 1_555
H3B N2B 1_555 1_555
O1B C2B 1_555 1_555
O2B C2B 1_555 1_555
O3B C7 1_555 1_555
C2B C4B 1_555 1_555
C4B C3 1_555 1_555
C5B C6 1_555 1_555
H5B C5B 1_555 1_555
N2 C1 1_555 1_555
C4B C5B 1_555 1_555

#END
