
#######################################################################
#
#                 Cambridge Crystallographic Data Centre
#                                CCDC 
#
#######################################################################
#
# If this CIF has been generated from an entry in the Cambridge 
# Structural Database, then it will include bibliographic, chemical, 
# crystal, experimental, refinement or atomic coordinate data resulting 
# from the CCDC's data processing and validation procedures.
#
#######################################################################

data_TAVLOU
_chemical_formula_moiety         'C56 H40 N4 4+,4(C2 F3 O2 1-)'
_chemical_name_systematic        
'9,16,39,46-tetra-azoniatridecacyclo[44.2.2.2^2,5^.2^6,9^.2^11,14^.2^41,44^.1^16,24^.1^31,39^.0^18,23^.0^21,34^.0^22,27^.0^28,33^.0^32,37^]hexaconta-1(48),2,4,6,8,11,13,16(54),17,19,21,23,25,27,29,31(53),32(37),33,35,38,41,43,46,49,51,55,57,59-octacosaene tetrakis(trifluoroacetate) unknown solvate'
_symmetry_cell_setting           triclinic
_symmetry_space_group_name_H-M   'P -1'
_symmetry_Int_Tables_number      2
_space_group_name_Hall           '-P 1'
loop_
_symmetry_equiv_pos_site_id
_symmetry_equiv_pos_as_xyz
1 x,y,z
2 -x,-y,-z
_cell_length_a                   13.3141(7)
_cell_length_b                   21.1146(10)
_cell_length_c                   23.4964(13)
_cell_angle_alpha                96.654(4)
_cell_angle_beta                 99.661(4)
_cell_angle_gamma                105.932(4)
_cell_volume                     6169.51
_exptl_crystal_colour            red
_exptl_crystal_description       plate
_cell_formula_units_Z            4
_exptl_crystal_recrystallization_method 'Re-crystallisation from solvent'
loop_
_atom_site_label
_atom_site_type_symbol
_atom_site_fract_x
_atom_site_fract_y
_atom_site_fract_z
C1 C 0.0625(16) 0.9697(10) 0.6399(13)
H1 H -0.0004 0.9816 0.6274
C2 C 0.1304(16) 0.9724(10) 0.6026(9)
H2 H 0.1167 0.9884 0.5668
C3 C 0.2160(11) 0.9526(7) 0.6167(9)
C4 C -0.0081(11) 0.9418(8) 0.7290(8)
H3 H 0.0268 0.9595 0.7707
H4 H -0.0586 0.9669 0.7170
C5 C 0.2348(13) 0.9465(13) 0.6714(11)
H5 H 0.3028 0.9414 0.6854
C6 C 0.1676(16) 0.9463(15) 0.7160(11)
H6 H 0.1884 0.9426 0.7559
C7 C 0.2854(11) 0.9434(6) 0.5713(11)
C8 C 0.2561(15) 0.9434(11) 0.5148(10)
H7 H 0.1905 0.9517 0.5006
C9 C 0.3141(14) 0.9323(9) 0.4786(9)
H8 H 0.2888 0.9331 0.4385
C10 C 0.4133(12) 0.9191(6) 0.4939(8)
C11 C 0.4452(12) 0.9222(7) 0.5545(10)
H9 H 0.5116 0.9148 0.5683
C12 C 0.3875(12) 0.9351(7) 0.5954(7)
H10 H 0.4126 0.9383 0.6363
C13 C 0.4758(13) 0.9047(6) 0.4517(9)
C14 C 0.5778(12) 0.8971(7) 0.4726(8)
H11 H 0.6092 0.9045 0.5131
C15 C 0.6278(12) 0.8781(8) 0.4292(10)
H12 H 0.6952 0.8708 0.4401
C16 C 0.4906(17) 0.8823(9) 0.3536(10)
H13 H 0.4648 0.8778 0.3127
C17 C 0.4364(15) 0.9001(9) 0.3897(9)
H14 H 0.3722 0.9101 0.3758
C18 C 0.6412(13) 0.8415(8) 0.3313(8)
H15 H 0.6329 0.8604 0.2948
H16 H 0.7184 0.8546 0.3491
C19 C 0.5993(14) 0.7682(8) 0.3171(8)
C20 C 0.6462(11) 0.7327(9) 0.3497(8)
H17 H 0.7098 0.7547 0.3782
C21 C 0.6003(12) 0.6597(8) 0.3421(7)
H18 H 0.6337 0.6332 0.3640
C22 C 0.5053(12) 0.6319(7) 0.3010(8)
C23 C 0.4590(11) 0.6687(9) 0.2667(7)
H19 H 0.3960 0.6478 0.2376
C24 C 0.5067(14) 0.7374(8) 0.2757(8)
H20 H 0.4748 0.7638 0.2528
C25 C 0.4517(10) 0.5561(6) 0.2982(7)
H21 H 0.4151 0.5350 0.2574
H22 H 0.5065 0.5343 0.3111
C26 C 0.2763(11) 0.5514(5) 0.3149(7)
H23 H 0.2578 0.5529 0.2743
C27 C 0.2013(10) 0.5536(6) 0.3505(7)
C28 C 0.2307(9) 0.5541(5) 0.4075(7)
C29 C 0.3298(11) 0.5446(6) 0.4279(7)
C30 C 0.4021(11) 0.5440(7) 0.3935(8)
H24 H 0.4711 0.5412 0.4090
C31 C 0.3617(10) 0.5417(7) 0.4910(9)
H25 H 0.4282 0.5347 0.5054
C32 C 0.2961(9) 0.5490(6) 0.5284(6)
H26 H 0.3154 0.5454 0.5684
C33 C 0.1960(8) 0.5625(5) 0.5065(7)
C34 C 0.1609(9) 0.5615(5) 0.4475(7)
C35 C 0.0638(9) 0.5726(5) 0.4260(7)
C36 C 0.0327(10) 0.5680(6) 0.3649(7)
H27 H -0.0364 0.5704 0.3490
C37 C 0.0985(11) 0.5602(6) 0.3280(7)
H28 H 0.0763 0.5592 0.2872
C38 C 0.0006(8) 0.5859(5) 0.4648(6)
C39 C -0.1001(10) 0.5963(5) 0.4481(6)
H29 H -0.1258 0.5944 0.4075
C40 C -0.1620(9) 0.6085(6) 0.4844(7)
H30 H -0.2288 0.6148 0.4696
C41 C -0.1272(10) 0.6118(6) 0.5457(7)
C42 C -0.0268(8) 0.6025(5) 0.5664(7)
C43 C 0.0358(8) 0.5872(5) 0.5242(6)
C44 C 0.1290(9) 0.5758(5) 0.5464(6)
C45 C 0.1624(9) 0.5773(5) 0.6097(7)
H31 H 0.2280 0.5692 0.6241
C46 C 0.1022(10) 0.5901(6) 0.6479(6)
H32 H 0.1245 0.5899 0.6884
C47 C 0.0054(8) 0.6036(5) 0.6269(6)
C48 C -0.0558(9) 0.6210(6) 0.6639(6)
H33 H -0.0320 0.6249 0.7049
C49 C -0.1840(10) 0.6273(6) 0.5872(7)
H34 H -0.2511 0.6343 0.5744
C50 C -0.2101(9) 0.6572(8) 0.6857(6)
H35 H -0.2864 0.6453 0.6664
H36 H -0.2045 0.6367 0.7214
C51 C -0.1628(11) 0.7315(8) 0.7011(7)
C52 C -0.0753(12) 0.7618(9) 0.7453(7)
H37 H -0.0457 0.7352 0.7691
C53 C -0.0297(11) 0.8295(10) 0.7557(7)
H38 H 0.0302 0.8490 0.7871
C54 C -0.0674(12) 0.8699(10) 0.7225(9)
C55 C -0.1572(13) 0.8401(9) 0.6777(8)
H39 H -0.1856 0.8670 0.6538
C56 C -0.2067(10) 0.7696(9) 0.6673(7)
H40 H -0.2690 0.7495 0.6374
N1 N 0.0759(11) 0.9519(7) 0.6918(8)
N2 N 0.5837(13) 0.8699(6) 0.3731(7)
N3 N 0.3723(9) 0.5473(5) 0.3373(7)
N4 N -0.1470(9) 0.6326(6) 0.6441(6)
C57 C 0.7744(14) 0.6883(9) 0.2465(9)
H41 H 0.7740 0.6464 0.2577
C58 C 0.6940(12) 0.6937(11) 0.2021(8)
H42 H 0.6408 0.6546 0.1803
C59 C 0.6925(11) 0.7548(11) 0.1904(7)
C60 C 0.7787(12) 0.8177(10) 0.2201(8)
H43 H 0.7796 0.8603 0.2104
C61 C 0.8575(15) 0.8089(9) 0.2629(9)
H44 H 0.9132 0.8467 0.2847
C62 C 0.6086(10) 0.7649(9) 0.1428(7)
C63 C 0.5126(13) 0.7147(9) 0.1228(8)
H45 H 0.4990 0.6763 0.1412
C64 C 0.4383(12) 0.7185(10) 0.0784(8)
H46 H 0.3750 0.6822 0.0639
C65 C 0.4551(12) 0.7770(10) 0.0535(10)
C66 C 0.5503(14) 0.8310(9) 0.0732(8)
H47 H 0.5612 0.8706 0.0566
C67 C 0.6258(15) 0.8238(10) 0.1171(11)
H48 H 0.6912 0.8587 0.1306
C68 C 0.3814(13) 0.7828(11) 0.0026(9)
C69 C 0.3063(14) 0.7257(8) -0.0343(9)
H49 H 0.2991 0.6825 -0.0247
C70 C 0.2429(12) 0.7339(9) -0.0850(8)
H50 H 0.1970 0.6956 -0.1117
C71 C 0.3820(13) 0.8450(11) -0.0083(9)
H51 H 0.4285 0.8841 0.0171
C72 C 0.3127(17) 0.8489(9) -0.0574(10)
H52 H 0.3110 0.8919 -0.0648
C73 C 0.1838(13) 0.7986(8) -0.1560(10)
H53 H 0.1678 0.8418 -0.1547
H54 H 0.1159 0.7618 -0.1679
C74 C 0.2594(11) 0.7929(10) -0.1995(8)
C75 C 0.3317(14) 0.8531(8) -0.2084(8)
H55 H 0.3285 0.8954 -0.1915
C76 C 0.4070(13) 0.8489(10) -0.2423(9)
H56 H 0.4587 0.8881 -0.2469
C77 C 0.4050(12) 0.7881(12) -0.2684(8)
C78 C 0.3294(12) 0.7309(8) -0.2634(7)
H57 H 0.3252 0.6893 -0.2855
C79 C 0.2586(11) 0.7335(8) -0.2260(8)
H58 H 0.2107 0.6937 -0.2197
C80 C 0.4918(13) 0.7836(10) -0.3007(8)
H59 H 0.5186 0.8259 -0.3154
H60 H 0.4630 0.7469 -0.3348
C81 C 0.5792(15) 0.7094(9) -0.2534(9)
H61 H 0.5283 0.6699 -0.2759
C82 C 0.6623(16) 0.7044(10) -0.2080(8)
C83 C 0.7375(15) 0.7602(10) -0.1729(9)
C84 C 0.7357(13) 0.8221(11) -0.1851(9)
C85 C 0.659(2) 0.8293(10) -0.2277(10)
H62 H 0.6573 0.8722 -0.2354
C86 C 0.8122(16) 0.8804(10) -0.1511(9)
H63 H 0.8081 0.9232 -0.1581
C87 C 0.8921(13) 0.8759(9) -0.1081(9)
H64 H 0.9449 0.9149 -0.0859
C88 C 0.8937(15) 0.8102(10) -0.0975(8)
C89 C 0.8178(13) 0.7516(9) -0.1309(8)
C90 C 0.8206(13) 0.6887(10) -0.1207(8)
C91 C 0.7427(18) 0.6338(12) -0.1540(11)
H65 H 0.7400 0.5901 -0.1466
C92 C 0.6703(16) 0.6427(12) -0.1971(10)
H66 H 0.6213 0.6039 -0.2219
C93 C 0.8985(12) 0.6791(8) -0.0755(7)
C94 C 0.9126(17) 0.6150(8) -0.0586(10)
H67 H 0.8672 0.5733 -0.0804
C95 C 0.992(2) 0.6167(15) -0.0115(10)
H68 H 0.9994 0.5748 -0.0041
C96 C 1.0566(14) 0.6694(9) 0.0237(12)
C97 C 1.0549(13) 0.7308(10) 0.0099(7)
C98 C 0.9784(12) 0.7366(7) -0.0388(8)
C99 C 0.9788(12) 0.8026(8) -0.0529(8)
C100 C 1.0614(16) 0.8561(8) -0.0125(10)
H69 H 1.0685 0.9009 -0.0179
C101 C 1.1307(12) 0.8447(13) 0.0339(8)
H70 H 1.1847 0.8815 0.0584
C102 C 1.1229(15) 0.7835(8) 0.0446(10)
C103 C 1.1873(11) 0.7750(10) 0.0924(9)
H71 H 1.2364 0.8129 0.1182
C104 C 1.1211(16) 0.6626(9) 0.0680(10)
H72 H 1.1238 0.6196 0.0749
C105 C 1.2365(10) 0.7077(6) 0.1598(8)
H73 H 1.3065 0.7427 0.1721
H74 H 1.2499 0.6637 0.1560
C106 C 1.1725(10) 0.7122(7) 0.2065(7)
C107 C 1.1885(10) 0.7717(8) 0.2438(7)
H75 H 1.2497 0.8081 0.2445
C108 C 1.1183(10) 0.7809(8) 0.2809(7)
H76 H 1.1294 0.8224 0.3053
C109 C 1.0330(10) 0.7259(9) 0.2792(7)
C110 C 1.0162(10) 0.6666(8) 0.2445(7)
H77 H 0.9575 0.6293 0.2453
C111 C 1.0858(10) 0.6611(7) 0.2078(6)
H78 H 1.0722 0.6198 0.1825
C112 C 0.9476(10) 0.7348(8) 0.3148(6)
H79 H 0.9205 0.6940 0.3314
H80 H 0.9799 0.7729 0.3475
N5 N 0.8557(9) 0.7475(10) 0.2739(5)
N6 N 0.2458(11) 0.7939(9) -0.0963(7)
N7 N 0.5825(11) 0.7709(12) -0.2599(6)
N8 N 1.1822(10) 0.7159(9) 0.1030(7)
C113 C 0.1694(17) 1.018(3) 0.867(3)
C114 C 0.197(4) 1.027(3) 0.935(3)
F1 F 0.2161(17) 1.0925(8) 0.9477(9)
F2 F 0.1156(19) 0.9959(7) 0.9560(12)
F3 F 0.272(7) 1.003(2) 0.962(4)
O1 O 0.2074(14) 0.9791(9) 0.8368(11)
O2 O 0.109(7) 1.047(4) 0.8466(15)
C115 C 0.433(3) 0.327(2) 0.459(2)
C116 C 0.487(3) 0.278(4) 0.4828(17)
F4 F 0.5815(15) 0.2880(9) 0.4799(10)
F5 F 0.5007(12) 0.2831(7) 0.5381(6)
F6 F 0.425(2) 0.2233(9) 0.4644(12)
O3 O 0.4532(19) 0.3449(10) 0.4109(9)
O4 O 0.4098(9) 0.3656(7) 0.4967(10)
C117 C 0.7228(14) 0.5314(11) 0.3000(9)
C118 C 0.6822(17) 0.4848(14) 0.237(2)
F7 F 0.7152(15) 0.4308(7) 0.2335(7)
F8 F 0.5721(9) 0.4597(9) 0.2220(7)
F9 F 0.7113(9) 0.5123(7) 0.1964(5)
O5 O 0.7938(11) 0.5714(8) 0.3051(6)
O6 O 0.6607(11) 0.4898(13) 0.3284(8)
C119 C 1.0128(13) 0.4149(10) 0.1908(8)
C120 C 0.9552(15) 0.4582(12) 0.1566(12)
F10 F 1.0112(10) 0.4988(5) 0.1256(7)
F11 F 0.9249(8) 0.4986(5) 0.1956(5)
F12 F 0.8647(8) 0.4248(5) 0.1198(5)
O7 O 1.1003(9) 0.4427(6) 0.2128(5)
O8 O 0.9602(8) 0.3595(6) 0.1900(5)
C121 C 0.952(3) 0.781(3) 0.4765(3)
C122 C 0.9496(3) 0.791(3) 0.5465(3)
F13 F 0.9587(3) 0.853(3) 0.5635(3)
F14 F 0.8682(3) 0.766(3) 0.5725(3)
F15 F 1.0146(3) 0.771(3) 0.5765(3)
O9 O 0.9912(6) 0.7501(2) 0.4533(12)
O10 O 0.8916(3) 0.8112(2) 0.4631(11)
C123 C 1.2636(1) 1.0294(12) 0.332(4)
C124 C 1.223(6) 0.9828(5) 0.2624(1)
F16 F 1.2561(12) 0.9281(3) 0.2651(12)
F17 F 1.1128(12) 0.957(3) 0.254(4)
F18 F 1.2518(12) 1.01(3) 0.228(4)
O11 O 1.3346(12) 1.069(3) 0.337(4)
O12 O 1.2015(12) 0.9878(3) 0.3601(4)
C125 C 1.4745(12) 0.9667(3) 0.1909(4)
C126 C 1.5245(12) 0.9167(3) 0.2237(4)
F19 F 1.626(12) 0.9347(3) 0.2208(4)
F20 F 1.5452(12) 0.9297(3) 0.2789(4)
F21 F 1.4645(12) 0.8697(3) 0.2053(4)
O13 O 1.4977(12) 0.9916(3) 0.1509(4)
O14 O 1.4635(12) 1.0117(3) 0.2376(4)
C127 C 0.2520(12) 0.781(3) 0.6235(4)
C128 C 0.2796(12) 0.791(3) 0.5635(4)
F22 F 0.2987(12) 0.853(3) 0.5465(4)
F23 F 0.1982(12) 0.756(3) 0.5375(4)
F24 F 0.3546(12) 0.761(3) 0.5485(4)
O15 O 0.2901(12) 0.75(3) 0.6467(4)
O16 O 0.2216(12) 0.831(3) 0.6369(4)
loop_
_geom_bond_atom_site_label_1
_geom_bond_atom_site_label_2
_geom_bond_site_symmetry_1
_geom_bond_site_symmetry_2
C1 H1 1_555 1_555
C2 C1 1_555 1_555
H2 C2 1_555 1_555
C3 C2 1_555 1_555
C4 H3 1_555 1_555
H4 C4 1_555 1_555
C5 C3 1_555 1_555
H5 C5 1_555 1_555
C6 C5 1_555 1_555
H6 C6 1_555 1_555
C7 C3 1_555 1_555
C8 C7 1_555 1_555
H7 C8 1_555 1_555
C9 C8 1_555 1_555
H8 C9 1_555 1_555
C10 C9 1_555 1_555
C11 C10 1_555 1_555
H9 C11 1_555 1_555
C12 C7 1_555 1_555
H10 C12 1_555 1_555
C13 C10 1_555 1_555
C14 C13 1_555 1_555
H11 C14 1_555 1_555
C15 C14 1_555 1_555
H12 C15 1_555 1_555
C16 H13 1_555 1_555
C17 C13 1_555 1_555
H14 C17 1_555 1_555
C18 H15 1_555 1_555
H16 C18 1_555 1_555
C19 C18 1_555 1_555
C20 C19 1_555 1_555
H17 C20 1_555 1_555
C21 C20 1_555 1_555
H18 C21 1_555 1_555
C22 C21 1_555 1_555
C23 C22 1_555 1_555
H19 C23 1_555 1_555
C24 C19 1_555 1_555
H20 C24 1_555 1_555
C25 C22 1_555 1_555
H21 C25 1_555 1_555
H22 C25 1_555 1_555
C26 H23 1_555 1_555
C27 C26 1_555 1_555
C28 C27 1_555 1_555
C29 C28 1_555 1_555
C30 C29 1_555 1_555
H24 C30 1_555 1_555
C31 C29 1_555 1_555
H25 C31 1_555 1_555
C32 C31 1_555 1_555
H26 C32 1_555 1_555
C33 C32 1_555 1_555
C34 C28 1_555 1_555
C35 C34 1_555 1_555
C36 C35 1_555 1_555
H27 C36 1_555 1_555
C37 C27 1_555 1_555
H28 C37 1_555 1_555
C38 C35 1_555 1_555
C39 C38 1_555 1_555
H29 C39 1_555 1_555
C40 C39 1_555 1_555
H30 C40 1_555 1_555
C41 C40 1_555 1_555
C42 C41 1_555 1_555
C43 C38 1_555 1_555
C44 C33 1_555 1_555
C45 C44 1_555 1_555
H31 C45 1_555 1_555
C46 C45 1_555 1_555
H32 C46 1_555 1_555
C47 C42 1_555 1_555
C48 C47 1_555 1_555
H33 C48 1_555 1_555
C49 C41 1_555 1_555
H34 C49 1_555 1_555
C50 H35 1_555 1_555
H36 C50 1_555 1_555
C51 C50 1_555 1_555
C52 C51 1_555 1_555
H37 C52 1_555 1_555
C53 C52 1_555 1_555
H38 C53 1_555 1_555
C54 C4 1_555 1_555
C55 C54 1_555 1_555
H39 C55 1_555 1_555
C56 C51 1_555 1_555
H40 C56 1_555 1_555
N1 C1 1_555 1_555
N2 C15 1_555 1_555
N3 C25 1_555 1_555
N4 C48 1_555 1_555
C57 H41 1_555 1_555
C58 C57 1_555 1_555
H42 C58 1_555 1_555
C59 C58 1_555 1_555
C60 C59 1_555 1_555
H43 C60 1_555 1_555
C61 C60 1_555 1_555
H44 C61 1_555 1_555
C62 C59 1_555 1_555
C63 C62 1_555 1_555
H45 C63 1_555 1_555
C64 C63 1_555 1_555
H46 C64 1_555 1_555
C65 C64 1_555 1_555
C66 C65 1_555 1_555
H47 C66 1_555 1_555
C67 C62 1_555 1_555
H48 C67 1_555 1_555
C68 C65 1_555 1_555
C69 C68 1_555 1_555
H49 C69 1_555 1_555
C70 C69 1_555 1_555
H50 C70 1_555 1_555
C71 C68 1_555 1_555
H51 C71 1_555 1_555
C72 C71 1_555 1_555
H52 C72 1_555 1_555
C73 H53 1_555 1_555
H54 C73 1_555 1_555
C74 C73 1_555 1_555
C75 C74 1_555 1_555
H55 C75 1_555 1_555
C76 C75 1_555 1_555
H56 C76 1_555 1_555
C77 C76 1_555 1_555
C78 C77 1_555 1_555
H57 C78 1_555 1_555
C79 C74 1_555 1_555
H58 C79 1_555 1_555
C80 C77 1_555 1_555
H59 C80 1_555 1_555
H60 C80 1_555 1_555
C81 H61 1_555 1_555
C82 C81 1_555 1_555
C83 C82 1_555 1_555
C84 C83 1_555 1_555
C85 C84 1_555 1_555
H62 C85 1_555 1_555
C86 C84 1_555 1_555
H63 C86 1_555 1_555
C87 C86 1_555 1_555
H64 C87 1_555 1_555
C88 C87 1_555 1_555
C89 C83 1_555 1_555
C90 C89 1_555 1_555
C91 C90 1_555 1_555
H65 C91 1_555 1_555
C92 C82 1_555 1_555
H66 C92 1_555 1_555
C93 C90 1_555 1_555
C94 C93 1_555 1_555
H67 C94 1_555 1_555
C95 C94 1_555 1_555
H68 C95 1_555 1_555
C96 C95 1_555 1_555
C97 C96 1_555 1_555
C98 C93 1_555 1_555
C99 C88 1_555 1_555
C100 C99 1_555 1_555
H69 C100 1_555 1_555
C101 C100 1_555 1_555
H70 C101 1_555 1_555
C102 C97 1_555 1_555
C103 C102 1_555 1_555
H71 C103 1_555 1_555
C104 C96 1_555 1_555
H72 C104 1_555 1_555
C105 H73 1_555 1_555
H74 C105 1_555 1_555
C106 C105 1_555 1_555
C107 C106 1_555 1_555
H75 C107 1_555 1_555
C108 C107 1_555 1_555
H76 C108 1_555 1_555
C109 C108 1_555 1_555
C110 C109 1_555 1_555
H77 C110 1_555 1_555
C111 C106 1_555 1_555
H78 C111 1_555 1_555
C112 C109 1_555 1_555
H79 C112 1_555 1_555
H80 C112 1_555 1_555
N5 C57 1_555 1_555
N6 C70 1_555 1_555
N7 C80 1_555 1_555
N8 C103 1_555 1_555
C113 C114 1_555 1_555
C114 F1 1_555 1_555
F2 C114 1_555 1_555
F3 C114 1_555 1_555
O1 C113 1_555 1_555
O2 C113 1_555 1_555
C115 C116 1_555 1_555
C116 F4 1_555 1_555
F5 C116 1_555 1_555
F6 C116 1_555 1_555
O3 C115 1_555 1_555
O4 C115 1_555 1_555
C117 C118 1_555 1_555
C118 F7 1_555 1_555
F8 C118 1_555 1_555
F9 C118 1_555 1_555
O5 C117 1_555 1_555
O6 C117 1_555 1_555
C119 C120 1_555 1_555
C120 F10 1_555 1_555
F11 C120 1_555 1_555
F12 C120 1_555 1_555
O7 C119 1_555 1_555
O8 C119 1_555 1_555
C121 C122 1_555 1_555
C122 F13 1_555 1_555
F14 C122 1_555 1_555
F15 C122 1_555 1_555
O9 C121 1_555 1_555
O10 C121 1_555 1_555
C123 C124 1_555 1_555
C124 F16 1_555 1_555
F17 C124 1_555 1_555
F18 C124 1_555 1_555
O11 C123 1_555 1_555
O12 C123 1_555 1_555
C125 C126 1_555 1_555
C126 F19 1_555 1_555
F20 C126 1_555 1_555
F21 C126 1_555 1_555
O13 C125 1_555 1_555
O14 C125 1_555 1_555
C127 C128 1_555 1_555
C128 F22 1_555 1_555
F23 C128 1_555 1_555
F24 C128 1_555 1_555
O15 C127 1_555 1_555
O16 C127 1_555 1_555
C4 N1 1_555 1_555
C6 N1 1_555 1_555
C11 C12 1_555 1_555
C16 C17 1_555 1_555
C16 N2 1_555 1_555
C18 N2 1_555 1_555
C23 C24 1_555 1_555
C26 N3 1_555 1_555
C30 N3 1_555 1_555
C33 C34 1_555 1_555
C36 C37 1_555 1_555
C42 C43 1_555 1_555
C43 C44 1_555 1_555
C46 C47 1_555 1_555
C49 N4 1_555 1_555
C50 N4 1_555 1_555
C53 C54 1_555 1_555
C55 C56 1_555 1_555
C61 N5 1_555 1_555
C66 C67 1_555 1_555
C72 N6 1_555 1_555
C73 N6 1_555 1_555
C78 C79 1_555 1_555
C81 N7 1_555 1_555
C85 N7 1_555 1_555
C88 C89 1_555 1_555
C91 C92 1_555 1_555
C97 C98 1_555 1_555
C98 C99 1_555 1_555
C101 C102 1_555 1_555
C104 N8 1_555 1_555
C105 N8 1_555 1_555
C110 C111 1_555 1_555
C112 N5 1_555 1_555

#END
