
#######################################################################
#
#                 Cambridge Crystallographic Data Centre
#                                CCDC 
#
#######################################################################
#
# If this CIF has been generated from an entry in the Cambridge 
# Structural Database, then it will include bibliographic, chemical, 
# crystal, experimental, refinement or atomic coordinate data resulting 
# from the CCDC's data processing and validation procedures.
#
#######################################################################

data_TAVWIY
_chemical_formula_moiety         'C19 H16 Br1 N1 O3'
_chemical_name_systematic        
(3S,3aS,8bR)-4-Acetyl-3-(4-bromophenyl)-8b-hydroxy-3,3a,4,8b-tetrahydrocyclopenta[b]indol-1(2H)-one
_symmetry_cell_setting           triclinic
_symmetry_space_group_name_H-M   'P -1'
_symmetry_Int_Tables_number      2
_space_group_name_Hall           '-P 1'
loop_
_symmetry_equiv_pos_site_id
_symmetry_equiv_pos_as_xyz
1 x,y,z
2 -x,-y,-z
_cell_length_a                   8.663(11)
_cell_length_b                   9.218(11)
_cell_length_c                   12.471(15)
_cell_angle_alpha                82.408(12)
_cell_angle_beta                 80.410(13)
_cell_angle_gamma                77.913(14)
_cell_volume                     955.297
_exptl_crystal_colour            colorless
_exptl_crystal_description       block
_cell_formula_units_Z            2
loop_
_atom_site_label
_atom_site_type_symbol
_atom_site_fract_x
_atom_site_fract_y
_atom_site_fract_z
Br1 Br 0.42965(9) 0.23838(7) 1.12132(4)
C1 C 0.8536(5) 0.2621(4) 0.4585(3)
C2 C 0.9789(5) 0.3358(5) 0.4246(4)
H1 H 1.0557 0.3324 0.4693
C3 C 0.9873(6) 0.4141(6) 0.3234(4)
H2 H 1.0716 0.4638 0.2990
C4 C 0.8729(6) 0.4210(6) 0.2567(4)
H3 H 0.8807 0.4760 0.1886
C5 C 0.7472(6) 0.3472(5) 0.2900(4)
H4 H 0.6712 0.3502 0.2447
C6 C 0.7379(5) 0.2691(4) 0.3918(3)
C7 C 0.6186(5) 0.1741(4) 0.4463(3)
C8 C 0.6484(5) 0.1576(4) 0.5656(3)
H5 H 0.6290 0.0622 0.6046
C9 C 0.5339(5) 0.2925(4) 0.6157(3)
H6 H 0.5831 0.3801 0.5916
C10 C 0.3864(5) 0.3135(5) 0.5579(3)
H7 H 0.3096 0.2567 0.5991
H8 H 0.3356 0.4179 0.5499
C11 C 0.4466(5) 0.2579(5) 0.4485(3)
C12 C 0.9230(6) 0.1008(5) 0.6254(4)
C13 C 0.8656(6) -0.0010(6) 0.7201(4)
H9 H 0.7847 0.0557 0.7689
H10 H 0.9532 -0.0489 0.7582
H11 H 0.8220 -0.0751 0.6942
C14 C 0.5065(5) 0.2778(4) 0.7395(3)
C15 C 0.5771(5) 0.3603(5) 0.7954(3)
H12 H 0.6391 0.4262 0.7567
C16 C 0.5560(6) 0.3456(5) 0.9087(4)
H13 H 0.6058 0.3999 0.9455
C17 C 0.4625(7) 0.2515(5) 0.9663(4)
C18 C 0.3914(7) 0.1694(6) 0.9133(4)
H14 H 0.3272 0.1060 0.9530
C19 C 0.4149(6) 0.1806(5) 0.8003(4)
H15 H 0.3685 0.1221 0.7646
N1 N 0.8160(4) 0.1731(4) 0.5584(3)
O1 O 0.3735(4) 0.2736(4) 0.3727(2)
O2 O 0.6362(3) 0.0401(3) 0.3975(2)
H16 H 0.7311 0.0024 0.3854
O3 O 1.0621(4) 0.1195(4) 0.6056(3)
loop_
_geom_bond_atom_site_label_1
_geom_bond_atom_site_label_2
_geom_bond_site_symmetry_1
_geom_bond_site_symmetry_2
Br1 C17 1_555 1_555
C1 C2 1_555 1_555
C2 H1 1_555 1_555
C3 C2 1_555 1_555
H2 C3 1_555 1_555
C4 C3 1_555 1_555
H3 C4 1_555 1_555
C5 C4 1_555 1_555
H4 C5 1_555 1_555
C6 C1 1_555 1_555
C7 C6 1_555 1_555
C8 C7 1_555 1_555
H5 C8 1_555 1_555
C9 C8 1_555 1_555
H6 C9 1_555 1_555
C10 C9 1_555 1_555
H7 C10 1_555 1_555
H8 C10 1_555 1_555
C11 C7 1_555 1_555
C12 C13 1_555 1_555
C13 H9 1_555 1_555
H10 C13 1_555 1_555
H11 C13 1_555 1_555
C14 C9 1_555 1_555
C15 C14 1_555 1_555
H12 C15 1_555 1_555
C16 C15 1_555 1_555
H13 C16 1_555 1_555
C17 C16 1_555 1_555
C18 C17 1_555 1_555
H14 C18 1_555 1_555
C19 C14 1_555 1_555
H15 C19 1_555 1_555
N1 C1 1_555 1_555
O1 C11 1_555 1_555
O2 C7 1_555 1_555
H16 O2 1_555 1_555
O3 C12 1_555 1_555
C5 C6 1_555 1_555
C8 N1 1_555 1_555
C10 C11 1_555 1_555
C12 N1 1_555 1_555
C18 C19 1_555 1_555

#END
