
#######################################################################
#
#                 Cambridge Crystallographic Data Centre
#                                CCDC 
#
#######################################################################
#
# If this CIF has been generated from an entry in the Cambridge 
# Structural Database, then it will include bibliographic, chemical, 
# crystal, experimental, refinement or atomic coordinate data resulting 
# from the CCDC's data processing and validation procedures.
#
#######################################################################

data_TAVZAS
_chemical_formula_moiety         'C15 H15 N6 P1,0.5(C6 H6)'
_chemical_name_systematic        
'tris(2-(1-Vinylimidazolyl))phosphine benzene solvate'
_symmetry_cell_setting           triclinic
_symmetry_space_group_name_H-M   'P -1'
_symmetry_Int_Tables_number      2
_space_group_name_Hall           '-P 1'
loop_
_symmetry_equiv_pos_site_id
_symmetry_equiv_pos_as_xyz
1 x,y,z
2 -x,-y,-z
_cell_length_a                   7.9426(14)
_cell_length_b                   9.506(4)
_cell_length_c                   11.930(5)
_cell_angle_alpha                89.12(4)
_cell_angle_beta                 80.58(2)
_cell_angle_gamma                77.85(2)
_cell_volume                     868.522
_exptl_crystal_colour            colorless
_exptl_crystal_description       prismatic
_cell_formula_units_Z            2
loop_
_atom_site_label
_atom_site_type_symbol
_atom_site_fract_x
_atom_site_fract_y
_atom_site_fract_z
P1 P 0.15120(7) -0.05890(6) 0.13762(4)
N1 N 0.0949(2) 0.08603(18) 0.35706(14)
N2 N -0.0792(2) 0.17769(18) 0.23266(16)
N3 N 0.4733(2) 0.01577(19) 0.14777(15)
N4 N 0.4796(2) -0.21788(19) 0.17205(16)
N5 N 0.1175(2) -0.34522(18) 0.12936(15)
N6 N 0.0422(2) -0.25076(19) 0.30467(15)
C1 C 0.0504(3) 0.0706(2) 0.25165(18)
C2 C -0.1195(3) 0.2626(2) 0.32920(19)
H1 H -0.2090 0.3472 0.3410
C3 C -0.0145(3) 0.2094(2) 0.40552(19)
H2 H -0.0162 0.2495 0.4783
C4 C 0.2236(3) -0.0082(2) 0.40810(18)
H3 H 0.2780 -0.0976 0.3706
C5 C 0.2719(3) 0.0206(3) 0.5038(2)
H4 H 0.2200 0.1091 0.5433
H5 H 0.3589 -0.0470 0.5335
C6 C 0.3805(3) -0.0918(2) 0.15422(17)
C7 C 0.6397(3) -0.0470(2) 0.16512(19)
H6 H 0.7340 -0.0004 0.1671
C8 C 0.6407(3) -0.1888(2) 0.17873(19)
H7 H 0.7397 -0.2592 0.1913
C9 C 0.4067(3) 0.1643(2) 0.1341(2)
H8 H 0.3101 0.1910 0.0951
C10 C 0.4705(3) 0.2668(3) 0.1722(2)
H9 H 0.5672 0.2434 0.2116
H10 H 0.4202 0.3646 0.1604
C11 C 0.1005(3) -0.2261(2) 0.19745(18)
C12 C 0.0679(3) -0.4510(2) 0.19958(18)
H11 H 0.0668 -0.5466 0.1781
C13 C 0.0210(3) -0.3911(2) 0.30528(19)
H12 H -0.0208 -0.4393 0.3710
C14 C 0.1778(3) -0.3562(2) 0.01052(19)
H13 H 0.1703 -0.2695 -0.0309
C15 C 0.2432(3) -0.4777(3) -0.0458(2)
H14 H 0.2526 -0.5663 -0.0070
H15 H 0.2813 -0.4772 -0.1256
C16 C 0.4395(3) -0.4491(3) 0.4011(2)
H16 H 0.3986 -0.4147 0.3332
C17 C 0.5479(3) -0.3793(3) 0.4486(2)
H17 H 0.5805 -0.2963 0.4138
C18 C 0.3909(3) -0.5690(3) 0.4525(2)
H18 H 0.3155 -0.6163 0.4203
C16A C 0.5605(3) -0.5509(3) 0.5989(2)
H16A H 0.6014 -0.5853 0.6668
C17A C 0.4521(3) -0.6207(3) 0.5514(2)
H17A H 0.4195 -0.7037 0.5862
C18A C 0.6091(3) -0.4310(3) 0.5475(2)
H18A H 0.6845 -0.3837 0.5797
loop_
_geom_bond_atom_site_label_1
_geom_bond_atom_site_label_2
_geom_bond_site_symmetry_1
_geom_bond_site_symmetry_2
P1 C1 1_555 1_555
N1 C1 1_555 1_555
N2 C1 1_555 1_555
N3 C6 1_555 1_555
N4 C6 1_555 1_555
N5 C11 1_555 1_555
N6 C11 1_555 1_555
C2 N2 1_555 1_555
H1 C2 1_555 1_555
C3 N1 1_555 1_555
H2 C3 1_555 1_555
C4 N1 1_555 1_555
H3 C4 1_555 1_555
C5 C4 1_555 1_555
H4 C5 1_555 1_555
H5 C5 1_555 1_555
C6 P1 1_555 1_555
C7 N3 1_555 1_555
H6 C7 1_555 1_555
C8 N4 1_555 1_555
H7 C8 1_555 1_555
C9 N3 1_555 1_555
H8 C9 1_555 1_555
C10 C9 1_555 1_555
H9 C10 1_555 1_555
H10 C10 1_555 1_555
C11 P1 1_555 1_555
C12 N5 1_555 1_555
H11 C12 1_555 1_555
C13 N6 1_555 1_555
H12 C13 1_555 1_555
C14 N5 1_555 1_555
H13 C14 1_555 1_555
C15 C14 1_555 1_555
H14 C15 1_555 1_555
H15 C15 1_555 1_555
C16 H16 1_555 1_555
C17 C16 1_555 1_555
H17 C17 1_555 1_555
C18 C16 1_555 1_555
H18 C18 1_555 1_555
C16A H16A 1_555 1_555
C17A C18 1_555 1_555
H17A C17A 1_555 1_555
C18A C17 1_555 1_555
H18A C18A 1_555 1_555
C2 C3 1_555 1_555
C7 C8 1_555 1_555
C12 C13 1_555 1_555
C16A C17A 1_555 1_555
C16A C18A 1_555 1_555

#END
