
#######################################################################
#
#                 Cambridge Crystallographic Data Centre
#                                CCDC 
#
#######################################################################
#
# If this CIF has been generated from an entry in the Cambridge 
# Structural Database, then it will include bibliographic, chemical, 
# crystal, experimental, refinement or atomic coordinate data resulting 
# from the CCDC's data processing and validation procedures.
#
#######################################################################

data_TAWBIE
_chemical_formula_moiety         'C18 H15 N1 O4'
_chemical_name_systematic        
5,6-Dimethoxy-1-(4-nitrobenzylidene)-1H-indene
_symmetry_cell_setting           monoclinic
_symmetry_space_group_name_H-M   'P 2/c'
_symmetry_Int_Tables_number      13
_space_group_name_Hall           '-P 2yc'
loop_
_symmetry_equiv_pos_site_id
_symmetry_equiv_pos_as_xyz
1 x,y,z
2 -x,y,1/2-z
3 -x,-y,-z
4 x,-y,1/2+z
_cell_length_a                   15.717
_cell_length_b                   12.299
_cell_length_c                   15.454
_cell_angle_alpha                90
_cell_angle_beta                 95.11
_cell_angle_gamma                90
_cell_volume                     2975.44
_exptl_crystal_colour            red
_exptl_crystal_description       parallelepiped
_chemical_melting_point          '403-404 K'
_cell_formula_units_Z            8
_exptl_crystal_recrystallization_method dichloromethane/hexane
loop_
_atom_site_label
_atom_site_type_symbol
_atom_site_fract_x
_atom_site_fract_y
_atom_site_fract_z
O1 O 0.95954(7) 0.32515(8) 0.64203(7)
O2 O 1.02276(7) 0.50838(7) 0.60311(8)
O3 O 0.54416(9) 1.16919(9) 0.84365(10)
O4 O 0.64290(8) 1.26625(9) 0.79624(9)
N1 N 0.60975(10) 1.17887(12) 0.80845(10)
C1 C 0.83963(10) 0.40973(11) 0.70517(11)
H1 H 0.8170 0.3432 0.7202
C2 C 0.91365(10) 0.41387(11) 0.66375(11)
C3 C 0.94787(10) 0.51471(12) 0.64173(10)
C4 C 0.90652(9) 0.60989(11) 0.65957(10)
H2 H 0.9287 0.6766 0.6442
C5 C 0.83148(9) 0.60548(11) 0.70077(10)
C6 C 0.79926(10) 0.50577(12) 0.72421(10)
C7 C 0.72344(10) 0.52625(12) 0.76964(11)
H3 H 0.6898 0.4731 0.7925
C8 C 0.70986(10) 0.63320(13) 0.77332(11)
H4 H 0.6659 0.6659 0.8003
C9 C 0.77445(9) 0.69158(12) 0.72859(10)
C10 C 0.78306(9) 0.79827(11) 0.71202(10)
H5 H 0.8292 0.8147 0.6807
C11 C 0.73337(10) 0.89294(11) 0.73409(11)
C12 C 0.65434(10) 0.88834(12) 0.76832(11)
H6 H 0.6287 0.8211 0.7752
C13 C 0.61369(10) 0.98099(13) 0.79198(11)
H7 H 0.5615 0.9767 0.8157
C14 C 0.65097(10) 1.07960(12) 0.78021(11)
C15 C 0.72686(10) 1.08802(12) 0.74416(12)
H8 H 0.7508 1.1558 0.7352
C16 C 0.76720(10) 0.99487(12) 0.72147(11)
H9 H 0.8189 1.0004 0.6968
C17 C 0.92565(10) 0.22082(11) 0.65852(12)
H10 H 0.9637 0.1657 0.6407
H11 H 0.8708 0.2128 0.6265
H12 H 0.9196 0.2134 0.7195
C18 C 1.06125(10) 0.60693(12) 0.57948(12)
H13 H 1.1128 0.5912 0.5529
H14 H 1.0745 0.6505 0.6304
H15 H 1.0225 0.6459 0.5391
O5 O 0.87656(6) 1.19670(8) 0.93117(8)
O6 O 0.94414(7) 1.01340(8) 0.90157(9)
O7 O 0.47767(9) 0.34696(10) 1.15131(11)
O8 O 0.56283(9) 0.25333(10) 1.08059(10)
N2 N 0.53642(10) 0.33942(12) 1.10620(11)
C19 C 0.75119(10) 1.11319(11) 0.98541(10)
H16 H 0.7264 1.1799 0.9963
C20 C 0.82947(10) 1.10849(11) 0.95275(11)
C21 C 0.86719(10) 1.00777(12) 0.93735(11)
C22 C 0.82671(9) 0.91248(11) 0.95555(11)
H17 H 0.8522 0.8458 0.9462
C23 C 0.74753(9) 0.91699(11) 0.98797(10)
C24 C 0.70952(9) 1.01726(12) 1.00201(10)
C25 C 0.62535(10) 0.99508(13) 1.03155(11)
H18 H 0.5862 1.0477 1.0450
C26 C 0.61334(10) 0.88831(12) 1.03626(11)
H19 H 0.5641 0.8553 1.0528
C27 C 0.68883(9) 0.83036(12) 1.01155(10)
C28 C 0.70636(9) 0.72358(11) 1.00902(10)
H20 H 0.7579 0.7073 0.9868
C29 C 0.65926(9) 0.62852(11) 1.03478(11)
C30 C 0.59461(10) 0.63121(12) 1.09015(11)
H21 H 0.5785 0.6977 1.1124
C31 C 0.55351(10) 0.53790(13) 1.11316(11)
H22 H 0.5097 0.5412 1.1498
C32 C 0.57836(10) 0.44044(12) 1.08116(12)
C33 C 0.64219(11) 0.43395(12) 1.02698(12)
H23 H 0.6582 0.3671 1.0055
C34 C 0.68240(10) 0.52754(12) 1.00466(12)
H24 H 0.7264 0.5231 0.9683
C35 C 0.83939(10) 1.30098(11) 0.93505(12)
H25 H 0.8790 1.3548 0.9182
H26 H 0.8257 1.3152 0.9933
H27 H 0.7882 1.3038 0.8963
C36 C 0.98496(10) 0.91394(12) 0.88481(13)
H28 H 1.0379 0.9285 0.8605
H29 H 0.9486 0.8717 0.8445
H30 H 0.9961 0.8742 0.9381
loop_
_geom_bond_atom_site_label_1
_geom_bond_atom_site_label_2
_geom_bond_site_symmetry_1
_geom_bond_site_symmetry_2
O1 C2 1_555 1_555
O2 C3 1_555 1_555
O3 N1 1_555 1_555
O4 N1 1_555 1_555
N1 C14 1_555 1_555
C1 H1 1_555 1_555
C2 C1 1_555 1_555
C3 C2 1_555 1_555
C4 C3 1_555 1_555
H2 C4 1_555 1_555
C5 C4 1_555 1_555
C6 C1 1_555 1_555
C7 C6 1_555 1_555
H3 C7 1_555 1_555
C8 C7 1_555 1_555
H4 C8 1_555 1_555
C9 C5 1_555 1_555
C10 C9 1_555 1_555
H5 C10 1_555 1_555
C11 C10 1_555 1_555
C12 C11 1_555 1_555
H6 C12 1_555 1_555
C13 C12 1_555 1_555
H7 C13 1_555 1_555
C14 C13 1_555 1_555
C15 C14 1_555 1_555
H8 C15 1_555 1_555
C16 C11 1_555 1_555
H9 C16 1_555 1_555
C17 O1 1_555 1_555
H10 C17 1_555 1_555
H11 C17 1_555 1_555
H12 C17 1_555 1_555
C18 O2 1_555 1_555
H13 C18 1_555 1_555
H14 C18 1_555 1_555
H15 C18 1_555 1_555
O5 C20 1_555 1_555
O6 C21 1_555 1_555
O7 N2 1_555 1_555
O8 N2 1_555 1_555
N2 C32 1_555 1_555
C19 H16 1_555 1_555
C20 C19 1_555 1_555
C21 C20 1_555 1_555
C22 C21 1_555 1_555
H17 C22 1_555 1_555
C23 C22 1_555 1_555
C24 C19 1_555 1_555
C25 C24 1_555 1_555
H18 C25 1_555 1_555
C26 C25 1_555 1_555
H19 C26 1_555 1_555
C27 C23 1_555 1_555
C28 C27 1_555 1_555
H20 C28 1_555 1_555
C29 C28 1_555 1_555
C30 C29 1_555 1_555
H21 C30 1_555 1_555
C31 C30 1_555 1_555
H22 C31 1_555 1_555
C32 C31 1_555 1_555
C33 C32 1_555 1_555
H23 C33 1_555 1_555
C34 C29 1_555 1_555
H24 C34 1_555 1_555
C35 O5 1_555 1_555
H25 C35 1_555 1_555
H26 C35 1_555 1_555
H27 C35 1_555 1_555
C36 O6 1_555 1_555
H28 C36 1_555 1_555
H29 C36 1_555 1_555
H30 C36 1_555 1_555
C5 C6 1_555 1_555
C8 C9 1_555 1_555
C15 C16 1_555 1_555
C23 C24 1_555 1_555
C26 C27 1_555 1_555
C33 C34 1_555 1_555

#END
