
#######################################################################
#
#                 Cambridge Crystallographic Data Centre
#                                CCDC 
#
#######################################################################
#
# If this CIF has been generated from an entry in the Cambridge 
# Structural Database, then it will include bibliographic, chemical, 
# crystal, experimental, refinement or atomic coordinate data resulting 
# from the CCDC's data processing and validation procedures.
#
#######################################################################

data_TAWBOK
_chemical_compound_source        
'endophytic fungus Cytospora sp. (from Ilex canariensis)'
_chemical_name_common            'Cytospolide M'
_chemical_formula_moiety         'C15 H26 O5'
_chemical_name_systematic        
(1S,2R,5R,6S,7R,8R)-6,7-Dihydroxy-5,8-dimethyl-2-pentyl-3,11-dioxa-bicyclo[6.2.1]undecan-4-one
_symmetry_cell_setting           orthorhombic
_symmetry_space_group_name_H-M   'P 21 21 21'
_symmetry_Int_Tables_number      19
_space_group_name_Hall           'P 2ac 2ab'
loop_
_symmetry_equiv_pos_site_id
_symmetry_equiv_pos_as_xyz
1 x,y,z
2 1/2-x,-y,1/2+z
3 -x,1/2+y,1/2-z
4 1/2+x,1/2-y,-z
_cell_length_a                   5.3240(1)
_cell_length_b                   12.6918(3)
_cell_length_c                   23.0937(6)
_cell_angle_alpha                90
_cell_angle_beta                 90
_cell_angle_gamma                90
_cell_volume                     1560.47
_exptl_crystal_colour            colorless
_exptl_crystal_description       prism
_chemical_melting_point          '136-137 deg.C'
_cell_formula_units_Z            4
loop_
_atom_site_label
_atom_site_type_symbol
_atom_site_fract_x
_atom_site_fract_y
_atom_site_fract_z
O1 O 0.7929(5) 0.6717(2) 0.78241(11)
O2 O 0.4513(6) 0.5905(3) 0.81893(14)
O3 O 0.6766(5) 0.6606(3) 0.94570(11)
H1 H 0.5996 0.7095 0.9308
O4 O 1.2193(5) 0.7723(2) 0.94054(11)
H2 H 1.1454 0.7883 0.9704
O5 O 0.6571(5) 0.8211(3) 0.85359(12)
C1 C 0.6716(8) 0.6084(3) 0.82117(18)
C2 C 0.8502(8) 0.5644(3) 0.86431(18)
H3 H 1.0096 0.5512 0.8443
C3 C 0.9034(7) 0.6425(4) 0.91438(17)
H4 H 1.0167 0.6059 0.9411
C4 C 1.0389(7) 0.7443(4) 0.89667(17)
H5 H 1.1301 0.7307 0.8606
C5 C 0.8782(7) 0.8410(4) 0.88797(19)
H6 H 0.8280 0.8691 0.9258
C6 C 1.0198(10) 0.9262(4) 0.8542(2)
H7 H 0.9565 0.9960 0.8632
H8 H 1.1985 0.9238 0.8622
C7 C 0.9648(9) 0.8967(4) 0.7918(2)
H9 H 1.0832 0.8446 0.7778
H10 H 0.9713 0.9581 0.7668
C8 C 0.6981(8) 0.8514(4) 0.79455(19)
H11 H 0.5784 0.9071 0.7844
C9 C 0.6451(9) 0.7555(4) 0.75711(17)
H12 H 0.4664 0.7375 0.7597
C10 C 0.7560(11) 0.4597(4) 0.8876(2)
H13 H 0.7236 0.4127 0.8559
H14 H 0.6040 0.4707 0.9091
H15 H 0.8811 0.4294 0.9125
C11 C 0.7171(10) 0.7698(4) 0.69446(19)
H16 H 0.8982 0.7643 0.6909
H17 H 0.6687 0.8399 0.6821
C12 C 0.5951(12) 0.6892(5) 0.6547(2)
H18 H 0.6368 0.6189 0.6681
H19 H 0.4141 0.6970 0.6566
C13 C 0.6772(16) 0.7009(6) 0.5937(2)
H20 H 0.8591 0.7044 0.5923
H21 H 0.6112 0.7662 0.5781
C14 C 0.574(3) 0.5963(13) 0.5518(5)
H22 H 0.6830 0.5851 0.5187
H23 H 0.5649 0.5318 0.5743
C15 C 0.375(3) 0.6244(13) 0.5374(5)
H24 H 0.2967 0.5707 0.5143
H25 H 0.3895 0.6879 0.5150
H26 H 0.2735 0.6378 0.5710
loop_
_geom_bond_atom_site_label_1
_geom_bond_atom_site_label_2
_geom_bond_site_symmetry_1
_geom_bond_site_symmetry_2
O1 C1 1_555 1_555
O2 C1 1_555 1_555
O3 H1 1_555 1_555
O4 H2 1_555 1_555
O5 C5 1_555 1_555
C1 C2 1_555 1_555
C2 H3 1_555 1_555
C3 O3 1_555 1_555
H4 C3 1_555 1_555
C4 O4 1_555 1_555
H5 C4 1_555 1_555
C5 C4 1_555 1_555
H6 C5 1_555 1_555
C6 C5 1_555 1_555
H7 C6 1_555 1_555
H8 C6 1_555 1_555
C7 C6 1_555 1_555
H9 C7 1_555 1_555
H10 C7 1_555 1_555
C8 O5 1_555 1_555
H11 C8 1_555 1_555
C9 O1 1_555 1_555
H12 C9 1_555 1_555
C10 C2 1_555 1_555
H13 C10 1_555 1_555
H14 C10 1_555 1_555
H15 C10 1_555 1_555
C11 C9 1_555 1_555
H16 C11 1_555 1_555
H17 C11 1_555 1_555
C12 C11 1_555 1_555
H18 C12 1_555 1_555
H19 C12 1_555 1_555
C13 C12 1_555 1_555
H20 C13 1_555 1_555
H21 C13 1_555 1_555
C14 C13 1_555 1_555
H22 C14 1_555 1_555
H23 C14 1_555 1_555
C15 C14 1_555 1_555
H24 C15 1_555 1_555
H25 C15 1_555 1_555
H26 C15 1_555 1_555
C2 C3 1_555 1_555
C3 C4 1_555 1_555
C7 C8 1_555 1_555
C8 C9 1_555 1_555

#END
