
#######################################################################
#
#                 Cambridge Crystallographic Data Centre
#                                CCDC 
#
#######################################################################
#
# If this CIF has been generated from an entry in the Cambridge 
# Structural Database, then it will include bibliographic, chemical, 
# crystal, experimental, refinement or atomic coordinate data resulting 
# from the CCDC's data processing and validation procedures.
#
#######################################################################

data_TAWFAB
_chemical_formula_moiety         'C12 H9 N1 S1,1.5(C6 F4 I2)'
_chemical_name_systematic        
'10H-phenothiazine sesqhikis(1,2,4,5-tetrafluoro-3,6-di-iodobenzene)'
_symmetry_cell_setting           triclinic
_symmetry_space_group_name_H-M   'P -1'
_symmetry_Int_Tables_number      2
_space_group_name_Hall           '-P 1'
loop_
_symmetry_equiv_pos_site_id
_symmetry_equiv_pos_as_xyz
1 x,y,z
2 -x,-y,-z
_cell_length_a                   5.9807(5)
_cell_length_b                   14.1390(10)
_cell_length_c                   14.2774(10)
_cell_angle_alpha                68.5160(10)
_cell_angle_beta                 81.348(3)
_cell_angle_gamma                86.090(3)
_cell_volume                     1110.53
_exptl_crystal_colour            yellow
_exptl_crystal_description       block
_cell_formula_units_Z            2
loop_
_atom_site_label
_atom_site_type_symbol
_atom_site_fract_x
_atom_site_fract_y
_atom_site_fract_z
F1 F 0.8510(5) -0.1314(2) 0.6993(3)
F2 F 0.6436(7) 0.0056(3) 0.5557(3)
F3 F 1.1394(6) 0.2572(2) 0.5395(3)
F4 F 1.3504(6) 0.1197(3) 0.6829(4)
I1 I 1.27240(7) -0.11907(3) 0.80569(3)
I2 I 0.72059(8) 0.24068(3) 0.43002(3)
C1 C 1.1068(8) -0.0101(4) 0.6956(4)
C2 C 0.9253(8) -0.0358(4) 0.6611(4)
C3 C 0.8179(9) 0.0359(4) 0.5865(4)
C4 C 0.8879(8) 0.1355(4) 0.5431(4)
C5 C 1.0674(8) 0.1607(4) 0.5777(4)
C6 C 1.1753(9) 0.0902(4) 0.6523(5)
F5 F -0.1476(6) 0.8062(2) 0.0752(3)
F6 F 0.3559(7) 1.0518(3) 0.0666(3)
I3 I 0.26853(6) 0.81263(3) 0.18510(3)
C7 C -0.0747(9) 0.9019(4) 0.0395(4)
C8 C 0.1095(8) 0.9257(4) 0.0749(4)
C9 C 0.1797(9) 1.0245(4) 0.0344(4)
F5A F 0.1476(6) 1.1938(2) -0.0752(3)
F6A F -0.3559(7) 0.9482(3) -0.0666(3)
I3A I -0.26853(6) 1.18737(3) -0.18510(3)
C7A C 0.0747(9) 1.0981(4) -0.0395(4)
C8A C -0.1095(8) 1.0743(4) -0.0749(4)
C9A C -0.1797(9) 0.9755(4) -0.0344(4)
N1 N 0.3581(7) 0.3821(3) 0.2783(3)
H1 H 0.2293 0.3657 0.2930
S1 S 0.8204(2) 0.47153(10) 0.19124(10)
C10 C 0.6530(8) 0.4155(3) 0.1335(4)
C11 C 0.7395(9) 0.4069(4) 0.0406(4)
H2 H 0.8829 0.4344 0.0070
C12 C 0.6156(10) 0.3583(4) -0.0023(4)
H3 H 0.6764 0.3506 -0.0645
C13 C 0.4048(10) 0.3211(4) 0.0447(4)
H4 H 0.3198 0.2886 0.0143
C14 C 0.3160(9) 0.3310(4) 0.1362(4)
H5 H 0.1696 0.3060 0.1678
C15 C 0.4408(8) 0.3775(3) 0.1818(4)
C16 C 0.4016(8) 0.4665(3) 0.3027(4)
C17 C 0.2414(9) 0.4979(4) 0.3679(4)
H6 H 0.0979 0.4665 0.3910
C18 C 0.2932(9) 0.5750(4) 0.3988(4)
H7 H 0.1866 0.5946 0.4450
C19 C 0.4979(10) 0.6237(4) 0.3631(4)
H8 H 0.5317 0.6764 0.3849
C20 C 0.6555(9) 0.5955(4) 0.2950(4)
H9 H 0.7945 0.6305 0.2684
C21 C 0.6075(8) 0.5159(4) 0.2663(4)
loop_
_geom_bond_atom_site_label_1
_geom_bond_atom_site_label_2
_geom_bond_site_symmetry_1
_geom_bond_site_symmetry_2
F1 C2 1_555 1_555
F2 C3 1_555 1_555
F3 C5 1_555 1_555
F4 C6 1_555 1_555
I1 C1 1_555 1_555
I2 C4 1_555 1_555
C1 C2 1_555 1_555
C2 C3 1_555 1_555
C3 C4 1_555 1_555
C4 C5 1_555 1_555
C5 C6 1_555 1_555
C6 C1 1_555 1_555
F5 C7 1_555 1_555
F6 C9 1_555 1_555
I3 C8 1_555 1_555
C7 C8 1_555 1_555
C8 C9 1_555 1_555
C9 C7A 1_555 1_555
N1 H1 1_555 1_555
S1 C10 1_555 1_555
C10 C11 1_555 1_555
C11 H2 1_555 1_555
C12 C11 1_555 1_555
H3 C12 1_555 1_555
C13 C12 1_555 1_555
H4 C13 1_555 1_555
C14 C13 1_555 1_555
H5 C14 1_555 1_555
C15 N1 1_555 1_555
C16 N1 1_555 1_555
C17 C16 1_555 1_555
H6 C17 1_555 1_555
C18 C17 1_555 1_555
H7 C18 1_555 1_555
C19 C18 1_555 1_555
H8 C19 1_555 1_555
C20 C19 1_555 1_555
H9 C20 1_555 1_555
C21 S1 1_555 1_555
F5A C7A 1_555 1_555
F6A C9A 1_555 1_555
I3A C8A 1_555 1_555
C7A C8A 1_555 1_555
C8A C9A 1_555 1_555
C9A C7 1_555 1_555
C10 C15 1_555 1_555
C14 C15 1_555 1_555
C16 C21 1_555 1_555
C20 C21 1_555 1_555

#END
