
#######################################################################
#
#                 Cambridge Crystallographic Data Centre
#                                CCDC 
#
#######################################################################
#
# If this CIF has been generated from an entry in the Cambridge 
# Structural Database, then it will include bibliographic, chemical, 
# crystal, experimental, refinement or atomic coordinate data resulting 
# from the CCDC's data processing and validation procedures.
#
#######################################################################

data_TAWLIN
_chemical_formula_moiety         'C16 H18 N4 O4'
_chemical_name_systematic        1,2-Diethyl-1,2-bis(2-nitrophenyl)hydrazine
_symmetry_cell_setting           orthorhombic
_symmetry_space_group_name_H-M   'P 21 21 2'
_symmetry_Int_Tables_number      18
_space_group_name_Hall           'P 2 2ab'
loop_
_symmetry_equiv_pos_site_id
_symmetry_equiv_pos_as_xyz
1 x,y,z
2 -x,-y,z
3 1/2-x,1/2+y,-z
4 1/2+x,1/2-y,-z
_cell_length_a                   7.8212(16)
_cell_length_b                   46.154(4)
_cell_length_c                   6.7885(8)
_cell_angle_alpha                90
_cell_angle_beta                 90
_cell_angle_gamma                90
_cell_volume                     2450.51
_exptl_crystal_colour            red
_exptl_crystal_description       prism
_chemical_melting_point          '395 K'
_cell_formula_units_Z            6
_exptl_crystal_recrystallization_method 'ethyl acetate/petroleum ether'
loop_
_atom_site_label
_atom_site_type_symbol
_atom_site_fract_x
_atom_site_fract_y
_atom_site_fract_z
O1 O 1.2281(5) 0.18667(8) 0.7748(7)
O2 O 0.9552(5) 0.18962(7) 0.7215(5)
O3 O 1.1594(5) 0.11903(8) 0.8338(7)
O4 O 1.0551(5) 0.07597(7) 0.8584(6)
N1 N 0.8269(5) 0.17853(7) 1.1264(5)
N2 N 0.9069(5) 0.15309(6) 1.0533(5)
N3 N 1.0841(6) 0.19364(8) 0.8239(7)
N4 N 1.0409(5) 0.10215(9) 0.8367(6)
C1 C 0.9351(6) 0.20235(8) 1.1463(6)
C2 C 1.0632(6) 0.20944(8) 1.0108(7)
C3 C 1.1743(7) 0.23244(9) 1.0352(8)
H1 H 1.2610 0.2356 0.9439
C4 C 1.1566(8) 0.25056(10) 1.1939(9)
H2 H 1.2284 0.2665 1.2094
C5 C 1.0311(8) 0.24478(10) 1.3294(8)
H3 H 1.0180 0.2570 1.4374
C6 C 0.9233(7) 0.22107(8) 1.3086(7)
H4 H 0.8412 0.2175 1.4046
C7 C 0.8112(6) 0.13925(8) 0.9041(6)
C8 C 0.8675(6) 0.11420(9) 0.8068(7)
C9 C 0.7706(6) 0.09950(9) 0.6694(7)
H5 H 0.8117 0.0825 0.6124
C10 C 0.6112(6) 0.11027(10) 0.6172(7)
H6 H 0.5431 0.1005 0.5267
C11 C 0.5553(6) 0.13579(9) 0.7021(7)
H7 H 0.4509 0.1436 0.6636
C12 C 0.6515(6) 0.14984(9) 0.8427(6)
H8 H 0.6096 0.1668 0.8985
C13 C 0.6882(6) 0.17443(9) 1.2737(7)
H9 H 0.7361 0.1763 1.4049
H10 H 0.6428 0.1550 1.2608
C14 C 0.5432(7) 0.19596(10) 1.2512(8)
H11 H 0.4581 0.1923 1.3501
H12 H 0.4929 0.1939 1.1229
H13 H 0.5867 0.2153 1.2664
C15 C 0.9803(6) 0.13491(9) 1.2135(7)
H14 H 0.9970 0.1154 1.1646
H15 H 0.8996 0.1340 1.3217
C16 C 1.1475(7) 0.14636(9) 1.2883(9)
H16 H 1.1901 0.1338 1.3898
H17 H 1.1311 0.1655 1.3409
H18 H 1.2284 0.1471 1.1820
O5 O 0.1050(4) 0.02616(7) 0.3721(8)
O6 O 0.0890(5) 0.07220(7) 0.3956(6)
N5 N 0.4406(5) 0.01142(6) 0.5341(5)
N6 N 0.1678(5) 0.04976(9) 0.3700(7)
C17 C 0.3525(6) 0.05239(9) 0.3234(7)
C18 C 0.4751(6) 0.03327(9) 0.3972(7)
C19 C 0.6404(6) 0.03630(9) 0.3168(8)
H19 H 0.7260 0.0235 0.3557
C20 C 0.6785(7) 0.05771(9) 0.1817(8)
H20 H 0.7892 0.0592 0.1327
C21 C 0.5547(7) 0.07711(10) 0.1177(8)
H21 H 0.5812 0.0916 0.0276
C22 C 0.3918(6) 0.07424(9) 0.1913(8)
H22 H 0.3070 0.0871 0.1519
C23 C 0.3415(7) 0.01775(11) 0.7190(10)
H23 H 0.4204 0.0214 0.8264
H24 H 0.2730 0.0350 0.6999
C24 C 0.2283(8) -0.00690(13) 0.7707(10)
H25 H 0.1674 -0.0025 0.8898
H26 H 0.2960 -0.0240 0.7900
H27 H 0.1481 -0.0101 0.6659
O5A O 0.8950(4) -0.02616(7) 0.3721(8)
O6A O 0.9110(5) -0.07220(7) 0.3956(6)
N5A N 0.5594(5) -0.01142(6) 0.5341(5)
N6A N 0.8322(5) -0.04976(9) 0.3700(7)
C17A C 0.6475(6) -0.05239(9) 0.3234(7)
C18A C 0.5249(6) -0.03327(9) 0.3972(7)
C19A C 0.3596(6) -0.03630(9) 0.3168(8)
H19A H 0.2740 -0.0235 0.3557
C20A C 0.3215(7) -0.05771(9) 0.1817(8)
H20A H 0.2108 -0.0592 0.1327
C21A C 0.4453(7) -0.07711(10) 0.1177(8)
H21A H 0.4188 -0.0916 0.0276
C22A C 0.6082(6) -0.07424(9) 0.1913(8)
H22A H 0.6930 -0.0871 0.1519
C23A C 0.6585(7) -0.01775(11) 0.7190(10)
H23A H 0.5796 -0.0214 0.8264
H24A H 0.7270 -0.0350 0.6999
C24A C 0.7717(8) 0.00690(13) 0.7707(10)
H25A H 0.8326 0.0025 0.8898
H26A H 0.7040 0.0240 0.7900
H27A H 0.8519 0.0101 0.6659
loop_
_geom_bond_atom_site_label_1
_geom_bond_atom_site_label_2
_geom_bond_site_symmetry_1
_geom_bond_site_symmetry_2
O1 N3 1_555 1_555
O2 N3 1_555 1_555
O3 N4 1_555 1_555
O4 N4 1_555 1_555
O5 N6 1_555 1_555
O6 N6 1_555 1_555
N1 N2 1_555 1_555
N2 C7 1_555 1_555
N3 C2 1_555 1_555
N4 C8 1_555 1_555
N5 C18 1_555 1_555
N6 C17 1_555 1_555
C1 N1 1_555 1_555
C2 C1 1_555 1_555
C3 C2 1_555 1_555
H1 C3 1_555 1_555
C4 C3 1_555 1_555
H2 C4 1_555 1_555
C5 C4 1_555 1_555
H3 C5 1_555 1_555
C6 C1 1_555 1_555
H4 C6 1_555 1_555
C7 C8 1_555 1_555
C8 C9 1_555 1_555
C9 H5 1_555 1_555
C10 C9 1_555 1_555
H6 C10 1_555 1_555
C11 C10 1_555 1_555
H7 C11 1_555 1_555
C12 C7 1_555 1_555
H8 C12 1_555 1_555
C13 N1 1_555 1_555
H9 C13 1_555 1_555
H10 C13 1_555 1_555
C14 C13 1_555 1_555
H11 C14 1_555 1_555
H12 C14 1_555 1_555
H13 C14 1_555 1_555
C15 N2 1_555 1_555
H14 C15 1_555 1_555
H15 C15 1_555 1_555
C16 C15 1_555 1_555
H16 C16 1_555 1_555
H17 C16 1_555 1_555
H18 C16 1_555 1_555
C17 C18 1_555 1_555
C18 C19 1_555 1_555
C19 H19 1_555 1_555
C20 C19 1_555 1_555
H20 C20 1_555 1_555
C21 C20 1_555 1_555
H21 C21 1_555 1_555
C22 C17 1_555 1_555
H22 C22 1_555 1_555
C23 N5 1_555 1_555
H23 C23 1_555 1_555
H24 C23 1_555 1_555
C24 C23 1_555 1_555
H25 C24 1_555 1_555
H26 C24 1_555 1_555
H27 C24 1_555 1_555
O5A N6A 1_555 1_555
O6A N6A 1_555 1_555
N5A N5 1_555 1_555
N6A C17A 1_555 1_555
C17A C18A 1_555 1_555
C18A N5A 1_555 1_555
C19A C18A 1_555 1_555
H19A C19A 1_555 1_555
C20A C19A 1_555 1_555
H20A C20A 1_555 1_555
C21A C20A 1_555 1_555
H21A C21A 1_555 1_555
C22A C17A 1_555 1_555
H22A C22A 1_555 1_555
C23A N5A 1_555 1_555
H23A C23A 1_555 1_555
H24A C23A 1_555 1_555
C24A C23A 1_555 1_555
H25A C24A 1_555 1_555
H26A C24A 1_555 1_555
H27A C24A 1_555 1_555
C5 C6 1_555 1_555
C11 C12 1_555 1_555
C21 C22 1_555 1_555
C21A C22A 1_555 1_555

#END
