
#######################################################################
#
#                 Cambridge Crystallographic Data Centre
#                                CCDC 
#
#######################################################################
#
# If this CIF has been generated from an entry in the Cambridge 
# Structural Database, then it will include bibliographic, chemical, 
# crystal, experimental, refinement or atomic coordinate data resulting 
# from the CCDC's data processing and validation procedures.
#
#######################################################################

data_TAWLOV
_chemical_formula_moiety         'C14 H14 N2 O2 S1'
_chemical_name_systematic        
(E)-6-methyl-N-(1-phenylethylidene)pyridine-2-sulfonamide
_symmetry_cell_setting           triclinic
_symmetry_space_group_name_H-M   'P -1'
_symmetry_Int_Tables_number      2
_space_group_name_Hall           '-P 1'
loop_
_symmetry_equiv_pos_site_id
_symmetry_equiv_pos_as_xyz
1 x,y,z
2 -x,-y,-z
_cell_length_a                   6.121(5)
_cell_length_b                   8.835(7)
_cell_length_c                   13.265(12)
_cell_angle_alpha                83.14(2)
_cell_angle_beta                 79.60(2)
_cell_angle_gamma                72.93(2)
_cell_volume                     672.804
_exptl_crystal_colour            colorless
_exptl_crystal_description       block
_cell_formula_units_Z            2
_chemical_properties_physical    ', Moisture-sensitive'
loop_
_atom_site_label
_atom_site_type_symbol
_atom_site_fract_x
_atom_site_fract_y
_atom_site_fract_z
S1 S 0.22057(18) 0.25564(12) 0.80139(8)
O1 O 0.3358(6) 0.3774(4) 0.7834(3)
O2 O 0.0189(5) 0.2750(4) 0.8766(2)
N1 N 0.1733(6) 0.2141(4) 0.6919(2)
N2 N 0.3477(5) -0.0524(4) 0.8464(2)
C1 C 0.0127(7) 0.3076(4) 0.6450(3)
C2 C -0.0122(7) 0.2600(4) 0.5461(3)
C3 C -0.2200(9) 0.3115(6) 0.5068(4)
H1 H -0.330(8) 0.352(5) 0.546(4)
C4 C -0.2387(10) 0.2603(7) 0.4164(4)
H2 H -0.380(9) 0.298(6) 0.392(4)
C5 C -0.0561(10) 0.1618(6) 0.3617(4)
H3 H -0.061(7) 0.120(5) 0.304(3)
C6 C 0.1534(9) 0.1128(6) 0.3981(3)
H4 H 0.294(8) 0.041(5) 0.361(3)
C7 C 0.1746(8) 0.1585(5) 0.4903(3)
H5 H 0.323(8) 0.123(5) 0.513(3)
C8 C -0.1474(10) 0.4578(5) 0.6835(4)
H6 H -0.070(11) 0.493(7) 0.731(5)
H7 H -0.280(12) 0.435(8) 0.717(5)
H8 H -0.170(8) 0.527(6) 0.628(4)
C9 C 0.4232(7) 0.0769(5) 0.8367(3)
C10 C 0.6315(8) 0.0812(7) 0.8589(3)
H9 H 0.671(8) 0.171(5) 0.857(3)
C11 C 0.7734(9) -0.0590(8) 0.8930(4)
H10 H 0.906(8) -0.064(5) 0.914(3)
C12 C 0.7029(8) -0.1950(7) 0.9036(3)
H11 H 0.807(11) -0.294(8) 0.923(5)
C13 C 0.4870(7) -0.1881(5) 0.8802(3)
C14 C 0.3949(11) -0.3285(6) 0.8928(5)
H12 H 0.278(9) -0.331(6) 0.958(4)
H13 H 0.347(13) -0.343(8) 0.821(6)
H14 H 0.516(11) -0.422(7) 0.903(4)
loop_
_geom_bond_atom_site_label_1
_geom_bond_atom_site_label_2
_geom_bond_site_symmetry_1
_geom_bond_site_symmetry_2
S1 O1 1_555 1_555
O2 S1 1_555 1_555
N1 S1 1_555 1_555
N2 C9 1_555 1_555
C1 N1 1_555 1_555
C2 C1 1_555 1_555
C3 C2 1_555 1_555
H1 C3 1_555 1_555
C4 C3 1_555 1_555
H2 C4 1_555 1_555
C5 C4 1_555 1_555
H3 C5 1_555 1_555
C6 C5 1_555 1_555
H4 C6 1_555 1_555
C7 C2 1_555 1_555
H5 C7 1_555 1_555
C8 C1 1_555 1_555
H6 C8 1_555 1_555
H7 C8 1_555 1_555
H8 C8 1_555 1_555
C9 S1 1_555 1_555
C10 C9 1_555 1_555
H9 C10 1_555 1_555
C11 C10 1_555 1_555
H10 C11 1_555 1_555
C12 C11 1_555 1_555
H11 C12 1_555 1_555
C13 N2 1_555 1_555
C14 C13 1_555 1_555
H12 C14 1_555 1_555
H13 C14 1_555 1_555
H14 C14 1_555 1_555
C6 C7 1_555 1_555
C12 C13 1_555 1_555

#END
