
#######################################################################
#
#                 Cambridge Crystallographic Data Centre
#                                CCDC 
#
#######################################################################
#
# If this CIF has been generated from an entry in the Cambridge 
# Structural Database, then it will include bibliographic, chemical, 
# crystal, experimental, refinement or atomic coordinate data resulting 
# from the CCDC's data processing and validation procedures.
#
#######################################################################

data_TAWLUZ01
_chemical_formula_moiety         'C18 H12 N2 O2'
_chemical_name_systematic        9-(4-nitrophenyl)-9H-carbazole
_symmetry_cell_setting           orthorhombic
_symmetry_space_group_name_H-M   'P b c n'
_symmetry_Int_Tables_number      60
_space_group_name_Hall           '-P 2n 2ab'
loop_
_symmetry_equiv_pos_site_id
_symmetry_equiv_pos_as_xyz
1 x,y,z
2 1/2+x,1/2-y,-z
3 -x,y,1/2-z
4 1/2-x,1/2-y,1/2+z
5 -x,-y,-z
6 1/2-x,1/2+y,z
7 x,-y,1/2+z
8 1/2+x,1/2+y,1/2-z
_cell_length_a                   7.3469(13)
_cell_length_b                   12.681(2)
_cell_length_c                   14.764(3)
_cell_angle_alpha                90
_cell_angle_beta                 90
_cell_angle_gamma                90
_cell_volume                     1375.5
_exptl_crystal_colour            yellow
_exptl_crystal_description       block
_cell_formula_units_Z            4
loop_
_atom_site_label
_atom_site_type_symbol
_atom_site_fract_x
_atom_site_fract_y
_atom_site_fract_z
C1 C 0.5000 0.64748(12) 0.2500
C2 C 0.42267(15) 0.59497(9) 0.17811(8)
H1 H 0.3721 0.6322 0.1300
C3 C 0.42133(15) 0.48617(9) 0.17846(7)
H2 H 0.3678 0.4495 0.1308
C4 C 0.5000 0.43131(11) 0.2500
C5 C 0.44368(13) 0.25590(8) 0.32122(7)
C6 C 0.36789(16) 0.28328(9) 0.40405(7)
H3 H 0.3493 0.3535 0.4198
C7 C 0.32119(19) 0.20252(9) 0.46221(8)
H4 H 0.2694 0.2187 0.5180
C8 C 0.35003(18) 0.09718(10) 0.43916(8)
H5 H 0.3217 0.0446 0.4807
C9 C 0.41967(17) 0.06984(9) 0.35604(8)
H6 H 0.4361 -0.0006 0.3405
C10 C 0.46517(14) 0.14988(8) 0.29558(7)
N1 N 0.5000 0.32052(9) 0.2500
N2 N 0.5000 0.76267(11) 0.2500
O1 O 0.58124(15) 0.80868(7) 0.31040(8)
C2B C 0.57733(15) 0.59497(9) 0.32189(8)
H1B H 0.6279 0.6322 0.3700
C3B C 0.57867(15) 0.48617(9) 0.32154(7)
H2B H 0.6322 0.4495 0.3692
C5B C 0.55632(13) 0.25590(8) 0.17878(7)
C6B C 0.63211(16) 0.28328(9) 0.09595(7)
H3B H 0.6507 0.3535 0.0802
C7B C 0.67881(19) 0.20252(9) 0.03779(8)
H4B H 0.7306 0.2187 -0.0180
C8B C 0.64997(18) 0.09718(10) 0.06084(8)
H5B H 0.6783 0.0446 0.0193
C9B C 0.58033(17) 0.06984(9) 0.14396(8)
H6B H 0.5639 -0.0006 0.1595
C10B C 0.53483(14) 0.14988(8) 0.20442(7)
O1B O 0.41876(15) 0.80868(7) 0.18960(8)
loop_
_geom_bond_atom_site_label_1
_geom_bond_atom_site_label_2
_geom_bond_site_symmetry_1
_geom_bond_site_symmetry_2
C1 C2 1_555 1_555
C2 H1 1_555 1_555
C3 C2 1_555 1_555
H2 C3 1_555 1_555
C4 C3 1_555 1_555
C5 C6 1_555 1_555
C6 H3 1_555 1_555
C7 C6 1_555 1_555
H4 C7 1_555 1_555
C8 C7 1_555 1_555
H5 C8 1_555 1_555
C9 C8 1_555 1_555
H6 C9 1_555 1_555
C10 C5 1_555 1_555
N1 C4 1_555 1_555
N2 C1 1_555 1_555
O1 N2 1_555 1_555
C2B C1 1_555 1_555
H1B C2B 1_555 1_555
C3B C4 1_555 1_555
H2B C3B 1_555 1_555
C5B N1 1_555 1_555
C6B C5B 1_555 1_555
H3B C6B 1_555 1_555
C7B C6B 1_555 1_555
H4B C7B 1_555 1_555
C8B C7B 1_555 1_555
H5B C8B 1_555 1_555
C9B C8B 1_555 1_555
H6B C9B 1_555 1_555
C10B C10 1_555 1_555
O1B N2 1_555 1_555
C5 N1 1_555 1_555
C9 C10 1_555 1_555
C2B C3B 1_555 1_555
C5B C10B 1_555 1_555
C9B C10B 1_555 1_555

#END
