
#######################################################################
#
#                 Cambridge Crystallographic Data Centre
#                                CCDC 
#
#######################################################################
#
# If this CIF has been generated from an entry in the Cambridge 
# Structural Database, then it will include bibliographic, chemical, 
# crystal, experimental, refinement or atomic coordinate data resulting 
# from the CCDC's data processing and validation procedures.
#
#######################################################################

data_TAWLUB
_chemical_formula_moiety         'C15 H17 N3 O4 S1'
_chemical_name_systematic        
(R)-6-methyl-N-(1-nitro-2-phenylpropan-2-yl)pyridine-2-sulfonamide
_symmetry_cell_setting           monoclinic
_symmetry_space_group_name_H-M   'P 21'
_symmetry_Int_Tables_number      4
_space_group_name_Hall           'P 2yb'
loop_
_symmetry_equiv_pos_site_id
_symmetry_equiv_pos_as_xyz
1 x,y,z
2 -x,1/2+y,-z
_cell_length_a                   8.6132(15)
_cell_length_b                   7.4744(14)
_cell_length_c                   12.867(3)
_cell_angle_alpha                90
_cell_angle_beta                 109.429(5)
_cell_angle_gamma                90
_cell_volume                     781.187
_exptl_crystal_colour            colorless
_exptl_crystal_description       Block
_cell_formula_units_Z            2
loop_
_atom_site_label
_atom_site_type_symbol
_atom_site_fract_x
_atom_site_fract_y
_atom_site_fract_z
C1 C 1.0316(3) 0.2617(6) 0.5061(3)
H1 H 1.0049 0.3220 0.5638
H2 H 1.0984 0.3383 0.4785
H3 H 1.0912 0.1539 0.5347
C2 C 0.8766(3) 0.2160(4) 0.4148(2)
C3 C 0.8802(3) 0.1439(4) 0.3166(2)
H4 H 0.9802 0.1300 0.3045
C4 C 0.7369(3) 0.0930(4) 0.2372(2)
H5 H 0.7386 0.0439 0.1712
C5 C 0.5901(3) 0.1155(4) 0.2565(2)
H6 H 0.4905 0.0797 0.2054
C6 C 0.5975(3) 0.1930(3) 0.35452(19)
C7 C 0.5237(3) 0.4434(4) 0.0394(2)
H7 H 0.5074 0.3892 -0.0285
C8 C 0.6717(3) 0.5218(4) 0.0942(2)
H8 H 0.7556 0.5217 0.0636
C9 C 0.6957(3) 0.6010(4) 0.1950(2)
H9 H 0.7959 0.6551 0.2326
C10 C 0.5716(3) 0.6001(3) 0.24040(19)
H10 H 0.5893 0.6528 0.3089
C11 C 0.4205(2) 0.5217(3) 0.18516(18)
C12 C 0.3978(3) 0.4438(4) 0.08385(19)
H11 H 0.2972 0.3913 0.0452
C13 C 0.2873(3) 0.5188(3) 0.24059(18)
C14 C 0.1302(3) 0.4219(4) 0.1724(2)
H12 H 0.1571 0.3030 0.1559
H13 H 0.0792 0.4861 0.1050
H14 H 0.0556 0.4158 0.2136
C15 C 0.2435(3) 0.7098(3) 0.26739(19)
H15 H 0.1786 0.7024 0.3160
H16 H 0.3441 0.7739 0.3060
N1 N 0.7345(2) 0.2431(4) 0.43392(15)
N2 N 0.3535(2) 0.4393(3) 0.35362(15)
H17 H 0.3616 0.5098 0.4080
N3 N 0.1496(3) 0.8114(3) 0.16674(19)
O1 O 0.44980(18) 0.2246(3) 0.50096(13)
O2 O 0.2900(2) 0.1182(2) 0.31421(15)
O3 O 0.0055(2) 0.8400(4) 0.1511(2)
O4 O 0.2229(3) 0.8613(3) 0.10723(17)
S1 S 0.41150(6) 0.23440(7) 0.38395(4)
loop_
_geom_bond_atom_site_label_1
_geom_bond_atom_site_label_2
_geom_bond_site_symmetry_1
_geom_bond_site_symmetry_2
C1 H1 1_555 1_555
H2 C1 1_555 1_555
H3 C1 1_555 1_555
C2 C1 1_555 1_555
C3 C2 1_555 1_555
H4 C3 1_555 1_555
C4 C3 1_555 1_555
H5 C4 1_555 1_555
C5 C4 1_555 1_555
H6 C5 1_555 1_555
C6 C5 1_555 1_555
C7 H7 1_555 1_555
C8 C7 1_555 1_555
H8 C8 1_555 1_555
C9 C8 1_555 1_555
H9 C9 1_555 1_555
C10 C9 1_555 1_555
H10 C10 1_555 1_555
C11 C10 1_555 1_555
C12 C7 1_555 1_555
H11 C12 1_555 1_555
C13 C11 1_555 1_555
C14 C13 1_555 1_555
H12 C14 1_555 1_555
H13 C14 1_555 1_555
H14 C14 1_555 1_555
C15 C13 1_555 1_555
H15 C15 1_555 1_555
H16 C15 1_555 1_555
N1 C2 1_555 1_555
N2 C13 1_555 1_555
H17 N2 1_555 1_555
N3 C15 1_555 1_555
O1 S1 1_555 1_555
O2 S1 1_555 1_555
O3 N3 1_555 1_555
O4 N3 1_555 1_555
S1 C6 1_555 1_555
C6 N1 1_555 1_555
C11 C12 1_555 1_555
N2 S1 1_555 1_555

#END
