
#######################################################################
#
#                 Cambridge Crystallographic Data Centre
#                                CCDC 
#
#######################################################################
#
# If this CIF has been generated from an entry in the Cambridge 
# Structural Database, then it will include bibliographic, chemical, 
# crystal, experimental, refinement or atomic coordinate data resulting 
# from the CCDC's data processing and validation procedures.
#
#######################################################################

data_TAWLIP
_chemical_compound_source        'Phlomis likiangensis'
_chemical_name_common            'Phloloside A'
_chemical_formula_moiety         'C21 H30 O14'
_chemical_name_systematic        
'methyl 7-(acetyloxy)-5-hydroxy-7-methyl-1-[(3,4,5-trihydroxy-6-{[(methoxycarbonyl)oxy]methyl}oxan-2-yl)oxy]-1,4a,5,6,7,7a-hexahydrocyclopenta[c]pyran-4-carboxylate'
_symmetry_cell_setting           orthorhombic
_symmetry_space_group_name_H-M   'P 21 21 21'
_symmetry_Int_Tables_number      19
_space_group_name_Hall           'P 2ac 2ab'
loop_
_symmetry_equiv_pos_site_id
_symmetry_equiv_pos_as_xyz
1 x,y,z
2 1/2+x,1/2-y,-z
3 -x,1/2+y,1/2-z
4 1/2-x,-y,1/2+z
_cell_length_a                   7.4755(2)
_cell_length_b                   13.4674(3)
_cell_length_c                   23.1352(6)
_cell_angle_alpha                90
_cell_angle_beta                 90
_cell_angle_gamma                90
_cell_volume                     2329.15
_exptl_crystal_colour            colorless
_exptl_crystal_description       prism
_cell_formula_units_Z            4
loop_
_atom_site_label
_atom_site_type_symbol
_atom_site_fract_x
_atom_site_fract_y
_atom_site_fract_z
O1 O -0.51894(19) 0.27214(11) 0.29543(6)
O2 O -0.2511(2) 0.44523(12) 0.18124(6)
O3 O -0.0457(2) 0.56134(11) 0.15720(6)
O4 O 0.1908(2) 0.50615(12) 0.10564(6)
O5 O 0.4546(2) 0.35732(12) 0.10521(7)
O6 O 0.4562(2) 0.20362(12) 0.12921(7)
O7 O 0.1060(2) 0.59696(11) 0.33539(6)
O8 O -0.0177(3) 0.73616(12) 0.29777(7)
O9 O 0.0275(2) 0.36400(12) 0.37876(7)
H1 H -0.0764 0.3509 0.3903
O10 O -0.3554(2) 0.32609(12) 0.37057(6)
O11 O -0.2041(2) 0.63309(12) 0.05327(7)
H2 H -0.2251 0.6924 0.0443
O12 O 0.0805(2) 0.68891(12) -0.02967(6)
H3 H 0.0129 0.6849 -0.0586
O13 O 0.3113(2) 0.51031(13) -0.04577(7)
H4 H 0.3555 0.5538 -0.0675
O14 O 0.4397(3) 0.24175(14) 0.03458(7)
C1 C -0.6166(3) 0.20812(18) 0.33466(10)
H5 H -0.5321 0.1674 0.3567
H6 H -0.6967 0.1649 0.3125
H7 H -0.6873 0.2488 0.3614
C2 C -0.3916(3) 0.32745(15) 0.31885(9)
C3 C -0.2935(3) 0.38931(16) 0.27766(9)
C4 C -0.3397(3) 0.39265(17) 0.22162(9)
H8 H -0.4413 0.3556 0.2097
C5 C -0.0745(3) 0.48330(15) 0.19583(8)
H9 H 0.0182 0.4306 0.1907
C6 C 0.0080(3) 0.53189(16) 0.10132(9)
H10 H -0.0641 0.4738 0.0879
C7 C 0.2618(3) 0.47078(16) 0.05199(9)
H11 H 0.1889 0.4135 0.0378
C8 C 0.4516(3) 0.43726(17) 0.06368(9)
H12 H 0.5073 0.4147 0.0271
H13 H 0.5223 0.4939 0.0786
C9 C 0.4492(3) 0.26583(18) 0.08423(10)
C10 C 0.4558(4) 0.10036(19) 0.11405(11)
H14 H 0.3492 0.0855 0.0910
H15 H 0.4547 0.0601 0.1493
H16 H 0.5633 0.0850 0.0915
C11 C -0.1384(3) 0.44648(16) 0.30056(8)
H17 H -0.1792 0.4825 0.3360
C12 C -0.0693(3) 0.52443(15) 0.25726(8)
H18 H -0.1429 0.5863 0.2598
C13 C 0.1215(3) 0.54444(16) 0.27966(8)
C14 C 0.0410(3) 0.69004(16) 0.33809(9)
C15 C 0.0532(4) 0.72868(19) 0.39876(11)
H19 H 0.1497 0.7778 0.4012
H20 H 0.0783 0.6736 0.4252
H21 H -0.0605 0.7599 0.4095
C16 C 0.2514(3) 0.59962(17) 0.24059(9)
H22 H 0.1963 0.6616 0.2274
H23 H 0.2806 0.5581 0.2071
H24 H 0.3610 0.6147 0.2621
C17 C 0.1884(3) 0.44190(17) 0.29800(9)
H25 H 0.2752 0.4481 0.3301
H26 H 0.2483 0.4084 0.2652
C18 C 0.0241(3) 0.38200(16) 0.31750(9)
H27 H 0.0197 0.3174 0.2962
C19 C -0.0172(3) 0.61988(16) 0.06078(9)
H28 H 0.0361 0.6809 0.0784
C20 C 0.0718(3) 0.59861(16) 0.00255(9)
H29 H -0.0052 0.5507 -0.0192
C21 C 0.2590(3) 0.55459(16) 0.00726(9)
H30 H 0.3465 0.6074 0.0184
loop_
_geom_bond_atom_site_label_1
_geom_bond_atom_site_label_2
_geom_bond_site_symmetry_1
_geom_bond_site_symmetry_2
O1 C1 1_555 1_555
O2 C4 1_555 1_555
O3 C5 1_555 1_555
O4 C6 1_555 1_555
O5 C8 1_555 1_555
O6 C9 1_555 1_555
O7 C13 1_555 1_555
O8 C14 1_555 1_555
O9 H1 1_555 1_555
O10 C2 1_555 1_555
O11 H2 1_555 1_555
O12 H3 1_555 1_555
O13 H4 1_555 1_555
O14 C9 1_555 1_555
C1 H5 1_555 1_555
H6 C1 1_555 1_555
H7 C1 1_555 1_555
C2 O1 1_555 1_555
C3 C2 1_555 1_555
C4 C3 1_555 1_555
H8 C4 1_555 1_555
C5 O2 1_555 1_555
H9 C5 1_555 1_555
C6 O3 1_555 1_555
H10 C6 1_555 1_555
C7 O4 1_555 1_555
H11 C7 1_555 1_555
C8 C7 1_555 1_555
H12 C8 1_555 1_555
H13 C8 1_555 1_555
C9 O5 1_555 1_555
C10 O6 1_555 1_555
H14 C10 1_555 1_555
H15 C10 1_555 1_555
H16 C10 1_555 1_555
C11 C3 1_555 1_555
H17 C11 1_555 1_555
C12 C5 1_555 1_555
H18 C12 1_555 1_555
C13 C12 1_555 1_555
C14 O7 1_555 1_555
C15 C14 1_555 1_555
H19 C15 1_555 1_555
H20 C15 1_555 1_555
H21 C15 1_555 1_555
C16 C13 1_555 1_555
H22 C16 1_555 1_555
H23 C16 1_555 1_555
H24 C16 1_555 1_555
C17 C13 1_555 1_555
H25 C17 1_555 1_555
H26 C17 1_555 1_555
C18 O9 1_555 1_555
H27 C18 1_555 1_555
C19 O11 1_555 1_555
H28 C19 1_555 1_555
C20 O12 1_555 1_555
H29 C20 1_555 1_555
C21 O13 1_555 1_555
H30 C21 1_555 1_555
C6 C19 1_555 1_555
C7 C21 1_555 1_555
C11 C12 1_555 1_555
C11 C18 1_555 1_555
C17 C18 1_555 1_555
C19 C20 1_555 1_555
C20 C21 1_555 1_555

#END
