
#######################################################################
#
#                 Cambridge Crystallographic Data Centre
#                                CCDC 
#
#######################################################################
#
# If this CIF has been generated from an entry in the Cambridge 
# Structural Database, then it will include bibliographic, chemical, 
# crystal, experimental, refinement or atomic coordinate data resulting 
# from the CCDC's data processing and validation procedures.
#
#######################################################################

data_TAWMAG
_chemical_formula_moiety         'C20 H17 N5 O1'
_chemical_name_systematic        
4-(4-Ethoxyphenyl)-3,5-di-2-pyridyl-4H-1,2,4-triazole
_symmetry_cell_setting           triclinic
_symmetry_space_group_name_H-M   'P -1'
_symmetry_Int_Tables_number      2
_space_group_name_Hall           '-P 1'
loop_
_symmetry_equiv_pos_site_id
_symmetry_equiv_pos_as_xyz
1 x,y,z
2 -x,-y,-z
_cell_length_a                   8.094(5)
_cell_length_b                   9.468(6)
_cell_length_c                   13.152(8)
_cell_angle_alpha                104.657(9)
_cell_angle_beta                 92.706(8)
_cell_angle_gamma                115.133(8)
_cell_volume                     868.899
_exptl_crystal_colour            white
_exptl_crystal_description       block
_cell_formula_units_Z            2
_exptl_crystal_recrystallization_method acetone
loop_
_atom_site_label
_atom_site_type_symbol
_atom_site_fract_x
_atom_site_fract_y
_atom_site_fract_z
O1 O 0.66355(19) -0.11441(17) 0.46033(11)
N1 N 0.9530(2) 0.2764(2) 0.01317(14)
N2 N 0.8545(3) 0.1194(2) -0.05370(13)
N3 N 0.8220(2) 0.11639(19) 0.11082(12)
N4 N 1.0429(3) 0.4075(2) 0.29918(14)
N5 N 0.5095(3) -0.2215(3) 0.01274(15)
C1 C 0.7765(3) 0.0256(3) 0.00556(15)
C2 C 0.9332(3) 0.2732(3) 0.11086(16)
C3 C 0.6516(3) -0.1499(3) -0.03908(16)
C4 C 0.6805(3) -0.2296(3) -0.13034(16)
H1 H 0.7785 -0.1760 -0.1626
C5 C 0.5649(4) -0.3884(4) -0.1741(2)
H2 H 0.5834 -0.4452 -0.2377
C6 C 0.4201(4) -0.4701(3) -0.1279(2)
H3 H 0.3415 -0.5809 -0.1594
C7 C 0.3935(3) -0.3855(3) -0.0348(2)
H4 H 0.2954 -0.4395 -0.0028
C8 C 1.0179(3) 0.4220(3) 0.20219(16)
C9 C 1.0713(3) 0.5710(3) 0.18406(18)
H5 H 1.0507 0.5759 0.1151
C10 C 1.1542(3) 0.7111(3) 0.2675(2)
H6 H 1.1923 0.8127 0.2565
C11 C 1.1804(3) 0.6995(3) 0.3676(2)
H7 H 1.2359 0.7928 0.4265
C12 C 0.7819(3) 0.0554(2) 0.20103(14)
C13 C 0.6592(3) 0.0847(2) 0.26154(16)
H8 H 0.6011 0.1438 0.2442
C14 C 0.6231(3) 0.0263(2) 0.34772(15)
H9 H 0.5414 0.0469 0.3894
C15 C 0.7080(3) -0.0632(2) 0.37258(15)
C16 C 0.8286(3) -0.0933(2) 0.31156(15)
H10 H 0.8850 -0.1543 0.3280
C17 C 0.8667(3) -0.0330(2) 0.22518(15)
H11 H 0.9494 -0.0525 0.1839
C18 C 1.1229(3) 0.5472(3) 0.37922(19)
H12 H 1.1409 0.5404 0.4479
C19 C 0.6652(4) -0.2565(3) 0.5833(2)
H13 H 0.7107 -0.3265 0.6024
H14 H 0.5321 -0.3111 0.5689
H15 H 0.7076 -0.1570 0.6411
C20 C 0.7355(3) -0.2176(3) 0.48579(18)
H16 H 0.8699 -0.1620 0.4994
H17 H 0.6942 -0.3173 0.4269
loop_
_geom_bond_atom_site_label_1
_geom_bond_atom_site_label_2
_geom_bond_site_symmetry_1
_geom_bond_site_symmetry_2
O1 C15 1_555 1_555
N1 N2 1_555 1_555
N2 C1 1_555 1_555
N3 C1 1_555 1_555
N4 C8 1_555 1_555
N5 C3 1_555 1_555
C1 C3 1_555 1_555
C2 N1 1_555 1_555
C3 C4 1_555 1_555
C4 H1 1_555 1_555
C5 C4 1_555 1_555
H2 C5 1_555 1_555
C6 C5 1_555 1_555
H3 C6 1_555 1_555
C7 N5 1_555 1_555
H4 C7 1_555 1_555
C8 C2 1_555 1_555
C9 C8 1_555 1_555
H5 C9 1_555 1_555
C10 C9 1_555 1_555
H6 C10 1_555 1_555
C11 C10 1_555 1_555
H7 C11 1_555 1_555
C12 N3 1_555 1_555
C13 C12 1_555 1_555
H8 C13 1_555 1_555
C14 C13 1_555 1_555
H9 C14 1_555 1_555
C15 C14 1_555 1_555
C16 C15 1_555 1_555
H10 C16 1_555 1_555
C17 C12 1_555 1_555
H11 C17 1_555 1_555
C18 N4 1_555 1_555
H12 C18 1_555 1_555
C19 H13 1_555 1_555
H14 C19 1_555 1_555
H15 C19 1_555 1_555
C20 O1 1_555 1_555
H16 C20 1_555 1_555
H17 C20 1_555 1_555
N3 C2 1_555 1_555
C6 C7 1_555 1_555
C11 C18 1_555 1_555
C16 C17 1_555 1_555
C19 C20 1_555 1_555

#END
