
#######################################################################
#
#                 Cambridge Crystallographic Data Centre
#                                CCDC 
#
#######################################################################
#
# If this CIF has been generated from an entry in the Cambridge 
# Structural Database, then it will include bibliographic, chemical, 
# crystal, experimental, refinement or atomic coordinate data resulting 
# from the CCDC's data processing and validation procedures.
#
#######################################################################

data_TAWPUD
_chemical_formula_moiety         'C11 H9 N5 O5 S2,C3 H7 N1 O1'
_chemical_name_systematic        
'1-((4-Nitrophenoxy)acetyl)-3-(5-thioxo-4,5-dihydro-1,3,4-thiadiazolin-2-yl)urea dimethylformamide solvate'
_symmetry_cell_setting           triclinic
_symmetry_space_group_name_H-M   'P -1'
_symmetry_Int_Tables_number      2
_space_group_name_Hall           '-P 1'
loop_
_symmetry_equiv_pos_site_id
_symmetry_equiv_pos_as_xyz
1 x,y,z
2 -x,-y,-z
_cell_length_a                   7.9981(12)
_cell_length_b                   11.3139(16)
_cell_length_c                   12.0232(17)
_cell_angle_alpha                68.893(2)
_cell_angle_beta                 70.744(2)
_cell_angle_gamma                70.897(2)
_cell_volume                     930.959
_exptl_crystal_colour            yellow
_exptl_crystal_description       block
_chemical_melting_point          '510-511 K'
_cell_formula_units_Z            2
_exptl_crystal_recrystallization_method acetone/DMF
loop_
_atom_site_label
_atom_site_type_symbol
_atom_site_fract_x
_atom_site_fract_y
_atom_site_fract_z
C1 C 0.0102(4) 1.2362(3) 0.0449(3)
C2 C 0.0080(4) 1.3051(3) 0.1198(3)
H1 H -0.0275 1.3957 0.0972
C3 C 0.0595(4) 1.2367(3) 0.2287(3)
H2 H 0.0576 1.2815 0.2806
C4 C 0.1142(4) 1.1016(3) 0.2616(2)
C5 C 0.1162(4) 1.0336(3) 0.1853(3)
H3 H 0.1532 0.9431 0.2067
C6 C 0.0622(4) 1.1029(3) 0.0765(3)
H4 H 0.0613 1.0587 0.0249
C7 C 0.2258(4) 0.9078(3) 0.4058(3)
H5 H 0.3233 0.8816 0.3394
H6 H 0.1283 0.8666 0.4209
C8 C 0.2957(4) 0.8629(3) 0.5202(3)
C9 C 0.3505(3) 0.9357(3) 0.6723(2)
C10 C 0.4392(4) 0.7698(3) 0.8494(2)
C11 C 0.5082(4) 0.7427(3) 1.0411(3)
N1 N -0.0412(4) 1.3055(3) -0.0715(2)
N2 N 0.2994(3) 0.9560(2) 0.56589(19)
H14 H 0.2666 1.0358 0.5244
N3 N 0.3919(3) 0.8093(2) 0.7392(2)
H15 H 0.3884 0.7505 0.7111
N4 N 0.4752(4) 0.6484(2) 0.9077(2)
N5 N 0.5131(3) 0.6363(2) 1.0150(2)
H16 H 0.5398 0.5604 1.0653
O1 O -0.0813(4) 1.4245(3) -0.1013(2)
O2 O -0.0461(4) 1.2422(3) -0.1337(2)
O3 O 0.1603(3) 1.04469(18) 0.37101(17)
O4 O 0.3427(3) 0.74618(18) 0.56663(19)
O5 O 0.3548(3) 1.02502(19) 0.70263(18)
S1 S 0.44859(10) 0.87610(7) 0.92008(7)
S2 S 0.55258(12) 0.74748(9) 1.16429(7)
C12 C 0.2600(5) 0.4829(3) 0.3610(3)
H7 H 0.2379 0.4337 0.3190
H8 H 0.3847 0.4894 0.3310
H9 H 0.1810 0.5688 0.3463
C13 C 0.2259(6) 0.4867(4) 0.5728(4)
H10 H 0.1914 0.4367 0.6567
H11 H 0.1411 0.5703 0.5591
H12 H 0.3461 0.4987 0.5560
C14 C 0.2038(4) 0.2980(3) 0.5343(3)
H13 H 0.1877 0.2593 0.6185
N6 N 0.2243(3) 0.4179(2) 0.4918(2)
O6 O 0.2042(4) 0.2330(2) 0.4718(2)
loop_
_geom_bond_atom_site_label_1
_geom_bond_atom_site_label_2
_geom_bond_site_symmetry_1
_geom_bond_site_symmetry_2
C1 C2 1_555 1_555
C2 H1 1_555 1_555
C3 C2 1_555 1_555
H2 C3 1_555 1_555
C4 C3 1_555 1_555
C5 C4 1_555 1_555
H3 C5 1_555 1_555
C6 C1 1_555 1_555
H4 C6 1_555 1_555
C7 H5 1_555 1_555
H6 C7 1_555 1_555
C8 C7 1_555 1_555
C9 N2 1_555 1_555
C10 N3 1_555 1_555
C11 N5 1_555 1_555
C12 H7 1_555 1_555
H8 C12 1_555 1_555
H9 C12 1_555 1_555
C13 H10 1_555 1_555
H11 C13 1_555 1_555
H12 C13 1_555 1_555
C14 H13 1_555 1_555
N1 C1 1_555 1_555
N2 C8 1_555 1_555
H14 N2 1_555 1_555
N3 C9 1_555 1_555
H15 N3 1_555 1_555
N4 C10 1_555 1_555
N5 N4 1_555 1_555
H16 N5 1_555 1_555
N6 C12 1_555 1_555
O1 N1 1_555 1_555
O2 N1 1_555 1_555
O3 C4 1_555 1_555
O4 C8 1_555 1_555
O5 C9 1_555 1_555
O6 C14 1_555 1_555
S1 C10 1_555 1_555
S2 C11 1_555 1_555
C5 C6 1_555 1_555
C7 O3 1_555 1_555
C11 S1 1_555 1_555
C13 N6 1_555 1_555
C14 N6 1_555 1_555

#END
