
#######################################################################
#
#                 Cambridge Crystallographic Data Centre
#                                CCDC 
#
#######################################################################
#
# If this CIF has been generated from an entry in the Cambridge 
# Structural Database, then it will include bibliographic, chemical, 
# crystal, experimental, refinement or atomic coordinate data resulting 
# from the CCDC's data processing and validation procedures.
#
#######################################################################

data_TAWXUN
_chemical_formula_moiety         'C27 H22 B1 F2 N2 O1'
_chemical_name_systematic        
'((10-((3,5-dimethylpyrrol-1-id-2-yl)(3,5-dimethyl-2H-pyrrol-2-ylidene)methyl)anthracen-9-yl)oxidanyl)(difluoro)boron radical'
_symmetry_cell_setting           monoclinic
_symmetry_space_group_name_H-M   'C 2/c'
_symmetry_Int_Tables_number      15
_space_group_name_Hall           '-C 2yn'
loop_
_symmetry_equiv_pos_site_id
_symmetry_equiv_pos_as_xyz
1 x,y,z
2 -x,y,1/2-z
3 1/2+x,1/2+y,z
4 1/2-x,1/2+y,1/2-z
5 -x,-y,-z
6 x,-y,1/2+z
7 1/2-x,1/2-y,-z
8 1/2+x,1/2-y,1/2+z
_cell_length_a                   15.1844(5)
_cell_length_b                   20.7250(6)
_cell_length_c                   6.8775(2)
_cell_angle_alpha                90
_cell_angle_beta                 100.9610(10)
_cell_angle_gamma                90
_cell_volume                     2124.84
_exptl_crystal_colour            green
_exptl_crystal_description       prism
_cell_formula_units_Z            4
loop_
_atom_site_label
_atom_site_type_symbol
_atom_site_fract_x
_atom_site_fract_y
_atom_site_fract_z
B1 B 0.5000 0.87969(11) 0.2500
F1 F 0.56308(7) 0.91836(5) 0.3683(2)
N1 N 0.45393(8) 0.83555(6) 0.3817(2)
O1 O 0.5000 0.46437(7) 0.2500
C1 C 0.40736(12) 0.85413(8) 0.5208(3)
C2 C 0.37835(12) 0.79963(8) 0.6113(3)
H1 H 0.3442 0.8000 0.7135
C3 C 0.40783(10) 0.74525(7) 0.5267(2)
C4 C 0.45562(9) 0.76788(6) 0.3807(2)
C5 C 0.5000 0.73521(8) 0.2500
C6 C 0.5000 0.66343(8) 0.2500
C7 C 0.57921(8) 0.62963(6) 0.33899(19)
C8 C 0.65883(9) 0.66259(7) 0.4276(2)
H2 H 0.6596 0.7084 0.4294
C9 C 0.73474(9) 0.62896(7) 0.5108(2)
H3 H 0.7875 0.6517 0.5691
C10 C 0.73468(10) 0.56167(7) 0.5100(2)
H4 H 0.7874 0.5388 0.5678
C11 C 0.65863(10) 0.52816(7) 0.4258(2)
H5 H 0.6593 0.4823 0.4262
C12 C 0.58036(9) 0.56105(6) 0.3396(2)
C13 C 0.38962(16) 0.92314(9) 0.5612(4)
H6 H 0.4442 0.9485 0.5623
H7 H 0.3716 0.9267 0.6902
H8 H 0.3414 0.9395 0.4576
C14 C 0.39007(12) 0.67728(8) 0.5815(2)
H9 H 0.3720 0.6768 0.7110
H10 H 0.4447 0.6515 0.5880
H11 H 0.3419 0.6590 0.4815
C15 C 0.5000 0.52423(9) 0.2500
F1A F 0.43692(7) 0.91836(5) 0.1317(2)
N1A N 0.54607(8) 0.83555(6) 0.1183(2)
C1A C 0.59264(12) 0.85413(8) -0.0208(3)
C2A C 0.62165(12) 0.79963(8) -0.1113(3)
H1A H 0.6558 0.8000 -0.2135
C3A C 0.59217(10) 0.74525(7) -0.0267(2)
C4A C 0.54438(9) 0.76788(6) 0.1193(2)
C7A C 0.42079(8) 0.62963(6) 0.16101(19)
C8A C 0.34117(9) 0.66259(7) 0.0724(2)
H2A H 0.3404 0.7084 0.0706
C9A C 0.26526(9) 0.62896(7) -0.0108(2)
H3A H 0.2125 0.6517 -0.0691
C10A C 0.26532(10) 0.56167(7) -0.0100(2)
H4A H 0.2126 0.5388 -0.0678
C11A C 0.34137(10) 0.52816(7) 0.0742(2)
H5A H 0.3407 0.4823 0.0738
C12A C 0.41964(9) 0.56105(6) 0.1604(2)
C13A C 0.61038(16) 0.92314(9) -0.0612(4)
H6A H 0.5558 0.9485 -0.0623
H7A H 0.6284 0.9267 -0.1902
H8A H 0.6586 0.9395 0.0424
C14A C 0.60993(12) 0.67728(8) -0.0815(2)
H9A H 0.6280 0.6768 -0.2110
H10A H 0.5553 0.6515 -0.0880
H11A H 0.6581 0.6590 0.0185
loop_
_geom_bond_atom_site_label_1
_geom_bond_atom_site_label_2
_geom_bond_site_symmetry_1
_geom_bond_site_symmetry_2
B1 F1 1_555 1_555
N1 B1 1_555 1_555
O1 C15 1_555 1_555
C1 N1 1_555 1_555
C2 C1 1_555 1_555
H1 C2 1_555 1_555
C3 C2 1_555 1_555
C4 N1 1_555 1_555
C5 C4 1_555 1_555
C6 C5 1_555 1_555
C7 C6 1_555 1_555
C8 C7 1_555 1_555
H2 C8 1_555 1_555
C9 C8 1_555 1_555
H3 C9 1_555 1_555
C10 C9 1_555 1_555
H4 C10 1_555 1_555
C11 C10 1_555 1_555
H5 C11 1_555 1_555
C12 C7 1_555 1_555
C13 C1 1_555 1_555
H6 C13 1_555 1_555
H7 C13 1_555 1_555
H8 C13 1_555 1_555
C14 C3 1_555 1_555
H9 C14 1_555 1_555
H10 C14 1_555 1_555
H11 C14 1_555 1_555
C15 C12 1_555 1_555
F1A B1 1_555 1_555
N1A B1 1_555 1_555
C1A N1A 1_555 1_555
C2A C1A 1_555 1_555
H1A C2A 1_555 1_555
C3A C2A 1_555 1_555
C4A C5 1_555 1_555
C7A C6 1_555 1_555
C8A C7A 1_555 1_555
H2A C8A 1_555 1_555
C9A C8A 1_555 1_555
H3A C9A 1_555 1_555
C10A C9A 1_555 1_555
H4A C10A 1_555 1_555
C11A C10A 1_555 1_555
H5A C11A 1_555 1_555
C12A C15 1_555 1_555
C13A C1A 1_555 1_555
H6A C13A 1_555 1_555
H7A C13A 1_555 1_555
H8A C13A 1_555 1_555
C14A C3A 1_555 1_555
H9A C14A 1_555 1_555
H10A C14A 1_555 1_555
H11A C14A 1_555 1_555
C3 C4 1_555 1_555
C11 C12 1_555 1_555
N1A C4A 1_555 1_555
C3A C4A 1_555 1_555
C7A C12A 1_555 1_555
C11A C12A 1_555 1_555

#END
