
#######################################################################
#
#                 Cambridge Crystallographic Data Centre
#                                CCDC 
#
#######################################################################
#
# If this CIF has been generated from an entry in the Cambridge 
# Structural Database, then it will include bibliographic, chemical, 
# crystal, experimental, refinement or atomic coordinate data resulting 
# from the CCDC's data processing and validation procedures.
#
#######################################################################

data_TAWYAU
_chemical_formula_moiety         'C31 H29 B1 F2 N2 O4,0.25(C1 H2 Cl2)'
_chemical_name_systematic        
'(10-((5-ethyl-1H-pyrrol-2-yl)(5-ethyl-2H-pyrrol-2-ylidene)methyl)-10-((oxolan-2-yl)peroxy)anthracen-9(10H)-onato)(difluoro)boron dichloromethane solvate'
_symmetry_cell_setting           triclinic
_symmetry_space_group_name_H-M   'P -1'
_symmetry_Int_Tables_number      2
_space_group_name_Hall           '-P 1'
loop_
_symmetry_equiv_pos_site_id
_symmetry_equiv_pos_as_xyz
1 x,y,z
2 -x,-y,-z
_cell_length_a                   8.3338(9)
_cell_length_b                   12.5679(14)
_cell_length_c                   14.0639(16)
_cell_angle_alpha                87.509(5)
_cell_angle_beta                 81.274(5)
_cell_angle_gamma                75.494(5)
_cell_volume                     1409.54
_exptl_crystal_colour            'dark red'
_exptl_crystal_description       Block
_cell_formula_units_Z            2
loop_
_atom_site_label
_atom_site_type_symbol
_atom_site_fract_x
_atom_site_fract_y
_atom_site_fract_z
B1 B 0.7695(4) 0.0672(3) 0.3586(3)
F1 F 0.7443(3) -0.03808(15) 0.36086(15)
F2 F 0.9276(2) 0.06258(18) 0.38206(15)
N1 N 0.7535(3) 0.1189(2) 0.25848(19)
N2 N 0.6341(3) 0.1414(2) 0.43097(19)
O1 O 0.3178(5) 0.6016(3) 0.0518(2)
O2 O 0.3233(3) 0.43874(18) 0.37224(16)
O3 O 0.2121(3) 0.5406(2) 0.34355(18)
C1 C 0.8466(4) 0.0791(3) 0.1740(2)
C2 C 0.7994(4) 0.1531(3) 0.0996(2)
H1 H 0.8449 0.1446 0.0334
C3 C 0.6751(4) 0.2403(3) 0.1400(2)
H2 H 0.6194 0.3028 0.1068
C4 C 0.6459(4) 0.2196(2) 0.2398(2)
C5 C 0.5367(4) 0.2819(2) 0.3150(2)
C6 C 0.5304(4) 0.2443(2) 0.4099(2)
C7 C 0.4363(4) 0.2873(3) 0.4988(2)
H3 H 0.3562 0.3561 0.5075
C8 C 0.4811(4) 0.2123(3) 0.5700(2)
H4 H 0.4377 0.2196 0.6365
C9 C 0.6033(4) 0.1225(2) 0.5261(2)
C10 C 0.9771(4) -0.0280(3) 0.1660(3)
H5 H 1.0233 -0.0433 0.2274
H6 H 1.0699 -0.0215 0.1149
C11 C 0.9089(5) -0.1242(3) 0.1430(3)
H7 H 0.8227 -0.1347 0.1958
H8 H 1.0002 -0.1911 0.1352
H9 H 0.8598 -0.1087 0.0833
C12 C 0.6903(4) 0.0201(3) 0.5731(3)
H10 H 0.8127 0.0088 0.5543
H11 H 0.6578 -0.0432 0.5489
C13 C 0.6511(5) 0.0216(3) 0.6824(3)
H12 H 0.6767 0.0864 0.7069
H13 H 0.7191 -0.0451 0.7087
H14 H 0.5320 0.0246 0.7019
C14 C 0.4272(4) 0.3919(3) 0.2847(2)
C15 C 0.3091(4) 0.3743(3) 0.2174(2)
C16 C 0.2222(4) 0.2931(3) 0.2392(3)
H15 H 0.2448 0.2455 0.2925
C17 C 0.1030(5) 0.2806(4) 0.1843(3)
H16 H 0.0443 0.2249 0.2004
C18 C 0.0696(5) 0.3495(4) 0.1059(3)
H17 H -0.0104 0.3406 0.0675
C19 C 0.1538(5) 0.4307(3) 0.0846(3)
H18 H 0.1297 0.4785 0.0316
C20 C 0.2739(4) 0.4444(3) 0.1392(2)
C21 C 0.3610(5) 0.5338(3) 0.1146(3)
C22 C 0.5014(5) 0.5375(3) 0.1667(2)
C23 C 0.5985(6) 0.6119(3) 0.1367(3)
H19 H 0.5734 0.6596 0.0837
C24 C 0.7296(6) 0.6166(3) 0.1831(3)
H20 H 0.7967 0.6662 0.1612
C25 C 0.7651(5) 0.5490(3) 0.2625(3)
H21 H 0.8553 0.5531 0.2950
C26 C 0.6683(4) 0.4758(3) 0.2935(3)
H22 H 0.6914 0.4302 0.3480
C27 C 0.5372(4) 0.4688(2) 0.2453(2)
O4 O 0.1965(4) 0.6038(3) 0.4969(2)
C28 C 0.2383(6) 0.6209(4) 0.3977(3)
H23 H 0.3565 0.6275 0.3822
C29 C 0.1158(6) 0.7262(4) 0.3697(4)
H24 H 0.0590 0.7127 0.3161
H25 H 0.1742 0.7851 0.3505
C30 C -0.0117(6) 0.7572(4) 0.4638(4)
H26 H 0.0079 0.8202 0.4961
H27 H -0.1284 0.7759 0.4499
C31 C 0.0222(6) 0.6573(4) 0.5229(4)
H28 H -0.0020 0.6762 0.5921
H29 H -0.0486 0.6084 0.5104
O5? O 0.1009(16) 0.5907(8) 0.5044(7)
C32? C 0.0919(18) 0.5905(10) 0.4062(9)
H30? H 0.0011 0.5524 0.4026
C33? C 0.018(2) 0.7073(10) 0.3733(9)
H31? H 0.0861 0.7257 0.3137
H32? H -0.0982 0.7161 0.3611
C34? C 0.023(2) 0.7787(9) 0.4546(11)
H33? H -0.0907 0.8204 0.4813
H34? H 0.0928 0.8312 0.4332
C35? C 0.101(2) 0.6988(11) 0.5286(10)
H35? H 0.2177 0.7037 0.5299
H36? H 0.0367 0.7176 0.5933
Cl1? Cl 0.5296(3) 0.0944(2) 0.93643(18)
C36? C 0.561(2) -0.0440(14) 0.9353(9)
H37? H 0.6820 -0.0791 0.9202
H38? H 0.5035 -0.0653 0.8851
loop_
_geom_bond_atom_site_label_1
_geom_bond_atom_site_label_2
_geom_bond_site_symmetry_1
_geom_bond_site_symmetry_2
B1 F1 1_555 1_555
F2 B1 1_555 1_555
N1 B1 1_555 1_555
N2 B1 1_555 1_555
O1 C21 1_555 1_555
O2 O3 1_555 1_555
O3 C28 1_555 1_555
C1 N1 1_555 1_555
C2 C1 1_555 1_555
H1 C2 1_555 1_555
C3 C2 1_555 1_555
H2 C3 1_555 1_555
C4 N1 1_555 1_555
C5 C4 1_555 1_555
C6 N2 1_555 1_555
C7 C6 1_555 1_555
H3 C7 1_555 1_555
C8 C7 1_555 1_555
H4 C8 1_555 1_555
C9 N2 1_555 1_555
C10 C1 1_555 1_555
H5 C10 1_555 1_555
H6 C10 1_555 1_555
C11 C10 1_555 1_555
H7 C11 1_555 1_555
H8 C11 1_555 1_555
H9 C11 1_555 1_555
C12 C9 1_555 1_555
H10 C12 1_555 1_555
H11 C12 1_555 1_555
C13 C12 1_555 1_555
H12 C13 1_555 1_555
H13 C13 1_555 1_555
H14 C13 1_555 1_555
C14 O2 1_555 1_555
C15 C14 1_555 1_555
C16 C15 1_555 1_555
H15 C16 1_555 1_555
C17 C16 1_555 1_555
H16 C17 1_555 1_555
C18 C17 1_555 1_555
H17 C18 1_555 1_555
C19 C18 1_555 1_555
H18 C19 1_555 1_555
C20 C15 1_555 1_555
C21 C20 1_555 1_555
C22 C21 1_555 1_555
C23 C22 1_555 1_555
H19 C23 1_555 1_555
C24 C23 1_555 1_555
H20 C24 1_555 1_555
C25 C24 1_555 1_555
H21 C25 1_555 1_555
C26 C25 1_555 1_555
H22 C26 1_555 1_555
C27 C14 1_555 1_555
O4 C28 1_555 1_555
C28 H23 1_555 1_555
C29 C28 1_555 1_555
H24 C29 1_555 1_555
H25 C29 1_555 1_555
C30 C29 1_555 1_555
H26 C30 1_555 1_555
H27 C30 1_555 1_555
C31 O4 1_555 1_555
H28 C31 1_555 1_555
H29 C31 1_555 1_555
C3 C4 1_555 1_555
C5 C6 1_555 1_555
C5 C14 1_555 1_555
C8 C9 1_555 1_555
C19 C20 1_555 1_555
C22 C27 1_555 1_555
C26 C27 1_555 1_555
C30 C31 1_555 1_555

#END
