
#######################################################################
#
#                 Cambridge Crystallographic Data Centre
#                                CCDC 
#
#######################################################################
#
# If this CIF has been generated from an entry in the Cambridge 
# Structural Database, then it will include bibliographic, chemical, 
# crystal, experimental, refinement or atomic coordinate data resulting 
# from the CCDC's data processing and validation procedures.
#
#######################################################################

data_TAWZID
_chemical_formula_moiety         'C2 N8 O2 2-,2(C3 H5 N2 1+)'
_chemical_name_systematic        
"bis(1H-pyrazol-2-ium) 1H,1'H-5,5'-bitetrazole-1,1'-diolate"
_symmetry_cell_setting           triclinic
_symmetry_space_group_name_H-M   'P -1'
_symmetry_Int_Tables_number      2
_space_group_name_Hall           '-P 1'
loop_
_symmetry_equiv_pos_site_id
_symmetry_equiv_pos_as_xyz
1 x,y,z
2 -x,-y,-z
_cell_length_a                   3.6688(4)
_cell_length_b                   8.796(7)
_cell_length_c                   10.1801(8)
_cell_angle_alpha                103.479(2)
_cell_angle_beta                 99.9610(10)
_cell_angle_gamma                92.6670(10)
_cell_volume                     313.359
_exptl_crystal_colour            colorless
_exptl_crystal_description       block
_cell_formula_units_Z            1
loop_
_atom_site_label
_atom_site_type_symbol
_atom_site_fract_x
_atom_site_fract_y
_atom_site_fract_z
N1 N 0.7827(12) 0.2023(5) 0.7172(4)
H1 H 0.6584 0.2246 0.6454
N2 N 0.8689(13) 0.0599(5) 0.7263(4)
H2 H 0.8128 -0.0249 0.6619
C1 C 1.0551(16) 0.0712(6) 0.8512(5)
H3 H 1.1464 -0.0115 0.8856
C2 C 1.0911(16) 0.2233(6) 0.9208(6)
H4 H 1.2126 0.2657 1.0111
C3 C 0.9135(16) 0.3020(6) 0.8321(6)
H5 H 0.8904 0.4094 0.8512
N3 N 0.5255(11) 0.3002(4) 0.4013(4)
N4 N 0.6262(13) 0.2584(5) 0.2782(4)
N5 N 0.6995(14) 0.3862(5) 0.2432(4)
N6 N 0.6536(12) 0.5113(5) 0.3404(4)
O1 O 0.4255(11) 0.1959(4) 0.4636(4)
C4 C 0.5452(13) 0.4546(5) 0.4377(5)
N3A N 0.4745(11) 0.6998(4) 0.5987(4)
N4A N 0.3738(13) 0.7416(5) 0.7218(4)
N5A N 0.3005(14) 0.6138(5) 0.7568(4)
N6A N 0.3464(12) 0.4887(5) 0.6596(4)
O1A O 0.5745(11) 0.8041(4) 0.5364(4)
C4A C 0.4548(13) 0.5454(5) 0.5623(5)
loop_
_geom_bond_atom_site_label_1
_geom_bond_atom_site_label_2
_geom_bond_site_symmetry_1
_geom_bond_site_symmetry_2
N1 H1 1_555 1_555
N2 N1 1_555 1_555
H2 N2 1_555 1_555
C1 N2 1_555 1_555
H3 C1 1_555 1_555
C2 C1 1_555 1_555
H4 C2 1_555 1_555
C3 N1 1_555 1_555
H5 C3 1_555 1_555
N3 N4 1_555 1_555
N4 N5 1_555 1_555
N5 N6 1_555 1_555
N6 C4 1_555 1_555
O1 N3 1_555 1_555
C4 N3 1_555 1_555
N3A N4A 1_555 1_555
N4A N5A 1_555 1_555
N5A N6A 1_555 1_555
N6A C4A 1_555 1_555
O1A N3A 1_555 1_555
C4A C4 1_555 1_555
C2 C3 1_555 1_555
N3A C4A 1_555 1_555

#END
