
#######################################################################
#
#                 Cambridge Crystallographic Data Centre
#                                CCDC 
#
#######################################################################
#
# If this CIF has been generated from an entry in the Cambridge 
# Structural Database, then it will include bibliographic, chemical, 
# crystal, experimental, refinement or atomic coordinate data resulting 
# from the CCDC's data processing and validation procedures.
#
#######################################################################

data_TAXHOP
_chemical_formula_moiety         'C9 H4 F6 I1 N3 O1'
_chemical_name_systematic        
1-Azido-3,3-bis(trifluoromethyl)-3H-1,2-benziodoxole
_symmetry_cell_setting           monoclinic
_symmetry_space_group_name_H-M   'P 21/n'
_symmetry_Int_Tables_number      14
_space_group_name_Hall           '-P 2yn'
loop_
_symmetry_equiv_pos_site_id
_symmetry_equiv_pos_as_xyz
1 x,y,z
2 1/2-x,1/2+y,1/2-z
3 -x,-y,-z
4 1/2+x,1/2-y,1/2+z
_cell_length_a                   11.850(3)
_cell_length_b                   6.993(2)
_cell_length_c                   15.188(2)
_cell_angle_alpha                90
_cell_angle_beta                 99.61(2)
_cell_angle_gamma                90
_cell_volume                     1240.92
_exptl_crystal_colour            'pale yellow'
_chemical_melting_point          147-150deg.C
_cell_formula_units_Z            4
loop_
_atom_site_label
_atom_site_type_symbol
_atom_site_fract_x
_atom_site_fract_y
_atom_site_fract_z
I1 I 0.14257(4) -0.01785(8) 0.10946(3)
F1 F 0.0828(5) -0.071(1) -0.2027(3)
F2 F 0.2218(6) 0.0923(9) -0.1322(4)
F3 F 0.2554(5) -0.159(1) -0.2006(3)
F4 F 0.0383(5) -0.408(1) -0.1333(4)
F5 F 0.1370(6) -0.492(1) -0.0089(5)
F6 F 0.2131(7) -0.498(1) -0.1265(5)
O1 O 0.0959(4) -0.108(1) -0.0257(3)
N1 N 0.2222(6) 0.060(1) 0.2447(4)
N2 N 0.1818(7) -0.043(1) 0.3003(4)
N3 N 0.1503(9) -0.124(1) 0.3552(5)
C1 C 0.3011(6) -0.117(1) 0.0817(5)
C2 C 0.3996(7) -0.106(1) 0.1431(5)
C3 C 0.5014(7) -0.171(1) 0.1193(6)
C4 C 0.4996(7) -0.245(1) 0.0346(6)
C5 C 0.3983(7) -0.255(1) -0.0259(5)
C6 C 0.2965(6) -0.191(1) -0.0030(5)
C7 C 0.1808(7) -0.195(1) -0.0633(5)
C8 C 0.1851(7) -0.082(1) -0.1519(5)
C9 C 0.1438(9) -0.398(2) -0.0839(7)
H1 H 0.400(7) -0.07(1) 0.195(5)
H2 H 0.573(7) -0.15(1) 0.159(5)
H3 H 0.573(6) -0.29(1) 0.016(5)
H4 H 0.4069 -0.2925 -0.0824
loop_
_geom_bond_atom_site_label_1
_geom_bond_atom_site_label_2
_geom_bond_site_symmetry_1
_geom_bond_site_symmetry_2
I1 O1 1_555 1_555
F1 C8 1_555 1_555
F2 C8 1_555 1_555
F3 C8 1_555 1_555
F4 C9 1_555 1_555
F5 C9 1_555 1_555
F6 C9 1_555 1_555
O1 C7 1_555 1_555
N1 I1 1_555 1_555
N2 N1 1_555 1_555
N3 N2 1_555 1_555
C1 I1 1_555 1_555
C2 C1 1_555 1_555
C3 C2 1_555 1_555
C4 C3 1_555 1_555
C5 C4 1_555 1_555
C6 C1 1_555 1_555
C7 C6 1_555 1_555
C8 C7 1_555 1_555
C9 C7 1_555 1_555
H1 C2 1_555 1_555
H2 C3 1_555 1_555
H3 C4 1_555 1_555
H4 C5 1_555 1_555
C5 C6 1_555 1_555

#END
