
#######################################################################
#
#                 Cambridge Crystallographic Data Centre
#                                CCDC 
#
#######################################################################
#
# If this CIF has been generated from an entry in the Cambridge 
# Structural Database, then it will include bibliographic, chemical, 
# crystal, experimental, refinement or atomic coordinate data resulting 
# from the CCDC's data processing and validation procedures.
#
#######################################################################

data_TAXHIM
_chemical_formula_moiety         'C14 H18 F3 N1 O3 S1'
_chemical_name_systematic        
1,1,1-trifluoro-N-(2-(5-methoxy-2-methyl-2,3-dihydro-1H-inden-1-yl)ethyl)methanesulfonamide
_symmetry_cell_setting           orthorhombic
_symmetry_space_group_name_H-M   'P 21 21 21'
_symmetry_Int_Tables_number      19
_space_group_name_Hall           'P 2ac 2ab'
loop_
_symmetry_equiv_pos_site_id
_symmetry_equiv_pos_as_xyz
1 x,y,z
2 1/2-x,-y,1/2+z
3 -x,1/2+y,1/2-z
4 1/2+x,1/2-y,-z
_cell_length_a                   4.99000(10)
_cell_length_b                   10.5256(2)
_cell_length_c                   29.4272(7)
_cell_angle_alpha                90
_cell_angle_beta                 90
_cell_angle_gamma                90
_cell_volume                     1545.6
_exptl_crystal_colour            colorless
_exptl_crystal_description       block
_chemical_melting_point          '74-76 deg.C'
_cell_formula_units_Z            4
loop_
_atom_site_label
_atom_site_type_symbol
_atom_site_fract_x
_atom_site_fract_y
_atom_site_fract_z
S1 S 0.63241(11) 0.42116(5) 0.51891(2)
C1 C 0.1296(5) 0.0302(2) 0.78318(7)
F1 F 0.6909(4) 0.59228(18) 0.58186(6)
O1 O 0.9090(4) 0.39239(18) 0.52444(7)
N1 N 0.4601(4) 0.34040(18) 0.55360(6)
F2 F 0.3449(4) 0.61913(15) 0.54038(7)
C2 C 0.3187(5) -0.0473(2) 0.76158(7)
H1 H 0.3705 -0.1262 0.7746
O2 O 0.5102(4) 0.4239(2) 0.47521(5)
F3 F 0.7366(4) 0.66154(17) 0.51335(7)
O3 O 0.0301(4) -0.01613(16) 0.82360(5)
C3 C 0.4289(5) -0.0072(2) 0.72090(7)
C4 C 0.0516(5) 0.1452(2) 0.76415(7)
H2 H -0.0799 0.1962 0.7787
C5 C 0.1678(5) 0.1852(2) 0.72347(7)
H3 H 0.1177 0.2644 0.7105
C6 C 0.3550(5) 0.10993(19) 0.70202(7)
C7 C 0.5193(4) 0.1345(2) 0.65974(7)
H4 H 0.6837 0.1811 0.6697
C8 C 0.6113(5) -0.0010(2) 0.64547(7)
H5 H 0.7900 0.0034 0.6302
C9 C 0.6372(5) -0.0701(2) 0.69165(7)
H6 H 0.6003 -0.1621 0.6884
H7 H 0.8186 -0.0588 0.7046
C10 C 0.3840(5) 0.2173(2) 0.62361(7)
H8 H 0.2388 0.1686 0.6087
H9 H 0.3035 0.2930 0.6382
C11 C 0.5871(5) 0.2586(2) 0.58845(8)
H10 H 0.7337 0.3060 0.6035
H11 H 0.6657 0.1828 0.5737
C12 C -0.1569(6) 0.0618(3) 0.84729(8)
H12 H -0.0753 0.1447 0.8536
H13 H -0.2065 0.0208 0.8760
H14 H -0.3174 0.0736 0.8286
C13 C 0.4110(6) -0.0700(2) 0.61509(8)
H15 H 0.3938 -0.0245 0.5862
H16 H 0.2362 -0.0732 0.6302
H17 H 0.4743 -0.1567 0.6094
C14 C 0.5994(6) 0.5837(2) 0.53993(9)
loop_
_geom_bond_atom_site_label_1
_geom_bond_atom_site_label_2
_geom_bond_site_symmetry_1
_geom_bond_site_symmetry_2
S1 O1 1_555 1_555
C1 C2 1_555 1_555
F1 C14 1_555 1_555
N1 S1 1_555 1_555
F2 C14 1_555 1_555
C2 H1 1_555 1_555
O2 S1 1_555 1_555
F3 C14 1_555 1_555
O3 C1 1_555 1_555
C3 C2 1_555 1_555
C4 C1 1_555 1_555
H2 C4 1_555 1_555
C5 C4 1_555 1_555
H3 C5 1_555 1_555
C6 C3 1_555 1_555
C7 C6 1_555 1_555
H4 C7 1_555 1_555
C8 C7 1_555 1_555
H5 C8 1_555 1_555
C9 C3 1_555 1_555
H6 C9 1_555 1_555
H7 C9 1_555 1_555
C10 C7 1_555 1_555
H8 C10 1_555 1_555
H9 C10 1_555 1_555
C11 N1 1_555 1_555
H10 C11 1_555 1_555
H11 C11 1_555 1_555
C12 O3 1_555 1_555
H12 C12 1_555 1_555
H13 C12 1_555 1_555
H14 C12 1_555 1_555
C13 C8 1_555 1_555
H15 C13 1_555 1_555
H16 C13 1_555 1_555
H17 C13 1_555 1_555
C14 S1 1_555 1_555
C5 C6 1_555 1_555
C8 C9 1_555 1_555
C10 C11 1_555 1_555

#END
