
#######################################################################
#
#                 Cambridge Crystallographic Data Centre
#                                CCDC 
#
#######################################################################
#
# If this CIF has been generated from an entry in the Cambridge 
# Structural Database, then it will include bibliographic, chemical, 
# crystal, experimental, refinement or atomic coordinate data resulting 
# from the CCDC's data processing and validation procedures.
#
#######################################################################

data_TAXLOV
_chemical_formula_moiety         'C20 H20 Br1 N1 O2,0.25(C7 H16)'
_chemical_name_systematic        
'4-Bromo-N-(4-methyl-2-phenyl-4-vinyltetrahydrofuran-3-yl)benzamide heptane solvate'
_symmetry_cell_setting           triclinic
_symmetry_space_group_name_H-M   'P 1'
_symmetry_Int_Tables_number      1
_space_group_name_Hall           'P 1'
loop_
_symmetry_equiv_pos_site_id
_symmetry_equiv_pos_as_xyz
1 x,y,z
_cell_length_a                   10.0419(19)
_cell_length_b                   13.242(2)
_cell_length_c                   17.026(3)
_cell_angle_alpha                68.009(3)
_cell_angle_beta                 75.742(4)
_cell_angle_gamma                71.945(4)
_cell_volume                     1974.04
_exptl_crystal_colour            colorless
_exptl_crystal_description       block
_cell_formula_units_Z            4
loop_
_atom_site_label
_atom_site_type_symbol
_atom_site_fract_x
_atom_site_fract_y
_atom_site_fract_z
Br1 Br 0.13867(14) 0.12308(9) 1.19040(7)
N1 N 0.1834(10) 0.4328(8) 0.7586(6)
H1 H 0.2537 0.4334 0.7805
O1 O 0.3256(12) 0.4954(9) 0.5343(6)
O2 O -0.0320(8) 0.3976(6) 0.7877(5)
C1 C 0.3169(16) 0.4145(12) 0.6195(8)
H5 H 0.4029 0.4027 0.6446
C2 C 0.1873(12) 0.4772(10) 0.6672(7)
H6 H 0.1018 0.4658 0.6547
C3 C 0.1825(16) 0.6059(11) 0.6250(8)
C4 C 0.238(2) 0.6061(14) 0.5333(10)
H7 H 0.1582 0.6261 0.5018
H8 H 0.2952 0.6627 0.5037
C5 C 0.2680(19) 0.6419(10) 0.6644(11)
H9 H 0.3558 0.5892 0.6756
C6 C 0.251(3) 0.7281(14) 0.6869(12)
H10 H 0.1665 0.7863 0.6787
H11 H 0.3221 0.7336 0.7117
C7 C 0.0273(18) 0.6803(13) 0.6325(14)
H12 H 0.0285 0.7597 0.6055
H13 H -0.0134 0.6663 0.6930
H14 H -0.0302 0.6614 0.6035
C8 C 0.0789(11) 0.3913(7) 0.8105(6)
C9 C 0.0973(12) 0.3330(8) 0.9050(7)
C10 C 0.2062(13) 0.3312(9) 0.9423(7)
H15 H 0.2753 0.3715 0.9082
C11 C 0.2176(15) 0.2739(11) 1.0258(8)
H16 H 0.2920 0.2758 1.0501
C12 C 0.1211(14) 0.2132(9) 1.0748(7)
C13 C 0.0071(12) 0.2099(9) 1.0416(7)
H17 H -0.0585 0.1664 1.0763
C14 C -0.0058(12) 0.2723(8) 0.9562(6)
H18 H -0.0831 0.2745 0.9323
C15 C 0.3071(15) 0.3073(12) 0.6196(7)
C16 C 0.4168(16) 0.2138(13) 0.6437(9)
H19 H 0.4963 0.2236 0.6584
C17 C 0.419(2) 0.1097(16) 0.6478(10)
H20 H 0.4966 0.0478 0.6643
C18 C 0.294(3) 0.0967(13) 0.6255(10)
H21 H 0.2882 0.0254 0.6275
C19 C 0.183(2) 0.1915(13) 0.6013(10)
H22 H 0.1006 0.1858 0.5868
C20 C 0.1949(18) 0.2902(11) 0.5990(9)
H23 H 0.1191 0.3537 0.5817
Br2 Br 0.87113(16) -0.11826(9) 0.80740(8)
N2 N 0.6654(9) 0.4350(7) 0.7995(5)
H2 H 0.7567 0.4077 0.8014
O3 O 0.7065(14) 0.6833(8) 0.8095(7)
O4 O 0.4633(8) 0.4042(7) 0.7914(6)
C21 C 0.7038(14) 0.6260(10) 0.7543(9)
H24 H 0.8007 0.5776 0.7446
C22 C 0.6008(12) 0.5485(8) 0.8012(8)
H25 H 0.5148 0.5789 0.7721
C23 C 0.5581(13) 0.5627(9) 0.8920(7)
C24 C 0.5755(18) 0.6830(10) 0.8674(10)
H26 H 0.4957 0.7391 0.8391
H27 H 0.5808 0.6995 0.9186
C25 C 0.6516(16) 0.4841(10) 0.9524(8)
H28 H 0.7470 0.4904 0.9357
C26 C 0.630(2) 0.4068(16) 1.0247(11)
H29 H 0.5382 0.3942 1.0467
H30 H 0.7068 0.3627 1.0558
C27 C 0.4057(16) 0.5481(16) 0.9293(12)
H31 H 0.3793 0.5577 0.9860
H32 H 0.4015 0.4729 0.9346
H33 H 0.3399 0.6046 0.8911
C28 C 0.5910(11) 0.3721(7) 0.7952(6)
C29 C 0.6677(10) 0.2542(7) 0.7969(6)
C30 C 0.5834(13) 0.1777(8) 0.8177(7)
H34 H 0.4836 0.2029 0.8305
C31 C 0.6410(14) 0.0656(9) 0.8201(8)
H35 H 0.5824 0.0155 0.8332
C32 C 0.7892(15) 0.0309(9) 0.8023(8)
C33 C 0.8738(15) 0.1082(10) 0.7794(8)
H36 H 0.9733 0.0853 0.7637
C34 C 0.8131(14) 0.2157(9) 0.7796(8)
H37 H 0.8720 0.2652 0.7677
C35 C 0.6669(12) 0.7093(9) 0.6681(8)
C36 C 0.6619(14) 0.8220(9) 0.6432(8)
H38 H 0.6814 0.8508 0.6814
C37 C 0.6290(17) 0.8937(10) 0.5639(9)
H39 H 0.6289 0.9706 0.5483
C38 C 0.5964(16) 0.8574(11) 0.5066(8)
H40 H 0.5699 0.9083 0.4531
C39 C 0.6037(15) 0.7432(12) 0.5297(9)
H41 H 0.5863 0.7155 0.4901
C40 C 0.6355(14) 0.6700(10) 0.6086(8)
H42 H 0.6367 0.5930 0.6236
Br3 Br 0.75200(16) 0.36042(10) 0.56555(9)
N3 N 0.6812(10) 0.8630(7) 0.2351(6)
H3 H 0.6028 0.8396 0.2494
O5 O 0.5368(10) 1.1531(7) 0.1087(5)
O6 O 0.9123(8) 0.8250(6) 0.2481(5)
C41 C 0.5496(13) 1.0677(9) 0.1893(7)
H43 H 0.4659 1.0346 0.2054
C42 C 0.6832(12) 0.9754(9) 0.1731(7)
H44 H 0.7669 0.9961 0.1793
C43 C 0.6940(14) 0.9909(10) 0.0766(7)
C44 C 0.6449(16) 1.1179(11) 0.0436(8)
H45 H 0.7255 1.1520 0.0321
H46 H 0.6058 1.1423 -0.0103
C45 C 0.5907(15) 0.9376(11) 0.0656(7)
H47 H 0.4936 0.9634 0.0858
C46 C 0.6239(15) 0.8565(10) 0.0298(8)
H48 H 0.7197 0.8281 0.0088
H49 H 0.5514 0.8274 0.0255
C47 C 0.8455(15) 0.9512(12) 0.0376(8)
H50 H 0.8486 0.9622 -0.0230
H51 H 0.8810 0.8714 0.0680
H52 H 0.9046 0.9945 0.0426
C48 C 0.7930(12) 0.7976(9) 0.2690(7)
C49 C 0.7864(13) 0.6862(9) 0.3335(7)
C50 C 0.6755(13) 0.6358(8) 0.3482(7)
H53 H 0.6056 0.6689 0.3112
C51 C 0.6657(13) 0.5367(9) 0.4172(8)
H54 H 0.5893 0.5032 0.4271
C52 C 0.7660(14) 0.4896(8) 0.4690(8)
C53 C 0.8807(15) 0.5357(9) 0.4544(9)
H55 H 0.9529 0.5003 0.4899
C54 C 0.8872(13) 0.6328(9) 0.3881(9)
H56 H 0.9641 0.6652 0.3790
C55 C 0.5469(14) 1.1123(9) 0.2572(7)
C56 C 0.4278(17) 1.1226(11) 0.3187(9)
H57 H 0.3480 1.0997 0.3170
C57 C 0.4227(19) 1.1658(14) 0.3832(10)
H58 H 0.3431 1.1691 0.4267
C58 C 0.543(2) 1.2049(14) 0.3810(11)
H59 H 0.5403 1.2373 0.4227
C59 C 0.647(2) 1.1974(15) 0.3267(13)
H60 H 0.7235 1.2250 0.3274
C60 C 0.6605(18) 1.1475(15) 0.2606(12)
H61 H 0.7451 1.1397 0.2211
Br4 Br -0.07305(17) 1.03856(11) 0.56369(9)
N4 N 0.2123(10) 0.7938(7) 0.2423(6)
H4 H 0.1198 0.8030 0.2527
O7 O 0.2305(12) 0.6558(7) 0.0973(6)
O8 O 0.4050(8) 0.8169(6) 0.2722(5)
C61 C 0.1996(13) 0.7611(9) 0.1107(7)
H62 H 0.0978 0.7785 0.1366
C62 C 0.2914(11) 0.7411(8) 0.1788(7)
H63 H 0.3752 0.7736 0.1495
C63 C 0.3446(13) 0.6086(9) 0.2155(8)
C64 C 0.2492(18) 0.5728(11) 0.1788(9)
H64 H 0.2946 0.4978 0.1726
H65 H 0.1570 0.5702 0.2164
C65 C 0.3364(15) 0.5600(10) 0.3105(8)
H66 H 0.3740 0.5931 0.3382
C66 C 0.2811(17) 0.4749(9) 0.3588(8)
H67 H 0.2424 0.4396 0.3334
H68 H 0.2797 0.4487 0.4190
C67 C 0.4984(16) 0.5749(11) 0.1749(10)
H69 H 0.5331 0.4931 0.1967
H70 H 0.5569 0.6105 0.1895
H71 H 0.5037 0.5994 0.1126
C68 C 0.2705(12) 0.8288(8) 0.2853(6)
C69 C 0.1789(12) 0.8797(8) 0.3541(6)
C70 C 0.2544(14) 0.8970(9) 0.4041(8)
H72 H 0.3550 0.8777 0.3949
C71 C 0.1788(14) 0.9437(9) 0.4688(7)
H73 H 0.2266 0.9543 0.5057
C72 C 0.0334(14) 0.9733(9) 0.4769(7)
C73 C -0.0397(14) 0.9601(9) 0.4253(7)
H74 H -0.1400 0.9842 0.4315
C74 C 0.0370(13) 0.9097(9) 0.3626(7)
H75 H -0.0112 0.8971 0.3268
C75 C 0.2185(11) 0.8522(9) 0.0262(7)
C76 C 0.2457(11) 0.9515(9) 0.0239(8)
H76 H 0.2495 0.9622 0.0754
C77 C 0.2667(15) 1.0326(9) -0.0535(9)
H77 H 0.2885 1.0979 -0.0543
C78 C 0.2579(17) 1.0244(12) -0.1284(9)
H78 H 0.2738 1.0818 -0.1811
C79 C 0.2233(17) 0.9245(11) -0.1254(9)
H79 H 0.2133 0.9166 -0.1768
C80 C 0.2046(14) 0.8401(10) -0.0476(7)
H80 H 0.1823 0.7745 -0.0457
C81 C 1.051(3) 0.2674(19) 0.4183(16)
H81 H 1.0310 0.2055 0.4699
H82 H 1.0321 0.3356 0.4333
H83 H 1.1510 0.2480 0.3935
C82 C 0.967(2) 0.2855(14) 0.3595(12)
H84 H 0.8657 0.3047 0.3845
H85 H 0.9843 0.2163 0.3450
C83 C 0.999(2) 0.3839(14) 0.2762(12)
H86 H 0.9861 0.4510 0.2926
H87 H 1.0992 0.3624 0.2515
C84 C 0.915(2) 0.4137(13) 0.2123(11)
H88 H 0.8156 0.4480 0.2322
H89 H 0.9159 0.3460 0.2002
C85 C 0.974(2) 0.4989(15) 0.1296(13)
H90 H 0.9588 0.5700 0.1411
H91 H 1.0776 0.4691 0.1176
C86 C 0.914(2) 0.5248(15) 0.0525(13)
H92 H 0.8094 0.5514 0.0646
H93 H 0.9341 0.4552 0.0380
C87 C 0.969(2) 0.6099(14) -0.0210(12)
H94 H 0.9335 0.6174 -0.0722
H95 H 1.0724 0.5874 -0.0299
H96 H 0.9371 0.6820 -0.0103
loop_
_geom_bond_atom_site_label_1
_geom_bond_atom_site_label_2
_geom_bond_site_symmetry_1
_geom_bond_site_symmetry_2
Br1 C12 1_555 1_555
Br2 C32 1_555 1_555
Br3 C52 1_555 1_555
Br4 C72 1_555 1_555
N1 H1 1_555 1_555
N2 H2 1_555 1_555
N3 H3 1_555 1_555
N4 H4 1_555 1_555
O1 C1 1_555 1_555
O2 C8 1_555 1_555
O3 C21 1_555 1_555
O4 C28 1_555 1_555
O5 C41 1_555 1_555
O6 C48 1_555 1_555
O7 C61 1_555 1_555
O8 C68 1_555 1_555
C1 H5 1_555 1_555
C2 N1 1_555 1_555
H6 C2 1_555 1_555
C3 C2 1_555 1_555
C4 O1 1_555 1_555
H7 C4 1_555 1_555
H8 C4 1_555 1_555
C5 C3 1_555 1_555
H9 C5 1_555 1_555
C6 C5 1_555 1_555
H10 C6 1_555 1_555
H11 C6 1_555 1_555
C7 C3 1_555 1_555
H12 C7 1_555 1_555
H13 C7 1_555 1_555
H14 C7 1_555 1_555
C8 N1 1_555 1_555
C9 C8 1_555 1_555
C10 C9 1_555 1_555
H15 C10 1_555 1_555
C11 C10 1_555 1_555
H16 C11 1_555 1_555
C12 C11 1_555 1_555
C13 C12 1_555 1_555
H17 C13 1_555 1_555
C14 C9 1_555 1_555
H18 C14 1_555 1_555
C15 C1 1_555 1_555
C16 C15 1_555 1_555
H19 C16 1_555 1_555
C17 C16 1_555 1_555
H20 C17 1_555 1_555
C18 C17 1_555 1_555
H21 C18 1_555 1_555
C19 C18 1_555 1_555
H22 C19 1_555 1_555
C20 C15 1_555 1_555
H23 C20 1_555 1_555
C21 H24 1_555 1_555
C22 N2 1_555 1_555
H25 C22 1_555 1_555
C23 C22 1_555 1_555
C24 O3 1_555 1_555
H26 C24 1_555 1_555
H27 C24 1_555 1_555
C25 C23 1_555 1_555
H28 C25 1_555 1_555
C26 C25 1_555 1_555
H29 C26 1_555 1_555
H30 C26 1_555 1_555
C27 C23 1_555 1_555
H31 C27 1_555 1_555
H32 C27 1_555 1_555
H33 C27 1_555 1_555
C28 N2 1_555 1_555
C29 C28 1_555 1_555
C30 C29 1_555 1_555
H34 C30 1_555 1_555
C31 C30 1_555 1_555
H35 C31 1_555 1_555
C32 C31 1_555 1_555
C33 C32 1_555 1_555
H36 C33 1_555 1_555
C34 C29 1_555 1_555
H37 C34 1_555 1_555
C35 C21 1_555 1_555
C36 C35 1_555 1_555
H38 C36 1_555 1_555
C37 C36 1_555 1_555
H39 C37 1_555 1_555
C38 C37 1_555 1_555
H40 C38 1_555 1_555
C39 C38 1_555 1_555
H41 C39 1_555 1_555
C40 C35 1_555 1_555
H42 C40 1_555 1_555
C41 H43 1_555 1_555
C42 N3 1_555 1_555
H44 C42 1_555 1_555
C43 C42 1_555 1_555
C44 O5 1_555 1_555
H45 C44 1_555 1_555
H46 C44 1_555 1_555
C45 C43 1_555 1_555
H47 C45 1_555 1_555
C46 C45 1_555 1_555
H48 C46 1_555 1_555
H49 C46 1_555 1_555
C47 C43 1_555 1_555
H50 C47 1_555 1_555
H51 C47 1_555 1_555
H52 C47 1_555 1_555
C48 N3 1_555 1_555
C49 C48 1_555 1_555
C50 C49 1_555 1_555
H53 C50 1_555 1_555
C51 C50 1_555 1_555
H54 C51 1_555 1_555
C52 C51 1_555 1_555
C53 C52 1_555 1_555
H55 C53 1_555 1_555
C54 C49 1_555 1_555
H56 C54 1_555 1_555
C55 C41 1_555 1_555
C56 C55 1_555 1_555
H57 C56 1_555 1_555
C57 C56 1_555 1_555
H58 C57 1_555 1_555
C58 C57 1_555 1_555
H59 C58 1_555 1_555
C59 C58 1_555 1_555
H60 C59 1_555 1_555
C60 C55 1_555 1_555
H61 C60 1_555 1_555
C61 H62 1_555 1_555
C62 N4 1_555 1_555
H63 C62 1_555 1_555
C63 C62 1_555 1_555
C64 O7 1_555 1_555
H64 C64 1_555 1_555
H65 C64 1_555 1_555
C65 C63 1_555 1_555
H66 C65 1_555 1_555
C66 C65 1_555 1_555
H67 C66 1_555 1_555
H68 C66 1_555 1_555
C67 C63 1_555 1_555
H69 C67 1_555 1_555
H70 C67 1_555 1_555
H71 C67 1_555 1_555
C68 N4 1_555 1_555
C69 C68 1_555 1_555
C70 C69 1_555 1_555
H72 C70 1_555 1_555
C71 C70 1_555 1_555
H73 C71 1_555 1_555
C72 C71 1_555 1_555
C73 C72 1_555 1_555
H74 C73 1_555 1_555
C74 C69 1_555 1_555
H75 C74 1_555 1_555
C75 C61 1_555 1_555
C76 C75 1_555 1_555
H76 C76 1_555 1_555
C77 C76 1_555 1_555
H77 C77 1_555 1_555
C78 C77 1_555 1_555
H78 C78 1_555 1_555
C79 C78 1_555 1_555
H79 C79 1_555 1_555
C80 C75 1_555 1_555
H80 C80 1_555 1_555
C81 H81 1_555 1_555
H82 C81 1_555 1_555
H83 C81 1_555 1_555
C82 C81 1_555 1_555
H84 C82 1_555 1_555
H85 C82 1_555 1_555
C83 C82 1_555 1_555
H86 C83 1_555 1_555
H87 C83 1_555 1_555
C84 C83 1_555 1_555
H88 C84 1_555 1_555
H89 C84 1_555 1_555
C85 C84 1_555 1_555
H90 C85 1_555 1_555
H91 C85 1_555 1_555
C86 C85 1_555 1_555
H92 C86 1_555 1_555
H93 C86 1_555 1_555
C87 C86 1_555 1_555
H94 C87 1_555 1_555
H95 C87 1_555 1_555
H96 C87 1_555 1_555
C1 C2 1_555 1_555
C3 C4 1_555 1_555
C13 C14 1_555 1_555
C19 C20 1_555 1_555
C21 C22 1_555 1_555
C23 C24 1_555 1_555
C33 C34 1_555 1_555
C39 C40 1_555 1_555
C41 C42 1_555 1_555
C43 C44 1_555 1_555
C53 C54 1_555 1_555
C59 C60 1_555 1_555
C61 C62 1_555 1_555
C63 C64 1_555 1_555
C73 C74 1_555 1_555
C79 C80 1_555 1_555

#END
