
#######################################################################
#
#                 Cambridge Crystallographic Data Centre
#                                CCDC 
#
#######################################################################
#
# If this CIF has been generated from an entry in the Cambridge 
# Structural Database, then it will include bibliographic, chemical, 
# crystal, experimental, refinement or atomic coordinate data resulting 
# from the CCDC's data processing and validation procedures.
#
#######################################################################

data_TAXMAG
_chemical_formula_moiety         'C12 H22 O10 S2'
_chemical_name_systematic        
'Methyl 2,3-O-isopropylidene-5,6-di-O-methanesulfonyl-\a-D-mannofuranoside'
_symmetry_cell_setting           monoclinic
_symmetry_space_group_name_H-M   'C 2'
_symmetry_Int_Tables_number      5
_space_group_name_Hall           'C 2y'
loop_
_symmetry_equiv_pos_site_id
_symmetry_equiv_pos_as_xyz
1 x,y,z
2 -x,y,-z
3 1/2+x,1/2+y,z
4 1/2-x,1/2+y,-z
_cell_length_a                   19.923(6)
_cell_length_b                   5.434(7)
_cell_length_c                   17.985(3)
_cell_angle_alpha                90
_cell_angle_beta                 112.25(10)
_cell_angle_gamma                90
_cell_volume                     1802.11
_exptl_crystal_colour            colorless
_cell_formula_units_Z            4
loop_
_atom_site_label
_atom_site_type_symbol
_atom_site_fract_x
_atom_site_fract_y
_atom_site_fract_z
S1 S 0.6525(1) 0.5024(4) 0.8747(1)
S2 S 0.9005(1) 0.5446(3) 0.8919(1)
O1 O 0.7071(2) 1.0494(9) 0.7011(2)
O2 O 0.7905(2) 1.1617(8) 0.5943(3)
O3 O 0.8514(2) 0.8927(8) 0.6922(2)
O4 O 0.6785(3) 0.6652(10) 0.8218(3)
O5 O 0.5989(3) 0.3498(12) 0.8228(3)
O6 O 0.7168(3) 0.3761(12) 0.9326(4)
O7 O 0.8253(2) 0.5714(8) 0.8190(2)
O8 O 0.8954(2) 0.6586(8) 0.9610(3)
O9 O 0.9165(2) 0.2895(8) 0.8934(3)
O10 O 0.6174(2) 0.9481(12) 0.5778(3)
C1 C 0.6808(3) 1.0801(15) 0.6183(4)
C2 C 0.7392(3) 0.9768(11) 0.5911(4)
C3 C 0.7801(3) 0.7941(12) 0.6581(3)
C4 C 0.7409(3) 0.8153(12) 0.7167(3)
C5 C 0.7868(3) 0.8082(11) 0.8058(3)
C6 C 0.7406(3) 0.8274(12) 0.8551(3)
C7 C 0.8605(3) 1.0625(13) 0.6360(4)
C8 C 0.8864(4) 0.9298(15) 0.5776(4)
C9 C 0.9110(4) 1.2582(14) 0.6797(4)
C10 C 0.6202(4) 0.7041(15) 0.9284(5)
C11 C 0.9613(3) 0.7158(13) 0.8627(4)
C12 C 0.5618(4) 1.0237(29) 0.6051(5)
H1 H 0.6731(3) 1.2553(15) 0.6047(4)
H2 H 0.7185(3) 0.8979(11) 0.5383(4)
H3 H 0.7794(3) 0.6261(12) 0.6379(3)
H4 H 0.7035(3) 0.6875(12) 0.7041(3)
H5 H 0.8219(3) 0.9434(11) 0.8196(3)
H6 H 0.7688(3) 0.7815(12) 0.9103(3)
H7 H 0.7242(3) 0.9958(12) 0.8547(3)
H8 H 0.9323(13) 0.8534(73) 0.6067(5)
H9 H 0.8915(25) 1.0458(21) 0.5399(18)
H10 H 0.8516(13) 0.8063(61) 0.5493(1)
H11 H 0.9568(9) 1.1868(16) 0.7121(24)
H12 H 0.8915(13) 1.3446(61) 0.7136(23)
H13 H 0.9176(21) 1.3710(53) 0.6419(4)
H14 H 0.6571(10) 0.8227(56) 0.9555(24)
H15 H 0.6077(25) 0.6137(19) 0.9671(20)
H16 H 0.5780(16) 0.7874(66) 0.8921(6)
H17 H 1.0091(6) 0.7052(78) 0.9037(15)
H18 H 0.9462(15) 0.8847(21) 0.8551(29)
H19 H 0.9619(21) 0.6508(58) 0.8133(17)
H20 H 0.5573(17) 1.1996(30) 0.6020(25)
H21 H 0.5742(14) 0.9719(80) 0.6597(12)
H22 H 0.5165(7) 0.9501(74) 0.5718(19)
loop_
_geom_bond_atom_site_label_1
_geom_bond_atom_site_label_2
_geom_bond_site_symmetry_1
_geom_bond_site_symmetry_2
S1 O4 1_555 1_555
S2 O7 1_555 1_555
O1 C1 1_555 1_555
O2 C2 1_555 1_555
O3 C3 1_555 1_555
O4 C6 1_555 1_555
O5 S1 1_555 1_555
O6 S1 1_555 1_555
O7 C5 1_555 1_555
O8 S2 1_555 1_555
O9 S2 1_555 1_555
O10 C1 1_555 1_555
C1 C2 1_555 1_555
C2 C3 1_555 1_555
C3 C4 1_555 1_555
C4 O1 1_555 1_555
C5 C4 1_555 1_555
C6 C5 1_555 1_555
C7 O2 1_555 1_555
C8 C7 1_555 1_555
C9 C7 1_555 1_555
C10 S1 1_555 1_555
C11 S2 1_555 1_555
C12 O10 1_555 1_555
H1 C1 1_555 1_555
H2 C2 1_555 1_555
H3 C3 1_555 1_555
H4 C4 1_555 1_555
H5 C5 1_555 1_555
H6 C6 1_555 1_555
H7 C6 1_555 1_555
H8 C8 1_555 1_555
H9 C8 1_555 1_555
H10 C8 1_555 1_555
H11 C9 1_555 1_555
H12 C9 1_555 1_555
H13 C9 1_555 1_555
H14 C10 1_555 1_555
H15 C10 1_555 1_555
H16 C10 1_555 1_555
H17 C11 1_555 1_555
H18 C11 1_555 1_555
H19 C11 1_555 1_555
H20 C12 1_555 1_555
H21 C12 1_555 1_555
H22 C12 1_555 1_555
O3 C7 1_555 1_555

#END
