
#######################################################################
#
#                 Cambridge Crystallographic Data Centre
#                                CCDC 
#
#######################################################################
#
# If this CIF has been generated from an entry in the Cambridge 
# Structural Database, then it will include bibliographic, chemical, 
# crystal, experimental, refinement or atomic coordinate data resulting 
# from the CCDC's data processing and validation procedures.
#
#######################################################################

data_TAXMEK
_chemical_formula_moiety         'C22 H27 O7 P1'
_chemical_name_systematic        
'Methyl 6-O-diphenylphosphinyl-2,3-O-isopropylidene-\a-D-mannofuranoside'
_symmetry_cell_setting           monoclinic
_symmetry_space_group_name_H-M   'P 21'
_symmetry_Int_Tables_number      4
_space_group_name_Hall           'P 2yb'
loop_
_symmetry_equiv_pos_site_id
_symmetry_equiv_pos_as_xyz
1 x,y,z
2 -x,1/2+y,-z
_cell_length_a                   13.418(14)
_cell_length_b                   5.976(6)
_cell_length_c                   13.971(16)
_cell_angle_alpha                90
_cell_angle_beta                 102.81(9)
_cell_angle_gamma                90
_cell_volume                     1092.4
_exptl_crystal_colour            colorless
_chemical_melting_point          172-174deg.C
_cell_formula_units_Z            2
loop_
_atom_site_label
_atom_site_type_symbol
_atom_site_fract_x
_atom_site_fract_y
_atom_site_fract_z
P1 P 0.8216(1) 0.0000 0.6939(1)
O1 O 0.5039(3) 0.2349(8) 0.7268(3)
O2 O 0.7430(3) 0.1781(8) 0.7175(3)
O3 O 0.7277(4) 0.5586(9) 0.8463(4)
O4 O 0.7900(4) -0.2354(9) 0.6944(3)
O5 O 0.4107(4) 0.3513(11) 0.5734(3)
O6 O 0.3335(3) 0.5063(12) 0.7875(3)
O7 O 0.4918(3) 0.6003(9) 0.8711(3)
C1 C 0.4088(5) 0.3142(13) 0.6710(4)
C2 C 0.3913(4) 0.5339(15) 0.7152(4)
C3 C 0.4978(4) 0.6092(12) 0.7699(4)
C4 C 0.5679(4) 0.4282(10) 0.7471(4)
C5 C 0.6599(4) 0.3750(12) 0.8285(4)
C6 C 0.7123(5) 0.1619(12) 0.8110(4)
C7 C 0.4366(8) 0.1605(20) 0.5246(8)
C8 C 0.3867(5) 0.6164(12) 0.8741(5)
C9 C 0.3715(6) 0.4867(16) 0.9623(5)
C10 C 0.3550(6) 0.8575(15) 0.8762(6)
C11 C 0.9382(3) 0.0482(8) 0.7835(3)
C12 C 0.9730(3) -0.1119(8) 0.8558(3)
C13 C 1.0610(3) -0.0715(8) 0.9283(3)
C14 C 1.1142(3) 0.1292(8) 0.9283(3)
C15 C 1.0794(3) 0.2893(8) 0.8560(3)
C16 C 0.9914(3) 0.2488(8) 0.7836(3)
C17 C 0.8386(3) 0.0950(8) 0.5772(2)
C18 C 0.8123(3) 0.3089(8) 0.5401(2)
C19 C 0.8267(3) 0.3677(8) 0.4475(2)
C20 C 0.8674(3) 0.2126(8) 0.3919(2)
C21 C 0.8936(3) -0.0014(8) 0.4290(2)
C22 C 0.8792(3) -0.0602(8) 0.5216(2)
H1 H 0.7463 0.5890 0.7973
H2 H 0.3571 0.2063 0.6724
H3 H 0.3567 0.6343 0.6662
H4 H 0.5201 0.7523 0.7538
H5 H 0.5971 0.4770 0.6946
H6 H 0.6356 0.3495 0.8864
H7 H 0.6667 0.0396 0.8091
H8 H 0.7709 0.1396 0.8624
H9 H 0.4249 0.2065 0.4580
H10 H 0.5077 0.1374 0.5493
H11 H 0.4009 0.0250 0.5290
H12 H 0.4194 0.5208 1.0215
H13 H 0.3044 0.5196 0.9699
H14 H 0.3760 0.3323 0.9476
H15 H 0.2842 0.8635 0.8761
H16 H 0.3925 0.9389 0.9308
H17 H 0.3661 0.9216 0.8172
H18 H 0.9368 -0.2486 0.8558
H19 H 1.0847 -0.1805 0.9775
H20 H 1.1741 0.1567 0.9776
H21 H 1.1156 0.4259 0.8560
H22 H 0.9677 0.3579 0.7343
H23 H 0.7847 0.4146 0.5779
H24 H 0.8089 0.5134 0.4222
H25 H 0.8772 0.2526 0.3289
H26 H 0.9213 -0.1070 0.3912
H27 H 0.8971 -0.2058 0.5469
loop_
_geom_bond_atom_site_label_1
_geom_bond_atom_site_label_2
_geom_bond_site_symmetry_1
_geom_bond_site_symmetry_2
P1 O2 1_555 1_555
O1 C1 1_555 1_555
O2 C6 1_555 1_555
O3 C5 1_555 1_555
O4 P1 1_555 1_555
O5 C1 1_555 1_555
O6 C2 1_555 1_555
O7 C3 1_555 1_555
C1 C2 1_555 1_555
C2 C3 1_555 1_555
C3 C4 1_555 1_555
C4 O1 1_555 1_555
C5 C4 1_555 1_555
C6 C5 1_555 1_555
C7 O5 1_555 1_555
C8 O6 1_555 1_555
C9 C8 1_555 1_555
C10 C8 1_555 1_555
C11 P1 1_555 1_555
C12 C11 1_555 1_555
C13 C12 1_555 1_555
C14 C13 1_555 1_555
C15 C14 1_555 1_555
C16 C11 1_555 1_555
C17 P1 1_555 1_555
C18 C17 1_555 1_555
C19 C18 1_555 1_555
C20 C19 1_555 1_555
C21 C20 1_555 1_555
C22 C17 1_555 1_555
H1 O3 1_555 1_555
H2 C1 1_555 1_555
H3 C2 1_555 1_555
H4 C3 1_555 1_555
H5 C4 1_555 1_555
H6 C5 1_555 1_555
H7 C6 1_555 1_555
H8 C6 1_555 1_555
H9 C7 1_555 1_555
H10 C7 1_555 1_555
H11 C7 1_555 1_555
H12 C9 1_555 1_555
H13 C9 1_555 1_555
H14 C9 1_555 1_555
H15 C10 1_555 1_555
H16 C10 1_555 1_555
H17 C10 1_555 1_555
H18 C12 1_555 1_555
H19 C13 1_555 1_555
H20 C14 1_555 1_555
H21 C15 1_555 1_555
H22 C16 1_555 1_555
H23 C18 1_555 1_555
H24 C19 1_555 1_555
H25 C20 1_555 1_555
H26 C21 1_555 1_555
H27 C22 1_555 1_555
O7 C8 1_555 1_555
C15 C16 1_555 1_555
C21 C22 1_555 1_555

#END
