
#######################################################################
#
#                 Cambridge Crystallographic Data Centre
#                                CCDC 
#
#######################################################################
#
# If this CIF has been generated from an entry in the Cambridge 
# Structural Database, then it will include bibliographic, chemical, 
# crystal, experimental, refinement or atomic coordinate data resulting 
# from the CCDC's data processing and validation procedures.
#
#######################################################################

data_TAXNIR
_chemical_formula_moiety         'C13 H14 O2'
_chemical_name_systematic        
1,2,3,4,8,9-Hexahydro-10H-indeno[5,4-b]oxepin-10-one
_symmetry_cell_setting           monoclinic
_symmetry_space_group_name_H-M   'P 21/n'
_symmetry_Int_Tables_number      14
_space_group_name_Hall           '-P 2yn'
loop_
_symmetry_equiv_pos_site_id
_symmetry_equiv_pos_as_xyz
1 x,y,z
2 1/2-x,1/2+y,1/2-z
3 -x,-y,-z
4 1/2+x,1/2-y,1/2+z
_cell_length_a                   9.0400(9)
_cell_length_b                   8.6174(9)
_cell_length_c                   13.6389(14)
_cell_angle_alpha                90
_cell_angle_beta                 100.702(2)
_cell_angle_gamma                90
_cell_volume                     1044.01
_exptl_crystal_colour            colorless
_cell_formula_units_Z            4
loop_
_atom_site_label
_atom_site_type_symbol
_atom_site_fract_x
_atom_site_fract_y
_atom_site_fract_z
O1 O 0.19725(12) 0.15899(14) -0.15935(8)
O2 O 0.33786(16) -0.01997(15) 0.23363(9)
C1 C 0.04416(18) 0.2037(2) -0.15634(13)
H1 H -0.0133 0.1116 -0.1469
H2 H -0.0006 0.2492 -0.2200
C2 C 0.25111(15) 0.03550(17) -0.09824(11)
C3 C 0.27350(15) 0.04882(16) 0.00533(10)
C4 C 0.32941(15) -0.08405(16) 0.05946(10)
C5 C 0.36099(16) -0.10845(18) 0.16904(11)
C6 C 0.28609(17) -0.0998(2) -0.14431(11)
H3 H 0.2713 -0.1039 -0.2136
C7 C 0.34216(18) -0.22763(19) -0.08958(12)
H4 H 0.3652 -0.3177 -0.1212
C8 C 0.36367(16) -0.21995(17) 0.01344(12)
C9 C 0.4239(2) -0.3440(2) 0.08838(14)
H5 H 0.5245 -0.3752 0.0812
H6 H 0.3590 -0.4345 0.0800
C10 C 0.4261(2) -0.2691(2) 0.18892(13)
H7 H 0.3662 -0.3291 0.2273
H8 H 0.5284 -0.2632 0.2262
C11 C 0.0329(2) 0.3174(2) -0.07475(13)
H9 H -0.0703 0.3535 -0.0831
H10 H 0.0956 0.4064 -0.0822
C12 C 0.07952(19) 0.25390(19) 0.03033(12)
H11 H 0.0142 0.1677 0.0390
H12 H 0.0651 0.3340 0.0776
C13 C 0.24274(18) 0.19905(17) 0.05413(12)
H13 H 0.3061 0.2791 0.0337
H14 H 0.2718 0.1872 0.1258
loop_
_geom_bond_atom_site_label_1
_geom_bond_atom_site_label_2
_geom_bond_site_symmetry_1
_geom_bond_site_symmetry_2
O1 C1 1_555 1_555
O2 C5 1_555 1_555
C1 H1 1_555 1_555
H2 C1 1_555 1_555
C2 O1 1_555 1_555
C3 C2 1_555 1_555
C4 C3 1_555 1_555
C5 C4 1_555 1_555
C6 C2 1_555 1_555
H3 C6 1_555 1_555
C7 C6 1_555 1_555
H4 C7 1_555 1_555
C8 C4 1_555 1_555
C9 C8 1_555 1_555
H5 C9 1_555 1_555
H6 C9 1_555 1_555
C10 C5 1_555 1_555
H7 C10 1_555 1_555
H8 C10 1_555 1_555
C11 C1 1_555 1_555
H9 C11 1_555 1_555
H10 C11 1_555 1_555
C12 C11 1_555 1_555
H11 C12 1_555 1_555
H12 C12 1_555 1_555
C13 C3 1_555 1_555
H13 C13 1_555 1_555
H14 C13 1_555 1_555
C7 C8 1_555 1_555
C9 C10 1_555 1_555
C12 C13 1_555 1_555

#END
