
#######################################################################
#
#                 Cambridge Crystallographic Data Centre
#                                CCDC 
#
#######################################################################
#
# If this CIF has been generated from an entry in the Cambridge 
# Structural Database, then it will include bibliographic, chemical, 
# crystal, experimental, refinement or atomic coordinate data resulting 
# from the CCDC's data processing and validation procedures.
#
#######################################################################

data_TAXNUB
_chemical_formula_moiety         'C30 H29 N3 O5,0.33(C2 H6 O1)'
_chemical_name_systematic        
'(S)-3-(N-(2-Acetoxypropanoyl)-N-(2-methylpropanoyl)amino)-2-diphenylmethyl-3,4-dihydroquinazolin-4-one ethanol solvate'
_symmetry_cell_setting           orthorhombic
_symmetry_space_group_name_H-M   'C 2 2 21'
_symmetry_Int_Tables_number      20
_space_group_name_Hall           'C 2n 2'
loop_
_symmetry_equiv_pos_site_id
_symmetry_equiv_pos_as_xyz
1 x,y,z
2 -x,-y,1/2+z
3 x,-y,-z
4 -x,y,1/2-z
5 1/2+x,1/2+y,z
6 1/2-x,1/2-y,1/2+z
7 1/2+x,1/2-y,-z
8 1/2-x,1/2+y,1/2-z
_cell_length_a                   11.632(1)
_cell_length_b                   20.088(2)
_cell_length_c                   25.189(3)
_cell_angle_alpha                90
_cell_angle_beta                 90
_cell_angle_gamma                90
_cell_volume                     5885.75
_exptl_crystal_colour            white
_chemical_melting_point          141-143deg.C
_cell_formula_units_Z            8
loop_
_atom_site_label
_atom_site_type_symbol
_atom_site_fract_x
_atom_site_fract_y
_atom_site_fract_z
O6 O 0.3864(22) 0.5000 0.5000
C31 C 0.4993(23) 0.5000 0.5000
C32 C 0.5481(14) 0.4551(8) 0.4805(7)
C32B C 0.5481(14) 0.5449(8) 0.5195(7)
N1 N 0.9132(3) 0.2112(2) 0.6467(1)
C1 C 0.8527(4) 0.2593(2) 0.6288(2)
N2 N 0.8888(3) 0.3255(2) 0.6335(1)
C2 C 0.9818(4) 0.3457(2) 0.6663(2)
C3 C 1.0500(4) 0.2904(2) 0.6851(2)
C4 C 1.1496(4) 0.3022(3) 0.7143(2)
C5 C 1.2148(4) 0.2503(3) 0.7318(2)
C6 C 1.1812(5) 0.1848(3) 0.7207(2)
C7 C 1.0822(4) 0.1728(3) 0.6923(2)
C8 C 1.0157(4) 0.2251(2) 0.6738(2)
N3 N 0.8227(3) 0.3765(2) 0.6118(1)
O1 O 0.9977(4) 0.4045(2) 0.6743(2)
O2 O 0.8018(5) 0.4467(3) 0.5429(2)
O3 O 0.7245(3) 0.3762(2) 0.6891(1)
O4 O 0.5785(3) 0.4738(2) 0.6653(2)
O5 O 0.5089(5) 0.3849(3) 0.6226(2)
C9 C 0.7378(4) 0.2471(2) 0.6025(2)
C10 C 0.8564(6) 0.4022(3) 0.5612(2)
C11 C 0.9590(5) 0.3736(3) 0.5335(2)
C12 C 0.9395(6) 0.3758(3) 0.4735(2)
C13 C 1.0632(6) 0.4150(3) 0.5470(3)
C14 C 0.7410(4) 0.4039(2) 0.6481(2)
C15 C 0.6793(4) 0.4679(2) 0.6327(2)
C16 C 0.7544(6) 0.5260(3) 0.6460(3)
C17 C 0.4955(6) 0.4293(4) 0.6547(3)
C18 C 0.3931(5) 0.4424(5) 0.6884(4)
C19 C 0.6761(4) 0.1872(2) 0.6261(2)
C20 C 0.5773(5) 0.1975(3) 0.6555(2)
C21 C 0.5177(7) 0.1439(5) 0.6774(3)
C22 C 0.5561(7) 0.0808(5) 0.6717(4)
C23 C 0.6513(7) 0.0693(3) 0.6432(3)
C24 C 0.7134(5) 0.1219(3) 0.6192(2)
C25 C 0.7470(4) 0.2429(2) 0.5417(2)
C26 C 0.8311(5) 0.2071(3) 0.5164(2)
C27 C 0.8336(6) 0.2031(4) 0.4610(2)
C28 C 0.7497(6) 0.2354(4) 0.4318(2)
C29 C 0.6669(6) 0.2708(4) 0.4569(2)
C30 C 0.6649(5) 0.2757(3) 0.5115(2)
H1 H 1.1726(4) 0.3470(3) 0.7224(2)
H2 H 1.2840(4) 0.2586(3) 0.7515(2)
H3 H 1.2261(5) 0.1482(3) 0.7337(2)
H4 H 1.0596(4) 0.1278(3) 0.6849(2)
H5 H 0.6906(4) 0.2851(2) 0.6102(2)
H6 H 0.9703(5) 0.3286(3) 0.5451(2)
H7 H 1.0049(6) 0.3586(3) 0.4547(2)
H8 H 0.8742(6) 0.3477(3) 0.4671(2)
H9 H 0.9231(6) 0.4201(3) 0.4613(2)
H10 H 1.0739(6) 0.4137(3) 0.5848(3)
H11 H 1.1291(6) 0.3958(3) 0.5298(3)
H12 H 1.0542(6) 0.4603(3) 0.5357(3)
H13 H 0.6592(4) 0.4683(2) 0.5957(2)
H14 H 0.7152(6) 0.5665(3) 0.6368(3)
H15 H 0.7704(6) 0.5258(3) 0.6834(3)
H16 H 0.8252(6) 0.5232(3) 0.6266(3)
H17 H 0.3339(5) 0.4108(5) 0.6799(4)
H18 H 0.4164(5) 0.4366(5) 0.7246(4)
H19 H 0.3641(5) 0.4867(5) 0.6835(4)
H20 H 0.5487(5) 0.2418(3) 0.6610(2)
H21 H 0.4471(7) 0.1502(5) 0.6965(3)
H22 H 0.5173(7) 0.0444(5) 0.6887(4)
H23 H 0.6754(7) 0.0240(3) 0.6384(3)
H24 H 0.7817(5) 0.1127(3) 0.5992(2)
H25 H 0.8886(5) 0.1848(3) 0.5372(2)
H26 H 0.8915(6) 0.1777(4) 0.4430(2)
H27 H 0.7504(6) 0.2329(4) 0.3937(2)
H28 H 0.6094(6) 0.2929(4) 0.4360(2)
H29 H 0.6081(5) 0.3028(3) 0.5287(2)
loop_
_geom_bond_atom_site_label_1
_geom_bond_atom_site_label_2
_geom_bond_site_symmetry_1
_geom_bond_site_symmetry_2
N1 C1 1_555 1_555
C1 N2 1_555 1_555
N2 C2 1_555 1_555
C2 C3 1_555 1_555
C3 C4 1_555 1_555
C4 C5 1_555 1_555
C5 C6 1_555 1_555
C6 C7 1_555 1_555
C7 C8 1_555 1_555
C8 N1 1_555 1_555
N3 N2 1_555 1_555
O1 C2 1_555 1_555
O2 C10 1_555 1_555
O3 C14 1_555 1_555
O4 C15 1_555 1_555
O5 C17 1_555 1_555
C9 C1 1_555 1_555
C10 N3 1_555 1_555
C11 C10 1_555 1_555
C12 C11 1_555 1_555
C13 C11 1_555 1_555
C14 N3 1_555 1_555
C15 C14 1_555 1_555
C16 C15 1_555 1_555
C17 O4 1_555 1_555
C18 C17 1_555 1_555
C19 C9 1_555 1_555
C20 C19 1_555 1_555
C21 C20 1_555 1_555
C22 C21 1_555 1_555
C23 C22 1_555 1_555
C24 C19 1_555 1_555
C25 C9 1_555 1_555
C26 C25 1_555 1_555
C27 C26 1_555 1_555
C28 C27 1_555 1_555
C29 C28 1_555 1_555
C30 C25 1_555 1_555
O6 C31 1_555 1_555
C31 C32 1_555 1_555
H1 C4 1_555 1_555
H2 C5 1_555 1_555
H3 C6 1_555 1_555
H4 C7 1_555 1_555
H5 C9 1_555 1_555
H6 C11 1_555 1_555
H7 C12 1_555 1_555
H8 C12 1_555 1_555
H9 C12 1_555 1_555
H10 C13 1_555 1_555
H11 C13 1_555 1_555
H12 C13 1_555 1_555
H13 C15 1_555 1_555
H14 C16 1_555 1_555
H15 C16 1_555 1_555
H16 C16 1_555 1_555
H17 C18 1_555 1_555
H18 C18 1_555 1_555
H19 C18 1_555 1_555
H20 C20 1_555 1_555
H21 C21 1_555 1_555
H22 C22 1_555 1_555
H23 C23 1_555 1_555
H24 C24 1_555 1_555
H25 C26 1_555 1_555
H26 C27 1_555 1_555
H27 C28 1_555 1_555
H28 C29 1_555 1_555
H29 C30 1_555 1_555
C32B C31 1_555 1_555
C3 C8 1_555 1_555
C23 C24 1_555 1_555
C29 C30 1_555 1_555

#END
