
#######################################################################
#
#                 Cambridge Crystallographic Data Centre
#                                CCDC 
#
#######################################################################
#
# If this CIF has been generated from an entry in the Cambridge 
# Structural Database, then it will include bibliographic, chemical, 
# crystal, experimental, refinement or atomic coordinate data resulting 
# from the CCDC's data processing and validation procedures.
#
#######################################################################

data_TAXNOV
_chemical_formula_moiety         'C19 H19 N3 O3'
_chemical_name_systematic        
(S)-3-(N-Benzoyl-N-methylamino)-2-(1-methoxyethyl)-3,4-dihydroquinazolin-4-one
_symmetry_cell_setting           triclinic
_symmetry_space_group_name_H-M   'P -1'
_symmetry_Int_Tables_number      2
_space_group_name_Hall           '-P 1'
loop_
_symmetry_equiv_pos_site_id
_symmetry_equiv_pos_as_xyz
1 x,y,z
2 -x,-y,-z
_cell_length_a                   9.899(2)
_cell_length_b                   9.939(2)
_cell_length_c                   10.429(2)
_cell_angle_alpha                84.95(3)
_cell_angle_beta                 64.43(3)
_cell_angle_gamma                69.18(3)
_cell_volume                     862.531
_exptl_crystal_colour            white
_chemical_melting_point          123-127deg.C
_cell_formula_units_Z            2
loop_
_atom_site_label
_atom_site_type_symbol
_atom_site_fract_x
_atom_site_fract_y
_atom_site_fract_z
N1 N 0.2703(2) 0.1336(2) 0.4551(2)
N2 N 0.2988(2) 0.4850(2) 0.4090(2)
N3 N 0.2914(2) 0.3548(1) 0.3784(2)
O1 O 0.1059(2) 0.3775(2) 0.6989(1)
O2 O 0.4401(2) 0.6298(1) 0.3250(2)
O3 O 0.3046(2) 0.4305(2) 0.1640(2)
C1 C 0.2784(2) 0.2535(2) 0.4779(2)
C2 C 0.2945(2) 0.3362(2) 0.2462(2)
C3 C 0.2868(2) 0.1996(2) 0.2208(2)
C4 C 0.2953(3) 0.1629(2) 0.0912(2)
C5 C 0.2921(3) 0.0318(3) 0.0684(3)
C6 C 0.2823(3) -0.0637(3) 0.1708(3)
C7 C 0.2732(3) -0.0299(2) 0.2995(3)
C8 C 0.2758(2) 0.1030(2) 0.3260(2)
C9 C 0.2680(2) 0.2901(2) 0.6200(2)
C10 C 0.3204(4) 0.1602(3) 0.6923(3)
C11 C 0.0823(3) 0.4672(3) 0.8094(3)
C12 C 0.1484(3) 0.6064(2) 0.4588(2)
C13 C 0.4390(2) 0.5089(2) 0.3287(2)
C14 C 0.5870(2) 0.3842(2) 0.2551(2)
C15 C 0.6709(3) 0.3831(3) 0.1094(2)
C16 C 0.8144(3) 0.2786(4) 0.0395(3)
C17 C 0.8797(3) 0.1748(4) 0.1118(4)
C18 C 0.7979(3) 0.1738(3) 0.2573(3)
C19 C 0.6507(3) 0.2781(2) 0.3289(2)
H1 H 0.3024 0.2308 0.0194
H2 H 0.2982 0.0064 -0.0211
H3 H 0.2807 -0.1561 0.1530
H4 H 0.2658 -0.0978 0.3714
H5 H 0.3336 0.3468 0.6054
H6 H 0.3127 0.1877 0.7819
H7 H 0.2536 0.1044 0.7084
H8 H 0.4295 0.1035 0.6322
H9 H -0.0294 0.5234 0.8597
H10 H 0.1193 0.4087 0.8741
H11 H 0.1416 0.5307 0.7695
H12 H 0.1647 0.6909 0.4775
H13 H 0.1092 0.6237 0.3870
H14 H 0.0716 0.5848 0.5448
H15 H 0.6269 0.4569 0.0579
H16 H 0.8728 0.2757 -0.0621
H17 H 0.9833 0.1025 0.0612
H18 H 0.8439 0.0990 0.3068
H19 H 0.5918 0.2779 0.4300
loop_
_geom_bond_atom_site_label_1
_geom_bond_atom_site_label_2
_geom_bond_site_symmetry_1
_geom_bond_site_symmetry_2
N1 C1 1_555 1_555
N2 N3 1_555 1_555
N3 C1 1_555 1_555
O1 C9 1_555 1_555
O2 C13 1_555 1_555
O3 C2 1_555 1_555
C1 C9 1_555 1_555
C2 N3 1_555 1_555
C3 C2 1_555 1_555
C4 C3 1_555 1_555
C5 C4 1_555 1_555
C6 C5 1_555 1_555
C7 C6 1_555 1_555
C8 N1 1_555 1_555
C9 C10 1_555 1_555
C10 H6 1_555 1_555
C11 O1 1_555 1_555
C12 N2 1_555 1_555
C13 N2 1_555 1_555
C14 C13 1_555 1_555
C15 C14 1_555 1_555
C16 C15 1_555 1_555
C17 C16 1_555 1_555
C18 C17 1_555 1_555
C19 C14 1_555 1_555
H1 C4 1_555 1_555
H2 C5 1_555 1_555
H3 C6 1_555 1_555
H4 C7 1_555 1_555
H5 C9 1_555 1_555
H7 C10 1_555 1_555
H8 C10 1_555 1_555
H9 C11 1_555 1_555
H10 C11 1_555 1_555
H11 C11 1_555 1_555
H12 C12 1_555 1_555
H13 C12 1_555 1_555
H14 C12 1_555 1_555
H15 C15 1_555 1_555
H16 C16 1_555 1_555
H17 C17 1_555 1_555
H18 C18 1_555 1_555
H19 C19 1_555 1_555
C3 C8 1_555 1_555
C7 C8 1_555 1_555
C18 C19 1_555 1_555

#END
