
#######################################################################
#
#                 Cambridge Crystallographic Data Centre
#                                CCDC 
#
#######################################################################
#
# If this CIF has been generated from an entry in the Cambridge 
# Structural Database, then it will include bibliographic, chemical, 
# crystal, experimental, refinement or atomic coordinate data resulting 
# from the CCDC's data processing and validation procedures.
#
#######################################################################

data_TAXNEN
_chemical_formula_moiety         'C13 H14 O2'
_chemical_name_systematic        
1,2,3,4,9,10-Hexahydro-8H-indeno[5,4-b]oxepin-8-one
_symmetry_cell_setting           triclinic
_symmetry_space_group_name_H-M   'P -1'
_symmetry_Int_Tables_number      2
_space_group_name_Hall           '-P 1'
loop_
_symmetry_equiv_pos_site_id
_symmetry_equiv_pos_as_xyz
1 x,y,z
2 -x,-y,-z
_cell_length_a                   8.4928(2)
_cell_length_b                   10.5935(2)
_cell_length_c                   12.4192(2)
_cell_angle_alpha                90.7020(10)
_cell_angle_beta                 103.7110(10)
_cell_angle_gamma                107.2320(10)
_cell_volume                     1032.67
_exptl_crystal_colour            colorless
_cell_formula_units_Z            4
loop_
_atom_site_label
_atom_site_type_symbol
_atom_site_fract_x
_atom_site_fract_y
_atom_site_fract_z
O1 O 0.2346(3) 1.26908(17) 1.09659(14)
O2 O 0.42107(18) 0.72219(14) 1.09409(11)
C1 C 0.2361(3) 0.5440(2) 0.94903(18)
H1 H 0.1605 0.4537 0.9415
H2 H 0.3366 0.5411 0.9260
C2 C 0.1470(3) 0.62530(19) 0.87104(17)
H3 H 0.1135 0.5829 0.7959
H4 H 0.0442 0.6255 0.8921
C3 C 0.2560(3) 0.76754(19) 0.87167(15)
H5 H 0.3662 0.7668 0.8629
H6 H 0.2032 0.8053 0.8075
C4 C 0.2841(2) 0.85703(18) 0.97381(15)
C5 C 0.2388(2) 0.97298(19) 0.96852(15)
C6 C 0.2745(2) 1.05872(19) 1.06293(16)
C7 C 0.2194(3) 1.1752(2) 1.03332(18)
C8 C 0.1413(3) 1.1583(2) 0.90978(18)
H7 H 0.2035 1.2305 0.8741
H8 H 0.0237 1.1577 0.8945
C9 C 0.1513(3) 1.0261(2) 0.86655(16)
H9 H 0.0384 0.9657 0.8336
H10 H 0.2171 1.0390 0.8112
C10 C 0.2887(3) 0.5959(2) 1.06907(18)
H11 H 0.1897 0.6046 1.0907
H12 H 0.3281 0.5314 1.1136
C11 C 0.3648(2) 0.83142(19) 1.07918(15)
C12 C 0.4014(3) 0.9177(2) 1.17409(16)
H13 H 0.4565 0.8975 1.2427
C13 C 0.3567(3) 1.0319(2) 1.16664(16)
H14 H 0.3808 1.0899 1.2294
O3 O 0.2529(2) 0.10154(16) 0.60771(14)
O4 O 0.39684(19) 0.73184(14) 0.58435(12)
C14 C 0.2380(3) 0.1830(2) 0.54109(17)
C15 C 0.2823(2) 0.32616(19) 0.56574(15)
C16 C 0.2477(2) 0.38672(19) 0.46868(15)
C17 C 0.2811(2) 0.52406(19) 0.46998(15)
C18 C 0.2477(3) 0.5916(2) 0.36507(16)
H15 H 0.2029 0.5246 0.3024
H16 H 0.3553 0.6502 0.3569
C19 C 0.1247(3) 0.6717(2) 0.35948(19)
H17 H 0.0889 0.6919 0.2833
H18 H 0.0243 0.6182 0.3807
C20 C 0.2008(3) 0.8001(2) 0.4341(2)
H19 H 0.2985 0.8544 0.4106
H20 H 0.1173 0.8476 0.4233
C21 C 0.2559(3) 0.7848(2) 0.5556(2)
H21 H 0.2878 0.8707 0.5968
H22 H 0.1601 0.7266 0.5786
C22 C 0.3543(3) 0.3996(2) 0.66838(16)
H23 H 0.3775 0.3581 0.7332
C23 C 0.3902(3) 0.5344(2) 0.67180(16)
H24 H 0.4398 0.5857 0.7395
C24 C 0.3527(2) 0.5953(2) 0.57404(17)
C25 C 0.1681(3) 0.1525(2) 0.41713(17)
H25 H 0.0512 0.0950 0.3998
H26 H 0.2355 0.1087 0.3867
C26 C 0.1774(3) 0.2857(2) 0.36865(15)
H27 H 0.2522 0.3031 0.3188
H28 H 0.0652 0.2870 0.3282
loop_
_geom_bond_atom_site_label_1
_geom_bond_atom_site_label_2
_geom_bond_site_symmetry_1
_geom_bond_site_symmetry_2
O1 C7 1_555 1_555
O2 C10 1_555 1_555
O3 C14 1_555 1_555
O4 C21 1_555 1_555
C1 H1 1_555 1_555
H2 C1 1_555 1_555
C2 C1 1_555 1_555
H3 C2 1_555 1_555
H4 C2 1_555 1_555
C3 C2 1_555 1_555
H5 C3 1_555 1_555
H6 C3 1_555 1_555
C4 C3 1_555 1_555
C5 C4 1_555 1_555
C6 C5 1_555 1_555
C7 C6 1_555 1_555
C8 C7 1_555 1_555
H7 C8 1_555 1_555
H8 C8 1_555 1_555
C9 C5 1_555 1_555
H9 C9 1_555 1_555
H10 C9 1_555 1_555
C10 C1 1_555 1_555
H11 C10 1_555 1_555
H12 C10 1_555 1_555
C11 O2 1_555 1_555
C12 C11 1_555 1_555
H13 C12 1_555 1_555
C13 C6 1_555 1_555
H14 C13 1_555 1_555
C14 C15 1_555 1_555
C15 C16 1_555 1_555
C16 C17 1_555 1_555
C17 C18 1_555 1_555
C18 H15 1_555 1_555
H16 C18 1_555 1_555
C19 C18 1_555 1_555
H17 C19 1_555 1_555
H18 C19 1_555 1_555
C20 C19 1_555 1_555
H19 C20 1_555 1_555
H20 C20 1_555 1_555
C21 C20 1_555 1_555
H21 C21 1_555 1_555
H22 C21 1_555 1_555
C22 C15 1_555 1_555
H23 C22 1_555 1_555
C23 C22 1_555 1_555
H24 C23 1_555 1_555
C24 O4 1_555 1_555
C25 C14 1_555 1_555
H25 C25 1_555 1_555
H26 C25 1_555 1_555
C26 C16 1_555 1_555
H27 C26 1_555 1_555
H28 C26 1_555 1_555
C4 C11 1_555 1_555
C8 C9 1_555 1_555
C12 C13 1_555 1_555
C17 C24 1_555 1_555
C23 C24 1_555 1_555
C25 C26 1_555 1_555

#END
