
#######################################################################
#
#                 Cambridge Crystallographic Data Centre
#                                CCDC 
#
#######################################################################
#
# If this CIF has been generated from an entry in the Cambridge 
# Structural Database, then it will include bibliographic, chemical, 
# crystal, experimental, refinement or atomic coordinate data resulting 
# from the CCDC's data processing and validation procedures.
#
#######################################################################

data_TAXPUF
_chemical_formula_moiety         'C27 H23 F1 N8 O1,C7 H8'
_chemical_name_systematic        
'3-(4-(4-Fluorophenyl)-1H-imidazol-2-yl)-1-(5-methyl-1,2,4-oxadiazol-3-yl)-1-(1-methyl-1H-pyrazol-4-yl)-2,3,4,9-tetrahydro-1H-\b-carboline toluene solvate'
_symmetry_cell_setting           monoclinic
_symmetry_space_group_name_H-M   'P 21'
_symmetry_Int_Tables_number      4
_space_group_name_Hall           'P 2yb'
loop_
_symmetry_equiv_pos_site_id
_symmetry_equiv_pos_as_xyz
1 x,y,z
2 -x,1/2+y,-z
_cell_length_a                   12.6771(11)
_cell_length_b                   7.9412(7)
_cell_length_c                   15.1961(13)
_cell_angle_alpha                90
_cell_angle_beta                 94.555(2)
_cell_angle_gamma                90
_cell_volume                     1524.98
_cell_formula_units_Z            2
loop_
_atom_site_label
_atom_site_type_symbol
_atom_site_fract_x
_atom_site_fract_y
_atom_site_fract_z
C1 C 0.77295(11) 0.46370(18) 0.44560(9)
C2 C 0.75811(11) 0.42143(18) 0.54057(9)
C3 C 0.79909(12) 0.3835(2) 0.68427(10)
C4 C 0.84768(13) 0.3823(2) 0.76986(11)
H1 H 0.9128 0.4389 0.7842
C5 C 0.79667(15) 0.2947(2) 0.83324(11)
H2 H 0.8278 0.2913 0.8922
C6 C 0.70045(14) 0.2112(2) 0.81261(11)
H3 H 0.6679 0.1520 0.8576
C7 C 0.65203(13) 0.2137(2) 0.72745(10)
H4 H 0.5866 0.1575 0.7138
C8 C 0.70158(12) 0.30106(19) 0.66198(10)
C9 C 0.67721(11) 0.32801(18) 0.56910(9)
C10 C 0.58451(11) 0.2724(2) 0.50845(9)
H5 H 0.5176 0.2935 0.5360
H6 H 0.5896 0.1504 0.4960
C11 C 0.58693(11) 0.37359(19) 0.42310(9)
H7 H 0.5713 0.4942 0.4359
C12 C 0.51074(11) 0.31436(19) 0.34922(10)
C13 C 0.36761(12) 0.2125(2) 0.27876(11)
H8 H 0.3000 0.1629 0.2654
C14 C 0.43542(12) 0.2671(2) 0.22005(10)
C15 C 0.42131(13) 0.2637(2) 0.12348(11)
C16 C 0.49343(16) 0.3433(3) 0.07297(12)
H9 H 0.5516 0.4024 0.1015
C17 C 0.4815(2) 0.3373(3) -0.01902(13)
H10 H 0.5312 0.3905 -0.0535
C18 C 0.3965(2) 0.2531(3) -0.05820(12)
C19 C 0.32223(19) 0.1764(3) -0.01129(14)
H11 H 0.2630 0.1215 -0.0408
C20 C 0.33508(16) 0.1803(3) 0.08037(13)
H12 H 0.2849 0.1258 0.1139
C21 C 0.88134(11) 0.40999(19) 0.42203(9)
C22 C 0.91994(12) 0.2453(2) 0.42643(11)
H13 H 0.8807 0.1513 0.4446
C23 C 0.96316(12) 0.5025(2) 0.39395(11)
H14 H 0.9633 0.6207 0.3841
C24 C 1.14564(14) 0.4343(3) 0.35036(16)
H15 H 1.1511 0.5558 0.3406
H16 H 1.1525 0.3746 0.2947
H17 H 1.2022 0.3983 0.3940
C25 C 0.75275(11) 0.64755(18) 0.42415(9)
C26 C 0.73239(13) 0.8643(2) 0.34754(10)
C27 C 0.72831(18) 0.9988(2) 0.27988(12)
H18 H 0.7681 0.9632 0.2304
H19 H 0.7596 1.1020 0.3058
H20 H 0.6545 1.0201 0.2586
N1 N 0.69361(9) 0.36258(16) 0.39226(8)
H21 H 0.7088 0.3018 0.3465
N2 N 0.83271(10) 0.45595(17) 0.60908(8)
H22 H 0.8914 0.5139 0.6054
N3 N 0.52604(10) 0.33127(17) 0.26502(8)
N4 N 0.41595(10) 0.24292(18) 0.36121(8)
H23 H 0.3903 0.2204 0.4120
N5 N 0.77217(11) 0.71502(17) 0.34380(8)
N6 N 0.70481(10) 0.74799(17) 0.47546(8)
N7 N 1.01852(10) 0.23593(18) 0.40213(9)
N8 N 1.04343(10) 0.39588(18) 0.38280(9)
O1 O 0.69074(10) 0.89732(14) 0.42434(7)
F1 F 0.38467(14) 0.2440(2) -0.14784(8)
C28 C 0.9087(2) 0.3863(3) 0.12771(16)
C29 C 0.80295(19) 0.3292(4) 0.1208(2)
H24 H 0.7485 0.3987 0.1404
C30 C 0.7787(3) 0.1724(4) 0.0857(2)
H25 H 0.7074 0.1341 0.0807
C31 C 0.8572(3) 0.0724(3) 0.0583(2)
H26 H 0.8403 -0.0358 0.0345
C32 C 0.9620(3) 0.1274(4) 0.0648(3)
H27 H 1.0164 0.0566 0.0461
C33 C 0.9858(2) 0.2827(4) 0.0979(2)
H28 H 1.0570 0.3209 0.1008
C34 C 0.9350(3) 0.5589(4) 0.1655(3)
H29 H 0.8702 0.6127 0.1829
H30 H 0.9661 0.6280 0.1208
H31 H 0.9857 0.5476 0.2173
C35? C 0.8719(5) 0.1829(5) 0.0859(3)
C36? C 0.8187(3) 0.3051(7) 0.1332(3)
C37? C 0.8738(4) 0.4400(6) 0.1712(2)
C38? C 0.9796(4) 0.4553(7) 0.1623(3)
C39? C 1.0331(3) 0.3354(9) 0.1157(4)
C40? C 0.9793(5) 0.2013(7) 0.0796(4)
C41? C 0.8114(9) 0.0344(7) 0.0450(4)
H32? H 0.7449 0.2946 0.1390
H33? H 0.8382 0.5219 0.2034
H34? H 1.0173 0.5487 0.1882
H35? H 1.1067 0.3475 0.1093
H36? H 1.0163 0.1182 0.0492
H37? H 0.7367 0.0437 0.0566
H38? H 0.8407 -0.0703 0.0708
H39? H 0.8177 0.0336 -0.0188
loop_
_geom_bond_atom_site_label_1
_geom_bond_atom_site_label_2
_geom_bond_site_symmetry_1
_geom_bond_site_symmetry_2
C1 C2 1_555 1_555
C2 C9 1_555 1_555
C3 C4 1_555 1_555
C4 H1 1_555 1_555
C5 C4 1_555 1_555
H2 C5 1_555 1_555
C6 C5 1_555 1_555
H3 C6 1_555 1_555
C7 C6 1_555 1_555
H4 C7 1_555 1_555
C8 C3 1_555 1_555
C9 C8 1_555 1_555
C10 C9 1_555 1_555
H5 C10 1_555 1_555
H6 C10 1_555 1_555
C11 C10 1_555 1_555
H7 C11 1_555 1_555
C12 C11 1_555 1_555
C13 H8 1_555 1_555
C14 C13 1_555 1_555
C15 C14 1_555 1_555
C16 C15 1_555 1_555
H9 C16 1_555 1_555
C17 C16 1_555 1_555
H10 C17 1_555 1_555
C18 C17 1_555 1_555
C19 C18 1_555 1_555
H11 C19 1_555 1_555
C20 C15 1_555 1_555
H12 C20 1_555 1_555
C21 C1 1_555 1_555
C22 C21 1_555 1_555
H13 C22 1_555 1_555
C23 C21 1_555 1_555
H14 C23 1_555 1_555
C24 H15 1_555 1_555
H16 C24 1_555 1_555
H17 C24 1_555 1_555
C25 C1 1_555 1_555
C26 C27 1_555 1_555
C27 H18 1_555 1_555
H19 C27 1_555 1_555
H20 C27 1_555 1_555
N1 C1 1_555 1_555
H21 N1 1_555 1_555
N2 C2 1_555 1_555
H22 N2 1_555 1_555
N3 C12 1_555 1_555
N4 C12 1_555 1_555
H23 N4 1_555 1_555
N5 C25 1_555 1_555
N6 C25 1_555 1_555
N7 C22 1_555 1_555
N8 C23 1_555 1_555
O1 C26 1_555 1_555
F1 C18 1_555 1_555
C28 C29 1_555 1_555
C29 H24 1_555 1_555
C30 C29 1_555 1_555
H25 C30 1_555 1_555
C31 C30 1_555 1_555
H26 C31 1_555 1_555
C32 C31 1_555 1_555
H27 C32 1_555 1_555
C33 C28 1_555 1_555
H28 C33 1_555 1_555
C34 C28 1_555 1_555
H29 C34 1_555 1_555
H30 C34 1_555 1_555
H31 C34 1_555 1_555
C3 N2 1_555 1_555
C7 C8 1_555 1_555
C11 N1 1_555 1_555
C13 N4 1_555 1_555
C14 N3 1_555 1_555
C19 C20 1_555 1_555
C24 N8 1_555 1_555
C26 N5 1_555 1_555
N6 O1 1_555 1_555
N7 N8 1_555 1_555
C32 C33 1_555 1_555

#END
