
#######################################################################
#
#                 Cambridge Crystallographic Data Centre
#                                CCDC 
#
#######################################################################
#
# If this CIF has been generated from an entry in the Cambridge 
# Structural Database, then it will include bibliographic, chemical, 
# crystal, experimental, refinement or atomic coordinate data resulting 
# from the CCDC's data processing and validation procedures.
#
#######################################################################

data_TAXQER
_chemical_formula_moiety         'C18 H30 N4 O3 S1 Si1,0.25(C6 H14)'
_chemical_name_systematic        
'5-((3-((t-butyl(dimethyl)silyl)oxy)-3-methylbutyl)sulfonyl)-1-phenyl-1H-tetrazole hexane solvate'
_symmetry_cell_setting           monoclinic
_symmetry_space_group_name_H-M   'P 21/c'
_symmetry_Int_Tables_number      14
_space_group_name_Hall           '-P 2ybc'
loop_
_symmetry_equiv_pos_site_id
_symmetry_equiv_pos_as_xyz
1 x,y,z
2 -x,1/2+y,1/2-z
3 -x,-y,-z
4 x,1/2-y,1/2+z
_cell_length_a                   8.0108(3)
_cell_length_b                   16.3497(5)
_cell_length_c                   36.6816(12)
_cell_angle_alpha                90
_cell_angle_beta                 90.004(2)
_cell_angle_gamma                90
_cell_volume                     4804.34
_exptl_crystal_colour            colorless
_exptl_crystal_description       Block
_cell_formula_units_Z            8
loop_
_atom_site_label
_atom_site_type_symbol
_atom_site_fract_x
_atom_site_fract_y
_atom_site_fract_z
S1 S 0.52249(8) 0.37713(4) 0.26531(2)
Si1 Si 0.65419(9) 0.38169(5) 0.42495(2)
O1 O 0.6345(2) 0.41332(11) 0.23961(5)
O2 O 0.4447(2) 0.30025(11) 0.25669(5)
O3 O 0.6545(2) 0.41562(11) 0.38289(5)
N1 N 0.2779(3) 0.45228(14) 0.30424(6)
N2 N 0.1634(3) 0.51353(14) 0.29977(6)
N3 N 0.1748(3) 0.54618(14) 0.26772(6)
N4 N 0.2993(3) 0.50617(13) 0.24997(6)
C1 C 0.6156(3) 0.37023(15) 0.30879(7)
H1 H 0.5286 0.3560 0.3269
H2 H 0.6987 0.3254 0.3086
C2 C 0.7015(3) 0.44886(16) 0.32076(7)
H3 H 0.6180 0.4935 0.3217
H4 H 0.7868 0.4639 0.3024
C3 C 0.7851(3) 0.44114(16) 0.35815(7)
C4 C 0.8498(4) 0.52506(17) 0.36941(8)
H5 H 0.7559 0.5631 0.3717
H6 H 0.9277 0.5453 0.3509
H7 H 0.9075 0.5207 0.3929
C5 C 0.9257(3) 0.37887(17) 0.35765(8)
H8 H 0.9802 0.3776 0.3816
H9 H 1.0075 0.3942 0.3390
H10 H 0.8803 0.3247 0.3521
C6 C 0.3589(3) 0.44928(15) 0.27303(7)
C7 C 0.3389(3) 0.52688(16) 0.21286(7)
C8 C 0.3699(3) 0.60813(17) 0.20475(8)
H11 H 0.3664 0.6488 0.2233
C9 C 0.4060(4) 0.62871(18) 0.16906(8)
H12 H 0.4280 0.6841 0.1628
C10 C 0.4103(4) 0.56858(19) 0.14223(8)
H13 H 0.4362 0.5830 0.1178
C11 C 0.3771(4) 0.48819(18) 0.15101(8)
H14 H 0.3789 0.4475 0.1325
C12 C 0.3412(3) 0.46639(17) 0.18663(8)
H15 H 0.3187 0.4111 0.1929
C13 C 0.7375(4) 0.2753(2) 0.42758(9)
H16 H 0.6909 0.2427 0.4076
H17 H 0.7060 0.2509 0.4510
H18 H 0.8595 0.2766 0.4255
C14 C 0.7782(4) 0.4466(2) 0.45688(9)
H19 H 0.8967 0.4435 0.4504
H20 H 0.7626 0.4270 0.4819
H21 H 0.7404 0.5035 0.4551
C15 C 0.4256(4) 0.38265(18) 0.43767(8)
C16 C 0.3536(5) 0.4685(2) 0.43176(11)
H22 H 0.4143 0.5078 0.4470
H23 H 0.2352 0.4689 0.4385
H24 H 0.3654 0.4838 0.4061
C17 C 0.4012(4) 0.3584(2) 0.47747(9)
H25 H 0.4435 0.3028 0.4813
H26 H 0.2822 0.3603 0.4835
H27 H 0.4625 0.3965 0.4932
C18 C 0.3309(4) 0.3220(2) 0.41341(10)
H28 H 0.3384 0.3396 0.3879
H29 H 0.2134 0.3201 0.4208
H30 H 0.3803 0.2674 0.4160
S2 S 0.02271(8) 0.79206(4) 0.26438(2)
Si2 Si 0.15804(10) 0.79127(5) 0.42329(2)
O4 O -0.0550(2) 0.86869(11) 0.25556(5)
O5 O 0.1356(2) 0.75561(11) 0.23880(5)
O6 O 0.1563(2) 0.75409(11) 0.38200(5)
N5 N -0.2219(3) 0.71747(14) 0.30343(6)
N6 N -0.3357(3) 0.65560(14) 0.29946(6)
N7 N -0.3247(3) 0.62280(13) 0.26739(6)
N8 N -0.1999(3) 0.66265(13) 0.24953(6)
C19 C 0.1151(3) 0.79939(16) 0.30781(7)
H31 H 0.1974 0.8446 0.3076
H32 H 0.0277 0.8133 0.3259
C20 C 0.2023(3) 0.72092(15) 0.31977(7)
H33 H 0.2880 0.7062 0.3015
H34 H 0.1196 0.6760 0.3207
C21 C 0.2854(3) 0.72912(16) 0.35711(7)
C22 C 0.4254(3) 0.79267(18) 0.35615(8)
H35 H 0.3786 0.8464 0.3501
H36 H 0.5077 0.7771 0.3377
H37 H 0.4795 0.7953 0.3801
C23 C 0.3526(4) 0.64547(17) 0.36838(8)
H38 H 0.4090 0.6500 0.3920
H39 H 0.4320 0.6260 0.3500
H40 H 0.2599 0.6066 0.3704
C24 C -0.1405(3) 0.72026(16) 0.27218(7)
C25 C -0.1598(3) 0.64106(16) 0.21251(7)
C26 C -0.1550(3) 0.70180(17) 0.18612(8)
H41 H -0.1765 0.7573 0.1922
C27 C -0.1181(4) 0.67930(18) 0.15073(8)
H42 H -0.1126 0.7199 0.1322
C28 C -0.0889(4) 0.59785(19) 0.14194(8)
H43 H -0.0643 0.5827 0.1175
C29 C -0.0958(4) 0.53900(18) 0.16891(9)
H44 H -0.0756 0.4834 0.1628
C30 C -0.1316(3) 0.55968(17) 0.20443(8)
H45 H -0.1368 0.5191 0.2229
C31 C 0.3062(5) 0.7367(3) 0.45413(9)
H46 H 0.2798 0.6782 0.4543
H47 H 0.2960 0.7587 0.4789
H48 H 0.4207 0.7446 0.4454
C32 C 0.2149(5) 0.9020(2) 0.42301(10)
H49 H 0.3298 0.9084 0.4142
H50 H 0.2061 0.9240 0.4478
H51 H 0.1388 0.9318 0.4068
C33 C -0.0604(4) 0.7771(2) 0.43942(9)
C34 C -0.1801(5) 0.8228(4) 0.41401(11)
H52 H -0.1504 0.8810 0.4135
H53 H -0.2947 0.8167 0.4229
H54 H -0.1717 0.8001 0.3894
C35 C -0.0833(4) 0.8119(2) 0.47844(9)
H55 H -0.0090 0.7829 0.4953
H56 H -0.1994 0.8044 0.4862
H57 H -0.0560 0.8703 0.4785
C36 C -0.1038(7) 0.6859(3) 0.43981(14)
H58 H -0.1000 0.6644 0.4149
H59 H -0.2163 0.6784 0.4498
H60 H -0.0231 0.6565 0.4550
C37 C 0.8159(6) 0.0558(3) 0.45272(13)
H61 H 0.8973 0.0351 0.4704
H62 H 0.8554 0.1078 0.4427
H63 H 0.8027 0.0160 0.4330
C38 C 0.6492(6) 0.0688(3) 0.47148(12)
H64 H 0.5662 0.0863 0.4531
H65 H 0.6609 0.1137 0.4894
C39 C 0.5831(6) -0.0065(2) 0.49093(11)
H66 H 0.5726 -0.0516 0.4731
H67 H 0.6653 -0.0236 0.5096
C37B C 0.1841(6) -0.0558(3) 0.54728(13)
H61B H 0.1027 -0.0351 0.5296
H62B H 0.1446 -0.1078 0.5573
H63B H 0.1973 -0.0160 0.5670
C38B C 0.3508(6) -0.0688(3) 0.52852(12)
H64B H 0.4338 -0.0863 0.5469
H65B H 0.3391 -0.1137 0.5106
C39B C 0.4169(6) 0.0065(2) 0.50907(11)
H66B H 0.4274 0.0516 0.5269
H67B H 0.3347 0.0236 0.4904
loop_
_geom_bond_atom_site_label_1
_geom_bond_atom_site_label_2
_geom_bond_site_symmetry_1
_geom_bond_site_symmetry_2
S1 O1 1_555 1_555
Si1 O3 1_555 1_555
O2 S1 1_555 1_555
O3 C3 1_555 1_555
N1 N2 1_555 1_555
N2 N3 1_555 1_555
N3 N4 1_555 1_555
N4 C6 1_555 1_555
C1 S1 1_555 1_555
H1 C1 1_555 1_555
H2 C1 1_555 1_555
C2 C1 1_555 1_555
H3 C2 1_555 1_555
H4 C2 1_555 1_555
C3 C2 1_555 1_555
C4 C3 1_555 1_555
H5 C4 1_555 1_555
H6 C4 1_555 1_555
H7 C4 1_555 1_555
C5 C3 1_555 1_555
H8 C5 1_555 1_555
H9 C5 1_555 1_555
H10 C5 1_555 1_555
C6 S1 1_555 1_555
C7 N4 1_555 1_555
C8 C7 1_555 1_555
H11 C8 1_555 1_555
C9 C8 1_555 1_555
H12 C9 1_555 1_555
C10 C9 1_555 1_555
H13 C10 1_555 1_555
C11 C10 1_555 1_555
H14 C11 1_555 1_555
C12 C7 1_555 1_555
H15 C12 1_555 1_555
C13 Si1 1_555 1_555
H16 C13 1_555 1_555
H17 C13 1_555 1_555
H18 C13 1_555 1_555
C14 Si1 1_555 1_555
H19 C14 1_555 1_555
H20 C14 1_555 1_555
H21 C14 1_555 1_555
C15 Si1 1_555 1_555
C16 C15 1_555 1_555
H22 C16 1_555 1_555
H23 C16 1_555 1_555
H24 C16 1_555 1_555
C17 C15 1_555 1_555
H25 C17 1_555 1_555
H26 C17 1_555 1_555
H27 C17 1_555 1_555
C18 C15 1_555 1_555
H28 C18 1_555 1_555
H29 C18 1_555 1_555
H30 C18 1_555 1_555
S2 O4 1_555 1_555
Si2 O6 1_555 1_555
O5 S2 1_555 1_555
O6 C21 1_555 1_555
N5 N6 1_555 1_555
N6 N7 1_555 1_555
N7 N8 1_555 1_555
N8 C24 1_555 1_555
C19 S2 1_555 1_555
H31 C19 1_555 1_555
H32 C19 1_555 1_555
C20 C19 1_555 1_555
H33 C20 1_555 1_555
H34 C20 1_555 1_555
C21 C20 1_555 1_555
C22 C21 1_555 1_555
H35 C22 1_555 1_555
H36 C22 1_555 1_555
H37 C22 1_555 1_555
C23 C21 1_555 1_555
H38 C23 1_555 1_555
H39 C23 1_555 1_555
H40 C23 1_555 1_555
C24 S2 1_555 1_555
C25 N8 1_555 1_555
C26 C25 1_555 1_555
H41 C26 1_555 1_555
C27 C26 1_555 1_555
H42 C27 1_555 1_555
C28 C27 1_555 1_555
H43 C28 1_555 1_555
C29 C28 1_555 1_555
H44 C29 1_555 1_555
C30 C25 1_555 1_555
H45 C30 1_555 1_555
C31 Si2 1_555 1_555
H46 C31 1_555 1_555
H47 C31 1_555 1_555
H48 C31 1_555 1_555
C32 Si2 1_555 1_555
H49 C32 1_555 1_555
H50 C32 1_555 1_555
H51 C32 1_555 1_555
C33 Si2 1_555 1_555
C34 C33 1_555 1_555
H52 C34 1_555 1_555
H53 C34 1_555 1_555
H54 C34 1_555 1_555
C35 C33 1_555 1_555
H55 C35 1_555 1_555
H56 C35 1_555 1_555
H57 C35 1_555 1_555
C36 C33 1_555 1_555
H58 C36 1_555 1_555
H59 C36 1_555 1_555
H60 C36 1_555 1_555
C37 H61 1_555 1_555
H62 C37 1_555 1_555
H63 C37 1_555 1_555
C38 C37 1_555 1_555
H64 C38 1_555 1_555
H65 C38 1_555 1_555
C39 C38 1_555 1_555
H66 C39 1_555 1_555
H67 C39 1_555 1_555
C37B H61B 1_555 1_555
H62B C37B 1_555 1_555
H63B C37B 1_555 1_555
C38B C37B 1_555 1_555
H64B C38B 1_555 1_555
H65B C38B 1_555 1_555
C39B C39 1_555 1_555
H66B C39B 1_555 1_555
H67B C39B 1_555 1_555
N1 C6 1_555 1_555
C11 C12 1_555 1_555
N5 C24 1_555 1_555
C29 C30 1_555 1_555
C38B C39B 1_555 1_555

#END
