
#######################################################################
#
#                 Cambridge Crystallographic Data Centre
#                                CCDC 
#
#######################################################################
#
# If this CIF has been generated from an entry in the Cambridge 
# Structural Database, then it will include bibliographic, chemical, 
# crystal, experimental, refinement or atomic coordinate data resulting 
# from the CCDC's data processing and validation procedures.
#
#######################################################################

data_TAXRUG
_chemical_formula_moiety         
'C16 H25 O14 S1 Sr1 1+,C16 H11 O7 S1 1-,6(H2 O1)'
_chemical_name_systematic        
"Hepta-aqua-(7-methoxy-4'-hydroxyisoflavone-3'-sulfonato-O)-strontium(ii) 7-methoxy-4'-hydroxyisoflavone-3'-sulfonate hexahydrate"
_symmetry_cell_setting           triclinic
_symmetry_space_group_name_H-M   'P -1'
_symmetry_Int_Tables_number      2
_space_group_name_Hall           '-P 1'
loop_
_symmetry_equiv_pos_site_id
_symmetry_equiv_pos_as_xyz
1 x,y,z
2 -x,-y,-z
_cell_length_a                   10.220(8)
_cell_length_b                   13.827(11)
_cell_length_c                   16.361(13)
_cell_angle_alpha                92.442(13)
_cell_angle_beta                 95.633(14)
_cell_angle_gamma                111.052(12)
_cell_volume                     2139.71
_exptl_crystal_colour            colorless
_exptl_crystal_description       prism
_cell_formula_units_Z            2
loop_
_atom_site_label
_atom_site_type_symbol
_atom_site_fract_x
_atom_site_fract_y
_atom_site_fract_z
Sr1 Sr 0.79075(6) 0.73334(4) 0.99648(4)
O1 O 0.2516(4) 0.5002(3) 0.4320(2)
O2 O 0.2011(4) 0.4714(3) 0.6751(2)
O3 O -0.2197(4) 0.2659(3) 0.3498(2)
O4 O 0.8348(5) 0.7643(3) 0.7967(3)
H1 H 0.8582 0.8267 0.7913
O5 O 0.7153(4) 0.5703(3) 0.8931(2)
O6 O 0.6486(4) 0.4251(3) 0.7906(2)
O7 O 0.8775(4) 0.5631(3) 0.7983(2)
O8 O 0.5719(5) 0.7382(3) 0.9045(3)
O9 O 0.5816(5) 0.5955(4) 1.0598(3)
O10 O 0.6691(6) 0.8346(4) 1.0828(3)
O11 O 0.9647(5) 0.8351(3) 1.1246(3)
O12 O 0.8974(6) 0.6092(4) 1.0664(3)
O13 O 0.8802(6) 0.9237(4) 0.9577(3)
O14 O 1.0262(5) 0.7472(4) 0.9292(3)
S1 S 0.73036(16) 0.53501(12) 0.81152(10)
C1 C 0.3578(6) 0.5493(4) 0.4936(4)
H2 H 0.4434 0.5922 0.4781
C2 C 0.3506(6) 0.5414(4) 0.5741(3)
C3 C 0.2156(6) 0.4779(4) 0.6016(3)
C4 C 0.1031(6) 0.4244(4) 0.5353(3)
C5 C -0.0324(6) 0.3576(4) 0.5507(3)
H3 H -0.0513 0.3483 0.6049
C6 C -0.1353(6) 0.3070(4) 0.4882(3)
H4 H -0.2233 0.2630 0.4998
C7 C -0.1093(6) 0.3210(4) 0.4069(4)
C8 C 0.0220(6) 0.3854(4) 0.3890(3)
H5 H 0.0411 0.3939 0.3348
C9 C 0.1235(6) 0.4364(4) 0.4540(3)
C10 C 0.4757(6) 0.6009(4) 0.6330(3)
C11 C 0.5382(6) 0.5496(4) 0.6862(3)
H6 H 0.4982 0.4775 0.6850
C12 C 0.6578(6) 0.6022(4) 0.7407(3)
C13 C 0.7166(6) 0.7103(5) 0.7424(4)
C14 C 0.6548(7) 0.7634(5) 0.6906(4)
H7 H 0.6944 0.8355 0.6917
C15 C 0.5351(6) 0.7088(5) 0.6380(4)
H8 H 0.4926 0.7449 0.6049
C16 C -0.1981(7) 0.2705(5) 0.2662(4)
H9 H -0.2839 0.2285 0.2325
H10 H -0.1247 0.2448 0.2567
H11 H -0.1708 0.3412 0.2523
H12 H 0.518(5) 0.680(2) 0.873(3)
H13 H 0.579(6) 0.792(2) 0.874(3)
H14 H 0.616(6) 0.555(4) 1.089(3)
H15 H 0.516(5) 0.609(4) 1.086(3)
H16 H 0.685(6) 0.9011(18) 1.073(3)
H17 H 0.634(7) 0.824(3) 1.132(2)
H18 H 0.948(5) 0.881(4) 1.159(3)
H19 H 1.053(3) 0.839(4) 1.142(3)
H20 H 0.931(6) 0.608(5) 1.1197(10)
H21 H 0.954(5) 0.594(5) 1.033(2)
H22 H 0.823(5) 0.952(5) 0.930(3)
H23 H 0.939(5) 0.918(5) 0.922(3)
H24 H 1.104(4) 0.804(3) 0.944(3)
H25 H 1.001(6) 0.745(4) 0.8745(10)
O15 O 0.3501(5) 0.5520(4) 0.8391(3)
H26 H 0.287(5) 0.578(5) 0.856(3)
H27 H 0.333(6) 0.539(5) 0.7833(8)
O16 O 0.6252(5) 0.2815(4) 0.9106(3)
H28 H 0.631(5) 0.299(4) 0.8580(13)
H29 H 0.711(3) 0.313(5) 0.940(3)
O17 O 0.8063(5) 1.0415(3) 1.5791(2)
O18 O 0.8405(4) 1.0487(3) 1.3338(3)
O19 O 1.2915(4) 1.2625(3) 1.6419(3)
O20 O 0.2029(4) 0.7873(3) 1.2182(2)
H30 H 0.1571 0.7299 1.2323
O21 O 0.3640(5) 0.9186(3) 1.0973(2)
O22 O 0.2473(5) 1.0093(3) 1.1750(3)
O23 O 0.4991(4) 1.0872(3) 1.1654(2)
S2 S 0.37661(19) 0.99098(12) 1.16639(10)
C17 C 0.6931(7) 0.9939(5) 1.5210(4)
H31 H 0.6072 0.9575 1.5396
C18 C 0.6956(6) 0.9954(4) 1.4396(4)
C19 C 0.8297(7) 1.0484(5) 1.4072(4)
C20 C 0.9505(6) 1.1029(4) 1.4703(4)
C21 C 1.0815(7) 1.1612(5) 1.4491(4)
H32 H 1.0951 1.1650 1.3938
C22 C 1.1915(7) 1.2133(5) 1.5081(4)
H33 H 1.2784 1.2543 1.4930
C23 C 1.1730(7) 1.2049(5) 1.5910(4)
C24 C 1.0455(7) 1.1481(4) 1.6163(4)
H34 H 1.0329 1.1440 1.6718
C25 C 0.9341(7) 1.0961(4) 1.5526(4)
C26 C 0.5662(6) 0.9396(4) 1.3820(3)
C27 C 0.5323(6) 0.9842(4) 1.3125(3)
H35 H 0.5921 1.0503 1.3026
C28 C 0.4128(6) 0.9337(4) 1.2577(3)
C29 C 0.3220(6) 0.8334(5) 1.2735(4)
C30 C 0.3559(6) 0.7880(5) 1.3414(4)
H36 H 0.2971 0.7217 1.3513
C31 C 0.4741(6) 0.8393(4) 1.3939(3)
H37 H 0.4951 0.8070 1.4394
C32 C 1.2910(7) 1.2513(5) 1.7266(4)
H38 H 1.3805 1.2955 1.7554
H39 H 1.2748 1.1802 1.7365
H40 H 1.2172 1.2705 1.7459
O24 O 0.2823(5) 0.9297(5) 0.9299(3)
H41 H 0.321(5) 0.931(5) 0.9819(11)
H42 H 0.345(4) 0.930(5) 0.895(2)
O25 O 0.0545(8) 0.9712(6) 0.8098(4)
H43 H 0.041(6) 0.963(5) 0.7531(8)
H44 H 0.1486(18) 0.993(6) 0.824(3)
O26 O 0.8225(8) 0.3910(5) 1.0502(4)
H45 H 0.745(4) 0.336(3) 1.029(3)
H46 H 0.876(5) 0.414(5) 1.009(2)
O27 O 0.0235(4) 0.5950(3) 1.2315(2)
H47 H -0.041(5) 0.582(4) 1.268(3)
H48 H 0.073(5) 0.554(4) 1.243(3)
loop_
_geom_bond_atom_site_label_1
_geom_bond_atom_site_label_2
_geom_bond_site_symmetry_1
_geom_bond_site_symmetry_2
Sr1 O5 1_555 1_555
O1 C1 1_555 1_555
O2 C3 1_555 1_555
O3 C7 1_555 1_555
O4 H1 1_555 1_555
O5 S1 1_555 1_555
O6 S1 1_555 1_555
O7 S1 1_555 1_555
O8 Sr1 1_555 1_555
O9 Sr1 1_555 1_555
O10 Sr1 1_555 1_555
O11 Sr1 1_555 1_555
O12 Sr1 1_555 1_555
O13 Sr1 1_555 1_555
O14 Sr1 1_555 1_555
S1 C12 1_555 1_555
C1 H2 1_555 1_555
C2 C1 1_555 1_555
C3 C2 1_555 1_555
C4 C3 1_555 1_555
C5 C4 1_555 1_555
H3 C5 1_555 1_555
C6 C5 1_555 1_555
H4 C6 1_555 1_555
C7 C6 1_555 1_555
C8 C7 1_555 1_555
H5 C8 1_555 1_555
C9 O1 1_555 1_555
C10 C2 1_555 1_555
C11 C10 1_555 1_555
H6 C11 1_555 1_555
C12 C11 1_555 1_555
C13 O4 1_555 1_555
C14 C13 1_555 1_555
H7 C14 1_555 1_555
C15 C10 1_555 1_555
H8 C15 1_555 1_555
C16 O3 1_555 1_555
H9 C16 1_555 1_555
H10 C16 1_555 1_555
H11 C16 1_555 1_555
H12 O8 1_555 1_555
H13 O8 1_555 1_555
H14 O9 1_555 1_555
H15 O9 1_555 1_555
H16 O10 1_555 1_555
H17 O10 1_555 1_555
H18 O11 1_555 1_555
H19 O11 1_555 1_555
H20 O12 1_555 1_555
H21 O12 1_555 1_555
H22 O13 1_555 1_555
H23 O13 1_555 1_555
H24 O14 1_555 1_555
H25 O14 1_555 1_555
O15 H26 1_555 1_555
H27 O15 1_555 1_555
O16 H28 1_555 1_555
H29 O16 1_555 1_555
O17 C17 1_555 1_555
O18 C19 1_555 1_555
O19 C23 1_555 1_555
O20 H30 1_555 1_555
O21 S2 1_555 1_555
O22 S2 1_555 1_555
O23 S2 1_555 1_555
S2 C28 1_555 1_555
C17 H31 1_555 1_555
C18 C17 1_555 1_555
C19 C18 1_555 1_555
C20 C19 1_555 1_555
C21 C20 1_555 1_555
H32 C21 1_555 1_555
C22 C21 1_555 1_555
H33 C22 1_555 1_555
C23 C22 1_555 1_555
C24 C23 1_555 1_555
H34 C24 1_555 1_555
C25 O17 1_555 1_555
C26 C18 1_555 1_555
C27 C26 1_555 1_555
H35 C27 1_555 1_555
C28 C27 1_555 1_555
C29 O20 1_555 1_555
C30 C29 1_555 1_555
H36 C30 1_555 1_555
C31 C26 1_555 1_555
H37 C31 1_555 1_555
C32 O19 1_555 1_555
H38 C32 1_555 1_555
H39 C32 1_555 1_555
H40 C32 1_555 1_555
O24 H41 1_555 1_555
H42 O24 1_555 1_555
O25 H43 1_555 1_555
H44 O25 1_555 1_555
O26 H45 1_555 1_555
H46 O26 1_555 1_555
O27 H47 1_555 1_555
H48 O27 1_555 1_555
C4 C9 1_555 1_555
C8 C9 1_555 1_555
C12 C13 1_555 1_555
C14 C15 1_555 1_555
C20 C25 1_555 1_555
C24 C25 1_555 1_555
C28 C29 1_555 1_555
C30 C31 1_555 1_555

#END
