
#######################################################################
#
#                 Cambridge Crystallographic Data Centre
#                                CCDC 
#
#######################################################################
#
# If this CIF has been generated from an entry in the Cambridge 
# Structural Database, then it will include bibliographic, chemical, 
# crystal, experimental, refinement or atomic coordinate data resulting 
# from the CCDC's data processing and validation procedures.
#
#######################################################################

data_TAXRIV
_chemical_formula_moiety         'C12 H18 N4 O6,H2 O1'
_chemical_name_systematic        
'6-Acetamido-5-azido-2-methyltetrahydro-2H-pyran-3,4-diyl diacetate monohydrate'
_symmetry_cell_setting           monoclinic
_symmetry_space_group_name_H-M   'C 2'
_symmetry_Int_Tables_number      5
_space_group_name_Hall           'C 2y'
loop_
_symmetry_equiv_pos_site_id
_symmetry_equiv_pos_as_xyz
1 x,y,z
2 -x,y,-z
3 1/2+x,1/2+y,z
4 1/2-x,1/2+y,-z
_cell_length_a                   26.4805(13)
_cell_length_b                   6.9125(3)
_cell_length_c                   8.8419(4)
_cell_angle_alpha                90
_cell_angle_beta                 95.4210(10)
_cell_angle_gamma                90
_cell_volume                     1611.24
_exptl_crystal_colour            colorless
_exptl_crystal_description       block
_cell_formula_units_Z            4
loop_
_atom_site_label
_atom_site_type_symbol
_atom_site_fract_x
_atom_site_fract_y
_atom_site_fract_z
C1 C 0.35342(5) 1.1141(2) 1.01025(17)
H1 H 0.3401(8) 1.237(4) 1.021(3)
C2 C 0.35724(5) 1.0739(2) 0.84141(17)
H2 H 0.3243(8) 1.095(4) 0.787(3)
C3 C 0.37170(6) 0.8634(2) 0.81909(16)
H3 H 0.4054(8) 0.839(4) 0.866(2)
C4 C 0.33442(5) 0.7286(2) 0.88685(16)
H4 H 0.3461(8) 0.597(4) 0.879(2)
C5 C 0.33012(5) 0.7831(2) 1.05218(16)
H5 H 0.3636(8) 0.760(4) 1.104(2)
C6 C 0.28937(6) 0.6717(3) 1.12366(19)
H6 H 0.2890 0.7109 1.2300
H7 H 0.2965 0.5328 1.1187
H8 H 0.2563 0.6991 1.0685
C7 C 0.42586(6) 1.2707(2) 1.15230(18)
C8 C 0.47817(6) 1.2429(3) 1.2331(2)
H9 H 0.5034 1.3028 1.1735
H10 H 0.4853 1.1043 1.2445
H11 H 0.4798 1.3035 1.3336
C9 C 0.27035(6) 0.6049(3) 0.70419(16)
C10 C 0.22093(7) 0.6546(3) 0.61538(19)
H12 H 0.2266 0.7547 0.5403
H13 H 0.1970 0.7029 0.6847
H14 H 0.2069 0.5388 0.5631
N1 N 0.39632(5) 1.2064(2) 0.79211(17)
N2 N 0.39378(5) 1.2359(3) 0.65342(18)
N3 N 0.39634(7) 1.2755(3) 0.5305(2)
O1 O 0.31810(4) 0.98563(16) 1.06699(13)
N4 N 0.40258(5) 1.1072(2) 1.09827(15)
H15 H 0.4189(9) 1.006(4) 1.101(3)
O2 O 0.40639(5) 1.43209(18) 1.13622(17)
O3 O 0.37077(5) 0.8325(2) 0.65737(13)
O4 O 0.28537(4) 0.74992(18) 0.80149(12)
O5 O 0.29393(5) 0.4587(2) 0.69210(16)
O6 O 0.45189(11) 0.7360(7) 0.6751(3)
C11 C 0.4124(10) 0.768(2) 0.604(3)
C12 C 0.4073(12) 0.747(5) 0.437(5)
H16 H 0.4411 0.7457 0.4004
H17 H 0.3876 0.8554 0.3914
H18 H 0.3898 0.6251 0.4093
O7 O 0.53724(4) 0.75889(19) 0.89405(14)
H19 H 0.5515(9) 0.653(3) 0.878(3)
H20 H 0.5112(12) 0.743(8) 0.833(5)
C13? C 0.4052(12) 0.736(5) 0.433(5)
C14? C 0.4090(10) 0.726(2) 0.606(3)
H21? H 0.4355 0.6781 0.3961
H22? H 0.4026 0.8719 0.4003
H23? H 0.3750 0.6658 0.3905
H24? H 0.5112(14) 0.737(10) 0.935(6)
O8? O 0.43738(13) 0.6383(5) 0.6964(3)
loop_
_geom_bond_atom_site_label_1
_geom_bond_atom_site_label_2
_geom_bond_site_symmetry_1
_geom_bond_site_symmetry_2
C1 H1 1_555 1_555
C2 C1 1_555 1_555
H2 C2 1_555 1_555
C3 C2 1_555 1_555
H3 C3 1_555 1_555
C4 C3 1_555 1_555
H4 C4 1_555 1_555
C5 C4 1_555 1_555
H5 C5 1_555 1_555
C6 C5 1_555 1_555
H6 C6 1_555 1_555
H7 C6 1_555 1_555
H8 C6 1_555 1_555
C7 C8 1_555 1_555
C8 H9 1_555 1_555
H10 C8 1_555 1_555
H11 C8 1_555 1_555
C9 C10 1_555 1_555
C10 H12 1_555 1_555
H13 C10 1_555 1_555
H14 C10 1_555 1_555
N1 C2 1_555 1_555
N2 N1 1_555 1_555
N3 N2 1_555 1_555
O1 C1 1_555 1_555
N4 C1 1_555 1_555
H15 N4 1_555 1_555
O2 C7 1_555 1_555
O3 C3 1_555 1_555
O4 C4 1_555 1_555
O5 C9 1_555 1_555
O6 C11 1_555 1_555
C11 O3 1_555 1_555
C12 C11 1_555 1_555
H16 C12 1_555 1_555
H17 C12 1_555 1_555
H18 C12 1_555 1_555
O7 H19 1_555 1_555
H20 O7 1_555 1_555
C5 O1 1_555 1_555
C7 N4 1_555 1_555
C9 O4 1_555 1_555

#END
