
#######################################################################
#
#                 Cambridge Crystallographic Data Centre
#                                CCDC 
#
#######################################################################
#
# If this CIF has been generated from an entry in the Cambridge 
# Structural Database, then it will include bibliographic, chemical, 
# crystal, experimental, refinement or atomic coordinate data resulting 
# from the CCDC's data processing and validation procedures.
#
#######################################################################

data_TAXRUF
_chemical_formula_moiety         'C34 H46 Br1 N1 O1 Si1'
_chemical_name_systematic        
(S,R)-(-)-5-N,N-Dibenzylamino-1-(4'-bromophenyl)-2-(t-hexyldimethylsilyl)-3-methyl-2-pentanone
_symmetry_cell_setting           monoclinic
_symmetry_space_group_name_H-M   'P 21'
_symmetry_Int_Tables_number      4
_space_group_name_Hall           'P 2yb'
loop_
_symmetry_equiv_pos_site_id
_symmetry_equiv_pos_as_xyz
1 x,y,z
2 -x,1/2+y,-z
_cell_length_a                   6.644(6)
_cell_length_b                   24.243(2)
_cell_length_c                   10.688(1)
_cell_angle_alpha                90
_cell_angle_beta                 104.0(2)
_cell_angle_gamma                90
_cell_volume                     1670.38
_cell_formula_units_Z            2
loop_
_atom_site_label
_atom_site_type_symbol
_atom_site_fract_x
_atom_site_fract_y
_atom_site_fract_z
Br1 Br 0.0473(1) 0.51705 1.07987(7)
Si1 Si -0.0971(3) 0.30587(7) 0.3968(2)
O1 O 0.3430(7) 0.3725(2) 0.5699(4)
N1 N 0.0690(8) 0.5485(2) 0.4983(5)
C1 C 0.1034(9) 0.4922(3) 0.5520(6)
C2 C 0.1729(9) 0.4520(2) 0.4602(5)
C3 C 0.180(1) 0.3946(2) 0.5200(6)
C4 C -0.0273(9) 0.3656(2) 0.5181(5)
C5 C -0.0216(9) 0.3423(3) 0.6533(7)
C6 C 0.3810(9) 0.4687(2) 0.4368(6)
C7 C 0.1094(8) 0.2521(2) 0.4502(6)
C8 C -0.3569(9) 0.2798(2) 0.4166(7)
C9 C -0.133(1) 0.3289(2) 0.2248(6)
C10 C -0.245(1) 0.2855(3) 0.1230(7)
C11 C 0.083(1) 0.3447(2) 0.2023(6)
C12 C -0.272(1) 0.3818(3) 0.2049(6)
C13 C -0.146(1) 0.2305(3) 0.1385(8)
C14 C -0.267(1) 0.3036(3) -0.0163(8)
C15 C -0.007(2) 0.3855(3) 0.7571(6)
C16 C 0.185(1) 0.3974(3) 0.8380(8)
C17 C -0.176(1) 0.4153(3) 0.7694(7)
C18 C 0.203(1) 0.4366(4) 0.9371(8)
C19 C -0.158(1) 0.4541(3) 0.8648(9)
C20 C 0.027(2) 0.4652(3) 0.9455(6)
C21 C 0.063(1) 0.5866(2) 0.6065(7)
C22 C 0.271(1) 0.5963(2) 0.6973(8)
C23 C 0.304(2) 0.5834(3) 0.824(1)
C24 C 0.428(2) 0.6214(3) 0.6538(7)
C25 C 0.490(2) 0.5949(4) 0.909(1)
C26 C 0.618(2) 0.6330(3) 0.740(1)
C27 C 0.648(2) 0.6201(4) 0.867(1)
C28 C -0.121(1) 0.5521(2) 0.3976(6)
C29 C -0.140(1) 0.6050(3) 0.3227(6)
C30 C -0.327(1) 0.6324(4) 0.2922(8)
C31 C 0.024(1) 0.6275(3) 0.2861(7)
C32 C -0.360(2) 0.6788(5) 0.217(1)
C33 C -0.003(2) 0.6763(5) 0.2129(9)
C34 C -0.201(3) 0.7009(4) 0.185(1)
H1 H -0.1386 0.3988 0.4901
H2 H -0.3765 0.2785 0.1542
H3 H 0.0799 0.4529 0.3686
H4 H 0.3159 0.3746 0.8288
H5 H 0.3552 0.4440 0.9962
H6 H -0.2984 0.4737 0.8790
H7 H -0.3189 0.4059 0.7005
H8 H 0.1965 0.5625 0.8578
H9 H 0.5220 0.5888 1.0093
H10 H 0.7973 0.6309 0.9186
H11 H 0.7308 0.6525 0.6921
H12 H 0.3972 0.6345 0.5553
H13 H 0.1647 0.6080 0.3140
H14 H 0.1216 0.6916 0.1833
H15 H -0.2046 0.7384 0.1414
H16 H -0.5098 0.6936 0.1866
H17 H -0.4274 0.6166 0.3428
H18 H -0.2517 0.5475 0.4363
H19 H -0.1352 0.5177 0.3362
H20 H -0.0328 0.5686 0.6578
H21 H -0.0094 0.6215 0.5678
H22 H 0.2255 0.4940 0.6351
H23 H -0.0171 0.4771 0.5774
H24 H -0.1602 0.3207 0.6424
H25 H 0.0911 0.3142 0.6678
H26 H 0.3662 0.5094 0.3976
H27 H 0.4889 0.4701 0.5156
H28 H 0.4216 0.4458 0.3691
H29 H 0.2587 0.2670 0.4485
H30 H 0.1263 0.2383 0.5414
H31 H 0.0889 0.2188 0.3909
H32 H -0.3439 0.2655 0.5103
H33 H -0.4688 0.3067 0.3970
H34 H -0.3909 0.2460 0.3586
H35 H 0.1545 0.3759 0.2611
H36 H 0.1856 0.3125 0.2176
H37 H 0.0751 0.3578 0.1102
H38 H -0.4192 0.3714 0.2180
H39 H -0.2186 0.4120 0.2637
H40 H -0.2977 0.3942 0.1121
H41 H 0.0095 0.2331 0.1324
H42 H -0.1247 0.2142 0.2345
H43 H -0.2047 0.1990 0.0831
H44 H -0.3686 0.3362 -0.0165
H45 H -0.1434 0.3116 -0.0248
H46 H -0.3505 0.2736 -0.0673
loop_
_geom_bond_atom_site_label_1
_geom_bond_atom_site_label_2
_geom_bond_site_symmetry_1
_geom_bond_site_symmetry_2
Br1 C20 1_555 1_555
Si1 C4 1_555 1_555
O1 C3 1_555 1_555
N1 C1 1_555 1_555
C1 C2 1_555 1_555
C2 C3 1_555 1_555
C3 C4 1_555 1_555
C4 C5 1_555 1_555
C5 C15 1_555 1_555
C6 C2 1_555 1_555
C7 Si1 1_555 1_555
C8 Si1 1_555 1_555
C9 Si1 1_555 1_555
C10 C9 1_555 1_555
C11 C9 1_555 1_555
C12 C9 1_555 1_555
C13 C10 1_555 1_555
C14 C10 1_555 1_555
C15 C16 1_555 1_555
C16 C18 1_555 1_555
C17 C15 1_555 1_555
C18 C20 1_555 1_555
C19 C17 1_555 1_555
C20 C19 1_555 1_555
C21 N1 1_555 1_555
C22 C21 1_555 1_555
C23 C22 1_555 1_555
C24 C22 1_555 1_555
C25 C23 1_555 1_555
C26 C24 1_555 1_555
C27 C25 1_555 1_555
C28 N1 1_555 1_555
C29 C28 1_555 1_555
C30 C29 1_555 1_555
C31 C29 1_555 1_555
C32 C30 1_555 1_555
C33 C31 1_555 1_555
C34 C32 1_555 1_555
H1 C4 1_555 1_555
H2 C10 1_555 1_555
H3 C2 1_555 1_555
H4 C16 1_555 1_555
H5 C18 1_555 1_555
H6 C19 1_555 1_555
H7 C17 1_555 1_555
H8 C23 1_555 1_555
H9 C25 1_555 1_555
H10 C27 1_555 1_555
H11 C26 1_555 1_555
H12 C24 1_555 1_555
H13 C31 1_555 1_555
H14 C33 1_555 1_555
H15 C34 1_555 1_555
H16 C32 1_555 1_555
H17 C30 1_555 1_555
H18 C28 1_555 1_555
H19 C28 1_555 1_555
H20 C21 1_555 1_555
H21 C21 1_555 1_555
H22 C1 1_555 1_555
H23 C1 1_555 1_555
H24 C5 1_555 1_555
H25 C5 1_555 1_555
H26 C6 1_555 1_555
H27 C6 1_555 1_555
H28 C6 1_555 1_555
H29 C7 1_555 1_555
H30 C7 1_555 1_555
H31 C7 1_555 1_555
H32 C8 1_555 1_555
H33 C8 1_555 1_555
H34 C8 1_555 1_555
H35 C11 1_555 1_555
H36 C11 1_555 1_555
H37 C11 1_555 1_555
H38 C12 1_555 1_555
H39 C12 1_555 1_555
H40 C12 1_555 1_555
H41 C13 1_555 1_555
H42 C13 1_555 1_555
H43 C13 1_555 1_555
H44 C14 1_555 1_555
H45 C14 1_555 1_555
H46 C14 1_555 1_555
C26 C27 1_555 1_555
C33 C34 1_555 1_555

#END
