
#######################################################################
#
#                 Cambridge Crystallographic Data Centre
#                                CCDC 
#
#######################################################################
#
# If this CIF has been generated from an entry in the Cambridge 
# Structural Database, then it will include bibliographic, chemical, 
# crystal, experimental, refinement or atomic coordinate data resulting 
# from the CCDC's data processing and validation procedures.
#
#######################################################################

data_TAXRAM
_chemical_formula_moiety         'C21 H18 N2 O2 S1'
_chemical_name_systematic        
4-Methyl-N-(2-phenyl-1H-indol-7-yl)benzenesulfonamide
_symmetry_cell_setting           orthorhombic
_symmetry_space_group_name_H-M   'P b c a'
_symmetry_Int_Tables_number      61
_space_group_name_Hall           '-P 2ac 2ab'
loop_
_symmetry_equiv_pos_site_id
_symmetry_equiv_pos_as_xyz
1 x,y,z
2 1/2-x,-y,1/2+z
3 -x,1/2+y,1/2-z
4 1/2+x,1/2-y,-z
5 -x,-y,-z
6 1/2+x,y,1/2-z
7 x,1/2-y,1/2+z
8 1/2-x,1/2+y,z
_cell_length_a                   5.0299(10)
_cell_length_b                   18.894(4)
_cell_length_c                   36.178(7)
_cell_angle_alpha                90
_cell_angle_beta                 90
_cell_angle_gamma                90
_cell_volume                     3438.17
_exptl_crystal_colour            colorless
_exptl_crystal_description       needle
_cell_formula_units_Z            8
_exptl_crystal_recrystallization_method 'ethyl acetate'
loop_
_atom_site_label
_atom_site_type_symbol
_atom_site_fract_x
_atom_site_fract_y
_atom_site_fract_z
S1 S 0.54796(17) 0.12484(4) 0.06891(2)
O1 O 0.8240(4) 0.11400(12) 0.07818(6)
O2 O 0.4319(5) 0.08758(12) 0.03871(6)
N1 N 0.3771(5) 0.10349(14) 0.10584(7)
H1 H 0.2410 0.0761 0.1042
N2 N 0.8099(5) 0.03997(14) 0.15211(7)
H2 H 0.7951 0.0157 0.1321
C1 C 0.6271(7) 0.18322(18) 0.21041(9)
H3 H 0.6816 0.2009 0.2332
C2 C 0.4254(7) 0.21630(17) 0.19106(8)
H4 H 0.3434 0.2561 0.2010
C3 C 0.3428(7) 0.19017(18) 0.15631(8)
H5 H 0.2073 0.2132 0.1436
C4 C 0.4593(7) 0.13147(17) 0.14108(8)
C5 C 0.6611(7) 0.09809(16) 0.16069(8)
C6 C 0.7489(7) 0.12302(18) 0.19555(8)
C7 C 0.9529(7) 0.07592(17) 0.20737(8)
H6 H 1.0458 0.0787 0.2296
C8 C 0.9891(6) 0.02569(17) 0.18042(8)
C9 C 1.1769(6) -0.03319(17) 0.17749(8)
C10 C 1.3525(7) -0.04881(18) 0.20628(9)
H7 H 1.3478 -0.0220 0.2278
C11 C 1.5340(7) -0.10388(17) 0.20311(9)
H8 H 1.6488 -0.1137 0.2226
C12 C 1.5456(7) -0.14440(17) 0.17115(9)
H9 H 1.6687 -0.1809 0.1690
C13 C 1.3714(7) -0.12962(18) 0.14264(9)
H10 H 1.3756 -0.1568 0.1212
C14 C 1.1910(7) -0.07478(17) 0.14565(9)
H11 H 1.0767 -0.0654 0.1261
C15 C 0.5033(6) 0.21588(17) 0.06133(8)
C16 C 0.6744(7) 0.26507(18) 0.07679(8)
H12 H 0.8107 0.2500 0.0923
C17 C 0.6441(7) 0.33641(18) 0.06934(9)
H13 H 0.7614 0.3689 0.0797
C18 C 0.4391(8) 0.36023(18) 0.04643(8)
C19 C 0.2656(7) 0.31024(18) 0.03176(8)
H14 H 0.1268 0.3252 0.0167
C20 C 0.2946(7) 0.23927(18) 0.03907(8)
H15 H 0.1752 0.2068 0.0292
C21 C 0.4130(9) 0.43765(19) 0.03741(10)
H16 H 0.3640 0.4430 0.0119
H17 H 0.5797 0.4609 0.0418
H18 H 0.2785 0.4584 0.0528
loop_
_geom_bond_atom_site_label_1
_geom_bond_atom_site_label_2
_geom_bond_site_symmetry_1
_geom_bond_site_symmetry_2
S1 O1 1_555 1_555
O2 S1 1_555 1_555
N1 S1 1_555 1_555
H1 N1 1_555 1_555
N2 H2 1_555 1_555
C1 H3 1_555 1_555
C2 C1 1_555 1_555
H4 C2 1_555 1_555
C3 C2 1_555 1_555
H5 C3 1_555 1_555
C4 N1 1_555 1_555
C5 N2 1_555 1_555
C6 C1 1_555 1_555
C7 C6 1_555 1_555
H6 C7 1_555 1_555
C8 N2 1_555 1_555
C9 C8 1_555 1_555
C10 C9 1_555 1_555
H7 C10 1_555 1_555
C11 C10 1_555 1_555
H8 C11 1_555 1_555
C12 C11 1_555 1_555
H9 C12 1_555 1_555
C13 C12 1_555 1_555
H10 C13 1_555 1_555
C14 C9 1_555 1_555
H11 C14 1_555 1_555
C15 S1 1_555 1_555
C16 C15 1_555 1_555
H12 C16 1_555 1_555
C17 C16 1_555 1_555
H13 C17 1_555 1_555
C18 C17 1_555 1_555
C19 C18 1_555 1_555
H14 C19 1_555 1_555
C20 C15 1_555 1_555
H15 C20 1_555 1_555
C21 C18 1_555 1_555
H16 C21 1_555 1_555
H17 C21 1_555 1_555
H18 C21 1_555 1_555
C3 C4 1_555 1_555
C4 C5 1_555 1_555
C5 C6 1_555 1_555
C7 C8 1_555 1_555
C13 C14 1_555 1_555
C19 C20 1_555 1_555

#END
