
#######################################################################
#
#                 Cambridge Crystallographic Data Centre
#                                CCDC 
#
#######################################################################
#
# If this CIF has been generated from an entry in the Cambridge 
# Structural Database, then it will include bibliographic, chemical, 
# crystal, experimental, refinement or atomic coordinate data resulting 
# from the CCDC's data processing and validation procedures.
#
#######################################################################

data_TAXRIW
_chemical_formula_moiety         'C24 H22 N2 O4'
_chemical_name_systematic        
1-(4-(bis(4-methoxyphenyl)amino)phenyl)pyrrolidine-2,5-dione
_symmetry_cell_setting           orthorhombic
_symmetry_space_group_name_H-M   'P c c a'
_symmetry_Int_Tables_number      54
_space_group_name_Hall           '-P 2a 2ac'
loop_
_symmetry_equiv_pos_site_id
_symmetry_equiv_pos_as_xyz
1 x,y,z
2 1/2-x,-y,z
3 1/2+x,-y,1/2-z
4 -x,y,1/2-z
5 -x,-y,-z
6 1/2+x,y,-z
7 1/2-x,y,1/2+z
8 x,-y,1/2+z
_cell_length_a                   17.7190(5)
_cell_length_b                   12.4759(6)
_cell_length_c                   9.2314(4)
_cell_angle_alpha                90
_cell_angle_beta                 90
_cell_angle_gamma                90
_cell_volume                     2040.7
_exptl_crystal_colour            colorless
_exptl_crystal_description       plate
_cell_formula_units_Z            4
loop_
_atom_site_label
_atom_site_type_symbol
_atom_site_fract_x
_atom_site_fract_y
_atom_site_fract_z
C1 C 0.43338(15) 0.4309(2) 0.7181(3)
C2 C 0.43353(15) 0.3620(2) 0.6020(3)
H1 H 0.4769 0.3586 0.5417
C3 C 0.37232(15) 0.2975(2) 0.5706(3)
H2 H 0.3742 0.2495 0.4907
C4 C 0.30853(15) 0.3030(2) 0.6556(3)
C5 C 0.30654(16) 0.3746(3) 0.7719(4)
H3 H 0.2622 0.3805 0.8291
C6 C 0.36898(16) 0.4369(2) 0.8042(4)
H4 H 0.3679 0.4838 0.8852
C7 C 0.25082(18) 0.1566(3) 0.5298(5)
H5 H 0.2590 0.1871 0.4333
H6 H 0.2040 0.1148 0.5301
H7 H 0.2933 0.1099 0.5551
C8 C 0.5000 0.6036(3) 0.7500
C9 C 0.56286(15) 0.6619(2) 0.7994(3)
H8 H 0.6062 0.6248 0.8333
C10 C 0.56230(15) 0.7726(2) 0.7992(3)
H9 H 0.6052 0.8108 0.8333
C11 C 0.5000 0.8283(3) 0.7500
C12 C 0.45495(16) 1.0055(2) 0.8408(3)
C13 C 0.47092(17) 1.1215(2) 0.8102(4)
H10 H 0.4910 1.1576 0.8975
H11 H 0.4244 1.1589 0.7790
N1 N 0.5000 0.4922(3) 0.7500
N2 N 0.5000 0.9437(3) 0.7500
O1 O 0.24516(11) 0.24187(17) 0.6344(3)
O2 O 0.41193(12) 0.96885(17) 0.9299(2)
C1C C 0.56662(15) 0.4309(2) 0.7819(3)
C2C C 0.56647(15) 0.3620(2) 0.8980(3)
H1C H 0.5231 0.3586 0.9583
C3C C 0.62768(15) 0.2975(2) 0.9294(3)
H2C H 0.6258 0.2495 1.0093
C4C C 0.69147(15) 0.3030(2) 0.8444(3)
C5C C 0.69346(16) 0.3746(3) 0.7281(4)
H3C H 0.7378 0.3805 0.6709
C6C C 0.63102(16) 0.4369(2) 0.6958(4)
H4C H 0.6321 0.4838 0.6148
C7C C 0.74918(18) 0.1566(3) 0.9702(5)
H5C H 0.7410 0.1871 1.0667
H6C H 0.7960 0.1148 0.9699
H7C H 0.7067 0.1099 0.9449
C9C C 0.43714(15) 0.6619(2) 0.7006(3)
H8C H 0.3938 0.6248 0.6667
C10C C 0.43770(15) 0.7726(2) 0.7008(3)
H9C H 0.3948 0.8108 0.6667
C12C C 0.54505(16) 1.0055(2) 0.6592(3)
C13C C 0.52908(17) 1.1215(2) 0.6898(4)
H10C H 0.5090 1.1576 0.6025
H11C H 0.5756 1.1589 0.7210
O1C O 0.75484(11) 0.24187(17) 0.8656(3)
O2C O 0.58807(12) 0.96885(17) 0.5701(2)
loop_
_geom_bond_atom_site_label_1
_geom_bond_atom_site_label_2
_geom_bond_site_symmetry_1
_geom_bond_site_symmetry_2
C1 C2 1_555 1_555
C2 H1 1_555 1_555
C3 C2 1_555 1_555
H2 C3 1_555 1_555
C4 C3 1_555 1_555
C5 C4 1_555 1_555
H3 C5 1_555 1_555
C6 C1 1_555 1_555
H4 C6 1_555 1_555
C7 H5 1_555 1_555
H6 C7 1_555 1_555
H7 C7 1_555 1_555
C8 C9 1_555 1_555
C9 H8 1_555 1_555
C10 C9 1_555 1_555
H9 C10 1_555 1_555
C11 C10 1_555 1_555
C12 C13 1_555 1_555
C13 H10 1_555 1_555
H11 C13 1_555 1_555
N1 C1 1_555 1_555
N2 C11 1_555 1_555
O1 C4 1_555 1_555
O2 C12 1_555 1_555
C1C N1 1_555 1_555
C2C C1C 1_555 1_555
H1C C2C 1_555 1_555
C3C C2C 1_555 1_555
H2C C3C 1_555 1_555
C4C C3C 1_555 1_555
C5C C4C 1_555 1_555
H3C C5C 1_555 1_555
C6C C1C 1_555 1_555
H4C C6C 1_555 1_555
C7C H5C 1_555 1_555
H6C C7C 1_555 1_555
H7C C7C 1_555 1_555
C9C C8 1_555 1_555
H8C C9C 1_555 1_555
C10C C11 1_555 1_555
H9C C10C 1_555 1_555
C12C N2 1_555 1_555
C13C C13 1_555 1_555
H10C C13C 1_555 1_555
H11C C13C 1_555 1_555
O1C C4C 1_555 1_555
O2C C12C 1_555 1_555
C5 C6 1_555 1_555
C7 O1 1_555 1_555
C8 N1 1_555 1_555
C12 N2 1_555 1_555
C5C C6C 1_555 1_555
C7C O1C 1_555 1_555
C9C C10C 1_555 1_555
C12C C13C 1_555 1_555

#END
