
#######################################################################
#
#                 Cambridge Crystallographic Data Centre
#                                CCDC 
#
#######################################################################
#
# If this CIF has been generated from an entry in the Cambridge 
# Structural Database, then it will include bibliographic, chemical, 
# crystal, experimental, refinement or atomic coordinate data resulting 
# from the CCDC's data processing and validation procedures.
#
#######################################################################

data_TAXVEV
_chemical_formula_moiety         'C28 H18 N2 O1,C3 H6 O1'
_chemical_name_systematic        
"15a-Phenyl-5,15a-dihydro-15H-diindolo[1,2-a:3',2'-c]quinolin-15-one acetone solvate"
_symmetry_cell_setting           monoclinic
_symmetry_space_group_name_H-M   'P 21/n'
_symmetry_Int_Tables_number      14
_space_group_name_Hall           '-P 2yn'
loop_
_symmetry_equiv_pos_site_id
_symmetry_equiv_pos_as_xyz
1 x,y,z
2 1/2-x,1/2+y,1/2-z
3 -x,-y,-z
4 1/2+x,1/2-y,1/2+z
_cell_length_a                   9.6181(4)
_cell_length_b                   8.5559(4)
_cell_length_c                   29.1001(9)
_cell_angle_alpha                90
_cell_angle_beta                 99.5180(10)
_cell_angle_gamma                90
_cell_volume                     2361.72
_exptl_crystal_colour            yellow
_exptl_crystal_description       chunk
_cell_formula_units_Z            4
loop_
_atom_site_label
_atom_site_type_symbol
_atom_site_fract_x
_atom_site_fract_y
_atom_site_fract_z
O1 O 0.92011(15) 0.15961(19) 0.44511(5)
N1 N 0.57522(15) 0.30905(19) 0.44359(5)
N2 N 0.49205(18) 0.1264(2) 0.31217(6)
H1 H 0.4128 0.1073 0.2946
C1 C 0.76197(17) 0.4559(2) 0.41298(6)
C2 C 0.6012(2) 0.2233(2) 0.48508(6)
C3 C 0.69695(17) 0.2946(2) 0.41816(6)
C4 C 0.43782(18) 0.3408(2) 0.41931(6)
C5 C 0.5087(2) 0.2053(2) 0.35400(6)
C6 C 0.39863(19) 0.2833(2) 0.37366(6)
C7 C 0.7355(2) 0.1569(2) 0.49175(7)
C8 C 0.7250(2) 0.1360(2) 0.34017(7)
C9 C 0.80223(19) 0.1941(2) 0.45199(7)
C10 C 0.64918(19) 0.2110(2) 0.37278(6)
C11 C 0.6224(2) 0.0833(2) 0.30304(7)
C12 C 0.7667(2) 0.5235(3) 0.37048(7)
H2 H 0.7331 0.4684 0.3434
C13 C 0.3415(2) 0.4264(3) 0.43983(7)
H3 H 0.3682 0.4684 0.4694
C14 C 0.2621(2) 0.3095(3) 0.35058(7)
H4 H 0.2351 0.2723 0.3204
C15 C 0.7863(2) 0.0688(3) 0.53134(7)
H5 H 0.8762 0.0255 0.5354
C16 C 0.8174(2) 0.5391(3) 0.45283(7)
H6 H 0.8187 0.4939 0.4820
C17 C 0.8681(2) 0.1140(3) 0.33735(8)
H7 H 0.9383 0.1495 0.3609
C18 C 0.5134(2) 0.2002(3) 0.51808(7)
H8 H 0.4229 0.2418 0.5141
C19 C 0.5666(3) 0.1126(3) 0.55715(7)
H9 H 0.5099 0.0966 0.5797
C21 C 0.8719(3) 0.7542(3) 0.40688(10)
H10 H 0.9074 0.8545 0.4047
C22 C 0.7011(3) 0.0477(3) 0.56405(8)
H11 H 0.7330 -0.0099 0.5908
C23 C 0.1666(2) 0.3898(3) 0.37195(9)
H12 H 0.0749 0.4042 0.3564
C24 C 0.2057(2) 0.4490(3) 0.41623(8)
H13 H 0.1409 0.5043 0.4303
C25 C 0.6581(3) 0.0024(3) 0.26501(8)
H14 H 0.5893 -0.0355 0.2414
C26 C 0.8208(3) 0.6724(3) 0.36736(9)
H15 H 0.8223 0.7169 0.3383
C27 C 0.7987(3) -0.0188(3) 0.26401(9)
H16 H 0.8258 -0.0734 0.2393
C28 C 0.9019(3) 0.0390(3) 0.29896(9)
H17 H 0.9963 0.0266 0.2963
C29 C 0.8709(2) 0.6884(3) 0.44981(9)
H18 H 0.9059 0.7437 0.4767
O2 O 0.2650(2) 0.5886(3) 0.25616(6)
C20 C 0.2936(3) 0.6642(3) 0.29178(9)
C30 C 0.4382(3) 0.6670(4) 0.31848(11)
H19 H 0.4945 0.5896 0.3062
H20 H 0.4354 0.6447 0.3506
H21 H 0.4788 0.7684 0.3159
C31 C 0.1858(4) 0.7572(4) 0.31005(13)
H22 H 0.0939 0.7278 0.2943
H23 H 0.2011 0.8662 0.3049
H24 H 0.1922 0.7381 0.3428
loop_
_geom_bond_atom_site_label_1
_geom_bond_atom_site_label_2
_geom_bond_site_symmetry_1
_geom_bond_site_symmetry_2
O1 C9 1_555 1_555
N1 C2 1_555 1_555
N2 H1 1_555 1_555
O2 C20 1_555 1_555
C1 C3 1_555 1_555
C2 C7 1_555 1_555
C3 N1 1_555 1_555
C4 N1 1_555 1_555
C5 N2 1_555 1_555
C6 C4 1_555 1_555
C7 C9 1_555 1_555
C8 C10 1_555 1_555
C9 C3 1_555 1_555
C10 C3 1_555 1_555
C11 N2 1_555 1_555
C12 C1 1_555 1_555
H2 C12 1_555 1_555
C13 C4 1_555 1_555
H3 C13 1_555 1_555
C14 C6 1_555 1_555
H4 C14 1_555 1_555
C15 C7 1_555 1_555
H5 C15 1_555 1_555
C16 C1 1_555 1_555
H6 C16 1_555 1_555
C17 C8 1_555 1_555
H7 C17 1_555 1_555
C18 C2 1_555 1_555
H8 C18 1_555 1_555
C19 C18 1_555 1_555
H9 C19 1_555 1_555
C20 C30 1_555 1_555
C21 H10 1_555 1_555
C22 C15 1_555 1_555
H11 C22 1_555 1_555
C23 C14 1_555 1_555
H12 C23 1_555 1_555
C24 C13 1_555 1_555
H13 C24 1_555 1_555
C25 C11 1_555 1_555
H14 C25 1_555 1_555
C26 C12 1_555 1_555
H15 C26 1_555 1_555
C27 C25 1_555 1_555
H16 C27 1_555 1_555
C28 C17 1_555 1_555
H17 C28 1_555 1_555
C29 C16 1_555 1_555
H18 C29 1_555 1_555
C30 H19 1_555 1_555
H20 C30 1_555 1_555
H21 C30 1_555 1_555
C31 C20 1_555 1_555
H22 C31 1_555 1_555
H23 C31 1_555 1_555
H24 C31 1_555 1_555
C5 C6 1_555 1_555
C5 C10 1_555 1_555
C8 C11 1_555 1_555
C19 C22 1_555 1_555
C21 C26 1_555 1_555
C21 C29 1_555 1_555
C23 C24 1_555 1_555
C27 C28 1_555 1_555

#END
