
#######################################################################
#
#                 Cambridge Crystallographic Data Centre
#                                CCDC 
#
#######################################################################
#
# If this CIF has been generated from an entry in the Cambridge 
# Structural Database, then it will include bibliographic, chemical, 
# crystal, experimental, refinement or atomic coordinate data resulting 
# from the CCDC's data processing and validation procedures.
#
#######################################################################

data_TAXWEV
_chemical_formula_moiety         'C24 H22'
_chemical_name_systematic        1,4-bis((E)-2-Phenyl-1-propenyl)benzene
_symmetry_cell_setting           orthorhombic
_symmetry_space_group_name_H-M   'P 21 21 21'
_symmetry_Int_Tables_number      19
_space_group_name_Hall           'P 2ac 2ab'
loop_
_symmetry_equiv_pos_site_id
_symmetry_equiv_pos_as_xyz
1 x,y,z
2 1/2-x,-y,1/2+z
3 -x,1/2+y,1/2-z
4 1/2+x,1/2-y,-z
_cell_length_a                   36.813(3)
_cell_length_b                   6.2947(5)
_cell_length_c                   7.5555(6)
_cell_angle_alpha                90
_cell_angle_beta                 90
_cell_angle_gamma                90
_cell_volume                     1750.81
_exptl_crystal_colour            white
_exptl_crystal_description       cubic
_cell_formula_units_Z            4
_exptl_crystal_recrystallization_method THF
loop_
_atom_site_label
_atom_site_type_symbol
_atom_site_fract_x
_atom_site_fract_y
_atom_site_fract_z
C1 C 0.03327(4) 0.02495(19) 0.48005(16)
C2 C 0.01588(4) 0.1777(2) 0.58491(17)
H1 H 0.0305(4) 0.282(3) 0.647(2)
C3 C -0.02126(4) 0.1779(2) 0.60693(17)
H2 H -0.0332(4) 0.282(3) 0.683(2)
C4 C -0.04337(4) 0.02512(19) 0.52578(16)
C5 C -0.02624(4) -0.1213(2) 0.41524(17)
H3 H -0.0407(4) -0.219(3) 0.347(2)
C6 C 0.01096(4) -0.1210(2) 0.39228(17)
H4 H 0.0216(5) -0.219(3) 0.320(2)
C7 C 0.13631(4) -0.0749(2) 0.42066(17)
C8 C 0.15892(5) -0.2057(3) 0.3199(2)
H5 H 0.1489(5) -0.328(3) 0.265(2)
C9 C 0.19550(5) -0.1599(3) 0.2993(3)
H6 H 0.2097(5) -0.233(4) 0.229(3)
C10 C 0.21060(5) 0.0146(3) 0.3806(3)
H7 H 0.2362(5) 0.037(4) 0.363(3)
C11 C 0.18895(5) 0.1442(3) 0.4825(2)
H8 H 0.2001(5) 0.273(3) 0.543(3)
C12 C 0.15228(4) 0.1015(2) 0.50183(19)
H9 H 0.1379(4) 0.190(3) 0.575(2)
C13 C -0.14656(4) -0.0708(2) 0.58126(17)
C14 C -0.15835(4) 0.1051(2) 0.67910(19)
H10 H -0.1408(4) 0.191(3) 0.738(2)
C15 C -0.19496(5) 0.1481(3) 0.7000(2)
H11 H -0.2017(5) 0.268(3) 0.773(3)
C16 C -0.22077(5) 0.0201(3) 0.6235(3)
H12 H -0.2471(6) 0.053(4) 0.640(3)
C17 C -0.20990(5) -0.1533(3) 0.5255(2)
H13 H -0.2293(6) -0.248(4) 0.463(3)
C18 C -0.17341(5) -0.1997(3) 0.5054(2)
H14 H -0.1664(5) -0.313(3) 0.442(2)
C19 C 0.07299(4) 0.0347(2) 0.46037(19)
H15 H 0.0829(4) 0.178(3) 0.4663(19)
C20 C 0.09709(4) -0.12324(19) 0.44084(16)
C21 C 0.08661(5) -0.3553(2) 0.4404(2)
H16 H 0.0625(5) -0.381(3) 0.501(2)
H17 H 0.0858(5) -0.410(3) 0.329(3)
H18 H 0.1054(5) -0.444(3) 0.498(2)
C22 C -0.08282(4) 0.0357(2) 0.55324(19)
H19 H -0.0916(4) 0.176(3) 0.572(2)
C23 C -0.10753(4) -0.12089(19) 0.55710(16)
C24 C -0.09776(5) -0.3534(2) 0.5409(2)
H20 H -0.1145(6) -0.436(4) 0.612(3)
H21 H -0.1023(5) -0.409(3) 0.428(3)
H22 H -0.0722(5) -0.374(3) 0.565(2)
loop_
_geom_bond_atom_site_label_1
_geom_bond_atom_site_label_2
_geom_bond_site_symmetry_1
_geom_bond_site_symmetry_2
C1 C2 1_555 1_555
C2 H1 1_555 1_555
C3 C2 1_555 1_555
H2 C3 1_555 1_555
C4 C3 1_555 1_555
C5 C4 1_555 1_555
H3 C5 1_555 1_555
C6 C1 1_555 1_555
H4 C6 1_555 1_555
C7 C8 1_555 1_555
C8 H5 1_555 1_555
C9 C8 1_555 1_555
H6 C9 1_555 1_555
C10 C9 1_555 1_555
H7 C10 1_555 1_555
C11 C10 1_555 1_555
H8 C11 1_555 1_555
C12 C7 1_555 1_555
H9 C12 1_555 1_555
C13 C14 1_555 1_555
C14 H10 1_555 1_555
C15 C14 1_555 1_555
H11 C15 1_555 1_555
C16 C15 1_555 1_555
H12 C16 1_555 1_555
C17 C16 1_555 1_555
H13 C17 1_555 1_555
C18 C13 1_555 1_555
H14 C18 1_555 1_555
C19 C1 1_555 1_555
H15 C19 1_555 1_555
C20 C7 1_555 1_555
C21 C20 1_555 1_555
H16 C21 1_555 1_555
H17 C21 1_555 1_555
H18 C21 1_555 1_555
C22 C4 1_555 1_555
H19 C22 1_555 1_555
C23 C13 1_555 1_555
C24 C23 1_555 1_555
H20 C24 1_555 1_555
H21 C24 1_555 1_555
H22 C24 1_555 1_555
C5 C6 1_555 1_555
C11 C12 1_555 1_555
C17 C18 1_555 1_555
C19 C20 1_555 1_555
C22 C23 1_555 1_555

#END
