
#######################################################################
#
#                 Cambridge Crystallographic Data Centre
#                                CCDC 
#
#######################################################################
#
# If this CIF has been generated from an entry in the Cambridge 
# Structural Database, then it will include bibliographic, chemical, 
# crystal, experimental, refinement or atomic coordinate data resulting 
# from the CCDC's data processing and validation procedures.
#
#######################################################################

data_TAXXEX
_chemical_formula_moiety         'C12 H16 N2 O1'
_chemical_name_systematic        2-((Piperidin-1-ylmethylene)amino)phenol
_symmetry_cell_setting           orthorhombic
_symmetry_space_group_name_H-M   'C c c 2'
_symmetry_Int_Tables_number      37
_space_group_name_Hall           'C 2 -2c'
loop_
_symmetry_equiv_pos_site_id
_symmetry_equiv_pos_as_xyz
1 x,y,z
2 -x,-y,z
3 x,-y,1/2+z
4 -x,y,1/2+z
5 1/2+x,1/2+y,z
6 1/2-x,1/2-y,z
7 1/2+x,1/2-y,1/2+z
8 1/2-x,1/2+y,1/2+z
_cell_length_a                   16.457(4)
_cell_length_b                   18.264(5)
_cell_length_c                   7.598(2)
_cell_angle_alpha                90
_cell_angle_beta                 90
_cell_angle_gamma                90
_cell_volume                     2283.74
_cell_formula_units_Z            8
loop_
_atom_site_label
_atom_site_type_symbol
_atom_site_fract_x
_atom_site_fract_y
_atom_site_fract_z
O1 O 0.14391(11) 0.22441(8) 0.4317(3)
H1 H 0.1829(19) 0.2181(14) 0.493(4)
N1 N 0.22931(10) 0.33336(9) 0.6217(3)
C1 C 0.12711(11) 0.29634(10) 0.4084(3)
C2 C 0.06727(12) 0.31444(11) 0.2875(3)
H2 H 0.0400 0.2770 0.2267
C3 C 0.04707(11) 0.38669(12) 0.2548(3)
H3 H 0.0069 0.3982 0.1713
C4 C 0.08614(12) 0.44169(11) 0.3453(3)
H4 H 0.0728 0.4909 0.3238
C5 C 0.14511(11) 0.42435(11) 0.4681(3)
H5 H 0.1713 0.4622 0.5296
C6 C 0.16648(11) 0.35216(10) 0.5024(3)
C7 C 0.22229(11) 0.35889(11) 0.7774(3)
H6 H 0.1735 0.3824 0.8080
N2 N 0.2801(8) 0.3539(9) 0.8978(19)
C8 C 0.3657(5) 0.3320(7) 0.8752(14)
H7 H 0.3760 0.3229 0.7501
H8 H 0.3750 0.2860 0.9387
C9 C 0.4252(5) 0.3891(7) 0.9413(10)
H9 H 0.4219 0.4327 0.8666
H10 H 0.4806 0.3697 0.9334
C10 C 0.4070(5) 0.4100(5) 1.1304(10)
H11 H 0.4433 0.4497 1.1670
H12 H 0.4168 0.3679 1.2074
C11 C 0.3191(5) 0.4347(6) 1.1485(12)
H13 H 0.3065 0.4437 1.2727
H14 H 0.3109 0.4804 1.0835
C12 C 0.2629(9) 0.3758(10) 1.076(2)
H15 H 0.2667 0.3325 1.1524
H16 H 0.2069 0.3937 1.0822
C13? C 0.4132(9) 0.4056(8) 1.071(2)
C14? C 0.3314(9) 0.4408(8) 1.100(2)
C15? C 0.2638(15) 0.3854(15) 1.089(3)
C16? C 0.3477(8) 0.3078(7) 0.8868(19)
C17? C 0.4157(8) 0.3626(7) 0.901(2)
H17? H 0.4551 0.4436 1.0677
H18? H 0.4254 0.3728 1.1694
H19? H 0.3306 0.4641 1.2167
H20? H 0.3227 0.4790 1.0119
H21? H 0.2683 0.3493 1.1841
H22? H 0.2107 0.4094 1.0975
H23? H 0.1716 0.3777 0.8118
H24? H 0.3463 0.2858 0.7692
H25? H 0.3538 0.2688 0.9744
H26? H 0.4125 0.3967 0.8021
H27? H 0.4678 0.3368 0.8937
N3? N 0.2736(10) 0.3509(10) 0.920(3)
loop_
_geom_bond_atom_site_label_1
_geom_bond_atom_site_label_2
_geom_bond_site_symmetry_1
_geom_bond_site_symmetry_2
O1 H1 1_555 1_555
N1 C6 1_555 1_555
C1 O1 1_555 1_555
C2 C1 1_555 1_555
H2 C2 1_555 1_555
C3 C2 1_555 1_555
H3 C3 1_555 1_555
C4 C3 1_555 1_555
H4 C4 1_555 1_555
C5 C4 1_555 1_555
H5 C5 1_555 1_555
C6 C1 1_555 1_555
C7 N1 1_555 1_555
H6 C7 1_555 1_555
N2 C7 1_555 1_555
C8 N2 1_555 1_555
H7 C8 1_555 1_555
H8 C8 1_555 1_555
C9 C8 1_555 1_555
H9 C9 1_555 1_555
H10 C9 1_555 1_555
C10 C9 1_555 1_555
H11 C10 1_555 1_555
H12 C10 1_555 1_555
C11 C10 1_555 1_555
H13 C11 1_555 1_555
H14 C11 1_555 1_555
C12 N2 1_555 1_555
H15 C12 1_555 1_555
H16 C12 1_555 1_555
C5 C6 1_555 1_555
C11 C12 1_555 1_555

#END
