
#######################################################################
#
#                 Cambridge Crystallographic Data Centre
#                                CCDC 
#
#######################################################################
#
# If this CIF has been generated from an entry in the Cambridge 
# Structural Database, then it will include bibliographic, chemical, 
# crystal, experimental, refinement or atomic coordinate data resulting 
# from the CCDC's data processing and validation procedures.
#
#######################################################################

data_TAXXUN
_chemical_formula_moiety         'C20 H18 N2 O3 S2'
_chemical_name_systematic        
4-(1,3-Dithiolan-2-ylidene)-3-hydroxy-1-(4-methylphenyl)-3-(pyridin-2-ylmethyl)pyrrolidine-2,5-dione
_symmetry_cell_setting           monoclinic
_symmetry_space_group_name_H-M   'P 21/n'
_symmetry_Int_Tables_number      14
_space_group_name_Hall           '-P 2yn'
loop_
_symmetry_equiv_pos_site_id
_symmetry_equiv_pos_as_xyz
1 x,y,z
2 1/2-x,1/2+y,1/2-z
3 -x,-y,-z
4 1/2+x,1/2-y,1/2+z
_cell_length_a                   10.0470(14)
_cell_length_b                   14.912(2)
_cell_length_c                   12.7850(17)
_cell_angle_alpha                90
_cell_angle_beta                 93.932(2)
_cell_angle_gamma                90
_cell_volume                     1910.95
_cell_formula_units_Z            4
loop_
_atom_site_label
_atom_site_type_symbol
_atom_site_fract_x
_atom_site_fract_y
_atom_site_fract_z
S1 S 0.45439(9) 0.04151(7) 0.17421(8)
S2 S 0.44142(10) -0.04951(9) 0.37612(9)
O1 O 0.1795(3) 0.0340(2) 0.4536(2)
O2 O 0.1827(2) 0.09962(17) 0.10853(17)
N1 N 0.0166(2) 0.08284(19) 0.2233(2)
O3 O -0.0978(2) 0.04966(19) 0.36818(17)
C1 C 0.1314(3) -0.0038(3) 0.3557(2)
C2 C 0.2223(3) 0.0204(2) 0.2717(2)
C3 C -0.0915(3) 0.1197(2) 0.1585(2)
C4 C 0.0014(3) 0.0436(2) 0.3194(3)
C5 C -0.1326(3) 0.0764(2) 0.0673(3)
H1 H -0.0883 0.0252 0.0469
C6 C 0.3545(3) 0.0053(2) 0.2724(3)
C7 C 0.5997(4) -0.0453(4) 0.3258(4)
H2 H 0.6637 -0.0245 0.3807
H3 H 0.6252 -0.1056 0.3071
C8 C 0.1474(3) 0.0703(2) 0.1906(3)
N2 N -0.0481(3) -0.1232(2) 0.2163(2)
C9 C -0.1580(4) 0.1951(3) 0.1888(3)
H4 H -0.1307 0.2246 0.2507
C10 C 0.0628(4) -0.1537(3) 0.2683(3)
C11 C -0.2402(4) 0.1093(3) 0.0056(3)
H5 H -0.2670 0.0800 -0.0565
C12 C 0.1056(4) -0.1049(3) 0.3683(3)
H6 H 0.1866 -0.1326 0.3988
H7 H 0.0372 -0.1127 0.4174
C13 C -0.3084(4) 0.1844(3) 0.0341(3)
C14 C -0.2659(4) 0.2267(3) 0.1260(3)
H8 H -0.3107 0.2776 0.1466
C15 C -0.0906(5) -0.1667(3) 0.1293(3)
H9 H -0.1679 -0.1462 0.0929
C16 C -0.4273(4) 0.2186(3) -0.0331(4)
H10 H -0.4629 0.2707 -0.0009
H11 H -0.4945 0.1728 -0.0396
H12 H -0.4000 0.2340 -0.1013
C17 C -0.0282(6) -0.2391(3) 0.0902(4)
H13 H -0.0620 -0.2673 0.0291
C18 C 0.1315(5) -0.2255(3) 0.2331(4)
H14 H 0.2093 -0.2450 0.2698
C19 C 0.6084(5) 0.0088(5) 0.2401(5)
H15 H 0.6608 -0.0221 0.1903
H16 H 0.6568 0.0626 0.2621
C20 C 0.0844(6) -0.2687(3) 0.1430(4)
H17 H 0.1297 -0.3180 0.1185
H18 H 0.149(5) 0.013(3) 0.502(4)
loop_
_geom_bond_atom_site_label_1
_geom_bond_atom_site_label_2
_geom_bond_site_symmetry_1
_geom_bond_site_symmetry_2
S1 C6 1_555 1_555
S2 C6 1_555 1_555
O1 C1 1_555 1_555
O2 C8 1_555 1_555
N1 C3 1_555 1_555
O3 C4 1_555 1_555
C1 C2 1_555 1_555
C2 C6 1_555 1_555
C3 C5 1_555 1_555
C4 N1 1_555 1_555
C5 H1 1_555 1_555
C7 S2 1_555 1_555
H2 C7 1_555 1_555
H3 C7 1_555 1_555
C8 N1 1_555 1_555
N2 C10 1_555 1_555
C9 C3 1_555 1_555
H4 C9 1_555 1_555
C10 C12 1_555 1_555
C11 C5 1_555 1_555
H5 C11 1_555 1_555
C12 C1 1_555 1_555
H6 C12 1_555 1_555
H7 C12 1_555 1_555
C13 C11 1_555 1_555
C14 C9 1_555 1_555
H8 C14 1_555 1_555
C15 N2 1_555 1_555
H9 C15 1_555 1_555
C16 C13 1_555 1_555
H10 C16 1_555 1_555
H11 C16 1_555 1_555
H12 C16 1_555 1_555
C17 C15 1_555 1_555
H13 C17 1_555 1_555
C18 C10 1_555 1_555
H14 C18 1_555 1_555
C19 S1 1_555 1_555
H15 C19 1_555 1_555
H16 C19 1_555 1_555
C20 C17 1_555 1_555
H17 C20 1_555 1_555
H18 O1 1_555 1_555
C1 C4 1_555 1_555
C2 C8 1_555 1_555
C7 C19 1_555 1_555
C13 C14 1_555 1_555
C18 C20 1_555 1_555

#END
