
#######################################################################
#
#                 Cambridge Crystallographic Data Centre
#                                CCDC 
#
#######################################################################
#
# If this CIF has been generated from an entry in the Cambridge 
# Structural Database, then it will include bibliographic, chemical, 
# crystal, experimental, refinement or atomic coordinate data resulting 
# from the CCDC's data processing and validation procedures.
#
#######################################################################

data_TAXXUO
_chemical_formula_moiety         'C14 H12 N2 O2 2+,2(C7 H7 O3 S1 1-)'
_chemical_name_systematic        
'9,10-dioxo-9,10-dihydroanthracene-2,6-diaminium bis(4-methylbenzenesulfonate)'
_symmetry_cell_setting           triclinic
_symmetry_space_group_name_H-M   'P -1'
_symmetry_Int_Tables_number      2
_space_group_name_Hall           '-P 1'
loop_
_symmetry_equiv_pos_site_id
_symmetry_equiv_pos_as_xyz
1 x,y,z
2 -x,-y,-z
_cell_length_a                   7.0851(5)
_cell_length_b                   7.8518(4)
_cell_length_c                   24.8513(17)
_cell_angle_alpha                95.667(5)
_cell_angle_beta                 95.177(6)
_cell_angle_gamma                93.368(5)
_cell_volume                     1366.93
_exptl_crystal_colour            colorless
_exptl_crystal_description       flake
_cell_formula_units_Z            2
loop_
_atom_site_label
_atom_site_type_symbol
_atom_site_fract_x
_atom_site_fract_y
_atom_site_fract_z
C1 C 0.0164(10) 1.2447(8) 0.4664(2)
H1 H 0.060756 1.134799 0.473116
H2 H -0.061906 1.282570 0.494239
H3 H 0.123123 1.326072 0.466736
C2 C -0.0969(8) 1.2301(7) 0.4123(2)
C3 C -0.0753(7) 1.3500(7) 0.3779(2)
H4 H 0.008415 1.445535 0.388455
C4 C -0.1753(7) 1.3337(6) 0.32703(19)
H5 H -0.157842 1.418212 0.303885
C5 C -0.2982(5) 1.1961(4) 0.31061(15)
C6 C -0.3241(8) 1.0737(6) 0.3455(2)
H6 H -0.410133 0.979438 0.335391
C7 C -0.2207(9) 1.0923(7) 0.3957(2)
H7 H -0.236205 1.007848 0.419012
O1 O -0.4488(4) 1.3385(3) 0.22938(11)
O2 O -0.3002(4) 1.0779(4) 0.21079(12)
O3 O -0.5962(4) 1.0742(4) 0.24912(13)
S1 S -0.42082(13) 1.17039(11) 0.24482(4)
C8 C 0.4698(10) 0.7295(8) 0.4663(2)
H8 H 0.437958 0.833199 0.486234
H9 H 0.605206 0.729579 0.466052
H10 H 0.424148 0.632424 0.483218
C9 C 0.3788(8) 0.7190(7) 0.4088(2)
C10 C 0.2551(10) 0.8356(6) 0.3933(2)
H11 H 0.227464 0.923186 0.418826
C11 C 0.1695(7) 0.8274(5) 0.34082(18)
H12 H 0.083878 0.907390 0.331463
C12 C 0.2112(5) 0.7018(4) 0.30292(15)
C13 C 0.3374(6) 0.5860(5) 0.31801(18)
H13 H 0.367974 0.499749 0.292490
C14 C 0.4194(7) 0.5960(6) 0.3706(2)
H14 H 0.504876 0.515957 0.380047
O4 O -0.0076(4) 0.8305(3) 0.23136(11)
O5 O 0.2511(3) 0.6746(3) 0.19977(10)
O6 O -0.0175(4) 0.5247(3) 0.22897(10)
S2 S 0.10218(12) 0.68351(11) 0.23588(4)
C15 C -0.3443(5) 0.6509(4) 0.13570(14)
C16 C -0.3319(5) 0.7886(4) 0.10630(14)
H15 H -0.348437 0.898003 0.122414
C17 C -0.2946(5) 0.7648(4) 0.05270(14)
C18 C -0.2770(5) 0.9164(4) 0.02098(15)
C19 C -0.2280(5) 0.8865(4) -0.03514(14)
C20 C -0.2072(6) 1.0248(4) -0.06559(16)
H16 H -0.226536 1.134459 -0.050215
C21 C -0.1588(5) 1.0022(4) -0.11766(15)
H17 H -0.144687 1.095423 -0.137671
C22 C -0.1313(5) 0.8386(4) -0.14005(14)
C23 C -0.1515(5) 0.6989(4) -0.11181(15)
H18 H -0.133207 0.589746 -0.127838
C24 C -0.1996(5) 0.7224(4) -0.05913(14)
C25 C -0.2215(5) 0.5715(4) -0.02764(15)
C26 C -0.2691(5) 0.6001(4) 0.02853(14)
C27 C -0.2870(5) 0.4621(4) 0.05926(15)
H19 H -0.273054 0.351689 0.043467
C28 C -0.3249(5) 0.4866(4) 0.11233(15)
H20 H -0.337492 0.393612 0.132500
N1 N -0.3749(5) 0.6797(5) 0.19335(13)
N2 N -0.0831(5) 0.8151(5) -0.19634(14)
O7 O -0.3021(5) 1.0583(3) 0.04210(11)
O8 O -0.1976(5) 0.4290(3) -0.04879(11)
H21 H -0.502(8) 0.696(6) 0.199(2)
H22 H -0.343(8) 0.594(7) 0.208(2)
H23 H -0.292(9) 0.772(7) 0.212(2)
H24 H 0.027(6) 0.874(5) -0.2018(16)
H25 H -0.179(7) 0.860(5) -0.2207(19)
H26 H -0.071(7) 0.703(6) -0.2082(19)
loop_
_geom_bond_atom_site_label_1
_geom_bond_atom_site_label_2
_geom_bond_site_symmetry_1
_geom_bond_site_symmetry_2
C1 H1 1_555 1_555
H2 C1 1_555 1_555
H3 C1 1_555 1_555
C2 C1 1_555 1_555
C3 C2 1_555 1_555
H4 C3 1_555 1_555
C4 C3 1_555 1_555
H5 C4 1_555 1_555
C5 C4 1_555 1_555
C6 C5 1_555 1_555
H6 C6 1_555 1_555
C7 C2 1_555 1_555
H7 C7 1_555 1_555
O1 S1 1_555 1_555
O2 S1 1_555 1_555
O3 S1 1_555 1_555
S1 C5 1_555 1_555
C8 H8 1_555 1_555
H9 C8 1_555 1_555
H10 C8 1_555 1_555
C9 C8 1_555 1_555
C10 C9 1_555 1_555
H11 C10 1_555 1_555
C11 C10 1_555 1_555
H12 C11 1_555 1_555
C12 C11 1_555 1_555
C13 C12 1_555 1_555
H13 C13 1_555 1_555
C14 C9 1_555 1_555
H14 C14 1_555 1_555
O4 S2 1_555 1_555
O5 S2 1_555 1_555
O6 S2 1_555 1_555
S2 C12 1_555 1_555
C15 C16 1_555 1_555
C16 H15 1_555 1_555
C17 C16 1_555 1_555
C18 C17 1_555 1_555
C19 C18 1_555 1_555
C20 C19 1_555 1_555
H16 C20 1_555 1_555
C21 C20 1_555 1_555
H17 C21 1_555 1_555
C22 C21 1_555 1_555
C23 C22 1_555 1_555
H18 C23 1_555 1_555
C24 C19 1_555 1_555
C25 C24 1_555 1_555
C26 C17 1_555 1_555
C27 C26 1_555 1_555
H19 C27 1_555 1_555
C28 C15 1_555 1_555
H20 C28 1_555 1_555
N1 C15 1_555 1_555
N2 C22 1_555 1_555
O7 C18 1_555 1_555
O8 C25 1_555 1_555
H21 N1 1_555 1_555
H22 N1 1_555 1_555
H23 N1 1_555 1_555
H24 N2 1_555 1_555
H25 N2 1_555 1_555
H26 N2 1_555 1_555
C6 C7 1_555 1_555
C13 C14 1_555 1_555
C23 C24 1_555 1_555
C25 C26 1_555 1_555
C27 C28 1_555 1_555

#END
