
#######################################################################
#
#                 Cambridge Crystallographic Data Centre
#                                CCDC 
#
#######################################################################
#
# If this CIF has been generated from an entry in the Cambridge 
# Structural Database, then it will include bibliographic, chemical, 
# crystal, experimental, refinement or atomic coordinate data resulting 
# from the CCDC's data processing and validation procedures.
#
#######################################################################

data_TAXYOI
_chemical_formula_moiety         'C20 H20 Br1 N1 O3 S1'
_chemical_name_systematic        
N-(4-Bromophenyl)-4-methyl-N-(2-oxabicyclo[3.2.0]hept-7-ylidenemethyl)benzenesulfonamide
_symmetry_cell_setting           monoclinic
_symmetry_space_group_name_H-M   'P 21/c'
_symmetry_Int_Tables_number      14
_space_group_name_Hall           '-P 2ybc'
loop_
_symmetry_equiv_pos_site_id
_symmetry_equiv_pos_as_xyz
1 x,y,z
2 -x,1/2+y,1/2-z
3 -x,-y,-z
4 x,1/2-y,1/2+z
_cell_length_a                   18.2373(3)
_cell_length_b                   9.23520(10)
_cell_length_c                   11.8305(2)
_cell_angle_alpha                90
_cell_angle_beta                 106.735(2)
_cell_angle_gamma                90
_cell_volume                     1908.16
_exptl_crystal_colour            colorless
_exptl_crystal_description       prism
_cell_formula_units_Z            4
loop_
_atom_site_label
_atom_site_type_symbol
_atom_site_fract_x
_atom_site_fract_y
_atom_site_fract_z
Br1 Br 0.99451(3) 0.20851(6) 0.75948(5)
S1 S 0.67324(5) 0.12259(10) 0.25334(8)
N1 N 0.73445(18) 0.0094(3) 0.3406(3)
O1 O 0.6474(2) 0.0538(4) 0.1412(3)
O2 O 0.71050(18) 0.2602(3) 0.2659(3)
C1 C 0.5934(2) 0.1362(3) 0.3080(3)
C2 C 0.79447(19) 0.0645(3) 0.4383(3)
C3 C 0.8671(2) 0.0821(4) 0.4251(4)
H1 H 0.8755 0.0640 0.3525
C4 C 0.7813(2) 0.0933(4) 0.5450(4)
H2 H 0.7323 0.0828 0.5528
C5 C 0.9129(2) 0.1517(4) 0.6267(3)
C6 C 0.5945(2) 0.2320(4) 0.3991(4)
H3 H 0.6368 0.2910 0.4304
C7 C 0.5303(2) 0.0490(4) 0.2619(4)
H4 H 0.5297 -0.0152 0.2011
C8 C 0.8406(2) 0.1376(4) 0.6408(4)
H5 H 0.8320 0.1576 0.7129
C9 C 0.5319(3) 0.2383(5) 0.4425(4)
H6 H 0.5325 0.3025 0.5034
O3 O 0.8886(2) -0.2578(4) 0.4790(5)
C10 C 0.9266(2) 0.1262(4) 0.5191(4)
H7 H 0.9754 0.1387 0.5107
C11 C 0.4680(2) 0.1512(5) 0.3975(4)
C12 C 0.4683(3) 0.0574(5) 0.3060(5)
H8 H 0.4258 -0.0009 0.2738
C13 C 0.8008(4) -0.4248(6) 0.5234(6)
H9 H 0.7919 -0.4533 0.5982
C14 C 0.7485(3) -0.2433(5) 0.4103(5)
C15 C 0.7121(2) -0.1380(4) 0.3395(4)
H10 H 0.6670 -0.1637 0.2830
C16 C 0.4013(3) 0.1589(7) 0.4465(6)
H11 H 0.3566 0.1889 0.3856
H12 H 0.4120 0.2276 0.5101
H13 H 0.3925 0.0653 0.4753
C17 C 0.8233(3) -0.2595(5) 0.5157(6)
H14 H 0.8254 -0.2007 0.5855
C18 C 0.8928(4) -0.3935(7) 0.4213(8)
H15 H 0.9452 -0.4164 0.4242
H16 H 0.8618 -0.3911 0.3395
C19 C 0.8609(4) -0.5044(6) 0.4929(7)
H17 H 0.8404 -0.5889 0.4456
H18 H 0.9002 -0.5350 0.5631
C20 C 0.7268(3) -0.4016(6) 0.4189(7)
H19 H 0.7257 -0.4581 0.3493
H20 H 0.6798 -0.4144 0.4407
loop_
_geom_bond_atom_site_label_1
_geom_bond_atom_site_label_2
_geom_bond_site_symmetry_1
_geom_bond_site_symmetry_2
Br1 C5 1_555 1_555
S1 N1 1_555 1_555
N1 C2 1_555 1_555
O1 S1 1_555 1_555
O2 S1 1_555 1_555
C1 S1 1_555 1_555
C2 C3 1_555 1_555
C3 H1 1_555 1_555
C4 C2 1_555 1_555
H2 C4 1_555 1_555
C5 C8 1_555 1_555
C6 C1 1_555 1_555
H3 C6 1_555 1_555
C7 C1 1_555 1_555
H4 C7 1_555 1_555
C8 C4 1_555 1_555
H5 C8 1_555 1_555
C9 C6 1_555 1_555
H6 C9 1_555 1_555
O3 C17 1_555 1_555
C10 C3 1_555 1_555
H7 C10 1_555 1_555
C11 C9 1_555 1_555
C12 C7 1_555 1_555
H8 C12 1_555 1_555
C13 H9 1_555 1_555
C14 C15 1_555 1_555
C15 N1 1_555 1_555
H10 C15 1_555 1_555
C16 C11 1_555 1_555
H11 C16 1_555 1_555
H12 C16 1_555 1_555
H13 C16 1_555 1_555
C17 C13 1_555 1_555
H14 C17 1_555 1_555
C18 O3 1_555 1_555
H15 C18 1_555 1_555
H16 C18 1_555 1_555
C19 C13 1_555 1_555
H17 C19 1_555 1_555
H18 C19 1_555 1_555
C20 C13 1_555 1_555
H19 C20 1_555 1_555
H20 C20 1_555 1_555
C5 C10 1_555 1_555
C11 C12 1_555 1_555
C14 C17 1_555 1_555
C14 C20 1_555 1_555
C18 C19 1_555 1_555

#END
