
#######################################################################
#
#                 Cambridge Crystallographic Data Centre
#                                CCDC 
#
#######################################################################
#
# If this CIF has been generated from an entry in the Cambridge 
# Structural Database, then it will include bibliographic, chemical, 
# crystal, experimental, refinement or atomic coordinate data resulting 
# from the CCDC's data processing and validation procedures.
#
#######################################################################

data_TAYBUS01
_chemical_formula_moiety         'C18 H18 O4'
_chemical_name_systematic        
'Methyl 4-(4-methoxyphenyl)-4-oxo-2-phenylbutanoate'
_symmetry_cell_setting           orthorhombic
_symmetry_space_group_name_H-M   'P 21 21 21'
_symmetry_Int_Tables_number      19
_space_group_name_Hall           'P 2ac 2ab'
loop_
_symmetry_equiv_pos_site_id
_symmetry_equiv_pos_as_xyz
1 x,y,z
2 1/2+x,1/2-y,-z
3 -x,1/2+y,1/2-z
4 1/2-x,-y,1/2+z
_cell_length_a                   7.7671(2)
_cell_length_b                   7.9627(2)
_cell_length_c                   24.9339(5)
_cell_angle_alpha                90
_cell_angle_beta                 90
_cell_angle_gamma                90
_cell_volume                     1542.09
_exptl_crystal_colour            colorless
_exptl_crystal_description       prism
_cell_formula_units_Z            4
_exptl_crystal_recrystallization_method acetonitrile
loop_
_atom_site_label
_atom_site_type_symbol
_atom_site_fract_x
_atom_site_fract_y
_atom_site_fract_z
C1 C 0.1463(3) 0.6442(3) 0.89022(9)
H1 H 0.0305 0.6059 0.8897
C2 C 0.2068(3) 0.7326(3) 0.93427(9)
H2 H 0.1322 0.7545 0.9636
C3 C 0.3751(4) 0.7890(3) 0.93569(9)
H3 H 0.4162 0.8498 0.9659
C4 C 0.4826(3) 0.7564(3) 0.89312(9)
H4 H 0.5985 0.7946 0.8939
C5 C 0.4219(3) 0.6679(3) 0.84909(8)
H5 H 0.4972 0.6456 0.8199
C6 C 0.2532(3) 0.6112(2) 0.84692(8)
C7 C 0.1872(3) 0.5183(2) 0.79753(7)
H6 H 0.0634 0.489 0.8032
C8 C 0.2019(2) 0.6276(2) 0.74739(7)
H7 H 0.1259 0.7265 0.7516
H8 H 0.3217 0.6689 0.7443
C9 C 0.1547(3) 0.5375(3) 0.69670(8)
C10 C 0.1797(2) 0.6227(3) 0.64452(8)
C11 C 0.2454(2) 0.7851(3) 0.64056(8)
H9 H 0.2749 0.8453 0.6721
C12 C 0.2679(2) 0.8590(2) 0.59081(9)
H10 H 0.3121 0.97 0.5886
C13 C 0.2270(2) 0.7735(3) 0.54447(9)
C14 C 0.1626(2) 0.6115(3) 0.54767(8)
H11 H 0.1352 0.5508 0.516
C15 C 0.1389(2) 0.5394(3) 0.59732(10)
H12 H 0.093 0.429 0.5993
C16 C 0.2885(3) 0.3581(3) 0.79062(8)
C17 C 0.3029(3) 0.0694(3) 0.81069(8)
H13 H 0.3219 0.0399 0.773
H14 H 0.2348 -0.0189 0.8281
H15 H 0.4141 0.0802 0.8289
C18 C 0.2306(3) 0.7701(3) 0.44857(7)
H16 H 0.3006 0.6678 0.4485
H17 H 0.2652 0.8421 0.4186
H18 H 0.1088 0.7402 0.4448
O1 O 0.4273(2) 0.34984(16) 0.76873(5)
O2 O 0.21117(15) 0.22699(17) 0.81377(4)
O3 O 0.09730(17) 0.3931(2) 0.69848(5)
O4 O 0.25542(16) 0.85806(18) 0.49788(5)
loop_
_geom_bond_atom_site_label_1
_geom_bond_atom_site_label_2
_geom_bond_site_symmetry_1
_geom_bond_site_symmetry_2
C1 H1 1_555 1_555
C2 C1 1_555 1_555
H2 C2 1_555 1_555
C3 C2 1_555 1_555
H3 C3 1_555 1_555
C4 C3 1_555 1_555
H4 C4 1_555 1_555
C5 C4 1_555 1_555
H5 C5 1_555 1_555
C6 C1 1_555 1_555
C7 C6 1_555 1_555
H6 C7 1_555 1_555
C8 C7 1_555 1_555
H7 C8 1_555 1_555
H8 C8 1_555 1_555
C9 C8 1_555 1_555
C10 C9 1_555 1_555
C11 C10 1_555 1_555
H9 C11 1_555 1_555
C12 C11 1_555 1_555
H10 C12 1_555 1_555
C13 C12 1_555 1_555
C14 C13 1_555 1_555
H11 C14 1_555 1_555
C15 C10 1_555 1_555
H12 C15 1_555 1_555
C16 C7 1_555 1_555
C17 H13 1_555 1_555
H14 C17 1_555 1_555
H15 C17 1_555 1_555
C18 H16 1_555 1_555
H17 C18 1_555 1_555
H18 C18 1_555 1_555
O1 C16 1_555 1_555
O2 C16 1_555 1_555
O3 C9 1_555 1_555
O4 C13 1_555 1_555
C5 C6 1_555 1_555
C14 C15 1_555 1_555
C17 O2 1_555 1_555
C18 O4 1_555 1_555

#END
