
#######################################################################
#
#                 Cambridge Crystallographic Data Centre
#                                CCDC 
#
#######################################################################
#
# If this CIF has been generated from an entry in the Cambridge 
# Structural Database, then it will include bibliographic, chemical, 
# crystal, experimental, refinement or atomic coordinate data resulting 
# from the CCDC's data processing and validation procedures.
#
#######################################################################

data_TAYBUQ
_chemical_formula_moiety         'C36 H25 O3 P1'
_chemical_name_systematic        
4-Benzoyl-5-phenyl-1-triphenylphosphoranylidene-4-cyclopentene-2,3-dione
_symmetry_cell_setting           orthorhombic
_symmetry_space_group_name_H-M   'P n a 21'
_symmetry_Int_Tables_number      33
_space_group_name_Hall           'P 2c -2n'
loop_
_symmetry_equiv_pos_site_id
_symmetry_equiv_pos_as_xyz
1 x,y,z
2 -x,-y,1/2+z
3 1/2-x,1/2+y,1/2+z
4 1/2+x,1/2-y,z
_cell_length_a                   15.9470(7)
_cell_length_b                   14.9340(9)
_cell_length_c                   11.2190(5)
_cell_angle_alpha                90
_cell_angle_beta                 90
_cell_angle_gamma                90
_cell_volume                     2671.83
_exptl_crystal_colour            'deep violet'
_chemical_melting_point          270deg.C
_cell_formula_units_Z            4
loop_
_atom_site_label
_atom_site_type_symbol
_atom_site_fract_x
_atom_site_fract_y
_atom_site_fract_z
P1 P 0.22036(5) 0.93675(5) 0.40400
C1 C 0.29635(18) 0.89049(20) 0.49936(27)
C2 C 0.35908(19) 0.83319(23) 0.44951(31)
O1 O 0.37731(15) 0.81618(17) 0.34669(23)
C3 C 0.41104(20) 0.79521(20) 0.55833(32)
O2 O 0.47025(15) 0.74647(18) 0.54560(24)
C4 C 0.37334(19) 0.83745(19) 0.66333(29)
C5 C 0.30943(17) 0.89370(19) 0.62636(27)
C6 C 0.40665(21) 0.81838(21) 0.78250(31)
O3 O 0.43198(18) 0.74228(16) 0.80607(24)
C7 C 0.18096(18) 0.85341(19) 0.29801(29)
C8 C 0.10725(20) 0.80849(20) 0.32061(32)
H1 H 0.07726(20) 0.81895(20) 0.39349(32)
C9 C 0.07643(24) 0.74781(24) 0.23721(33)
H2 H 0.02484(24) 0.71673(24) 0.25242(33)
C10 C 0.11897(23) 0.73239(22) 0.13443(35)
H3 H 0.09738(23) 0.69040(22) 0.07737(35)
C11 C 0.19334(22) 0.77697(22) 0.11158(35)
H4 H 0.22309(22) 0.76535(22) 0.03883(35)
C12 C 0.22550(21) 0.83845(21) 0.19286(31)
H5 H 0.27692(21) 0.86968(21) 0.17697(31)
C13 C 0.12966(17) 0.97794(20) 0.48340(29)
C14 C 0.09891(19) 1.06456(21) 0.46123(31)
H6 H 0.12484(19) 1.10185(21) 0.40207(31)
C15 C 0.03120(22) 1.09517(23) 0.52502(35)
H7 H 0.00967(22) 1.15422(23) 0.51060(35)
C16 C -0.00562(21) 1.04162(24) 0.60952(34)
H8 H -0.05234(21) 1.06423(24) 0.65432(34)
C17 C 0.02304(21) 0.95543(23) 0.63158(31)
H9 H -0.00402(21) 0.91826(23) 0.68984(31)
C18 C 0.09119(19) 0.92426(19) 0.56831(31)
H10 H 0.11212(19) 0.86501(19) 0.58306(31)
C19 C 0.26519(18) 1.02857(20) 0.32008(30)
C20 C 0.22509(23) 1.05945(23) 0.21652(30)
H11 H 0.17650(23) 1.02920(23) 0.18602(30)
C21 C 0.25686(26) 1.13449(23) 0.15869(35)
H12 H 0.22990(26) 1.15658(23) 0.08806(35)
C22 C 0.32640(25) 1.17707(22) 0.20230(38)
H13 H 0.34822(25) 1.22822(22) 0.16078(38)
C23 C 0.36573(22) 1.14803(22) 0.30415(39)
H14 H 0.41368(22) 1.17940(22) 0.33470(39)
C24 C 0.33523(20) 1.07279(21) 0.36248(31)
H15 H 0.36297(20) 1.05132(21) 0.43284(31)
C25 C 0.25822(19) 0.94758(21) 0.71016(27)
C26 C 0.24564(22) 1.03905(21) 0.69102(31)
H16 H 0.27086(22) 1.06759(21) 0.62325(31)
C27 C 0.19653(22) 1.08959(25) 0.77003(37)
H17 H 0.18879(22) 1.15254(25) 0.75669(37)
C28 C 0.15944(24) 1.04897(26) 0.86654(35)
H18 H 0.12520(24) 1.08309(26) 0.92028(35)
C29 C 0.17198(22) 0.95799(27) 0.88549(32)
H19 H 0.14574(22) 0.92978(27) 0.95273(32)
C30 C 0.22154(20) 0.90677(24) 0.80991(31)
H20 H 0.23049(20) 0.84432(24) 0.82569(31)
C31 C 0.41691(19) 0.89053(21) 0.87428(29)
C32 C 0.42985(20) 0.98003(21) 0.84408(31)
H21 H 0.42805(20) 0.99812(21) 0.76201(31)
C33 C 0.44549(21) 1.04299(24) 0.93220(33)
H22 H 0.45445(21) 1.10457(24) 0.91123(33)
C34 C 0.44780(22) 1.01710(25) 1.04926(37)
H23 H 0.45943(22) 1.06068(25) 1.10996(37)
C35 C 0.43395(22) 0.92903(26) 1.08095(32)
H24 H 0.43454(22) 0.91208(26) 1.16348(32)
C36 C 0.41894(20) 0.86489(23) 0.99385(32)
H25 H 0.41009(20) 0.80347(23) 1.01573(32)
loop_
_geom_bond_atom_site_label_1
_geom_bond_atom_site_label_2
_geom_bond_site_symmetry_1
_geom_bond_site_symmetry_2
P1 C1 1_555 1_555
C1 C2 1_555 1_555
C2 O1 1_555 1_555
C3 C2 1_555 1_555
O2 C3 1_555 1_555
C4 C3 1_555 1_555
C5 C1 1_555 1_555
C6 C4 1_555 1_555
O3 C6 1_555 1_555
C7 P1 1_555 1_555
C8 C7 1_555 1_555
H1 C8 1_555 1_555
C9 C8 1_555 1_555
H2 C9 1_555 1_555
C10 C9 1_555 1_555
H3 C10 1_555 1_555
C11 C10 1_555 1_555
H4 C11 1_555 1_555
C12 C7 1_555 1_555
H5 C12 1_555 1_555
C13 P1 1_555 1_555
C14 C13 1_555 1_555
H6 C14 1_555 1_555
C15 C14 1_555 1_555
H7 C15 1_555 1_555
C16 C15 1_555 1_555
H8 C16 1_555 1_555
C17 C16 1_555 1_555
H9 C17 1_555 1_555
C18 C13 1_555 1_555
H10 C18 1_555 1_555
C19 P1 1_555 1_555
C20 C19 1_555 1_555
H11 C20 1_555 1_555
C21 C20 1_555 1_555
H12 C21 1_555 1_555
C22 C21 1_555 1_555
H13 C22 1_555 1_555
C23 C22 1_555 1_555
H14 C23 1_555 1_555
C24 C19 1_555 1_555
H15 C24 1_555 1_555
C25 C5 1_555 1_555
C26 C25 1_555 1_555
H16 C26 1_555 1_555
C27 C26 1_555 1_555
H17 C27 1_555 1_555
C28 C27 1_555 1_555
H18 C28 1_555 1_555
C29 C28 1_555 1_555
H19 C29 1_555 1_555
C30 C25 1_555 1_555
H20 C30 1_555 1_555
C31 C6 1_555 1_555
C32 C31 1_555 1_555
H21 C32 1_555 1_555
C33 C32 1_555 1_555
H22 C33 1_555 1_555
C34 C33 1_555 1_555
H23 C34 1_555 1_555
C35 C34 1_555 1_555
H24 C35 1_555 1_555
C36 C31 1_555 1_555
H25 C36 1_555 1_555
C4 C5 1_555 1_555
C11 C12 1_555 1_555
C17 C18 1_555 1_555
C23 C24 1_555 1_555
C29 C30 1_555 1_555
C35 C36 1_555 1_555

#END
