
#######################################################################
#
#                 Cambridge Crystallographic Data Centre
#                                CCDC 
#
#######################################################################
#
# If this CIF has been generated from an entry in the Cambridge 
# Structural Database, then it will include bibliographic, chemical, 
# crystal, experimental, refinement or atomic coordinate data resulting 
# from the CCDC's data processing and validation procedures.
#
#######################################################################

data_TAYDEE
_chemical_formula_moiety         'C12 H25 N2 O7 P1'
_chemical_name_systematic        
'Diethyl (5-methyl-2-nitro-3-(nitromethyl)hexan-2-yl)phosphonate'
_symmetry_cell_setting           monoclinic
_symmetry_space_group_name_H-M   'P 21'
_symmetry_Int_Tables_number      4
_space_group_name_Hall           'P 2yb'
loop_
_symmetry_equiv_pos_site_id
_symmetry_equiv_pos_as_xyz
1 x,y,z
2 -x,1/2+y,-z
_cell_length_a                   7.5051(16)
_cell_length_b                   12.370(3)
_cell_length_c                   9.944(3)
_cell_angle_alpha                90
_cell_angle_beta                 99.383(8)
_cell_angle_gamma                90
_cell_volume                     910.83
_exptl_crystal_colour            colorless
_exptl_crystal_description       plate
_cell_formula_units_Z            2
loop_
_atom_site_label
_atom_site_type_symbol
_atom_site_fract_x
_atom_site_fract_y
_atom_site_fract_z
C1 C 0.0989(3) 0.33952(16) 1.0110(2)
C2 C 0.1369(4) 0.4447(2) 1.0906(3)
C3 C -0.0047(2) 0.35457(17) 0.8634(2)
C4 C -0.1922(3) 0.4038(2) 0.8678(2)
H1 H -0.2293 0.3856 0.9540
H2 H -0.1844 0.4819 0.8626
C5 C 0.1002(3) 0.4242(2) 0.7761(2)
C6 C 0.0241(3) 0.4252(3) 0.6236(2)
H3 H -0.1039 0.4450 0.6132
C7 C 0.1213(5) 0.5127(3) 0.5536(4)
H4 H 0.1050 0.5816 0.5942
H5 H 0.0720 0.5150 0.4583
H6 H 0.2479 0.4962 0.5646
C8 C 0.0365(7) 0.3164(4) 0.5595(3)
H7 H 0.1610 0.2955 0.5674
H8 H -0.0165 0.3197 0.4650
H9 H -0.0271 0.2641 0.6051
C9 C 0.5049(5) 0.2064(4) 1.2540(4)
H10 H 0.5732 0.1404 1.2486
H11 H 0.5798 0.2669 1.2359
C10 C 0.4594(9) 0.2168(6) 1.3868(5)
H12 H 0.3834 0.2790 1.3896
H13 H 0.5677 0.2254 1.4521
H14 H 0.3964 0.1532 1.4082
C11 C 0.4048(5) 0.1018(3) 0.8738(4)
H15 H 0.216(4) 0.485(2) 1.048(3)
H16 H 0.027(5) 0.475(3) 1.100(3)
H17 H 0.196(4) 0.436(3) 1.182(3)
H18 H 0.215(4) 0.398(2) 0.778(2)
H19 H 0.101(3) 0.499(2) 0.803(2)
H20 H -0.023(3) 0.2868(19) 0.8222(19)
H21 H 0.523(5) 0.142(3) 0.881(3)
H22 H 0.430(6) 0.045(4) 0.967(5)
C12 C 0.3409(6) 0.0506(3) 0.7427(4)
H23 H 0.3112 0.1053 0.6742
H24 H 0.2355 0.0082 0.7491
H25 H 0.4339 0.0047 0.7187
N1 N -0.0177(2) 0.26600(19) 1.08628(19)
N2 N -0.3308(3) 0.3641(3) 0.7541(3)
O1 O 0.2684(2) 0.17902(15) 0.9030(2)
O2 O 0.3406(2) 0.20380(18) 1.1518(2)
O3 O 0.4647(2) 0.34096(15) 0.99919(19)
O4 O -0.0520(3) 0.2963(2) 1.19547(19)
O5 O -0.0724(3) 0.18223(15) 1.0308(2)
O6 O -0.4384(3) 0.4285(3) 0.6979(3)
O7 O -0.3330(3) 0.2694(3) 0.7258(3)
P1 P 0.31706(7) 0.26778(4) 1.01532(6)
loop_
_geom_bond_atom_site_label_1
_geom_bond_atom_site_label_2
_geom_bond_site_symmetry_1
_geom_bond_site_symmetry_2
C1 C2 1_555 1_555
C2 H15 1_555 1_555
C3 C1 1_555 1_555
C4 C3 1_555 1_555
H1 C4 1_555 1_555
H2 C4 1_555 1_555
C5 C3 1_555 1_555
C6 C5 1_555 1_555
H3 C6 1_555 1_555
C7 C6 1_555 1_555
H4 C7 1_555 1_555
H5 C7 1_555 1_555
H6 C7 1_555 1_555
C8 C6 1_555 1_555
H7 C8 1_555 1_555
H8 C8 1_555 1_555
H9 C8 1_555 1_555
C9 H10 1_555 1_555
H11 C9 1_555 1_555
C10 C9 1_555 1_555
H12 C10 1_555 1_555
H13 C10 1_555 1_555
H14 C10 1_555 1_555
C11 H21 1_555 1_555
H16 C2 1_555 1_555
H17 C2 1_555 1_555
H18 C5 1_555 1_555
H19 C5 1_555 1_555
H20 C3 1_555 1_555
H22 C11 1_555 1_555
C12 C11 1_555 1_555
H23 C12 1_555 1_555
H24 C12 1_555 1_555
H25 C12 1_555 1_555
N1 C1 1_555 1_555
N2 C4 1_555 1_555
O1 C11 1_555 1_555
O2 C9 1_555 1_555
O3 P1 1_555 1_555
O4 N1 1_555 1_555
O5 N1 1_555 1_555
O6 N2 1_555 1_555
O7 N2 1_555 1_555
P1 C1 1_555 1_555
O1 P1 1_555 1_555
O2 P1 1_555 1_555

#END
