
#######################################################################
#
#                 Cambridge Crystallographic Data Centre
#                                CCDC 
#
#######################################################################
#
# If this CIF has been generated from an entry in the Cambridge 
# Structural Database, then it will include bibliographic, chemical, 
# crystal, experimental, refinement or atomic coordinate data resulting 
# from the CCDC's data processing and validation procedures.
#
#######################################################################

data_TAYGEH
_chemical_formula_moiety         'C28 H23 N1 O2 S1'
_chemical_name_systematic        
3-((4-Methylphenyl)sulfonyl)-6-(phenylethynyl)-1,2,3,4-tetrahydrobenzo[f]isoquinoline
_symmetry_cell_setting           monoclinic
_symmetry_space_group_name_H-M   'P 21/c'
_symmetry_Int_Tables_number      14
_space_group_name_Hall           '-P 2ybc'
loop_
_symmetry_equiv_pos_site_id
_symmetry_equiv_pos_as_xyz
1 x,y,z
2 -x,1/2+y,1/2-z
3 -x,-y,-z
4 x,1/2-y,1/2+z
_cell_length_a                   8.568(4)
_cell_length_b                   12.935(6)
_cell_length_c                   20.357(10)
_cell_angle_alpha                90
_cell_angle_beta                 100.261(5)
_cell_angle_gamma                90
_cell_volume                     2220.02
_exptl_crystal_colour            colorless
_exptl_crystal_description       block
_cell_formula_units_Z            4
loop_
_atom_site_label
_atom_site_type_symbol
_atom_site_fract_x
_atom_site_fract_y
_atom_site_fract_z
C1 C 0.0883(3) -0.21058(16) 0.07330(11)
H1 H 0.0044 -0.1744 0.0902
H2 H 0.0572 -0.2824 0.0661
C2 C 0.1133(3) -0.16229(15) 0.00819(11)
H3 H 0.1663 -0.2119 -0.0160
H4 H 0.0106 -0.1473 -0.0188
C3 C 0.2095(2) -0.06429(14) 0.01725(10)
C4 C 0.2805(2) -0.03267(15) 0.07977(10)
C5 C 0.2730(3) -0.09585(15) 0.14098(11)
H5 H 0.3738 -0.0921 0.1714
H6 H 0.1916 -0.0684 0.1637
C6 C 0.3679(2) 0.06047(15) 0.08839(11)
H7 H 0.4115 0.0821 0.1313
C7 C 0.3897(2) 0.11955(14) 0.03524(11)
C8 C 0.3266(2) 0.08595(14) -0.03122(10)
C9 C 0.3560(3) 0.13973(15) -0.08765(11)
H8 H 0.4178 0.1993 -0.0821
C10 C 0.2955(3) 0.10622(17) -0.15056(12)
H9 H 0.3167 0.1424 -0.1875
C11 C 0.2017(3) 0.01754(17) -0.15922(12)
H10 H 0.1588 -0.0046 -0.2021
C12 C 0.1723(3) -0.03697(17) -0.10573(11)
H11 H 0.1104 -0.0964 -0.1128
C13 C 0.2333(2) -0.00583(14) -0.03964(10)
C14 C 0.4758(3) 0.21555(15) 0.04499(11)
C15 C 0.5377(3) 0.29819(15) 0.05160(11)
C16 C 0.6102(2) 0.39872(15) 0.05787(10)
C17 C 0.7115(3) 0.42911(16) 0.01531(11)
H12 H 0.7321 0.3846 -0.0180
C18 C 0.7819(3) 0.52582(18) 0.02245(12)
H13 H 0.8514 0.5456 -0.0055
C19 C 0.7495(3) 0.59237(18) 0.07055(13)
H14 H 0.7971 0.6572 0.0752
C20 C 0.6471(3) 0.56384(17) 0.11189(12)
H15 H 0.6244 0.6098 0.1441
C21 C 0.5779(3) 0.46762(15) 0.10605(11)
H16 H 0.5092 0.4486 0.1345
C22 C 0.1337(3) -0.26629(16) 0.23491(10)
C23 C -0.0075(3) -0.31986(16) 0.22758(11)
H17 H -0.0284 -0.3729 0.1964
C24 C -0.1177(3) -0.29428(17) 0.26673(11)
H18 H -0.2118 -0.3316 0.2623
C25 C -0.0911(3) -0.21440(18) 0.31234(11)
C26 C 0.0518(3) -0.16245(19) 0.31940(12)
H19 H 0.0722 -0.1090 0.3503
C27 C 0.1645(3) -0.18793(18) 0.28173(12)
H20 H 0.2607 -0.1528 0.2877
C28 C -0.2154(4) -0.1836(2) 0.35247(14)
H21 H -0.3171 -0.2084 0.3307
H22 H -0.2184 -0.1096 0.3559
H23 H -0.1898 -0.2131 0.3963
N1 N 0.2368(2) -0.20396(12) 0.12204(9)
O1 O 0.42647(19) -0.27156(13) 0.21739(8)
O2 O 0.2326(2) -0.38915(11) 0.15050(8)
S1 S 0.26998(7) -0.29093(4) 0.18167(3)
loop_
_geom_bond_atom_site_label_1
_geom_bond_atom_site_label_2
_geom_bond_site_symmetry_1
_geom_bond_site_symmetry_2
C1 H1 1_555 1_555
H2 C1 1_555 1_555
C2 C1 1_555 1_555
H3 C2 1_555 1_555
H4 C2 1_555 1_555
C3 C2 1_555 1_555
C4 C3 1_555 1_555
C5 C4 1_555 1_555
H5 C5 1_555 1_555
H6 C5 1_555 1_555
C6 C4 1_555 1_555
H7 C6 1_555 1_555
C7 C6 1_555 1_555
C8 C7 1_555 1_555
C9 C8 1_555 1_555
H8 C9 1_555 1_555
C10 C9 1_555 1_555
H9 C10 1_555 1_555
C11 C10 1_555 1_555
H10 C11 1_555 1_555
C12 C11 1_555 1_555
H11 C12 1_555 1_555
C13 C3 1_555 1_555
C14 C7 1_555 1_555
C15 C14 1_555 1_555
C16 C15 1_555 1_555
C17 C16 1_555 1_555
H12 C17 1_555 1_555
C18 C17 1_555 1_555
H13 C18 1_555 1_555
C19 C18 1_555 1_555
H14 C19 1_555 1_555
C20 C19 1_555 1_555
H15 C20 1_555 1_555
C21 C16 1_555 1_555
H16 C21 1_555 1_555
C22 C23 1_555 1_555
C23 H17 1_555 1_555
C24 C23 1_555 1_555
H18 C24 1_555 1_555
C25 C24 1_555 1_555
C26 C25 1_555 1_555
H19 C26 1_555 1_555
C27 C22 1_555 1_555
H20 C27 1_555 1_555
C28 C25 1_555 1_555
H21 C28 1_555 1_555
H22 C28 1_555 1_555
H23 C28 1_555 1_555
N1 C1 1_555 1_555
O1 S1 1_555 1_555
O2 S1 1_555 1_555
S1 C22 1_555 1_555
C5 N1 1_555 1_555
C8 C13 1_555 1_555
C12 C13 1_555 1_555
C20 C21 1_555 1_555
C26 C27 1_555 1_555
N1 S1 1_555 1_555

#END
