
#######################################################################
#
#                 Cambridge Crystallographic Data Centre
#                                CCDC 
#
#######################################################################
#
# If this CIF has been generated from an entry in the Cambridge 
# Structural Database, then it will include bibliographic, chemical, 
# crystal, experimental, refinement or atomic coordinate data resulting 
# from the CCDC's data processing and validation procedures.
#
#######################################################################

data_TAYKOV
_chemical_formula_moiety         'C17 H25 F1 N2 O2'
_chemical_name_systematic        N,N-Diethyl-N^2^-(3-fluorobenzoyl)leucinamide
_symmetry_cell_setting           monoclinic
_symmetry_space_group_name_H-M   'C 2/c'
_symmetry_Int_Tables_number      15
_space_group_name_Hall           '-C 2yn'
loop_
_symmetry_equiv_pos_site_id
_symmetry_equiv_pos_as_xyz
1 x,y,z
2 -x,y,1/2-z
3 1/2+x,1/2+y,z
4 1/2-x,1/2+y,1/2-z
5 -x,-y,-z
6 x,-y,1/2+z
7 1/2-x,1/2-y,-z
8 1/2+x,1/2-y,1/2+z
_cell_length_a                   19.3915(10)
_cell_length_b                   10.4357(4)
_cell_length_c                   19.7220(15)
_cell_angle_alpha                90
_cell_angle_beta                 118.288(7)
_cell_angle_gamma                90
_cell_volume                     3514.4
_exptl_crystal_colour            colorless
_exptl_crystal_description       parallelepiped
_cell_formula_units_Z            8
loop_
_atom_site_label
_atom_site_type_symbol
_atom_site_fract_x
_atom_site_fract_y
_atom_site_fract_z
F1 F -0.08636(15) 0.45215(19) 0.40862(16)
O1 O 0.17150(8) 0.42902(11) 0.32924(8)
O2 O 0.03079(7) 0.12614(11) 0.17649(6)
N1 N 0.09437(8) 0.25919(12) 0.31608(8)
N2 N 0.14897(8) 0.12509(12) 0.18021(7)
C1 C 0.06685(12) 0.59774(17) 0.34486(12)
H1 H 0.1016 0.6338 0.3287
C2 C 0.02027(14) 0.67644(19) 0.36268(14)
C3 C -0.03032(13) 0.6274(2) 0.38647(13)
H2 H -0.0623 0.6823 0.3982
C4 C -0.03339(13) 0.4976(2) 0.39282(14)
C5 C 0.01218(11) 0.41582(18) 0.37566(12)
H3 H 0.0091 0.3258 0.3809
C6 C 0.06240(10) 0.46571(15) 0.35077(9)
C7 C 0.11405(10) 0.38325(15) 0.33081(9)
C8 C 0.14208(9) 0.17020(14) 0.29952(9)
H4 H 0.1941 0.2106 0.3148
C9 C 0.10279(9) 0.13952(14) 0.21340(9)
C10 C 0.11255(11) 0.10069(16) 0.09719(9)
H5 H 0.1441 0.1425 0.0761
H6 H 0.0597 0.1397 0.0719
C11 C 0.10557(13) -0.04080(17) 0.07822(12)
H7 H 0.0810 -0.0520 0.0223
H8 H 0.0734 -0.0824 0.0980
H9 H 0.1578 -0.0796 0.1021
C12 C 0.23464(10) 0.13425(16) 0.22065(10)
H10 H 0.2564 0.0754 0.1962
H11 H 0.2545 0.1067 0.2748
C13 C 0.26277(12) 0.26956(17) 0.21935(12)
H12 H 0.3201 0.2717 0.2472
H13 H 0.2419 0.3280 0.2441
H14 H 0.2445 0.2963 0.1659
C14 C 0.15479(10) 0.04547(15) 0.34457(9)
H15 H 0.1030 0.0088 0.3321
H16 H 0.1818 -0.0164 0.3271
C15 C 0.20242(11) 0.06018(16) 0.43178(10)
H17 H 0.1726 0.1173 0.4493
C16 C 0.21232(14) -0.06936(18) 0.47088(12)
H18 H 0.1607 -0.1076 0.4548
H19 H 0.2393 -0.0578 0.5269
H20 H 0.2433 -0.1260 0.4561
C17 C 0.28174(12) 0.1215(2) 0.45559(12)
H21 H 0.2743 0.2044 0.4298
H22 H 0.3129 0.0653 0.4408
H23 H 0.3091 0.1341 0.5115
H24 H 0.0520(11) 0.2317(16) 0.3171(10)
F2? F 0.0155(3) 0.7908(4) 0.3502(4)
loop_
_geom_bond_atom_site_label_1
_geom_bond_atom_site_label_2
_geom_bond_site_symmetry_1
_geom_bond_site_symmetry_2
F1 C4 1_555 1_555
O1 C7 1_555 1_555
O2 C9 1_555 1_555
N1 C7 1_555 1_555
N2 C9 1_555 1_555
C1 H1 1_555 1_555
C2 C1 1_555 1_555
C3 C2 1_555 1_555
H2 C3 1_555 1_555
C4 C3 1_555 1_555
C5 C4 1_555 1_555
H3 C5 1_555 1_555
C6 C1 1_555 1_555
C7 C6 1_555 1_555
C8 N1 1_555 1_555
H4 C8 1_555 1_555
C9 C8 1_555 1_555
C10 N2 1_555 1_555
H5 C10 1_555 1_555
H6 C10 1_555 1_555
C11 C10 1_555 1_555
H7 C11 1_555 1_555
H8 C11 1_555 1_555
H9 C11 1_555 1_555
C12 N2 1_555 1_555
H10 C12 1_555 1_555
H11 C12 1_555 1_555
C13 C12 1_555 1_555
H12 C13 1_555 1_555
H13 C13 1_555 1_555
H14 C13 1_555 1_555
C14 C8 1_555 1_555
H15 C14 1_555 1_555
H16 C14 1_555 1_555
C15 C14 1_555 1_555
H17 C15 1_555 1_555
C16 C15 1_555 1_555
H18 C16 1_555 1_555
H19 C16 1_555 1_555
H20 C16 1_555 1_555
C17 C15 1_555 1_555
H21 C17 1_555 1_555
H22 C17 1_555 1_555
H23 C17 1_555 1_555
H24 N1 1_555 1_555
C5 C6 1_555 1_555

#END
