
#######################################################################
#
#                 Cambridge Crystallographic Data Centre
#                                CCDC 
#
#######################################################################
#
# If this CIF has been generated from an entry in the Cambridge 
# Structural Database, then it will include bibliographic, chemical, 
# crystal, experimental, refinement or atomic coordinate data resulting 
# from the CCDC's data processing and validation procedures.
#
#######################################################################

data_TAYKIP
_chemical_formula_moiety         'C17 H25 Br1 N2 O2'
_chemical_name_systematic        N^2^-(3-Bromobenzoyl)-N,N-diethylleucinamide
_symmetry_cell_setting           monoclinic
_symmetry_space_group_name_H-M   'C 2/c'
_symmetry_Int_Tables_number      15
_space_group_name_Hall           '-C 2yn'
loop_
_symmetry_equiv_pos_site_id
_symmetry_equiv_pos_as_xyz
1 x,y,z
2 -x,y,1/2-z
3 1/2+x,1/2+y,z
4 1/2-x,1/2+y,1/2-z
5 -x,-y,-z
6 x,-y,1/2+z
7 1/2-x,1/2-y,-z
8 1/2+x,1/2-y,1/2+z
_cell_length_a                   19.4581(12)
_cell_length_b                   10.7052(4)
_cell_length_c                   19.6599(15)
_cell_angle_alpha                90
_cell_angle_beta                 118.389(9)
_cell_angle_gamma                90
_cell_volume                     3602.72
_exptl_crystal_colour            colorless
_exptl_crystal_description       parallelepiped
_cell_formula_units_Z            8
loop_
_atom_site_label
_atom_site_type_symbol
_atom_site_fract_x
_atom_site_fract_y
_atom_site_fract_z
Br1 Br 0.49364(2) 0.28667(4) 0.15248(2)
C1 C 0.4442(2) 0.0417(3) 0.1585(3)
H1 H 0.4140 0.0826 0.1782
C2 C 0.4913(2) 0.1120(3) 0.1374(2)
C3 C 0.5369(3) 0.0569(4) 0.1094(3)
H2 H 0.5695 0.1069 0.0966
C4 C 0.5351(3) -0.0715(4) 0.0999(3)
H3 H 0.5634 -0.1115 0.0778
C5 C 0.4890(9) -0.1397(9) 0.1245(11)
H4 H 0.4908 -0.2283 0.1229
O1 O 0.33412(8) -0.11271(13) 0.17725(9)
O2 O 0.46918(8) -0.42022(13) 0.32230(9)
N1 N 0.40537(10) -0.28367(19) 0.18641(10)
H5 H 0.4430(9) -0.3143(17) 0.1845(10)
N2 N 0.35281(9) -0.42410(16) 0.32247(11)
C6 C 0.44089(12) -0.0860(2) 0.15111(13)
C7 C 0.38913(13) -0.1632(2) 0.17296(13)
C8 C 0.35653(11) -0.36776(19) 0.20307(13)
H6 H 0.3069 -0.3235 0.1915
C9 C 0.39738(13) -0.40480(19) 0.28763(14)
C10 C 0.39001(13) -0.4561(2) 0.40414(14)
H7 H 0.3695 -0.4001 0.4304
H8 H 0.4468 -0.4405 0.4268
C11 C 0.37769(14) -0.5893(2) 0.42015(16)
H9 H 0.4045 -0.6039 0.4761
H10 H 0.3988 -0.6456 0.3954
H11 H 0.3217 -0.6051 0.3994
C12 C 0.26747(11) -0.4075(2) 0.28361(14)
H12 H 0.2445 -0.4678 0.3054
H13 H 0.2461 -0.4265 0.2279
C13 C 0.24307(13) -0.2754(2) 0.29244(14)
H14 H 0.1860 -0.2692 0.2651
H15 H 0.2651 -0.2153 0.2705
H16 H 0.2625 -0.2571 0.3474
C14 C 0.33630(12) -0.4850(2) 0.15249(13)
H17 H 0.3854 -0.5288 0.1638
H18 H 0.3052 -0.5417 0.1670
C15 C 0.29107(14) -0.4601(2) 0.06632(15)
H19 H 0.3220(11) -0.4136(18) 0.0536(12)
C16 C 0.27424(13) -0.5810(2) 0.02085(14)
H20 H 0.3213 -0.6332 0.0427
H21 H 0.2588 -0.5621 -0.0333
H22 H 0.2318 -0.6257 0.0238
C17 C 0.2209(6) -0.3717(11) 0.0381(6)
H23 H 0.2361 -0.2959 0.0699
H24 H 0.1782 -0.4133 0.0424
H25 H 0.2034 -0.3493 -0.0160
Br2? Br 0.59805(5) -0.09907(10) 0.08162(6)
C18? C 0.485(2) -0.137(2) 0.120(3)
C19? C 0.2094(10) -0.4199(16) 0.0547(10)
C20? C 0.5300(8) -0.0363(10) 0.1153(8)
C21? C 0.5194(9) 0.0884(11) 0.1195(10)
C22? C 0.4666(6) 0.1316(11) 0.1428(7)
C23? C 0.4245(8) 0.0381(4) 0.1590(10)
H26? H 0.4857 -0.2206 0.1044
H27? H 0.1882 -0.4857 0.0739
H28? H 0.1742 -0.4062 -0.0005
H29? H 0.2145 -0.3424 0.0832
H30? H 0.5483 0.1463 0.1065
H31? H 0.4590 0.2182 0.1476
H32? H 0.3867 0.0595 0.1746
loop_
_geom_bond_atom_site_label_1
_geom_bond_atom_site_label_2
_geom_bond_site_symmetry_1
_geom_bond_site_symmetry_2
Br1 C2 1_555 1_555
C1 H1 1_555 1_555
C2 C1 1_555 1_555
C3 C2 1_555 1_555
H2 C3 1_555 1_555
C4 C3 1_555 1_555
H3 C4 1_555 1_555
C5 C4 1_555 1_555
H4 C5 1_555 1_555
O1 C7 1_555 1_555
O2 C9 1_555 1_555
N1 H5 1_555 1_555
N2 C9 1_555 1_555
C6 C1 1_555 1_555
C7 N1 1_555 1_555
C8 N1 1_555 1_555
H6 C8 1_555 1_555
C9 C8 1_555 1_555
C10 N2 1_555 1_555
H7 C10 1_555 1_555
H8 C10 1_555 1_555
C11 C10 1_555 1_555
H9 C11 1_555 1_555
H10 C11 1_555 1_555
H11 C11 1_555 1_555
C12 N2 1_555 1_555
H12 C12 1_555 1_555
H13 C12 1_555 1_555
C13 C12 1_555 1_555
H14 C13 1_555 1_555
H15 C13 1_555 1_555
H16 C13 1_555 1_555
C14 C8 1_555 1_555
H17 C14 1_555 1_555
H18 C14 1_555 1_555
C15 C14 1_555 1_555
H19 C15 1_555 1_555
C16 C15 1_555 1_555
H20 C16 1_555 1_555
H21 C16 1_555 1_555
H22 C16 1_555 1_555
C17 C15 1_555 1_555
H23 C17 1_555 1_555
H24 C17 1_555 1_555
H25 C17 1_555 1_555
C5 C6 1_555 1_555
C6 C7 1_555 1_555

#END
