
#######################################################################
#
#                 Cambridge Crystallographic Data Centre
#                                CCDC 
#
#######################################################################
#
# If this CIF has been generated from an entry in the Cambridge 
# Structural Database, then it will include bibliographic, chemical, 
# crystal, experimental, refinement or atomic coordinate data resulting 
# from the CCDC's data processing and validation procedures.
#
#######################################################################

data_TAYLIQ
_chemical_formula_moiety         'C17 H24 F2 N2 O2'
_chemical_name_systematic        
N^2^-(3,5-Difluorobenzoyl)-N,N-diethylleucinamide
_symmetry_cell_setting           monoclinic
_symmetry_space_group_name_H-M   'C 2/c'
_symmetry_Int_Tables_number      15
_space_group_name_Hall           '-C 2yn'
loop_
_symmetry_equiv_pos_site_id
_symmetry_equiv_pos_as_xyz
1 x,y,z
2 -x,y,1/2-z
3 1/2+x,1/2+y,z
4 1/2-x,1/2+y,1/2-z
5 -x,-y,-z
6 x,-y,1/2+z
7 1/2-x,1/2-y,-z
8 1/2+x,1/2-y,1/2+z
_cell_length_a                   19.3297(10)
_cell_length_b                   10.6105(4)
_cell_length_c                   19.6276(16)
_cell_angle_alpha                90
_cell_angle_beta                 118.316(7)
_cell_angle_gamma                90
_cell_volume                     3543.9
_exptl_crystal_colour            colorless
_exptl_crystal_description       parallelepiped
_cell_formula_units_Z            8
loop_
_atom_site_label
_atom_site_type_symbol
_atom_site_fract_x
_atom_site_fract_y
_atom_site_fract_z
F1 F -0.08317(5) 0.05715(8) 0.41537(6)
F2 F 0.02531(6) -0.29098(8) 0.35463(8)
O1 O 0.16903(4) 0.07566(8) 0.32452(5)
O2 O 0.03069(4) 0.37316(7) 0.17530(4)
N1 N 0.09472(5) 0.24533(8) 0.31601(5)
H1 H 0.0512(7) 0.2742(11) 0.3168(7)
N2 N 0.14911(5) 0.37769(8) 0.17916(5)
C1 C 0.01104(6) 0.09020(12) 0.37417(7)
H2 H 0.0073 0.1786 0.3793
C2 C -0.03366(7) 0.00866(13) 0.39127(8)
C3 C -0.03072(7) -0.11977(13) 0.38534(9)
H3 H -0.0625 -0.1746 0.3970
C4 C 0.02090(8) -0.16431(12) 0.36153(9)
C5 C 0.06749(7) -0.08863(11) 0.34382(8)
H4 H 0.1029 -0.1240 0.3282
C6 C 0.06173(6) 0.04149(10) 0.34931(6)
C7 C 0.11288(6) 0.12245(10) 0.32863(6)
C8 C 0.14261(6) 0.33205(10) 0.29892(6)
H5 H 0.1946 0.2915 0.3140
C9 C 0.10304(6) 0.36156(10) 0.21245(6)
C10 C 0.11259(7) 0.40323(11) 0.09585(7)
H6 H 0.0595 0.3651 0.0701
H7 H 0.1442 0.3628 0.0743
C11 C 0.10588(8) 0.54287(12) 0.07800(8)
H8 H 0.0813 0.5552 0.0219
H9 H 0.1584 0.5808 0.1024
H10 H 0.0736 0.5830 0.0981
C12 C 0.23539(6) 0.36847(11) 0.22001(7)
H11 H 0.2552 0.3942 0.2746
H12 H 0.2573 0.4274 0.1960
C13 C 0.26360(7) 0.23587(12) 0.21756(8)
H13 H 0.3212 0.2336 0.2457
H14 H 0.2454 0.2110 0.1636
H15 H 0.2425 0.1774 0.2418
C14 C 0.15660(6) 0.45459(10) 0.34452(7)
H16 H 0.1051 0.4927 0.3316
H17 H 0.1849 0.5142 0.3277
C15 C 0.20345(6) 0.43858(11) 0.43224(7)
H18 H 0.1717 0.3854 0.4492
C16 C 0.28173(7) 0.37233(14) 0.45688(7)
H19 H 0.3097 0.3639 0.5134
H20 H 0.3136 0.4220 0.4400
H21 H 0.2722 0.2885 0.4332
C17 C 0.21635(9) 0.56643(13) 0.47201(8)
H22 H 0.1655 0.6075 0.4557
H23 H 0.2490 0.6193 0.4576
H24 H 0.2429 0.5546 0.5283
loop_
_geom_bond_atom_site_label_1
_geom_bond_atom_site_label_2
_geom_bond_site_symmetry_1
_geom_bond_site_symmetry_2
F1 C2 1_555 1_555
F2 C4 1_555 1_555
O1 C7 1_555 1_555
O2 C9 1_555 1_555
N1 H1 1_555 1_555
N2 C9 1_555 1_555
C1 H2 1_555 1_555
C2 C1 1_555 1_555
C3 C2 1_555 1_555
H3 C3 1_555 1_555
C4 C3 1_555 1_555
C5 C4 1_555 1_555
H4 C5 1_555 1_555
C6 C1 1_555 1_555
C7 N1 1_555 1_555
C8 N1 1_555 1_555
H5 C8 1_555 1_555
C9 C8 1_555 1_555
C10 N2 1_555 1_555
H6 C10 1_555 1_555
H7 C10 1_555 1_555
C11 C10 1_555 1_555
H8 C11 1_555 1_555
H9 C11 1_555 1_555
H10 C11 1_555 1_555
C12 N2 1_555 1_555
H11 C12 1_555 1_555
H12 C12 1_555 1_555
C13 C12 1_555 1_555
H13 C13 1_555 1_555
H14 C13 1_555 1_555
H15 C13 1_555 1_555
C14 C8 1_555 1_555
H16 C14 1_555 1_555
H17 C14 1_555 1_555
C15 C14 1_555 1_555
H18 C15 1_555 1_555
C16 C15 1_555 1_555
H19 C16 1_555 1_555
H20 C16 1_555 1_555
H21 C16 1_555 1_555
C17 C15 1_555 1_555
H22 C17 1_555 1_555
H23 C17 1_555 1_555
H24 C17 1_555 1_555
C5 C6 1_555 1_555
C6 C7 1_555 1_555

#END
