
#######################################################################
#
#                 Cambridge Crystallographic Data Centre
#                                CCDC 
#
#######################################################################
#
# If this CIF has been generated from an entry in the Cambridge 
# Structural Database, then it will include bibliographic, chemical, 
# crystal, experimental, refinement or atomic coordinate data resulting 
# from the CCDC's data processing and validation procedures.
#
#######################################################################

data_TAYLUB
_chemical_formula_moiety         'C20 H22 N4 O1'
_chemical_name_systematic        
4-((1-(4-dimethylaminophenyl)methylidene)amino)-1,5-dimethyl-2-phenyl-1,2-dihydropyrazol-3-one
_symmetry_cell_setting           monoclinic
_symmetry_space_group_name_H-M   'C 2/c'
_symmetry_Int_Tables_number      15
_space_group_name_Hall           '-C 2yn'
loop_
_symmetry_equiv_pos_site_id
_symmetry_equiv_pos_as_xyz
1 x,y,z
2 1/2+x,1/2+y,z
3 -x,y,1/2-z
4 1/2-x,1/2+y,1/2-z
5 -x,-y,-z
6 1/2-x,1/2-y,-z
7 x,-y,1/2+z
8 1/2+x,1/2-y,1/2+z
_cell_length_a                   17.875(4)
_cell_length_b                   6.8775(16)
_cell_length_c                   29.747(7)
_cell_angle_alpha                90
_cell_angle_beta                 101.010(4)
_cell_angle_gamma                90
_cell_volume                     3589.65
_exptl_crystal_colour            yellow
_exptl_crystal_description       block
_cell_formula_units_Z            8
loop_
_atom_site_label
_atom_site_type_symbol
_atom_site_fract_x
_atom_site_fract_y
_atom_site_fract_z
O1 O 0.55503(14) 0.3614(3) 0.37538(8)
N1 N 0.58460(14) 0.0998(4) 0.33309(9)
N2 N 0.54710(15) -0.0727(3) 0.31590(9)
N3 N 0.41412(15) 0.0933(4) 0.38221(9)
N4 N 0.12227(19) 0.4057(6) 0.45740(11)
C1 C 0.54022(18) 0.1959(5) 0.35984(10)
C2 C 0.47813(17) 0.0654(5) 0.36250(10)
C3 C 0.48717(18) -0.0940(4) 0.33748(11)
C4 C 0.4388(2) -0.2723(5) 0.33074(13)
H1 H 0.4690 -0.3832 0.3424
H2 H 0.4189 -0.2901 0.2987
H3 H 0.3974 -0.2585 0.3468
C5 C 0.5989(2) -0.2336(5) 0.31035(12)
H4 H 0.6260 -0.2741 0.3399
H5 H 0.6346 -0.1908 0.2921
H6 H 0.5699 -0.3408 0.2954
C6 C 0.4020(2) 0.2552(5) 0.40101(11)
H7 H 0.4391 0.3518 0.4044
C7 C 0.3309(2) 0.2907(6) 0.41729(11)
C8 C 0.3146(2) 0.4752(6) 0.43193(12)
H8 H 0.3502 0.5743 0.4325
C9 C 0.2462(2) 0.5144(6) 0.44567(13)
H9 H 0.2366 0.6395 0.4550
C10 C 0.1913(2) 0.3684(6) 0.44573(11)
C11 C 0.2095(2) 0.1811(6) 0.43127(12)
H10 H 0.1748 0.0800 0.4307
C12 C 0.2775(2) 0.1473(6) 0.41816(12)
H11 H 0.2882 0.0220 0.4094
C13 C 0.1081(3) 0.5914(7) 0.47811(15)
H12 H 0.1404 0.6024 0.5077
H13 H 0.0557 0.5979 0.4813
H14 H 0.1188 0.6960 0.4589
C14 C 0.0669(2) 0.2517(7) 0.45777(14)
H15 H 0.0606 0.1803 0.4296
H16 H 0.0190 0.3072 0.4610
H17 H 0.0846 0.1655 0.4830
C15 C 0.62924(17) 0.1997(4) 0.30559(10)
C16 C 0.60923(17) 0.1996(4) 0.25850(11)
H18 H 0.5673 0.1284 0.2440
C17 C 0.65172(19) 0.3057(5) 0.23282(11)
H19 H 0.6385 0.3049 0.2010
C18 C 0.71364(19) 0.4128(5) 0.25424(12)
H20 H 0.7418 0.4856 0.2370
C19 C 0.73325(19) 0.4111(5) 0.30092(12)
H21 H 0.7751 0.4830 0.3154
C20 C 0.69191(19) 0.3042(5) 0.32698(11)
H22 H 0.7062 0.3027 0.3587
loop_
_geom_bond_atom_site_label_1
_geom_bond_atom_site_label_2
_geom_bond_site_symmetry_1
_geom_bond_site_symmetry_2
O1 C1 1_555 1_555
N1 N2 1_555 1_555
N2 C3 1_555 1_555
N3 C2 1_555 1_555
N4 C10 1_555 1_555
C1 N1 1_555 1_555
C2 C1 1_555 1_555
C3 C2 1_555 1_555
C4 C3 1_555 1_555
H1 C4 1_555 1_555
H2 C4 1_555 1_555
H3 C4 1_555 1_555
C5 N2 1_555 1_555
H4 C5 1_555 1_555
H5 C5 1_555 1_555
H6 C5 1_555 1_555
C6 N3 1_555 1_555
H7 C6 1_555 1_555
C7 C6 1_555 1_555
C8 C7 1_555 1_555
H8 C8 1_555 1_555
C9 C8 1_555 1_555
H9 C9 1_555 1_555
C10 C9 1_555 1_555
C11 C10 1_555 1_555
H10 C11 1_555 1_555
C12 C7 1_555 1_555
H11 C12 1_555 1_555
C13 N4 1_555 1_555
H12 C13 1_555 1_555
H13 C13 1_555 1_555
H14 C13 1_555 1_555
C14 N4 1_555 1_555
H15 C14 1_555 1_555
H16 C14 1_555 1_555
H17 C14 1_555 1_555
C15 N1 1_555 1_555
C16 C15 1_555 1_555
H18 C16 1_555 1_555
C17 C16 1_555 1_555
H19 C17 1_555 1_555
C18 C17 1_555 1_555
H20 C18 1_555 1_555
C19 C18 1_555 1_555
H21 C19 1_555 1_555
C20 C15 1_555 1_555
H22 C20 1_555 1_555
C11 C12 1_555 1_555
C19 C20 1_555 1_555

#END
