
#######################################################################
#
#                 Cambridge Crystallographic Data Centre
#                                CCDC 
#
#######################################################################
#
# If this CIF has been generated from an entry in the Cambridge 
# Structural Database, then it will include bibliographic, chemical, 
# crystal, experimental, refinement or atomic coordinate data resulting 
# from the CCDC's data processing and validation procedures.
#
#######################################################################

data_TAYMOY
_chemical_formula_moiety         'C32 H24 N4 O8'
_chemical_name_systematic        
(-)-3,10,18,25-tetraazanonacyclo[25.3.1.1^3,30^.1^10,13^.1^12,16^.1^15,18^.1^25,28^.0^4,9^.0^19,24^]hexatriaconta-1(31),12(35),13,15,27,29-hexaene-2,11,17,26,32,33,34,36-octone
_symmetry_cell_setting           triclinic
_symmetry_space_group_name_H-M   'P 1'
_symmetry_Int_Tables_number      1
_space_group_name_Hall           'P 1'
loop_
_symmetry_equiv_pos_site_id
_symmetry_equiv_pos_as_xyz
1 x,y,z
_cell_length_a                   6.9466(5)
_cell_length_b                   7.5493(5)
_cell_length_c                   13.1221(9)
_cell_angle_alpha                97.113(2)
_cell_angle_beta                 100.141(2)
_cell_angle_gamma                104.254(2)
_cell_volume                     646.386
_exptl_crystal_colour            colorless
_exptl_crystal_description       Plate
_cell_formula_units_Z            1
_exptl_crystal_recrystallization_method N,N-dimethylformamide/water
loop_
_atom_site_label
_atom_site_type_symbol
_atom_site_fract_x
_atom_site_fract_y
_atom_site_fract_z
C1 C 0.6911(4) 0.1499(3) 0.99212(17)
H1 H 0.6826 0.1555 1.0669
H2 H 0.6481 0.0177 0.9583
C2 C 0.9107(3) 0.2349(3) 0.98553(17)
H3 H 0.9969 0.1596 1.0159
H4 H 0.9601 0.3616 1.0278
C3 C 0.9316(3) 0.2445(3) 0.87239(17)
H5 H 0.8929 0.1177 0.8307
H6 H 1.0744 0.3055 0.8709
C4 C 0.7920(3) 0.3556(3) 0.82558(15)
H7 H 0.8269 0.4776 0.8739
C5 C 0.5695(3) 0.2527(3) 0.82525(15)
H8 H 0.5461 0.1209 0.7913
C6 C 0.5462(4) 0.2502(3) 0.93879(18)
H9 H 0.5780 0.3789 0.9772
H10 H 0.4042 0.1856 0.9398
C7 C 0.4459(3) 0.5180(3) 0.76072(16)
C8 C 0.3383(3) 0.5320(3) 0.65391(16)
C9 C 0.3466(3) 0.6883(3) 0.60808(16)
H11 H 0.4037 0.8108 0.6468
C10 C 0.2644(3) 0.6510(3) 0.50047(16)
C11 C 0.2710(3) 0.7825(3) 0.42374(17)
C12 C 0.1293(3) 0.4832(3) 0.32942(16)
C13 C 0.1777(3) 0.4720(3) 0.44410(15)
C14 C 0.1608(3) 0.3146(3) 0.49085(16)
H12 H 0.0959 0.1925 0.4531
C15 C 0.2475(3) 0.3524(3) 0.59785(16)
C16 C 0.2907(3) 0.2199(3) 0.66833(16)
C17 C 0.2449(3) 0.7465(3) 0.22951(15)
H13 H 0.3291 0.8781 0.2538
C18 C 0.3740(3) 0.6417(3) 0.17381(15)
H14 H 0.2822 0.5179 0.1369
C19 C 0.4477(3) 0.7479(3) 0.09003(16)
H15 H 0.5349 0.6858 0.0552
H16 H 0.5288 0.8759 0.1229
C20 C 0.2621(3) 0.7531(3) 0.00893(17)
H17 H 0.3083 0.8244 -0.0449
H18 H 0.1873 0.6250 -0.0269
C21 C 0.1196(4) 0.8415(3) 0.05971(18)
H19 H -0.0035 0.8320 0.0059
H20 H 0.1880 0.9750 0.0860
C22 C 0.0558(3) 0.7501(3) 0.15108(18)
H21 H -0.0238 0.8207 0.1865
H22 H -0.0312 0.6218 0.1239
C23 C 0.6635(3) 0.7408(3) 0.33582(15)
C24 C 0.7287(3) 0.6340(3) 0.41778(16)
C25 C 0.8181(3) 0.6992(3) 0.52369(15)
H23 H 0.8732 0.8274 0.5525
C26 C 0.8196(3) 0.5599(3) 0.58351(16)
C27 C 0.8735(3) 0.5776(3) 0.70072(16)
C28 C 0.7515(3) 0.2637(3) 0.62855(16)
C29 C 0.7465(3) 0.3719(3) 0.54051(15)
C30 C 0.6650(3) 0.3071(3) 0.43410(15)
H24 H 0.6203 0.1788 0.4044
C31 C 0.6545(3) 0.4454(3) 0.37496(15)
C32 C 0.5380(3) 0.4265(3) 0.26561(16)
N1 N 0.4239(3) 0.3287(2) 0.76062(14)
N2 N 0.2007(3) 0.6713(3) 0.32379(13)
N3 N 0.5379(2) 0.6082(2) 0.25047(13)
N4 N 0.8169(3) 0.3950(2) 0.72113(13)
O1 O 0.5400(2) 0.6426(2) 0.83273(12)
O2 O 0.2296(2) 0.0526(2) 0.65232(12)
O3 O 0.3273(2) 0.9493(2) 0.44061(12)
O4 O 0.0502(2) 0.3587(2) 0.25578(12)
O5 O 0.7036(2) 0.9066(2) 0.34093(12)
O6 O 0.4517(2) 0.2876(2) 0.20242(12)
O7 O 0.9454(2) 0.7159(2) 0.76634(12)
O8 O 0.7060(2) 0.0974(2) 0.62392(12)
loop_
_geom_bond_atom_site_label_1
_geom_bond_atom_site_label_2
_geom_bond_site_symmetry_1
_geom_bond_site_symmetry_2
C1 H1 1_555 1_555
H2 C1 1_555 1_555
C2 C1 1_555 1_555
H3 C2 1_555 1_555
H4 C2 1_555 1_555
C3 C2 1_555 1_555
H5 C3 1_555 1_555
H6 C3 1_555 1_555
C4 C3 1_555 1_555
H7 C4 1_555 1_555
C5 C4 1_555 1_555
H8 C5 1_555 1_555
C6 C1 1_555 1_555
H9 C6 1_555 1_555
H10 C6 1_555 1_555
C7 C8 1_555 1_555
C8 C9 1_555 1_555
C9 H11 1_555 1_555
C10 C9 1_555 1_555
C11 C10 1_555 1_555
C12 C13 1_555 1_555
C13 C10 1_555 1_555
C14 C13 1_555 1_555
H12 C14 1_555 1_555
C15 C8 1_555 1_555
C16 C15 1_555 1_555
C17 H13 1_555 1_555
C18 C17 1_555 1_555
H14 C18 1_555 1_555
C19 C18 1_555 1_555
H15 C19 1_555 1_555
H16 C19 1_555 1_555
C20 C19 1_555 1_555
H17 C20 1_555 1_555
H18 C20 1_555 1_555
C21 C20 1_555 1_555
H19 C21 1_555 1_555
H20 C21 1_555 1_555
C22 C17 1_555 1_555
H21 C22 1_555 1_555
H22 C22 1_555 1_555
C23 C24 1_555 1_555
C24 C25 1_555 1_555
C25 H23 1_555 1_555
C26 C25 1_555 1_555
C27 C26 1_555 1_555
C28 C29 1_555 1_555
C29 C26 1_555 1_555
C30 C29 1_555 1_555
H24 C30 1_555 1_555
C31 C24 1_555 1_555
C32 C31 1_555 1_555
N1 C5 1_555 1_555
N2 C11 1_555 1_555
N3 C18 1_555 1_555
N4 C4 1_555 1_555
O1 C7 1_555 1_555
O2 C16 1_555 1_555
O3 C11 1_555 1_555
O4 C12 1_555 1_555
O5 C23 1_555 1_555
O6 C32 1_555 1_555
O7 C27 1_555 1_555
O8 C28 1_555 1_555
C5 C6 1_555 1_555
C7 N1 1_555 1_555
C12 N2 1_555 1_555
C14 C15 1_555 1_555
C16 N1 1_555 1_555
C17 N2 1_555 1_555
C21 C22 1_555 1_555
C23 N3 1_555 1_555
C27 N4 1_555 1_555
C28 N4 1_555 1_555
C30 C31 1_555 1_555
C32 N3 1_555 1_555

#END
