
#######################################################################
#
#                 Cambridge Crystallographic Data Centre
#                                CCDC 
#
#######################################################################
#
# If this CIF has been generated from an entry in the Cambridge 
# Structural Database, then it will include bibliographic, chemical, 
# crystal, experimental, refinement or atomic coordinate data resulting 
# from the CCDC's data processing and validation procedures.
#
#######################################################################

data_TAYMAJ
_chemical_formula_moiety         'C23 H17 Cl1 N2 O4 S1'
_chemical_name_systematic        
'Ethyl 5-(4-chlorophenyl)-2,6-dioxo-1,2,3,5-tetrahydro-6H-imidazo[1,2-a]thiochromeno[3,2-e]pyridine-4-carboxylate'
_symmetry_cell_setting           triclinic
_symmetry_space_group_name_H-M   'P -1'
_symmetry_Int_Tables_number      2
_space_group_name_Hall           '-P 1'
loop_
_symmetry_equiv_pos_site_id
_symmetry_equiv_pos_as_xyz
1 x,y,z
2 -x,-y,-z
_cell_length_a                   7.704(2)
_cell_length_b                   10.658(4)
_cell_length_c                   12.436(4)
_cell_angle_alpha                82.415(10)
_cell_angle_beta                 81.991(11)
_cell_angle_gamma                78.422(9)
_cell_volume                     984.864
_exptl_crystal_colour            colorless
_exptl_crystal_description       block
_cell_formula_units_Z            2
loop_
_atom_site_label
_atom_site_type_symbol
_atom_site_fract_x
_atom_site_fract_y
_atom_site_fract_z
Cl1 Cl 0.63396(7) 0.61646(5) 0.13122(5)
S1 S 0.33078(6) -0.08139(4) 0.11126(3)
O1 O -0.01009(18) 0.29764(13) 0.03038(10)
O2 O 0.38709(19) -0.17387(14) 0.54346(11)
O3 O -0.02859(17) 0.22141(12) 0.54261(10)
O4 O -0.10556(17) 0.38369(12) 0.41235(10)
N1 N 0.28615(19) 0.01276(14) 0.29825(11)
N2 N 0.2192(2) 0.01716(14) 0.47781(11)
H1 H 0.1715 0.0451 0.5408
C1 C 0.1559(2) 0.10590(17) -0.03324(13)
C2 C 0.1066(2) 0.14768(19) -0.13876(14)
H2 H 0.0375 0.2312 -0.1532
C3 C 0.1577(3) 0.0686(2) -0.22141(15)
H3 H 0.1234 0.0978 -0.2923
C4 C 0.2596(3) -0.0540(2) -0.20111(15)
H4 H 0.2930 -0.1086 -0.2580
C5 C 0.3121(2) -0.09635(19) -0.09920(15)
H5 H 0.3832 -0.1794 -0.0859
C6 C 0.2600(2) -0.01613(17) -0.01490(14)
C7 C 0.2478(2) 0.04384(16) 0.19071(13)
C8 C 0.1497(2) 0.16073(16) 0.15996(13)
C9 C 0.0914(2) 0.19527(17) 0.05204(14)
C10 C 0.3762(2) -0.11139(17) 0.34726(14)
H6 H 0.5065 -0.1249 0.3250
H7 H 0.3283 -0.1835 0.3271
C11 C 0.3327(2) -0.09802(18) 0.46864(14)
C12 C 0.1872(2) 0.08515(17) 0.37800(13)
C13 C 0.0838(2) 0.20082(16) 0.35585(13)
C14 C 0.0943(2) 0.26356(16) 0.23903(13)
H8 H -0.0269 0.3127 0.2253
C15 C 0.2254(2) 0.35725(16) 0.21646(13)
C16 C 0.3843(2) 0.32960(17) 0.26321(14)
H9 H 0.4073 0.2548 0.3136
C17 C 0.5102(2) 0.40892(18) 0.23781(16)
H10 H 0.6188 0.3885 0.2698
C18 C 0.4746(2) 0.51810(18) 0.16522(15)
C19 C 0.3162(3) 0.54934(18) 0.11892(16)
H11 H 0.2928 0.6253 0.0698
C20 C 0.1922(3) 0.46916(17) 0.14470(15)
H12 H 0.0832 0.4906 0.1132
C21 C -0.0192(2) 0.26678(16) 0.44616(14)
C22 C -0.2184(3) 0.45724(19) 0.49549(16)
H13 H -0.1485 0.4658 0.5543
H14 H -0.3186 0.4139 0.5280
C23 C -0.2872(3) 0.5872(2) 0.43851(18)
H15 H -0.3593 0.5774 0.3822
H16 H -0.1864 0.6275 0.4044
H17 H -0.3608 0.6417 0.4917
loop_
_geom_bond_atom_site_label_1
_geom_bond_atom_site_label_2
_geom_bond_site_symmetry_1
_geom_bond_site_symmetry_2
Cl1 C18 1_555 1_555
S1 C6 1_555 1_555
O1 C9 1_555 1_555
O2 C11 1_555 1_555
O3 C21 1_555 1_555
O4 C21 1_555 1_555
N1 C7 1_555 1_555
N2 H1 1_555 1_555
C1 C2 1_555 1_555
C2 H2 1_555 1_555
C3 C2 1_555 1_555
H3 C3 1_555 1_555
C4 C3 1_555 1_555
H4 C4 1_555 1_555
C5 C4 1_555 1_555
H5 C5 1_555 1_555
C6 C1 1_555 1_555
C7 S1 1_555 1_555
C8 C7 1_555 1_555
C9 C1 1_555 1_555
C10 N1 1_555 1_555
H6 C10 1_555 1_555
H7 C10 1_555 1_555
C11 N2 1_555 1_555
C12 N1 1_555 1_555
C13 C12 1_555 1_555
C14 C8 1_555 1_555
H8 C14 1_555 1_555
C15 C14 1_555 1_555
C16 C15 1_555 1_555
H9 C16 1_555 1_555
C17 C16 1_555 1_555
H10 C17 1_555 1_555
C18 C17 1_555 1_555
C19 C18 1_555 1_555
H11 C19 1_555 1_555
C20 C15 1_555 1_555
H12 C20 1_555 1_555
C21 C13 1_555 1_555
C22 O4 1_555 1_555
H13 C22 1_555 1_555
H14 C22 1_555 1_555
C23 C22 1_555 1_555
H15 C23 1_555 1_555
H16 C23 1_555 1_555
H17 C23 1_555 1_555
N2 C12 1_555 1_555
C5 C6 1_555 1_555
C8 C9 1_555 1_555
C10 C11 1_555 1_555
C13 C14 1_555 1_555
C19 C20 1_555 1_555

#END
