
#######################################################################
#
#                 Cambridge Crystallographic Data Centre
#                                CCDC 
#
#######################################################################
#
# If this CIF has been generated from an entry in the Cambridge 
# Structural Database, then it will include bibliographic, chemical, 
# crystal, experimental, refinement or atomic coordinate data resulting 
# from the CCDC's data processing and validation procedures.
#
#######################################################################

data_TAYPOA
_chemical_formula_moiety         'C28 H19 N1 O1'
_chemical_name_systematic        
3-(4-Methylphenyl)-4'H-spiro[benzo[e]isoindole-1,1'-naphthalen]-4'-one
_symmetry_cell_setting           monoclinic
_symmetry_space_group_name_H-M   'C 2'
_symmetry_Int_Tables_number      5
_space_group_name_Hall           'C 2y'
loop_
_symmetry_equiv_pos_site_id
_symmetry_equiv_pos_as_xyz
1 x,y,z
2 -x,y,-z
3 1/2+x,1/2+y,z
4 1/2-x,1/2+y,-z
_cell_length_a                   14.8671(5)
_cell_length_b                   11.2207(4)
_cell_length_c                   12.8259(5)
_cell_angle_alpha                90
_cell_angle_beta                 111.942(2)
_cell_angle_gamma                90
_cell_volume                     1984.62
_exptl_crystal_colour            colorless
_exptl_crystal_description       block
_cell_formula_units_Z            4
loop_
_atom_site_label
_atom_site_type_symbol
_atom_site_fract_x
_atom_site_fract_y
_atom_site_fract_z
C1 C 1.01091(14) 0.05435(18) 0.21194(16)
C2 C 1.06537(16) 0.1108(2) 0.15594(18)
H1 H 1.0667 0.1953 0.1524
C3 C 1.11616(17) 0.0444(2) 0.10679(19)
H2 H 1.1533 0.0832 0.0705
C4 C 1.11365(17) -0.0810(2) 0.1098(2)
H3 H 1.1486 -0.1261 0.0747
C5 C 1.06153(16) -0.1386(2) 0.16266(18)
H4 H 1.0601 -0.2232 0.1634
C6 C 1.00975(14) -0.07325(19) 0.21614(17)
C7 C 0.95699(15) -0.13180(19) 0.27370(17)
H5 H 0.9568 -0.2164 0.2758
C8 C 0.90636(15) -0.07014(17) 0.32631(17)
H6 H 0.8718 -0.1107 0.3646
C9 C 0.90724(14) 0.05615(18) 0.32172(17)
C10 C 0.95662(14) 0.11518(18) 0.26524(16)
C11 C 0.93891(14) 0.24809(17) 0.27168(17)
C12 C 0.89117(15) 0.30406(18) 0.15627(17)
C13 C 0.80963(15) 0.2493(2) 0.07776(19)
H7 H 0.7845 0.1787 0.0975
C14 C 0.76502(18) 0.2976(2) -0.02910(19)
H8 H 0.7096 0.2598 -0.0822
C15 C 0.80160(19) 0.4013(2) -0.0584(2)
H9 H 0.7713 0.4340 -0.1316
C16 C 0.8815(2) 0.4561(2) 0.0186(2)
H10 H 0.9059 0.5271 -0.0015
C17 C 0.92725(17) 0.40828(19) 0.12639(18)
C18 C 1.01529(19) 0.4674(2) 0.20630(19)
C19 C 1.06521(16) 0.40880(19) 0.31431(18)
H11 H 1.1243 0.4418 0.3648
C20 C 1.03061(15) 0.31030(18) 0.34447(17)
H12 H 1.0661 0.2774 0.4164
C21 C 0.85730(15) 0.14866(18) 0.36197(17)
C22 C 0.79721(14) 0.12681(17) 0.42988(16)
C23 C 0.71687(15) 0.19949(18) 0.41466(17)
H13 H 0.6990 0.2590 0.3578
C24 C 0.66310(15) 0.18548(18) 0.48178(18)
H14 H 0.6088 0.2357 0.4706
C25 C 0.68772(15) 0.09825(18) 0.56589(18)
C26 C 0.63090(18) 0.0821(2) 0.6409(2)
H15 H 0.6251 -0.0030 0.6541
H16 H 0.5661 0.1167 0.6045
H17 H 0.6647 0.1223 0.7129
C27 C 0.76768(15) 0.02637(18) 0.58056(17)
H18 H 0.7856 -0.0330 0.6375
C28 C 0.82208(14) 0.03976(18) 0.51323(16)
H19 H 0.8762 -0.0106 0.5243
N1 N 0.87199(13) 0.25579(16) 0.33424(15)
O1 O 1.04469(18) 0.56193(18) 0.18261(17)
loop_
_geom_bond_atom_site_label_1
_geom_bond_atom_site_label_2
_geom_bond_site_symmetry_1
_geom_bond_site_symmetry_2
C1 C2 1_555 1_555
C2 H1 1_555 1_555
C3 C2 1_555 1_555
H2 C3 1_555 1_555
C4 C3 1_555 1_555
H3 C4 1_555 1_555
C5 C4 1_555 1_555
H4 C5 1_555 1_555
C6 C1 1_555 1_555
C7 C6 1_555 1_555
H5 C7 1_555 1_555
C8 C7 1_555 1_555
H6 C8 1_555 1_555
C9 C8 1_555 1_555
C10 C1 1_555 1_555
C11 C10 1_555 1_555
C12 C11 1_555 1_555
C13 C12 1_555 1_555
H7 C13 1_555 1_555
C14 C13 1_555 1_555
H8 C14 1_555 1_555
C15 C14 1_555 1_555
H9 C15 1_555 1_555
C16 C15 1_555 1_555
H10 C16 1_555 1_555
C17 C12 1_555 1_555
C18 C17 1_555 1_555
C19 C18 1_555 1_555
H11 C19 1_555 1_555
C20 C11 1_555 1_555
H12 C20 1_555 1_555
C21 C9 1_555 1_555
C22 C21 1_555 1_555
C23 C22 1_555 1_555
H13 C23 1_555 1_555
C24 C23 1_555 1_555
H14 C24 1_555 1_555
C25 C24 1_555 1_555
C26 C25 1_555 1_555
H15 C26 1_555 1_555
H16 C26 1_555 1_555
H17 C26 1_555 1_555
C27 C25 1_555 1_555
H18 C27 1_555 1_555
C28 C22 1_555 1_555
H19 C28 1_555 1_555
N1 C11 1_555 1_555
O1 C18 1_555 1_555
C5 C6 1_555 1_555
C9 C10 1_555 1_555
C16 C17 1_555 1_555
C19 C20 1_555 1_555
C21 N1 1_555 1_555
C27 C28 1_555 1_555

#END
