
#######################################################################
#
#                 Cambridge Crystallographic Data Centre
#                                CCDC 
#
#######################################################################
#
# If this CIF has been generated from an entry in the Cambridge 
# Structural Database, then it will include bibliographic, chemical, 
# crystal, experimental, refinement or atomic coordinate data resulting 
# from the CCDC's data processing and validation procedures.
#
#######################################################################

data_TAYQUI
_chemical_formula_moiety         'C25 H22 O1 Si1'
_chemical_name_systematic        (benzyloxy)(triphenyl)silane
_symmetry_cell_setting           monoclinic
_symmetry_space_group_name_H-M   'P 21'
_symmetry_Int_Tables_number      4
_space_group_name_Hall           'P 2yb'
loop_
_symmetry_equiv_pos_site_id
_symmetry_equiv_pos_as_xyz
1 x,y,z
2 -x,1/2+y,-z
_cell_length_a                   6.8092(5)
_cell_length_b                   11.6553(7)
_cell_length_c                   12.6565(9)
_cell_angle_alpha                90
_cell_angle_beta                 99.921(8)
_cell_angle_gamma                90
_cell_volume                     989.441
_exptl_crystal_colour            colorless
_exptl_crystal_description       block
_cell_formula_units_Z            2
loop_
_atom_site_label
_atom_site_type_symbol
_atom_site_fract_x
_atom_site_fract_y
_atom_site_fract_z
Si1 Si -0.2979(2) -0.83663(14) -0.22221(11)
O1 O -0.1884(6) -0.8119(4) -0.3255(3)
C1 C -0.0494(10) -0.8910(6) -0.3581(5)
H1 H -0.1160 -0.9632 -0.3788
H2 H 0.0575 -0.9058 -0.2983
C2 C 0.0361(8) -0.8434(6) -0.4508(4)
C3 C 0.0275(9) -0.9052(6) -0.5451(5)
H3 H -0.0441 -0.9735 -0.5541
C4 C 0.1244(9) -0.8665(6) -0.6259(5)
H4 H 0.1202 -0.9097 -0.6880
C5 C 0.2263(10) -0.7646(6) -0.6147(5)
H5 H 0.2898 -0.7378 -0.6693
C6 C 0.2337(10) -0.7018(6) -0.5209(5)
H6 H 0.3038 -0.6330 -0.5125
C7 C 0.1385(10) -0.7402(6) -0.4404(5)
H7 H 0.1428 -0.6966 -0.3785
C8 C -0.4573(9) -0.7076(6) -0.2156(4)
C9 C -0.6010(9) -0.7054(6) -0.1486(5)
H8 H -0.6179 -0.7697 -0.1076
C10 C -0.7180(10) -0.6097(6) -0.1421(5)
H9 H -0.8123 -0.6098 -0.0970
C11 C -0.6941(10) -0.5128(6) -0.2038(5)
H10 H -0.7718 -0.4480 -0.1994
C12 C -0.5550(10) -0.5136(6) -0.2714(5)
H11 H -0.5404 -0.4496 -0.3131
C13 C -0.4377(9) -0.6089(6) -0.2770(5)
H12 H -0.3437 -0.6080 -0.3224
C14 C -0.5508(9) -0.9979(6) -0.3481(5)
H13 H -0.5399 -0.9494 -0.4051
C15 C -0.6686(10) -1.0950(6) -0.3656(6)
H14 H -0.7371 -1.1108 -0.4341
C16 C -0.6853(10) -1.1686(6) -0.2824(6)
H15 H -0.7656 -1.2335 -0.2947
C17 C -0.5818(11) -1.1457(6) -0.1799(6)
H16 H -0.5905 -1.1957 -0.1237
C18 C -0.4660(10) -1.0479(6) -0.1624(5)
H17 H -0.3986 -1.0324 -0.0935
C19 C -0.4473(9) -0.9719(5) -0.2449(5)
C20 C -0.1106(8) -0.8502(5) -0.0954(4)
C21 C 0.0279(10) -0.9392(6) -0.0791(5)
H18 H 0.0217 -0.9972 -0.1300
C22 C 0.1757(10) -0.9434(6) 0.0120(5)
H19 H 0.2686 -1.0026 0.0206
C23 C 0.1837(10) -0.8586(6) 0.0900(5)
H20 H 0.2813 -0.8612 0.1512
C24 C 0.0465(11) -0.7706(7) 0.0761(5)
H21 H 0.0510 -0.7140 0.1282
C25 C -0.0996(10) -0.7665(6) -0.0160(5)
H22 H -0.1912 -0.7066 -0.0246
loop_
_geom_bond_atom_site_label_1
_geom_bond_atom_site_label_2
_geom_bond_site_symmetry_1
_geom_bond_site_symmetry_2
Si1 O1 1_555 1_555
O1 C1 1_555 1_555
C1 H1 1_555 1_555
H2 C1 1_555 1_555
C2 C1 1_555 1_555
C3 C2 1_555 1_555
H3 C3 1_555 1_555
C4 C3 1_555 1_555
H4 C4 1_555 1_555
C5 C4 1_555 1_555
H5 C5 1_555 1_555
C6 C5 1_555 1_555
H6 C6 1_555 1_555
C7 C2 1_555 1_555
H7 C7 1_555 1_555
C8 Si1 1_555 1_555
C9 C8 1_555 1_555
H8 C9 1_555 1_555
C10 C9 1_555 1_555
H9 C10 1_555 1_555
C11 C10 1_555 1_555
H10 C11 1_555 1_555
C12 C11 1_555 1_555
H11 C12 1_555 1_555
C13 C8 1_555 1_555
H12 C13 1_555 1_555
C14 H13 1_555 1_555
C15 C14 1_555 1_555
H14 C15 1_555 1_555
C16 C15 1_555 1_555
H15 C16 1_555 1_555
C17 C16 1_555 1_555
H16 C17 1_555 1_555
C18 C17 1_555 1_555
H17 C18 1_555 1_555
C19 Si1 1_555 1_555
C20 Si1 1_555 1_555
C21 C20 1_555 1_555
H18 C21 1_555 1_555
C22 C21 1_555 1_555
H19 C22 1_555 1_555
C23 C22 1_555 1_555
H20 C23 1_555 1_555
C24 C23 1_555 1_555
H21 C24 1_555 1_555
C25 C20 1_555 1_555
H22 C25 1_555 1_555
C6 C7 1_555 1_555
C12 C13 1_555 1_555
C14 C19 1_555 1_555
C18 C19 1_555 1_555
C24 C25 1_555 1_555

#END
