
#######################################################################
#
#                 Cambridge Crystallographic Data Centre
#                                CCDC 
#
#######################################################################
#
# If this CIF has been generated from an entry in the Cambridge 
# Structural Database, then it will include bibliographic, chemical, 
# crystal, experimental, refinement or atomic coordinate data resulting 
# from the CCDC's data processing and validation procedures.
#
#######################################################################

data_TAYSUJ
_chemical_formula_moiety         'C84 H52'
_chemical_name_systematic        
9,11,13,14,15,16,18,20-Octaphenyldibenzo[de,c1d1]heptacene
_symmetry_cell_setting           triclinic
_symmetry_space_group_name_H-M   'P 1'
_symmetry_Int_Tables_number      1
_space_group_name_Hall           'P 1'
loop_
_symmetry_equiv_pos_site_id
_symmetry_equiv_pos_as_xyz
1 x,y,z
_cell_length_a                   6.4811(2)
_cell_length_b                   11.3196(3)
_cell_length_c                   39.0621(11)
_cell_angle_alpha                93.369(2)
_cell_angle_beta                 92.557(2)
_cell_angle_gamma                103.884(2)
_cell_volume                     2772.09
_exptl_crystal_colour            green
_exptl_crystal_description       plate
_cell_formula_units_Z            2
loop_
_atom_site_label
_atom_site_type_symbol
_atom_site_fract_x
_atom_site_fract_y
_atom_site_fract_z
C1 C 0.8212(8) 0.0816(4) 0.57957(11)
C2 C 0.7578(7) -0.0168(3) 0.69964(10)
C4 C 0.6716(10) 0.2551(4) 0.55892(12)
C6 C 0.8441(7) -0.1233(3) 0.69297(11)
C10 C 0.9156(7) -0.1435(4) 0.66012(12)
C11 C 0.6262(7) 0.1633(3) 0.68096(11)
C12 C 0.7857(8) 0.0293(4) 0.63968(11)
C14 C 0.8471(8) -0.2095(4) 0.72026(13)
C15 C 0.9962(8) -0.0355(4) 0.53964(11)
C20 C 0.7588(10) 0.1043(5) 0.61349(12)
H2 H 0.6979 0.1714 0.6183
C21 C 1.0123(8) -0.2490(4) 0.65285(11)
C23 C 0.7135(7) 0.0156(3) 0.73636(12)
C24 C 0.7192(7) 0.0542(4) 0.67402(12)
C26 C 0.5228(7) 0.0350(3) 0.74637(12)
H3 H 0.4055 0.0215 0.7299
C29 C 0.6484(9) 0.3639(4) 0.70584(12)
H5 H 0.7272 0.4342 0.7193
C31 C 0.9305(8) -0.0106(4) 0.57291(12)
C32 C 0.8866(9) -0.0681(4) 0.63291(13)
C34 C 0.8301(3) 0.1590(3) 0.45710(14)
C36 C 0.8880(8) 0.0382(4) 0.76069(12)
H7 H 1.0211 0.0253 0.7544
C37 C 0.9436(8) -0.0895(4) 0.60045(12)
H8 H 0.9949 -0.1602 0.5955
C38 C 0.6143(11) 0.5047(5) 0.46406(15)
H9 H 0.6812 0.5777 0.4775
C39 C 0.7401(8) 0.2651(4) 0.69936(12)
H10 H 0.8816 0.2696 0.7078
C42 C 1.2281(10) -0.2238(5) 0.64605(13)
H12 H 1.3072 -0.1414 0.6463
C45 C 0.7875(10) 0.1586(4) 0.55221(13)
C46 C 0.8976(9) -0.3700(4) 0.65396(11)
H13 H 0.7525 -0.3886 0.6594
C47 C 1.0372(7) -0.2383(4) 0.73047(11)
H14 H 1.1668 -0.2009 0.7208
C48 C 0.8599(7) 0.1340(4) 0.52045(14)
C49 C 0.6675(8) 0.0965(3) 0.80403(12)
H15 H 0.6508 0.1231 0.8270
C52 C 1.1126(9) -0.1319(4) 0.53289(11)
C56 C 0.4982(8) 0.0736(4) 0.77969(11)
H19 H 0.3639 0.0846 0.7860
C60 C 0.6578(7) -0.2672(3) 0.73428(11)
H22 H 0.5280 -0.2488 0.7269
C65 C 0.4465(9) 0.3602(4) 0.69302(13)
H26 H 0.3866 0.4282 0.6971
C72 C 1.2088(10) -0.4375(4) 0.64019(12)
H33 H 1.2765 -0.5024 0.6362
C77 C 0.8431(8) -0.3776(4) 0.76975(13)
H37 H 0.8430 -0.4326 0.7872
C78 C 0.3353(9) 0.2603(5) 0.67486(14)
H38 H 0.1936 0.2575 0.6668
C79 C 0.8628(9) 0.0797(4) 0.79409(12)
H39 H 0.9810 0.0970 0.8104
C82 C 0.6570(8) -0.3492(4) 0.75819(13)
H42 H 0.5261 -0.3880 0.7672
C83 C 0.9334(9) 0.0129(5) 0.41679(13)
C84 C 0.8013(10) -0.1109(6) 0.34494(15)
H43 H 0.8139 -0.1627 0.3628
C87 C 1.0332(8) -0.3218(4) 0.75471(12)
H45 H 1.1617 -0.3427 0.7615
C90 C 0.9507(12) -0.2022(5) 0.42274(16)
H48 H 0.8149 -0.2174 0.4321
C92 C 1.3277(10) -0.3162(5) 0.63895(15)
H50 H 1.4726 -0.2987 0.6334
C93 C 0.4190(8) 0.1589(4) 0.66720(15)
H51 H 0.3392 0.0900 0.6533
C94 C 0.7753(13) 0.2066(7) 0.33264(14)
C95 C 1.0392(10) -0.0868(5) 0.41252(13)
C96 C 0.7903(11) 0.1791(6) 0.39572(12)
C97 C 1.0010(10) -0.4635(4) 0.64688(13)
H52 H 0.9236 -0.5463 0.6468
C98 C 0.7447(10) 0.2279(7) 0.27103(13)
H53 H 0.7317 0.2756 0.2522
C99 C 0.6402(9) 0.3129(5) 0.43761(11)
C102 C 0.4612(11) 0.4425(6) 0.56968(16)
H55 H 0.3842 0.5032 0.5668
C103 C 1.3176(11) -0.3206(5) 0.52300(16)
H56 H 1.3949 -0.3742 0.5131
C104 C 0.6741(16) 0.4640(6) 0.5697(2)
H57 H 0.7539 0.5447 0.5764
C105 C 0.9693(5) 0.0421(4) 0.51419(15)
C108 C 1.0100(4) 0.0082(4) 0.47935(15)
H59 H 1.0841 -0.0538 0.4754
C109 C 0.8170(11) 0.0084(6) 0.35348(16)
C110 C 0.7865(15) 0.4099(8) 0.31053(16)
H60 H 0.7754 0.4596 0.2921
C113 C 1.3287(10) -0.1685(5) 0.39035(14)
H62 H 1.4543 -0.1591 0.3781
C117 C 1.2267(11) -0.0689(5) 0.39481(14)
H63 H 1.2855 0.0075 0.3859
C119 C 0.7520(12) 0.2148(6) 0.42926(14)
C120 C 0.8830(12) 0.2308(5) 0.49340(14)
H65 H 0.9215 0.3170 0.4979
C121 C 1.3049(11) -0.1212(5) 0.5441(3)
H66 H 1.3796 -0.0453 0.5553
C122 C 0.7262(11) 0.4144(6) 0.45661(13)
H67 H 0.8690 0.4274 0.4656
C123 C 0.8143(10) 0.3858(5) 0.37127(14)
H68 H 0.8310 0.4233 0.3940
C125 C 0.9419(5) 0.0653(4) 0.45071(15)
C130 C 0.3097(13) 0.3770(6) 0.43164(18)
H73 H 0.1637 0.3606 0.4241
C132 C 0.3710(14) 0.3272(7) 0.57417(17)
H75 H 0.2318 0.3076 0.5823
C133 C 1.0136(12) -0.2478(6) 0.5272(3)
H76 H 0.8628 -0.2699 0.5276
C135 C 0.7729(11) 0.0818(6) 0.32674(16)
C137 C 0.7671(12) -0.1623(7) 0.31086(16)
H79 H 0.7633 -0.2462 0.3065
C140 C 0.7396(13) 0.1063(7) 0.26503(17)
H82 H 0.7407 0.0745 0.2420
C144 C 0.7861(12) 0.2606(6) 0.36661(14)
C145 C 1.0524(15) -0.2955(7) 0.4198(2)
H86 H 0.9915 -0.3718 0.4286
C146 C 0.4053(13) 0.4844(6) 0.45136(14)
H87 H 0.3267 0.5438 0.4561
C147 C 0.8514(11) 0.0678(6) 0.38858(15)
C148 C 0.4259(12) 0.2965(5) 0.42340(16)
H88 H 0.3651 0.2278 0.4079
C153 C 0.7410(13) -0.0998(8) 0.28557(17)
H92 H 0.7274 -0.1349 0.2626
C154 C 0.8189(12) 0.4603(6) 0.34282(16)
H93 H 0.8451 0.5463 0.3469
C155 C 0.7909(14) 0.3756(6) 0.5606(3)
H94 H 0.9375 0.3973 0.5560
C156 C 0.7326(13) 0.0244(8) 0.29259(19)
C157 C 0.7680(12) 0.2801(7) 0.30334(15)
C159 C 1.2401(12) -0.2788(6) 0.40431(16)
H95 H 1.3117 -0.3428 0.4030
C161 C 1.4130(11) -0.2149(6) 0.5409(3)
H97 H 1.5523 -0.2036 0.5513
C162 C 1.1217(14) -0.3423(6) 0.5205(3)
H98 H 1.0412 -0.4230 0.5139
C164 C 0.4733(13) 0.2315(6) 0.56733(17)
H100 H 0.3970 0.1492 0.5689
C3 C 0.1465(6) 0.5845(4) 0.90403(11)
C5 C 0.0776(7) 0.4840(4) 1.02328(12)
C7 C 0.1064(6) 0.5310(4) 0.96219(11)
C8 C -0.0952(6) 0.6090(4) 1.06269(12)
C9 C 0.2263(6) 0.3194(3) 1.04381(11)
C13 C 0.2370(7) 0.4834(3) 0.89616(12)
C16 C 0.0114(8) 0.5059(4) 1.05656(13)
C17 C 0.2379(9) 0.2221(5) 1.23036(14)
C18 C 0.2647(7) 0.4085(3) 0.92268(11)
C19 C 0.4667(7) 0.4310(4) 0.85051(11)
H1 H 0.5858 0.4482 0.8667
C22 C 0.2699(6) 0.4466(3) 0.86047(10)
C25 C 0.2627(9) 0.2602(5) 1.16748(14)
C27 C 0.5600(7) 0.3024(4) 0.92780(11)
H4 H 0.6410 0.3726 0.9411
C28 C 0.1774(8) 0.3835(4) 1.01662(12)
C30 C 0.2087(8) 0.4332(4) 0.95568(13)
C33 C -0.0298(7) 0.7085(4) 0.94319(11)
C35 C 0.2405(7) 0.1983(4) 0.89526(11)
H6 H 0.1021 0.1969 0.8859
C40 C 0.0772(7) 0.6077(4) 0.93560(11)
C41 C 0.5924(10) 0.1865(5) 1.17193(14)
H11 H 0.6617 0.2617 1.1841
C43 C 0.1775(8) 0.4156(4) 1.20770(13)
C44 C 0.3352(7) 0.2169(4) 1.03737(11)
C50 C 0.2449(7) 0.3645(4) 0.98338(12)
H16 H 0.3185 0.3023 0.9794
C51 C 0.3575(8) 0.3020(4) 0.91577(11)
C53 C 0.1400(7) 0.6731(3) 0.87668(10)
C54 C 0.3191(8) 0.3667(4) 0.79249(12)
H17 H 0.3356 0.3379 0.7697
C55 C -0.2392(7) 0.6861(4) 0.95150(11)
H18 H -0.3179 0.6044 0.9530
C57 C 0.1041(7) 0.4241(4) 0.83514(11)
H20 H -0.0302 0.4358 0.8413
C58 C 0.0925(10) 0.4120(6) 1.14613(14)
C59 C -0.0438(8) 0.7033(3) 0.86544(12)
H21 H -0.1741 0.6643 0.8746
C61 C -0.2121(10) 0.7629(5) 1.19277(16)
H23 H -0.2813 0.8277 1.1954
C62 C 0.6160(9) -0.0064(6) 1.14502(17)
H24 H 0.6969 -0.0637 1.1392
C63 C 0.5314(8) 0.1027(4) 0.90173(12)
H25 H 0.5911 0.0350 0.8972
C64 C 0.0580(9) 0.4402(5) 1.08310(12)
C66 C 0.0381(9) 0.5519(4) 0.99620(12)
H27 H -0.0360 0.6138 1.0002
C67 C -0.3383(7) 0.7820(4) 0.95777(11)
H28 H -0.4831 0.7644 0.9634
C68 C 0.3299(8) 0.7272(4) 0.86277(13)
H29 H 0.4590 0.7078 0.8699
C69 C -0.0137(8) 0.9248(4) 0.94817(13)
H30 H 0.0654 1.0067 0.9470
C70 C -0.0472(8) 0.7887(4) 0.84128(12)
H31 H -0.1764 0.8083 0.8342
C71 C 0.4876(7) 0.3901(4) 0.81695(13)
H32 H 0.6212 0.3779 0.8106
C73 C 0.3272(8) 0.8132(4) 0.83733(12)
H34 H 0.4544 0.8495 0.8269
C74 C 0.0823(8) 0.8304(4) 0.94234(13)
H35 H 0.2287 0.8482 0.9376
C75 C 0.2534(12) 0.1983(7) 1.29202(17)
C76 C 0.2344(9) 0.1001(5) 1.0296(2)
H36 H 0.0846 0.0835 1.0252
C80 C 0.1397(9) 0.8429(4) 0.82812(11)
H40 H 0.1410 0.9030 0.8121
C81 C 0.1255(7) 0.3861(4) 0.80197(12)
H41 H 0.0086 0.3731 0.7855
C85 C -0.0107(10) 0.5729(5) 1.18441(14)
C86 C -0.0302(10) 0.7749(4) 1.17824(14)
H44 H 0.0361 0.8529 1.1710
C88 C 0.6512(9) 0.2059(4) 0.92151(13)
H46 H 0.7915 0.2090 0.9303
C89 C -0.2285(8) 0.9004(4) 0.95583(13)
H47 H -0.2966 0.9652 0.9596
C91 C 0.5334(10) 0.0285(4) 1.02419(13)
H49 H 0.6000 -0.0312 1.0148
C100 C 0.2795(12) 0.4489(6) 1.30567(15)
C101 C 0.3262(9) 0.0985(4) 0.88873(13)
H54 H 0.2455 0.0281 0.8755
C106 C 0.1696(10) 0.3445(5) 1.07614(13)
C107 C 0.2987(9) 0.0572(5) 1.13966(16)
H58 H 0.1556 0.0411 1.1305
C111 C 0.3868(9) 0.1672(5) 1.16035(15)
C112 C -0.3060(9) 0.7951(5) 1.07279(14)
H61 H -0.3786 0.8568 1.0685
C114 C 0.2535(10) 0.4025(6) 1.27165(14)
C115 C 0.0947(11) 0.4647(6) 1.18019(15)
C116 C 0.2363(9) 0.2996(5) 1.20193(16)
C118 C 0.5500(9) 0.2363(5) 1.0407(4)
H64 H 0.6327 0.3162 1.0476
C124 C 0.7058(10) 0.0946(7) 1.16595(16)
H69 H 0.8440 0.1040 1.1766
C126 C -0.4140(11) 0.6730(7) 1.07899(19)
H70 H -0.5533 0.6555 1.0871
C127 C 0.2554(11) 0.2951(6) 1.10594(14)
H71 H 0.3573 0.2482 1.1025
C128 C 0.2161(9) 0.4708(5) 1.24304(14)
C129 C -0.2083(10) 0.5529(5) 1.20061(19)
H72 H -0.2733 0.4757 1.2085
C131 C -0.3116(12) 0.5829(7) 1.07293(19)
H74 H -0.3844 0.5007 1.0755
C134 C 0.3051(12) 0.3776(8) 1.33370(16)
H77 H 0.3354 0.4167 1.3562
C136 C 0.2201(10) 0.0956(6) 1.22629(16)
H78 H 0.2129 0.0590 1.2036
C138 C 0.2161(14) 0.5948(6) 1.25156(19)
H80 H 0.1847 0.6428 1.2338
C139 C 0.4166(10) -0.0256(5) 1.13270(14)
H81 H 0.3541 -0.0981 1.1188
C141 C 0.0716(10) 0.6813(5) 1.17278(17)
H83 H 0.1988 0.6945 1.1608
C142 C -0.0920(10) 0.8149(5) 1.0736(3)
H84 H -0.0087 0.8967 1.0758
C143 C 0.2984(12) 0.5742(7) 1.3115(2)
H85 H 0.3379 0.6116 1.3340
C149 C 0.2599(11) 0.6477(5) 1.28449(18)
H89 H 0.2644 0.7316 1.2892
C150 C -0.2965(12) 0.6462(7) 1.2041(2)
H90 H -0.4271 0.6337 1.2151
C151 C 0.2128(10) 0.0239(5) 1.25245(16)
H91 H 0.1906 -0.0618 1.2479
C152 C 0.1914(13) 0.3146(6) 1.13997(18)
C158 C 0.2490(10) 0.2742(6) 1.26515(15)
C160 C 0.0106(10) 0.7221(5) 1.0715(3)
H96 H 0.1602 0.7397 1.0764
C163 C 0.2879(13) 0.2584(7) 1.3295(2)
H99 H 0.2964 0.2113 1.3486
C165 C 0.3238(11) 0.0004(7) 1.0274(2)
H101 H 0.2423 -0.0812 1.0281
C166 C 0.2382(11) 0.0751(5) 1.28744(17)
H102 H 0.2442 0.0265 1.3063
C167 C -0.0312(15) 0.4457(7) 1.11736(18)
H103 H -0.1604 0.4695 1.1205
C168 C 0.6542(12) 0.1441(6) 1.0345(4)
H104 H 0.8049 0.1601 1.0373
loop_
_geom_bond_atom_site_label_1
_geom_bond_atom_site_label_2
_geom_bond_site_symmetry_1
_geom_bond_site_symmetry_2
C1 C20 1_555 1_555
C2 C6 1_555 1_555
C3 C13 1_555 1_555
C4 C45 1_555 1_555
C5 C16 1_555 1_555
C6 C10 1_555 1_555
C7 C30 1_555 1_555
C8 C16 1_555 1_555
C9 C28 1_555 1_555
C10 C21 1_555 1_555
C11 C24 1_555 1_555
C12 C20 1_555 1_555
C13 C18 1_555 1_555
C14 C6 1_555 1_555
C15 C31 1_555 1_555
C16 C64 1_555 1_555
C17 C116 1_555 1_555
C18 C30 1_555 1_555
C19 H1 1_555 1_555
C20 H2 1_555 1_555
C21 C42 1_555 1_555
C22 C13 1_555 1_555
C23 C2 1_555 1_555
C24 C2 1_555 1_555
C25 C111 1_555 1_555
C26 C23 1_555 1_555
H3 C26 1_555 1_555
C27 H4 1_555 1_555
C28 C5 1_555 1_555
C29 H5 1_555 1_555
C30 C50 1_555 1_555
C31 C1 1_555 1_555
C32 C10 1_555 1_555
C33 C40 1_555 1_555
C34 C119 1_555 1_555
C35 H6 1_555 1_555
C36 C23 1_555 1_555
H7 C36 1_555 1_555
C37 C31 1_555 1_555
H8 C37 1_555 1_555
C38 H9 1_555 1_555
C39 C11 1_555 1_555
H10 C39 1_555 1_555
C40 C3 1_555 1_555
C41 H11 1_555 1_555
C42 H12 1_555 1_555
C43 C115 1_555 1_555
C44 C9 1_555 1_555
C45 C1 1_555 1_555
C46 C21 1_555 1_555
H13 C46 1_555 1_555
C47 C14 1_555 1_555
H14 C47 1_555 1_555
C48 C45 1_555 1_555
C49 H15 1_555 1_555
C50 C28 1_555 1_555
H16 C50 1_555 1_555
C51 C18 1_555 1_555
C52 C15 1_555 1_555
C53 C3 1_555 1_555
C54 H17 1_555 1_555
C55 C33 1_555 1_555
H18 C55 1_555 1_555
C56 C26 1_555 1_555
H19 C56 1_555 1_555
C57 C22 1_555 1_555
H20 C57 1_555 1_555
C58 C115 1_555 1_555
C59 C53 1_555 1_555
H21 C59 1_555 1_555
C60 C14 1_555 1_555
H22 C60 1_555 1_555
C61 H23 1_555 1_555
C62 H24 1_555 1_555
C63 H25 1_555 1_555
C64 C106 1_555 1_555
C65 C29 1_555 1_555
H26 C65 1_555 1_555
C66 C5 1_555 1_555
H27 C66 1_555 1_555
C67 C55 1_555 1_555
H28 C67 1_555 1_555
C68 C53 1_555 1_555
H29 C68 1_555 1_555
C69 H30 1_555 1_555
C70 C59 1_555 1_555
H31 C70 1_555 1_555
C71 C19 1_555 1_555
H32 C71 1_555 1_555
C72 H33 1_555 1_555
C73 C68 1_555 1_555
H34 C73 1_555 1_555
C74 C33 1_555 1_555
H35 C74 1_555 1_555
C75 C158 1_555 1_555
C76 C44 1_555 1_555
H36 C76 1_555 1_555
C77 H37 1_555 1_555
C78 C65 1_555 1_555
H38 C78 1_555 1_555
C79 C36 1_555 1_555
H39 C79 1_555 1_555
C80 C70 1_555 1_555
H40 C80 1_555 1_555
C81 C54 1_555 1_555
H41 C81 1_555 1_555
C82 C60 1_555 1_555
H42 C82 1_555 1_555
C83 C95 1_555 1_555
C84 H43 1_555 1_555
C85 C115 1_555 1_555
C86 C61 1_555 1_555
H44 C86 1_555 1_555
C87 C47 1_555 1_555
H45 C87 1_555 1_555
C88 C27 1_555 1_555
H46 C88 1_555 1_555
C89 C67 1_555 1_555
H47 C89 1_555 1_555
C90 H48 1_555 1_555
C91 H49 1_555 1_555
C92 C42 1_555 1_555
H50 C92 1_555 1_555
C93 C11 1_555 1_555
H51 C93 1_555 1_555
C94 C135 1_555 1_555
C95 C90 1_555 1_555
C96 C119 1_555 1_555
C97 C46 1_555 1_555
H52 C97 1_555 1_555
C98 H53 1_555 1_555
C99 C119 1_555 1_555
C100 C114 1_555 1_555
C101 C35 1_555 1_555
H54 C101 1_555 1_555
C102 H55 1_555 1_555
C103 H56 1_555 1_555
C104 C102 1_555 1_555
H57 C104 1_555 1_555
C105 C15 1_555 1_555
C106 C9 1_555 1_555
C107 H58 1_555 1_555
C108 C105 1_555 1_555
H59 C108 1_555 1_555
C109 C84 1_555 1_555
C110 H60 1_555 1_555
C111 C41 1_555 1_555
C112 H61 1_555 1_555
C113 H62 1_555 1_555
C114 C128 1_555 1_555
C116 C25 1_555 1_555
C117 C95 1_555 1_555
H63 C117 1_555 1_555
C118 C44 1_555 1_555
H64 C118 1_555 1_555
C120 C34 1_555 1_555
H65 C120 1_555 1_555
C121 C52 1_555 1_555
H66 C121 1_555 1_555
C122 C38 1_555 1_555
H67 C122 1_555 1_555
C123 H68 1_555 1_555
C124 C41 1_555 1_555
H69 C124 1_555 1_555
C125 C34 1_555 1_555
C126 C112 1_555 1_555
H70 C126 1_555 1_555
C127 C106 1_555 1_555
H71 C127 1_555 1_555
C128 C43 1_555 1_555
C129 C85 1_555 1_555
H72 C129 1_555 1_555
C130 H73 1_555 1_555
C131 C8 1_555 1_555
H74 C131 1_555 1_555
C132 C102 1_555 1_555
H75 C132 1_555 1_555
C133 C52 1_555 1_555
H76 C133 1_555 1_555
C134 C100 1_555 1_555
H77 C134 1_555 1_555
C135 C109 1_555 1_555
C136 C17 1_555 1_555
H78 C136 1_555 1_555
C137 C84 1_555 1_555
H79 C137 1_555 1_555
C138 C128 1_555 1_555
H80 C138 1_555 1_555
C139 C62 1_555 1_555
H81 C139 1_555 1_555
C140 C98 1_555 1_555
H82 C140 1_555 1_555
C141 C85 1_555 1_555
H83 C141 1_555 1_555
C142 C112 1_555 1_555
H84 C142 1_555 1_555
C143 C100 1_555 1_555
H85 C143 1_555 1_555
C144 C94 1_555 1_555
C145 C90 1_555 1_555
H86 C145 1_555 1_555
C146 C38 1_555 1_555
H87 C146 1_555 1_555
C147 C83 1_555 1_555
C148 C99 1_555 1_555
H88 C148 1_555 1_555
C149 C138 1_555 1_555
H89 C149 1_555 1_555
C150 C61 1_555 1_555
H90 C150 1_555 1_555
C151 C136 1_555 1_555
H91 C151 1_555 1_555
C152 C25 1_555 1_555
C153 C137 1_555 1_555
H92 C153 1_555 1_555
C154 C110 1_555 1_555
H93 C154 1_555 1_555
C155 C4 1_555 1_555
H94 C155 1_555 1_555
C156 C135 1_555 1_555
C157 C94 1_555 1_555
C158 C17 1_555 1_555
C159 C113 1_555 1_555
H95 C159 1_555 1_555
C160 C8 1_555 1_555
H96 C160 1_555 1_555
C161 C103 1_555 1_555
H97 C161 1_555 1_555
C162 C103 1_555 1_555
H98 C162 1_555 1_555
C163 C75 1_555 1_555
H99 C163 1_555 1_555
C164 C4 1_555 1_555
H100 C164 1_555 1_555
C165 C76 1_555 1_555
H101 C165 1_555 1_555
C166 C75 1_555 1_555
H102 C166 1_555 1_555
C167 C58 1_555 1_555
H103 C167 1_555 1_555
C168 C91 1_555 1_555
H104 C168 1_555 1_555
C7 C40 1_555 1_555
C7 C66 1_555 1_555
C12 C24 1_555 1_555
C12 C32 1_555 1_555
C19 C22 1_555 1_555
C27 C51 1_555 1_555
C29 C39 1_555 1_555
C32 C37 1_555 1_555
C35 C51 1_555 1_555
C43 C116 1_555 1_555
C48 C105 1_555 1_555
C48 C120 1_555 1_555
C49 C56 1_555 1_555
C49 C79 1_555 1_555
C54 C71 1_555 1_555
C57 C81 1_555 1_555
C58 C152 1_555 1_555
C62 C124 1_555 1_555
C63 C88 1_555 1_555
C63 C101 1_555 1_555
C64 C167 1_555 1_555
C69 C74 1_555 1_555
C69 C89 1_555 1_555
C72 C92 1_555 1_555
C72 C97 1_555 1_555
C73 C80 1_555 1_555
C77 C82 1_555 1_555
C77 C87 1_555 1_555
C78 C93 1_555 1_555
C83 C125 1_555 1_555
C86 C141 1_555 1_555
C91 C165 1_555 1_555
C96 C144 1_555 1_555
C96 C147 1_555 1_555
C98 C157 1_555 1_555
C99 C122 1_555 1_555
C104 C155 1_555 1_555
C107 C111 1_555 1_555
C107 C139 1_555 1_555
C108 C125 1_555 1_555
C109 C147 1_555 1_555
C110 C157 1_555 1_555
C113 C117 1_555 1_555
C114 C158 1_555 1_555
C118 C168 1_555 1_555
C121 C161 1_555 1_555
C123 C144 1_555 1_555
C123 C154 1_555 1_555
C126 C131 1_555 1_555
C127 C152 1_555 1_555
C129 C150 1_555 1_555
C130 C146 1_555 1_555
C130 C148 1_555 1_555
C132 C164 1_555 1_555
C133 C162 1_555 1_555
C134 C163 1_555 1_555
C140 C156 1_555 1_555
C142 C160 1_555 1_555
C143 C149 1_555 1_555
C145 C159 1_555 1_555
C151 C166 1_555 1_555
C153 C156 1_555 1_555

#END
