
#######################################################################
#
#                 Cambridge Crystallographic Data Centre
#                                CCDC 
#
#######################################################################
#
# If this CIF has been generated from an entry in the Cambridge 
# Structural Database, then it will include bibliographic, chemical, 
# crystal, experimental, refinement or atomic coordinate data resulting 
# from the CCDC's data processing and validation procedures.
#
#######################################################################

data_TAYVEV
_chemical_name_common            'o-Chloroaniline hydrobromide'
_chemical_formula_moiety         'C6 H7 Cl1 N1 1+,Br1 1-'
_chemical_name_systematic        '2-Chloroanilinium bromide'
_symmetry_cell_setting           orthorhombic
_symmetry_space_group_name_H-M   'P c a 21'
_symmetry_Int_Tables_number      29
_space_group_name_Hall           'P 2c -2ac'
loop_
_symmetry_equiv_pos_site_id
_symmetry_equiv_pos_as_xyz
1 x,y,z
2 -x,-y,1/2+z
3 1/2-x,y,1/2+z
4 1/2+x,-y,z
_cell_length_a                   16.187(5)
_cell_length_b                   5.409(5)
_cell_length_c                   8.992(5)
_cell_angle_alpha                90
_cell_angle_beta                 90
_cell_angle_gamma                90
_cell_volume                     787.299
_exptl_crystal_colour            colorless
_exptl_crystal_description       prism
_cell_formula_units_Z            4
loop_
_atom_site_label
_atom_site_type_symbol
_atom_site_fract_x
_atom_site_fract_y
_atom_site_fract_z
Br1 Br 0.02692(3) 0.18583(7) 0.53539(6)
Cl1 Cl 0.12240(9) 0.2713(2) 0.14263(16)
N1 N 0.0741(3) 0.6862(9) 0.3426(5)
H1 H 0.063(3) 0.827(9) 0.403(6)
H2 H 0.056(3) 0.554(10) 0.399(6)
H3 H 0.046(3) 0.711(10) 0.264(7)
C1 C 0.1920(3) 0.4743(9) 0.2259(5)
C2 C 0.2756(4) 0.4465(12) 0.2016(6)
H4 H 0.291(3) 0.313(9) 0.145(5)
C3 C 0.3285(5) 0.6059(16) 0.2686(10)
H5 H 0.374(3) 0.619(9) 0.248(5)
C4 C 0.3012(3) 0.7975(12) 0.3575(7)
H6 H 0.342(3) 0.932(11) 0.396(5)
C5 C 0.2167(3) 0.8236(11) 0.3812(5)
H7 H 0.192(3) 0.964(11) 0.442(6)
C6 C 0.1633(4) 0.6617(9) 0.3152(7)
loop_
_geom_bond_atom_site_label_1
_geom_bond_atom_site_label_2
_geom_bond_site_symmetry_1
_geom_bond_site_symmetry_2
Cl1 C1 1_555 1_555
N1 H1 1_555 1_555
H2 N1 1_555 1_555
H3 N1 1_555 1_555
C1 C2 1_555 1_555
C2 H4 1_555 1_555
C3 C2 1_555 1_555
H5 C3 1_555 1_555
C4 C3 1_555 1_555
H6 C4 1_555 1_555
C5 C4 1_555 1_555
H7 C5 1_555 1_555
C6 N1 1_555 1_555
C1 C6 1_555 1_555
C5 C6 1_555 1_555

#END
