
#######################################################################
#
#                 Cambridge Crystallographic Data Centre
#                                CCDC 
#
#######################################################################
#
# If this CIF has been generated from an entry in the Cambridge 
# Structural Database, then it will include bibliographic, chemical, 
# crystal, experimental, refinement or atomic coordinate data resulting 
# from the CCDC's data processing and validation procedures.
#
#######################################################################

data_TAYWUN
_chemical_formula_moiety         'C23 H22 O6'
_chemical_name_systematic        
'Dimethyl 3-(4-methoxyphenyl)-1,9b-dihydrocyclopenta[c]chromene-2,2(4H)-dicarboxylate'
_symmetry_cell_setting           monoclinic
_symmetry_space_group_name_H-M   'P 21/n'
_symmetry_Int_Tables_number      14
_space_group_name_Hall           '-P 2yn'
loop_
_symmetry_equiv_pos_site_id
_symmetry_equiv_pos_as_xyz
1 x,y,z
2 1/2-x,1/2+y,1/2-z
3 -x,-y,-z
4 1/2+x,1/2-y,1/2+z
_cell_length_a                   10.534(7)
_cell_length_b                   11.094(8)
_cell_length_c                   17.135(12)
_cell_angle_alpha                90
_cell_angle_beta                 92.188(8)
_cell_angle_gamma                90
_cell_volume                     2001.01
_exptl_crystal_colour            yellow
_exptl_crystal_description       block
_cell_formula_units_Z            4
loop_
_atom_site_label
_atom_site_type_symbol
_atom_site_fract_x
_atom_site_fract_y
_atom_site_fract_z
C1 C 0.6475(3) 0.1998(2) 0.13866(14)
C2 C 0.6270(3) 0.0767(3) 0.13456(17)
H1 H 0.5490 0.0451 0.1479
C3 C 0.7200(4) 0.0019(3) 0.11119(19)
H2 H 0.7059 -0.0808 0.1091
C4 C 0.8351(4) 0.0478(3) 0.09061(18)
H3 H 0.8985 -0.0036 0.0742
C5 C 0.8566(3) 0.1709(3) 0.09430(15)
H4 H 0.9345 0.2018 0.0802
C6 C 0.7626(3) 0.2488(2) 0.11895(14)
C7 C 0.7846(2) 0.3826(2) 0.12591(14)
H5 H 0.8442 0.3972 0.1703
C8 C 0.6642(2) 0.4490(2) 0.13988(13)
C9 C 0.5695(3) 0.3877(2) 0.18768(15)
H6 H 0.6007 0.3845 0.2416
H7 H 0.4909 0.4334 0.1857
C10 C 0.6605(2) 0.5576(2) 0.10693(12)
C11 C 0.7836(2) 0.5783(2) 0.06348(13)
C12 C 0.8333(3) 0.4482(2) 0.05477(15)
H8 H 0.8000 0.4118 0.0068
H9 H 0.9254 0.4468 0.0549
C13 C 0.5649(2) 0.6524(2) 0.12047(13)
C14 C 0.4944(2) 0.7099(2) 0.06146(13)
H10 H 0.5053 0.6877 0.0098
C15 C 0.4089(2) 0.7988(2) 0.07771(14)
H11 H 0.3635 0.8369 0.0372
C16 C 0.3901(2) 0.8318(2) 0.15423(14)
C17 C 0.4567(2) 0.7748(2) 0.21423(14)
H12 H 0.4436 0.7954 0.2659
C18 C 0.5432(2) 0.6866(2) 0.19633(14)
H13 H 0.5886 0.6487 0.2369
C19 C 0.2824(3) 0.9609(3) 0.24156(17)
H14 H 0.2527 0.8940 0.2713
H15 H 0.2196 1.0237 0.2405
H16 H 0.3602 0.9909 0.2653
C20 C 0.8742(2) 0.6546(2) 0.11431(15)
C21 C 1.0810(3) 0.7343(3) 0.1254(2)
H17 H 1.0569 0.8176 0.1223
H18 H 1.1617 0.7235 0.1022
H19 H 1.0871 0.7098 0.1792
C22 C 0.7631(2) 0.6390(3) -0.01522(15)
C23 C 0.7421(3) 0.8276(3) -0.07831(18)
H20 H 0.8072 0.8125 -0.1148
H21 H 0.7418 0.9117 -0.0649
H22 H 0.6610 0.8058 -0.1015
O1 O 0.54535(18) 0.26736(16) 0.15970(11)
O2 O 0.8487(2) 0.7027(2) 0.17289(12)
O3 O 0.98660(18) 0.6619(2) 0.08412(12)
O4 O 0.7431(3) 0.5881(2) -0.07525(11)
O5 O 0.76665(18) 0.75687(17) -0.00872(10)
O6 O 0.30396(17) 0.92295(16) 0.16444(10)
loop_
_geom_bond_atom_site_label_1
_geom_bond_atom_site_label_2
_geom_bond_site_symmetry_1
_geom_bond_site_symmetry_2
C1 C2 1_555 1_555
C2 H1 1_555 1_555
C3 C2 1_555 1_555
H2 C3 1_555 1_555
C4 C3 1_555 1_555
H3 C4 1_555 1_555
C5 C4 1_555 1_555
H4 C5 1_555 1_555
C6 C1 1_555 1_555
C7 C6 1_555 1_555
H5 C7 1_555 1_555
C8 C7 1_555 1_555
C9 C8 1_555 1_555
H6 C9 1_555 1_555
H7 C9 1_555 1_555
C10 C8 1_555 1_555
C11 C10 1_555 1_555
C12 C7 1_555 1_555
H8 C12 1_555 1_555
H9 C12 1_555 1_555
C13 C10 1_555 1_555
C14 C13 1_555 1_555
H10 C14 1_555 1_555
C15 C14 1_555 1_555
H11 C15 1_555 1_555
C16 C15 1_555 1_555
C17 C16 1_555 1_555
H12 C17 1_555 1_555
C18 C13 1_555 1_555
H13 C18 1_555 1_555
C19 H14 1_555 1_555
H15 C19 1_555 1_555
H16 C19 1_555 1_555
C20 C11 1_555 1_555
C21 H17 1_555 1_555
H18 C21 1_555 1_555
H19 C21 1_555 1_555
C22 C11 1_555 1_555
C23 H20 1_555 1_555
H21 C23 1_555 1_555
H22 C23 1_555 1_555
O1 C1 1_555 1_555
O2 C20 1_555 1_555
O3 C20 1_555 1_555
O4 C22 1_555 1_555
O5 C22 1_555 1_555
O6 C16 1_555 1_555
C5 C6 1_555 1_555
C9 O1 1_555 1_555
C11 C12 1_555 1_555
C17 C18 1_555 1_555
C19 O6 1_555 1_555
C21 O3 1_555 1_555
C23 O5 1_555 1_555

#END
