
#######################################################################
#
#                 Cambridge Crystallographic Data Centre
#                                CCDC 
#
#######################################################################
#
# If this CIF has been generated from an entry in the Cambridge 
# Structural Database, then it will include bibliographic, chemical, 
# crystal, experimental, refinement or atomic coordinate data resulting 
# from the CCDC's data processing and validation procedures.
#
#######################################################################

data_TAYXEX
_chemical_formula_moiety         'C26 H19 N3'
_chemical_name_systematic        
4-(4-(1H-Imidazol-1-yl)phenyl)-2,6-diphenylpyridine
_symmetry_cell_setting           monoclinic
_symmetry_space_group_name_H-M   'P 21/c'
_symmetry_Int_Tables_number      14
_space_group_name_Hall           '-P 2ybc'
loop_
_symmetry_equiv_pos_site_id
_symmetry_equiv_pos_as_xyz
1 x,y,z
2 -x,1/2+y,1/2-z
3 -x,-y,-z
4 x,1/2-y,1/2+z
_cell_length_a                   12.8849(14)
_cell_length_b                   15.007(2)
_cell_length_c                   10.8625(15)
_cell_angle_alpha                90
_cell_angle_beta                 109.460(8)
_cell_angle_gamma                90
_cell_volume                     1980.43
_exptl_crystal_colour            colorless
_exptl_crystal_description       prism
_cell_formula_units_Z            4
_exptl_crystal_recrystallization_method ethanol
loop_
_atom_site_label
_atom_site_type_symbol
_atom_site_fract_x
_atom_site_fract_y
_atom_site_fract_z
C1 C -0.0125(3) 0.7793(3) 0.0264(4)
H1 H -0.0523 0.8311 0.0255
C2 C 0.0186(3) 0.7206(3) 0.1265(4)
H2 H 0.0047 0.7245 0.2050
C3 C 0.0741(3) 0.6764(3) -0.0330(4)
H3 H 0.1064 0.6421 -0.0817
C4 C 0.1225(3) 0.5763(2) 0.1613(4)
C5 C 0.1492(3) 0.5757(3) 0.2945(4)
H4 H 0.1373 0.6263 0.3374
C6 C 0.1938(3) 0.4998(3) 0.3656(4)
H5 H 0.2095 0.4996 0.4556
C7 C 0.2154(3) 0.4238(3) 0.3043(4)
C8 C 0.1893(3) 0.4273(3) 0.1695(4)
H6 H 0.2031 0.3777 0.1259
C9 C 0.1439(3) 0.5019(3) 0.0989(4)
H7 H 0.1275 0.5023 0.0088
C10 C 0.2639(3) 0.3430(3) 0.3792(4)
C11 C 0.2397(3) 0.2592(3) 0.3232(4)
H8 H 0.1907 0.2534 0.2386
C12 C 0.2882(3) 0.1843(3) 0.3930(4)
C13 C 0.3873(3) 0.2702(3) 0.5697(4)
C14 C 0.3377(3) 0.3472(3) 0.5061(4)
H9 H 0.3540 0.4019 0.5485
C15 C 0.4726(3) 0.2705(3) 0.7014(4)
C16 C 0.4907(3) 0.1943(3) 0.7781(4)
H10 H 0.4489 0.1436 0.7465
C17 C 0.5699(4) 0.1926(3) 0.9008(5)
H11 H 0.5806 0.1414 0.9516
C18 C 0.6323(4) 0.2665(4) 0.9468(5)
H12 H 0.6856 0.2653 1.0292
C19 C 0.6173(4) 0.3421(4) 0.8732(5)
H13 H 0.6605 0.3921 0.9053
C20 C 0.5375(4) 0.3443(3) 0.7501(4)
H14 H 0.5276 0.3959 0.7001
C21 C 0.2643(3) 0.0929(3) 0.3361(4)
C22 C 0.3463(4) 0.0290(3) 0.3704(4)
H15 H 0.4153 0.0427 0.4295
C23 C 0.3253(4) -0.0556(3) 0.3164(5)
H16 H 0.3806 -0.0985 0.3394
C24 C 0.2236(5) -0.0766(3) 0.2290(5)
H17 H 0.2104 -0.1332 0.1923
C25 C 0.1419(4) -0.0142(3) 0.1964(4)
H18 H 0.0725 -0.0289 0.1391
C26 C 0.1615(4) 0.0705(3) 0.2475(4)
H19 H 0.1058 0.1130 0.2228
N1 N 0.0227(3) 0.7520(2) -0.0735(3)
N2 N 0.0747(2) 0.6541(2) 0.0894(3)
N3 N 0.3628(2) 0.1892(2) 0.5143(3)
loop_
_geom_bond_atom_site_label_1
_geom_bond_atom_site_label_2
_geom_bond_site_symmetry_1
_geom_bond_site_symmetry_2
C1 H1 1_555 1_555
C2 C1 1_555 1_555
H2 C2 1_555 1_555
C3 H3 1_555 1_555
C4 C5 1_555 1_555
C5 H4 1_555 1_555
C6 C5 1_555 1_555
H5 C6 1_555 1_555
C7 C6 1_555 1_555
C8 C7 1_555 1_555
H6 C8 1_555 1_555
C9 C4 1_555 1_555
H7 C9 1_555 1_555
C10 C7 1_555 1_555
C11 C10 1_555 1_555
H8 C11 1_555 1_555
C12 C11 1_555 1_555
C13 C14 1_555 1_555
C14 C10 1_555 1_555
H9 C14 1_555 1_555
C15 C13 1_555 1_555
C16 C15 1_555 1_555
H10 C16 1_555 1_555
C17 C16 1_555 1_555
H11 C17 1_555 1_555
C18 C17 1_555 1_555
H12 C18 1_555 1_555
C19 C18 1_555 1_555
H13 C19 1_555 1_555
C20 C15 1_555 1_555
H14 C20 1_555 1_555
C21 C12 1_555 1_555
C22 C21 1_555 1_555
H15 C22 1_555 1_555
C23 C22 1_555 1_555
H16 C23 1_555 1_555
C24 C23 1_555 1_555
H17 C24 1_555 1_555
C25 C24 1_555 1_555
H18 C25 1_555 1_555
C26 C21 1_555 1_555
H19 C26 1_555 1_555
N1 C1 1_555 1_555
N2 C2 1_555 1_555
N3 C12 1_555 1_555
C3 N1 1_555 1_555
C3 N2 1_555 1_555
C4 N2 1_555 1_555
C8 C9 1_555 1_555
C13 N3 1_555 1_555
C19 C20 1_555 1_555
C25 C26 1_555 1_555

#END
