
#######################################################################
#
#                 Cambridge Crystallographic Data Centre
#                                CCDC 
#
#######################################################################
#
# If this CIF has been generated from an entry in the Cambridge 
# Structural Database, then it will include bibliographic, chemical, 
# crystal, experimental, refinement or atomic coordinate data resulting 
# from the CCDC's data processing and validation procedures.
#
#######################################################################

data_TAYYUQ
_chemical_formula_moiety         'C8 H14 N2 2+,2(C7 H7 O3 S1 1-)'
_chemical_name_systematic        
'2,5-dimethylbenzene-1,4-diaminium bis(4-methylbenzenesulfonate)'
_symmetry_cell_setting           monoclinic
_symmetry_space_group_name_H-M   'P 21/n'
_symmetry_Int_Tables_number      14
_space_group_name_Hall           '-P 2yn'
loop_
_symmetry_equiv_pos_site_id
_symmetry_equiv_pos_as_xyz
1 x,y,z
2 1/2-x,1/2+y,1/2-z
3 -x,-y,-z
4 1/2+x,1/2-y,1/2+z
_cell_length_a                   9.6831(10)
_cell_length_b                   6.9500(11)
_cell_length_c                   16.999(3)
_cell_angle_alpha                90
_cell_angle_beta                 98.873(12)
_cell_angle_gamma                90
_cell_volume                     1130.3
_exptl_crystal_colour            red
_exptl_crystal_description       block
_cell_formula_units_Z            2
loop_
_atom_site_label
_atom_site_type_symbol
_atom_site_fract_x
_atom_site_fract_y
_atom_site_fract_z
C1 C 0.5486(7) 0.0178(11) 0.6544(6)
H1 H 0.5662 -0.0397 0.6055
H2 H 0.5915 -0.0585 0.6985
H3 H 0.5871 0.1454 0.6587
C2 C 0.3929(5) 0.0277(8) 0.6548(4)
C3 C 0.2996(6) -0.0478(9) 0.5916(4)
H4 H 0.3334 -0.1014 0.5481
C4 C 0.1565(5) -0.0438(8) 0.5929(3)
H5 H 0.0949 -0.0935 0.5504
C5 C 0.1068(5) 0.0332(8) 0.6565(3)
C6 C 0.1978(5) 0.1087(9) 0.7196(3)
H6 H 0.1641 0.1625 0.7631
C7 C 0.3408(5) 0.1028(10) 0.7170(4)
H7 H 0.4023 0.1523 0.7597
O1 O -0.1298(3) 0.1972(7) 0.6080(2)
O2 O -0.1279(4) -0.1395(7) 0.6220(3)
O3 O -0.0959(4) 0.0620(9) 0.7387(2)
S1 S -0.07557(11) 0.0386(2) 0.65743(7)
C8 C 0.3924(5) 0.4859(7) 0.4389(3)
C9 C 0.3600(5) 0.4747(7) 0.5152(3)
C10 C 0.4728(5) 0.4872(8) 0.5775(3)
C11 C 0.2130(5) 0.4492(8) 0.5326(3)
H8 H 0.2142 0.4468 0.5892
H9 H 0.1754 0.3303 0.5099
H10 H 0.1560 0.5542 0.5099
N1 N 0.2774(4) 0.4760(7) 0.3705(2)
H11 H 0.3127 0.4839 0.3253
H12 H 0.2185 0.5732 0.3733
H13 H 0.2321 0.3650 0.3719
C8B C 0.6076(5) 0.5141(7) 0.5611(3)
C9B C 0.6400(5) 0.5253(7) 0.4848(3)
C10B C 0.5272(5) 0.5128(8) 0.4225(3)
C11B C 0.7870(5) 0.5508(8) 0.4674(3)
H8B H 0.7858 0.5532 0.4108
H9B H 0.8246 0.6697 0.4901
H10B H 0.8440 0.4458 0.4901
N1B N 0.7226(4) 0.5240(7) 0.6295(2)
H11B H 0.6873 0.5161 0.6747
H12B H 0.7815 0.4268 0.6267
H13B H 0.7679 0.6350 0.6281
loop_
_geom_bond_atom_site_label_1
_geom_bond_atom_site_label_2
_geom_bond_site_symmetry_1
_geom_bond_site_symmetry_2
C1 H1 1_555 1_555
H2 C1 1_555 1_555
H3 C1 1_555 1_555
C2 C1 1_555 1_555
C3 C2 1_555 1_555
H4 C3 1_555 1_555
C4 C3 1_555 1_555
H5 C4 1_555 1_555
C5 C4 1_555 1_555
C6 C5 1_555 1_555
H6 C6 1_555 1_555
C7 C2 1_555 1_555
H7 C7 1_555 1_555
O1 S1 1_555 1_555
O2 S1 1_555 1_555
O3 S1 1_555 1_555
S1 C5 1_555 1_555
C8 C9 1_555 1_555
C9 C10 1_555 1_555
C10 C8B 1_555 1_555
C11 C9 1_555 1_555
H8 C11 1_555 1_555
H9 C11 1_555 1_555
H10 C11 1_555 1_555
N1 C8 1_555 1_555
H11 N1 1_555 1_555
H12 N1 1_555 1_555
H13 N1 1_555 1_555
C8B C9B 1_555 1_555
C9B C10B 1_555 1_555
C10B C8 1_555 1_555
C11B C9B 1_555 1_555
H8B C11B 1_555 1_555
H9B C11B 1_555 1_555
H10B C11B 1_555 1_555
N1B C8B 1_555 1_555
H11B N1B 1_555 1_555
H12B N1B 1_555 1_555
H13B N1B 1_555 1_555
C6 C7 1_555 1_555

#END
