
#######################################################################
#
#                 Cambridge Crystallographic Data Centre
#                                CCDC 
#
#######################################################################
#
# If this CIF has been generated from an entry in the Cambridge 
# Structural Database, then it will include bibliographic, chemical, 
# crystal, experimental, refinement or atomic coordinate data resulting 
# from the CCDC's data processing and validation procedures.
#
#######################################################################

data_TAYYEX
_chemical_formula_moiety         'C17 H21 N3 O3'
_chemical_name_systematic        
4R,7S-Dimethyl-2-(1S-hydroxyethyl)-4-(p-methylbenzyl)-6H-1,2,4-triazolo-(5,1-c)oxazin-6-one
_symmetry_cell_setting           monoclinic
_symmetry_space_group_name_H-M   'P 21'
_symmetry_Int_Tables_number      4
_space_group_name_Hall           'P 2yb'
loop_
_symmetry_equiv_pos_site_id
_symmetry_equiv_pos_as_xyz
1 x,y,z
2 -x,1/2+y,-z
_cell_length_a                   9.268(2)
_cell_length_b                   7.132(2)
_cell_length_c                   12.724(3)
_cell_angle_alpha                90
_cell_angle_beta                 90.17(2)
_cell_angle_gamma                90
_cell_volume                     841.045
_exptl_crystal_colour            colorless
_chemical_melting_point          126-127deg.C
_cell_formula_units_Z            2
loop_
_atom_site_label
_atom_site_type_symbol
_atom_site_fract_x
_atom_site_fract_y
_atom_site_fract_z
O1 O 0.4928(5) 0.4424(9) 0.2819(5)
O2 O 0.3698(6) 0.3419(11) 0.1483(5)
O3 O 1.0338(5) -0.0722(8) 0.4409(4)
N1 N 0.6354(6) 0.1140(9) 0.3032(5)
N2 N 0.7092(6) -0.0505(10) 0.3283(6)
N3 N 0.7770(6) 0.1950(9) 0.4318(5)
C1 C 0.4634(9) 0.3128(14) 0.2107(8)
C2 C 0.5462(8) 0.1235(12) 0.2077(6)
C3 C 0.7914(8) 0.0108(11) 0.4073(6)
C4 C 0.6795(8) 0.2538(11) 0.3615(6)
C5 C 0.6230(8) 0.4460(12) 0.3483(6)
C6 C 0.6415(9) 0.1173(15) 0.1101(7)
C7 C 0.7534(8) 0.2683(13) 0.1098(7)
C8 C 0.8910(9) 0.2302(14) 0.1497(7)
C9 C 0.9961(9) 0.3666(15) 0.1559(7)
C10 C 0.9669(11) 0.5500(14) 0.1286(7)
C11 C 0.8305(10) 0.5891(17) 0.0838(8)
C12 C 0.7304(9) 0.4515(16) 0.0792(7)
C13 C 1.0768(12) 0.7032(17) 0.1457(9)
C14 C 0.4352(10) -0.0366(16) 0.2106(8)
C15 C 0.8892(7) -0.1213(11) 0.4671(7)
C16 C 0.8660(8) -0.1152(14) 0.5811(6)
C17 C 0.5817(9) 0.5346(13) 0.4484(7)
H1 H 1.0791(5) -0.0488(8) 0.4948(4)
H2 H 0.6966(8) 0.5233(12) 0.3141(6)
H3 H 0.6888(9) -0.0038(15) 0.1065(7)
H4 H 0.5813(9) 0.1303(15) 0.0480(7)
H5 H 0.9123(9) 0.1095(14) 0.1727(7)
H6 H 1.0882(9) 0.3346(15) 0.1790(7)
H7 H 0.8099(10) 0.7081(17) 0.0579(8)
H8 H 0.6394(9) 0.4825(16) 0.0535(7)
H9 H 1.0378(12) 0.8207(17) 0.1221(9)
H10 H 1.1626(12) 0.6750(17) 0.1068(9)
H11 H 1.0998(12) 0.7115(17) 0.2192(9)
H12 H 0.3783(10) -0.0265(16) 0.2733(8)
H13 H 0.4846(10) -0.1549(16) 0.2103(8)
H14 H 0.3734(10) -0.0285(16) 0.1501(8)
H15 H 0.8708(7) -0.2494(11) 0.4426(7)
H16 H 0.9306(8) -0.2013(14) 0.6151(6)
H17 H 0.7681(8) -0.1496(14) 0.5963(6)
H18 H 0.8841(8) 0.0094(14) 0.6064(6)
H19 H 0.5459(9) 0.6587(13) 0.4351(7)
H20 H 0.6645(9) 0.5415(13) 0.4938(7)
H21 H 0.5079(9) 0.4612(13) 0.4816(7)
loop_
_geom_bond_atom_site_label_1
_geom_bond_atom_site_label_2
_geom_bond_site_symmetry_1
_geom_bond_site_symmetry_2
O1 C1 1_555 1_555
O2 C1 1_555 1_555
O3 C15 1_555 1_555
N1 N2 1_555 1_555
N2 C3 1_555 1_555
N3 C3 1_555 1_555
C1 C2 1_555 1_555
C2 N1 1_555 1_555
C3 C15 1_555 1_555
C4 N1 1_555 1_555
C5 O1 1_555 1_555
C6 C2 1_555 1_555
C7 C6 1_555 1_555
C8 C7 1_555 1_555
C9 C8 1_555 1_555
C10 C9 1_555 1_555
C11 C10 1_555 1_555
C12 C7 1_555 1_555
C13 C10 1_555 1_555
C14 C2 1_555 1_555
C15 C16 1_555 1_555
C16 H16 1_555 1_555
C17 C5 1_555 1_555
H1 O3 1_555 1_555
H2 C5 1_555 1_555
H3 C6 1_555 1_555
H4 C6 1_555 1_555
H5 C8 1_555 1_555
H6 C9 1_555 1_555
H7 C11 1_555 1_555
H8 C12 1_555 1_555
H9 C13 1_555 1_555
H10 C13 1_555 1_555
H11 C13 1_555 1_555
H12 C14 1_555 1_555
H13 C14 1_555 1_555
H14 C14 1_555 1_555
H15 C15 1_555 1_555
H17 C16 1_555 1_555
H18 C16 1_555 1_555
H19 C17 1_555 1_555
H20 C17 1_555 1_555
H21 C17 1_555 1_555
N3 C4 1_555 1_555
C4 C5 1_555 1_555
C11 C12 1_555 1_555

#END
