
#######################################################################
#
#                 Cambridge Crystallographic Data Centre
#                                CCDC 
#
#######################################################################
#
# If this CIF has been generated from an entry in the Cambridge 
# Structural Database, then it will include bibliographic, chemical, 
# crystal, experimental, refinement or atomic coordinate data resulting 
# from the CCDC's data processing and validation procedures.
#
#######################################################################

data_TAYYEA
_chemical_formula_moiety         'C6 H10 N2 2+,2(C6 H5 O4 S1 1-)'
_chemical_name_systematic        
'benzene-1,4-diaminium bis(4-hydroxybenzenesulfonate)'
_symmetry_cell_setting           orthorhombic
_symmetry_space_group_name_H-M   'P b c n'
_symmetry_Int_Tables_number      60
_space_group_name_Hall           '-P 2n 2ab'
loop_
_symmetry_equiv_pos_site_id
_symmetry_equiv_pos_as_xyz
1 x,y,z
2 1/2-x,1/2-y,1/2+z
3 1/2+x,1/2-y,-z
4 -x,y,1/2-z
5 -x,-y,-z
6 1/2+x,1/2+y,1/2-z
7 1/2-x,1/2+y,z
8 x,-y,1/2+z
_cell_length_a                   11.1336(10)
_cell_length_b                   15.7206(16)
_cell_length_c                   11.0314(17)
_cell_angle_alpha                90
_cell_angle_beta                 90
_cell_angle_gamma                90
_cell_volume                     1930.79
_exptl_crystal_colour            colorless
_exptl_crystal_description       block
_cell_formula_units_Z            4
loop_
_atom_site_label
_atom_site_type_symbol
_atom_site_fract_x
_atom_site_fract_y
_atom_site_fract_z
C1 C 0.6289(5) -0.0253(4) 0.3196(5)
C2 C 0.6839(5) -0.0218(4) 0.2085(6)
H1 H 0.6979 -0.0717 0.1655
C3 C 0.7190(5) 0.0568(4) 0.1592(5)
H2 H 0.7545 0.0595 0.0830
C4 C 0.6999(5) 0.1302(3) 0.2261(5)
C5 C 0.6436(5) 0.1267(4) 0.3379(5)
H3 H 0.6295 0.1765 0.3811
C6 C 0.6088(5) 0.0496(4) 0.3851(6)
H4 H 0.5717 0.0472 0.4606
O1 O 0.5931(4) -0.0984(3) 0.3718(5)
O2 O 0.7976(4) 0.2178(2) 0.0522(4)
O3 O 0.6579(4) 0.2891(3) 0.1854(4)
O4 O 0.8548(4) 0.2493(3) 0.2587(4)
S1 S 0.75542(12) 0.22839(9) 0.17650(14)
H5 H 0.608(6) -0.132(4) 0.321(6)
C7 C 0.9378(5) 0.0297(4) 0.4005(5)
H6 H 0.8955 0.0500 0.3338
C8 C 0.9808(5) 0.0846(3) 0.4863(5)
C9 C 1.0419(6) 0.0566(4) 0.5854(5)
H7 H 1.0697 0.0951 0.6431
N1 N 0.9614(4) 0.1771(3) 0.4726(4)
H8 H 0.9208 0.1871 0.4045
H9 H 1.0320 0.2035 0.4693
H10 H 0.9196 0.1965 0.5356
C7D C 1.0622(5) -0.0297(4) 0.5995(5)
H6D H 1.1045 -0.0500 0.6662
C8D C 1.0192(5) -0.0846(3) 0.5137(5)
C9D C 0.9581(6) -0.0566(4) 0.4146(5)
H7D H 0.9303 -0.0951 0.3569
N1D N 1.0386(4) -0.1771(3) 0.5274(4)
H8D H 1.0792 -0.1871 0.5955
H9D H 0.9680 -0.2035 0.5307
H10D H 1.0804 -0.1965 0.4644
loop_
_geom_bond_atom_site_label_1
_geom_bond_atom_site_label_2
_geom_bond_site_symmetry_1
_geom_bond_site_symmetry_2
C1 C2 1_555 1_555
C2 H1 1_555 1_555
C3 C2 1_555 1_555
H2 C3 1_555 1_555
C4 C3 1_555 1_555
C5 C4 1_555 1_555
H3 C5 1_555 1_555
C6 C1 1_555 1_555
H4 C6 1_555 1_555
O1 C1 1_555 1_555
O2 S1 1_555 1_555
O3 S1 1_555 1_555
O4 S1 1_555 1_555
S1 C4 1_555 1_555
H5 O1 1_555 1_555
C7 H6 1_555 1_555
C8 C7 1_555 1_555
C9 C8 1_555 1_555
H7 C9 1_555 1_555
N1 C8 1_555 1_555
H8 N1 1_555 1_555
H9 N1 1_555 1_555
H10 N1 1_555 1_555
C7D C9 1_555 1_555
H6D C7D 1_555 1_555
C8D C7D 1_555 1_555
C9D C7 1_555 1_555
H7D C9D 1_555 1_555
N1D C8D 1_555 1_555
H8D N1D 1_555 1_555
H9D N1D 1_555 1_555
H10D N1D 1_555 1_555
C5 C6 1_555 1_555
C8D C9D 1_555 1_555

#END
