
#######################################################################
#
#                 Cambridge Crystallographic Data Centre
#                                CCDC 
#
#######################################################################
#
# If this CIF has been generated from an entry in the Cambridge 
# Structural Database, then it will include bibliographic, chemical, 
# crystal, experimental, refinement or atomic coordinate data resulting 
# from the CCDC's data processing and validation procedures.
#
#######################################################################

data_TAYYOK
_chemical_formula_moiety         'C10 H12 N4 2+,2(C7 H7 O3 S1 1-)'
_chemical_name_systematic        
"2,2'-bipyridine-5,5'-diaminium bis(4-methylbenzenesulfonate)"
_symmetry_cell_setting           triclinic
_symmetry_space_group_name_H-M   'P -1'
_symmetry_Int_Tables_number      2
_space_group_name_Hall           '-P 1'
loop_
_symmetry_equiv_pos_site_id
_symmetry_equiv_pos_as_xyz
1 x,y,z
2 -x,-y,-z
_cell_length_a                   6.861(5)
_cell_length_b                   7.485(5)
_cell_length_c                   12.473(5)
_cell_angle_alpha                94.583(5)
_cell_angle_beta                 100.837(5)
_cell_angle_gamma                97.837(5)
_cell_volume                     619.569
_exptl_crystal_colour            colorless
_exptl_crystal_description       block
_cell_formula_units_Z            1
loop_
_atom_site_label
_atom_site_type_symbol
_atom_site_fract_x
_atom_site_fract_y
_atom_site_fract_z
C1 C 1.3206(19) 0.8367(14) 0.0401(8)
H1 H 1.2444 0.9344 0.0283
H2 H 1.3357 0.7811 -0.0293
H3 H 1.4507 0.8831 0.0844
C2 C 1.2124(14) 0.6979(11) 0.0981(6)
C3 C 1.2899(13) 0.5439(13) 0.1244(7)
H4 H 1.4101 0.5246 0.1047
C4 C 1.1946(11) 0.4172(11) 0.1791(6)
H5 H 1.2518 0.3149 0.1967
C5 C 1.0153(9) 0.4411(9) 0.2078(5)
C6 C 0.9333(12) 0.5945(10) 0.1820(6)
H6 H 0.8129 0.6131 0.2016
C7 C 1.0301(14) 0.7196(11) 0.1271(7)
H7 H 0.9723 0.8213 0.1089
O1 O 0.9697(8) 0.1193(6) 0.2729(5)
O2 O 0.6838(7) 0.2779(7) 0.2498(4)
O3 O 0.9635(7) 0.3753(7) 0.4004(4)
S1 S 0.8983(2) 0.2909(2) 0.28752(13)
C8 C 1.2790(10) 0.7973(8) 0.4190(6)
H8 H 1.1568 0.8378 0.4194
C9 C 1.4175(9) 0.8926(8) 0.3685(5)
C10 C 1.5996(10) 0.8252(9) 0.3731(6)
H9 H 1.6992 0.8849 0.3418
C11 C 1.6326(9) 0.6723(9) 0.4234(6)
H10 H 1.7538 0.6292 0.4245
C12 C 1.4901(9) 0.5817(8) 0.4720(5)
N1 N 1.3804(9) 1.0439(7) 0.3226(5)
H11 H 1.4844 1.0874 0.2941
H12 H 1.3614 1.1265 0.3734
H13 H 1.2707 1.0181 0.2697
N2 N 1.3157(7) 0.6490(7) 0.4672(4)
C8A C 1.7210(10) 0.2027(8) 0.5810(6)
H8A H 1.8432 0.1622 0.5806
C9A C 1.5825(9) 0.1074(8) 0.6315(5)
C10A C 1.4004(10) 0.1748(9) 0.6269(6)
H9A H 1.3008 0.1151 0.6582
C11A C 1.3674(9) 0.3277(9) 0.5766(6)
H10A H 1.2462 0.3708 0.5755
C12A C 1.5099(9) 0.4183(8) 0.5280(5)
N1A N 1.6196(9) -0.0439(7) 0.6774(5)
H11A H 1.5156 -0.0874 0.7059
H12A H 1.6386 -0.1265 0.6266
H13A H 1.7293 -0.0181 0.7303
N2A N 1.6843(7) 0.3510(7) 0.5328(4)
loop_
_geom_bond_atom_site_label_1
_geom_bond_atom_site_label_2
_geom_bond_site_symmetry_1
_geom_bond_site_symmetry_2
C1 H1 1_555 1_555
H2 C1 1_555 1_555
H3 C1 1_555 1_555
C2 C1 1_555 1_555
C3 C2 1_555 1_555
H4 C3 1_555 1_555
C4 C3 1_555 1_555
H5 C4 1_555 1_555
C5 C4 1_555 1_555
C6 C5 1_555 1_555
H6 C6 1_555 1_555
C7 C2 1_555 1_555
H7 C7 1_555 1_555
O1 S1 1_555 1_555
O2 S1 1_555 1_555
O3 S1 1_555 1_555
S1 C5 1_555 1_555
C8 H8 1_555 1_555
C9 C8 1_555 1_555
C10 C9 1_555 1_555
H9 C10 1_555 1_555
C11 C10 1_555 1_555
H10 C11 1_555 1_555
C12 C11 1_555 1_555
N1 C9 1_555 1_555
H11 N1 1_555 1_555
H12 N1 1_555 1_555
H13 N1 1_555 1_555
N2 C8 1_555 1_555
C8A H8A 1_555 1_555
C9A C8A 1_555 1_555
C10A C9A 1_555 1_555
H9A C10A 1_555 1_555
C11A C10A 1_555 1_555
H10A C11A 1_555 1_555
C12A C12 1_555 1_555
N1A C9A 1_555 1_555
H11A N1A 1_555 1_555
H12A N1A 1_555 1_555
H13A N1A 1_555 1_555
N2A C8A 1_555 1_555
C6 C7 1_555 1_555
C12 N2 1_555 1_555
C11A C12A 1_555 1_555
C12A N2A 1_555 1_555

#END
