
#######################################################################
#
#                 Cambridge Crystallographic Data Centre
#                                CCDC 
#
#######################################################################
#
# If this CIF has been generated from an entry in the Cambridge 
# Structural Database, then it will include bibliographic, chemical, 
# crystal, experimental, refinement or atomic coordinate data resulting 
# from the CCDC's data processing and validation procedures.
#
#######################################################################

data_TAYYAW
_chemical_formula_moiety         'C6 H10 N2 2+,2(C6 H4 N1 O5 S1 1-)'
_chemical_name_systematic        
'benzene-1,4-diaminium bis(4-nitrobenzenesulfonate)'
_symmetry_cell_setting           triclinic
_symmetry_space_group_name_H-M   'P -1'
_symmetry_Int_Tables_number      2
_space_group_name_Hall           '-P 1'
loop_
_symmetry_equiv_pos_site_id
_symmetry_equiv_pos_as_xyz
1 x,y,z
2 -x,-y,-z
_cell_length_a                   5.4297(5)
_cell_length_b                   9.1562(10)
_cell_length_c                   10.8346(10)
_cell_angle_alpha                93.508(8)
_cell_angle_beta                 97.284(8)
_cell_angle_gamma                100.633(9)
_cell_volume                     523.145
_exptl_crystal_colour            colorless
_exptl_crystal_description       block
_cell_formula_units_Z            1
loop_
_atom_site_label
_atom_site_type_symbol
_atom_site_fract_x
_atom_site_fract_y
_atom_site_fract_z
C1 C 0.4905(4) 0.6356(3) 0.6713(2)
C2 C 0.7058(5) 0.7357(4) 0.6600(3)
H1 H 0.8447 0.7499 0.7222
C3 C 0.7166(5) 0.8156(4) 0.5562(3)
H2 H 0.8613 0.8847 0.5484
C4 C 0.5126(5) 0.7918(3) 0.4655(2)
C5 C 0.2970(6) 0.6918(4) 0.4745(3)
H3 H 0.1600 0.6765 0.4111
C6 C 0.2862(5) 0.6141(4) 0.5791(3)
H4 H 0.1397 0.5468 0.5874
N1 N 0.5259(5) 0.8768(3) 0.3550(2)
O1 O 0.7317(3) 0.5089(2) 0.83866(17)
O2 O 0.4047(4) 0.6295(2) 0.89997(17)
O3 O 0.2931(4) 0.3977(2) 0.76834(18)
O4 O 0.7153(5) 0.9682(3) 0.3508(2)
O5 O 0.3441(5) 0.8529(3) 0.27334(19)
S1 S 0.47641(10) 0.53373(6) 0.80588(5)
C7 C 1.0061(4) 0.8555(2) 1.0198(2)
C8 C 0.8349(5) 0.9234(3) 1.0713(2)
C9 C 0.8280(5) 1.0705(3) 1.0519(2)
N2 N 1.0099(4) 0.6998(2) 1.0407(2)
H5 H 1.1296 0.6698 1.0024
H6 H 0.8601 0.6436 1.0103
H7 H 1.0423 0.6913 1.1223
H8 H 0.723(6) 0.867(3) 1.120(3)
H9 H 0.709(5) 1.116(3) 1.094(3)
C7A C 0.9939(4) 1.1445(2) 0.9802(2)
C8A C 1.1651(5) 1.0766(3) 0.9287(2)
C9A C 1.1720(5) 0.9295(3) 0.9481(2)
N2A N 0.9901(4) 1.3002(2) 0.9593(2)
H5A H 0.8704 1.3302 0.9976
H6A H 1.1399 1.3564 0.9897
H7A H 0.9577 1.3087 0.8777
H8A H 1.277(6) 1.133(3) 0.880(3)
H9A H 1.291(5) 0.884(3) 0.906(3)
loop_
_geom_bond_atom_site_label_1
_geom_bond_atom_site_label_2
_geom_bond_site_symmetry_1
_geom_bond_site_symmetry_2
C1 C2 1_555 1_555
C2 H1 1_555 1_555
C3 C2 1_555 1_555
H2 C3 1_555 1_555
C4 C3 1_555 1_555
C5 C4 1_555 1_555
H3 C5 1_555 1_555
C6 C1 1_555 1_555
H4 C6 1_555 1_555
N1 C4 1_555 1_555
O1 S1 1_555 1_555
O2 S1 1_555 1_555
O3 S1 1_555 1_555
O4 N1 1_555 1_555
O5 N1 1_555 1_555
S1 C1 1_555 1_555
C7 C8 1_555 1_555
C8 C9 1_555 1_555
C9 H9 1_555 1_555
N2 C7 1_555 1_555
H5 N2 1_555 1_555
H6 N2 1_555 1_555
H7 N2 1_555 1_555
H8 C8 1_555 1_555
C7A C9 1_555 1_555
C8A C7A 1_555 1_555
C9A C7 1_555 1_555
N2A C7A 1_555 1_555
H5A N2A 1_555 1_555
H6A N2A 1_555 1_555
H7A N2A 1_555 1_555
H8A C8A 1_555 1_555
H9A C9A 1_555 1_555
C5 C6 1_555 1_555
C8A C9A 1_555 1_555

#END
