
#######################################################################
#
#                 Cambridge Crystallographic Data Centre
#                                CCDC 
#
#######################################################################
#
# If this CIF has been generated from an entry in the Cambridge 
# Structural Database, then it will include bibliographic, chemical, 
# crystal, experimental, refinement or atomic coordinate data resulting 
# from the CCDC's data processing and validation procedures.
#
#######################################################################

data_TAZDUV
_chemical_formula_moiety         'C14 H16 I1 N1 O3 S1'
_chemical_name_systematic        
(S)-1-((4-Iodophenyl)sulfonyl)-1-azaspiro[4.4]nonan-6-one
_symmetry_cell_setting           orthorhombic
_symmetry_space_group_name_H-M   'P 21 21 21'
_symmetry_Int_Tables_number      19
_space_group_name_Hall           'P 2ac 2ab'
loop_
_symmetry_equiv_pos_site_id
_symmetry_equiv_pos_as_xyz
1 x,y,z
2 1/2-x,-y,1/2+z
3 -x,1/2+y,1/2-z
4 1/2+x,1/2-y,-z
_cell_length_a                   7.729(3)
_cell_length_b                   10.762(4)
_cell_length_c                   19.043(7)
_cell_angle_alpha                90
_cell_angle_beta                 90
_cell_angle_gamma                90
_cell_volume                     1583.99
_exptl_crystal_colour            colorless
_exptl_crystal_description       block
_cell_formula_units_Z            4
loop_
_atom_site_label
_atom_site_type_symbol
_atom_site_fract_x
_atom_site_fract_y
_atom_site_fract_z
C1 C 0.8505(11) 0.6162(14) 0.7309(5)
C2 C 0.8346(16) 0.6853(13) 0.6630(5)
H1 H 0.7219 0.6705 0.6421
H2 H 0.9227 0.6577 0.6302
C3 C 0.8572(14) 0.8220(15) 0.6790(6)
H3 H 0.7796 0.8718 0.6506
H4 H 0.9752 0.8480 0.6698
C4 C 0.8139(14) 0.8362(10) 0.7573(5)
H5 H 0.6902 0.8452 0.7643
H6 H 0.8723 0.9077 0.7773
C5 C 0.8813(11) 0.7131(10) 0.7906(4)
C6 C 1.0755(13) 0.7206(11) 0.8070(6)
H7 H 1.1308 0.6405 0.8005
H8 H 1.1323 0.7813 0.7772
C7 C 1.0813(15) 0.7604(13) 0.8839(6)
H9 H 1.0622 0.8491 0.8886
H10 H 1.1913 0.7390 0.9053
C8 C 0.9290(15) 0.6843(14) 0.9175(6)
H11 H 0.9658 0.6012 0.9305
H12 H 0.8823 0.7260 0.9584
C9 C 0.6359(12) 0.4655(12) 0.8877(4)
C10 C 0.6122(13) 0.3803(12) 0.8356(5)
H13 H 0.5877 0.4070 0.7903
C11 C 0.6242(14) 0.2530(12) 0.8496(6)
H14 H 0.6017 0.1944 0.8150
C12 C 0.6706(13) 0.2173(11) 0.9166(5)
C13 C 0.701(2) 0.3001(13) 0.9693(5)
H15 H 0.7355 0.2725 1.0134
C14 C 0.6808(19) 0.4227(12) 0.9568(5)
H16 H 0.6960 0.4797 0.9930
I1 I 0.68532(17) 0.02305(11) 0.93845(6)
N1 N 0.8025(10) 0.6811(8) 0.8596(4)
O1 O 0.8467(12) 0.5082(8) 0.7381(5)
O2 O 0.5210(9) 0.6384(9) 0.8073(4)
O3 O 0.5465(10) 0.6800(8) 0.9350(4)
S1 S 0.6129(3) 0.6257(3) 0.87178(13)
loop_
_geom_bond_atom_site_label_1
_geom_bond_atom_site_label_2
_geom_bond_site_symmetry_1
_geom_bond_site_symmetry_2
C1 C2 1_555 1_555
C2 H1 1_555 1_555
H2 C2 1_555 1_555
C3 C2 1_555 1_555
H3 C3 1_555 1_555
H4 C3 1_555 1_555
C4 C3 1_555 1_555
H5 C4 1_555 1_555
H6 C4 1_555 1_555
C5 C1 1_555 1_555
C6 C5 1_555 1_555
H7 C6 1_555 1_555
H8 C6 1_555 1_555
C7 C6 1_555 1_555
H9 C7 1_555 1_555
H10 C7 1_555 1_555
C8 C7 1_555 1_555
H11 C8 1_555 1_555
H12 C8 1_555 1_555
C9 C10 1_555 1_555
C10 H13 1_555 1_555
C11 C10 1_555 1_555
H14 C11 1_555 1_555
C12 C11 1_555 1_555
C13 C12 1_555 1_555
H15 C13 1_555 1_555
C14 C9 1_555 1_555
H16 C14 1_555 1_555
I1 C12 1_555 1_555
N1 C5 1_555 1_555
O1 C1 1_555 1_555
O2 S1 1_555 1_555
O3 S1 1_555 1_555
S1 C9 1_555 1_555
C4 C5 1_555 1_555
C8 N1 1_555 1_555
C13 C14 1_555 1_555
N1 S1 1_555 1_555

#END
