
#######################################################################
#
#                 Cambridge Crystallographic Data Centre
#                                CCDC 
#
#######################################################################
#
# If this CIF has been generated from an entry in the Cambridge 
# Structural Database, then it will include bibliographic, chemical, 
# crystal, experimental, refinement or atomic coordinate data resulting 
# from the CCDC's data processing and validation procedures.
#
#######################################################################

data_TAZGUZ
_chemical_formula_moiety         'C46 H36 N2 O6'
_chemical_name_systematic        
'7,11,18,22-tetraoxa-1,28-diazanonacyclo[26.14.6.2^2,5^.2^24,27^.0^12,17^.0^29,42^.0^30,35^.0^36,41^.0^43,48^]dopentaconta-2,4,12,14,16,24,26,29(42),30,32,34,36,38,40,43,45,47,49,51-nonadecaene-8,21-dione unknown solvate'
_symmetry_cell_setting           rhombohedral
_symmetry_space_group_name_H-M   'R -3'
_symmetry_Int_Tables_number      148
_space_group_name_Hall           '-R 3'
loop_
_symmetry_equiv_pos_site_id
_symmetry_equiv_pos_as_xyz
1 x,y,z
2 -y,x-y,z
3 -x+y,-x,z
4 2/3+x,1/3+y,1/3+z
5 2/3-y,1/3+x-y,1/3+z
6 2/3-x+y,1/3-x,1/3+z
7 1/3+x,2/3+y,2/3+z
8 1/3-y,2/3+x-y,2/3+z
9 1/3-x+y,2/3-x,2/3+z
10 -x,-y,-z
11 y,-x+y,-z
12 x-y,x,-z
13 1/3-x,2/3-y,2/3-z
14 1/3+y,2/3-x+y,2/3-z
15 1/3+x-y,2/3+x,2/3-z
16 2/3-x,1/3-y,1/3-z
17 2/3+y,1/3-x+y,1/3-z
18 2/3+x-y,1/3+x,1/3-z
_cell_length_a                   34.402(8)
_cell_length_b                   34.402(8)
_cell_length_c                   18.748(4)
_cell_angle_alpha                90
_cell_angle_beta                 90
_cell_angle_gamma                120
_cell_volume                     19215.6
_exptl_crystal_colour            colorless
_exptl_crystal_description       prismatic
_cell_formula_units_Z            18
loop_
_atom_site_label
_atom_site_type_symbol
_atom_site_fract_x
_atom_site_fract_y
_atom_site_fract_z
N1 N 0.71372(11) 0.14673(9) 0.60892(14)
N2 N 0.75004(9) 0.12453(8) 0.49915(13)
O1 O 0.50250(10) -0.11869(10) 0.58504(13)
O2 O 0.44022(9) -0.09478(9) 0.55204(13)
O3 O 0.53320(10) -0.10191(11) 0.33834(18)
O4 O 0.58876(9) -0.06178(9) 0.41252(13)
O5 O 0.44197(10) -0.02600(10) 0.66991(13)
O6 O 0.50044(10) 0.02194(9) 0.60485(13)
C1 C 0.45773(14) -0.15048(14) 0.58002(18)
C2 C 0.44466(18) -0.19447(16) 0.5964(2)
H1 H 0.4662 -0.2021 0.6084
C3 C 0.40010(19) -0.22716(17) 0.5953(3)
H2 H 0.3917 -0.2567 0.6061
C4 C 0.36836(17) -0.21619(16) 0.5784(2)
H3 H 0.3383 -0.2385 0.5772
C5 C 0.38014(15) -0.17247(15) 0.5631(2)
H4 H 0.3582 -0.1653 0.5519
C6 C 0.42458(14) -0.13957(13) 0.56461(17)
C7 C 0.52453(17) -0.09321(16) 0.5223(2)
H5 H 0.5555 -0.0718 0.5341
H6 H 0.5101 -0.0764 0.5079
C8 C 0.52392(17) -0.12064(16) 0.4622(2)
H7 H 0.4929 -0.1415 0.4496
H8 H 0.5374 -0.1382 0.4773
C9 C 0.54796(14) -0.09459(13) 0.3971(2)
C10 C 0.61861(12) -0.03470(11) 0.35565(19)
H9 H 0.6025 -0.0274 0.3206
H10 H 0.6315 -0.0507 0.3320
C11 C 0.65431(10) 0.00684(11) 0.39005(17)
C12 C 0.66589(11) 0.04941(11) 0.36583(18)
H11 H 0.6521 0.0521 0.3250
C13 C 0.69737(11) 0.08811(11) 0.40039(18)
H12 H 0.7048 0.1161 0.3820
C14 C 0.71774(10) 0.08521(10) 0.46202(17)
C15 C 0.70726(11) 0.04257(11) 0.48566(18)
H13 H 0.7213 0.0397 0.5261
C16 C 0.67629(11) 0.00461(11) 0.44955(18)
H14 H 0.6701 -0.0234 0.4661
C17 C 0.40765(14) -0.08049(13) 0.5459(2)
H15 H 0.3874 -0.0908 0.5863
H16 H 0.3903 -0.0920 0.5025
C18 C 0.43451(14) -0.03021(12) 0.54427(18)
H17 H 0.4561 -0.0207 0.5056
H18 H 0.4147 -0.0183 0.5354
C19 C 0.45867(16) -0.01191(14) 0.6128(2)
C20 C 0.52561(15) 0.04208(15) 0.6697(2)
H19 H 0.5207 0.0188 0.7038
H20 H 0.5156 0.0613 0.6911
C21 C 0.57429(15) 0.06903(14) 0.65180(19)
C22 C 0.59452(18) 0.11466(15) 0.6392(2)
H21 H 0.5772 0.1285 0.6403
C23 C 0.63970(17) 0.14001(13) 0.6251(2)
H22 H 0.6524 0.1707 0.6171
C24 C 0.66677(15) 0.12061(12) 0.62262(17)
C25 C 0.64645(15) 0.07512(13) 0.6343(2)
H23 H 0.6635 0.0611 0.6323
C26 C 0.60114(17) 0.04997(14) 0.6491(2)
H24 H 0.5884 0.0193 0.6573
C27 C 0.72988(11) 0.17659(10) 0.54927(17)
C28 C 0.73133(14) 0.21754(12) 0.5475(2)
H25 H 0.7205 0.2265 0.5859
C29 C 0.74873(13) 0.24504(12) 0.4887(2)
H26 H 0.7486 0.2720 0.4872
C30 C 0.76597(13) 0.23333(12) 0.4332(2)
H27 H 0.7773 0.2520 0.3936
C31 C 0.76673(12) 0.19363(11) 0.43537(19)
H28 H 0.7794 0.1860 0.3980
C32 C 0.74854(11) 0.16508(10) 0.49365(17)
C33 C 0.76132(12) 0.11852(11) 0.5712(2)
C34 C 0.74181(14) 0.12842(11) 0.6253(2)
C35 C 0.7610(3) 0.1246(3) 0.6932(5)
C36 C 0.7442(3) 0.1358(3) 0.7510(5)
H29 H 0.7248 0.1470 0.7446
C37 C 0.7568(3) 0.1301(3) 0.8205(5)
H30 H 0.7457 0.1371 0.8608
C38 C 0.7859(4) 0.1137(3) 0.8263(5)
H31 H 0.7942 0.1098 0.8718
C39 C 0.8033(3) 0.1031(2) 0.7697(4)
H32 H 0.8229 0.0923 0.7773
C40 C 0.7919(4) 0.1082(3) 0.6995(5)
C41 C 0.8099(3) 0.0972(3) 0.6385(5)
C42 C 0.7951(5) 0.1029(4) 0.5712(5)
C43 C 0.8135(3) 0.0924(3) 0.5098(5)
H33 H 0.8056 0.0973 0.4646
C44 C 0.8426(3) 0.0752(3) 0.5150(5)
H34 H 0.8522 0.0663 0.4750
C45 C 0.8566(3) 0.0722(3) 0.5853(5)
H35 H 0.8784 0.0639 0.5901
C46 C 0.8407(3) 0.0804(3) 0.6440(6)
H36 H 0.8493 0.0755 0.6886
C47? C 0.7418(3) 0.1242(3) 0.7048(6)
C48? C 0.7169(3) 0.1310(3) 0.7568(4)
H37? H 0.6958 0.1392 0.7441
C49? C 0.7241(3) 0.1253(3) 0.8288(4)
H38? H 0.7078 0.1298 0.8643
C50? C 0.7546(3) 0.1134(3) 0.8466(5)
H39? H 0.7584 0.1096 0.8947
C51? C 0.7801(4) 0.1068(3) 0.7987(5)
H40? H 0.8007 0.0985 0.8140
C52? C 0.7751(3) 0.1127(3) 0.7232(5)
C53? C 0.8009(3) 0.1050(4) 0.6705(7)
C54? C 0.7936(4) 0.1090(4) 0.5964(6)
C55? C 0.8517(3) 0.0935(3) 0.5609(6)
H41? H 0.8681 0.0894 0.5254
C56? C 0.8173(4) 0.1033(3) 0.5468(6)
H42? H 0.8109 0.1059 0.4994
C57? C 0.8586(3) 0.0906(4) 0.6343(7)
H43? H 0.8812 0.0847 0.6472
C58? C 0.8353(3) 0.0957(3) 0.6868(6)
H44? H 0.8418 0.0932 0.7341
loop_
_geom_bond_atom_site_label_1
_geom_bond_atom_site_label_2
_geom_bond_site_symmetry_1
_geom_bond_site_symmetry_2
N1 C24 1_555 1_555
N2 C14 1_555 1_555
O1 C1 1_555 1_555
O2 C6 1_555 1_555
O3 C9 1_555 1_555
O4 C9 1_555 1_555
O5 C19 1_555 1_555
O6 C19 1_555 1_555
C1 C2 1_555 1_555
C2 H1 1_555 1_555
C3 C2 1_555 1_555
H2 C3 1_555 1_555
C4 C3 1_555 1_555
H3 C4 1_555 1_555
C5 C4 1_555 1_555
H4 C5 1_555 1_555
C6 C1 1_555 1_555
C7 O1 1_555 1_555
H5 C7 1_555 1_555
H6 C7 1_555 1_555
C8 C7 1_555 1_555
H7 C8 1_555 1_555
H8 C8 1_555 1_555
C9 C8 1_555 1_555
C10 O4 1_555 1_555
H9 C10 1_555 1_555
H10 C10 1_555 1_555
C11 C10 1_555 1_555
C12 C11 1_555 1_555
H11 C12 1_555 1_555
C13 C12 1_555 1_555
H12 C13 1_555 1_555
C14 C13 1_555 1_555
C15 C14 1_555 1_555
H13 C15 1_555 1_555
C16 C11 1_555 1_555
H14 C16 1_555 1_555
C17 O2 1_555 1_555
H15 C17 1_555 1_555
H16 C17 1_555 1_555
C18 C17 1_555 1_555
H17 C18 1_555 1_555
H18 C18 1_555 1_555
C19 C18 1_555 1_555
C20 O6 1_555 1_555
H19 C20 1_555 1_555
H20 C20 1_555 1_555
C21 C20 1_555 1_555
C22 C21 1_555 1_555
H21 C22 1_555 1_555
C23 C22 1_555 1_555
H22 C23 1_555 1_555
C24 C23 1_555 1_555
C25 C24 1_555 1_555
H23 C25 1_555 1_555
C26 C21 1_555 1_555
H24 C26 1_555 1_555
C27 N1 1_555 1_555
C28 C27 1_555 1_555
H25 C28 1_555 1_555
C29 C28 1_555 1_555
H26 C29 1_555 1_555
C30 C29 1_555 1_555
H27 C30 1_555 1_555
C31 C30 1_555 1_555
H28 C31 1_555 1_555
C32 N2 1_555 1_555
C33 N2 1_555 1_555
C34 N1 1_555 1_555
C35 C34 1_555 1_555
C36 C35 1_555 1_555
H29 C36 1_555 1_555
C37 C36 1_555 1_555
H30 C37 1_555 1_555
C38 C37 1_555 1_555
H31 C38 1_555 1_555
C39 C38 1_555 1_555
H32 C39 1_555 1_555
C40 C35 1_555 1_555
C41 C40 1_555 1_555
C42 C33 1_555 1_555
C43 C42 1_555 1_555
H33 C43 1_555 1_555
C44 C43 1_555 1_555
H34 C44 1_555 1_555
C45 C44 1_555 1_555
H35 C45 1_555 1_555
C46 C41 1_555 1_555
H36 C46 1_555 1_555
C5 C6 1_555 1_555
C15 C16 1_555 1_555
C25 C26 1_555 1_555
C27 C32 1_555 1_555
C31 C32 1_555 1_555
C33 C34 1_555 1_555
C39 C40 1_555 1_555
C41 C42 1_555 1_555
C45 C46 1_555 1_555

#END
