
#######################################################################
#
#                 Cambridge Crystallographic Data Centre
#                                CCDC 
#
#######################################################################
#
# If this CIF has been generated from an entry in the Cambridge 
# Structural Database, then it will include bibliographic, chemical, 
# crystal, experimental, refinement or atomic coordinate data resulting 
# from the CCDC's data processing and validation procedures.
#
#######################################################################

data_TAZJEL
_chemical_formula_moiety         'C22 H14 O2 S1'
_chemical_name_systematic        
'5,6,16,17-Tetradehydro-7,9-dihydrobenzo[h]indeno[2,1-c]thiacyclododecine 8,8-dioxide'
_symmetry_cell_setting           monoclinic
_symmetry_space_group_name_H-M   'P 21/c'
_symmetry_Int_Tables_number      14
_space_group_name_Hall           '-P 2ybc'
loop_
_symmetry_equiv_pos_site_id
_symmetry_equiv_pos_as_xyz
1 x,y,z
2 -x,1/2+y,1/2-z
3 -x,-y,-z
4 x,1/2-y,1/2+z
_cell_length_a                   16.162(3)
_cell_length_b                   5.077(8)
_cell_length_c                   20.113(4)
_cell_angle_alpha                90
_cell_angle_beta                 91.606(6)
_cell_angle_gamma                90
_cell_volume                     1649.71
_exptl_crystal_colour            orange
_exptl_crystal_description       needle
_cell_formula_units_Z            4
loop_
_atom_site_label
_atom_site_type_symbol
_atom_site_fract_x
_atom_site_fract_y
_atom_site_fract_z
S1 S 0.37628(5) 0.77387(14) 0.24515(4)
O1 O 0.36695(14) 0.4935(4) 0.24810(12)
C1 C 0.15106(18) 0.6361(6) 0.25201(15)
O2 O 0.40873(14) 0.9049(4) 0.30354(11)
C2 C 0.28006(19) 0.9198(6) 0.21912(16)
H1 H 0.2860 1.1099 0.2186
H2 H 0.2659 0.8627 0.1742
C3 C 0.21175(19) 0.8463(6) 0.26415(16)
C4 C 0.2235(2) 0.3770(6) 0.09434(16)
C5 C 0.4414(2) 0.8553(7) 0.17750(16)
H3 H 0.4394 1.0435 0.1693
H4 H 0.4983 0.8076 0.1887
C6 C 0.1392(2) 0.4714(7) 0.20013(16)
H5 H 0.0932 0.3622 0.2026
C7 C 0.09774(19) 0.6374(6) 0.31060(15)
C8 C 0.2703(2) 0.2912(7) 0.03878(15)
C9 C 0.1249(2) 0.8405(6) 0.35272(16)
C10 C 0.18620(19) 0.4397(6) 0.14242(17)
C11 C 0.2389(2) 0.0979(7) -0.00426(17)
H6 H 0.1868 0.0266 0.0026
C12 C 0.0321(2) 0.4786(7) 0.32779(17)
H7 H 0.0138 0.3438 0.2997
C13 C 0.1952(2) 0.9666(7) 0.32164(17)
H8 H 0.2243 1.1098 0.3392
C14 C 0.4134(2) 0.7139(8) 0.11825(17)
C15 C 0.0205(2) 0.7244(8) 0.42902(18)
H9 H -0.0065 0.7531 0.4686
C16 C -0.0057(2) 0.5246(8) 0.38772(17)
H10 H -0.0495 0.4182 0.4001
C17 C 0.3845(2) 0.5777(8) 0.07547(18)
C18 C 0.3491(2) 0.3943(7) 0.02805(17)
C19 C 0.0864(2) 0.8846(8) 0.41273(18)
H11 H 0.1045 1.0183 0.4412
C20 C 0.2844(3) 0.0125(8) -0.05653(18)
H12 H 0.2633 -0.1190 -0.0844
C21 C 0.3926(3) 0.3065(10) -0.0259(2)
H13 H 0.4446 0.3764 -0.0336
C22 C 0.3605(3) 0.1183(10) -0.0683(2)
H14 H 0.3902 0.0631 -0.1047
loop_
_geom_bond_atom_site_label_1
_geom_bond_atom_site_label_2
_geom_bond_site_symmetry_1
_geom_bond_site_symmetry_2
S1 O1 1_555 1_555
C1 C3 1_555 1_555
O2 S1 1_555 1_555
C2 S1 1_555 1_555
H1 C2 1_555 1_555
H2 C2 1_555 1_555
C3 C2 1_555 1_555
C4 C8 1_555 1_555
C5 S1 1_555 1_555
H3 C5 1_555 1_555
H4 C5 1_555 1_555
C6 C1 1_555 1_555
H5 C6 1_555 1_555
C7 C1 1_555 1_555
C8 C11 1_555 1_555
C9 C7 1_555 1_555
C10 C4 1_555 1_555
C11 H6 1_555 1_555
C12 C7 1_555 1_555
H7 C12 1_555 1_555
C13 C3 1_555 1_555
H8 C13 1_555 1_555
C14 C5 1_555 1_555
C15 H9 1_555 1_555
C16 C12 1_555 1_555
H10 C16 1_555 1_555
C17 C14 1_555 1_555
C18 C8 1_555 1_555
C19 C9 1_555 1_555
H11 C19 1_555 1_555
C20 C11 1_555 1_555
H12 C20 1_555 1_555
C21 C18 1_555 1_555
H13 C21 1_555 1_555
C22 C20 1_555 1_555
H14 C22 1_555 1_555
C6 C10 1_555 1_555
C9 C13 1_555 1_555
C15 C16 1_555 1_555
C15 C19 1_555 1_555
C17 C18 1_555 1_555
C21 C22 1_555 1_555

#END
