
#######################################################################
#
#                 Cambridge Crystallographic Data Centre
#                                CCDC 
#
#######################################################################
#
# If this CIF has been generated from an entry in the Cambridge 
# Structural Database, then it will include bibliographic, chemical, 
# crystal, experimental, refinement or atomic coordinate data resulting 
# from the CCDC's data processing and validation procedures.
#
#######################################################################

data_TAZJIP
_chemical_formula_moiety         'C33 H26 N2 O6 S2'
_chemical_name_systematic        
'11-((4-Nitrophenyl)sulfonyl)-27-thia-11-azapentacyclo[20.7.0.0^2,7^.0^18,23^.0^25,29^]nonacosa-1(29),2,4,6,18,20,22,24-octaene-8,16-diyne 27,27-dioxide'
_symmetry_cell_setting           triclinic
_symmetry_space_group_name_H-M   'P -1'
_symmetry_Int_Tables_number      2
_space_group_name_Hall           '-P 1'
loop_
_symmetry_equiv_pos_site_id
_symmetry_equiv_pos_as_xyz
1 x,y,z
2 -x,-y,-z
_cell_length_a                   10.2044(9)
_cell_length_b                   15.6540(13)
_cell_length_c                   19.0248(16)
_cell_angle_alpha                104.842(2)
_cell_angle_beta                 91.802(3)
_cell_angle_gamma                93.404(3)
_cell_volume                     2929.01
_exptl_crystal_colour            colorless
_exptl_crystal_description       needle
_cell_formula_units_Z            4
loop_
_atom_site_label
_atom_site_type_symbol
_atom_site_fract_x
_atom_site_fract_y
_atom_site_fract_z
S1 S 0.77060(9) 0.08972(6) 0.39226(5)
S3 S 0.42679(9) 0.54744(6) 0.38375(6)
O2 O 0.6678(3) 0.02996(15) 0.40445(13)
N1 N 0.7266(2) 0.18932(16) 0.42501(14)
O3 O 0.9014(2) 0.08685(15) 0.42036(14)
O7 O 0.3442(3) 0.56252(19) 0.44543(15)
C5 C 0.7583(3) 0.4391(2) 0.33380(19)
H3 H 0.8259 0.4677 0.3670
C7 C 0.5275(3) 0.4125(2) 0.29948(19)
C8 C 0.4077(3) 0.2125(2) 0.2338(2)
C10 C 0.5509(3) 0.3465(2) 0.23908(19)
C13 C 0.4692(4) 0.2116(2) 0.3031(2)
C15 C 0.5897(3) 0.5305(2) 0.40961(19)
H4 H 0.6457 0.5847 0.4178
H5 H 0.5916 0.5100 0.4536
C16 C 0.6325(3) 0.4610(2) 0.34616(18)
C17 C 0.4427(3) 0.2802(2) 0.20114(19)
C18 C 0.8208(3) 0.2652(2) 0.42363(19)
H6 H 0.7721 0.3149 0.4189
H7 H 0.8737 0.2485 0.3814
C20 C 0.6838(4) 0.3310(2) 0.22053(19)
C22 C 0.7814(4) 0.0718(2) 0.2975(2)
O8 O 0.4322(3) 0.61025(17) 0.34076(15)
C24 C 0.9100(4) 0.2933(2) 0.4911(2)
H11 H 0.9682 0.2465 0.4909
H12 H 0.8564 0.2986 0.5330
C25 C 0.7874(3) 0.3733(2) 0.27099(19)
C30 C 0.5229(4) 0.2102(2) 0.3591(2)
C32 C 1.0634(4) 0.3739(3) 0.3767(3)
C35 C 0.3938(3) 0.4391(2) 0.3250(2)
H21 H 0.3554 0.3989 0.3511
H22 H 0.3347 0.4401 0.2843
C36 C 0.5873(3) 0.2056(2) 0.42836(19)
H23 H 0.5778 0.2610 0.4644
H24 H 0.5415 0.1588 0.4449
C39 C 1.0119(4) 0.3680(2) 0.3195(3)
C40 C 0.7159(4) 0.2736(2) 0.1534(2)
H26 H 0.6494 0.2448 0.1196
C41 C 0.6723(5) 0.0374(2) 0.2516(2)
H27 H 0.5933 0.0232 0.2705
C43 C 0.8981(4) 0.0925(3) 0.2693(3)
H29 H 0.9712 0.1147 0.3005
C45 C 0.9185(4) 0.3477(2) 0.2577(2)
C46 C 0.8003(8) 0.0462(3) 0.1518(3)
C49 C 0.3143(4) 0.1453(3) 0.1989(2)
H31 H 0.2905 0.1002 0.2206
C52 C 0.8426(5) 0.2610(3) 0.1386(2)
H34 H 0.8627 0.2285 0.0925
C53 C 0.9935(4) 0.3795(2) 0.5012(2)
H35 H 1.0284 0.3978 0.5512
H36 H 0.9367 0.4244 0.4941
C54 C 0.3822(4) 0.2798(3) 0.1351(2)
H37 H 0.4033 0.3253 0.1133
C55 C 0.2573(4) 0.1453(3) 0.1325(3)
H38 H 0.1960 0.0997 0.1091
N4 N 0.8026(10) 0.0301(4) 0.0704(3)
C57 C 1.1085(4) 0.3776(3) 0.4511(2)
H40 H 1.1671 0.4302 0.4699
H41 H 1.1575 0.3263 0.4510
C61 C 0.2904(5) 0.2119(3) 0.1011(2)
H47 H 0.2511 0.2118 0.0563
C62 C 0.9077(6) 0.0807(3) 0.1959(4)
H48 H 0.9859 0.0960 0.1768
C64 C 0.9445(4) 0.2955(3) 0.1907(3)
H50 H 1.0306 0.2829 0.1799
O10 O 0.9091(7) 0.0552(3) 0.0500(3)
C66 C 0.6825(6) 0.0243(3) 0.1762(3)
H52 H 0.6110 0.0014 0.1440
O11 O 0.7105(9) -0.0005(5) 0.0333(3)
S2 S 0.74835(9) 0.78210(6) 0.41698(5)
S4 S 1.10368(10) 0.50309(6) 0.14457(5)
O1 O 0.7958(2) 0.69511(15) 0.39426(14)
C1 C 0.9957(3) 0.88104(19) 0.30399(18)
O4 O 0.6779(3) 0.80205(18) 0.48228(14)
O5 O 1.1831(3) 0.46431(17) 0.18901(15)
N2 N 0.9839(3) 0.54479(17) 0.19250(15)
C2 C 0.7678(3) 0.8255(2) 0.2969(2)
O6 O 1.0482(3) 0.45166(17) 0.07596(14)
C3 C 0.8800(3) 0.8627(2) 0.41704(18)
H1 H 0.8604 0.9210 0.4455
H2 H 0.9616 0.8468 0.4361
C4 C 1.1915(3) 0.8238(2) 0.35102(18)
C6 C 1.1269(3) 0.8982(2) 0.34385(18)
C9 C 0.8729(3) 0.8296(2) 0.1862(2)
C11 C 1.1279(3) 0.7369(2) 0.32180(18)
C12 C 0.8869(3) 0.8598(2) 0.33750(18)
C14 C 1.0721(3) 0.6657(2) 0.29788(19)
C19 C 0.9881(3) 0.8716(2) 0.22702(19)
C21 C 0.6601(3) 0.8032(2) 0.34227(19)
H8 H 0.6057 0.7513 0.3158
H9 H 0.6052 0.8524 0.3580
C23 C 1.1875(4) 0.9815(2) 0.3740(2)
H10 H 1.1451 1.0313 0.3705
C26 C 1.3625(4) 0.7122(3) 0.1678(2)
H13 H 1.4244 0.7454 0.2026
C27 C 1.0931(4) 0.8999(2) 0.1894(2)
H14 H 1.1693 0.9282 0.2151
C28 C 0.8778(3) 0.5816(2) 0.1569(2)
H15 H 0.9088 0.5934 0.1124
H16 H 0.8558 0.6373 0.1889
C29 C 0.7637(3) 0.8078(2) 0.2230(2)
H17 H 0.6875 0.7808 0.1964
C31 C 0.8737(4) 0.8045(3) 0.1085(2)
C33 C 1.0043(4) 0.5772(2) 0.27152(19)
H18 H 1.0547 0.5354 0.2889
H19 H 0.9193 0.5780 0.2930
C34 C 1.3143(3) 0.8354(2) 0.38768(19)
H20 H 1.3572 0.7864 0.3929
C37 C 0.7764(4) 0.7362(3) 0.0714(2)
C38 C 0.9748(5) 0.8354(3) 0.0749(2)
H25 H 0.9723 0.8229 0.0243
C42 C 1.0826(4) 0.8858(3) 0.1154(2)
H28 H 1.1478 0.9099 0.0917
C44 C 1.3368(4) 0.7361(3) 0.1040(3)
C47 C 1.3093(4) 0.9917(3) 0.4091(2)
H30 H 1.3495 1.0481 0.4283
C48 C 1.1997(3) 0.5929(2) 0.1276(2)
C50 C 0.7557(4) 0.5185(3) 0.1390(2)
H32 H 0.7374 0.4974 0.1816
H33 H 0.7756 0.4677 0.1006
C51 C 0.7080(5) 0.6690(3) 0.0549(2)
N3 N 1.4085(5) 0.8154(4) 0.0928(4)
C56 C 1.2947(4) 0.6383(3) 0.1790(2)
H39 H 1.3127 0.6194 0.2206
C58 C 1.3717(4) 0.9192(3) 0.4161(2)
H42 H 1.4539 0.9268 0.4402
C59 C 0.6316(4) 0.5849(3) 0.0454(2)
H43 H 0.6680 0.5403 0.0073
H44 H 0.5419 0.5912 0.0302
C60 C 0.6314(4) 0.5542(3) 0.1155(3)
H45 H 0.6102 0.6038 0.1547
H46 H 0.5607 0.5085 0.1102
C63 C 1.2460(5) 0.6904(3) 0.0521(3)
H49 H 1.2319 0.7073 0.0092
C65 C 1.1753(4) 0.6186(3) 0.0646(2)
H51 H 1.1110 0.5873 0.0305
O9 O 1.4679(5) 0.8639(4) 0.1440(4)
O12 O 1.4018(5) 0.8283(4) 0.0327(3)
loop_
_geom_bond_atom_site_label_1
_geom_bond_atom_site_label_2
_geom_bond_site_symmetry_1
_geom_bond_site_symmetry_2
S1 O2 1_555 1_555
S2 O1 1_555 1_555
S3 O7 1_555 1_555
S4 O5 1_555 1_555
N1 S1 1_555 1_555
O3 S1 1_555 1_555
C1 C6 1_555 1_555
O4 S2 1_555 1_555
N2 S4 1_555 1_555
C2 C12 1_555 1_555
O6 S4 1_555 1_555
C3 S2 1_555 1_555
H1 C3 1_555 1_555
H2 C3 1_555 1_555
C4 C6 1_555 1_555
C5 H3 1_555 1_555
C6 C23 1_555 1_555
C7 C10 1_555 1_555
C8 C13 1_555 1_555
C9 C19 1_555 1_555
C10 C17 1_555 1_555
C11 C4 1_555 1_555
C12 C1 1_555 1_555
C13 C30 1_555 1_555
C14 C11 1_555 1_555
C15 S3 1_555 1_555
H4 C15 1_555 1_555
H5 C15 1_555 1_555
C16 C5 1_555 1_555
C17 C8 1_555 1_555
C18 N1 1_555 1_555
H6 C18 1_555 1_555
H7 C18 1_555 1_555
C19 C1 1_555 1_555
C20 C10 1_555 1_555
C21 S2 1_555 1_555
H8 C21 1_555 1_555
H9 C21 1_555 1_555
C22 S1 1_555 1_555
O8 S3 1_555 1_555
C23 H10 1_555 1_555
C24 C18 1_555 1_555
H11 C24 1_555 1_555
H12 C24 1_555 1_555
C25 C5 1_555 1_555
C26 H13 1_555 1_555
C27 C19 1_555 1_555
H14 C27 1_555 1_555
C28 N2 1_555 1_555
H15 C28 1_555 1_555
H16 C28 1_555 1_555
C29 C2 1_555 1_555
H17 C29 1_555 1_555
C30 C36 1_555 1_555
C31 C9 1_555 1_555
C32 C39 1_555 1_555
C33 N2 1_555 1_555
H18 C33 1_555 1_555
H19 C33 1_555 1_555
C34 C4 1_555 1_555
H20 C34 1_555 1_555
C35 S3 1_555 1_555
H21 C35 1_555 1_555
H22 C35 1_555 1_555
C36 N1 1_555 1_555
H23 C36 1_555 1_555
H24 C36 1_555 1_555
C37 C31 1_555 1_555
C38 C31 1_555 1_555
H25 C38 1_555 1_555
C39 C45 1_555 1_555
C40 C20 1_555 1_555
H26 C40 1_555 1_555
C41 C22 1_555 1_555
H27 C41 1_555 1_555
C42 C27 1_555 1_555
H28 C42 1_555 1_555
C43 C22 1_555 1_555
H29 C43 1_555 1_555
C44 C26 1_555 1_555
C45 C25 1_555 1_555
C46 N4 1_555 1_555
C47 C23 1_555 1_555
H30 C47 1_555 1_555
C48 S4 1_555 1_555
C49 C8 1_555 1_555
H31 C49 1_555 1_555
C50 C28 1_555 1_555
H32 C50 1_555 1_555
H33 C50 1_555 1_555
C51 C37 1_555 1_555
C52 C40 1_555 1_555
H34 C52 1_555 1_555
C53 C24 1_555 1_555
H35 C53 1_555 1_555
H36 C53 1_555 1_555
C54 C17 1_555 1_555
H37 C54 1_555 1_555
N3 C44 1_555 1_555
C55 C49 1_555 1_555
H38 C55 1_555 1_555
N4 O10 1_555 1_555
C56 C26 1_555 1_555
H39 C56 1_555 1_555
C57 C32 1_555 1_555
H40 C57 1_555 1_555
H41 C57 1_555 1_555
C58 C34 1_555 1_555
H42 C58 1_555 1_555
C59 C51 1_555 1_555
H43 C59 1_555 1_555
H44 C59 1_555 1_555
C60 C50 1_555 1_555
H45 C60 1_555 1_555
H46 C60 1_555 1_555
C61 C54 1_555 1_555
H47 C61 1_555 1_555
C62 C43 1_555 1_555
H48 C62 1_555 1_555
C63 C44 1_555 1_555
H49 C63 1_555 1_555
C64 C45 1_555 1_555
H50 C64 1_555 1_555
C65 C48 1_555 1_555
H51 C65 1_555 1_555
O9 N3 1_555 1_555
C66 C41 1_555 1_555
H52 C66 1_555 1_555
O11 N4 1_555 1_555
O12 N3 1_555 1_555
C2 C21 1_555 1_555
C3 C12 1_555 1_555
C7 C16 1_555 1_555
C7 C35 1_555 1_555
C9 C29 1_555 1_555
C14 C33 1_555 1_555
C15 C16 1_555 1_555
C20 C25 1_555 1_555
C38 C42 1_555 1_555
C46 C62 1_555 1_555
C46 C66 1_555 1_555
C47 C58 1_555 1_555
C48 C56 1_555 1_555
C52 C64 1_555 1_555
C53 C57 1_555 1_555
C55 C61 1_555 1_555
C59 C60 1_555 1_555
C63 C65 1_555 1_555

#END
