
#######################################################################
#
#                 Cambridge Crystallographic Data Centre
#                                CCDC 
#
#######################################################################
#
# If this CIF has been generated from an entry in the Cambridge 
# Structural Database, then it will include bibliographic, chemical, 
# crystal, experimental, refinement or atomic coordinate data resulting 
# from the CCDC's data processing and validation procedures.
#
#######################################################################

data_TAZMAK
_chemical_formula_moiety         'C32 H22 N2 O2 S1,C3 H6 O1'
_chemical_name_systematic        
'2-Cyano-3-(5-(2-(4-(diphenylamino)-1-naphthyl)vinyl)-2-thienyl)acrylic acid acetone solvate'
_symmetry_cell_setting           triclinic
_symmetry_space_group_name_H-M   'P -1'
_symmetry_Int_Tables_number      2
_space_group_name_Hall           '-P 1'
loop_
_symmetry_equiv_pos_site_id
_symmetry_equiv_pos_as_xyz
1 x,y,z
2 -x,-y,-z
_cell_length_a                   9.2816(5)
_cell_length_b                   9.3435(4)
_cell_length_c                   17.8317(9)
_cell_angle_alpha                97.474(4)
_cell_angle_beta                 98.226(4)
_cell_angle_gamma                113.725(4)
_cell_volume                     1370.78
_exptl_crystal_colour            orange
_exptl_crystal_description       prism
_cell_formula_units_Z            2
_exptl_crystal_recrystallization_method 'acetone/diethyl ether'
loop_
_atom_site_label
_atom_site_type_symbol
_atom_site_fract_x
_atom_site_fract_y
_atom_site_fract_z
S1 S 0.94169(6) 0.59109(6) 0.37350(3)
O1 O 1.2698(2) 1.24638(17) 0.50510(10)
O2 O 1.44162(19) 1.14910(18) 0.55083(10)
N1 N 0.0800(2) -0.31053(19) 0.14938(11)
N2 N 0.9378(3) 0.9674(2) 0.38365(12)
C1 C 0.5277(2) 0.0939(2) 0.24257(13)
C2 C 0.4633(3) -0.0212(2) 0.28417(14)
H1 H 0.5181 -0.01 0.3341
C3 C 0.3157(3) -0.1559(2) 0.25288(14)
H2 H 0.2744 -0.2321 0.2823
C4 C 0.2327(3) -0.1758(2) 0.17969(13)
C5 C 0.2202(3) -0.0868(2) 0.05472(13)
H3 H 0.1215 -0.1742 0.034
C6 C 0.2888(3) 0.0189(2) 0.00968(13)
H4 H 0.2366 0.0032 -0.0413
C7 C 0.4379(3) 0.1510(2) 0.04036(13)
H5 H 0.4849 0.2215 0.0093
C8 C 0.5141(3) 0.1765(2) 0.11512(13)
H6 H 0.6122 0.2652 0.1346
C9 C 0.4475(2) 0.0711(2) 0.16395(13)
C10 C 0.2975(2) -0.0647(2) 0.13232(13)
C11 C 0.6714(3) 0.2431(2) 0.27959(13)
H7 H 0.6786 0.336 0.2634
C12 C 0.7915(3) 0.2554(2) 0.33440(13)
H8 H 0.7867 0.161 0.348
C13 C 0.9295(3) 0.4019(2) 0.37493(13)
C14 C 1.0662(3) 0.4082(2) 0.41941(13)
H9 H 1.0802 0.318 0.4276
C15 C 1.1824(3) 0.5645(2) 0.45116(13)
H10 H 1.2824 0.5886 0.4817
C16 C 1.1338(2) 0.6796(2) 0.43262(13)
C17 C 1.2269(3) 0.8449(2) 0.46556(13)
H11 H 1.3283 0.8688 0.4947
C18 C 1.1962(3) 0.9730(2) 0.46255(13)
C19 C 1.3163(3) 1.1310(2) 0.51078(14)
C20 C 1.0517(3) 0.9676(2) 0.41809(14)
C21 C 0.0825(3) -0.4632(2) 0.13978(13)
C22 C 0.1788(3) -0.4955(2) 0.09389(14)
H12 H 0.2394 -0.4182 0.0689
C23 C 0.1854(3) -0.6417(3) 0.08495(14)
H13 H 0.2504 -0.6622 0.054
C24 C 0.0960(3) -0.7576(3) 0.12170(14)
H14 H 0.1012 -0.8557 0.1161
C25 C -0.0013(3) -0.7263(3) 0.16699(14)
H15 H -0.063 -0.8046 0.1912
C26 C -0.0077(3) -0.5799(2) 0.17661(13)
H16 H -0.0723 -0.5595 0.2078
C27 C -0.0640(3) -0.2938(2) 0.15118(13)
C28 C -0.2116(3) -0.4117(2) 0.10697(13)
H17 H -0.2144 -0.5019 0.0765
C29 C -0.3525(3) -0.3961(3) 0.10796(14)
H18 H -0.4494 -0.4764 0.0787
C30 C -0.3517(3) -0.2618(3) 0.15215(14)
H19 H -0.4468 -0.2507 0.1524
C31 C -0.2067(3) -0.1454(3) 0.19570(14)
H20 H -0.2046 -0.0552 0.2258
C32 C -0.0641(3) -0.1598(2) 0.19551(14)
H21 H 0.0323 -0.0794 0.2252
H28 H 1.350(3) 1.349(3) 0.5364(17)
C33 C 0.4400(3) 0.4311(3) 0.34805(15)
C34 C 0.3084(3) 0.2654(3) 0.31807(16)
H22 H 0.322 0.1961 0.351
H23 H 0.3133 0.2266 0.2664
H24 H 0.2057 0.2673 0.3177
C35 C 0.4619(5) 0.5456(3) 0.29767(18)
H25 H 0.5322 0.6511 0.327
H26 H 0.3594 0.5423 0.2763
H27 H 0.5087 0.5189 0.2564
O3 O 0.5241(2) 0.46660(18) 0.41254(10)
loop_
_geom_bond_atom_site_label_1
_geom_bond_atom_site_label_2
_geom_bond_site_symmetry_1
_geom_bond_site_symmetry_2
S1 C13 1_555 1_555
O1 C19 1_555 1_555
O2 C19 1_555 1_555
N1 C4 1_555 1_555
N2 C20 1_555 1_555
C1 C2 1_555 1_555
C2 H1 1_555 1_555
C3 C2 1_555 1_555
H2 C3 1_555 1_555
C4 C3 1_555 1_555
C5 H3 1_555 1_555
C6 C5 1_555 1_555
H4 C6 1_555 1_555
C7 C6 1_555 1_555
H5 C7 1_555 1_555
C8 C7 1_555 1_555
H6 C8 1_555 1_555
C9 C1 1_555 1_555
C10 C4 1_555 1_555
C11 C1 1_555 1_555
H7 C11 1_555 1_555
C12 C11 1_555 1_555
H8 C12 1_555 1_555
C13 C12 1_555 1_555
C14 C13 1_555 1_555
H9 C14 1_555 1_555
C15 C14 1_555 1_555
H10 C15 1_555 1_555
C16 S1 1_555 1_555
C17 C16 1_555 1_555
H11 C17 1_555 1_555
C18 C17 1_555 1_555
C19 C18 1_555 1_555
C20 C18 1_555 1_555
C21 N1 1_555 1_555
C22 C21 1_555 1_555
H12 C22 1_555 1_555
C23 C22 1_555 1_555
H13 C23 1_555 1_555
C24 C23 1_555 1_555
H14 C24 1_555 1_555
C25 C24 1_555 1_555
H15 C25 1_555 1_555
C26 C21 1_555 1_555
H16 C26 1_555 1_555
C27 N1 1_555 1_555
C28 C27 1_555 1_555
H17 C28 1_555 1_555
C29 C28 1_555 1_555
H18 C29 1_555 1_555
C30 C29 1_555 1_555
H19 C30 1_555 1_555
C31 C30 1_555 1_555
H20 C31 1_555 1_555
C32 C27 1_555 1_555
H21 C32 1_555 1_555
C33 C34 1_555 1_555
C34 H22 1_555 1_555
H23 C34 1_555 1_555
H24 C34 1_555 1_555
C35 C33 1_555 1_555
H25 C35 1_555 1_555
H26 C35 1_555 1_555
H27 C35 1_555 1_555
H28 O1 1_555 1_555
O3 C33 1_555 1_555
C5 C10 1_555 1_555
C8 C9 1_555 1_555
C9 C10 1_555 1_555
C15 C16 1_555 1_555
C25 C26 1_555 1_555
C31 C32 1_555 1_555

#END
