
#######################################################################
#
#                 Cambridge Crystallographic Data Centre
#                                CCDC 
#
#######################################################################
#
# If this CIF has been generated from an entry in the Cambridge 
# Structural Database, then it will include bibliographic, chemical, 
# crystal, experimental, refinement or atomic coordinate data resulting 
# from the CCDC's data processing and validation procedures.
#
#######################################################################

data_TAZNOA
_chemical_formula_moiety         'C13 H16 F3 N1 O3 S1'
_chemical_name_systematic        
1,1,1-trifluoro-N-((5-methoxy-2-methyl-2,3-dihydro-1H-inden-1-yl)methyl)methanesulfonamide
_symmetry_cell_setting           orthorhombic
_symmetry_space_group_name_H-M   'P 21 21 21'
_symmetry_Int_Tables_number      19
_space_group_name_Hall           'P 2ac 2ab'
loop_
_symmetry_equiv_pos_site_id
_symmetry_equiv_pos_as_xyz
1 x,y,z
2 1/2+x,1/2-y,-z
3 -x,1/2+y,1/2-z
4 1/2-x,-y,1/2+z
_cell_length_a                   5.2899(5)
_cell_length_b                   9.3662(9)
_cell_length_c                   29.113(3)
_cell_angle_alpha                90
_cell_angle_beta                 90
_cell_angle_gamma                90
_cell_volume                     1442.44
_exptl_crystal_colour            colorless
_exptl_crystal_description       block
_cell_formula_units_Z            4
loop_
_atom_site_label
_atom_site_type_symbol
_atom_site_fract_x
_atom_site_fract_y
_atom_site_fract_z
S1 S 1.22313(11) 0.39325(6) 0.95606(2)
F1 F 1.2710(5) 0.66326(19) 0.97303(7)
F2 F 0.8899(4) 0.5876(2) 0.97558(7)
F3 F 1.0733(4) 0.61671(17) 0.91068(6)
O1 O 0.6464(4) 0.0769(2) 0.68134(6)
O2 O 1.4511(3) 0.3946(2) 0.93043(7)
O3 O 1.2183(4) 0.36127(19) 1.00400(6)
N1 N 1.0188(4) 0.3013(2) 0.93101(7)
H1 H 0.9056 0.2575 0.9481
C1 C 0.9792(5) 0.0029(3) 0.87577(9)
H2 H 0.8442 -0.0687 0.8826
C2 C 0.8462(5) 0.1503(3) 0.87001(8)
H3 H 0.6889 0.1515 0.8891
C3 C 0.7737(5) 0.1493(2) 0.81967(8)
C4 C 0.6025(5) 0.2360(3) 0.79698(9)
H4 H 0.5170 0.3098 0.8131
C5 C 0.5562(5) 0.2143(3) 0.75037(9)
H5 H 0.4375 0.2727 0.7347
C6 C 0.6835(5) 0.1076(3) 0.72702(8)
C7 C 0.8620(5) 0.0228(3) 0.74929(9)
H6 H 0.9526 -0.0486 0.7329
C8 C 0.9049(5) 0.0445(3) 0.79569(9)
C9 C 1.0837(5) -0.0325(3) 0.82740(9)
H7 H 1.2588 0.0032 0.8237
H8 H 1.0813 -0.1367 0.8217
C10 C 1.1763(6) -0.0100(3) 0.91346(10)
H9 H 1.2503 -0.1060 0.9128
H10 H 1.0965 0.0064 0.9434
H11 H 1.3095 0.0611 0.9085
C11 C 1.0024(5) 0.2829(3) 0.88094(8)
H12 H 1.1742 0.2727 0.8679
H13 H 0.9222 0.3680 0.8670
C12 C 1.1070(6) 0.5764(3) 0.95366(10)
C13 C 0.4397(6) 0.1441(3) 0.65923(10)
H14 H 0.2836 0.1229 0.6760
H15 H 0.4255 0.1085 0.6277
H16 H 0.4671 0.2476 0.6587
loop_
_geom_bond_atom_site_label_1
_geom_bond_atom_site_label_2
_geom_bond_site_symmetry_1
_geom_bond_site_symmetry_2
S1 O2 1_555 1_555
F1 C12 1_555 1_555
F2 C12 1_555 1_555
F3 C12 1_555 1_555
O1 C6 1_555 1_555
O3 S1 1_555 1_555
N1 S1 1_555 1_555
H1 N1 1_555 1_555
C1 H2 1_555 1_555
C2 C1 1_555 1_555
H3 C2 1_555 1_555
C3 C2 1_555 1_555
C4 C3 1_555 1_555
H4 C4 1_555 1_555
C5 C4 1_555 1_555
H5 C5 1_555 1_555
C6 C5 1_555 1_555
C7 C6 1_555 1_555
H6 C7 1_555 1_555
C8 C3 1_555 1_555
C9 C1 1_555 1_555
H7 C9 1_555 1_555
H8 C9 1_555 1_555
C10 C1 1_555 1_555
H9 C10 1_555 1_555
H10 C10 1_555 1_555
H11 C10 1_555 1_555
C11 N1 1_555 1_555
H12 C11 1_555 1_555
H13 C11 1_555 1_555
C12 S1 1_555 1_555
C13 O1 1_555 1_555
H14 C13 1_555 1_555
H15 C13 1_555 1_555
H16 C13 1_555 1_555
C2 C11 1_555 1_555
C7 C8 1_555 1_555
C8 C9 1_555 1_555

#END
