
#######################################################################
#
#                 Cambridge Crystallographic Data Centre
#                                CCDC 
#
#######################################################################
#
# If this CIF has been generated from an entry in the Cambridge 
# Structural Database, then it will include bibliographic, chemical, 
# crystal, experimental, refinement or atomic coordinate data resulting 
# from the CCDC's data processing and validation procedures.
#
#######################################################################

data_TAZPAL
_chemical_formula_moiety         'C22 H24 N2 O2'
_chemical_name_systematic        
3-(1,2,3,4,5,11-Hexahydro-3-methyl-2,6-methano-9-methoxy-6H-azocino(4,5-b)indol-6-yl)phenol
_symmetry_cell_setting           orthorhombic
_symmetry_space_group_name_H-M   'P 21 21 21'
_symmetry_Int_Tables_number      19
_space_group_name_Hall           'P 2ac 2ab'
loop_
_symmetry_equiv_pos_site_id
_symmetry_equiv_pos_as_xyz
1 x,y,z
2 1/2-x,-y,1/2+z
3 1/2+x,1/2-y,-z
4 -x,1/2+y,1/2-z
_cell_length_a                   9.764(2)
_cell_length_b                   11.236(1)
_cell_length_c                   16.647(1)
_cell_angle_alpha                90
_cell_angle_beta                 90
_cell_angle_gamma                90
_cell_volume                     1826.31
_exptl_crystal_colour            colorless
_cell_formula_units_Z            4
loop_
_atom_site_label
_atom_site_type_symbol
_atom_site_fract_x
_atom_site_fract_y
_atom_site_fract_z
C1 C -0.1052(6) -0.1990(4) 0.3702(3)
O1 O -0.0671(5) -0.2816(3) 0.3137(2)
C2 C -0.0420(5) -0.0895(3) 0.3740(2)
C3 C -0.0849(4) -0.0009(4) 0.4266(2)
C4 C -0.1948(5) -0.0289(4) 0.4772(3)
C5 C -0.2534(5) -0.1401(4) 0.4757(3)
C6 C -0.2095(6) -0.2257(4) 0.4223(3)
C7 C -0.0773(5) 0.3878(4) 0.4597(2)
C8 C -0.0772(5) 0.3334(4) 0.3745(2)
N1 N 0.0566(4) 0.3341(3) 0.3320(2)
C9 C 0.1105(5) 0.4552(4) 0.3199(3)
C10 C 0.1614(4) 0.2602(3) 0.3718(3)
C11 C 0.1112(4) 0.1326(4) 0.3803(2)
C12 C -0.0139(4) 0.1786(3) 0.5075(2)
C13 C -0.0273(4) 0.1252(4) 0.4247(2)
C14 C 0.0265(4) 0.1269(3) 0.5837(2)
C15 C 0.0631(4) 0.0140(3) 0.6108(2)
C16 C 0.0949(4) -0.0034(4) 0.6900(2)
C17 C 0.0904(5) 0.0908(4) 0.7451(2)
O2 O 0.1211(3) 0.0598(3) 0.8234(2)
C18 C 0.1343(6) 0.1536(4) 0.8800(3)
C19 C 0.0553(4) 0.2041(4) 0.7214(2)
C20 C 0.0237(4) 0.2208(4) 0.6406(2)
N2 N -0.0115(4) 0.3237(3) 0.6009(2)
C21 C -0.0354(4) 0.2961(4) 0.5207(2)
C22 C -0.1270(4) 0.2048(3) 0.3773(2)
H1 H -0.0556(58) -0.2249(43) 0.2619(31)
H2 H 0.0320(5) -0.0744(3) 0.3403(2)
H3 H -0.2286(5) 0.0285(4) 0.5123(3)
H4 H -0.3239(5) -0.1579(4) 0.5113(3)
H5 H -0.2500(6) -0.3006(4) 0.4215(3)
H6 H -0.0143(5) 0.4545(4) 0.4616(2)
H7 H -0.1682(5) 0.4172(4) 0.4724(2)
H8 H -0.1423(5) 0.3788(4) 0.3419(2)
H9 H 0.0422(5) 0.5033(4) 0.2941(3)
H10 H 0.1909(5) 0.4518(4) 0.2869(3)
H11 H 0.1334(5) 0.4895(4) 0.3710(3)
H12 H 0.1815(4) 0.2926(3) 0.4245(3)
H13 H 0.2451(4) 0.2614(3) 0.3404(3)
H14 H 0.1789(4) 0.0867(4) 0.4095(2)
H15 H 0.1015(4) 0.0977(4) 0.3273(2)
H16 H 0.0658(4) -0.0496(3) 0.5751(2)
H17 H 0.1199(4) -0.0790(4) 0.7075(2)
H18 H 0.1556(6) 0.1210(4) 0.9319(3)
H19 H 0.0498(6) 0.1970(4) 0.8830(3)
H20 H 0.2065(6) 0.2061(4) 0.8635(3)
H21 H 0.0529(4) 0.2669(4) 0.7578(2)
H22 H -0.0178(4) 0.3933(3) 0.6221(2)
H23 H -0.1358(4) 0.1746(3) 0.3230(2)
H24 H -0.2166(4) 0.2019(3) 0.4024(2)
loop_
_geom_bond_atom_site_label_1
_geom_bond_atom_site_label_2
_geom_bond_site_symmetry_1
_geom_bond_site_symmetry_2
C1 O1 1_555 1_555
O1 H1 1_555 1_555
C2 C1 1_555 1_555
C3 C2 1_555 1_555
C4 C3 1_555 1_555
C5 C4 1_555 1_555
C6 C1 1_555 1_555
C7 C8 1_555 1_555
C8 N1 1_555 1_555
N1 C9 1_555 1_555
C9 H9 1_555 1_555
C10 N1 1_555 1_555
C11 C10 1_555 1_555
C12 C13 1_555 1_555
C13 C3 1_555 1_555
C14 C12 1_555 1_555
C15 C14 1_555 1_555
C16 C15 1_555 1_555
C17 C16 1_555 1_555
O2 C17 1_555 1_555
C18 O2 1_555 1_555
C19 C17 1_555 1_555
C20 C14 1_555 1_555
N2 C20 1_555 1_555
C21 C7 1_555 1_555
C22 C8 1_555 1_555
H2 C2 1_555 1_555
H3 C4 1_555 1_555
H4 C5 1_555 1_555
H5 C6 1_555 1_555
H6 C7 1_555 1_555
H7 C7 1_555 1_555
H8 C8 1_555 1_555
H10 C9 1_555 1_555
H11 C9 1_555 1_555
H12 C10 1_555 1_555
H13 C10 1_555 1_555
H14 C11 1_555 1_555
H15 C11 1_555 1_555
H16 C15 1_555 1_555
H17 C16 1_555 1_555
H18 C18 1_555 1_555
H19 C18 1_555 1_555
H20 C18 1_555 1_555
H21 C19 1_555 1_555
H22 N2 1_555 1_555
H23 C22 1_555 1_555
H24 C22 1_555 1_555
C5 C6 1_555 1_555
C11 C13 1_555 1_555
C12 C21 1_555 1_555
C13 C22 1_555 1_555
C19 C20 1_555 1_555
N2 C21 1_555 1_555

#END
