
#######################################################################
#
#                 Cambridge Crystallographic Data Centre
#                                CCDC 
#
#######################################################################
#
# If this CIF has been generated from an entry in the Cambridge 
# Structural Database, then it will include bibliographic, chemical, 
# crystal, experimental, refinement or atomic coordinate data resulting 
# from the CCDC's data processing and validation procedures.
#
#######################################################################

data_TAZRAQ
_chemical_name_common            
bis(mu-bis(trifluoromethanesulfonyl)azanido)-bis(18-crown-6)-di-caesium(i)
_chemical_formula_moiety         'C28 H48 Cs2 F12 N2 O20 S4'
_chemical_name_systematic        
bis(1,4,7,10,13,16-hexaoxacyclooctadecane)-bis(\m-bis(trifluoromethanesulfonyl)azanido)-di-caesium(i)
_symmetry_cell_setting           monoclinic
_symmetry_space_group_name_H-M   'C 2/c'
_symmetry_Int_Tables_number      15
_space_group_name_Hall           '-C 2yn'
loop_
_symmetry_equiv_pos_site_id
_symmetry_equiv_pos_as_xyz
1 x,y,z
2 -x,y,1/2-z
3 1/2+x,1/2+y,z
4 1/2-x,1/2+y,1/2-z
5 -x,-y,-z
6 x,-y,1/2+z
7 1/2-x,1/2-y,-z
8 1/2+x,1/2-y,1/2+z
_cell_length_a                   24.9730(10)
_cell_length_b                   9.0296(3)
_cell_length_c                   23.5008(9)
_cell_angle_alpha                90
_cell_angle_beta                 109.240(5)
_cell_angle_gamma                90
_cell_volume                     5003.35
_cell_formula_units_Z            4
loop_
_atom_site_label
_atom_site_type_symbol
_atom_site_fract_x
_atom_site_fract_y
_atom_site_fract_z
C1 C 0.4508(2) 0.8068(5) 0.5891(3)
C2 C 0.4161(2) 0.2468(5) 0.5666(2)
C3 C 0.22369(17) 0.7377(5) 0.41332(18)
H1 H 0.1948 0.7697 0.3752
H2 H 0.2133 0.7789 0.4473
C4 C 0.22529(18) 0.5732(5) 0.41684(19)
H3 H 0.2569 0.5412 0.4528
H4 H 0.1894 0.5357 0.4207
C5 C 0.2326(2) 0.3574(5) 0.3645(2)
H5 H 0.1964 0.3211 0.3678
H6 H 0.2639 0.3206 0.3998
C6 C 0.23983(19) 0.3002(4) 0.30795(19)
H7 H 0.2322 0.1924 0.3044
H8 H 0.2126 0.3497 0.2726
C7 C 0.3047(2) 0.2849(5) 0.2549(2)
H9 H 0.2757 0.3314 0.2201
H10 H 0.3011 0.1760 0.2502
C8 C 0.3627(2) 0.3327(6) 0.2571(2)
H11 H 0.3912 0.2964 0.2948
H12 H 0.3718 0.2895 0.2227
C9 C 0.41937(19) 0.5422(7) 0.2550(2)
H13 H 0.4285 0.5003 0.2204
H14 H 0.4493 0.5114 0.2926
C10 C 0.4171(2) 0.7042(7) 0.2509(2)
H15 H 0.4524 0.7419 0.2456
H16 H 0.3848 0.7345 0.2153
C11 C 0.4112(2) 0.9217(6) 0.3041(2)
H17 H 0.3806 0.9600 0.2685
H18 H 0.4479 0.9584 0.3021
C12 C 0.4027(2) 0.9747(6) 0.3600(2)
H19 H 0.4311 0.9285 0.3954
H20 H 0.4079 1.0834 0.3633
C13 C 0.3370(2) 0.9907(5) 0.4119(2)
H21 H 0.3404 1.0999 0.4138
H22 H 0.3657 0.9493 0.4483
C14 C 0.2799(2) 0.9468(4) 0.4106(2)
H23 H 0.2709 0.9945 0.4442
H24 H 0.2515 0.9793 0.3723
Cs1 Cs 0.363020(9) 0.58565(2) 0.384292(9)
F1 F 0.39460(12) 0.8143(3) 0.5668(2)
F2 F 0.47101(13) 0.9175(3) 0.5653(2)
F3 F 0.46696(18) 0.8256(4) 0.6470(2)
F4 F 0.44971(14) 0.2391(3) 0.53448(16)
F5 F 0.37347(13) 0.1552(3) 0.54355(13)
F6 F 0.44437(13) 0.1992(3) 0.62197(13)
N1 N 0.44589(14) 0.5191(3) 0.59944(14)
O1 O 0.53447(11) 0.6363(3) 0.59966(13)
O2 O 0.45561(13) 0.6357(4) 0.50524(13)
O3 O 0.35752(13) 0.4220(3) 0.60859(14)
O4 O 0.35963(13) 0.4680(4) 0.50719(13)
O5 O 0.27790(11) 0.7905(3) 0.41584(12)
O6 O 0.23285(11) 0.5141(3) 0.36420(11)
O7 O 0.29606(12) 0.3283(3) 0.30918(12)
O8 O 0.36525(12) 0.4884(4) 0.25484(12)
O9 O 0.41071(13) 0.7662(4) 0.30353(13)
O10 O 0.34732(13) 0.9381(3) 0.35972(14)
S1 S 0.47485(4) 0.63301(10) 0.56872(4)
S2 S 0.38929(4) 0.43335(10) 0.56839(4)
C1D C 0.5492(2) 0.1932(5) 0.4109(3)
C2D C 0.5839(2) 0.7532(5) 0.4334(2)
C3D C 0.77631(17) 0.2623(5) 0.58668(18)
H1D H 0.8052 0.2303 0.6248
H2D H 0.7867 0.2211 0.5527
C4D C 0.77471(18) 0.4268(5) 0.58316(19)
H3D H 0.7431 0.4588 0.5472
H4D H 0.8106 0.4643 0.5793
C5D C 0.7674(2) 0.6426(5) 0.6355(2)
H5D H 0.8036 0.6789 0.6322
H6D H 0.7361 0.6794 0.6002
C6D C 0.76017(19) 0.6998(4) 0.69205(19)
H7D H 0.7678 0.8076 0.6956
H8D H 0.7874 0.6503 0.7274
C7D C 0.6953(2) 0.7151(5) 0.7451(2)
H9D H 0.7243 0.6686 0.7799
H10D H 0.6989 0.8240 0.7498
C8D C 0.6373(2) 0.6673(6) 0.7429(2)
H11D H 0.6088 0.7036 0.7052
H12D H 0.6282 0.7105 0.7773
C9D C 0.58063(19) 0.4578(7) 0.7450(2)
H13D H 0.5715 0.4997 0.7796
H14D H 0.5507 0.4886 0.7074
C10D C 0.5829(2) 0.2958(7) 0.7491(2)
H15D H 0.5476 0.2581 0.7544
H16D H 0.6152 0.2655 0.7847
C11D C 0.5888(2) 0.0783(6) 0.6959(2)
H17D H 0.6194 0.0400 0.7315
H18D H 0.5521 0.0416 0.6979
C12D C 0.5973(2) 0.0253(6) 0.6400(2)
H19D H 0.5689 0.0715 0.6046
H20D H 0.5921 -0.0834 0.6367
C13D C 0.6630(2) 0.0093(5) 0.5881(2)
H21D H 0.6596 -0.0999 0.5862
H22D H 0.6343 0.0507 0.5517
C14D C 0.7201(2) 0.0532(4) 0.5894(2)
H23D H 0.7291 0.0055 0.5558
H24D H 0.7485 0.0207 0.6277
Cs1D Cs 0.636980(9) 0.41435(2) 0.615708(9)
F1D F 0.60540(12) 0.1857(3) 0.4332(2)
F2D F 0.52899(13) 0.0825(3) 0.4347(2)
F3D F 0.53304(18) 0.1744(4) 0.3530(2)
F4D F 0.55029(14) 0.7609(3) 0.46552(16)
F5D F 0.62653(13) 0.8448(3) 0.45645(13)
F6D F 0.55563(13) 0.8008(3) 0.37803(13)
N1D N 0.55411(14) 0.4809(3) 0.40056(14)
O1D O 0.46553(11) 0.3637(3) 0.40034(13)
O2D O 0.54439(13) 0.3643(4) 0.49476(13)
O3D O 0.64248(13) 0.5780(3) 0.39141(14)
O4D O 0.64037(13) 0.5320(4) 0.49281(13)
O5D O 0.72210(11) 0.2095(3) 0.58416(12)
O6D O 0.76715(11) 0.4859(3) 0.63580(11)
O7D O 0.70394(12) 0.6717(3) 0.69082(12)
O8D O 0.63475(12) 0.5116(4) 0.74516(12)
O9D O 0.58929(13) 0.2338(4) 0.69647(13)
O10D O 0.65268(13) 0.0619(3) 0.64028(14)
S1D S 0.52515(4) 0.36699(10) 0.43128(4)
S2D S 0.61071(4) 0.56665(10) 0.43161(4)
loop_
_geom_bond_atom_site_label_1
_geom_bond_atom_site_label_2
_geom_bond_site_symmetry_1
_geom_bond_site_symmetry_2
C1 F1 1_555 1_555
C2 F4 1_555 1_555
C3 H1 1_555 1_555
H2 C3 1_555 1_555
C4 C3 1_555 1_555
H3 C4 1_555 1_555
H4 C4 1_555 1_555
C5 H5 1_555 1_555
H6 C5 1_555 1_555
C6 C5 1_555 1_555
H7 C6 1_555 1_555
H8 C6 1_555 1_555
C7 H9 1_555 1_555
H10 C7 1_555 1_555
C8 C7 1_555 1_555
H11 C8 1_555 1_555
H12 C8 1_555 1_555
C9 H13 1_555 1_555
H14 C9 1_555 1_555
C10 C9 1_555 1_555
H15 C10 1_555 1_555
H16 C10 1_555 1_555
C11 H17 1_555 1_555
H18 C11 1_555 1_555
C12 C11 1_555 1_555
H19 C12 1_555 1_555
H20 C12 1_555 1_555
C13 H21 1_555 1_555
H22 C13 1_555 1_555
C14 C13 1_555 1_555
H23 C14 1_555 1_555
H24 C14 1_555 1_555
Cs1 O2 1_555 1_555
F2 C1 1_555 1_555
F3 C1 1_555 1_555
F5 C2 1_555 1_555
F6 C2 1_555 1_555
N1 S1 1_555 1_555
O1 S1 1_555 1_555
O2 S1 1_555 1_555
O3 S2 1_555 1_555
O4 Cs1 1_555 1_555
O5 C3 1_555 1_555
O6 C4 1_555 1_555
O7 C6 1_555 1_555
O8 C8 1_555 1_555
O9 C10 1_555 1_555
O10 C12 1_555 1_555
S1 C1 1_555 1_555
S2 C2 1_555 1_555
C1D F1D 1_555 1_555
C2D F4D 1_555 1_555
C3D H1D 1_555 1_555
H2D C3D 1_555 1_555
C4D C3D 1_555 1_555
H3D C4D 1_555 1_555
H4D C4D 1_555 1_555
C5D H5D 1_555 1_555
H6D C5D 1_555 1_555
C6D C5D 1_555 1_555
H7D C6D 1_555 1_555
H8D C6D 1_555 1_555
C7D H9D 1_555 1_555
H10D C7D 1_555 1_555
C8D C7D 1_555 1_555
H11D C8D 1_555 1_555
H12D C8D 1_555 1_555
C9D H13D 1_555 1_555
H14D C9D 1_555 1_555
C10D C9D 1_555 1_555
H15D C10D 1_555 1_555
H16D C10D 1_555 1_555
C11D H17D 1_555 1_555
H18D C11D 1_555 1_555
C12D C11D 1_555 1_555
H19D C12D 1_555 1_555
H20D C12D 1_555 1_555
C13D H21D 1_555 1_555
H22D C13D 1_555 1_555
C14D C13D 1_555 1_555
H23D C14D 1_555 1_555
H24D C14D 1_555 1_555
Cs1D O1 1_555 1_555
F2D C1D 1_555 1_555
F3D C1D 1_555 1_555
F5D C2D 1_555 1_555
F6D C2D 1_555 1_555
N1D S1D 1_555 1_555
O1D Cs1 1_555 1_555
O2D Cs1D 1_555 1_555
O3D S2D 1_555 1_555
O4D Cs1D 1_555 1_555
O5D C3D 1_555 1_555
O6D C4D 1_555 1_555
O7D C6D 1_555 1_555
O8D C8D 1_555 1_555
O9D C10D 1_555 1_555
O10D C12D 1_555 1_555
S1D C1D 1_555 1_555
S2D C2D 1_555 1_555
C5 O6 1_555 1_555
C7 O7 1_555 1_555
C9 O8 1_555 1_555
C11 O9 1_555 1_555
C13 O10 1_555 1_555
C14 O5 1_555 1_555
Cs1 O5 1_555 1_555
Cs1 O6 1_555 1_555
Cs1 O7 1_555 1_555
Cs1 O8 1_555 1_555
Cs1 O9 1_555 1_555
Cs1 O10 1_555 1_555
N1 S2 1_555 1_555
O4 S2 1_555 1_555
C5D O6D 1_555 1_555
C7D O7D 1_555 1_555
C9D O8D 1_555 1_555
C11D O9D 1_555 1_555
C13D O10D 1_555 1_555
C14D O5D 1_555 1_555
Cs1D O5D 1_555 1_555
Cs1D O6D 1_555 1_555
Cs1D O7D 1_555 1_555
Cs1D O8D 1_555 1_555
Cs1D O9D 1_555 1_555
Cs1D O10D 1_555 1_555
N1D S2D 1_555 1_555
O1D S1D 1_555 1_555
O2D S1D 1_555 1_555
O4D S2D 1_555 1_555

#END
