
#######################################################################
#
#                 Cambridge Crystallographic Data Centre
#                                CCDC 
#
#######################################################################
#
# If this CIF has been generated from an entry in the Cambridge 
# Structural Database, then it will include bibliographic, chemical, 
# crystal, experimental, refinement or atomic coordinate data resulting 
# from the CCDC's data processing and validation procedures.
#
#######################################################################

data_TAZZAX
_chemical_formula_moiety         'C17 H20 N8 O2 S1'
_chemical_name_systematic        
N-((1-Cyclohexyl-1H-tetrazol-5-yl)(5-methyl-1,2,3-thiadiazol-4-yl)methyl)-4-nitroaniline
_symmetry_cell_setting           orthorhombic
_symmetry_space_group_name_H-M   'P n a 21'
_symmetry_Int_Tables_number      33
_space_group_name_Hall           'P 2c -2n'
loop_
_symmetry_equiv_pos_site_id
_symmetry_equiv_pos_as_xyz
1 x,y,z
2 1/2-x,1/2+y,1/2+z
3 1/2+x,1/2-y,z
4 -x,-y,1/2+z
_cell_length_a                   20.390(2)
_cell_length_b                   12.9660(14)
_cell_length_c                   6.9399(8)
_cell_angle_alpha                90
_cell_angle_beta                 90
_cell_angle_gamma                90
_cell_volume                     1834.75
_exptl_crystal_colour            colorless
_exptl_crystal_description       prism
_chemical_melting_point          '189-190 deg.C'
_cell_formula_units_Z            4
loop_
_atom_site_label
_atom_site_type_symbol
_atom_site_fract_x
_atom_site_fract_y
_atom_site_fract_z
S1 S 0.405044(19) 0.56151(3) 0.42922(7)
O1 O 0.06322(6) 0.71677(11) -0.72028(19)
O2 O 0.03861(7) 0.84687(10) -0.5404(2)
N1 N 0.22941(6) 0.61298(10) 0.0170(2)
N2 N 0.29144(6) 0.51753(11) 0.3438(2)
N3 N 0.32925(7) 0.52655(11) 0.4931(2)
N4 N 0.20301(6) 0.38069(10) 0.0164(2)
N5 N 0.19907(6) 0.28743(10) -0.0698(2)
N6 N 0.24901(6) 0.28088(10) -0.1853(2)
N7 N 0.28588(6) 0.36843(10) -0.1785(2)
N8 N 0.06860(6) 0.76580(10) -0.5696(2)
C1 C 0.28144(7) 0.53703(11) -0.0082(2)
H1 H 0.3097 0.5600 -0.1178
C2 C 0.32241(7) 0.53841(12) 0.1726(3)
C3 C 0.38757(8) 0.56498(12) 0.1899(3)
C4 C 0.43643(8) 0.59083(14) 0.0370(3)
H2 H 0.4143 0.6264 -0.0693
H3 H 0.4566 0.5273 -0.0110
H4 H 0.4704 0.6358 0.0910
C5 C 0.25632(7) 0.42999(11) -0.0536(2)
C6 C 0.15297(7) 0.40908(12) 0.1617(2)
H5 H 0.1636 0.4795 0.2115
C7 C 0.08556(7) 0.41314(14) 0.0676(3)
H6 H 0.0758 0.3459 0.0063
H7 H 0.0852 0.4668 -0.0339
C8 C 0.03313(8) 0.43763(13) 0.2181(3)
H8 H 0.0407 0.5077 0.2705
H9 H -0.0107 0.4367 0.1565
C9 C 0.03471(8) 0.35951(12) 0.3820(3)
H10 H 0.0242 0.2901 0.3313
H11 H 0.0012 0.3779 0.4794
C10 C 0.10262(8) 0.35781(13) 0.4763(3)
H12 H 0.1115 0.4258 0.5358
H13 H 0.1032 0.3052 0.5797
C11 C 0.15613(7) 0.33348(13) 0.3298(3)
H14 H 0.1504 0.2622 0.2814
H15 H 0.1996 0.3381 0.3926
C12 C 0.19205(7) 0.65051(12) -0.1326(2)
C13 C 0.15366(7) 0.73970(11) -0.1000(3)
H16 H 0.1556 0.7737 0.0211
C14 C 0.11368(8) 0.77724(12) -0.2427(2)
H17 H 0.0877 0.8369 -0.2205
C15 C 0.11143(7) 0.72754(12) -0.4197(3)
C16 C 0.14953(7) 0.64152(12) -0.4556(2)
H18 H 0.1480 0.6090 -0.5782
C17 C 0.18981(7) 0.60286(12) -0.3134(2)
H19 H 0.2161 0.5438 -0.3382
H20 H 0.2356(8) 0.6542(13) 0.115(3)
loop_
_geom_bond_atom_site_label_1
_geom_bond_atom_site_label_2
_geom_bond_site_symmetry_1
_geom_bond_site_symmetry_2
S1 N3 1_555 1_555
O1 N8 1_555 1_555
O2 N8 1_555 1_555
N1 C1 1_555 1_555
N2 N3 1_555 1_555
N4 N5 1_555 1_555
N5 N6 1_555 1_555
N6 N7 1_555 1_555
N7 C5 1_555 1_555
N8 C15 1_555 1_555
C1 H1 1_555 1_555
C2 N2 1_555 1_555
C3 S1 1_555 1_555
C4 C3 1_555 1_555
H2 C4 1_555 1_555
H3 C4 1_555 1_555
H4 C4 1_555 1_555
C5 N4 1_555 1_555
C6 N4 1_555 1_555
H5 C6 1_555 1_555
C7 C6 1_555 1_555
H6 C7 1_555 1_555
H7 C7 1_555 1_555
C8 C7 1_555 1_555
H8 C8 1_555 1_555
H9 C8 1_555 1_555
C9 C8 1_555 1_555
H10 C9 1_555 1_555
H11 C9 1_555 1_555
C10 C9 1_555 1_555
H12 C10 1_555 1_555
H13 C10 1_555 1_555
C11 C6 1_555 1_555
H14 C11 1_555 1_555
H15 C11 1_555 1_555
C12 N1 1_555 1_555
C13 C12 1_555 1_555
H16 C13 1_555 1_555
C14 C13 1_555 1_555
H17 C14 1_555 1_555
C15 C14 1_555 1_555
C16 C15 1_555 1_555
H18 C16 1_555 1_555
C17 C12 1_555 1_555
H19 C17 1_555 1_555
H20 N1 1_555 1_555
C1 C2 1_555 1_555
C1 C5 1_555 1_555
C2 C3 1_555 1_555
C10 C11 1_555 1_555
C16 C17 1_555 1_555

#END
