
#######################################################################
#
#                 Cambridge Crystallographic Data Centre
#                                CCDC 
#
#######################################################################
#
# If this CIF has been generated from an entry in the Cambridge 
# Structural Database, then it will include bibliographic, chemical, 
# crystal, experimental, refinement or atomic coordinate data resulting 
# from the CCDC's data processing and validation procedures.
#
#######################################################################

data_TAZZIF
_chemical_name_common            
9-(4-(Dimethylamino)phenyl)-1,8-dioxo-9H-dibenzo[c,h]-2,7,10-trioxanthene
_chemical_formula_moiety         'C27 H19 N1 O5'
_chemical_name_systematic        
7-(4-(Dimethylamino)phenyl)-6H,7H,8H-chromeno[3',4':5,6]pyrano[3,2-c]chromene-6,8-dione
_symmetry_cell_setting           triclinic
_symmetry_space_group_name_H-M   'P -1'
_symmetry_Int_Tables_number      2
_space_group_name_Hall           '-P 1'
loop_
_symmetry_equiv_pos_site_id
_symmetry_equiv_pos_as_xyz
1 x,y,z
2 -x,-y,-z
_cell_length_a                   7.8753(16)
_cell_length_b                   11.029(2)
_cell_length_c                   12.913(3)
_cell_angle_alpha                69.79(3)
_cell_angle_beta                 89.01(3)
_cell_angle_gamma                81.90(3)
_cell_volume                     1041.43
_exptl_crystal_colour            yellow
_chemical_melting_point          'above 300 deg.C'
_cell_formula_units_Z            2
_exptl_crystal_recrystallization_method methanol
loop_
_atom_site_label
_atom_site_type_symbol
_atom_site_fract_x
_atom_site_fract_y
_atom_site_fract_z
O1 O 0.09669(17) 0.15259(12) 0.09880(10)
O2 O 0.26963(16) -0.02777(11) 0.19099(10)
O3 O 0.22154(14) 0.05429(10) 0.48019(9)
O4 O -0.09664(15) 0.37303(11) 0.50799(10)
O5 O -0.18317(15) 0.43723(12) 0.33317(10)
N1 N 0.44508(18) 0.67029(13) 0.05596(12)
C1 C 0.1678(2) 0.08706(16) 0.18613(14)
C2 C 0.3480(2) -0.11439(16) 0.28842(15)
C3 C 0.4410(2) -0.22844(18) 0.28449(16)
H1 H 0.4499 -0.2443 0.2182
C4 C 0.5203(2) -0.31828(18) 0.37930(17)
H2 H 0.5838 -0.3951 0.3771
C5 C 0.5063(2) -0.29529(17) 0.47811(16)
H3 H 0.5599 -0.3568 0.5421
C6 C 0.4131(2) -0.18150(16) 0.48207(15)
H4 H 0.4040 -0.1666 0.5487
C7 C 0.33261(19) -0.08881(15) 0.38667(13)
C8 C 0.23243(19) 0.03375(15) 0.38052(13)
C9 C 0.1558(2) 0.11963(15) 0.28653(13)
C10 C 0.0626(2) 0.25211(15) 0.27770(13)
H5 H -0.0482 0.2662 0.2388
C11 C 0.03081(19) 0.25258(15) 0.39330(13)
C12 C 0.1127(2) 0.16275(15) 0.48366(14)
C13 C 0.0967(2) 0.17250(15) 0.59208(13)
C14 C 0.1797(2) 0.08277(17) 0.68772(14)
H6 H 0.2490 0.0084 0.6850
C15 C 0.1593(3) 0.10409(19) 0.78642(15)
H7 H 0.2145 0.0438 0.8504
C16 C 0.0569(2) 0.21472(19) 0.79088(16)
H8 H 0.0447 0.2284 0.8579
C17 C -0.0270(2) 0.30478(18) 0.69778(16)
H9 H -0.0958 0.3791 0.7011
C18 C -0.0068(2) 0.28237(16) 0.59885(14)
C19 C -0.0894(2) 0.35934(16) 0.40566(15)
C20 C 0.16454(19) 0.36131(15) 0.21488(12)
C21 C 0.08913(19) 0.47383(15) 0.13402(12)
H10 H -0.0265 0.4820 0.1154
C22 C 0.1799(2) 0.57506(15) 0.07965(13)
H11 H 0.1247 0.6488 0.0248
C23 C 0.3542(2) 0.56810(15) 0.10607(12)
C24 C 0.4309(2) 0.45301(16) 0.18802(14)
H12 H 0.5464 0.4437 0.2075
C25 C 0.3371(2) 0.35385(16) 0.23977(14)
H13 H 0.3916 0.2788 0.2936
C26 C 0.6298(2) 0.6512(2) 0.06749(17)
H14 H 0.6633 0.6206 0.1444
H15 H 0.6715 0.7325 0.0304
H16 H 0.6775 0.5879 0.0354
C27 C 0.3674(3) 0.78278(19) -0.03394(18)
H17 H 0.3424 0.7569 -0.0951
H18 H 0.4450 0.8462 -0.0562
H19 H 0.2629 0.8202 -0.0104
loop_
_geom_bond_atom_site_label_1
_geom_bond_atom_site_label_2
_geom_bond_site_symmetry_1
_geom_bond_site_symmetry_2
O1 C1 1_555 1_555
O2 C1 1_555 1_555
O3 C8 1_555 1_555
O4 C18 1_555 1_555
O5 C19 1_555 1_555
N1 C23 1_555 1_555
C1 C9 1_555 1_555
C2 O2 1_555 1_555
C3 C2 1_555 1_555
H1 C3 1_555 1_555
C4 C3 1_555 1_555
H2 C4 1_555 1_555
C5 C4 1_555 1_555
H3 C5 1_555 1_555
C6 C5 1_555 1_555
H4 C6 1_555 1_555
C7 C2 1_555 1_555
C8 C7 1_555 1_555
C9 C8 1_555 1_555
C10 C9 1_555 1_555
H5 C10 1_555 1_555
C11 C10 1_555 1_555
C12 O3 1_555 1_555
C13 C12 1_555 1_555
C14 C13 1_555 1_555
H6 C14 1_555 1_555
C15 C14 1_555 1_555
H7 C15 1_555 1_555
C16 C15 1_555 1_555
H8 C16 1_555 1_555
C17 C16 1_555 1_555
H9 C17 1_555 1_555
C18 C13 1_555 1_555
C19 O4 1_555 1_555
C20 C10 1_555 1_555
C21 C20 1_555 1_555
H10 C21 1_555 1_555
C22 C21 1_555 1_555
H11 C22 1_555 1_555
C23 C22 1_555 1_555
C24 C23 1_555 1_555
H12 C24 1_555 1_555
C25 C20 1_555 1_555
H13 C25 1_555 1_555
C26 N1 1_555 1_555
H14 C26 1_555 1_555
H15 C26 1_555 1_555
H16 C26 1_555 1_555
C27 N1 1_555 1_555
H17 C27 1_555 1_555
H18 C27 1_555 1_555
H19 C27 1_555 1_555
C6 C7 1_555 1_555
C11 C12 1_555 1_555
C11 C19 1_555 1_555
C17 C18 1_555 1_555
C24 C25 1_555 1_555

#END
