
#######################################################################
#
#                 Cambridge Crystallographic Data Centre
#                                CCDC 
#
#######################################################################
#
# If this CIF has been generated from an entry in the Cambridge 
# Structural Database, then it will include bibliographic, chemical, 
# crystal, experimental, refinement or atomic coordinate data resulting 
# from the CCDC's data processing and validation procedures.
#
#######################################################################

data_TBENZA02
_chemical_formula_moiety         'C21 H21 N1'
_chemical_name_systematic        Tribenzylamine
_symmetry_cell_setting           monoclinic
_symmetry_space_group_name_H-M   'P 21/c'
_symmetry_Int_Tables_number      14
_space_group_name_Hall           '-P 2ybc'
loop_
_symmetry_equiv_pos_site_id
_symmetry_equiv_pos_as_xyz
1 x,y,z
2 -x,1/2+y,1/2-z
3 -x,-y,-z
4 x,1/2-y,1/2+z
_cell_length_a                   8.823(4)
_cell_length_b                   9.005(4)
_cell_length_c                   20.789(8)
_cell_angle_alpha                90
_cell_angle_beta                 92.823(6)
_cell_angle_gamma                90
_cell_volume                     1649.7
_exptl_crystal_colour            colorless
_exptl_crystal_description       block
_cell_formula_units_Z            4
loop_
_atom_site_label
_atom_site_type_symbol
_atom_site_fract_x
_atom_site_fract_y
_atom_site_fract_z
N1 N 0.04190(15) 0.77666(15) 0.16926(7)
C1 C -0.0913(2) 0.5228(2) 0.09518(9)
H1 H 0.0164 0.5256 0.0964
C2 C -0.1685(2) 0.4394(2) 0.04816(10)
H2 H -0.1142 0.3853 0.0175
C3 C -0.3257(2) 0.4355(2) 0.04622(9)
H3 H -0.3796 0.3772 0.0146
C4 C -0.4034(2) 0.5160(2) 0.08995(10)
H4 H -0.5112 0.5148 0.0878
C5 C -0.3257(2) 0.5993(2) 0.13737(10)
H5 H -0.3807 0.6540 0.1676
C6 C -0.1683(2) 0.60257(19) 0.14060(9)
C7 C -0.08139(19) 0.68534(19) 0.19384(8)
H6 H -0.1522 0.7502 0.2164
H7 H -0.0378 0.6130 0.2255
C8 C 0.1056(3) 1.1431(2) 0.10104(13)
H8 H 0.0463 1.1977 0.1297
C9 C 0.2034(3) 1.2176(3) 0.06172(14)
H9 H 0.2093 1.3228 0.0635
C10 C 0.2910(3) 1.1415(3) 0.02066(11)
H10 H 0.3553 1.1935 -0.0069
C11 C 0.2853(3) 0.9882(3) 0.01956(12)
H11 H 0.3477 0.9340 -0.0081
C12 C 0.1885(3) 0.9138(2) 0.05886(11)
H12 H 0.1870 0.8083 0.0585
C13 C 0.0940(2) 0.9893(2) 0.09868(9)
C14 C -0.0213(2) 0.9085(2) 0.13705(9)
H13 H -0.0600 0.9769 0.1697
H14 H -0.1081 0.8788 0.1079
C15 C 0.3098(2) 0.6969(2) 0.30943(9)
H15 H 0.2834 0.7757 0.3371
C16 C 0.4101(2) 0.5884(2) 0.33183(10)
H16 H 0.4546 0.5951 0.3743
C17 C 0.4459(2) 0.4710(2) 0.29317(11)
H17 H 0.5147 0.3966 0.3088
C18 C 0.3817(2) 0.4619(2) 0.23178(11)
H18 H 0.4041 0.3797 0.2052
C19 C 0.2839(2) 0.5727(2) 0.20835(9)
H19 H 0.2416 0.5670 0.1655
C20 C 0.24786(18) 0.69147(18) 0.24717(8)
C21 C 0.14722(19) 0.81802(18) 0.22306(8)
H20 H 0.0880 0.8546 0.2591
H21 H 0.2122 0.9006 0.2092
loop_
_geom_bond_atom_site_label_1
_geom_bond_atom_site_label_2
_geom_bond_site_symmetry_1
_geom_bond_site_symmetry_2
N1 C7 1_555 1_555
C1 H1 1_555 1_555
C2 C1 1_555 1_555
H2 C2 1_555 1_555
C3 C2 1_555 1_555
H3 C3 1_555 1_555
C4 C3 1_555 1_555
H4 C4 1_555 1_555
C5 C4 1_555 1_555
H5 C5 1_555 1_555
C6 C1 1_555 1_555
C7 C6 1_555 1_555
H6 C7 1_555 1_555
H7 C7 1_555 1_555
C8 H8 1_555 1_555
C9 C8 1_555 1_555
H9 C9 1_555 1_555
C10 C9 1_555 1_555
H10 C10 1_555 1_555
C11 C10 1_555 1_555
H11 C11 1_555 1_555
C12 C11 1_555 1_555
H12 C12 1_555 1_555
C13 C8 1_555 1_555
C14 N1 1_555 1_555
H13 C14 1_555 1_555
H14 C14 1_555 1_555
C15 H15 1_555 1_555
C16 C15 1_555 1_555
H16 C16 1_555 1_555
C17 C16 1_555 1_555
H17 C17 1_555 1_555
C18 C17 1_555 1_555
H18 C18 1_555 1_555
C19 C18 1_555 1_555
H19 C19 1_555 1_555
C20 C15 1_555 1_555
C21 N1 1_555 1_555
H20 C21 1_555 1_555
H21 C21 1_555 1_555
C5 C6 1_555 1_555
C12 C13 1_555 1_555
C13 C14 1_555 1_555
C19 C20 1_555 1_555
C20 C21 1_555 1_555

#END
