
#######################################################################
#
#                 Cambridge Crystallographic Data Centre
#                                CCDC 
#
#######################################################################
#
# If this CIF has been generated from an entry in the Cambridge 
# Structural Database, then it will include bibliographic, chemical, 
# crystal, experimental, refinement or atomic coordinate data resulting 
# from the CCDC's data processing and validation procedures.
#
#######################################################################

data_TBUCBD22
_chemical_formula_moiety         'C20 H36'
_chemical_name_systematic        1,2,3,4-tetra-t-Butyl-1,3-cyclobutadiene
_symmetry_cell_setting           monoclinic
_symmetry_space_group_name_H-M   'C 2/c'
_symmetry_Int_Tables_number      15
_space_group_name_Hall           '-C 2yn'
loop_
_symmetry_equiv_pos_site_id
_symmetry_equiv_pos_as_xyz
1 x,y,z
2 1/2+x,1/2+y,z
3 -x,y,1/2-z
4 1/2-x,1/2+y,1/2-z
5 -x,-y,-z
6 1/2-x,1/2-y,-z
7 x,-y,1/2+z
8 1/2+x,1/2-y,1/2+z
_cell_length_a                   17.530(3)
_cell_length_b                   9.150(1)
_cell_length_c                   11.769(2)
_cell_angle_alpha                90
_cell_angle_beta                 106.56(2)
_cell_angle_gamma                90
_cell_volume                     1809.44
_cell_formula_units_Z            4
loop_
_atom_site_label
_atom_site_type_symbol
_atom_site_fract_x
_atom_site_fract_y
_atom_site_fract_z
C1 C 0.04320(7) 0.18762(14) 0.28846(10)
C2 C 0.10795(7) 0.30350(15) 0.32090(10)
C3 C 0.09269(12) 0.42276(22) 0.22440(15)
C4 C 0.11415(10) 0.37487(17) 0.44178(12)
C5 C 0.18953(9) 0.23863(23) 0.32290(17)
C6 C 0.04116(7) 0.03043(13) 0.29490(10)
C7 C 0.09255(7) -0.08502(13) 0.37383(10)
C8 C 0.13677(14) -0.02213(25) 0.49655(14)
C9 C 0.15350(11) -0.15138(22) 0.31730(16)
C10 C 0.04013(14) -0.20767(22) 0.40268(18)
C1B C -0.04320(7) 0.18762(14) 0.21154(10)
C6B C -0.04116(7) 0.03043(13) 0.20510(10)
C2B C -0.10795(7) 0.30350(15) 0.17910(10)
C7B C -0.09255(7) -0.08502(13) 0.12617(10)
C3B C -0.09269(12) 0.42276(22) 0.27560(15)
C4B C -0.11415(10) 0.37487(17) 0.05822(12)
C5B C -0.18953(9) 0.23863(23) 0.17710(17)
C8B C -0.13677(14) -0.02213(25) 0.00345(14)
C9B C -0.15350(11) -0.15138(22) 0.18270(16)
C10B C -0.04013(14) -0.20767(22) 0.09732(18)
loop_
_geom_bond_atom_site_label_1
_geom_bond_atom_site_label_2
_geom_bond_site_symmetry_1
_geom_bond_site_symmetry_2
C1 C2 1_555 1_555
C2 C3 1_555 1_555
C4 C2 1_555 1_555
C5 C2 1_555 1_555
C6 C1 1_555 1_555
C7 C6 1_555 1_555
C8 C7 1_555 1_555
C9 C7 1_555 1_555
C10 C7 1_555 1_555
C1B C1 1_555 1_555
C6B C6 1_555 1_555
C2B C1B 1_555 1_555
C7B C6B 1_555 1_555
C3B C2B 1_555 1_555
C4B C2B 1_555 1_555
C5B C2B 1_555 1_555
C8B C7B 1_555 1_555
C9B C7B 1_555 1_555
C10B C7B 1_555 1_555
C1B C6B 1_555 1_555

#END
