
#######################################################################
#
#                 Cambridge Crystallographic Data Centre
#                                CCDC 
#
#######################################################################
#
# If this CIF has been generated from an entry in the Cambridge 
# Structural Database, then it will include bibliographic, chemical, 
# crystal, experimental, refinement or atomic coordinate data resulting 
# from the CCDC's data processing and validation procedures.
#
#######################################################################

data_TCHLBZ
_chemical_formula_moiety         'C6 H3 Cl3'
_chemical_name_systematic        1,3,5-Trichlorobenzene
_symmetry_cell_setting           orthorhombic
_symmetry_space_group_name_H-M   'P 21 21 21'
_symmetry_Int_Tables_number      19
_space_group_name_Hall           'P 2ac 2ab'
loop_
_symmetry_equiv_pos_site_id
_symmetry_equiv_pos_as_xyz
1 x,y,z
2 1/2+x,1/2-y,-z
3 -x,1/2+y,1/2-z
4 1/2-x,-y,1/2+z
_cell_length_a                   13.930
_cell_length_b                   13.190
_cell_length_c                   3.910
_cell_angle_alpha                90
_cell_angle_beta                 90
_cell_angle_gamma                90
_cell_volume                     718.41
_cell_formula_units_Z            4
loop_
_atom_site_label
_atom_site_type_symbol
_atom_site_fract_x
_atom_site_fract_y
_atom_site_fract_z
Cl1 Cl 0.34900 0.23360 -0.41600
Cl2 Cl 0.36260 0.63590 -0.31300
Cl3 Cl 0.65880 0.43390 -0.87100
C1 C 0.40860 0.34520 -0.47900
C2 C 0.36530 0.43380 -0.37800
C3 C 0.41630 0.52480 -0.43600
C4 C 0.50580 0.52450 -0.58400
C5 C 0.54740 0.43470 -0.68800
C6 C 0.49920 0.34410 -0.63200
H1 H 0.29500 0.43500 -0.26300
H2 H 0.54300 0.59600 -0.62600
H3 H 0.53200 0.27300 -0.71000
loop_
_geom_bond_atom_site_label_1
_geom_bond_atom_site_label_2
_geom_bond_site_symmetry_1
_geom_bond_site_symmetry_2
Cl1 C1 1_555 1_555
Cl2 C3 1_555 1_555
Cl3 C5 1_555 1_555
C1 C2 1_555 1_555
C2 C3 1_555 1_555
C3 C4 1_555 1_555
C4 C5 1_555 1_555
C5 C6 1_555 1_555
C6 C1 1_555 1_555
H1 C2 1_555 1_555
H2 C4 1_555 1_555
H3 C6 1_555 1_555

#END
