
#######################################################################
#
#                 Cambridge Crystallographic Data Centre
#                                CCDC 
#
#######################################################################
#
# If this CIF has been generated from an entry in the Cambridge 
# Structural Database, then it will include bibliographic, chemical, 
# crystal, experimental, refinement or atomic coordinate data resulting 
# from the CCDC's data processing and validation procedures.
#
#######################################################################

data_TCLCYH
_chemical_formula_moiety         'C6 H8 Cl4'
_chemical_name_systematic        1,2,4,5-Tetrachlorocyclohexane
_symmetry_cell_setting           orthorhombic
_symmetry_space_group_name_H-M   'P 21 21 2'
_symmetry_Int_Tables_number      18
_space_group_name_Hall           'P 2 2ab'
loop_
_symmetry_equiv_pos_site_id
_symmetry_equiv_pos_as_xyz
1 x,y,z
2 1/2+x,1/2-y,-z
3 1/2-x,1/2+y,-z
4 -x,-y,z
_cell_length_a                   7.60
_cell_length_b                   7.54
_cell_length_c                   7.72
_cell_angle_alpha                90
_cell_angle_beta                 90
_cell_angle_gamma                90
_cell_volume                     442.387
_cell_formula_units_Z            2
loop_
_atom_site_label
_atom_site_type_symbol
_atom_site_fract_x
_atom_site_fract_y
_atom_site_fract_z
Cl1 Cl 0.28200 -0.00800 0.43700
Cl2 Cl 0.01500 -0.21500 -0.10500
C1 C 0.06200 -0.08100 0.40800
C2 C 0.06200 -0.08100 0.08200
C3 C 0.02800 -0.19400 0.24500
C1C C -0.06200 0.08100 0.40800
C2C C -0.06200 0.08100 0.08200
Cl1C Cl -0.28200 0.00800 0.43700
C3C C -0.02800 0.19400 0.24500
Cl2C Cl -0.01500 0.21500 -0.10500
loop_
_geom_bond_atom_site_label_1
_geom_bond_atom_site_label_2
_geom_bond_site_symmetry_1
_geom_bond_site_symmetry_2
Cl1 C1 1_555 1_555
Cl2 C2 1_555 1_555
C1 C3 1_555 1_555
C2 C3 1_555 1_555
C1C C1 1_555 1_555
C2C C2 1_555 1_555
Cl1C C1C 1_555 1_555
C3C C1C 1_555 1_555
Cl2C C2C 1_555 1_555
C2C C3C 1_555 1_555

#END
