
#######################################################################
#
#                 Cambridge Crystallographic Data Centre
#                                CCDC 
#
#######################################################################
#
# If this CIF has been generated from an entry in the Cambridge 
# Structural Database, then it will include bibliographic, chemical, 
# crystal, experimental, refinement or atomic coordinate data resulting 
# from the CCDC's data processing and validation procedures.
#
#######################################################################

data_TCTESA
_chemical_formula_moiety         'C21 H27 Cl3 O3'
_chemical_name_systematic        '2,2,6\b-Trichlorotestosterone acetate'
_symmetry_cell_setting           monoclinic
_symmetry_space_group_name_H-M   'P 21'
_symmetry_Int_Tables_number      4
_space_group_name_Hall           'P 2yb'
loop_
_symmetry_equiv_pos_site_id
_symmetry_equiv_pos_as_xyz
1 x,y,z
2 -x,1/2+y,-z
_cell_length_a                   9.757(3)
_cell_length_b                   14.100(4)
_cell_length_c                   7.786(1)
_cell_angle_alpha                90
_cell_angle_beta                 90.77(2)
_cell_angle_gamma                90
_cell_volume                     1071.05
_chemical_melting_point          211-2deg.C
_cell_formula_units_Z            2
loop_
_atom_site_label
_atom_site_type_symbol
_atom_site_fract_x
_atom_site_fract_y
_atom_site_fract_z
Cl1 Cl -0.40210 0.47580 0.24350
Cl2 Cl -0.11830 0.45390 0.16020
Cl3 Cl -0.43170 0.75000 0.76630
C1 C -0.21750 0.62390 0.24540
C2 C -0.28870 0.69370 0.37300
C3 C -0.24890 0.82830 0.15070
C4 C -0.19350 0.92790 0.11940
C5 C -0.24360 0.99910 0.25400
C6 C -0.19390 0.96200 0.42800
C7 C -0.20970 1.04730 0.55320
C8 C -0.18390 1.13350 0.43530
C9 C -0.16800 1.09470 0.25310
C10 C -0.39820 1.01360 0.24360
C11 C -0.44220 0.69420 0.34930
C12 C -0.23980 0.51890 0.29040
C13 C -0.13540 1.20550 0.02770
C14 C -0.21910 1.26020 -0.10480
C15 C -0.20230 0.49730 0.47660
C16 C -0.22030 0.57690 0.59690
C17 C -0.24950 0.66440 0.55320
C18 C -0.25800 0.73760 0.69900
C19 C -0.19710 0.83010 0.64890
C20 C -0.25320 0.86570 0.47860
C21 C -0.21800 0.79180 0.33530
O1 O -0.22620 1.15570 0.12200
O2 O -0.02040 1.20620 0.04400
O3 O -0.17070 0.41630 0.51990
loop_
_geom_bond_atom_site_label_1
_geom_bond_atom_site_label_2
_geom_bond_site_symmetry_1
_geom_bond_site_symmetry_2
Cl1 C12 1_555 1_555
Cl2 C12 1_555 1_555
Cl3 C18 1_555 1_555
C1 C2 1_555 1_555
C2 C11 1_555 1_555
C3 C4 1_555 1_555
C4 C5 1_555 1_555
C5 C6 1_555 1_555
C6 C7 1_555 1_555
C7 C8 1_555 1_555
C8 C9 1_555 1_555
C9 C5 1_555 1_555
C10 C5 1_555 1_555
C12 C1 1_555 1_555
C13 C14 1_555 1_555
C15 C12 1_555 1_555
C16 C15 1_555 1_555
C17 C2 1_555 1_555
C18 C17 1_555 1_555
C19 C18 1_555 1_555
C20 C6 1_555 1_555
C21 C2 1_555 1_555
O1 C9 1_555 1_555
O2 C13 1_555 1_555
O3 C15 1_555 1_555
C3 C21 1_555 1_555
C13 O1 1_555 1_555
C16 C17 1_555 1_555
C19 C20 1_555 1_555
C20 C21 1_555 1_555

#END
