
#######################################################################
#
#                 Cambridge Crystallographic Data Centre
#                                CCDC 
#
#######################################################################
#
# If this CIF has been generated from an entry in the Cambridge 
# Structural Database, then it will include bibliographic, chemical, 
# crystal, experimental, refinement or atomic coordinate data resulting 
# from the CCDC's data processing and validation procedures.
#
#######################################################################

data_TCYCPR
_chemical_formula_moiety         'C7 H2 N4'
_chemical_name_systematic        1,1,2,2-Tetracyanocyclopropane
_symmetry_cell_setting           orthorhombic
_symmetry_space_group_name_H-M   'P 21 21 21'
_symmetry_Int_Tables_number      19
_space_group_name_Hall           'P 2ac 2ab'
loop_
_symmetry_equiv_pos_site_id
_symmetry_equiv_pos_as_xyz
1 x,y,z
2 1/2+x,1/2-y,-z
3 -x,1/2+y,1/2-z
4 1/2-x,-y,1/2+z
_cell_length_a                   16.158(18)
_cell_length_b                   6.901(3)
_cell_length_c                   6.227(4)
_cell_angle_alpha                90
_cell_angle_beta                 90
_cell_angle_gamma                90
_cell_volume                     694.35
_cell_formula_units_Z            4
loop_
_atom_site_label
_atom_site_type_symbol
_atom_site_fract_x
_atom_site_fract_y
_atom_site_fract_z
C1 C -0.39100 -0.35170 0.35960
C2 C -0.40790 -0.15940 0.46520
C3 C -0.32200 -0.26130 0.48630
C4 C -0.45860 -0.15470 0.65710
C5 C -0.41090 0.01590 0.33670
C6 C -0.30290 -0.33600 0.69730
C7 C -0.25420 -0.17100 0.37130
H1 H -0.38390 -0.34660 0.21160
H2 H -0.41790 -0.45400 0.42450
N1 N -0.49820 -0.15170 0.80800
N2 N -0.41420 0.15290 0.23660
N3 N -0.29090 -0.39660 0.86500
N4 N -0.20300 -0.10030 0.27300
loop_
_geom_bond_atom_site_label_1
_geom_bond_atom_site_label_2
_geom_bond_site_symmetry_1
_geom_bond_site_symmetry_2
C1 C2 1_555 1_555
C2 C3 1_555 1_555
C3 C1 1_555 1_555
C4 C2 1_555 1_555
C5 C2 1_555 1_555
C6 C3 1_555 1_555
C7 C3 1_555 1_555
H1 C1 1_555 1_555
H2 C1 1_555 1_555
N1 C4 1_555 1_555
N2 C5 1_555 1_555
N3 C6 1_555 1_555
N4 C7 1_555 1_555

#END
