
#######################################################################
#
#                 Cambridge Crystallographic Data Centre
#                                CCDC 
#
#######################################################################
#
# If this CIF has been generated from an entry in the Cambridge 
# Structural Database, then it will include bibliographic, chemical, 
# crystal, experimental, refinement or atomic coordinate data resulting 
# from the CCDC's data processing and validation procedures.
#
#######################################################################

data_TEBBUA
_chemical_formula_moiety         'C31 H30 N2 O7 S2'
_chemical_name_systematic        
'5-(hydroxymethyl)-1,3-phenylene bis[5-(dimethylamino)naphthalene-1-sulfonate]'
_symmetry_cell_setting           monoclinic
_symmetry_space_group_name_H-M   'C 2/c'
_symmetry_Int_Tables_number      15
_space_group_name_Hall           '-C 2yn'
loop_
_symmetry_equiv_pos_site_id
_symmetry_equiv_pos_as_xyz
1 x,y,z
2 -x,y,1/2-z
3 1/2+x,1/2+y,z
4 1/2-x,1/2+y,1/2-z
5 -x,-y,-z
6 x,-y,1/2+z
7 1/2-x,1/2-y,-z
8 1/2+x,1/2-y,1/2+z
_cell_length_a                   15.7298(3)
_cell_length_b                   12.3593(2)
_cell_length_c                   16.1677(3)
_cell_angle_alpha                90
_cell_angle_beta                 117.093(2)
_cell_angle_gamma                90
_cell_volume                     2798.25
_exptl_crystal_colour            yellow
_exptl_crystal_description       blocks
_cell_formula_units_Z            4
loop_
_atom_site_label
_atom_site_type_symbol
_atom_site_fract_x
_atom_site_fract_y
_atom_site_fract_z
O1 O 0.51566(14) 0.98991(15) 0.19682(16)
H1 H 0.5737(15) 0.996(3) 0.208(3)
C1 C 0.5034(4) 0.93842(18) 0.2688(2)
H2 H 0.4432 0.9626 0.2685
H3 H 0.5572 0.9559 0.3300
C2 C 0.5000 0.81636(13) 0.2500
C3 C 0.42621(8) 0.75962(9) 0.25572(9)
H4 H 0.3759 0.7973 0.2604
C4 C 0.42728(7) 0.64774(9) 0.25446(7)
C5 C 0.5000 0.58888(12) 0.2500
H5 H 0.5000 0.5120 0.2500
O2 O 0.35476(6) 0.58849(6) 0.26296(5)
S1 S 0.25040(2) 0.58619(2) 0.17561(2)
O3 O 0.21880(6) 0.69452(7) 0.14831(6)
O4 O 0.19813(6) 0.51827(7) 0.20784(6)
C6 C 0.27156(7) 0.52385(9) 0.08916(7)
C7 C 0.25069(8) 0.58391(9) 0.01048(8)
H6 H 0.2231 0.6538 0.0035
C8 C 0.27054(8) 0.54095(10) -0.05930(8)
H7 H 0.2523 0.5795 -0.1157
C9 C 0.31623(8) 0.44344(10) -0.04594(8)
H8 H 0.3312 0.4163 -0.0928
C10 C 0.34180(7) 0.38193(9) 0.03588(7)
C11 C 0.39265(8) 0.28137(9) 0.05059(8)
C12 C 0.40162(9) 0.21615(9) 0.12305(9)
H9 H 0.4312 0.1473 0.1309
C13 C 0.36760(9) 0.25003(10) 0.18566(9)
H10 H 0.3727 0.2023 0.2338
C14 C 0.32743(8) 0.34966(9) 0.17911(8)
H11 H 0.3090 0.3728 0.2246
C15 C 0.31352(8) 0.41833(8) 0.10360(8)
N1 N 0.43155(7) 0.25480(8) -0.01065(7)
C16 C 0.45917(9) 0.14140(10) -0.00829(9)
H12 H 0.5131 0.1252 0.0522
H13 H 0.4779 0.1283 -0.0575
H14 H 0.4050 0.0948 -0.0180
C17 C 0.51167(9) 0.32558(10) 0.00164(9)
H15 H 0.4916 0.4014 -0.0034
H16 H 0.5313 0.3096 -0.0465
H17 H 0.5655 0.3129 0.0630
O1A O 0.48434(14) 0.98991(15) 0.30318(16)
H1A H 0.4263(15) 0.996(3) 0.292(3)
C1A C 0.4966(4) 0.93842(18) 0.2312(2)
H2A H 0.5568 0.9626 0.2315
H3A H 0.4428 0.9559 0.1700
C3A C 0.57379(8) 0.75962(9) 0.24428(9)
H4A H 0.6241 0.7973 0.2396
C4A C 0.57272(7) 0.64774(9) 0.24554(7)
O2A O 0.64524(6) 0.58849(6) 0.23704(5)
S1A S 0.74960(2) 0.58619(2) 0.32439(2)
O3A O 0.78120(6) 0.69452(7) 0.35169(6)
O4A O 0.80187(6) 0.51827(7) 0.29216(6)
C6A C 0.72844(7) 0.52385(9) 0.41084(7)
C7A C 0.74931(8) 0.58391(9) 0.48952(8)
H6A H 0.7769 0.6538 0.4965
C8A C 0.72946(8) 0.54095(10) 0.55930(8)
H7A H 0.7477 0.5795 0.6157
C9A C 0.68377(8) 0.44344(10) 0.54594(8)
H8A H 0.6688 0.4163 0.5928
C10A C 0.65820(7) 0.38193(9) 0.46412(7)
C11A C 0.60735(8) 0.28137(9) 0.44941(8)
C12A C 0.59838(9) 0.21615(9) 0.37695(9)
H9A H 0.5688 0.1473 0.3691
C13A C 0.63240(9) 0.25003(10) 0.31434(9)
H10A H 0.6273 0.2023 0.2662
C14A C 0.67257(8) 0.34966(9) 0.32089(8)
H11A H 0.6910 0.3728 0.2754
C15A C 0.68648(8) 0.41833(8) 0.39640(8)
N1A N 0.56845(7) 0.25480(8) 0.51065(7)
C16A C 0.54083(9) 0.14140(10) 0.50829(9)
H12A H 0.4869 0.1252 0.4478
H13A H 0.5221 0.1283 0.5575
H14A H 0.5950 0.0948 0.5180
C17A C 0.48833(9) 0.32558(10) 0.49836(9)
H15A H 0.5084 0.4014 0.5034
H16A H 0.4687 0.3096 0.5465
H17A H 0.4345 0.3129 0.4370
loop_
_geom_bond_atom_site_label_1
_geom_bond_atom_site_label_2
_geom_bond_site_symmetry_1
_geom_bond_site_symmetry_2
O1 H1 1_555 1_555
C1 O1 1_555 1_555
H2 C1 1_555 1_555
H3 C1 1_555 1_555
C2 C1 1_555 1_555
C3 C2 1_555 1_555
H4 C3 1_555 1_555
C4 C3 1_555 1_555
C5 C4 1_555 1_555
H5 C5 1_555 1_555
O2 C4 1_555 1_555
S1 O2 1_555 1_555
O3 S1 1_555 1_555
O4 S1 1_555 1_555
C6 S1 1_555 1_555
C7 C6 1_555 1_555
H6 C7 1_555 1_555
C8 C7 1_555 1_555
H7 C8 1_555 1_555
C9 C8 1_555 1_555
H8 C9 1_555 1_555
C10 C9 1_555 1_555
C11 C10 1_555 1_555
C12 C11 1_555 1_555
H9 C12 1_555 1_555
C13 C12 1_555 1_555
H10 C13 1_555 1_555
C14 C13 1_555 1_555
H11 C14 1_555 1_555
C15 C6 1_555 1_555
N1 C11 1_555 1_555
C16 N1 1_555 1_555
H12 C16 1_555 1_555
H13 C16 1_555 1_555
H14 C16 1_555 1_555
C17 N1 1_555 1_555
H15 C17 1_555 1_555
H16 C17 1_555 1_555
H17 C17 1_555 1_555
O1A H1A 1_555 1_555
C1A C2 1_555 1_555
H2A C1A 1_555 1_555
H3A C1A 1_555 1_555
C3A C2 1_555 1_555
H4A C3A 1_555 1_555
C4A C5 1_555 1_555
O2A C4A 1_555 1_555
S1A O2A 1_555 1_555
O3A S1A 1_555 1_555
O4A S1A 1_555 1_555
C6A S1A 1_555 1_555
C7A C6A 1_555 1_555
H6A C7A 1_555 1_555
C8A C7A 1_555 1_555
H7A C8A 1_555 1_555
C9A C8A 1_555 1_555
H8A C9A 1_555 1_555
C10A C9A 1_555 1_555
C11A C10A 1_555 1_555
C12A C11A 1_555 1_555
H9A C12A 1_555 1_555
C13A C12A 1_555 1_555
H10A C13A 1_555 1_555
C14A C13A 1_555 1_555
H11A C14A 1_555 1_555
C15A C6A 1_555 1_555
N1A C11A 1_555 1_555
C16A N1A 1_555 1_555
H12A C16A 1_555 1_555
H13A C16A 1_555 1_555
H14A C16A 1_555 1_555
C17A N1A 1_555 1_555
H15A C17A 1_555 1_555
H16A C17A 1_555 1_555
H17A C17A 1_555 1_555
C10 C15 1_555 1_555
C14 C15 1_555 1_555
O1A C1A 1_555 1_555
C3A C4A 1_555 1_555
C10A C15A 1_555 1_555
C14A C15A 1_555 1_555

#END
