
#######################################################################
#
#                 Cambridge Crystallographic Data Centre
#                                CCDC 
#
#######################################################################
#
# If this CIF has been generated from an entry in the Cambridge 
# Structural Database, then it will include bibliographic, chemical, 
# crystal, experimental, refinement or atomic coordinate data resulting 
# from the CCDC's data processing and validation procedures.
#
#######################################################################

data_TEBFAJ
_chemical_name_common            3-Acetyl-8-methoxycoumarin
_chemical_formula_moiety         'C12 H10 O4'
_chemical_name_systematic        3-Acetyl-8-methoxy-2H-chromen-2-one
_symmetry_cell_setting           monoclinic
_symmetry_space_group_name_H-M   'C 2/c'
_symmetry_Int_Tables_number      15
_space_group_name_Hall           '-C 2yn'
loop_
_symmetry_equiv_pos_site_id
_symmetry_equiv_pos_as_xyz
1 x,y,z
2 -x,y,1/2-z
3 1/2+x,1/2+y,z
4 1/2-x,1/2+y,1/2-z
5 -x,-y,-z
6 x,-y,1/2+z
7 1/2-x,1/2-y,-z
8 1/2+x,1/2-y,1/2+z
_cell_length_a                   15.073(3)
_cell_length_b                   13.068(3)
_cell_length_c                   11.549(2)
_cell_angle_alpha                90
_cell_angle_beta                 119.92(3)
_cell_angle_gamma                90
_cell_volume                     1971.67
_exptl_crystal_colour            yellow
_exptl_crystal_description       block
_cell_formula_units_Z            8
loop_
_atom_site_label
_atom_site_type_symbol
_atom_site_fract_x
_atom_site_fract_y
_atom_site_fract_z
O1 O 0.17839(6) 0.24362(6) 0.83276(8)
O2 O 0.12445(7) 0.37991(6) 0.89033(8)
O3 O -0.02799(8) 0.19522(7) 1.03387(10)
O4 O 0.28621(7) 0.18055(6) 0.72739(9)
C1 C 0.18122(9) 0.14011(9) 0.81597(11)
C2 C 0.23683(9) 0.10617(9) 0.75635(11)
C3 C 0.23842(9) 0.00278(9) 0.73363(11)
H1 H 0.2744 -0.0217 0.6912
C4 C 0.18742(9) -0.06608(9) 0.77269(12)
H2 H 0.1892 -0.1371 0.7564
C5 C 0.13474(9) -0.03303(10) 0.83418(11)
H3 H 0.1011 -0.0807 0.8613
C6 C 0.13126(9) 0.07239(9) 0.85646(11)
C7 C 0.07595(9) 0.11539(9) 0.91570(11)
H4 H 0.0430 0.0706 0.9472
C8 C 0.06895(9) 0.21749(9) 0.92846(11)
C9 C 0.12249(9) 0.28778(10) 0.88502(11)
C10 C 0.00462(9) 0.25657(10) 0.98502(12)
C11 C -0.02026(10) 0.36743(10) 0.97683(13)
H5 H -0.0704 0.3784 1.0061
H6 H -0.0490 0.3908 0.8844
H7 H 0.0422 0.4061 1.0346
C12 C 0.33935(10) 0.14939(11) 0.65921(13)
H8 H 0.3925 0.0997 0.7142
H9 H 0.3710 0.2093 0.6433
H10 H 0.2908 0.1180 0.5736
loop_
_geom_bond_atom_site_label_1
_geom_bond_atom_site_label_2
_geom_bond_site_symmetry_1
_geom_bond_site_symmetry_2
O1 C1 1_555 1_555
O2 C9 1_555 1_555
O3 C10 1_555 1_555
O4 C2 1_555 1_555
C1 C2 1_555 1_555
C2 C3 1_555 1_555
C3 H1 1_555 1_555
C4 C3 1_555 1_555
H2 C4 1_555 1_555
C5 C4 1_555 1_555
H3 C5 1_555 1_555
C6 C1 1_555 1_555
C7 C6 1_555 1_555
H4 C7 1_555 1_555
C8 C7 1_555 1_555
C9 O1 1_555 1_555
C10 C8 1_555 1_555
C11 C10 1_555 1_555
H5 C11 1_555 1_555
H6 C11 1_555 1_555
H7 C11 1_555 1_555
C12 O4 1_555 1_555
H8 C12 1_555 1_555
H9 C12 1_555 1_555
H10 C12 1_555 1_555
C5 C6 1_555 1_555
C8 C9 1_555 1_555

#END
