
#######################################################################
#
#                 Cambridge Crystallographic Data Centre
#                                CCDC 
#
#######################################################################
#
# If this CIF has been generated from an entry in the Cambridge 
# Structural Database, then it will include bibliographic, chemical, 
# crystal, experimental, refinement or atomic coordinate data resulting 
# from the CCDC's data processing and validation procedures.
#
#######################################################################

data_TEBMAO
_chemical_formula_moiety         'C20 H19 N3 O4'
_chemical_name_systematic        
'4-(2-(1-Methyl-4-pyridinium)ethenyl)phenol 2-amino-5-nitrophenol'
_symmetry_cell_setting           monoclinic
_symmetry_space_group_name_H-M   'P 21/c'
_symmetry_Int_Tables_number      14
_space_group_name_Hall           '-P 2ybc'
loop_
_symmetry_equiv_pos_site_id
_symmetry_equiv_pos_as_xyz
1 x,y,z
2 -x,1/2+y,1/2-z
3 -x,-y,-z
4 x,1/2-y,1/2+z
_cell_length_a                   9.087(8)
_cell_length_b                   10.208(9)
_cell_length_c                   19.14(3)
_cell_angle_alpha                90
_cell_angle_beta                 103.23(8)
_cell_angle_gamma                90
_cell_volume                     1728.31
_exptl_crystal_colour            red
_chemical_melting_point          205deg.C(dec.)
_cell_formula_units_Z            4
loop_
_atom_site_label
_atom_site_type_symbol
_atom_site_fract_x
_atom_site_fract_y
_atom_site_fract_z
N1 N 0.5984(4) 0.1984(4) 0.0553(2)
O1 O -0.2648(3) 0.9323(3) -0.0723(2)
C1 C 0.1819(5) 0.5408(5) -0.0360(3)
C2 C -0.1550(5) 0.8429(4) -0.0652(3)
C3 C 0.0695(5) 0.6468(4) -0.0447(3)
C4 C 0.2753(5) 0.5050(5) 0.0238(3)
C5 C 0.5812(5) 0.2780(5) 0.1088(3)
C6 C -0.1304(5) 0.7692(4) -0.1228(3)
C7 C -0.0208(5) 0.6728(5) -0.1127(3)
C8 C 0.3861(5) 0.3974(4) 0.0317(3)
C9 C 0.5144(5) 0.2187(4) -0.0111(3)
C10 C 0.7066(4) 0.0880(4) 0.0720(3)
C11 C 0.4784(5) 0.3756(5) 0.0986(3)
C12 C 0.0477(5) 0.7235(4) 0.0123(3)
C13 C 0.4064(5) 0.3182(4) -0.0250(3)
C14 C -0.0621(5) 0.8192(4) 0.0024(3)
O2 O -0.3860(3) 1.0360(3) -0.1873(2)
C15 C -0.3044(5) 1.1388(5) -0.1971(3)
C16 C -0.1511(5) 1.1353(4) -0.1933(3)
C17 C -0.3814(5) 1.2626(5) -0.2117(2)
C18 C -0.0741(4) 1.2502(5) -0.2037(2)
C19 C -0.3002(5) 1.3730(4) -0.2240(3)
N2 N -0.5301(5) 1.2674(4) -0.2142(2)
N3 N 0.0859(4) 1.2465(4) -0.1954(2)
C20 C -0.1479(5) 1.3687(4) -0.2195(3)
O3 O 0.1558(3) 1.3502(3) -0.1983(2)
O4 O 0.1534(3) 1.1404(3) -0.1853(2)
H1 H 0.1893 0.4925 -0.0781
H2 H 0.2684 0.5544 0.0656
H3 H 0.6423 0.2627 0.1561
H4 H -0.1895 0.7875 -0.1701
H5 H -0.0056 0.6225 -0.1529
H6 H 0.5308 0.1646 -0.0496
H7 H 0.7080 0.0405 0.0289
H8 H 0.8060 0.1209 0.0926
H9 H 0.6752 0.0308 0.1056
H10 H 0.4710 0.4332 0.1373
H11 H 0.1115 0.7090 0.0591
H12 H 0.3453 0.3316 -0.0724
H13 H -0.0767 0.8704 0.0423
H14 H -0.3141 0.9670 -0.1328
H15 H -0.0970 1.0543 -0.1818
H16 H -0.3523 1.4553 -0.2349
H17 H -0.5790 1.1936 -0.2074
H18 H -0.5814 1.3435 -0.2232
H19 H -0.0932 1.4449 -0.2282
loop_
_geom_bond_atom_site_label_1
_geom_bond_atom_site_label_2
_geom_bond_site_symmetry_1
_geom_bond_site_symmetry_2
N1 C5 1_555 1_555
O1 C2 1_555 1_555
C1 C3 1_555 1_555
C2 C6 1_555 1_555
C3 C7 1_555 1_555
C4 C1 1_555 1_555
C5 C11 1_555 1_555
C6 C7 1_555 1_555
C7 H5 1_555 1_555
C8 C4 1_555 1_555
C9 N1 1_555 1_555
C10 N1 1_555 1_555
C11 C8 1_555 1_555
C12 C3 1_555 1_555
C13 C8 1_555 1_555
C14 C2 1_555 1_555
O2 C15 1_555 1_555
C15 C16 1_555 1_555
C16 C18 1_555 1_555
C17 C15 1_555 1_555
C18 N3 1_555 1_555
C19 C17 1_555 1_555
N2 C17 1_555 1_555
N3 O3 1_555 1_555
C20 C18 1_555 1_555
O4 N3 1_555 1_555
H1 C1 1_555 1_555
H2 C4 1_555 1_555
H3 C5 1_555 1_555
H4 C6 1_555 1_555
H6 C9 1_555 1_555
H7 C10 1_555 1_555
H8 C10 1_555 1_555
H9 C10 1_555 1_555
H10 C11 1_555 1_555
H11 C12 1_555 1_555
H12 C13 1_555 1_555
H13 C14 1_555 1_555
H14 O1 1_555 1_555
H15 C16 1_555 1_555
H16 C19 1_555 1_555
H17 N2 1_555 1_555
H18 N2 1_555 1_555
H19 C20 1_555 1_555
C9 C13 1_555 1_555
C12 C14 1_555 1_555
O2 H14 1_555 1_555
C19 C20 1_555 1_555

#END
