
#######################################################################
#
#                 Cambridge Crystallographic Data Centre
#                                CCDC 
#
#######################################################################
#
# If this CIF has been generated from an entry in the Cambridge 
# Structural Database, then it will include bibliographic, chemical, 
# crystal, experimental, refinement or atomic coordinate data resulting 
# from the CCDC's data processing and validation procedures.
#
#######################################################################

data_TEBMUL
_chemical_formula_moiety         'C42 H32 O2 P2,2(H2 O1)'
_chemical_name_systematic        
"1,1':3',1''-terphenyl-4,4''-diylbis(diphenylphosphane) dioxide dihydrate"
_symmetry_cell_setting           triclinic
_symmetry_space_group_name_H-M   'P -1'
_symmetry_Int_Tables_number      2
_space_group_name_Hall           '-P 1'
loop_
_symmetry_equiv_pos_site_id
_symmetry_equiv_pos_as_xyz
1 x,y,z
2 -x,-y,-z
_cell_length_a                   9.3120(14)
_cell_length_b                   10.7746(16)
_cell_length_c                   19.176(3)
_cell_angle_alpha                101.083(2)
_cell_angle_beta                 96.617(3)
_cell_angle_gamma                111.519(2)
_cell_volume                     1719.76
_exptl_crystal_description       Block
_cell_formula_units_Z            2
loop_
_atom_site_label
_atom_site_type_symbol
_atom_site_fract_x
_atom_site_fract_y
_atom_site_fract_z
O1 O -0.6319(2) -0.07160(18) 1.13446(10)
C1 C -0.7614(4) 0.1924(3) 1.26109(16)
H1 H -0.6650 0.2528 1.2908
P1 P -0.59275(8) 0.07036(6) 1.17981(3)
C2 C -0.8998(4) 0.2018(4) 1.27663(18)
H2 H -0.8960 0.2699 1.3157
P2 P 0.04440(7) 0.31128(6) 0.63020(3)
O2 O 0.0217(2) 0.38488(19) 0.57387(9)
C3 C -1.0418(4) 0.1098(4) 1.2339(2)
H3 H -1.1348 0.1143 1.2449
C4 C -1.0484(4) 0.0102(3) 1.1746(2)
H4 H -1.1453 -0.0516 1.1458
C5 C -0.9098(4) 0.0031(3) 1.15816(18)
H5 H -0.9140 -0.0627 1.1178
C6 C -0.7660(3) 0.0931(3) 1.20131(14)
C7 C -0.3698(3) 0.2402(3) 1.30660(15)
H6 H -0.3689 0.3151 1.2891
C8 C -0.2763(3) 0.2620(3) 1.37331(16)
H7 H -0.2145 0.3514 1.4008
C9 C -0.2752(4) 0.1504(4) 1.39886(17)
H8 H -0.2111 0.1650 1.4431
C10 C -0.3688(4) 0.0177(3) 1.35891(17)
H9 H -0.3684 -0.0568 1.3765
C11 C -0.4637(3) -0.0047(3) 1.29247(15)
H10 H -0.5267 -0.0943 1.2656
C12 C -0.4646(3) 0.1069(3) 1.26593(14)
C13 C -0.4929(3) 0.2006(3) 1.13504(13)
C14 C -0.3921(4) 0.1730(3) 1.09148(15)
H11 H -0.3787 0.0907 1.0870
C15 C -0.3125(4) 0.2670(3) 1.05503(15)
H12 H -0.2445 0.2475 1.0271
C16 C -0.3318(3) 0.3913(3) 1.05925(12)
C17 C -0.4329(4) 0.4175(3) 1.10265(16)
H13 H -0.4471 0.4995 1.1068
C18 C -0.5128(4) 0.3241(3) 1.13982(16)
H14 H -0.5801 0.3439 1.1681
C19 C -0.2510(3) 0.4897(3) 1.01742(13)
C20 C -0.2054(3) 0.4424(2) 0.95414(13)
H15 H -0.2226 0.3498 0.9400
C21 C -0.1351(3) 0.5294(2) 0.91124(12)
C22 C -0.1105(4) 0.6687(3) 0.93374(15)
H16 H -0.0659 0.7288 0.9059
C23 C -0.1524(4) 0.7172(3) 0.99739(16)
H17 H -0.1338 0.8102 1.0121
C24 C -0.2215(4) 0.6292(3) 1.03925(15)
H18 H -0.2481 0.6634 1.0819
C25 C -0.0902(3) 0.4745(2) 0.84334(12)
C26 C -0.1225(4) 0.3349(3) 0.81893(15)
H19 H -0.1706 0.2748 0.8462
C27 C -0.0846(4) 0.2833(3) 0.75469(15)
H20 H -0.1078 0.1895 0.7396
C28 C -0.0122(3) 0.3704(2) 0.71270(13)
C29 C 0.0201(3) 0.5099(3) 0.73680(14)
H21 H 0.0673 0.5700 0.7093
C30 C -0.0170(3) 0.5606(3) 0.80103(14)
H22 H 0.0075 0.6546 0.8163
C31 C -0.0725(3) 0.1284(3) 0.60023(12)
C32 C -0.0083(4) 0.0303(3) 0.59409(17)
H23 H 0.1003 0.0578 0.6067
C33 C -0.1060(5) -0.1094(3) 0.56911(19)
H24 H -0.0623 -0.1748 0.5654
C34 C -0.2650(4) -0.1508(3) 0.55019(17)
H25 H -0.3296 -0.2443 0.5340
C35 C -0.3308(4) -0.0535(4) 0.5550(2)
H26 H -0.4393 -0.0817 0.5413
C36 C -0.2347(4) 0.0851(3) 0.58016(18)
H27 H -0.2790 0.1500 0.5837
C37 C 0.2495(3) 0.3410(2) 0.65626(13)
C38 C 0.3538(3) 0.3988(3) 0.61369(15)
H28 H 0.3169 0.4191 0.5720
C39 C 0.5125(3) 0.4262(3) 0.63314(18)
H29 H 0.5819 0.4642 0.6043
C40 C 0.5676(4) 0.3970(3) 0.69552(19)
H30 H 0.6740 0.4149 0.7083
C41 C 0.4652(4) 0.3410(3) 0.73920(17)
H31 H 0.5032 0.3227 0.7814
C42 C 0.3060(3) 0.3125(3) 0.71960(15)
H32 H 0.2369 0.2745 0.7485
O3 O -0.1509(3) -0.4510(2) 0.54996(11)
O4 O -1.4219(3) -0.1918(3) 1.10448(16)
loop_
_geom_bond_atom_site_label_1
_geom_bond_atom_site_label_2
_geom_bond_site_symmetry_1
_geom_bond_site_symmetry_2
O1 P1 1_555 1_555
C1 H1 1_555 1_555
P1 C6 1_555 1_555
C2 C1 1_555 1_555
H2 C2 1_555 1_555
P2 O2 1_555 1_555
C3 C2 1_555 1_555
H3 C3 1_555 1_555
C4 C3 1_555 1_555
H4 C4 1_555 1_555
C5 C4 1_555 1_555
H5 C5 1_555 1_555
C6 C1 1_555 1_555
C7 H6 1_555 1_555
C8 C7 1_555 1_555
H7 C8 1_555 1_555
C9 C8 1_555 1_555
H8 C9 1_555 1_555
C10 C9 1_555 1_555
H9 C10 1_555 1_555
C11 C10 1_555 1_555
H10 C11 1_555 1_555
C12 P1 1_555 1_555
C13 P1 1_555 1_555
C14 C13 1_555 1_555
H11 C14 1_555 1_555
C15 C14 1_555 1_555
H12 C15 1_555 1_555
C16 C15 1_555 1_555
C17 C16 1_555 1_555
H13 C17 1_555 1_555
C18 C13 1_555 1_555
H14 C18 1_555 1_555
C19 C16 1_555 1_555
C20 C19 1_555 1_555
H15 C20 1_555 1_555
C21 C20 1_555 1_555
C22 C21 1_555 1_555
H16 C22 1_555 1_555
C23 C22 1_555 1_555
H17 C23 1_555 1_555
C24 C19 1_555 1_555
H18 C24 1_555 1_555
C25 C21 1_555 1_555
C26 C25 1_555 1_555
H19 C26 1_555 1_555
C27 C26 1_555 1_555
H20 C27 1_555 1_555
C28 P2 1_555 1_555
C29 C28 1_555 1_555
H21 C29 1_555 1_555
C30 C25 1_555 1_555
H22 C30 1_555 1_555
C31 P2 1_555 1_555
C32 C31 1_555 1_555
H23 C32 1_555 1_555
C33 C32 1_555 1_555
H24 C33 1_555 1_555
C34 C33 1_555 1_555
H25 C34 1_555 1_555
C35 C34 1_555 1_555
H26 C35 1_555 1_555
C36 C31 1_555 1_555
H27 C36 1_555 1_555
C37 P2 1_555 1_555
C38 C37 1_555 1_555
H28 C38 1_555 1_555
C39 C38 1_555 1_555
H29 C39 1_555 1_555
C40 C39 1_555 1_555
H30 C40 1_555 1_555
C41 C40 1_555 1_555
H31 C41 1_555 1_555
C42 C37 1_555 1_555
H32 C42 1_555 1_555
C5 C6 1_555 1_555
C7 C12 1_555 1_555
C11 C12 1_555 1_555
C17 C18 1_555 1_555
C23 C24 1_555 1_555
C27 C28 1_555 1_555
C29 C30 1_555 1_555
C35 C36 1_555 1_555
C41 C42 1_555 1_555

#END
