
#######################################################################
#
#                 Cambridge Crystallographic Data Centre
#                                CCDC 
#
#######################################################################
#
# If this CIF has been generated from an entry in the Cambridge 
# Structural Database, then it will include bibliographic, chemical, 
# crystal, experimental, refinement or atomic coordinate data resulting 
# from the CCDC's data processing and validation procedures.
#
#######################################################################

data_TEBNOG
_chemical_formula_moiety         'C13 H9 N1 O2 S1'
_chemical_name_systematic        '2-phenyl-1,2-benzothiazol-3(2H)-one 1-oxide'
_symmetry_cell_setting           monoclinic
_symmetry_space_group_name_H-M   'C c'
_symmetry_Int_Tables_number      9
_space_group_name_Hall           'C -2yc'
loop_
_symmetry_equiv_pos_site_id
_symmetry_equiv_pos_as_xyz
1 x,y,z
2 x,-y,1/2+z
3 1/2+x,1/2+y,z
4 1/2+x,1/2-y,1/2+z
_cell_length_a                   16.288(2)
_cell_length_b                   4.3406(6)
_cell_length_c                   16.172(3)
_cell_angle_alpha                90
_cell_angle_beta                 96.246(13)
_cell_angle_gamma                90
_cell_volume                     1136.57
_exptl_crystal_colour            colorless
_exptl_crystal_description       block
_cell_formula_units_Z            4
loop_
_atom_site_label
_atom_site_type_symbol
_atom_site_fract_x
_atom_site_fract_y
_atom_site_fract_z
S1 S 0.48439(17) 0.8618(7) 0.61860(17)
O1 O 0.4988(5) 0.5374(15) 0.6251(4)
O2 O 0.3406(5) 1.155(2) 0.4382(5)
N1 N 0.4495(5) 0.9549(18) 0.5182(5)
C1 C 0.3810(6) 0.935(2) 0.6424(6)
C2 C 0.3577(6) 0.894(3) 0.7207(7)
H1 H 0.3943 0.8185 0.7642
C3 C 0.2771(7) 0.971(2) 0.7321(7)
H2 H 0.2591 0.9469 0.7844
C4 C 0.2244(7) 1.081(3) 0.6692(8)
H3 H 0.1704 1.1269 0.6785
C5 C 0.2489(6) 1.127(3) 0.5910(7)
H4 H 0.2125 1.2063 0.5480
C6 C 0.3294(6) 1.051(2) 0.5787(6)
C7 C 0.3695(6) 1.090(3) 0.4995(6)
C8 C 0.5089(7) 0.952(2) 0.4572(6)
C9 C 0.5810(6) 1.114(2) 0.4737(6)
H5 H 0.5916 1.2224 0.5233
C10 C 0.6383(7) 1.115(3) 0.4159(8)
H6 H 0.6878 1.2218 0.4269
C11 C 0.6210(8) 0.958(3) 0.3421(8)
H7 H 0.6594 0.9575 0.3035
C12 C 0.5488(8) 0.803(3) 0.3250(7)
H8 H 0.5374 0.7010 0.2744
C13 C 0.4908(7) 0.795(3) 0.3843(6)
H9 H 0.4416 0.6864 0.3738
loop_
_geom_bond_atom_site_label_1
_geom_bond_atom_site_label_2
_geom_bond_site_symmetry_1
_geom_bond_site_symmetry_2
S1 O1 1_555 1_555
O2 C7 1_555 1_555
N1 S1 1_555 1_555
C1 S1 1_555 1_555
C2 C1 1_555 1_555
H1 C2 1_555 1_555
C3 C2 1_555 1_555
H2 C3 1_555 1_555
C4 C3 1_555 1_555
H3 C4 1_555 1_555
C5 C4 1_555 1_555
H4 C5 1_555 1_555
C6 C1 1_555 1_555
C7 N1 1_555 1_555
C8 N1 1_555 1_555
C9 C8 1_555 1_555
H5 C9 1_555 1_555
C10 C9 1_555 1_555
H6 C10 1_555 1_555
C11 C10 1_555 1_555
H7 C11 1_555 1_555
C12 C11 1_555 1_555
H8 C12 1_555 1_555
C13 C8 1_555 1_555
H9 C13 1_555 1_555
C5 C6 1_555 1_555
C6 C7 1_555 1_555
C12 C13 1_555 1_555

#END
