
#######################################################################
#
#                 Cambridge Crystallographic Data Centre
#                                CCDC 
#
#######################################################################
#
# If this CIF has been generated from an entry in the Cambridge 
# Structural Database, then it will include bibliographic, chemical, 
# crystal, experimental, refinement or atomic coordinate data resulting 
# from the CCDC's data processing and validation procedures.
#
#######################################################################

data_TEBPAT
_chemical_formula_moiety         'C12 H16 Cl2 N2 P2'
_chemical_name_systematic        
6,12-Dichloro-2,3,4,7,8,9,10,12-octahydro-1H,6H-[1,2,3]benzodiazaphospholo[2,1-a][1,2,3]benzodiazaphosphole
_symmetry_cell_setting           monoclinic
_symmetry_space_group_name_H-M   'P 21/n'
_symmetry_Int_Tables_number      14
_space_group_name_Hall           '-P 2yn'
loop_
_symmetry_equiv_pos_site_id
_symmetry_equiv_pos_as_xyz
1 x,y,z
2 1/2-x,1/2+y,1/2-z
3 -x,-y,-z
4 1/2+x,1/2-y,1/2+z
_cell_length_a                   7.2912(5)
_cell_length_b                   6.9859(5)
_cell_length_c                   14.1252(9)
_cell_angle_alpha                90
_cell_angle_beta                 102.2080(10)
_cell_angle_gamma                90
_cell_volume                     703.206
_exptl_crystal_colour            yellow
_exptl_crystal_description       prism
_cell_formula_units_Z            2
loop_
_atom_site_label
_atom_site_type_symbol
_atom_site_fract_x
_atom_site_fract_y
_atom_site_fract_z
P1 P -0.27614(5) 0.00265(5) 0.01934(3)
Cl1 Cl -0.25637(6) -0.15837(7) 0.15301(3)
N1 N -0.05231(18) 0.06828(18) 0.02007(10)
C1 C -0.2472(2) -0.1908(2) -0.06012(10)
C2 C -0.3973(2) -0.3320(2) -0.10416(12)
H1 H -0.4863 -0.2702 -0.1582
H2 H -0.4682 -0.3713 -0.0548
C3 C -0.3124(3) -0.5084(2) -0.14178(14)
H3 H -0.4125 -0.5795 -0.1863
H4 H -0.2605 -0.5936 -0.0866
C4 C 0.0682(2) 0.2053(2) 0.07050(10)
C5 C -0.0062(2) 0.3549(2) 0.12856(12)
H5 H -0.0874 0.2941 0.1680
H6 H -0.0827 0.4485 0.0845
C6 C 0.1572(3) 0.4579(3) 0.19497(13)
H7 H 0.1104 0.5765 0.2201
H8 H 0.2093 0.3746 0.2509
P1B P 0.27614(5) -0.00265(5) -0.01934(3)
Cl1B Cl 0.25637(6) 0.15837(7) -0.15301(3)
N1B N 0.05231(18) -0.06828(18) -0.02007(10)
C1B C 0.2472(2) 0.1908(2) 0.06012(10)
C2B C 0.3973(2) 0.3320(2) 0.10416(12)
H1B H 0.4863 0.2702 0.1582
H2B H 0.4682 0.3713 0.0548
C3B C 0.3124(3) 0.5084(2) 0.14178(14)
H3B H 0.4125 0.5795 0.1863
H4B H 0.2605 0.5936 0.0866
C4B C -0.0682(2) -0.2053(2) -0.07050(10)
C5B C 0.0062(2) -0.3549(2) -0.12856(12)
H5B H 0.0874 -0.2941 -0.1680
H6B H 0.0827 -0.4485 -0.0845
C6B C -0.1572(3) -0.4579(3) -0.19497(13)
H7B H -0.1104 -0.5765 -0.2201
H8B H -0.2093 -0.3746 -0.2509
loop_
_geom_bond_atom_site_label_1
_geom_bond_atom_site_label_2
_geom_bond_site_symmetry_1
_geom_bond_site_symmetry_2
P1 Cl1 1_555 1_555
N1 P1 1_555 1_555
C1 P1 1_555 1_555
C2 C1 1_555 1_555
H1 C2 1_555 1_555
H2 C2 1_555 1_555
C3 C2 1_555 1_555
H3 C3 1_555 1_555
H4 C3 1_555 1_555
C4 N1 1_555 1_555
C5 C4 1_555 1_555
H5 C5 1_555 1_555
H6 C5 1_555 1_555
C6 C5 1_555 1_555
H7 C6 1_555 1_555
H8 C6 1_555 1_555
P1B Cl1B 1_555 1_555
N1B N1 1_555 1_555
C1B C4 1_555 1_555
C2B C1B 1_555 1_555
H1B C2B 1_555 1_555
H2B C2B 1_555 1_555
C3B C6 1_555 1_555
H3B C3B 1_555 1_555
H4B C3B 1_555 1_555
C4B C1 1_555 1_555
C5B C4B 1_555 1_555
H5B C5B 1_555 1_555
H6B C5B 1_555 1_555
C6B C3 1_555 1_555
H7B C6B 1_555 1_555
H8B C6B 1_555 1_555
P1B N1B 1_555 1_555
P1B C1B 1_555 1_555
N1B C4B 1_555 1_555
C2B C3B 1_555 1_555
C5B C6B 1_555 1_555

#END
