
#######################################################################
#
#                 Cambridge Crystallographic Data Centre
#                                CCDC 
#
#######################################################################
#
# If this CIF has been generated from an entry in the Cambridge 
# Structural Database, then it will include bibliographic, chemical, 
# crystal, experimental, refinement or atomic coordinate data resulting 
# from the CCDC's data processing and validation procedures.
#
#######################################################################

data_TEBROI
_chemical_formula_moiety         'C42 H42 Ca1 F10 N2 O4,0.67(C7 H8)'
_chemical_name_systematic        
'trans-bis((2-t-Butyl-6-(N-perfluorophenyliminomethyl)phenolato)-(tetrahydrofuran))-calcium toluene solvate'
_symmetry_cell_setting           rhombohedral
_symmetry_space_group_name_H-M   'R -3'
_symmetry_Int_Tables_number      148
_space_group_name_Hall           '-R 3'
loop_
_symmetry_equiv_pos_site_id
_symmetry_equiv_pos_as_xyz
1 x,y,z
2 -y,x-y,z
3 -x+y,-x,z
4 2/3+x,1/3+y,1/3+z
5 2/3-y,1/3+x-y,1/3+z
6 2/3-x+y,1/3-x,1/3+z
7 1/3+x,2/3+y,2/3+z
8 1/3-y,2/3+x-y,2/3+z
9 1/3-x+y,2/3-x,2/3+z
10 -x,-y,-z
11 y,-x+y,-z
12 x-y,x,-z
13 1/3-x,2/3-y,2/3-z
14 1/3+y,2/3-x+y,2/3-z
15 1/3+x-y,2/3+x,2/3-z
16 2/3-x,1/3-y,1/3-z
17 2/3+y,1/3-x+y,1/3-z
18 2/3+x-y,1/3+x,1/3-z
_cell_length_a                   28.728(4)
_cell_length_b                   28.728(4)
_cell_length_c                   13.871(3)
_cell_angle_alpha                90
_cell_angle_beta                 90
_cell_angle_gamma                120.00
_cell_volume                     9914.01
_exptl_crystal_colour            'pale yellow'
_exptl_crystal_description       'square prisms'
_cell_formula_units_Z            9
_exptl_crystal_recrystallization_method 'toluene/light petroleum'
loop_
_atom_site_label
_atom_site_type_symbol
_atom_site_fract_x
_atom_site_fract_y
_atom_site_fract_z
Ca1 Ca 0.5000 0.0000 0.5000
O1 O 0.52801(8) 0.04597(8) 0.36298(12)
C1 C 0.53664(11) 0.08948(11) 0.32180(19)
C2 C 0.53375(11) 0.13078(11) 0.37492(19)
C3 C 0.53976(13) 0.17684(12) 0.3288(2)
H1 H 0.5370 0.2028 0.3642
C4 C 0.54962(13) 0.18383(13) 0.2324(2)
H2 H 0.5523 0.2138 0.2016
C5 C 0.55564(12) 0.14572(12) 0.1804(2)
H3 H 0.5636 0.1518 0.1151
C6 C 0.55033(11) 0.09944(11) 0.22090(18)
C7 C 0.55904(11) 0.05974(12) 0.16241(19)
C8 C 0.60333(12) 0.05232(13) 0.2073(2)
H4 H 0.6083 0.0271 0.1697
H5 H 0.5934 0.0390 0.2719
H6 H 0.6362 0.0862 0.2086
C9 C 0.57648(14) 0.07931(13) 0.0586(2)
H7 H 0.5815 0.0533 0.0239
H8 H 0.6096 0.1130 0.0596
H9 H 0.5492 0.0839 0.0274
C10 C 0.50736(12) 0.00544(12) 0.1560(2)
H10 H 0.5138 -0.0190 0.1189
H11 H 0.4799 0.0099 0.1254
H12 H 0.4959 -0.0088 0.2197
C11 C 0.52675(11) 0.12974(12) 0.4768(2)
H13 H 0.5296 0.1608 0.5036
N1 N 0.51696(9) 0.09163(10) 0.53702(15)
C12 C 0.51632(12) 0.10523(12) 0.63563(19)
C13 C 0.56289(13) 0.13486(15) 0.6865(2)
F1 F 0.61028(8) 0.15286(11) 0.64293(15)
C14 C 0.56241(15) 0.14624(16) 0.7833(2)
F2 F 0.60846(9) 0.17443(11) 0.83105(15)
C15 C 0.51456(15) 0.12937(14) 0.8285(2)
F3 F 0.51375(9) 0.14062(8) 0.92228(12)
C16 C 0.46813(14) 0.10045(13) 0.7794(2)
F4 F 0.42084(8) 0.08399(8) 0.82387(13)
C17 C 0.46911(13) 0.08800(12) 0.6842(2)
F5 F 0.42238(7) 0.05809(7) 0.63748(12)
O2 O 0.58864(8) 0.03178(9) 0.54928(15)
C18 C 0.60623(13) 0.01364(15) 0.6298(2)
H14 H 0.5873 -0.0253 0.6320
H15 H 0.5996 0.0269 0.6895
C19 C 0.66443(14) 0.03509(17) 0.6162(3)
H16 H 0.6728 0.0063 0.6151
H17 H 0.6849 0.0601 0.6672
C20 C 0.6764(4) 0.0637(5) 0.5182(8)
H20 H 0.7095 0.0980 0.5216
H21 H 0.6804 0.0420 0.4690
C22 C 0.63500(13) 0.07119(16) 0.4965(3)
H24 H 0.6279 0.0668 0.4278
H25 H 0.6434 0.1072 0.5146
O1I O 0.47199(8) -0.04597(8) 0.63702(12)
C1I C 0.46336(11) -0.08948(11) 0.67820(19)
C2I C 0.46625(11) -0.13078(11) 0.62508(19)
C3I C 0.46024(13) -0.17684(12) 0.6712(2)
H1I H 0.4630 -0.2028 0.6358
C4I C 0.45038(13) -0.18383(13) 0.7676(2)
H2I H 0.4477 -0.2138 0.7984
C5I C 0.44436(12) -0.14572(12) 0.8196(2)
H3I H 0.4364 -0.1518 0.8849
C6I C 0.44967(11) -0.09944(11) 0.77910(18)
C7I C 0.44096(11) -0.05974(12) 0.83759(19)
C8I C 0.39667(12) -0.05232(13) 0.7927(2)
H4I H 0.3917 -0.0271 0.8303
H5I H 0.4066 -0.0390 0.7281
H6I H 0.3638 -0.0862 0.7914
C9I C 0.42352(14) -0.07931(13) 0.9414(2)
H7I H 0.4185 -0.0533 0.9761
H8I H 0.3904 -0.1130 0.9404
H9I H 0.4508 -0.0839 0.9726
C10I C 0.49264(12) -0.00544(12) 0.8440(2)
H10I H 0.4862 0.0190 0.8811
H11I H 0.5201 -0.0099 0.8746
H12I H 0.5041 0.0088 0.7803
C11I C 0.47325(11) -0.12974(12) 0.5232(2)
H13I H 0.4704 -0.1608 0.4964
N1I N 0.48304(9) -0.09163(10) 0.46298(15)
C12I C 0.48368(12) -0.10523(12) 0.36437(19)
C13I C 0.43711(13) -0.13486(15) 0.3135(2)
F1I F 0.38972(8) -0.15286(11) 0.35707(15)
C14I C 0.43759(15) -0.14624(16) 0.2167(2)
F2I F 0.39154(9) -0.17443(11) 0.16895(15)
C15I C 0.48544(15) -0.12937(14) 0.1715(2)
F3I F 0.48625(9) -0.14062(8) 0.07772(12)
C16I C 0.53187(14) -0.10045(13) 0.2206(2)
F4I F 0.57916(8) -0.08399(8) 0.17613(13)
C17I C 0.53089(13) -0.08800(12) 0.3158(2)
F5I F 0.57762(7) -0.05809(7) 0.36252(12)
O2I O 0.41136(8) -0.03178(9) 0.45072(15)
C18I C 0.39377(13) -0.01364(15) 0.3702(2)
H14I H 0.4127 0.0253 0.3680
H15I H 0.4004 -0.0269 0.3105
C19I C 0.33557(14) -0.03509(17) 0.3838(3)
H16I H 0.3272 -0.0063 0.3849
H17I H 0.3151 -0.0601 0.3328
C20I C 0.3236(4) -0.0637(5) 0.4818(8)
H20I H 0.2905 -0.0980 0.4784
H21I H 0.3196 -0.0420 0.5310
C22I C 0.36500(13) -0.07119(16) 0.5035(3)
H24I H 0.3721 -0.0668 0.5722
H25I H 0.3566 -0.1072 0.4854
H18? H 0.6829 0.0421 0.6776
H19? H 0.6712 0.0105 0.5792
C21? C 0.6807(4) 0.0838(4) 0.5645(7)
H22? H 0.7136 0.0944 0.5291
H23? H 0.6865 0.1125 0.6082
H26? H 0.6324 0.1030 0.4830
H27? H 0.6392 0.0565 0.4363
C23? C 0.9982(8) 0.0447(8) 0.2312(14)
C24? C 1.0248(9) 0.0599(8) 0.3424(14)
C25? C 0.9992(8) 0.0614(8) 0.3090(14)
C26? C 0.993(3) 0.010(3) 0.3005(15)
C27? C 0.978(2) 0.020(2) 0.363(3)
C28? C 1.0000 0.0000 0.1754(17)
C29? C 1.0000 0.0000 0.0833(19)
loop_
_geom_bond_atom_site_label_1
_geom_bond_atom_site_label_2
_geom_bond_site_symmetry_1
_geom_bond_site_symmetry_2
Ca1 O1 1_555 1_555
O1 C1 1_555 1_555
C1 C2 1_555 1_555
C2 C3 1_555 1_555
C3 H1 1_555 1_555
C4 C3 1_555 1_555
H2 C4 1_555 1_555
C5 C4 1_555 1_555
H3 C5 1_555 1_555
C6 C1 1_555 1_555
C7 C6 1_555 1_555
C8 C7 1_555 1_555
H4 C8 1_555 1_555
H5 C8 1_555 1_555
H6 C8 1_555 1_555
C9 C7 1_555 1_555
H7 C9 1_555 1_555
H8 C9 1_555 1_555
H9 C9 1_555 1_555
C10 C7 1_555 1_555
H10 C10 1_555 1_555
H11 C10 1_555 1_555
H12 C10 1_555 1_555
C11 C2 1_555 1_555
H13 C11 1_555 1_555
N1 Ca1 1_555 1_555
C12 N1 1_555 1_555
C13 C12 1_555 1_555
F1 C13 1_555 1_555
C14 C13 1_555 1_555
F2 C14 1_555 1_555
C15 C14 1_555 1_555
F3 C15 1_555 1_555
C16 C15 1_555 1_555
F4 C16 1_555 1_555
C17 C12 1_555 1_555
F5 C17 1_555 1_555
O2 Ca1 1_555 1_555
C18 O2 1_555 1_555
H14 C18 1_555 1_555
H15 C18 1_555 1_555
C19 C18 1_555 1_555
H16 C19 1_555 1_555
H17 C19 1_555 1_555
C20 C19 1_555 1_555
H20 C20 1_555 1_555
H21 C20 1_555 1_555
C22 O2 1_555 1_555
H24 C22 1_555 1_555
H25 C22 1_555 1_555
O1I Ca1 1_555 1_555
C1I O1I 1_555 1_555
C2I C1I 1_555 1_555
C3I C2I 1_555 1_555
H1I C3I 1_555 1_555
C4I C3I 1_555 1_555
H2I C4I 1_555 1_555
C5I C4I 1_555 1_555
H3I C5I 1_555 1_555
C6I C1I 1_555 1_555
C7I C6I 1_555 1_555
C8I C7I 1_555 1_555
H4I C8I 1_555 1_555
H5I C8I 1_555 1_555
H6I C8I 1_555 1_555
C9I C7I 1_555 1_555
H7I C9I 1_555 1_555
H8I C9I 1_555 1_555
H9I C9I 1_555 1_555
C10I C7I 1_555 1_555
H10I C10I 1_555 1_555
H11I C10I 1_555 1_555
H12I C10I 1_555 1_555
C11I C2I 1_555 1_555
H13I C11I 1_555 1_555
N1I Ca1 1_555 1_555
C12I N1I 1_555 1_555
C13I C12I 1_555 1_555
F1I C13I 1_555 1_555
C14I C13I 1_555 1_555
F2I C14I 1_555 1_555
C15I C14I 1_555 1_555
F3I C15I 1_555 1_555
C16I C15I 1_555 1_555
F4I C16I 1_555 1_555
C17I C12I 1_555 1_555
F5I C17I 1_555 1_555
O2I Ca1 1_555 1_555
C18I O2I 1_555 1_555
H14I C18I 1_555 1_555
H15I C18I 1_555 1_555
C19I C18I 1_555 1_555
H16I C19I 1_555 1_555
H17I C19I 1_555 1_555
C20I C19I 1_555 1_555
H20I C20I 1_555 1_555
H21I C20I 1_555 1_555
C22I O2I 1_555 1_555
H24I C22I 1_555 1_555
H25I C22I 1_555 1_555
C5 C6 1_555 1_555
C11 N1 1_555 1_555
C16 C17 1_555 1_555
C20 C22 1_555 1_555
C5I C6I 1_555 1_555
C11I N1I 1_555 1_555
C16I C17I 1_555 1_555
C20I C22I 1_555 1_555

#END
