
#######################################################################
#
#                 Cambridge Crystallographic Data Centre
#                                CCDC 
#
#######################################################################
#
# If this CIF has been generated from an entry in the Cambridge 
# Structural Database, then it will include bibliographic, chemical, 
# crystal, experimental, refinement or atomic coordinate data resulting 
# from the CCDC's data processing and validation procedures.
#
#######################################################################

data_TEBRUO
_chemical_formula_moiety         'C68 H108 Ca2 N4 O4,C4 H10 O1'
_chemical_name_systematic        
"bis(\m~2~-N,N-bis(3,5-Di-t-butyl-2-oxyphenylmethyl)-N',N'-dimethylethylenediamine-H,N,N',O,O,O')-calcium diethyl ether solvate"
_symmetry_cell_setting           triclinic
_symmetry_space_group_name_H-M   'P -1'
_symmetry_Int_Tables_number      2
_space_group_name_Hall           '-P 1'
loop_
_symmetry_equiv_pos_site_id
_symmetry_equiv_pos_as_xyz
1 x,y,z
2 -x,-y,-z
_cell_length_a                   9.7184(2)
_cell_length_b                   14.4919(2)
_cell_length_c                   27.3095(5)
_cell_angle_alpha                104.7170(10)
_cell_angle_beta                 90.0640(10)
_cell_angle_gamma                105.4130(10)
_cell_volume                     3576.51
_exptl_crystal_colour            colorless
_exptl_crystal_description       block
_cell_formula_units_Z            2
_exptl_crystal_recrystallization_method 'diethyl ether/light petroleum'
loop_
_atom_site_label
_atom_site_type_symbol
_atom_site_fract_x
_atom_site_fract_y
_atom_site_fract_z
Ca1 Ca 0.60134(5) 0.09673(3) 0.309007(17)
Ca2 Ca 0.52328(5) -0.06529(3) 0.188720(17)
N1 N 0.82422(19) 0.21474(14) 0.29121(7)
C1 C 0.9494(2) 0.18770(18) 0.30978(8)
H1 H 1.0364 0.2357 0.3056
H2 H 0.9514 0.1234 0.2885
C2 C 0.9499(2) 0.18337(18) 0.36432(8)
C3 C 0.8506(2) 0.10401(17) 0.37711(8)
O1 O 0.75530(17) 0.03898(12) 0.34139(6)
C4 C 0.8538(2) 0.09807(17) 0.42837(8)
C5 C 0.7469(2) 0.01360(18) 0.44437(9)
C6 C 0.5929(3) 0.0185(2) 0.43532(11)
H3 H 0.5834 0.0819 0.4541
H4 H 0.5270 -0.0330 0.4464
H5 H 0.5722 0.0098 0.3998
C7 C 0.7600(3) -0.08787(19) 0.41397(9)
H6 H 0.6918 -0.1393 0.4244
H7 H 0.8549 -0.0925 0.4201
H8 H 0.7416 -0.0953 0.3784
C8 C 0.7699(3) 0.0189(2) 0.50058(9)
H9 H 0.7619 0.0816 0.5210
H10 H 0.8634 0.0123 0.5071
H11 H 0.6987 -0.0339 0.5089
C9 C 0.9536(2) 0.17251(19) 0.46315(9)
H12 H 0.9556 0.1687 0.4966
C10 C 1.0509(2) 0.25247(19) 0.45154(9)
C11 C 1.1544(3) 0.3329(2) 0.49262(10)
C12 C 1.0909(9) 0.3650(6) 0.5376(3)
H13 H 1.1617 0.4147 0.5617
H14 H 1.0515 0.3097 0.5514
H15 H 1.0159 0.3925 0.5304
C13 C 1.2732(6) 0.2794(5) 0.5050(2)
H16 H 1.3200 0.2591 0.4748
H17 H 1.2269 0.2223 0.5165
H18 H 1.3429 0.3252 0.5309
C14 C 1.2432(7) 0.4172(4) 0.4719(2)
H19 H 1.2827 0.3898 0.4412
H20 H 1.3194 0.4587 0.4967
H21 H 1.1831 0.4560 0.4650
C18 C 1.0480(2) 0.25465(18) 0.40098(9)
H31 H 1.1136 0.3054 0.3914
C19 C 0.8317(2) 0.19975(18) 0.23507(8)
H32 H 0.8291 0.1310 0.2200
H33 H 0.9236 0.2403 0.2290
C20 C 0.7161(2) 0.22345(17) 0.20743(8)
C21 C 0.5725(2) 0.16842(16) 0.20537(8)
O2 O 0.53838(16) 0.09636(11) 0.22968(5)
C22 C 0.4668(2) 0.18898(17) 0.17726(8)
C23 C 0.3073(3) 0.13568(19) 0.17647(9)
C24 C 0.2560(3) 0.1585(2) 0.23022(9)
H34 H 0.2746 0.2289 0.2436
H35 H 0.3061 0.1330 0.2517
H36 H 0.1551 0.1277 0.2290
C25 C 0.2759(3) 0.0227(2) 0.15565(10)
H37 H 0.1753 -0.0076 0.1559
H38 H 0.3285 -0.0023 0.1766
H39 H 0.3043 0.0073 0.1215
C26 C 0.2136(3) 0.1695(2) 0.14336(11)
H40 H 0.2301 0.2401 0.1550
H41 H 0.1147 0.1374 0.1456
H42 H 0.2374 0.1521 0.1087
C27 C 0.5126(3) 0.25908(18) 0.15001(8)
H43 H 0.4440 0.2718 0.1309
C28 C 0.6552(3) 0.31155(17) 0.14970(9)
C29 C 0.6936(3) 0.38403(19) 0.11614(9)
C30 C 0.8537(3) 0.4336(2) 0.11994(11)
H44 H 0.8733 0.4782 0.0986
H45 H 0.9037 0.3839 0.1092
H46 H 0.8850 0.4700 0.1545
C31 C 0.6470(3) 0.3269(2) 0.06019(9)
H47 H 0.6712 0.3719 0.0391
H48 H 0.5454 0.2971 0.0566
H49 H 0.6953 0.2760 0.0500
C32 C 0.6149(4) 0.4644(2) 0.13219(11)
H50 H 0.6393 0.5098 0.1113
H51 H 0.6426 0.4997 0.1671
H52 H 0.5135 0.4340 0.1282
C33 C 0.7548(3) 0.29387(17) 0.17976(8)
H53 H 0.8502 0.3300 0.1816
C34 C 0.8296(3) 0.31894(18) 0.31651(9)
H54 H 0.8752 0.3607 0.2951
H55 H 0.8883 0.3397 0.3482
C35 C 0.6829(5) 0.3347(3) 0.32743(16)
H58 H 0.6939 0.4040 0.3443
H59 H 0.6261 0.3187 0.2956
N2 N 0.6052(2) 0.27111(16) 0.36044(8)
C36 C 0.4525(7) 0.2881(5) 0.3604(2)
H60 H 0.4140 0.2733 0.3260
H61 H 0.4592 0.3560 0.3773
H62 H 0.3909 0.2453 0.3778
C37 C 0.6617(8) 0.2964(5) 0.4097(2)
H63 H 0.6060 0.2516 0.4274
H64 H 0.6600 0.3630 0.4262
H65 H 0.7587 0.2923 0.4099
N3 N 0.6230(2) -0.19856(14) 0.20390(7)
C41 C 0.7678(3) -0.1863(2) 0.18349(9)
H74 H 0.8029 -0.2415 0.1864
H75 H 0.8325 -0.1261 0.2046
C42 C 0.7732(2) -0.18094(18) 0.12884(9)
C43 C 0.7544(2) -0.09474(17) 0.11748(9)
O3 O 0.72587(17) -0.02458(12) 0.15440(6)
C44 C 0.7630(2) -0.08814(17) 0.06636(8)
C45 C 0.7464(2) 0.00412(17) 0.05210(8)
C46 C 0.5995(3) 0.0203(2) 0.06481(10)
H76 H 0.5913 0.0786 0.0558
H77 H 0.5895 0.0286 0.1005
H78 H 0.5256 -0.0363 0.0461
C47 C 0.7604(3) -0.00344(19) -0.00469(9)
H79 H 0.7493 0.0558 -0.0118
H80 H 0.6876 -0.0598 -0.0242
H81 H 0.8530 -0.0111 -0.0136
C48 C 0.8627(3) 0.09586(19) 0.08142(10)
H82 H 0.8513 0.1534 0.0725
H83 H 0.9552 0.0874 0.0730
H84 H 0.8545 0.1043 0.1172
C49 C 0.7858(2) -0.16921(17) 0.02999(8)
H85 H 0.7901 -0.1654 -0.0035
C50 C 0.8025(2) -0.25490(17) 0.04028(8)
C51 C 0.8222(3) -0.34309(18) -0.00087(9)
C52 C 0.8212(3) -0.3269(2) -0.05399(9)
H86 H 0.8344 -0.3842 -0.0783
H87 H 0.8974 -0.2696 -0.0549
H88 H 0.7313 -0.3167 -0.0622
C53 C 0.9632(4) -0.3635(3) 0.01019(11)
H89 H 0.9659 -0.3736 0.0436
H90 H 1.0413 -0.3079 0.0084
H91 H 0.9715 -0.4219 -0.0144
C54 C 0.6971(4) -0.4340(2) -0.00166(12)
H92 H 0.6937 -0.4465 0.0313
H93 H 0.7102 -0.4907 -0.0264
H94 H 0.6091 -0.4217 -0.0103
C55 C 0.7989(2) -0.25750(18) 0.09096(9)
H95 H 0.8142 -0.3122 0.0997
C56 C 0.6452(2) -0.18628(18) 0.25977(8)
H96 H 0.7076 -0.1204 0.2748
H97 H 0.6951 -0.2335 0.2644
C57 C 0.5123(2) -0.19976(17) 0.28890(8)
C58 C 0.4267(2) -0.13462(16) 0.29291(8)
O4 O 0.46142(15) -0.06160(11) 0.26911(5)
C59 C 0.3059(2) -0.14586(17) 0.32250(8)
C60 C 0.2023(2) -0.08122(18) 0.32535(9)
C61 C 0.1316(3) -0.0975(2) 0.27219(9)
H98 H 0.0674 -0.0567 0.2744
H99 H 0.0793 -0.1660 0.2593
H100 H 0.2042 -0.0799 0.2498
C62 C 0.2785(3) 0.02989(19) 0.34608(10)
H101 H 0.2104 0.0676 0.3472
H102 H 0.3519 0.0496 0.3243
H103 H 0.3208 0.0419 0.3797
C63 C 0.0805(3) -0.1059(2) 0.35936(10)
H104 H 0.0192 -0.0635 0.3598
H105 H 0.1195 -0.0957 0.3932
H106 H 0.0262 -0.1739 0.3464
C64 C 0.2847(2) -0.21791(17) 0.34910(8)
H107 H 0.2079 -0.2241 0.3694
C65 C 0.3712(3) -0.28156(17) 0.34732(9)
C66 C 0.3417(3) -0.35618(19) 0.38002(9)
C67 C 0.4461(3) -0.4195(2) 0.37151(12)
H108 H 0.5422 -0.3773 0.3793
H109 H 0.4351 -0.4575 0.3367
H110 H 0.4268 -0.4636 0.3931
C68 C 0.1888(3) -0.4241(2) 0.36768(11)
H111 H 0.1223 -0.3846 0.3732
H112 H 0.1705 -0.4683 0.3893
H113 H 0.1777 -0.4621 0.3328
C69 C 0.3572(3) -0.2991(2) 0.43620(10)
H114 H 0.2908 -0.2594 0.4422
H115 H 0.4530 -0.2568 0.4449
H116 H 0.3374 -0.3452 0.4567
C70 C 0.4832(3) -0.27157(17) 0.31580(9)
H117 H 0.5408 -0.3145 0.3125
C71 C 0.5248(3) -0.29686(18) 0.17915(10)
H118 H 0.4545 -0.3146 0.2028
H119 H 0.5796 -0.3452 0.1730
C72 C 0.4467(5) -0.3059(3) 0.13005(16)
H122 H 0.3801 -0.3715 0.1190
H123 H 0.5152 -0.2995 0.1045
N4 N 0.3658(2) -0.22957(16) 0.13364(8)
C73 C 0.3404(8) -0.2287(5) 0.0781(2)
H124 H 0.4308 -0.2076 0.0644
H125 H 0.2845 -0.1837 0.0768
H126 H 0.2901 -0.2943 0.0585
C74 C 0.2328(8) -0.2555(6) 0.1539(3)
H127 H 0.1857 -0.2044 0.1556
H128 H 0.2469 -0.2628 0.1873
H129 H 0.1748 -0.3171 0.1325
C78 C 0.2060(4) 0.4476(3) 0.21352(16)
H138 H 0.2958 0.4614 0.1985
H139 H 0.1379 0.3937 0.1903
H140 H 0.2188 0.4297 0.2444
C79 C 0.1522(4) 0.5376(3) 0.22495(13)
H141 H 0.2205 0.5924 0.2484
H142 H 0.1403 0.5567 0.1940
O5 O 0.0192(2) 0.51550(14) 0.24676(7)
C80 C -0.0387(4) 0.5982(2) 0.26033(13)
H143 H -0.0594 0.6174 0.2302
H144 H 0.0298 0.6542 0.2830
C81 C -0.1726(5) 0.5697(3) 0.28602(16)
H145 H -0.2119 0.6253 0.2960
H146 H -0.1515 0.5499 0.3155
H147 H -0.2408 0.5154 0.2631
C15? C 1.0795(11) 0.4312(6) 0.5009(3)
H22? H 0.9800 0.4093 0.5066
H23? H 1.0888 0.4553 0.4711
H24? H 1.1282 0.4835 0.5297
C16? C 1.1310(13) 0.3171(9) 0.5485(4)
H25? H 1.0304 0.2983 0.5530
H26? H 1.1766 0.3779 0.5734
H27? H 1.1720 0.2658 0.5523
C17? C 1.2908(10) 0.3645(11) 0.4832(4)
H28? H 1.3421 0.4148 0.5122
H29? H 1.2962 0.3916 0.4544
H30? H 1.3326 0.3099 0.4761
H56? H 0.9287 0.3584 0.3213
H57? H 0.7794 0.3438 0.2943
C38? C 0.7668(7) 0.3329(4) 0.3660(2)
H66? H 0.7740 0.4027 0.3801
H67? H 0.8200 0.3122 0.3893
C39? C 0.5185(10) 0.3097(6) 0.3403(4)
H68? H 0.4221 0.2684 0.3379
H69? H 0.5460 0.3141 0.3071
H70? H 0.5241 0.3749 0.3614
C40? C 0.5802(12) 0.2739(7) 0.4173(3)
H71? H 0.6462 0.2453 0.4302
H72? H 0.4839 0.2366 0.4198
H73? H 0.5951 0.3414 0.4368
H120? H 0.5640 -0.3250 0.1480
H121? H 0.5216 -0.3401 0.2013
C75? C 0.3830(7) -0.2964(5) 0.1674(2)
H130? H 0.3403 -0.2761 0.1990
H131? H 0.3288 -0.3639 0.1507
C76? C 0.4032(10) -0.2579(7) 0.0844(3)
H132? H 0.5040 -0.2519 0.0846
H133? H 0.3807 -0.2158 0.0653
H134? H 0.3509 -0.3255 0.0690
C77? C 0.2038(11) -0.2337(9) 0.1354(4)
H135? H 0.1822 -0.2116 0.1700
H136? H 0.1470 -0.3007 0.1211
H137? H 0.1826 -0.1915 0.1162
loop_
_geom_bond_atom_site_label_1
_geom_bond_atom_site_label_2
_geom_bond_site_symmetry_1
_geom_bond_site_symmetry_2
Ca1 N1 1_555 1_555
Ca2 O2 1_555 1_555
N1 C1 1_555 1_555
C1 H1 1_555 1_555
H2 C1 1_555 1_555
C2 C1 1_555 1_555
C3 C2 1_555 1_555
O1 Ca1 1_555 1_555
C4 C3 1_555 1_555
C5 C4 1_555 1_555
C6 C5 1_555 1_555
H3 C6 1_555 1_555
H4 C6 1_555 1_555
H5 C6 1_555 1_555
C7 C5 1_555 1_555
H6 C7 1_555 1_555
H7 C7 1_555 1_555
H8 C7 1_555 1_555
C8 C5 1_555 1_555
H9 C8 1_555 1_555
H10 C8 1_555 1_555
H11 C8 1_555 1_555
C9 C4 1_555 1_555
H12 C9 1_555 1_555
C10 C9 1_555 1_555
C11 C10 1_555 1_555
C12 C11 1_555 1_555
H13 C12 1_555 1_555
H14 C12 1_555 1_555
H15 C12 1_555 1_555
C13 C11 1_555 1_555
H16 C13 1_555 1_555
H17 C13 1_555 1_555
H18 C13 1_555 1_555
C14 C11 1_555 1_555
H19 C14 1_555 1_555
H20 C14 1_555 1_555
H21 C14 1_555 1_555
C18 C2 1_555 1_555
H31 C18 1_555 1_555
C19 N1 1_555 1_555
H32 C19 1_555 1_555
H33 C19 1_555 1_555
C20 C19 1_555 1_555
C21 C20 1_555 1_555
O2 Ca1 1_555 1_555
C22 C21 1_555 1_555
C23 C22 1_555 1_555
C24 C23 1_555 1_555
H34 C24 1_555 1_555
H35 C24 1_555 1_555
H36 C24 1_555 1_555
C25 C23 1_555 1_555
H37 C25 1_555 1_555
H38 Ca2 1_555 1_555
H39 C25 1_555 1_555
C26 C23 1_555 1_555
H40 C26 1_555 1_555
H41 C26 1_555 1_555
H42 C26 1_555 1_555
C27 C22 1_555 1_555
H43 C27 1_555 1_555
C28 C27 1_555 1_555
C29 C28 1_555 1_555
C30 C29 1_555 1_555
H44 C30 1_555 1_555
H45 C30 1_555 1_555
H46 C30 1_555 1_555
C31 C29 1_555 1_555
H47 C31 1_555 1_555
H48 C31 1_555 1_555
H49 C31 1_555 1_555
C32 C29 1_555 1_555
H50 C32 1_555 1_555
H51 C32 1_555 1_555
H52 C32 1_555 1_555
C33 C20 1_555 1_555
H53 C33 1_555 1_555
C34 N1 1_555 1_555
H54 C34 1_555 1_555
H55 C34 1_555 1_555
C35 C34 1_555 1_555
H58 C35 1_555 1_555
H59 C35 1_555 1_555
N2 Ca1 1_555 1_555
C36 N2 1_555 1_555
H60 C36 1_555 1_555
H61 C36 1_555 1_555
H62 C36 1_555 1_555
C37 N2 1_555 1_555
H63 C37 1_555 1_555
H64 C37 1_555 1_555
H65 C37 1_555 1_555
N3 Ca2 1_555 1_555
C41 N3 1_555 1_555
H74 C41 1_555 1_555
H75 C41 1_555 1_555
C42 C41 1_555 1_555
C43 C42 1_555 1_555
O3 Ca2 1_555 1_555
C44 C43 1_555 1_555
C45 C44 1_555 1_555
C46 C45 1_555 1_555
H76 C46 1_555 1_555
H77 C46 1_555 1_555
H78 C46 1_555 1_555
C47 C45 1_555 1_555
H79 C47 1_555 1_555
H80 C47 1_555 1_555
H81 C47 1_555 1_555
C48 C45 1_555 1_555
H82 C48 1_555 1_555
H83 C48 1_555 1_555
H84 C48 1_555 1_555
C49 C44 1_555 1_555
H85 C49 1_555 1_555
C50 C49 1_555 1_555
C51 C50 1_555 1_555
C52 C51 1_555 1_555
H86 C52 1_555 1_555
H87 C52 1_555 1_555
H88 C52 1_555 1_555
C53 C51 1_555 1_555
H89 C53 1_555 1_555
H90 C53 1_555 1_555
H91 C53 1_555 1_555
C54 C51 1_555 1_555
H92 C54 1_555 1_555
H93 C54 1_555 1_555
H94 C54 1_555 1_555
C55 C42 1_555 1_555
H95 C55 1_555 1_555
C56 N3 1_555 1_555
H96 C56 1_555 1_555
H97 C56 1_555 1_555
C57 C56 1_555 1_555
C58 C57 1_555 1_555
O4 Ca1 1_555 1_555
C59 C58 1_555 1_555
C60 C59 1_555 1_555
C61 C60 1_555 1_555
H98 C61 1_555 1_555
H99 C61 1_555 1_555
H100 C61 1_555 1_555
C62 C60 1_555 1_555
H101 C62 1_555 1_555
H102 Ca1 1_555 1_555
H103 C62 1_555 1_555
C63 C60 1_555 1_555
H104 C63 1_555 1_555
H105 C63 1_555 1_555
H106 C63 1_555 1_555
C64 C59 1_555 1_555
H107 C64 1_555 1_555
C65 C64 1_555 1_555
C66 C65 1_555 1_555
C67 C66 1_555 1_555
H108 C67 1_555 1_555
H109 C67 1_555 1_555
H110 C67 1_555 1_555
C68 C66 1_555 1_555
H111 C68 1_555 1_555
H112 C68 1_555 1_555
H113 C68 1_555 1_555
C69 C66 1_555 1_555
H114 C69 1_555 1_555
H115 C69 1_555 1_555
H116 C69 1_555 1_555
C70 C57 1_555 1_555
H117 C70 1_555 1_555
C71 N3 1_555 1_555
H118 C71 1_555 1_555
H119 C71 1_555 1_555
C72 C71 1_555 1_555
H122 C72 1_555 1_555
H123 C72 1_555 1_555
N4 Ca2 1_555 1_555
C73 N4 1_555 1_555
H124 C73 1_555 1_555
H125 C73 1_555 1_555
H126 C73 1_555 1_555
C74 N4 1_555 1_555
H127 C74 1_555 1_555
H128 C74 1_555 1_555
H129 C74 1_555 1_555
C78 H138 1_555 1_555
H139 C78 1_555 1_555
H140 C78 1_555 1_555
C79 C78 1_555 1_555
H141 C79 1_555 1_555
H142 C79 1_555 1_555
O5 C79 1_555 1_555
C80 O5 1_555 1_555
H143 C80 1_555 1_555
H144 C80 1_555 1_555
C81 C80 1_555 1_555
H145 C81 1_555 1_555
H146 C81 1_555 1_555
H147 C81 1_555 1_555
Ca2 O4 1_555 1_555
C3 O1 1_555 1_555
C10 C18 1_555 1_555
C21 O2 1_555 1_555
C25 H38 1_555 1_555
C28 C33 1_555 1_555
C35 N2 1_555 1_555
C43 O3 1_555 1_555
C50 C55 1_555 1_555
C58 O4 1_555 1_555
C62 H102 1_555 1_555
C65 C70 1_555 1_555
C72 N4 1_555 1_555

#END
