
#######################################################################
#
#                 Cambridge Crystallographic Data Centre
#                                CCDC 
#
#######################################################################
#
# If this CIF has been generated from an entry in the Cambridge 
# Structural Database, then it will include bibliographic, chemical, 
# crystal, experimental, refinement or atomic coordinate data resulting 
# from the CCDC's data processing and validation procedures.
#
#######################################################################

data_TECHAM
_chemical_formula_moiety         'C11 H8 Cl1 I1 O2'
_chemical_name_systematic        
3-Chloro-4-iodo-5-methyl-5-phenylfuran-2(5H)-one
_symmetry_cell_setting           monoclinic
_symmetry_space_group_name_H-M   'P 21/n'
_symmetry_Int_Tables_number      14
_space_group_name_Hall           '-P 2yn'
loop_
_symmetry_equiv_pos_site_id
_symmetry_equiv_pos_as_xyz
1 x,y,z
2 1/2-x,1/2+y,1/2-z
3 -x,-y,-z
4 1/2+x,1/2-y,1/2+z
_cell_length_a                   6.603(2)
_cell_length_b                   8.184(3)
_cell_length_c                   22.615(8)
_cell_angle_alpha                90
_cell_angle_beta                 97.885(3)
_cell_angle_gamma                90
_cell_volume                     1210.54
_exptl_crystal_colour            colorless
_exptl_crystal_description       block
_cell_formula_units_Z            4
loop_
_atom_site_label
_atom_site_type_symbol
_atom_site_fract_x
_atom_site_fract_y
_atom_site_fract_z
C1 C 0.4289(8) 0.8109(7) 0.0820(2)
C2 C 0.3254(8) 0.7039(6) 0.0470(2)
O1 O 0.3416(8) 0.4100(5) 0.0414(2)
C3 C 0.5865(9) 0.7258(7) 0.1255(2)
C4 C 0.5460(9) 0.7408(7) 0.1898(2)
C5 C 0.6745(13) 0.8210(9) 0.2325(3)
H1 H 0.7915 0.8711 0.2224
C6 C 0.6322(16) 0.8287(11) 0.2909(4)
H2 H 0.7208 0.8843 0.3196
C7 C 0.4641(16) 0.7563(11) 0.3065(3)
H3 H 0.4374 0.7613 0.3458
C8 C 0.3343(13) 0.6762(12) 0.2649(3)
H4 H 0.2182 0.6258 0.2754
C9 C 0.3750(11) 0.6698(10) 0.2067(3)
H5 H 0.2840 0.6157 0.1782
C10 C 0.8010(10) 0.7684(10) 0.1140(3)
H6 H 0.8982 0.7044 0.1396
H7 H 0.8262 0.8823 0.1219
H8 H 0.8144 0.7453 0.0731
Cl1 Cl 0.1312(2) 0.7341(2) -0.01061(7)
I1 I 0.39626(7) 1.06177(4) 0.079170(17)
C11 C 0.3990(9) 0.5377(7) 0.0627(3)
O2 O 0.5513(6) 0.5542(5) 0.10788(18)
loop_
_geom_bond_atom_site_label_1
_geom_bond_atom_site_label_2
_geom_bond_site_symmetry_1
_geom_bond_site_symmetry_2
C1 C2 1_555 1_555
C2 Cl1 1_555 1_555
O1 C11 1_555 1_555
C3 C1 1_555 1_555
C4 C3 1_555 1_555
C5 C4 1_555 1_555
H1 C5 1_555 1_555
C6 C5 1_555 1_555
H2 C6 1_555 1_555
C7 C6 1_555 1_555
H3 C7 1_555 1_555
C8 C7 1_555 1_555
H4 C8 1_555 1_555
C9 C4 1_555 1_555
H5 C9 1_555 1_555
C10 C3 1_555 1_555
H6 C10 1_555 1_555
H7 C10 1_555 1_555
H8 C10 1_555 1_555
I1 C1 1_555 1_555
C11 C2 1_555 1_555
O2 C3 1_555 1_555
C8 C9 1_555 1_555
C11 O2 1_555 1_555

#END
