
#######################################################################
#
#                 Cambridge Crystallographic Data Centre
#                                CCDC 
#
#######################################################################
#
# If this CIF has been generated from an entry in the Cambridge 
# Structural Database, then it will include bibliographic, chemical, 
# crystal, experimental, refinement or atomic coordinate data resulting 
# from the CCDC's data processing and validation procedures.
#
#######################################################################

data_TECHUH
_chemical_formula_moiety         'C20 H18 F3 N1 O3 S1'
_chemical_name_systematic        
'methyl 5,6-dimethyl-3-[(4-methylphenyl)sulfanyl]-2-oxo-3-(trifluoromethyl)-2,3-dihydro-1H-indole-1-carboxylate'
_symmetry_cell_setting           triclinic
_symmetry_space_group_name_H-M   'P -1'
_symmetry_Int_Tables_number      2
_space_group_name_Hall           '-P 1'
loop_
_symmetry_equiv_pos_site_id
_symmetry_equiv_pos_as_xyz
1 x,y,z
2 -x,-y,-z
_cell_length_a                   9.9173(15)
_cell_length_b                   10.1763(16)
_cell_length_c                   11.1110(18)
_cell_angle_alpha                109.086(3)
_cell_angle_beta                 111.743(3)
_cell_angle_gamma                94.086(3)
_cell_volume                     960.373
_exptl_crystal_colour            colorless
_exptl_crystal_description       prismatic
_cell_formula_units_Z            2
loop_
_atom_site_label
_atom_site_type_symbol
_atom_site_fract_x
_atom_site_fract_y
_atom_site_fract_z
S1 S 0.51538(6) 0.28927(6) 0.38646(6)
F1 F 0.22569(15) 0.13487(14) 0.13332(17)
F2 F 0.27018(16) 0.19140(16) -0.01887(15)
F3 F 0.39676(15) 0.06310(13) 0.07563(16)
N1 N 0.45915(17) 0.54630(16) 0.23094(17)
O1 O 0.26220(15) 0.43826(15) 0.25688(17)
O2 O 0.31966(17) 0.70397(15) 0.27587(18)
O3 O 0.5303(2) 0.77779(18) 0.2687(3)
C1 C 0.57548(19) 0.49686(19) 0.19527(19)
C2 C 0.6836(2) 0.5690(2) 0.1761(2)
H1 H 0.6876 0.6638 0.1865
C3 C 0.7865(2) 0.4984(2) 0.1412(2)
C4 C 0.7774(2) 0.3550(2) 0.1201(2)
C5 C 0.6646(2) 0.2840(2) 0.1366(2)
H2 H 0.6554 0.1875 0.1202
C6 C 0.56654(19) 0.35517(19) 0.17693(19)
C7 C 0.4457(2) 0.30734(19) 0.2132(2)
C8 C 0.3714(2) 0.4348(2) 0.2365(2)
C9 C 0.4419(2) 0.6868(2) 0.2598(2)
C10 C 0.2975(3) 0.8472(2) 0.3120(3)
H3 H 0.3780 0.9081 0.3990
H4 H 0.2053 0.8492 0.3218
H5 H 0.2942 0.8801 0.2395
C11 C 0.3342(2) 0.1740(2) 0.1015(2)
C12 C 0.6884(2) 0.2444(2) 0.4042(2)
C13 C 0.8165(2) 0.3499(2) 0.4802(2)
H6 H 0.8115 0.4429 0.5255
C14 C 0.9514(3) 0.3185(3) 0.4896(3)
H7 H 1.0368 0.3910 0.5413
C15 C 0.9636(3) 0.1830(3) 0.4247(3)
C16 C 0.8356(3) 0.0764(3) 0.3543(3)
H8 H 0.8418 -0.0172 0.3130
C17 C 0.6991(3) 0.1057(2) 0.3442(3)
H9 H 0.6146 0.0323 0.2971
C18 C 1.1104(4) 0.1511(5) 0.4266(4)
H10 H 1.1131 0.0557 0.4224
H11 H 1.1900 0.2171 0.5113
H12 H 1.1213 0.1603 0.3472
C19 C 0.9085(3) 0.5801(3) 0.1267(3)
H13 H 1.0028 0.5650 0.1806
H14 H 0.9087 0.6799 0.1605
H15 H 0.8917 0.5475 0.0299
C20 C 0.8890(3) 0.2761(3) 0.0848(3)
H16 H 0.8919 0.2833 0.0018
H17 H 0.8606 0.1777 0.0690
H18 H 0.9856 0.3171 0.1613
loop_
_geom_bond_atom_site_label_1
_geom_bond_atom_site_label_2
_geom_bond_site_symmetry_1
_geom_bond_site_symmetry_2
S1 C7 1_555 1_555
F1 C11 1_555 1_555
F2 C11 1_555 1_555
F3 C11 1_555 1_555
N1 C1 1_555 1_555
O1 C8 1_555 1_555
O2 C9 1_555 1_555
O3 C9 1_555 1_555
C1 C2 1_555 1_555
C2 H1 1_555 1_555
C3 C2 1_555 1_555
C4 C3 1_555 1_555
C5 C4 1_555 1_555
H2 C5 1_555 1_555
C6 C1 1_555 1_555
C7 C6 1_555 1_555
C8 N1 1_555 1_555
C9 N1 1_555 1_555
C10 O2 1_555 1_555
H3 C10 1_555 1_555
H4 C10 1_555 1_555
H5 C10 1_555 1_555
C11 C7 1_555 1_555
C12 S1 1_555 1_555
C13 C12 1_555 1_555
H6 C13 1_555 1_555
C14 C13 1_555 1_555
H7 C14 1_555 1_555
C15 C14 1_555 1_555
C16 C15 1_555 1_555
H8 C16 1_555 1_555
C17 C12 1_555 1_555
H9 C17 1_555 1_555
C18 C15 1_555 1_555
H10 C18 1_555 1_555
H11 C18 1_555 1_555
H12 C18 1_555 1_555
C19 C3 1_555 1_555
H13 C19 1_555 1_555
H14 C19 1_555 1_555
H15 C19 1_555 1_555
C20 C4 1_555 1_555
H16 C20 1_555 1_555
H17 C20 1_555 1_555
H18 C20 1_555 1_555
C5 C6 1_555 1_555
C7 C8 1_555 1_555
C16 C17 1_555 1_555

#END
