
#######################################################################
#
#                 Cambridge Crystallographic Data Centre
#                                CCDC 
#
#######################################################################
#
# If this CIF has been generated from an entry in the Cambridge 
# Structural Database, then it will include bibliographic, chemical, 
# crystal, experimental, refinement or atomic coordinate data resulting 
# from the CCDC's data processing and validation procedures.
#
#######################################################################

data_TECKUI
_chemical_formula_moiety         'C18 H22 O4'
_chemical_name_systematic        1,4-bis(3-Hydroxymethylphenoxy)butane
_symmetry_cell_setting           monoclinic
_symmetry_space_group_name_H-M   'P 21/c'
_symmetry_Int_Tables_number      14
_space_group_name_Hall           '-P 2ybc'
loop_
_symmetry_equiv_pos_site_id
_symmetry_equiv_pos_as_xyz
1 x,y,z
2 -x,1/2+y,1/2-z
3 -x,-y,-z
4 x,1/2-y,1/2+z
_cell_length_a                   13.920(3)
_cell_length_b                   4.8454(9)
_cell_length_c                   12.846(2)
_cell_angle_alpha                90
_cell_angle_beta                 112.347(3)
_cell_angle_gamma                90
_cell_volume                     801.366
_exptl_crystal_colour            yellow
_exptl_crystal_description       plate
_cell_formula_units_Z            2
_exptl_crystal_recrystallization_method 'ethyl acetate/ethanol'
loop_
_atom_site_label
_atom_site_type_symbol
_atom_site_fract_x
_atom_site_fract_y
_atom_site_fract_z
O1 O 0.04488(11) 0.1743(3) 0.74273(12)
H1 H 0.0189 0.3263 0.7424
O2 O 0.34849(11) 0.7874(3) 0.83695(13)
C1 C 0.06902(15) 0.1469(4) 0.64648(16)
H2 H 0.0064 0.1730 0.5799
H3 H 0.0942 -0.0386 0.6439
C2 C 0.14960(14) 0.3507(4) 0.64470(15)
C3 C 0.15953(17) 0.4052(5) 0.54322(18)
H4 H 0.1160 0.3179 0.4778
C4 C 0.23370(19) 0.5883(5) 0.5391(2)
H5 H 0.2400 0.6229 0.4708
C5 C 0.29906(17) 0.7215(5) 0.6354(2)
H6 H 0.3489 0.8451 0.6320
C6 C 0.28940(15) 0.6685(4) 0.73643(18)
C7 C 0.21476(14) 0.4821(4) 0.74099(16)
H7 H 0.2089 0.4460 0.8094
C8 C 0.42522(17) 0.9875(5) 0.8385(2)
H8 H 0.3934 1.1326 0.7843
H9 H 0.4790 0.9005 0.8192
C9 C 0.47083(17) 1.1051(4) 0.9548(2)
H10 H 0.4154 1.1848 0.9733
H11 H 0.5181 1.2530 0.9557
O1B O 0.95512(11) 1.8257(3) 1.25727(12)
H1B H 0.9811 1.6737 1.2576
O2B O 0.65151(11) 1.2126(3) 1.16305(13)
C1B C 0.93098(15) 1.8531(4) 1.35352(16)
H2B H 0.9936 1.8270 1.4201
H3B H 0.9058 2.0386 1.3561
C2B C 0.85040(14) 1.6493(4) 1.35530(15)
C3B C 0.84047(17) 1.5948(5) 1.45678(18)
H4B H 0.8840 1.6821 1.5222
C4B C 0.76630(19) 1.4117(5) 1.4609(2)
H5B H 0.7600 1.3771 1.5292
C5B C 0.70094(17) 1.2785(5) 1.3646(2)
H6B H 0.6511 1.1549 1.3680
C6B C 0.71060(15) 1.3315(4) 1.26357(18)
C7B C 0.78524(14) 1.5179(4) 1.25901(16)
H7B H 0.7911 1.5540 1.1906
C8B C 0.57478(17) 1.0125(5) 1.1615(2)
H8B H 0.6066 0.8674 1.2157
H9B H 0.5210 1.0995 1.1808
C9B C 0.52917(17) 0.8949(4) 1.0452(2)
H10B H 0.5846 0.8152 1.0267
H11B H 0.4819 0.7470 1.0443
loop_
_geom_bond_atom_site_label_1
_geom_bond_atom_site_label_2
_geom_bond_site_symmetry_1
_geom_bond_site_symmetry_2
O1 H1 1_555 1_555
O2 C6 1_555 1_555
C1 O1 1_555 1_555
H2 C1 1_555 1_555
H3 C1 1_555 1_555
C2 C1 1_555 1_555
C3 C2 1_555 1_555
H4 C3 1_555 1_555
C4 C3 1_555 1_555
H5 C4 1_555 1_555
C5 C4 1_555 1_555
H6 C5 1_555 1_555
C6 C5 1_555 1_555
C7 C2 1_555 1_555
H7 C7 1_555 1_555
C8 O2 1_555 1_555
H8 C8 1_555 1_555
H9 C8 1_555 1_555
C9 C8 1_555 1_555
H10 C9 1_555 1_555
H11 C9 1_555 1_555
O1B H1B 1_555 1_555
O2B C6B 1_555 1_555
C1B O1B 1_555 1_555
H2B C1B 1_555 1_555
H3B C1B 1_555 1_555
C2B C1B 1_555 1_555
C3B C2B 1_555 1_555
H4B C3B 1_555 1_555
C4B C3B 1_555 1_555
H5B C4B 1_555 1_555
C5B C4B 1_555 1_555
H6B C5B 1_555 1_555
C6B C5B 1_555 1_555
C7B C2B 1_555 1_555
H7B C7B 1_555 1_555
C8B O2B 1_555 1_555
H8B C8B 1_555 1_555
H9B C8B 1_555 1_555
C9B C9 1_555 1_555
H10B C9B 1_555 1_555
H11B C9B 1_555 1_555
C6 C7 1_555 1_555
C6B C7B 1_555 1_555
C8B C9B 1_555 1_555

#END
