
#######################################################################
#
#                 Cambridge Crystallographic Data Centre
#                                CCDC 
#
#######################################################################
#
# If this CIF has been generated from an entry in the Cambridge 
# Structural Database, then it will include bibliographic, chemical, 
# crystal, experimental, refinement or atomic coordinate data resulting 
# from the CCDC's data processing and validation procedures.
#
#######################################################################

data_TECMAP01
_chemical_formula_moiety         'C22 H15 N1 O2'
_chemical_name_systematic        
12,24-dioxa-25-azahexacyclo[11.11.1.0^2,11^.0^3,8^.0^14,23^.0^15,20^]pentacosa-2,4,6,8,10,14,16,18,20,22-decaene
_symmetry_cell_setting           monoclinic
_symmetry_space_group_name_H-M   'P 21/c'
_symmetry_Int_Tables_number      14
_space_group_name_Hall           '-P 2ybc'
loop_
_symmetry_equiv_pos_site_id
_symmetry_equiv_pos_as_xyz
1 x,y,z
2 -x,1/2+y,1/2-z
3 -x,-y,-z
4 x,1/2-y,1/2+z
_cell_length_a                   9.795(5)
_cell_length_b                   22.599(5)
_cell_length_c                   7.252(5)
_cell_angle_alpha                90
_cell_angle_beta                 105.001(5)
_cell_angle_gamma                90
_cell_volume                     1550.58
_exptl_crystal_colour            white
_exptl_crystal_description       rectangular
_chemical_melting_point          '517.6 K'
_cell_formula_units_Z            4
loop_
_atom_site_label
_atom_site_type_symbol
_atom_site_fract_x
_atom_site_fract_y
_atom_site_fract_z
O1 O 1.04065(11) 0.15459(5) 0.17095(14)
C1 C 0.84136(14) 0.06788(6) 0.3378(2)
O2 O 1.07054(11) 0.16946(5) 0.68440(14)
C2 C 1.36367(16) 0.17668(6) 0.5632(2)
C3 C 0.92579(15) 0.11836(6) 0.4105(2)
N1 N 0.98074(14) 0.22040(6) 0.3994(2)
C4 C 1.46486(16) 0.15412(7) 0.4722(2)
C5 C 1.10882(16) 0.20661(7) 0.5430(2)
H1 H 1.1487 0.2436 0.6048
C6 C 1.27968(17) 0.13366(7) 0.1865(2)
H2 H 1.2513 0.1199 0.0615
C7 C 1.21807(15) 0.17735(6) 0.4607(2)
C8 C 1.41262(18) 0.19804(7) 0.7520(2)
H3 H 1.3479 0.2120 0.8154
C9 C 1.65282(19) 0.17712(8) 0.7523(3)
H4 H 1.7485 0.1780 0.8149
C10 C 0.81627(16) 0.02468(7) 0.4675(2)
C11 C 0.98629(15) 0.12250(7) 0.6038(2)
C12 C 0.72726(18) -0.02379(7) 0.3971(3)
H5 H 0.7092 -0.0517 0.4820
C13 C 0.88001(17) 0.03210(7) 0.6656(2)
H6 H 0.8641 0.0039 0.7511
C14 C 0.94021(16) 0.16926(7) 0.2826(2)
H7 H 0.8477 0.1768 0.1941
C15 C 0.77820(17) 0.05921(7) 0.1406(2)
H8 H 0.7947 0.0864 0.0526
C16 C 0.69351(18) 0.01144(8) 0.0779(3)
H9 H 0.6528 0.0066 -0.0521
C17 C 0.66733(19) -0.03025(8) 0.2065(3)
H10 H 0.6090 -0.0625 0.1621
C18 C 0.96348(16) 0.07927(7) 0.7328(2)
H11 H 1.0053 0.0831 0.8629
C19 C 1.17840(15) 0.15547(6) 0.2774(2)
C20 C 1.5533(2) 0.19852(8) 0.8429(3)
H12 H 1.5832 0.2133 0.9665
C21 C 1.41806(18) 0.13292(8) 0.2819(2)
H13 H 1.4839 0.1182 0.2215
C22 C 1.60939(18) 0.15493(8) 0.5718(3)
H14 H 1.6761 0.1401 0.5131
H15 H 0.989(2) 0.2524(9) 0.338(3)
loop_
_geom_bond_atom_site_label_1
_geom_bond_atom_site_label_2
_geom_bond_site_symmetry_1
_geom_bond_site_symmetry_2
O1 C14 1_555 1_555
C1 C3 1_555 1_555
O2 C5 1_555 1_555
C2 C4 1_555 1_555
C3 C11 1_555 1_555
N1 C5 1_555 1_555
C4 C21 1_555 1_555
C5 H1 1_555 1_555
C6 H2 1_555 1_555
C7 C2 1_555 1_555
C8 C2 1_555 1_555
H3 C8 1_555 1_555
C9 H4 1_555 1_555
C10 C1 1_555 1_555
C11 O2 1_555 1_555
C12 C10 1_555 1_555
H5 C12 1_555 1_555
C13 C10 1_555 1_555
H6 C13 1_555 1_555
C14 C3 1_555 1_555
H7 C14 1_555 1_555
C15 C1 1_555 1_555
H8 C15 1_555 1_555
C16 C15 1_555 1_555
H9 C16 1_555 1_555
C17 C12 1_555 1_555
H10 C17 1_555 1_555
C18 C11 1_555 1_555
H11 C18 1_555 1_555
C19 O1 1_555 1_555
C20 C8 1_555 1_555
H12 C20 1_555 1_555
C21 C6 1_555 1_555
H13 C21 1_555 1_555
C22 C4 1_555 1_555
H14 C22 1_555 1_555
H15 N1 1_555 1_555
N1 C14 1_555 1_555
C5 C7 1_555 1_555
C6 C19 1_555 1_555
C7 C19 1_555 1_555
C9 C20 1_555 1_555
C9 C22 1_555 1_555
C13 C18 1_555 1_555
C16 C17 1_555 1_555

#END
