
#######################################################################
#
#                 Cambridge Crystallographic Data Centre
#                                CCDC 
#
#######################################################################
#
# If this CIF has been generated from an entry in the Cambridge 
# Structural Database, then it will include bibliographic, chemical, 
# crystal, experimental, refinement or atomic coordinate data resulting 
# from the CCDC's data processing and validation procedures.
#
#######################################################################

data_TECMAQ
_chemical_formula_moiety         'C25 H28 F1 N1 O4'
_chemical_name_systematic        
'4-Cyano-3-fluorophenyl (2E)-3-(3-methoxy-4-octyloxyphenyl)acrylate'
_symmetry_cell_setting           triclinic
_symmetry_space_group_name_H-M   'P -1'
_symmetry_Int_Tables_number      2
_space_group_name_Hall           '-P 1'
loop_
_symmetry_equiv_pos_site_id
_symmetry_equiv_pos_as_xyz
1 x,y,z
2 -x,-y,-z
_cell_length_a                   7.873(4)
_cell_length_b                   11.279(6)
_cell_length_c                   14.048(7)
_cell_angle_alpha                81.016(11)
_cell_angle_beta                 80.419(10)
_cell_angle_gamma                74.950(10)
_cell_volume                     1179.48
_exptl_crystal_colour            colorless
_exptl_crystal_description       prism
_cell_formula_units_Z            2
_exptl_crystal_recrystallization_method THF/ethanol
loop_
_atom_site_label
_atom_site_type_symbol
_atom_site_fract_x
_atom_site_fract_y
_atom_site_fract_z
F1 F 1.3202(4) 0.0716(3) -0.0143(3)
O1 O 0.9005(2) -0.0064(2) 0.25491(14)
O2 O 1.1027(3) -0.0455(2) 0.35565(14)
O3 O 0.0383(2) 0.32809(18) 0.62596(13)
O4 O 0.3270(2) 0.23669(18) 0.70227(13)
N1 N 1.4609(5) -0.1779(4) -0.1401(2)
C1 C 1.3688(5) -0.1532(4) -0.0711(2)
C2 C 1.2547(4) -0.1185(4) 0.0161(2)
C3 C 1.2366(4) -0.0053(4) 0.0450(2)
C4 C 1.1257(4) 0.0315(3) 0.1260(3)
H2 H 1.1166 0.1083 0.1454
C5 C 1.0272(4) -0.0475(3) 0.1786(2)
C6 C 1.0417(4) -0.1611(3) 0.1532(2)
H3 H 0.9768 -0.2143 0.1901
C7 C 1.1549(5) -0.1955(4) 0.0713(2)
H4 H 1.1654 -0.2723 0.0514
C8 C 0.9521(4) -0.0033(3) 0.34181(19)
C9 C 0.8059(3) 0.0517(3) 0.41088(19)
H5 H 0.8272 0.0520 0.4740
C10 C 0.6432(3) 0.1018(2) 0.38867(19)
H6 H 0.6272 0.1002 0.3248
C11 C 0.4869(3) 0.1588(2) 0.45123(18)
C12 C 0.4896(3) 0.1689(2) 0.54954(18)
H7 H 0.5947 0.1379 0.5766
C13 C 0.3384(3) 0.2240(2) 0.60570(18)
C14 C 0.1793(3) 0.2735(2) 0.56482(19)
C15 C 0.1761(3) 0.2620(3) 0.4693(2)
H8 H 0.0710 0.2925 0.4421
C16 C 0.3285(3) 0.2052(3) 0.4134(2)
H9 H 0.3243 0.1980 0.3489
C17 C -0.1286(3) 0.3756(3) 0.5886(2)
H10 H -0.1675 0.3089 0.5695
H11 H -0.1164 0.4358 0.5321
C18 C -0.2605(3) 0.4349(3) 0.6671(2)
H12 H -0.2193 0.5006 0.6860
H13 H -0.2697 0.3741 0.7235
C19 C -0.4427(3) 0.4879(3) 0.6347(2)
H14 H -0.4350 0.5536 0.5818
H15 H -0.4786 0.4237 0.6100
C20 C -0.5832(4) 0.5386(3) 0.7156(2)
H16 H -0.5917 0.4730 0.7684
H17 H -0.5475 0.6028 0.7404
C21 C -0.7641(4) 0.5917(3) 0.6821(2)
H18 H -0.7541 0.6562 0.6285
H19 H -0.7991 0.5270 0.6576
C22 C -0.9084(4) 0.6447(4) 0.7595(3)
H20 H -1.0110 0.6920 0.7290
H21 H -0.8671 0.7011 0.7905
C23 C -0.9646(6) 0.5472(5) 0.8368(3)
H22 H -0.9779 0.4802 0.8052
H23 H -0.8709 0.5136 0.8775
C24 C -1.1334(6) 0.5939(5) 0.8999(4)
H24 H -1.1613 0.5274 0.9464
H25 H -1.2275 0.6263 0.8605
H26 H -1.1201 0.6581 0.9336
C25 C 0.4729(4) 0.1706(3) 0.7514(2)
H27 H 0.4497 0.1875 0.8178
H28 H 0.5780 0.1960 0.7202
H29 H 0.4898 0.0836 0.7494
F2? F 1.1580(12) -0.2940(8) 0.0364(6)
H1? H 1.3025 0.0490 0.0094
loop_
_geom_bond_atom_site_label_1
_geom_bond_atom_site_label_2
_geom_bond_site_symmetry_1
_geom_bond_site_symmetry_2
F1 C3 1_555 1_555
O1 C5 1_555 1_555
O2 C8 1_555 1_555
O3 C14 1_555 1_555
O4 C13 1_555 1_555
N1 C1 1_555 1_555
C1 C2 1_555 1_555
C2 C3 1_555 1_555
C3 C4 1_555 1_555
C4 H2 1_555 1_555
C5 C4 1_555 1_555
C6 C5 1_555 1_555
H3 C6 1_555 1_555
C7 C2 1_555 1_555
H4 C7 1_555 1_555
C8 O1 1_555 1_555
C9 C8 1_555 1_555
H5 C9 1_555 1_555
C10 C9 1_555 1_555
H6 C10 1_555 1_555
C11 C10 1_555 1_555
C12 C11 1_555 1_555
H7 C12 1_555 1_555
C13 C12 1_555 1_555
C14 C13 1_555 1_555
C15 C14 1_555 1_555
H8 C15 1_555 1_555
C16 C11 1_555 1_555
H9 C16 1_555 1_555
C17 O3 1_555 1_555
H10 C17 1_555 1_555
H11 C17 1_555 1_555
C18 C17 1_555 1_555
H12 C18 1_555 1_555
H13 C18 1_555 1_555
C19 C18 1_555 1_555
H14 C19 1_555 1_555
H15 C19 1_555 1_555
C20 C19 1_555 1_555
H16 C20 1_555 1_555
H17 C20 1_555 1_555
C21 C20 1_555 1_555
H18 C21 1_555 1_555
H19 C21 1_555 1_555
C22 C21 1_555 1_555
H20 C22 1_555 1_555
H21 C22 1_555 1_555
C23 C22 1_555 1_555
H22 C23 1_555 1_555
H23 C23 1_555 1_555
C24 C23 1_555 1_555
H24 C24 1_555 1_555
H25 C24 1_555 1_555
H26 C24 1_555 1_555
C25 O4 1_555 1_555
H27 C25 1_555 1_555
H28 C25 1_555 1_555
H29 C25 1_555 1_555
C6 C7 1_555 1_555
C15 C16 1_555 1_555

#END
