
#######################################################################
#
#                 Cambridge Crystallographic Data Centre
#                                CCDC 
#
#######################################################################
#
# If this CIF has been generated from an entry in the Cambridge 
# Structural Database, then it will include bibliographic, chemical, 
# crystal, experimental, refinement or atomic coordinate data resulting 
# from the CCDC's data processing and validation procedures.
#
#######################################################################

data_TECNAR
_chemical_formula_moiety         'C27 H24'
_chemical_name_systematic        1,3,5-tris(4-Methylphenyl)benzene
_symmetry_cell_setting           monoclinic
_symmetry_space_group_name_H-M   'P 21/c'
_symmetry_Int_Tables_number      14
_space_group_name_Hall           '-P 2ybc'
loop_
_symmetry_equiv_pos_site_id
_symmetry_equiv_pos_as_xyz
1 x,y,z
2 -x,1/2+y,1/2-z
3 -x,-y,-z
4 x,1/2-y,1/2+z
_cell_length_a                   13.1640(6)
_cell_length_b                   15.2531(9)
_cell_length_c                   20.5554(11)
_cell_angle_alpha                90
_cell_angle_beta                 97.3083(17)
_cell_angle_gamma                90
_cell_volume                     4093.83
_exptl_crystal_colour            yellow
_exptl_crystal_description       prism
_cell_formula_units_Z            8
loop_
_atom_site_label
_atom_site_type_symbol
_atom_site_fract_x
_atom_site_fract_y
_atom_site_fract_z
C1 C 0.37360(15) 0.45760(13) 0.19232(10)
C2 C 0.43648(15) 0.43696(13) 0.14457(10)
H1 H 0.4615 0.4820 0.1205
C3 C 0.46272(15) 0.35033(14) 0.13212(10)
C4 C 0.42590(15) 0.28403(14) 0.16902(10)
H2 H 0.4421 0.2261 0.1608
C5 C 0.36509(15) 0.30230(13) 0.21820(10)
C6 C 0.34042(15) 0.38992(14) 0.22937(10)
H3 H 0.3008 0.4030 0.2625
C7 C 0.34585(15) 0.54999(13) 0.20481(9)
C8 C 0.24968(15) 0.57004(15) 0.22301(10)
H4 H 0.2028 0.5254 0.2272
C9 C 0.22399(17) 0.65652(16) 0.23483(10)
H5 H 0.1601 0.6685 0.2475
C10 C 0.28998(18) 0.72485(14) 0.22843(10)
C11 C 0.38481(17) 0.70472(14) 0.21118(10)
H6 H 0.4313 0.7497 0.2071
C12 C 0.41277(16) 0.61878(13) 0.19976(10)
H7 H 0.4777 0.6073 0.1885
C13 C 0.53453(15) 0.32807(13) 0.08416(10)
C14 C 0.60938(17) 0.26480(14) 0.09862(11)
H8 H 0.6122 0.2342 0.1379
C15 C 0.68023(16) 0.24578(15) 0.05628(11)
H9 H 0.7302 0.2035 0.0680
C16 C 0.67780(18) 0.28812(16) -0.00229(11)
C17 C 0.6028(2) 0.34971(16) -0.01783(11)
H10 H 0.5993 0.3787 -0.0578
C18 C 0.53174(18) 0.37008(15) 0.02432(11)
H11 H 0.4819 0.4123 0.0122
C19 C 0.33637(14) 0.23076(14) 0.26074(12)
C20 C 0.30599(15) 0.14892(15) 0.23588(12)
H12 H 0.2986 0.1396 0.1908
C21 C 0.28671(17) 0.08156(16) 0.27690(17)
H13 H 0.2662 0.0274 0.2590
C22 C 0.29705(18) 0.09224(18) 0.34372(17)
C23 C 0.32502(18) 0.17392(18) 0.36884(13)
H14 H 0.3310 0.1830 0.4139
C24 C 0.34427(15) 0.24254(15) 0.32811(12)
H15 H 0.3627 0.2971 0.3461
C25 C 0.25928(18) 0.81877(14) 0.23946(12)
H16 H 0.3148 0.8572 0.2328
H17 H 0.2434 0.8253 0.2835
H18 H 0.2002 0.8335 0.2091
C26 C 0.75435(19) 0.26601(18) -0.04930(12)
H19 H 0.8003 0.2214 -0.0303
H20 H 0.7927 0.3176 -0.0573
H21 H 0.7184 0.2451 -0.0899
C27 C 0.2804(2) 0.01707(18) 0.39008(16)
H22 H 0.2614 -0.0348 0.3650
H23 H 0.2268 0.0323 0.4156
H24 H 0.3425 0.0064 0.4188
C28 C 0.12408(16) 0.20754(14) 0.06644(10)
C29 C 0.20013(17) 0.18572(14) 0.02801(10)
H25 H 0.2341 0.2301 0.0084
C30 C 0.22625(16) 0.09853(14) 0.01834(10)
C31 C 0.17545(16) 0.03278(14) 0.04838(10)
H26 H 0.1919 -0.0256 0.0417
C32 C 0.10026(16) 0.05280(14) 0.08834(10)
C33 C 0.07574(16) 0.14052(14) 0.09626(10)
H27 H 0.0254 0.1547 0.1224
C34 C 0.09483(17) 0.30024(14) 0.07340(10)
C35 C -0.00618(17) 0.32339(15) 0.07830(11)
H28 H -0.0559 0.2799 0.0771
C36 C -0.03353(19) 0.40995(16) 0.08492(12)
H29 H -0.1017 0.4233 0.0879
C37 C 0.0368(2) 0.47737(15) 0.08725(11)
C38 C 0.13630(18) 0.45454(15) 0.08176(10)
H30 H 0.1856 0.4983 0.0825
C39 C 0.16502(17) 0.36792(15) 0.07515(10)
H31 H 0.2332 0.3550 0.0718
C40 C 0.30755(17) 0.07646(14) -0.02318(10)
C41 C 0.40143(18) 0.11994(15) -0.01477(10)
H32 H 0.4132 0.1634 0.0170
C42 C 0.47762(18) 0.09931(16) -0.05319(11)
H33 H 0.5395 0.1295 -0.0469
C43 C 0.46306(18) 0.03493(16) -0.10043(11)
C44 C 0.37007(19) -0.00755(15) -0.10880(11)
H34 H 0.3584 -0.0508 -0.1408
C45 C 0.29308(18) 0.01243(15) -0.07081(11)
H35 H 0.2312 -0.0177 -0.0776
C46 C 0.05166(15) -0.01760(14) 0.12379(11)
C47 C 0.02522(17) -0.09781(16) 0.09480(12)
H36 H 0.0354 -0.1071 0.0514
C48 C -0.01594(17) -0.16412(16) 0.12886(13)
H37 H -0.0337 -0.2169 0.1078
C49 C -0.03128(16) -0.15370(17) 0.19351(14)
C50 C -0.00743(17) -0.07306(17) 0.22193(12)
H38 H -0.0190 -0.0636 0.2651
C51 C 0.03313(16) -0.00605(15) 0.18819(11)
H39 H 0.0482 0.0475 0.2089
C52 C 0.00553(19) 0.57231(14) 0.09514(13)
H40 H 0.0645 0.6094 0.0957
H41 H -0.0231 0.5789 0.1356
H42 H -0.0446 0.5886 0.0591
C53 C 0.54673(18) 0.01234(17) -0.14167(11)
H43 H 0.5232 -0.0332 -0.1722
H44 H 0.6062 -0.0075 -0.1137
H45 H 0.5638 0.0634 -0.1653
C54 C -0.07041(18) -0.22810(16) 0.23240(12)
H46 H -0.0830 -0.2787 0.2047
H47 H -0.1329 -0.2106 0.2482
H48 H -0.0201 -0.2422 0.2689
loop_
_geom_bond_atom_site_label_1
_geom_bond_atom_site_label_2
_geom_bond_site_symmetry_1
_geom_bond_site_symmetry_2
C1 C2 1_555 1_555
C2 H1 1_555 1_555
C3 C2 1_555 1_555
C4 C3 1_555 1_555
H2 C4 1_555 1_555
C5 C4 1_555 1_555
C6 C1 1_555 1_555
H3 C6 1_555 1_555
C7 C1 1_555 1_555
C8 C7 1_555 1_555
H4 C8 1_555 1_555
C9 C8 1_555 1_555
H5 C9 1_555 1_555
C10 C9 1_555 1_555
C11 C10 1_555 1_555
H6 C11 1_555 1_555
C12 C7 1_555 1_555
H7 C12 1_555 1_555
C13 C3 1_555 1_555
C14 C13 1_555 1_555
H8 C14 1_555 1_555
C15 C14 1_555 1_555
H9 C15 1_555 1_555
C16 C15 1_555 1_555
C17 C16 1_555 1_555
H10 C17 1_555 1_555
C18 C13 1_555 1_555
H11 C18 1_555 1_555
C19 C5 1_555 1_555
C20 C19 1_555 1_555
H12 C20 1_555 1_555
C21 C20 1_555 1_555
H13 C21 1_555 1_555
C22 C21 1_555 1_555
C23 C22 1_555 1_555
H14 C23 1_555 1_555
C24 C19 1_555 1_555
H15 C24 1_555 1_555
C25 C10 1_555 1_555
H16 C25 1_555 1_555
H17 C25 1_555 1_555
H18 C25 1_555 1_555
C26 C16 1_555 1_555
H19 C26 1_555 1_555
H20 C26 1_555 1_555
H21 C26 1_555 1_555
C27 C22 1_555 1_555
H22 C27 1_555 1_555
H23 C27 1_555 1_555
H24 C27 1_555 1_555
C28 C29 1_555 1_555
C29 H25 1_555 1_555
C30 C29 1_555 1_555
C31 C30 1_555 1_555
H26 C31 1_555 1_555
C32 C31 1_555 1_555
C33 C28 1_555 1_555
H27 C33 1_555 1_555
C34 C28 1_555 1_555
C35 C34 1_555 1_555
H28 C35 1_555 1_555
C36 C35 1_555 1_555
H29 C36 1_555 1_555
C37 C36 1_555 1_555
C38 C37 1_555 1_555
H30 C38 1_555 1_555
C39 C34 1_555 1_555
H31 C39 1_555 1_555
C40 C30 1_555 1_555
C41 C40 1_555 1_555
H32 C41 1_555 1_555
C42 C41 1_555 1_555
H33 C42 1_555 1_555
C43 C42 1_555 1_555
C44 C43 1_555 1_555
H34 C44 1_555 1_555
C45 C40 1_555 1_555
H35 C45 1_555 1_555
C46 C32 1_555 1_555
C47 C46 1_555 1_555
H36 C47 1_555 1_555
C48 C47 1_555 1_555
H37 C48 1_555 1_555
C49 C48 1_555 1_555
C50 C49 1_555 1_555
H38 C50 1_555 1_555
C51 C46 1_555 1_555
H39 C51 1_555 1_555
C52 C37 1_555 1_555
H40 C52 1_555 1_555
H41 C52 1_555 1_555
H42 C52 1_555 1_555
C53 C43 1_555 1_555
H43 C53 1_555 1_555
H44 C53 1_555 1_555
H45 C53 1_555 1_555
C54 C49 1_555 1_555
H46 C54 1_555 1_555
H47 C54 1_555 1_555
H48 C54 1_555 1_555
C5 C6 1_555 1_555
C11 C12 1_555 1_555
C17 C18 1_555 1_555
C23 C24 1_555 1_555
C32 C33 1_555 1_555
C38 C39 1_555 1_555
C44 C45 1_555 1_555
C50 C51 1_555 1_555

#END
