
#######################################################################
#
#                 Cambridge Crystallographic Data Centre
#                                CCDC 
#
#######################################################################
#
# If this CIF has been generated from an entry in the Cambridge 
# Structural Database, then it will include bibliographic, chemical, 
# crystal, experimental, refinement or atomic coordinate data resulting 
# from the CCDC's data processing and validation procedures.
#
#######################################################################

data_TECPIB
_chemical_formula_moiety         'C18 H16 O3'
_chemical_name_systematic        'Ethyl (E)-2-benzoyl-3-phenylpropenoate'
_symmetry_cell_setting           monoclinic
_symmetry_space_group_name_H-M   'P 21/n'
_symmetry_Int_Tables_number      14
_space_group_name_Hall           '-P 2yn'
loop_
_symmetry_equiv_pos_site_id
_symmetry_equiv_pos_as_xyz
1 x,y,z
2 1/2-x,1/2+y,1/2-z
3 -x,-y,-z
4 1/2+x,1/2-y,1/2+z
_cell_length_a                   10.8099(8)
_cell_length_b                   7.2746(5)
_cell_length_c                   18.5285(13)
_cell_angle_alpha                90
_cell_angle_beta                 94.3260(10)
_cell_angle_gamma                90
_cell_volume                     1452.89
_exptl_crystal_colour            colorless
_exptl_crystal_description       block
_chemical_melting_point          '361 K'
_cell_formula_units_Z            4
_exptl_crystal_recrystallization_method ethanol
loop_
_atom_site_label
_atom_site_type_symbol
_atom_site_fract_x
_atom_site_fract_y
_atom_site_fract_z
O1 O 0.79812(10) 0.60748(13) 0.10177(5)
O2 O 1.02055(9) 0.37277(17) 0.19795(5)
O3 O 0.92331(8) 0.34751(13) 0.29982(4)
C1 C 0.69893(11) 0.34225(16) 0.22411(6)
H1 H 0.7129 0.3121 0.2728
C2 C 0.80669(10) 0.44350(17) 0.11334(6)
C3 C 0.80163(11) 0.37632(16) 0.19014(6)
C4 C 0.92660(11) 0.36443(17) 0.22863(6)
C5 C 1.04081(11) 0.33726(19) 0.34245(7)
H2 H 1.0910 0.4446 0.3340
H3 H 1.0862 0.2283 0.3298
C6 C 1.01122(14) 0.3293(2) 0.41983(7)
H4 H 0.9702 0.4407 0.4322
H5 H 1.0866 0.3156 0.4502
H6 H 0.9578 0.2263 0.4268
C7 C 0.82624(10) 0.30985(16) 0.05464(6)
C8 C 0.85605(11) 0.37595(18) -0.01212(6)
H7 H 0.8645 0.5018 -0.0190
C9 C 0.87316(12) 0.2569(2) -0.06816(7)
H8 H 0.8937 0.3023 -0.1126
C10 C 0.85983(13) 0.0705(2) -0.05842(7)
H9 H 0.8712 -0.0099 -0.0964
C11 C 0.82952(13) 0.00238(19) 0.00763(7)
H10 H 0.8198 -0.1235 0.0139
C12 C 0.81370(11) 0.12141(17) 0.06419(7)
H11 H 0.7946 0.0754 0.1088
C13 C 0.56841(11) 0.34491(16) 0.19689(6)
C14 C 0.52486(12) 0.34189(18) 0.12406(7)
H12 H 0.5814 0.3393 0.0886
C15 C 0.39981(12) 0.34267(19) 0.10380(8)
H13 H 0.3728 0.3405 0.0549
C16 C 0.31416(12) 0.34666(19) 0.15517(8)
H14 H 0.2297 0.3477 0.1412
C17 C 0.35481(13) 0.3491(2) 0.22726(8)
H15 H 0.2976 0.3520 0.2623
C18 C 0.47995(12) 0.3471(2) 0.24783(7)
H16 H 0.5060 0.3472 0.2968
loop_
_geom_bond_atom_site_label_1
_geom_bond_atom_site_label_2
_geom_bond_site_symmetry_1
_geom_bond_site_symmetry_2
O1 C2 1_555 1_555
O2 C4 1_555 1_555
O3 C4 1_555 1_555
C1 H1 1_555 1_555
C2 C3 1_555 1_555
C3 C1 1_555 1_555
C4 C3 1_555 1_555
C5 O3 1_555 1_555
H2 C5 1_555 1_555
H3 C5 1_555 1_555
C6 C5 1_555 1_555
H4 C6 1_555 1_555
H5 C6 1_555 1_555
H6 C6 1_555 1_555
C7 C2 1_555 1_555
C8 C7 1_555 1_555
H7 C8 1_555 1_555
C9 C8 1_555 1_555
H8 C9 1_555 1_555
C10 C9 1_555 1_555
H9 C10 1_555 1_555
C11 C10 1_555 1_555
H10 C11 1_555 1_555
C12 C7 1_555 1_555
H11 C12 1_555 1_555
C13 C1 1_555 1_555
C14 C13 1_555 1_555
H12 C14 1_555 1_555
C15 C14 1_555 1_555
H13 C15 1_555 1_555
C16 C15 1_555 1_555
H14 C16 1_555 1_555
C17 C16 1_555 1_555
H15 C17 1_555 1_555
C18 C13 1_555 1_555
H16 C18 1_555 1_555
C11 C12 1_555 1_555
C17 C18 1_555 1_555

#END
