
#######################################################################
#
#                 Cambridge Crystallographic Data Centre
#                                CCDC 
#
#######################################################################
#
# If this CIF has been generated from an entry in the Cambridge 
# Structural Database, then it will include bibliographic, chemical, 
# crystal, experimental, refinement or atomic coordinate data resulting 
# from the CCDC's data processing and validation procedures.
#
#######################################################################

data_TECPOJ
_chemical_formula_moiety         'C32 H22 O12,C1 H4 O1,H2 O1'
_chemical_name_systematic        
'methyl 4-(2-{2-[2,6-dihydroxy-4-(methoxycarbonyl)benzene-1-carbonyl]-3-hydroxyphenyl}-4-hydroxy-1-oxo-1H-inden-3-yl)-3,5-dihydroxybenzoate methanol solvate monohydrate'
_symmetry_cell_setting           triclinic
_symmetry_space_group_name_H-M   'P -1'
_symmetry_Int_Tables_number      2
_space_group_name_Hall           '-P 1'
loop_
_symmetry_equiv_pos_site_id
_symmetry_equiv_pos_as_xyz
1 x,y,z
2 -x,-y,-z
_cell_length_a                   9.81830(10)
_cell_length_b                   11.02420(10)
_cell_length_c                   14.1699(2)
_cell_angle_alpha                97.5290(10)
_cell_angle_beta                 92.7330(10)
_cell_angle_gamma                104.3970(10)
_cell_volume                     1467.61
_exptl_crystal_colour            red
_exptl_crystal_description       block
_cell_formula_units_Z            2
loop_
_atom_site_label
_atom_site_type_symbol
_atom_site_fract_x
_atom_site_fract_y
_atom_site_fract_z
O1 O 1.14666(12) 0.46010(11) 0.65913(8)
O2 O 1.15498(12) 0.23862(11) 1.01487(8)
H1 H 1.2095 0.2476 1.0642
O3 O 0.94083(13) 0.05898(10) 0.85634(8)
H2 H 0.9364 -0.0117 0.8739
O4 O 0.82714(12) 0.44911(10) 0.95141(8)
H3 H 0.8810 0.4717 0.9091
O5 O 0.54445(14) 0.15712(12) 1.15120(9)
O6 O 0.60745(13) -0.02306(11) 1.11327(8)
O7 O 0.96498(12) 0.60953(10) 0.82614(7)
O8 O 0.66341(12) 0.59188(10) 0.64835(8)
H4 H 0.5786 0.5813 0.6288
O9 O 1.05396(13) 0.84953(10) 0.83230(8)
H5 H 1.0233 0.7822 0.8549
O10 O 0.91032(12) 0.57068(10) 0.53665(8)
H6 H 0.9183 0.5711 0.4779
O11 O 1.26900(17) 1.10137(14) 0.58267(11)
O12 O 1.15727(13) 0.98544(11) 0.44685(8)
C1 C 1.12334(16) 0.41107(14) 0.73172(10)
C2 C 1.22923(17) 0.39022(14) 0.80229(11)
C3 C 1.37376(17) 0.42946(16) 0.80880(12)
H7 H 1.4222 0.4751 0.7627
C4 C 1.44731(18) 0.39953(17) 0.88611(12)
H8 H 1.5475 0.4238 0.8924
C5 C 1.37449(18) 0.33479(16) 0.95337(12)
H9 H 1.4262 0.3148 1.0049
C6 C 1.22634(17) 0.29785(14) 0.94754(11)
C7 C 1.15350(16) 0.32431(14) 0.86977(11)
C8 C 1.00110(16) 0.30741(13) 0.84450(10)
C9 C 0.98182(16) 0.35860(13) 0.76460(10)
C10 C 0.88904(16) 0.25106(14) 0.90380(10)
C11 C 0.86559(17) 0.12286(14) 0.91313(11)
C12 C 0.77232(17) 0.06819(14) 0.97532(11)
H10 H 0.7570 -0.0189 0.9812
C13 C 0.70164(16) 0.14446(14) 1.02897(10)
C14 C 0.71984(16) 0.27111(15) 1.01914(11)
H11 H 0.6691 0.3210 1.0555
C15 C 0.81272(16) 0.32454(14) 0.95569(10)
C16 C 0.60918(17) 0.09529(15) 1.10319(11)
C17 C 0.5269(2) -0.07444(18) 1.18865(13)
H12 H 0.5590 -0.0179 1.2492
H13 H 0.5407 -0.1583 1.1945
H14 H 0.4265 -0.0819 1.1732
C18 C 0.84688(16) 0.36191(14) 0.71583(10)
C19 C 0.74430(17) 0.24897(14) 0.68593(11)
H15 H 0.7624 0.1706 0.6958
C20 C 0.61558(17) 0.25071(15) 0.64173(11)
H16 H 0.5464 0.1733 0.6213
C21 C 0.58685(17) 0.36379(16) 0.62713(11)
H17 H 0.4981 0.3641 0.5974
C22 C 0.68885(16) 0.47728(15) 0.65629(10)
C23 C 0.81962(15) 0.47705(14) 0.69917(10)
C24 C 0.92395(15) 0.59802(14) 0.74045(10)
C25 C 0.97951(16) 0.70204(14) 0.68577(11)
C26 C 1.04811(16) 0.82352(14) 0.73621(11)
C27 C 1.11086(17) 0.92245(15) 0.68843(12)
H18 H 1.1549 1.0037 0.7231
C28 C 1.10862(16) 0.90155(15) 0.58966(12)
C29 C 1.04047(16) 0.78442(15) 0.53719(11)
H19 H 1.0382 0.7721 0.4695
C30 C 0.97572(16) 0.68553(14) 0.58479(11)
C31 C 1.18694(18) 1.00821(16) 0.54142(13)
C32 C 1.2367(2) 1.07879(18) 0.39387(14)
H20 H 1.2284 1.1630 0.4206
H21 H 1.1994 1.0593 0.3267
H22 H 1.3362 1.0773 0.3984
O13 O 0.59795(13) 0.41159(12) 1.40346(10)
H23 H 0.6662 0.4674 1.3896
C33 C 0.6280(2) 0.2915(2) 1.38620(17)
H24 H 0.7023 0.2877 1.4336
H25 H 0.6599 0.2790 1.3220
H26 H 0.5426 0.2248 1.3911
O14 O 0.29543(15) 0.22619(14) 1.17914(9)
H27 H 0.3717(16) 0.208(2) 1.1769(17)
H28 H 0.310(3) 0.2792(19) 1.2278(12)
loop_
_geom_bond_atom_site_label_1
_geom_bond_atom_site_label_2
_geom_bond_site_symmetry_1
_geom_bond_site_symmetry_2
O1 C1 1_555 1_555
O2 H1 1_555 1_555
O3 H2 1_555 1_555
O4 H3 1_555 1_555
O5 C16 1_555 1_555
O6 C16 1_555 1_555
O7 C24 1_555 1_555
O8 H4 1_555 1_555
O9 H5 1_555 1_555
O10 H6 1_555 1_555
O11 C31 1_555 1_555
O12 C31 1_555 1_555
C1 C2 1_555 1_555
C2 C3 1_555 1_555
C3 H7 1_555 1_555
C4 C3 1_555 1_555
H8 C4 1_555 1_555
C5 C4 1_555 1_555
H9 C5 1_555 1_555
C6 O2 1_555 1_555
C7 C2 1_555 1_555
C8 C7 1_555 1_555
C9 C1 1_555 1_555
C10 C8 1_555 1_555
C11 O3 1_555 1_555
C12 C11 1_555 1_555
H10 C12 1_555 1_555
C13 C12 1_555 1_555
C14 C13 1_555 1_555
H11 C14 1_555 1_555
C15 O4 1_555 1_555
C16 C13 1_555 1_555
C17 O6 1_555 1_555
H12 C17 1_555 1_555
H13 C17 1_555 1_555
H14 C17 1_555 1_555
C18 C9 1_555 1_555
C19 C18 1_555 1_555
H15 C19 1_555 1_555
C20 C19 1_555 1_555
H16 C20 1_555 1_555
C21 C20 1_555 1_555
H17 C21 1_555 1_555
C22 O8 1_555 1_555
C23 C18 1_555 1_555
C24 C23 1_555 1_555
C25 C24 1_555 1_555
C26 O9 1_555 1_555
C27 C26 1_555 1_555
H18 C27 1_555 1_555
C28 C27 1_555 1_555
C29 C28 1_555 1_555
H19 C29 1_555 1_555
C30 O10 1_555 1_555
C31 C28 1_555 1_555
C32 O12 1_555 1_555
H20 C32 1_555 1_555
H21 C32 1_555 1_555
H22 C32 1_555 1_555
O13 H23 1_555 1_555
C33 O13 1_555 1_555
H24 C33 1_555 1_555
H25 C33 1_555 1_555
H26 C33 1_555 1_555
O14 H27 1_555 1_555
H28 O14 1_555 1_555
C5 C6 1_555 1_555
C6 C7 1_555 1_555
C8 C9 1_555 1_555
C10 C11 1_555 1_555
C10 C15 1_555 1_555
C14 C15 1_555 1_555
C21 C22 1_555 1_555
C22 C23 1_555 1_555
C25 C26 1_555 1_555
C25 C30 1_555 1_555
C29 C30 1_555 1_555

#END
