
#######################################################################
#
#                 Cambridge Crystallographic Data Centre
#                                CCDC 
#
#######################################################################
#
# If this CIF has been generated from an entry in the Cambridge 
# Structural Database, then it will include bibliographic, chemical, 
# crystal, experimental, refinement or atomic coordinate data resulting 
# from the CCDC's data processing and validation procedures.
#
#######################################################################

data_TECQAW
_chemical_formula_moiety         'C25 H17 N1 O1 S1'
_chemical_name_systematic        
5'-(1,3-benzothiazol-2-yl)-1,1':2',1''-terphenyl-4'-ol
_symmetry_cell_setting           triclinic
_symmetry_space_group_name_H-M   'P -1'
_symmetry_Int_Tables_number      2
_space_group_name_Hall           '-P 1'
loop_
_symmetry_equiv_pos_site_id
_symmetry_equiv_pos_as_xyz
1 x,y,z
2 -x,-y,-z
_cell_length_a                   9.9130(8)
_cell_length_b                   10.2709(9)
_cell_length_c                   10.8021(9)
_cell_angle_alpha                78.3830(10)
_cell_angle_beta                 71.218(2)
_cell_angle_gamma                67.6380(10)
_cell_volume                     959.036
_cell_formula_units_Z            2
loop_
_atom_site_label
_atom_site_type_symbol
_atom_site_fract_x
_atom_site_fract_y
_atom_site_fract_z
N1 N 0.98029(19) -0.05979(17) 0.24159(15)
O1 O 0.72703(17) -0.06438(15) 0.42202(14)
H1 H 0.8014 -0.0904 0.3595
S1 S 1.09704(7) 0.13599(6) 0.20766(5)
C1 C 0.9667(2) 0.0499(2) 0.29433(19)
C2 C 1.0981(2) -0.0832(2) 0.12592(19)
C3 C 1.1758(2) 0.0133(2) 0.09225(19)
C4 C 1.2952(3) 0.0055(2) -0.0212(2)
H2 H 1.3466 0.0697 -0.0430
C5 C 1.3347(3) -0.1009(2) -0.1001(2)
H3 H 1.4137 -0.1079 -0.1766
C6 C 1.2592(3) -0.1980(2) -0.0678(2)
H4 H 1.2885 -0.2690 -0.1224
C7 C 1.1411(3) -0.1898(2) 0.0446(2)
H5 H 1.0906 -0.2547 0.0659
C8 C 0.8477(2) 0.1043(2) 0.41182(18)
C9 C 0.7313(2) 0.0466(2) 0.46893(19)
C10 C 0.6137(2) 0.1065(2) 0.57522(19)
H6 H 0.5378 0.0670 0.6129
C11 C 0.6057(2) 0.2238(2) 0.62720(18)
C12 C 0.7221(2) 0.2830(2) 0.57100(18)
C13 C 0.8399(2) 0.2205(2) 0.46592(19)
H7 H 0.9175 0.2581 0.4297
C14 C 0.4728(2) 0.2852(2) 0.73906(19)
C15 C 0.4922(3) 0.3134(2) 0.8510(2)
H8 H 0.5898 0.2926 0.8571
C16 C 0.3698(3) 0.3719(2) 0.9539(2)
H9 H 0.3852 0.3896 1.0285
C17 C 0.2249(3) 0.4037(3) 0.9450(2)
H10 H 0.1419 0.4437 1.0134
C18 C 0.2030(3) 0.3761(3) 0.8343(2)
H11 H 0.1051 0.3978 0.8284
C19 C 0.3261(3) 0.3164(2) 0.7316(2)
H12 H 0.3104 0.2972 0.6578
C20 C 0.7201(2) 0.4153(2) 0.61128(18)
C21 C 0.8480(2) 0.4210(2) 0.6340(2)
H13 H 0.9331 0.3399 0.6303
C22 C 0.8504(3) 0.5456(3) 0.6622(2)
H14 H 0.9364 0.5476 0.6782
C23 C 0.7252(3) 0.6668(3) 0.6667(2)
H15 H 0.7270 0.7511 0.6842
C24 C 0.5975(3) 0.6625(2) 0.6450(2)
H16 H 0.5128 0.7440 0.6486
C25 C 0.5942(2) 0.5389(2) 0.61799(19)
H17 H 0.5070 0.5375 0.6040
loop_
_geom_bond_atom_site_label_1
_geom_bond_atom_site_label_2
_geom_bond_site_symmetry_1
_geom_bond_site_symmetry_2
N1 C1 1_555 1_555
O1 H1 1_555 1_555
S1 C1 1_555 1_555
C1 C8 1_555 1_555
C2 N1 1_555 1_555
C3 S1 1_555 1_555
C4 C3 1_555 1_555
H2 C4 1_555 1_555
C5 C4 1_555 1_555
H3 C5 1_555 1_555
C6 C5 1_555 1_555
H4 C6 1_555 1_555
C7 C2 1_555 1_555
H5 C7 1_555 1_555
C8 C9 1_555 1_555
C9 O1 1_555 1_555
C10 C9 1_555 1_555
H6 C10 1_555 1_555
C11 C10 1_555 1_555
C12 C11 1_555 1_555
C13 C8 1_555 1_555
H7 C13 1_555 1_555
C14 C11 1_555 1_555
C15 C14 1_555 1_555
H8 C15 1_555 1_555
C16 C15 1_555 1_555
H9 C16 1_555 1_555
C17 C16 1_555 1_555
H10 C17 1_555 1_555
C18 C17 1_555 1_555
H11 C18 1_555 1_555
C19 C14 1_555 1_555
H12 C19 1_555 1_555
C20 C12 1_555 1_555
C21 C20 1_555 1_555
H13 C21 1_555 1_555
C22 C21 1_555 1_555
H14 C22 1_555 1_555
C23 C22 1_555 1_555
H15 C23 1_555 1_555
C24 C23 1_555 1_555
H16 C24 1_555 1_555
C25 C20 1_555 1_555
H17 C25 1_555 1_555
C2 C3 1_555 1_555
C6 C7 1_555 1_555
C12 C13 1_555 1_555
C18 C19 1_555 1_555
C24 C25 1_555 1_555

#END
