
#######################################################################
#
#                 Cambridge Crystallographic Data Centre
#                                CCDC 
#
#######################################################################
#
# If this CIF has been generated from an entry in the Cambridge 
# Structural Database, then it will include bibliographic, chemical, 
# crystal, experimental, refinement or atomic coordinate data resulting 
# from the CCDC's data processing and validation procedures.
#
#######################################################################

data_TECQEA
_chemical_formula_moiety         'C33 H40 P1 1+,Br1 1-'
_chemical_name_systematic        
'tributyl[(perylen-3-yl)methyl]phosphanium bromide'
_symmetry_cell_setting           monoclinic
_symmetry_space_group_name_H-M   'P 21/n'
_symmetry_Int_Tables_number      14
_space_group_name_Hall           '-P 2yn'
loop_
_symmetry_equiv_pos_site_id
_symmetry_equiv_pos_as_xyz
1 x,y,z
2 1/2-x,1/2+y,1/2-z
3 -x,-y,-z
4 1/2+x,1/2-y,1/2+z
_cell_length_a                   18.0756(10)
_cell_length_b                   9.2768(5)
_cell_length_c                   19.0097(10)
_cell_angle_alpha                90
_cell_angle_beta                 95.079(5)
_cell_angle_gamma                90
_cell_volume                     3175.1
_cell_formula_units_Z            4
loop_
_atom_site_label
_atom_site_type_symbol
_atom_site_fract_x
_atom_site_fract_y
_atom_site_fract_z
P1 P 0.31024(8) 0.02705(14) 0.85575(7)
C1 C 0.3486(3) 0.1745(5) 0.8100(2)
H1 H 0.3324 0.1692 0.7600
H2 H 0.3315 0.2651 0.8281
C2 C 0.2125(3) 0.0378(5) 0.8359(3)
H3 H 0.1965 0.1348 0.8460
H4 H 0.2013 0.0214 0.7857
C3 C 0.1673(3) -0.0684(7) 0.8761(3)
H5 H 0.1766 -0.0505 0.9263
H6 H 0.1835 -0.1658 0.8670
C4 C 0.0828(4) -0.0560(9) 0.8546(4)
H7 H 0.0677 0.0435 0.8598
H8 H 0.0733 -0.0814 0.8051
C5 C 0.0362(4) -0.1511(10) 0.8977(5)
H9 H 0.0632 -0.2375 0.9108
H10 H -0.0091 -0.1758 0.8702
H11 H 0.0249 -0.1006 0.9395
C6 C 0.3327(3) 0.0413(6) 0.9488(3)
H12 H 0.3190 -0.0485 0.9704
H13 H 0.3861 0.0516 0.9575
C7 C 0.2969(3) 0.1621(6) 0.9850(3)
H14 H 0.3026 0.2504 0.9587
H15 H 0.2442 0.1427 0.9850
C8 C 0.3289(5) 0.1829(9) 1.0586(4)
H16 H 0.3803 0.2125 1.0580
H17 H 0.3284 0.0913 1.0831
C9 C 0.2875(6) 0.2960(10) 1.1004(4)
H18 H 0.2867 0.3867 1.0760
H19 H 0.3126 0.3072 1.1467
H20 H 0.2375 0.2642 1.1043
C10 C 0.3430(3) -0.1429(5) 0.8270(3)
H21 H 0.3078 -0.2161 0.8387
H22 H 0.3421 -0.1402 0.7759
C11 C 0.4174(3) -0.1902(6) 0.8550(4)
H23 H 0.4167 -0.2173 0.9043
H24 H 0.4525 -0.1117 0.8522
C12 C 0.4422(4) -0.3230(8) 0.8109(5)
H25 H 0.4149 -0.4071 0.8245
H26 H 0.4276 -0.3045 0.7614
C13 C 0.5165(5) -0.3560(10) 0.8178(5)
H27 H 0.5441 -0.2788 0.7989
H28 H 0.5247 -0.4433 0.7924
H29 H 0.5328 -0.3692 0.8668
C14 C 0.4854(9) 0.1207(10) 0.7857(5)
C15 C 0.4320(8) 0.167(3) 0.8204(12)
C16 C 0.4625(8) 0.2604(13) 0.8814(8)
H30 H 0.4285 0.3100 0.9063
C17 C 0.5395(8) 0.2783(9) 0.9039(5)
H31 H 0.5543 0.3333 0.9435
C18 C 0.5906(6) 0.2140(16) 0.8665(7)
C19 C 0.6677(8) 0.2209(13) 0.8860(6)
C20 C 0.6949(8) 0.3017(13) 0.9437(7)
H32 H 0.6624 0.3572 0.9677
C21 C 0.7693(8) 0.3010(14) 0.9662(7)
H33 H 0.7836 0.3449 1.0092
C22 C 0.8254(9) 0.2398(19) 0.9296(8)
H34 H 0.8760 0.2543 0.9405
C23 C 0.7936(10) 0.151(3) 0.8727(8)
C24 C 0.8455(9) 0.0812(17) 0.8316(7)
H35 H 0.8964 0.0866 0.8440
C25 C 0.8167(7) 0.0035(17) 0.7713(7)
H36 H 0.8506 -0.0452 0.7459
C26 C 0.7435(8) -0.0065(17) 0.7471(7)
H37 H 0.7279 -0.0572 0.7062
C27 C 0.6923(7) 0.0649(12) 0.7879(6)
C28 C 0.6155(5) 0.0596(10) 0.7661(4)
C29 C 0.5897(5) -0.0148(9) 0.7064(5)
H38 H 0.6231 -0.0602 0.6792
C30 C 0.5128(6) -0.0226(10) 0.6860(5)
H39 H 0.4961 -0.0725 0.6452
C31 C 0.4637(7) 0.0403(12) 0.7242(6)
H40 H 0.4133 0.0309 0.7100
C32 C 0.5614(6) 0.1292(16) 0.8037(8)
C33 C 0.7166(9) 0.139(4) 0.8511(15)
Br1 Br 0.25776(3) -0.00204(5) 0.63858(3)
H41? H 0.3288 0.1673 0.7610
H42? H 0.3282 0.2620 0.8285
C34? C 0.4835(11) 0.2312(15) 0.8562(8)
C35? C 0.4312(10) 0.198(4) 0.8098(15)
C36? C 0.4592(11) 0.1098(17) 0.7459(11)
H43? H 0.4258 0.0762 0.7096
C37? C 0.5277(9) 0.0862(12) 0.7452(7)
H44? H 0.5430 0.0338 0.7074
C38? C 0.5884(9) 0.137(3) 0.8020(11)
C39? C 0.6634(10) 0.1036(15) 0.7983(7)
C40? C 0.6964(10) 0.0221(16) 0.7489(9)
H45? H 0.6691 -0.0007 0.7066
C41? C 0.7705(11) -0.028(2) 0.7606(10)
H46? H 0.7833 -0.1108 0.7369
C42? C 0.8255(12) 0.039(2) 0.8052(11)
H47? H 0.8761 0.0202 0.8061
C43? C 0.7926(12) 0.141(4) 0.8494(12)
C44? C 0.8417(13) 0.194(2) 0.9073(10)
H48? H 0.8924 0.1748 0.9104
C45? C 0.8102(10) 0.277(3) 0.9592(10)
H49? H 0.8418 0.3092 0.9971
C46? C 0.7341(11) 0.314(2) 0.9581(10)
H50? H 0.7160 0.3786 0.9896
C47? C 0.6879(9) 0.2420(19) 0.9044(9)
C48? C 0.6121(7) 0.2692(12) 0.9086(6)
C49? C 0.5840(6) 0.3491(13) 0.9612(5)
H51? H 0.6168 0.3913 0.9956
C50? C 0.5100(7) 0.3680(14) 0.9642(6)
H52? H 0.4941 0.4211 1.0015
C51? C 0.4538(8) 0.3089(15) 0.9118(7)
H53? H 0.4031 0.3212 0.9146
C52? C 0.5572(9) 0.2109(17) 0.8555(8)
C53? C 0.7153(12) 0.171(5) 0.848(2)
loop_
_geom_bond_atom_site_label_1
_geom_bond_atom_site_label_2
_geom_bond_site_symmetry_1
_geom_bond_site_symmetry_2
P1 C1 1_555 1_555
C1 H1 1_555 1_555
H2 C1 1_555 1_555
C2 P1 1_555 1_555
H3 C2 1_555 1_555
H4 C2 1_555 1_555
C3 C2 1_555 1_555
H5 C3 1_555 1_555
H6 C3 1_555 1_555
C4 C3 1_555 1_555
H7 C4 1_555 1_555
H8 C4 1_555 1_555
C5 C4 1_555 1_555
H9 C5 1_555 1_555
H10 C5 1_555 1_555
H11 C5 1_555 1_555
C6 P1 1_555 1_555
H12 C6 1_555 1_555
H13 C6 1_555 1_555
C7 C6 1_555 1_555
H14 C7 1_555 1_555
H15 C7 1_555 1_555
C8 C7 1_555 1_555
H16 C8 1_555 1_555
H17 C8 1_555 1_555
C9 C8 1_555 1_555
H18 C9 1_555 1_555
H19 C9 1_555 1_555
H20 C9 1_555 1_555
C10 P1 1_555 1_555
H21 C10 1_555 1_555
H22 C10 1_555 1_555
C11 C10 1_555 1_555
H23 C11 1_555 1_555
H24 C11 1_555 1_555
C12 C11 1_555 1_555
H25 C12 1_555 1_555
H26 C12 1_555 1_555
C13 C12 1_555 1_555
H27 C13 1_555 1_555
H28 C13 1_555 1_555
H29 C13 1_555 1_555
C14 C15 1_555 1_555
C15 C1 1_555 1_555
C16 C15 1_555 1_555
H30 C16 1_555 1_555
C17 C16 1_555 1_555
H31 C17 1_555 1_555
C18 C17 1_555 1_555
C19 C18 1_555 1_555
C20 C19 1_555 1_555
H32 C20 1_555 1_555
C21 C20 1_555 1_555
H33 C21 1_555 1_555
C22 C21 1_555 1_555
H34 C22 1_555 1_555
C23 C22 1_555 1_555
C24 C23 1_555 1_555
H35 C24 1_555 1_555
C25 C24 1_555 1_555
H36 C25 1_555 1_555
C26 C25 1_555 1_555
H37 C26 1_555 1_555
C27 C26 1_555 1_555
C28 C27 1_555 1_555
C29 C28 1_555 1_555
H38 C29 1_555 1_555
C30 C29 1_555 1_555
H39 C30 1_555 1_555
C31 C14 1_555 1_555
H40 C31 1_555 1_555
C32 C14 1_555 1_555
C33 C19 1_555 1_555
C18 C32 1_555 1_555
C23 C33 1_555 1_555
C27 C33 1_555 1_555
C28 C32 1_555 1_555
C30 C31 1_555 1_555

#END
