
#######################################################################
#
#                 Cambridge Crystallographic Data Centre
#                                CCDC 
#
#######################################################################
#
# If this CIF has been generated from an entry in the Cambridge 
# Structural Database, then it will include bibliographic, chemical, 
# crystal, experimental, refinement or atomic coordinate data resulting 
# from the CCDC's data processing and validation procedures.
#
#######################################################################

data_TECRID
_chemical_formula_moiety         'C22 H16 Cl1 N3 O3'
_chemical_name_systematic        
'2-(1H-1,2,3-Benzotriazolyl)-1-benzoylethyl 4-chlorobenzoate'
_chemical_properties_biological  'potential pharmacological activity'
_symmetry_cell_setting           monoclinic
_symmetry_space_group_name_H-M   'P 21/c'
_symmetry_Int_Tables_number      14
_space_group_name_Hall           '-P 2ybc'
loop_
_symmetry_equiv_pos_site_id
_symmetry_equiv_pos_as_xyz
1 x,y,z
2 -x,1/2+y,1/2-z
3 -x,-y,-z
4 x,1/2-y,1/2+z
_cell_length_a                   9.712(3)
_cell_length_b                   20.379(5)
_cell_length_c                   10.009(3)
_cell_angle_alpha                90
_cell_angle_beta                 90.392(4)
_cell_angle_gamma                90
_cell_volume                     1980.94
_exptl_crystal_colour            colorless
_exptl_crystal_description       column
_cell_formula_units_Z            4
_exptl_crystal_recrystallization_method acetone/water
loop_
_atom_site_label
_atom_site_type_symbol
_atom_site_fract_x
_atom_site_fract_y
_atom_site_fract_z
Cl1 Cl 0.41346(9) 0.49978(4) 0.31722(7)
O1 O 1.00019(14) 0.71488(7) -0.08196(13)
O2 O 0.76707(13) 0.65248(6) -0.15571(13)
O3 O 0.90921(17) 0.56706(7) -0.12571(16)
N1 N 0.77635(15) 0.78907(7) -0.23963(14)
N2 N 0.66694(17) 0.79455(9) -0.15596(16)
N3 N 0.67697(18) 0.84956(9) -0.09082(17)
C1 C 1.2481(2) 0.70847(12) -0.2178(2)
H1 H 1.2466 0.7286 -0.1344
C2 C 1.3710(3) 0.70199(16) -0.2840(3)
H2 H 1.4518 0.7180 -0.2458
C3 C 1.3744(3) 0.67182(14) -0.4067(3)
H3 H 1.4576 0.6670 -0.4512
C4 C 1.2556(3) 0.64892(13) -0.4631(2)
H4 H 1.2580 0.6285 -0.5461
C5 C 1.1318(2) 0.65580(10) -0.3976(2)
H5 H 1.0512 0.6404 -0.4373
C6 C 1.1269(2) 0.68551(9) -0.27333(18)
C7 C 0.99861(19) 0.69259(9) -0.19487(18)
C8 C 0.8598(2) 0.67450(9) -0.25740(18)
H6 H 0.8731 0.6393 -0.3227
C9 C 0.7916(2) 0.73245(9) -0.32541(18)
H7 H 0.8457 0.7448 -0.4025
H8 H 0.7012 0.7192 -0.3574
C10 C 0.85913(19) 0.84279(9) -0.22749(17)
C11 C 0.9809(2) 0.86176(10) -0.29044(19)
H9 H 1.0247 0.8353 -0.3527
C12 C 1.0311(2) 0.92193(11) -0.2543(2)
H10 H 1.1117 0.9370 -0.2937
C13 C 0.9654(3) 0.96170(11) -0.1601(2)
H11 H 1.0033 1.0024 -0.1396
C14 C 0.8480(3) 0.94274(10) -0.0975(2)
H12 H 0.8057 0.9693 -0.0343
C15 C 0.7939(2) 0.88146(9) -0.13249(18)
C16 C 0.8056(2) 0.59559(10) -0.0958(2)
C17 C 0.7060(2) 0.57380(10) 0.00630(19)
C18 C 0.7297(2) 0.51433(10) 0.0690(2)
H13 H 0.8069 0.4897 0.0472
C19 C 0.6391(3) 0.49147(11) 0.1638(2)
H14 H 0.6542 0.4512 0.2053
C20 C 0.5266(3) 0.52866(13) 0.1962(2)
C21 C 0.5011(2) 0.58795(13) 0.1362(2)
H15 H 0.4244 0.6126 0.1596
C22 C 0.5914(2) 0.61054(11) 0.0404(2)
H16 H 0.5751 0.6506 -0.0014
loop_
_geom_bond_atom_site_label_1
_geom_bond_atom_site_label_2
_geom_bond_site_symmetry_1
_geom_bond_site_symmetry_2
Cl1 C20 1_555 1_555
O1 C7 1_555 1_555
O2 C8 1_555 1_555
O3 C16 1_555 1_555
N1 N2 1_555 1_555
N2 N3 1_555 1_555
N3 C15 1_555 1_555
C1 H1 1_555 1_555
C2 C1 1_555 1_555
H2 C2 1_555 1_555
C3 C2 1_555 1_555
H3 C3 1_555 1_555
C4 C3 1_555 1_555
H4 C4 1_555 1_555
C5 C4 1_555 1_555
H5 C5 1_555 1_555
C6 C1 1_555 1_555
C7 C6 1_555 1_555
C8 C7 1_555 1_555
H6 C8 1_555 1_555
C9 N1 1_555 1_555
H7 C9 1_555 1_555
H8 C9 1_555 1_555
C10 N1 1_555 1_555
C11 C10 1_555 1_555
H9 C11 1_555 1_555
C12 C11 1_555 1_555
H10 C12 1_555 1_555
C13 C12 1_555 1_555
H11 C13 1_555 1_555
C14 C13 1_555 1_555
H12 C14 1_555 1_555
C15 C10 1_555 1_555
C16 O2 1_555 1_555
C17 C16 1_555 1_555
C18 C17 1_555 1_555
H13 C18 1_555 1_555
C19 C18 1_555 1_555
H14 C19 1_555 1_555
C20 C19 1_555 1_555
C21 C20 1_555 1_555
H15 C21 1_555 1_555
C22 C17 1_555 1_555
H16 C22 1_555 1_555
C5 C6 1_555 1_555
C8 C9 1_555 1_555
C14 C15 1_555 1_555
C21 C22 1_555 1_555

#END
