
#######################################################################
#
#                 Cambridge Crystallographic Data Centre
#                                CCDC 
#
#######################################################################
#
# If this CIF has been generated from an entry in the Cambridge 
# Structural Database, then it will include bibliographic, chemical, 
# crystal, experimental, refinement or atomic coordinate data resulting 
# from the CCDC's data processing and validation procedures.
#
#######################################################################

data_TECREB
_chemical_formula_moiety         'C33 H40 P1 1+,F6 P1 1-'
_chemical_name_systematic        
'tributyl[(perylen-3-yl)methyl]phosphanium hexafluorophosphate'
_symmetry_cell_setting           orthorhombic
_symmetry_space_group_name_H-M   'P b c n'
_symmetry_Int_Tables_number      60
_space_group_name_Hall           '-P 2n 2ab'
loop_
_symmetry_equiv_pos_site_id
_symmetry_equiv_pos_as_xyz
1 x,y,z
2 1/2-x,1/2-y,1/2+z
3 -x,y,1/2-z
4 1/2+x,1/2-y,-z
5 -x,-y,-z
6 1/2+x,1/2+y,1/2-z
7 x,-y,1/2+z
8 1/2-x,1/2+y,z
_cell_length_a                   19.3848(5)
_cell_length_b                   18.6400(5)
_cell_length_c                   16.7392(4)
_cell_angle_alpha                90
_cell_angle_beta                 90
_cell_angle_gamma                90
_cell_volume                     6048.42
_exptl_crystal_colour            'orangish orange'
_exptl_crystal_description       block
_cell_formula_units_Z            8
loop_
_atom_site_label
_atom_site_type_symbol
_atom_site_fract_x
_atom_site_fract_y
_atom_site_fract_z
P1 P 0.68008(7) 0.28399(9) 0.55210(9)
C1 C 0.5830(2) 0.1627(3) 0.1294(3)
C2 C 0.5995(3) 0.1495(3) 0.4235(3)
H1 H 0.6040 0.1221 0.4696
C3 C 0.5830(2) 0.2382(3) 0.1361(3)
C4 C 0.5899(2) 0.2301(3) 0.2832(3)
C5 C 0.5854(3) 0.1180(3) 0.1991(3)
C6 C 0.5866(3) 0.2710(3) 0.2144(3)
C7 C 0.5912(2) 0.1522(4) 0.2778(3)
C8 C 0.5958(3) 0.2236(3) 0.4298(3)
C9 C 0.5868(3) 0.3398(3) 0.3613(3)
H2 H 0.5859 0.3628 0.4106
C10 C 0.5730(3) 0.2408(4) -0.0110(3)
H3 H 0.5709 0.2673 -0.0579
C11 C 0.5910(3) 0.2649(3) 0.3590(3)
C12 C 0.5761(3) 0.1293(4) 0.0536(3)
C13 C 0.5961(3) 0.2601(4) 0.5111(3)
H4 H 0.5732 0.2287 0.5489
H5 H 0.5688 0.3035 0.5071
C14 C 0.5723(3) 0.0501(4) 0.0498(4)
H6 H 0.5681 0.0271 0.0007
C15 C 0.5968(3) 0.1150(3) 0.3485(3)
H7 H 0.5987 0.0651 0.3468
C16 C 0.5768(3) 0.2764(4) 0.0630(4)
H8 H 0.5752 0.3263 0.0641
C17 C 0.5813(3) 0.0436(3) 0.1934(4)
H9 H 0.5828 0.0158 0.2395
C18 C 0.6637(4) 0.3036(4) 0.6553(4)
H10 H 0.6319 0.3438 0.6581
H11 H 0.6409 0.2626 0.6792
C19 C 0.5836(3) 0.3462(3) 0.2199(4)
H12 H 0.5813 0.3738 0.1737
C20 C 0.5841(3) 0.3794(3) 0.2944(4)
H13 H 0.5825 0.4291 0.2978
C21 C 0.5725(3) 0.1690(5) -0.0146(4)
H14 H 0.5697 0.1461 -0.0639
C22 C 0.7392(3) 0.2113(4) 0.5384(4)
H15 H 0.7350 0.1944 0.4838
H16 H 0.7857 0.2297 0.5449
C23 C 0.5748(4) 0.0107(4) 0.1191(4)
H17 H 0.5722 -0.0390 0.1163
C24 C 0.7509(4) 0.3490(5) 0.4248(4)
H18 H 0.7188 0.3243 0.3898
H19 H 0.7918 0.3194 0.4303
C25 C 0.7182(3) 0.3605(4) 0.5058(4)
H20 H 0.6828 0.3971 0.5002
H21 H 0.7531 0.3794 0.5415
C26 C 0.7302(4) 0.1488(4) 0.5932(4)
H22 H 0.6821 0.1346 0.5941
H23 H 0.7434 0.1625 0.6470
C27 C 0.7766(5) 0.0829(5) 0.5642(6)
H24 H 0.7573 0.0632 0.5155
H25 H 0.8227 0.1000 0.5522
C28 C 0.7282(4) 0.3220(5) 0.7060(4)
H26 H 0.7630 0.2854 0.6974
H27 H 0.7470 0.3674 0.6879
C29 C 0.7131(5) 0.3271(5) 0.7937(5)
H28 H 0.7558 0.3361 0.8223
H29 H 0.6947 0.2817 0.8122
C30 C 0.7704(7) 0.4218(7) 0.3886(6)
H30 H 0.7312 0.4538 0.3933
H31 H 0.8078 0.4422 0.4198
C31 C 0.7807(6) 0.0265(5) 0.6243(7)
H32 H 0.7858 -0.0192 0.5984
H33 H 0.7394 0.0265 0.6558
H34 H 0.8198 0.0349 0.6583
C32 C 0.6628(8) 0.3855(8) 0.8122(6)
H35 H 0.6803 0.4304 0.7928
H36 H 0.6561 0.3884 0.8689
H37 H 0.6195 0.3752 0.7867
C33 C 0.7891(8) 0.4195(12) 0.3148(9)
H38 H 0.7507 0.4320 0.2814
H39 H 0.8045 0.3720 0.3019
H40 H 0.8261 0.4529 0.3061
P2 P 1.0000 0.33342(12) 0.2500
F1 F 0.9578(2) 0.3949(2) 0.2937(2)
F2 F 0.9490(3) 0.3337(3) 0.1758(3)
F3 F 0.9553(4) 0.2745(3) 0.2942(3)
F1B F 1.0422(2) 0.3949(2) 0.2063(2)
F2B F 1.0510(3) 0.3337(3) 0.3242(3)
F3B F 1.0447(4) 0.2745(3) 0.2058(3)
P3 P 0.5000 0.5000 0.5000
F4 F 0.4714(4) 0.4671(3) 0.4229(4)
F5 F 0.5746(3) 0.4957(3) 0.4613(5)
F6 F 0.4910(6) 0.5789(3) 0.4661(5)
F4D F 0.5286(4) 0.5329(3) 0.5771(4)
F5D F 0.4254(3) 0.5043(3) 0.5387(5)
F6D F 0.5090(6) 0.4211(3) 0.5339(5)
loop_
_geom_bond_atom_site_label_1
_geom_bond_atom_site_label_2
_geom_bond_site_symmetry_1
_geom_bond_site_symmetry_2
P1 C13 1_555 1_555
C1 C3 1_555 1_555
C2 H1 1_555 1_555
C3 C6 1_555 1_555
C4 C6 1_555 1_555
C5 C1 1_555 1_555
C6 C19 1_555 1_555
C7 C4 1_555 1_555
C8 C2 1_555 1_555
C9 H2 1_555 1_555
C10 H3 1_555 1_555
C11 C4 1_555 1_555
C12 C1 1_555 1_555
C13 C8 1_555 1_555
H4 C13 1_555 1_555
H5 C13 1_555 1_555
C14 C12 1_555 1_555
H6 C14 1_555 1_555
C15 C2 1_555 1_555
H7 C15 1_555 1_555
C16 C3 1_555 1_555
H8 C16 1_555 1_555
C17 C5 1_555 1_555
H9 C17 1_555 1_555
C18 P1 1_555 1_555
H10 C18 1_555 1_555
H11 C18 1_555 1_555
C19 H12 1_555 1_555
C20 C9 1_555 1_555
H13 C20 1_555 1_555
C21 C10 1_555 1_555
H14 C21 1_555 1_555
C22 P1 1_555 1_555
H15 C22 1_555 1_555
H16 C22 1_555 1_555
C23 C14 1_555 1_555
H17 C23 1_555 1_555
C24 H18 1_555 1_555
H19 C24 1_555 1_555
C25 P1 1_555 1_555
H20 C25 1_555 1_555
H21 C25 1_555 1_555
C26 C22 1_555 1_555
H22 C26 1_555 1_555
H23 C26 1_555 1_555
C27 C26 1_555 1_555
H24 C27 1_555 1_555
H25 C27 1_555 1_555
C28 C18 1_555 1_555
H26 C28 1_555 1_555
H27 C28 1_555 1_555
C29 C28 1_555 1_555
H28 C29 1_555 1_555
H29 C29 1_555 1_555
C30 C24 1_555 1_555
H30 C30 1_555 1_555
H31 C30 1_555 1_555
C31 C27 1_555 1_555
H32 C31 1_555 1_555
H33 C31 1_555 1_555
H34 C31 1_555 1_555
C32 C29 1_555 1_555
H35 C32 1_555 1_555
H36 C32 1_555 1_555
H37 C32 1_555 1_555
C33 C30 1_555 1_555
H38 C33 1_555 1_555
H39 C33 1_555 1_555
H40 C33 1_555 1_555
P2 F1 1_555 1_555
F2 P2 1_555 1_555
F3 P2 1_555 1_555
P3 F4 1_555 1_555
F5 P3 1_555 1_555
F6 P3 1_555 1_555
F1B P2 1_555 1_555
F2B P2 1_555 1_555
F3B P2 1_555 1_555
F4D P3 1_555 1_555
F5D P3 1_555 1_555
F6D P3 1_555 1_555
C5 C7 1_555 1_555
C7 C15 1_555 1_555
C8 C11 1_555 1_555
C9 C11 1_555 1_555
C10 C16 1_555 1_555
C12 C21 1_555 1_555
C17 C23 1_555 1_555
C19 C20 1_555 1_555
C24 C25 1_555 1_555

#END
