
#######################################################################
#
#                 Cambridge Crystallographic Data Centre
#                                CCDC 
#
#######################################################################
#
# If this CIF has been generated from an entry in the Cambridge 
# Structural Database, then it will include bibliographic, chemical, 
# crystal, experimental, refinement or atomic coordinate data resulting 
# from the CCDC's data processing and validation procedures.
#
#######################################################################

data_TECTAX
_chemical_formula_moiety         'C19 H13 Cl1 O2'
_chemical_name_systematic        
(3-(4-Chlorophenyl)oxiran-2-yl)(2-naphthyl)methanone
_symmetry_cell_setting           monoclinic
_symmetry_space_group_name_H-M   'P 21'
_symmetry_Int_Tables_number      4
_space_group_name_Hall           'P 2yb'
loop_
_symmetry_equiv_pos_site_id
_symmetry_equiv_pos_as_xyz
1 x,y,z
2 -x,1/2+y,-z
_cell_length_a                   6.0842(13)
_cell_length_b                   8.3402(18)
_cell_length_c                   14.593(3)
_cell_angle_alpha                90
_cell_angle_beta                 96.849(4)
_cell_angle_gamma                90
_cell_volume                     735.215
_exptl_crystal_colour            colorless
_exptl_crystal_description       block
_cell_formula_units_Z            2
_exptl_crystal_recrystallization_method ethanol
loop_
_atom_site_label
_atom_site_type_symbol
_atom_site_fract_x
_atom_site_fract_y
_atom_site_fract_z
Cl1 Cl 0.32312(15) -0.05435(12) 0.87886(6)
O1 O 1.0422(4) 0.4307(3) 0.47388(13)
O2 O 0.6175(4) 0.3999(3) 0.52870(14)
C1 C 1.1706(4) 0.2666(4) 0.3230(2)
H1 H 1.2746 0.3346 0.3547
C2 C 1.2106(5) 0.2044(3) 0.2410(2)
H2 H 1.3420 0.2294 0.2176
C3 C 1.0559(4) 0.1021(3) 0.19055(19)
C4 C 1.0882(5) 0.0382(4) 0.1033(2)
H3 H 1.2159 0.0644 0.0774
C5 C 0.9360(5) -0.0609(4) 0.05667(19)
H4 H 0.9606 -0.1021 -0.0004
C6 C 0.7432(5) -0.1005(4) 0.09459(18)
H5 H 0.6398 -0.1683 0.0625
C7 C 0.7045(4) -0.0405(4) 0.17864(18)
H6 H 0.5750 -0.0677 0.2029
C8 C 0.8585(4) 0.0618(3) 0.22842(18)
C9 C 0.8237(4) 0.1267(3) 0.31522(18)
H7 H 0.6968 0.0985 0.3412
C10 C 0.9722(4) 0.2301(3) 0.36195(18)
C11 C 0.9300(5) 0.3150(4) 0.44705(19)
C12 C 0.7434(4) 0.2665(3) 0.50025(18)
H8 H 0.6629 0.1677 0.4815
C13 C 0.7567(5) 0.3139(3) 0.59747(18)
H9 H 0.8933 0.3691 0.6221
C14 C 0.6466(4) 0.2221(3) 0.66593(18)
C15 C 0.4324(5) 0.1639(3) 0.6460(2)
H10 H 0.3551 0.1821 0.5881
C16 C 0.3332(5) 0.0798(3) 0.7109(2)
H11 H 0.1895 0.0415 0.6971
C17 C 0.4487(5) 0.0528(3) 0.7968(2)
C18 C 0.6603(5) 0.1112(3) 0.8195(2)
H12 H 0.7359 0.0945 0.8779
C19 C 0.7578(5) 0.1957(3) 0.7529(2)
H13 H 0.9007 0.2353 0.7671
loop_
_geom_bond_atom_site_label_1
_geom_bond_atom_site_label_2
_geom_bond_site_symmetry_1
_geom_bond_site_symmetry_2
Cl1 C17 1_555 1_555
O1 C11 1_555 1_555
O2 C12 1_555 1_555
C1 H1 1_555 1_555
C2 C1 1_555 1_555
H2 C2 1_555 1_555
C3 C2 1_555 1_555
C4 C3 1_555 1_555
H3 C4 1_555 1_555
C5 C4 1_555 1_555
H4 C5 1_555 1_555
C6 C5 1_555 1_555
H5 C6 1_555 1_555
C7 C6 1_555 1_555
H6 C7 1_555 1_555
C8 C3 1_555 1_555
C9 C8 1_555 1_555
H7 C9 1_555 1_555
C10 C1 1_555 1_555
C11 C10 1_555 1_555
C12 C11 1_555 1_555
H8 C12 1_555 1_555
C13 O2 1_555 1_555
H9 C13 1_555 1_555
C14 C13 1_555 1_555
C15 C14 1_555 1_555
H10 C15 1_555 1_555
C16 C15 1_555 1_555
H11 C16 1_555 1_555
C17 C16 1_555 1_555
C18 C17 1_555 1_555
H12 C18 1_555 1_555
C19 C14 1_555 1_555
H13 C19 1_555 1_555
C7 C8 1_555 1_555
C9 C10 1_555 1_555
C12 C13 1_555 1_555
C18 C19 1_555 1_555

#END
