
#######################################################################
#
#                 Cambridge Crystallographic Data Centre
#                                CCDC 
#
#######################################################################
#
# If this CIF has been generated from an entry in the Cambridge 
# Structural Database, then it will include bibliographic, chemical, 
# crystal, experimental, refinement or atomic coordinate data resulting 
# from the CCDC's data processing and validation procedures.
#
#######################################################################

data_TECVIG
_chemical_formula_moiety         'C14 H13 N1 O1 S1'
_chemical_name_systematic        
10-Oxa-2-thia[3](1,3)benzeno[2](2,6)pyridinophane
_symmetry_cell_setting           monoclinic
_symmetry_space_group_name_H-M   'C 2/c'
_symmetry_Int_Tables_number      15
_space_group_name_Hall           '-C 2yn'
loop_
_symmetry_equiv_pos_site_id
_symmetry_equiv_pos_as_xyz
1 x,y,z
2 -x,y,1/2-z
3 1/2+x,1/2+y,z
4 1/2-x,1/2+y,1/2-z
5 -x,-y,-z
6 x,-y,1/2+z
7 1/2-x,1/2-y,-z
8 1/2+x,1/2-y,1/2+z
_cell_length_a                   21.538(3)
_cell_length_b                   8.186(1)
_cell_length_c                   14.230(2)
_cell_angle_alpha                90
_cell_angle_beta                 108.03(1)
_cell_angle_gamma                90
_cell_volume                     2385.69
_exptl_crystal_colour            colorless
_cell_formula_units_Z            8
loop_
_atom_site_label
_atom_site_type_symbol
_atom_site_fract_x
_atom_site_fract_y
_atom_site_fract_z
C1 C 0.30318(14) 0.42222(37) 0.24968(20)
H1 H 0.29662(14) 0.42089(37) 0.17981(20)
H2 H 0.26115(14) 0.41381(37) 0.25946(20)
S1 S 0.33971(3) 0.61776(9) 0.30054(5)
C2 C 0.31983(13) 0.64160(34) 0.41554(20)
H3 H 0.27490(13) 0.61304(34) 0.40444(20)
H4 H 0.32530(13) 0.75426(34) 0.43510(20)
C3 C 0.36238(12) 0.53975(32) 0.49837(18)
C4 C 0.42812(13) 0.57381(37) 0.54353(19)
H5 H 0.44650(13) 0.67317(37) 0.52797(19)
C5 C 0.46627(13) 0.46269(39) 0.60942(19)
H6 H 0.51121(13) 0.48704(39) 0.64358(19)
C6 C 0.43865(13) 0.31736(37) 0.62496(19)
H7 H 0.46443(13) 0.23593(37) 0.66835(19)
C7 C 0.37254(13) 0.29109(33) 0.57798(18)
N1 N 0.33438(10) 0.40393(27) 0.51968(15)
C8 C 0.34141(14) 0.12584(34) 0.57581(20)
H8 H 0.29478(14) 0.13633(34) 0.55076(20)
H9 H 0.35257(14) 0.08332(34) 0.64182(20)
O1 O 0.36398(9) 0.01323(23) 0.51403(14)
C9 C 0.37069(12) 0.07755(33) 0.42728(19)
C10 C 0.42415(14) 0.02693(36) 0.40081(22)
H10 H 0.45214(14) -0.05825(36) 0.43688(22)
C11 C 0.43612(17) 0.10054(41) 0.32127(26)
H11 H 0.47218(17) 0.06418(41) 0.30048(26)
C12 C 0.39751(16) 0.22565(40) 0.27065(21)
H12 H 0.40839(16) 0.28061(40) 0.21825(21)
C13 C 0.34259(12) 0.27461(35) 0.29536(17)
C14 C 0.32744(11) 0.19053(33) 0.37039(18)
H13 H 0.28636(11) 0.20951(33) 0.38174(18)
loop_
_geom_bond_atom_site_label_1
_geom_bond_atom_site_label_2
_geom_bond_site_symmetry_1
_geom_bond_site_symmetry_2
C1 H1 1_555 1_555
H2 C1 1_555 1_555
S1 C1 1_555 1_555
C2 S1 1_555 1_555
H3 C2 1_555 1_555
H4 C2 1_555 1_555
C3 C2 1_555 1_555
C4 C3 1_555 1_555
H5 C4 1_555 1_555
C5 C4 1_555 1_555
H6 C5 1_555 1_555
C6 C5 1_555 1_555
H7 C6 1_555 1_555
C7 C6 1_555 1_555
N1 C3 1_555 1_555
C8 C7 1_555 1_555
H8 C8 1_555 1_555
H9 C8 1_555 1_555
O1 C8 1_555 1_555
C9 O1 1_555 1_555
C10 C9 1_555 1_555
H10 C10 1_555 1_555
C11 C10 1_555 1_555
H11 C11 1_555 1_555
C12 C11 1_555 1_555
H12 C12 1_555 1_555
C13 C1 1_555 1_555
C14 C9 1_555 1_555
H13 C14 1_555 1_555
C7 N1 1_555 1_555
C12 C13 1_555 1_555
C13 C14 1_555 1_555

#END
