
#######################################################################
#
#                 Cambridge Crystallographic Data Centre
#                                CCDC 
#
#######################################################################
#
# If this CIF has been generated from an entry in the Cambridge 
# Structural Database, then it will include bibliographic, chemical, 
# crystal, experimental, refinement or atomic coordinate data resulting 
# from the CCDC's data processing and validation procedures.
#
#######################################################################

data_TECVUU
_chemical_formula_moiety         'C66 H72 N6 S6,C1 H3 I1'
_chemical_name_systematic        
'2,23,25,46,65,66-Hexaethyl-12,13,35,36,55,56-hexathia-5,20,28,43,48,63-hexaazadecacyclo[22.22.18.1^3,45^.1^22,26^.0^6,11^.0^14,19^.0^29,34^.0^37,42^.0^49,54^.0^57,62^]hexahexaconta-1,3(65),6,8,10,14,16,18,22(66),23,25,29,31,33,37,39,41,45,49,51,53,57,59,61-tetracosaene iodomethane unknown solvate'
_symmetry_cell_setting           rhombohedral
_symmetry_space_group_name_H-M   'R -3 c'
_symmetry_Int_Tables_number      167
_space_group_name_Hall           '-R 3 2"c'
loop_
_symmetry_equiv_pos_site_id
_symmetry_equiv_pos_as_xyz
1 x,y,z
2 -y,x-y,z
3 -x+y,-x,z
4 y,x,1/2-z
5 x-y,-y,1/2-z
6 -x,-x+y,1/2-z
7 2/3+x,1/3+y,1/3+z
8 2/3-y,1/3+x-y,1/3+z
9 2/3-x+y,1/3-x,1/3+z
10 2/3+y,1/3+x,5/6-z
11 2/3+x-y,1/3-y,5/6-z
12 2/3-x,1/3-x+y,5/6-z
13 1/3+x,2/3+y,2/3+z
14 1/3-y,2/3+x-y,2/3+z
15 1/3-x+y,2/3-x,2/3+z
16 1/3+y,2/3+x,1/6-z
17 1/3+x-y,2/3-y,1/6-z
18 1/3-x,2/3-x+y,1/6-z
19 -x,-y,-z
20 y,-x+y,-z
21 x-y,x,-z
22 -y,-x,1/2+z
23 -x+y,y,1/2+z
24 x,x-y,1/2+z
25 1/3-x,2/3-y,2/3-z
26 1/3+y,2/3-x+y,2/3-z
27 1/3+x-y,2/3+x,2/3-z
28 1/3-y,2/3-x,1/6+z
29 1/3-x+y,2/3+y,1/6+z
30 1/3+x,2/3+x-y,1/6+z
31 2/3-x,1/3-y,1/3-z
32 2/3+y,1/3-x+y,1/3-z
33 2/3+x-y,1/3+x,1/3-z
34 2/3-y,1/3-x,5/6+z
35 2/3-x+y,1/3+y,5/6+z
36 2/3+x,1/3+x-y,5/6+z
_cell_length_a                   17.8042(2)
_cell_length_b                   17.8042(2)
_cell_length_c                   47.6257(12)
_cell_angle_alpha                90
_cell_angle_beta                 90
_cell_angle_gamma                120
_cell_volume                     13074.3
_exptl_crystal_colour            yellow
_exptl_crystal_description       prism
_cell_formula_units_Z            6
loop_
_atom_site_label
_atom_site_type_symbol
_atom_site_fract_x
_atom_site_fract_y
_atom_site_fract_z
I1 I 0.6667 0.3333 0.0617
I1O I 0.6666 0.3334 0.1050
C1 C 0.9896(3) 0.4009(4) 0.11778(11)
C2 C 1.0688(4) 0.4123(6) 0.11261(15)
H1 H 1.0903 0.4217 0.0940
C3 C 1.1200(4) 0.4106(6) 0.13479(16)
H2 H 1.1735 0.4130 0.1309
C4 C 1.0937(3) 0.4059(4) 0.16155(13)
H3 H 1.1302 0.4092 0.1767
C5 C 1.0139(3) 0.3961(4) 0.16673(11)
H4 H 0.9950 0.3915 0.1857
C6 C 0.9596(3) 0.3928(4) 0.14528(11)
C7 C 0.8462(3) 0.3711(4) 0.17807(9)
H5 H 0.8831 0.4265 0.1881
H6 H 0.8496 0.3246 0.1884
C8 C 0.7531(3) 0.3520(4) 0.17785(9)
C9 C 0.7352(3) 0.4199(4) 0.17747(9)
C10 C 0.8084(3) 0.5128(4) 0.17553(11)
H7 H 0.8569 0.5141 0.1650
H8 H 0.7880 0.5467 0.1648
C11 C 0.8398(4) 0.5533(6) 0.20176(16)
H9 H 0.8858 0.6135 0.1989
H10 H 0.8631 0.5221 0.2123
H11 H 0.7923 0.5525 0.2125
N1 N 0.8778(2) 0.3769(3) 0.15035(8)
H13 H 0.8435 0.3700 0.1361
S1 S 0.92127(10) 0.39672(13) 0.08921(3)
C1P C 0.9220(5) 0.2658(4) 0.04889(11)
C1Q C 0.3437(3) 0.0780(5) 0.04889(11)
C1B C 0.4113(5) 0.0104(3) 0.11778(11)
C1A C 0.5991(4) 0.5887(5) 0.11778(11)
C1O C 0.7342(4) 0.6563(3) 0.04889(11)
C2P C 0.9898(7) 0.2544(6) 0.05406(15)
C2Q C 0.2645(4) 0.0102(7) 0.05406(15)
C2B C 0.3435(7) -0.0688(4) 0.11261(15)
C2A C 0.5877(6) 0.6565(7) 0.11261(15)
C2O C 0.7456(6) 0.7355(4) 0.05406(15)
H1P H 1.0019 0.2450 0.0727
H1Q H 0.2430 -0.0019 0.0727
H1B H 0.3314 -0.0903 0.0940
H1A H 0.5783 0.6686 0.0940
H1O H 0.7550 0.7570 0.0727
C3P C 1.0427(7) 0.2561(6) 0.03188(16)
C3Q C 0.2133(4) -0.0427(7) 0.03188(16)
C3B C 0.2906(7) -0.1200(4) 0.13479(16)
C3A C 0.5894(6) 0.7094(7) 0.13479(16)
C3O C 0.7439(6) 0.7867(4) 0.03188(16)
H2P H 1.0938 0.2537 0.0358
H2Q H 0.1598 -0.0938 0.0358
H2B H 0.2395 -0.1735 0.1309
H2A H 0.5870 0.7605 0.1309
H2O H 0.7463 0.8402 0.0358
C4P C 1.0211(5) 0.2608(4) 0.00512(13)
C4Q C 0.2396(3) -0.0211(5) 0.00512(13)
C4B C 0.3122(5) -0.0937(3) 0.16155(13)
C4A C 0.5941(4) 0.6878(5) 0.16155(13)
C4O C 0.7392(4) 0.7604(3) 0.00512(13)
H3P H 1.0543 0.2575 -0.0100
H3Q H 0.2031 -0.0543 -0.0100
H3B H 0.2790 -0.1302 0.1767
H3A H 0.5908 0.7210 0.1767
H3O H 0.7425 0.7969 -0.0100
C5P C 0.9511(5) 0.2706(4) -0.00006(11)
C5Q C 0.3194(3) 0.0489(5) -0.00006(11)
C5B C 0.3822(5) -0.0139(3) 0.16673(11)
C5A C 0.6039(4) 0.6178(5) 0.16673(11)
C5O C 0.7294(4) 0.6806(3) -0.00006(11)
H4P H 0.9368 0.2752 -0.0190
H4Q H 0.3383 0.0632 -0.0190
H4B H 0.3965 0.0050 0.1857
H4A H 0.6085 0.6035 0.1857
H4O H 0.7248 0.6617 -0.0190
C6P C 0.9001(5) 0.2739(4) 0.02139(11)
C6Q C 0.3737(3) 0.0999(5) 0.02139(11)
C6B C 0.4332(5) 0.0404(3) 0.14528(11)
C6A C 0.6072(4) 0.5668(5) 0.14528(11)
C6O C 0.7261(4) 0.6263(3) 0.02139(11)
C7P C 0.8084(5) 0.2956(4) -0.01140(9)
C7Q C 0.4871(3) 0.1916(5) -0.01140(9)
C7B C 0.5249(5) 0.1538(3) 0.17807(9)
C7A C 0.6289(4) 0.4751(5) 0.17807(9)
C7O C 0.7044(4) 0.5129(3) -0.01140(9)
H5P H 0.7899 0.2402 -0.0214
H5Q H 0.4502 0.2101 -0.0214
H5B H 0.5434 0.1169 0.1881
H5A H 0.5735 0.4566 0.1881
H5O H 0.7598 0.5498 -0.0214
H6P H 0.8583 0.3421 -0.0217
H6Q H 0.4837 0.1417 -0.0217
H6B H 0.4750 0.1504 0.1884
H6A H 0.6754 0.5250 0.1884
H6O H 0.6579 0.5163 -0.0217
C8P C 0.7344(5) 0.3147(4) -0.01118(9)
C8Q C 0.5802(3) 0.2656(5) -0.01118(9)
C8B C 0.5989(5) 0.2469(3) 0.17785(9)
C8A C 0.6480(4) 0.4011(5) 0.17785(9)
C8O C 0.6853(4) 0.4198(3) -0.01118(9)
C9P C 0.6486(5) 0.2468(4) -0.01080(9)
C9B C 0.6847(5) 0.2648(3) 0.17747(9)
C9O C 0.7532(4) 0.4019(3) -0.01080(9)
C9Q C 0.5981(3) 0.3514(5) -0.01080(9)
C9A C 0.5801(4) 0.3153(5) 0.17747(9)
C10O C 0.8461(4) 0.4751(3) -0.00886(11)
C10Q C 0.5249(3) 0.3711(5) -0.00886(11)
C10A C 0.4872(4) 0.2956(5) 0.17553(11)
C10B C 0.7044(5) 0.1916(3) 0.17553(11)
C10P C 0.6289(5) 0.1539(4) -0.00886(11)
H7O H 0.8474 0.5236 0.0017
H7Q H 0.4764 0.3239 0.0017
H7A H 0.4859 0.3428 0.1650
H7B H 0.6572 0.1431 0.1650
H7P H 0.6761 0.1526 0.0017
H8O H 0.8800 0.4547 0.0019
H8Q H 0.5453 0.4254 0.0019
H8A H 0.4533 0.2413 0.1648
H8B H 0.7587 0.2120 0.1648
H8P H 0.5746 0.1200 0.0019
C11O C 0.8866(6) 0.5065(4) -0.03509(16)
C11Q C 0.4935(4) 0.3802(7) -0.03509(16)
C11A C 0.4467(6) 0.2865(7) 0.20176(16)
C11B C 0.7135(7) 0.1602(4) 0.20176(16)
C11P C 0.6198(7) 0.1134(6) -0.03509(16)
H9O H 0.9468 0.5525 -0.0322
H9Q H 0.4475 0.3944 -0.0322
H9A H 0.3865 0.2723 0.1989
H9B H 0.7277 0.1142 0.1989
H9P H 0.6056 0.0532 -0.0322
H10O H 0.8554 0.5298 -0.0456
H10Q H 0.4702 0.3257 -0.0456
H10A H 0.4779 0.3410 0.2123
H10B H 0.6590 0.1369 0.2123
H10P H 0.6743 0.1446 -0.0456
H11O H 0.8858 0.4590 -0.0458
H11Q H 0.5410 0.4269 -0.0458
H11A H 0.4475 0.2398 0.2125
H11B H 0.7602 0.2077 0.2125
H11P H 0.5731 0.1142 -0.0458
N1P N 0.8342(4) 0.2898(3) 0.01632(8)
N1Q N 0.4555(2) 0.1658(4) 0.01632(8)
N1B N 0.4991(4) 0.1222(2) 0.15035(8)
N1A N 0.6231(3) 0.5009(4) 0.15035(8)
N1O N 0.7102(3) 0.5445(2) 0.01632(8)
H13O H 0.7033 0.5102 0.0306
H13A H 0.6300 0.4735 0.1361
H13B H 0.5265 0.1565 0.1361
H13Q H 0.4898 0.1932 0.0306
H13P H 0.8068 0.2967 0.0306
S1P S 0.85788(16) 0.26995(13) 0.07746(3)
S1Q S 0.41206(10) 0.14212(16) 0.07746(3)
S1B S 0.47545(16) 0.07873(10) 0.08921(3)
S1A S 0.60328(13) 0.52455(16) 0.08921(3)
S1O S 0.73005(13) 0.58794(10) 0.07746(3)
C12? C 0.6667 0.3333 0.1058
H12? H 0.6410 0.2780 0.1140
loop_
_geom_bond_atom_site_label_1
_geom_bond_atom_site_label_2
_geom_bond_site_symmetry_1
_geom_bond_site_symmetry_2
C1 C2 1_555 1_555
C2 H1 1_555 1_555
C3 C2 1_555 1_555
H2 C3 1_555 1_555
C4 C3 1_555 1_555
H3 C4 1_555 1_555
C5 C4 1_555 1_555
H4 C5 1_555 1_555
C6 C1 1_555 1_555
C7 H5 1_555 1_555
H6 C7 1_555 1_555
C8 C7 1_555 1_555
C9 C8 1_555 1_555
C10 C9 1_555 1_555
H7 C10 1_555 1_555
H8 C10 1_555 1_555
C11 C10 1_555 1_555
H9 C11 1_555 1_555
H10 C11 1_555 1_555
H11 C11 1_555 1_555
I1 I1O 1_555 1_555
N1 C6 1_555 1_555
H13 N1 1_555 1_555
S1 C1 1_555 1_555
C1P C2P 1_555 1_555
C1Q C2Q 1_555 1_555
C1B C2B 1_555 1_555
C1A C2A 1_555 1_555
C1O C2O 1_555 1_555
C2P H1P 1_555 1_555
C2Q H1Q 1_555 1_555
C2B H1B 1_555 1_555
C2A H1A 1_555 1_555
C2O H1O 1_555 1_555
C3P C2P 1_555 1_555
C3Q C2Q 1_555 1_555
C3B C2B 1_555 1_555
C3A C2A 1_555 1_555
C3O C2O 1_555 1_555
H2P C3P 1_555 1_555
H2Q C3Q 1_555 1_555
H2B C3B 1_555 1_555
H2A C3A 1_555 1_555
H2O C3O 1_555 1_555
C4P C3P 1_555 1_555
C4Q C3Q 1_555 1_555
C4B C3B 1_555 1_555
C4A C3A 1_555 1_555
C4O C3O 1_555 1_555
H3P C4P 1_555 1_555
H3Q C4Q 1_555 1_555
H3B C4B 1_555 1_555
H3A C4A 1_555 1_555
H3O C4O 1_555 1_555
C5P C4P 1_555 1_555
C5Q C4Q 1_555 1_555
C5B C4B 1_555 1_555
C5A C4A 1_555 1_555
C5O C4O 1_555 1_555
H4P C5P 1_555 1_555
H4Q C5Q 1_555 1_555
H4B C5B 1_555 1_555
H4A C5A 1_555 1_555
H4O C5O 1_555 1_555
C6P C1P 1_555 1_555
C6Q C1Q 1_555 1_555
C6B C1B 1_555 1_555
C6A C1A 1_555 1_555
C6O C1O 1_555 1_555
C7P H5P 1_555 1_555
C7Q H5Q 1_555 1_555
C7B H5B 1_555 1_555
C7A H5A 1_555 1_555
C7O H5O 1_555 1_555
H6P C7P 1_555 1_555
H6Q C7Q 1_555 1_555
H6B C7B 1_555 1_555
H6A C7A 1_555 1_555
H6O C7O 1_555 1_555
C8P C7P 1_555 1_555
C8Q C7Q 1_555 1_555
C8B C7B 1_555 1_555
C8A C9 1_555 1_555
C8O C7O 1_555 1_555
C9P C8P 1_555 1_555
C9B C8 1_555 1_555
C9O C8P 1_555 1_555
C9Q C8Q 1_555 1_555
C9A C8B 1_555 1_555
C10O C9O 1_555 1_555
C10Q C9Q 1_555 1_555
C10A C9A 1_555 1_555
C10B C9B 1_555 1_555
C10P C9P 1_555 1_555
H7O C10O 1_555 1_555
H7Q C10Q 1_555 1_555
H7A C10A 1_555 1_555
H7B C10B 1_555 1_555
H7P C10P 1_555 1_555
H8O C10O 1_555 1_555
H8Q C10Q 1_555 1_555
H8A C10A 1_555 1_555
H8B C10B 1_555 1_555
H8P C10P 1_555 1_555
C11O C10O 1_555 1_555
C11Q C10Q 1_555 1_555
C11A C10A 1_555 1_555
C11B C10B 1_555 1_555
C11P C10P 1_555 1_555
H9O C11O 1_555 1_555
H9Q C11Q 1_555 1_555
H9A C11A 1_555 1_555
H9B C11B 1_555 1_555
H9P C11P 1_555 1_555
H10O C11O 1_555 1_555
H10Q C11Q 1_555 1_555
H10A C11A 1_555 1_555
H10B C11B 1_555 1_555
H10P C11P 1_555 1_555
H11O C11O 1_555 1_555
H11Q C11Q 1_555 1_555
H11A C11A 1_555 1_555
H11B C11B 1_555 1_555
H11P C11P 1_555 1_555
N1P C6P 1_555 1_555
N1Q C6Q 1_555 1_555
N1B C6B 1_555 1_555
N1A C6A 1_555 1_555
N1O C6O 1_555 1_555
H13O N1O 1_555 1_555
H13A N1A 1_555 1_555
H13B N1B 1_555 1_555
H13Q N1Q 1_555 1_555
H13P N1P 1_555 1_555
S1P S1 1_555 1_555
S1Q C1Q 1_555 1_555
S1B C1B 1_555 1_555
S1A C1A 1_555 1_555
S1O C1O 1_555 1_555
C5 C6 1_555 1_555
C7 N1 1_555 1_555
C1P S1P 1_555 1_555
C5P C6P 1_555 1_555
C5Q C6Q 1_555 1_555
C5B C6B 1_555 1_555
C5A C6A 1_555 1_555
C5O C6O 1_555 1_555
C7P N1P 1_555 1_555
C7Q N1Q 1_555 1_555
C7B N1B 1_555 1_555
C7A C8A 1_555 1_555
C7A N1A 1_555 1_555
C7O N1O 1_555 1_555
C8Q C9P 1_555 1_555
C8B C9B 1_555 1_555
C8A C9A 1_555 1_555
C8O C9O 1_555 1_555
C8O C9Q 1_555 1_555
S1Q S1B 1_555 1_555
S1A S1O 1_555 1_555

#END
