
#######################################################################
#
#                 Cambridge Crystallographic Data Centre
#                                CCDC 
#
#######################################################################
#
# If this CIF has been generated from an entry in the Cambridge 
# Structural Database, then it will include bibliographic, chemical, 
# crystal, experimental, refinement or atomic coordinate data resulting 
# from the CCDC's data processing and validation procedures.
#
#######################################################################

data_TECXEH
_chemical_compound_source        'isolated from Trichilia sinensis'
_chemical_name_common            'Trichiliasinenoid A methanol solvate'
_chemical_formula_moiety         'C33 H33 N1 O10,C1 H4 O1'
_chemical_name_systematic        
'6-(3-furyl)-16-(methoxycarbonyl)-1,5,15-trimethyl-8,18,20-trioxo-7,17-dioxapentacyclo[11.6.1.0^2,11^.0^5,10^.0^15,19^]icos-11-en-14-yl nicotinate methanol solvate'
_symmetry_cell_setting           orthorhombic
_symmetry_space_group_name_H-M   'P 21 21 21'
_symmetry_Int_Tables_number      19
_space_group_name_Hall           'P 2ac 2ab'
loop_
_symmetry_equiv_pos_site_id
_symmetry_equiv_pos_as_xyz
1 x,y,z
2 1/2+x,1/2-y,-z
3 -x,1/2+y,1/2-z
4 1/2-x,-y,1/2+z
_cell_length_a                   8.1596(3)
_cell_length_b                   13.1185(4)
_cell_length_c                   28.3076(10)
_cell_angle_alpha                90
_cell_angle_beta                 90
_cell_angle_gamma                90
_cell_volume                     3030.09
_exptl_crystal_colour            colorless
_exptl_crystal_description       needle
_cell_formula_units_Z            4
loop_
_atom_site_label
_atom_site_type_symbol
_atom_site_fract_x
_atom_site_fract_y
_atom_site_fract_z
O1 O 0.3704(4) 0.8590(2) 0.83154(11)
O2 O 0.8580(7) 1.3103(4) 0.8767(2)
O3 O 0.3902(4) 1.1470(3) 0.91302(13)
O4 O 0.1292(5) 1.1141(3) 0.91915(15)
O5 O 0.5336(4) 0.6402(3) 0.95581(13)
O6 O 0.8639(4) 0.8113(3) 0.80367(12)
O7 O 0.2555(4) 0.7750(3) 0.77040(13)
N1 N 0.0197(6) 1.0436(4) 0.7292(2)
O8 O 0.6765(4) 0.9804(3) 0.80064(13)
O9 O 0.5505(5) 0.9098(3) 0.73794(14)
O10 O 1.0182(4) 0.8383(3) 0.86794(13)
C1 C 0.3898(6) 0.8678(4) 0.92686(16)
H1 H 0.2910 0.9043 0.9214
C2 C 0.0277(7) 1.1227(5) 0.7592(3)
H2 H -0.0301 1.1833 0.7514
C3 C 0.1158(7) 1.1203(4) 0.8009(2)
H3 H 0.1196 1.1785 0.8208
C4 C 0.1974(7) 1.0333(4) 0.8130(2)
H4 H 0.2573 1.0295 0.8417
C5 C 0.1912(6) 0.9499(4) 0.78241(19)
C6 C 0.2726(5) 0.8513(4) 0.79318(17)
C7 C 0.4369(6) 0.7649(4) 0.84927(17)
H5 H 0.3762 0.7067 0.8346
C8 C 0.4083(6) 0.7631(4) 0.90403(17)
H6 H 0.3070 0.7226 0.9107
C9 C 0.5038(6) 0.9116(4) 0.95410(17)
C10 C 0.4695(6) 1.0039(4) 0.98485(17)
H7 H 0.4862 0.9827 1.0184
C11 C 0.5922(6) 1.0915(4) 0.97451(17)
C12 C 0.5632(6) 1.1246(4) 0.92319(18)
H8 H 0.5973 1.0668 0.9023
C13 C 0.6549(7) 1.2174(4) 0.90749(19)
C14 C 0.6082(12) 1.3208(5) 0.9091(3)
H9 H 0.5078 1.3478 0.9206
C15 C 0.7365(14) 1.3742(6) 0.8906(3)
H10 H 0.7404 1.4463 0.8878
C16 C 0.8066(8) 1.2179(6) 0.8880(3)
H11 H 0.8696 1.1580 0.8830
C17 C 0.2639(6) 1.1021(4) 0.93561(19)
C18 C 0.2956(6) 1.0444(4) 0.98069(19)
H12 H 0.2182 0.9864 0.9826
H13 H 0.2732 1.0900 1.0078
C19 C 0.5511(6) 0.7143(4) 0.93047(17)
C20 C 0.7072(6) 0.7758(4) 0.92660(17)
C21 C 0.8553(6) 0.7134(4) 0.94360(18)
H14 H 0.8303 0.6826 0.9743
H15 H 0.9508 0.7582 0.9467
H16 H 0.8793 0.6595 0.9206
C22 C 0.7209(5) 0.8142(4) 0.87486(17)
H17 H 0.6742 0.8846 0.8748
C23 C 0.8863(6) 0.8223(4) 0.85120(17)
C24 C 0.6929(6) 0.8003(4) 0.79194(17)
H18 H 0.6824 0.7490 0.7660
C25 C 0.6206(6) 0.7535(4) 0.83827(17)
C26 C 0.1012(6) 0.9594(5) 0.7410(2)
H19 H 0.0976 0.9029 0.7201
C27 C 0.6617(6) 0.6397(4) 0.83791(18)
H20 H 0.6249 0.6086 0.8676
H21 H 0.7804 0.6308 0.8346
H22 H 0.6060 0.6068 0.8113
C28 C 0.6299(6) 0.9025(4) 0.77411(18)
C29 C 0.6284(7) 1.0804(4) 0.7833(2)
H23 H 0.6636 1.0879 0.7503
H24 H 0.6801 1.1333 0.8026
H25 H 0.5089 1.0872 0.7851
C30 C 0.6759(6) 0.8693(4) 0.96011(17)
H26 H 0.6852 0.8440 0.9933
C31 C 0.8052(6) 0.9539(4) 0.95376(18)
H27 H 0.9135 0.9276 0.9637
H28 H 0.8125 0.9720 0.9199
C32 C 0.7656(6) 1.0495(4) 0.98211(18)
H29 H 0.8457 1.1032 0.9737
H30 H 0.7800 1.0341 1.0161
C33 C 0.5668(7) 1.1808(4) 1.0092(2)
H31 H 0.5571 1.1542 1.0414
H32 H 0.4665 1.2177 1.0008
H33 H 0.6607 1.2272 1.0073
O11 O 0.1327(9) 0.5683(6) 0.8617(2)
H34 H 0.0666 0.5503 0.8405
C34 C 0.2449(13) 0.4907(6) 0.8696(3)
H35 H 0.3314 0.4938 0.8456
H36 H 0.1892 0.4247 0.8677
H37 H 0.2935 0.4989 0.9010
loop_
_geom_bond_atom_site_label_1
_geom_bond_atom_site_label_2
_geom_bond_site_symmetry_1
_geom_bond_site_symmetry_2
O1 C6 1_555 1_555
O2 C15 1_555 1_555
O3 C12 1_555 1_555
O4 C17 1_555 1_555
O5 C19 1_555 1_555
O6 C23 1_555 1_555
O7 C6 1_555 1_555
N1 C2 1_555 1_555
O8 C28 1_555 1_555
O9 C28 1_555 1_555
O10 C23 1_555 1_555
C1 H1 1_555 1_555
C2 H2 1_555 1_555
C3 C2 1_555 1_555
H3 C3 1_555 1_555
C4 C3 1_555 1_555
H4 C4 1_555 1_555
C5 C4 1_555 1_555
C6 C5 1_555 1_555
C7 O1 1_555 1_555
H5 C7 1_555 1_555
C8 C1 1_555 1_555
H6 C8 1_555 1_555
C9 C1 1_555 1_555
C10 C9 1_555 1_555
H7 C10 1_555 1_555
C11 C10 1_555 1_555
C12 C11 1_555 1_555
H8 C12 1_555 1_555
C13 C12 1_555 1_555
C14 C13 1_555 1_555
H9 C14 1_555 1_555
C15 C14 1_555 1_555
H10 C15 1_555 1_555
C16 O2 1_555 1_555
H11 C16 1_555 1_555
C17 O3 1_555 1_555
C18 C10 1_555 1_555
H12 C18 1_555 1_555
H13 C18 1_555 1_555
C19 C8 1_555 1_555
C20 C19 1_555 1_555
C21 C20 1_555 1_555
H14 C21 1_555 1_555
H15 C21 1_555 1_555
H16 C21 1_555 1_555
C22 C20 1_555 1_555
H17 C22 1_555 1_555
C23 C22 1_555 1_555
C24 O6 1_555 1_555
H18 C24 1_555 1_555
C25 C7 1_555 1_555
C26 N1 1_555 1_555
H19 C26 1_555 1_555
C27 C25 1_555 1_555
H20 C27 1_555 1_555
H21 C27 1_555 1_555
H22 C27 1_555 1_555
C28 C24 1_555 1_555
C29 O8 1_555 1_555
H23 C29 1_555 1_555
H24 C29 1_555 1_555
H25 C29 1_555 1_555
C30 C9 1_555 1_555
H26 C30 1_555 1_555
C31 C30 1_555 1_555
H27 C31 1_555 1_555
H28 C31 1_555 1_555
C32 C11 1_555 1_555
H29 C32 1_555 1_555
H30 C32 1_555 1_555
C33 C11 1_555 1_555
H31 C33 1_555 1_555
H32 C33 1_555 1_555
H33 C33 1_555 1_555
O11 H34 1_555 1_555
C34 O11 1_555 1_555
H35 C34 1_555 1_555
H36 C34 1_555 1_555
H37 C34 1_555 1_555
C5 C26 1_555 1_555
C7 C8 1_555 1_555
C13 C16 1_555 1_555
C17 C18 1_555 1_555
C20 C30 1_555 1_555
C22 C25 1_555 1_555
C24 C25 1_555 1_555
C31 C32 1_555 1_555

#END
