
#######################################################################
#
#                 Cambridge Crystallographic Data Centre
#                                CCDC 
#
#######################################################################
#
# If this CIF has been generated from an entry in the Cambridge 
# Structural Database, then it will include bibliographic, chemical, 
# crystal, experimental, refinement or atomic coordinate data resulting 
# from the CCDC's data processing and validation procedures.
#
#######################################################################

data_TECYEI
_chemical_name_common            
1,3,5-tris-((2-phenyl-o-carboran-1-yl)methyl)benzene
_chemical_formula_moiety         'C33 H54 B30'
_chemical_name_systematic        
1,3,5-tris(2-phenyl-1,2-dicarba-closo-dodecaborate(10)methyl)benzene
_symmetry_cell_setting           triclinic
_symmetry_space_group_name_H-M   'P -1'
_symmetry_Int_Tables_number      2
_space_group_name_Hall           '-P 1'
loop_
_symmetry_equiv_pos_site_id
_symmetry_equiv_pos_as_xyz
1 x,y,z
2 -x,-y,-z
_cell_length_a                   10.4309(5)
_cell_length_b                   12.7444(5)
_cell_length_c                   17.6458(8)
_cell_angle_alpha                90.789(3)
_cell_angle_beta                 100.309(3)
_cell_angle_gamma                101.238(3)
_cell_volume                     2260.76
_exptl_crystal_colour            colorless
_exptl_crystal_description       cubic
_cell_formula_units_Z            2
loop_
_atom_site_label
_atom_site_type_symbol
_atom_site_fract_x
_atom_site_fract_y
_atom_site_fract_z
C1 C 0.1371(3) 0.9031(2) 0.21020(15)
C2 C 0.0015(3) 0.8955(2) 0.20733(16)
C3 C 0.1786(3) 1.0734(2) 0.28254(16)
C4 C 0.2247(3) 0.9923(2) 0.24840(16)
C5 C 0.0426(3) 1.0640(2) 0.27771(17)
C6 C -0.0584(3) 0.7215(2) 0.04227(16)
C7 C 0.2083(2) 0.8151(2) 0.09466(15)
C8 C -0.1024(3) 0.7796(2) 0.35484(16)
C9 C -0.2125(2) 0.8361(2) 0.36556(15)
C10 C 0.1875(3) 0.8112(2) 0.17814(17)
C11 C -0.1952(3) 0.9640(3) 0.23530(19)
C12 C -0.0467(3) 0.9753(2) 0.24092(16)
C13 C -0.2569(2) 0.9331(2) 0.30640(15)
C14 C 0.0767(3) 0.7631(2) 0.02256(16)
C15 C 0.2757(3) 1.1634(2) 0.33155(19)
B1 B 0.1370(3) 0.9003(3) 0.03328(19)
C16 C 0.0264(3) 0.8178(3) 0.39316(19)
C17 C -0.1305(4) 0.6834(3) 0.3103(2)
B2 B -0.2349(3) 0.8632(3) 0.4568(2)
C18 C 0.3324(3) 1.2642(2) 0.29305(17)
C19 C -0.0901(3) 0.6233(3) 0.0741(2)
B3 B -0.4238(3) 0.9277(3) 0.2960(2)
B4 B -0.1736(3) 0.9680(3) 0.39972(19)
C20 C -0.1568(3) 0.7818(3) 0.0259(2)
B5 B -0.3607(3) 0.8082(3) 0.2995(2)
C21 C 0.2689(3) 1.3754(2) 0.30491(17)
B6 B -0.4085(3) 0.8563(3) 0.4493(2)
C22 C -0.0287(4) 0.6289(3) 0.3048(2)
B7 B 0.2027(3) 0.6916(3) 0.0494(2)
C23 C 0.1264(4) 0.7631(4) 0.3864(2)
B8 B -0.4530(3) 0.9565(3) 0.3884(2)
C24 C 0.0989(4) 0.6688(4) 0.3427(3)
C25 C 0.1529(3) 1.3687(2) 0.3462(2)
C26 C -0.2154(4) 0.5877(4) 0.0913(2)
B9 B 0.3123(3) 0.9172(3) 0.0623(2)
B10 B 0.2424(4) 0.9285(3) -0.0354(2)
B11 B -0.3087(3) 1.0264(3) 0.3581(2)
B12 B -0.4853(3) 0.8229(3) 0.3519(2)
B13 B 0.0905(4) 0.8314(3) -0.0590(2)
B14 B 0.1324(4) 0.7024(3) -0.0490(2)
B15 B 0.3519(3) 0.7888(3) 0.0714(2)
B16 B -0.3516(3) 0.7637(3) 0.3950(2)
B17 B 0.3065(4) 0.7195(3) -0.0191(2)
C27 C -0.3108(4) 0.6477(4) 0.0751(2)
B18 B -0.2980(4) 0.9822(3) 0.4533(2)
C28 C -0.2821(4) 0.7439(4) 0.0423(2)
C29 C 0.0230(4) 1.3443(3) 0.3048(3)
H1 H 0.0081 1.3307 0.2517
B19 B 0.2388(4) 0.8058(3) -0.0864(2)
B20 B 0.3927(4) 1.4875(3) 0.3149(3)
B21 B 0.4222(4) 1.3658(3) 0.3579(3)
B22 B 0.2405(5) 1.3107(3) 0.2155(2)
B23 B 0.3747(4) 0.8585(3) -0.0119(2)
B24 B 0.2797(5) 1.4530(3) 0.2273(2)
B25 B 0.4998(5) 1.3012(4) 0.2962(4)
C30 C 0.1716(5) 1.3885(3) 0.4238(3)
H2 H 0.2573 1.4054 0.4528
B26 B 0.4501(6) 1.4936(4) 0.2283(3)
B27 B 0.3871(6) 1.2665(4) 0.2079(3)
B28 B 0.5197(8) 1.3797(4) 0.2180(5)
C31 C 0.0608(7) 1.3835(5) 0.4603(4)
H3 H 0.0729 1.3969 0.5133
B29 B 0.5384(5) 1.4404(4) 0.3088(4)
B30 B 0.3592(9) 1.3854(4) 0.1670(4)
C32 C -0.0845(6) 1.3400(5) 0.3418(6)
H4 H -0.1709 1.3239 0.3137
C33 C -0.0635(10) 1.3589(7) 0.4171(6)
H5 H -0.1362 1.3552 0.4414
H6 H 0.180(2) 0.6189(19) 0.0795(13)
H7 H 0.319(2) 0.9993(17) 0.2523(13)
H8 H -0.283(2) 1.109(2) 0.3388(14)
H9 H -0.073(2) 1.0075(17) 0.4085(13)
H10 H 0.066(2) 0.630(2) -0.0772(15)
H11 H 0.353(3) 0.661(3) -0.0347(18)
H12 H 0.428(3) 0.769(2) 0.1191(16)
H13 H 0.008(2) 1.123(2) 0.2999(14)
H14 H -0.362(2) 0.7616(19) 0.2464(15)
H15 H 0.360(3) 0.987(2) 0.1008(16)
H16 H 0.245(3) 0.799(2) -0.1481(17)
H17 H 0.428(3) 1.350(2) 0.4202(17)
H18 H 0.075(2) 0.9467(18) 0.0561(13)
H19 H -0.459(2) 0.8334(19) 0.4962(15)
H20 H 0.203(3) 1.495(2) 0.2117(18)
H21 H -0.470(2) 0.948(2) 0.2386(16)
H22 H -0.534(3) 0.994(2) 0.3921(15)
H23 H -0.348(2) 0.678(2) 0.4057(14)
H24 H 0.381(3) 1.549(2) 0.3534(17)
H25 H 0.480(3) 0.890(2) -0.0225(16)
H26 H 0.124(2) 0.745(2) 0.1805(14)
H27 H -0.223(3) 0.658(2) 0.2837(17)
H28 H -0.162(2) 0.839(2) 0.5043(15)
H29 H 0.356(3) 1.138(2) 0.3554(15)
H30 H 0.275(3) 0.804(2) 0.2103(16)
H31 H 0.230(3) 1.189(2) 0.3708(17)
H32 H 0.256(2) 1.009(2) -0.0604(15)
H33 H 0.620(4) 1.379(3) 0.199(2)
H34 H -0.225(3) 0.518(3) 0.1134(19)
H35 H -0.064(2) 0.831(2) 0.1834(14)
H36 H -0.582(3) 0.776(2) 0.3365(15)
H37 H -0.274(2) 1.042(2) 0.5024(16)
H38 H 0.637(4) 1.479(3) 0.342(2)
H39 H 0.173(3) 0.631(3) 0.3415(19)
H40 H -0.024(3) 0.578(2) 0.0874(17)
H41 H -0.052(3) 0.559(3) 0.2732(18)
H42 H -0.222(3) 1.040(3) 0.2259(18)
H43 H 0.319(4) 1.388(3) 0.113(3)
H44 H -0.398(4) 0.623(3) 0.083(2)
H45 H 0.489(4) 1.566(3) 0.206(2)
H46 H 0.221(3) 0.789(3) 0.4135(19)
H47 H -0.245(3) 0.908(3) 0.1905(19)
H48 H 0.557(3) 1.249(3) 0.320(2)
H49 H -0.142(3) 0.851(3) 0.0004(17)
H50 H -0.342(3) 0.788(3) 0.030(2)
H51 H 0.383(3) 1.197(3) 0.177(2)
H52 H 0.142(3) 1.268(3) 0.2002(18)
H53 H 0.055(3) 0.886(2) 0.4295(17)
loop_
_geom_bond_atom_site_label_1
_geom_bond_atom_site_label_2
_geom_bond_site_symmetry_1
_geom_bond_site_symmetry_2
C1 C2 1_555 1_555
C2 C12 1_555 1_555
C3 C4 1_555 1_555
C4 C1 1_555 1_555
C5 C3 1_555 1_555
C6 C14 1_555 1_555
C7 C10 1_555 1_555
C8 C9 1_555 1_555
C9 C13 1_555 1_555
C10 C1 1_555 1_555
C11 C12 1_555 1_555
C12 C5 1_555 1_555
C13 C11 1_555 1_555
C14 C7 1_555 1_555
C15 C3 1_555 1_555
B1 C7 1_555 1_555
C16 C8 1_555 1_555
C17 C8 1_555 1_555
B2 C9 1_555 1_555
C18 C15 1_555 1_555
C19 C6 1_555 1_555
B3 C13 1_555 1_555
B4 C9 1_555 1_555
C20 C6 1_555 1_555
B5 C9 1_555 1_555
C21 C18 1_555 1_555
B6 B2 1_555 1_555
C22 C17 1_555 1_555
B7 C7 1_555 1_555
C23 C16 1_555 1_555
B8 B3 1_555 1_555
C24 C22 1_555 1_555
C25 C21 1_555 1_555
C26 C19 1_555 1_555
B9 C7 1_555 1_555
B10 B1 1_555 1_555
B11 C13 1_555 1_555
B12 B3 1_555 1_555
B13 C14 1_555 1_555
B14 C14 1_555 1_555
B15 C7 1_555 1_555
B16 C9 1_555 1_555
B17 B7 1_555 1_555
C27 C26 1_555 1_555
B18 B2 1_555 1_555
C28 C20 1_555 1_555
C29 C25 1_555 1_555
H1 C29 1_555 1_555
B19 B10 1_555 1_555
B20 C21 1_555 1_555
B21 C18 1_555 1_555
B22 C18 1_555 1_555
B23 B9 1_555 1_555
B24 C21 1_555 1_555
B25 C18 1_555 1_555
C30 C25 1_555 1_555
H2 C30 1_555 1_555
B26 B20 1_555 1_555
B27 C18 1_555 1_555
B28 B25 1_555 1_555
C31 C30 1_555 1_555
H3 C31 1_555 1_555
B29 B20 1_555 1_555
B30 B22 1_555 1_555
C32 C29 1_555 1_555
H4 C32 1_555 1_555
C33 C31 1_555 1_555
H5 C33 1_555 1_555
H6 B7 1_555 1_555
H7 C4 1_555 1_555
H8 B11 1_555 1_555
H9 B4 1_555 1_555
H10 B14 1_555 1_555
H11 B17 1_555 1_555
H12 B15 1_555 1_555
H13 C5 1_555 1_555
H14 B5 1_555 1_555
H15 B9 1_555 1_555
H16 B19 1_555 1_555
H17 B21 1_555 1_555
H18 B1 1_555 1_555
H19 B6 1_555 1_555
H20 B24 1_555 1_555
H21 B3 1_555 1_555
H22 B8 1_555 1_555
H23 B16 1_555 1_555
H24 B20 1_555 1_555
H25 B23 1_555 1_555
H26 C10 1_555 1_555
H27 C17 1_555 1_555
H28 B2 1_555 1_555
H29 C15 1_555 1_555
H30 C10 1_555 1_555
H31 C15 1_555 1_555
H32 B10 1_555 1_555
H33 B28 1_555 1_555
H34 C26 1_555 1_555
H35 C2 1_555 1_555
H36 B12 1_555 1_555
H37 B18 1_555 1_555
H38 B29 1_555 1_555
H39 C24 1_555 1_555
H40 C19 1_555 1_555
H41 C22 1_555 1_555
H42 C11 1_555 1_555
H43 B30 1_555 1_555
H44 C27 1_555 1_555
H45 B26 1_555 1_555
H46 C23 1_555 1_555
H47 C11 1_555 1_555
H48 B25 1_555 1_555
H49 C20 1_555 1_555
H50 C28 1_555 1_555
H51 B27 1_555 1_555
H52 B22 1_555 1_555
H53 C16 1_555 1_555
C13 B4 1_555 1_555
C13 B5 1_555 1_555
C14 B1 1_555 1_555
C14 B7 1_555 1_555
B1 B9 1_555 1_555
B1 B13 1_555 1_555
B2 B4 1_555 1_555
B2 B16 1_555 1_555
B3 B5 1_555 1_555
B3 B11 1_555 1_555
B4 B11 1_555 1_555
B4 B18 1_555 1_555
B5 B12 1_555 1_555
B5 B16 1_555 1_555
C21 B21 1_555 1_555
C21 B22 1_555 1_555
B6 B8 1_555 1_555
B6 B12 1_555 1_555
B6 B16 1_555 1_555
B6 B18 1_555 1_555
B7 B14 1_555 1_555
B7 B15 1_555 1_555
C23 C24 1_555 1_555
B8 B11 1_555 1_555
B8 B12 1_555 1_555
B8 B18 1_555 1_555
B9 B10 1_555 1_555
B9 B15 1_555 1_555
B10 B13 1_555 1_555
B10 B23 1_555 1_555
B11 B18 1_555 1_555
B12 B16 1_555 1_555
B13 B14 1_555 1_555
B13 B19 1_555 1_555
B14 B17 1_555 1_555
B14 B19 1_555 1_555
B15 B17 1_555 1_555
B15 B23 1_555 1_555
B17 B19 1_555 1_555
B17 B23 1_555 1_555
C27 C28 1_555 1_555
B19 B23 1_555 1_555
B20 B21 1_555 1_555
B20 B24 1_555 1_555
B21 B25 1_555 1_555
B21 B29 1_555 1_555
B22 B24 1_555 1_555
B22 B27 1_555 1_555
B24 B26 1_555 1_555
B24 B30 1_555 1_555
B25 B27 1_555 1_555
B25 B29 1_555 1_555
B26 B28 1_555 1_555
B26 B29 1_555 1_555
B26 B30 1_555 1_555
B27 B28 1_555 1_555
B27 B30 1_555 1_555
B28 B29 1_555 1_555
B28 B30 1_555 1_555
C32 C33 1_555 1_555

#END
