
#######################################################################
#
#                 Cambridge Crystallographic Data Centre
#                                CCDC 
#
#######################################################################
#
# If this CIF has been generated from an entry in the Cambridge 
# Structural Database, then it will include bibliographic, chemical, 
# crystal, experimental, refinement or atomic coordinate data resulting 
# from the CCDC's data processing and validation procedures.
#
#######################################################################

data_TECYAD
_chemical_formula_moiety         'C15 H25 N1 O4'
_chemical_name_systematic        
'Ethyl 3-(hydroxyimino)-2-oxocyclododecanecarboxylate'
_symmetry_cell_setting           triclinic
_symmetry_space_group_name_H-M   'P -1'
_symmetry_Int_Tables_number      2
_space_group_name_Hall           '-P 1'
loop_
_symmetry_equiv_pos_site_id
_symmetry_equiv_pos_as_xyz
1 x,y,z
2 -x,-y,-z
_cell_length_a                   8.3961(17)
_cell_length_b                   9.4155(19)
_cell_length_c                   9.840(2)
_cell_angle_alpha                91.43(3)
_cell_angle_beta                 95.90(3)
_cell_angle_gamma                94.15(3)
_cell_volume                     771.325
_cell_formula_units_Z            2
loop_
_atom_site_label
_atom_site_type_symbol
_atom_site_fract_x
_atom_site_fract_y
_atom_site_fract_z
C1 C 0.5543(4) 0.4748(3) 0.7704(3)
C2 C 0.6627(4) 0.5824(3) 0.8634(3)
C3 C 0.5923(4) 0.7270(4) 0.8781(3)
C4 C 0.5480(4) 0.8076(3) 0.7498(3)
C5 C 0.5384(4) 0.9665(3) 0.7629(3)
H1 H 0.4787 0.9890 0.8414
H2 H 0.4789 1.0004 0.6793
C6 C 0.7060(4) 1.0440(3) 0.7838(3)
H3 H 0.7641 1.0097 0.8679
H4 H 0.6949 1.1471 0.7980
C7 C 0.8072(4) 1.0232(4) 0.6640(3)
H5 H 0.8015 0.9205 0.6382
H6 H 0.7604 1.0738 0.5843
C8 C 0.9820(4) 1.0770(4) 0.6969(3)
H7 H 0.9868 1.1767 0.7324
H8 H 1.0344 1.0774 0.6112
C9 C 1.0766(4) 0.9896(4) 0.8009(3)
H9 H 1.0195 0.9826 0.8839
H10 H 1.1831 1.0405 0.8274
C10 C 1.1014(4) 0.8376(4) 0.7481(3)
H11 H 1.2013 0.8399 0.7026
H12 H 1.0109 0.8055 0.6790
C11 C 1.1121(4) 0.7288(4) 0.8640(3)
H13 H 1.1526 0.6403 0.8288
H14 H 1.1906 0.7685 0.9398
C12 C 0.9513(4) 0.6921(4) 0.9194(3)
H15 H 0.9029 0.7815 0.9415
H16 H 0.9703 0.6403 1.0052
C13 C 0.8327(4) 0.6007(4) 0.8184(3)
H17 H 0.8736 0.5055 0.8076
H18 H 0.8271 0.6452 0.7281
C14 C 0.2859(4) 0.3744(4) 0.7233(3)
H19 H 0.1965 0.3514 0.7792
H20 H 0.3375 0.2853 0.7062
C15 C 0.2204(5) 0.4317(4) 0.5891(3)
H21 H 0.1720 0.5213 0.6057
H22 H 0.1388 0.3623 0.5428
H23 H 0.3079 0.4489 0.5313
H24 H 0.457(6) 0.738(6) 0.444(5)
N1 N 0.5285(3) 0.7268(3) 0.6422(2)
O1 O 0.6029(3) 0.3939(2) 0.6880(2)
O2 O 0.4027(3) 0.4768(2) 0.7987(2)
O3 O 0.5771(3) 0.7795(3) 0.9904(2)
O4 O 0.4842(3) 0.8010(3) 0.5237(2)
H25 H 0.674(4) 0.544(3) 0.9556(13)
loop_
_geom_bond_atom_site_label_1
_geom_bond_atom_site_label_2
_geom_bond_site_symmetry_1
_geom_bond_site_symmetry_2
C1 C2 1_555 1_555
C2 C3 1_555 1_555
C3 C4 1_555 1_555
C4 C5 1_555 1_555
C5 H1 1_555 1_555
H2 C5 1_555 1_555
C6 C5 1_555 1_555
H3 C6 1_555 1_555
H4 C6 1_555 1_555
C7 C6 1_555 1_555
H5 C7 1_555 1_555
H6 C7 1_555 1_555
C8 C7 1_555 1_555
H7 C8 1_555 1_555
H8 C8 1_555 1_555
C9 C8 1_555 1_555
H9 C9 1_555 1_555
H10 C9 1_555 1_555
C10 C9 1_555 1_555
H11 C10 1_555 1_555
H12 C10 1_555 1_555
C11 C10 1_555 1_555
H13 C11 1_555 1_555
H14 C11 1_555 1_555
C12 C11 1_555 1_555
H15 C12 1_555 1_555
H16 C12 1_555 1_555
C13 C2 1_555 1_555
H17 C13 1_555 1_555
H18 C13 1_555 1_555
C14 H19 1_555 1_555
H20 C14 1_555 1_555
C15 C14 1_555 1_555
H21 C15 1_555 1_555
H22 C15 1_555 1_555
H23 C15 1_555 1_555
H24 O4 1_555 1_555
N1 C4 1_555 1_555
O1 C1 1_555 1_555
O2 C1 1_555 1_555
O3 C3 1_555 1_555
O4 N1 1_555 1_555
H25 C2 1_555 1_555
C12 C13 1_555 1_555
C14 O2 1_555 1_555

#END
