
#######################################################################
#
#                 Cambridge Crystallographic Data Centre
#                                CCDC 
#
#######################################################################
#
# If this CIF has been generated from an entry in the Cambridge 
# Structural Database, then it will include bibliographic, chemical, 
# crystal, experimental, refinement or atomic coordinate data resulting 
# from the CCDC's data processing and validation procedures.
#
#######################################################################

data_TECZAE02
_chemical_formula_moiety         'C14 H10 I4 N8,2(C3 H7 N1 O1)'
_chemical_name_systematic        
"1,1',1'',1'''-ethane-1,1,2,2-tetrayltetrakis(4-iodo-1H-pyrazole) N,N-dimethylformamide solvate"
_symmetry_cell_setting           monoclinic
_symmetry_space_group_name_H-M   'P 21/c'
_symmetry_Int_Tables_number      14
_space_group_name_Hall           '-P 2ybc'
loop_
_symmetry_equiv_pos_site_id
_symmetry_equiv_pos_as_xyz
1 x,y,z
2 -x,1/2+y,1/2-z
3 -x,-y,-z
4 x,1/2-y,1/2+z
_cell_length_a                   8.9094(11)
_cell_length_b                   11.0749(13)
_cell_length_c                   16.5832(16)
_cell_angle_alpha                90
_cell_angle_beta                 115.053(5)
_cell_angle_gamma                90
_cell_volume                     1482.33
_cell_formula_units_Z            2
loop_
_atom_site_label
_atom_site_type_symbol
_atom_site_fract_x
_atom_site_fract_y
_atom_site_fract_z
I1 I 0.75093(5) 0.99899(3) 1.00980(3)
I2 I 0.44430(4) 0.22672(3) 0.75872(2)
C1 C 0.7854(6) 0.8143(4) 1.0019(3)
C2 C 0.7048(7) 0.7220(5) 1.0248(4)
H1 H 0.6233 0.7345 1.0450
C3 C 0.8923(6) 0.7587(4) 0.9750(3)
H2 H 0.9642 0.7956 0.9551
C4 C 0.9534(6) 0.5401(4) 0.9595(3)
H3 H 1.032(6) 0.575(4) 0.942(3)
C5 C 0.7255(6) 0.3857(4) 0.8885(3)
H4 H 0.7158 0.3559 0.9385
C6 C 0.6929(6) 0.4227(4) 0.7525(3)
H5 H 0.6517 0.4192 0.6908
C7 C 0.6315(6) 0.3541(4) 0.8022(3)
N1 N 0.7581(6) 0.6144(4) 1.0143(3)
N2 N 0.8731(5) 0.6396(3) 0.9829(2)
N3 N 0.8351(5) 0.4682(3) 0.8872(2)
N4 N 0.8160(6) 0.4932(4) 0.8029(3)
I1B I 1.24907(5) 0.00101(3) 0.99020(3)
I2B I 1.55570(4) 0.77328(3) 1.24128(2)
C1B C 1.2146(6) 0.1857(4) 0.9981(3)
C2B C 1.2952(7) 0.2780(5) 0.9752(4)
H1B H 1.3767 0.2655 0.9550
C3B C 1.1077(6) 0.2413(4) 1.0250(3)
H2B H 1.0358 0.2044 1.0449
C4B C 1.0466(6) 0.4599(4) 1.0405(3)
H3B H 0.968(6) 0.425(4) 1.058(3)
C5B C 1.2745(6) 0.6143(4) 1.1115(3)
H4B H 1.2842 0.6441 1.0615
C6B C 1.3071(6) 0.5773(4) 1.2475(3)
H5B H 1.3483 0.5808 1.3092
C7B C 1.3685(6) 0.6459(4) 1.1978(3)
N1B N 1.2419(6) 0.3856(4) 0.9857(3)
N2B N 1.1269(5) 0.3604(3) 1.0171(2)
N3B N 1.1649(5) 0.5318(3) 1.1128(2)
N4B N 1.1840(6) 0.5068(4) 1.1971(3)
C8 C 0.0276(10) 0.7103(7) 0.7500(6)
H6 H 0.0231 0.7723 0.7894
H7 H -0.0701 0.6612 0.7311
H8 H 0.0337 0.7468 0.6989
C9 C 0.1901(12) 0.5407(8) 0.7428(7)
H9 H 0.2886 0.4957 0.7773
H10 H 0.1984 0.5738 0.6913
H11 H 0.0956 0.4882 0.7242
C10 C 0.2682(8) 0.6533(6) 0.8789(4)
H12 H 0.3615 0.6044 0.9041
N5 N 0.1716(6) 0.6365(4) 0.7956(3)
O1 O 0.2464(7) 0.7293(4) 0.9277(3)
loop_
_geom_bond_atom_site_label_1
_geom_bond_atom_site_label_2
_geom_bond_site_symmetry_1
_geom_bond_site_symmetry_2
I1 C1 1_555 1_555
I2 C7 1_555 1_555
C1 C2 1_555 1_555
C2 H1 1_555 1_555
C3 C1 1_555 1_555
H2 C3 1_555 1_555
C4 H3 1_555 1_555
C5 H4 1_555 1_555
C6 H5 1_555 1_555
C7 C5 1_555 1_555
N1 C2 1_555 1_555
N2 C3 1_555 1_555
N3 C4 1_555 1_555
N4 C6 1_555 1_555
C8 H6 1_555 1_555
H7 C8 1_555 1_555
H8 C8 1_555 1_555
C9 H9 1_555 1_555
H10 C9 1_555 1_555
H11 C9 1_555 1_555
C10 H12 1_555 1_555
N5 C8 1_555 1_555
O1 C10 1_555 1_555
I1B C1B 1_555 1_555
I2B C7B 1_555 1_555
C1B C2B 1_555 1_555
C2B H1B 1_555 1_555
C3B C1B 1_555 1_555
H2B C3B 1_555 1_555
C4B C4 1_555 1_555
H3B C4B 1_555 1_555
C5B H4B 1_555 1_555
C6B H5B 1_555 1_555
C7B C5B 1_555 1_555
N1B C2B 1_555 1_555
N2B C3B 1_555 1_555
N3B C4B 1_555 1_555
N4B C6B 1_555 1_555
C4 N2 1_555 1_555
C5 N3 1_555 1_555
C6 C7 1_555 1_555
N1 N2 1_555 1_555
N3 N4 1_555 1_555
C9 N5 1_555 1_555
C10 N5 1_555 1_555
C4B N2B 1_555 1_555
C5B N3B 1_555 1_555
C6B C7B 1_555 1_555
N1B N2B 1_555 1_555
N3B N4B 1_555 1_555

#END
