
#######################################################################
#
#                 Cambridge Crystallographic Data Centre
#                                CCDC 
#
#######################################################################
#
# If this CIF has been generated from an entry in the Cambridge 
# Structural Database, then it will include bibliographic, chemical, 
# crystal, experimental, refinement or atomic coordinate data resulting 
# from the CCDC's data processing and validation procedures.
#
#######################################################################

data_TECZAE01
_chemical_formula_moiety         'C14 H10 I4 N8,2(C3 H7 N1 O1)'
_chemical_name_systematic        
'1,1,2,2-tetrakis(4-iodo-1H-pyrazol-1-yl)ethane N,N-dimethylformamide solvate'
_symmetry_cell_setting           triclinic
_symmetry_space_group_name_H-M   'P -1'
_symmetry_Int_Tables_number      2
_space_group_name_Hall           '-P 1'
loop_
_symmetry_equiv_pos_site_id
_symmetry_equiv_pos_as_xyz
1 x,y,z
2 -x,-y,-z
_cell_length_a                   5.6438(8)
_cell_length_b                   9.6032(14)
_cell_length_c                   14.003(2)
_cell_angle_alpha                76.079(2)
_cell_angle_beta                 83.613(2)
_cell_angle_gamma                83.802(2)
_cell_volume                     729.48
_exptl_crystal_colour            white
_exptl_crystal_description       block
_cell_formula_units_Z            1
loop_
_atom_site_label
_atom_site_type_symbol
_atom_site_fract_x
_atom_site_fract_y
_atom_site_fract_z
I1 I 0.61669(8) 0.60667(4) 0.31596(4)
I2 I 0.79553(7) 0.11727(4) 0.89035(3)
N1 N 1.0820(7) 0.2606(5) 0.4596(4)
N2 N 0.8893(7) 0.1903(4) 0.4525(3)
N3 N 0.7981(7) 0.0325(4) 0.6089(3)
N4 N 0.5826(8) -0.0172(5) 0.6462(3)
C1 C 0.7913(9) 0.4153(5) 0.3865(4)
C2 C 1.0205(9) 0.3966(6) 0.4184(4)
H1 H 1.1299 0.4664 0.4190
C3 C 0.7108(9) 0.2807(5) 0.4101(4)
H2 H 0.5632 0.2559 0.3990
C4 C 0.8772(8) 0.0419(5) 0.5056(3)
H3 H 0.7608 -0.0009 0.4768
C5 C 0.9023(9) 0.0810(6) 0.6760(4)
H4 H 1.0490 0.1198 0.6663
C6 C 0.5577(10) -0.0011(6) 0.7378(4)
H5 H 0.4270 -0.0284 0.7823
C7 C 0.7518(9) 0.0610(6) 0.7600(4)
I1A I 1.38331(8) -0.60667(4) 0.68404(4)
I2A I 1.20447(7) -0.11727(4) 0.10965(3)
N1A N 0.9180(7) -0.2606(5) 0.5404(4)
N2A N 1.1107(7) -0.1903(4) 0.5475(3)
N3A N 1.2019(7) -0.0325(4) 0.3911(3)
N4A N 1.4174(8) 0.0172(5) 0.3538(3)
C1A C 1.2087(9) -0.4153(5) 0.6135(4)
C2A C 0.9795(9) -0.3966(6) 0.5816(4)
H1A H 0.8701 -0.4664 0.5810
C3A C 1.2892(9) -0.2807(5) 0.5899(4)
H2A H 1.4368 -0.2559 0.6010
C4A C 1.1228(8) -0.0419(5) 0.4944(3)
H3A H 1.2392 0.0009 0.5232
C5A C 1.0977(9) -0.0810(6) 0.3240(4)
H4A H 0.9510 -0.1198 0.3337
C6A C 1.4423(10) 0.0011(6) 0.2622(4)
H5A H 1.5730 0.0284 0.2177
C7A C 1.2482(9) -0.0610(6) 0.2400(4)
O1 O -0.1874(9) 0.2200(6) 0.0867(4)
N5 N 0.1378(9) 0.3304(6) 0.1024(4)
C8 C 0.2388(15) 0.3383(11) 0.0022(6)
H6 H 0.1337 0.2983 -0.0314
H7 H 0.3926 0.2848 0.0022
H8 H 0.2556 0.4369 -0.0309
C9 C 0.2634(15) 0.3910(12) 0.1660(7)
H9 H 0.4023 0.4462 0.1360
H10 H 0.3092 0.3250 0.2244
H11 H 0.1539 0.4715 0.1942
C10 C -0.0667(12) 0.2685(8) 0.1339(6)
H12 H -0.0998 0.2594 0.2055
loop_
_geom_bond_atom_site_label_1
_geom_bond_atom_site_label_2
_geom_bond_site_symmetry_1
_geom_bond_site_symmetry_2
I1 C1 1_555 1_555
I2 C7 1_555 1_555
N1 N2 1_555 1_555
N2 C3 1_555 1_555
N3 N4 1_555 1_555
N4 C6 1_555 1_555
C1 C2 1_555 1_555
C2 N1 1_555 1_555
H1 C2 1_555 1_555
C3 C1 1_555 1_555
H2 C3 1_555 1_555
C4 N2 1_555 1_555
H3 C4 1_555 1_555
C5 N3 1_555 1_555
H4 C5 1_555 1_555
C6 H5 1_555 1_555
C7 C5 1_555 1_555
O1 C10 1_555 1_555
N5 C8 1_555 1_555
C8 H6 1_555 1_555
H7 C8 1_555 1_555
H8 C8 1_555 1_555
C9 N5 1_555 1_555
H9 C9 1_555 1_555
H10 C9 1_555 1_555
H11 C9 1_555 1_555
C10 N5 1_555 1_555
H12 C10 1_555 1_555
I1A C1A 1_555 1_555
I2A C7A 1_555 1_555
N1A N2A 1_555 1_555
N2A C3A 1_555 1_555
N3A N4A 1_555 1_555
N4A C6A 1_555 1_555
C1A C2A 1_555 1_555
C2A N1A 1_555 1_555
H1A C2A 1_555 1_555
C3A C1A 1_555 1_555
H2A C3A 1_555 1_555
C4A C4 1_555 1_555
H3A C4A 1_555 1_555
C5A N3A 1_555 1_555
H4A C5A 1_555 1_555
C6A H5A 1_555 1_555
C7A C5A 1_555 1_555
N3 C4 1_555 1_555
C6 C7 1_555 1_555
N2A C4A 1_555 1_555
N3A C4A 1_555 1_555
C6A C7A 1_555 1_555

#END
