
#######################################################################
#
#                 Cambridge Crystallographic Data Centre
#                                CCDC 
#
#######################################################################
#
# If this CIF has been generated from an entry in the Cambridge 
# Structural Database, then it will include bibliographic, chemical, 
# crystal, experimental, refinement or atomic coordinate data resulting 
# from the CCDC's data processing and validation procedures.
#
#######################################################################

data_TECZOR
_chemical_formula_moiety         'C80 H136 K2 N8 O6 Si4,4(C4 H8 O1)'
_chemical_name_systematic        
"(\m~2~-\h^4^,\h^4^-1,1:2,2:3,3:4,4-tetrakis(1,2-bis(Isobutylamido)benzene-N,N')-cyclotetrasilanide-C,C',C'',C''')-hexakis(tetrahydrofuran)-di-potassium tetrahydrofuran solvate"
_symmetry_cell_setting           tetragonal
_symmetry_space_group_name_H-M   'P 43 21 2'
_symmetry_Int_Tables_number      96
_space_group_name_Hall           'P 4nw 2abw'
loop_
_symmetry_equiv_pos_site_id
_symmetry_equiv_pos_as_xyz
1 x,y,z
2 1/2+x,1/2-y,1/4-z
3 -x,-y,1/2+z
4 1/2-x,1/2+y,3/4-z
5 y,x,-z
6 1/2+y,1/2-x,1/4+z
7 1/2-y,1/2+x,3/4+z
8 -y,-x,1/2-z
_cell_length_a                   22.8047(8)
_cell_length_b                   22.8047(8)
_cell_length_c                   40.8980(18)
_cell_angle_alpha                90
_cell_angle_beta                 90
_cell_angle_gamma                90
_cell_volume                     21269.2
_exptl_crystal_colour            red
_exptl_crystal_description       prism
_cell_formula_units_Z            8
loop_
_atom_site_label
_atom_site_type_symbol
_atom_site_fract_x
_atom_site_fract_y
_atom_site_fract_z
C81 C 0.1578(9) 0.0017(12) 0.9698(6)
C82 C 0.1202(12) 0.0403(9) 0.9492(5)
C83 C 0.0599(10) 0.0150(11) 0.9488(5)
C84 C 0.0602(11) -0.0392(10) 0.9691(6)
C85 C 0.1208(13) -0.0475(10) 0.9822(5)
C86 C -0.1143(19) -0.1938(12) 0.7598(7)
C87 C -0.1518(12) -0.2184(17) 0.7806(9)
C88 C -0.1251(17) -0.2640(16) 0.7944(7)
C89 C -0.0712(15) -0.2675(13) 0.7822(8)
C90 C -0.0645(14) -0.2241(17) 0.7608(8)
C91 C -0.018(2) -0.0745(15) 0.8671(7)
C92 C -0.0435(13) -0.129(2) 0.8669(6)
C93 C 0.000(2) -0.1695(13) 0.8739(8)
C94 C 0.0513(16) -0.140(2) 0.8784(7)
C95 C 0.0402(19) -0.081(2) 0.8741(7)
C96 C -0.1794(11) -0.0513(15) 1.0403(6)
C97 C -0.1782(15) -0.1140(16) 1.0402(7)
C98 C -0.2330(16) -0.1344(11) 1.0276(7)
C99 C -0.2680(9) -0.0843(12) 1.0198(5)
C100 C -0.2349(11) -0.0330(8) 1.0276(4)
K1 K 0.11268(13) 0.62665(13) 0.87971(6)
K2 K -0.10961(17) 0.13289(16) 0.86501(8)
Si1 Si 0.07020(11) 0.39501(12) 0.87410(5)
Si2 Si -0.01581(11) 0.44739(11) 0.87485(5)
Si3 Si -0.06870(10) 0.36123(11) 0.87254(5)
Si4 Si 0.01831(11) 0.30899(11) 0.87024(5)
O1 O 0.1385(4) 0.6992(4) 0.92915(19)
O2 O 0.1303(4) 0.7108(4) 0.8323(2)
O3 O 0.2312(4) 0.6020(4) 0.8806(2)
O4 O -0.1417(5) 0.0578(5) 0.8194(2)
O5 O -0.1273(6) 0.0487(5) 0.9116(3)
O6 O -0.2281(4) 0.1596(5) 0.8687(3)
N1 N 0.1296(3) 0.4080(3) 0.84521(16)
N2 N 0.1254(3) 0.4028(4) 0.90525(16)
N3 N -0.0266(3) 0.5011(3) 0.90644(14)
N4 N -0.0263(3) 0.5080(3) 0.84665(14)
N5 N -0.1265(3) 0.3522(3) 0.84216(14)
N6 N -0.1244(3) 0.3472(3) 0.90214(14)
N7 N 0.0285(3) 0.2546(3) 0.83814(14)
N8 N 0.0298(3) 0.2482(3) 0.89757(15)
C1 C 0.1854(4) 0.4012(4) 0.8586(2)
C2 C 0.1841(4) 0.3980(5) 0.8937(2)
C3 C 0.2344(5) 0.3930(5) 0.9109(3)
H1 H 0.2335 0.3931 0.9341
C4 C 0.2879(5) 0.3875(6) 0.8942(3)
H2 H 0.3227 0.3823 0.9067
C5 C 0.2923(5) 0.3895(5) 0.8618(3)
H3 H 0.3293 0.3857 0.8513
C6 C 0.2398(5) 0.3975(5) 0.8432(3)
H4 H 0.2421 0.4002 0.8201
C7 C 0.1227(4) 0.4241(4) 0.81024(19)
H5 H 0.0804 0.4241 0.8048
H6 H 0.1419 0.3937 0.7966
C8 C 0.1480(5) 0.4829(4) 0.8015(2)
H7 H 0.1917 0.4801 0.8029
C9 C 0.1279(5) 0.5335(5) 0.8237(3)
H8 H 0.1459 0.5702 0.8163
H9 H 0.1398 0.5255 0.8463
H10 H 0.0851 0.537 0.8227
C10 C 0.1311(6) 0.4956(5) 0.7647(2)
H11 H 0.1469 0.5337 0.7581
H12 H 0.0883 0.496 0.7624
H13 H 0.1475 0.4648 0.7506
C11 C 0.1152(4) 0.4120(5) 0.94031(19)
H14 H 0.1319 0.3781 0.9522
H15 H 0.0724 0.4118 0.9441
C12 C 0.1399(5) 0.4670(5) 0.9551(2)
H16 H 0.1835 0.4624 0.9554
C13 C 0.1261(5) 0.5208(5) 0.9328(2)
H17 H 0.1397 0.5128 0.9105
H18 H 0.1461 0.5556 0.9413
H19 H 0.0837 0.5277 0.9325
C14 C 0.1213(5) 0.4763(6) 0.9887(2)
H20 H 0.1386 0.5127 0.997
H21 H 0.1343 0.4433 1.0023
H22 H 0.0785 0.4791 0.9896
C15 C -0.0199(4) 0.5585(4) 0.8963(2)
C16 C -0.0222(4) 0.5626(4) 0.86053(18)
C17 C -0.0166(5) 0.6168(4) 0.8461(2)
H23 H -0.0159 0.6186 0.8229
C18 C -0.0117(5) 0.6697(5) 0.8635(2)
H24 H -0.0088 0.7065 0.8527
C19 C -0.0114(5) 0.6650(5) 0.8979(2)
H25 H -0.0086 0.6997 0.9106
C20 C -0.0152(5) 0.6097(5) 0.9140(2)
H26 H -0.0145 0.6081 0.9372
C21 C -0.0399(4) 0.4890(5) 0.94117(18)
H27 H -0.0079 0.5055 0.9547
H28 H -0.04 0.446 0.9445
C22 C -0.0975(5) 0.5134(4) 0.95333(19)
H29 H -0.0944 0.5571 0.9534
C23 C -0.1470(5) 0.4966(5) 0.9309(2)
H30 H -0.1392 0.5119 0.9089
H31 H -0.1837 0.5132 0.9391
H32 H -0.1502 0.4538 0.9299
C24 C -0.1081(5) 0.4931(5) 0.9886(2)
H33 H -0.0753 0.5056 1.0024
H34 H -0.1112 0.4502 0.9892
H35 H -0.1446 0.5104 0.9968
C25 C -0.0394(4) 0.5011(4) 0.81175(18)
H36 H -0.0381 0.4589 0.8061
H37 H -0.0087 0.5213 0.7988
C26 C -0.1005(5) 0.5263(5) 0.80225(19)
H38 H -0.0973 0.57 0.8028
C27 C -0.1143(6) 0.5080(6) 0.7652(2)
H39 H -0.1523 0.5242 0.7587
H40 H -0.1154 0.4651 0.7635
H41 H -0.0836 0.5234 0.7509
C28 C -0.1482(5) 0.5094(6) 0.8252(3)
H42 H -0.1852 0.5271 0.818
H43 H -0.1387 0.5234 0.8472
H44 H -0.1522 0.4666 0.8255
C29 C -0.1822(4) 0.3578(4) 0.8553(2)
C30 C -0.1813(4) 0.3528(5) 0.8906(2)
C31 C -0.2348(5) 0.3581(5) 0.9080(2)
H45 H -0.2346 0.358 0.9313
C32 C -0.2883(5) 0.3636(5) 0.8908(3)
H46 H -0.3244 0.3644 0.9023
C33 C -0.2874(5) 0.3675(5) 0.8576(3)
H47 H -0.3235 0.3729 0.8464
C34 C -0.2357(5) 0.3640(5) 0.8391(2)
H48 H -0.237 0.3658 0.8159
C35 C -0.1187(4) 0.3451(4) 0.80709(18)
H49 H -0.0762 0.3461 0.802
H50 H -0.1374 0.3786 0.7957
C36 C -0.1457(6) 0.2855(5) 0.7932(2)
H51 H -0.1894 0.2883 0.7942
C37 C -0.1270(6) 0.2341(5) 0.8122(3)
H52 H -0.1461 0.1989 0.8035
H53 H -0.1381 0.2393 0.8352
H54 H -0.0843 0.2298 0.8106
C38 C -0.1266(6) 0.2823(6) 0.7568(2)
H55 H -0.1396 0.3178 0.7453
H56 H -0.1444 0.2478 0.7465
H57 H -0.0838 0.2793 0.7555
C39 C -0.1147(4) 0.3304(4) 0.93591(18)
H58 H -0.1328 0.3603 0.9502
H59 H -0.0719 0.3306 0.9402
C40 C -0.1400(5) 0.2676(5) 0.9458(2)
H60 H -0.1838 0.2706 0.9457
C41 C -0.1214(5) 0.2544(5) 0.9810(2)
H61 H -0.1364 0.285 0.9956
H62 H -0.0785 0.2533 0.9823
H63 H -0.1373 0.2163 0.9877
C42 C -0.1238(5) 0.2238(5) 0.9218(2)
H64 H -0.1397 0.2349 0.9004
H65 H -0.1398 0.1857 0.9283
H66 H -0.081 0.2213 0.9205
C43 C 0.0234(4) 0.1987(5) 0.8484(2)
C44 C 0.0221(4) 0.1933(4) 0.8821(2)
C45 C 0.0180(5) 0.1379(5) 0.8976(2)
H67 H 0.0175 0.1346 0.9207
C46 C 0.0147(5) 0.0865(5) 0.8770(3)
H68 H 0.0129 0.0485 0.8864
C47 C 0.0140(5) 0.0928(5) 0.8445(3)
H69 H 0.0112 0.0588 0.8312
C48 C 0.0173(5) 0.1474(5) 0.8295(2)
H70 H 0.0155 0.1501 0.8064
C49 C 0.0407(4) 0.2695(5) 0.80387(19)
H71 H 0.0406 0.3127 0.8013
H72 H 0.0093 0.2533 0.7898
C50 C 0.1042(5) 0.2436(5) 0.7918(2)
H73 H 0.1011 0.1999 0.7903
C51 C 0.1546(5) 0.2589(5) 0.8157(3)
H74 H 0.1465 0.2415 0.8371
H75 H 0.1575 0.3016 0.8179
H76 H 0.1916 0.2433 0.8072
C52 C 0.1133(5) 0.2679(6) 0.7574(2)
H77 H 0.0813 0.2548 0.7432
H78 H 0.1508 0.2538 0.7487
H79 H 0.1137 0.3109 0.7583
C53 C 0.0406(4) 0.2526(5) 0.93260(19)
H80 H 0.0096 0.231 0.9445
H81 H 0.0386 0.2942 0.9393
C54 C 0.1019(6) 0.2271(7) 0.9422(2)
H82 H 0.0985 0.1835 0.9404
C55 C 0.1494(5) 0.2443(6) 0.9208(3)
H83 H 0.1856 0.2247 0.9278
H84 H 0.1548 0.2869 0.922
H85 H 0.1401 0.2331 0.8983
C56 C 0.1098(7) 0.2413(6) 0.9789(3)
H86 H 0.0751 0.2284 0.9911
H87 H 0.1149 0.2837 0.9817
H88 H 0.1445 0.2208 0.9873
C57 C 0.1232(9) 0.6935(8) 0.9597(3)
H89 H 0.1464 0.6617 0.9699
H90 H 0.0813 0.6827 0.9609
C58 C 0.1334(11) 0.7506(8) 0.9783(4)
H91 H 0.096 0.7668 0.9867
H92 H 0.1605 0.7445 0.9969
C59 C 0.1593(12) 0.7895(9) 0.9537(4)
H93 H 0.135 0.8249 0.9504
H94 H 0.1994 0.8016 0.9601
C60 C 0.1603(8) 0.7529(7) 0.9243(3)
H95 H 0.1374 0.7725 0.9069
H96 H 0.2013 0.7493 0.9166
C61 C 0.1883(7) 0.7305(8) 0.8273(3)
H97 H 0.2165 0.6987 0.8323
H98 H 0.1969 0.7642 0.8418
C62 C 0.1933(7) 0.7484(11) 0.7921(3)
H99 H 0.2259 0.7273 0.7813
H100 H 0.2006 0.7911 0.7903
C63 C 0.1345(7) 0.7323(9) 0.7763(3)
H101 H 0.1192 0.7652 0.763
H102 H 0.1386 0.6972 0.7622
C64 C 0.0960(7) 0.7203(8) 0.8039(3)
H103 H 0.0692 0.7539 0.8074
H104 H 0.0719 0.6851 0.7992
C65 C 0.2638(7) 0.5477(9) 0.8737(7)
H105 H 0.2398 0.513 0.8793
H106 H 0.2742 0.5457 0.8502
C66 C 0.3147(10) 0.5492(8) 0.8929(7)
H107 H 0.309 0.527 0.9134
H108 H 0.3484 0.5322 0.8809
C67 C 0.3238(8) 0.6076(8) 0.8992(6)
H109 H 0.3377 0.6126 0.922
H110 H 0.3542 0.6232 0.8843
C68 C 0.2726(6) 0.6376(7) 0.8949(4)
H111 H 0.2797 0.6722 0.8808
H112 H 0.258 0.6517 0.9163
C69 C -0.1657(8) 0.0020(7) 0.8248(3)
H113 H -0.1491 -0.0158 0.8449
H114 H -0.2088 0.0044 0.8272
C70 C -0.1508(12) -0.0314(9) 0.7972(4)
H115 H -0.1195 -0.0596 0.8031
H116 H -0.1854 -0.054 0.7899
C71 C -0.1314(9) 0.0041(8) 0.7719(4)
H117 H -0.1612 0.0065 0.7543
H118 H -0.0944 -0.011 0.7625
C72 C -0.1221(8) 0.0632(8) 0.7875(3)
H119 H -0.08 0.074 0.7871
H120 H -0.1447 0.0938 0.7758
C73 C -0.0926(9) 0.0305(12) 0.9403(5)
H121 H -0.0592 0.0058 0.9333
H122 H -0.0767 0.0655 0.9516
C74 C -0.1241(13) 0.003(2) 0.9588(8)
H123 H -0.1154 0.0145 0.9816
H124 H -0.116 -0.0393 0.9565
C75 C -0.1877(11) 0.0147(15) 0.9516(4)
H125 H -0.2124 -0.0206 0.9547
H126 H -0.2036 0.0477 0.9646
C76 C -0.1806(8) 0.0287(8) 0.9194(3)
H127 H -0.189 -0.0065 0.9061
H128 H -0.21 0.0589 0.9135
C77 C -0.2621(8) 0.2072(8) 0.8793(6)
H129 H -0.2473 0.2439 0.8693
H130 H -0.2593 0.211 0.9033
C78 C -0.3209(7) 0.1981(9) 0.8700(5)
H131 H -0.3356 0.233 0.8582
H132 H -0.3452 0.1926 0.8898
C79 C -0.3257(10) 0.1479(12) 0.8496(7)
H133 H -0.3623 0.1259 0.8542
H134 H -0.3251 0.159 0.8262
C80 C -0.2758(7) 0.1146(8) 0.8580(5)
H135 H -0.262 0.0915 0.839
H136 H -0.2849 0.0874 0.8762
K3? K 0.2464(5) 0.2602(6) 0.8719(2)
K4? K -0.2440(3) 0.4880(3) 0.87759(13)
loop_
_geom_bond_atom_site_label_1
_geom_bond_atom_site_label_2
_geom_bond_site_symmetry_1
_geom_bond_site_symmetry_2
K1 O1 1_555 1_555
K2 O4 1_555 1_555
Si1 Si2 1_555 1_555
Si2 Si3 1_555 1_555
Si3 Si4 1_555 1_555
Si4 Si1 1_555 1_555
O1 C57 1_555 1_555
O2 K1 1_555 1_555
O3 K1 1_555 1_555
O4 C69 1_555 1_555
O5 K2 1_555 1_555
O6 K2 1_555 1_555
N1 Si1 1_555 1_555
N2 Si1 1_555 1_555
N3 Si2 1_555 1_555
N4 Si2 1_555 1_555
N5 Si3 1_555 1_555
N6 Si3 1_555 1_555
N7 Si4 1_555 1_555
N8 Si4 1_555 1_555
C1 N1 1_555 1_555
C2 N2 1_555 1_555
C3 C2 1_555 1_555
H1 C3 1_555 1_555
C4 C3 1_555 1_555
H2 C4 1_555 1_555
C5 C4 1_555 1_555
H3 C5 1_555 1_555
C6 C1 1_555 1_555
H4 C6 1_555 1_555
C7 N1 1_555 1_555
H5 C7 1_555 1_555
H6 C7 1_555 1_555
C8 C7 1_555 1_555
H7 C8 1_555 1_555
C9 K1 1_555 1_555
H8 C9 1_555 1_555
H9 C9 1_555 1_555
H10 C9 1_555 1_555
C10 C8 1_555 1_555
H11 C10 1_555 1_555
H12 C10 1_555 1_555
H13 C10 1_555 1_555
C11 N2 1_555 1_555
H14 C11 1_555 1_555
H15 C11 1_555 1_555
C12 C11 1_555 1_555
H16 C12 1_555 1_555
C13 K1 1_555 1_555
H17 C13 1_555 1_555
H18 C13 1_555 1_555
H19 C13 1_555 1_555
C14 C12 1_555 1_555
H20 C14 1_555 1_555
H21 C14 1_555 1_555
H22 C14 1_555 1_555
C15 N3 1_555 1_555
C16 N4 1_555 1_555
C17 K1 1_555 1_555
H23 C17 1_555 1_555
C18 K1 1_555 1_555
H24 C18 1_555 1_555
C19 K1 1_555 1_555
H25 C19 1_555 1_555
C20 K1 1_555 1_555
H26 C20 1_555 1_555
C21 N3 1_555 1_555
H27 C21 1_555 1_555
H28 C21 1_555 1_555
C22 C21 1_555 1_555
H29 C22 1_555 1_555
C23 C22 1_555 1_555
H30 C23 1_555 1_555
H31 C23 1_555 1_555
H32 C23 1_555 1_555
C24 C22 1_555 1_555
H33 C24 1_555 1_555
H34 C24 1_555 1_555
H35 C24 1_555 1_555
C25 N4 1_555 1_555
H36 C25 1_555 1_555
H37 C25 1_555 1_555
C26 C25 1_555 1_555
H38 C26 1_555 1_555
C27 C26 1_555 1_555
H39 C27 1_555 1_555
H40 C27 1_555 1_555
H41 C27 1_555 1_555
C28 C26 1_555 1_555
H42 C28 1_555 1_555
H43 C28 1_555 1_555
H44 C28 1_555 1_555
C29 N5 1_555 1_555
C30 N6 1_555 1_555
C31 C30 1_555 1_555
H45 C31 1_555 1_555
C32 C31 1_555 1_555
H46 C32 1_555 1_555
C33 C32 1_555 1_555
H47 C33 1_555 1_555
C34 C29 1_555 1_555
H48 C34 1_555 1_555
C35 N5 1_555 1_555
H49 C35 1_555 1_555
H50 C35 1_555 1_555
C36 C35 1_555 1_555
H51 C36 1_555 1_555
C37 K2 1_555 1_555
H52 C37 1_555 1_555
H53 C37 1_555 1_555
H54 C37 1_555 1_555
C38 C36 1_555 1_555
H55 C38 1_555 1_555
H56 C38 1_555 1_555
H57 C38 1_555 1_555
C39 N6 1_555 1_555
H58 C39 1_555 1_555
H59 C39 1_555 1_555
C40 C39 1_555 1_555
H60 C40 1_555 1_555
C41 C40 1_555 1_555
H61 C41 1_555 1_555
H62 C41 1_555 1_555
H63 C41 1_555 1_555
C42 K2 1_555 1_555
H64 C42 1_555 1_555
H65 C42 1_555 1_555
H66 C42 1_555 1_555
C43 N7 1_555 1_555
C44 N8 1_555 1_555
C45 K2 1_555 1_555
H67 C45 1_555 1_555
C46 K2 1_555 1_555
H68 C46 1_555 1_555
C47 K2 1_555 1_555
H69 C47 1_555 1_555
C48 K2 1_555 1_555
H70 C48 1_555 1_555
C49 N7 1_555 1_555
H71 C49 1_555 1_555
H72 C49 1_555 1_555
C50 C49 1_555 1_555
H73 C50 1_555 1_555
C51 C50 1_555 1_555
H74 C51 1_555 1_555
H75 C51 1_555 1_555
H76 C51 1_555 1_555
C52 C50 1_555 1_555
H77 C52 1_555 1_555
H78 C52 1_555 1_555
H79 C52 1_555 1_555
C53 N8 1_555 1_555
H80 C53 1_555 1_555
H81 C53 1_555 1_555
C54 C53 1_555 1_555
H82 C54 1_555 1_555
C55 C54 1_555 1_555
H83 C55 1_555 1_555
H84 C55 1_555 1_555
H85 C55 1_555 1_555
C56 C54 1_555 1_555
H86 C56 1_555 1_555
H87 C56 1_555 1_555
H88 C56 1_555 1_555
C57 H89 1_555 1_555
H90 C57 1_555 1_555
C58 C57 1_555 1_555
H91 C58 1_555 1_555
H92 C58 1_555 1_555
C59 C58 1_555 1_555
H93 C59 1_555 1_555
H94 C59 1_555 1_555
C60 O1 1_555 1_555
H95 C60 1_555 1_555
H96 C60 1_555 1_555
C61 O2 1_555 1_555
H97 C61 1_555 1_555
H98 C61 1_555 1_555
C62 C61 1_555 1_555
H99 C62 1_555 1_555
H100 C62 1_555 1_555
C63 C62 1_555 1_555
H101 C63 1_555 1_555
H102 C63 1_555 1_555
C64 O2 1_555 1_555
H103 C64 1_555 1_555
H104 C64 1_555 1_555
C65 O3 1_555 1_555
H105 C65 1_555 1_555
H106 C65 1_555 1_555
C66 C65 1_555 1_555
H107 C66 1_555 1_555
H108 C66 1_555 1_555
C67 C66 1_555 1_555
H109 C67 1_555 1_555
H110 C67 1_555 1_555
C68 O3 1_555 1_555
H111 C68 1_555 1_555
H112 C68 1_555 1_555
C69 H113 1_555 1_555
H114 C69 1_555 1_555
C70 C69 1_555 1_555
H115 C70 1_555 1_555
H116 C70 1_555 1_555
C71 C70 1_555 1_555
H117 C71 1_555 1_555
H118 C71 1_555 1_555
C72 O4 1_555 1_555
H119 C72 1_555 1_555
H120 C72 1_555 1_555
C73 O5 1_555 1_555
H121 C73 1_555 1_555
H122 C73 1_555 1_555
C74 C73 1_555 1_555
H123 C74 1_555 1_555
H124 C74 1_555 1_555
C75 C74 1_555 1_555
H125 C75 1_555 1_555
H126 C75 1_555 1_555
C76 O5 1_555 1_555
H127 C76 1_555 1_555
H128 C76 1_555 1_555
C77 O6 1_555 1_555
H129 C77 1_555 1_555
H130 C77 1_555 1_555
C78 C77 1_555 1_555
H131 C78 1_555 1_555
H132 C78 1_555 1_555
C79 C78 1_555 1_555
H133 C79 1_555 1_555
H134 C79 1_555 1_555
C80 O6 1_555 1_555
H135 C80 1_555 1_555
H136 C80 1_555 1_555
C81 C82 1_555 1_555
C82 C83 1_555 1_555
C83 C84 1_555 1_555
C84 C85 1_555 1_555
C85 C81 1_555 1_555
C86 C87 1_555 1_555
C87 C88 1_555 1_555
C88 C89 1_555 1_555
C89 C90 1_555 1_555
C90 C86 1_555 1_555
C91 C92 1_555 1_555
C92 C93 1_555 1_555
C93 C94 1_555 1_555
C94 C95 1_555 1_555
C95 C91 1_555 1_555
C96 C97 1_555 1_555
C97 C98 1_555 1_555
C98 C99 1_555 1_555
C99 C100 1_555 1_555
C100 C96 1_555 1_555
C1 C2 1_555 1_555
C5 C6 1_555 1_555
C8 C9 1_555 1_555
C12 C13 1_555 1_555
C15 C16 1_555 1_555
C15 C20 1_555 1_555
C16 C17 1_555 1_555
C17 C18 1_555 1_555
C18 C19 1_555 1_555
C19 C20 1_555 1_555
C29 C30 1_555 1_555
C33 C34 1_555 1_555
C36 C37 1_555 1_555
C40 C42 1_555 1_555
C43 C44 1_555 1_555
C43 C48 1_555 1_555
C44 C45 1_555 1_555
C45 C46 1_555 1_555
C46 C47 1_555 1_555
C47 C48 1_555 1_555
C59 C60 1_555 1_555
C63 C64 1_555 1_555
C67 C68 1_555 1_555
C71 C72 1_555 1_555
C75 C76 1_555 1_555
C79 C80 1_555 1_555

#END
