
#######################################################################
#
#                 Cambridge Crystallographic Data Centre
#                                CCDC 
#
#######################################################################
#
# If this CIF has been generated from an entry in the Cambridge 
# Structural Database, then it will include bibliographic, chemical, 
# crystal, experimental, refinement or atomic coordinate data resulting 
# from the CCDC's data processing and validation procedures.
#
#######################################################################

data_TECZUX
_chemical_formula_moiety         'C56 H100 K2 N4 O6 Si2'
_chemical_name_systematic        
(\m~2~-\h^6^,\h^6^-1,1:2,2-bis(1,2-bis(Neopentylamido)benzene-N,N')-disilanide-Si,Si')-hexakis(tetrahydrofuran)-di-potassium
_symmetry_cell_setting           orthorhombic
_symmetry_space_group_name_H-M   'P 21 21 21'
_symmetry_Int_Tables_number      19
_space_group_name_Hall           'P 2ac 2ab'
loop_
_symmetry_equiv_pos_site_id
_symmetry_equiv_pos_as_xyz
1 x,y,z
2 1/2-x,-y,1/2+z
3 1/2+x,1/2-y,-z
4 -x,1/2+y,1/2-z
_cell_length_a                   15.0808(2)
_cell_length_b                   20.3241(2)
_cell_length_c                   20.7401(2)
_cell_angle_alpha                90
_cell_angle_beta                 90
_cell_angle_gamma                90
_cell_volume                     6356.92
_exptl_crystal_colour            black
_exptl_crystal_description       prism
_cell_formula_units_Z            4
loop_
_atom_site_label
_atom_site_type_symbol
_atom_site_fract_x
_atom_site_fract_y
_atom_site_fract_z
K1 K 0.49940(5) 0.64139(3) 0.63783(3)
K2 K 0.50484(5) 0.36697(3) 0.38333(3)
Si1 Si 0.43279(6) 0.54152(4) 0.51482(4)
Si2 Si 0.56502(6) 0.46727(4) 0.50700(4)
N1 N 0.41018(16) 0.55206(12) 0.42808(11)
N2 N 0.34381(16) 0.47973(12) 0.50994(11)
N3 N 0.65567(16) 0.52770(12) 0.51012(11)
N4 N 0.58811(16) 0.45764(12) 0.59365(11)
C1 C 0.3734(2) 0.49682(15) 0.40100(15)
C2 C 0.3355(2) 0.45416(15) 0.44873(15)
C3 C 0.2968(2) 0.39467(17) 0.42919(17)
H1 H 0.2713 0.366 0.4602
C4 C 0.2958(2) 0.37776(19) 0.36385(18)
H2 H 0.2704 0.3371 0.351
C5 C 0.3308(2) 0.41875(19) 0.31821(18)
H3 H 0.3285 0.4067 0.274
C6 C 0.3698(2) 0.47840(17) 0.33629(16)
H4 H 0.3941 0.5065 0.3043
C7 C 0.4563(2) 0.60074(16) 0.38924(15)
H5 H 0.4779 0.5791 0.3495
H6 H 0.5089 0.6161 0.4135
C8 C 0.4002(2) 0.66160(18) 0.36976(18)
C9 C 0.3223(3) 0.64126(19) 0.32705(19)
H7 H 0.2844 0.6102 0.3505
H8 H 0.3448 0.6202 0.2878
H9 H 0.2877 0.6803 0.3154
C10 C 0.4603(3) 0.7082(2) 0.3333(3)
H10 H 0.4829 0.6863 0.2946
H11 H 0.5102 0.721 0.3609
H12 H 0.4268 0.7476 0.3209
C11 C 0.3643(3) 0.6952(2) 0.4300(2)
H13 H 0.3254 0.6647 0.4533
H14 H 0.3307 0.7344 0.4176
H15 H 0.4138 0.7079 0.458
C12 C 0.3045(2) 0.44786(15) 0.56532(14)
H16 H 0.3448 0.4537 0.6026
H17 H 0.3006 0.4001 0.5564
C13 C 0.2114(2) 0.47274(16) 0.58474(15)
C14 C 0.1460(2) 0.4630(2) 0.53002(17)
H18 H 0.1424 0.4161 0.5193
H19 H 0.166 0.4877 0.4921
H20 H 0.0874 0.4789 0.5433
C15 C 0.1817(3) 0.4346(2) 0.64420(19)
H21 H 0.2237 0.4422 0.6795
H22 H 0.1796 0.3875 0.6341
H23 H 0.1226 0.4496 0.6573
C16 C 0.2160(3) 0.54597(17) 0.60023(18)
H24 H 0.257 0.5531 0.6362
H25 H 0.1569 0.5619 0.6122
H26 H 0.2371 0.5701 0.5623
C17 C 0.66649(19) 0.55407(15) 0.57114(14)
C18 C 0.62850(19) 0.51258(14) 0.61983(14)
C19 C 0.6346(2) 0.53172(16) 0.68401(14)
H27 H 0.6104 0.5044 0.7168
C20 C 0.6762(2) 0.59102(17) 0.70075(17)
H28 H 0.68 0.6034 0.7448
C21 C 0.7112(2) 0.63118(17) 0.65444(17)
H29 H 0.7383 0.6716 0.6664
C22 C 0.7071(2) 0.61266(15) 0.58895(16)
H30 H 0.7322 0.6404 0.5569
C23 C 0.6945(2) 0.55799(16) 0.45332(15)
H31 H 0.7009 0.6058 0.4612
H32 H 0.6533 0.5523 0.4166
C24 C 0.7865(2) 0.52968(17) 0.43401(15)
C25 C 0.8153(3) 0.5643(2) 0.37187(19)
H33 H 0.8206 0.6116 0.3798
H34 H 0.771 0.5565 0.3382
H35 H 0.8727 0.5468 0.3579
C26 C 0.7788(3) 0.45633(18) 0.42142(19)
H36 H 0.7595 0.434 0.4609
H37 H 0.8366 0.439 0.4081
H38 H 0.7352 0.4486 0.3872
C27 C 0.8546(2) 0.5414(2) 0.48765(19)
H39 H 0.8603 0.5887 0.4956
H40 H 0.9122 0.5235 0.4744
H41 H 0.835 0.5193 0.5272
C28 C 0.5388(2) 0.41218(16) 0.63385(15)
H42 H 0.4843 0.3993 0.6104
H43 H 0.5201 0.4358 0.6733
C29 C 0.5871(2) 0.34955(16) 0.65426(17)
C30 C 0.6072(4) 0.30865(19) 0.5963(2)
H44 H 0.5518 0.2972 0.5743
H45 H 0.6377 0.2683 0.6097
H46 H 0.6454 0.3336 0.5668
C31 C 0.5257(3) 0.3120(2) 0.7000(3)
H47 H 0.4707 0.3007 0.6774
H48 H 0.512 0.3395 0.7374
H49 H 0.5551 0.2715 0.7143
C32 C 0.6730(3) 0.36639(19) 0.6891(2)
H50 H 0.703 0.3257 0.702
H51 H 0.6596 0.3927 0.7275
H52 H 0.7116 0.3916 0.6602
O1 O 0.5555(3) 0.75838(13) 0.59150(16)
C33 C 0.5908(4) 0.7596(2) 0.5280(2)
H53 H 0.5644 0.7247 0.5008
H54 H 0.6561 0.7544 0.5284
C34 C 0.5649(5) 0.8258(3) 0.5051(3)
H55 H 0.6028 0.8402 0.4688
H56 H 0.5021 0.8266 0.4912
C35 C 0.5786(4) 0.8676(2) 0.5622(3)
H57 H 0.5386 0.9063 0.5616
H58 H 0.6408 0.8829 0.5651
C36 C 0.5561(5) 0.8219(3) 0.6166(3)
H59 H 0.6009 0.8256 0.6514
H60 H 0.4972 0.833 0.6347
O2 O 0.3505(2) 0.71745(16) 0.65980(15)
C37 C 0.3006(4) 0.7344(2) 0.6033(2)
H61 H 0.2982 0.6967 0.5731
H62 H 0.328 0.7723 0.5809
C38 C 0.2100(5) 0.7515(4) 0.6263(3)
H63 H 0.1987 0.7991 0.6201
H64 H 0.1649 0.7266 0.6017
C39 C 0.2053(3) 0.7356(3) 0.6909(2)
H65 H 0.1543 0.7061 0.6989
H66 H 0.1974 0.7759 0.7171
C40 C 0.2893(3) 0.7023(2) 0.70868(19)
H67 H 0.3108 0.7183 0.7509
H68 H 0.2803 0.6541 0.7115
O3 O 0.4428(2) 0.59668(16) 0.75671(12)
C41 C 0.3923(3) 0.5372(3) 0.7540(2)
H69 H 0.4114 0.5099 0.717
H70 H 0.3283 0.5471 0.7492
C42 C 0.4090(4) 0.5026(4) 0.8151(4)
H71 H 0.3542 0.4813 0.831
H72 H 0.4553 0.4685 0.8095
C43 C 0.4383(5) 0.5528(4) 0.8592(3)
H73 H 0.4833 0.5351 0.8893
H74 H 0.3878 0.5701 0.8846
C44 C 0.4765(5) 0.6046(3) 0.8191(2)
H75 H 0.4602 0.6484 0.8362
H76 H 0.542 0.601 0.8186
O4 O 0.4471(4) 0.24311(17) 0.4007(2)
C45 C 0.4101(9) 0.2354(6) 0.4608(6)
H77 H 0.3452 0.2426 0.46
H78 H 0.4375 0.2652 0.4928
C46 C 0.4339(6) 0.1610(4) 0.4747(4)
H79 H 0.4949 0.1563 0.4917
H80 H 0.3915 0.1408 0.5053
C47 C 0.4261(7) 0.1343(5) 0.4142(4)
H81 H 0.3657 0.1163 0.4081
H82 H 0.4692 0.0979 0.4089
C48 C 0.4437(8) 0.1867(5) 0.3657(5)
H83 H 0.5007 0.1788 0.3433
H84 H 0.3956 0.1886 0.3333
O5 O 0.6559(2) 0.29341(19) 0.36777(14)
C49 C 0.7174(3) 0.2748(2) 0.4165(2)
H85 H 0.6995 0.2328 0.4368
H86 H 0.7213 0.3091 0.4503
C50 C 0.8032(3) 0.2675(3) 0.3827(2)
H87 H 0.8392 0.2323 0.4027
H88 H 0.8372 0.3092 0.384
C51 C 0.7795(3) 0.2501(2) 0.3150(2)
H89 H 0.8183 0.2733 0.2839
H90 H 0.7845 0.2021 0.3077
C52 C 0.6868(3) 0.2721(3) 0.3088(2)
H91 H 0.6831 0.3084 0.2771
H92 H 0.6496 0.2354 0.2931
O6 O 0.5620(2) 0.41093(16) 0.26369(13)
C53 C 0.5281(5) 0.4070(3) 0.1995(2)
H93 H 0.463 0.413 0.1989
H94 H 0.5428 0.3642 0.1795
C54 C 0.5746(5) 0.4633(4) 0.1646(3)
H95 H 0.6291 0.4477 0.1429
H96 H 0.535 0.4836 0.1321
C55 C 0.5954(5) 0.5090(5) 0.2147(4)
H97 H 0.545 0.5391 0.2226
H98 H 0.6482 0.5354 0.2032
C56 C 0.6125(3) 0.4693(3) 0.2704(3)
H99 H 0.6764 0.4586 0.2733
H100 H 0.5949 0.493 0.3101
C57? C 0.4966(11) 0.2038(7) 0.4507(7)
H101? H 0.5466 0.1795 0.431
H102? H 0.5198 0.2327 0.4852
C58? C 0.4339(6) 0.1610(4) 0.4747(4)
H103? H 0.4109 0.1786 0.5159
H104? H 0.4625 0.1182 0.4838
C59? C 0.3587(9) 0.1503(6) 0.4301(6)
H105? H 0.3611 0.1062 0.41
H106? H 0.301 0.156 0.4521
C60? C 0.3748(15) 0.2021(10) 0.3834(9)
H107? H 0.3869 0.182 0.3408
H108? H 0.3207 0.2294 0.3793
loop_
_geom_bond_atom_site_label_1
_geom_bond_atom_site_label_2
_geom_bond_site_symmetry_1
_geom_bond_site_symmetry_2
K1 Si1 1_555 1_555
K2 Si2 1_555 1_555
Si1 Si2 1_555 1_555
Si2 N3 1_555 1_555
N1 Si1 1_555 1_555
N2 Si1 1_555 1_555
N3 C17 1_555 1_555
N4 Si2 1_555 1_555
C1 K2 1_555 1_555
C2 K2 1_555 1_555
C3 K2 1_555 1_555
H1 C3 1_555 1_555
C4 K2 1_555 1_555
H2 C4 1_555 1_555
C5 K2 1_555 1_555
H3 C5 1_555 1_555
C6 K2 1_555 1_555
H4 C6 1_555 1_555
C7 N1 1_555 1_555
H5 C7 1_555 1_555
H6 C7 1_555 1_555
C8 C7 1_555 1_555
C9 C8 1_555 1_555
H7 C9 1_555 1_555
H8 C9 1_555 1_555
H9 C9 1_555 1_555
C10 C8 1_555 1_555
H10 C10 1_555 1_555
H11 C10 1_555 1_555
H12 C10 1_555 1_555
C11 C8 1_555 1_555
H13 C11 1_555 1_555
H14 C11 1_555 1_555
H15 C11 1_555 1_555
C12 N2 1_555 1_555
H16 C12 1_555 1_555
H17 C12 1_555 1_555
C13 C12 1_555 1_555
C14 C13 1_555 1_555
H18 C14 1_555 1_555
H19 C14 1_555 1_555
H20 C14 1_555 1_555
C15 C13 1_555 1_555
H21 C15 1_555 1_555
H22 C15 1_555 1_555
H23 C15 1_555 1_555
C16 C13 1_555 1_555
H24 C16 1_555 1_555
H25 C16 1_555 1_555
H26 C16 1_555 1_555
C17 K1 1_555 1_555
C18 K1 1_555 1_555
C19 K1 1_555 1_555
H27 C19 1_555 1_555
C20 K1 1_555 1_555
H28 C20 1_555 1_555
C21 K1 1_555 1_555
H29 C21 1_555 1_555
C22 K1 1_555 1_555
H30 C22 1_555 1_555
C23 N3 1_555 1_555
H31 C23 1_555 1_555
H32 C23 1_555 1_555
C24 C23 1_555 1_555
C25 C24 1_555 1_555
H33 C25 1_555 1_555
H34 C25 1_555 1_555
H35 C25 1_555 1_555
C26 C24 1_555 1_555
H36 C26 1_555 1_555
H37 C26 1_555 1_555
H38 C26 1_555 1_555
C27 C24 1_555 1_555
H39 C27 1_555 1_555
H40 C27 1_555 1_555
H41 C27 1_555 1_555
C28 N4 1_555 1_555
H42 C28 1_555 1_555
H43 C28 1_555 1_555
C29 C28 1_555 1_555
C30 C29 1_555 1_555
H44 C30 1_555 1_555
H45 C30 1_555 1_555
H46 C30 1_555 1_555
C31 C29 1_555 1_555
H47 C31 1_555 1_555
H48 C31 1_555 1_555
H49 C31 1_555 1_555
C32 C29 1_555 1_555
H50 C32 1_555 1_555
H51 C32 1_555 1_555
H52 C32 1_555 1_555
O1 K1 1_555 1_555
C33 O1 1_555 1_555
H53 C33 1_555 1_555
H54 C33 1_555 1_555
C34 C33 1_555 1_555
H55 C34 1_555 1_555
H56 C34 1_555 1_555
C35 C34 1_555 1_555
H57 C35 1_555 1_555
H58 C35 1_555 1_555
C36 O1 1_555 1_555
H59 C36 1_555 1_555
H60 C36 1_555 1_555
O2 K1 1_555 1_555
C37 O2 1_555 1_555
H61 C37 1_555 1_555
H62 C37 1_555 1_555
C38 C37 1_555 1_555
H63 C38 1_555 1_555
H64 C38 1_555 1_555
C39 C38 1_555 1_555
H65 C39 1_555 1_555
H66 C39 1_555 1_555
C40 O2 1_555 1_555
H67 C40 1_555 1_555
H68 C40 1_555 1_555
O3 K1 1_555 1_555
C41 O3 1_555 1_555
H69 C41 1_555 1_555
H70 C41 1_555 1_555
C42 C41 1_555 1_555
H71 C42 1_555 1_555
H72 C42 1_555 1_555
C43 C42 1_555 1_555
H73 C43 1_555 1_555
H74 C43 1_555 1_555
C44 O3 1_555 1_555
H75 C44 1_555 1_555
H76 C44 1_555 1_555
O4 K2 1_555 1_555
C45 O4 1_555 1_555
H77 C45 1_555 1_555
H78 C45 1_555 1_555
C46 C45 1_555 1_555
H79 C46 1_555 1_555
H80 C46 1_555 1_555
C47 C46 1_555 1_555
H81 C47 1_555 1_555
H82 C47 1_555 1_555
C48 O4 1_555 1_555
H83 C48 1_555 1_555
H84 C48 1_555 1_555
O5 K2 1_555 1_555
C49 O5 1_555 1_555
H85 C49 1_555 1_555
H86 C49 1_555 1_555
C50 C49 1_555 1_555
H87 C50 1_555 1_555
H88 C50 1_555 1_555
C51 C50 1_555 1_555
H89 C51 1_555 1_555
H90 C51 1_555 1_555
C52 O5 1_555 1_555
H91 C52 1_555 1_555
H92 C52 1_555 1_555
O6 K2 1_555 1_555
C53 O6 1_555 1_555
H93 C53 1_555 1_555
H94 C53 1_555 1_555
C54 C53 1_555 1_555
H95 C54 1_555 1_555
H96 C54 1_555 1_555
C55 C54 1_555 1_555
H97 C55 1_555 1_555
H98 C55 1_555 1_555
C56 O6 1_555 1_555
H99 C56 1_555 1_555
H100 C56 1_555 1_555
N1 C1 1_555 1_555
N2 C2 1_555 1_555
N4 C18 1_555 1_555
C1 C2 1_555 1_555
C1 C6 1_555 1_555
C2 C3 1_555 1_555
C3 C4 1_555 1_555
C4 C5 1_555 1_555
C5 C6 1_555 1_555
C17 C18 1_555 1_555
C17 C22 1_555 1_555
C18 C19 1_555 1_555
C19 C20 1_555 1_555
C20 C21 1_555 1_555
C21 C22 1_555 1_555
C35 C36 1_555 1_555
C39 C40 1_555 1_555
C43 C44 1_555 1_555
C47 C48 1_555 1_555
C51 C52 1_555 1_555
C55 C56 1_555 1_555

#END
