
#######################################################################
#
#                 Cambridge Crystallographic Data Centre
#                                CCDC 
#
#######################################################################
#
# If this CIF has been generated from an entry in the Cambridge 
# Structural Database, then it will include bibliographic, chemical, 
# crystal, experimental, refinement or atomic coordinate data resulting 
# from the CCDC's data processing and validation procedures.
#
#######################################################################

data_TEDBUA
_chemical_formula_moiety         'C32 H52 Cl2 N4 Si2'
_chemical_name_systematic        
1,2-Dichloro-1,1:2,2-bis(1,2-bis(neopentylamido)benzene-N,N')-disilane
_symmetry_cell_setting           monoclinic
_symmetry_space_group_name_H-M   'C 2/c'
_symmetry_Int_Tables_number      15
_space_group_name_Hall           '-C 2yn'
loop_
_symmetry_equiv_pos_site_id
_symmetry_equiv_pos_as_xyz
1 x,y,z
2 1/2+x,1/2+y,z
3 -x,y,1/2-z
4 1/2-x,1/2+y,1/2-z
5 -x,-y,-z
6 1/2-x,1/2-y,-z
7 x,-y,1/2+z
8 1/2+x,1/2-y,1/2+z
_cell_length_a                   14.1952(14)
_cell_length_b                   20.166(3)
_cell_length_c                   12.5955(14)
_cell_angle_alpha                90
_cell_angle_beta                 97.602(6)
_cell_angle_gamma                90
_cell_volume                     3573.9
_exptl_crystal_colour            colorless
_exptl_crystal_description       needle
_cell_formula_units_Z            4
_exptl_crystal_recrystallization_method tetrahydrofuran
loop_
_atom_site_label
_atom_site_type_symbol
_atom_site_fract_x
_atom_site_fract_y
_atom_site_fract_z
Si1 Si -0.08200(6) 0.31196(5) 0.21634(7)
Cl1 Cl -0.09739(6) 0.38832(5) 0.10353(7)
N1 N -0.15883(17) 0.31678(13) 0.3105(2)
N2 N -0.13411(17) 0.24256(13) 0.1552(2)
C1 C -0.2302(2) 0.26770(16) 0.2884(3)
C2 C -0.2170(2) 0.22659(16) 0.2014(3)
C3 C -0.2819(2) 0.17700(17) 0.1693(3)
H1 H -0.2729 0.1491 0.1107
C4 C -0.3604(2) 0.16813(18) 0.2233(3)
H2 H -0.4057 0.1347 0.2006
C5 C -0.3724(2) 0.20776(19) 0.3094(3)
H3 H -0.4257 0.201 0.3465
C6 C -0.3078(2) 0.25748(17) 0.3427(3)
H4 H -0.3166 0.2844 0.4025
C7 C -0.1526(2) 0.35601(17) 0.4101(3)
H5 H -0.0845 0.3614 0.4379
H6 H -0.1817 0.3296 0.4635
C8 C -0.1985(2) 0.42510(18) 0.4049(3)
C9 C -0.1384(3) 0.4752(2) 0.3540(4)
H7 H -0.0736 0.475 0.3922
H8 H -0.1661 0.5195 0.3583
H9 H -0.1369 0.4635 0.2788
C10 C -0.2019(3) 0.4468(2) 0.5209(3)
H10 H -0.1375 0.4468 0.56
H11 H -0.2418 0.4159 0.5553
H12 H -0.2287 0.4915 0.5217
C11 C -0.2988(3) 0.4246(2) 0.3463(4)
H13 H -0.325 0.4696 0.3446
H14 H -0.3384 0.395 0.3834
H15 H -0.2979 0.4088 0.2728
C12 C -0.1224(2) 0.21802(17) 0.0468(3)
H16 H -0.0981 0.2552 0.0068
H17 H -0.1862 0.2066 0.0097
C13 C -0.0572(2) 0.15818(17) 0.0381(3)
C14 C 0.0447(2) 0.17548(18) 0.0846(3)
H18 H 0.0857 0.1368 0.0795
H19 H 0.0464 0.1882 0.1599
H20 H 0.0673 0.2125 0.0443
C15 C -0.0621(3) 0.1431(2) -0.0821(3)
H21 H -0.1275 0.1318 -0.1113
H22 H -0.0202 0.1056 -0.0923
H23 H -0.0416 0.1821 -0.1193
C16 C -0.0893(2) 0.09766(18) 0.0963(3)
H24 H -0.1547 0.0863 0.0669
H25 H -0.0864 0.1076 0.1728
H26 H -0.0474 0.0601 0.0867
Si1B Si 0.08200(6) 0.31196(5) 0.28366(7)
Cl1B Cl 0.09739(6) 0.38832(5) 0.39647(7)
N1B N 0.15883(17) 0.31678(13) 0.1895(2)
N2B N 0.13411(17) 0.24256(13) 0.3448(2)
C1B C 0.2302(2) 0.26770(16) 0.2116(3)
C2B C 0.2170(2) 0.22659(16) 0.2986(3)
C3B C 0.2819(2) 0.17700(17) 0.3307(3)
H1B H 0.2729 0.1491 0.3893
C4B C 0.3604(2) 0.16813(18) 0.2767(3)
H2B H 0.4057 0.1347 0.2994
C5B C 0.3724(2) 0.20776(19) 0.1906(3)
H3B H 0.4257 0.201 0.1535
C6B C 0.3078(2) 0.25748(17) 0.1573(3)
H4B H 0.3166 0.2844 0.0975
C7B C 0.1526(2) 0.35601(17) 0.0899(3)
H5B H 0.0845 0.3614 0.0621
H6B H 0.1817 0.3296 0.0365
C8B C 0.1985(2) 0.42510(18) 0.0951(3)
C9B C 0.1384(3) 0.4752(2) 0.1460(4)
H7B H 0.0736 0.475 0.1078
H8B H 0.1661 0.5195 0.1417
H9B H 0.1369 0.4635 0.2212
C10B C 0.2019(3) 0.4468(2) -0.0209(3)
H10B H 0.1375 0.4468 -0.06
H11B H 0.2418 0.4159 -0.0553
H12B H 0.2287 0.4915 -0.0217
C11B C 0.2988(3) 0.4246(2) 0.1537(4)
H13B H 0.325 0.4696 0.1554
H14B H 0.3384 0.395 0.1166
H15B H 0.2979 0.4088 0.2272
C12B C 0.1224(2) 0.21802(17) 0.4532(3)
H16B H 0.0981 0.2552 0.4932
H17B H 0.1862 0.2066 0.4903
C13B C 0.0572(2) 0.15818(17) 0.4619(3)
C14B C -0.0447(2) 0.17548(18) 0.4154(3)
H18B H -0.0857 0.1368 0.4205
H19B H -0.0464 0.1882 0.3401
H20B H -0.0673 0.2125 0.4557
C15B C 0.0621(3) 0.1431(2) 0.5821(3)
H21B H 0.1275 0.1318 0.6113
H22B H 0.0202 0.1056 0.5923
H23B H 0.0416 0.1821 0.6193
C16B C 0.0893(2) 0.09766(18) 0.4037(3)
H24B H 0.1547 0.0863 0.4331
H25B H 0.0864 0.1076 0.3272
H26B H 0.0474 0.0601 0.4133
loop_
_geom_bond_atom_site_label_1
_geom_bond_atom_site_label_2
_geom_bond_site_symmetry_1
_geom_bond_site_symmetry_2
Si1 Cl1 1_555 1_555
N1 Si1 1_555 1_555
N2 Si1 1_555 1_555
C1 N1 1_555 1_555
C2 N2 1_555 1_555
C3 C2 1_555 1_555
H1 C3 1_555 1_555
C4 C3 1_555 1_555
H2 C4 1_555 1_555
C5 C4 1_555 1_555
H3 C5 1_555 1_555
C6 C1 1_555 1_555
H4 C6 1_555 1_555
C7 N1 1_555 1_555
H5 C7 1_555 1_555
H6 C7 1_555 1_555
C8 C7 1_555 1_555
C9 C8 1_555 1_555
H7 C9 1_555 1_555
H8 C9 1_555 1_555
H9 C9 1_555 1_555
C10 C8 1_555 1_555
H10 C10 1_555 1_555
H11 C10 1_555 1_555
H12 C10 1_555 1_555
C11 C8 1_555 1_555
H13 C11 1_555 1_555
H14 C11 1_555 1_555
H15 C11 1_555 1_555
C12 N2 1_555 1_555
H16 C12 1_555 1_555
H17 C12 1_555 1_555
C13 C12 1_555 1_555
C14 C13 1_555 1_555
H18 C14 1_555 1_555
H19 C14 1_555 1_555
H20 C14 1_555 1_555
C15 C13 1_555 1_555
H21 C15 1_555 1_555
H22 C15 1_555 1_555
H23 C15 1_555 1_555
C16 C13 1_555 1_555
H24 C16 1_555 1_555
H25 C16 1_555 1_555
H26 C16 1_555 1_555
Si1B Si1 1_555 1_555
Cl1B Si1B 1_555 1_555
N1B Si1B 1_555 1_555
N2B Si1B 1_555 1_555
C1B N1B 1_555 1_555
C2B N2B 1_555 1_555
C3B C2B 1_555 1_555
H1B C3B 1_555 1_555
C4B C3B 1_555 1_555
H2B C4B 1_555 1_555
C5B C4B 1_555 1_555
H3B C5B 1_555 1_555
C6B C1B 1_555 1_555
H4B C6B 1_555 1_555
C7B N1B 1_555 1_555
H5B C7B 1_555 1_555
H6B C7B 1_555 1_555
C8B C7B 1_555 1_555
C9B C8B 1_555 1_555
H7B C9B 1_555 1_555
H8B C9B 1_555 1_555
H9B C9B 1_555 1_555
C10B C8B 1_555 1_555
H10B C10B 1_555 1_555
H11B C10B 1_555 1_555
H12B C10B 1_555 1_555
C11B C8B 1_555 1_555
H13B C11B 1_555 1_555
H14B C11B 1_555 1_555
H15B C11B 1_555 1_555
C12B N2B 1_555 1_555
H16B C12B 1_555 1_555
H17B C12B 1_555 1_555
C13B C12B 1_555 1_555
C14B C13B 1_555 1_555
H18B C14B 1_555 1_555
H19B C14B 1_555 1_555
H20B C14B 1_555 1_555
C15B C13B 1_555 1_555
H21B C15B 1_555 1_555
H22B C15B 1_555 1_555
H23B C15B 1_555 1_555
C16B C13B 1_555 1_555
H24B C16B 1_555 1_555
H25B C16B 1_555 1_555
H26B C16B 1_555 1_555
C1 C2 1_555 1_555
C5 C6 1_555 1_555
C1B C2B 1_555 1_555
C5B C6B 1_555 1_555

#END
