
#######################################################################
#
#                 Cambridge Crystallographic Data Centre
#                                CCDC 
#
#######################################################################
#
# If this CIF has been generated from an entry in the Cambridge 
# Structural Database, then it will include bibliographic, chemical, 
# crystal, experimental, refinement or atomic coordinate data resulting 
# from the CCDC's data processing and validation procedures.
#
#######################################################################

data_TEDBOU
_chemical_formula_moiety         'C38 H70 N4 Si4'
_chemical_name_systematic        
1,1:2,2-bis(1,2-bis(Neopentylamido)benzene-N,N')-1,2-bis(trimethylsilyl)-disilane
_symmetry_cell_setting           monoclinic
_symmetry_space_group_name_H-M   'P 21/n'
_symmetry_Int_Tables_number      14
_space_group_name_Hall           '-P 2yn'
loop_
_symmetry_equiv_pos_site_id
_symmetry_equiv_pos_as_xyz
1 x,y,z
2 1/2-x,1/2+y,1/2-z
3 -x,-y,-z
4 1/2+x,1/2-y,1/2+z
_cell_length_a                   11.0126(2)
_cell_length_b                   10.7343(2)
_cell_length_c                   17.9366(4)
_cell_angle_alpha                90
_cell_angle_beta                 93.993(1)
_cell_angle_gamma                90
_cell_volume                     2115.18
_exptl_crystal_colour            yellow
_exptl_crystal_description       prism
_cell_formula_units_Z            2
_exptl_crystal_recrystallization_method benzene
loop_
_atom_site_label
_atom_site_type_symbol
_atom_site_fract_x
_atom_site_fract_y
_atom_site_fract_z
Si1 Si 0.53647(4) 0.39753(4) 0.52428(2)
Si2 Si 0.75295(4) 0.38646(4) 0.53843(3)
N1 N 0.46404(12) 0.27438(12) 0.47299(7)
N2 N 0.46362(12) 0.35363(13) 0.60504(7)
C1 C 0.35753(14) 0.24236(15) 0.50773(8)
C2 C 0.35720(14) 0.28746(15) 0.58193(8)
C3 C 0.25566(16) 0.26915(18) 0.62215(10)
H1 H 0.2547 0.2998 0.6718
C4 C 0.15512(17) 0.2057(2) 0.58969(11)
H2 H 0.0858 0.193 0.6175
C5 C 0.15533(17) 0.1613(2) 0.51783(12)
H3 H 0.0863 0.118 0.4963
C6 C 0.25634(16) 0.17956(18) 0.47627(10)
H4 H 0.2559 0.1491 0.4265
C7 C 0.47346(16) 0.25529(15) 0.39268(8)
H5 H 0.5237 0.3237 0.3742
H6 H 0.3909 0.2641 0.3677
C8 C 0.52709(17) 0.13099(16) 0.36670(9)
C9 C 0.4479(2) 0.01875(19) 0.38224(13)
H7 H 0.366 0.0312 0.3584
H8 H 0.4431 0.0094 0.4363
H9 H 0.4838 -0.0565 0.362
C10 C 0.5360(2) 0.1438(2) 0.28185(11)
H10 H 0.4546 0.157 0.2575
H11 H 0.5712 0.0676 0.2623
H12 H 0.5881 0.215 0.2716
C11 C 0.6531(2) 0.1097(2) 0.40449(12)
H13 H 0.7054 0.181 0.3949
H14 H 0.6882 0.0338 0.3845
H15 H 0.6471 0.1005 0.4585
C12 C 0.47251(17) 0.42341(16) 0.67533(9)
H16 H 0.3903 0.4555 0.6838
H17 H 0.5252 0.4966 0.6684
C13 C 0.52151(19) 0.35578(18) 0.74765(9)
C14 C 0.64480(19) 0.2970(2) 0.73708(11)
H18 H 0.6357 0.2324 0.6984
H19 H 0.6768 0.2595 0.7842
H20 H 0.7013 0.3611 0.7217
C15 C 0.5349(3) 0.4565(3) 0.80760(13)
H21 H 0.4553 0.4944 0.814
H22 H 0.5915 0.5206 0.7924
H23 H 0.5664 0.4193 0.8549
C16 C 0.4372(2) 0.2528(3) 0.77233(13)
H24 H 0.3566 0.2877 0.7792
H25 H 0.4709 0.217 0.8196
H26 H 0.4302 0.1876 0.734
C17 C 0.8199(2) 0.4200(2) 0.44724(13)
H27 H 0.792 0.5017 0.4288
H28 H 0.7938 0.3558 0.4107
H29 H 0.9089 0.4199 0.4546
C18 C 0.80653(17) 0.22942(18) 0.57398(11)
H30 H 0.7721 0.2123 0.6219
H31 H 0.8956 0.2291 0.5809
H32 H 0.7798 0.1651 0.5377
C19 C 0.81202(19) 0.5108(2) 0.60507(12)
H33 H 0.7844 0.5926 0.5864
H34 H 0.9012 0.5087 0.6093
H35 H 0.7813 0.4961 0.6543
Si1B Si 0.46353(4) 0.60247(4) 0.47572(2)
Si2B Si 0.24705(4) 0.61354(4) 0.46157(3)
N1B N 0.53596(12) 0.72562(12) 0.52701(7)
N2B N 0.53638(12) 0.64637(13) 0.39496(7)
C1B C 0.64247(14) 0.75764(15) 0.49227(8)
C2B C 0.64280(14) 0.71254(15) 0.41807(8)
C3B C 0.74434(16) 0.73085(18) 0.37785(10)
H1B H 0.7453 0.7002 0.3282
C4B C 0.84488(17) 0.7943(2) 0.41031(11)
H2B H 0.9142 0.807 0.3825
C5B C 0.84467(17) 0.8387(2) 0.48217(12)
H3B H 0.9137 0.882 0.5037
C6B C 0.74366(16) 0.82044(18) 0.52373(10)
H4B H 0.7441 0.8509 0.5735
C7B C 0.52654(16) 0.74471(15) 0.60732(8)
H5B H 0.4763 0.6763 0.6258
H6B H 0.6091 0.7359 0.6323
C8B C 0.47291(17) 0.86901(16) 0.63330(9)
C9B C 0.5521(2) 0.98125(19) 0.61776(13)
H7B H 0.634 0.9688 0.6416
H8B H 0.5569 0.9906 0.5637
H9B H 0.5162 1.0565 0.638
C10B C 0.4640(2) 0.8562(2) 0.71815(11)
H10B H 0.5454 0.843 0.7425
H11B H 0.4288 0.9324 0.7377
H12B H 0.4119 0.785 0.7284
C11B C 0.3469(2) 0.8903(2) 0.59551(12)
H13B H 0.2946 0.819 0.6051
H14B H 0.3118 0.9662 0.6155
H15B H 0.3529 0.8995 0.5415
C12B C 0.52749(17) 0.57659(16) 0.32467(9)
H16B H 0.6097 0.5445 0.3162
H17B H 0.4748 0.5034 0.3316
C13B C 0.47849(19) 0.64422(18) 0.25235(9)
C14B C 0.35520(19) 0.7030(2) 0.26292(11)
H18B H 0.3643 0.7676 0.3016
H19B H 0.3232 0.7405 0.2158
H20B H 0.2987 0.6389 0.2783
C15B C 0.4651(3) 0.5435(3) 0.19240(13)
H21B H 0.5447 0.5056 0.186
H22B H 0.4085 0.4794 0.2076
H23B H 0.4336 0.5807 0.1451
C16B C 0.5628(2) 0.7472(3) 0.22767(13)
H24B H 0.6434 0.7123 0.2208
H25B H 0.5291 0.783 0.1804
H26B H 0.5698 0.8124 0.266
C17B C 0.1801(2) 0.5800(2) 0.55276(13)
H27B H 0.208 0.4983 0.5712
H28B H 0.2062 0.6442 0.5893
H29B H 0.0911 0.5801 0.5454
C18B C 0.19347(17) 0.77058(18) 0.42602(11)
H30B H 0.2279 0.7877 0.3781
H31B H 0.1044 0.7709 0.4191
H32B H 0.2202 0.8349 0.4623
C19B C 0.18798(19) 0.4892(2) 0.39493(12)
H33B H 0.2156 0.4074 0.4136
H34B H 0.0988 0.4913 0.3907
H35B H 0.2187 0.5039 0.3457
loop_
_geom_bond_atom_site_label_1
_geom_bond_atom_site_label_2
_geom_bond_site_symmetry_1
_geom_bond_site_symmetry_2
Si1 Si2 1_555 1_555
Si2 C17 1_555 1_555
N1 Si1 1_555 1_555
N2 Si1 1_555 1_555
C1 N1 1_555 1_555
C2 N2 1_555 1_555
C3 C2 1_555 1_555
H1 C3 1_555 1_555
C4 C3 1_555 1_555
H2 C4 1_555 1_555
C5 C4 1_555 1_555
H3 C5 1_555 1_555
C6 C1 1_555 1_555
H4 C6 1_555 1_555
C7 N1 1_555 1_555
H5 C7 1_555 1_555
H6 C7 1_555 1_555
C8 C7 1_555 1_555
C9 C8 1_555 1_555
H7 C9 1_555 1_555
H8 C9 1_555 1_555
H9 C9 1_555 1_555
C10 C8 1_555 1_555
H10 C10 1_555 1_555
H11 C10 1_555 1_555
H12 C10 1_555 1_555
C11 C8 1_555 1_555
H13 C11 1_555 1_555
H14 C11 1_555 1_555
H15 C11 1_555 1_555
C12 N2 1_555 1_555
H16 C12 1_555 1_555
H17 C12 1_555 1_555
C13 C12 1_555 1_555
C14 C13 1_555 1_555
H18 C14 1_555 1_555
H19 C14 1_555 1_555
H20 C14 1_555 1_555
C15 C13 1_555 1_555
H21 C15 1_555 1_555
H22 C15 1_555 1_555
H23 C15 1_555 1_555
C16 C13 1_555 1_555
H24 C16 1_555 1_555
H25 C16 1_555 1_555
H26 C16 1_555 1_555
C17 H27 1_555 1_555
H28 C17 1_555 1_555
H29 C17 1_555 1_555
C18 Si2 1_555 1_555
H30 C18 1_555 1_555
H31 C18 1_555 1_555
H32 C18 1_555 1_555
C19 Si2 1_555 1_555
H33 C19 1_555 1_555
H34 C19 1_555 1_555
H35 C19 1_555 1_555
Si1B Si1 1_555 1_555
Si2B Si1B 1_555 1_555
N1B Si1B 1_555 1_555
N2B Si1B 1_555 1_555
C1B N1B 1_555 1_555
C2B N2B 1_555 1_555
C3B C2B 1_555 1_555
H1B C3B 1_555 1_555
C4B C3B 1_555 1_555
H2B C4B 1_555 1_555
C5B C4B 1_555 1_555
H3B C5B 1_555 1_555
C6B C1B 1_555 1_555
H4B C6B 1_555 1_555
C7B N1B 1_555 1_555
H5B C7B 1_555 1_555
H6B C7B 1_555 1_555
C8B C7B 1_555 1_555
C9B C8B 1_555 1_555
H7B C9B 1_555 1_555
H8B C9B 1_555 1_555
H9B C9B 1_555 1_555
C10B C8B 1_555 1_555
H10B C10B 1_555 1_555
H11B C10B 1_555 1_555
H12B C10B 1_555 1_555
C11B C8B 1_555 1_555
H13B C11B 1_555 1_555
H14B C11B 1_555 1_555
H15B C11B 1_555 1_555
C12B N2B 1_555 1_555
H16B C12B 1_555 1_555
H17B C12B 1_555 1_555
C13B C12B 1_555 1_555
C14B C13B 1_555 1_555
H18B C14B 1_555 1_555
H19B C14B 1_555 1_555
H20B C14B 1_555 1_555
C15B C13B 1_555 1_555
H21B C15B 1_555 1_555
H22B C15B 1_555 1_555
H23B C15B 1_555 1_555
C16B C13B 1_555 1_555
H24B C16B 1_555 1_555
H25B C16B 1_555 1_555
H26B C16B 1_555 1_555
C17B Si2B 1_555 1_555
H27B C17B 1_555 1_555
H28B C17B 1_555 1_555
H29B C17B 1_555 1_555
C18B Si2B 1_555 1_555
H30B C18B 1_555 1_555
H31B C18B 1_555 1_555
H32B C18B 1_555 1_555
C19B Si2B 1_555 1_555
H33B C19B 1_555 1_555
H34B C19B 1_555 1_555
H35B C19B 1_555 1_555
C1 C2 1_555 1_555
C5 C6 1_555 1_555
C1B C2B 1_555 1_555
C5B C6B 1_555 1_555

#END
