
#######################################################################
#
#                 Cambridge Crystallographic Data Centre
#                                CCDC 
#
#######################################################################
#
# If this CIF has been generated from an entry in the Cambridge 
# Structural Database, then it will include bibliographic, chemical, 
# crystal, experimental, refinement or atomic coordinate data resulting 
# from the CCDC's data processing and validation procedures.
#
#######################################################################

data_TEDDIS
_chemical_formula_moiety         'C44 H42 N2 O5 Se3'
_chemical_name_systematic        
1,2,4,5-tetrabutoxy-14H-3,6,15-triselena-7,13b-diazacyclopenta[mno]phenaleno[1',2':5,6]azuleno[7,8,1,2-fghi]acephenanthrylen-14-one
_symmetry_cell_setting           orthorhombic
_symmetry_space_group_name_H-M   'P b c a'
_symmetry_Int_Tables_number      61
_space_group_name_Hall           '-P 2ac 2ab'
loop_
_symmetry_equiv_pos_site_id
_symmetry_equiv_pos_as_xyz
1 x,y,z
2 1/2-x,-y,1/2+z
3 1/2+x,1/2-y,-z
4 -x,1/2+y,1/2-z
5 -x,-y,-z
6 1/2+x,y,1/2-z
7 1/2-x,1/2+y,z
8 x,1/2-y,1/2+z
_cell_length_a                   11.1187(2)
_cell_length_b                   25.8565(7)
_cell_length_c                   26.1274(6)
_cell_angle_alpha                90
_cell_angle_beta                 90
_cell_angle_gamma                90
_cell_volume                     7511.38
_exptl_crystal_colour            red
_exptl_crystal_description       needle
_chemical_melting_point          '506-508 K'
_cell_formula_units_Z            8
loop_
_atom_site_label
_atom_site_type_symbol
_atom_site_fract_x
_atom_site_fract_y
_atom_site_fract_z
C1 C 0.2749(4) 0.00569(16) 0.50567(14)
C2 C 0.3296(4) 0.03781(17) 0.54419(15)
C3 C 0.4278(4) 0.02029(17) 0.57227(15)
C4 C 0.4726(4) -0.03012(18) 0.56556(16)
C5 C 0.4173(4) -0.06290(17) 0.53026(15)
C6 C 0.3183(4) -0.04582(18) 0.49905(15)
C7 C 0.2742(4) 0.08434(16) 0.55642(15)
C8 C 0.3200(4) 0.11374(17) 0.59790(16)
C9 C 0.4219(4) 0.09597(17) 0.62504(15)
C10 C 0.4726(4) 0.04885(18) 0.61278(15)
C11 C 0.5591(4) -0.04756(18) 0.59964(15)
C12 C 0.5909(4) -0.10033(19) 0.59814(16)
C13 C 0.5328(4) -0.13406(18) 0.56361(17)
C14 C 0.4458(4) -0.11504(18) 0.53008(15)
C15 C 0.2680(4) -0.08463(17) 0.47111(15)
C16 C 0.1689(4) -0.08557(16) 0.43549(15)
C17 C 0.0931(3) 0.00836(15) 0.44453(14)
C18 C 0.1739(4) 0.02730(16) 0.48428(14)
C19 C 0.0526(4) -0.04255(17) 0.36894(15)
C20 C 0.0924(5) -0.07440(19) 0.33005(16)
H1 H 0.1656 -0.0916 0.3329
C21 C 0.0204(6) -0.0805(2) 0.28591(17)
H2 H 0.0474 -0.1018 0.2596
C22 C -0.0870(5) -0.0564(2) 0.28098(17)
H3 H -0.1355 -0.0635 0.2529
C23 C -0.1260(5) -0.02041(19) 0.31811(17)
C24 C -0.0520(4) -0.01260(17) 0.36207(15)
C25 C -0.2307(5) 0.0104(2) 0.31363(18)
H4 H -0.2828 0.0048 0.2863
C26 C -0.2569(4) 0.0480(2) 0.34828(17)
H5 H -0.3269 0.0673 0.3446
C27 C -0.1790(4) 0.05812(19) 0.38995(16)
H6 H -0.1950 0.0853 0.4123
C28 C -0.0795(4) 0.02750(17) 0.39711(15)
C29 C 0.1458(5) 0.1694(2) 0.6082(2)
H7 H 0.0993 0.1388 0.6165
H8 H 0.1300 0.1785 0.5728
C30 C 0.1102(5) 0.2132(2) 0.6427(2)
H9 H 0.0256 0.2204 0.6372
H10 H 0.1191 0.2017 0.6779
C31 C 0.1779(6) 0.2622(2) 0.6365(3)
H11 H 0.1720 0.2730 0.6011
H12 H 0.2621 0.2555 0.6436
C32 C 0.1379(7) 0.3058(2) 0.6695(3)
H13 H 0.0574 0.3155 0.6603
H14 H 0.1907 0.3348 0.6647
H15 H 0.1396 0.2952 0.7047
C33 C 0.5121(8) 0.1734(3) 0.6566(3)
H16 H 0.4537 0.1993 0.6668
H17 H 0.5289 0.1776 0.6205
C34 C 0.6245(8) 0.1793(4) 0.6870(4)
H18 H 0.6031 0.1777 0.7229
H19 H 0.6754 0.1497 0.6798
C35 C 0.6922(12) 0.2235(4) 0.6796(4)
H20 H 0.6433 0.2534 0.6876
H21 H 0.7147 0.2257 0.6438
C36 C 0.8060(7) 0.2249(5) 0.7123(6)
H22 H 0.8753 0.2219 0.6906
H23 H 0.8048 0.1966 0.7361
H24 H 0.8094 0.2570 0.7307
C37 C 0.7576(4) -0.0941(2) 0.65708(19)
H25 H 0.7193 -0.0762 0.6853
H26 H 0.7930 -0.0686 0.6345
C38 C 0.8529(4) -0.1297(2) 0.6768(2)
H27 H 0.8962 -0.1443 0.6480
H28 H 0.8147 -0.1580 0.6949
C39 C 0.9424(5) -0.1037(2) 0.7124(2)
H29 H 0.9713 -0.0721 0.6966
H30 H 0.9022 -0.0945 0.7441
C40 C 1.0483(6) -0.1383(3) 0.7244(3)
H31 H 1.0880 -0.1478 0.6932
H32 H 1.0206 -0.1689 0.7416
H33 H 1.1037 -0.1201 0.7461
C41 C 0.6597(4) -0.2072(2) 0.54653(19)
H34 H 0.6902 -0.2339 0.5691
H35 H 0.7195 -0.1800 0.5445
C42 C 0.6391(4) -0.2294(2) 0.49440(19)
H36 H 0.7150 -0.2424 0.4814
H37 H 0.6127 -0.2019 0.4718
C43 C 0.5465(5) -0.27315(19) 0.49263(18)
H38 H 0.5703 -0.2998 0.5167
H39 H 0.4693 -0.2597 0.5036
C44 C 0.5321(6) -0.2973(2) 0.4405(2)
H40 H 0.5057 -0.2715 0.4166
H41 H 0.4735 -0.3245 0.4422
H42 H 0.6078 -0.3112 0.4295
N1 N 0.1159(3) -0.03796(14) 0.41695(12)
N2 N 0.0028(3) 0.03868(14) 0.43598(12)
O1 O 0.2715(3) 0.15908(12) 0.61504(13)
O2 O 0.4661(3) 0.12239(13) 0.66640(12)
O3 O 0.6709(3) -0.12428(14) 0.62988(13)
O4 O 0.5488(3) -0.18635(13) 0.56741(13)
O5 O 0.1339(3) -0.12671(12) 0.41775(11)
Se1 Se 0.13671(4) 0.092374(17) 0.513350(15)
Se2 Se 0.59347(4) 0.00818(2) 0.647025(17)
Se3 Se 0.34196(4) -0.150166(19) 0.484059(18)
loop_
_geom_bond_atom_site_label_1
_geom_bond_atom_site_label_2
_geom_bond_site_symmetry_1
_geom_bond_site_symmetry_2
C1 C2 1_555 1_555
C2 C3 1_555 1_555
C3 C4 1_555 1_555
C4 C5 1_555 1_555
C5 C6 1_555 1_555
C6 C1 1_555 1_555
C7 C2 1_555 1_555
C8 C7 1_555 1_555
C9 C8 1_555 1_555
C10 C3 1_555 1_555
C11 C4 1_555 1_555
C12 C11 1_555 1_555
C13 C12 1_555 1_555
C14 C5 1_555 1_555
C15 C6 1_555 1_555
C16 C15 1_555 1_555
C17 C18 1_555 1_555
C18 C1 1_555 1_555
C19 C20 1_555 1_555
C20 H1 1_555 1_555
C21 C20 1_555 1_555
H2 C21 1_555 1_555
C22 C21 1_555 1_555
H3 C22 1_555 1_555
C23 C22 1_555 1_555
C24 C19 1_555 1_555
C25 C23 1_555 1_555
H4 C25 1_555 1_555
C26 C25 1_555 1_555
H5 C26 1_555 1_555
C27 C26 1_555 1_555
H6 C27 1_555 1_555
C28 C24 1_555 1_555
C29 H7 1_555 1_555
H8 C29 1_555 1_555
C30 C29 1_555 1_555
H9 C30 1_555 1_555
H10 C30 1_555 1_555
C31 C30 1_555 1_555
H11 C31 1_555 1_555
H12 C31 1_555 1_555
C32 C31 1_555 1_555
H13 C32 1_555 1_555
H14 C32 1_555 1_555
H15 C32 1_555 1_555
C33 H16 1_555 1_555
H17 C33 1_555 1_555
C34 C33 1_555 1_555
H18 C34 1_555 1_555
H19 C34 1_555 1_555
C35 C34 1_555 1_555
H20 C35 1_555 1_555
H21 C35 1_555 1_555
C36 C35 1_555 1_555
H22 C36 1_555 1_555
H23 C36 1_555 1_555
H24 C36 1_555 1_555
C37 H25 1_555 1_555
H26 C37 1_555 1_555
C38 C37 1_555 1_555
H27 C38 1_555 1_555
H28 C38 1_555 1_555
C39 C38 1_555 1_555
H29 C39 1_555 1_555
H30 C39 1_555 1_555
C40 C39 1_555 1_555
H31 C40 1_555 1_555
H32 C40 1_555 1_555
H33 C40 1_555 1_555
C41 H34 1_555 1_555
H35 C41 1_555 1_555
C42 C41 1_555 1_555
H36 C42 1_555 1_555
H37 C42 1_555 1_555
C43 C42 1_555 1_555
H38 C43 1_555 1_555
H39 C43 1_555 1_555
C44 C43 1_555 1_555
H40 C44 1_555 1_555
H41 C44 1_555 1_555
H42 C44 1_555 1_555
N1 C16 1_555 1_555
N2 C17 1_555 1_555
O1 C8 1_555 1_555
O2 C9 1_555 1_555
O3 C12 1_555 1_555
O4 C13 1_555 1_555
O5 C16 1_555 1_555
Se1 C7 1_555 1_555
Se2 C10 1_555 1_555
Se3 C14 1_555 1_555
C9 C10 1_555 1_555
C11 Se2 1_555 1_555
C13 C14 1_555 1_555
C15 Se3 1_555 1_555
C17 N1 1_555 1_555
C18 Se1 1_555 1_555
C19 N1 1_555 1_555
C23 C24 1_555 1_555
C27 C28 1_555 1_555
C28 N2 1_555 1_555
C29 O1 1_555 1_555
C33 O2 1_555 1_555
C37 O3 1_555 1_555
C41 O4 1_555 1_555

#END
