
#######################################################################
#
#                 Cambridge Crystallographic Data Centre
#                                CCDC 
#
#######################################################################
#
# If this CIF has been generated from an entry in the Cambridge 
# Structural Database, then it will include bibliographic, chemical, 
# crystal, experimental, refinement or atomic coordinate data resulting 
# from the CCDC's data processing and validation procedures.
#
#######################################################################

data_TEDDOY
_chemical_formula_moiety         'C46 H44 N2 O5 Se3'
_chemical_name_systematic        
2,3,16,17-tetrabutoxy-5H-1,4,15-triselena-5a,14-diazacyclopenta[mno]dibenzo[3',4':5',6']cyclohepta[1',2':4,5]azuleno[7,8,1,2-fghi]acephenanthrylen-5-one
_symmetry_cell_setting           monoclinic
_symmetry_space_group_name_H-M   'P 21/c'
_symmetry_Int_Tables_number      14
_space_group_name_Hall           '-P 2ybc'
loop_
_symmetry_equiv_pos_site_id
_symmetry_equiv_pos_as_xyz
1 x,y,z
2 -x,1/2+y,1/2-z
3 -x,-y,-z
4 x,1/2-y,1/2+z
_cell_length_a                   7.7880(16)
_cell_length_b                   19.363(4)
_cell_length_c                   26.629(5)
_cell_angle_alpha                90
_cell_angle_beta                 96.97(3)
_cell_angle_gamma                90
_cell_volume                     3985.95
_exptl_crystal_colour            red
_exptl_crystal_description       'tiny needle'
_chemical_melting_point          '485-487 K'
_cell_formula_units_Z            4
_chemical_properties_physical    ', Light-sensitive'
_exptl_crystal_recrystallization_method dichloromethane
_exptl_crystal_preparation       ', Luminescent'
loop_
_atom_site_label
_atom_site_type_symbol
_atom_site_fract_x
_atom_site_fract_y
_atom_site_fract_z
C1 C 0.1955(9) -0.0282(3) 0.5463(3)
C2 C 0.1488(9) -0.0872(3) 0.5716(3)
C3 C 0.1303(9) -0.1542(3) 0.5490(3)
C4 C 0.1684(9) -0.1610(4) 0.4968(3)
C5 C 0.2216(9) -0.1005(4) 0.4724(3)
C6 C 0.2321(9) -0.0354(3) 0.4954(3)
C7 C 0.2177(9) 0.0364(4) 0.5692(3)
C8 C 0.1894(9) 0.0419(4) 0.6205(3)
C9 C 0.1500(9) -0.0185(4) 0.6474(3)
C10 C 0.1280(9) -0.0817(4) 0.6225(3)
C11 C 0.2856(9) 0.0236(4) 0.4725(3)
C12 C 0.3331(9) 0.0154(4) 0.4221(3)
C13 C 0.3213(10) -0.0503(4) 0.3987(3)
C14 C 0.2634(9) -0.1074(4) 0.4238(3)
C15 C 0.1640(10) -0.2188(4) 0.4655(4)
C16 C 0.0804(12) -0.2862(4) 0.4747(3)
C17 C 0.0847(11) -0.2798(4) 0.5707(3)
C18 C 0.0967(10) -0.2046(4) 0.5825(4)
C19 C -0.1430(12) -0.3383(4) 0.5183(3)
C20 C -0.2885(12) -0.3103(4) 0.4910(3)
H1 H -0.279510 -0.268828 0.473883
C21 C -0.4485(13) -0.3432(5) 0.4887(4)
H2 H -0.545328 -0.324572 0.469500
C22 C -0.4610(15) -0.4050(5) 0.5158(4)
H3 H -0.567467 -0.426737 0.516094
C23 C -0.3121(13) -0.4334(5) 0.5424(4)
H4 H -0.319819 -0.474793 0.559687
C24 C -0.1515(13) -0.4008(4) 0.5434(3)
C25 C 0.0101(13) -0.4332(4) 0.5694(3)
C26 C 0.0333(14) -0.5040(4) 0.5674(3)
H5 H -0.053260 -0.530652 0.549764
C27 C 0.1810(15) -0.5369(5) 0.5908(4)
H6 H 0.195896 -0.584203 0.586874
C28 C 0.3059(17) -0.4981(5) 0.6201(5)
H7 H 0.403223 -0.519566 0.636847
C29 C 0.2852(16) -0.4278(5) 0.6242(4)
H8 H 0.367643 -0.402221 0.644472
C30 C 0.1409(14) -0.3942(4) 0.5982(3)
C31 C 0.2751(15) -0.0027(8) 0.7325(4)
H9 H 0.317863 0.043706 0.728213
H10 H 0.364680 -0.035036 0.725730
C32 C 0.236(2) -0.0117(8) 0.7840(5)
H11 H 0.344433 -0.009298 0.806158
H12 H 0.166918 0.027506 0.792123
C33 C 0.154(4) -0.0688(16) 0.7958(9)
H13 H 0.121785 -0.092127 0.763764
H14 H 0.046878 -0.052836 0.806836
C34 C 0.214(2) -0.1224(8) 0.8304(8)
H15 H 0.324451 -0.109795 0.847995
H16 H 0.224736 -0.164612 0.812222
H17 H 0.132599 -0.128681 0.854425
C35 C 0.2556(11) 0.1630(4) 0.6300(3)
H18 H 0.175507 0.178555 0.601486
H19 H 0.368802 0.157210 0.618876
C36 C 0.2640(14) 0.2155(4) 0.6734(4)
H20 H 0.151715 0.217509 0.685638
H21 H 0.346857 0.199246 0.701082
C37 C 0.3134(16) 0.2855(5) 0.6594(4)
H22 H 0.231478 0.302256 0.631704
H23 H 0.426927 0.284295 0.647948
C38 C 0.3164(19) 0.3353(6) 0.7049(4)
H24 H 0.203513 0.337088 0.715842
H25 H 0.349017 0.380630 0.694945
H26 H 0.398567 0.319054 0.732117
C39 C 0.3834(10) 0.1373(4) 0.4094(3)
H27 H 0.473914 0.148126 0.436537
H28 H 0.272308 0.145637 0.421261
C40 C 0.4022(10) 0.1819(4) 0.3634(3)
H29 H 0.316381 0.168368 0.335713
H30 H 0.515818 0.174904 0.352890
C41 C 0.3787(11) 0.2583(4) 0.3755(3)
H31 H 0.275829 0.263646 0.392367
H32 H 0.477066 0.273788 0.398633
C42 C 0.3624(16) 0.3025(5) 0.3291(4)
H33 H 0.456431 0.292862 0.309958
H34 H 0.365495 0.350292 0.338747
H35 H 0.254689 0.292707 0.308781
C43 C 0.2863(13) -0.0280(5) 0.3098(4)
H36 H 0.172272 -0.015268 0.317718
H37 H 0.345580 0.013736 0.301413
C44 C 0.270(2) -0.0735(8) 0.2677(7)
H38 H 0.384429 -0.076337 0.256740
H39 H 0.197296 -0.050071 0.240932
C45 C 0.208(4) -0.1426(11) 0.2684(8)
H40 H 0.303885 -0.166505 0.287537
H41 H 0.120490 -0.139250 0.291318
C46 C 0.148(4) -0.1870(13) 0.2388(8)
H42 H 0.075599 -0.165859 0.211371
H43 H 0.081075 -0.218935 0.255993
H44 H 0.240831 -0.211285 0.225830
N1 N 0.0224(9) -0.3005(3) 0.5207(3)
N2 N 0.1333(10) -0.3216(3) 0.6067(3)
O1 O 0.0487(9) -0.3261(3) 0.4384(2)
O2 O 0.1219(7) -0.0143(3) 0.6973(2)
O3 O 0.1982(8) 0.0999(3) 0.6491(2)
O4 O 0.3963(7) 0.0662(3) 0.3944(2)
O5 O 0.3817(7) -0.0607(3) 0.3529(2)
Se1 Se 0.28787(10) 0.09930(3) 0.51920(3)
Se2 Se 0.08785(10) -0.17101(4) 0.64871(3)
Se3 Se 0.23444(11) -0.20090(4) 0.40236(3)
loop_
_geom_bond_atom_site_label_1
_geom_bond_atom_site_label_2
_geom_bond_site_symmetry_1
_geom_bond_site_symmetry_2
C1 C2 1_555 1_555
C2 C3 1_555 1_555
C3 C4 1_555 1_555
C4 C5 1_555 1_555
C5 C6 1_555 1_555
C6 C1 1_555 1_555
C7 C1 1_555 1_555
C8 C7 1_555 1_555
C9 C8 1_555 1_555
C10 C2 1_555 1_555
C11 C6 1_555 1_555
C12 C11 1_555 1_555
C13 C12 1_555 1_555
C14 C5 1_555 1_555
C15 C4 1_555 1_555
C16 C15 1_555 1_555
C17 C18 1_555 1_555
C18 C3 1_555 1_555
C19 C20 1_555 1_555
C20 H1 1_555 1_555
C21 C20 1_555 1_555
H2 C21 1_555 1_555
C22 C21 1_555 1_555
H3 C22 1_555 1_555
C23 C22 1_555 1_555
H4 C23 1_555 1_555
C24 C19 1_555 1_555
C25 C24 1_555 1_555
C26 C25 1_555 1_555
H5 C26 1_555 1_555
C27 C26 1_555 1_555
H6 C27 1_555 1_555
C28 C27 1_555 1_555
H7 C28 1_555 1_555
C29 C28 1_555 1_555
H8 C29 1_555 1_555
C30 C25 1_555 1_555
C31 H9 1_555 1_555
H10 C31 1_555 1_555
C32 C31 1_555 1_555
H11 C32 1_555 1_555
H12 C32 1_555 1_555
C33 C32 1_555 1_555
H13 C33 1_555 1_555
H14 C33 1_555 1_555
C34 C33 1_555 1_555
H15 C34 1_555 1_555
H16 C34 1_555 1_555
H17 C34 1_555 1_555
C35 H18 1_555 1_555
H19 C35 1_555 1_555
C36 C35 1_555 1_555
H20 C36 1_555 1_555
H21 C36 1_555 1_555
C37 C36 1_555 1_555
H22 C37 1_555 1_555
H23 C37 1_555 1_555
C38 C37 1_555 1_555
H24 C38 1_555 1_555
H25 C38 1_555 1_555
H26 C38 1_555 1_555
C39 H27 1_555 1_555
H28 C39 1_555 1_555
C40 C39 1_555 1_555
H29 C40 1_555 1_555
H30 C40 1_555 1_555
C41 C40 1_555 1_555
H31 C41 1_555 1_555
H32 C41 1_555 1_555
C42 C41 1_555 1_555
H33 C42 1_555 1_555
H34 C42 1_555 1_555
H35 C42 1_555 1_555
C43 H36 1_555 1_555
H37 C43 1_555 1_555
C44 C43 1_555 1_555
H38 C44 1_555 1_555
H39 C44 1_555 1_555
C45 C44 1_555 1_555
H40 C45 1_555 1_555
H41 C45 1_555 1_555
C46 C45 1_555 1_555
H42 C46 1_555 1_555
H43 C46 1_555 1_555
H44 C46 1_555 1_555
N1 C16 1_555 1_555
N2 C17 1_555 1_555
O1 C16 1_555 1_555
O2 C9 1_555 1_555
O3 C8 1_555 1_555
O4 C12 1_555 1_555
O5 C13 1_555 1_555
Se1 C7 1_555 1_555
Se2 C10 1_555 1_555
Se3 C14 1_555 1_555
C9 C10 1_555 1_555
C11 Se1 1_555 1_555
C13 C14 1_555 1_555
C15 Se3 1_555 1_555
C17 N1 1_555 1_555
C18 Se2 1_555 1_555
C19 N1 1_555 1_555
C23 C24 1_555 1_555
C29 C30 1_555 1_555
C30 N2 1_555 1_555
C31 O2 1_555 1_555
C35 O3 1_555 1_555
C39 O4 1_555 1_555
C43 O5 1_555 1_555

#END
