
#######################################################################
#
#                 Cambridge Crystallographic Data Centre
#                                CCDC 
#
#######################################################################
#
# If this CIF has been generated from an entry in the Cambridge 
# Structural Database, then it will include bibliographic, chemical, 
# crystal, experimental, refinement or atomic coordinate data resulting 
# from the CCDC's data processing and validation procedures.
#
#######################################################################

data_TEDDEO
_chemical_formula_moiety         'C40 H40 N2 O5 Se3'
_chemical_name_systematic        
1,2,4,5-tetra-n-butoxy-12H-3,6,13-triselena-7,11b-diazacyclopenta[mno]indeno[1',2':5,6]azuleno[7,8,1,2-fghi]acephenanthrylen-12-one
_symmetry_cell_setting           triclinic
_symmetry_space_group_name_H-M   'P -1'
_symmetry_Int_Tables_number      2
_space_group_name_Hall           '-P 1'
loop_
_symmetry_equiv_pos_site_id
_symmetry_equiv_pos_as_xyz
1 x,y,z
2 -x,-y,-z
_cell_length_a                   15.216(4)
_cell_length_b                   16.214(3)
_cell_length_c                   16.647(3)
_cell_angle_alpha                67.74(3)
_cell_angle_beta                 80.56(3)
_cell_angle_gamma                68.29(3)
_cell_volume                     3529.97
_exptl_crystal_colour            red
_exptl_crystal_description       needle
_chemical_melting_point          'above 573 K'
_cell_formula_units_Z            4
loop_
_atom_site_label
_atom_site_type_symbol
_atom_site_fract_x
_atom_site_fract_y
_atom_site_fract_z
C1 C 0.5435(3) 0.6373(2) 0.4866(2)
C2 C 0.5538(3) 0.6040(3) 0.4192(2)
C3 C 0.6076(3) 0.5084(3) 0.4250(2)
C4 C 0.6530(3) 0.4445(3) 0.5069(2)
C5 C 0.6419(3) 0.4815(2) 0.5745(2)
C6 C 0.5882(3) 0.5747(2) 0.5662(2)
C7 C 0.4927(3) 0.7312(3) 0.4799(3)
C8 C 0.4498(3) 0.7945(3) 0.4003(3)
C9 C 0.4607(3) 0.7607(4) 0.3306(3)
C10 C 0.5123(3) 0.6660(4) 0.3399(2)
C11 C 0.5788(3) 0.6109(3) 0.6317(2)
C12 C 0.6268(3) 0.5486(3) 0.7098(2)
C13 C 0.6822(3) 0.4544(3) 0.7183(2)
C14 C 0.6893(3) 0.4201(3) 0.6506(2)
C15 C 0.6095(3) 0.4913(4) 0.3495(3)
C16 C 0.6520(5) 0.4086(5) 0.3282(5)
C17 C 0.7086(3) 0.3504(3) 0.5279(3)
C18 C 0.7360(4) 0.2920(4) 0.4740(5)
C19 C 0.8540(4) 0.0859(4) 0.3349(4)
H1 H 0.8895 0.0269 0.3309
C20 C 0.8109(4) 0.1496(4) 0.2600(5)
H2 H 0.8165 0.1369 0.2090
C21 C 0.7552(3) 0.2457(3) 0.3558(3)
C22 C 0.3746(5) 0.9266(4) 0.4525(7)
H3 H 0.4331 0.9225 0.4722
H4 H 0.3472 0.8861 0.5006
C23 C 0.3083(5) 1.0265(5) 0.4334(5)
H5 H 0.2525 1.0328 0.4075
H6 H 0.2883 1.0370 0.4881
C24 C 0.3425(7) 1.0965(5) 0.3801(8)
H7 H 0.3669 1.0818 0.3277
H8 H 0.3964 1.0907 0.4084
C25 C 0.2812(5) 1.2001(4) 0.3514(4)
H9 H 0.3178 1.2379 0.3142
H10 H 0.2585 1.2186 0.4015
H11 H 0.2283 1.2095 0.3204
C26 C 0.4646(4) 0.8860(4) 0.1977(3)
H12 H 0.5327 0.8546 0.1980
H13 H 0.4501 0.9384 0.2181
C27 C 0.4285(4) 0.9216(4) 0.1069(3)
H14 H 0.3601 0.9488 0.1092
H15 H 0.4526 0.9717 0.0702
C28 C 0.4553(5) 0.8475(4) 0.0654(4)
H16 H 0.4282 0.7989 0.1002
H17 H 0.5235 0.8179 0.0655
C29 C 0.4219(6) 0.8869(5) -0.0282(4)
H18 H 0.4410 0.8364 -0.0510
H19 H 0.4495 0.9340 -0.0634
H20 H 0.3541 0.9149 -0.0287
C30 C 0.5385(4) 0.6433(5) 0.7965(4)
H21 H 0.4846 0.6407 0.7748
H22 H 0.5426 0.7062 0.7671
C31 C 0.5269(5) 0.6215(6) 0.8961(4)
H23 H 0.4650 0.6615 0.9088
H24 H 0.5293 0.5562 0.9245
C32 C 0.5999(5) 0.6360(5) 0.9335(4)
H25 H 0.5954 0.7020 0.9082
H26 H 0.6623 0.5981 0.9193
C33 C 0.5864(5) 0.6082(5) 1.0321(3)
H27 H 0.6343 0.6178 1.0551
H28 H 0.5915 0.5427 1.0571
H29 H 0.5250 0.6465 1.0461
C34 C 0.6765(5) 0.3468(5) 0.8609(3)
H30 H 0.6412 0.3228 0.8370
H31 H 0.6317 0.3915 0.8863
C35 C 0.7426(6) 0.2646(5) 0.9310(4)
H32 H 0.7042 0.2345 0.9767
H33 H 0.7828 0.2181 0.9054
C36 C 0.8038(5) 0.2911(5) 0.9708(4)
H34 H 0.8492 0.3125 0.9275
H35 H 0.8388 0.2360 1.0173
C37 C 0.7466(10) 0.3677(11) 1.0060(10)
H36 H 0.7879 0.3834 1.0313
H37 H 0.7024 0.3462 1.0496
H38 H 0.7128 0.4227 0.9599
N1 N 0.7109(4) 0.3225(5) 0.3865(4)
O1 O 0.3982(3) 0.8880(3) 0.3832(3)
O2 O 0.4175(3) 0.8200(3) 0.2531(2)
O3 O 0.6248(3) 0.5726(3) 0.7807(2)
O4 O 0.7330(2) 0.3937(3) 0.79246(19)
Se1 Se 0.50655(18) 0.73890(16) 0.59790(17)
Se2 Se 0.53377(14) 0.6150(2) 0.25811(8)
Se3 Se 0.75505(14) 0.29883(13) 0.63283(17)
C38 C 0.8002(5) 0.1802(5) 0.4218(5)
C39 C 0.8563(6) 0.0903(6) 0.4177(6)
H39 H 0.8905 0.0403 0.4638
C40 C 0.7555(6) 0.2392(6) 0.2692(5)
H40 H 0.7217 0.2903 0.2235
N2 N 0.7871(5) 0.2103(4) 0.4919(5)
O5 O 0.6293(5) 0.4230(5) 0.2473(3)
C44 C 0.8487(3) 0.5156(3) 0.3989(2)
C45 C 0.8518(3) 0.4916(3) 0.3261(2)
C46 C 0.9031(3) 0.3985(3) 0.3230(3)
C47 C 0.9522(3) 0.3274(3) 0.3996(3)
C48 C 0.9471(3) 0.3541(3) 0.4741(3)
C49 C 0.8982(3) 0.4451(3) 0.4743(2)
C50 C 0.8015(3) 0.6064(3) 0.4010(2)
C51 C 0.7548(3) 0.6773(3) 0.3252(3)
C52 C 0.7594(3) 0.6540(3) 0.2508(3)
C53 C 0.8069(3) 0.5612(3) 0.2503(2)
C54 C 0.8954(3) 0.4730(3) 0.5446(2)
C55 C 0.9465(3) 0.4023(3) 0.6193(3)
C56 C 0.9942(3) 0.3083(3) 0.6199(3)
C57 C 0.9954(3) 0.2848(3) 0.5470(3)
C58 C 0.9000(4) 0.3919(4) 0.2444(3)
C59 C 0.9422(4) 0.3175(4) 0.2078(4)
C60 C 1.0058(4) 0.2352(3) 0.4110(4)
C61 C 1.0278(4) 0.1867(4) 0.3465(5)
C62 C 1.0907(5) 0.0774(5) 0.2909(5)
C63 C 1.1410(6) -0.0076(6) 0.2814(5)
H43 H 1.1741 -0.0590 0.3272
C64 C 1.1411(5) -0.0150(5) 0.2025(5)
H44 H 1.1756 -0.0727 0.1954
C65 C 1.0928(5) 0.0587(5) 0.1330(5)
H45 H 1.0953 0.0493 0.0808
C66 C 1.0395(5) 0.1485(5) 0.1389(6)
H46 H 1.0067 0.1995 0.0926
C67 C 1.0406(4) 0.1539(4) 0.2241(4)
C68 C 0.6986(4) 0.8023(3) 0.3871(3)
H47 H 0.7608 0.7988 0.3980
H48 H 0.6752 0.7628 0.4395
C69 C 0.6308(4) 0.9054(3) 0.3621(3)
H49 H 0.5715 0.9085 0.3447
H50 H 0.6175 0.9239 0.4130
C70 C 0.6676(4) 0.9751(3) 0.2903(4)
H51 H 0.6779 0.9589 0.2383
H52 H 0.7281 0.9707 0.3063
C71 C 0.5997(4) 1.0771(3) 0.2704(4)
H53 H 0.6263 1.1190 0.2242
H54 H 0.5903 1.0940 0.3214
H55 H 0.5402 1.0823 0.2532
C72 C 0.7673(4) 0.7869(4) 0.1276(3)
H56 H 0.8342 0.7513 0.1251
H57 H 0.7595 0.8314 0.1563
C73 C 0.7294(4) 0.8396(4) 0.0367(3)
H58 H 0.7558 0.8900 0.0076
H59 H 0.6613 0.8687 0.0407
C74 C 0.7521(4) 0.7771(4) -0.0180(3)
H60 H 0.7256 0.7269 0.0110
H61 H 0.8202 0.7480 -0.0219
C75 C 0.7138(5) 0.8308(4) -0.1103(3)
H62 H 0.7304 0.7876 -0.1413
H63 H 0.7409 0.8797 -0.1400
H64 H 0.6462 0.8587 -0.1071
C76 C 0.9021(3) 0.5018(3) 0.7064(3)
H65 H 0.8353 0.5181 0.6983
H66 H 0.9233 0.5524 0.6655
C77 C 0.9188(4) 0.4877(3) 0.7988(3)
H67 H 0.8992 0.4355 0.8384
H68 H 0.9861 0.4706 0.8057
C78 C 0.8664(4) 0.5744(4) 0.8235(3)
H69 H 0.7991 0.5918 0.8166
H70 H 0.8863 0.6267 0.7844
C79 C 0.8841(5) 0.5579(6) 0.9173(4)
H71 H 0.8496 0.6145 0.9303
H72 H 0.9505 0.5418 0.9241
H73 H 0.8633 0.5070 0.9562
C80 C 0.9737(5) 0.2072(4) 0.7649(4)
H74 H 0.9279 0.2616 0.7774
H75 H 0.9396 0.1782 0.7458
C81 C 1.0255(5) 0.1377(4) 0.8455(4)
H76 H 1.0573 0.1678 0.8658
H77 H 0.9806 0.1183 0.8905
C82 C 1.0964(5) 0.0528(5) 0.8297(4)
H78 H 1.1426 0.0716 0.7859
H79 H 1.0651 0.0231 0.8084
C83 C 1.1483(6) -0.0203(5) 0.9167(5)
H80 H 1.1938 -0.0748 0.9058
H81 H 1.1026 -0.0393 0.9598
H82 H 1.1800 0.0090 0.9373
N4 N 1.0807(4) 0.0969(4) 0.3740(5)
N5 N 0.9988(3) 0.2281(4) 0.2601(4)
O7 O 0.9313(4) 0.3292(4) 0.1315(3)
O8 O 0.7041(2) 0.7698(2) 0.3154(2)
O9 O 0.7154(2) 0.7231(2) 0.17565(19)
O10 O 0.9553(3) 0.4141(2) 0.6933(2)
O11 O 1.0420(3) 0.2396(3) 0.6933(3)
Se7 Se 0.82074(18) 0.60386(11) 0.51525(16)
Se8 Se 0.82455(7) 0.51473(11) 0.16047(7)
Se9 Se 1.05551(5) 0.17075(6) 0.52081(13)
Se4? Se 0.4974(3) 0.7497(3) 0.5762(2)
Se5? Se 0.55236(19) 0.5806(3) 0.26308(9)
Se6? Se 0.75352(19) 0.3007(2) 0.6560(2)
C41? C 0.7266(9) 0.2812(10) 0.2825(6)
C42? C 0.7489(9) 0.2385(9) 0.2219(8)
H41? H 0.7265 0.2646 0.1658
C43? C 0.8230(9) 0.1401(10) 0.3923(8)
H42? H 0.8426 0.1132 0.4493
N3? N 0.6656(7) 0.3783(8) 0.2713(6)
O6? O 0.7939(6) 0.1927(6) 0.5356(7)
Se10? Se 0.8152(7) 0.6116(6) 0.5070(6)
Se11? Se 0.8459(3) 0.4734(6) 0.1749(2)
Se12? Se 1.0586(2) 0.1649(3) 0.5571(4)
loop_
_geom_bond_atom_site_label_1
_geom_bond_atom_site_label_2
_geom_bond_site_symmetry_1
_geom_bond_site_symmetry_2
C1 C2 1_555 1_555
C2 C3 1_555 1_555
C3 C4 1_555 1_555
C4 C5 1_555 1_555
C5 C6 1_555 1_555
C6 C1 1_555 1_555
C7 C1 1_555 1_555
C8 C7 1_555 1_555
C9 C8 1_555 1_555
C10 C2 1_555 1_555
C11 C6 1_555 1_555
C12 C11 1_555 1_555
C13 C12 1_555 1_555
C14 C5 1_555 1_555
C15 C3 1_555 1_555
C16 C15 1_555 1_555
C17 C4 1_555 1_555
C18 C17 1_555 1_555
C19 H1 1_555 1_555
C20 C19 1_555 1_555
H2 C20 1_555 1_555
C21 N1 1_555 1_555
C22 H3 1_555 1_555
H4 C22 1_555 1_555
C23 C22 1_555 1_555
H5 C23 1_555 1_555
H6 C23 1_555 1_555
C24 C23 1_555 1_555
H7 C24 1_555 1_555
H8 C24 1_555 1_555
C25 C24 1_555 1_555
H9 C25 1_555 1_555
H10 C25 1_555 1_555
H11 C25 1_555 1_555
C26 H12 1_555 1_555
H13 C26 1_555 1_555
C27 C26 1_555 1_555
H14 C27 1_555 1_555
H15 C27 1_555 1_555
C28 C27 1_555 1_555
H16 C28 1_555 1_555
H17 C28 1_555 1_555
C29 C28 1_555 1_555
H18 C29 1_555 1_555
H19 C29 1_555 1_555
H20 C29 1_555 1_555
C30 H21 1_555 1_555
H22 C30 1_555 1_555
C31 C30 1_555 1_555
H23 C31 1_555 1_555
H24 C31 1_555 1_555
C32 C31 1_555 1_555
H25 C32 1_555 1_555
H26 C32 1_555 1_555
C33 C32 1_555 1_555
H27 C33 1_555 1_555
H28 C33 1_555 1_555
H29 C33 1_555 1_555
C34 H30 1_555 1_555
H31 C34 1_555 1_555
C35 C34 1_555 1_555
H32 C35 1_555 1_555
H33 C35 1_555 1_555
C36 C35 1_555 1_555
H34 C36 1_555 1_555
H35 C36 1_555 1_555
C37 C36 1_555 1_555
H36 C37 1_555 1_555
H37 C37 1_555 1_555
H38 C37 1_555 1_555
N1 C16 1_555 1_555
O1 C8 1_555 1_555
O2 C9 1_555 1_555
O3 C12 1_555 1_555
O4 C13 1_555 1_555
Se1 C7 1_555 1_555
Se2 C10 1_555 1_555
Se3 C14 1_555 1_555
C38 C21 1_555 1_555
C39 C19 1_555 1_555
H39 C39 1_555 1_555
C40 C20 1_555 1_555
H40 C40 1_555 1_555
N2 C18 1_555 1_555
O5 C16 1_555 1_555
C44 C45 1_555 1_555
C45 C46 1_555 1_555
C46 C47 1_555 1_555
C47 C48 1_555 1_555
C48 C49 1_555 1_555
C49 C44 1_555 1_555
C50 C44 1_555 1_555
C51 C50 1_555 1_555
C52 C51 1_555 1_555
C53 C45 1_555 1_555
C54 C49 1_555 1_555
C55 C54 1_555 1_555
C56 C55 1_555 1_555
C57 C48 1_555 1_555
C58 C46 1_555 1_555
C59 C58 1_555 1_555
C60 C47 1_555 1_555
C61 C60 1_555 1_555
C62 C63 1_555 1_555
C63 H43 1_555 1_555
C64 C63 1_555 1_555
H44 C64 1_555 1_555
C65 C64 1_555 1_555
H45 C65 1_555 1_555
C66 C65 1_555 1_555
H46 C66 1_555 1_555
C67 C62 1_555 1_555
C68 H47 1_555 1_555
H48 C68 1_555 1_555
C69 C68 1_555 1_555
H49 C69 1_555 1_555
H50 C69 1_555 1_555
C70 C69 1_555 1_555
H51 C70 1_555 1_555
H52 C70 1_555 1_555
C71 C70 1_555 1_555
H53 C71 1_555 1_555
H54 C71 1_555 1_555
H55 C71 1_555 1_555
C72 H56 1_555 1_555
H57 C72 1_555 1_555
C73 C72 1_555 1_555
H58 C73 1_555 1_555
H59 C73 1_555 1_555
C74 C73 1_555 1_555
H60 C74 1_555 1_555
H61 C74 1_555 1_555
C75 C74 1_555 1_555
H62 C75 1_555 1_555
H63 C75 1_555 1_555
H64 C75 1_555 1_555
C76 H65 1_555 1_555
H66 C76 1_555 1_555
C77 C76 1_555 1_555
H67 C77 1_555 1_555
H68 C77 1_555 1_555
C78 C77 1_555 1_555
H69 C78 1_555 1_555
H70 C78 1_555 1_555
C79 C78 1_555 1_555
H71 C79 1_555 1_555
H72 C79 1_555 1_555
H73 C79 1_555 1_555
C80 H74 1_555 1_555
H75 C80 1_555 1_555
C81 C80 1_555 1_555
H76 C81 1_555 1_555
H77 C81 1_555 1_555
C82 C81 1_555 1_555
H78 C82 1_555 1_555
H79 C82 1_555 1_555
C83 C82 1_555 1_555
H80 C83 1_555 1_555
H81 C83 1_555 1_555
H82 C83 1_555 1_555
N4 C61 1_555 1_555
N5 C59 1_555 1_555
O7 C59 1_555 1_555
O8 C51 1_555 1_555
O9 C52 1_555 1_555
O10 C55 1_555 1_555
O11 C56 1_555 1_555
Se7 C50 1_555 1_555
Se8 C53 1_555 1_555
Se9 C57 1_555 1_555
C9 C10 1_555 1_555
C11 Se1 1_555 1_555
C13 C14 1_555 1_555
C15 Se2 1_555 1_555
C17 Se3 1_555 1_555
C18 N1 1_555 1_555
C21 C40 1_555 1_555
C22 O1 1_555 1_555
C26 O2 1_555 1_555
C30 O3 1_555 1_555
C34 O4 1_555 1_555
C38 C39 1_555 1_555
C38 N2 1_555 1_555
C52 C53 1_555 1_555
C54 Se7 1_555 1_555
C56 C57 1_555 1_555
C58 Se8 1_555 1_555
C60 Se9 1_555 1_555
C61 N5 1_555 1_555
C62 N4 1_555 1_555
C66 C67 1_555 1_555
C67 N5 1_555 1_555
C68 O8 1_555 1_555
C72 O9 1_555 1_555
C76 O10 1_555 1_555
C80 O11 1_555 1_555

#END
