
#######################################################################
#
#                 Cambridge Crystallographic Data Centre
#                                CCDC 
#
#######################################################################
#
# If this CIF has been generated from an entry in the Cambridge 
# Structural Database, then it will include bibliographic, chemical, 
# crystal, experimental, refinement or atomic coordinate data resulting 
# from the CCDC's data processing and validation procedures.
#
#######################################################################

data_TEDDAK
_chemical_formula_moiety         'C44 H42 N2 O5 S3'
_chemical_name_systematic        
1,2,4,5-tetrabutoxy-14H-3,6,15-trithia-7,13b-diazacyclopenta[mno]phenaleno[1',2':5,6]azuleno[7,8,1,2-fghi]acephenanthrylen-14-one
_symmetry_cell_setting           orthorhombic
_symmetry_space_group_name_H-M   'P b c a'
_symmetry_Int_Tables_number      61
_space_group_name_Hall           '-P 2ac 2ab'
loop_
_symmetry_equiv_pos_site_id
_symmetry_equiv_pos_as_xyz
1 x,y,z
2 1/2-x,-y,1/2+z
3 1/2+x,1/2-y,-z
4 -x,1/2+y,1/2-z
5 -x,-y,-z
6 1/2+x,y,1/2-z
7 1/2-x,1/2+y,z
8 x,1/2-y,1/2+z
_cell_length_a                   11.087(2)
_cell_length_b                   25.657(5)
_cell_length_c                   26.080(5)
_cell_angle_alpha                90
_cell_angle_beta                 90
_cell_angle_gamma                90
_cell_volume                     7418.69
_exptl_crystal_colour            red
_exptl_crystal_description       needle
_chemical_melting_point          '483-485 K'
_cell_formula_units_Z            8
loop_
_atom_site_label
_atom_site_type_symbol
_atom_site_fract_x
_atom_site_fract_y
_atom_site_fract_z
C1 C 0.2234(3) 0.00867(13) 0.50647(11)
C2 C 0.1702(3) 0.04100(13) 0.54516(12)
C3 C 0.0708(3) 0.02453(14) 0.57321(13)
C4 C 0.0231(3) -0.02623(14) 0.56550(13)
C5 C 0.0771(3) -0.05898(14) 0.53045(14)
C6 C 0.1759(3) -0.04298(13) 0.49930(13)
C7 C 0.2333(3) 0.08598(12) 0.55798(11)
C8 C 0.1890(3) 0.11560(13) 0.60044(12)
C9 C 0.0829(3) 0.09895(15) 0.62747(12)
C10 C 0.0264(3) 0.05167(15) 0.61475(12)
C11 C -0.0616(3) -0.04255(16) 0.60154(14)
C12 C -0.0947(3) -0.09643(17) 0.59935(15)
C13 C -0.0377(3) -0.13074(16) 0.56377(15)
C14 C 0.0499(3) -0.11197(14) 0.52941(14)
C15 C 0.2238(3) -0.08436(13) 0.47248(13)
C16 C 0.3250(3) -0.08527(13) 0.43761(13)
C17 C 0.4070(3) 0.01018(12) 0.44745(11)
C18 C 0.3273(3) 0.03017(12) 0.48738(11)
C19 C 0.4388(3) -0.04136(13) 0.37036(12)
C20 C 0.3945(4) -0.07233(15) 0.33118(13)
H1 H 0.3197 -0.0884 0.3346
C21 C 0.4625(5) -0.07942(17) 0.28625(15)
H2 H 0.4321 -0.1004 0.2602
C22 C 0.5726(5) -0.05610(17) 0.27999(14)
H3 H 0.6183 -0.0633 0.2509
C23 C 0.6174(4) -0.02112(15) 0.31737(13)
C24 C 0.5461(3) -0.01289(13) 0.36258(11)
C25 C 0.7253(4) 0.00815(16) 0.31199(14)
H4 H 0.7757 0.0018 0.2842
C26 C 0.7566(4) 0.04548(16) 0.34698(14)
H5 H 0.8279 0.0641 0.3426
C27 C 0.6817(3) 0.05624(14) 0.38979(13)
H6 H 0.7018 0.0830 0.4123
C28 C 0.5791(3) 0.02695(13) 0.39800(11)
C29 C 0.3640(3) 0.17046(14) 0.60718(13)
H7 H 0.3728 0.1796 0.5713
H8 H 0.4125 0.1398 0.6140
C30 C 0.4048(3) 0.21542(14) 0.64095(13)
H9 H 0.3979 0.2049 0.6765
H10 H 0.4893 0.2223 0.6341
C31 C 0.3347(3) 0.26525(14) 0.63349(14)
H11 H 0.2498 0.2583 0.6393
H12 H 0.3437 0.2766 0.5982
C32 C 0.3745(4) 0.30879(16) 0.66868(17)
H13 H 0.3267 0.3393 0.6621
H14 H 0.4580 0.3165 0.6625
H15 H 0.3641 0.2982 0.7037
C33 C -0.0156(8) 0.1759(3) 0.6535(2)
H16 H -0.0518 0.1731 0.6197
H17 H 0.0436 0.2037 0.6530
C34 C -0.1148(7) 0.1866(4) 0.6953(3)
H18 H -0.1384 0.1534 0.7099
H19 H -0.0780 0.2069 0.7225
C35 C -0.2110(8) 0.2104(5) 0.6810(4)
H20 H -0.2515 0.1890 0.6556
H21 H -0.1875 0.2426 0.6641
C36 C -0.3018(5) 0.2237(4) 0.7233(2)
H22 H -0.3711 0.2403 0.7084
H23 H -0.2649 0.2468 0.7476
H24 H -0.3264 0.1923 0.7403
C37 C -0.2546(4) -0.0900(2) 0.66079(19)
H25 H -0.2871 -0.0616 0.6405
H26 H -0.2143 -0.0755 0.6906
C38 C -0.3562(5) -0.1280(2) 0.6773(2)
H27 H -0.3993 -0.1396 0.6470
H28 H -0.3201 -0.1584 0.6932
C39 C -0.4417(5) -0.1047(2) 0.7129(2)
H29 H -0.4699 -0.0715 0.6999
H30 H -0.4038 -0.0990 0.7459
C40 C -0.5503(5) -0.1438(3) 0.7184(3)
H31 H -0.6089 -0.1295 0.7416
H32 H -0.5214 -0.1764 0.7316
H33 H -0.5868 -0.1492 0.6855
C41 C -0.1705(4) -0.20319(18) 0.54616(17)
H34 H -0.2272 -0.1747 0.5420
H35 H -0.2054 -0.2282 0.5698
C42 C -0.1487(4) -0.22912(18) 0.49476(19)
H36 H -0.2247 -0.2430 0.4825
H37 H -0.1228 -0.2027 0.4706
C43 C -0.0570(4) -0.27234(19) 0.49465(19)
H38 H 0.0210 -0.2578 0.5035
H39 H -0.0784 -0.2972 0.5212
C44 C -0.0453(5) -0.3010(2) 0.4447(2)
H40 H 0.0143 -0.3280 0.4480
H41 H -0.0211 -0.2771 0.4183
H42 H -0.1215 -0.3163 0.4358
N1 N 0.3778(3) -0.03632(10) 0.41925(10)
N2 N 0.5004(2) 0.03921(10) 0.43804(9)
O1 O 0.2388(2) 0.16027(9) 0.61899(9)
O2 O 0.0396(2) 0.12758(11) 0.66792(9)
O3 O -0.1739(2) -0.12035(13) 0.63142(12)
O4 O -0.0583(2) -0.18334(11) 0.56719(12)
O5 O 0.3619(2) -0.12639(9) 0.41995(10)
S1 S 0.36217(7) 0.08971(3) 0.51783(3)
S2 S -0.08492(8) 0.01122(5) 0.64505(4)
S3 S 0.14787(8) -0.14352(4) 0.48643(4)
loop_
_geom_bond_atom_site_label_1
_geom_bond_atom_site_label_2
_geom_bond_site_symmetry_1
_geom_bond_site_symmetry_2
C1 C2 1_555 1_555
C2 C3 1_555 1_555
C3 C4 1_555 1_555
C4 C5 1_555 1_555
C5 C6 1_555 1_555
C6 C1 1_555 1_555
C7 C2 1_555 1_555
C8 C7 1_555 1_555
C9 C8 1_555 1_555
C10 C3 1_555 1_555
C11 C4 1_555 1_555
C12 C11 1_555 1_555
C13 C12 1_555 1_555
C14 C5 1_555 1_555
C15 C6 1_555 1_555
C16 C15 1_555 1_555
C17 C18 1_555 1_555
C18 C1 1_555 1_555
C19 C20 1_555 1_555
C20 H1 1_555 1_555
C21 C20 1_555 1_555
H2 C21 1_555 1_555
C22 C21 1_555 1_555
H3 C22 1_555 1_555
C23 C22 1_555 1_555
C24 C19 1_555 1_555
C25 C23 1_555 1_555
H4 C25 1_555 1_555
C26 C25 1_555 1_555
H5 C26 1_555 1_555
C27 C26 1_555 1_555
H6 C27 1_555 1_555
C28 C24 1_555 1_555
C29 H7 1_555 1_555
H8 C29 1_555 1_555
C30 C29 1_555 1_555
H9 C30 1_555 1_555
H10 C30 1_555 1_555
C31 C30 1_555 1_555
H11 C31 1_555 1_555
H12 C31 1_555 1_555
C32 C31 1_555 1_555
H13 C32 1_555 1_555
H14 C32 1_555 1_555
H15 C32 1_555 1_555
C33 H16 1_555 1_555
H17 C33 1_555 1_555
C34 C33 1_555 1_555
H18 C34 1_555 1_555
H19 C34 1_555 1_555
C35 C34 1_555 1_555
H20 C35 1_555 1_555
H21 C35 1_555 1_555
C36 C35 1_555 1_555
H22 C36 1_555 1_555
H23 C36 1_555 1_555
H24 C36 1_555 1_555
C37 H25 1_555 1_555
H26 C37 1_555 1_555
C38 C37 1_555 1_555
H27 C38 1_555 1_555
H28 C38 1_555 1_555
C39 C38 1_555 1_555
H29 C39 1_555 1_555
H30 C39 1_555 1_555
C40 C39 1_555 1_555
H31 C40 1_555 1_555
H32 C40 1_555 1_555
H33 C40 1_555 1_555
C41 H34 1_555 1_555
H35 C41 1_555 1_555
C42 C41 1_555 1_555
H36 C42 1_555 1_555
H37 C42 1_555 1_555
C43 C42 1_555 1_555
H38 C43 1_555 1_555
H39 C43 1_555 1_555
C44 C43 1_555 1_555
H40 C44 1_555 1_555
H41 C44 1_555 1_555
H42 C44 1_555 1_555
N1 C16 1_555 1_555
N2 C17 1_555 1_555
O1 C8 1_555 1_555
O2 C9 1_555 1_555
O3 C12 1_555 1_555
O4 C13 1_555 1_555
O5 C16 1_555 1_555
S1 C7 1_555 1_555
S2 C10 1_555 1_555
S3 C14 1_555 1_555
C9 C10 1_555 1_555
C11 S2 1_555 1_555
C13 C14 1_555 1_555
C15 S3 1_555 1_555
C17 N1 1_555 1_555
C18 S1 1_555 1_555
C19 N1 1_555 1_555
C23 C24 1_555 1_555
C27 C28 1_555 1_555
C28 N2 1_555 1_555
C29 O1 1_555 1_555
C33 O2 1_555 1_555
C37 O3 1_555 1_555
C41 O4 1_555 1_555

#END
