
#######################################################################
#
#                 Cambridge Crystallographic Data Centre
#                                CCDC 
#
#######################################################################
#
# If this CIF has been generated from an entry in the Cambridge 
# Structural Database, then it will include bibliographic, chemical, 
# crystal, experimental, refinement or atomic coordinate data resulting 
# from the CCDC's data processing and validation procedures.
#
#######################################################################

data_TEDFIU
_chemical_formula_moiety         'C21 H24 Cl1 N3 O1'
_chemical_name_systematic        
3a-(3-chloropropyl)-7-methyl-4-(phenylamino)-2,3,3a,4-tetrahydropyrrolo[1,2-a]quinazolin-5(1H)-one
_symmetry_cell_setting           triclinic
_symmetry_space_group_name_H-M   'P -1'
_symmetry_Int_Tables_number      2
_space_group_name_Hall           '-P 1'
loop_
_symmetry_equiv_pos_site_id
_symmetry_equiv_pos_as_xyz
1 x,y,z
2 -x,-y,-z
_cell_length_a                   11.6513(4)
_cell_length_b                   12.0376(4)
_cell_length_c                   16.8313(5)
_cell_angle_alpha                96.049(2)
_cell_angle_beta                 107.235(2)
_cell_angle_gamma                114.672(2)
_cell_volume                     1976.19
_exptl_crystal_colour            colorless
_exptl_crystal_description       block
_cell_formula_units_Z            4
loop_
_atom_site_label
_atom_site_type_symbol
_atom_site_fract_x
_atom_site_fract_y
_atom_site_fract_z
O1 O 0.05369(19) 0.38883(18) 0.00035(12)
C1 C 0.4196(3) 0.5479(4) 0.11235(19)
C2 C 0.5195(4) 0.5365(5) 0.1775(2)
H1 H 0.6116 0.5903 0.1913
C3 C 0.4797(5) 0.4453(5) 0.2204(2)
H2 H 0.5473 0.4394 0.2631
C4 C 0.3443(5) 0.3611(4) 0.2042(2)
C5 C 0.2483(4) 0.3722(3) 0.13954(19)
H3 H 0.1565 0.3174 0.1259
C6 C 0.2832(3) 0.4622(3) 0.09375(17)
C7 C 0.1746(3) 0.4649(3) 0.02247(16)
C8 C 0.3527(3) 0.6692(3) 0.0163(2)
C9 C 0.4070(3) 0.7137(4) -0.0534(2)
H4 H 0.3733 0.6429 -0.1024
H5 H 0.3811 0.7758 -0.0731
C10 C 0.5611(4) 0.7725(5) -0.0074(3)
H6 H 0.6028 0.7616 -0.0477
H7 H 0.6002 0.8623 0.0188
C11 C 0.5833(4) 0.7031(5) 0.0609(3)
H8 H 0.6146 0.6446 0.0443
H9 H 0.6500 0.7624 0.1159
C12 C 0.3487(12) 0.7761(9) 0.0697(8)
H10 H 0.4389 0.8487 0.0908
H11 H 0.2870 0.7991 0.0312
C13 C 0.3097(11) 0.7570(9) 0.1411(4)
H12 H 0.3824 0.7555 0.1868
H13 H 0.2296 0.6750 0.1242
C14 C 0.2784(10) 0.8582(9) 0.1760(6)
H14 H 0.2688 0.8470 0.2303
H15 H 0.1909 0.8437 0.1361
C15 C 0.0528(3) 0.4794(2) -0.16452(16)
C16 C 0.1065(3) 0.4081(3) -0.19366(19)
H16 H 0.1871 0.4129 -0.1575
C17 C 0.0399(4) 0.3292(3) -0.2769(2)
H17 H 0.0764 0.2813 -0.2963
C18 C -0.0792(4) 0.3213(3) -0.3309(2)
H18 H -0.1237 0.2680 -0.3865
C19 C -0.1322(4) 0.3926(3) -0.3021(2)
H19 H -0.2128 0.3877 -0.3384
C20 C -0.0667(3) 0.4713(3) -0.21987(19)
H20 H -0.1031 0.5197 -0.2012
C21 C 0.3066(6) 0.2657(5) 0.2553(3)
H21 H 0.2092 0.2161 0.2343
H22 H 0.3405 0.3090 0.3150
H23 H 0.3460 0.2110 0.2491
N1 N 0.4513(2) 0.6356(3) 0.06631(17)
N2 N 0.2179(2) 0.5548(2) -0.02064(14)
N3 N 0.1195(2) 0.5692(2) -0.08386(14)
H24 H 0.064(2) 0.575(3) -0.0618(16)
Cl1 Cl 0.3952(9) 1.0128(6) 0.1927(5)
O2 O 0.09725(19) 1.08144(17) 0.62382(11)
C25 C 0.1144(3) 0.8619(2) 0.75254(16)
C26 C 0.1255(3) 0.8507(3) 0.83639(18)
H31 H 0.1451 0.7888 0.8558
C27 C 0.1074(3) 0.9306(3) 0.88941(18)
H32 H 0.1153 0.9215 0.9447
C28 C 0.0779(3) 1.0249(3) 0.86421(18)
C29 C 0.0717(3) 1.0383(2) 0.78242(17)
H33 H 0.0544 1.1020 0.7642
C30 C 0.0907(2) 0.9597(2) 0.72697(15)
C31 C 0.0991(2) 0.9869(2) 0.64474(15)
C32 C 0.0817(3) 0.7744(3) 0.60486(17)
C33 C 0.1648(6) 0.7213(4) 0.5754(2)
H34 H 0.1151 0.6699 0.5162
H35 H 0.2511 0.7892 0.5798
C34 C 0.1870(5) 0.6419(4) 0.6361(3)
H36 H 0.1112 0.5567 0.6152
H37 H 0.2703 0.6375 0.6425
C35 C 0.1967(4) 0.7092(3) 0.7194(2)
H38 H 0.1544 0.6491 0.7491
H39 H 0.2911 0.7651 0.7566
C36 C -0.0745(7) 0.6937(6) 0.5768(5)
H40 H -0.0979 0.6213 0.5322
H41 H -0.0851 0.6611 0.6260
C37 C -0.1664(7) 0.7157(6) 0.5520(5)
H42 H -0.1290 0.7968 0.5386
H43 H -0.1892 0.7305 0.6016
C38 C -0.3039(10) 0.6314(10) 0.4764(12)
H44 H -0.2913 0.6448 0.4231
H45 H -0.3684 0.6599 0.4818
C39 C 0.2547(3) 1.0073(2) 0.51791(16)
C40 C 0.3713(3) 1.0622(3) 0.5909(2)
H46 H 0.3663 1.0475 0.6432
C41 C 0.4954(4) 1.1386(4) 0.5875(3)
H47 H 0.5735 1.1751 0.6376
C42 C 0.5051(4) 1.1615(4) 0.5116(3)
H48 H 0.5896 1.2127 0.5097
C43 C 0.3905(4) 1.1090(3) 0.4384(3)
H49 H 0.3968 1.1248 0.3865
C44 C 0.2642(3) 1.0319(3) 0.44086(19)
H50 H 0.1861 0.9969 0.3908
C45 C 0.0576(4) 1.1106(4) 0.9234(2)
H51 H 0.0653 1.0868 0.9767
H52 H -0.0312 1.1034 0.8969
H53 H 0.1258 1.1966 0.9347
N4 N 0.1253(3) 0.7801(2) 0.69570(14)
N5 N 0.1167(2) 0.9035(2) 0.59496(13)
N6 N 0.1273(2) 0.9204(2) 0.51599(13)
H54 H 0.060(2) 0.925(3) 0.4814(15)
Cl3 Cl -0.3785(9) 0.4646(8) 0.4671(5)
C22? C 0.3355(13) 0.7752(10) 0.0583(5)
H25? H 0.4207 0.8518 0.0726
H26? H 0.2672 0.7836 0.0135
C23? C 0.2996(19) 0.7802(18) 0.1341(12)
H27? H 0.3626 0.7643 0.1778
H28? H 0.2101 0.7084 0.1184
C24? C 0.2952(16) 0.8942(15) 0.1786(18)
H29? H 0.2646 0.8755 0.2255
H30? H 0.2306 0.9119 0.1378
Cl2? Cl 0.4522(5) 1.0238(5) 0.2177(3)
C46? C -0.0507(6) 0.6858(7) 0.5365(5)
H55? H -0.0248 0.6533 0.4934
H56? H -0.0858 0.6165 0.5620
C47? C -0.1723(6) 0.6883(6) 0.4851(4)
H57? H -0.1731 0.6747 0.4271
H58? H -0.1509 0.7763 0.5023
C48? C -0.3211(13) 0.6153(16) 0.4725(18)
H59? H -0.3775 0.6058 0.4141
H60? H -0.3409 0.6629 0.5118
Cl4? Cl -0.3624(12) 0.4638(10) 0.4908(7)
loop_
_geom_bond_atom_site_label_1
_geom_bond_atom_site_label_2
_geom_bond_site_symmetry_1
_geom_bond_site_symmetry_2
O1 C7 1_555 1_555
C1 C2 1_555 1_555
C2 H1 1_555 1_555
C3 C2 1_555 1_555
H2 C3 1_555 1_555
C4 C3 1_555 1_555
C5 C4 1_555 1_555
H3 C5 1_555 1_555
C6 C1 1_555 1_555
C7 C6 1_555 1_555
C8 C9 1_555 1_555
C9 H4 1_555 1_555
H5 C9 1_555 1_555
C10 C9 1_555 1_555
H6 C10 1_555 1_555
H7 C10 1_555 1_555
C11 C10 1_555 1_555
H8 C11 1_555 1_555
H9 C11 1_555 1_555
C12 C8 1_555 1_555
H10 C12 1_555 1_555
H11 C12 1_555 1_555
C13 C12 1_555 1_555
H12 C13 1_555 1_555
H13 C13 1_555 1_555
C14 C13 1_555 1_555
H14 C14 1_555 1_555
H15 C14 1_555 1_555
C15 C16 1_555 1_555
C16 H16 1_555 1_555
C17 C16 1_555 1_555
H17 C17 1_555 1_555
C18 C17 1_555 1_555
H18 C18 1_555 1_555
C19 C18 1_555 1_555
H19 C19 1_555 1_555
C20 C15 1_555 1_555
H20 C20 1_555 1_555
C21 C4 1_555 1_555
H21 C21 1_555 1_555
H22 C21 1_555 1_555
H23 C21 1_555 1_555
N1 C1 1_555 1_555
N2 C7 1_555 1_555
N3 C15 1_555 1_555
H24 N3 1_555 1_555
Cl1 C14 1_555 1_555
O2 C31 1_555 1_555
C25 C26 1_555 1_555
C26 H31 1_555 1_555
C27 C26 1_555 1_555
H32 C27 1_555 1_555
C28 C27 1_555 1_555
C29 C28 1_555 1_555
H33 C29 1_555 1_555
C30 C25 1_555 1_555
C31 C30 1_555 1_555
C32 C33 1_555 1_555
C33 H34 1_555 1_555
H35 C33 1_555 1_555
C34 C33 1_555 1_555
H36 C34 1_555 1_555
H37 C34 1_555 1_555
C35 C34 1_555 1_555
H38 C35 1_555 1_555
H39 C35 1_555 1_555
C36 C32 1_555 1_555
H40 C36 1_555 1_555
H41 C36 1_555 1_555
C37 C36 1_555 1_555
H42 C37 1_555 1_555
H43 C37 1_555 1_555
C38 C37 1_555 1_555
H44 C38 1_555 1_555
H45 C38 1_555 1_555
C39 C40 1_555 1_555
C40 H46 1_555 1_555
C41 C40 1_555 1_555
H47 C41 1_555 1_555
C42 C41 1_555 1_555
H48 C42 1_555 1_555
C43 C42 1_555 1_555
H49 C43 1_555 1_555
C44 C39 1_555 1_555
H50 C44 1_555 1_555
C45 C28 1_555 1_555
H51 C45 1_555 1_555
H52 C45 1_555 1_555
H53 C45 1_555 1_555
N4 C25 1_555 1_555
N5 C31 1_555 1_555
N6 C39 1_555 1_555
H54 N6 1_555 1_555
Cl3 C38 1_555 1_555
C5 C6 1_555 1_555
C8 N1 1_555 1_555
C8 N2 1_555 1_555
C11 N1 1_555 1_555
C19 C20 1_555 1_555
N2 N3 1_555 1_555
C29 C30 1_555 1_555
C32 N4 1_555 1_555
C32 N5 1_555 1_555
C35 N4 1_555 1_555
C43 C44 1_555 1_555
N5 N6 1_555 1_555

#END
