
#######################################################################
#
#                 Cambridge Crystallographic Data Centre
#                                CCDC 
#
#######################################################################
#
# If this CIF has been generated from an entry in the Cambridge 
# Structural Database, then it will include bibliographic, chemical, 
# crystal, experimental, refinement or atomic coordinate data resulting 
# from the CCDC's data processing and validation procedures.
#
#######################################################################

data_TEDGUH
_chemical_formula_moiety         'C17 H26 N1 1+,C8 H7 O3 1-'
_chemical_name_systematic        
'N-benzyl-1,7,7-trimethylbicyclo[2.2.1]heptan-2-aminium hydroxy(phenyl)acetate'
_symmetry_cell_setting           orthorhombic
_symmetry_space_group_name_H-M   'P 21 21 21'
_symmetry_Int_Tables_number      19
_space_group_name_Hall           'P 2ac 2ab'
loop_
_symmetry_equiv_pos_site_id
_symmetry_equiv_pos_as_xyz
1 x,y,z
2 1/2+x,1/2-y,-z
3 -x,1/2+y,1/2-z
4 1/2-x,-y,1/2+z
_cell_length_a                   9.1216(8)
_cell_length_b                   9.8788(8)
_cell_length_c                   25.840(2)
_cell_angle_alpha                90
_cell_angle_beta                 90
_cell_angle_gamma                90
_cell_volume                     2328.45
_exptl_crystal_colour            colorless
_cell_formula_units_Z            4
loop_
_atom_site_label
_atom_site_type_symbol
_atom_site_fract_x
_atom_site_fract_y
_atom_site_fract_z
N1 N -0.1391(2) -0.5807(2) -0.33013(7)
H1 H -0.1481(2) -0.6712(2) -0.33229(7)
H2 H -0.1523(2) -0.5573(2) -0.29679(7)
C1 C 0.0468(3) -0.5607(3) -0.40235(10)
C2 C -0.4151(3) -0.5636(3) -0.35106(10)
C3 C -0.2648(4) -0.3634(3) -0.35381(16)
H3 H -0.2294(4) -0.3150(3) -0.38398(16)
H4 H -0.2080(4) -0.3363(3) -0.32383(16)
C4 C 0.0765(3) -0.4486(3) -0.43230(12)
H5 H 0.0709(3) -0.3628(3) -0.41767(12)
C5 C 0.0126(3) -0.5424(3) -0.34585(10)
H6 H 0.0285(3) -0.4482(3) -0.33688(10)
H7 H 0.0814(3) -0.5960(3) -0.32588(10)
C6 C -0.4981(3) -0.5196(4) -0.40019(12)
H8 H -0.4456(3) -0.5475(4) -0.43105(12)
H9 H -0.5956(3) -0.5588(4) -0.40093(12)
C7 C 0.1144(5) -0.4622(4) -0.48368(14)
H10 H 0.1340(5) -0.3855(4) -0.50339(14)
C8 C -0.4277(4) -0.3387(3) -0.34529(17)
H11 H -0.4503(4) -0.2502(3) -0.33005(17)
C9 C -0.4718(3) -0.4588(4) -0.31137(12)
C10 C -0.4314(5) -0.7131(4) -0.34008(18)
H12 H -0.379(2) -0.7641(4) -0.3657(6)
H13 H -0.392(3) -0.7330(6) -0.3064(5)
H14 H -0.5333(5) -0.7373(7) -0.3411(10)
C11 C -0.5062(4) -0.3658(4) -0.39671(16)
H15 H -0.4556(4) -0.3231(4) -0.42543(16)
H16 H -0.6069(4) -0.3344(4) -0.39580(16)
C12 C 0.0549(6) -0.6859(3) -0.42475(15)
H17 H 0.0350(6) -0.7628(3) -0.40524(15)
C13 C -0.4008(4) -0.4693(6) -0.25782(13)
H18 H -0.4614(18) -0.424(3) -0.2328(2)
H19 H -0.391(3) -0.5629(6) -0.2485(5)
H20 H -0.3058(15) -0.428(3) -0.2586(3)
C14 C 0.1231(6) -0.5856(4) -0.50551(14)
H21 H 0.1494(6) -0.5944(4) -0.54011(14)
C15 C -0.6387(4) -0.4674(7) -0.30231(16)
H22 H -0.6690(7) -0.394(2) -0.2802(11)
H23 H -0.6888(4) -0.461(4) -0.3349(2)
H24 H -0.6620(6) -0.5522(16) -0.2862(12)
C16 C 0.0927(8) -0.6984(4) -0.47636(17)
H25 H 0.0976(8) -0.7838(4) -0.49142(17)
C17 C -0.2576(3) -0.5164(2) -0.36202(9)
H26 H -0.2361(3) -0.5335(2) -0.39860(9)
O1 O -0.4193(2) -0.36791(17) -0.72628(7)
H27 H -0.4580(18) -0.2966(17) -0.7351(10)
O2 O -0.6169(3) -0.6475(2) -0.67592(8)
O3 O -0.4728(2) -0.62757(19) -0.74481(8)
C18 C -0.5338(3) -0.5837(2) -0.70556(9)
C19 C -0.5089(3) -0.4339(2) -0.68994(9)
H28 H -0.6042(3) -0.3882(2) -0.68925(9)
C20 C -0.4444(3) -0.4294(2) -0.63593(9)
C21 C -0.5333(4) -0.4294(3) -0.59248(10)
H29 H -0.6346(4) -0.4295(3) -0.59635(10)
C22 C -0.2964(4) -0.4289(4) -0.62932(12)
H30 H -0.2351(4) -0.4277(4) -0.65807(12)
C23 C -0.3267(5) -0.4289(4) -0.53726(13)
H31 H -0.2865(5) -0.4279(4) -0.50418(13)
C24 C -0.2366(5) -0.4301(4) -0.58024(14)
H32 H -0.1353(5) -0.4317(4) -0.57609(14)
C25 C -0.4732(5) -0.4294(4) -0.54367(11)
H33 H -0.5342(5) -0.4297(4) -0.51484(11)
loop_
_geom_bond_atom_site_label_1
_geom_bond_atom_site_label_2
_geom_bond_site_symmetry_1
_geom_bond_site_symmetry_2
N1 H1 1_555 1_555
H2 N1 1_555 1_555
C1 C4 1_555 1_555
C2 C6 1_555 1_555
C3 H3 1_555 1_555
H4 C3 1_555 1_555
C4 H5 1_555 1_555
C5 N1 1_555 1_555
H6 C5 1_555 1_555
H7 C5 1_555 1_555
C6 H8 1_555 1_555
H9 C6 1_555 1_555
C7 C4 1_555 1_555
H10 C7 1_555 1_555
C8 C3 1_555 1_555
H11 C8 1_555 1_555
C9 C2 1_555 1_555
C10 C2 1_555 1_555
H12 C10 1_555 1_555
H13 C10 1_555 1_555
H14 C10 1_555 1_555
C11 C6 1_555 1_555
H15 C11 1_555 1_555
H16 C11 1_555 1_555
C12 C1 1_555 1_555
H17 C12 1_555 1_555
C13 C9 1_555 1_555
H18 C13 1_555 1_555
H19 C13 1_555 1_555
H20 C13 1_555 1_555
C14 C7 1_555 1_555
H21 C14 1_555 1_555
C15 C9 1_555 1_555
H22 C15 1_555 1_555
H23 C15 1_555 1_555
H24 C15 1_555 1_555
C16 C12 1_555 1_555
H25 C16 1_555 1_555
C17 N1 1_555 1_555
H26 C17 1_555 1_555
O1 H27 1_555 1_555
O2 C18 1_555 1_555
O3 C18 1_555 1_555
C18 C19 1_555 1_555
C19 O1 1_555 1_555
H28 C19 1_555 1_555
C20 C19 1_555 1_555
C21 C20 1_555 1_555
H29 C21 1_555 1_555
C22 C20 1_555 1_555
H30 C22 1_555 1_555
C23 H31 1_555 1_555
C24 C22 1_555 1_555
H32 C24 1_555 1_555
C25 C21 1_555 1_555
H33 C25 1_555 1_555
C1 C5 1_555 1_555
C2 C17 1_555 1_555
C3 C17 1_555 1_555
C8 C9 1_555 1_555
C8 C11 1_555 1_555
C14 C16 1_555 1_555
C23 C24 1_555 1_555
C23 C25 1_555 1_555

#END
