
#######################################################################
#
#                 Cambridge Crystallographic Data Centre
#                                CCDC 
#
#######################################################################
#
# If this CIF has been generated from an entry in the Cambridge 
# Structural Database, then it will include bibliographic, chemical, 
# crystal, experimental, refinement or atomic coordinate data resulting 
# from the CCDC's data processing and validation procedures.
#
#######################################################################

data_TEDJOE
_chemical_compound_source        
'isolated from the rhizomes of Acorus tatarinowii'
_chemical_name_common            'tatarinoid D'
_chemical_formula_moiety         'C22 H26 O6'
_chemical_name_systematic        
(3,4-dimethoxyphenyl)[5-(3,4-dimethoxyphenyl)-4-methyloxolan-3-yl]methanone
_chemical_properties_biological  
'Can alleviate the cognitive deterioration of Abeta transgenic flies'
_symmetry_cell_setting           triclinic
_symmetry_space_group_name_H-M   'P -1'
_symmetry_Int_Tables_number      2
_space_group_name_Hall           '-P 1'
loop_
_symmetry_equiv_pos_site_id
_symmetry_equiv_pos_as_xyz
1 x,y,z
2 -x,-y,-z
_cell_length_a                   5.5613(3)
_cell_length_b                   11.6092(10)
_cell_length_c                   15.8558(14)
_cell_angle_alpha                100.929(7)
_cell_angle_beta                 91.445(6)
_cell_angle_gamma                96.538(6)
_cell_volume                     997.432
_cell_formula_units_Z            2
loop_
_atom_site_label
_atom_site_type_symbol
_atom_site_fract_x
_atom_site_fract_y
_atom_site_fract_z
O1 O 0.0335(3) 0.02231(13) 0.31114(8)
O2 O -0.3846(3) 0.47677(13) -0.39802(9)
C1 C -0.4571(3) 0.32900(15) -0.17992(11)
C2 C -0.3964(3) 0.43202(16) -0.32467(11)
O3 O -0.7521(3) 0.32320(13) -0.39280(8)
C3 C -0.5990(3) 0.34889(16) -0.32113(11)
C4 C -0.0875(3) 0.10519(15) 0.28346(11)
C5 C -0.4975(3) 0.27581(16) -0.10323(11)
O4 O -0.6904(2) 0.21893(17) -0.09439(10)
O5 O -0.1730(3) 0.39126(12) 0.10733(10)
C6 C -0.1386(3) 0.26926(15) 0.09967(12)
H1 H 0.0289 0.2602 0.0845
C7 C -0.2970(3) 0.29463(15) -0.03359(11)
H2 H -0.1402 0.2974 -0.0605
O6 O -0.2890(3) 0.10789(16) 0.41195(9)
C8 C -0.2271(3) 0.46106(16) -0.25694(12)
H3 H -0.0926 0.5157 -0.2591
C9 C -0.2563(3) 0.40905(16) -0.18553(12)
H4 H -0.1392 0.4282 -0.1406
C10 C -0.3081(3) 0.20335(14) 0.02421(11)
H5 H -0.4728 0.1921 0.0443
C11 C -0.0488(3) 0.14500(15) 0.20749(11)
H6 H 0.0664 0.1138 0.1712
C12 C -0.1791(3) 0.23103(16) 0.18416(11)
C13 C -0.6292(3) 0.29953(16) -0.24931(11)
H7 H -0.7652 0.2460 -0.2466
C14 C -0.2372(3) 0.08476(16) -0.01715(13)
H8 H -0.0778 0.0952 -0.0385
H9 H -0.3508 0.0488 -0.0639
H10 H -0.2380 0.0348 0.0246
C15 C -0.2587(3) 0.15263(19) 0.33849(11)
C16 C 0.1917(4) -0.0363(2) 0.25346(14)
H11 H 0.1000 -0.0804 0.2032
H12 H 0.2716 -0.0892 0.2812
H13 H 0.3105 0.0210 0.2370
C17 C -0.3454(4) 0.2773(2) 0.23923(14)
H14 H -0.4331 0.3351 0.2250
C18 C -0.3015(4) 0.40781(17) 0.03315(13)
H15 H -0.2240 0.4754 0.0122
H16 H -0.4670 0.4209 0.0460
C19 C -0.1742(4) 0.5562(2) -0.40636(15)
H17 H -0.1875 0.5828 -0.4599
H18 H -0.0325 0.5163 -0.4052
H19 H -0.1613 0.6230 -0.3596
C20 C -0.3841(4) 0.2387(2) 0.31626(14)
H20 H -0.4963 0.2715 0.3532
C21 C -0.9355(4) 0.2263(2) -0.39875(14)
H21 H -1.0167 0.2106 -0.4546
H22 H -1.0502 0.2448 -0.3555
H23 H -0.8637 0.1577 -0.3902
C22 C -0.4708(5) 0.1533(3) 0.46690(15)
H24 H -0.6264 0.1341 0.4367
H25 H -0.4350 0.2376 0.4835
H26 H -0.4730 0.1186 0.5173
loop_
_geom_bond_atom_site_label_1
_geom_bond_atom_site_label_2
_geom_bond_site_symmetry_1
_geom_bond_site_symmetry_2
O1 C4 1_555 1_555
O2 C2 1_555 1_555
C1 C5 1_555 1_555
C2 C3 1_555 1_555
O3 C3 1_555 1_555
C3 C13 1_555 1_555
C4 C11 1_555 1_555
C5 O4 1_555 1_555
O5 C6 1_555 1_555
C6 H1 1_555 1_555
C7 C5 1_555 1_555
H2 C7 1_555 1_555
O6 C15 1_555 1_555
C8 C2 1_555 1_555
H3 C8 1_555 1_555
C9 C1 1_555 1_555
H4 C9 1_555 1_555
C10 C6 1_555 1_555
H5 C10 1_555 1_555
C11 H6 1_555 1_555
C12 C6 1_555 1_555
C13 C1 1_555 1_555
H7 C13 1_555 1_555
C14 C10 1_555 1_555
H8 C14 1_555 1_555
H9 C14 1_555 1_555
H10 C14 1_555 1_555
C15 C4 1_555 1_555
C16 O1 1_555 1_555
H11 C16 1_555 1_555
H12 C16 1_555 1_555
H13 C16 1_555 1_555
C17 C12 1_555 1_555
H14 C17 1_555 1_555
C18 O5 1_555 1_555
H15 C18 1_555 1_555
H16 C18 1_555 1_555
C19 O2 1_555 1_555
H17 C19 1_555 1_555
H18 C19 1_555 1_555
H19 C19 1_555 1_555
C20 C15 1_555 1_555
H20 C20 1_555 1_555
C21 O3 1_555 1_555
H21 C21 1_555 1_555
H22 C21 1_555 1_555
H23 C21 1_555 1_555
C22 O6 1_555 1_555
H24 C22 1_555 1_555
H25 C22 1_555 1_555
H26 C22 1_555 1_555
C7 C10 1_555 1_555
C7 C18 1_555 1_555
C8 C9 1_555 1_555
C11 C12 1_555 1_555
C17 C20 1_555 1_555

#END
