
#######################################################################
#
#                 Cambridge Crystallographic Data Centre
#                                CCDC 
#
#######################################################################
#
# If this CIF has been generated from an entry in the Cambridge 
# Structural Database, then it will include bibliographic, chemical, 
# crystal, experimental, refinement or atomic coordinate data resulting 
# from the CCDC's data processing and validation procedures.
#
#######################################################################

data_TEDTUU
_chemical_formula_moiety         'C19 H30 N5 O10 P1'
_chemical_name_systematic        
'bis[({[(propan-2-yl)oxy]carbonyl}oxy)methyl] ({[1-(6-amino-9H-purin-9-yl)propan-2-yl]oxy}methyl)phosphonate'
_symmetry_cell_setting           orthorhombic
_symmetry_space_group_name_H-M   'P 21 21 21'
_symmetry_Int_Tables_number      19
_space_group_name_Hall           'P 2ac 2ab'
loop_
_symmetry_equiv_pos_site_id
_symmetry_equiv_pos_as_xyz
1 x,y,z
2 1/2-x,-y,1/2+z
3 1/2+x,1/2-y,-z
4 -x,1/2+y,1/2-z
_cell_length_a                   8.7039(5)
_cell_length_b                   12.2787(8)
_cell_length_c                   23.8682(16)
_cell_angle_alpha                90
_cell_angle_beta                 90
_cell_angle_gamma                90
_cell_volume                     2550.86
_exptl_crystal_colour            colorless
_exptl_crystal_description       Needle
_cell_formula_units_Z            4
loop_
_atom_site_label
_atom_site_type_symbol
_atom_site_fract_x
_atom_site_fract_y
_atom_site_fract_z
P1 P 0.8881(2) 0.59555(16) 0.78371(8)
N1 N 0.7012(7) 0.7496(6) 0.4942(3)
H1 H 0.7732 0.7298 0.4717
H2 H 0.6078 0.7528 0.4826
N2 N 0.8832(6) 0.7690(4) 0.5634(2)
N3 N 0.8221(6) 0.8225(5) 0.6587(2)
N4 N 0.5482(6) 0.8558(5) 0.6709(2)
N5 N 0.4660(6) 0.8228(5) 0.5831(2)
O1 O 0.6283(5) 0.6941(4) 0.75660(18)
O2 O 0.8194(6) 0.4948(4) 0.8034(2)
O3 O 1.0325(6) 0.6365(5) 0.8174(2)
O4 O 1.0281(8) 0.6432(5) 0.9137(3)
O5 O 1.2120(9) 0.7674(7) 0.9059(3)
O6 O 1.0428(9) 0.7684(6) 0.9759(3)
O7 O 0.9508(6) 0.5916(4) 0.7220(2)
O8 O 1.1290(6) 0.4702(4) 0.6868(2)
O9 O 1.1568(6) 0.5983(6) 0.6203(2)
O10 O 1.3479(5) 0.4866(4) 0.6456(2)
C1 C 0.7346(8) 0.7754(5) 0.5472(3)
C2 C 0.9148(8) 0.7924(6) 0.6172(3)
H3 H 1.0179 0.7865 0.6269
C3 C 0.6753(7) 0.8279(5) 0.6403(3)
C4 C 0.4275(8) 0.8505(6) 0.6348(3)
H4 H 0.3268 0.8650 0.6455
C5 C 0.6239(7) 0.8078(5) 0.5871(3)
C6 C 0.5437(8) 0.8685(5) 0.7325(3)
H5 H 0.6418 0.8981 0.7443
H6 H 0.4661 0.9225 0.7413
C7 C 0.5130(8) 0.7735(6) 0.7662(3)
H7 H 0.5131 0.7940 0.8059
C8 C 0.3646(7) 0.7224(7) 0.7520(4)
H8 H 0.3667 0.6985 0.7137
H9 H 0.2834 0.7744 0.7569
H10 H 0.3473 0.6610 0.7761
C9 C 0.7713(8) 0.7157(5) 0.7839(3)
H11 H 0.7525 0.7387 0.8222
H12 H 0.8245 0.7742 0.7646
C10 C 1.0859(10) 0.5861(7) 0.8670(4)
H13 H 1.0516 0.5110 0.8682
H14 H 1.1973 0.5866 0.8676
C11 C 1.1069(12) 0.7305(8) 0.9297(4)
C12 C 1.1194(15) 0.8625(9) 1.0044(5)
H15 H 1.2265 0.8670 0.9920
C13 C 1.037(2) 0.9594(12) 0.9862(5)
H16 H 0.9383 0.9616 1.0038
H17 H 1.0247 0.9575 0.9462
H18 H 1.0949 1.0230 0.9964
C14 C 1.1154(19) 0.8425(12) 1.0647(5)
H19 H 1.1675 0.9005 1.0838
H20 H 1.1655 0.7746 1.0728
H21 H 1.0105 0.8392 1.0771
C15 C 0.9714(9) 0.4946(7) 0.6903(4)
H22 H 0.9173 0.4349 0.7081
H23 H 0.9295 0.5043 0.6530
C16 C 1.2071(9) 0.5260(7) 0.6480(3)
C17 C 1.4538(9) 0.5405(7) 0.6058(3)
H24 H 1.4302 0.6184 0.6039
C18 C 1.6111(9) 0.5244(7) 0.6310(4)
H25 H 1.6246 0.4491 0.6407
H26 H 1.6207 0.5684 0.6641
H27 H 1.6880 0.5455 0.6043
C19 C 1.4403(12) 0.4915(9) 0.5492(4)
H28 H 1.4561 0.4143 0.5517
H29 H 1.5164 0.5228 0.5249
H30 H 1.3398 0.5058 0.5344
loop_
_geom_bond_atom_site_label_1
_geom_bond_atom_site_label_2
_geom_bond_site_symmetry_1
_geom_bond_site_symmetry_2
P1 O2 1_555 1_555
N1 H1 1_555 1_555
H2 N1 1_555 1_555
N2 C1 1_555 1_555
N3 C2 1_555 1_555
N4 C3 1_555 1_555
N5 C4 1_555 1_555
O1 C7 1_555 1_555
O3 P1 1_555 1_555
O4 C10 1_555 1_555
O5 C11 1_555 1_555
O6 C11 1_555 1_555
O7 P1 1_555 1_555
O8 C15 1_555 1_555
O9 C16 1_555 1_555
O10 C16 1_555 1_555
C1 N1 1_555 1_555
C2 N2 1_555 1_555
H3 C2 1_555 1_555
C3 N3 1_555 1_555
C4 N4 1_555 1_555
H4 C4 1_555 1_555
C5 N5 1_555 1_555
C6 N4 1_555 1_555
H5 C6 1_555 1_555
H6 C6 1_555 1_555
C7 C6 1_555 1_555
H7 C7 1_555 1_555
C8 C7 1_555 1_555
H8 C8 1_555 1_555
H9 C8 1_555 1_555
H10 C8 1_555 1_555
C9 P1 1_555 1_555
H11 C9 1_555 1_555
H12 C9 1_555 1_555
C10 O3 1_555 1_555
H13 C10 1_555 1_555
H14 C10 1_555 1_555
C11 O4 1_555 1_555
C12 O6 1_555 1_555
H15 C12 1_555 1_555
C13 C12 1_555 1_555
H16 C13 1_555 1_555
H17 C13 1_555 1_555
H18 C13 1_555 1_555
C14 C12 1_555 1_555
H19 C14 1_555 1_555
H20 C14 1_555 1_555
H21 C14 1_555 1_555
C15 O7 1_555 1_555
H22 C15 1_555 1_555
H23 C15 1_555 1_555
C16 O8 1_555 1_555
C17 O10 1_555 1_555
H24 C17 1_555 1_555
C18 C17 1_555 1_555
H25 C18 1_555 1_555
H26 C18 1_555 1_555
H27 C18 1_555 1_555
C19 C17 1_555 1_555
H28 C19 1_555 1_555
H29 C19 1_555 1_555
H30 C19 1_555 1_555
O1 C9 1_555 1_555
C1 C5 1_555 1_555
C3 C5 1_555 1_555

#END
