
#######################################################################
#
#                 Cambridge Crystallographic Data Centre
#                                CCDC 
#
#######################################################################
#
# If this CIF has been generated from an entry in the Cambridge 
# Structural Database, then it will include bibliographic, chemical, 
# crystal, experimental, refinement or atomic coordinate data resulting 
# from the CCDC's data processing and validation procedures.
#
#######################################################################

data_TEDWEH
_chemical_name_common            
N-(3,3-Diphenyl-3H-benzo[f]chromen-5-yl)-2,2,2-trifluoroacetamide
_chemical_formula_moiety         'C27 H18 F3 N1 O2'
_chemical_name_systematic        
N-(3,3-diphenyl-3H-naphtho[2,1-b]pyran-5-yl)-2,2,2-trifluoroacetamide
_symmetry_cell_setting           monoclinic
_symmetry_space_group_name_H-M   'P 21/c'
_symmetry_Int_Tables_number      14
_space_group_name_Hall           '-P 2ybc'
loop_
_symmetry_equiv_pos_site_id
_symmetry_equiv_pos_as_xyz
1 x,y,z
2 -x,1/2+y,1/2-z
3 -x,-y,-z
4 x,1/2-y,1/2+z
_cell_length_a                   15.2265(10)
_cell_length_b                   13.7663(8)
_cell_length_c                   9.9461(6)
_cell_angle_alpha                90
_cell_angle_beta                 91.729(3)
_cell_angle_gamma                90
_cell_volume                     2083.88
_exptl_crystal_colour            colorless
_exptl_crystal_description       blocks
_cell_formula_units_Z            4
loop_
_atom_site_label
_atom_site_type_symbol
_atom_site_fract_x
_atom_site_fract_y
_atom_site_fract_z
C1 C 0.43406(14) 0.50408(14) 0.1573(2)
H1 H 0.4938 0.4852 0.1505
C2 C 0.37347(14) 0.46521(14) 0.0747(2)
H2 H 0.3910 0.4217 0.0065
C3 C 0.27706(13) 0.48893(14) 0.0873(2)
O1 O 0.26847(8) 0.58612(9) 0.14486(13)
C4 C 0.32605(13) 0.61180(14) 0.2474(2)
C5 C 0.29536(13) 0.68365(14) 0.3363(2)
C6 C 0.34981(13) 0.71816(14) 0.4370(2)
H3 H 0.3294 0.7667 0.4964
C7 C 0.43673(14) 0.68198(15) 0.4534(2)
C8 C 0.49292(15) 0.71543(15) 0.5588(2)
H4 H 0.4720 0.7628 0.6196
C9 C 0.57666(15) 0.68123(17) 0.5754(2)
H5 H 0.6137 0.7049 0.6467
C10 C 0.60773(14) 0.61076(17) 0.4863(2)
H6 H 0.6661 0.5871 0.4975
C11 C 0.55510(14) 0.57603(15) 0.3842(2)
H7 H 0.5774 0.5282 0.3253
C12 C 0.46789(13) 0.60975(14) 0.3639(2)
C13 C 0.40995(13) 0.57562(14) 0.2583(2)
N1 N 0.20594(11) 0.71332(12) 0.31744(17)
H8 H 0.1848(12) 0.7116(13) 0.2323(15)
C14 C 0.15268(14) 0.73397(14) 0.4185(2)
O2 O 0.17305(9) 0.73942(10) 0.53679(14)
C15 C 0.05584(14) 0.74308(17) 0.3761(2)
F1 F 0.04128(7) 0.75951(9) 0.24615(12)
F2 F 0.01547(8) 0.65893(9) 0.40505(13)
F3 F 0.01552(8) 0.81194(9) 0.44470(12)
C16 C 0.23494(13) 0.41502(15) 0.1795(2)
C17 C 0.18497(14) 0.44269(16) 0.2870(2)
H9 H 0.1765 0.5098 0.3048
C18 C 0.14700(14) 0.37378(17) 0.3693(2)
H10 H 0.1132 0.3940 0.4430
C19 C 0.15841(15) 0.27578(16) 0.3440(2)
H11 H 0.1325 0.2286 0.4001
C20 C 0.20758(14) 0.24710(16) 0.2369(2)
H12 H 0.2153 0.1799 0.2189
C21 C 0.24570(13) 0.31575(15) 0.1556(2)
H13 H 0.2797 0.2951 0.0823
C22 C 0.22844(14) 0.49780(14) -0.0482(2)
C23 C 0.27122(15) 0.53487(14) -0.1583(2)
H14 H 0.3319 0.5505 -0.1495
C24 C 0.22771(17) 0.54953(16) -0.2799(2)
H15 H 0.2583 0.5748 -0.3541
C25 C 0.13930(18) 0.52734(16) -0.2937(2)
H16 H 0.1089 0.5371 -0.3774
C26 C 0.09542(16) 0.49082(15) -0.1849(2)
H17 H 0.0347 0.4753 -0.1942
C27 C 0.13937(14) 0.47668(14) -0.0626(2)
H18 H 0.1085 0.4524 0.0119
loop_
_geom_bond_atom_site_label_1
_geom_bond_atom_site_label_2
_geom_bond_site_symmetry_1
_geom_bond_site_symmetry_2
C1 H1 1_555 1_555
C2 C1 1_555 1_555
H2 C2 1_555 1_555
C3 C2 1_555 1_555
O1 C3 1_555 1_555
C4 O1 1_555 1_555
C5 C4 1_555 1_555
C6 C5 1_555 1_555
H3 C6 1_555 1_555
C7 C6 1_555 1_555
C8 C7 1_555 1_555
H4 C8 1_555 1_555
C9 C8 1_555 1_555
H5 C9 1_555 1_555
C10 C9 1_555 1_555
H6 C10 1_555 1_555
C11 C10 1_555 1_555
H7 C11 1_555 1_555
C12 C7 1_555 1_555
C13 C1 1_555 1_555
N1 C5 1_555 1_555
H8 N1 1_555 1_555
C14 N1 1_555 1_555
O2 C14 1_555 1_555
C15 C14 1_555 1_555
F1 C15 1_555 1_555
F2 C15 1_555 1_555
F3 C15 1_555 1_555
C16 C3 1_555 1_555
C17 C16 1_555 1_555
H9 C17 1_555 1_555
C18 C17 1_555 1_555
H10 C18 1_555 1_555
C19 C18 1_555 1_555
H11 C19 1_555 1_555
C20 C19 1_555 1_555
H12 C20 1_555 1_555
C21 C16 1_555 1_555
H13 C21 1_555 1_555
C22 C3 1_555 1_555
C23 C22 1_555 1_555
H14 C23 1_555 1_555
C24 C23 1_555 1_555
H15 C24 1_555 1_555
C25 C24 1_555 1_555
H16 C25 1_555 1_555
C26 C25 1_555 1_555
H17 C26 1_555 1_555
C27 C22 1_555 1_555
H18 C27 1_555 1_555
C4 C13 1_555 1_555
C11 C12 1_555 1_555
C12 C13 1_555 1_555
C20 C21 1_555 1_555
C26 C27 1_555 1_555

#END
