
#######################################################################
#
#                 Cambridge Crystallographic Data Centre
#                                CCDC 
#
#######################################################################
#
# If this CIF has been generated from an entry in the Cambridge 
# Structural Database, then it will include bibliographic, chemical, 
# crystal, experimental, refinement or atomic coordinate data resulting 
# from the CCDC's data processing and validation procedures.
#
#######################################################################

data_TEDYOT
_chemical_formula_moiety         'C4 H2 N8 O6'
_chemical_name_systematic        
N,N'-dinitro-2,2'-bi-1,3,4-oxadiazole-5,5'(4H,4'H)-diimine
_symmetry_cell_setting           orthorhombic
_symmetry_space_group_name_H-M   'P b c a'
_symmetry_Int_Tables_number      61
_space_group_name_Hall           '-P 2ac 2ab'
loop_
_symmetry_equiv_pos_site_id
_symmetry_equiv_pos_as_xyz
1 x,y,z
2 1/2+x,1/2-y,-z
3 -x,1/2+y,1/2-z
4 1/2-x,-y,1/2+z
5 -x,-y,-z
6 1/2-x,1/2+y,z
7 x,1/2-y,1/2+z
8 1/2+x,y,1/2-z
_cell_length_a                   6.4008(14)
_cell_length_b                   8.3648(17)
_cell_length_c                   16.094(3)
_cell_angle_alpha                90
_cell_angle_beta                 90
_cell_angle_gamma                90
_cell_volume                     861.695
_exptl_crystal_colour            colorless
_exptl_crystal_description       block
_cell_formula_units_Z            4
loop_
_atom_site_label
_atom_site_type_symbol
_atom_site_fract_x
_atom_site_fract_y
_atom_site_fract_z
O1 O 0.4228(2) 0.20512(18) 0.02153(8)
O2 O 0.3726(3) 0.64348(19) 0.17777(11)
O3 O 0.5337(3) 0.4381(2) 0.22723(9)
N1 N 0.6136(3) 0.0425(2) 0.10007(11)
N2 N 0.5874(3) 0.1891(2) 0.13824(11)
N3 N 0.4378(3) 0.5056(2) 0.17128(11)
N4 N 0.3944(3) 0.4314(2) 0.09779(10)
C1 C 0.4696(3) 0.2860(3) 0.09237(12)
C2 C 0.5134(3) 0.0589(3) 0.03200(12)
H1 H 0.628(5) 0.207(3) 0.1935(18)
O1D O 0.5772(2) -0.20512(18) -0.02153(8)
O2D O 0.6274(3) -0.64348(19) -0.17777(11)
O3D O 0.4663(3) -0.4381(2) -0.22723(9)
N1D N 0.3864(3) -0.0425(2) -0.10007(11)
N2D N 0.4126(3) -0.1891(2) -0.13824(11)
N3D N 0.5622(3) -0.5056(2) -0.17128(11)
N4D N 0.6056(3) -0.4314(2) -0.09779(10)
C1D C 0.5304(3) -0.2860(3) -0.09237(12)
C2D C 0.4866(3) -0.0589(3) -0.03200(12)
H1D H 0.372(5) -0.207(3) -0.1935(18)
loop_
_geom_bond_atom_site_label_1
_geom_bond_atom_site_label_2
_geom_bond_site_symmetry_1
_geom_bond_site_symmetry_2
O1 C1 1_555 1_555
O2 N3 1_555 1_555
O3 N3 1_555 1_555
N1 N2 1_555 1_555
N2 C1 1_555 1_555
N3 N4 1_555 1_555
N4 C1 1_555 1_555
C2 O1 1_555 1_555
H1 N2 1_555 1_555
O1D C1D 1_555 1_555
O2D N3D 1_555 1_555
O3D N3D 1_555 1_555
N1D N2D 1_555 1_555
N2D C1D 1_555 1_555
N3D N4D 1_555 1_555
N4D C1D 1_555 1_555
C2D C2 1_555 1_555
H1D N2D 1_555 1_555
N1 C2 1_555 1_555
O1D C2D 1_555 1_555
N1D C2D 1_555 1_555

#END
