
#######################################################################
#
#                 Cambridge Crystallographic Data Centre
#                                CCDC 
#
#######################################################################
#
# If this CIF has been generated from an entry in the Cambridge 
# Structural Database, then it will include bibliographic, chemical, 
# crystal, experimental, refinement or atomic coordinate data resulting 
# from the CCDC's data processing and validation procedures.
#
#######################################################################

data_TEFBOV01
_chemical_formula_moiety         'C46 H54 Ba1 N4 O4'
_chemical_name_systematic        
bis(2,2,6,6-Tetramethyl-3,5-heptanedionato)-bis(1,10-phenanthroline)-barium
_symmetry_cell_setting           monoclinic
_symmetry_space_group_name_H-M   'P 21/n'
_symmetry_Int_Tables_number      14
_space_group_name_Hall           '-P 2yn'
loop_
_symmetry_equiv_pos_site_id
_symmetry_equiv_pos_as_xyz
1 x,y,z
2 1/2-x,1/2+y,1/2-z
3 -x,-y,-z
4 1/2+x,1/2-y,1/2+z
_cell_length_a                   12.542(2)
_cell_length_b                   19.881(3)
_cell_length_c                   18.253(3)
_cell_angle_alpha                90
_cell_angle_beta                 105.50(1)
_cell_angle_gamma                90
_cell_volume                     4385.81
_exptl_crystal_colour            colorless
_cell_formula_units_Z            4
_exptl_crystal_recrystallization_method tetrahydrofuran
loop_
_atom_site_label
_atom_site_type_symbol
_atom_site_fract_x
_atom_site_fract_y
_atom_site_fract_z
Ba1 Ba -0.01004(2) 0.22374(1) 0.77468(1)
O1 O 0.1776(2) 0.2255(1) 0.7367(1)
O2 O 0.1158(2) 0.1114(1) 0.8105(1)
O3 O -0.1876(2) 0.2956(1) 0.7792(1)
O4 O -0.1749(2) 0.1528(1) 0.7973(2)
N1 N -0.0828(3) 0.2909(2) 0.6230(2)
N2 N -0.0678(2) 0.1537(1) 0.6289(2)
N3 N 0.0629(2) 0.3466(2) 0.8691(2)
N4 N 0.0667(3) 0.2249(2) 0.9394(2)
C1 C 0.2341(3) 0.1823(2) 0.7135(2)
C2 C 0.2450(3) 0.1149(2) 0.7383(2)
C3 C 0.1887(3) 0.0841(2) 0.7854(2)
C4 C 0.2945(3) 0.2078(2) 0.6559(2)
C5 C 0.3547(5) 0.1556(3) 0.6226(4)
C6 C 0.2108(5) 0.2407(4) 0.5914(4)
C7 C 0.3766(7) 0.2598(4) 0.6939(4)
C8 C 0.2132(3) 0.0083(2) 0.8056(2)
C9 C 0.1723(4) -0.0338(2) 0.7339(3)
C10 C 0.3364(4) -0.0047(2) 0.8373(3)
C11 C 0.1533(5) -0.0134(2) 0.8636(3)
C12 C -0.2561(3) 0.2889(2) 0.8176(2)
C13 C -0.2876(3) 0.2274(2) 0.8430(2)
C14 C -0.2473(3) 0.1640(2) 0.8319(2)
C15 C -0.3066(3) 0.3553(2) 0.8377(2)
C16 C -0.2177(4) 0.3908(3) 0.8952(3)
C17 C -0.3443(6) 0.3978(3) 0.7675(3)
C18 C -0.4060(4) 0.3451(3) 0.8702(3)
C19 C -0.2931(4) 0.1003(2) 0.8626(2)
C20 C -0.3482(5) 0.0576(3) 0.7958(3)
C21 C -0.1985(5) 0.0624(4) 0.9115(4)
C22 C -0.3762(6) 0.1142(3) 0.9074(1)
C23 C -0.0914(4) 0.3572(2) 0.6189(3)
C24 C -0.1194(4) 0.3927(2) 0.5499(3)
C25 C -0.1428(4) 0.3581(2) 0.4842(3)
C26 C -0.1364(3) 0.2881(2) 0.4853(2)
C27 C -0.1049(3) 0.2558(2) 0.5568(2)
C28 C -0.0967(3) 0.1838(2) 0.5597(2)
C29 C -0.1199(3) 0.1469(2) 0.4913(2)
C30 C -0.1534(3) 0.1819(3) 0.4202(2)
C31 C -0.1612(3) 0.2483(3) 0.4179(2)
C32 C -0.1105(3) 0.0774(2) 0.4963(3)
C33 C -0.0807(4) 0.0470(2) 0.5658(3)
C34 C -0.0605(4) 0.0875(2) 0.6307(3)
C35 C 0.0581(4) 0.4055(2) 0.8356(2)
C36 C 0.0752(4) 0.4672(2) 0.8750(3)
C37 C 0.0987(3) 0.4664(2) 0.9513(3)
C38 C 0.1070(3) 0.4048(2) 0.9900(2)
C39 C 0.0864(3) 0.3453(2) 0.9458(2)
C40 C 0.0914(3) 0.2810(2) 0.9830(2)
C41 C 0.1240(3) 0.2782(2) 1.0628(2)
C42 C 0.1476(3) 0.3397(3) 1.1056(2)
C43 C 0.1377(4) 0.3996(3) 1.0712(3)
C44 C 0.1309(4) 0.2149(3) 1.0968(2)
C45 C 0.1049(4) 0.1587(3) 1.0538(3)
C46 C 0.0728(4) 0.1657(2) 0.9738(2)
loop_
_geom_bond_atom_site_label_1
_geom_bond_atom_site_label_2
_geom_bond_site_symmetry_1
_geom_bond_site_symmetry_2
Ba1 O1 1_555 1_555
O1 C1 1_555 1_555
O2 Ba1 1_555 1_555
O3 Ba1 1_555 1_555
O4 Ba1 1_555 1_555
N1 Ba1 1_555 1_555
N2 Ba1 1_555 1_555
N3 Ba1 1_555 1_555
N4 Ba1 1_555 1_555
C1 C2 1_555 1_555
C2 C3 1_555 1_555
C3 O2 1_555 1_555
C4 C1 1_555 1_555
C5 C4 1_555 1_555
C6 C4 1_555 1_555
C7 C4 1_555 1_555
C8 C3 1_555 1_555
C9 C8 1_555 1_555
C10 C8 1_555 1_555
C11 C8 1_555 1_555
C12 O3 1_555 1_555
C13 C12 1_555 1_555
C14 O4 1_555 1_555
C15 C12 1_555 1_555
C16 C15 1_555 1_555
C17 C15 1_555 1_555
C18 C15 1_555 1_555
C19 C14 1_555 1_555
C20 C19 1_555 1_555
C21 C19 1_555 1_555
C22 C19 1_555 1_555
C23 N1 1_555 1_555
C24 C23 1_555 1_555
C25 C24 1_555 1_555
C26 C25 1_555 1_555
C27 N1 1_555 1_555
C28 N2 1_555 1_555
C29 C28 1_555 1_555
C30 C29 1_555 1_555
C31 C26 1_555 1_555
C32 C29 1_555 1_555
C33 C32 1_555 1_555
C34 N2 1_555 1_555
C35 N3 1_555 1_555
C36 C35 1_555 1_555
C37 C36 1_555 1_555
C38 C37 1_555 1_555
C39 N3 1_555 1_555
C40 N4 1_555 1_555
C41 C40 1_555 1_555
C42 C41 1_555 1_555
C43 C38 1_555 1_555
C44 C41 1_555 1_555
C45 C44 1_555 1_555
C46 N4 1_555 1_555
C13 C14 1_555 1_555
C26 C27 1_555 1_555
C27 C28 1_555 1_555
C30 C31 1_555 1_555
C33 C34 1_555 1_555
C38 C39 1_555 1_555
C39 C40 1_555 1_555
C42 C43 1_555 1_555
C45 C46 1_555 1_555

#END
