
#######################################################################
#
#                 Cambridge Crystallographic Data Centre
#                                CCDC 
#
#######################################################################
#
# If this CIF has been generated from an entry in the Cambridge 
# Structural Database, then it will include bibliographic, chemical, 
# crystal, experimental, refinement or atomic coordinate data resulting 
# from the CCDC's data processing and validation procedures.
#
#######################################################################

data_TEFDAM
_chemical_formula_moiety         'C15 H16 N4 O1'
_chemical_name_systematic        
3-(dimethylamino)-5-[(1,2-dimethyl-5-oxo-1,5-dihydro-4H-imidazol-4-ylidene)methyl]benzonitrile
_symmetry_cell_setting           triclinic
_symmetry_space_group_name_H-M   'P -1'
_symmetry_Int_Tables_number      2
_space_group_name_Hall           '-P 1'
loop_
_symmetry_equiv_pos_site_id
_symmetry_equiv_pos_as_xyz
1 x,y,z
2 -x,-y,-z
_cell_length_a                   8.0727(3)
_cell_length_b                   8.1831(3)
_cell_length_c                   11.4988(4)
_cell_angle_alpha                76.276(2)
_cell_angle_beta                 76.546(2)
_cell_angle_gamma                63.9170(10)
_cell_volume                     655.559
_exptl_crystal_colour            yellow
_exptl_crystal_description       prism
_cell_formula_units_Z            2
loop_
_atom_site_label
_atom_site_type_symbol
_atom_site_fract_x
_atom_site_fract_y
_atom_site_fract_z
O1 O -0.02791(11) 0.67627(11) 0.64477(7)
N1 N 0.08125(13) 0.89376(13) 0.64894(8)
N2 N 0.30615(13) 0.85279(13) 0.48586(8)
N3 N 0.58197(14) 0.20656(14) 0.11629(9)
N4 N 0.92061(15) 0.71419(16) 0.10582(11)
C1 C 0.22663(15) 0.72696(15) 0.49682(10)
C2 C 0.07663(15) 0.75378(15) 0.60367(10)
C3 C 0.21833(15) 0.94533(15) 0.57503(10)
C4 C -0.03923(16) 0.96700(17) 0.75589(10)
H1 H -0.1642 1.0488 0.7359
H2 H 0.0115 1.0364 0.7850
H3 H -0.0465 0.8654 0.8192
C5 C 0.25565(16) 1.09445(17) 0.60087(11)
H4 H 0.3541 1.1143 0.5390
H5 H 0.2958 1.0591 0.6807
H6 H 0.1417 1.2083 0.6000
C6 C 0.27021(15) 0.59770(15) 0.42803(10)
H7 H 0.1956 0.5290 0.4500
C7 C 0.41608(15) 0.54830(15) 0.32427(10)
C8 C 0.42625(15) 0.41254(15) 0.26581(10)
H8 H 0.3367 0.3607 0.2932
C9 C 0.56554(15) 0.34980(15) 0.16725(10)
C10 C 0.69100(15) 0.43454(15) 0.12556(10)
H9 H 0.7832 0.3999 0.0571
C11 C 0.67953(15) 0.56973(15) 0.18518(10)
C12 C 0.54482(15) 0.62894(15) 0.28411(10)
H10 H 0.5402 0.7212 0.3233
C13 C 0.43006(17) 0.14766(18) 0.14447(12)
H11 H 0.3190 0.2479 0.1142
H12 H 0.4027 0.1154 0.2323
H13 H 0.4658 0.0399 0.1059
C14 C 0.70454(16) 0.16792(17) 0.00256(10)
H14 H 0.6585 0.2732 -0.0610
H15 H 0.7070 0.0582 -0.0194
H16 H 0.8308 0.1463 0.0113
C15 C 0.81422(16) 0.64989(16) 0.14164(11)
loop_
_geom_bond_atom_site_label_1
_geom_bond_atom_site_label_2
_geom_bond_site_symmetry_1
_geom_bond_site_symmetry_2
O1 C2 1_555 1_555
N1 C2 1_555 1_555
N2 C1 1_555 1_555
N3 C9 1_555 1_555
N4 C15 1_555 1_555
C1 C2 1_555 1_555
C3 N1 1_555 1_555
C4 N1 1_555 1_555
H1 C4 1_555 1_555
H2 C4 1_555 1_555
H3 C4 1_555 1_555
C5 C3 1_555 1_555
H4 C5 1_555 1_555
H5 C5 1_555 1_555
H6 C5 1_555 1_555
C6 C1 1_555 1_555
H7 C6 1_555 1_555
C7 C6 1_555 1_555
C8 C7 1_555 1_555
H8 C8 1_555 1_555
C9 C8 1_555 1_555
C10 C9 1_555 1_555
H9 C10 1_555 1_555
C11 C10 1_555 1_555
C12 C7 1_555 1_555
H10 C12 1_555 1_555
C13 N3 1_555 1_555
H11 C13 1_555 1_555
H12 C13 1_555 1_555
H13 C13 1_555 1_555
C14 N3 1_555 1_555
H14 C14 1_555 1_555
H15 C14 1_555 1_555
H16 C14 1_555 1_555
C15 C11 1_555 1_555
N2 C3 1_555 1_555
C11 C12 1_555 1_555

#END
