
#######################################################################
#
#                 Cambridge Crystallographic Data Centre
#                                CCDC 
#
#######################################################################
#
# If this CIF has been generated from an entry in the Cambridge 
# Structural Database, then it will include bibliographic, chemical, 
# crystal, experimental, refinement or atomic coordinate data resulting 
# from the CCDC's data processing and validation procedures.
#
#######################################################################

data_TEFGAP
_chemical_formula_moiety         'C14 H26 O2 Si1'
_chemical_name_systematic        
2-{[t-butyl(dimethyl)silyl]oxy}-4-methylbicyclo[4.1.0]hept-4-en-3-ol
_symmetry_cell_setting           orthorhombic
_symmetry_space_group_name_H-M   'P 21 21 2'
_symmetry_Int_Tables_number      18
_space_group_name_Hall           'P 2 2ab'
loop_
_symmetry_equiv_pos_site_id
_symmetry_equiv_pos_as_xyz
1 x,y,z
2 -x,-y,z
3 1/2+x,1/2-y,-z
4 1/2-x,1/2+y,-z
_cell_length_a                   18.3637(1)
_cell_length_b                   14.1093(1)
_cell_length_c                   12.0122(1)
_cell_angle_alpha                90
_cell_angle_beta                 90
_cell_angle_gamma                90
_cell_volume                     3112.35
_exptl_crystal_colour            colorless
_exptl_crystal_description       block
_cell_formula_units_Z            8
loop_
_atom_site_label
_atom_site_type_symbol
_atom_site_fract_x
_atom_site_fract_y
_atom_site_fract_z
Si1 Si 0.327061(14) 0.31642(2) 0.29278(2)
O1 O 0.38642(4) 0.29465(6) 0.39301(6)
O2 O 0.51081(5) 0.09524(6) 0.37248(7)
C1 C 0.48127(7) 0.19682(9) 0.60750(10)
C2 C 0.44729(7) 0.13573(8) 0.54133(9)
C3 C 0.45026(6) 0.14858(8) 0.41667(9)
C4 C 0.45693(6) 0.25241(8) 0.38063(10)
C5 C 0.50982(6) 0.30950(9) 0.44853(11)
C6 C 0.58196(7) 0.27011(10) 0.48432(12)
C7 C 0.52099(7) 0.28113(9) 0.56872(11)
C8 C 0.40558(8) 0.05163(9) 0.58325(11)
C9 C 0.23611(7) 0.30493(11) 0.35902(11)
C10 C 0.33586(8) 0.22830(9) 0.17770(11)
C11 C 0.34211(6) 0.44026(8) 0.23852(10)
C12 C 0.27987(8) 0.46909(11) 0.16105(14)
C13 C 0.34617(10) 0.51041(10) 0.33534(13)
C14 C 0.41391(8) 0.44391(11) 0.17418(14)
H1 H 0.5188(16) 0.107(2) 0.3045(16)
H2 H 0.4798 0.1853 0.6854
H3 H 0.4067 0.1236 0.3858
H4 H 0.4709 0.2549 0.3045
H5 H 0.5091 0.3758 0.4350
H6 H 0.6234 0.3103 0.4879
H7 H 0.5964 0.2087 0.4607
H8 H 0.5260 0.3314 0.6208
H9 H 0.4072 0.0504 0.6623
H10 H 0.4267 -0.0048 0.5546
H11 H 0.3564 0.0560 0.5594
H12 H 0.1993 0.3167 0.3052
H13 H 0.2320 0.3495 0.4179
H14 H 0.2306 0.2426 0.3878
H15 H 0.3013 0.2422 0.1212
H16 H 0.3836 0.2314 0.1474
H17 H 0.3272 0.1664 0.2059
H18 H 0.2881 0.5316 0.1343
H19 H 0.2352 0.4672 0.2007
H20 H 0.2777 0.4264 0.1000
H21 H 0.3538 0.5725 0.3071
H22 H 0.3854 0.4936 0.3829
H23 H 0.3018 0.5086 0.3761
H24 H 0.4215 0.5063 0.1468
H25 H 0.4528 0.4269 0.2223
H26 H 0.4119 0.4008 0.1135
Si2 Si 0.79480(3) 0.16035(3) 0.20982(5)
O3 O 0.72594(5) 0.15214(7) 0.12439(9)
O4 O 0.53561(6) 0.08528(7) 0.14819(7)
C15 C 0.60499(6) 0.13497(10) -0.09066(10)
C16 C 0.60456(6) 0.06292(8) -0.01985(9)
C17 C 0.60855(7) 0.08076(8) 0.10345(9)
C18 C 0.64971(6) 0.17149(9) 0.13451(10)
C19 C 0.63260(7) 0.25489(9) 0.06147(13)
C20 C 0.55698(8) 0.27696(10) 0.02302(14)
C21 C 0.61158(7) 0.23496(10) -0.05785(12)
C22 C 0.60015(8) -0.03889(10) -0.05526(11)
C23 C 0.7752(7) 0.2556(7) 0.3195(10)
C24 C 0.87797(13) 0.1918(2) 0.1300(2)
C25 C 0.80723(11) 0.04128(13) 0.27900(16)
C26 C 0.8760(3) 0.0439(4) 0.3545(4)
C27 C 0.74086(17) 0.0158(2) 0.3506(2)
C28 C 0.81783(17) -0.03570(18) 0.1911(2)
H28 H 0.5370(12) 0.103(3) 0.2152(17)
H29 H 0.6008 0.1210 -0.1678
H30 H 0.6328 0.0286 0.1370
H31 H 0.6391 0.1874 0.2096
H32 H 0.6632 0.3085 0.0718
H33 H 0.5419 0.3410 0.0150
H34 H 0.5172 0.2398 0.0485
H35 H 0.6308 0.2769 -0.1124
H36 H 0.5979 -0.0423 -0.1342
H37 H 0.6421 -0.0718 -0.0297
H38 H 0.5577 -0.0670 -0.0243
H39 H 0.8154 0.2602 0.3690
H40 H 0.7679 0.3149 0.2837
H41 H 0.7327 0.2389 0.3601
H42 H 0.9182 0.1966 0.1795
H43 H 0.8875 0.1440 0.0762
H44 H 0.8708 0.2508 0.0935
H45 H 0.8822 -0.0161 0.3893
H46 H 0.9176 0.0579 0.3104
H47 H 0.8701 0.0913 0.4098
H48 H 0.7484 -0.0443 0.3844
H49 H 0.7344 0.0625 0.4067
H50 H 0.6987 0.0133 0.3049
H51 H 0.8240 -0.0953 0.2267
H52 H 0.8598 -0.0217 0.1478
H53 H 0.7763 -0.0380 0.1441
H27? H 0.5039(15) 0.0379(13) 0.387(3)
Si3? Si 0.76423(5) 0.13016(7) 0.25896(8)
C29? C 0.7129(2) 0.0479(4) 0.3514(4)
C30? C 0.7750(12) 0.2413(12) 0.3229(18)
C31? C 0.85340(18) 0.0752(2) 0.2174(3)
C32? C 0.8938(6) 0.0463(9) 0.3216(7)
C33? C 0.8406(3) -0.0138(4) 0.1460(5)
C34? C 0.8994(2) 0.1467(4) 0.1517(4)
H54? H 0.5183(13) 0.0319(14) 0.141(3)
H55? H 0.7380 0.0414 0.4202
H56? H 0.7090 -0.0123 0.3166
H57? H 0.6656 0.0727 0.3646
H58? H 0.7953 0.2332 0.3950
H59? H 0.8066 0.2795 0.2792
H60? H 0.7289 0.2714 0.3290
H61? H 0.9390 0.0184 0.3017
H62? H 0.9023 0.1006 0.3665
H63? H 0.8655 0.0018 0.3620
H64? H 0.8862 -0.0407 0.1258
H65? H 0.8133 -0.0588 0.1875
H66? H 0.8145 0.0030 0.0807
H67? H 0.9443 0.1183 0.1312
H68? H 0.9086 0.2008 0.1967
H69? H 0.8738 0.1654 0.0866
loop_
_geom_bond_atom_site_label_1
_geom_bond_atom_site_label_2
_geom_bond_site_symmetry_1
_geom_bond_site_symmetry_2
Si1 O1 1_555 1_555
O1 C4 1_555 1_555
O2 C3 1_555 1_555
C1 C2 1_555 1_555
C2 C3 1_555 1_555
C3 C4 1_555 1_555
C4 C5 1_555 1_555
C5 C6 1_555 1_555
C6 C7 1_555 1_555
C7 C1 1_555 1_555
C8 C2 1_555 1_555
C9 Si1 1_555 1_555
C10 Si1 1_555 1_555
C11 Si1 1_555 1_555
C12 C11 1_555 1_555
C13 C11 1_555 1_555
C14 C11 1_555 1_555
H1 O2 1_555 1_555
H2 C1 1_555 1_555
H3 C3 1_555 1_555
H4 C4 1_555 1_555
H5 C5 1_555 1_555
H6 C6 1_555 1_555
H7 C6 1_555 1_555
H8 C7 1_555 1_555
H9 C8 1_555 1_555
H10 C8 1_555 1_555
H11 C8 1_555 1_555
H12 C9 1_555 1_555
H13 C9 1_555 1_555
H14 C9 1_555 1_555
H15 C10 1_555 1_555
H16 C10 1_555 1_555
H17 C10 1_555 1_555
H18 C12 1_555 1_555
H19 C12 1_555 1_555
H20 C12 1_555 1_555
H21 C13 1_555 1_555
H22 C13 1_555 1_555
H23 C13 1_555 1_555
H24 C14 1_555 1_555
H25 C14 1_555 1_555
H26 C14 1_555 1_555
Si2 O3 1_555 1_555
O3 C18 1_555 1_555
O4 C17 1_555 1_555
C15 C16 1_555 1_555
C16 C17 1_555 1_555
C17 C18 1_555 1_555
C18 C19 1_555 1_555
C19 C20 1_555 1_555
C20 C21 1_555 1_555
C21 C15 1_555 1_555
C22 C16 1_555 1_555
C23 Si2 1_555 1_555
C24 Si2 1_555 1_555
C25 Si2 1_555 1_555
C26 C25 1_555 1_555
C27 C25 1_555 1_555
C28 C25 1_555 1_555
H28 O4 1_555 1_555
H29 C15 1_555 1_555
H30 C17 1_555 1_555
H31 C18 1_555 1_555
H32 C19 1_555 1_555
H33 C20 1_555 1_555
H34 C20 1_555 1_555
H35 C21 1_555 1_555
H36 C22 1_555 1_555
H37 C22 1_555 1_555
H38 C22 1_555 1_555
H39 C23 1_555 1_555
H40 C23 1_555 1_555
H41 C23 1_555 1_555
H42 C24 1_555 1_555
H43 C24 1_555 1_555
H44 C24 1_555 1_555
H45 C26 1_555 1_555
H46 C26 1_555 1_555
H47 C26 1_555 1_555
H48 C27 1_555 1_555
H49 C27 1_555 1_555
H50 C27 1_555 1_555
H51 C28 1_555 1_555
H52 C28 1_555 1_555
H53 C28 1_555 1_555
C5 C7 1_555 1_555
C19 C21 1_555 1_555

#END
