
#######################################################################
#
#                 Cambridge Crystallographic Data Centre
#                                CCDC 
#
#######################################################################
#
# If this CIF has been generated from an entry in the Cambridge 
# Structural Database, then it will include bibliographic, chemical, 
# crystal, experimental, refinement or atomic coordinate data resulting 
# from the CCDC's data processing and validation procedures.
#
#######################################################################

data_TEFGIX
_chemical_formula_moiety         'C13 H16 O3'
_chemical_name_systematic        
3a-methyl-8-(propan-2-yl)-3a,7a-dihydro-3,6-methano-1-benzofuran-2,7(3H,6H)-dione
_symmetry_cell_setting           monoclinic
_symmetry_space_group_name_H-M   'P 21'
_symmetry_Int_Tables_number      4
_space_group_name_Hall           'P 2yb'
loop_
_symmetry_equiv_pos_site_id
_symmetry_equiv_pos_as_xyz
1 x,y,z
2 -x,1/2+y,-z
_cell_length_a                   7.2003(2)
_cell_length_b                   8.4682(2)
_cell_length_c                   9.4258(3)
_cell_angle_alpha                90
_cell_angle_beta                 91.1279(17)
_cell_angle_gamma                90
_cell_volume                     574.613
_exptl_crystal_colour            colorless
_exptl_crystal_description       prism
_cell_formula_units_Z            2
loop_
_atom_site_label
_atom_site_type_symbol
_atom_site_fract_x
_atom_site_fract_y
_atom_site_fract_z
O1 O 0.2373(3) 0.3649(5) 0.7873(3)
O2 O 0.5359(3) 0.5955(3) 0.8889(2)
O3 O 0.7261(4) 0.7603(3) 0.7772(2)
C1 C 0.4053(4) 0.3610(4) 0.7880(3)
C2 C 0.5221(4) 0.2904(3) 0.6709(3)
C3 C 0.6727(3) 0.4122(3) 0.6265(2)
C4 C 0.7742(3) 0.4737(3) 0.7635(2)
C5 C 0.7285(4) 0.3668(4) 0.8932(2)
C6 C 0.5264(4) 0.4250(4) 0.9099(3)
C7 C 0.6854(4) 0.6278(3) 0.8070(3)
C8 C 0.8517(5) 0.4051(6) 1.0217(3)
C9 C 0.8127(4) 0.3438(3) 0.5217(2)
C10 C 0.9253(5) 0.4764(4) 0.4555(3)
C11 C 0.7195(4) 0.2466(4) 0.4036(3)
C12 C 0.7243(4) 0.1942(4) 0.8542(3)
C13 C 0.6181(4) 0.1539(3) 0.7423(3)
H1 H 0.4456 0.2590 0.5904
H2 H 0.6092 0.5012 0.5809
H3 H 0.9092 0.4869 0.7456
H4 H 0.4762 0.3991 1.0018
H5 H 0.8148 0.3398 1.0995
H6 H 0.8392 0.5140 1.0495
H7 H 0.9794 0.3842 1.0006
H8 H 0.8987 0.2727 0.5748
H9 H 1.0218 0.4342 0.3981
H10 H 0.9784 0.5429 0.5278
H11 H 0.8470 0.5426 0.3953
H12 H 0.8058 0.2118 0.3333
H13 H 0.6624 0.1519 0.4421
H14 H 0.6240 0.3061 0.3535
H15 H 0.7941 0.1195 0.9075
H16 H 0.6033 0.0499 0.7101
loop_
_geom_bond_atom_site_label_1
_geom_bond_atom_site_label_2
_geom_bond_site_symmetry_1
_geom_bond_site_symmetry_2
O1 C1 1_555 1_555
O2 C6 1_555 1_555
O3 C7 1_555 1_555
C1 C2 1_555 1_555
C2 C3 1_555 1_555
C3 C4 1_555 1_555
C4 C5 1_555 1_555
C5 C6 1_555 1_555
C6 C1 1_555 1_555
C7 O2 1_555 1_555
C8 C5 1_555 1_555
C9 C3 1_555 1_555
C10 C9 1_555 1_555
C11 C9 1_555 1_555
C12 C5 1_555 1_555
C13 C2 1_555 1_555
H1 C2 1_555 1_555
H2 C3 1_555 1_555
H3 C4 1_555 1_555
H4 C6 1_555 1_555
H5 C8 1_555 1_555
H6 C8 1_555 1_555
H7 C8 1_555 1_555
H8 C9 1_555 1_555
H9 C10 1_555 1_555
H10 C10 1_555 1_555
H11 C10 1_555 1_555
H12 C11 1_555 1_555
H13 C11 1_555 1_555
H14 C11 1_555 1_555
H15 C12 1_555 1_555
H16 C13 1_555 1_555
C4 C7 1_555 1_555
C12 C13 1_555 1_555

#END
