
#######################################################################
#
#                 Cambridge Crystallographic Data Centre
#                                CCDC 
#
#######################################################################
#
# If this CIF has been generated from an entry in the Cambridge 
# Structural Database, then it will include bibliographic, chemical, 
# crystal, experimental, refinement or atomic coordinate data resulting 
# from the CCDC's data processing and validation procedures.
#
#######################################################################

data_TEFHIY
_chemical_formula_moiety         'C11 H12 O3'
_chemical_name_systematic        
3,6b-dimethyl-3,5a,6a,6b-tetrahydro-2H-cyclobuta[cd][2]benzofuran-2,6(2aH)-dione
_symmetry_cell_setting           orthorhombic
_symmetry_space_group_name_H-M   'P 21 21 21'
_symmetry_Int_Tables_number      19
_space_group_name_Hall           'P 2ac 2ab'
loop_
_symmetry_equiv_pos_site_id
_symmetry_equiv_pos_as_xyz
1 x,y,z
2 1/2+x,1/2-y,-z
3 -x,1/2+y,1/2-z
4 1/2-x,-y,1/2+z
_cell_length_a                   7.4666(2)
_cell_length_b                   12.0831(5)
_cell_length_c                   10.8645(4)
_cell_angle_alpha                90
_cell_angle_beta                 90
_cell_angle_gamma                90
_cell_volume                     980.192
_exptl_crystal_colour            colorless
_exptl_crystal_description       prism
_cell_formula_units_Z            4
loop_
_atom_site_label
_atom_site_type_symbol
_atom_site_fract_x
_atom_site_fract_y
_atom_site_fract_z
O1 O 0.4158(4) 0.3308(2) 0.6963(2)
O2 O 0.7606(2) 0.34259(15) 0.5268(2)
O3 O 0.9997(2) 0.44998(17) 0.5091(2)
C1 C 0.5247(3) 0.5860(2) 0.6297(2)
C2 C 0.6594(3) 0.6463(2) 0.5866(2)
C3 C 0.7370(3) 0.63129(19) 0.4601(2)
C4 C 0.7170(3) 0.51131(18) 0.4180(2)
C5 C 0.5331(3) 0.45895(18) 0.4362(2)
C6 C 0.5742(3) 0.3438(2) 0.4945(2)
C7 C 0.4625(4) 0.3786(2) 0.6069(3)
C8 C 0.4366(3) 0.49631(19) 0.5575(2)
C9 C 0.6513(4) 0.7124(2) 0.3701(3)
C10 C 0.8442(3) 0.4362(2) 0.4874(2)
C11 C 0.4128(4) 0.4558(3) 0.3234(2)
H1 H 0.4814 0.6004 0.7092
H2 H 0.7062 0.7019 0.6374
H3 H 0.8645 0.6506 0.4629
H4 H 0.7522 0.5067 0.3319
H5 H 0.5371 0.2782 0.4492
H6 H 0.3088 0.5119 0.5432
H7 H 0.7076 0.7051 0.2910
H8 H 0.6624 0.7878 0.3977
H9 H 0.5234 0.6959 0.3594
H10 H 0.3082 0.4121 0.3390
H11 H 0.3773 0.5304 0.3024
H12 H 0.4776 0.4238 0.2554
loop_
_geom_bond_atom_site_label_1
_geom_bond_atom_site_label_2
_geom_bond_site_symmetry_1
_geom_bond_site_symmetry_2
O1 C7 1_555 1_555
O2 C6 1_555 1_555
O3 C10 1_555 1_555
C1 C2 1_555 1_555
C2 C3 1_555 1_555
C3 C4 1_555 1_555
C4 C5 1_555 1_555
C5 C6 1_555 1_555
C6 C7 1_555 1_555
C7 C8 1_555 1_555
C8 C1 1_555 1_555
C9 C3 1_555 1_555
C10 O2 1_555 1_555
C11 C5 1_555 1_555
H1 C1 1_555 1_555
H2 C2 1_555 1_555
H3 C3 1_555 1_555
H4 C4 1_555 1_555
H5 C6 1_555 1_555
H6 C8 1_555 1_555
H7 C9 1_555 1_555
H8 C9 1_555 1_555
H9 C9 1_555 1_555
H10 C11 1_555 1_555
H11 C11 1_555 1_555
H12 C11 1_555 1_555
C4 C10 1_555 1_555
C5 C8 1_555 1_555

#END
