
#######################################################################
#
#                 Cambridge Crystallographic Data Centre
#                                CCDC 
#
#######################################################################
#
# If this CIF has been generated from an entry in the Cambridge 
# Structural Database, then it will include bibliographic, chemical, 
# crystal, experimental, refinement or atomic coordinate data resulting 
# from the CCDC's data processing and validation procedures.
#
#######################################################################

data_TEFJIA
_chemical_formula_moiety         'C22 H36 O4 Si1'
_chemical_name_systematic        
'8-{[t-butyl(dimethyl)silyl]oxy}-2,2,7-trimethyl-9-oxo-2,3,3a,4,7,7a-hexahydro-1H-4,7-ethanoinden-1-yl acetate'
_symmetry_cell_setting           orthorhombic
_symmetry_space_group_name_H-M   'P 21 21 21'
_symmetry_Int_Tables_number      19
_space_group_name_Hall           'P 2ac 2ab'
loop_
_symmetry_equiv_pos_site_id
_symmetry_equiv_pos_as_xyz
1 x,y,z
2 1/2+x,1/2-y,-z
3 -x,1/2+y,1/2-z
4 1/2-x,-y,1/2+z
_cell_length_a                   25.6494(7)
_cell_length_b                   14.1949(4)
_cell_length_c                   6.2343(2)
_cell_angle_alpha                90
_cell_angle_beta                 90
_cell_angle_gamma                90
_cell_volume                     2269.85
_exptl_crystal_colour            colorless
_exptl_crystal_description       block
_cell_formula_units_Z            4
loop_
_atom_site_label
_atom_site_type_symbol
_atom_site_fract_x
_atom_site_fract_y
_atom_site_fract_z
Si1 Si 0.819737(18) 0.23643(4) 0.78945(8)
O1 O 0.56220(4) 0.28262(8) 0.50283(19)
O2 O 0.76359(4) 0.24959(9) 0.66007(19)
O3 O 0.77438(5) 0.44650(10) 0.6031(2)
O4 O 0.50579(8) 0.17595(13) 0.6324(3)
C1 C 0.54516(7) 0.42062(12) 0.7292(3)
C2 C 0.57049(6) 0.32228(11) 0.7156(3)
C3 C 0.62925(6) 0.34067(11) 0.7527(2)
C4 C 0.63886(6) 0.44535(11) 0.6886(3)
C5 C 0.58553(7) 0.48223(12) 0.6125(3)
C6 C 0.67236(6) 0.38086(12) 0.3382(3)
C7 C 0.66637(6) 0.29219(12) 0.4001(3)
C8 C 0.66893(6) 0.27478(11) 0.6406(3)
C9 C 0.72307(6) 0.31271(12) 0.7153(3)
C10 C 0.73188(7) 0.41025(12) 0.6138(3)
C11 C 0.68255(7) 0.45038(11) 0.5181(3)
C12 C 0.66138(7) 0.17230(11) 0.7059(3)
C13 C 0.54125(8) 0.44804(15) 0.9665(3)
C14 C 0.49135(7) 0.42597(15) 0.6263(4)
C15 C 0.52918(7) 0.20957(13) 0.4852(3)
C16 C 0.52589(8) 0.17708(15) 0.2561(3)
C17 C 0.81121(9) 0.26767(16) 1.0770(3)
C18 C 0.87243(8) 0.31002(17) 0.6700(4)
C19 C 0.83610(7) 0.10735(14) 0.7577(3)
C20 C 0.79395(9) 0.04609(15) 0.8627(4)
C21 C 0.83997(9) 0.08242(17) 0.5190(4)
C22 C 0.88865(9) 0.08566(19) 0.8656(4)
H1 H 0.5573 0.2782 0.8263
H2 H 0.6355 0.3328 0.9062
H3 H 0.6498 0.4796 0.8145
H4 H 0.5810 0.5480 0.6425
H5 H 0.5828 0.4713 0.4573
H6 H 0.6715 0.4006 0.1976
H7 H 0.6607 0.2419 0.3063
H8 H 0.7218 0.3224 0.8700
H9 H 0.6874 0.5153 0.4641
H10 H 0.6862 0.1314 0.6371
H11 H 0.6660 0.1658 0.8573
H12 H 0.6270 0.1492 0.6732
H13 H 0.5283 0.5112 0.9738
H14 H 0.5747 0.4438 1.0367
H15 H 0.5168 0.4073 1.0387
H16 H 0.4770 0.4875 0.6482
H17 H 0.4931 0.4136 0.4749
H18 H 0.4679 0.3812 0.6923
H19 H 0.5082 0.1195 0.2453
H20 H 0.5590 0.1724 0.2011
H21 H 0.5082 0.2238 0.1726
H22 H 0.8441 0.2545 1.1469
H23 H 0.8027 0.3327 1.0904
H24 H 0.7837 0.2318 1.1390
H25 H 0.9060 0.2964 0.7337
H26 H 0.8641 0.3768 0.6955
H27 H 0.8763 0.2993 0.5198
H28 H 0.7916 0.0580 1.0141
H29 H 0.8024 -0.0184 0.8427
H30 H 0.7601 0.0572 0.7971
H31 H 0.8667 0.1184 0.4540
H32 H 0.8478 0.0175 0.5024
H33 H 0.8077 0.0935 0.4453
H34 H 0.9159 0.1231 0.7986
H35 H 0.8874 0.1012 1.0141
H36 H 0.8966 0.0199 0.8550
loop_
_geom_bond_atom_site_label_1
_geom_bond_atom_site_label_2
_geom_bond_site_symmetry_1
_geom_bond_site_symmetry_2
Si1 O2 1_555 1_555
O1 C2 1_555 1_555
O2 C9 1_555 1_555
O3 C10 1_555 1_555
O4 C15 1_555 1_555
C1 C2 1_555 1_555
C2 C3 1_555 1_555
C3 C4 1_555 1_555
C4 C5 1_555 1_555
C5 C1 1_555 1_555
C6 C7 1_555 1_555
C7 C8 1_555 1_555
C8 C3 1_555 1_555
C9 C8 1_555 1_555
C10 C9 1_555 1_555
C11 C4 1_555 1_555
C12 C8 1_555 1_555
C13 C1 1_555 1_555
C14 C1 1_555 1_555
C15 O1 1_555 1_555
C16 C15 1_555 1_555
C17 Si1 1_555 1_555
C18 Si1 1_555 1_555
C19 Si1 1_555 1_555
C20 C19 1_555 1_555
C21 C19 1_555 1_555
C22 C19 1_555 1_555
H1 C2 1_555 1_555
H2 C3 1_555 1_555
H3 C4 1_555 1_555
H4 C5 1_555 1_555
H5 C5 1_555 1_555
H6 C6 1_555 1_555
H7 C7 1_555 1_555
H8 C9 1_555 1_555
H9 C11 1_555 1_555
H10 C12 1_555 1_555
H11 C12 1_555 1_555
H12 C12 1_555 1_555
H13 C13 1_555 1_555
H14 C13 1_555 1_555
H15 C13 1_555 1_555
H16 C14 1_555 1_555
H17 C14 1_555 1_555
H18 C14 1_555 1_555
H19 C16 1_555 1_555
H20 C16 1_555 1_555
H21 C16 1_555 1_555
H22 C17 1_555 1_555
H23 C17 1_555 1_555
H24 C17 1_555 1_555
H25 C18 1_555 1_555
H26 C18 1_555 1_555
H27 C18 1_555 1_555
H28 C20 1_555 1_555
H29 C20 1_555 1_555
H30 C20 1_555 1_555
H31 C21 1_555 1_555
H32 C21 1_555 1_555
H33 C21 1_555 1_555
H34 C22 1_555 1_555
H35 C22 1_555 1_555
H36 C22 1_555 1_555
C6 C11 1_555 1_555
C10 C11 1_555 1_555

#END
