
#######################################################################
#
#                 Cambridge Crystallographic Data Centre
#                                CCDC 
#
#######################################################################
#
# If this CIF has been generated from an entry in the Cambridge 
# Structural Database, then it will include bibliographic, chemical, 
# crystal, experimental, refinement or atomic coordinate data resulting 
# from the CCDC's data processing and validation procedures.
#
#######################################################################

data_TEFJEW
_chemical_formula_moiety         'C18 H24 O5'
_chemical_name_systematic        
'2,2,7-trimethyl-9-oxo-2,3,3a,4,7,7a-hexahydro-1H-4,7-ethanoindene-1,8-diyl diacetate'
_symmetry_cell_setting           monoclinic
_symmetry_space_group_name_H-M   'P 21'
_symmetry_Int_Tables_number      4
_space_group_name_Hall           'P 2yb'
loop_
_symmetry_equiv_pos_site_id
_symmetry_equiv_pos_as_xyz
1 x,y,z
2 -x,1/2+y,-z
_cell_length_a                   7.4300(3)
_cell_length_b                   9.7667(3)
_cell_length_c                   12.1277(3)
_cell_angle_alpha                90
_cell_angle_beta                 92.279(3)
_cell_angle_gamma                90
_cell_volume                     879.37
_exptl_crystal_colour            colorless
_exptl_crystal_description       block
_cell_formula_units_Z            2
loop_
_atom_site_label
_atom_site_type_symbol
_atom_site_fract_x
_atom_site_fract_y
_atom_site_fract_z
O1 O 0.83774(19) 0.36345(16) 0.82611(12)
O2 O 0.8083(2) 0.34230(18) 0.39433(12)
O3 O 0.4265(2) 0.3189(2) 0.39489(14)
O4 O 1.0450(2) 0.4861(2) 0.92388(15)
O5 O 0.8189(3) 0.5402(2) 0.30099(16)
C1 C 0.5621(3) 0.4916(2) 0.85440(17)
C2 C 0.7401(3) 0.4866(2) 0.79284(16)
C3 C 0.6800(3) 0.4756(2) 0.66947(16)
C4 C 0.4854(3) 0.4154(2) 0.66709(17)
C5 C 0.4459(3) 0.3870(3) 0.78822(18)
C6 C 0.6251(3) 0.1888(2) 0.62477(19)
C7 C 0.7896(3) 0.2412(2) 0.62387(17)
C8 C 0.8011(3) 0.3912(2) 0.59278(16)
C9 C 0.7039(3) 0.4053(2) 0.47816(16)
C10 C 0.5195(3) 0.3342(2) 0.47815(17)
C11 C 0.4739(3) 0.2864(2) 0.59238(19)
C12 C 0.9926(3) 0.4482(3) 0.59115(18)
C13 C 0.4824(4) 0.6365(3) 0.8438(2)
C14 C 0.5835(3) 0.4545(3) 0.97675(19)
C15 C 0.9839(3) 0.3777(3) 0.89474(16)
C16 C 1.0587(4) 0.2412(3) 0.9267(2)
C17 C 0.8604(3) 0.4223(3) 0.31116(18)
C18 C 0.9792(3) 0.3442(3) 0.2361(2)
H1 H 0.8154 0.5681 0.8082
H2 H 0.6725 0.5691 0.6419
H3 H 0.3996 0.4836 0.6380
H4 H 0.3191 0.3987 0.8032
H5 H 0.4852 0.2948 0.8081
H6 H 0.6016 0.0980 0.6438
H7 H 0.8935 0.1911 0.6426
H8 H 0.6853 0.5029 0.4604
H9 H 0.3569 0.2440 0.5951
H10 H 0.9886 0.5429 0.5665
H11 H 1.0492 0.4453 0.6631
H12 H 1.0584 0.3929 0.5398
H13 H 0.4645 0.6618 0.7666
H14 H 0.5631 0.7015 0.8797
H15 H 0.3665 0.6416 0.8781
H16 H 0.6294 0.3625 0.9864
H17 H 0.6666 0.5159 1.0151
H18 H 0.4670 0.4595 1.0104
H19 H 1.0993 0.1949 0.8617
H20 H 0.9663 0.1876 0.9593
H21 H 1.1588 0.2527 0.9779
H22 H 0.9271 0.2562 0.2196
H23 H 1.0933 0.3318 0.2726
H24 H 0.9930 0.3929 0.1687
loop_
_geom_bond_atom_site_label_1
_geom_bond_atom_site_label_2
_geom_bond_site_symmetry_1
_geom_bond_site_symmetry_2
O1 C2 1_555 1_555
O2 C9 1_555 1_555
O3 C10 1_555 1_555
O4 C15 1_555 1_555
O5 C17 1_555 1_555
C1 C2 1_555 1_555
C2 C3 1_555 1_555
C3 C4 1_555 1_555
C4 C5 1_555 1_555
C5 C1 1_555 1_555
C6 C7 1_555 1_555
C7 C8 1_555 1_555
C8 C3 1_555 1_555
C9 C8 1_555 1_555
C10 C9 1_555 1_555
C11 C4 1_555 1_555
C12 C8 1_555 1_555
C13 C1 1_555 1_555
C14 C1 1_555 1_555
C15 O1 1_555 1_555
C16 C15 1_555 1_555
C17 O2 1_555 1_555
C18 C17 1_555 1_555
H1 C2 1_555 1_555
H2 C3 1_555 1_555
H3 C4 1_555 1_555
H4 C5 1_555 1_555
H5 C5 1_555 1_555
H6 C6 1_555 1_555
H7 C7 1_555 1_555
H8 C9 1_555 1_555
H9 C11 1_555 1_555
H10 C12 1_555 1_555
H11 C12 1_555 1_555
H12 C12 1_555 1_555
H13 C13 1_555 1_555
H14 C13 1_555 1_555
H15 C13 1_555 1_555
H16 C14 1_555 1_555
H17 C14 1_555 1_555
H18 C14 1_555 1_555
H19 C16 1_555 1_555
H20 C16 1_555 1_555
H21 C16 1_555 1_555
H22 C18 1_555 1_555
H23 C18 1_555 1_555
H24 C18 1_555 1_555
C6 C11 1_555 1_555
C10 C11 1_555 1_555

#END
