
#######################################################################
#
#                 Cambridge Crystallographic Data Centre
#                                CCDC 
#
#######################################################################
#
# If this CIF has been generated from an entry in the Cambridge 
# Structural Database, then it will include bibliographic, chemical, 
# crystal, experimental, refinement or atomic coordinate data resulting 
# from the CCDC's data processing and validation procedures.
#
#######################################################################

data_TEFJOG
_chemical_formula_moiety         'C23 H26 O5'
_chemical_name_systematic        
'1-(acetyloxy)-2,2,7-trimethyl-9-oxo-2,3,3a,4,7,7a-hexahydro-1H-4,7-ethanoinden-8-yl benzoate'
_symmetry_cell_setting           orthorhombic
_symmetry_space_group_name_H-M   'P 21 21 21'
_symmetry_Int_Tables_number      19
_space_group_name_Hall           'P 2ac 2ab'
loop_
_symmetry_equiv_pos_site_id
_symmetry_equiv_pos_as_xyz
1 x,y,z
2 1/2+x,1/2-y,-z
3 -x,1/2+y,1/2-z
4 1/2-x,-y,1/2+z
_cell_length_a                   19.9195(6)
_cell_length_b                   11.6626(3)
_cell_length_c                   8.7386(2)
_cell_angle_alpha                90
_cell_angle_beta                 90
_cell_angle_gamma                90
_cell_volume                     2030.09
_exptl_crystal_colour            colorless
_exptl_crystal_description       lath
_cell_formula_units_Z            4
loop_
_atom_site_label
_atom_site_type_symbol
_atom_site_fract_x
_atom_site_fract_y
_atom_site_fract_z
O1 O 0.61903(7) 0.39096(12) 0.39884(17)
O2 O 0.40471(7) 0.51745(13) 0.70308(18)
O3 O 0.42355(8) 0.74576(14) 0.6181(2)
O4 O 0.61797(9) 0.21271(14) 0.2988(2)
O5 O 0.32634(8) 0.40788(16) 0.5855(2)
C1 C 0.61093(13) 0.52195(19) 0.1830(3)
C2 C 0.57337(11) 0.43326(17) 0.2824(2)
C3 C 0.51577(10) 0.50040(16) 0.3569(2)
C4 C 0.53637(11) 0.62976(17) 0.3506(2)
C5 C 0.60796(12) 0.62939(18) 0.2848(3)
C6 C 0.56884(11) 0.6122(2) 0.6263(2)
C7 C 0.55130(11) 0.50204(19) 0.6314(2)
C8 C 0.49569(10) 0.46626(17) 0.5227(2)
C9 C 0.43471(11) 0.54438(18) 0.5578(2)
C10 C 0.45801(11) 0.67002(18) 0.5667(3)
C11 C 0.53020(11) 0.68372(17) 0.5129(3)
C12 C 0.47702(12) 0.33940(18) 0.5358(3)
C13 C 0.57011(17) 0.5397(2) 0.0354(3)
C14 C 0.68234(14) 0.4859(2) 0.1426(4)
C15 C 0.63713(11) 0.27977(19) 0.3944(3)
C16 C 0.68207(13) 0.2518(2) 0.5268(3)
C17 C 0.35081(11) 0.44544(19) 0.7012(3)
C18 C 0.32739(11) 0.41990(18) 0.8588(3)
C19 C 0.26987(12) 0.3526(2) 0.8762(3)
C20 C 0.24581(13) 0.3278(2) 1.0214(4)
C21 C 0.27826(13) 0.3699(2) 1.1485(3)
C22 C 0.33501(13) 0.4368(2) 1.1325(3)
C23 C 0.35995(11) 0.4620(2) 0.9884(3)
H1 H 0.5586 0.3675 0.2219
H2 H 0.4757 0.4896 0.2923
H3 H 0.5070 0.6701 0.2809
H4 H 0.6407 0.6251 0.3682
H5 H 0.6152 0.6999 0.2246
H6 H 0.6018 0.6439 0.6876
H7 H 0.5717 0.4491 0.6983
H8 H 0.4019 0.5369 0.4759
H9 H 0.5436 0.7647 0.5125
H10 H 0.4620 0.3220 0.6385
H11 H 0.5148 0.2920 0.5094
H12 H 0.4408 0.3214 0.4696
H13 H 0.5894 0.6007 -0.0243
H14 H 0.5706 0.4699 -0.0225
H15 H 0.5246 0.5607 0.0576
H16 H 0.7029 0.5428 0.0763
H17 H 0.7104 0.4781 0.2320
H18 H 0.6823 0.4141 0.0890
H19 H 0.7139 0.1931 0.4935
H20 H 0.7055 0.3190 0.5598
H21 H 0.6564 0.2227 0.6103
H22 H 0.2489 0.3253 0.7891
H23 H 0.2071 0.2833 1.0323
H24 H 0.2620 0.3530 1.2473
H25 H 0.3558 0.4646 1.2205
H26 H 0.4004 0.5067 0.9784
loop_
_geom_bond_atom_site_label_1
_geom_bond_atom_site_label_2
_geom_bond_site_symmetry_1
_geom_bond_site_symmetry_2
O1 C2 1_555 1_555
O2 C9 1_555 1_555
O3 C10 1_555 1_555
O4 C15 1_555 1_555
O5 C17 1_555 1_555
C1 C2 1_555 1_555
C2 C3 1_555 1_555
C3 C4 1_555 1_555
C4 C5 1_555 1_555
C5 C1 1_555 1_555
C6 C7 1_555 1_555
C7 C8 1_555 1_555
C8 C3 1_555 1_555
C9 C8 1_555 1_555
C10 C9 1_555 1_555
C11 C4 1_555 1_555
C12 C8 1_555 1_555
C13 C1 1_555 1_555
C14 C1 1_555 1_555
C15 O1 1_555 1_555
C16 C15 1_555 1_555
C17 O2 1_555 1_555
C18 C17 1_555 1_555
C19 C18 1_555 1_555
C20 C19 1_555 1_555
C21 C20 1_555 1_555
C22 C21 1_555 1_555
C23 C18 1_555 1_555
H1 C2 1_555 1_555
H2 C3 1_555 1_555
H3 C4 1_555 1_555
H4 C5 1_555 1_555
H5 C5 1_555 1_555
H6 C6 1_555 1_555
H7 C7 1_555 1_555
H8 C9 1_555 1_555
H9 C11 1_555 1_555
H10 C12 1_555 1_555
H11 C12 1_555 1_555
H12 C12 1_555 1_555
H13 C13 1_555 1_555
H14 C13 1_555 1_555
H15 C13 1_555 1_555
H16 C14 1_555 1_555
H17 C14 1_555 1_555
H18 C14 1_555 1_555
H19 C16 1_555 1_555
H20 C16 1_555 1_555
H21 C16 1_555 1_555
H22 C19 1_555 1_555
H23 C20 1_555 1_555
H24 C21 1_555 1_555
H25 C22 1_555 1_555
H26 C23 1_555 1_555
C6 C11 1_555 1_555
C10 C11 1_555 1_555
C22 C23 1_555 1_555

#END
