
#######################################################################
#
#                 Cambridge Crystallographic Data Centre
#                                CCDC 
#
#######################################################################
#
# If this CIF has been generated from an entry in the Cambridge 
# Structural Database, then it will include bibliographic, chemical, 
# crystal, experimental, refinement or atomic coordinate data resulting 
# from the CCDC's data processing and validation procedures.
#
#######################################################################

data_TEFKIB
_chemical_formula_moiety         'C22 H20 Br1 N1 O6 S1'
_chemical_name_systematic        
'methyl 3-[9-bromo-5,5-dioxo-3-(2-oxo-2-phenylethyl)-1,2,3,10b-tetrahydro-5H-5\l^6^-pyrrolo[1,2-c][1,2,3]benzoxathiazin-1-yl]prop-2-enoate'
_symmetry_cell_setting           hexagonal
_symmetry_space_group_name_H-M   'P 65'
_symmetry_Int_Tables_number      170
_space_group_name_Hall           'P 65'
loop_
_symmetry_equiv_pos_site_id
_symmetry_equiv_pos_as_xyz
1 x,y,z
2 -y,x-y,2/3+z
3 -x+y,-x,1/3+z
4 -x,-y,1/2+z
5 y,-x+y,1/6+z
6 x-y,x,5/6+z
_cell_length_a                   11.4848(5)
_cell_length_b                   11.4848(5)
_cell_length_c                   28.4095(15)
_cell_angle_alpha                90
_cell_angle_beta                 90
_cell_angle_gamma                120
_cell_volume                     3245.2
_exptl_crystal_colour            colorless
_exptl_crystal_description       Block
_cell_formula_units_Z            6
loop_
_atom_site_label
_atom_site_type_symbol
_atom_site_fract_x
_atom_site_fract_y
_atom_site_fract_z
N1 N 0.4733(3) 0.1480(3) -0.05516(9)
C1 C 0.4378(3) 0.0103(3) -0.06987(12)
H1 H 0.4554 0.0103 -0.1040
C2 C 0.5440(3) -0.0046(4) -0.04224(12)
H2 H 0.6311 0.0417 -0.0583
H3 H 0.5171 -0.0997 -0.0385
C3 C 0.5517(3) 0.0605(3) 0.00581(11)
H4 H 0.4760 -0.0044 0.0256
C4 C 0.5298(3) 0.1804(3) -0.00621(10)
H5 H 0.6179 0.2645 -0.0068
C5 C 0.4373(3) 0.1967(3) 0.02756(11)
C6 C 0.4757(3) 0.2292(3) 0.07460(11)
H6 H 0.5558 0.2347 0.0852
C7 C 0.3984(4) 0.2529(3) 0.10530(12)
C8 C 0.2777(4) 0.2405(4) 0.09186(15)
H7 H 0.2243 0.2541 0.1138
C9 C 0.2360(4) 0.2078(4) 0.04582(15)
H8 H 0.1533 0.1977 0.0360
C10 C 0.3174(3) 0.1902(3) 0.01435(11)
O1 O 0.2715(2) 0.1640(2) -0.03270(8)
S1 S 0.38817(9) 0.21588(9) -0.07103(3)
Br1 Br 0.46229(6) 0.31179(4) 0.16718(2)
O2 O 0.3207(3) 0.1589(3) -0.11399(9)
O3 O 0.4690(3) 0.3573(2) -0.06591(9)
C11 C 0.2935(3) -0.0982(3) -0.05948(12)
H9 H 0.2871 -0.1293 -0.0270
H10 H 0.2340 -0.0603 -0.0627
C12 C 0.2483(4) -0.2156(3) -0.09261(11)
O4 O 0.3289(3) -0.2239(2) -0.11785(9)
C13 C 0.1032(3) -0.3179(3) -0.09464(11)
C14 C 0.0552(4) -0.4004(3) -0.13412(12)
H11 H 0.1144 -0.3893 -0.1588
C15 C -0.0771(4) -0.4973(4) -0.13738(15)
H12 H -0.1086 -0.5521 -0.1643
C16 C -0.1648(4) -0.5147(4) -0.10102(17)
H13 H -0.2558 -0.5816 -0.1032
C17 C -0.1194(4) -0.4350(4) -0.06207(16)
H14 H -0.1791 -0.4476 -0.0374
C18 C 0.0140(4) -0.3356(4) -0.05863(13)
H15 H 0.0444 -0.2800 -0.0319
C19 C 0.6803(3) 0.1001(3) 0.03071(12)
H16 H 0.7594 0.1726 0.0185
C20 C 0.6905(3) 0.0403(4) 0.06881(13)
H17 H 0.6112 -0.0264 0.0831
C21 C 0.8207(4) 0.0733(3) 0.08998(13)
O5 O 0.9293(3) 0.1532(3) 0.07481(11)
O6 O 0.8025(3) -0.0015(3) 0.12802(11)
C22 C 0.9224(5) 0.0169(6) 0.1512(2)
H18 H 0.9777 0.0025 0.1287
H19 H 0.8976 -0.0471 0.1768
H20 H 0.9726 0.1076 0.1635
loop_
_geom_bond_atom_site_label_1
_geom_bond_atom_site_label_2
_geom_bond_site_symmetry_1
_geom_bond_site_symmetry_2
N1 C1 1_555 1_555
C1 H1 1_555 1_555
C2 C1 1_555 1_555
H2 C2 1_555 1_555
H3 C2 1_555 1_555
C3 C2 1_555 1_555
H4 C3 1_555 1_555
C4 N1 1_555 1_555
H5 C4 1_555 1_555
C5 C4 1_555 1_555
C6 C5 1_555 1_555
H6 C6 1_555 1_555
C7 C6 1_555 1_555
C8 C7 1_555 1_555
H7 C8 1_555 1_555
C9 C8 1_555 1_555
H8 C9 1_555 1_555
C10 C5 1_555 1_555
O1 C10 1_555 1_555
S1 N1 1_555 1_555
Br1 C7 1_555 1_555
O2 S1 1_555 1_555
O3 S1 1_555 1_555
C11 C1 1_555 1_555
H9 C11 1_555 1_555
H10 C11 1_555 1_555
C12 C11 1_555 1_555
O4 C12 1_555 1_555
C13 C12 1_555 1_555
C14 C13 1_555 1_555
H11 C14 1_555 1_555
C15 C14 1_555 1_555
H12 C15 1_555 1_555
C16 C15 1_555 1_555
H13 C16 1_555 1_555
C17 C16 1_555 1_555
H14 C17 1_555 1_555
C18 C13 1_555 1_555
H15 C18 1_555 1_555
C19 C3 1_555 1_555
H16 C19 1_555 1_555
C20 C19 1_555 1_555
H17 C20 1_555 1_555
C21 C20 1_555 1_555
O5 C21 1_555 1_555
O6 C21 1_555 1_555
C22 O6 1_555 1_555
H18 C22 1_555 1_555
H19 C22 1_555 1_555
H20 C22 1_555 1_555
C3 C4 1_555 1_555
C9 C10 1_555 1_555
O1 S1 1_555 1_555
C17 C18 1_555 1_555

#END
