
#######################################################################
#
#                 Cambridge Crystallographic Data Centre
#                                CCDC 
#
#######################################################################
#
# If this CIF has been generated from an entry in the Cambridge 
# Structural Database, then it will include bibliographic, chemical, 
# crystal, experimental, refinement or atomic coordinate data resulting 
# from the CCDC's data processing and validation procedures.
#
#######################################################################

data_TEFNAV
_chemical_formula_moiety         'C16 H12 Br1 F3 O1'
_chemical_name_systematic        
3-(4-Bromophenyl)-4,4,4-trifluoro-1-phenylbut-2-en-1-ol
_symmetry_cell_setting           monoclinic
_symmetry_space_group_name_H-M   'C 2'
_symmetry_Int_Tables_number      5
_space_group_name_Hall           'C 2y'
loop_
_symmetry_equiv_pos_site_id
_symmetry_equiv_pos_as_xyz
1 x,y,z
2 -x,y,-z
3 1/2+x,1/2+y,z
4 1/2-x,1/2+y,-z
_cell_length_a                   30.357(7)
_cell_length_b                   7.2533(17)
_cell_length_c                   14.342(4)
_cell_angle_alpha                90
_cell_angle_beta                 100.773(4)
_cell_angle_gamma                90
_cell_volume                     3102.29
_exptl_crystal_colour            colorless
_exptl_crystal_description       rodlike
_cell_formula_units_Z            8
loop_
_atom_site_label
_atom_site_type_symbol
_atom_site_fract_x
_atom_site_fract_y
_atom_site_fract_z
Br1 Br 0.82817(3) 0.70632(11) 0.87933(5)
O1 O 0.95048(11) 1.3596(6) 0.5742(2)
H1 H 0.9765 1.3453 0.6017
F1 F 0.78656(14) 1.2407(10) 0.4645(4)
F2 F 0.79591(12) 1.5286(7) 0.4888(3)
F3 F 0.76340(13) 1.3695(8) 0.5778(4)
C1 C 0.84553(19) 1.2102(10) 0.7603(4)
H2 H 0.8513 1.3299 0.7825
C2 C 0.8435(2) 1.0743(9) 0.8235(5)
H3 H 0.849 1.0996 0.8882
C3 C 0.83317(19) 0.9008(9) 0.7921(4)
C4 C 0.8274(2) 0.8597(9) 0.6986(5)
H4 H 0.821 0.7397 0.6776
C5 C 0.8311(2) 0.9969(10) 0.6358(5)
H5 H 0.8278 0.9681 0.5716
C6 C 0.83951(16) 1.1786(9) 0.6643(4)
C7 C 0.84093(18) 1.3266(9) 0.5955(4)
C8 C 0.87630(18) 1.4265(8) 0.5863(4)
H6 H 0.8717 1.518 0.5401
C9 C 0.92289(17) 1.4085(8) 0.6420(4)
H7 H 0.9238 1.3087 0.6884
C10 C 0.93772(17) 1.5840(8) 0.6929(4)
C11 C 0.9453(2) 1.7397(10) 0.6443(5)
H8 H 0.9418 1.7346 0.5785
C12 C 0.9579(3) 1.9029(11) 0.6897(8)
H9 H 0.9628 2.0066 0.6549
C13 C 0.9632(3) 1.9124(13) 0.7840(8)
H10 H 0.9725 2.0222 0.815
C14 C 0.9552(3) 1.7628(15) 0.8351(6)
H11 H 0.9579 1.7717 0.9006
C15 C 0.9430(2) 1.5990(11) 0.7905(4)
H12 H 0.9382 1.4965 0.8263
C16 C 0.7968(2) 1.3679(13) 0.5330(6)
Br2 Br 0.76617(3) 0.75878(15) 0.11352(8)
O2 O 0.95768(11) 1.3585(6) 0.3852(2)
H13 H 0.9513 1.361 0.4382
F4 F 0.9050(6) 1.396(3) -0.0133(13)
F5 F 0.9552(6) 1.185(3) 0.0308(13)
F6 F 0.9697(9) 1.465(5) 0.0637(12)
C17 C 0.8386(2) 1.2420(12) 0.1364(4)
H14 H 0.8323 1.367 0.1399
C18 C 0.8045(3) 1.1155(15) 0.1271(6)
H15 H 0.7751 1.1553 0.1235
C19 C 0.8132(3) 0.9337(13) 0.1230(5)
C20 C 0.8563(3) 0.8748(11) 0.1278(4)
H16 H 0.8626 0.7497 0.1246
C21 C 0.8902(2) 1.0017(11) 0.1373(4)
H17 H 0.9196 0.9614 0.1416
C22 C 0.88179(19) 1.1857(10) 0.1406(3)
C23 C 0.91830(19) 1.3268(9) 0.1478(4)
C24 C 0.93492(18) 1.4214(10) 0.2234(4)
H18 H 0.9585 1.5006 0.219
C25 C 0.91968(17) 1.4147(9) 0.3163(3)
H19 H 0.8958 1.3226 0.3132
C26 C 0.9023(2) 1.6016(10) 0.3415(4)
C27 C 0.8576(2) 1.6272(13) 0.3387(4)
H20 H 0.837 1.5329 0.321
C28 C 0.8437(4) 1.809(2) 0.3647(7)
H21 H 0.8135 1.8333 0.3636
C29 C 0.8745(6) 1.9402(16) 0.3904(7)
H22 H 0.8655 2.0541 0.4098
C30 C 0.9177(4) 1.9124(15) 0.3888(7)
H23 H 0.9381 2.0088 0.403
C31 C 0.9321(3) 1.7450(11) 0.3668(5)
H24 H 0.9625 1.7256 0.3687
C32 C 0.9364(3) 1.3500(17) 0.0586(5)
F7? F 0.967(3) 1.263(8) 0.062(4)
F8? F 0.9535(18) 1.521(6) 0.060(2)
F9? F 0.9114(19) 1.332(9) -0.016(3)
loop_
_geom_bond_atom_site_label_1
_geom_bond_atom_site_label_2
_geom_bond_site_symmetry_1
_geom_bond_site_symmetry_2
Br1 C3 1_555 1_555
O1 H1 1_555 1_555
F1 C16 1_555 1_555
F2 C16 1_555 1_555
F3 C16 1_555 1_555
C1 H2 1_555 1_555
C2 C1 1_555 1_555
H3 C2 1_555 1_555
C3 C2 1_555 1_555
C4 C3 1_555 1_555
H4 C4 1_555 1_555
C5 C4 1_555 1_555
H5 C5 1_555 1_555
C6 C1 1_555 1_555
C7 C6 1_555 1_555
C8 C7 1_555 1_555
H6 C8 1_555 1_555
C9 O1 1_555 1_555
H7 C9 1_555 1_555
C10 C9 1_555 1_555
C11 C10 1_555 1_555
H8 C11 1_555 1_555
C12 C11 1_555 1_555
H9 C12 1_555 1_555
C13 C12 1_555 1_555
H10 C13 1_555 1_555
C14 C13 1_555 1_555
H11 C14 1_555 1_555
C15 C10 1_555 1_555
H12 C15 1_555 1_555
C16 C7 1_555 1_555
Br2 C19 1_555 1_555
O2 H13 1_555 1_555
F4 C32 1_555 1_555
F5 C32 1_555 1_555
F6 C32 1_555 1_555
C17 H14 1_555 1_555
C18 C17 1_555 1_555
H15 C18 1_555 1_555
C19 C18 1_555 1_555
C20 C19 1_555 1_555
H16 C20 1_555 1_555
C21 C20 1_555 1_555
H17 C21 1_555 1_555
C22 C17 1_555 1_555
C23 C22 1_555 1_555
C24 C23 1_555 1_555
H18 C24 1_555 1_555
C25 O2 1_555 1_555
H19 C25 1_555 1_555
C26 C25 1_555 1_555
C27 C26 1_555 1_555
H20 C27 1_555 1_555
C28 C27 1_555 1_555
H21 C28 1_555 1_555
C29 C28 1_555 1_555
H22 C29 1_555 1_555
C30 C29 1_555 1_555
H23 C30 1_555 1_555
C31 C26 1_555 1_555
H24 C31 1_555 1_555
C32 C23 1_555 1_555
C5 C6 1_555 1_555
C8 C9 1_555 1_555
C14 C15 1_555 1_555
C21 C22 1_555 1_555
C24 C25 1_555 1_555
C30 C31 1_555 1_555

#END
