
#######################################################################
#
#                 Cambridge Crystallographic Data Centre
#                                CCDC 
#
#######################################################################
#
# If this CIF has been generated from an entry in the Cambridge 
# Structural Database, then it will include bibliographic, chemical, 
# crystal, experimental, refinement or atomic coordinate data resulting 
# from the CCDC's data processing and validation procedures.
#
#######################################################################

data_TEFRIG
_chemical_formula_moiety         'C22 H24 O2,C12 H10 N2'
_chemical_name_systematic        
"4,4'-(1,3-Adamantanediyl)diphenol 1,2-bis(4-pyridyl)ethylene"
_symmetry_cell_setting           orthorhombic
_symmetry_space_group_name_H-M   'P b c n'
_symmetry_Int_Tables_number      60
_space_group_name_Hall           '-P 2n 2ab'
loop_
_symmetry_equiv_pos_site_id
_symmetry_equiv_pos_as_xyz
1 x,y,z
2 1/2-x,1/2-y,1/2+z
3 -x,y,1/2-z
4 1/2+x,1/2-y,-z
5 -x,-y,-z
6 1/2+x,1/2+y,1/2-z
7 x,-y,1/2+z
8 1/2-x,1/2+y,z
_cell_length_a                   6.3316(13)
_cell_length_b                   12.517(3)
_cell_length_c                   33.042(7)
_cell_angle_alpha                90
_cell_angle_beta                 90
_cell_angle_gamma                90
_cell_volume                     2618.67
_exptl_crystal_colour            colorless
_exptl_crystal_description       Block
_cell_formula_units_Z            4
loop_
_atom_site_label
_atom_site_type_symbol
_atom_site_fract_x
_atom_site_fract_y
_atom_site_fract_z
O1 O 0.2631(2) -0.11807(9) 0.09164(3)
C1 C 0.2056(3) -0.04202(11) 0.11940(4)
C2 C 0.0086(3) -0.03866(11) 0.13734(4)
H1 H -0.0934 -0.0886 0.1301
C3 C -0.0378(2) 0.03819(10) 0.16589(4)
H2 H -0.1712 0.0383 0.1777
C4 C 0.1074(2) 0.11571(10) 0.17771(4)
C5 C 0.3015(2) 0.11268(11) 0.15823(4)
H3 H 0.4020 0.1641 0.1646
C6 C 0.3512(3) 0.03568(11) 0.12952(4)
H4 H 0.4829 0.0364 0.1171
C7 C 0.0551(2) 0.19196(10) 0.21231(4)
C8 C -0.1346(2) 0.26491(10) 0.20287(4)
H5 H -0.1011 0.3102 0.1799
H6 H -0.2559 0.2215 0.1957
C9 C -0.1888(2) 0.33468(10) 0.23960(4)
H7 H -0.3106 0.3798 0.2331
C10 C 0.0000 0.40570(15) 0.2500
H8 H -0.0343 0.4511 0.2729
H9 H 0.0343 0.4511 0.2271
C11 C 0.0000 0.12466(13) 0.2500
H10 H -0.1191 0.0789 0.2436
H11 H 0.1191 0.0789 0.2564
C12 C 0.2425(2) 0.26444(11) 0.22379(4)
H12 H 0.3644 0.2206 0.2301
H13 H 0.2785 0.3096 0.2009
H14 H 0.139(3) -0.1588(13) 0.0845(5)
O1B O -0.2631(2) -0.11807(9) 0.40836(3)
C1B C -0.2056(3) -0.04202(11) 0.38060(4)
C2B C -0.0086(3) -0.03866(11) 0.36266(4)
H1B H 0.0934 -0.0886 0.3699
C3B C 0.0378(2) 0.03819(10) 0.33411(4)
H2B H 0.1712 0.0383 0.3223
C4B C -0.1074(2) 0.11571(10) 0.32229(4)
C5B C -0.3015(2) 0.11268(11) 0.34177(4)
H3B H -0.4020 0.1641 0.3354
C6B C -0.3512(3) 0.03568(11) 0.37048(4)
H4B H -0.4829 0.0364 0.3829
C7B C -0.0551(2) 0.19196(10) 0.28769(4)
C8B C 0.1346(2) 0.26491(10) 0.29713(4)
H5B H 0.1011 0.3102 0.3201
H6B H 0.2559 0.2215 0.3043
C9B C 0.1888(2) 0.33468(10) 0.26040(4)
H7B H 0.3106 0.3798 0.2669
C12B C -0.2425(2) 0.26444(11) 0.27621(4)
H12B H -0.3644 0.2206 0.2699
H13B H -0.2785 0.3096 0.2991
H14B H -0.139(3) -0.1588(13) 0.4155(5)
N1 N -0.0655(2) -0.24917(10) 0.06603(4)
C13 C -0.5080(3) -0.47334(11) 0.01681(5)
H15 H -0.6292 -0.4842 0.0322
C14 C -0.3506(3) -0.39693(11) 0.03278(5)
C15 C -0.1533(3) -0.37972(12) 0.01587(5)
H16 H -0.1127 -0.4170 -0.0072
C16 C -0.0170(3) -0.30676(11) 0.03342(5)
H17 H 0.1156 -0.2974 0.0218
C17 C -0.2563(3) -0.26509(14) 0.08141(5)
H18 H -0.2950 -0.2247 0.1038
C18 C -0.4004(3) -0.33665(12) 0.06667(5)
H19 H -0.5307 -0.3448 0.0793
N1D N -0.9345(2) -0.75083(10) -0.06603(4)
C13D C -0.4920(3) -0.52666(11) -0.01681(5)
H15D H -0.3708 -0.5158 -0.0322
C14D C -0.6494(3) -0.60307(11) -0.03278(5)
C15D C -0.8467(3) -0.62028(12) -0.01587(5)
H16D H -0.8873 -0.5830 0.0072
C16D C -0.9830(3) -0.69324(11) -0.03342(5)
H17D H -1.1156 -0.7026 -0.0218
C17D C -0.7437(3) -0.73491(14) -0.08141(5)
H18D H -0.7050 -0.7753 -0.1038
C18D C -0.5996(3) -0.66335(12) -0.06667(5)
H19D H -0.4693 -0.6552 -0.0793
loop_
_geom_bond_atom_site_label_1
_geom_bond_atom_site_label_2
_geom_bond_site_symmetry_1
_geom_bond_site_symmetry_2
O1 C1 1_555 1_555
C1 C2 1_555 1_555
C2 H1 1_555 1_555
C3 C2 1_555 1_555
H2 C3 1_555 1_555
C4 C3 1_555 1_555
C5 C4 1_555 1_555
H3 C5 1_555 1_555
C6 C1 1_555 1_555
H4 C6 1_555 1_555
C7 C4 1_555 1_555
C8 C7 1_555 1_555
H5 C8 1_555 1_555
H6 C8 1_555 1_555
C9 C8 1_555 1_555
H7 C9 1_555 1_555
C10 C9 1_555 1_555
H8 C10 1_555 1_555
H9 C10 1_555 1_555
C11 C7 1_555 1_555
H10 C11 1_555 1_555
H11 C11 1_555 1_555
C12 C7 1_555 1_555
H12 C12 1_555 1_555
H13 C12 1_555 1_555
H14 O1 1_555 1_555
N1 C16 1_555 1_555
C13 H15 1_555 1_555
C14 C13 1_555 1_555
C15 C14 1_555 1_555
H16 C15 1_555 1_555
C16 C15 1_555 1_555
H17 C16 1_555 1_555
C17 N1 1_555 1_555
H18 C17 1_555 1_555
C18 C14 1_555 1_555
H19 C18 1_555 1_555
O1B C1B 1_555 1_555
C1B C2B 1_555 1_555
C2B H1B 1_555 1_555
C3B C2B 1_555 1_555
H2B C3B 1_555 1_555
C4B C3B 1_555 1_555
C5B C4B 1_555 1_555
H3B C5B 1_555 1_555
C6B C1B 1_555 1_555
H4B C6B 1_555 1_555
C7B C11 1_555 1_555
C8B C7B 1_555 1_555
H5B C8B 1_555 1_555
H6B C8B 1_555 1_555
C9B C10 1_555 1_555
H7B C9B 1_555 1_555
C12B C9 1_555 1_555
H12B C12B 1_555 1_555
H13B C12B 1_555 1_555
H14B O1B 1_555 1_555
N1D C16D 1_555 1_555
C13D C13 1_555 1_555
H15D C13D 1_555 1_555
C14D C13D 1_555 1_555
C15D C14D 1_555 1_555
H16D C15D 1_555 1_555
C16D C15D 1_555 1_555
H17D C16D 1_555 1_555
C17D N1D 1_555 1_555
H18D C17D 1_555 1_555
C18D C14D 1_555 1_555
H19D C18D 1_555 1_555
C5 C6 1_555 1_555
C12 C9B 1_555 1_555
C17 C18 1_555 1_555
C4B C7B 1_555 1_555
C5B C6B 1_555 1_555
C7B C12B 1_555 1_555
C8B C9B 1_555 1_555
C17D C18D 1_555 1_555

#END
