
#######################################################################
#
#                 Cambridge Crystallographic Data Centre
#                                CCDC 
#
#######################################################################
#
# If this CIF has been generated from an entry in the Cambridge 
# Structural Database, then it will include bibliographic, chemical, 
# crystal, experimental, refinement or atomic coordinate data resulting 
# from the CCDC's data processing and validation procedures.
#
#######################################################################

data_TEFROM
_chemical_formula_moiety         'C22 H24 O2,C10 H8 N2 S1'
_chemical_name_systematic        
"4,4'-(1,3-Adamantanediyl)diphenol 4,4'-dipyridyl sulfide"
_symmetry_cell_setting           orthorhombic
_symmetry_space_group_name_H-M   'P n n a'
_symmetry_Int_Tables_number      52
_space_group_name_Hall           '-P 2a 2bc'
loop_
_symmetry_equiv_pos_site_id
_symmetry_equiv_pos_as_xyz
1 x,y,z
2 1/2-x,-y,z
3 1/2-x,1/2+y,1/2-z
4 x,1/2-y,1/2-z
5 -x,-y,-z
6 1/2+x,y,-z
7 1/2+x,1/2-y,1/2+z
8 -x,1/2+y,1/2+z
_cell_length_a                   12.632(3)
_cell_length_b                   32.034(6)
_cell_length_c                   6.2215(12)
_cell_angle_alpha                90
_cell_angle_beta                 90
_cell_angle_gamma                90
_cell_volume                     2517.55
_exptl_crystal_colour            colorless
_cell_formula_units_Z            4
loop_
_atom_site_label
_atom_site_type_symbol
_atom_site_fract_x
_atom_site_fract_y
_atom_site_fract_z
S1 S 0.2500 0.5000 1.23820(18)
N1 N 0.48898(16) 0.43445(6) 0.8175(3)
C13 C 0.46178(19) 0.42132(7) 1.0111(5)
H15 H 0.4957 0.3977 1.0645
C14 C 0.38763(18) 0.43986(7) 1.1381(4)
H16 H 0.3702 0.4286 1.2712
C15 C 0.33913(16) 0.47548(7) 1.0660(4)
C16 C 0.36898(16) 0.49052(8) 0.8700(4)
H17 H 0.3403 0.5152 0.8173
C17 C 0.44203(17) 0.46862(7) 0.7517(4)
H18 H 0.4593 0.4787 0.6160
N1A N 0.01102(16) 0.56555(6) 0.8175(3)
C13A C 0.03822(19) 0.57868(7) 1.0111(5)
H15A H 0.0043 0.6023 1.0645
C14A C 0.11237(18) 0.56014(7) 1.1381(4)
H16A H 0.1298 0.5714 1.2712
C15A C 0.16087(16) 0.52452(7) 1.0660(4)
C16A C 0.13102(16) 0.50948(8) 0.8700(4)
H17A H 0.1597 0.4848 0.8173
C17A C 0.05797(17) 0.53138(7) 0.7517(4)
H18A H 0.0407 0.5213 0.6160
O1 O 0.62019(12) 0.41034(4) 0.4848(3)
H1 H 0.5580 0.4178 0.5826
C1 C 0.92890(15) 0.28856(6) 0.6953(3)
C2 C 1.00036(16) 0.27723(5) 0.5065(4)
H2 H 1.0450 0.3009 0.4711
H3 H 0.9571 0.2709 0.3818
C3 C 0.8623(2) 0.2500 0.7500
H4 H 0.8170 0.2565 0.8714
H5 H 0.8170 0.2435 0.6286
C4 C 1.00026(17) 0.29780(5) 0.8855(3)
H6 H 0.9572 0.3049 1.0093
H7 H 1.0447 0.3217 0.8523
C5 C 1.06995(15) 0.23955(6) 0.5602(3)
H8 H 1.1140 0.2327 0.4354
C6 C 1.1410(2) 0.2500 0.7500
H9 H 1.1859 0.2736 0.7155
H10 H 1.1859 0.2264 0.7845
C7 C 0.85326(16) 0.32382(6) 0.6433(3)
C8 C 0.77616(16) 0.33526(6) 0.7895(4)
H11 H 0.7763 0.3230 0.9249
C9 C 0.69886(16) 0.36430(6) 0.7416(4)
H12 H 0.6486 0.3715 0.8444
C10 C 0.69638(18) 0.38247(7) 0.5419(4)
C11 C 0.77389(18) 0.37306(7) 0.3983(4)
H13 H 0.7753 0.3863 0.2652
C12 C 0.85091(18) 0.34384(6) 0.4495(4)
H14 H 0.9028 0.3377 0.3483
O1C O 0.62019(12) 0.08966(4) 1.0152(3)
H1C H 0.5580 0.0822 0.9174
C1C C 0.92890(15) 0.21144(6) 0.8047(3)
C2C C 1.00036(16) 0.22277(5) 0.9935(4)
H2C H 1.0450 0.1991 1.0289
H3C H 0.9571 0.2291 1.1182
C4C C 1.00026(17) 0.20220(5) 0.6145(3)
H6C H 0.9572 0.1951 0.4907
H7C H 1.0447 0.1783 0.6477
C5C C 1.06995(15) 0.26045(6) 0.9398(3)
H8C H 1.1140 0.2673 1.0646
C7C C 0.85326(16) 0.17618(6) 0.8567(3)
C8C C 0.77616(16) 0.16474(6) 0.7105(4)
H11C H 0.7763 0.1770 0.5751
C9C C 0.69886(16) 0.13570(6) 0.7584(4)
H12C H 0.6486 0.1285 0.6556
C10C C 0.69638(18) 0.11753(7) 0.9581(4)
C11C C 0.77389(18) 0.12694(7) 1.1017(4)
H13C H 0.7753 0.1137 1.2348
C12C C 0.85091(18) 0.15616(6) 1.0505(4)
H14C H 0.9028 0.1623 1.1517
loop_
_geom_bond_atom_site_label_1
_geom_bond_atom_site_label_2
_geom_bond_site_symmetry_1
_geom_bond_site_symmetry_2
S1 C15 1_555 1_555
O1 H1 1_555 1_555
N1 C13 1_555 1_555
C1 C2 1_555 1_555
C2 H2 1_555 1_555
H3 C2 1_555 1_555
C3 C1 1_555 1_555
H4 C3 1_555 1_555
H5 C3 1_555 1_555
C4 C1 1_555 1_555
H6 C4 1_555 1_555
H7 C4 1_555 1_555
C5 C2 1_555 1_555
H8 C5 1_555 1_555
C6 C5 1_555 1_555
H9 C6 1_555 1_555
H10 C6 1_555 1_555
C7 C1 1_555 1_555
C8 C7 1_555 1_555
H11 C8 1_555 1_555
C9 C8 1_555 1_555
H12 C9 1_555 1_555
C10 O1 1_555 1_555
C11 C10 1_555 1_555
H13 C11 1_555 1_555
C12 C7 1_555 1_555
H14 C12 1_555 1_555
C13 H15 1_555 1_555
C14 C13 1_555 1_555
H16 C14 1_555 1_555
C15 C14 1_555 1_555
C16 C15 1_555 1_555
H17 C16 1_555 1_555
C17 N1 1_555 1_555
H18 C17 1_555 1_555
O1C H1C 1_555 1_555
N1A C13A 1_555 1_555
C1C C3 1_555 1_555
C2C C1C 1_555 1_555
H2C C2C 1_555 1_555
H3C C2C 1_555 1_555
C4C C5 1_555 1_555
H6C C4C 1_555 1_555
H7C C4C 1_555 1_555
C5C C4 1_555 1_555
H8C C5C 1_555 1_555
C7C C1C 1_555 1_555
C8C C7C 1_555 1_555
H11C C8C 1_555 1_555
C9C C8C 1_555 1_555
H12C C9C 1_555 1_555
C10C O1C 1_555 1_555
C11C C10C 1_555 1_555
H13C C11C 1_555 1_555
C12C C7C 1_555 1_555
H14C C12C 1_555 1_555
C13A H15A 1_555 1_555
C14A C13A 1_555 1_555
H16A C14A 1_555 1_555
C15A S1 1_555 1_555
C16A C15A 1_555 1_555
H17A C16A 1_555 1_555
C17A N1A 1_555 1_555
H18A C17A 1_555 1_555
C6 C5C 1_555 1_555
C9 C10 1_555 1_555
C11 C12 1_555 1_555
C16 C17 1_555 1_555
C1C C4C 1_555 1_555
C2C C5C 1_555 1_555
C9C C10C 1_555 1_555
C11C C12C 1_555 1_555
C14A C15A 1_555 1_555
C16A C17A 1_555 1_555

#END
