
#######################################################################
#
#                 Cambridge Crystallographic Data Centre
#                                CCDC 
#
#######################################################################
#
# If this CIF has been generated from an entry in the Cambridge 
# Structural Database, then it will include bibliographic, chemical, 
# crystal, experimental, refinement or atomic coordinate data resulting 
# from the CCDC's data processing and validation procedures.
#
#######################################################################

data_TEFRUS
_chemical_formula_moiety         'C22 H24 O2,C10 H8 N2 O2'
_chemical_name_systematic        
"4,4'-(1,3-Adamantanediyl)diphenol 4,4'-dipyridyl N,N'-dioxide"
_symmetry_cell_setting           monoclinic
_symmetry_space_group_name_H-M   'P 21/c'
_symmetry_Int_Tables_number      14
_space_group_name_Hall           '-P 2ybc'
loop_
_symmetry_equiv_pos_site_id
_symmetry_equiv_pos_as_xyz
1 x,y,z
2 -x,1/2+y,1/2-z
3 -x,-y,-z
4 x,1/2-y,1/2+z
_cell_length_a                   18.823(4)
_cell_length_b                   10.157(2)
_cell_length_c                   13.869(3)
_cell_angle_alpha                90
_cell_angle_beta                 100.44(3)
_cell_angle_gamma                90
_cell_volume                     2607.65
_exptl_crystal_colour            colorless
_exptl_crystal_description       Block
_cell_formula_units_Z            4
loop_
_atom_site_label
_atom_site_type_symbol
_atom_site_fract_x
_atom_site_fract_y
_atom_site_fract_z
O1 O 0.15763(6) 0.27095(14) -0.13115(8)
O2 O 0.77346(6) 0.34172(13) 0.20639(10)
C1 C 0.40121(8) 0.45599(15) 0.38336(11)
H1 H 0.3941 0.5373 0.4185
C2 C 0.39658(8) 0.33747(16) 0.45039(11)
H2 H 0.4333 0.3446 0.5090
H3 H 0.3496 0.3356 0.4699
C3 C 0.47580(8) 0.45849(15) 0.35400(10)
H4 H 0.5127 0.4670 0.4123
H5 H 0.4792 0.5344 0.3126
C4 C 0.34271(8) 0.44523(15) 0.29139(10)
H6 H 0.3452 0.5211 0.2497
H7 H 0.2955 0.4446 0.3100
C5 C 0.40788(8) 0.21158(16) 0.39542(10)
H8 H 0.4046 0.1355 0.4379
C6 C 0.48252(8) 0.21372(15) 0.36619(10)
H9 H 0.4899 0.1326 0.3324
H10 H 0.5195 0.2194 0.4246
C7 C 0.48937(7) 0.33232(14) 0.29866(10)
C8 C 0.42912(7) 0.32149(15) 0.20757(10)
H11 H 0.4363 0.2419 0.1719
H12 H 0.4324 0.3959 0.1647
C9 C 0.35285(7) 0.31842(15) 0.23453(10)
C10 C 0.35025(8) 0.19984(15) 0.30277(10)
H13 H 0.3029 0.1949 0.3208
H14 H 0.3580 0.1194 0.2684
C11 C 0.56444(8) 0.33492(14) 0.27216(11)
C12 C 0.57743(8) 0.32885(15) 0.17642(11)
H15 H 0.5384 0.3232 0.1248
C13 C 0.64677(8) 0.33100(16) 0.15570(12)
H16 H 0.6534 0.3274 0.0909
C14 C 0.70584(8) 0.33843(16) 0.23021(13)
C15 C 0.69476(8) 0.34462(16) 0.32585(12)
H17 H 0.7341 0.3499 0.3771
C16 C 0.62556(8) 0.34293(16) 0.34553(11)
H18 H 0.6194 0.3473 0.4105
C17 C 0.29675(7) 0.30786(15) 0.14044(10)
C18 C 0.25445(8) 0.19569(15) 0.11748(11)
H19 H 0.2578 0.1279 0.1632
C19 C 0.20737(7) 0.18197(16) 0.02837(11)
H20 H 0.1799 0.1058 0.0149
C20 C 0.20159(7) 0.28187(17) -0.03993(11)
C21 C 0.24092(8) 0.39602(16) -0.01894(11)
H21 H 0.2360 0.4647 -0.0640
C22 C 0.28805(7) 0.40770(16) 0.07014(11)
H22 H 0.3147 0.4847 0.0834
H31 H 0.1377(12) 0.186(2) -0.1328(17)
H32 H 0.8073(10) 0.3357(19) 0.2648(13)
O3 O -0.12279(6) -0.82921(11) -0.13324(9)
O4 O 0.07675(6) 0.04992(12) -0.12240(10)
N1 N -0.09530(7) -0.70921(14) -0.13201(10)
N2 N 0.05082(7) -0.06945(14) -0.12541(10)
C23 C -0.13853(9) -0.60279(18) -0.13880(13)
H23 H -0.1880 -0.6141 -0.1432
C24 C -0.11091(9) -0.47859(17) -0.13938(12)
H24 H -0.1420 -0.4068 -0.1441
C25 C -0.03694(8) -0.45721(16) -0.13301(11)
C26 C 0.00515(8) -0.56976(16) -0.12542(11)
H25 H 0.0549 -0.5610 -0.1201
C27 C -0.02361(8) -0.69359(17) -0.12541(11)
H26 H 0.0064 -0.7669 -0.1208
C28 C -0.02066(9) -0.08844(17) -0.13097(12)
H27 H -0.0511 -0.0161 -0.1322
C29 C -0.04881(8) -0.21233(17) -0.13482(12)
H28 H -0.0984 -0.2224 -0.1398
C30 C -0.00626(8) -0.32316(15) -0.13163(10)
C31 C 0.06713(8) -0.30031(17) -0.12610(11)
H29 H 0.0983 -0.3716 -0.1246
C32 C 0.09452(9) -0.17516(18) -0.12278(12)
H30 H 0.1439 -0.1629 -0.1186
loop_
_geom_bond_atom_site_label_1
_geom_bond_atom_site_label_2
_geom_bond_site_symmetry_1
_geom_bond_site_symmetry_2
O1 C20 1_555 1_555
O2 C14 1_555 1_555
O3 N1 1_555 1_555
O4 N2 1_555 1_555
N1 C23 1_555 1_555
N2 C28 1_555 1_555
C1 H1 1_555 1_555
C2 C1 1_555 1_555
H2 C2 1_555 1_555
H3 C2 1_555 1_555
C3 C1 1_555 1_555
H4 C3 1_555 1_555
H5 C3 1_555 1_555
C4 C1 1_555 1_555
H6 C4 1_555 1_555
H7 C4 1_555 1_555
C5 C2 1_555 1_555
H8 C5 1_555 1_555
C6 C5 1_555 1_555
H9 C6 1_555 1_555
H10 C6 1_555 1_555
C7 C3 1_555 1_555
C8 C7 1_555 1_555
H11 C8 1_555 1_555
H12 C8 1_555 1_555
C9 C4 1_555 1_555
C10 C5 1_555 1_555
H13 C10 1_555 1_555
H14 C10 1_555 1_555
C11 C7 1_555 1_555
C12 C11 1_555 1_555
H15 C12 1_555 1_555
C13 C12 1_555 1_555
H16 C13 1_555 1_555
C14 C13 1_555 1_555
C15 C14 1_555 1_555
H17 C15 1_555 1_555
C16 C11 1_555 1_555
H18 C16 1_555 1_555
C17 C9 1_555 1_555
C18 C17 1_555 1_555
H19 C18 1_555 1_555
C19 C18 1_555 1_555
H20 C19 1_555 1_555
C20 C19 1_555 1_555
C21 C20 1_555 1_555
H21 C21 1_555 1_555
C22 C17 1_555 1_555
H22 C22 1_555 1_555
C23 H23 1_555 1_555
C24 C23 1_555 1_555
H24 C24 1_555 1_555
C25 C24 1_555 1_555
C26 C25 1_555 1_555
H25 C26 1_555 1_555
C27 N1 1_555 1_555
H26 C27 1_555 1_555
C28 H27 1_555 1_555
C29 C28 1_555 1_555
H28 C29 1_555 1_555
C30 C25 1_555 1_555
C31 C30 1_555 1_555
H29 C31 1_555 1_555
C32 N2 1_555 1_555
H30 C32 1_555 1_555
H31 O1 1_555 1_555
H32 O2 1_555 1_555
C6 C7 1_555 1_555
C8 C9 1_555 1_555
C9 C10 1_555 1_555
C15 C16 1_555 1_555
C21 C22 1_555 1_555
C26 C27 1_555 1_555
C29 C30 1_555 1_555
C31 C32 1_555 1_555

#END
