
#######################################################################
#
#                 Cambridge Crystallographic Data Centre
#                                CCDC 
#
#######################################################################
#
# If this CIF has been generated from an entry in the Cambridge 
# Structural Database, then it will include bibliographic, chemical, 
# crystal, experimental, refinement or atomic coordinate data resulting 
# from the CCDC's data processing and validation procedures.
#
#######################################################################

data_TEFREC
_chemical_formula_moiety         'C40 H48 O4'
_chemical_name_systematic        'Bisprioterone A'
_chemical_properties_biological  
'used in Chinese folk medicine to treat tonsilitis, pharyngitis and bacillary dysentery'
_symmetry_cell_setting           triclinic
_symmetry_space_group_name_H-M   'P -1'
_symmetry_Int_Tables_number      2
_space_group_name_Hall           '-P 1'
loop_
_symmetry_equiv_pos_site_id
_symmetry_equiv_pos_as_xyz
1 x,y,z
2 -x,-y,-z
_cell_length_a                   8.0397(17)
_cell_length_b                   14.194(3)
_cell_length_c                   16.628(4)
_cell_angle_alpha                68.714(5)
_cell_angle_beta                 85.535(6)
_cell_angle_gamma                74.031(4)
_cell_volume                     1699.32
_exptl_crystal_colour            colorless
_exptl_crystal_description       needles
_chemical_melting_point          153-155deg.C
_cell_formula_units_Z            2
loop_
_atom_site_label
_atom_site_type_symbol
_atom_site_fract_x
_atom_site_fract_y
_atom_site_fract_z
O1 O 0.7309(4) 0.7684(3) 0.1679(2)
O2 O 0.9802(4) 0.8549(3) 0.1826(2)
H1 H 0.9463 0.8468 0.1410
O3 O 0.9744(4) 0.4803(3) 0.1434(2)
H2 H 1.0056 0.4860 0.0942
O4 O 0.8192(5) 0.5779(3) -0.0070(2)
C1 C 0.7550(7) 0.7749(4) 0.2478(3)
C2 C 0.8853(7) 0.8175(4) 0.2527(4)
C3 C 0.9246(8) 0.8283(4) 0.3301(4)
C4 C 0.8319(8) 0.7838(4) 0.4016(4)
H3 H 0.8569 0.7866 0.4542
C5 C 0.7029(7) 0.7350(4) 0.3993(4)
C6 C 0.6102(8) 0.6882(4) 0.4706(3)
H4 H 0.6380 0.6853 0.5248
C7 C 0.4800(7) 0.6463(4) 0.4631(4)
H5 H 0.4216 0.6163 0.5122
C8 C 0.4330(7) 0.6479(4) 0.3826(3)
C9 C 0.5250(7) 0.6893(4) 0.3111(3)
C10 C 0.6611(7) 0.7324(4) 0.3185(3)
C11 C 0.4796(8) 0.6961(4) 0.2222(3)
C12 C 0.5534(7) 0.7780(4) 0.1508(3)
C13 C 0.5247(7) 0.5873(4) 0.2063(3)
C14 C 0.7169(7) 0.5306(4) 0.2133(3)
C15 C 0.7980(7) 0.5281(4) 0.1421(3)
C16 C 0.7177(7) 0.5763(4) 0.0539(3)
C17 C 0.5297(7) 0.6132(4) 0.0450(3)
C18 C 0.4344(7) 0.6085(4) 0.1219(3)
C19 C 0.2593(7) 0.6340(4) 0.1177(4)
H6 H 0.1987 0.6291 0.1683
C20 C 0.1672(8) 0.6667(4) 0.0415(4)
H7 H 0.0470 0.6817 0.0414
C21 C 0.2562(8) 0.6772(4) -0.0357(4)
C22 C 0.4345(8) 0.6484(4) -0.0344(3)
C23 C 0.5314(7) 0.6581(4) -0.1195(3)
H8 H 0.6356 0.6006 -0.1089
H9 H 0.4587 0.6529 -0.1607
C24 C 0.5790(8) 0.7597(4) -0.1568(3)
H10 H 0.4756 0.8167 -0.1624
H11 H 0.6584 0.7621 -0.1170
C25 C 0.6604(9) 0.7765(5) -0.2424(4)
H12 H 0.7466 0.7195 -0.2467
C26 C 0.6277(8) 0.8607(5) -0.3132(4)
C27 C 0.5014(9) 0.9614(5) -0.3166(4)
H13 H 0.4399 0.9508 -0.2636
H14 H 0.4209 0.9846 -0.3640
H15 H 0.5623 1.0134 -0.3245
C28 C 0.7234(9) 0.8645(5) -0.3962(4)
H16 H 0.8169 0.8021 -0.3855
H17 H 0.7686 0.9248 -0.4167
H18 H 0.6451 0.8690 -0.4390
C29 C 1.0551(9) 0.8833(5) 0.3331(4)
C30 C 0.9875(8) 1.0025(5) 0.2805(4)
H19 H 0.9302 1.0121 0.2285
H20 H 1.0831 1.0334 0.2662
H21 H 0.9074 1.0354 0.3145
C31 C 1.1117(8) 0.8680(5) 0.4238(4)
H22 H 1.0203 0.9073 0.4489
H23 H 1.2133 0.8921 0.4203
H24 H 1.1368 0.7949 0.4590
C32 C 0.2823(7) 0.6040(4) 0.3803(3)
H25 H 0.2110 0.6483 0.3299
H26 H 0.2151 0.6012 0.4311
H27 H 0.3255 0.5346 0.3786
C33 C 0.4447(8) 0.8893(4) 0.1360(4)
C34 C 0.3337(7) 0.9495(4) 0.0710(4)
C35 C 0.2951(7) 0.9175(4) 0.0009(4)
H28 H 0.3874 0.8593 -0.0021
H29 H 0.2840 0.9752 -0.0530
H30 H 0.1888 0.8971 0.0123
C36 C 0.2305(7) 1.0587(4) 0.0652(4)
H31 H 0.1121 1.0693 0.0502
H32 H 0.2781 1.1097 0.0218
H33 H 0.2360 1.0662 0.1200
C37 C 0.7961(8) 0.4731(5) 0.3032(4)
C38 C 0.8103(8) 0.3552(4) 0.3285(3)
H34 H 0.6969 0.3453 0.3286
H35 H 0.8629 0.3177 0.3851
H36 H 0.8801 0.3293 0.2876
C39 C 0.9705(8) 0.4915(5) 0.3182(4)
H37 H 1.0569 0.4652 0.2828
H38 H 1.0058 0.4554 0.3778
H39 H 0.9570 0.5652 0.3032
C40 C 0.1500(7) 0.7206(4) -0.1184(4)
H40 H 0.0292 0.7334 -0.1053
H41 H 0.1792 0.6708 -0.1473
H42 H 0.1740 0.7851 -0.1551
H43 H 0.346(6) 0.723(4) 0.216(3)
H44 H 0.562(5) 0.769(3) 0.100(2)
H45 H 0.458(4) 0.539(2) 0.248(2)
H46 H 1.164(5) 0.877(5) 0.303(4)
H47 H 0.499(6) 0.915(4) 0.172(3)
H48 H 0.735(5) 0.494(3) 0.339(3)
loop_
_geom_bond_atom_site_label_1
_geom_bond_atom_site_label_2
_geom_bond_site_symmetry_1
_geom_bond_site_symmetry_2
O1 C1 1_555 1_555
O2 H1 1_555 1_555
O3 H2 1_555 1_555
O4 C16 1_555 1_555
C1 C2 1_555 1_555
C2 O2 1_555 1_555
C3 C2 1_555 1_555
C4 C3 1_555 1_555
H3 C4 1_555 1_555
C5 C4 1_555 1_555
C6 C5 1_555 1_555
H4 C6 1_555 1_555
C7 C6 1_555 1_555
H5 C7 1_555 1_555
C8 C7 1_555 1_555
C9 C8 1_555 1_555
C10 C1 1_555 1_555
C11 C9 1_555 1_555
C12 O1 1_555 1_555
C13 C11 1_555 1_555
C14 C13 1_555 1_555
C15 O3 1_555 1_555
C16 C15 1_555 1_555
C17 C16 1_555 1_555
C18 C13 1_555 1_555
C19 C18 1_555 1_555
H6 C19 1_555 1_555
C20 C19 1_555 1_555
H7 C20 1_555 1_555
C21 C20 1_555 1_555
C22 C17 1_555 1_555
C23 C22 1_555 1_555
H8 C23 1_555 1_555
H9 C23 1_555 1_555
C24 C23 1_555 1_555
H10 C24 1_555 1_555
H11 C24 1_555 1_555
C25 C24 1_555 1_555
H12 C25 1_555 1_555
C26 C25 1_555 1_555
C27 C26 1_555 1_555
H13 C27 1_555 1_555
H14 C27 1_555 1_555
H15 C27 1_555 1_555
C28 C26 1_555 1_555
H16 C28 1_555 1_555
H17 C28 1_555 1_555
H18 C28 1_555 1_555
C29 C3 1_555 1_555
C30 C29 1_555 1_555
H19 C30 1_555 1_555
H20 C30 1_555 1_555
H21 C30 1_555 1_555
C31 C29 1_555 1_555
H22 C31 1_555 1_555
H23 C31 1_555 1_555
H24 C31 1_555 1_555
C32 C8 1_555 1_555
H25 C32 1_555 1_555
H26 C32 1_555 1_555
H27 C32 1_555 1_555
C33 C12 1_555 1_555
C34 C33 1_555 1_555
C35 C34 1_555 1_555
H28 C35 1_555 1_555
H29 C35 1_555 1_555
H30 C35 1_555 1_555
C36 C34 1_555 1_555
H31 C36 1_555 1_555
H32 C36 1_555 1_555
H33 C36 1_555 1_555
C37 C14 1_555 1_555
C38 C37 1_555 1_555
H34 C38 1_555 1_555
H35 C38 1_555 1_555
H36 C38 1_555 1_555
C39 C37 1_555 1_555
H37 C39 1_555 1_555
H38 C39 1_555 1_555
H39 C39 1_555 1_555
C40 C21 1_555 1_555
H40 C40 1_555 1_555
H41 C40 1_555 1_555
H42 C40 1_555 1_555
H43 C11 1_555 1_555
H44 C12 1_555 1_555
H45 C13 1_555 1_555
H46 C29 1_555 1_555
H47 C33 1_555 1_555
H48 C37 1_555 1_555
C5 C10 1_555 1_555
C9 C10 1_555 1_555
C11 C12 1_555 1_555
C14 C15 1_555 1_555
C17 C18 1_555 1_555
C21 C22 1_555 1_555

#END
