
#######################################################################
#
#                 Cambridge Crystallographic Data Centre
#                                CCDC 
#
#######################################################################
#
# If this CIF has been generated from an entry in the Cambridge 
# Structural Database, then it will include bibliographic, chemical, 
# crystal, experimental, refinement or atomic coordinate data resulting 
# from the CCDC's data processing and validation procedures.
#
#######################################################################

data_TEFSON
_chemical_formula_moiety         'C14 H20 O4,C12 H10 N2'
_chemical_name_systematic        
'1,3-Adamantanediacetic acid 1,2-bis(4-pyridyl)ethylene'
_symmetry_cell_setting           triclinic
_symmetry_space_group_name_H-M   'P -1'
_symmetry_Int_Tables_number      2
_space_group_name_Hall           '-P 1'
loop_
_symmetry_equiv_pos_site_id
_symmetry_equiv_pos_as_xyz
1 x,y,z
2 -x,-y,-z
_cell_length_a                   8.5551(17)
_cell_length_b                   11.840(2)
_cell_length_c                   12.496(3)
_cell_angle_alpha                106.27(3)
_cell_angle_beta                 104.97(3)
_cell_angle_gamma                98.65(3)
_cell_volume                     1139.45
_exptl_crystal_colour            colorless
_exptl_crystal_description       needle
_cell_formula_units_Z            2
loop_
_atom_site_label
_atom_site_type_symbol
_atom_site_fract_x
_atom_site_fract_y
_atom_site_fract_z
O1 O 0.0861(4) -0.19928(19) 0.2871(2)
H1 H 0.1246 -0.2521 0.2523
O2 O 0.1885(5) -0.1012(2) 0.1878(3)
O3 O 0.3208(6) 0.5551(3) 0.7862(3)
O4 O 0.2067(4) 0.6132(2) 0.6416(2)
H2 H 0.2662 0.6788 0.6876
C1 C 0.1168(4) -0.1045(2) 0.2577(3)
C2 C 0.0511(3) -0.0011(2) 0.3185(2)
H3 H -0.0132 -0.0296 0.3634
H4 H -0.0244 0.0201 0.2588
C3 C 0.1846(3) 0.1145(2) 0.4016(2)
C4 C 0.3174(4) 0.0870(2) 0.4935(2)
H5 H 0.2644 0.0480 0.5381
H6 H 0.3746 0.0322 0.4544
C5 C 0.4433(4) 0.2049(3) 0.5768(3)
H7 H 0.5283 0.1867 0.6346
C6 C 0.3540(4) 0.2909(3) 0.6405(2)
H8 H 0.3007 0.2528 0.6855
H9 H 0.4344 0.3646 0.6947
C7 C 0.2230(3) 0.3218(2) 0.5513(2)
C8 C 0.0982(3) 0.2030(2) 0.4667(2)
H10 H 0.0138 0.2211 0.4098
H11 H 0.0430 0.1648 0.5108
C9 C 0.5265(4) 0.2657(3) 0.5060(3)
H12 H 0.5842 0.2120 0.4660
H13 H 0.6079 0.3397 0.5585
C10 C 0.3069(4) 0.3807(2) 0.4795(3)
H14 H 0.2237 0.4000 0.4227
H15 H 0.3870 0.4556 0.5312
C11 C 0.3949(4) 0.2951(3) 0.4159(3)
H16 H 0.4490 0.3339 0.3707
C12 C 0.2686(4) 0.1775(2) 0.3326(2)
H17 H 0.1849 0.1955 0.2751
H18 H 0.3249 0.1240 0.2909
C13 C 0.1252(4) 0.4038(2) 0.6115(3)
H19 H 0.0335 0.4110 0.5512
H20 H 0.0776 0.3644 0.6582
C14 C 0.2255(4) 0.5297(2) 0.6900(3)
N1 N 0.3252(4) 0.8493(2) 0.7930(3)
N2 N 0.1767(4) 1.6074(2) 1.1710(3)
C15 C 0.2665(5) 0.8567(3) 0.8802(3)
H21 H 0.2283 0.7853 0.8928
C16 C 0.2572(5) 0.9668(3) 0.9568(3)
H22 H 0.2155 0.9677 1.0187
C17 C 0.3121(4) 1.0743(2) 0.9375(2)
C18 C 0.3793(4) 1.0633(3) 0.8469(3)
H23 H 0.4237 1.1321 0.8325
C19 C 0.3805(4) 0.9505(3) 0.7780(3)
H24 H 0.4238 0.9462 0.7163
C20 C 0.2898(5) 1.1887(3) 1.0086(3)
H25 H 0.2712 1.1894 1.0788
C21 C 0.2930(5) 1.2877(3) 0.9859(3)
H26 H 0.3220 1.2898 0.9195
C22 C 0.2561(4) 1.3986(3) 1.0523(2)
C23 C 0.2772(5) 1.5002(3) 1.0193(3)
H27 H 0.3174 1.5000 0.9569
C24 C 0.2363(5) 1.6047(3) 1.0823(4)
H28 H 0.2517 1.6737 1.0610
C25 C 0.1612(5) 1.5104(3) 1.2017(3)
H29 H 0.1230 1.5128 1.2653
C26 C 0.1976(5) 1.4064(3) 1.1459(3)
H30 H 0.1827 1.3401 1.1714
loop_
_geom_bond_atom_site_label_1
_geom_bond_atom_site_label_2
_geom_bond_site_symmetry_1
_geom_bond_site_symmetry_2
O1 H1 1_555 1_555
O2 C1 1_555 1_555
O3 C14 1_555 1_555
O4 H2 1_555 1_555
N1 C15 1_555 1_555
N2 C24 1_555 1_555
C1 O1 1_555 1_555
C2 C1 1_555 1_555
H3 C2 1_555 1_555
H4 C2 1_555 1_555
C3 C2 1_555 1_555
C4 C3 1_555 1_555
H5 C4 1_555 1_555
H6 C4 1_555 1_555
C5 C4 1_555 1_555
H7 C5 1_555 1_555
C6 C5 1_555 1_555
H8 C6 1_555 1_555
H9 C6 1_555 1_555
C7 C6 1_555 1_555
C8 C3 1_555 1_555
H10 C8 1_555 1_555
H11 C8 1_555 1_555
C9 C5 1_555 1_555
H12 C9 1_555 1_555
H13 C9 1_555 1_555
C10 C7 1_555 1_555
H14 C10 1_555 1_555
H15 C10 1_555 1_555
C11 C9 1_555 1_555
H16 C11 1_555 1_555
C12 C3 1_555 1_555
H17 C12 1_555 1_555
H18 C12 1_555 1_555
C13 C7 1_555 1_555
H19 C13 1_555 1_555
H20 C13 1_555 1_555
C14 O4 1_555 1_555
C15 H21 1_555 1_555
C16 C15 1_555 1_555
H22 C16 1_555 1_555
C17 C16 1_555 1_555
C18 C17 1_555 1_555
H23 C18 1_555 1_555
C19 N1 1_555 1_555
H24 C19 1_555 1_555
C20 C17 1_555 1_555
H25 C20 1_555 1_555
C21 C20 1_555 1_555
H26 C21 1_555 1_555
C22 C21 1_555 1_555
C23 C22 1_555 1_555
H27 C23 1_555 1_555
C24 C23 1_555 1_555
H28 C24 1_555 1_555
C25 N2 1_555 1_555
H29 C25 1_555 1_555
C26 C22 1_555 1_555
H30 C26 1_555 1_555
C7 C8 1_555 1_555
C10 C11 1_555 1_555
C11 C12 1_555 1_555
C13 C14 1_555 1_555
C18 C19 1_555 1_555
C25 C26 1_555 1_555

#END
