
#######################################################################
#
#                 Cambridge Crystallographic Data Centre
#                                CCDC 
#
#######################################################################
#
# If this CIF has been generated from an entry in the Cambridge 
# Structural Database, then it will include bibliographic, chemical, 
# crystal, experimental, refinement or atomic coordinate data resulting 
# from the CCDC's data processing and validation procedures.
#
#######################################################################

data_TEFVEG
_chemical_formula_moiety         'C16 H11 N3 O5'
_chemical_name_systematic        
2-Amino-7-methyl-4-(3-nitrophenyl)-5-oxo-4,5-dihydropyrano(4,3-b)pyran-3-carbonitrile
_symmetry_cell_setting           monoclinic
_symmetry_space_group_name_H-M   'P 21/c'
_symmetry_Int_Tables_number      14
_space_group_name_Hall           '-P 2ybc'
loop_
_symmetry_equiv_pos_site_id
_symmetry_equiv_pos_as_xyz
1 x,y,z
2 -x,1/2+y,1/2-z
3 -x,-y,-z
4 x,1/2-y,1/2+z
_cell_length_a                   5.709(1)
_cell_length_b                   14.616(2)
_cell_length_c                   18.228(3)
_cell_angle_alpha                90
_cell_angle_beta                 94.219(3)
_cell_angle_gamma                90
_cell_volume                     1516.87
_exptl_crystal_colour            'pale yellow'
_exptl_crystal_description       block
_chemical_melting_point          511-513K
_cell_formula_units_Z            4
_exptl_crystal_recrystallization_method '95% ethanol'
loop_
_atom_site_label
_atom_site_type_symbol
_atom_site_fract_x
_atom_site_fract_y
_atom_site_fract_z
O1 O 0.15429(19) 0.21279(8) 0.69102(6)
O2 O 0.7053(2) 0.38876(8) 0.72374(7)
O3 O 0.8391(2) 0.35742(9) 0.61602(7)
O4 O 0.8617(3) 0.28953(14) 0.33458(9)
O5 O 0.6797(4) 0.40221(13) 0.27971(10)
N1 N -0.0598(3) 0.10316(11) 0.63621(10)
N2 N 0.1703(4) 0.06507(15) 0.46035(12)
N3 N 0.7111(4) 0.34841(15) 0.33128(10)
C1 C 0.1219(3) 0.15982(11) 0.62965(9)
C2 C 0.2590(3) 0.16727(11) 0.57226(9)
C3 C 0.4623(3) 0.23397(11) 0.57021(9)
H1 H 0.6057 0.1984 0.5650
C4 C 0.4887(3) 0.28294(11) 0.64301(9)
C5 C 0.3392(3) 0.27297(11) 0.69649(9)
C6 C 0.3623(3) 0.32232(12) 0.76375(10)
H2 H 0.2528 0.3154 0.7987
C7 C 0.5439(3) 0.37849(12) 0.77565(10)
C8 C 0.6857(3) 0.34280(12) 0.65693(10)
C9 C 0.4324(3) 0.29962(11) 0.50547(9)
C10 C 0.2541(3) 0.36357(13) 0.50079(10)
H3 H 0.1513 0.3667 0.5380
C11 C 0.2256(4) 0.42288(14) 0.44202(12)
H4 H 0.1058 0.4661 0.4403
C12 C 0.3737(4) 0.41831(14) 0.38581(11)
H5 H 0.3544 0.4573 0.3455
C13 C 0.5502(4) 0.35475(13) 0.39099(10)
C14 C 0.5834(3) 0.29550(12) 0.44967(10)
H6 H 0.7057 0.2533 0.4517
C15 C 0.2089(4) 0.11047(14) 0.51084(11)
C16 C 0.6048(4) 0.43548(16) 0.84077(12)
H7 H 0.4923 0.4256 0.8766
H8 H 0.6032 0.4988 0.8267
H9 H 0.7587 0.4193 0.8615
H10 H -0.118(3) 0.1012(12) 0.6784(7)
H11 H -0.095(3) 0.0606(10) 0.6040(8)
loop_
_geom_bond_atom_site_label_1
_geom_bond_atom_site_label_2
_geom_bond_site_symmetry_1
_geom_bond_site_symmetry_2
O1 C1 1_555 1_555
O2 C7 1_555 1_555
O3 C8 1_555 1_555
O4 N3 1_555 1_555
O5 N3 1_555 1_555
N1 C1 1_555 1_555
N2 C15 1_555 1_555
N3 C13 1_555 1_555
C1 C2 1_555 1_555
C2 C3 1_555 1_555
C3 H1 1_555 1_555
C4 C3 1_555 1_555
C5 O1 1_555 1_555
C6 C5 1_555 1_555
H2 C6 1_555 1_555
C7 C6 1_555 1_555
C8 O2 1_555 1_555
C9 C3 1_555 1_555
C10 C9 1_555 1_555
H3 C10 1_555 1_555
C11 C10 1_555 1_555
H4 C11 1_555 1_555
C12 C11 1_555 1_555
H5 C12 1_555 1_555
C13 C12 1_555 1_555
C14 C9 1_555 1_555
H6 C14 1_555 1_555
C15 C2 1_555 1_555
C16 C7 1_555 1_555
H7 C16 1_555 1_555
H8 C16 1_555 1_555
H9 C16 1_555 1_555
H10 N1 1_555 1_555
H11 N1 1_555 1_555
C4 C5 1_555 1_555
C4 C8 1_555 1_555
C13 C14 1_555 1_555

#END
