
#######################################################################
#
#                 Cambridge Crystallographic Data Centre
#                                CCDC 
#
#######################################################################
#
# If this CIF has been generated from an entry in the Cambridge 
# Structural Database, then it will include bibliographic, chemical, 
# crystal, experimental, refinement or atomic coordinate data resulting 
# from the CCDC's data processing and validation procedures.
#
#######################################################################

data_TEFYUZ
_chemical_formula_moiety         'C21 H23 N1 O1'
_chemical_name_systematic        
1-Benzyl-3-hydroxy-3-methyl-2-phenylcyclohexanecarbonitrile
_symmetry_cell_setting           orthorhombic
_symmetry_space_group_name_H-M   'P 21 21 21'
_symmetry_Int_Tables_number      19
_space_group_name_Hall           'P 2ac 2ab'
loop_
_symmetry_equiv_pos_site_id
_symmetry_equiv_pos_as_xyz
1 x,y,z
2 1/2-x,-y,1/2+z
3 1/2+x,1/2-y,-z
4 -x,1/2+y,1/2-z
_cell_length_a                   15.422(5)
_cell_length_b                   16.648(6)
_cell_length_c                   6.804(3)
_cell_angle_alpha                90
_cell_angle_beta                 90
_cell_angle_gamma                90
_cell_volume                     1746.9
_exptl_crystal_colour            colorless
_exptl_crystal_description       prismatic
_chemical_melting_point          '431-432 K'
_cell_formula_units_Z            4
_exptl_crystal_recrystallization_method 'ethyl acetate/hexanes'
loop_
_atom_site_label
_atom_site_type_symbol
_atom_site_fract_x
_atom_site_fract_y
_atom_site_fract_z
O1 O 0.5591(1) 0.29139(9) 0.7154(3)
N1 N 0.5035(2) -0.0354(1) 0.7957(4)
C1 C 0.4876(2) 0.1208(1) 0.7572(4)
C2 C 0.5641(2) 0.1615(1) 0.8735(4)
C3 C 0.5519(2) 0.2532(1) 0.9037(4)
C4 C 0.4629(2) 0.2708(2) 0.9920(5)
C5 C 0.3900(2) 0.2338(2) 0.8757(5)
C6 C 0.4015(2) 0.1436(2) 0.8577(4)
C7 C 0.4980(2) 0.0323(1) 0.7799(4)
C8 C 0.4873(2) 0.1380(2) 0.5320(4)
C9 C 0.4134(2) 0.0998(1) 0.4205(4)
C10 C 0.4217(2) 0.0246(2) 0.3340(4)
C11 C 0.3523(2) -0.0093(2) 0.2311(4)
C12 C 0.2749(2) 0.0310(2) 0.2170(5)
C13 C 0.2660(2) 0.1045(2) 0.3018(5)
C14 C 0.3341(2) 0.1390(2) 0.3995(5)
C15 C 0.6545(2) 0.1376(1) 0.8059(5)
C16 C 0.6913(2) 0.1626(2) 0.6306(5)
C17 C 0.7750(2) 0.1386(2) 0.5780(7)
C18 C 0.8227(2) 0.0907(2) 0.7041(9)
C19 C 0.7877(2) 0.0662(2) 0.8766(8)
C20 C 0.7039(2) 0.0890(2) 0.9284(6)
C21 C 0.6223(2) 0.2852(2) 1.0401(5)
H1 H 0.5587 0.1385 1.0030
H2 H 0.4606 0.2479 1.1218
H3 H 0.4549 0.3267 1.0007
H4 H 0.3357 0.2467 0.9360
H5 H 0.3899 0.2577 0.7459
H6 H 0.4006 0.1205 0.9875
H7 H 0.3542 0.1210 0.7852
H8 H 0.4847 0.1950 0.5141
H9 H 0.5407 0.1191 0.4779
H10 H 0.4753 -0.0044 0.3534
H11 H 0.3599 -0.0614 0.1652
H12 H 0.2287 0.0074 0.1399
H13 H 0.2099 0.1330 0.3029
H14 H 0.3287 0.1924 0.4527
H15 H 0.6581 0.1968 0.5420
H16 H 0.8020 0.1557 0.4611
H17 H 0.8792 0.0732 0.6601
H18 H 0.8237 0.0355 0.9625
H19 H 0.6790 0.0692 1.0511
H20 H 0.6782 0.2750 0.9904
H21 H 0.6178 0.2599 1.1690
H22 H 0.6154 0.3419 1.0607
H23 H 0.5424 0.3511 0.7331
loop_
_geom_bond_atom_site_label_1
_geom_bond_atom_site_label_2
_geom_bond_site_symmetry_1
_geom_bond_site_symmetry_2
O1 C3 1_555 1_555
N1 C7 1_555 1_555
C1 C2 1_555 1_555
C2 C3 1_555 1_555
C3 C4 1_555 1_555
C4 C5 1_555 1_555
C5 C6 1_555 1_555
C6 C1 1_555 1_555
C7 C1 1_555 1_555
C8 C1 1_555 1_555
C9 C8 1_555 1_555
C10 C9 1_555 1_555
C11 C10 1_555 1_555
C12 C11 1_555 1_555
C13 C12 1_555 1_555
C14 C9 1_555 1_555
C15 C2 1_555 1_555
C16 C15 1_555 1_555
C17 C16 1_555 1_555
C18 C17 1_555 1_555
C19 C18 1_555 1_555
C20 C15 1_555 1_555
C21 C3 1_555 1_555
H1 C2 1_555 1_555
H2 C4 1_555 1_555
H3 C4 1_555 1_555
H4 C5 1_555 1_555
H5 C5 1_555 1_555
H6 C6 1_555 1_555
H7 C6 1_555 1_555
H8 C8 1_555 1_555
H9 C8 1_555 1_555
H10 C10 1_555 1_555
H11 C11 1_555 1_555
H12 C12 1_555 1_555
H13 C13 1_555 1_555
H14 C14 1_555 1_555
H15 C16 1_555 1_555
H16 C17 1_555 1_555
H17 C18 1_555 1_555
H18 C19 1_555 1_555
H19 C20 1_555 1_555
H20 C21 1_555 1_555
H21 C21 1_555 1_555
H22 C21 1_555 1_555
H23 O1 1_555 1_555
C13 C14 1_555 1_555
C19 C20 1_555 1_555

#END
