
#######################################################################
#
#                 Cambridge Crystallographic Data Centre
#                                CCDC 
#
#######################################################################
#
# If this CIF has been generated from an entry in the Cambridge 
# Structural Database, then it will include bibliographic, chemical, 
# crystal, experimental, refinement or atomic coordinate data resulting 
# from the CCDC's data processing and validation procedures.
#
#######################################################################

data_TEFYOT
_chemical_formula_moiety         'C16 H21 N1 O1'
_chemical_name_systematic        
1-Benzyl-2,3-dimethyl-3-hydroxycyclohexanecarbonitrile
_symmetry_cell_setting           orthorhombic
_symmetry_space_group_name_H-M   'P b c a'
_symmetry_Int_Tables_number      61
_space_group_name_Hall           '-P 2ac 2ab'
loop_
_symmetry_equiv_pos_site_id
_symmetry_equiv_pos_as_xyz
1 x,y,z
2 1/2+x,1/2-y,-z
3 -x,1/2+y,1/2-z
4 1/2-x,-y,1/2+z
5 -x,-y,-z
6 1/2-x,1/2+y,z
7 x,1/2-y,1/2+z
8 1/2+x,y,1/2-z
_cell_length_a                   16.852(5)
_cell_length_b                   18.090(5)
_cell_length_c                   9.068(3)
_cell_angle_alpha                90
_cell_angle_beta                 90
_cell_angle_gamma                90
_cell_volume                     2764.4
_exptl_crystal_colour            colorless
_exptl_crystal_description       plate
_chemical_melting_point          '388-389 K'
_cell_formula_units_Z            8
_exptl_crystal_recrystallization_method 'ethyl acetate/hexanes'
loop_
_atom_site_label
_atom_site_type_symbol
_atom_site_fract_x
_atom_site_fract_y
_atom_site_fract_z
O1 O 0.22114(8) -0.07531(8) 0.7347(2)
N1 N 0.5440(1) -0.0618(1) 0.8086(2)
C1 C 0.3988(1) -0.0496(1) 0.7067(2)
C2 C 0.3536(1) -0.1187(1) 0.7696(2)
C3 C 0.2735(1) -0.1340(1) 0.6918(2)
C4 C 0.2842(1) -0.1345(1) 0.5252(3)
C5 C 0.3239(1) -0.0657(1) 0.4657(2)
C6 C 0.4043(1) -0.0545(1) 0.5374(2)
C7 C 0.4810(1) -0.0552(1) 0.7655(2)
C8 C 0.3629(1) 0.0253(1) 0.7601(2)
C9 C 0.3466(1) -0.1168(1) 0.9369(3)
C10 C 0.2393(1) -0.2077(1) 0.7421(3)
C11 C 0.4066(1) 0.0936(1) 0.7095(2)
C12 C 0.3876(1) 0.1291(1) 0.5792(3)
C13 C 0.4270(1) 0.1927(1) 0.5360(3)
C14 C 0.4868(1) 0.2211(1) 0.6219(3)
C15 C 0.5071(1) 0.1860(1) 0.7504(3)
C16 C 0.4673(1) 0.1232(1) 0.7953(2)
H1 H 0.1687 -0.0880 0.6985
H2 H 0.3865 -0.1601 0.7472
H3 H 0.3164 -0.1762 0.4986
H4 H 0.2338 -0.1396 0.4796
H5 H 0.3301 -0.0715 0.3608
H6 H 0.2907 -0.0249 0.4844
H7 H 0.4386 -0.0949 0.5118
H8 H 0.4275 -0.0100 0.4999
H9 H 0.3090 0.0276 0.7264
H10 H 0.3621 0.0243 0.8660
H11 H 0.3132 -0.0761 0.9681
H12 H 0.3970 -0.1108 0.9832
H13 H 0.3228 -0.1613 0.9741
H14 H 0.2740 -0.2479 0.7155
H15 H 0.2331 -0.2088 0.8476
H16 H 0.1887 -0.2166 0.6985
H17 H 0.3462 0.1096 0.5177
H18 H 0.4125 0.2161 0.4449
H19 H 0.5155 0.2648 0.5924
H20 H 0.5499 0.2057 0.8107
H21 H 0.4811 0.1000 0.8886
loop_
_geom_bond_atom_site_label_1
_geom_bond_atom_site_label_2
_geom_bond_site_symmetry_1
_geom_bond_site_symmetry_2
O1 C3 1_555 1_555
N1 C7 1_555 1_555
C1 C2 1_555 1_555
C2 C3 1_555 1_555
C3 C4 1_555 1_555
C4 C5 1_555 1_555
C5 C6 1_555 1_555
C6 C1 1_555 1_555
C7 C1 1_555 1_555
C8 C1 1_555 1_555
C9 C2 1_555 1_555
C10 C3 1_555 1_555
C11 C8 1_555 1_555
C12 C11 1_555 1_555
C13 C12 1_555 1_555
C14 C13 1_555 1_555
C15 C14 1_555 1_555
C16 C11 1_555 1_555
H1 O1 1_555 1_555
H2 C2 1_555 1_555
H3 C4 1_555 1_555
H4 C4 1_555 1_555
H5 C5 1_555 1_555
H6 C5 1_555 1_555
H7 C6 1_555 1_555
H8 C6 1_555 1_555
H9 C8 1_555 1_555
H10 C8 1_555 1_555
H11 C9 1_555 1_555
H12 C9 1_555 1_555
H13 C9 1_555 1_555
H14 C10 1_555 1_555
H15 C10 1_555 1_555
H16 C10 1_555 1_555
H17 C12 1_555 1_555
H18 C13 1_555 1_555
H19 C14 1_555 1_555
H20 C15 1_555 1_555
H21 C16 1_555 1_555
C15 C16 1_555 1_555

#END
