
#######################################################################
#
#                 Cambridge Crystallographic Data Centre
#                                CCDC 
#
#######################################################################
#
# If this CIF has been generated from an entry in the Cambridge 
# Structural Database, then it will include bibliographic, chemical, 
# crystal, experimental, refinement or atomic coordinate data resulting 
# from the CCDC's data processing and validation procedures.
#
#######################################################################

data_TEFZEK
_chemical_formula_moiety         'C12 H21 N1 O2'
_chemical_name_systematic        
3-Hydroxy-2,3-dimethyl-1-(1-hydroxy-1-methylethyl)cyclohexanecarbonitrile
_symmetry_cell_setting           monoclinic
_symmetry_space_group_name_H-M   'C c'
_symmetry_Int_Tables_number      9
_space_group_name_Hall           'C -2yc'
loop_
_symmetry_equiv_pos_site_id
_symmetry_equiv_pos_as_xyz
1 x,y,z
2 1/2+x,1/2+y,z
3 x,-y,1/2+z
4 1/2+x,1/2-y,1/2+z
_cell_length_a                   6.917(2)
_cell_length_b                   20.548(8)
_cell_length_c                   8.673(3)
_cell_angle_alpha                90
_cell_angle_beta                 104.45(3)
_cell_angle_gamma                90
_cell_volume                     1193.7
_exptl_crystal_colour            colorless
_exptl_crystal_description       plate
_chemical_melting_point          '382-384 K'
_cell_formula_units_Z            4
_exptl_crystal_recrystallization_method 'ethyl acetate/hexane'
loop_
_atom_site_label
_atom_site_type_symbol
_atom_site_fract_x
_atom_site_fract_y
_atom_site_fract_z
O1 O 0.753(1) 0.19428(7) 0.508(1)
O2 O 1.036(1) 0.21090(7) 0.783(1)
N1 N 1.230(1) -0.0109(1) 0.764(1)
C1 C 1.094(1) 0.10506(9) 0.665(1)
C2 C 0.910(1) 0.08884(9) 0.521(1)
C3 C 0.832(1) 0.14765(9) 0.415(1)
C4 C 0.999(1) 0.1782(1) 0.354(1)
C5 C 1.182(1) 0.1954(1) 0.485(1)
C6 C 1.255(1) 0.1372(1) 0.593(1)
C7 C 1.172(1) 0.0397(1) 0.724(1)
C8 C 1.063(1) 0.1432(1) 0.817(1)
C9 C 1.254(1) 0.1393(1) 0.952(1)
C10 C 0.889(1) 0.1192(2) 0.878(1)
C11 C 0.745(1) 0.0475(1) 0.560(1)
C12 C 0.662(1) 0.1275(1) 0.272(1)
H1 H 0.9670 0.0611 0.4565
H2 H 0.9515 0.2175 0.3010
H3 H 1.0385 0.1490 0.2844
H4 H 1.1515 0.2295 0.5487
H5 H 1.2872 0.2082 0.4398
H6 H 1.3054 0.1050 0.5362
H7 H 1.3627 0.1516 0.6811
H8 H 1.2394 0.1625 1.0436
H9 H 1.2855 0.0948 0.9824
H10 H 1.3647 0.1573 0.9186
H11 H 0.8878 0.1429 0.9745
H12 H 0.9046 0.0745 0.9033
H13 H 0.7695 0.1271 0.8018
H14 H 0.8028 0.0122 0.6282
H15 H 0.6701 0.0738 0.6160
H16 H 0.6605 0.0314 0.4662
H17 H 0.5576 0.1082 0.3108
H18 H 0.6132 0.1644 0.2103
H19 H 0.7107 0.0964 0.2100
H20 H 0.6797 0.2222 0.4390
H21 H 0.9349 0.2170 0.7058
loop_
_geom_bond_atom_site_label_1
_geom_bond_atom_site_label_2
_geom_bond_site_symmetry_1
_geom_bond_site_symmetry_2
O1 C3 1_555 1_555
O2 C8 1_555 1_555
N1 C7 1_555 1_555
C1 C2 1_555 1_555
C2 C3 1_555 1_555
C3 C4 1_555 1_555
C4 C5 1_555 1_555
C5 C6 1_555 1_555
C6 C1 1_555 1_555
C7 C1 1_555 1_555
C8 C1 1_555 1_555
C9 C8 1_555 1_555
C10 C8 1_555 1_555
C11 C2 1_555 1_555
C12 C3 1_555 1_555
H1 C2 1_555 1_555
H2 C4 1_555 1_555
H3 C4 1_555 1_555
H4 C5 1_555 1_555
H5 C5 1_555 1_555
H6 C6 1_555 1_555
H7 C6 1_555 1_555
H8 C9 1_555 1_555
H9 C9 1_555 1_555
H10 C9 1_555 1_555
H11 C10 1_555 1_555
H12 C10 1_555 1_555
H13 C10 1_555 1_555
H14 C11 1_555 1_555
H15 C11 1_555 1_555
H16 C11 1_555 1_555
H17 C12 1_555 1_555
H18 C12 1_555 1_555
H19 C12 1_555 1_555
H20 O1 1_555 1_555
H21 O2 1_555 1_555

#END
