
#######################################################################
#
#                 Cambridge Crystallographic Data Centre
#                                CCDC 
#
#######################################################################
#
# If this CIF has been generated from an entry in the Cambridge 
# Structural Database, then it will include bibliographic, chemical, 
# crystal, experimental, refinement or atomic coordinate data resulting 
# from the CCDC's data processing and validation procedures.
#
#######################################################################

data_TEFZUB
_chemical_formula_moiety         'C16 H18 O2'
_chemical_name_systematic        
3-Methyl-4-(4-phenylcyclohex-3-en-1-yl)oxetan-2-one
_symmetry_cell_setting           orthorhombic
_symmetry_space_group_name_H-M   'P 21 21 21'
_symmetry_Int_Tables_number      19
_space_group_name_Hall           'P 2ac 2ab'
loop_
_symmetry_equiv_pos_site_id
_symmetry_equiv_pos_as_xyz
1 x,y,z
2 1/2-x,-y,1/2+z
3 -x,1/2+y,1/2-z
4 1/2+x,1/2-y,-z
_cell_length_a                   7.1574(14)
_cell_length_b                   8.0499(16)
_cell_length_c                   22.708(5)
_cell_angle_alpha                90
_cell_angle_beta                 90
_cell_angle_gamma                90
_cell_volume                     1308.35
_exptl_crystal_colour            colorless
_exptl_crystal_description       plate
_cell_formula_units_Z            4
loop_
_atom_site_label
_atom_site_type_symbol
_atom_site_fract_x
_atom_site_fract_y
_atom_site_fract_z
O1 O 1.06657(19) 0.69217(19) 0.77004(6)
O2 O 1.2060(2) 0.7874(2) 0.85363(7)
C1 C 0.4704(3) 1.0373(3) 0.54586(9)
H1 H 0.5871 1.0872 0.5550
C2 C 0.3666(4) 1.0988(3) 0.49955(10)
H2 H 0.4124 1.1903 0.4774
C3 C 0.1964(3) 1.0282(3) 0.48502(10)
H3 H 0.1249 1.0708 0.4532
C4 C 0.1320(3) 0.8946(3) 0.51762(9)
H4 H 0.0155 0.8452 0.5080
C5 C 0.2358(3) 0.8319(3) 0.56430(9)
H5 H 0.1898 0.7398 0.5860
C6 C 0.4076(3) 0.9031(3) 0.57965(8)
C7 C 0.5202(3) 0.8364(2) 0.62955(9)
C8 C 0.7301(3) 0.8398(3) 0.62240(9)
H6 H 0.7751 0.9553 0.6274
H7 H 0.7627 0.8035 0.5820
C9 C 0.8286(3) 0.7286(3) 0.66656(9)
H8 H 0.9643 0.7521 0.6659
H9 H 0.8103 0.6109 0.6553
C10 C 0.7533(3) 0.7563(2) 0.72871(9)
H10 H 0.7658 0.8768 0.7386
C11 C 0.5461(3) 0.7100(3) 0.73033(9)
H11 H 0.5340 0.5875 0.7312
H12 H 0.4897 0.7543 0.7669
C12 C 0.4415(3) 0.7767(2) 0.67838(9)
H13 H 0.3089 0.7763 0.6803
C13 C 0.8612(3) 0.6572(3) 0.77350(10)
H14 H 0.8354 0.5357 0.7693
C14 C 0.8664(3) 0.7092(3) 0.83921(9)
H15 H 0.8480 0.6111 0.8656
C15 C 0.7552(3) 0.8582(3) 0.86076(10)
H16 H 0.7773 0.9529 0.8345
H17 H 0.7948 0.8870 0.9008
H18 H 0.6218 0.8309 0.8608
C16 C 1.0714(3) 0.7396(2) 0.82753(9)
loop_
_geom_bond_atom_site_label_1
_geom_bond_atom_site_label_2
_geom_bond_site_symmetry_1
_geom_bond_site_symmetry_2
O1 C13 1_555 1_555
O2 C16 1_555 1_555
C1 H1 1_555 1_555
C2 C1 1_555 1_555
H2 C2 1_555 1_555
C3 C2 1_555 1_555
H3 C3 1_555 1_555
C4 C3 1_555 1_555
H4 C4 1_555 1_555
C5 C4 1_555 1_555
H5 C5 1_555 1_555
C6 C1 1_555 1_555
C7 C6 1_555 1_555
C8 C7 1_555 1_555
H6 C8 1_555 1_555
H7 C8 1_555 1_555
C9 C8 1_555 1_555
H8 C9 1_555 1_555
H9 C9 1_555 1_555
C10 C9 1_555 1_555
H10 C10 1_555 1_555
C11 C10 1_555 1_555
H11 C11 1_555 1_555
H12 C11 1_555 1_555
C12 C7 1_555 1_555
H13 C12 1_555 1_555
C13 C10 1_555 1_555
H14 C13 1_555 1_555
C14 C13 1_555 1_555
H15 C14 1_555 1_555
C15 C14 1_555 1_555
H16 C15 1_555 1_555
H17 C15 1_555 1_555
H18 C15 1_555 1_555
C16 O1 1_555 1_555
C5 C6 1_555 1_555
C11 C12 1_555 1_555
C14 C16 1_555 1_555

#END
