
#######################################################################
#
#                 Cambridge Crystallographic Data Centre
#                                CCDC 
#
#######################################################################
#
# If this CIF has been generated from an entry in the Cambridge 
# Structural Database, then it will include bibliographic, chemical, 
# crystal, experimental, refinement or atomic coordinate data resulting 
# from the CCDC's data processing and validation procedures.
#
#######################################################################

data_TEFZIO
_chemical_formula_moiety         'C13 H21 N1 O1'
_chemical_name_systematic        
(1R,2R,3S)-3-Hydroxy-2,3-dimethyl-1-(cyclopropylmethyl)cyclohexanecarbonitrile
_symmetry_cell_setting           monoclinic
_symmetry_space_group_name_H-M   'P 21/n'
_symmetry_Int_Tables_number      14
_space_group_name_Hall           '-P 2yn'
loop_
_symmetry_equiv_pos_site_id
_symmetry_equiv_pos_as_xyz
1 x,y,z
2 1/2-x,1/2+y,1/2-z
3 -x,-y,-z
4 1/2+x,1/2-y,1/2+z
_cell_length_a                   6.0211(4)
_cell_length_b                   29.3871(18)
_cell_length_c                   7.4673(4)
_cell_angle_alpha                90
_cell_angle_beta                 104.203(2)
_cell_angle_gamma                90
_cell_volume                     1280.9
_exptl_crystal_colour            colorless
_exptl_crystal_description       plate
_chemical_melting_point          '343-345 K'
_cell_formula_units_Z            4
_exptl_crystal_recrystallization_method EtOAc/hexanes
loop_
_atom_site_label
_atom_site_type_symbol
_atom_site_fract_x
_atom_site_fract_y
_atom_site_fract_z
C1 C 0.4637(2) 0.12275(5) 0.57678(16)
C2 C 0.3784(2) 0.07568(5) 0.48937(18)
H1 H 0.5169 0.0580 0.4905
C3 C 0.2456(2) 0.07898(5) 0.28419(18)
C4 C 0.3776(3) 0.10675(6) 0.1745(2)
H2 H 0.5141 0.0901 0.1670
H3 H 0.2840 0.1106 0.0497
C5 C 0.4470(3) 0.15295(7) 0.2566(2)
H4 H 0.3111 0.1707 0.2562
H5 H 0.5337 0.1688 0.1823
C6 C 0.5916(3) 0.14825(6) 0.4532(2)
H6 H 0.6337 0.1783 0.5042
H7 H 0.7315 0.1320 0.4521
C7 C 0.6363(2) 0.11288(6) 0.75149(19)
C8 C 0.2737(2) 0.15138(5) 0.6276(2)
H8 H 0.1602 0.1588 0.5149
H9 H 0.1986 0.1329 0.7030
C9 C 0.3533(3) 0.19470(6) 0.7295(2)
H10 H 0.4881 0.1917 0.8335
C10 C 0.2487(3) 0.04868(6) 0.6059(2)
H11 H 0.3288 0.0506 0.7338
H12 H 0.2383 0.0174 0.5677
H13 H 0.0974 0.0610 0.5896
C11 C 0.1994(4) 0.03157(7) 0.1987(3)
H14 H 0.1029 0.0149 0.2605
H15 H 0.3419 0.0157 0.2120
H16 H 0.1245 0.0343 0.0700
O1 O 0.03130(16) 0.10056(4) 0.28092(13)
H17 H -0.0461 0.1020 0.1741
C12 C 0.1775(5) 0.22781(9) 0.7572(4)
H18 H 0.0181 0.2211 0.7002
H19 H 0.2044 0.2433 0.8754
C13 C 0.3281(6) 0.23915(8) 0.6349(4)
H20 H 0.4469 0.2617 0.6779
H21 H 0.2607 0.2395 0.5028
N1 N 0.7712(2) 0.10612(6) 0.88478(19)
loop_
_geom_bond_atom_site_label_1
_geom_bond_atom_site_label_2
_geom_bond_site_symmetry_1
_geom_bond_site_symmetry_2
C1 C2 1_555 1_555
C2 H1 1_555 1_555
C3 C2 1_555 1_555
C4 C3 1_555 1_555
H2 C4 1_555 1_555
H3 C4 1_555 1_555
C5 C4 1_555 1_555
H4 C5 1_555 1_555
H5 C5 1_555 1_555
C6 C1 1_555 1_555
H6 C6 1_555 1_555
H7 C6 1_555 1_555
C7 C1 1_555 1_555
C8 C1 1_555 1_555
H8 C8 1_555 1_555
H9 C8 1_555 1_555
C9 C8 1_555 1_555
H10 C9 1_555 1_555
C10 C2 1_555 1_555
H11 C10 1_555 1_555
H12 C10 1_555 1_555
H13 C10 1_555 1_555
C11 C3 1_555 1_555
H14 C11 1_555 1_555
H15 C11 1_555 1_555
H16 C11 1_555 1_555
O1 C3 1_555 1_555
H17 O1 1_555 1_555
C12 C9 1_555 1_555
H18 C12 1_555 1_555
H19 C12 1_555 1_555
C13 C9 1_555 1_555
H20 C13 1_555 1_555
H21 C13 1_555 1_555
N1 C7 1_555 1_555
C5 C6 1_555 1_555
C12 C13 1_555 1_555

#END
