
#######################################################################
#
#                 Cambridge Crystallographic Data Centre
#                                CCDC 
#
#######################################################################
#
# If this CIF has been generated from an entry in the Cambridge 
# Structural Database, then it will include bibliographic, chemical, 
# crystal, experimental, refinement or atomic coordinate data resulting 
# from the CCDC's data processing and validation procedures.
#
#######################################################################

data_TEGBUF
_chemical_formula_moiety         'C21 H15 N3 O1'
_chemical_name_systematic        
1'-benzylspiro[indazole-3,3'-indol]-2'(1'H)-one
_symmetry_cell_setting           triclinic
_symmetry_space_group_name_H-M   'P -1'
_symmetry_Int_Tables_number      2
_space_group_name_Hall           '-P 1'
loop_
_symmetry_equiv_pos_site_id
_symmetry_equiv_pos_as_xyz
1 x,y,z
2 -x,-y,-z
_cell_length_a                   8.624(3)
_cell_length_b                   10.522(3)
_cell_length_c                   10.648(3)
_cell_angle_alpha                65.64(3)
_cell_angle_beta                 71.71(3)
_cell_angle_gamma                85.02(2)
_cell_volume                     834.714
_exptl_crystal_colour            colorless
_exptl_crystal_description       block
_cell_formula_units_Z            2
loop_
_atom_site_label
_atom_site_type_symbol
_atom_site_fract_x
_atom_site_fract_y
_atom_site_fract_z
O1 O 0.3394(2) 0.64450(18) 0.27298(19)
N1 N 0.0673(2) 0.60143(19) 0.3116(2)
N2 N 0.1750(2) 0.7932(2) 0.4645(2)
N3 N 0.2708(3) 0.8944(2) 0.4280(2)
C1 C -0.0819(3) 0.6622(2) 0.3525(2)
C2 C -0.2387(3) 0.6182(3) 0.3759(3)
H1 H -0.2578 0.5397 0.3625
C3 C -0.3663(3) 0.6948(3) 0.4198(3)
H2 H -0.4730 0.6671 0.4365
C4 C -0.3387(3) 0.8108(3) 0.4394(3)
H3 H -0.4267 0.8602 0.4695
C5 C -0.1802(3) 0.8555(3) 0.4145(3)
H4 H -0.1612 0.9345 0.4270
C6 C -0.0524(3) 0.7799(2) 0.3709(2)
C7 C 0.1285(3) 0.8008(2) 0.3369(2)
C8 C 0.1968(3) 0.6728(2) 0.3037(2)
C9 C 0.2149(3) 0.9337(2) 0.2178(3)
C10 C 0.3018(3) 0.9823(3) 0.2792(3)
C11 C 0.4073(4) 1.1004(3) 0.2002(4)
H5 H 0.4650 1.1320 0.2432
C12 C 0.4215(5) 1.1672(3) 0.0573(4)
H6 H 0.4917 1.2461 0.0006
C13 C 0.3352(4) 1.1214(3) -0.0058(3)
H7 H 0.3474 1.1711 -0.1039
C14 C 0.2288(3) 1.0017(3) 0.0732(3)
H8 H 0.1712 0.9704 0.0300
C15 C 0.0922(3) 0.4931(2) 0.2554(3)
H9 H -0.0095 0.4387 0.2907
H10 H 0.1730 0.4307 0.2909
C16 C 0.1490(3) 0.5558(2) 0.0920(2)
C17 C 0.2822(3) 0.5069(3) 0.0174(3)
H11 H 0.3373 0.4341 0.0686
C18 C 0.3367(4) 0.5634(4) -0.1322(3)
H12 H 0.4268 0.5278 -0.1803
C19 C 0.2595(4) 0.6702(3) -0.2088(3)
H13 H 0.2970 0.7091 -0.3095
C20 C 0.1261(4) 0.7203(3) -0.1372(3)
H14 H 0.0724 0.7936 -0.1895
C21 C 0.0700(3) 0.6633(3) 0.0124(3)
H15 H -0.0219 0.6977 0.0598
loop_
_geom_bond_atom_site_label_1
_geom_bond_atom_site_label_2
_geom_bond_site_symmetry_1
_geom_bond_site_symmetry_2
O1 C8 1_555 1_555
N1 C1 1_555 1_555
N2 N3 1_555 1_555
N3 C10 1_555 1_555
C1 C2 1_555 1_555
C2 H1 1_555 1_555
C3 C2 1_555 1_555
H2 C3 1_555 1_555
C4 C3 1_555 1_555
H3 C4 1_555 1_555
C5 C4 1_555 1_555
H4 C5 1_555 1_555
C6 C1 1_555 1_555
C7 N2 1_555 1_555
C8 N1 1_555 1_555
C9 C7 1_555 1_555
C10 C9 1_555 1_555
C11 C10 1_555 1_555
H5 C11 1_555 1_555
C12 C11 1_555 1_555
H6 C12 1_555 1_555
C13 C12 1_555 1_555
H7 C13 1_555 1_555
C14 C9 1_555 1_555
H8 C14 1_555 1_555
C15 N1 1_555 1_555
H9 C15 1_555 1_555
H10 C15 1_555 1_555
C16 C15 1_555 1_555
C17 C16 1_555 1_555
H11 C17 1_555 1_555
C18 C17 1_555 1_555
H12 C18 1_555 1_555
C19 C18 1_555 1_555
H13 C19 1_555 1_555
C20 C19 1_555 1_555
H14 C20 1_555 1_555
C21 C16 1_555 1_555
H15 C21 1_555 1_555
C5 C6 1_555 1_555
C6 C7 1_555 1_555
C7 C8 1_555 1_555
C13 C14 1_555 1_555
C20 C21 1_555 1_555

#END
