
#######################################################################
#
#                 Cambridge Crystallographic Data Centre
#                                CCDC 
#
#######################################################################
#
# If this CIF has been generated from an entry in the Cambridge 
# Structural Database, then it will include bibliographic, chemical, 
# crystal, experimental, refinement or atomic coordinate data resulting 
# from the CCDC's data processing and validation procedures.
#
#######################################################################

data_TEGBAK
_chemical_formula_moiety         'C16 H18 O2'
_chemical_name_systematic        
3-Methyl-6-phenyl-3,3a,4,7,8,8a-hexahydro-2H-cyclohepta[b]furan-2-one
_symmetry_cell_setting           orthorhombic
_symmetry_space_group_name_H-M   'P 21 21 21'
_symmetry_Int_Tables_number      19
_space_group_name_Hall           'P 2ac 2ab'
loop_
_symmetry_equiv_pos_site_id
_symmetry_equiv_pos_as_xyz
1 x,y,z
2 1/2-x,-y,1/2+z
3 -x,1/2+y,1/2-z
4 1/2+x,1/2-y,-z
_cell_length_a                   8.3086(17)
_cell_length_b                   9.814(2)
_cell_length_c                   15.649(3)
_cell_angle_alpha                90
_cell_angle_beta                 90
_cell_angle_gamma                90
_cell_volume                     1276.03
_exptl_crystal_colour            colorless
_exptl_crystal_description       block
_cell_formula_units_Z            4
loop_
_atom_site_label
_atom_site_type_symbol
_atom_site_fract_x
_atom_site_fract_y
_atom_site_fract_z
O1 O -0.1106(2) 0.87777(14) 0.84326(12)
O2 O 0.06804(19) 0.73422(14) 0.89926(10)
C1 C 0.3050(2) 0.17434(18) 0.87400(12)
C2 C 0.4627(3) 0.2084(2) 0.85046(13)
H1 H 0.4977 0.3002 0.8554
C3 C 0.5682(3) 0.1107(2) 0.82014(13)
H2 H 0.6743 0.1361 0.8040
C4 C 0.5200(3) -0.0243(2) 0.81314(14)
H3 H 0.5922 -0.0915 0.7921
C5 C 0.3662(3) -0.0594(2) 0.83713(14)
H4 H 0.3324 -0.1516 0.8328
C6 C 0.2601(3) 0.03768(19) 0.86745(13)
H5 H 0.1548 0.0109 0.8841
C7 C 0.1894(3) 0.28176(19) 0.90096(12)
C8 C 0.0376(3) 0.2761(2) 0.87317(13)
H6 H 0.0089 0.1977 0.8410
C9 C -0.0935(3) 0.38013(18) 0.88711(15)
H7 H -0.1234 0.3811 0.9483
H8 H -0.1899 0.3533 0.8540
C10 C -0.0417(2) 0.52388(19) 0.86015(13)
H9 H 0.0153 0.5162 0.8041
C11 C 0.0727(3) 0.59015(19) 0.92300(13)
H10 H 0.0276 0.5800 0.9819
C12 C 0.2444(2) 0.53971(19) 0.92316(14)
H11 H 0.3116 0.6008 0.9587
H12 H 0.2875 0.5412 0.8642
C13 C 0.2528(3) 0.39393(19) 0.95867(13)
H13 H 0.3665 0.3733 0.9724
H14 H 0.1916 0.3912 1.0129
C14 C -0.1726(2) 0.63373(19) 0.85083(13)
H15 H -0.2192 0.6306 0.7919
C15 C -0.0754(3) 0.7629(2) 0.86202(13)
C16 C -0.3073(3) 0.6279(2) 0.91690(15)
H16 H -0.3678 0.5429 0.9100
H17 H -0.3797 0.7056 0.9088
H18 H -0.2609 0.6314 0.9744
loop_
_geom_bond_atom_site_label_1
_geom_bond_atom_site_label_2
_geom_bond_site_symmetry_1
_geom_bond_site_symmetry_2
O1 C15 1_555 1_555
O2 C11 1_555 1_555
C1 C2 1_555 1_555
C2 H1 1_555 1_555
C3 C2 1_555 1_555
H2 C3 1_555 1_555
C4 C3 1_555 1_555
H3 C4 1_555 1_555
C5 C4 1_555 1_555
H4 C5 1_555 1_555
C6 C1 1_555 1_555
H5 C6 1_555 1_555
C7 C1 1_555 1_555
C8 C7 1_555 1_555
H6 C8 1_555 1_555
C9 C8 1_555 1_555
H7 C9 1_555 1_555
H8 C9 1_555 1_555
C10 C9 1_555 1_555
H9 C10 1_555 1_555
C11 C10 1_555 1_555
H10 C11 1_555 1_555
C12 C11 1_555 1_555
H11 C12 1_555 1_555
H12 C12 1_555 1_555
C13 C7 1_555 1_555
H13 C13 1_555 1_555
H14 C13 1_555 1_555
C14 C10 1_555 1_555
H15 C14 1_555 1_555
C15 O2 1_555 1_555
C16 C14 1_555 1_555
H16 C16 1_555 1_555
H17 C16 1_555 1_555
H18 C16 1_555 1_555
C5 C6 1_555 1_555
C12 C13 1_555 1_555
C14 C15 1_555 1_555

#END
