
#######################################################################
#
#                 Cambridge Crystallographic Data Centre
#                                CCDC 
#
#######################################################################
#
# If this CIF has been generated from an entry in the Cambridge 
# Structural Database, then it will include bibliographic, chemical, 
# crystal, experimental, refinement or atomic coordinate data resulting 
# from the CCDC's data processing and validation procedures.
#
#######################################################################

data_TEGBIT
_chemical_formula_moiety         'C18 H13 F2 N3 S1'
_chemical_name_systematic        
1-(2,2-difluoro-1-phenyl-1-(2-thienyl)ethyl)-1H-benzotriazole
_symmetry_cell_setting           monoclinic
_symmetry_space_group_name_H-M   'P 21/n'
_symmetry_Int_Tables_number      14
_space_group_name_Hall           '-P 2yn'
loop_
_symmetry_equiv_pos_site_id
_symmetry_equiv_pos_as_xyz
1 x,y,z
2 1/2-x,1/2+y,1/2-z
3 -x,-y,-z
4 1/2+x,1/2-y,1/2+z
_cell_length_a                   8.765
_cell_length_b                   13.009
_cell_length_c                   13.962
_cell_angle_alpha                90
_cell_angle_beta                 103.90
_cell_angle_gamma                90
_cell_volume                     1545.38
_exptl_crystal_colour            colorless
_exptl_crystal_description       block
_cell_formula_units_Z            4
loop_
_atom_site_label
_atom_site_type_symbol
_atom_site_fract_x
_atom_site_fract_y
_atom_site_fract_z
S1 S 0.52214(12) 0.47942(7) 0.80955(7)
F1 F 0.3783(3) 0.16913(16) 0.90961(16)
F2 F 0.3290(3) 0.10297(15) 0.76305(17)
N1 N 0.4268(3) 0.27678(18) 0.67960(18)
N2 N 0.5652(3) 0.2262(2) 0.5788(2)
N3 N 0.5402(3) 0.2107(2) 0.6654(2)
C1 C 0.4686(4) 0.3051(2) 0.5343(2)
C2 C 0.2198(3) 0.3096(2) 0.7680(2)
C3 C 0.0930(4) 0.2634(2) 0.6932(2)
H1 H 0.1160 0.2141 0.6505
C4 C 0.1748(4) 0.3767(2) 0.8344(2)
H2 H 0.2503 0.4069 0.8848
C5 C 0.3925(3) 0.2811(2) 0.7787(2)
C6 C 0.2735(4) 0.4199(2) 0.5742(2)
H3 H 0.2158 0.4437 0.6176
C7 C 0.3801(3) 0.3390(2) 0.5994(2)
C8 C 0.5077(3) 0.3551(2) 0.8432(2)
C9 C 0.4216(4) 0.1717(2) 0.8225(3)
H4 H 0.5326 0.1528 0.8323
C10 C 0.0202(5) 0.3976(3) 0.8247(3)
H5 H -0.0101 0.4415 0.8694
C11 C 0.3435(5) 0.4279(3) 0.4165(2)
H6 H 0.3279 0.4583 0.3546
C12 C 0.6154(4) 0.3347(2) 0.9297(2)
H7 H 0.6264 0.2705 0.9599
C13 C 0.6759(4) 0.5047(3) 0.9128(3)
H8 H 0.7278 0.5673 0.9267
C14 C 0.4499(4) 0.3496(3) 0.4411(2)
H9 H 0.5077 0.3269 0.3974
C15 C 0.2578(4) 0.4631(3) 0.4821(2)
H10 H 0.1879 0.5173 0.4632
C16 C -0.0910(5) 0.3550(3) 0.7502(3)
H11 H -0.1965 0.3708 0.7435
C17 C 0.7072(4) 0.4198(3) 0.9685(3)
H12 H 0.7833 0.4177 1.0278
C18 C -0.0484(5) 0.2901(3) 0.6862(3)
H13 H -0.1261 0.2636 0.6346
loop_
_geom_bond_atom_site_label_1
_geom_bond_atom_site_label_2
_geom_bond_site_symmetry_1
_geom_bond_site_symmetry_2
S1 C8 1_555 1_555
F1 C9 1_555 1_555
F2 C9 1_555 1_555
N1 N3 1_555 1_555
N2 N3 1_555 1_555
C1 N2 1_555 1_555
C2 C3 1_555 1_555
C3 H1 1_555 1_555
C4 C2 1_555 1_555
H2 C4 1_555 1_555
C5 N1 1_555 1_555
C6 H3 1_555 1_555
C7 N1 1_555 1_555
C8 C5 1_555 1_555
C9 C5 1_555 1_555
H4 C9 1_555 1_555
C10 C4 1_555 1_555
H5 C10 1_555 1_555
C11 H6 1_555 1_555
C12 C8 1_555 1_555
H7 C12 1_555 1_555
C13 S1 1_555 1_555
H8 C13 1_555 1_555
C14 C1 1_555 1_555
H9 C14 1_555 1_555
C15 C6 1_555 1_555
H10 C15 1_555 1_555
C16 C10 1_555 1_555
H11 C16 1_555 1_555
C17 C12 1_555 1_555
H12 C17 1_555 1_555
C18 C3 1_555 1_555
H13 C18 1_555 1_555
C1 C7 1_555 1_555
C2 C5 1_555 1_555
C6 C7 1_555 1_555
C11 C14 1_555 1_555
C11 C15 1_555 1_555
C13 C17 1_555 1_555
C16 C18 1_555 1_555

#END
