
#######################################################################
#
#                 Cambridge Crystallographic Data Centre
#                                CCDC 
#
#######################################################################
#
# If this CIF has been generated from an entry in the Cambridge 
# Structural Database, then it will include bibliographic, chemical, 
# crystal, experimental, refinement or atomic coordinate data resulting 
# from the CCDC's data processing and validation procedures.
#
#######################################################################

data_TEGCEP
_chemical_formula_moiety         'C15 H16 F1 N1 O3 S2'
_chemical_name_systematic        N-Tosyl-S-(1-fluoroethyl)-S-phenylsulfoximine
_symmetry_cell_setting           orthorhombic
_symmetry_space_group_name_H-M   'P 21 21 21'
_symmetry_Int_Tables_number      19
_space_group_name_Hall           'P 2ac 2ab'
loop_
_symmetry_equiv_pos_site_id
_symmetry_equiv_pos_as_xyz
1 x,y,z
2 1/2-x,-y,1/2+z
3 -x,1/2+y,1/2-z
4 1/2+x,1/2-y,-z
_cell_length_a                   5.7967(4)
_cell_length_b                   15.2769(11)
_cell_length_c                   18.0461(12)
_cell_angle_alpha                90
_cell_angle_beta                 90
_cell_angle_gamma                90
_cell_volume                     1598.08
_exptl_crystal_colour            colorless
_exptl_crystal_description       prismatic
_cell_formula_units_Z            4
loop_
_atom_site_label
_atom_site_type_symbol
_atom_site_fract_x
_atom_site_fract_y
_atom_site_fract_z
S1 S 0.10595(9) 0.35677(4) 0.36267(3)
S2 S -0.06044(11) 0.48286(4) 0.45664(3)
F1 F 0.3893(4) 0.25522(13) 0.29916(10)
N1 N 0.1177(4) 0.40336(13) 0.43814(10)
O1 O -0.0820(4) 0.29875(12) 0.34689(12)
O2 O -0.0919(4) 0.48166(13) 0.53486(10)
O3 O -0.2604(3) 0.47777(13) 0.40975(12)
C1 C 0.3749(5) 0.29570(17) 0.36624(15)
H1 H 0.5055 0.3356 0.3732
C2 C 0.3687(7) 0.2299(2) 0.4262(2)
H2 H 0.2405 0.1911 0.4185
H3 H 0.3519 0.2589 0.4731
H4 H 0.5095 0.1968 0.4259
C3 C 0.1397(4) 0.42996(15) 0.28761(12)
C4 C 0.3307(5) 0.48367(18) 0.28409(15)
H5 H 0.4442 0.4817 0.3205
C5 C 0.3481(6) 0.5405(2) 0.22475(18)
H6 H 0.4759 0.5769 0.2204
C6 C 0.1768(8) 0.5433(3) 0.17220(19)
H7 H 0.1901 0.5820 0.1326
C7 C -0.0093(7) 0.4914(3) 0.17692(17)
H8 H -0.1236 0.4945 0.1408
C8 C -0.0323(5) 0.4329(2) 0.23534(14)
H9 H -0.1607 0.3967 0.2390
C9 C 0.0933(4) 0.57817(15) 0.43354(12)
C10 C 0.2964(5) 0.59687(19) 0.47069(14)
H10 H 0.3491 0.5599 0.5079
C11 C 0.4194(5) 0.67052(17) 0.45211(15)
H11 H 0.5543 0.6835 0.4778
C12 C 0.3471(5) 0.72576(17) 0.39611(14)
C13 C 0.1446(6) 0.70527(17) 0.35953(17)
H12 H 0.0929 0.7418 0.3218
C14 C 0.0168(5) 0.63162(17) 0.37760(15)
H13 H -0.1187 0.6187 0.3522
C15 C 0.4872(7) 0.8053(2) 0.37617(19)
H14 H 0.4712 0.8171 0.3242
H15 H 0.6466 0.7947 0.3875
H16 H 0.4332 0.8547 0.4041
loop_
_geom_bond_atom_site_label_1
_geom_bond_atom_site_label_2
_geom_bond_site_symmetry_1
_geom_bond_site_symmetry_2
S1 N1 1_555 1_555
S2 N1 1_555 1_555
F1 C1 1_555 1_555
O1 S1 1_555 1_555
O2 S2 1_555 1_555
O3 S2 1_555 1_555
C1 S1 1_555 1_555
H1 C1 1_555 1_555
C2 C1 1_555 1_555
H2 C2 1_555 1_555
H3 C2 1_555 1_555
H4 C2 1_555 1_555
C3 S1 1_555 1_555
C4 C3 1_555 1_555
H5 C4 1_555 1_555
C5 C4 1_555 1_555
H6 C5 1_555 1_555
C6 C5 1_555 1_555
H7 C6 1_555 1_555
C7 C6 1_555 1_555
H8 C7 1_555 1_555
C8 C3 1_555 1_555
H9 C8 1_555 1_555
C9 S2 1_555 1_555
C10 C9 1_555 1_555
H10 C10 1_555 1_555
C11 C10 1_555 1_555
H11 C11 1_555 1_555
C12 C11 1_555 1_555
C13 C12 1_555 1_555
H12 C13 1_555 1_555
C14 C9 1_555 1_555
H13 C14 1_555 1_555
C15 C12 1_555 1_555
H14 C15 1_555 1_555
H15 C15 1_555 1_555
H16 C15 1_555 1_555
C7 C8 1_555 1_555
C13 C14 1_555 1_555

#END
