
#######################################################################
#
#                 Cambridge Crystallographic Data Centre
#                                CCDC 
#
#######################################################################
#
# If this CIF has been generated from an entry in the Cambridge 
# Structural Database, then it will include bibliographic, chemical, 
# crystal, experimental, refinement or atomic coordinate data resulting 
# from the CCDC's data processing and validation procedures.
#
#######################################################################

data_TEGFIW
_chemical_formula_moiety         'C20 H13 F3 N4 O2 S1'
_chemical_name_systematic        
N-(4-((6-(4-(Trifluoromethyl)phenyl)pyrimidin-4-yl)oxy)-1,3-benzothiazol-2-yl)acetamide
_symmetry_cell_setting           triclinic
_symmetry_space_group_name_H-M   'P -1'
_symmetry_Int_Tables_number      2
_space_group_name_Hall           '-P 1'
loop_
_symmetry_equiv_pos_site_id
_symmetry_equiv_pos_as_xyz
1 x,y,z
2 -x,-y,-z
_cell_length_a                   12.861(2)
_cell_length_b                   14.956(2)
_cell_length_c                   11.612(3)
_cell_angle_alpha                100.76(1)
_cell_angle_beta                 106.00(1)
_cell_angle_gamma                111.387(8)
_cell_volume                     1893.47
_exptl_crystal_colour            colorless
_exptl_crystal_description       plate
_cell_formula_units_Z            4
loop_
_atom_site_label
_atom_site_type_symbol
_atom_site_fract_x
_atom_site_fract_y
_atom_site_fract_z
S1 S 0.39477(8) 0.36271(6) 0.92381(8)
F1 F -0.461(1) -0.6050(8) 0.492(1)
F3 F -0.4638(5) -0.6713(4) 0.3149(5)
F9 F -0.358(1) -0.666(1) 0.544(1)
O1 O 0.1191(2) 0.0168(1) 0.6260(2)
O2 O 0.4040(2) 0.4482(2) 1.1499(3)
N1 N 0.1289(3) -0.2563(2) 0.5658(3)
N2 N 0.2284(2) -0.0761(2) 0.6166(3)
N3 N 0.2205(2) 0.1808(2) 0.8582(2)
N4 N 0.2549(2) 0.2880(2) 1.0529(2)
C1 C -0.3899(5) -0.6255(3) 0.4423(6)
C2 C -0.2810(3) -0.5306(3) 0.4627(4)
C3 C -0.1686(4) -0.5152(3) 0.5330(4)
C4 C -0.0701(3) -0.4252(3) 0.5585(4)
C5 C -0.0833(3) -0.3481(2) 0.5175(3)
C6 C -0.1978(3) -0.3658(3) 0.4420(4)
C7 C -0.2961(4) -0.4557(3) 0.4163(4)
C8 C 0.0233(3) -0.2504(2) 0.5495(3)
C9 C 0.0167(3) -0.1600(2) 0.5647(3)
C10 C 0.1238(3) -0.0738(2) 0.6012(3)
C11 C 0.2234(3) -0.1677(3) 0.5978(4)
C12 C 0.2225(3) 0.1055(2) 0.6493(3)
C13 C 0.2736(3) 0.1180(2) 0.5617(3)
C14 C 0.3709(3) 0.2100(2) 0.5838(3)
C15 C 0.4147(3) 0.2895(2) 0.6931(3)
C16 C 0.3602(3) 0.2757(2) 0.7804(3)
C17 C 0.2644(3) 0.1836(2) 0.7613(3)
C18 C 0.2793(3) 0.2690(2) 0.9459(3)
C19 C 0.3192(3) 0.3780(3) 1.1530(3)
C20 C 0.2790(4) 0.3832(3) 1.2602(4)
H1 H -0.1579 -0.5668 0.5643
H2 H 0.0086 -0.4158 0.6051
H3 H -0.2078 -0.3150 0.4083
H4 H -0.3743 -0.4665 0.3659
H5 H -0.0577 -0.1563 0.5507
H6 H 0.2979 -0.1707 0.6088
H7 H 0.2430 0.0638 0.4855
H8 H 0.4068 0.2173 0.5227
H9 H 0.4806 0.3522 0.7084
H10 H 0.1891 0.2358 1.0591
H11 H 0.3206 0.3602 1.3198
H12 H 0.1948 0.3413 1.2304
H13 H 0.2957 0.4512 1.2995
S2 S -0.22643(7) -0.10032(6) 0.78500(8)
F4 F 0.4078(9) 0.8701(8) 0.875(1)
F5 F 0.5376(9) 0.8317(8) 0.936(2)
F6 F 0.499(2) 0.9008(7) 1.0782(9)
O3 O -0.1656(2) 0.2250(2) 0.7015(2)
O4 O -0.0534(2) -0.1599(2) 0.8761(2)
N5 N -0.0861(3) 0.2747(2) 0.9199(3)
N6 N 0.0901(3) 0.4318(2) 1.0354(3)
N7 N -0.0928(2) 0.0764(2) 0.7763(2)
N8 N 0.0189(2) -0.0085(2) 0.8455(2)
C21 C 0.4480(5) 0.8375(3) 0.9694(6)
C22 C 0.3567(3) 0.7340(3) 0.9572(4)
C23 C 0.2761(4) 0.6674(3) 0.8408(4)
C24 C 0.1935(4) 0.5737(3) 0.8296(4)
C25 C 0.1888(3) 0.5451(2) 0.9352(3)
C26 C 0.2702(3) 0.6139(3) 1.0517(4)
C27 C 0.3536(3) 0.7077(3) 1.0624(4)
C28 C 0.0933(3) 0.4466(2) 0.9256(3)
C29 C 0.0103(3) 0.3759(2) 0.8108(3)
C30 C -0.0783(3) 0.2922(2) 0.8155(3)
C31 C 0.0013(3) 0.3461(3) 1.0252(3)
C32 C -0.2485(3) 0.1341(2) 0.7044(3)
C33 C -0.3679(3) 0.1129(3) 0.6654(3)
C34 C -0.4524(3) 0.0214(3) 0.6640(3)
C35 C -0.4184(3) -0.0487(3) 0.6991(3)
C36 C -0.2954(3) -0.0267(2) 0.7368(3)
C37 C -0.2119(3) 0.0633(2) 0.7373(3)
C38 C -0.0895(3) -0.0031(2) 0.8040(3)
C39 C 0.0322(3) -0.0880(2) 0.8780(3)
C40 C 0.1561(3) -0.0812(3) 0.9140(4)
H14 H 0.2773 0.6865 0.7675
H15 H 0.1385 0.5273 0.7482
H16 H 0.2675 0.5961 1.1255
H17 H 0.4100 0.7541 1.1432
H18 H 0.0144 0.3844 0.7329
H19 H -0.0013 0.3345 1.1023
H20 H -0.3928 0.1609 0.6396
H21 H -0.5349 0.0080 0.6387
H22 H -0.4758 -0.1112 0.6976
H23 H 0.0893 0.0468 0.8519
H24 H 0.1981 -0.0491 1.0027
H25 H 0.1979 -0.0429 0.8708
H26 H 0.1510 -0.1475 0.8917
F2? F -0.371(1) -0.6943(6) 0.468(1)
F7? F -0.387(2) -0.705(1) 0.388(2)
F8? F -0.476(2) -0.616(2) 0.456(3)
F10? F 0.401(1) 0.8979(9) 0.965(4)
F11? F 0.540(1) 0.877(2) 1.071(3)
F12? F 0.489(5) 0.829(4) 0.883(4)
loop_
_geom_bond_atom_site_label_1
_geom_bond_atom_site_label_2
_geom_bond_site_symmetry_1
_geom_bond_site_symmetry_2
S1 C16 1_555 1_555
S2 C36 1_555 1_555
F1 C1 1_555 1_555
F3 C1 1_555 1_555
F4 C21 1_555 1_555
F5 C21 1_555 1_555
F6 C21 1_555 1_555
F9 C1 1_555 1_555
O1 C10 1_555 1_555
O2 C19 1_555 1_555
O3 C30 1_555 1_555
O4 C39 1_555 1_555
N1 C8 1_555 1_555
N2 C10 1_555 1_555
N3 C17 1_555 1_555
N4 C18 1_555 1_555
N5 C30 1_555 1_555
N6 C28 1_555 1_555
N7 C37 1_555 1_555
N8 C38 1_555 1_555
C1 C2 1_555 1_555
C2 C3 1_555 1_555
C3 C4 1_555 1_555
C4 C5 1_555 1_555
C5 C6 1_555 1_555
C6 C7 1_555 1_555
C7 C2 1_555 1_555
C8 C5 1_555 1_555
C9 C8 1_555 1_555
C10 C9 1_555 1_555
C11 N1 1_555 1_555
C12 O1 1_555 1_555
C13 C12 1_555 1_555
C14 C13 1_555 1_555
C15 C14 1_555 1_555
C16 C15 1_555 1_555
C17 C12 1_555 1_555
C18 S1 1_555 1_555
C19 N4 1_555 1_555
C20 C19 1_555 1_555
C21 C22 1_555 1_555
C22 C23 1_555 1_555
C23 C24 1_555 1_555
C24 C25 1_555 1_555
C25 C26 1_555 1_555
C26 C27 1_555 1_555
C27 C22 1_555 1_555
C28 C25 1_555 1_555
C29 C28 1_555 1_555
C30 C29 1_555 1_555
C31 N5 1_555 1_555
C32 O3 1_555 1_555
C33 C32 1_555 1_555
C34 C33 1_555 1_555
C35 C34 1_555 1_555
C36 C35 1_555 1_555
C37 C32 1_555 1_555
C38 S2 1_555 1_555
C39 N8 1_555 1_555
C40 C39 1_555 1_555
H1 C3 1_555 1_555
H2 C4 1_555 1_555
H3 C6 1_555 1_555
H4 C7 1_555 1_555
H5 C9 1_555 1_555
H6 C11 1_555 1_555
H7 C13 1_555 1_555
H8 C14 1_555 1_555
H9 C15 1_555 1_555
H10 N4 1_555 1_555
H11 C20 1_555 1_555
H12 C20 1_555 1_555
H13 C20 1_555 1_555
H14 C23 1_555 1_555
H15 C24 1_555 1_555
H16 C26 1_555 1_555
H17 C27 1_555 1_555
H18 C29 1_555 1_555
H19 C31 1_555 1_555
H20 C33 1_555 1_555
H21 C34 1_555 1_555
H22 C35 1_555 1_555
H23 N8 1_555 1_555
H24 C40 1_555 1_555
H25 C40 1_555 1_555
H26 C40 1_555 1_555
N2 C11 1_555 1_555
N3 C18 1_555 1_555
N6 C31 1_555 1_555
N7 C38 1_555 1_555
C16 C17 1_555 1_555
C36 C37 1_555 1_555

#END
