
#######################################################################
#
#                 Cambridge Crystallographic Data Centre
#                                CCDC 
#
#######################################################################
#
# If this CIF has been generated from an entry in the Cambridge 
# Structural Database, then it will include bibliographic, chemical, 
# crystal, experimental, refinement or atomic coordinate data resulting 
# from the CCDC's data processing and validation procedures.
#
#######################################################################

data_TEGNIF
_chemical_compound_source        'isolated from Isodon rubescens'
_chemical_name_common            'isojiangrubesin D'
_chemical_formula_moiety         'C20 H30 O6'
_chemical_name_systematic        7,20-epoxykaur-16-ene-1,6,7,14,15-pentol
_symmetry_cell_setting           orthorhombic
_symmetry_space_group_name_H-M   'P 21 21 21'
_symmetry_Int_Tables_number      19
_space_group_name_Hall           'P 2ac 2ab'
loop_
_symmetry_equiv_pos_site_id
_symmetry_equiv_pos_as_xyz
1 x,y,z
2 1/2+x,1/2-y,-z
3 -x,1/2+y,1/2-z
4 1/2-x,-y,1/2+z
_cell_length_a                   8.0252(4)
_cell_length_b                   10.7758(6)
_cell_length_c                   20.3243(11)
_cell_angle_alpha                90
_cell_angle_beta                 90
_cell_angle_gamma                90
_cell_volume                     1757.6
_exptl_crystal_colour            colorless
_exptl_crystal_description       block
_cell_formula_units_Z            4
loop_
_atom_site_label
_atom_site_type_symbol
_atom_site_fract_x
_atom_site_fract_y
_atom_site_fract_z
O1 O 0.2490(2) 0.20360(13) 0.04948(7)
H1 H 0.349(4) 0.216(3) 0.0514(14)
O2 O 0.24229(17) -0.13179(13) 0.02076(7)
O3 O -0.33409(17) 0.00005(14) 0.05754(8)
H2 H -0.314(4) 0.065(3) 0.0737(15)
O4 O 0.08485(18) 0.25093(13) -0.05868(7)
H3 H 0.128(4) 0.251(3) -0.0230(16)
O5 O 0.3153(2) -0.06671(15) -0.14368(8)
H4 H 0.378(4) -0.054(3) -0.1145(17)
O6 O 0.41426(18) 0.01087(14) -0.02573(8)
H5 H 0.482(4) -0.004(3) -0.0013(16)
C1 C -0.1381(3) 0.0021(2) 0.18349(10)
H6 H -0.1413 -0.0145 0.2314
H7 H -0.2121 0.0736 0.1746
C2 C 0.0404(3) 0.0366(2) 0.16387(10)
C3 C 0.0467(2) 0.05109(18) 0.08733(10)
H8 H -0.0165 0.1289 0.0774
C4 C 0.2252(2) 0.07379(18) 0.06095(10)
H9 H 0.3064 0.0466 0.0954
C5 C 0.2539(3) -0.00515(18) -0.00087(10)
C6 C 0.1284(2) 0.01762(18) -0.05618(10)
C7 C 0.1485(2) 0.14418(19) -0.09191(9)
H10 H 0.2697 0.1578 -0.1008
C8 C 0.0608(2) 0.1243(2) -0.15716(10)
C9 C 0.0150(3) 0.2139(2) -0.19789(11)
H11 H 0.0366 0.2981 -0.1870
H12 H -0.0396 0.1939 -0.2380
C10 C 0.0832(3) 0.1626(2) 0.19445(11)
H13 H 0.0025 0.2248 0.1796
H14 H 0.1955 0.1874 0.1808
H15 H 0.0790 0.1561 0.2425
C11 C 0.0761(2) -0.16621(18) 0.04158(10)
H16 H 0.0814 -0.2060 0.0854
H17 H 0.0287 -0.2269 0.0102
C12 C -0.0362(2) -0.05130(18) 0.04489(10)
C13 C -0.2076(2) -0.08998(18) 0.07289(10)
H18 H -0.2400 -0.1700 0.0515
C14 C -0.2047(3) -0.11128(19) 0.14701(11)
H19 H -0.1336 -0.1839 0.1570
H20 H -0.3189 -0.1298 0.1625
C15 C -0.0520(2) -0.00044(18) -0.02709(10)
H21 H -0.1049 0.0834 -0.0244
C16 C 0.0298(3) -0.01373(19) -0.16528(10)
H22 H 0.0545 -0.0415 -0.2112
C17 C 0.1518(3) -0.07087(18) -0.11610(10)
H23 H 0.1191 -0.1578 -0.1047
C18 C -0.1508(3) -0.0480(2) -0.14486(10)
H24 H -0.2254 0.0229 -0.1543
H25 H -0.1891 -0.1195 -0.1715
C19 C -0.1628(3) -0.08134(18) -0.07143(10)
H26 H -0.2801 -0.0725 -0.0571
H27 H -0.1308 -0.1694 -0.0656
C20 C 0.1612(3) -0.0606(2) 0.19304(11)
H28 H 0.2755 -0.0406 0.1798
H29 H 0.1316 -0.1432 0.1767
H30 H 0.1532 -0.0595 0.2411
loop_
_geom_bond_atom_site_label_1
_geom_bond_atom_site_label_2
_geom_bond_site_symmetry_1
_geom_bond_site_symmetry_2
O1 H1 1_555 1_555
O2 C5 1_555 1_555
O3 H2 1_555 1_555
O4 H3 1_555 1_555
O5 H4 1_555 1_555
O6 H5 1_555 1_555
C1 H6 1_555 1_555
H7 C1 1_555 1_555
C2 C1 1_555 1_555
C3 C2 1_555 1_555
H8 C3 1_555 1_555
C4 O1 1_555 1_555
H9 C4 1_555 1_555
C5 O6 1_555 1_555
C6 C5 1_555 1_555
C7 O4 1_555 1_555
H10 C7 1_555 1_555
C8 C7 1_555 1_555
C9 C8 1_555 1_555
H11 C9 1_555 1_555
H12 C9 1_555 1_555
C10 C2 1_555 1_555
H13 C10 1_555 1_555
H14 C10 1_555 1_555
H15 C10 1_555 1_555
C11 O2 1_555 1_555
H16 C11 1_555 1_555
H17 C11 1_555 1_555
C12 C3 1_555 1_555
C13 O3 1_555 1_555
H18 C13 1_555 1_555
C14 C1 1_555 1_555
H19 C14 1_555 1_555
H20 C14 1_555 1_555
C15 C6 1_555 1_555
H21 C15 1_555 1_555
C16 C8 1_555 1_555
H22 C16 1_555 1_555
C17 O5 1_555 1_555
H23 C17 1_555 1_555
C18 C16 1_555 1_555
H24 C18 1_555 1_555
H25 C18 1_555 1_555
C19 C15 1_555 1_555
H26 C19 1_555 1_555
H27 C19 1_555 1_555
C20 C2 1_555 1_555
H28 C20 1_555 1_555
H29 C20 1_555 1_555
H30 C20 1_555 1_555
C3 C4 1_555 1_555
C4 C5 1_555 1_555
C6 C7 1_555 1_555
C6 C17 1_555 1_555
C11 C12 1_555 1_555
C12 C13 1_555 1_555
C12 C15 1_555 1_555
C13 C14 1_555 1_555
C16 C17 1_555 1_555
C18 C19 1_555 1_555

#END
