
#######################################################################
#
#                 Cambridge Crystallographic Data Centre
#                                CCDC 
#
#######################################################################
#
# If this CIF has been generated from an entry in the Cambridge 
# Structural Database, then it will include bibliographic, chemical, 
# crystal, experimental, refinement or atomic coordinate data resulting 
# from the CCDC's data processing and validation procedures.
#
#######################################################################

data_TEGSII
_chemical_formula_moiety         'C15 H23 N1 O1 S2'
_chemical_name_systematic        
(+)-(2'aR,5'aR,8'S,8'aR)-Octahydro-8'-methylspiro(1,3-dithiane-2,4'-(4H)pyrrolo(2,1,5-de)quinolizin)-6'(2'H)-one
_symmetry_cell_setting           monoclinic
_symmetry_space_group_name_H-M   'P 21'
_symmetry_Int_Tables_number      4
_space_group_name_Hall           'P 2yb'
loop_
_symmetry_equiv_pos_site_id
_symmetry_equiv_pos_as_xyz
1 x,y,z
2 -x,1/2+y,-z
_cell_length_a                   10.616(3)
_cell_length_b                   6.7014(18)
_cell_length_c                   10.720(3)
_cell_angle_alpha                90
_cell_angle_beta                 98.568(2)
_cell_angle_gamma                90
_cell_volume                     754.132
_exptl_crystal_colour            white
_chemical_melting_point          '101 deg.C'
_cell_formula_units_Z            2
loop_
_atom_site_label
_atom_site_type_symbol
_atom_site_fract_x
_atom_site_fract_y
_atom_site_fract_z
C1 C 0.3323(3) 0.3833(5) 0.1177(2)
C2 C 0.2463(3) 0.4303(5) 0.2139(2)
H1 H 0.2003 0.3076 0.2281
C3 C 0.3299(3) 0.4853(4) 0.3404(2)
H2 H 0.3815 0.3711 0.3713
H3 H 0.3870 0.5934 0.3264
C4 C 0.2485(3) 0.5488(4) 0.4396(2)
C5 C 0.1581(3) 0.7147(5) 0.3858(3)
H4 H 0.2074 0.8319 0.3710
H5 H 0.1033 0.7498 0.4472
C6 C 0.0756(3) 0.6543(6) 0.2625(2)
H6 H 0.0144 0.5519 0.2793
C7 C 0.0042(3) 0.8318(6) 0.1939(3)
H7 H 0.0014 0.9432 0.2511
H8 H -0.0823 0.7943 0.1596
C8 C 0.0803(3) 0.8877(5) 0.0869(3)
H9 H 0.0299 0.8640 0.0051
H10 H 0.1047 1.0273 0.0926
C9 C 0.1970(3) 0.7551(5) 0.1052(2)
H11 H 0.2658 0.8202 0.1619
C10 C 0.2462(3) 0.6862(5) -0.0141(2)
H12 H 0.1781 0.6124 -0.0662
C11 C 0.3577(3) 0.5434(5) 0.0251(3)
H13 H 0.3795 0.4794 -0.0499
H14 H 0.4310 0.6207 0.0624
C12 C 0.2858(3) 0.8597(5) -0.0913(3)
H15 H 0.3501 0.9370 -0.0403
H16 H 0.2131 0.9425 -0.1187
H17 H 0.3191 0.8091 -0.1635
C13 C 0.2673(3) 0.1822(5) 0.5727(3)
H18 H 0.2237 0.0674 0.6012
H19 H 0.3238 0.1343 0.5160
C14 C 0.3466(3) 0.2782(5) 0.6857(3)
H20 H 0.3983 0.1768 0.7334
H21 H 0.2904 0.3346 0.7400
C15 C 0.4327(3) 0.4411(5) 0.6482(3)
H22 H 0.4841 0.3866 0.5888
H23 H 0.4900 0.4836 0.7225
N1 N 0.1518(2) 0.5801(4) 0.1675(2)
O1 O 0.3850(2) 0.2213(3) 0.1207(2)
S1 S 0.15015(7) 0.34563(12) 0.48565(6)
S2 S 0.34698(7) 0.65630(11) 0.57780(6)
loop_
_geom_bond_atom_site_label_1
_geom_bond_atom_site_label_2
_geom_bond_site_symmetry_1
_geom_bond_site_symmetry_2
C1 C2 1_555 1_555
C2 H1 1_555 1_555
C3 C2 1_555 1_555
H2 C3 1_555 1_555
H3 C3 1_555 1_555
C4 C3 1_555 1_555
C5 C4 1_555 1_555
H4 C5 1_555 1_555
H5 C5 1_555 1_555
C6 C5 1_555 1_555
H6 C6 1_555 1_555
C7 C6 1_555 1_555
H7 C7 1_555 1_555
H8 C7 1_555 1_555
C8 C7 1_555 1_555
H9 C8 1_555 1_555
H10 C8 1_555 1_555
C9 C8 1_555 1_555
H11 C9 1_555 1_555
C10 C9 1_555 1_555
H12 C10 1_555 1_555
C11 C1 1_555 1_555
H13 C11 1_555 1_555
H14 C11 1_555 1_555
C12 C10 1_555 1_555
H15 C12 1_555 1_555
H16 C12 1_555 1_555
H17 C12 1_555 1_555
C13 H18 1_555 1_555
H19 C13 1_555 1_555
C14 C13 1_555 1_555
H20 C14 1_555 1_555
H21 C14 1_555 1_555
C15 C14 1_555 1_555
H22 C15 1_555 1_555
H23 C15 1_555 1_555
N1 C2 1_555 1_555
O1 C1 1_555 1_555
S1 C4 1_555 1_555
S2 C4 1_555 1_555
C6 N1 1_555 1_555
C9 N1 1_555 1_555
C10 C11 1_555 1_555
C13 S1 1_555 1_555
C15 S2 1_555 1_555

#END
