
#######################################################################
#
#                 Cambridge Crystallographic Data Centre
#                                CCDC 
#
#######################################################################
#
# If this CIF has been generated from an entry in the Cambridge 
# Structural Database, then it will include bibliographic, chemical, 
# crystal, experimental, refinement or atomic coordinate data resulting 
# from the CCDC's data processing and validation procedures.
#
#######################################################################

data_TEGVAF02
_chemical_formula_moiety         'C25 H15 N1 O3'
_chemical_name_systematic        3-(10H-phenoxazin-10-yl)-9H-xanthen-9-one
_symmetry_cell_setting           monoclinic
_symmetry_space_group_name_H-M   'P 21/c'
_symmetry_Int_Tables_number      14
_space_group_name_Hall           '-P 2ybc'
loop_
_symmetry_equiv_pos_site_id
_symmetry_equiv_pos_as_xyz
1 x,y,z
2 -x,1/2+y,1/2-z
3 -x,-y,-z
4 x,1/2-y,1/2+z
_cell_length_a                   16.5624(15)
_cell_length_b                   7.1730(7)
_cell_length_c                   15.0194(14)
_cell_angle_alpha                90
_cell_angle_beta                 98.237(2)
_cell_angle_gamma                90
_cell_volume                     1765.93
_exptl_crystal_colour            yellow
_exptl_crystal_description       block
_cell_formula_units_Z            4
loop_
_atom_site_label
_atom_site_type_symbol
_atom_site_fract_x
_atom_site_fract_y
_atom_site_fract_z
C1 C 0.37418(9) 0.78772(19) 0.90534(9)
C2 C 0.32639(10) 0.7642(2) 0.82166(10)
C3 C 0.24371(9) 0.7946(2) 0.81497(9)
C4 C 0.20786(10) 0.8509(2) 0.88947(11)
C5 C 0.25563(10) 0.8730(2) 0.97148(11)
C6 C 0.33981(9) 0.84085(19) 0.98082(9)
C7 C 0.39130(10) 0.8563(2) 1.06906(10)
C8 C 0.47534(10) 0.7917(2) 1.07029(11)
C9 C 0.52937(13) 0.7727(2) 1.15151(13)
C10 C 0.60764(13) 0.7096(3) 1.15065(16)
C11 C 0.63491(12) 0.6694(3) 1.06950(17)
C12 C 0.58393(11) 0.6862(2) 0.98917(14)
C13 C 0.50388(10) 0.7443(2) 0.99073(11)
C14 C 0.18505(9) 0.9000(2) 0.66319(9)
C15 C 0.23313(10) 1.0591(2) 0.66908(10)
C16 C 0.22289(11) 1.1933(2) 0.60204(11)
C17 C 0.16405(11) 1.1694(2) 0.52757(11)
C18 C 0.11567(10) 1.0113(2) 0.52053(10)
C19 C 0.12611(9) 0.8785(2) 0.58733(9)
C20 C 0.08338(9) 0.5909(2) 0.64333(9)
C21 C 0.03132(10) 0.4405(2) 0.63102(10)
C22 C 0.03494(10) 0.3022(2) 0.69603(11)
C23 C 0.09135(10) 0.3166(2) 0.77293(11)
C24 C 0.14428(10) 0.4676(2) 0.78520(10)
C25 C 0.14072(9) 0.6079(2) 0.72084(9)
H1 H 0.3508(10) 0.722(2) 0.7719(12)
H2 H 0.1493(11) 0.871(2) 0.8830(11)
H3 H 0.2321(11) 0.910(3) 1.0237(12)
H4 H 0.5089(12) 0.805(3) 1.2064(13)
H5 H 0.6409(14) 0.690(3) 1.2055(15)
H6 H 0.6904(14) 0.629(3) 1.0671(14)
H7 H 0.6028(13) 0.656(3) 0.9292(15)
H8 H 0.2741(11) 1.076(2) 0.7205(12)
H9 H 0.2562(12) 1.306(3) 0.6093(13)
H10 H 0.1548(11) 1.265(3) 0.4823(12)
H11 H 0.0741(11) 0.989(3) 0.4699(12)
H12 H -0.0057(10) 0.434(2) 0.5770(12)
H13 H -0.0007(12) 0.197(3) 0.6860(12)
H14 H 0.0956(11) 0.218(3) 0.8171(12)
H15 H 0.1837(10) 0.479(2) 0.8389(11)
N1 N 0.19282(8) 0.76336(19) 0.73055(9)
O1 O 0.45545(6) 0.75060(15) 0.90848(7)
O2 O 0.36487(8) 0.91663(18) 1.13588(7)
O3 O 0.07651(8) 0.72261(17) 0.57511(8)
loop_
_geom_bond_atom_site_label_1
_geom_bond_atom_site_label_2
_geom_bond_site_symmetry_1
_geom_bond_site_symmetry_2
C1 C2 1_555 1_555
C2 C3 1_555 1_555
C3 C4 1_555 1_555
C4 C5 1_555 1_555
C5 C6 1_555 1_555
C6 C1 1_555 1_555
C7 C6 1_555 1_555
C8 C7 1_555 1_555
C9 C8 1_555 1_555
C10 C9 1_555 1_555
C11 C10 1_555 1_555
C12 C11 1_555 1_555
C13 C8 1_555 1_555
C14 C15 1_555 1_555
C15 C16 1_555 1_555
C16 C17 1_555 1_555
C17 C18 1_555 1_555
C18 C19 1_555 1_555
C19 C14 1_555 1_555
C20 C21 1_555 1_555
C21 C22 1_555 1_555
C22 C23 1_555 1_555
C23 C24 1_555 1_555
C24 C25 1_555 1_555
C25 C20 1_555 1_555
H1 C2 1_555 1_555
H2 C4 1_555 1_555
H3 C5 1_555 1_555
H4 C9 1_555 1_555
H5 C10 1_555 1_555
H6 C11 1_555 1_555
H7 C12 1_555 1_555
H8 C15 1_555 1_555
H9 C16 1_555 1_555
H10 C17 1_555 1_555
H11 C18 1_555 1_555
H12 C21 1_555 1_555
H13 C22 1_555 1_555
H14 C23 1_555 1_555
H15 C24 1_555 1_555
N1 C3 1_555 1_555
O1 C1 1_555 1_555
O2 C7 1_555 1_555
O3 C19 1_555 1_555
C12 C13 1_555 1_555
C13 O1 1_555 1_555
C14 N1 1_555 1_555
C20 O3 1_555 1_555
C25 N1 1_555 1_555

#END
