
#######################################################################
#
#                 Cambridge Crystallographic Data Centre
#                                CCDC 
#
#######################################################################
#
# If this CIF has been generated from an entry in the Cambridge 
# Structural Database, then it will include bibliographic, chemical, 
# crystal, experimental, refinement or atomic coordinate data resulting 
# from the CCDC's data processing and validation procedures.
#
#######################################################################

data_TEGVAF
_chemical_formula_moiety         'C25 H15 N1 O3'
_chemical_name_systematic        3-(10H-phenoxazin-10-yl)-9H-xanthen-9-one
_symmetry_cell_setting           triclinic
_symmetry_space_group_name_H-M   'P -1'
_symmetry_Int_Tables_number      2
_space_group_name_Hall           '-P 1'
loop_
_symmetry_equiv_pos_site_id
_symmetry_equiv_pos_as_xyz
1 x,y,z
2 -x,-y,-z
_cell_length_a                   7.6864(12)
_cell_length_b                   9.8437(15)
_cell_length_c                   11.9074(18)
_cell_angle_alpha                81.361(3)
_cell_angle_beta                 88.475(3)
_cell_angle_gamma                89.013(3)
_cell_volume                     890.328
_exptl_crystal_colour            green
_exptl_crystal_description       block
_cell_formula_units_Z            2
loop_
_atom_site_label
_atom_site_type_symbol
_atom_site_fract_x
_atom_site_fract_y
_atom_site_fract_z
O1 O 0.2517(3) 0.4881(2) 0.03679(19)
O2 O 0.6679(3) -0.0917(2) 0.41873(18)
N1 N 0.4804(3) 0.2968(2) 0.1578(2)
C1 C 0.9702(4) -0.1650(3) 0.4368(3)
C2 C 0.8868(4) 0.0402(3) 0.3019(3)
C3 C 0.3642(4) 0.2534(3) 0.0812(3)
C4 C 0.7144(4) 0.0154(3) 0.3365(3)
C5 C 0.4688(4) 0.4319(3) 0.1812(3)
C6 C 1.0281(4) -0.0498(3) 0.3516(3)
O3 O 1.1819(3) -0.0315(2) 0.3247(2)
C7 C 0.7951(4) -0.1797(3) 0.4676(3)
C8 C 0.5782(4) 0.0982(3) 0.2901(3)
C9 C 0.6170(4) 0.2079(3) 0.2072(3)
C10 C 0.2512(4) 0.3508(3) 0.0224(3)
C11 C 0.3528(4) 0.5249(3) 0.1222(3)
C12 C 0.9217(4) 0.1524(3) 0.2182(3)
C13 C 0.7891(4) 0.2359(3) 0.1703(3)
C14 C 0.3335(5) 0.6566(3) 0.1450(3)
C15 C 0.7370(5) -0.2848(4) 0.5492(3)
C16 C 0.2389(5) 0.0832(4) -0.0185(3)
C17 C 0.1290(5) 0.1805(4) -0.0751(3)
C18 C 0.1351(4) 0.3148(4) -0.0532(3)
C19 C 0.3550(4) 0.1201(3) 0.0592(3)
C20 C 1.0878(5) -0.2634(4) 0.4909(3)
C21 C 0.5644(5) 0.4770(4) 0.2649(3)
C22 C 0.4299(5) 0.7012(4) 0.2288(3)
C23 C 1.0297(5) -0.3697(4) 0.5702(3)
C24 C 0.8546(5) -0.3796(4) 0.5992(3)
C25 C 0.5448(5) 0.6103(4) 0.2886(4)
H1 H 0.463(4) 0.087(3) 0.318(3)
H2 H 0.812(4) 0.323(3) 0.117(3)
H3 H 1.037(4) 0.169(3) 0.199(3)
H4 H 1.206(4) -0.248(3) 0.469(2)
H5 H 0.618(4) -0.296(3) 0.570(2)
H6 H 0.430(4) 0.051(3) 0.097(2)
H7 H 0.231(4) -0.009(3) -0.033(3)
H8 H 0.069(4) 0.382(3) -0.098(2)
H9 H 0.640(4) 0.414(3) 0.309(2)
H10 H 0.819(4) -0.451(3) 0.660(2)
H11 H 1.118(5) -0.431(3) 0.609(3)
H12 H 0.042(4) 0.158(3) -0.130(3)
H13 H 0.260(4) 0.713(3) 0.099(3)
H14 H 0.616(4) 0.639(3) 0.348(3)
H15 H 0.424(4) 0.786(3) 0.238(3)
loop_
_geom_bond_atom_site_label_1
_geom_bond_atom_site_label_2
_geom_bond_site_symmetry_1
_geom_bond_site_symmetry_2
O1 C10 1_555 1_555
O2 C4 1_555 1_555
N1 C3 1_555 1_555
C1 C6 1_555 1_555
C2 C4 1_555 1_555
C3 C10 1_555 1_555
C4 C8 1_555 1_555
C5 N1 1_555 1_555
C6 C2 1_555 1_555
O3 C6 1_555 1_555
C7 O2 1_555 1_555
C8 C9 1_555 1_555
C9 N1 1_555 1_555
C10 C18 1_555 1_555
C11 O1 1_555 1_555
C12 C2 1_555 1_555
C13 C9 1_555 1_555
C14 C11 1_555 1_555
C15 C7 1_555 1_555
C16 C17 1_555 1_555
C17 C18 1_555 1_555
C18 H8 1_555 1_555
C19 C3 1_555 1_555
C20 C1 1_555 1_555
C21 C5 1_555 1_555
C22 C14 1_555 1_555
C23 C20 1_555 1_555
C24 C15 1_555 1_555
C25 C21 1_555 1_555
H1 C8 1_555 1_555
H2 C13 1_555 1_555
H3 C12 1_555 1_555
H4 C20 1_555 1_555
H5 C15 1_555 1_555
H6 C19 1_555 1_555
H7 C16 1_555 1_555
H9 C21 1_555 1_555
H10 C24 1_555 1_555
H11 C23 1_555 1_555
H12 C17 1_555 1_555
H13 C14 1_555 1_555
H14 C25 1_555 1_555
H15 C22 1_555 1_555
C1 C7 1_555 1_555
C5 C11 1_555 1_555
C12 C13 1_555 1_555
C16 C19 1_555 1_555
C22 C25 1_555 1_555
C23 C24 1_555 1_555

#END
