
#######################################################################
#
#                 Cambridge Crystallographic Data Centre
#                                CCDC 
#
#######################################################################
#
# If this CIF has been generated from an entry in the Cambridge 
# Structural Database, then it will include bibliographic, chemical, 
# crystal, experimental, refinement or atomic coordinate data resulting 
# from the CCDC's data processing and validation procedures.
#
#######################################################################

data_TEGVAF01
_chemical_formula_moiety         'C25 H15 N1 O3'
_chemical_name_systematic        3-(10H-phenoxazin-10-yl)-9H-xanthen-9-one
_symmetry_cell_setting           monoclinic
_symmetry_space_group_name_H-M   'P 21/c'
_symmetry_Int_Tables_number      14
_space_group_name_Hall           '-P 2ybc'
loop_
_symmetry_equiv_pos_site_id
_symmetry_equiv_pos_as_xyz
1 x,y,z
2 -x,1/2+y,1/2-z
3 -x,-y,-z
4 x,1/2-y,1/2+z
_cell_length_a                   14.589(18)
_cell_length_b                   13.252(15)
_cell_length_c                   9.235(11)
_cell_angle_alpha                90
_cell_angle_beta                 91.95(2)
_cell_angle_gamma                90
_cell_volume                     1784.4
_exptl_crystal_colour            orange
_exptl_crystal_description       block
_cell_formula_units_Z            4
loop_
_atom_site_label
_atom_site_type_symbol
_atom_site_fract_x
_atom_site_fract_y
_atom_site_fract_z
O1 O 0.70655(13) 0.80187(15) 0.1211(2)
C1 C 0.66484(17) 0.9715(2) 0.0474(3)
C2 C 0.71728(17) 0.9043(2) 0.1308(3)
C3 C 0.59798(18) 0.9338(2) -0.0608(3)
O2 O 0.55565(14) 0.98977(16) -0.1447(2)
C4 C 0.64215(18) 0.7631(2) 0.0256(3)
O3 O 1.01333(14) 1.12630(18) 0.5329(2)
N1 N 0.86997(16) 1.0760(2) 0.3388(3)
C5 C 0.58811(18) 0.8234(2) -0.0651(3)
C6 C 0.95629(19) 1.1003(2) 0.2868(3)
C7 C 0.78518(19) 0.9380(3) 0.2269(3)
C8 C 0.9241(2) 1.1217(2) 0.5780(3)
C9 C 0.85194(19) 1.0950(2) 0.4839(3)
C10 C 0.6794(2) 1.0749(3) 0.0674(3)
C11 C 0.9768(2) 1.0988(2) 0.1419(3)
C12 C 0.79889(19) 1.0402(3) 0.2415(3)
C13 C 1.02620(19) 1.1278(2) 0.3860(3)
C14 C 0.6342(2) 0.6584(3) 0.0230(4)
C15 C 0.7655(2) 1.0879(2) 0.5393(3)
C16 C 0.8235(2) 1.1314(3) 0.7756(3)
C17 C 0.5250(2) 0.7762(3) -0.1604(4)
C18 C 0.9102(2) 1.1403(2) 0.7212(3)
C19 C 0.7455(2) 1.1096(3) 0.1639(3)
C20 C 1.0634(2) 1.1244(3) 0.0967(4)
C21 C 1.1115(2) 1.1544(2) 0.3409(4)
C22 C 0.5178(2) 0.6729(3) -0.1635(4)
C23 C 0.7516(2) 1.1044(3) 0.6847(3)
C24 C 0.5726(2) 0.6140(3) -0.0717(4)
C25 C 1.1307(2) 1.1528(3) 0.1960(4)
H1 H 0.813(2) 1.143(2) 0.879(3)
H2 H 0.962(2) 1.160(2) 0.787(3)
H3 H 1.191(2) 1.169(2) 0.161(3)
H4 H 0.7147(18) 1.070(2) 0.477(3)
H5 H 0.9294(18) 1.0823(19) 0.074(3)
H6 H 0.8225(18) 0.888(2) 0.285(3)
H7 H 0.6419(18) 1.120(2) 0.015(3)
H8 H 0.486(2) 0.823(2) -0.218(3)
H9 H 0.670(2) 0.619(2) 0.090(3)
H10 H 0.691(2) 1.097(2) 0.717(3)
H11 H 1.157(2) 1.171(2) 0.416(3)
H12 H 1.073(2) 1.123(2) -0.009(3)
H13 H 0.477(3) 0.641(3) -0.229(4)
H14 H 0.570(2) 0.542(3) -0.077(3)
H15 H 0.756(2) 1.178(3) 0.174(3)
loop_
_geom_bond_atom_site_label_1
_geom_bond_atom_site_label_2
_geom_bond_site_symmetry_1
_geom_bond_site_symmetry_2
O1 C2 1_555 1_555
C1 C2 1_555 1_555
C2 C7 1_555 1_555
C3 C1 1_555 1_555
O2 C3 1_555 1_555
C4 O1 1_555 1_555
O3 C8 1_555 1_555
N1 C6 1_555 1_555
C5 C3 1_555 1_555
C6 C11 1_555 1_555
C7 C12 1_555 1_555
C8 C9 1_555 1_555
C9 N1 1_555 1_555
C10 C1 1_555 1_555
C11 C20 1_555 1_555
C12 N1 1_555 1_555
C13 O3 1_555 1_555
C14 C4 1_555 1_555
C15 C9 1_555 1_555
C16 C18 1_555 1_555
C17 C5 1_555 1_555
C18 C8 1_555 1_555
C19 C10 1_555 1_555
C20 C25 1_555 1_555
C21 C13 1_555 1_555
C22 C17 1_555 1_555
C23 C15 1_555 1_555
C24 C14 1_555 1_555
C25 C21 1_555 1_555
H1 C16 1_555 1_555
H2 C18 1_555 1_555
H3 C25 1_555 1_555
H4 C15 1_555 1_555
H5 C11 1_555 1_555
H6 C7 1_555 1_555
H7 C10 1_555 1_555
H8 C17 1_555 1_555
H9 C14 1_555 1_555
H10 C23 1_555 1_555
H11 C21 1_555 1_555
H12 C20 1_555 1_555
H13 C22 1_555 1_555
H14 C24 1_555 1_555
H15 C19 1_555 1_555
C4 C5 1_555 1_555
C6 C13 1_555 1_555
C12 C19 1_555 1_555
C16 C23 1_555 1_555
C22 C24 1_555 1_555

#END
