
#######################################################################
#
#                 Cambridge Crystallographic Data Centre
#                                CCDC 
#
#######################################################################
#
# If this CIF has been generated from an entry in the Cambridge 
# Structural Database, then it will include bibliographic, chemical, 
# crystal, experimental, refinement or atomic coordinate data resulting 
# from the CCDC's data processing and validation procedures.
#
#######################################################################

data_TEGWOU
_chemical_formula_moiety         'C33 H28 O1'
_chemical_name_systematic        
(1S,1aS,7bR)-1-((1s,2R,3S)-2,3-diphenylcyclopropyl)-3-methoxy-1a-phenyl-1a,7b-dihydro-1H-cyclopropa[a]naphthalene
_symmetry_cell_setting           monoclinic
_symmetry_space_group_name_H-M   'P 21/n'
_symmetry_Int_Tables_number      14
_space_group_name_Hall           '-P 2yn'
loop_
_symmetry_equiv_pos_site_id
_symmetry_equiv_pos_as_xyz
1 x,y,z
2 1/2-x,1/2+y,1/2-z
3 -x,-y,-z
4 1/2+x,1/2-y,1/2+z
_cell_length_a                   15.0649(8)
_cell_length_b                   9.9259(6)
_cell_length_c                   16.1346(8)
_cell_angle_alpha                90
_cell_angle_beta                 94.4899(18)
_cell_angle_gamma                90
_cell_volume                     2405.25
_exptl_crystal_colour            colorless
_exptl_crystal_description       block
_cell_formula_units_Z            4
loop_
_atom_site_label
_atom_site_type_symbol
_atom_site_fract_x
_atom_site_fract_y
_atom_site_fract_z
C1 C 0.22896(9) 0.25578(14) 1.06783(9)
C2 C 0.25179(9) 0.12176(13) 1.10282(8)
C3 C 0.21148(9) 0.07050(15) 1.17139(9)
H1 H 0.1626 0.1171 1.1919
C4 C 0.24197(10) -0.04744(15) 1.20982(9)
H2 H 0.2139 -0.0813 1.2562
C5 C 0.31333(10) -0.11600(15) 1.18072(9)
H3 H 0.3353 -0.1956 1.2078
C6 C 0.35240(9) -0.06763(14) 1.11188(9)
H4 H 0.4011 -0.1152 1.0919
C7 C 0.32188(9) 0.04926(13) 1.07131(8)
C8 C 0.36348(9) 0.09659(13) 0.99679(8)
H5 H 0.4267 0.0680 0.9930
C9 C 0.34079(9) 0.23833(13) 0.96392(8)
C10 C 0.27317(9) 0.31264(13) 1.00827(9)
H6 H 0.2609 0.4039 0.9938
C11 C 0.13771(11) 0.44964(16) 1.08181(11)
H7 H 0.1890 0.5097 1.0920
H8 H 0.0888 0.4813 1.1134
H9 H 0.1186 0.4495 1.0223
C12 C 0.30936(9) 0.11401(13) 0.91403(8)
H10 H 0.2445 0.0927 0.9141
C13 C 0.35110(9) 0.08122(13) 0.83583(8)
H11 H 0.4145 0.1108 0.8351
C14 C 0.32881(9) -0.04464(14) 0.78673(8)
H12 H 0.2812 -0.1017 0.8086
C15 C 0.29738(9) 0.09351(14) 0.75303(9)
H13 H 0.2326 0.1105 0.7583
C16 C 0.39994(9) -0.12081(13) 0.74765(9)
C17 C 0.48501(10) -0.13409(14) 0.78668(9)
H14 H 0.4983 -0.0941 0.8397
C18 C 0.55090(10) -0.20468(15) 0.74958(10)
H15 H 0.6090 -0.2113 0.7768
C19 C 0.53223(10) -0.26506(15) 0.67343(10)
H16 H 0.5770 -0.3144 0.6483
C20 C 0.44780(10) -0.25349(16) 0.63362(10)
H17 H 0.4347 -0.2946 0.5809
C21 C 0.38241(10) -0.18213(15) 0.67051(9)
H18 H 0.3246 -0.1749 0.6427
C22 C 0.33159(10) 0.15904(15) 0.67895(9)
C23 C 0.27164(11) 0.18656(15) 0.61085(9)
H19 H 0.2117 0.1570 0.6112
C24 C 0.29810(13) 0.25640(17) 0.54247(10)
H20 H 0.2563 0.2743 0.4966
C25 C 0.38453(13) 0.29978(19) 0.54079(11)
H21 H 0.4022 0.3501 0.4948
C26 C 0.44539(12) 0.2697(2) 0.60642(11)
H22 H 0.5056 0.2972 0.6049
C27 C 0.41932(11) 0.19958(19) 0.67456(10)
H23 H 0.4622 0.1788 0.7191
C28 C 0.41282(9) 0.32245(13) 0.93090(9)
C29 C 0.39349(10) 0.40248(15) 0.86089(9)
H24 H 0.3347 0.4032 0.8348
C30 C 0.45860(11) 0.48105(16) 0.82869(10)
H25 H 0.4442 0.5362 0.7814
C31 C 0.54449(10) 0.47894(15) 0.86553(10)
H26 H 0.5896 0.5314 0.8431
C32 C 0.56465(10) 0.40027(15) 0.93523(10)
H27 H 0.6236 0.3993 0.9609
C33 C 0.49932(9) 0.32298(14) 0.96780(9)
H28 H 0.5138 0.2697 1.0159
O1 O 0.16222(7) 0.31596(10) 1.10761(7)
loop_
_geom_bond_atom_site_label_1
_geom_bond_atom_site_label_2
_geom_bond_site_symmetry_1
_geom_bond_site_symmetry_2
C1 C2 1_555 1_555
C2 C3 1_555 1_555
C3 H1 1_555 1_555
C4 C3 1_555 1_555
H2 C4 1_555 1_555
C5 C4 1_555 1_555
H3 C5 1_555 1_555
C6 C5 1_555 1_555
H4 C6 1_555 1_555
C7 C2 1_555 1_555
C8 C7 1_555 1_555
H5 C8 1_555 1_555
C9 C8 1_555 1_555
C10 C1 1_555 1_555
H6 C10 1_555 1_555
C11 H7 1_555 1_555
H8 C11 1_555 1_555
H9 C11 1_555 1_555
C12 C8 1_555 1_555
H10 C12 1_555 1_555
C13 C12 1_555 1_555
H11 C13 1_555 1_555
C14 C13 1_555 1_555
H12 C14 1_555 1_555
C15 C13 1_555 1_555
H13 C15 1_555 1_555
C16 C14 1_555 1_555
C17 C16 1_555 1_555
H14 C17 1_555 1_555
C18 C17 1_555 1_555
H15 C18 1_555 1_555
C19 C18 1_555 1_555
H16 C19 1_555 1_555
C20 C19 1_555 1_555
H17 C20 1_555 1_555
C21 C16 1_555 1_555
H18 C21 1_555 1_555
C22 C15 1_555 1_555
C23 C22 1_555 1_555
H19 C23 1_555 1_555
C24 C23 1_555 1_555
H20 C24 1_555 1_555
C25 C24 1_555 1_555
H21 C25 1_555 1_555
C26 C25 1_555 1_555
H22 C26 1_555 1_555
C27 C22 1_555 1_555
H23 C27 1_555 1_555
C28 C9 1_555 1_555
C29 C28 1_555 1_555
H24 C29 1_555 1_555
C30 C29 1_555 1_555
H25 C30 1_555 1_555
C31 C30 1_555 1_555
H26 C31 1_555 1_555
C32 C31 1_555 1_555
H27 C32 1_555 1_555
C33 C28 1_555 1_555
H28 C33 1_555 1_555
O1 C1 1_555 1_555
C6 C7 1_555 1_555
C9 C10 1_555 1_555
C9 C12 1_555 1_555
C11 O1 1_555 1_555
C14 C15 1_555 1_555
C20 C21 1_555 1_555
C26 C27 1_555 1_555
C32 C33 1_555 1_555

#END
