
#######################################################################
#
#                 Cambridge Crystallographic Data Centre
#                                CCDC 
#
#######################################################################
#
# If this CIF has been generated from an entry in the Cambridge 
# Structural Database, then it will include bibliographic, chemical, 
# crystal, experimental, refinement or atomic coordinate data resulting 
# from the CCDC's data processing and validation procedures.
#
#######################################################################

data_TEGWIO
_chemical_formula_moiety         'C33 H28 O1'
_chemical_name_systematic        
(1S,1aS,7bR)-1-((2S,3S)-2,3-diphenylcyclopropyl)-3-methoxy-1a-phenyl-1a,7b-dihydro-1H-cyclopropa[a]naphthalene
_symmetry_cell_setting           monoclinic
_symmetry_space_group_name_H-M   'P 21/c'
_symmetry_Int_Tables_number      14
_space_group_name_Hall           '-P 2ybc'
loop_
_symmetry_equiv_pos_site_id
_symmetry_equiv_pos_as_xyz
1 x,y,z
2 -x,1/2+y,1/2-z
3 -x,-y,-z
4 x,1/2-y,1/2+z
_cell_length_a                   22.2327(12)
_cell_length_b                   5.5071(4)
_cell_length_c                   38.990(2)
_cell_angle_alpha                90
_cell_angle_beta                 91.340(2)
_cell_angle_gamma                90
_cell_volume                     4772.54
_exptl_crystal_colour            colorless
_exptl_crystal_description       needle
_cell_formula_units_Z            8
loop_
_atom_site_label
_atom_site_type_symbol
_atom_site_fract_x
_atom_site_fract_y
_atom_site_fract_z
C1 C 0.31661(9) 0.3391(5) 0.43762(5)
C2 C 0.36318(9) 0.1777(4) 0.45232(6)
C3 C 0.37466(10) 0.1641(5) 0.48746(6)
H1 H 0.3548 0.2724 0.5024
C4 C 0.41448(10) -0.0042(5) 0.50090(6)
H2 H 0.4224 -0.0095 0.5249
C5 C 0.44294(10) -0.1659(5) 0.47941(6)
H3 H 0.4690 -0.2869 0.4888
C6 C 0.43333(10) -0.1508(5) 0.44438(6)
H4 H 0.4534 -0.2601 0.4297
C7 C 0.39453(9) 0.0230(5) 0.43038(5)
C8 C 0.38775(9) 0.0513(4) 0.39287(5)
H5 H 0.3963 -0.0977 0.3791
C9 C 0.33770(9) 0.2149(4) 0.37816(5)
C10 C 0.30195(9) 0.3446(4) 0.40423(5)
H6 H 0.2675 0.4344 0.3969
C11 C 0.24421(10) 0.6392(5) 0.45168(6)
H7 H 0.2627 0.7575 0.4364
H8 H 0.2283 0.7234 0.4717
H9 H 0.2113 0.5554 0.4394
C12 C 0.40340(9) 0.2899(4) 0.37583(5)
H10 H 0.4162 0.4221 0.3920
C13 C 0.43590(9) 0.2850(4) 0.34288(5)
H11 H 0.4268 0.1404 0.3281
C14 C 0.49830(9) 0.3851(4) 0.33927(5)
H12 H 0.5231 0.2950 0.3224
C15 C 0.44534(9) 0.5196(5) 0.32311(5)
H13 H 0.4335 0.6694 0.3358
C16 C 0.53424(9) 0.4963(5) 0.36826(5)
C17 C 0.54414(10) 0.3742(5) 0.39908(6)
H14 H 0.5243 0.2244 0.4030
C18 C 0.58279(11) 0.4696(5) 0.42410(6)
H15 H 0.5892 0.3842 0.4450
C19 C 0.61191(10) 0.6869(5) 0.41885(6)
H16 H 0.6394 0.7484 0.4357
C20 C 0.60076(10) 0.8143(5) 0.38890(6)
H17 H 0.6200 0.9659 0.3853
C21 C 0.56140(9) 0.7208(5) 0.36403(6)
H18 H 0.5530 0.8121 0.3438
C22 C 0.43102(9) 0.5269(4) 0.28564(5)
C23 C 0.44799(9) 0.3430(5) 0.26354(5)
H19 H 0.4735 0.2161 0.2717
C24 C 0.42802(10) 0.3432(5) 0.22958(6)
H20 H 0.4396 0.2156 0.2147
C25 C 0.39146(9) 0.5276(5) 0.21722(6)
H21 H 0.3773 0.5258 0.1940
C26 C 0.37565(10) 0.7147(5) 0.23883(6)
H22 H 0.3515 0.8446 0.2303
C27 C 0.39493(9) 0.7135(5) 0.27287(6)
H23 H 0.3834 0.8416 0.2876
C28 C 0.30381(9) 0.1346(5) 0.34639(5)
C29 C 0.30250(9) 0.2764(5) 0.31683(5)
H24 H 0.3230 0.4278 0.3168
C30 C 0.27164(10) 0.1995(5) 0.28741(6)
H25 H 0.2720 0.2963 0.2672
C31 C 0.24054(10) -0.0165(5) 0.28739(6)
H26 H 0.2197 -0.0698 0.2672
C32 C 0.23981(11) -0.1559(5) 0.31702(6)
H27 H 0.2173 -0.3024 0.3174
C33 C 0.27177(10) -0.0821(5) 0.34593(6)
H28 H 0.2719 -0.1812 0.3659
O1 O 0.28817(7) 0.4669(3) 0.46272(4)
C34 C 0.11746(10) 0.1876(5) 0.03874(6)
C35 C 0.16371(9) 0.3659(5) 0.04954(6)
C36 C 0.21687(10) 0.3967(5) 0.03158(6)
H29 H 0.2255 0.2927 0.0129
C37 C 0.25700(10) 0.5792(5) 0.04108(6)
H30 H 0.2928 0.6009 0.0286
C38 C 0.24541(10) 0.7290(5) 0.06840(6)
H31 H 0.2732 0.8529 0.0748
C39 C 0.19316(10) 0.6981(5) 0.08640(6)
H32 H 0.1852 0.8022 0.1052
C40 C 0.15202(9) 0.5173(5) 0.07751(6)
C41 C 0.09702(9) 0.4844(5) 0.09757(6)
H33 H 0.0818 0.6348 0.1088
C42 C 0.04811(9) 0.3081(5) 0.08461(6)
C43 C 0.06387(9) 0.1696(5) 0.05347(6)
H34 H 0.0346 0.0635 0.0435
C44 C 0.09498(11) -0.1311(5) -0.00094(6)
H35 H 0.0866 -0.2445 0.0177
H36 H 0.1132 -0.2194 -0.0199
H37 H 0.0574 -0.0554 -0.0090
C45 C 0.08507(9) 0.2494(5) 0.11675(6)
H38 H 0.1162 0.1209 0.1136
C46 C 0.06161(10) 0.2648(5) 0.15228(6)
H39 H 0.0341 0.4047 0.1565
C47 C 0.10118(9) 0.1914(5) 0.18246(6)
H40 H 0.0956 0.2905 0.2037
C48 C 0.04796(9) 0.0356(5) 0.17224(6)
H41 H 0.0587 -0.1183 0.1602
C49 C 0.16425(10) 0.1052(5) 0.17736(6)
C50 C 0.20393(10) 0.2510(5) 0.15956(6)
H42 H 0.1907 0.4033 0.1508
C51 C 0.26265(10) 0.1762(6) 0.15452(7)
H43 H 0.2891 0.2764 0.1420
C52 C 0.28273(10) -0.0403(6) 0.16740(6)
H44 H 0.3230 -0.0905 0.1640
C53 C 0.24407(10) -0.1856(6) 0.18541(6)
H45 H 0.2580 -0.3353 0.1947
C54 C 0.18496(10) -0.1144(5) 0.19004(6)
H46 H 0.1585 -0.2177 0.2021
C55 C -0.00791(10) 0.0205(5) 0.19250(6)
C56 C -0.02207(10) 0.1911(5) 0.21724(6)
H47 H 0.0055 0.3184 0.2225
C57 C -0.07618(11) 0.1780(5) 0.23446(6)
H48 H -0.0853 0.2962 0.2513
C58 C -0.11644(10) -0.0059(5) 0.22715(6)
H49 H -0.1533 -0.0149 0.2389
C59 C -0.10301(11) -0.1763(5) 0.20275(7)
H50 H -0.1307 -0.3034 0.1977
C60 C -0.04926(10) -0.1637(5) 0.18556(7)
H51 H -0.0405 -0.2827 0.1688
C61 C -0.01714(10) 0.3796(5) 0.08733(6)
C62 C -0.05654(10) 0.2448(6) 0.10623(6)
H52 H -0.0426 0.1031 0.1178
C63 C -0.11646(11) 0.3136(6) 0.10859(7)
H53 H -0.1429 0.2205 0.1222
C64 C -0.13780(11) 0.5156(6) 0.09139(8)
H54 H -0.1785 0.5650 0.0934
C65 C -0.09943(12) 0.6435(6) 0.07142(10)
H55 H -0.1140 0.7792 0.0587
C66 C -0.03914(12) 0.5777(6) 0.06942(9)
H56 H -0.0130 0.6701 0.0556
O2 O 0.13553(7) 0.0523(3) 0.01128(4)
loop_
_geom_bond_atom_site_label_1
_geom_bond_atom_site_label_2
_geom_bond_site_symmetry_1
_geom_bond_site_symmetry_2
C1 C2 1_555 1_555
C2 C3 1_555 1_555
C3 H1 1_555 1_555
C4 C3 1_555 1_555
H2 C4 1_555 1_555
C5 C4 1_555 1_555
H3 C5 1_555 1_555
C6 C5 1_555 1_555
H4 C6 1_555 1_555
C7 C2 1_555 1_555
C8 C7 1_555 1_555
H5 C8 1_555 1_555
C9 C8 1_555 1_555
C10 C1 1_555 1_555
H6 C10 1_555 1_555
C11 H7 1_555 1_555
H8 C11 1_555 1_555
H9 C11 1_555 1_555
C12 C8 1_555 1_555
H10 C12 1_555 1_555
C13 C12 1_555 1_555
H11 C13 1_555 1_555
C14 C13 1_555 1_555
H12 C14 1_555 1_555
C15 C13 1_555 1_555
H13 C15 1_555 1_555
C16 C14 1_555 1_555
C17 C16 1_555 1_555
H14 C17 1_555 1_555
C18 C17 1_555 1_555
H15 C18 1_555 1_555
C19 C18 1_555 1_555
H16 C19 1_555 1_555
C20 C19 1_555 1_555
H17 C20 1_555 1_555
C21 C16 1_555 1_555
H18 C21 1_555 1_555
C22 C15 1_555 1_555
C23 C22 1_555 1_555
H19 C23 1_555 1_555
C24 C23 1_555 1_555
H20 C24 1_555 1_555
C25 C24 1_555 1_555
H21 C25 1_555 1_555
C26 C25 1_555 1_555
H22 C26 1_555 1_555
C27 C22 1_555 1_555
H23 C27 1_555 1_555
C28 C9 1_555 1_555
C29 C28 1_555 1_555
H24 C29 1_555 1_555
C30 C29 1_555 1_555
H25 C30 1_555 1_555
C31 C30 1_555 1_555
H26 C31 1_555 1_555
C32 C31 1_555 1_555
H27 C32 1_555 1_555
C33 C28 1_555 1_555
H28 C33 1_555 1_555
O1 C1 1_555 1_555
C34 C35 1_555 1_555
C35 C36 1_555 1_555
C36 H29 1_555 1_555
C37 C36 1_555 1_555
H30 C37 1_555 1_555
C38 C37 1_555 1_555
H31 C38 1_555 1_555
C39 C38 1_555 1_555
H32 C39 1_555 1_555
C40 C35 1_555 1_555
C41 C40 1_555 1_555
H33 C41 1_555 1_555
C42 C41 1_555 1_555
C43 C34 1_555 1_555
H34 C43 1_555 1_555
C44 H35 1_555 1_555
H36 C44 1_555 1_555
H37 C44 1_555 1_555
C45 C41 1_555 1_555
H38 C45 1_555 1_555
C46 C45 1_555 1_555
H39 C46 1_555 1_555
C47 C46 1_555 1_555
H40 C47 1_555 1_555
C48 C46 1_555 1_555
H41 C48 1_555 1_555
C49 C47 1_555 1_555
C50 C49 1_555 1_555
H42 C50 1_555 1_555
C51 C50 1_555 1_555
H43 C51 1_555 1_555
C52 C51 1_555 1_555
H44 C52 1_555 1_555
C53 C52 1_555 1_555
H45 C53 1_555 1_555
C54 C49 1_555 1_555
H46 C54 1_555 1_555
C55 C48 1_555 1_555
C56 C55 1_555 1_555
H47 C56 1_555 1_555
C57 C56 1_555 1_555
H48 C57 1_555 1_555
C58 C57 1_555 1_555
H49 C58 1_555 1_555
C59 C58 1_555 1_555
H50 C59 1_555 1_555
C60 C55 1_555 1_555
H51 C60 1_555 1_555
C61 C42 1_555 1_555
C62 C61 1_555 1_555
H52 C62 1_555 1_555
C63 C62 1_555 1_555
H53 C63 1_555 1_555
C64 C63 1_555 1_555
H54 C64 1_555 1_555
C65 C64 1_555 1_555
H55 C65 1_555 1_555
C66 C61 1_555 1_555
H56 C66 1_555 1_555
O2 C34 1_555 1_555
C6 C7 1_555 1_555
C9 C10 1_555 1_555
C9 C12 1_555 1_555
C11 O1 1_555 1_555
C14 C15 1_555 1_555
C20 C21 1_555 1_555
C26 C27 1_555 1_555
C32 C33 1_555 1_555
C39 C40 1_555 1_555
C42 C43 1_555 1_555
C42 C45 1_555 1_555
C44 O2 1_555 1_555
C47 C48 1_555 1_555
C53 C54 1_555 1_555
C59 C60 1_555 1_555
C65 C66 1_555 1_555

#END
