
#######################################################################
#
#                 Cambridge Crystallographic Data Centre
#                                CCDC 
#
#######################################################################
#
# If this CIF has been generated from an entry in the Cambridge 
# Structural Database, then it will include bibliographic, chemical, 
# crystal, experimental, refinement or atomic coordinate data resulting 
# from the CCDC's data processing and validation procedures.
#
#######################################################################

data_TEGXEI
_chemical_compound_source        'Fusarium roseum'
_chemical_name_common            'beta-Zearalenol sesquihydrate'
_chemical_formula_moiety         'C18 H24 O5,1.5(H2 O1)'
_chemical_name_systematic        
'3,4,5,6,7,8,9,10-Octahydro-7,14,16-trihydroxy-3-methyl-1H-2-benzoxacyclotetradecen-1-one sesquihydrate'
_chemical_properties_biological  'pharmacological activity'
_symmetry_cell_setting           triclinic
_symmetry_space_group_name_H-M   'P 1'
_symmetry_Int_Tables_number      1
_space_group_name_Hall           'P 1'
loop_
_symmetry_equiv_pos_site_id
_symmetry_equiv_pos_as_xyz
1 x,y,z
_cell_length_a                   8.398(2)
_cell_length_b                   9.858(2)
_cell_length_c                   12.781(3)
_cell_angle_alpha                94.89(1)
_cell_angle_beta                 103.94(2)
_cell_angle_gamma                113.36(2)
_cell_volume                     923.161
_exptl_crystal_colour            colorless
_chemical_melting_point          419-421K
_cell_formula_units_Z            2
loop_
_atom_site_label
_atom_site_type_symbol
_atom_site_fract_x
_atom_site_fract_y
_atom_site_fract_z
C1 C -0.0661(4) -0.2583(3) 0.3519(2)
C2 C -0.0918(5) -0.4008(4) 0.3314(2)
C3 C -0.2494(5) -0.5223(4) 0.2437(3)
C4 C -0.1945(6) -0.6159(4) 0.1706(3)
C5 C -0.0808(5) -0.5231(4) 0.1028(3)
C6 C -0.1820(5) -0.4762(3) 0.0104(2)
C7 C -0.0599(6) -0.3513(4) -0.0343(3)
C8 C 0.0474(5) -0.1970(4) 0.0443(3)
C9 C -0.0663(6) -0.1142(4) 0.0599(3)
C10 C 0.0420(6) 0.0333(4) 0.1458(3)
O1 O 0.0701(3) -0.0176(2) 0.2511(2)
C11 C 0.1122(5) 0.0779(3) 0.3433(2)
O2 O 0.1281(4) 0.2072(2) 0.3447(2)
C12 C 0.2227(8) 0.1338(4) 0.1329(4)
O3 O -0.2875(4) -0.6098(3) -0.0778(2)
C13 C 0.1445(4) 0.0170(3) 0.4440(2)
C14 C 0.2595(4) 0.1221(3) 0.5425(2)
C15 C 0.3130(4) 0.0760(3) 0.6383(3)
C16 C 0.2504(4) -0.0765(3) 0.6384(2)
C17 C 0.1339(4) -0.1828(3) 0.5431(2)
C18 C 0.0768(4) -0.1398(3) 0.4456(2)
O4 O 0.3246(3) 0.2743(2) 0.5486(2)
O5 O 0.2924(4) -0.1277(3) 0.7322(2)
H1 H -0.1441(45) -0.2262(35) 0.3123(26)
H2 H -0.0140(60) -0.4333(47) 0.3782(36)
H3 H -0.3148(51) -0.4838(42) 0.2047(31)
H4 H -0.3314(55) -0.5964(46) 0.2743(32)
H5 H -0.2980(57) -0.7047(47) 0.1224(33)
H6 H -0.1163(69) -0.6620(55) 0.2216(40)
H7 H 0.0275(70) -0.4360(55) 0.1500(41)
H8 H -0.0278(61) -0.5913(51) 0.0725(37)
H9 H -0.2737(51) -0.4497(37) 0.0295(27)
H10 H 0.0397(61) -0.3765(49) -0.0530(36)
H11 H -0.1441(56) -0.3376(43) -0.1050(33)
H12 H 0.1478(79) -0.1379(61) 0.0146(41)
H13 H 0.1183(61) -0.2138(47) 0.1217(35)
H14 H -0.0978(75) -0.0882(59) -0.0171(47)
H15 H -0.1736(59) -0.1820(47) 0.0853(34)
H16 H -0.0243(59) 0.0904(52) 0.1503(35)
H17 H 0.1827(78) 0.1390(63) 0.0424(46)
H18 H 0.3062(75) 0.0675(59) 0.1368(42)
H19 H 0.2953(78) 0.2243(64) 0.1923(46)
H20 H -0.3740(81) -0.5783(61) -0.1153(46)
H21 H 0.3884(55) 0.1421(46) 0.7071(34)
H22 H 0.0844(48) -0.2954(44) 0.5429(28)
H23 H 0.2621(89) 0.2751(69) 0.4767(54)
H24 H 0.3633(76) -0.0525(62) 0.7863(45)
C19 C 0.5751(5) 1.0180(3) 0.4026(3)
C20 C 0.6931(5) 1.1587(4) 0.4127(3)
C21 C 0.7268(6) 1.2894(4) 0.4983(3)
C22 C 0.9236(6) 1.3699(4) 0.5703(3)
C23 C 0.9842(5) 1.2722(4) 0.6403(3)
C24 C 0.9044(5) 1.2382(4) 0.7342(3)
C25 C 0.9627(6) 1.1331(4) 0.7972(3)
C26 C 0.8922(5) 0.9734(4) 0.7314(3)
C27 C 0.6906(5) 0.8805(4) 0.7127(3)
C28 C 0.6004(5) 0.7386(3) 0.6234(2)
O6 O 0.5803(3) 0.7897(2) 0.5180(2)
C29 C 0.4545(4) 0.6892(3) 0.4299(3)
O7 O 0.3508(4) 0.5636(2) 0.4367(2)
C30 C 0.7065(6) 0.6444(4) 0.6245(3)
O8 O 0.9658(4) 1.3805(3) 0.8074(2)
C31 C 0.4579(4) 0.7393(3) 0.3247(3)
C32 C 0.3929(5) 0.6247(3) 0.2307(3)
C33 C 0.4088(5) 0.6577(4) 0.1294(3)
C34 C 0.4831(4) 0.8062(4) 0.1198(2)
C35 C 0.5429(5) 0.9215(4) 0.2100(3)
C36 C 0.5305(4) 0.8913(3) 0.3124(2)
O9 O 0.3124(4) 0.4756(2) 0.2325(2)
O10 O 0.4944(4) 0.8457(3) 0.0209(2)
H25 H 0.5190(55) 0.9956(42) 0.4532(33)
H26 H 0.7578(48) 1.1842(40) 0.3561(30)
H27 H 0.6931(68) 1.3607(56) 0.4576(38)
H28 H 0.6452(51) 1.2517(40) 0.5437(28)
H29 H 0.9332(66) 1.4589(56) 0.6134(38)
H30 H 1.0041(67) 1.4116(50) 0.5297(38)
H31 H 0.9647(63) 1.1856(56) 0.5974(39)
H32 H 1.1200(59) 1.3206(44) 0.6727(31)
H33 H 0.7647(56) 1.1922(43) 0.7025(32)
H34 H 1.0940(61) 1.1696(45) 0.8221(31)
H35 H 0.9211(69) 1.1344(57) 0.8663(42)
H36 H 0.9081(52) 0.9839(43) 0.6524(34)
H37 H 0.9552(67) 0.9250(54) 0.7723(38)
H38 H 0.6686(60) 0.8505(47) 0.7842(37)
H39 H 0.6251(49) 0.9401(41) 0.6933(28)
H40 H 0.4794(48) 0.6681(38) 0.6280(26)
H41 H 0.7402(55) 0.6222(45) 0.7007(35)
H42 H 0.8270(68) 0.7059(53) 0.6172(35)
H43 H 0.6392(61) 0.5452(50) 0.5669(36)
H44 H 0.8951(71) 1.3806(56) 0.8467(42)
H45 H 0.3534(61) 0.5768(51) 0.0672(36)
H46 H 0.5802(54) 1.0197(47) 0.1969(31)
H47 H 0.3029(76) 0.4679(61) 0.2995(48)
H48 H 0.4229(49) 0.7691(44) -0.0289(30)
O11 O 0.2901(4) 0.6251(3) 0.8320(2)
H49 H 0.2647(72) 0.6853(61) 0.7738(47)
H50 H 0.1948(99) 0.5626(78) 0.8243(54)
O12 O 0.4713(4) 0.4522(4) 0.7772(2)
H51 H 0.4280(94) 0.5185(76) 0.7942(51)
H52 H 0.4266(95) 0.4169(72) 0.6904(59)
O13 O 0.5143(9) 0.0816(4) 0.9080(3)
H53 H 0.5417(88) 0.0386(68) 0.9625(55)
H54 H 0.584(14) 0.192(11) 0.9242(84)
loop_
_geom_bond_atom_site_label_1
_geom_bond_atom_site_label_2
_geom_bond_site_symmetry_1
_geom_bond_site_symmetry_2
C1 C2 1_555 1_555
C2 C3 1_555 1_555
C3 C4 1_555 1_555
C4 C5 1_555 1_555
C5 C6 1_555 1_555
C6 C7 1_555 1_555
C7 C8 1_555 1_555
C8 C9 1_555 1_555
C9 C10 1_555 1_555
C10 O1 1_555 1_555
O1 C11 1_555 1_555
C11 O2 1_555 1_555
C12 C10 1_555 1_555
O3 C6 1_555 1_555
C13 C11 1_555 1_555
C14 C13 1_555 1_555
C15 C14 1_555 1_555
C16 C15 1_555 1_555
C17 C16 1_555 1_555
C18 C1 1_555 1_555
O4 C14 1_555 1_555
O5 C16 1_555 1_555
C19 C20 1_555 1_555
C20 C21 1_555 1_555
C21 C22 1_555 1_555
C22 C23 1_555 1_555
C23 C24 1_555 1_555
C24 C25 1_555 1_555
C25 C26 1_555 1_555
C26 C27 1_555 1_555
C27 C28 1_555 1_555
C28 O6 1_555 1_555
O6 C29 1_555 1_555
C29 O7 1_555 1_555
C30 C28 1_555 1_555
O8 C24 1_555 1_555
C31 C29 1_555 1_555
C32 C31 1_555 1_555
C33 C32 1_555 1_555
C34 C33 1_555 1_555
C35 C34 1_555 1_555
C36 C19 1_555 1_555
O9 C32 1_555 1_555
O10 C34 1_555 1_555
O11 H49 1_555 1_555
O12 H51 1_555 1_555
O13 H53 1_555 1_555
H1 C1 1_555 1_555
H2 C2 1_555 1_555
H3 C3 1_555 1_555
H4 C3 1_555 1_555
H5 C4 1_555 1_555
H6 C4 1_555 1_555
H7 C5 1_555 1_555
H8 C5 1_555 1_555
H9 C6 1_555 1_555
H10 C7 1_555 1_555
H11 C7 1_555 1_555
H12 C8 1_555 1_555
H13 C8 1_555 1_555
H14 C9 1_555 1_555
H15 C9 1_555 1_555
H16 C10 1_555 1_555
H17 C12 1_555 1_555
H18 C12 1_555 1_555
H19 C12 1_555 1_555
H20 O3 1_555 1_555
H21 C15 1_555 1_555
H22 C17 1_555 1_555
H23 O4 1_555 1_555
H24 O5 1_555 1_555
H25 C19 1_555 1_555
H26 C20 1_555 1_555
H27 C21 1_555 1_555
H28 C21 1_555 1_555
H29 C22 1_555 1_555
H30 C22 1_555 1_555
H31 C23 1_555 1_555
H32 C23 1_555 1_555
H33 C24 1_555 1_555
H34 C25 1_555 1_555
H35 C25 1_555 1_555
H36 C26 1_555 1_555
H37 C26 1_555 1_555
H38 C27 1_555 1_555
H39 C27 1_555 1_555
H40 C28 1_555 1_555
H41 C30 1_555 1_555
H42 C30 1_555 1_555
H43 C30 1_555 1_555
H44 O8 1_555 1_555
H45 C33 1_555 1_555
H46 C35 1_555 1_555
H47 O9 1_555 1_555
H48 O10 1_555 1_555
H50 O11 1_555 1_555
H52 O12 1_555 1_555
H54 O13 1_555 1_555
C13 C18 1_555 1_555
C17 C18 1_555 1_555
C31 C36 1_555 1_555
C35 C36 1_555 1_555

#END
