
#######################################################################
#
#                 Cambridge Crystallographic Data Centre
#                                CCDC 
#
#######################################################################
#
# If this CIF has been generated from an entry in the Cambridge 
# Structural Database, then it will include bibliographic, chemical, 
# crystal, experimental, refinement or atomic coordinate data resulting 
# from the CCDC's data processing and validation procedures.
#
#######################################################################

data_TEGYUC
_chemical_formula_moiety         'C17 H14 O3,H2 O1'
_chemical_name_systematic        
'2-(2-methoxyphenyl)-3-(4-methoxyphenyl)cycloprop-2-en-1-one monohydrate'
_symmetry_cell_setting           orthorhombic
_symmetry_space_group_name_H-M   'P n a 21'
_symmetry_Int_Tables_number      33
_space_group_name_Hall           'P 2c -2n'
loop_
_symmetry_equiv_pos_site_id
_symmetry_equiv_pos_as_xyz
1 x,y,z
2 -x,-y,1/2+z
3 1/2+x,1/2-y,z
4 1/2-x,1/2+y,1/2+z
_cell_length_a                   14.764(3)
_cell_length_b                   23.997(5)
_cell_length_c                   4.0296(8)
_cell_angle_alpha                90
_cell_angle_beta                 90
_cell_angle_gamma                90
_cell_volume                     1427.65
_exptl_crystal_colour            colorless
_exptl_crystal_description       needle
_cell_formula_units_Z            4
loop_
_atom_site_label
_atom_site_type_symbol
_atom_site_fract_x
_atom_site_fract_y
_atom_site_fract_z
O1 O 0.75659(12) 0.51345(8) 0.9230(6)
O2 O 0.28183(12) 0.63421(7) 0.7956(6)
O3 O 0.69648(12) 0.71195(7) 0.3766(6)
C1 C 0.72634(17) 0.55589(11) 0.7902(8)
C2 C 0.65342(17) 0.59163(10) 0.7189(7)
C3 C 0.73845(17) 0.60438(11) 0.6017(7)
C4 C 0.55771(16) 0.60332(10) 0.7433(7)
C5 C 0.50192(18) 0.56543(10) 0.9084(8)
H1 H 0.5276 0.5340 1.0055
C6 C 0.40908(17) 0.57354(11) 0.9312(7)
H2 H 0.3726 0.5477 1.0390
C7 C 0.37179(17) 0.62100(10) 0.7901(7)
C8 C 0.42652(17) 0.65935(11) 0.6266(7)
H3 H 0.4009 0.6911 0.5334
C9 C 0.51818(18) 0.65056(11) 0.6022(8)
H4 H 0.5542 0.6763 0.4908
C10 C 0.22040(18) 0.59527(12) 0.9453(9)
H5 H 0.2268 0.5596 0.8402
H6 H 0.1594 0.6083 0.9185
H7 H 0.2340 0.5919 1.1774
C11 C 0.80107(17) 0.63841(10) 0.4147(7)
C12 C 0.88702(17) 0.61638(12) 0.3515(8)
H8 H 0.9020 0.5813 0.4330
C13 C 0.94992(19) 0.64605(13) 0.1694(9)
H9 H 1.0067 0.6309 0.1263
C14 C 0.92800(19) 0.69837(14) 0.0518(8)
H10 H 0.9705 0.7183 -0.0701
C15 C 0.84335(18) 0.72173(12) 0.1126(8)
H11 H 0.8294 0.7570 0.0311
C16 C 0.77993(16) 0.69210(10) 0.2957(7)
C17 C 0.6726(2) 0.76628(12) 0.2573(10)
H12 H 0.6739 0.7664 0.0191
H13 H 0.7152 0.7931 0.3403
H14 H 0.6129 0.7757 0.3326
O4 O 0.94130(18) 0.48284(12) 0.8358(9)
H15 H 0.880(3) 0.4947(18) 0.873(13)
H16 H 0.974(3) 0.490(2) 1.026(15)
loop_
_geom_bond_atom_site_label_1
_geom_bond_atom_site_label_2
_geom_bond_site_symmetry_1
_geom_bond_site_symmetry_2
O1 C1 1_555 1_555
O2 C7 1_555 1_555
O3 C16 1_555 1_555
C1 C2 1_555 1_555
C2 C3 1_555 1_555
C3 C1 1_555 1_555
C4 C2 1_555 1_555
C5 C4 1_555 1_555
H1 C5 1_555 1_555
C6 C5 1_555 1_555
H2 C6 1_555 1_555
C7 C6 1_555 1_555
C8 C7 1_555 1_555
H3 C8 1_555 1_555
C9 C4 1_555 1_555
H4 C9 1_555 1_555
C10 O2 1_555 1_555
H5 C10 1_555 1_555
H6 C10 1_555 1_555
H7 C10 1_555 1_555
C11 C3 1_555 1_555
C12 C11 1_555 1_555
H8 C12 1_555 1_555
C13 C12 1_555 1_555
H9 C13 1_555 1_555
C14 C13 1_555 1_555
H10 C14 1_555 1_555
C15 C14 1_555 1_555
H11 C15 1_555 1_555
C16 C11 1_555 1_555
C17 O3 1_555 1_555
H12 C17 1_555 1_555
H13 C17 1_555 1_555
H14 C17 1_555 1_555
O4 H15 1_555 1_555
H16 O4 1_555 1_555
C8 C9 1_555 1_555
C15 C16 1_555 1_555

#END
