
#######################################################################
#
#                 Cambridge Crystallographic Data Centre
#                                CCDC 
#
#######################################################################
#
# If this CIF has been generated from an entry in the Cambridge 
# Structural Database, then it will include bibliographic, chemical, 
# crystal, experimental, refinement or atomic coordinate data resulting 
# from the CCDC's data processing and validation procedures.
#
#######################################################################

data_TEGZEN
_chemical_formula_moiety         'C16 H12 O3'
_chemical_name_systematic        
2-(4-hydroxyphenyl)-3-(4-methoxyphenyl)cycloprop-2-en-1-one
_symmetry_cell_setting           orthorhombic
_symmetry_space_group_name_H-M   'P n m a'
_symmetry_Int_Tables_number      62
_space_group_name_Hall           '-P 2ac 2n'
loop_
_symmetry_equiv_pos_site_id
_symmetry_equiv_pos_as_xyz
1 x,y,z
2 1/2-x,-y,1/2+z
3 1/2+x,1/2-y,1/2-z
4 -x,1/2+y,-z
5 -x,-y,-z
6 1/2+x,y,1/2-z
7 1/2-x,1/2+y,1/2+z
8 x,1/2-y,z
_cell_length_a                   13.777(3)
_cell_length_b                   6.4606(13)
_cell_length_c                   13.925(3)
_cell_angle_alpha                90
_cell_angle_beta                 90
_cell_angle_gamma                90
_cell_volume                     1239.43
_exptl_crystal_colour            colorless
_exptl_crystal_description       block
_cell_formula_units_Z            4
loop_
_atom_site_label
_atom_site_type_symbol
_atom_site_fract_x
_atom_site_fract_y
_atom_site_fract_z
O1 O 0.2079(3) 0.2500 0.4591(3)
O2 O 0.3545(3) 0.2500 -0.0661(3)
O3 O -0.1734(3) 0.2500 -0.2443(3)
C1 C 0.1189(5) 0.2500 0.5134(5)
C2 C 0.2024(4) 0.2500 0.3621(4)
C3 C 0.2913(4) 0.2500 0.3141(5)
H1 H 0.3499 0.2500 0.3501
C4 C 0.2950(4) 0.2500 0.2160(4)
H2 H 0.3561 0.2500 0.1843
C5 C 0.2089(4) 0.2500 0.1620(4)
C6 C 0.1208(4) 0.2500 0.2096(4)
H3 H 0.0623 0.2500 0.1736
C7 C 0.1166(4) 0.2500 0.3085(4)
H4 H 0.0555 0.2500 0.3402
C8 C 0.2144(4) 0.2500 0.0574(4)
C9 C 0.2730(4) 0.2500 -0.0260(4)
C10 C 0.1715(4) 0.2500 -0.0308(4)
C11 C 0.0816(4) 0.2500 -0.0869(4)
C12 C 0.0866(4) 0.2500 -0.1878(4)
H5 H 0.1478 0.2500 -0.2191
C13 C 0.0018(4) 0.2500 -0.2411(4)
H6 H 0.0050 0.2500 -0.3092
C14 C -0.0888(4) 0.2500 -0.1953(4)
C15 C -0.0943(4) 0.2500 -0.0961(4)
H7 H -0.1558 0.2500 -0.0650
C16 C -0.0097(4) 0.2500 -0.0423(4)
H8 H -0.0136 0.2500 0.0258
H9 H -0.159(4) 0.2500 -0.3038(13)
H10? H 0.0760 0.3594 0.4893
H11? H 0.1333 0.2751 0.5813
H12? H 0.0867 0.1155 0.5065
loop_
_geom_bond_atom_site_label_1
_geom_bond_atom_site_label_2
_geom_bond_site_symmetry_1
_geom_bond_site_symmetry_2
O1 C1 1_555 1_555
O2 C9 1_555 1_555
O3 C14 1_555 1_555
C2 O1 1_555 1_555
C3 C2 1_555 1_555
H1 C3 1_555 1_555
C4 C3 1_555 1_555
H2 C4 1_555 1_555
C5 C4 1_555 1_555
C6 C5 1_555 1_555
H3 C6 1_555 1_555
C7 C2 1_555 1_555
H4 C7 1_555 1_555
C8 C5 1_555 1_555
C9 C8 1_555 1_555
C10 C8 1_555 1_555
C11 C10 1_555 1_555
C12 C11 1_555 1_555
H5 C12 1_555 1_555
C13 C12 1_555 1_555
H6 C13 1_555 1_555
C14 C13 1_555 1_555
C15 C14 1_555 1_555
H7 C15 1_555 1_555
C16 C11 1_555 1_555
H8 C16 1_555 1_555
H9 O3 1_555 1_555
C6 C7 1_555 1_555
C9 C10 1_555 1_555
C15 C16 1_555 1_555

#END
