
#######################################################################
#
#                 Cambridge Crystallographic Data Centre
#                                CCDC 
#
#######################################################################
#
# If this CIF has been generated from an entry in the Cambridge 
# Structural Database, then it will include bibliographic, chemical, 
# crystal, experimental, refinement or atomic coordinate data resulting 
# from the CCDC's data processing and validation procedures.
#
#######################################################################

data_TEHBIU
_chemical_name_common            gene780
_chemical_formula_moiety         'C24 H21 F3 O3 S1'
_chemical_name_systematic        
'1-phenyl-2-[4-(trifluoromethyl)phenyl]but-1-en-1-yl 4-methylbenzene-1-sulfonate'
_symmetry_cell_setting           monoclinic
_symmetry_space_group_name_H-M   'C 2/c'
_symmetry_Int_Tables_number      15
_space_group_name_Hall           '-C 2yn'
loop_
_symmetry_equiv_pos_site_id
_symmetry_equiv_pos_as_xyz
1 x,y,z
2 -x,y,1/2-z
3 1/2+x,1/2+y,z
4 1/2-x,1/2+y,1/2-z
5 -x,-y,-z
6 x,-y,1/2+z
7 1/2-x,1/2-y,-z
8 1/2+x,1/2-y,1/2+z
_cell_length_a                   22.047(2)
_cell_length_b                   10.2379(10)
_cell_length_c                   19.341(2)
_cell_angle_alpha                90
_cell_angle_beta                 100.020(2)
_cell_angle_gamma                90
_cell_volume                     4298.97
_exptl_crystal_colour            colorless
_exptl_crystal_description       prism
_cell_formula_units_Z            8
loop_
_atom_site_label
_atom_site_type_symbol
_atom_site_fract_x
_atom_site_fract_y
_atom_site_fract_z
C1 C 0.29314(9) 0.0882(2) 0.72977(10)
C2 C 0.26675(9) 0.1807(2) 0.76780(11)
H1 H 0.247789 0.256615 0.745414
C3 C 0.26853(10) 0.1606(2) 0.83910(11)
H2 H 0.251260 0.223988 0.865833
C4 C 0.29536(9) 0.0484(2) 0.87190(11)
C5 C 0.32161(9) -0.0426(2) 0.83221(11)
H3 H 0.340279 -0.118978 0.854333
C6 C 0.32097(9) -0.0238(2) 0.76156(11)
H4 H 0.339183 -0.086068 0.735033
C7 C 0.29697(11) 0.0244(2) 0.94906(11)
H5 H 0.268562 -0.046664 0.955068
H6 H 0.284545 0.104008 0.971022
H7 H 0.338852 0.000206 0.971262
C8 C 0.37551(9) 0.3032(2) 0.65376(11)
C9 C 0.37962(9) 0.3815(2) 0.59968(11)
C10 C 0.36329(11) 0.3379(2) 0.52377(11)
H8 H 0.341008 0.409092 0.495400
H9 H 0.335525 0.261305 0.520744
C11 C 0.42054(12) 0.3019(3) 0.49373(12)
H10 H 0.449296 0.375683 0.499433
H11 H 0.408742 0.281189 0.443723
H12 H 0.440406 0.225683 0.518703
C12 C 0.40522(10) 0.5162(2) 0.61105(10)
C13 C 0.46308(10) 0.5378(2) 0.65138(11)
H13 H 0.485631 0.466486 0.674439
C14 C 0.48814(10) 0.6622(2) 0.65828(11)
H14 H 0.528001 0.675355 0.685206
C15 C 0.45533(10) 0.7671(2) 0.62611(11)
C16 C 0.39700(10) 0.7478(2) 0.58631(12)
H15 H 0.374002 0.819891 0.564751
C17 C 0.37277(10) 0.6229(2) 0.57836(12)
H16 H 0.333433 0.609622 0.550219
C18 C 0.48094(12) 0.9018(2) 0.63349(14)
C19 C 0.38682(9) 0.3316(2) 0.72985(10)
C20 C 0.36170(9) 0.4424(2) 0.75605(11)
H17 H 0.339371 0.503489 0.724427
C21 C 0.36898(10) 0.4642(2) 0.82760(11)
H18 H 0.351518 0.539837 0.844806
C22 C 0.40176(10) 0.3759(2) 0.87441(11)
H19 H 0.406710 0.390998 0.923538
C23 C 0.42726(10) 0.2655(2) 0.84909(11)
H20 H 0.449691 0.204952 0.880937
C24 C 0.42003(9) 0.2436(2) 0.77747(11)
H21 H 0.437778 0.168195 0.760475
O1 O 0.29282(7) -0.00912(15) 0.60616(8)
O2 O 0.24951(7) 0.21215(15) 0.61462(7)
O3 O 0.36102(7) 0.16901(14) 0.63738(7)
F1 F 0.46871(12) 0.97011(18) 0.57416(10)
F2 F 0.54097(7) 0.90496(16) 0.65573(12)
F3 F 0.45662(7) 0.97278(15) 0.67935(10)
S1 S 0.29360(2) 0.11413(5) 0.64040(3)
loop_
_geom_bond_atom_site_label_1
_geom_bond_atom_site_label_2
_geom_bond_site_symmetry_1
_geom_bond_site_symmetry_2
C1 C2 1_555 1_555
C2 H1 1_555 1_555
C3 C2 1_555 1_555
H2 C3 1_555 1_555
C4 C3 1_555 1_555
C5 C4 1_555 1_555
H3 C5 1_555 1_555
C6 C1 1_555 1_555
H4 C6 1_555 1_555
C7 C4 1_555 1_555
H5 C7 1_555 1_555
H6 C7 1_555 1_555
H7 C7 1_555 1_555
C8 C9 1_555 1_555
C9 C10 1_555 1_555
C10 H8 1_555 1_555
H9 C10 1_555 1_555
C11 C10 1_555 1_555
H10 C11 1_555 1_555
H11 C11 1_555 1_555
H12 C11 1_555 1_555
C12 C9 1_555 1_555
C13 C12 1_555 1_555
H13 C13 1_555 1_555
C14 C13 1_555 1_555
H14 C14 1_555 1_555
C15 C14 1_555 1_555
C16 C15 1_555 1_555
H15 C16 1_555 1_555
C17 C12 1_555 1_555
H16 C17 1_555 1_555
C18 C15 1_555 1_555
C19 C8 1_555 1_555
C20 C19 1_555 1_555
H17 C20 1_555 1_555
C21 C20 1_555 1_555
H18 C21 1_555 1_555
C22 C21 1_555 1_555
H19 C22 1_555 1_555
C23 C22 1_555 1_555
H20 C23 1_555 1_555
C24 C19 1_555 1_555
H21 C24 1_555 1_555
O1 S1 1_555 1_555
O2 S1 1_555 1_555
O3 C8 1_555 1_555
F1 C18 1_555 1_555
F2 C18 1_555 1_555
F3 C18 1_555 1_555
S1 C1 1_555 1_555
C5 C6 1_555 1_555
C16 C17 1_555 1_555
C23 C24 1_555 1_555
O3 S1 1_555 1_555

#END
