
#######################################################################
#
#                 Cambridge Crystallographic Data Centre
#                                CCDC 
#
#######################################################################
#
# If this CIF has been generated from an entry in the Cambridge 
# Structural Database, then it will include bibliographic, chemical, 
# crystal, experimental, refinement or atomic coordinate data resulting 
# from the CCDC's data processing and validation procedures.
#
#######################################################################

data_TEHBAM
_chemical_name_common            gene754
_chemical_formula_moiety         'C23 H21 Cl1 O3 S1'
_chemical_name_systematic        
'2-(4-chlorophenyl)-1-phenylbut-1-en-1-yl 4-methylbenzene-1-sulfonate'
_symmetry_cell_setting           monoclinic
_symmetry_space_group_name_H-M   'P 21'
_symmetry_Int_Tables_number      4
_space_group_name_Hall           'P 2yb'
loop_
_symmetry_equiv_pos_site_id
_symmetry_equiv_pos_as_xyz
1 x,y,z
2 -x,1/2+y,-z
_cell_length_a                   7.8225(8)
_cell_length_b                   6.0641(7)
_cell_length_c                   20.897(2)
_cell_angle_alpha                90
_cell_angle_beta                 93.480(4)
_cell_angle_gamma                90
_cell_volume                     989.451
_exptl_crystal_colour            colorless
_exptl_crystal_description       prism
_cell_formula_units_Z            2
loop_
_atom_site_label
_atom_site_type_symbol
_atom_site_fract_x
_atom_site_fract_y
_atom_site_fract_z
C1 C 0.0692(3) 0.4945(4) 0.11661(10)
C2 C -0.0961(3) 0.4090(4) 0.11549(11)
H1 H -0.116831 0.268347 0.133490
C3 C -0.2296(3) 0.5323(4) 0.08770(12)
H2 H -0.342852 0.475204 0.086624
C4 C -0.2006(3) 0.7397(4) 0.06118(10)
C5 C -0.0325(3) 0.8170(4) 0.06146(11)
H3 H -0.010369 0.955123 0.042177
C6 C 0.1024(3) 0.6968(4) 0.08919(10)
H4 H 0.216092 0.751870 0.089457
C7 C -0.3488(3) 0.8770(5) 0.03481(12)
H5 H -0.395926 0.812129 -0.005439
H6 H -0.309381 1.027347 0.026836
H7 H -0.437763 0.880982 0.065869
C8 C 0.3857(3) 0.4306(4) 0.26780(10)
C9 C 0.3699(3) 0.2829(3) 0.31488(10)
C10 C 0.2176(3) 0.1308(4) 0.31801(11)
H8 H 0.257758 -0.016946 0.332331
H9 H 0.160904 0.115319 0.274587
C11 C 0.0876(3) 0.2163(5) 0.36386(12)
H10 H 0.142763 0.230244 0.407036
H11 H -0.008395 0.112720 0.364719
H12 H 0.045036 0.360876 0.349188
C12 C 0.5268(3) 0.5860(4) 0.25585(10)
C13 C 0.6982(3) 0.5322(4) 0.27269(10)
H13 H 0.725106 0.394294 0.292405
C14 C 0.8281(3) 0.6786(4) 0.26077(11)
H14 H 0.943558 0.640844 0.272667
C15 C 0.7913(3) 0.8798(4) 0.23163(11)
H15 H 0.881006 0.980048 0.223753
C16 C 0.6224(3) 0.9339(4) 0.21404(11)
H16 H 0.596350 1.071125 0.193806
C17 C 0.4914(3) 0.7876(3) 0.22599(10)
H17 H 0.376303 0.825514 0.213625
C18 C 0.4982(3) 0.2686(4) 0.37062(10)
C19 C 0.5245(3) 0.4473(4) 0.41235(11)
H18 H 0.462137 0.579989 0.404537
C20 C 0.6411(3) 0.4330(4) 0.46519(11)
H19 H 0.658467 0.554566 0.493509
C21 C 0.7311(3) 0.2391(4) 0.47581(10)
C22 C 0.7057(3) 0.0579(4) 0.43595(11)
H20 H 0.767680 -0.074772 0.444292
C23 C 0.5880(3) 0.0737(4) 0.38352(11)
H21 H 0.568623 -0.050101 0.356161
O1 O 0.1854(2) 0.1196(3) 0.16181(8)
O2 O 0.3946(2) 0.3891(3) 0.12725(8)
O3 O 0.23841(18) 0.4599(3) 0.22411(7)
S1 S 0.23652(6) 0.34477(8) 0.15516(2)
Cl1 Cl 0.87939(7) 0.21998(10) 0.54124(3)
loop_
_geom_bond_atom_site_label_1
_geom_bond_atom_site_label_2
_geom_bond_site_symmetry_1
_geom_bond_site_symmetry_2
C1 C2 1_555 1_555
C2 H1 1_555 1_555
C3 C2 1_555 1_555
H2 C3 1_555 1_555
C4 C3 1_555 1_555
C5 C4 1_555 1_555
H3 C5 1_555 1_555
C6 C1 1_555 1_555
H4 C6 1_555 1_555
C7 C4 1_555 1_555
H5 C7 1_555 1_555
H6 C7 1_555 1_555
H7 C7 1_555 1_555
C8 C9 1_555 1_555
C9 C10 1_555 1_555
C10 H8 1_555 1_555
H9 C10 1_555 1_555
C11 C10 1_555 1_555
H10 C11 1_555 1_555
H11 C11 1_555 1_555
H12 C11 1_555 1_555
C12 C8 1_555 1_555
C13 C12 1_555 1_555
H13 C13 1_555 1_555
C14 C13 1_555 1_555
H14 C14 1_555 1_555
C15 C14 1_555 1_555
H15 C15 1_555 1_555
C16 C15 1_555 1_555
H16 C16 1_555 1_555
C17 C12 1_555 1_555
H17 C17 1_555 1_555
C18 C9 1_555 1_555
C19 C18 1_555 1_555
H18 C19 1_555 1_555
C20 C19 1_555 1_555
H19 C20 1_555 1_555
C21 C20 1_555 1_555
C22 C21 1_555 1_555
H20 C22 1_555 1_555
C23 C18 1_555 1_555
H21 C23 1_555 1_555
O1 S1 1_555 1_555
O2 S1 1_555 1_555
O3 C8 1_555 1_555
S1 C1 1_555 1_555
Cl1 C21 1_555 1_555
C5 C6 1_555 1_555
C16 C17 1_555 1_555
C22 C23 1_555 1_555
O3 S1 1_555 1_555

#END
