
#######################################################################
#
#                 Cambridge Crystallographic Data Centre
#                                CCDC 
#
#######################################################################
#
# If this CIF has been generated from an entry in the Cambridge 
# Structural Database, then it will include bibliographic, chemical, 
# crystal, experimental, refinement or atomic coordinate data resulting 
# from the CCDC's data processing and validation procedures.
#
#######################################################################

data_TEHBOA
_chemical_name_common            gene869
_chemical_formula_moiety         'C26 H26 O5 S1'
_chemical_name_systematic        
'ethyl 4-(1-{[(4-methylphenyl)sulfonyl]oxy}-1-phenylbut-1-en-2-yl)benzoate'
_symmetry_cell_setting           monoclinic
_symmetry_space_group_name_H-M   'P 21/n'
_symmetry_Int_Tables_number      14
_space_group_name_Hall           '-P 2yn'
loop_
_symmetry_equiv_pos_site_id
_symmetry_equiv_pos_as_xyz
1 x,y,z
2 1/2-x,1/2+y,1/2-z
3 -x,-y,-z
4 1/2+x,1/2-y,1/2+z
_cell_length_a                   7.2960(4)
_cell_length_b                   13.4620(7)
_cell_length_c                   23.3477(12)
_cell_angle_alpha                90
_cell_angle_beta                 95.558(2)
_cell_angle_gamma                90
_cell_volume                     2282.4
_exptl_crystal_colour            colorless
_exptl_crystal_description       blade
_cell_formula_units_Z            4
loop_
_atom_site_label
_atom_site_type_symbol
_atom_site_fract_x
_atom_site_fract_y
_atom_site_fract_z
C1 C 0.6446(2) 0.58520(13) 0.33272(8)
C2 C 0.6296(2) 0.62605(14) 0.38666(8)
H1 H 0.649720 0.586371 0.420332
C3 C 0.5851(3) 0.72542(15) 0.39053(8)
H2 H 0.572676 0.753685 0.427236
C4 C 0.5580(2) 0.78478(14) 0.34181(9)
C5 C 0.5716(3) 0.74166(15) 0.28828(9)
H3 H 0.551310 0.781204 0.254564
C6 C 0.6142(3) 0.64226(14) 0.28335(8)
H4 H 0.622544 0.613393 0.246563
C7 C 0.5201(3) 0.89443(15) 0.34745(10)
H5 H 0.636958 0.930330 0.354551
H6 H 0.445739 0.905358 0.379647
H7 H 0.453073 0.918762 0.311801
C8 C 0.4070(2) 0.36967(14) 0.35661(7)
C9 C 0.4119(2) 0.27206(14) 0.36666(8)
C10 C 0.5295(3) 0.20175(14) 0.33545(8)
H8 H 0.583803 0.151129 0.362797
H9 H 0.631630 0.239253 0.320632
C11 C 0.4174(3) 0.15008(16) 0.28546(9)
H10 H 0.313261 0.115098 0.299803
H11 H 0.495706 0.102305 0.267592
H12 H 0.371244 0.199670 0.256892
C12 C 0.3080(2) 0.44968(13) 0.38406(7)
C13 C 0.2125(2) 0.52152(14) 0.34998(8)
H13 H 0.209369 0.517796 0.309262
C14 C 0.1225(2) 0.59792(14) 0.37496(8)
H14 H 0.057322 0.646309 0.351384
C15 C 0.1267(3) 0.60434(15) 0.43415(9)
H15 H 0.064162 0.656942 0.451175
C16 C 0.2219(3) 0.53410(14) 0.46865(8)
H16 H 0.225252 0.538733 0.509334
C17 C 0.3127(3) 0.45692(14) 0.44383(8)
H17 H 0.378096 0.408888 0.467595
C18 C 0.2922(2) 0.22728(13) 0.40787(7)
C19 C 0.1042(2) 0.24944(13) 0.40506(8)
H18 H 0.050566 0.291507 0.375354
C20 C -0.0047(3) 0.21073(14) 0.44514(8)
H19 H -0.131909 0.226917 0.443002
C21 C 0.0722(2) 0.14810(13) 0.48856(8)
C22 C 0.2582(2) 0.12305(14) 0.49051(8)
H20 H 0.310573 0.078841 0.519299
C23 C 0.3666(3) 0.16236(13) 0.45063(8)
H21 H 0.493253 0.144977 0.452375
C24 C -0.0456(3) 0.11223(13) 0.53293(8)
C25 C -0.0405(3) 0.03220(15) 0.62411(8)
H22 H 0.026394 -0.024085 0.643803
H23 H -0.166143 0.009331 0.610484
C26 C -0.0521(3) 0.11695(17) 0.66589(8)
H24 H 0.071863 0.142291 0.677475
H25 H -0.107853 0.093381 0.699939
H26 H -0.127939 0.170226 0.647408
O1 O 0.79438(18) 0.44582(10) 0.27687(6)
O2 O 0.77616(17) 0.42232(10) 0.38132(6)
O3 O 0.50665(17) 0.40474(9) 0.31073(5)
O4 O -0.20960(18) 0.12624(10) 0.53174(6)
O5 O 0.05435(17) 0.06331(10) 0.57531(5)
S1 S 0.70068(6) 0.45905(3) 0.32695(2)
loop_
_geom_bond_atom_site_label_1
_geom_bond_atom_site_label_2
_geom_bond_site_symmetry_1
_geom_bond_site_symmetry_2
C1 C2 1_555 1_555
C2 H1 1_555 1_555
C3 C2 1_555 1_555
H2 C3 1_555 1_555
C4 C3 1_555 1_555
C5 C4 1_555 1_555
H3 C5 1_555 1_555
C6 C1 1_555 1_555
H4 C6 1_555 1_555
C7 C4 1_555 1_555
H5 C7 1_555 1_555
H6 C7 1_555 1_555
H7 C7 1_555 1_555
C8 C9 1_555 1_555
C9 C10 1_555 1_555
C10 H8 1_555 1_555
H9 C10 1_555 1_555
C11 C10 1_555 1_555
H10 C11 1_555 1_555
H11 C11 1_555 1_555
H12 C11 1_555 1_555
C12 C8 1_555 1_555
C13 C12 1_555 1_555
H13 C13 1_555 1_555
C14 C13 1_555 1_555
H14 C14 1_555 1_555
C15 C14 1_555 1_555
H15 C15 1_555 1_555
C16 C15 1_555 1_555
H16 C16 1_555 1_555
C17 C12 1_555 1_555
H17 C17 1_555 1_555
C18 C9 1_555 1_555
C19 C18 1_555 1_555
H18 C19 1_555 1_555
C20 C19 1_555 1_555
H19 C20 1_555 1_555
C21 C20 1_555 1_555
C22 C21 1_555 1_555
H20 C22 1_555 1_555
C23 C18 1_555 1_555
H21 C23 1_555 1_555
C24 C21 1_555 1_555
C25 H22 1_555 1_555
H23 C25 1_555 1_555
C26 C25 1_555 1_555
H24 C26 1_555 1_555
H25 C26 1_555 1_555
H26 C26 1_555 1_555
O1 S1 1_555 1_555
O2 S1 1_555 1_555
O3 C8 1_555 1_555
O4 C24 1_555 1_555
O5 C24 1_555 1_555
S1 C1 1_555 1_555
C5 C6 1_555 1_555
C16 C17 1_555 1_555
C22 C23 1_555 1_555
C25 O5 1_555 1_555
O3 S1 1_555 1_555

#END
