
#######################################################################
#
#                 Cambridge Crystallographic Data Centre
#                                CCDC 
#
#######################################################################
#
# If this CIF has been generated from an entry in the Cambridge 
# Structural Database, then it will include bibliographic, chemical, 
# crystal, experimental, refinement or atomic coordinate data resulting 
# from the CCDC's data processing and validation procedures.
#
#######################################################################

data_TEHCUH
_chemical_name_common            gene766
_chemical_formula_moiety         'C25 H24 O3 S1'
_chemical_name_systematic        
'3-cyclopropyl-1,2-diphenylprop-1-en-1-yl 4-methylbenzene-1-sulfonate'
_symmetry_cell_setting           monoclinic
_symmetry_space_group_name_H-M   'P 21/c'
_symmetry_Int_Tables_number      14
_space_group_name_Hall           '-P 2ybc'
loop_
_symmetry_equiv_pos_site_id
_symmetry_equiv_pos_as_xyz
1 x,y,z
2 -x,1/2+y,1/2-z
3 -x,-y,-z
4 x,1/2-y,1/2+z
_cell_length_a                   44.237(10)
_cell_length_b                   10.331(2)
_cell_length_c                   9.158(2)
_cell_angle_alpha                90
_cell_angle_beta                 95.834(4)
_cell_angle_gamma                90
_cell_volume                     4163.64
_exptl_crystal_colour            colorless
_exptl_crystal_description       plate
_cell_formula_units_Z            8
loop_
_atom_site_label
_atom_site_type_symbol
_atom_site_fract_x
_atom_site_fract_y
_atom_site_fract_z
C1 C 0.94337(16) 0.4917(6) 0.5674(8)
C2 C 0.95765(17) 0.3793(7) 0.5260(9)
H1 H 0.957195 0.303494 0.584459
C3 C 0.97247(18) 0.3776(8) 0.4003(9)
H2 H 0.982520 0.301180 0.373706
C4 C 0.97274(18) 0.4884(8) 0.3118(10)
C5 C 0.95863(18) 0.6014(8) 0.3539(10)
H3 H 0.959025 0.676906 0.294859
C6 C 0.94395(17) 0.6048(7) 0.4818(9)
H4 H 0.934513 0.681994 0.510606
C7 C 0.9869(2) 0.4855(9) 0.1687(11)
H5 H 0.970950 0.489849 0.086573
H6 H 0.998492 0.405102 0.162385
H7 H 1.000625 0.559739 0.164276
C8 C 0.86785(16) 0.4943(7) 0.5514(8)
C9 C 0.84357(17) 0.5395(7) 0.6075(9)
C10 C 0.83905(19) 0.5307(8) 0.7670(10)
H8 H 0.836699 0.618656 0.807078
H9 H 0.857108 0.490174 0.821335
C11 C 0.81110(19) 0.4510(8) 0.7876(10)
H10 H 0.791330 0.487060 0.742602
C12 C 0.8100(2) 0.3786(8) 0.9316(11)
H11 H 0.827970 0.384276 1.005173
H12 H 0.790225 0.372925 0.972876
C13 C 0.8134(2) 0.3068(9) 0.7912(11)
H13 H 0.833487 0.267800 0.779234
H14 H 0.795789 0.256464 0.746976
C14 C 0.81740(17) 0.5949(7) 0.5068(9)
C15 C 0.80298(17) 0.5227(7) 0.3945(9)
H15 H 0.809776 0.437045 0.378889
C16 C 0.77792(19) 0.5735(8) 0.3003(10)
H16 H 0.768765 0.523245 0.220860
C17 C 0.7669(2) 0.6995(8) 0.3266(10)
H17 H 0.750068 0.734662 0.266931
C18 C 0.78157(19) 0.7700(8) 0.4430(10)
H18 H 0.774790 0.855276 0.460794
C19 C 0.80607(18) 0.7188(8) 0.5347(9)
H19 H 0.815002 0.767891 0.615586
C20 C 0.87557(15) 0.5001(6) 0.3982(8)
C21 C 0.87217(17) 0.6156(7) 0.3166(9)
H20 H 0.863847 0.689412 0.359698
C22 C 0.88048(17) 0.6246(7) 0.1772(9)
H21 H 0.878186 0.703727 0.124293
C23 C 0.89242(17) 0.5153(7) 0.1142(9)
H22 H 0.898069 0.520412 0.016998
C24 C 0.89620(18) 0.4003(7) 0.1899(10)
H23 H 0.904711 0.327344 0.145920
C25 C 0.88756(17) 0.3917(7) 0.3295(9)
H24 H 0.889669 0.311693 0.380620
O1 O 0.93378(12) 0.3932(5) 0.8192(6)
O2 O 0.91572(12) 0.6175(5) 0.7596(6)
O3 O 0.89007(11) 0.4219(5) 0.6465(6)
S1 S 0.92156(4) 0.48784(15) 0.7135(2)
C26 C 0.5561(2) 0.5050(8) 0.6289(11)
C27 C 0.5562(2) 0.3967(8) 0.5360(11)
H25 H 0.565808 0.318353 0.569338
C28 C 0.5417(2) 0.4073(9) 0.3924(12)
H26 H 0.541593 0.334605 0.328790
C29 C 0.5274(2) 0.5216(9) 0.3402(12)
C30 C 0.52729(19) 0.6257(9) 0.4384(10)
H27 H 0.516724 0.702430 0.407159
C31 C 0.5418(2) 0.6211(8) 0.5769(11)
H28 H 0.542267 0.695369 0.638263
C32 C 0.5132(2) 0.5314(10) 0.1874(12)
H29 H 0.499502 0.606159 0.178280
H30 H 0.501631 0.452338 0.161391
H31 H 0.529060 0.542159 0.121042
C33 C 0.6320(2) 0.5047(8) 0.7030(11)
C34 C 0.6574(2) 0.4641(8) 0.7902(10)
C35 C 0.6598(2) 0.4658(9) 0.9528(10)
H32 H 0.673717 0.396261 0.992060
H33 H 0.639556 0.449249 0.986395
C36 C 0.6718(2) 0.5981(8) 1.0114(10)
H34 H 0.659387 0.675479 0.978491
C37 C 0.7059(2) 0.6182(10) 1.0357(12)
H35 H 0.713905 0.705306 1.015774
H36 H 0.719165 0.545515 1.011633
C38 C 0.6878(2) 0.6026(10) 1.1698(11)
H37 H 0.684758 0.680460 1.229578
H38 H 0.690026 0.520457 1.225432
C39 C 0.68455(19) 0.4209(8) 0.7191(10)
C40 C 0.6974(2) 0.5039(9) 0.6274(11)
H39 H 0.688785 0.587217 0.609059
C41 C 0.7236(2) 0.4676(9) 0.5589(11)
H40 H 0.731847 0.523362 0.490737
C42 C 0.7367(2) 0.3478(8) 0.5950(10)
H41 H 0.754188 0.321727 0.550653
C43 C 0.7248(2) 0.2665(9) 0.6930(10)
H42 H 0.734304 0.185685 0.716982
C44 C 0.6987(2) 0.3028(9) 0.7579(11)
H43 H 0.690617 0.247746 0.827491
C45 C 0.62546(19) 0.5044(8) 0.5389(10)
C46 C 0.61233(19) 0.6135(8) 0.4684(10)
H44 H 0.609046 0.690041 0.522079
C47 C 0.6042(2) 0.6076(9) 0.3192(11)
H45 H 0.595445 0.681546 0.269999
C48 C 0.6086(2) 0.4946(9) 0.2380(12)
H46 H 0.602706 0.491478 0.135363
C49 C 0.6219(2) 0.3872(9) 0.3119(11)
H47 H 0.625520 0.310603 0.258896
C50 C 0.6299(2) 0.3917(8) 0.4611(10)
H48 H 0.638377 0.317568 0.511015
O4 O 0.58374(15) 0.3704(6) 0.8461(8)
O5 O 0.56484(15) 0.5905(6) 0.8979(8)
O6 O 0.60949(13) 0.5698(5) 0.7796(7)
S2 S 0.57760(5) 0.5017(2) 0.8047(3)
loop_
_geom_bond_atom_site_label_1
_geom_bond_atom_site_label_2
_geom_bond_site_symmetry_1
_geom_bond_site_symmetry_2
C1 C2 1_555 1_555
C2 H1 1_555 1_555
C3 C2 1_555 1_555
H2 C3 1_555 1_555
C4 C3 1_555 1_555
C5 C4 1_555 1_555
H3 C5 1_555 1_555
C6 C1 1_555 1_555
H4 C6 1_555 1_555
C7 C4 1_555 1_555
H5 C7 1_555 1_555
H6 C7 1_555 1_555
H7 C7 1_555 1_555
C8 C9 1_555 1_555
C9 C10 1_555 1_555
C10 H8 1_555 1_555
H9 C10 1_555 1_555
C11 C10 1_555 1_555
H10 C11 1_555 1_555
C12 C11 1_555 1_555
H11 C12 1_555 1_555
H12 C12 1_555 1_555
C13 C11 1_555 1_555
H13 C13 1_555 1_555
H14 C13 1_555 1_555
C14 C9 1_555 1_555
C15 C14 1_555 1_555
H15 C15 1_555 1_555
C16 C15 1_555 1_555
H16 C16 1_555 1_555
C17 C16 1_555 1_555
H17 C17 1_555 1_555
C18 C17 1_555 1_555
H18 C18 1_555 1_555
C19 C14 1_555 1_555
H19 C19 1_555 1_555
C20 C8 1_555 1_555
C21 C20 1_555 1_555
H20 C21 1_555 1_555
C22 C21 1_555 1_555
H21 C22 1_555 1_555
C23 C22 1_555 1_555
H22 C23 1_555 1_555
C24 C23 1_555 1_555
H23 C24 1_555 1_555
C25 C20 1_555 1_555
H24 C25 1_555 1_555
O1 S1 1_555 1_555
O2 S1 1_555 1_555
O3 C8 1_555 1_555
S1 C1 1_555 1_555
C26 C27 1_555 1_555
C27 H25 1_555 1_555
C28 C27 1_555 1_555
H26 C28 1_555 1_555
C29 C28 1_555 1_555
C30 C29 1_555 1_555
H27 C30 1_555 1_555
C31 C26 1_555 1_555
H28 C31 1_555 1_555
C32 C29 1_555 1_555
H29 C32 1_555 1_555
H30 C32 1_555 1_555
H31 C32 1_555 1_555
C33 C34 1_555 1_555
C34 C35 1_555 1_555
C35 H32 1_555 1_555
H33 C35 1_555 1_555
C36 C35 1_555 1_555
H34 C36 1_555 1_555
C37 C36 1_555 1_555
H35 C37 1_555 1_555
H36 C37 1_555 1_555
C38 C36 1_555 1_555
H37 C38 1_555 1_555
H38 C38 1_555 1_555
C39 C34 1_555 1_555
C40 C39 1_555 1_555
H39 C40 1_555 1_555
C41 C40 1_555 1_555
H40 C41 1_555 1_555
C42 C41 1_555 1_555
H41 C42 1_555 1_555
C43 C42 1_555 1_555
H42 C43 1_555 1_555
C44 C39 1_555 1_555
H43 C44 1_555 1_555
C45 C33 1_555 1_555
C46 C45 1_555 1_555
H44 C46 1_555 1_555
C47 C46 1_555 1_555
H45 C47 1_555 1_555
C48 C47 1_555 1_555
H46 C48 1_555 1_555
C49 C48 1_555 1_555
H47 C49 1_555 1_555
C50 C45 1_555 1_555
H48 C50 1_555 1_555
O4 S2 1_555 1_555
O5 S2 1_555 1_555
O6 C33 1_555 1_555
S2 C26 1_555 1_555
C5 C6 1_555 1_555
C12 C13 1_555 1_555
C18 C19 1_555 1_555
C24 C25 1_555 1_555
O3 S1 1_555 1_555
C30 C31 1_555 1_555
C37 C38 1_555 1_555
C43 C44 1_555 1_555
C49 C50 1_555 1_555
O6 S2 1_555 1_555

#END
