
#######################################################################
#
#                 Cambridge Crystallographic Data Centre
#                                CCDC 
#
#######################################################################
#
# If this CIF has been generated from an entry in the Cambridge 
# Structural Database, then it will include bibliographic, chemical, 
# crystal, experimental, refinement or atomic coordinate data resulting 
# from the CCDC's data processing and validation procedures.
#
#######################################################################

data_TEHCOB
_chemical_name_common            gene781
_chemical_formula_moiety         'C24 H22 O3 S1'
_chemical_name_systematic        
'1,2-diphenylpenta-1,4-dien-1-yl 4-methylbenzene-1-sulfonate'
_symmetry_cell_setting           monoclinic
_symmetry_space_group_name_H-M   'P 21'
_symmetry_Int_Tables_number      4
_space_group_name_Hall           'P 2yb'
loop_
_symmetry_equiv_pos_site_id
_symmetry_equiv_pos_as_xyz
1 x,y,z
2 -x,1/2+y,-z
_cell_length_a                   7.8618(4)
_cell_length_b                   6.0592(3)
_cell_length_c                   20.5577(9)
_cell_angle_alpha                90
_cell_angle_beta                 95.509(2)
_cell_angle_gamma                90
_cell_volume                     974.768
_exptl_crystal_colour            colorless
_exptl_crystal_description       blade
_cell_formula_units_Z            2
loop_
_atom_site_label
_atom_site_type_symbol
_atom_site_fract_x
_atom_site_fract_y
_atom_site_fract_z
C1 C 0.0795(4) 0.5311(5) 0.11877(14)
C2 C -0.0843(4) 0.6178(6) 0.11767(15)
H1 H -0.102550 0.758789 0.136004
C3 C -0.2208(4) 0.4949(6) 0.08932(15)
H2 H -0.333403 0.552480 0.088199
C4 C -0.1943(4) 0.2879(6) 0.06245(14)
C5 C -0.0278(4) 0.2094(6) 0.06262(14)
H3 H -0.008511 0.071177 0.042807
C6 C 0.1096(4) 0.3278(5) 0.09088(15)
H4 H 0.222446 0.271468 0.091291
C7 C -0.3456(4) 0.1511(7) 0.03566(16)
H5 H -0.428994 0.143380 0.068077
H6 H -0.307161 0.001833 0.025982
H7 H -0.398790 0.219318 -0.004481
C8 C 0.4122(4) 0.5894(5) 0.27289(13)
C9 C 0.4047(4) 0.7326(5) 0.32174(14)
C10 C 0.2612(4) 0.8971(6) 0.32481(15)
H8 H 0.308893 1.035276 0.344705
H9 H 0.213195 0.931817 0.279683
C11 C 0.1181(4) 0.8195(6) 0.36314(15)
H10 H 0.036179 0.926543 0.373051
C12 C 0.0964(4) 0.6172(6) 0.38412(15)
H11 H 0.175109 0.504517 0.375378
H12 H 0.002009 0.583785 0.407994
C13 C 0.5355(4) 0.7302(5) 0.37992(14)
C14 C 0.5531(4) 0.5425(6) 0.41929(15)
H13 H 0.487450 0.414527 0.407499
C15 C 0.6663(4) 0.5415(6) 0.47587(15)
H14 H 0.676875 0.413755 0.502748
C16 C 0.7631(4) 0.7269(6) 0.49268(15)
H15 H 0.841170 0.725902 0.530936
C17 C 0.7467(4) 0.9140(6) 0.45395(16)
H16 H 0.813309 1.041146 0.465827
C18 C 0.6331(4) 0.9168(6) 0.39769(15)
H17 H 0.622051 1.045836 0.371367
C19 C 0.5492(4) 0.4327(5) 0.25947(13)
C20 C 0.5097(4) 0.2297(5) 0.22946(14)
H18 H 0.393675 0.191717 0.217402
C21 C 0.6380(4) 0.0836(6) 0.21714(15)
H19 H 0.609120 -0.054411 0.197096
C22 C 0.8078(4) 0.1361(6) 0.23366(14)
H20 H 0.895379 0.034691 0.225407
C23 C 0.8488(4) 0.3396(6) 0.26256(15)
H21 H 0.965228 0.377855 0.273524
C24 C 0.7216(4) 0.4862(6) 0.27542(14)
H22 H 0.751307 0.624386 0.295221
O1 O 0.4051(3) 0.6343(4) 0.12938(10)
O2 O 0.2016(3) 0.9055(4) 0.16444(11)
O3 O 0.2596(3) 0.5674(4) 0.22850(10)
S1 S 0.25118(9) 0.68014(12) 0.15779(3)
loop_
_geom_bond_atom_site_label_1
_geom_bond_atom_site_label_2
_geom_bond_site_symmetry_1
_geom_bond_site_symmetry_2
C1 C2 1_555 1_555
C2 H1 1_555 1_555
C3 C2 1_555 1_555
H2 C3 1_555 1_555
C4 C3 1_555 1_555
C5 C4 1_555 1_555
H3 C5 1_555 1_555
C6 C1 1_555 1_555
H4 C6 1_555 1_555
C7 C4 1_555 1_555
H5 C7 1_555 1_555
H6 C7 1_555 1_555
H7 C7 1_555 1_555
C8 C9 1_555 1_555
C9 C10 1_555 1_555
C10 H8 1_555 1_555
H9 C10 1_555 1_555
C11 C10 1_555 1_555
H10 C11 1_555 1_555
C12 C11 1_555 1_555
H11 C12 1_555 1_555
H12 C12 1_555 1_555
C13 C9 1_555 1_555
C14 C13 1_555 1_555
H13 C14 1_555 1_555
C15 C14 1_555 1_555
H14 C15 1_555 1_555
C16 C15 1_555 1_555
H15 C16 1_555 1_555
C17 C16 1_555 1_555
H16 C17 1_555 1_555
C18 C13 1_555 1_555
H17 C18 1_555 1_555
C19 C8 1_555 1_555
C20 C19 1_555 1_555
H18 C20 1_555 1_555
C21 C20 1_555 1_555
H19 C21 1_555 1_555
C22 C21 1_555 1_555
H20 C22 1_555 1_555
C23 C22 1_555 1_555
H21 C23 1_555 1_555
C24 C19 1_555 1_555
H22 C24 1_555 1_555
O1 S1 1_555 1_555
O2 S1 1_555 1_555
O3 C8 1_555 1_555
S1 C1 1_555 1_555
C5 C6 1_555 1_555
C17 C18 1_555 1_555
C23 C24 1_555 1_555
O3 S1 1_555 1_555

#END
