
#######################################################################
#
#                 Cambridge Crystallographic Data Centre
#                                CCDC 
#
#######################################################################
#
# If this CIF has been generated from an entry in the Cambridge 
# Structural Database, then it will include bibliographic, chemical, 
# crystal, experimental, refinement or atomic coordinate data resulting 
# from the CCDC's data processing and validation procedures.
#
#######################################################################

data_TEHCAL
_chemical_formula_moiety         'C13 H9 Cl1 N2 O1'
_chemical_name_systematic        
(S)-2-((R)-2-Chloro-2-cyanoethyl)-1-oxo-2,3-dihydro-1H-indene-2-carbonitrile
_symmetry_cell_setting           monoclinic
_symmetry_space_group_name_H-M   'P 21'
_symmetry_Int_Tables_number      4
_space_group_name_Hall           'P 2yb'
loop_
_symmetry_equiv_pos_site_id
_symmetry_equiv_pos_as_xyz
1 x,y,z
2 -x,1/2+y,-z
_cell_length_a                   10.334(3)
_cell_length_b                   6.0435(17)
_cell_length_c                   10.356(3)
_cell_angle_alpha                90
_cell_angle_beta                 115.723(5)
_cell_angle_gamma                90
_cell_volume                     582.676
_exptl_crystal_colour            colorless
_exptl_crystal_description       needle
_cell_formula_units_Z            2
_exptl_crystal_recrystallization_method 'acetone/petroleum ether'
loop_
_atom_site_label
_atom_site_type_symbol
_atom_site_fract_x
_atom_site_fract_y
_atom_site_fract_z
Cl1 Cl 0.42925(7) 0.17596(15) 0.90986(7)
O1 O 0.0147(2) -0.1788(4) 0.4178(2)
N1 N 0.5942(4) -0.2345(7) 0.7911(3)
N2 N 0.3817(3) -0.2060(5) 0.4053(3)
C1 C 0.0660(3) -0.0185(5) 0.3881(3)
C2 C 0.2259(3) 0.0575(5) 0.4803(3)
C3 C 0.2296(3) 0.2949(5) 0.4277(3)
H1 H 0.321(3) 0.338(5) 0.416(3)
H2 H 0.225(3) 0.395(5) 0.499(3)
C4 C 0.0956(3) 0.3129(5) 0.2886(3)
C5 C 0.0572(3) 0.4801(6) 0.1860(3)
H3 H 0.122(3) 0.599(6) 0.206(3)
C6 C -0.0748(4) 0.4667(6) 0.0696(3)
H4 H -0.091(4) 0.559(7) 0.009(4)
C7 C -0.1684(3) 0.2945(7) 0.0509(3)
H5 H -0.266(3) 0.286(6) -0.032(3)
C8 C -0.1310(3) 0.1262(6) 0.1507(3)
H6 H -0.180(3) 0.016(6) 0.144(3)
C9 C 0.0031(3) 0.1383(5) 0.2702(3)
C10 C 0.2628(3) 0.0350(5) 0.6406(3)
H7 H 0.203(3) 0.141(6) 0.659(3)
H8 H 0.244(3) -0.112(6) 0.662(3)
C11 C 0.4182(3) 0.0917(6) 0.7395(3)
H9 H 0.452(3) 0.225(4) 0.706(3)
C12 C 0.5167(4) -0.0920(7) 0.7657(3)
C13 C 0.3146(3) -0.0904(5) 0.4379(3)
loop_
_geom_bond_atom_site_label_1
_geom_bond_atom_site_label_2
_geom_bond_site_symmetry_1
_geom_bond_site_symmetry_2
Cl1 C11 1_555 1_555
O1 C1 1_555 1_555
N1 C12 1_555 1_555
N2 C13 1_555 1_555
C1 C2 1_555 1_555
C2 C3 1_555 1_555
C3 H1 1_555 1_555
H2 C3 1_555 1_555
C4 C3 1_555 1_555
C5 C4 1_555 1_555
H3 C5 1_555 1_555
C6 C5 1_555 1_555
H4 C6 1_555 1_555
C7 C6 1_555 1_555
H5 C7 1_555 1_555
C8 C7 1_555 1_555
H6 C8 1_555 1_555
C9 C1 1_555 1_555
C10 C2 1_555 1_555
H7 C10 1_555 1_555
H8 C10 1_555 1_555
C11 C10 1_555 1_555
H9 C11 1_555 1_555
C12 C11 1_555 1_555
C13 C2 1_555 1_555
C4 C9 1_555 1_555
C8 C9 1_555 1_555

#END
