
#######################################################################
#
#                 Cambridge Crystallographic Data Centre
#                                CCDC 
#
#######################################################################
#
# If this CIF has been generated from an entry in the Cambridge 
# Structural Database, then it will include bibliographic, chemical, 
# crystal, experimental, refinement or atomic coordinate data resulting 
# from the CCDC's data processing and validation procedures.
#
#######################################################################

data_TEHDIW
_chemical_name_common            gene958
_chemical_formula_moiety         'C23 H22 O1'
_chemical_name_systematic        
1,1'-[1-(4-methoxyphenyl)but-1-ene-1,2-diyl]dibenzene
_symmetry_cell_setting           monoclinic
_symmetry_space_group_name_H-M   'P 21/n'
_symmetry_Int_Tables_number      14
_space_group_name_Hall           '-P 2yn'
loop_
_symmetry_equiv_pos_site_id
_symmetry_equiv_pos_as_xyz
1 x,y,z
2 1/2-x,1/2+y,1/2-z
3 -x,-y,-z
4 1/2+x,1/2-y,1/2+z
_cell_length_a                   12.8187(5)
_cell_length_b                   8.7228(4)
_cell_length_c                   15.7048(6)
_cell_angle_alpha                90
_cell_angle_beta                 93.9290(10)
_cell_angle_gamma                90
_cell_volume                     1751.9
_exptl_crystal_colour            colorless
_exptl_crystal_description       block
_cell_formula_units_Z            4
loop_
_atom_site_label
_atom_site_type_symbol
_atom_site_fract_x
_atom_site_fract_y
_atom_site_fract_z
C1 C 0.52150(8) 0.22742(11) 0.37927(6)
C2 C 0.56481(7) 0.21766(11) 0.46041(6)
C3 C 0.50229(8) 0.18609(12) 0.53703(6)
H1 H 0.533064 0.096723 0.568441
H2 H 0.429801 0.158918 0.516784
C4 C 0.49930(9) 0.32218(14) 0.59823(7)
H3 H 0.570558 0.346953 0.620578
H4 H 0.456772 0.295661 0.645628
H5 H 0.468645 0.411119 0.567692
C5 C 0.67902(8) 0.24096(11) 0.48274(6)
C6 C 0.73162(8) 0.36868(11) 0.45308(6)
H6 H 0.695398 0.437901 0.414843
C7 C 0.83575(8) 0.39614(12) 0.47848(6)
H7 H 0.870257 0.482854 0.456969
C8 C 0.88972(8) 0.29762(13) 0.53512(7)
H8 H 0.960515 0.317724 0.553623
C9 C 0.83911(9) 0.16937(13) 0.56445(7)
H9 H 0.875868 0.100333 0.602466
C10 C 0.73514(8) 0.14127(12) 0.53863(7)
H10 H 0.701557 0.052948 0.559223
C11 C 0.58502(7) 0.23800(11) 0.30296(6)
C12 C 0.56007(8) 0.34619(11) 0.23915(6)
H11 H 0.503542 0.414918 0.245099
C13 C 0.61707(8) 0.35439(12) 0.16700(6)
H12 H 0.599638 0.429134 0.124388
C14 C 0.69920(8) 0.25397(14) 0.15702(7)
H13 H 0.738168 0.259693 0.107796
C15 C 0.72396(9) 0.14512(14) 0.21954(7)
H14 H 0.780054 0.075875 0.213015
C16 C 0.66725(8) 0.13675(12) 0.29158(7)
H15 H 0.684622 0.061106 0.333705
C17 C 0.40612(8) 0.21993(11) 0.35834(6)
C18 C 0.33543(8) 0.30815(11) 0.40060(6)
H16 H 0.361370 0.378616 0.443052
C19 C 0.22787(8) 0.29635(12) 0.38258(6)
H17 H 0.181295 0.357218 0.412806
C20 C 0.18922(8) 0.19460(12) 0.31990(6)
C21 C 0.25840(8) 0.10822(12) 0.27484(6)
H18 H 0.232379 0.040085 0.231220
C22 C 0.36499(8) 0.12175(12) 0.29365(6)
H19 H 0.411466 0.063211 0.262047
C23 C 0.01219(8) 0.25224(14) 0.34550(8)
H20 H 0.022595 0.224841 0.406003
H21 H -0.059046 0.224997 0.324210
H22 H 0.022669 0.362766 0.338812
O1 O 0.08534(6) 0.17110(9) 0.29826(5)
loop_
_geom_bond_atom_site_label_1
_geom_bond_atom_site_label_2
_geom_bond_site_symmetry_1
_geom_bond_site_symmetry_2
C1 C2 1_555 1_555
C2 C3 1_555 1_555
C3 H1 1_555 1_555
H2 C3 1_555 1_555
C4 C3 1_555 1_555
H3 C4 1_555 1_555
H4 C4 1_555 1_555
H5 C4 1_555 1_555
C5 C2 1_555 1_555
C6 C5 1_555 1_555
H6 C6 1_555 1_555
C7 C6 1_555 1_555
H7 C7 1_555 1_555
C8 C7 1_555 1_555
H8 C8 1_555 1_555
C9 C8 1_555 1_555
H9 C9 1_555 1_555
C10 C5 1_555 1_555
H10 C10 1_555 1_555
C11 C1 1_555 1_555
C12 C11 1_555 1_555
H11 C12 1_555 1_555
C13 C12 1_555 1_555
H12 C13 1_555 1_555
C14 C13 1_555 1_555
H13 C14 1_555 1_555
C15 C14 1_555 1_555
H14 C15 1_555 1_555
C16 C11 1_555 1_555
H15 C16 1_555 1_555
C17 C1 1_555 1_555
C18 C17 1_555 1_555
H16 C18 1_555 1_555
C19 C18 1_555 1_555
H17 C19 1_555 1_555
C20 C19 1_555 1_555
C21 C20 1_555 1_555
H18 C21 1_555 1_555
C22 C17 1_555 1_555
H19 C22 1_555 1_555
C23 H20 1_555 1_555
H21 C23 1_555 1_555
H22 C23 1_555 1_555
O1 C20 1_555 1_555
C9 C10 1_555 1_555
C15 C16 1_555 1_555
C21 C22 1_555 1_555
C23 O1 1_555 1_555

#END
