
#######################################################################
#
#                 Cambridge Crystallographic Data Centre
#                                CCDC 
#
#######################################################################
#
# If this CIF has been generated from an entry in the Cambridge 
# Structural Database, then it will include bibliographic, chemical, 
# crystal, experimental, refinement or atomic coordinate data resulting 
# from the CCDC's data processing and validation procedures.
#
#######################################################################

data_TEHDUI
_chemical_name_common            gene965
_chemical_formula_moiety         'C23 H19 F3'
_chemical_name_systematic        
1,1'-{1-[4-(trifluoromethyl)phenyl]but-1-ene-1,2-diyl}dibenzene
_symmetry_cell_setting           monoclinic
_symmetry_space_group_name_H-M   'P 21'
_symmetry_Int_Tables_number      4
_space_group_name_Hall           'P 2yb'
loop_
_symmetry_equiv_pos_site_id
_symmetry_equiv_pos_as_xyz
1 x,y,z
2 -x,1/2+y,-z
_cell_length_a                   11.9658(10)
_cell_length_b                   5.5651(5)
_cell_length_c                   13.7040(13)
_cell_angle_alpha                90
_cell_angle_beta                 96.528(3)
_cell_angle_gamma                90
_cell_volume                     906.645
_exptl_crystal_colour            colorless
_exptl_crystal_description       prism
_cell_formula_units_Z            2
loop_
_atom_site_label
_atom_site_type_symbol
_atom_site_fract_x
_atom_site_fract_y
_atom_site_fract_z
C1 C 0.2758(3) 0.4357(7) 0.2774(3)
C2 C 0.1726(3) 0.3918(7) 0.2301(3)
C3 C 0.1503(4) 0.3809(9) 0.1190(3)
H1 H 0.114275 0.225235 0.099675
H2 H 0.222891 0.387927 0.090984
C4 C 0.0747(4) 0.5848(9) 0.0753(4)
H3 H 0.001510 0.575396 0.100721
H4 H 0.064131 0.570077 0.003586
H5 H 0.110054 0.739685 0.093621
C5 C 0.0732(3) 0.3495(8) 0.2842(3)
C6 C 0.0443(3) 0.5113(8) 0.3548(3)
H6 H 0.088130 0.652431 0.367950
C7 C -0.0473(4) 0.4700(8) 0.4061(3)
H7 H -0.065847 0.582731 0.453770
C8 C -0.1113(4) 0.2658(9) 0.3880(3)
H8 H -0.173432 0.236412 0.423823
C9 C -0.0849(4) 0.1025(9) 0.3171(4)
H9 H -0.129054 -0.038311 0.304294
C10 C 0.0058(4) 0.1457(8) 0.2654(3)
H10 H 0.022570 0.035188 0.216302
C11 C 0.3047(3) 0.4299(8) 0.3864(3)
C12 C 0.3688(3) 0.6165(8) 0.4323(3)
H11 H 0.389797 0.748293 0.394304
C13 C 0.4024(3) 0.6122(8) 0.5334(3)
H12 H 0.445571 0.740746 0.563758
C14 C 0.3723(3) 0.4180(8) 0.5894(3)
H13 H 0.394977 0.413782 0.658083
C15 C 0.3097(3) 0.2328(8) 0.5448(3)
H14 H 0.289510 0.100331 0.582832
C16 C 0.2758(3) 0.2382(8) 0.4441(3)
H15 H 0.232399 0.109340 0.414286
C17 C 0.3756(3) 0.4925(8) 0.2246(3)
C18 C 0.3835(4) 0.7007(8) 0.1696(3)
H16 H 0.320916 0.806314 0.159717
C19 C 0.4811(4) 0.7567(9) 0.1291(3)
H17 H 0.484935 0.899104 0.091427
C20 C 0.5734(4) 0.6038(9) 0.1437(3)
C21 C 0.5667(4) 0.3927(9) 0.1973(3)
H18 H 0.628966 0.286031 0.206448
C22 C 0.4684(4) 0.3402(8) 0.2369(3)
H19 H 0.464109 0.196361 0.273634
C23 C 0.6812(4) 0.6652(10) 0.1028(4)
F1 F 0.6919(4) 0.8909(8) 0.0816(4)
F2 F 0.7007(4) 0.5369(9) 0.0293(3)
F3 F 0.7710(3) 0.6324(12) 0.1686(3)
loop_
_geom_bond_atom_site_label_1
_geom_bond_atom_site_label_2
_geom_bond_site_symmetry_1
_geom_bond_site_symmetry_2
C1 C2 1_555 1_555
C2 C3 1_555 1_555
C3 H1 1_555 1_555
H2 C3 1_555 1_555
C4 C3 1_555 1_555
H3 C4 1_555 1_555
H4 C4 1_555 1_555
H5 C4 1_555 1_555
C5 C2 1_555 1_555
C6 C5 1_555 1_555
H6 C6 1_555 1_555
C7 C6 1_555 1_555
H7 C7 1_555 1_555
C8 C7 1_555 1_555
H8 C8 1_555 1_555
C9 C8 1_555 1_555
H9 C9 1_555 1_555
C10 C5 1_555 1_555
H10 C10 1_555 1_555
C11 C1 1_555 1_555
C12 C11 1_555 1_555
H11 C12 1_555 1_555
C13 C12 1_555 1_555
H12 C13 1_555 1_555
C14 C13 1_555 1_555
H13 C14 1_555 1_555
C15 C14 1_555 1_555
H14 C15 1_555 1_555
C16 C11 1_555 1_555
H15 C16 1_555 1_555
C17 C1 1_555 1_555
C18 C17 1_555 1_555
H16 C18 1_555 1_555
C19 C18 1_555 1_555
H17 C19 1_555 1_555
C20 C19 1_555 1_555
C21 C20 1_555 1_555
H18 C21 1_555 1_555
C22 C17 1_555 1_555
H19 C22 1_555 1_555
C23 C20 1_555 1_555
F1 C23 1_555 1_555
F2 C23 1_555 1_555
F3 C23 1_555 1_555
C9 C10 1_555 1_555
C15 C16 1_555 1_555
C21 C22 1_555 1_555

#END
