
#######################################################################
#
#                 Cambridge Crystallographic Data Centre
#                                CCDC 
#
#######################################################################
#
# If this CIF has been generated from an entry in the Cambridge 
# Structural Database, then it will include bibliographic, chemical, 
# crystal, experimental, refinement or atomic coordinate data resulting 
# from the CCDC's data processing and validation procedures.
#
#######################################################################

data_TEHFEU
_chemical_name_common            gene903
_chemical_formula_moiety         'C23 H22'
_chemical_name_systematic        
1,1'-[1-(4-methylphenyl)but-1-ene-1,2-diyl]dibenzene
_symmetry_cell_setting           monoclinic
_symmetry_space_group_name_H-M   'P 21/c'
_symmetry_Int_Tables_number      14
_space_group_name_Hall           '-P 2ybc'
loop_
_symmetry_equiv_pos_site_id
_symmetry_equiv_pos_as_xyz
1 x,y,z
2 -x,1/2+y,1/2-z
3 -x,-y,-z
4 x,1/2-y,1/2+z
_cell_length_a                   5.721(3)
_cell_length_b                   16.056(9)
_cell_length_c                   18.916(11)
_cell_angle_alpha                90
_cell_angle_beta                 91.068(11)
_cell_angle_gamma                90
_cell_volume                     1737.25
_exptl_crystal_colour            colorless
_exptl_crystal_description       prism
_cell_formula_units_Z            4
loop_
_atom_site_label
_atom_site_type_symbol
_atom_site_fract_x
_atom_site_fract_y
_atom_site_fract_z
C1 C 0.2276(3) 0.70560(11) 0.34284(9)
C2 C 0.2194(3) 0.64110(11) 0.38813(9)
C3 C 0.1807(3) 0.65042(11) 0.46661(9)
H1 H 0.193064 0.710116 0.479253
H2 H 0.306557 0.620391 0.492648
C4 C -0.0548(4) 0.61761(13) 0.49064(11)
H3 H -0.180441 0.651789 0.469954
H4 H -0.061342 0.620191 0.542328
H5 H -0.074088 0.559753 0.475090
C5 C 0.2552(3) 0.55352(11) 0.36355(9)
C6 C 0.1022(3) 0.51636(12) 0.31510(9)
H6 H -0.028587 0.547074 0.297649
C7 C 0.1359(3) 0.43543(12) 0.29162(10)
H7 H 0.028145 0.411109 0.258857
C8 C 0.3272(3) 0.39014(12) 0.31609(9)
H8 H 0.352524 0.334928 0.299880
C9 C 0.4809(3) 0.42625(12) 0.36437(10)
H9 H 0.613256 0.395827 0.381042
C10 C 0.4432(3) 0.50625(12) 0.38853(10)
H10 H 0.547654 0.529450 0.422844
C11 C 0.1786(3) 0.79382(11) 0.36337(9)
C12 C 0.3406(3) 0.85577(11) 0.34875(10)
H11 H 0.481813 0.841149 0.326207
C13 C 0.3012(3) 0.93789(12) 0.36617(10)
H12 H 0.415413 0.979005 0.356230
C14 C 0.0946(3) 0.96031(12) 0.39822(10)
H13 H 0.066566 1.016814 0.410330
C15 C -0.0697(3) 0.90035(12) 0.41241(10)
H14 H -0.211654 0.915644 0.434222
C16 C -0.0295(3) 0.81761(12) 0.39507(9)
H15 H -0.144745 0.776805 0.404860
C17 C 0.2987(3) 0.69469(11) 0.26771(9)
C18 C 0.1548(3) 0.72133(11) 0.21212(10)
H16 H 0.010884 0.748020 0.222014
C19 C 0.2185(3) 0.70951(12) 0.14243(10)
H17 H 0.115310 0.726935 0.105372
C20 C 0.4301(3) 0.67267(12) 0.12581(10)
C21 C 0.5767(3) 0.64895(11) 0.18140(10)
H18 H 0.724371 0.625018 0.171474
C22 C 0.5128(3) 0.65933(11) 0.25095(10)
H19 H 0.616641 0.642070 0.287900
C23 C 0.5006(4) 0.65951(15) 0.04995(11)
H20 H 0.361242 0.647735 0.020740
H21 H 0.609062 0.612399 0.047472
H22 H 0.577198 0.709875 0.032482
loop_
_geom_bond_atom_site_label_1
_geom_bond_atom_site_label_2
_geom_bond_site_symmetry_1
_geom_bond_site_symmetry_2
C1 C2 1_555 1_555
C2 C3 1_555 1_555
C3 H1 1_555 1_555
H2 C3 1_555 1_555
C4 C3 1_555 1_555
H3 C4 1_555 1_555
H4 C4 1_555 1_555
H5 C4 1_555 1_555
C5 C2 1_555 1_555
C6 C5 1_555 1_555
H6 C6 1_555 1_555
C7 C6 1_555 1_555
H7 C7 1_555 1_555
C8 C7 1_555 1_555
H8 C8 1_555 1_555
C9 C8 1_555 1_555
H9 C9 1_555 1_555
C10 C5 1_555 1_555
H10 C10 1_555 1_555
C11 C1 1_555 1_555
C12 C11 1_555 1_555
H11 C12 1_555 1_555
C13 C12 1_555 1_555
H12 C13 1_555 1_555
C14 C13 1_555 1_555
H13 C14 1_555 1_555
C15 C14 1_555 1_555
H14 C15 1_555 1_555
C16 C11 1_555 1_555
H15 C16 1_555 1_555
C17 C1 1_555 1_555
C18 C17 1_555 1_555
H16 C18 1_555 1_555
C19 C18 1_555 1_555
H17 C19 1_555 1_555
C20 C19 1_555 1_555
C21 C20 1_555 1_555
H18 C21 1_555 1_555
C22 C17 1_555 1_555
H19 C22 1_555 1_555
C23 C20 1_555 1_555
H20 C23 1_555 1_555
H21 C23 1_555 1_555
H22 C23 1_555 1_555
C9 C10 1_555 1_555
C15 C16 1_555 1_555
C21 C22 1_555 1_555

#END
