
#######################################################################
#
#                 Cambridge Crystallographic Data Centre
#                                CCDC 
#
#######################################################################
#
# If this CIF has been generated from an entry in the Cambridge 
# Structural Database, then it will include bibliographic, chemical, 
# crystal, experimental, refinement or atomic coordinate data resulting 
# from the CCDC's data processing and validation procedures.
#
#######################################################################

data_TEHFEU01
_chemical_name_common            gene833
_chemical_formula_moiety         'C23 H22'
_chemical_name_systematic        
1,1'-[1-(4-methylphenyl)but-1-ene-1,2-diyl]dibenzene
_symmetry_cell_setting           monoclinic
_symmetry_space_group_name_H-M   'P 21/c'
_symmetry_Int_Tables_number      14
_space_group_name_Hall           '-P 2ybc'
loop_
_symmetry_equiv_pos_site_id
_symmetry_equiv_pos_as_xyz
1 x,y,z
2 -x,1/2+y,1/2-z
3 -x,-y,-z
4 x,1/2-y,1/2+z
_cell_length_a                   5.7206(3)
_cell_length_b                   16.0457(10)
_cell_length_c                   18.9021(12)
_cell_angle_alpha                90
_cell_angle_beta                 91.033(4)
_cell_angle_gamma                90
_cell_volume                     1734.76
_exptl_crystal_colour            colorless
_exptl_crystal_description       plate
_cell_formula_units_Z            4
loop_
_atom_site_label
_atom_site_type_symbol
_atom_site_fract_x
_atom_site_fract_y
_atom_site_fract_z
C1 C 0.2274(4) 0.70574(14) 0.34287(12)
C2 C 0.2199(4) 0.64099(15) 0.38833(12)
C3 C 0.1802(4) 0.65032(15) 0.46675(12)
H1 H 0.192787 0.710052 0.479358
H2 H 0.305790 0.620256 0.492877
C4 C -0.0543(5) 0.61790(17) 0.49096(14)
H3 H -0.179901 0.652213 0.470372
H4 H -0.060369 0.620529 0.542693
H5 H -0.074254 0.560012 0.475450
C5 C 0.2552(4) 0.55343(14) 0.36348(12)
C6 C 0.1021(4) 0.51627(15) 0.31504(12)
H6 H -0.028619 0.546981 0.297522
C7 C 0.1361(4) 0.43546(16) 0.29180(13)
H7 H 0.027777 0.410985 0.259281
C8 C 0.3276(4) 0.39021(15) 0.31583(13)
H8 H 0.353302 0.335148 0.299213
C9 C 0.4818(4) 0.42620(16) 0.36450(13)
H9 H 0.614135 0.395764 0.381215
C10 C 0.4432(4) 0.50605(15) 0.38859(13)
H10 H 0.546977 0.529273 0.423074
C11 C 0.1782(4) 0.79379(15) 0.36364(12)
C12 C -0.0294(4) 0.81754(15) 0.39516(12)
H11 H -0.144424 0.776690 0.405080
C13 C -0.0701(4) 0.90061(16) 0.41230(13)
H12 H -0.212673 0.915949 0.433782
C14 C 0.0946(4) 0.96073(16) 0.39837(13)
H13 H 0.066966 1.017244 0.410628
C15 C 0.3010(4) 0.93808(15) 0.36633(13)
H14 H 0.415664 0.979122 0.356511
C16 C 0.3401(4) 0.85574(15) 0.34865(12)
H15 H 0.480734 0.841101 0.325747
C17 C 0.2989(4) 0.69490(14) 0.26778(12)
C18 C 0.1553(4) 0.72128(15) 0.21219(13)
H16 H 0.011382 0.747929 0.222231
C19 C 0.2176(5) 0.70955(16) 0.14218(13)
H17 H 0.114228 0.726992 0.105171
C20 C 0.4298(5) 0.67253(15) 0.12567(13)
C21 C 0.5779(4) 0.64902(14) 0.18190(13)
H18 H 0.726190 0.625450 0.172128
C22 C 0.5130(4) 0.65938(14) 0.25101(13)
H19 H 0.616192 0.641968 0.288066
C23 C 0.4998(6) 0.65936(19) 0.04983(14)
H20 H 0.580686 0.709096 0.032764
H21 H 0.359807 0.649296 0.020422
H22 H 0.604382 0.611135 0.047085
loop_
_geom_bond_atom_site_label_1
_geom_bond_atom_site_label_2
_geom_bond_site_symmetry_1
_geom_bond_site_symmetry_2
C1 C2 1_555 1_555
C2 C3 1_555 1_555
C3 H1 1_555 1_555
H2 C3 1_555 1_555
C4 C3 1_555 1_555
H3 C4 1_555 1_555
H4 C4 1_555 1_555
H5 C4 1_555 1_555
C5 C2 1_555 1_555
C6 C5 1_555 1_555
H6 C6 1_555 1_555
C7 C6 1_555 1_555
H7 C7 1_555 1_555
C8 C7 1_555 1_555
H8 C8 1_555 1_555
C9 C8 1_555 1_555
H9 C9 1_555 1_555
C10 C5 1_555 1_555
H10 C10 1_555 1_555
C11 C1 1_555 1_555
C12 C11 1_555 1_555
H11 C12 1_555 1_555
C13 C12 1_555 1_555
H12 C13 1_555 1_555
C14 C13 1_555 1_555
H13 C14 1_555 1_555
C15 C14 1_555 1_555
H14 C15 1_555 1_555
C16 C11 1_555 1_555
H15 C16 1_555 1_555
C17 C1 1_555 1_555
C18 C17 1_555 1_555
H16 C18 1_555 1_555
C19 C18 1_555 1_555
H17 C19 1_555 1_555
C20 C19 1_555 1_555
C21 C20 1_555 1_555
H18 C21 1_555 1_555
C22 C17 1_555 1_555
H19 C22 1_555 1_555
C23 C20 1_555 1_555
H20 C23 1_555 1_555
H21 C23 1_555 1_555
H22 C23 1_555 1_555
C9 C10 1_555 1_555
C15 C16 1_555 1_555
C21 C22 1_555 1_555

#END
