
#######################################################################
#
#                 Cambridge Crystallographic Data Centre
#                                CCDC 
#
#######################################################################
#
# If this CIF has been generated from an entry in the Cambridge 
# Structural Database, then it will include bibliographic, chemical, 
# crystal, experimental, refinement or atomic coordinate data resulting 
# from the CCDC's data processing and validation procedures.
#
#######################################################################

data_TEHGUI01
_chemical_formula_moiety         'C7 H8 N2 O2'
_chemical_name_systematic        4-Methyl-2-nitroaniline
_symmetry_cell_setting           triclinic
_symmetry_space_group_name_H-M   'P -1'
_symmetry_Int_Tables_number      2
_space_group_name_Hall           '-P 1'
loop_
_symmetry_equiv_pos_site_id
_symmetry_equiv_pos_as_xyz
1 x,y,z
2 -x,-y,-z
_cell_length_a                   7.8329(15)
_cell_length_b                   7.990(2)
_cell_length_c                   12.369(3)
_cell_angle_alpha                79.766(17)
_cell_angle_beta                 81.257(19)
_cell_angle_gamma                69.646(8)
_cell_volume                     710.809
_exptl_crystal_colour            red
_exptl_crystal_description       block
_cell_formula_units_Z            4
_exptl_crystal_recrystallization_method ethanol
loop_
_atom_site_label
_atom_site_type_symbol
_atom_site_fract_x
_atom_site_fract_y
_atom_site_fract_z
C1 C 0.5024(5) 0.7393(5) -0.1528(3)
N1 N 0.3515(4) 0.8855(4) -0.1645(2)
C2 C 0.5877(5) 0.6730(5) -0.0541(3)
N2 N 0.5215(5) 0.7586(4) 0.0417(3)
O1 O 0.3786(4) 0.8923(4) 0.0435(2)
O2 O 0.6058(4) 0.6990(4) 0.1257(2)
C3 C 0.7437(5) 0.5176(5) -0.0483(3)
C4 C 0.8159(5) 0.4226(5) -0.1342(3)
C5 C 0.9803(6) 0.2544(5) -0.1284(3)
C6 C 0.7272(6) 0.4917(5) -0.2330(3)
C7 C 0.5794(6) 0.6414(5) -0.2416(3)
H1 H 0.3022 0.9186 -0.2276
H2 H 0.3022 0.9479 -0.1091
H3 H 0.8006 0.4780 0.0185
H4 H 1.0437 0.2397 -0.2025
H5 H 0.9410 0.1500 -0.0990
H6 H 1.0635 0.2640 -0.0799
H10 H 0.7746 0.4295 -0.2954
H11 H 0.5260 0.6815 -0.3096
N3 N 0.3364(5) 0.9081(4) 0.3057(3)
C8 C 0.1956(6) 1.0524(5) 0.3327(3)
C9 C 0.1502(5) 1.1104(5) 0.4374(3)
N4 N 0.2575(5) 1.0122(4) 0.5270(3)
O3 O 0.3909(4) 0.8738(4) 0.5130(2)
O4 O 0.2122(4) 1.0671(4) 0.6182(2)
C10 C 0.0009(5) 1.2626(5) 0.4590(3)
C11 C -0.1107(6) 1.3626(5) 0.3805(3)
C12 C -0.2750(6) 1.5240(5) 0.4047(4)
C13 C -0.0677(6) 1.3065(5) 0.2759(3)
C14 C 0.0769(6) 1.1604(5) 0.2528(3)
H12 H 0.4096 0.8408 0.3556
H13 H 0.3556 0.8808 0.2380
H14 H -0.0233 1.2973 0.5309
H15 H -0.3467 1.5673 0.3409
H16 H -0.2342 1.6198 0.4195
H17 H -0.3510 1.4897 0.4694
H21 H -0.1429 1.3737 0.2190
H22 H 0.0998 1.1290 0.1801
H7? H 0.9885 0.1961 -0.0518
H8? H 1.0911 0.2858 -0.1553
H9? H 0.9687 0.1717 -0.1744
H18? H -0.2746 1.5506 0.4790
H19? H -0.3870 1.4980 0.4003
H20? H -0.2703 1.6282 0.3504
loop_
_geom_bond_atom_site_label_1
_geom_bond_atom_site_label_2
_geom_bond_site_symmetry_1
_geom_bond_site_symmetry_2
C1 N1 1_555 1_555
N1 H1 1_555 1_555
C2 C1 1_555 1_555
N2 C2 1_555 1_555
O1 N2 1_555 1_555
O2 N2 1_555 1_555
C3 C2 1_555 1_555
C4 C3 1_555 1_555
C5 C4 1_555 1_555
C6 C4 1_555 1_555
C7 C1 1_555 1_555
N3 C8 1_555 1_555
C8 C9 1_555 1_555
C9 N4 1_555 1_555
N4 O3 1_555 1_555
O4 N4 1_555 1_555
C10 C9 1_555 1_555
C11 C10 1_555 1_555
C12 C11 1_555 1_555
C13 C11 1_555 1_555
C14 C8 1_555 1_555
H2 N1 1_555 1_555
H3 C3 1_555 1_555
H4 C5 1_555 1_555
H5 C5 1_555 1_555
H6 C5 1_555 1_555
H10 C6 1_555 1_555
H11 C7 1_555 1_555
H12 N3 1_555 1_555
H13 N3 1_555 1_555
H14 C10 1_555 1_555
H15 C12 1_555 1_555
H16 C12 1_555 1_555
H17 C12 1_555 1_555
H21 C13 1_555 1_555
H22 C14 1_555 1_555
C6 C7 1_555 1_555
C13 C14 1_555 1_555

#END
