
#######################################################################
#
#                 Cambridge Crystallographic Data Centre
#                                CCDC 
#
#######################################################################
#
# If this CIF has been generated from an entry in the Cambridge 
# Structural Database, then it will include bibliographic, chemical, 
# crystal, experimental, refinement or atomic coordinate data resulting 
# from the CCDC's data processing and validation procedures.
#
#######################################################################

data_TEHGIZ
_chemical_name_common            gene905
_chemical_formula_moiety         'C23 H21 F1 O1'
_chemical_name_systematic        
1-[1-(4-fluorophenyl)-1-phenylbut-1-en-2-yl]-4-methoxybenzene
_symmetry_cell_setting           triclinic
_symmetry_space_group_name_H-M   'P -1'
_symmetry_Int_Tables_number      2
_space_group_name_Hall           '-P 1'
loop_
_symmetry_equiv_pos_site_id
_symmetry_equiv_pos_as_xyz
1 x,y,z
2 -x,-y,-z
_cell_length_a                   5.5523(2)
_cell_length_b                   9.9458(3)
_cell_length_c                   17.2211(6)
_cell_angle_alpha                102.928(2)
_cell_angle_beta                 91.667(2)
_cell_angle_gamma                100.473(2)
_cell_volume                     909.021
_exptl_crystal_colour            colorless
_exptl_crystal_description       prism
_cell_formula_units_Z            2
loop_
_atom_site_label
_atom_site_type_symbol
_atom_site_fract_x
_atom_site_fract_y
_atom_site_fract_z
C1 C 0.5072(3) 0.40210(16) 0.77635(9)
C2 C 0.5684(3) 0.53901(16) 0.81479(9)
C3 C 0.5680(3) 0.59043(17) 0.90452(9)
H1 H 0.489382 0.511602 0.927189
H2 H 0.468549 0.664750 0.916267
C4 C 0.8267(3) 0.64899(18) 0.94516(10)
H3 H 0.925601 0.575568 0.934299
H4 H 0.816367 0.679757 1.002941
H5 H 0.903596 0.729088 0.924249
C5 C 0.6478(3) 0.65106(16) 0.77129(9)
C6 C 0.8445(3) 0.64604(16) 0.72306(9)
H6 H 0.928465 0.569771 0.718432
C7 C 0.9220(3) 0.74882(16) 0.68152(9)
H7 H 1.056737 0.742704 0.649004
C8 C 0.8004(3) 0.86070(16) 0.68804(9)
C9 C 0.6034(3) 0.86835(16) 0.73613(9)
H8 H 0.518916 0.944353 0.740458
C10 C 0.5307(3) 0.76554(16) 0.77753(9)
H9 H 0.398313 0.772929 0.810955
C11 C 1.0698(3) 0.96937(19) 0.60468(10)
H10 H 1.213741 0.966780 0.638222
H11 H 1.100201 1.054761 0.584153
H12 H 1.038951 0.886558 0.559834
C12 C 0.4924(3) 0.35305(16) 0.68723(9)
C13 C 0.6081(3) 0.24390(16) 0.65209(9)
H13 H 0.693338 0.200476 0.685122
C14 C 0.6012(3) 0.19755(17) 0.56982(9)
H14 H 0.682591 0.123513 0.547041
C15 C 0.4762(3) 0.25859(18) 0.52064(10)
H15 H 0.473519 0.227886 0.464209
C16 C 0.3553(3) 0.36473(18) 0.55459(10)
H16 H 0.266855 0.406028 0.521232
C17 C 0.3621(3) 0.41144(17) 0.63687(10)
H17 H 0.277201 0.484037 0.659322
C18 C 0.4500(3) 0.28711(16) 0.81971(9)
C19 C 0.6223(3) 0.26427(16) 0.87371(9)
H18 H 0.779713 0.323926 0.883621
C20 C 0.5685(3) 0.15661(16) 0.91308(9)
H19 H 0.686631 0.141783 0.949705
C21 C 0.3394(3) 0.07170(16) 0.89774(9)
C22 C 0.1645(3) 0.08844(17) 0.84451(9)
H20 H 0.008027 0.027798 0.834946
C23 C 0.2220(3) 0.19602(16) 0.80507(9)
H21 H 0.104069 0.207998 0.767386
O1 O 0.8609(2) 0.96937(11) 0.65098(6)
F1 F 0.28270(19) -0.03474(10) 0.93581(6)
loop_
_geom_bond_atom_site_label_1
_geom_bond_atom_site_label_2
_geom_bond_site_symmetry_1
_geom_bond_site_symmetry_2
C1 C2 1_555 1_555
C2 C3 1_555 1_555
C3 H1 1_555 1_555
H2 C3 1_555 1_555
C4 C3 1_555 1_555
H3 C4 1_555 1_555
H4 C4 1_555 1_555
H5 C4 1_555 1_555
C5 C2 1_555 1_555
C6 C5 1_555 1_555
H6 C6 1_555 1_555
C7 C6 1_555 1_555
H7 C7 1_555 1_555
C8 C7 1_555 1_555
C9 C8 1_555 1_555
H8 C9 1_555 1_555
C10 C5 1_555 1_555
H9 C10 1_555 1_555
C11 H10 1_555 1_555
H11 C11 1_555 1_555
H12 C11 1_555 1_555
C12 C1 1_555 1_555
C13 C12 1_555 1_555
H13 C13 1_555 1_555
C14 C13 1_555 1_555
H14 C14 1_555 1_555
C15 C14 1_555 1_555
H15 C15 1_555 1_555
C16 C15 1_555 1_555
H16 C16 1_555 1_555
C17 C12 1_555 1_555
H17 C17 1_555 1_555
C18 C1 1_555 1_555
C19 C18 1_555 1_555
H18 C19 1_555 1_555
C20 C19 1_555 1_555
H19 C20 1_555 1_555
C21 C20 1_555 1_555
C22 C21 1_555 1_555
H20 C22 1_555 1_555
C23 C18 1_555 1_555
H21 C23 1_555 1_555
O1 C8 1_555 1_555
F1 C21 1_555 1_555
C9 C10 1_555 1_555
C11 O1 1_555 1_555
C16 C17 1_555 1_555
C22 C23 1_555 1_555

#END
