
#######################################################################
#
#                 Cambridge Crystallographic Data Centre
#                                CCDC 
#
#######################################################################
#
# If this CIF has been generated from an entry in the Cambridge 
# Structural Database, then it will include bibliographic, chemical, 
# crystal, experimental, refinement or atomic coordinate data resulting 
# from the CCDC's data processing and validation procedures.
#
#######################################################################

data_TEHGAR
_chemical_name_common            gene920
_chemical_formula_moiety         'C23 H19 F3'
_chemical_name_systematic        
1,1'-{1-[4-(trifluoromethyl)phenyl]but-1-ene-1,2-diyl}dibenzene
_symmetry_cell_setting           triclinic
_symmetry_space_group_name_H-M   'P -1'
_symmetry_Int_Tables_number      2
_space_group_name_Hall           '-P 1'
loop_
_symmetry_equiv_pos_site_id
_symmetry_equiv_pos_as_xyz
1 x,y,z
2 -x,-y,-z
_cell_length_a                   9.585(3)
_cell_length_b                   10.156(3)
_cell_length_c                   10.675(3)
_cell_angle_alpha                63.143(4)
_cell_angle_beta                 79.594(4)
_cell_angle_gamma                81.521(4)
_cell_volume                     909.254
_exptl_crystal_colour            colorless
_exptl_crystal_description       prism
_cell_formula_units_Z            2
loop_
_atom_site_label
_atom_site_type_symbol
_atom_site_fract_x
_atom_site_fract_y
_atom_site_fract_z
C1 C 0.58559(17) 0.65957(18) 0.60529(16)
C2 C 0.45141(17) 0.67001(17) 0.66760(17)
C3 C 0.40990(18) 0.60622(19) 0.82634(17)
H1 H 0.491127 0.542628 0.874002
H2 H 0.329562 0.543478 0.853525
C4 C 0.3667(2) 0.7268(2) 0.87687(19)
H3 H 0.445843 0.789445 0.849857
H4 H 0.342880 0.681047 0.980118
H5 H 0.283699 0.787420 0.833092
C5 C 0.33065(17) 0.74868(18) 0.58410(17)
C6 C 0.33365(17) 0.89564(19) 0.48216(17)
H6 H 0.414580 0.948343 0.464567
C7 C 0.22046(18) 0.9652(2) 0.40665(17)
H7 H 0.224347 1.065202 0.337269
C8 C 0.10133(17) 0.8908(2) 0.43100(18)
H8 H 0.023999 0.938986 0.378081
C9 C 0.09567(17) 0.7464(2) 0.53252(18)
H9 H 0.013899 0.694840 0.550240
C10 C 0.20867(17) 0.67633(19) 0.60870(17)
H10 H 0.203157 0.576969 0.679172
C11 C 0.70804(17) 0.58282(18) 0.68708(17)
C12 C 0.74548(17) 0.62028(19) 0.78665(17)
H11 H 0.691254 0.697177 0.805235
C13 C 0.86048(18) 0.5468(2) 0.85842(18)
H12 H 0.885676 0.574931 0.924532
C14 C 0.93927(19) 0.4328(2) 0.83524(19)
H13 H 1.016975 0.381106 0.886520
C15 C 0.90385(19) 0.3950(2) 0.7368(2)
H14 H 0.957553 0.316787 0.720107
C16 C 0.79086(18) 0.4700(2) 0.66221(19)
H15 H 0.769273 0.444410 0.592938
C17 C 0.62372(16) 0.72149(18) 0.44784(17)
C18 C 0.73551(16) 0.81344(19) 0.38260(17)
H16 H 0.787712 0.833380 0.438994
C19 C 0.77175(17) 0.87617(19) 0.23713(18)
H17 H 0.846838 0.940369 0.194079
C20 C 0.69818(18) 0.84504(19) 0.15456(18)
C21 C 0.58885(18) 0.75124(19) 0.21787(18)
H18 H 0.538767 0.729152 0.161401
C22 C 0.55254(17) 0.68966(18) 0.36346(17)
H19 H 0.477985 0.624788 0.406220
C23 C 0.7353(2) 0.9149(2) -0.00294(19)
F1 F 0.6319(4) 0.9028(5) -0.0720(3)
F2 F 0.7431(6) 1.0575(3) -0.0589(3)
F3 F 0.8481(5) 0.8598(6) -0.0509(3)
F4? F 0.6555(9) 1.0128(10) -0.0661(4)
F5? F 0.8698(7) 0.9686(11) -0.0400(4)
F6? F 0.7626(10) 0.8141(5) -0.0475(4)
loop_
_geom_bond_atom_site_label_1
_geom_bond_atom_site_label_2
_geom_bond_site_symmetry_1
_geom_bond_site_symmetry_2
C1 C2 1_555 1_555
C2 C3 1_555 1_555
C3 H1 1_555 1_555
H2 C3 1_555 1_555
C4 C3 1_555 1_555
H3 C4 1_555 1_555
H4 C4 1_555 1_555
H5 C4 1_555 1_555
C5 C2 1_555 1_555
C6 C5 1_555 1_555
H6 C6 1_555 1_555
C7 C6 1_555 1_555
H7 C7 1_555 1_555
C8 C7 1_555 1_555
H8 C8 1_555 1_555
C9 C8 1_555 1_555
H9 C9 1_555 1_555
C10 C5 1_555 1_555
H10 C10 1_555 1_555
C11 C1 1_555 1_555
C12 C11 1_555 1_555
H11 C12 1_555 1_555
C13 C12 1_555 1_555
H12 C13 1_555 1_555
C14 C13 1_555 1_555
H13 C14 1_555 1_555
C15 C14 1_555 1_555
H14 C15 1_555 1_555
C16 C11 1_555 1_555
H15 C16 1_555 1_555
C17 C1 1_555 1_555
C18 C17 1_555 1_555
H16 C18 1_555 1_555
C19 C18 1_555 1_555
H17 C19 1_555 1_555
C20 C19 1_555 1_555
C21 C20 1_555 1_555
H18 C21 1_555 1_555
C22 C17 1_555 1_555
H19 C22 1_555 1_555
C23 C20 1_555 1_555
F1 C23 1_555 1_555
F2 C23 1_555 1_555
F3 C23 1_555 1_555
C9 C10 1_555 1_555
C15 C16 1_555 1_555
C21 C22 1_555 1_555

#END
