
#######################################################################
#
#                 Cambridge Crystallographic Data Centre
#                                CCDC 
#
#######################################################################
#
# If this CIF has been generated from an entry in the Cambridge 
# Structural Database, then it will include bibliographic, chemical, 
# crystal, experimental, refinement or atomic coordinate data resulting 
# from the CCDC's data processing and validation procedures.
#
#######################################################################

data_TEHJEY
_chemical_formula_moiety         'C26 H28 N2 O5'
_chemical_name_systematic        
'2-methoxyethyl 2,4-dimethyl-9-(3-nitrophenyl)-6-phenyl-3-azatricyclo[3.3.1.0^2,7^]non-3-ene-1-carboxylate'
_symmetry_cell_setting           monoclinic
_symmetry_space_group_name_H-M   'P 21/n'
_symmetry_Int_Tables_number      14
_space_group_name_Hall           '-P 2yn'
loop_
_symmetry_equiv_pos_site_id
_symmetry_equiv_pos_as_xyz
1 x,y,z
2 1/2-x,1/2+y,1/2-z
3 -x,-y,-z
4 1/2+x,1/2-y,1/2+z
_cell_length_a                   7.7500(10)
_cell_length_b                   20.882(3)
_cell_length_c                   14.5149(19)
_cell_angle_alpha                90
_cell_angle_beta                 93.914(3)
_cell_angle_gamma                90
_cell_volume                     2343.55
_exptl_crystal_colour            colorless
_exptl_crystal_description       prismatic
_cell_formula_units_Z            4
loop_
_atom_site_label
_atom_site_type_symbol
_atom_site_fract_x
_atom_site_fract_y
_atom_site_fract_z
N1 N 0.7304(3) 0.21260(11) 0.21896(15)
N2 N 0.8470(5) -0.08067(15) 0.4725(2)
O1 O 0.7234(5) -0.08256(15) 0.5199(2)
O2 O 0.9629(5) -0.11961(16) 0.4781(2)
O3 O 0.3930(3) 0.02253(11) 0.18124(16)
O4 O 0.6106(4) 0.05856(14) 0.10367(18)
C1 C 0.4974(3) 0.12387(15) 0.22280(19)
C2 C 0.3172(4) 0.15287(17) 0.2334(2)
H1 H 0.2409 0.1512 0.1776
H2 H 0.2601 0.1368 0.2861
C3 C 0.4074(4) 0.21771(16) 0.2500(2)
H3 H 0.3435 0.2550 0.2248
C4 C 0.4712(4) 0.22260(15) 0.3518(2)
H4 H 0.3818 0.2036 0.3878
C5 C 0.6326(4) 0.17774(14) 0.36266(18)
H5 H 0.6755 0.1741 0.4275
C6 C 0.7674(3) 0.20559(13) 0.30531(18)
C7 C 0.9388(4) 0.22556(15) 0.3486(2)
H6 H 1.0126 0.2382 0.3014
H7 H 0.9905 0.1904 0.3830
H8 H 0.9236 0.2610 0.3895
C8 C 0.5547(4) 0.19209(15) 0.18987(19)
C9 C 0.5074(4) 0.28884(15) 0.3904(2)
C10 C 0.4649(4) 0.30241(19) 0.4795(2)
H9 H 0.4133 0.2709 0.5137
C11 C 0.4974(6) 0.3612(3) 0.5180(4)
H10 H 0.4664 0.3693 0.5776
C12 C 0.5748(6) 0.4086(3) 0.4703(5)
H11 H 0.5992 0.4481 0.4976
C13 C 0.6159(5) 0.39654(19) 0.3811(4)
H12 H 0.6666 0.4285 0.3474
C14 C 0.5820(4) 0.33690(17) 0.3410(3)
H13 H 0.6097 0.3294 0.2806
C15 C 0.5808(3) 0.11103(14) 0.32145(18)
H14 H 0.4891 0.0943 0.3580
C16 C 0.7283(3) 0.06315(13) 0.33017(17)
C17 C 0.7236(4) 0.01483(14) 0.39485(18)
H15 H 0.6305 0.0117 0.4318
C18 C 0.8568(4) -0.02877(14) 0.4047(2)
C19 C 0.9981(4) -0.02599(16) 0.3533(2)
H16 H 1.0872 -0.0557 0.3616
C20 C 1.0042(4) 0.02214(16) 0.2892(2)
H17 H 1.0991 0.0254 0.2535
C21 C 0.8711(4) 0.06571(15) 0.2771(2)
H18 H 0.8769 0.0975 0.2326
C22 C 0.5203(5) 0.2055(2) 0.0875(2)
H19 H 0.5349 0.2504 0.0762
H20 H 0.4041 0.1931 0.0683
H21 H 0.6001 0.1815 0.0533
C23 C 0.5100(4) 0.06623(17) 0.1613(2)
C24 C 0.415(3) -0.0369(7) 0.1292(13)
H22 H 0.5328 -0.0411 0.1120
H23 H 0.3378 -0.0373 0.0735
C25 C 0.3706(14) -0.0896(6) 0.1919(8)
H24 H 0.3729 -0.1300 0.1591
C26 C 0.4612(16) -0.1380(8) 0.3279(9)
H25 H 0.4265 -0.1769 0.2967
H26 H 0.3743 -0.1254 0.3683
H27 H 0.5689 -0.1447 0.3633
O5 O 0.3507(7) -0.0967(3) 0.2802(4)
O6? O 0.4808(12) -0.0920(4) 0.2659(7)
H28? H 0.2544 -0.0832 0.2111
C27? C 0.380(3) -0.0425(7) 0.1418(13)
H29? H 0.4305 -0.0430 0.0826
H30? H 0.2589 -0.0543 0.1318
C28? C 0.4715(15) -0.0904(6) 0.2055(8)
H31? H 0.4867 -0.1310 0.1746
C29? C 0.4046(16) -0.1394(7) 0.3530(9)
H32? H 0.4645 -0.1751 0.3282
H33? H 0.3052 -0.1546 0.3824
H34? H 0.4806 -0.1174 0.3974
H35? H 0.5834 -0.0746 0.2293
loop_
_geom_bond_atom_site_label_1
_geom_bond_atom_site_label_2
_geom_bond_site_symmetry_1
_geom_bond_site_symmetry_2
N1 C6 1_555 1_555
N2 O1 1_555 1_555
O2 N2 1_555 1_555
O3 C23 1_555 1_555
O4 C23 1_555 1_555
C1 C2 1_555 1_555
C2 H1 1_555 1_555
H2 C2 1_555 1_555
C3 C2 1_555 1_555
H3 C3 1_555 1_555
C4 C3 1_555 1_555
H4 C4 1_555 1_555
C5 C4 1_555 1_555
H5 C5 1_555 1_555
C6 C5 1_555 1_555
C7 C6 1_555 1_555
H6 C7 1_555 1_555
H7 C7 1_555 1_555
H8 C7 1_555 1_555
C8 N1 1_555 1_555
C9 C4 1_555 1_555
C10 C9 1_555 1_555
H9 C10 1_555 1_555
C11 C10 1_555 1_555
H10 C11 1_555 1_555
C12 C11 1_555 1_555
H11 C12 1_555 1_555
C13 C12 1_555 1_555
H12 C13 1_555 1_555
C14 C9 1_555 1_555
H13 C14 1_555 1_555
C15 C1 1_555 1_555
H14 C15 1_555 1_555
C16 C15 1_555 1_555
C17 C16 1_555 1_555
H15 C17 1_555 1_555
C18 N2 1_555 1_555
C19 C18 1_555 1_555
H16 C19 1_555 1_555
C20 C19 1_555 1_555
H17 C20 1_555 1_555
C21 C16 1_555 1_555
H18 C21 1_555 1_555
C22 C8 1_555 1_555
H19 C22 1_555 1_555
H20 C22 1_555 1_555
H21 C22 1_555 1_555
C23 C1 1_555 1_555
C24 O3 1_555 1_555
H22 C24 1_555 1_555
H23 C24 1_555 1_555
C25 C24 1_555 1_555
H24 C25 1_555 1_555
C26 H25 1_555 1_555
H26 C26 1_555 1_555
H27 C26 1_555 1_555
O5 C25 1_555 1_555
C1 C8 1_555 1_555
C3 C8 1_555 1_555
C5 C15 1_555 1_555
C13 C14 1_555 1_555
C17 C18 1_555 1_555
C20 C21 1_555 1_555
C26 O5 1_555 1_555

#END
