
#######################################################################
#
#                 Cambridge Crystallographic Data Centre
#                                CCDC 
#
#######################################################################
#
# If this CIF has been generated from an entry in the Cambridge 
# Structural Database, then it will include bibliographic, chemical, 
# crystal, experimental, refinement or atomic coordinate data resulting 
# from the CCDC's data processing and validation procedures.
#
#######################################################################

data_TEHKOJ
_chemical_formula_moiety         'C12 H13 N1 O4'
_chemical_name_systematic        
'(E)-methyl 3-(2-((methoxycarbonyl)amino)phenyl)prop-2-enoate'
_symmetry_cell_setting           triclinic
_symmetry_space_group_name_H-M   'P -1'
_symmetry_Int_Tables_number      2
_space_group_name_Hall           '-P 1'
loop_
_symmetry_equiv_pos_site_id
_symmetry_equiv_pos_as_xyz
1 x,y,z
2 -x,-y,-z
_cell_length_a                   4.9045(4)
_cell_length_b                   10.4027(10)
_cell_length_c                   12.0076(10)
_cell_angle_alpha                83.328(4)
_cell_angle_beta                 80.762(6)
_cell_angle_gamma                89.239(6)
_cell_volume                     600.578
_exptl_crystal_colour            colorless
_exptl_crystal_description       block
_chemical_melting_point          '122.5-123.5 deg.C'
_cell_formula_units_Z            2
_exptl_crystal_recrystallization_method 'ethyl acetate/petroleum'
loop_
_atom_site_label
_atom_site_type_symbol
_atom_site_fract_x
_atom_site_fract_y
_atom_site_fract_z
O1 O -0.3954(5) 0.7593(3) 0.0093(3)
O2 O -0.0091(5) 0.8689(3) -0.0691(2)
O3 O 0.5430(8) 0.8853(3) 0.3312(3)
O4 O 0.6530(6) 0.7522(3) 0.4748(2)
N1 N 0.0174(5) 0.7134(3) 0.0687(2)
H1 H 0.1831 0.7424 0.0627
C1 C -0.0118(8) 0.4657(4) 0.3178(4)
H2 H 0.0648 0.4492 0.3840
C2 C -0.1890(9) 0.3753(4) 0.2915(4)
H3 H -0.2327 0.2995 0.3401
C3 C -0.3008(8) 0.3988(4) 0.1920(4)
H4 H -0.4213 0.3387 0.1744
C4 C -0.2359(7) 0.5090(4) 0.1197(3)
H5 H -0.3101 0.5231 0.0528
C5 C -0.0572(6) 0.6015(3) 0.1460(3)
C6 C 0.0545(6) 0.5810(3) 0.2471(3)
C7 C 0.2291(7) 0.6797(3) 0.2771(3)
H6 H 0.2391 0.7589 0.2319
C8 C 0.3759(7) 0.6694(4) 0.3618(3)
H7 H 0.3811 0.5909 0.4072
C9 C 0.5286(7) 0.7807(4) 0.3836(3)
C10 C 0.8014(11) 0.8568(5) 0.5077(5)
H8 H 0.8886 0.9096 0.4409
H9 H 0.9394 0.8220 0.5509
H10 H 0.6748 0.9085 0.5531
C11 C -0.1516(6) 0.7781(3) 0.0036(3)
C12 C -0.1616(11) 0.9469(5) -0.1443(4)
H11 H -0.0372 1.0046 -0.1963
H12 H -0.2971 0.9964 -0.1008
H13 H -0.2523 0.8920 -0.1861
loop_
_geom_bond_atom_site_label_1
_geom_bond_atom_site_label_2
_geom_bond_site_symmetry_1
_geom_bond_site_symmetry_2
O1 C11 1_555 1_555
O2 C11 1_555 1_555
O3 C9 1_555 1_555
O4 C9 1_555 1_555
N1 H1 1_555 1_555
C1 H2 1_555 1_555
C2 C1 1_555 1_555
H3 C2 1_555 1_555
C3 C2 1_555 1_555
H4 C3 1_555 1_555
C4 C3 1_555 1_555
H5 C4 1_555 1_555
C5 N1 1_555 1_555
C6 C1 1_555 1_555
C7 C6 1_555 1_555
H6 C7 1_555 1_555
C8 C7 1_555 1_555
H7 C8 1_555 1_555
C9 C8 1_555 1_555
C10 O4 1_555 1_555
H8 C10 1_555 1_555
H9 C10 1_555 1_555
H10 C10 1_555 1_555
C11 N1 1_555 1_555
C12 O2 1_555 1_555
H11 C12 1_555 1_555
H12 C12 1_555 1_555
H13 C12 1_555 1_555
C4 C5 1_555 1_555
C5 C6 1_555 1_555

#END
