
#######################################################################
#
#                 Cambridge Crystallographic Data Centre
#                                CCDC 
#
#######################################################################
#
# If this CIF has been generated from an entry in the Cambridge 
# Structural Database, then it will include bibliographic, chemical, 
# crystal, experimental, refinement or atomic coordinate data resulting 
# from the CCDC's data processing and validation procedures.
#
#######################################################################

data_TEHLUP
_chemical_formula_moiety         'C18 H28 N4 O4'
_chemical_name_systematic        
2,5-bis((2-(Morpholin-4-yl)ethyl)amino)-1,4-benzoquinone
_symmetry_cell_setting           monoclinic
_symmetry_space_group_name_H-M   'P 21/c'
_symmetry_Int_Tables_number      14
_space_group_name_Hall           '-P 2ybc'
loop_
_symmetry_equiv_pos_site_id
_symmetry_equiv_pos_as_xyz
1 x,y,z
2 -x,1/2+y,1/2-z
3 -x,-y,-z
4 x,1/2-y,1/2+z
_cell_length_a                   17.1184(11)
_cell_length_b                   5.1313(4)
_cell_length_c                   11.1236(8)
_cell_angle_alpha                90
_cell_angle_beta                 107.987(3)
_cell_angle_gamma                90
_cell_volume                     929.339
_exptl_crystal_colour            red
_exptl_crystal_description       block
_cell_formula_units_Z            2
loop_
_atom_site_label
_atom_site_type_symbol
_atom_site_fract_x
_atom_site_fract_y
_atom_site_fract_z
O1 O 0.35811(6) 1.2358(2) 0.48494(11)
O2 O 0.05846(8) 0.4446(3) 0.17720(13)
N1 N 0.36083(8) 0.9170(3) 0.30132(13)
N2 N 0.20128(7) 0.7220(2) 0.16625(11)
C1 C 0.42525(8) 1.1317(3) 0.49653(15)
C2 C 0.43095(8) 0.9467(3) 0.39435(14)
C3 C 0.50319(8) 0.8256(3) 0.40000(15)
H1 H 0.5053 0.7141 0.3352
C4 C 0.35042(9) 0.7479(4) 0.19338(16)
H2 H 0.3618 0.5692 0.2218
H3 H 0.3890 0.7970 0.1493
C5 C 0.26367(9) 0.7679(3) 0.10427(15)
H4 H 0.2556 0.9403 0.0666
H5 H 0.2566 0.6421 0.0367
C6 C 0.20496(11) 0.4571(3) 0.21476(18)
H6 H 0.2569 0.4310 0.2803
H7 H 0.2021 0.3345 0.1471
C7 C 0.13594(13) 0.4051(4) 0.26766(19)
H8 H 0.1396 0.2267 0.2978
H9 H 0.1413 0.5193 0.3393
C8 C 0.05340(11) 0.7050(4) 0.1342(2)
H10 H 0.0582 0.8221 0.2045
H11 H 0.0002 0.7337 0.0719
C9 C 0.11963(9) 0.7652(3) 0.07650(15)
H12 H 0.1127 0.6557 0.0029
H13 H 0.1148 0.9454 0.0489
H14 H 0.3178(8) 0.997(3) 0.3143(17)
O1B O 0.64189(6) 0.7642(2) 0.51506(11)
O2B O 0.94154(8) 1.5554(3) 0.82280(13)
N1B N 0.63917(8) 1.0830(3) 0.69868(13)
N2B N 0.79872(7) 1.2780(2) 0.83375(11)
C1B C 0.57475(8) 0.8683(3) 0.50347(15)
C2B C 0.56905(8) 1.0533(3) 0.60565(14)
C3B C 0.49681(8) 1.1744(3) 0.60000(15)
H1B H 0.4947 1.2859 0.6648
C4B C 0.64958(9) 1.2521(4) 0.80662(16)
H2B H 0.6382 1.4308 0.7782
H3B H 0.6110 1.2030 0.8507
C5B C 0.73633(9) 1.2321(3) 0.89573(15)
H4B H 0.7444 1.0597 0.9334
H5B H 0.7434 1.3579 0.9633
C6B C 0.79504(11) 1.5429(3) 0.78524(18)
H6B H 0.7431 1.5690 0.7197
H7B H 0.7979 1.6655 0.8529
C7B C 0.86406(13) 1.5949(4) 0.73234(19)
H8B H 0.8604 1.7733 0.7022
H9B H 0.8587 1.4807 0.6607
C8B C 0.94660(11) 1.2950(4) 0.8658(2)
H10B H 0.9418 1.1779 0.7955
H11B H 0.9998 1.2663 0.9281
C9B C 0.88037(9) 1.2348(3) 0.92350(15)
H12B H 0.8873 1.3443 0.9971
H13B H 0.8852 1.0546 0.9511
H14B H 0.6822(8) 1.003(3) 0.6857(17)
loop_
_geom_bond_atom_site_label_1
_geom_bond_atom_site_label_2
_geom_bond_site_symmetry_1
_geom_bond_site_symmetry_2
O1 C1 1_555 1_555
O2 C7 1_555 1_555
N1 C2 1_555 1_555
N2 C5 1_555 1_555
C1 C2 1_555 1_555
C2 C3 1_555 1_555
C3 H1 1_555 1_555
C4 N1 1_555 1_555
H2 C4 1_555 1_555
H3 C4 1_555 1_555
C5 C4 1_555 1_555
H4 C5 1_555 1_555
H5 C5 1_555 1_555
C6 N2 1_555 1_555
H6 C6 1_555 1_555
H7 C6 1_555 1_555
C7 C6 1_555 1_555
H8 C7 1_555 1_555
H9 C7 1_555 1_555
C8 O2 1_555 1_555
H10 C8 1_555 1_555
H11 C8 1_555 1_555
C9 N2 1_555 1_555
H12 C9 1_555 1_555
H13 C9 1_555 1_555
H14 N1 1_555 1_555
O1B C1B 1_555 1_555
O2B C7B 1_555 1_555
N1B C2B 1_555 1_555
N2B C5B 1_555 1_555
C1B C3 1_555 1_555
C2B C1B 1_555 1_555
C3B C1 1_555 1_555
H1B C3B 1_555 1_555
C4B N1B 1_555 1_555
H2B C4B 1_555 1_555
H3B C4B 1_555 1_555
C5B C4B 1_555 1_555
H4B C5B 1_555 1_555
H5B C5B 1_555 1_555
C6B N2B 1_555 1_555
H6B C6B 1_555 1_555
H7B C6B 1_555 1_555
C7B C6B 1_555 1_555
H8B C7B 1_555 1_555
H9B C7B 1_555 1_555
C8B O2B 1_555 1_555
H10B C8B 1_555 1_555
H11B C8B 1_555 1_555
C9B N2B 1_555 1_555
H12B C9B 1_555 1_555
H13B C9B 1_555 1_555
H14B N1B 1_555 1_555
C8 C9 1_555 1_555
C2B C3B 1_555 1_555
C8B C9B 1_555 1_555

#END
