
#######################################################################
#
#                 Cambridge Crystallographic Data Centre
#                                CCDC 
#
#######################################################################
#
# If this CIF has been generated from an entry in the Cambridge 
# Structural Database, then it will include bibliographic, chemical, 
# crystal, experimental, refinement or atomic coordinate data resulting 
# from the CCDC's data processing and validation procedures.
#
#######################################################################

data_TEHMUR
_chemical_name_common            gene800
_chemical_formula_moiety         'C23 H22 O3 S1'
_chemical_name_systematic        
'1,2-diphenylbut-1-en-1-yl 4-methylbenzene-1-sulfonate'
_symmetry_cell_setting           orthorhombic
_symmetry_space_group_name_H-M   'P 21 21 21'
_symmetry_Int_Tables_number      19
_space_group_name_Hall           'P 2ac 2ab'
loop_
_symmetry_equiv_pos_site_id
_symmetry_equiv_pos_as_xyz
1 x,y,z
2 1/2-x,-y,1/2+z
3 -x,1/2+y,1/2-z
4 1/2+x,1/2-y,-z
_cell_length_a                   5.9623(3)
_cell_length_b                   7.8320(3)
_cell_length_c                   41.1862(18)
_cell_angle_alpha                90
_cell_angle_beta                 90
_cell_angle_gamma                90
_cell_volume                     1923.26
_exptl_crystal_colour            colorless
_exptl_crystal_description       prism
_cell_formula_units_Z            4
loop_
_atom_site_label
_atom_site_type_symbol
_atom_site_fract_x
_atom_site_fract_y
_atom_site_fract_z
C1 C 0.5814(5) 0.7035(4) 0.43975(7)
C2 C 0.3783(5) 0.6639(4) 0.45411(7)
H1 H 0.322457 0.550318 0.453776
C3 C 0.2589(6) 0.7925(4) 0.46891(6)
H2 H 0.121129 0.766041 0.479350
C4 C 0.3348(5) 0.9603(4) 0.46894(7)
C5 C 0.5425(6) 0.9958(4) 0.45491(7)
H3 H 0.599223 1.109082 0.455406
C6 C 0.6664(6) 0.8688(4) 0.44035(7)
H4 H 0.807836 0.893679 0.430845
C7 C 0.1963(6) 1.1034(4) 0.48306(7)
H5 H 0.272001 1.149552 0.502264
H6 H 0.048381 1.059610 0.489253
H7 H 0.178569 1.193851 0.466826
C8 C 0.6342(5) 0.4069(4) 0.36349(7)
C9 C 0.7740(6) 0.4356(4) 0.33880(7)
C10 C 0.9185(17) 0.5894(10) 0.33683(17)
H8 H 1.072751 0.555058 0.330762
H9 H 0.925105 0.645259 0.358371
C11 C 0.8292(11) 0.7146(7) 0.31203(12)
H10 H 0.836788 0.663312 0.290353
H11 H 0.919987 0.818898 0.312475
H12 H 0.673095 0.742676 0.317195
C12 C 0.7967(6) 0.3135(4) 0.31116(7)
C13 C 0.9942(6) 0.2227(4) 0.30666(7)
H13 H 1.114457 0.236378 0.321562
C14 C 1.0173(7) 0.1125(5) 0.28066(8)
H14 H 1.152912 0.050582 0.277861
C15 C 0.8437(7) 0.0919(5) 0.25869(8)
H15 H 0.859177 0.015603 0.240905
C16 C 0.6498(7) 0.1824(6) 0.26281(8)
H16 H 0.530420 0.169287 0.247734
C17 C 0.6259(6) 0.2932(5) 0.28884(8)
H17 H 0.490583 0.355936 0.291336
C18 C 0.4869(5) 0.2594(4) 0.37027(7)
C19 C 0.5445(5) 0.0933(4) 0.36131(7)
H18 H 0.683514 0.072463 0.350756
C20 C 0.4017(6) -0.0407(4) 0.36762(7)
H19 H 0.443042 -0.153010 0.361281
C21 C 0.1982(6) -0.0140(4) 0.38313(7)
H20 H 0.099598 -0.106752 0.387269
C22 C 0.1411(5) 0.1499(4) 0.39247(7)
H21 H 0.002702 0.169497 0.403280
C23 C 0.2827(5) 0.2852(4) 0.38626(6)
H22 H 0.241224 0.397009 0.392903
O1 O 0.9549(4) 0.6010(3) 0.41365(6)
O2 O 0.7009(4) 0.3823(3) 0.43435(5)
O3 O 0.5987(4) 0.5467(3) 0.38575(5)
S1 S 0.73206(13) 0.54399(9) 0.41937(2)
C24? C 0.863(5) 0.628(3) 0.3290(5)
H23? H 0.807324 0.659524 0.307223
H24? H 0.807678 0.712487 0.344906
C25? C 1.1092(19) 0.6240(15) 0.3292(2)
H25? H 1.162817 0.597011 0.351056
H26? H 1.166959 0.735938 0.322569
H27? H 1.162268 0.536754 0.313928
loop_
_geom_bond_atom_site_label_1
_geom_bond_atom_site_label_2
_geom_bond_site_symmetry_1
_geom_bond_site_symmetry_2
C1 C2 1_555 1_555
C2 H1 1_555 1_555
C3 C2 1_555 1_555
H2 C3 1_555 1_555
C4 C3 1_555 1_555
C5 C4 1_555 1_555
H3 C5 1_555 1_555
C6 C1 1_555 1_555
H4 C6 1_555 1_555
C7 C4 1_555 1_555
H5 C7 1_555 1_555
H6 C7 1_555 1_555
H7 C7 1_555 1_555
C8 C9 1_555 1_555
C9 C10 1_555 1_555
C10 H8 1_555 1_555
H9 C10 1_555 1_555
C11 C10 1_555 1_555
H10 C11 1_555 1_555
H11 C11 1_555 1_555
H12 C11 1_555 1_555
C12 C9 1_555 1_555
C13 C12 1_555 1_555
H13 C13 1_555 1_555
C14 C13 1_555 1_555
H14 C14 1_555 1_555
C15 C14 1_555 1_555
H15 C15 1_555 1_555
C16 C15 1_555 1_555
H16 C16 1_555 1_555
C17 C12 1_555 1_555
H17 C17 1_555 1_555
C18 C8 1_555 1_555
C19 C18 1_555 1_555
H18 C19 1_555 1_555
C20 C19 1_555 1_555
H19 C20 1_555 1_555
C21 C20 1_555 1_555
H20 C21 1_555 1_555
C22 C21 1_555 1_555
H21 C22 1_555 1_555
C23 C18 1_555 1_555
H22 C23 1_555 1_555
O1 S1 1_555 1_555
O2 S1 1_555 1_555
O3 C8 1_555 1_555
S1 C1 1_555 1_555
C5 C6 1_555 1_555
C16 C17 1_555 1_555
C22 C23 1_555 1_555
O3 S1 1_555 1_555

#END
