
#######################################################################
#
#                 Cambridge Crystallographic Data Centre
#                                CCDC 
#
#######################################################################
#
# If this CIF has been generated from an entry in the Cambridge 
# Structural Database, then it will include bibliographic, chemical, 
# crystal, experimental, refinement or atomic coordinate data resulting 
# from the CCDC's data processing and validation procedures.
#
#######################################################################

data_TEHNUS
_chemical_name_common            gene804
_chemical_formula_moiety         'C24 H21 F3 O3 S1'
_chemical_name_systematic        
'2-phenyl-1-[4-(trifluoromethyl)phenyl]but-1-en-1-yl 4-methylbenzene-1-sulfonate'
_symmetry_cell_setting           monoclinic
_symmetry_space_group_name_H-M   'P 21/n'
_symmetry_Int_Tables_number      14
_space_group_name_Hall           '-P 2yn'
loop_
_symmetry_equiv_pos_site_id
_symmetry_equiv_pos_as_xyz
1 x,y,z
2 1/2-x,1/2+y,1/2-z
3 -x,-y,-z
4 1/2+x,1/2-y,1/2+z
_cell_length_a                   6.0473(2)
_cell_length_b                   23.2692(9)
_cell_length_c                   15.0816(5)
_cell_angle_alpha                90
_cell_angle_beta                 98.752(2)
_cell_angle_gamma                90
_cell_volume                     2097.51
_exptl_crystal_colour            colorless
_exptl_crystal_description       rod
_cell_formula_units_Z            4
loop_
_atom_site_label
_atom_site_type_symbol
_atom_site_fract_x
_atom_site_fract_y
_atom_site_fract_z
C1 C 0.2640(3) 0.53932(9) 0.13751(14)
C2 C 0.1932(4) 0.52187(9) 0.21654(15)
H1 H 0.054957 0.535124 0.231506
C3 C 0.3264(4) 0.48497(10) 0.27315(15)
H2 H 0.279043 0.473066 0.327524
C4 C 0.5282(4) 0.46495(9) 0.25204(15)
C5 C 0.5941(4) 0.48225(10) 0.17128(15)
H3 H 0.729845 0.468004 0.155260
C6 C 0.4646(4) 0.51975(9) 0.11445(14)
H4 H 0.512058 0.532008 0.060278
C7 C 0.6727(4) 0.42484(11) 0.31451(17)
H5 H 0.600966 0.387035 0.313554
H6 H 0.691759 0.440370 0.375604
H7 H 0.819375 0.421034 0.295005
C8 C 0.2159(3) 0.68073(9) 0.16922(14)
C9 C 0.0861(4) 0.72739(9) 0.15984(15)
C10 C -0.0424(4) 0.74629(10) 0.07072(15)
H8 H -0.033309 0.715389 0.026304
H9 H 0.031997 0.780654 0.050190
C11 C -0.2870(4) 0.76046(11) 0.07122(16)
H10 H -0.363606 0.726690 0.090735
H11 H -0.356632 0.771454 0.010650
H12 H -0.298708 0.792396 0.112616
C12 C 0.0851(4) 0.76712(9) 0.23798(14)
C13 C 0.2654(4) 0.80408(10) 0.26186(15)
H13 H 0.386185 0.803762 0.228299
C14 C 0.2711(4) 0.84140(10) 0.33398(16)
H14 H 0.395641 0.866198 0.349886
C15 C 0.0946(4) 0.84229(10) 0.38261(16)
H15 H 0.098493 0.867596 0.432260
C16 C -0.0869(4) 0.80656(10) 0.35922(15)
H16 H -0.208159 0.807436 0.392546
C17 C -0.0925(4) 0.76920(10) 0.28673(15)
H17 H -0.218563 0.744962 0.270443
C18 C 0.3621(3) 0.65884(9) 0.24998(14)
C19 C 0.5712(3) 0.63611(9) 0.24113(15)
H18 H 0.620094 0.636290 0.184182
C20 C 0.7077(4) 0.61332(9) 0.31456(15)
H19 H 0.849488 0.597816 0.307789
C21 C 0.6385(3) 0.61302(9) 0.39793(15)
C22 C 0.4311(4) 0.63536(10) 0.40776(15)
H20 H 0.382908 0.634804 0.464841
C23 C 0.2942(3) 0.65845(9) 0.33464(14)
H21 H 0.153098 0.674150 0.341925
C24 C 0.7809(4) 0.58640(10) 0.47659(16)
O1 O 0.1315(3) 0.57945(7) -0.02252(10)
O2 O -0.1074(2) 0.59577(7) 0.09435(10)
O3 O 0.2416(2) 0.64923(6) 0.08988(9)
F1 F 0.9893(3) 0.57814(10) 0.46443(12)
F2 F 0.7057(3) 0.53521(7) 0.49771(10)
F3 F 0.7861(3) 0.61699(8) 0.55200(11)
S1 S 0.10825(9) 0.58993(2) 0.06834(4)
loop_
_geom_bond_atom_site_label_1
_geom_bond_atom_site_label_2
_geom_bond_site_symmetry_1
_geom_bond_site_symmetry_2
C1 C2 1_555 1_555
C2 H1 1_555 1_555
C3 C2 1_555 1_555
H2 C3 1_555 1_555
C4 C3 1_555 1_555
C5 C4 1_555 1_555
H3 C5 1_555 1_555
C6 C1 1_555 1_555
H4 C6 1_555 1_555
C7 C4 1_555 1_555
H5 C7 1_555 1_555
H6 C7 1_555 1_555
H7 C7 1_555 1_555
C8 C9 1_555 1_555
C9 C10 1_555 1_555
C10 H8 1_555 1_555
H9 C10 1_555 1_555
C11 C10 1_555 1_555
H10 C11 1_555 1_555
H11 C11 1_555 1_555
H12 C11 1_555 1_555
C12 C9 1_555 1_555
C13 C12 1_555 1_555
H13 C13 1_555 1_555
C14 C13 1_555 1_555
H14 C14 1_555 1_555
C15 C14 1_555 1_555
H15 C15 1_555 1_555
C16 C15 1_555 1_555
H16 C16 1_555 1_555
C17 C12 1_555 1_555
H17 C17 1_555 1_555
C18 C8 1_555 1_555
C19 C18 1_555 1_555
H18 C19 1_555 1_555
C20 C19 1_555 1_555
H19 C20 1_555 1_555
C21 C20 1_555 1_555
C22 C21 1_555 1_555
H20 C22 1_555 1_555
C23 C18 1_555 1_555
H21 C23 1_555 1_555
C24 C21 1_555 1_555
O1 S1 1_555 1_555
O2 S1 1_555 1_555
O3 C8 1_555 1_555
F1 C24 1_555 1_555
F2 C24 1_555 1_555
F3 C24 1_555 1_555
S1 C1 1_555 1_555
C5 C6 1_555 1_555
C16 C17 1_555 1_555
C22 C23 1_555 1_555
O3 S1 1_555 1_555

#END
