
#######################################################################
#
#                 Cambridge Crystallographic Data Centre
#                                CCDC 
#
#######################################################################
#
# If this CIF has been generated from an entry in the Cambridge 
# Structural Database, then it will include bibliographic, chemical, 
# crystal, experimental, refinement or atomic coordinate data resulting 
# from the CCDC's data processing and validation procedures.
#
#######################################################################

data_TEHNEC
_chemical_name_common            gene774
_chemical_formula_moiety         'C24 H24 O4 S1'
_chemical_name_systematic        
'1-(4-methoxyphenyl)-2-phenylbut-1-en-1-yl 4-methylbenzene-1-sulfonate'
_symmetry_cell_setting           monoclinic
_symmetry_space_group_name_H-M   'P 21/n'
_symmetry_Int_Tables_number      14
_space_group_name_Hall           '-P 2yn'
loop_
_symmetry_equiv_pos_site_id
_symmetry_equiv_pos_as_xyz
1 x,y,z
2 1/2-x,1/2+y,1/2-z
3 -x,-y,-z
4 1/2+x,1/2-y,1/2+z
_cell_length_a                   10.1785(11)
_cell_length_b                   11.2505(12)
_cell_length_c                   18.6095(19)
_cell_angle_alpha                90
_cell_angle_beta                 99.021(2)
_cell_angle_gamma                90
_cell_volume                     2104.67
_exptl_crystal_colour            colorless
_exptl_crystal_description       prism
_cell_formula_units_Z            4
loop_
_atom_site_label
_atom_site_type_symbol
_atom_site_fract_x
_atom_site_fract_y
_atom_site_fract_z
C1 C 0.65786(19) 0.60664(19) 0.67502(11)
C2 C 0.6708(2) 0.7204(2) 0.64861(13)
H1 H 0.595472 0.771075 0.638506
C3 C 0.7946(2) 0.7593(2) 0.63712(13)
H2 H 0.803495 0.837198 0.618786
C4 C 0.9067(2) 0.6868(2) 0.65182(12)
C5 C 0.8905(2) 0.5733(2) 0.67849(12)
H3 H 0.965702 0.522506 0.688529
C6 C 0.7675(2) 0.5321(2) 0.69090(12)
H4 H 0.758448 0.454617 0.709820
C7 C 1.0412(2) 0.7321(2) 0.64012(13)
H5 H 1.104730 0.666044 0.644583
H6 H 1.072004 0.792668 0.676743
H7 H 1.034225 0.766994 0.591418
C8 C 0.4496(2) 0.36067(19) 0.61661(11)
C9 C 0.33932(19) 0.30177(19) 0.62388(11)
C10 C 0.2121(2) 0.3640(2) 0.63459(12)
H8 H 0.233713 0.437552 0.663177
H9 H 0.159708 0.311637 0.662158
C11 C 0.1299(2) 0.3948(2) 0.56103(13)
H10 H 0.178782 0.452170 0.535646
H11 H 0.044886 0.429623 0.568637
H12 H 0.113322 0.322534 0.531645
C12 C 0.33571(18) 0.16947(19) 0.61613(11)
C13 C 0.35912(19) 0.1143(2) 0.55235(12)
H13 H 0.376683 0.161558 0.512636
C14 C 0.3572(2) -0.0082(2) 0.54588(13)
H14 H 0.372746 -0.044398 0.501868
C15 C 0.3327(2) -0.0777(2) 0.60346(13)
H15 H 0.332322 -0.161871 0.599298
C16 C 0.3087(2) -0.0248(2) 0.66711(13)
H16 H 0.291900 -0.072765 0.706686
C17 C 0.3091(2) 0.0986(2) 0.67351(12)
H17 H 0.291241 0.134493 0.717161
C18 C 0.57857(19) 0.31447(19) 0.60201(11)
C19 C 0.6358(2) 0.35852(19) 0.54384(12)
H18 H 0.594483 0.422724 0.515766
C20 C 0.7512(2) 0.31015(19) 0.52667(12)
H19 H 0.788596 0.340918 0.486849
C21 C 0.8133(2) 0.21615(19) 0.56750(12)
C22 C 0.76070(19) 0.17410(19) 0.62726(12)
H20 H 0.804262 0.112202 0.656530
C23 C 0.64401(19) 0.22332(19) 0.64379(11)
H21 H 0.608025 0.194169 0.684498
C24 C 0.9892(2) 0.0733(2) 0.58335(13)
H22 H 1.018303 0.096808 0.634047
H23 H 1.066649 0.049969 0.561308
H24 H 0.927588 0.006039 0.581740
O1 O 0.51822(15) 0.47259(14) 0.74861(8)
O2 O 0.41556(14) 0.65662(13) 0.69226(9)
O3 O 0.44209(14) 0.48847(13) 0.61692(8)
O4 O 0.92353(13) 0.17104(13) 0.54391(8)
S1 S 0.50130(5) 0.55680(5) 0.69046(3)
loop_
_geom_bond_atom_site_label_1
_geom_bond_atom_site_label_2
_geom_bond_site_symmetry_1
_geom_bond_site_symmetry_2
C1 C2 1_555 1_555
C2 H1 1_555 1_555
C3 C2 1_555 1_555
H2 C3 1_555 1_555
C4 C3 1_555 1_555
C5 C4 1_555 1_555
H3 C5 1_555 1_555
C6 C1 1_555 1_555
H4 C6 1_555 1_555
C7 C4 1_555 1_555
H5 C7 1_555 1_555
H6 C7 1_555 1_555
H7 C7 1_555 1_555
C8 C9 1_555 1_555
C9 C10 1_555 1_555
C10 H8 1_555 1_555
H9 C10 1_555 1_555
C11 C10 1_555 1_555
H10 C11 1_555 1_555
H11 C11 1_555 1_555
H12 C11 1_555 1_555
C12 C9 1_555 1_555
C13 C12 1_555 1_555
H13 C13 1_555 1_555
C14 C13 1_555 1_555
H14 C14 1_555 1_555
C15 C14 1_555 1_555
H15 C15 1_555 1_555
C16 C15 1_555 1_555
H16 C16 1_555 1_555
C17 C12 1_555 1_555
H17 C17 1_555 1_555
C18 C8 1_555 1_555
C19 C18 1_555 1_555
H18 C19 1_555 1_555
C20 C19 1_555 1_555
H19 C20 1_555 1_555
C21 C20 1_555 1_555
C22 C21 1_555 1_555
H20 C22 1_555 1_555
C23 C18 1_555 1_555
H21 C23 1_555 1_555
C24 H22 1_555 1_555
H23 C24 1_555 1_555
H24 C24 1_555 1_555
O1 S1 1_555 1_555
O2 S1 1_555 1_555
O3 C8 1_555 1_555
O4 C21 1_555 1_555
S1 C1 1_555 1_555
C5 C6 1_555 1_555
C16 C17 1_555 1_555
C22 C23 1_555 1_555
C24 O4 1_555 1_555
O3 S1 1_555 1_555

#END
