
#######################################################################
#
#                 Cambridge Crystallographic Data Centre
#                                CCDC 
#
#######################################################################
#
# If this CIF has been generated from an entry in the Cambridge 
# Structural Database, then it will include bibliographic, chemical, 
# crystal, experimental, refinement or atomic coordinate data resulting 
# from the CCDC's data processing and validation procedures.
#
#######################################################################

data_TEHPEE
_chemical_name_common            gene769
_chemical_formula_moiety         'C24 H24 O4 S1'
_chemical_name_systematic        
'1-(3-methoxyphenyl)-2-phenylbut-1-en-1-yl 4-methylbenzene-1-sulfonate'
_symmetry_cell_setting           triclinic
_symmetry_space_group_name_H-M   'P -1'
_symmetry_Int_Tables_number      2
_space_group_name_Hall           '-P 1'
loop_
_symmetry_equiv_pos_site_id
_symmetry_equiv_pos_as_xyz
1 x,y,z
2 -x,-y,-z
_cell_length_a                   5.7536(3)
_cell_length_b                   18.8396(10)
_cell_length_c                   19.4640(11)
_cell_angle_alpha                100.729(3)
_cell_angle_beta                 92.651(3)
_cell_angle_gamma                91.874(3)
_cell_volume                     2068.87
_exptl_crystal_colour            colorless
_exptl_crystal_description       plate
_cell_formula_units_Z            4
loop_
_atom_site_label
_atom_site_type_symbol
_atom_site_fract_x
_atom_site_fract_y
_atom_site_fract_z
C1 C 0.7446(6) 0.11921(15) 0.28455(16)
C2 C 0.9508(6) 0.08301(15) 0.27563(18)
H1 H 1.0604 0.0850 0.3140
C3 C 0.9944(6) 0.04440(16) 0.21087(18)
H2 H 1.1352 0.0196 0.2046
C4 C 0.8339(7) 0.04107(17) 0.15370(18)
C5 C 0.6299(6) 0.07767(17) 0.16410(18)
H3 H 0.5196 0.0755 0.1259
C6 C 0.5832(6) 0.11708(16) 0.22858(16)
H4 H 0.4433 0.1424 0.2348
C7 C 0.8851(8) -0.0020(2) 0.08288(19)
H5 H 0.8322 -0.0526 0.0799
H6 H 1.0531 0.0004 0.0768
H7 H 0.8031 0.0181 0.0461
C8 C 0.8142(6) 0.29979(16) 0.34302(16)
C9 C 0.7622(6) 0.35841(16) 0.38829(16)
C10 C 0.7606(6) 0.35861(17) 0.46594(16)
H8 H 0.7176 0.3095 0.4735
H9 H 0.6425 0.3919 0.4870
C11 C 0.9985(7) 0.3825(2) 0.50140(17)
H10 H 1.1149 0.3491 0.4810
H11 H 0.9940 0.3823 0.5516
H12 H 1.0400 0.4314 0.4944
C12 C 0.7259(6) 0.42938(15) 0.36705(15)
C13 C 0.5304(6) 0.46873(17) 0.38721(16)
H13 H 0.4163 0.4490 0.4129
C14 C 0.5013(6) 0.53624(16) 0.37014(16)
H14 H 0.3672 0.5622 0.3841
C15 C 0.6639(6) 0.56589(16) 0.33335(16)
H15 H 0.6429 0.6122 0.3218
C16 C 0.8594(6) 0.52783(16) 0.31303(16)
H16 H 0.9732 0.5482 0.2877
C17 C 0.8892(6) 0.46022(15) 0.32946(15)
H17 H 1.0230 0.4344 0.3149
C18 C 0.8218(6) 0.28751(15) 0.26549(16)
C19 C 0.6407(6) 0.31005(15) 0.22566(17)
H18 H 0.5159 0.3352 0.2480
C20 C 0.6437(6) 0.29561(16) 0.15347(16)
H19 H 0.5218 0.3118 0.1264
C21 C 0.8225(6) 0.25780(16) 0.11992(17)
H20 H 0.8220 0.2478 0.0702
C22 C 1.0012(6) 0.23487(15) 0.15921(16)
C23 C 1.0034(6) 0.25068(15) 0.23213(16)
H21 H 1.1291 0.2363 0.2591
C24 C 1.1934(7) 0.18248(19) 0.05679(16)
H22 H 1.0569 0.1525 0.0356
H23 H 1.3353 0.1572 0.0434
H24 H 1.1949 0.2285 0.0403
O1 O 0.7795(4) 0.13468(11) 0.41986(12)
O2 O 0.4664(4) 0.19699(11) 0.36683(12)
O3 O 0.8798(4) 0.23872(10) 0.37258(11)
O4 O 1.1834(4) 0.19596(11) 0.13165(11)
S1 S 0.69729(15) 0.17139(4) 0.36631(4)
C25 C 0.2947(6) 0.87741(16) 0.20925(18)
C26 C 0.4756(6) 0.92222(17) 0.24378(19)
H25 H 0.6133 0.9298 0.2205
C27 C 0.4538(6) 0.95585(17) 0.31261(19)
H26 H 0.5765 0.9873 0.3362
C28 C 0.2556(7) 0.94426(17) 0.34750(19)
C29 C 0.0755(6) 0.89913(17) 0.31130(19)
H27 H -0.0619 0.8911 0.3345
C30 C 0.0933(6) 0.86607(17) 0.24251(19)
H28 H -0.0313 0.8359 0.2182
C31 C 0.2334(8) 0.9803(2) 0.42299(19)
H29 H 0.3769 1.0088 0.4403
H30 H 0.2074 0.9432 0.4514
H31 H 0.1016 1.0122 0.4261
C32 C 0.3862(6) 0.70298(17) 0.15867(17)
C33 C 0.3311(6) 0.64427(17) 0.11038(17)
C34 C 0.3444(7) 0.64279(19) 0.03257(17)
H32 H 0.3353 0.6926 0.0234
H33 H 0.2099 0.6137 0.0071
C35 C 0.5687(7) 0.6108(2) 0.00544(18)
H34 H 0.7014 0.6425 0.0268
H35 H 0.5659 0.6064 -0.0456
H36 H 0.5837 0.5629 0.0175
C36 C 0.2695(6) 0.57376(17) 0.13067(16)
C37 C 0.0574(7) 0.53683(19) 0.10853(18)
H37 H -0.0512 0.5571 0.0802
C38 C 0.0023(6) 0.47083(19) 0.12734(18)
H38 H -0.1448 0.4470 0.1130
C39 C 0.1607(6) 0.44028(18) 0.16660(17)
H39 H 0.1242 0.3948 0.1788
C40 C 0.3726(6) 0.47527(16) 0.18841(17)
H40 H 0.4819 0.4539 0.2156
C41 C 0.4268(6) 0.54169(16) 0.17070(16)
H41 H 0.5731 0.5656 0.1861
C42 C 0.3650(6) 0.71448(15) 0.23578(16)
C43 C 0.1625(6) 0.69149(16) 0.26329(17)
H42 H 0.0417 0.6654 0.2330
C44 C 0.1384(6) 0.70674(16) 0.33464(17)
H43 H 0.0002 0.6908 0.3531
C45 C 0.3113(6) 0.74486(16) 0.38001(17)
H44 H 0.2915 0.7553 0.4290
C46 C 0.5137(6) 0.76751(15) 0.35290(17)
C47 C 0.5397(6) 0.75204(15) 0.28082(16)
H45 H 0.6788 0.7674 0.2624
C48 C 0.6908(7) 0.81563(19) 0.46682(17)
H46 H 0.5617 0.8464 0.4821
H47 H 0.8378 0.8389 0.4886
H48 H 0.6676 0.7687 0.4808
O5 O 0.1035(5) 0.80022(13) 0.09479(13)
O6 O 0.4665(5) 0.87137(13) 0.08711(14)
O7 O 0.4862(4) 0.76483(12) 0.13552(11)
O8 O 0.6986(4) 0.80528(11) 0.39212(11)
S2 S 0.32529(18) 0.82980(5) 0.12433(5)
loop_
_geom_bond_atom_site_label_1
_geom_bond_atom_site_label_2
_geom_bond_site_symmetry_1
_geom_bond_site_symmetry_2
C1 C2 1_555 1_555
C2 H1 1_555 1_555
C3 C2 1_555 1_555
H2 C3 1_555 1_555
C4 C3 1_555 1_555
C5 C4 1_555 1_555
H3 C5 1_555 1_555
C6 C1 1_555 1_555
H4 C6 1_555 1_555
C7 C4 1_555 1_555
H5 C7 1_555 1_555
H6 C7 1_555 1_555
H7 C7 1_555 1_555
C8 C9 1_555 1_555
C9 C10 1_555 1_555
C10 H8 1_555 1_555
H9 C10 1_555 1_555
C11 C10 1_555 1_555
H10 C11 1_555 1_555
H11 C11 1_555 1_555
H12 C11 1_555 1_555
C12 C9 1_555 1_555
C13 C12 1_555 1_555
H13 C13 1_555 1_555
C14 C13 1_555 1_555
H14 C14 1_555 1_555
C15 C14 1_555 1_555
H15 C15 1_555 1_555
C16 C15 1_555 1_555
H16 C16 1_555 1_555
C17 C12 1_555 1_555
H17 C17 1_555 1_555
C18 C8 1_555 1_555
C19 C18 1_555 1_555
H18 C19 1_555 1_555
C20 C19 1_555 1_555
H19 C20 1_555 1_555
C21 C20 1_555 1_555
H20 C21 1_555 1_555
C22 C21 1_555 1_555
C23 C18 1_555 1_555
H21 C23 1_555 1_555
C24 H22 1_555 1_555
H23 C24 1_555 1_555
H24 C24 1_555 1_555
O1 S1 1_555 1_555
O2 S1 1_555 1_555
O3 C8 1_555 1_555
O4 C22 1_555 1_555
S1 C1 1_555 1_555
C25 C26 1_555 1_555
C26 H25 1_555 1_555
C27 C26 1_555 1_555
H26 C27 1_555 1_555
C28 C27 1_555 1_555
C29 C28 1_555 1_555
H27 C29 1_555 1_555
C30 C25 1_555 1_555
H28 C30 1_555 1_555
C31 C28 1_555 1_555
H29 C31 1_555 1_555
H30 C31 1_555 1_555
H31 C31 1_555 1_555
C32 C33 1_555 1_555
C33 C34 1_555 1_555
C34 H32 1_555 1_555
H33 C34 1_555 1_555
C35 C34 1_555 1_555
H34 C35 1_555 1_555
H35 C35 1_555 1_555
H36 C35 1_555 1_555
C36 C33 1_555 1_555
C37 C36 1_555 1_555
H37 C37 1_555 1_555
C38 C37 1_555 1_555
H38 C38 1_555 1_555
C39 C38 1_555 1_555
H39 C39 1_555 1_555
C40 C39 1_555 1_555
H40 C40 1_555 1_555
C41 C36 1_555 1_555
H41 C41 1_555 1_555
C42 C32 1_555 1_555
C43 C42 1_555 1_555
H42 C43 1_555 1_555
C44 C43 1_555 1_555
H43 C44 1_555 1_555
C45 C44 1_555 1_555
H44 C45 1_555 1_555
C46 C45 1_555 1_555
C47 C42 1_555 1_555
H45 C47 1_555 1_555
C48 H46 1_555 1_555
H47 C48 1_555 1_555
H48 C48 1_555 1_555
O5 S2 1_555 1_555
O6 S2 1_555 1_555
O7 C32 1_555 1_555
O8 C46 1_555 1_555
S2 C25 1_555 1_555
C5 C6 1_555 1_555
C16 C17 1_555 1_555
C22 C23 1_555 1_555
C24 O4 1_555 1_555
O3 S1 1_555 1_555
C29 C30 1_555 1_555
C40 C41 1_555 1_555
C46 C47 1_555 1_555
C48 O8 1_555 1_555
O7 S2 1_555 1_555

#END
