
#######################################################################
#
#                 Cambridge Crystallographic Data Centre
#                                CCDC 
#
#######################################################################
#
# If this CIF has been generated from an entry in the Cambridge 
# Structural Database, then it will include bibliographic, chemical, 
# crystal, experimental, refinement or atomic coordinate data resulting 
# from the CCDC's data processing and validation procedures.
#
#######################################################################

data_TEHPUU
_chemical_name_common            gene797
_chemical_formula_moiety         'C24 H24 O3 S1'
_chemical_name_systematic        
'2-(4-methylphenyl)-1-phenylbut-1-en-1-yl 4-methylbenzene-1-sulfonate'
_symmetry_cell_setting           monoclinic
_symmetry_space_group_name_H-M   'P 21/c'
_symmetry_Int_Tables_number      14
_space_group_name_Hall           '-P 2ybc'
loop_
_symmetry_equiv_pos_site_id
_symmetry_equiv_pos_as_xyz
1 x,y,z
2 -x,1/2+y,1/2-z
3 -x,-y,-z
4 x,1/2-y,1/2+z
_cell_length_a                   11.2228(11)
_cell_length_b                   14.2515(14)
_cell_length_c                   12.8006(12)
_cell_angle_alpha                90
_cell_angle_beta                 93.122(2)
_cell_angle_gamma                90
_cell_volume                     2044.31
_exptl_crystal_colour            colorless
_exptl_crystal_description       prism
_cell_formula_units_Z            4
loop_
_atom_site_label
_atom_site_type_symbol
_atom_site_fract_x
_atom_site_fract_y
_atom_site_fract_z
C1 C 0.53067(17) 0.62722(14) 0.16815(15)
C2 C 0.51524(18) 0.62101(14) 0.05996(16)
H1 H 0.5550 0.5737 0.0229
C3 C 0.44121(19) 0.68465(15) 0.00689(17)
H2 H 0.4293 0.6801 -0.0670
C4 C 0.38367(18) 0.75545(14) 0.06025(18)
C5 C 0.39870(18) 0.75866(15) 0.16869(18)
H3 H 0.3580 0.8052 0.2061
C6 C 0.47192(18) 0.69524(15) 0.22299(17)
H4 H 0.4818 0.6983 0.2971
C7 C 0.3107(2) 0.82844(17) 0.0009(2)
H5 H 0.3627 0.8801 -0.0186
H6 H 0.2490 0.8525 0.0451
H7 H 0.2730 0.8003 -0.0624
C8 C 0.80958(17) 0.67202(13) 0.26757(15)
C9 C 0.89752(17) 0.65489(14) 0.33937(15)
C10 C 0.93652(18) 0.55683(14) 0.37066(16)
H8 H 0.8755 0.5113 0.3441
H9 H 0.9424 0.5522 0.4479
C11 C 1.05636(19) 0.53136(16) 0.32809(19)
H10 H 1.0501 0.5339 0.2515
H11 H 1.0789 0.4678 0.3508
H12 H 1.1172 0.5760 0.3546
C12 C 0.96824(16) 0.73379(14) 0.38861(15)
C13 C 1.01957(17) 0.80228(14) 0.32779(16)
H13 H 1.0079 0.7997 0.2538
C14 C 1.08735(18) 0.87401(15) 0.37353(17)
H14 H 1.1226 0.9192 0.3303
C15 C 1.10462(17) 0.88103(15) 0.48145(16)
C16 C 1.05468(18) 0.81238(15) 0.54199(16)
H15 H 1.0656 0.8156 0.6160
C17 C 0.98900(17) 0.73905(15) 0.49678(16)
H16 H 0.9578 0.6919 0.5401
C18 C 1.1761(2) 0.96042(16) 0.53119(18)
H17 H 1.1234 1.0140 0.5420
H18 H 1.2389 0.9791 0.4852
H19 H 1.2124 0.9398 0.5987
C19 C 0.75505(16) 0.76201(14) 0.23335(15)
C20 C 0.73210(17) 0.77973(14) 0.12694(16)
H20 H 0.7547 0.7347 0.0770
C21 C 0.67670(18) 0.86225(15) 0.09309(17)
H21 H 0.6625 0.8740 0.0204
C22 C 0.64233(18) 0.92709(15) 0.16579(18)
H22 H 0.6043 0.9836 0.1430
C23 C 0.66317(18) 0.91005(15) 0.27185(18)
H23 H 0.6385 0.9545 0.3216
C24 C 0.72001(17) 0.82829(14) 0.30519(16)
H24 H 0.7352 0.8174 0.3779
O1 O 0.61889(13) 0.56001(10) 0.34466(11)
O2 O 0.63139(13) 0.46319(10) 0.18516(11)
O3 O 0.76148(12) 0.59293(9) 0.20988(10)
S1 S 0.63292(4) 0.55264(3) 0.23503(4)
loop_
_geom_bond_atom_site_label_1
_geom_bond_atom_site_label_2
_geom_bond_site_symmetry_1
_geom_bond_site_symmetry_2
C1 C2 1_555 1_555
C2 H1 1_555 1_555
C3 C2 1_555 1_555
H2 C3 1_555 1_555
C4 C3 1_555 1_555
C5 C4 1_555 1_555
H3 C5 1_555 1_555
C6 C1 1_555 1_555
H4 C6 1_555 1_555
C7 C4 1_555 1_555
H5 C7 1_555 1_555
H6 C7 1_555 1_555
H7 C7 1_555 1_555
C8 C9 1_555 1_555
C9 C10 1_555 1_555
C10 H8 1_555 1_555
H9 C10 1_555 1_555
C11 C10 1_555 1_555
H10 C11 1_555 1_555
H11 C11 1_555 1_555
H12 C11 1_555 1_555
C12 C9 1_555 1_555
C13 C12 1_555 1_555
H13 C13 1_555 1_555
C14 C13 1_555 1_555
H14 C14 1_555 1_555
C15 C14 1_555 1_555
C16 C15 1_555 1_555
H15 C16 1_555 1_555
C17 C12 1_555 1_555
H16 C17 1_555 1_555
C18 C15 1_555 1_555
H17 C18 1_555 1_555
H18 C18 1_555 1_555
H19 C18 1_555 1_555
C19 C8 1_555 1_555
C20 C19 1_555 1_555
H20 C20 1_555 1_555
C21 C20 1_555 1_555
H21 C21 1_555 1_555
C22 C21 1_555 1_555
H22 C22 1_555 1_555
C23 C22 1_555 1_555
H23 C23 1_555 1_555
C24 C19 1_555 1_555
H24 C24 1_555 1_555
O1 S1 1_555 1_555
O2 S1 1_555 1_555
O3 C8 1_555 1_555
S1 C1 1_555 1_555
C5 C6 1_555 1_555
C16 C17 1_555 1_555
C23 C24 1_555 1_555
O3 S1 1_555 1_555

#END
