
#######################################################################
#
#                 Cambridge Crystallographic Data Centre
#                                CCDC 
#
#######################################################################
#
# If this CIF has been generated from an entry in the Cambridge 
# Structural Database, then it will include bibliographic, chemical, 
# crystal, experimental, refinement or atomic coordinate data resulting 
# from the CCDC's data processing and validation procedures.
#
#######################################################################

data_TEHQAB
_chemical_name_common            gene767
_chemical_formula_moiety         'C24 H24 O4 S1'
_chemical_name_systematic        
'2-(4-methoxyphenyl)-1-phenylbut-1-en-1-yl 4-methylbenzene-1-sulfonate'
_symmetry_cell_setting           monoclinic
_symmetry_space_group_name_H-M   'P 21'
_symmetry_Int_Tables_number      4
_space_group_name_Hall           'P 2yb'
loop_
_symmetry_equiv_pos_site_id
_symmetry_equiv_pos_as_xyz
1 x,y,z
2 -x,1/2+y,-z
_cell_length_a                   7.8872(7)
_cell_length_b                   6.0338(5)
_cell_length_c                   21.8424(19)
_cell_angle_alpha                90
_cell_angle_beta                 91.418(2)
_cell_angle_gamma                90
_cell_volume                     1039.16
_exptl_crystal_colour            colorless
_exptl_crystal_description       prism
_cell_formula_units_Z            2
loop_
_atom_site_label
_atom_site_type_symbol
_atom_site_fract_x
_atom_site_fract_y
_atom_site_fract_z
C1 C 0.4399(4) 0.4947(8) 0.88606(17)
C2 C 0.6016(4) 0.5843(8) 0.88709(17)
H1 H 0.6222 0.7250 0.8693
C3 C 0.7319(5) 0.4659(9) 0.91435(19)
H2 H 0.8433 0.5261 0.9152
C4 C 0.7042(5) 0.2615(9) 0.94049(17)
C5 C 0.5393(5) 0.1783(8) 0.94004(17)
H3 H 0.5177 0.0397 0.9590
C6 C 0.4074(5) 0.2932(8) 0.91264(17)
H4 H 0.2957 0.2342 0.9121
C7 C 0.8501(5) 0.1289(12) 0.96699(19)
H5 H 0.9492 0.1468 0.9412
H6 H 0.8184 -0.0281 0.9685
H7 H 0.8777 0.1815 1.0085
C8 C 0.1345(4) 0.5488(7) 0.74210(16)
C9 C 0.1605(5) 0.6884(7) 0.69635(17)
C10 C 0.3238(6) 0.8185(11) 0.6898(2)
H8 H 0.2959 0.9746 0.6799
H9 H 0.3877 0.8169 0.7294
C11 C 0.4337(6) 0.7259(12) 0.6409(2)
H10 H 0.4702 0.5759 0.6524
H11 H 0.5335 0.8207 0.6364
H12 H 0.3693 0.7205 0.6020
C12 C -0.0112(5) 0.4014(7) 0.75456(16)
C13 C 0.0154(5) 0.1984(7) 0.78350(17)
H13 H 0.1274 0.1564 0.7956
C14 C -0.1170(5) 0.0577(8) 0.79495(17)
H14 H -0.0959 -0.0804 0.8146
C15 C -0.2812(5) 0.1169(9) 0.77787(17)
H15 H -0.3732 0.0199 0.7856
C16 C -0.3095(5) 0.3182(9) 0.74956(18)
H16 H -0.4219 0.3595 0.7379
C17 C -0.1770(5) 0.4609(8) 0.73790(17)
H17 H -0.1988 0.5993 0.7186
C18 C 0.0355(5) 0.7186(7) 0.64447(17)
C19 C 0.0028(5) 0.5529(8) 0.60251(18)
H18 H 0.0577 0.4137 0.6075
C20 C -0.1093(5) 0.5844(8) 0.55272(17)
H19 H -0.1313 0.4676 0.5245
C21 C -0.1877(5) 0.7871(8) 0.54514(17)
C22 C -0.1545(5) 0.9554(8) 0.58621(18)
H20 H -0.2086 1.0950 0.5810
C23 C -0.0428(5) 0.9220(8) 0.63500(18)
H21 H -0.0192 1.0404 0.6626
C24 C -0.3517(6) 0.6668(11) 0.4591(2)
H22 H -0.2516 0.5991 0.4411
H23 H -0.4260 0.7264 0.4265
H24 H -0.4133 0.5546 0.4822
O1 O 0.1180(3) 0.6017(7) 0.87656(12)
O2 O 0.3264(4) 0.8635(6) 0.83844(15)
O3 O 0.2755(3) 0.5113(5) 0.78434(11)
O4 O -0.3008(4) 0.8383(6) 0.49845(13)
S1 S 0.27526(11) 0.64025(19) 0.84829(4)
loop_
_geom_bond_atom_site_label_1
_geom_bond_atom_site_label_2
_geom_bond_site_symmetry_1
_geom_bond_site_symmetry_2
C1 C2 1_555 1_555
C2 H1 1_555 1_555
C3 C2 1_555 1_555
H2 C3 1_555 1_555
C4 C3 1_555 1_555
C5 C4 1_555 1_555
H3 C5 1_555 1_555
C6 C1 1_555 1_555
H4 C6 1_555 1_555
C7 C4 1_555 1_555
H5 C7 1_555 1_555
H6 C7 1_555 1_555
H7 C7 1_555 1_555
C8 C9 1_555 1_555
C9 C10 1_555 1_555
C10 H8 1_555 1_555
H9 C10 1_555 1_555
C11 C10 1_555 1_555
H10 C11 1_555 1_555
H11 C11 1_555 1_555
H12 C11 1_555 1_555
C12 C8 1_555 1_555
C13 C12 1_555 1_555
H13 C13 1_555 1_555
C14 C13 1_555 1_555
H14 C14 1_555 1_555
C15 C14 1_555 1_555
H15 C15 1_555 1_555
C16 C15 1_555 1_555
H16 C16 1_555 1_555
C17 C12 1_555 1_555
H17 C17 1_555 1_555
C18 C9 1_555 1_555
C19 C18 1_555 1_555
H18 C19 1_555 1_555
C20 C19 1_555 1_555
H19 C20 1_555 1_555
C21 C20 1_555 1_555
C22 C21 1_555 1_555
H20 C22 1_555 1_555
C23 C18 1_555 1_555
H21 C23 1_555 1_555
C24 H22 1_555 1_555
H23 C24 1_555 1_555
H24 C24 1_555 1_555
O1 S1 1_555 1_555
O2 S1 1_555 1_555
O3 C8 1_555 1_555
O4 C21 1_555 1_555
S1 C1 1_555 1_555
C5 C6 1_555 1_555
C16 C17 1_555 1_555
C22 C23 1_555 1_555
C24 O4 1_555 1_555
O3 S1 1_555 1_555

#END
