
#######################################################################
#
#                 Cambridge Crystallographic Data Centre
#                                CCDC 
#
#######################################################################
#
# If this CIF has been generated from an entry in the Cambridge 
# Structural Database, then it will include bibliographic, chemical, 
# crystal, experimental, refinement or atomic coordinate data resulting 
# from the CCDC's data processing and validation procedures.
#
#######################################################################

data_TEHQOP
_chemical_formula_moiety         'C21 H20 N2 O4'
_chemical_name_systematic        
1,5,7-trimethyl-7-[4-(4-nitrophenyl)buta-1,3-diyn-1-yl]-3-azabicyclo[3.3.1]nonane-2,4-dione
_symmetry_cell_setting           monoclinic
_symmetry_space_group_name_H-M   'P 21/c'
_symmetry_Int_Tables_number      14
_space_group_name_Hall           '-P 2ybc'
loop_
_symmetry_equiv_pos_site_id
_symmetry_equiv_pos_as_xyz
1 x,y,z
2 -x,1/2+y,1/2-z
3 -x,-y,-z
4 x,1/2-y,1/2+z
_cell_length_a                   11.4478(4)
_cell_length_b                   17.6947(5)
_cell_length_c                   9.6942(3)
_cell_angle_alpha                90
_cell_angle_beta                 108.571(2)
_cell_angle_gamma                90
_cell_volume                     1861.46
_exptl_crystal_colour            colorless
_exptl_crystal_description       plate
_cell_formula_units_Z            4
_exptl_crystal_recrystallization_method CDCl3
loop_
_atom_site_label
_atom_site_type_symbol
_atom_site_fract_x
_atom_site_fract_y
_atom_site_fract_z
O1 O 0.10109(10) 0.28316(6) 0.01335(12)
O2 O 0.12493(11) 0.16559(6) 0.07683(13)
O3 O 0.81273(10) 0.53330(6) 0.97535(12)
O4 O 0.52489(9) 0.44775(6) 1.16066(11)
N1 N 0.15017(11) 0.23300(7) 0.09974(14)
N2 N 0.67385(11) 0.49828(7) 1.08302(13)
H1 H 0.6149(15) 0.5147(10) 1.0013(17)
C1 C 0.24228(13) 0.25476(8) 0.23807(15)
C2 C 0.27251(13) 0.33035(8) 0.26267(16)
H2 H 0.2351 0.3675 0.1916
C3 C 0.35860(13) 0.35027(8) 0.39334(16)
H3 H 0.3810 0.4018 0.4127
C4 C 0.41333(13) 0.29511(8) 0.49790(16)
C5 C 0.38145(13) 0.21917(9) 0.46791(16)
H4 H 0.4191 0.1815 0.5377
C6 C 0.29586(13) 0.19876(8) 0.33779(17)
H5 H 0.2740 0.1472 0.3169
C7 C 0.50042(13) 0.31500(9) 0.63554(16)
C8 C 0.57188(14) 0.32662(8) 0.75500(16)
C9 C 0.65450(13) 0.33403(8) 0.89305(16)
C10 C 0.72719(13) 0.33653(8) 1.01393(16)
C11 C 0.81961(13) 0.33174(8) 1.16036(16)
C12 C 0.87313(14) 0.25104(9) 1.17481(17)
H6 H 0.8075 0.2143 1.1683
H7 H 0.9378 0.2458 1.2690
H8 H 0.9081 0.2418 1.0963
C13 C 0.92486(13) 0.38945(8) 1.17673(16)
H9 H 0.9469 0.3892 1.0859
H10 H 0.9981 0.3723 1.2564
C14 C 0.76056(13) 0.34331(8) 1.28115(16)
H11 H 0.8159 0.3209 1.3721
H12 H 0.6822 0.3147 1.2543
C15 C 0.73348(13) 0.42582(8) 1.31293(15)
C16 C 0.89560(13) 0.47192(8) 1.20882(16)
C17 C 0.85162(13) 0.47215(8) 1.34173(16)
H13 H 0.8362 0.5248 1.3658
H14 H 0.9166 0.4507 1.4261
C18 C 1.01202(14) 0.52011(9) 1.23465(17)
H15 H 1.0379 0.5189 1.1476
H16 H 1.0781 0.4998 1.3176
H17 H 0.9944 0.5723 1.2552
C19 C 0.68624(14) 0.42724(9) 1.44342(16)
H18 H 0.6643 0.4791 1.4605
H19 H 0.7507 0.4087 1.5298
H20 H 0.6133 0.3948 1.4237
C20 C 0.79429(13) 0.50365(8) 1.07914(16)
C21 C 0.63506(13) 0.45767(8) 1.18146(16)
loop_
_geom_bond_atom_site_label_1
_geom_bond_atom_site_label_2
_geom_bond_site_symmetry_1
_geom_bond_site_symmetry_2
O1 N1 1_555 1_555
O2 N1 1_555 1_555
O3 C20 1_555 1_555
O4 C21 1_555 1_555
N1 C1 1_555 1_555
N2 H1 1_555 1_555
C1 C2 1_555 1_555
C2 H2 1_555 1_555
C3 C2 1_555 1_555
H3 C3 1_555 1_555
C4 C3 1_555 1_555
C5 C4 1_555 1_555
H4 C5 1_555 1_555
C6 C1 1_555 1_555
H5 C6 1_555 1_555
C7 C4 1_555 1_555
C8 C7 1_555 1_555
C9 C8 1_555 1_555
C10 C9 1_555 1_555
C11 C10 1_555 1_555
C12 C11 1_555 1_555
H6 C12 1_555 1_555
H7 C12 1_555 1_555
H8 C12 1_555 1_555
C13 C11 1_555 1_555
H9 C13 1_555 1_555
H10 C13 1_555 1_555
C14 C11 1_555 1_555
H11 C14 1_555 1_555
H12 C14 1_555 1_555
C15 C14 1_555 1_555
C16 C13 1_555 1_555
C17 C15 1_555 1_555
H13 C17 1_555 1_555
H14 C17 1_555 1_555
C18 C16 1_555 1_555
H15 C18 1_555 1_555
H16 C18 1_555 1_555
H17 C18 1_555 1_555
C19 C15 1_555 1_555
H18 C19 1_555 1_555
H19 C19 1_555 1_555
H20 C19 1_555 1_555
C20 N2 1_555 1_555
C21 N2 1_555 1_555
C5 C6 1_555 1_555
C15 C21 1_555 1_555
C16 C17 1_555 1_555
C16 C20 1_555 1_555

#END
