
#######################################################################
#
#                 Cambridge Crystallographic Data Centre
#                                CCDC 
#
#######################################################################
#
# If this CIF has been generated from an entry in the Cambridge 
# Structural Database, then it will include bibliographic, chemical, 
# crystal, experimental, refinement or atomic coordinate data resulting 
# from the CCDC's data processing and validation procedures.
#
#######################################################################

data_TEHRIK
_chemical_formula_moiety         'C21 H21 N1 O2,C13 H19 N3 O2'
_chemical_name_systematic        
"N,N'-(pyridine-2,6-diyl)bis(2-methylpropanamide) 1,5,7-trimethyl-7-(4-phenylbuta-1,3-diyn-1-yl)-3-azabicyclo[3.3.1]nonane-2,4-dione"
_symmetry_cell_setting           monoclinic
_symmetry_space_group_name_H-M   'C c'
_symmetry_Int_Tables_number      9
_space_group_name_Hall           'C -2yc'
loop_
_symmetry_equiv_pos_site_id
_symmetry_equiv_pos_as_xyz
1 x,y,z
2 x,-y,1/2+z
3 1/2+x,1/2+y,z
4 1/2+x,1/2-y,1/2+z
_cell_length_a                   28.079(6)
_cell_length_b                   25.521(6)
_cell_length_c                   22.322(8)
_cell_angle_alpha                90
_cell_angle_beta                 127.465(5)
_cell_angle_gamma                90
_cell_volume                     12696.5
_exptl_crystal_colour            colorless
_exptl_crystal_description       block
_cell_formula_units_Z            16
_exptl_crystal_recrystallization_method 'chloroform /n-pentane'
loop_
_atom_site_label
_atom_site_type_symbol
_atom_site_fract_x
_atom_site_fract_y
_atom_site_fract_z
O1 O 0.4237(3) 0.6187(2) 0.6168(3)
N1 N 0.5211(3) 0.6411(2) 0.6730(3)
H1 H 0.5457 0.6491 0.6624
N2 N 0.5990(3) 0.6662(2) 0.7925(3)
O2 O 0.7188(3) 0.6785(3) 1.0295(3)
C1 C 0.5441(3) 0.6450(3) 0.7484(4)
C2 C 0.4646(4) 0.6260(3) 0.6137(4)
C3 C 0.5444(4) 0.6310(3) 0.8529(4)
H2 H 0.5254 0.6195 0.8741
C4 C 0.6006(4) 0.6511(3) 0.8990(4)
H3 H 0.6212 0.6523 0.9519
C5 C 0.4565(4) 0.6174(3) 0.5396(5)
H4 H 0.4966 0.6195 0.5501
C6 C 0.5143(4) 0.6269(3) 0.7765(5)
H5 H 0.4750 0.6125 0.7442
C7 C 0.6276(4) 0.6696(3) 0.8684(4)
C8 C 0.4165(5) 0.6597(4) 0.4844(6)
H6 H 0.3759 0.6555 0.4696
H7 H 0.4151 0.6572 0.4396
H8 H 0.4323 0.6941 0.5080
N3 N 0.6825(3) 0.6932(3) 0.9072(4)
H9 H 0.6920 0.7071 0.8796
C9 C 0.4306(4) 0.5640(3) 0.5101(5)
H10 H 0.4592 0.5374 0.5458
H11 H 0.4223 0.5588 0.4611
H12 H 0.3931 0.5607 0.5042
C10 C 0.7261(4) 0.6979(4) 0.9862(5)
C11 C 0.7838(4) 0.7237(4) 1.0128(5)
H13 H 0.7931 0.7142 0.9775
C12 C 0.7731(9) 0.7773(6) 1.0077(11)
H14 H 0.7464 0.7877 0.9545
H15 H 0.8111 0.7963 1.0334
H16 H 0.7541 0.7857 1.0316
C13 C 0.8353(8) 0.7019(8) 1.0937(10)
H17 H 0.8273 0.7120 1.1292
H18 H 0.8738 0.7167 1.1106
H19 H 0.8367 0.6637 1.0918
O3 O 0.5713(2) 0.1735(2) 0.5954(3)
O4 O 0.7264(2) 0.2350(2) 0.8183(3)
N4 N 0.6551(3) 0.1990(2) 0.7075(3)
H27 H 0.6429 0.1812 0.7296
C16 C 0.4951(3) 0.2811(3) 0.7686(4)
C17 C 0.7058(3) 0.2282(3) 0.7532(4)
C18 C 0.8022(3) 0.2496(3) 0.7775(4)
H28 H 0.8167 0.2135 0.7914
H29 H 0.8125 0.2686 0.8222
H30 H 0.8209 0.2670 0.7575
C19 C 0.6128(3) 0.3107(3) 0.6601(4)
C20 C 0.7355(3) 0.2495(3) 0.7187(4)
C21 C 0.4434(3) 0.2528(3) 0.7275(4)
H31 H 0.4264 0.2432 0.6770
C22 C 0.5842(3) 0.3081(3) 0.6846(4)
C23 C 0.7145(3) 0.2167(3) 0.6496(4)
H32 H 0.7321 0.2309 0.6256
H33 H 0.7287 0.1802 0.6652
C24 C 0.5261(4) 0.2942(3) 0.7381(4)
C25 C 0.6212(3) 0.1946(3) 0.6308(4)
C26 C 0.6247(3) 0.2741(3) 0.5685(4)
H34 H 0.5803 0.2738 0.5361
H35 H 0.6363 0.2860 0.5367
C27 C 0.7141(3) 0.3071(3) 0.6932(4)
H36 H 0.7256 0.3275 0.7379
H37 H 0.7363 0.3220 0.6757
C28 C 0.6468(3) 0.2173(3) 0.5932(4)
C29 C 0.6376(4) 0.3707(3) 0.5982(4)
H38 H 0.6438 0.3966 0.6348
H39 H 0.5965 0.3737 0.5515
H40 H 0.6661 0.3770 0.5875
C30 C 0.6256(3) 0.1838(3) 0.5240(4)
H41 H 0.6416 0.1482 0.5403
H42 H 0.6400 0.1993 0.4976
H43 H 0.5817 0.1826 0.4900
C31 C 0.5193(4) 0.2982(3) 0.8433(4)
H44 H 0.5544 0.3192 0.8719
C32 C 0.6473(3) 0.3153(3) 0.6311(4)
C33 C 0.5526(3) 0.3019(3) 0.7118(4)
C34 C 0.4154(4) 0.2379(3) 0.7589(6)
H45 H 0.3794 0.2180 0.7301
C35 C 0.4904(5) 0.2835(4) 0.8715(5)
H46 H 0.5052 0.2949 0.9205
C36 C 0.4395(5) 0.2519(4) 0.8307(6)
H47 H 0.4216 0.2401 0.8532
O5 O 0.6165(2) 0.5158(2) 0.6703(3)
O6 O 0.7737(3) 0.5663(2) 0.8982(3)
N5 N 0.6904(3) 0.5458(2) 0.7851(3)
H48 H 0.7028 0.5655 0.7647
C37 C 0.6377(3) 0.5183(3) 0.7365(4)
C38 C 0.7604(4) 0.4336(3) 0.8003(5)
C39 C 0.6102(3) 0.4929(3) 0.7694(4)
C40 C 0.7305(3) 0.4307(3) 0.8213(4)
C41 C 0.7955(4) 0.4396(3) 0.7755(5)
C42 C 0.6292(4) 0.4346(3) 0.7864(5)
H49 H 0.6057 0.4170 0.8003
H50 H 0.6184 0.4179 0.7396
C43 C 0.5416(3) 0.4955(3) 0.7118(4)
H51 H 0.5292 0.5318 0.6956
H52 H 0.5235 0.4824 0.7349
H53 H 0.5284 0.4738 0.6679
C44 C 0.7255(4) 0.5451(3) 0.8635(4)
C45 C 0.6957(4) 0.4250(3) 0.8491(5)
C46 C 0.8244(4) 0.4446(3) 0.7537(5)
C47 C 0.9226(4) 0.4760(4) 0.6725(5)
H54 H 0.9430 0.4845 0.6520
C48 C 0.6314(4) 0.5207(3) 0.8422(4)
H55 H 0.6173 0.5575 0.8309
H56 H 0.6140 0.5032 0.8644
C49 C 0.6984(4) 0.5197(3) 0.8977(4)
C50 C 0.7208(4) 0.5472(4) 0.9714(5)
H57 H 0.7622 0.5365 1.0113
H58 H 0.6952 0.5375 0.9858
H59 H 0.7193 0.5852 0.9644
C51 C 0.7187(4) 0.4594(3) 0.9157(5)
H60 H 0.7631 0.4581 0.9491
H61 H 0.7054 0.4445 0.9443
C52 C 0.9409(5) 0.4980(4) 0.7396(6)
H62 H 0.9755 0.5198 0.7671
C53 C 0.7036(4) 0.3673(4) 0.8769(6)
H63 H 0.6901 0.3432 0.8350
H64 H 0.6797 0.3617 0.8949
H65 H 0.7460 0.3606 0.9181
C54 C 0.9093(4) 0.4885(3) 0.7665(6)
H66 H 0.9210 0.5050 0.8118
C55 C 0.8757(5) 0.4421(6) 0.6353(6)
H67 H 0.8643 0.4260 0.5899
C56 C 0.8590(4) 0.4542(4) 0.7277(5)
C57 C 0.8444(5) 0.4309(5) 0.6637(6)
H68 H 0.8122 0.4066 0.6379
O7 O 0.4104(2) 0.1282(3) 0.6096(3)
O8 O 0.7008(2) 0.2057(2) 1.0079(3)
N6 N 0.5079(3) 0.1434(2) 0.6581(3)
H69 H 0.5318 0.1467 0.6453
N7 N 0.5883(3) 0.1716(2) 0.7764(3)
C58 C 0.5328(3) 0.1499(3) 0.7338(4)
N8 N 0.6706(3) 0.2057(2) 0.8879(3)
H70 H 0.6814 0.2149 0.8598
C59 C 0.4491(3) 0.1322(3) 0.6025(4)
C60 C 0.4335(3) 0.1240(3) 0.5226(4)
H71 H 0.4688 0.1340 0.5244
C61 C 0.5892(3) 0.1664(3) 0.8835(4)
H72 H 0.6094 0.1732 0.9356
C62 C 0.5339(4) 0.1424(3) 0.8408(4)
H73 H 0.5161 0.1320 0.8640
C63 C 0.7656(3) 0.2453(3) 0.9866(4)
H74 H 0.7569 0.2647 0.9421
C64 C 0.6144(3) 0.1800(3) 0.8500(4)
C65 C 0.7096(3) 0.2179(3) 0.9623(4)
C66 C 0.5038(4) 0.1334(3) 0.7645(4)
H75 H 0.4655 0.1170 0.7344
C67 C 0.4202(4) 0.0663(3) 0.5039(5)
H76 H 0.3873 0.0559 0.5055
H77 H 0.4560 0.0457 0.5408
H78 H 0.4084 0.0598 0.4532
C68 C 0.3803(4) 0.1578(4) 0.4653(5)
H79 H 0.3913 0.1948 0.4775
H80 H 0.3467 0.1500 0.4666
H81 H 0.3684 0.1504 0.4148
C69 C 0.8146(4) 0.2063(3) 1.0113(5)
H82 H 0.8001 0.1804 0.9713
H83 H 0.8261 0.1886 1.0574
H84 H 0.8495 0.2246 1.0214
C70 C 0.7851(4) 0.2857(3) 1.0491(5)
H85 H 0.7931 0.2678 1.0932
H86 H 0.7531 0.3115 1.0303
H87 H 0.8217 0.3035 1.0636
O9 O 0.4495(2) 0.3710(2) 0.3937(3)
N9 N 0.2743(3) 0.4205(2) 0.2263(3)
N10 N 0.1915(3) 0.4522(2) 0.1136(3)
H88 H 0.1818 0.4635 0.1421
O10 O 0.1581(2) 0.4512(2) -0.0092(3)
N11 N 0.3531(3) 0.3908(2) 0.3439(3)
H89 H 0.3290 0.3970 0.3559
C71 C 0.3543(4) 0.3766(3) 0.2363(4)
H90 H 0.3924 0.3600 0.2674
C72 C 0.2450(3) 0.4260(3) 0.1508(4)
C73 C 0.3272(3) 0.3964(3) 0.2666(4)
C74 C 0.0942(4) 0.4911(3) 0.0158(4)
H91 H 0.1046 0.5123 0.0600
C75 C 0.3240(4) 0.3817(3) 0.1596(4)
H92 H 0.3411 0.3680 0.1369
C76 C 0.1507(3) 0.4632(3) 0.0374(4)
C77 C 0.4099(3) 0.3774(3) 0.4018(4)
C78 C 0.4222(4) 0.3670(3) 0.4761(4)
H93 H 0.3851 0.3742 0.4717
C79 C 0.4727(4) 0.4024(3) 0.5363(4)
H94 H 0.4612 0.4392 0.5217
H95 H 0.5092 0.3950 0.5412
H96 H 0.4803 0.3960 0.5847
C80 C 0.2690(4) 0.4065(3) 0.1155(5)
H97 H 0.2479 0.4104 0.0626
C81 C 0.0704(5) 0.5277(4) -0.0500(5)
H98 H 0.0623 0.5078 -0.0929
H99 H 0.1002 0.5549 -0.0355
H100 H 0.0332 0.5440 -0.0643
C82 C 0.4396(4) 0.3093(3) 0.4961(5)
H101 H 0.4751 0.3020 0.4986
H102 H 0.4062 0.2871 0.4573
H103 H 0.4488 0.3017 0.5451
C83 C 0.0491(4) 0.4497(4) -0.0010(6)
H104 H 0.0601 0.4350 0.0465
H105 H 0.0488 0.4218 -0.0313
H106 H 0.0091 0.4655 -0.0290
O11 O 0.6401(2) 0.5688(2) 0.4813(3)
N12 N 0.6693(3) 0.5567(3) 0.6002(3)
H107 H 0.6562 0.5462 0.6254
N13 N 0.7563(3) 0.5787(2) 0.7190(4)
C84 C 0.6281(4) 0.5562(3) 0.5236(4)
C85 C 0.7297(4) 0.5718(3) 0.6440(4)
N14 N 0.8372(3) 0.6019(3) 0.8380(4)
H108 H 0.8115 0.6033 0.8483
C86 C 0.8448(4) 0.6063(3) 0.7362(5)
H109 H 0.8845 0.6197 0.7694
C87 C 0.5657(4) 0.5380(3) 0.4931(4)
H110 H 0.5625 0.5369 0.5353
C88 C 0.8127(4) 0.5949(3) 0.7615(4)
C89 C 0.7594(4) 0.5811(4) 0.6128(5)
H111 H 0.7397 0.5761 0.5604
C90 C 0.8179(4) 0.5976(3) 0.6600(5)
H112 H 0.8399 0.6032 0.6410
C91 C 0.9053(5) 0.6228(4) 0.9702(5)
H113 H 0.8669 0.6267 0.9637
C92 C 0.8985(8) 0.6069(11) 0.8998(9)
O12 O 0.9376(7) 0.6060(6) 0.8891(11)
C93 C 0.5577(5) 0.4821(4) 0.4621(7)
H114 H 0.5566 0.4833 0.4174
H115 H 0.5201 0.4671 0.4484
H116 H 0.5915 0.4602 0.5009
C94 C 0.5196(4) 0.5754(4) 0.4335(7)
H117 H 0.5273 0.6106 0.4551
H118 H 0.4794 0.5640 0.4151
H119 H 0.5219 0.5760 0.3915
C95 C 0.9493(6) 0.5848(4) 1.0298(6)
H120 H 0.9348 0.5490 1.0126
H121 H 0.9539 0.5915 1.0763
H122 H 0.9882 0.5890 1.0397
C96 C 0.9451(9) 0.6755(7) 0.9945(10)
H123 H 0.9854 0.6664 1.0112
H124 H 0.9479 0.6927 1.0359
H125 H 0.9260 0.6993 0.9512
O14 O 0.2876(2) 0.4136(2) 0.4031(3)
O15 O 0.1432(3) 0.4939(3) 0.1878(3)
N15 N 0.2104(3) 0.4501(3) 0.2953(4)
H131 H 0.2223 0.4335 0.2719
C99 C 0.2889(3) 0.5617(3) 0.3274(4)
C100 C 0.3175(3) 0.5636(3) 0.2939(4)
C101 C 0.3879(4) 0.5109(4) 0.1527(5)
H132 H 0.3909 0.4776 0.1364
C102 C 0.3397(4) 0.5650(3) 0.2624(4)
C103 C 0.2298(4) 0.5626(3) 0.3867(4)
C104 C 0.3831(4) 0.6073(3) 0.2055(4)
H133 H 0.3814 0.6404 0.2237
C105 C 0.1506(3) 0.4711(3) 0.3529(4)
H134 H 0.1311 0.4366 0.3323
H135 H 0.1346 0.4867 0.3779
C106 C 0.4032(4) 0.6044(3) 0.1638(4)
H136 H 0.4170 0.6350 0.1545
C107 C 0.2339(4) 0.4275(3) 0.4747(4)
H137 H 0.2145 0.3934 0.4538
H138 H 0.2197 0.4431 0.5013
H139 H 0.2775 0.4227 0.5100
C108 C 0.2460(4) 0.6154(3) 0.4269(5)
H140 H 0.2361 0.6436 0.3911
H141 H 0.2890 0.6163 0.4687
H142 H 0.2232 0.6203 0.4466
C109 C 0.2630(4) 0.5599(3) 0.3536(4)
C110 C 0.2482(4) 0.5176(3) 0.4437(4)
H143 H 0.2922 0.5131 0.4746
H144 H 0.2391 0.5288 0.4782
C111 C 0.3672(3) 0.5149(3) 0.1962(4)
H145 H 0.3548 0.4843 0.2075
C112 C 0.2186(3) 0.4635(3) 0.4110(4)
C113 C 0.2428(3) 0.4408(3) 0.3723(4)
C114 C 0.4035(4) 0.5552(3) 0.1340(4)
H146 H 0.4145 0.5531 0.1013
C115 C 0.3647(3) 0.5626(3) 0.2223(4)
C116 C 0.1626(4) 0.4823(4) 0.2530(4)
C117 C 0.1616(4) 0.5613(4) 0.3205(5)
H147 H 0.1397 0.5772 0.3379
H148 H 0.1540 0.5834 0.2790
C118 C 0.1357(3) 0.5062(4) 0.2891(4)
C119 C 0.0681(4) 0.5110(5) 0.2290(5)
H149 H 0.0502 0.5259 0.2516
H150 H 0.0510 0.4763 0.2085
H151 H 0.0597 0.5340 0.1884
O16 O 0.5870(3) 0.6729(3) 0.6166(3)
C120 C 0.4985(4) 0.8116(3) 0.7938(4)
N16 N 0.6604(3) 0.7107(2) 0.7259(3)
H152 H 0.6426 0.6976 0.7442
C121 C 0.4945(4) 0.7611(3) 0.8159(4)
H153 H 0.5075 0.7315 0.8036
C122 C 0.6321(4) 0.7014(3) 0.6515(4)
C123 C 0.4513(3) 0.7982(3) 0.8712(4)
H154 H 0.4353 0.7937 0.8981
C124 C 0.4538(4) 0.8466(3) 0.8487(4)
H155 H 0.4395 0.8758 0.8600
C125 C 0.6568(3) 0.7271(3) 0.6151(4)
C126 C 0.7234(3) 0.7359(3) 0.6750(4)
H156 H 0.7388 0.7559 0.6520
H157 H 0.7435 0.7013 0.6902
C127 C 0.4720(4) 0.7549(3) 0.8550(4)
H158 H 0.4704 0.7210 0.8713
C128 C 0.4772(4) 0.8542(3) 0.8089(5)
H159 H 0.4783 0.8883 0.7927
C129 C 0.6261(4) 0.7802(3) 0.5826(4)
H160 H 0.5821 0.7757 0.5520
H161 H 0.6353 0.7935 0.5490
C130 C 0.6446(4) 0.6929(3) 0.5518(4)
H162 H 0.6688 0.6610 0.5729
H163 H 0.6550 0.7121 0.5232
H164 H 0.6019 0.6835 0.5182
C131 C 0.5478(5) 0.8173(3) 0.7245(6)
C132 C 0.5781(5) 0.8192(3) 0.6944(6)
C133 C 0.6041(5) 0.8178(3) 0.6668(6)
C134 C 0.5237(4) 0.8180(3) 0.7541(6)
C135 C 0.6484(7) 0.8224(6) 0.6490(9)
C136 C 0.6374(11) 0.8807(7) 0.6194(13)
H165 H 0.6646 0.8890 0.6072
H166 H 0.6449 0.9047 0.6586
H167 H 0.5958 0.8845 0.5741
C137 C 0.7159(8) 0.8193(7) 0.7182(10)
H168 H 0.7396 0.8376 0.7051
H169 H 0.7217 0.8386 0.7606
C138 C 0.7417(8) 0.7645(7) 0.7457(8)
C139 C 0.8090(8) 0.7657(8) 0.8040(10)
H170 H 0.8243 0.7298 0.8185
H171 H 0.8196 0.7850 0.8485
H172 H 0.8268 0.7830 0.7828
C140 C 0.7124(9) 0.7372(9) 0.7765(9)
O17 O 0.7347(8) 0.7411(8) 0.8436(7)
H20? H 0.7654 0.7526 0.9746
C14? C 0.8128(9) 0.6987(9) 0.9871(11)
H21? H 0.8261 0.6638 1.0099
H22? H 0.8477 0.7195 1.0014
H23? H 0.7850 0.6953 0.9320
C15? C 0.8128(8) 0.7568(7) 1.0785(9)
H24? H 0.7836 0.7818 1.0724
H25? H 0.8457 0.7759 1.0846
H26? H 0.8287 0.7351 1.1233
H126? H 0.8135 0.5919 0.8494
H127? H 0.8668 0.6126 0.9607
C97? C 0.9140(11) 0.6856(7) 0.9984(11)
H128? H 0.9552 0.6969 1.0213
H129? H 0.9063 0.6887 1.0355
H130? H 0.8858 0.7078 0.9547
C98? C 0.8901(9) 0.6211(12) 0.8962(9)
O13? O 0.9307(9) 0.6318(10) 0.8950(12)
H173? H 0.6529 0.6898 0.7507
H174? H 0.7421 0.7490 0.6520
H175? H 0.7435 0.7028 0.7021
H176? H 0.6400 0.7931 0.5537
H177? H 0.5828 0.7725 0.5450
O18? O 0.7140(8) 0.7640(6) 0.8273(8)
C141? C 0.7286(8) 0.7777(7) 0.7304(9)
C142? C 0.7006(9) 0.7516(8) 0.7645(10)
C143? C 0.6300(8) 0.8257(6) 0.6270(10)
C144? C 0.7941(8) 0.7889(8) 0.7951(11)
H178? H 0.8133 0.7569 0.8246
H179? H 0.7964 0.8162 0.8276
H180? H 0.8148 0.8008 0.7747
C145? C 0.6966(9) 0.8293(7) 0.6895(11)
H181? H 0.7031 0.8546 0.7275
H182? H 0.7159 0.8439 0.6681
C146? C 0.6101(11) 0.8745(7) 0.5777(13)
H183? H 0.6340 0.8780 0.5593
H184? H 0.6160 0.9055 0.6075
H185? H 0.5676 0.8713 0.5347
loop_
_geom_bond_atom_site_label_1
_geom_bond_atom_site_label_2
_geom_bond_site_symmetry_1
_geom_bond_site_symmetry_2
O1 C2 1_555 1_555
N1 H1 1_555 1_555
N2 C1 1_555 1_555
O2 C10 1_555 1_555
C1 N1 1_555 1_555
C2 N1 1_555 1_555
C3 H2 1_555 1_555
C4 C3 1_555 1_555
H3 C4 1_555 1_555
C5 C2 1_555 1_555
H4 C5 1_555 1_555
C6 C1 1_555 1_555
H5 C6 1_555 1_555
C7 N2 1_555 1_555
C8 C5 1_555 1_555
H6 C8 1_555 1_555
H7 C8 1_555 1_555
H8 C8 1_555 1_555
N3 C7 1_555 1_555
H9 N3 1_555 1_555
C9 C5 1_555 1_555
H10 C9 1_555 1_555
H11 C9 1_555 1_555
H12 C9 1_555 1_555
C10 N3 1_555 1_555
C11 C10 1_555 1_555
H13 C11 1_555 1_555
C12 C11 1_555 1_555
H14 C12 1_555 1_555
H15 C12 1_555 1_555
H16 C12 1_555 1_555
C13 C11 1_555 1_555
H17 C13 1_555 1_555
H18 C13 1_555 1_555
H19 C13 1_555 1_555
O3 C25 1_555 1_555
O4 C17 1_555 1_555
N4 H27 1_555 1_555
C16 C21 1_555 1_555
C17 N4 1_555 1_555
C18 H28 1_555 1_555
H29 C18 1_555 1_555
H30 C18 1_555 1_555
C19 C22 1_555 1_555
C20 C17 1_555 1_555
C21 H31 1_555 1_555
C22 C33 1_555 1_555
C23 C20 1_555 1_555
H32 C23 1_555 1_555
H33 C23 1_555 1_555
C24 C16 1_555 1_555
C25 N4 1_555 1_555
C26 H34 1_555 1_555
H35 C26 1_555 1_555
C27 C20 1_555 1_555
H36 C27 1_555 1_555
H37 C27 1_555 1_555
C28 C23 1_555 1_555
C29 H38 1_555 1_555
H39 C29 1_555 1_555
H40 C29 1_555 1_555
C30 C28 1_555 1_555
H41 C30 1_555 1_555
H42 C30 1_555 1_555
H43 C30 1_555 1_555
C31 C16 1_555 1_555
H44 C31 1_555 1_555
C32 C19 1_555 1_555
C33 C24 1_555 1_555
C34 C21 1_555 1_555
H45 C34 1_555 1_555
C35 C31 1_555 1_555
H46 C35 1_555 1_555
C36 C34 1_555 1_555
H47 C36 1_555 1_555
O5 C37 1_555 1_555
O6 C44 1_555 1_555
N5 H48 1_555 1_555
C37 N5 1_555 1_555
C38 C40 1_555 1_555
C39 C37 1_555 1_555
C40 C45 1_555 1_555
C41 C38 1_555 1_555
C42 C39 1_555 1_555
H49 C42 1_555 1_555
H50 C42 1_555 1_555
C43 C39 1_555 1_555
H51 C43 1_555 1_555
H52 C43 1_555 1_555
H53 C43 1_555 1_555
C44 N5 1_555 1_555
C45 C42 1_555 1_555
C46 C41 1_555 1_555
C47 H54 1_555 1_555
C48 C39 1_555 1_555
H55 C48 1_555 1_555
H56 C48 1_555 1_555
C49 C44 1_555 1_555
C50 C49 1_555 1_555
H57 C50 1_555 1_555
H58 C50 1_555 1_555
H59 C50 1_555 1_555
C51 C45 1_555 1_555
H60 C51 1_555 1_555
H61 C51 1_555 1_555
C52 C47 1_555 1_555
H62 C52 1_555 1_555
C53 C45 1_555 1_555
H63 C53 1_555 1_555
H64 C53 1_555 1_555
H65 C53 1_555 1_555
C54 C52 1_555 1_555
H66 C54 1_555 1_555
C55 C47 1_555 1_555
H67 C55 1_555 1_555
C56 C46 1_555 1_555
C57 C55 1_555 1_555
H68 C57 1_555 1_555
O7 C59 1_555 1_555
O8 C65 1_555 1_555
N6 H69 1_555 1_555
N7 C58 1_555 1_555
C58 N6 1_555 1_555
N8 H70 1_555 1_555
C59 N6 1_555 1_555
C60 C59 1_555 1_555
H71 C60 1_555 1_555
C61 H72 1_555 1_555
C62 C61 1_555 1_555
H73 C62 1_555 1_555
C63 H74 1_555 1_555
C64 N7 1_555 1_555
C65 N8 1_555 1_555
C66 C58 1_555 1_555
H75 C66 1_555 1_555
C67 C60 1_555 1_555
H76 C67 1_555 1_555
H77 C67 1_555 1_555
H78 C67 1_555 1_555
C68 C60 1_555 1_555
H79 C68 1_555 1_555
H80 C68 1_555 1_555
H81 C68 1_555 1_555
C69 C63 1_555 1_555
H82 C69 1_555 1_555
H83 C69 1_555 1_555
H84 C69 1_555 1_555
C70 C63 1_555 1_555
H85 C70 1_555 1_555
H86 C70 1_555 1_555
H87 C70 1_555 1_555
O9 C77 1_555 1_555
N9 C72 1_555 1_555
N10 H88 1_555 1_555
O10 C76 1_555 1_555
N11 H89 1_555 1_555
C71 H90 1_555 1_555
C72 N10 1_555 1_555
C73 N9 1_555 1_555
C74 H91 1_555 1_555
C75 C71 1_555 1_555
H92 C75 1_555 1_555
C76 N10 1_555 1_555
C77 N11 1_555 1_555
C78 C77 1_555 1_555
H93 C78 1_555 1_555
C79 C78 1_555 1_555
H94 C79 1_555 1_555
H95 C79 1_555 1_555
H96 C79 1_555 1_555
C80 C72 1_555 1_555
H97 C80 1_555 1_555
C81 C74 1_555 1_555
H98 C81 1_555 1_555
H99 C81 1_555 1_555
H100 C81 1_555 1_555
C82 C78 1_555 1_555
H101 C82 1_555 1_555
H102 C82 1_555 1_555
H103 C82 1_555 1_555
C83 C74 1_555 1_555
H104 C83 1_555 1_555
H105 C83 1_555 1_555
H106 C83 1_555 1_555
O11 C84 1_555 1_555
N12 H107 1_555 1_555
N13 C85 1_555 1_555
C84 N12 1_555 1_555
C85 N12 1_555 1_555
N14 H108 1_555 1_555
C86 H109 1_555 1_555
C87 C84 1_555 1_555
H110 C87 1_555 1_555
C88 N13 1_555 1_555
C89 C85 1_555 1_555
H111 C89 1_555 1_555
C90 C86 1_555 1_555
H112 C90 1_555 1_555
C91 H113 1_555 1_555
C92 N14 1_555 1_555
O12 C92 1_555 1_555
C93 C87 1_555 1_555
H114 C93 1_555 1_555
H115 C93 1_555 1_555
H116 C93 1_555 1_555
C94 C87 1_555 1_555
H117 C94 1_555 1_555
H118 C94 1_555 1_555
H119 C94 1_555 1_555
C95 C91 1_555 1_555
H120 C95 1_555 1_555
H121 C95 1_555 1_555
H122 C95 1_555 1_555
C96 C91 1_555 1_555
H123 C96 1_555 1_555
H124 C96 1_555 1_555
H125 C96 1_555 1_555
O14 C113 1_555 1_555
O15 C116 1_555 1_555
N15 H131 1_555 1_555
C99 C100 1_555 1_555
C100 C102 1_555 1_555
C101 H132 1_555 1_555
C102 C115 1_555 1_555
C103 C108 1_555 1_555
C104 H133 1_555 1_555
C105 H134 1_555 1_555
H135 C105 1_555 1_555
C106 C104 1_555 1_555
H136 C106 1_555 1_555
C107 H137 1_555 1_555
H138 C107 1_555 1_555
H139 C107 1_555 1_555
C108 H140 1_555 1_555
H141 C108 1_555 1_555
H142 C108 1_555 1_555
C109 C99 1_555 1_555
C110 C103 1_555 1_555
H143 C110 1_555 1_555
H144 C110 1_555 1_555
C111 C101 1_555 1_555
H145 C111 1_555 1_555
C112 C105 1_555 1_555
C113 N15 1_555 1_555
C114 C101 1_555 1_555
H146 C114 1_555 1_555
C115 C104 1_555 1_555
C116 N15 1_555 1_555
C117 C103 1_555 1_555
H147 C117 1_555 1_555
H148 C117 1_555 1_555
C118 C105 1_555 1_555
C119 C118 1_555 1_555
H149 C119 1_555 1_555
H150 C119 1_555 1_555
H151 C119 1_555 1_555
O16 C122 1_555 1_555
C120 C121 1_555 1_555
N16 H152 1_555 1_555
C121 H153 1_555 1_555
C122 N16 1_555 1_555
C123 H154 1_555 1_555
C124 C123 1_555 1_555
H155 C124 1_555 1_555
C125 C122 1_555 1_555
C126 C125 1_555 1_555
H156 C126 1_555 1_555
H157 C126 1_555 1_555
C127 C121 1_555 1_555
H158 C127 1_555 1_555
C128 C120 1_555 1_555
H159 C128 1_555 1_555
C129 C125 1_555 1_555
H160 C129 1_555 1_555
H161 C129 1_555 1_555
C130 C125 1_555 1_555
H162 C130 1_555 1_555
H163 C130 1_555 1_555
H164 C130 1_555 1_555
C131 C132 1_555 1_555
C132 C133 1_555 1_555
C133 C135 1_555 1_555
C134 C120 1_555 1_555
C135 C129 1_555 1_555
C136 C135 1_555 1_555
H165 C136 1_555 1_555
H166 C136 1_555 1_555
H167 C136 1_555 1_555
C137 C135 1_555 1_555
H168 C137 1_555 1_555
H169 C137 1_555 1_555
C138 C126 1_555 1_555
C139 C138 1_555 1_555
H170 C139 1_555 1_555
H171 C139 1_555 1_555
H172 C139 1_555 1_555
C140 N16 1_555 1_555
O17 C140 1_555 1_555
C3 C6 1_555 1_555
C4 C7 1_555 1_555
C18 C20 1_555 1_555
C25 C28 1_555 1_555
C26 C28 1_555 1_555
C26 C32 1_555 1_555
C27 C32 1_555 1_555
C29 C32 1_555 1_555
C35 C36 1_555 1_555
C48 C49 1_555 1_555
C49 C51 1_555 1_555
C54 C56 1_555 1_555
C56 C57 1_555 1_555
N8 C64 1_555 1_555
C61 C64 1_555 1_555
C62 C66 1_555 1_555
C63 C65 1_555 1_555
N11 C73 1_555 1_555
C71 C73 1_555 1_555
C74 C76 1_555 1_555
C75 C80 1_555 1_555
N14 C88 1_555 1_555
C86 C88 1_555 1_555
C89 C90 1_555 1_555
C91 C92 1_555 1_555
C103 C109 1_555 1_555
C106 C114 1_555 1_555
C107 C112 1_555 1_555
C110 C112 1_555 1_555
C111 C115 1_555 1_555
C112 C113 1_555 1_555
C116 C118 1_555 1_555
C117 C118 1_555 1_555
C123 C127 1_555 1_555
C124 C128 1_555 1_555
C131 C134 1_555 1_555
C137 C138 1_555 1_555
C138 C140 1_555 1_555

#END
