
#######################################################################
#
#                 Cambridge Crystallographic Data Centre
#                                CCDC 
#
#######################################################################
#
# If this CIF has been generated from an entry in the Cambridge 
# Structural Database, then it will include bibliographic, chemical, 
# crystal, experimental, refinement or atomic coordinate data resulting 
# from the CCDC's data processing and validation procedures.
#
#######################################################################

data_TEHREG
_chemical_formula_moiety         'C22 H20 F3 N1 O2,C13 H19 N3 O2'
_chemical_name_systematic        
"N,N'-(pyridine-2,6-diyl)bis(2-methylpropanamide) 1,5,7-trimethyl-7-{4-[4-(trifluoromethyl)phenyl]buta-1,3-diyn-1-yl}-3-azabicyclo[3.3.1]nonane-2,4-dione"
_symmetry_cell_setting           monoclinic
_symmetry_space_group_name_H-M   'P 21/n'
_symmetry_Int_Tables_number      14
_space_group_name_Hall           '-P 2yn'
loop_
_symmetry_equiv_pos_site_id
_symmetry_equiv_pos_as_xyz
1 x,y,z
2 1/2-x,1/2+y,1/2-z
3 -x,-y,-z
4 1/2+x,1/2-y,1/2+z
_cell_length_a                   15.32460(10)
_cell_length_b                   12.08050(10)
_cell_length_c                   18.11030(10)
_cell_angle_alpha                90
_cell_angle_beta                 91.8450(10)
_cell_angle_gamma                90
_cell_volume                     3351
_exptl_crystal_colour            colorless
_exptl_crystal_description       block
_cell_formula_units_Z            4
_exptl_crystal_recrystallization_method 'dichloromethane /n-hexane'
loop_
_atom_site_label
_atom_site_type_symbol
_atom_site_fract_x
_atom_site_fract_y
_atom_site_fract_z
O1 O 0.40789(6) 0.42041(8) 0.38870(5)
O2 O 0.48423(6) 0.23739(8) 0.59511(5)
N1 N 0.45428(7) 0.34573(9) 0.49641(6)
H1 H 0.3985(7) 0.3465(13) 0.5107(9)
C1 C 0.55976(8) 0.36548(10) 0.39590(7)
C2 C 0.46802(8) 0.37956(10) 0.42489(7)
C3 C 0.51068(8) 0.28111(11) 0.53949(7)
C4 C 0.60442(8) 0.27053(11) 0.51433(7)
C5 C 0.61519(8) 0.15987(11) 0.47314(7)
H2 H 0.5995 0.1001 0.5059
H3 H 0.6763 0.1508 0.4621
C6 C 0.56022(8) 0.14837(11) 0.40024(7)
C7 C 0.56771(8) 0.25486(10) 0.35350(7)
H4 H 0.5226 0.2530 0.3147
H5 H 0.6236 0.2539 0.3299
C8 C 0.62435(8) 0.36570(11) 0.46199(7)
H6 H 0.6833 0.3581 0.4448
H7 H 0.6205 0.4355 0.4881
C9 C 0.57674(8) 0.46096(11) 0.34307(7)
H8 H 0.5341 0.4594 0.3030
H9 H 0.6341 0.4536 0.3239
H10 H 0.5726 0.5299 0.3691
C10 C 0.66516(9) 0.27375(13) 0.58314(8)
H11 H 0.6551 0.3407 0.6102
H12 H 0.7248 0.2716 0.5685
H13 H 0.6536 0.2110 0.6139
C11 C 0.59294(9) 0.04882(12) 0.35584(9)
H14 H 0.5581 0.0412 0.3111
H15 H 0.5883 -0.0173 0.3848
H16 H 0.6528 0.0605 0.3439
C12 C 0.46821(9) 0.12804(11) 0.41726(7)
C13 C 0.39365(8) 0.11392(10) 0.43331(7)
C14 C 0.30995(9) 0.10594(11) 0.45770(7)
C15 C 0.23853(9) 0.10239(11) 0.48317(7)
C16 C 0.15583(8) 0.10385(11) 0.51775(7)
C17 C 0.14986(9) 0.06522(12) 0.59010(8)
H17 H 0.1986 0.0347 0.6143
C18 C 0.07191(9) 0.07223(13) 0.62562(8)
H18 H 0.0682 0.0472 0.6740
C19 C -0.00077(9) 0.11648(13) 0.58945(9)
C20 C 0.00377(10) 0.15278(13) 0.51720(9)
H19 H -0.0457 0.1810 0.4928
C21 C 0.08212(9) 0.14706(13) 0.48128(8)
H20 H 0.0854 0.1720 0.4329
C22 C -0.08307(11) 0.12939(16) 0.63046(11)
F1 F -0.1516(4) 0.1360(6) 0.5826(3)
F2 F -0.0989(4) 0.0411(4) 0.6721(3)
F3 F -0.0788(4) 0.2142(6) 0.6755(4)
O3 O 0.09102(6) 0.44654(10) 0.37129(6)
O4 O 0.27564(7) 0.34368(11) 0.77502(6)
N2 N 0.22347(7) 0.42148(10) 0.43089(6)
H21 H 0.2805(6) 0.4132(13) 0.4225(9)
N3 N 0.26303(6) 0.36247(8) 0.54796(6)
N4 N 0.31177(7) 0.28906(9) 0.65961(6)
H22 H 0.3554(8) 0.2618(13) 0.6340(8)
C23 C 0.23510(10) 0.30748(14) 0.27988(8)
H23 H 0.2702 0.2753 0.3191
H24 H 0.2653 0.3020 0.2344
H25 H 0.1805 0.2687 0.2752
C24 C 0.16634(11) 0.48591(16) 0.23473(9)
H26 H 0.1118 0.4481 0.2263
H27 H 0.1993 0.4839 0.1905
H28 H 0.1553 0.5615 0.2480
C25 C 0.21803(9) 0.42921(13) 0.29720(7)
H29 H 0.2743 0.4670 0.3040
C26 C 0.17000(8) 0.43542(12) 0.36906(7)
C27 C 0.19864(8) 0.40336(11) 0.50346(7)
C28 C 0.11467(9) 0.42445(12) 0.52734(8)
H30 H 0.0720 0.4548 0.4957
C29 C 0.09717(9) 0.39864(13) 0.59961(8)
H31 H 0.0416 0.4111 0.6171
C30 C 0.16101(9) 0.35461(12) 0.64624(8)
H32 H 0.1495 0.3362 0.6948
C31 C 0.24349(8) 0.33869(10) 0.61786(7)
C32 C 0.32299(9) 0.29137(11) 0.73489(7)
C33 C 0.39892(9) 0.22277(12) 0.76551(8)
H33 H 0.4131 0.1632 0.7312
C34 C 0.3725(3) 0.1740(6) 0.8420(3)
H34 H 0.3595 0.2335 0.8750
H35 H 0.4199 0.1309 0.8627
H36 H 0.3219 0.1278 0.8351
C35 C 0.4784(6) 0.2965(8) 0.7808(4)
H37 H 0.4982 0.3262 0.7351
H38 H 0.5243 0.2536 0.8041
H39 H 0.4627 0.3561 0.8128
F4? F -0.0989(5) 0.2382(5) 0.6478(6)
F5? F -0.1564(4) 0.1111(7) 0.5931(3)
F6? F -0.0878(6) 0.0689(9) 0.6909(5)
H40? H 0.4249 0.1874 0.7228
C36? C 0.3663(4) 0.1314(6) 0.8119(6)
H41? H 0.3355 0.1618 0.8525
H42? H 0.4148 0.0881 0.8305
H43? H 0.3276 0.0853 0.7827
C37? C 0.4684(9) 0.2927(13) 0.8000(8)
H44? H 0.4889 0.3444 0.7642
H45? H 0.5160 0.2466 0.8170
H46? H 0.4455 0.3322 0.8410
loop_
_geom_bond_atom_site_label_1
_geom_bond_atom_site_label_2
_geom_bond_site_symmetry_1
_geom_bond_site_symmetry_2
O1 C2 1_555 1_555
O2 C3 1_555 1_555
N1 H1 1_555 1_555
C1 C2 1_555 1_555
C2 N1 1_555 1_555
C3 N1 1_555 1_555
C4 C3 1_555 1_555
C5 C4 1_555 1_555
H2 C5 1_555 1_555
H3 C5 1_555 1_555
C6 C5 1_555 1_555
C7 C1 1_555 1_555
H4 C7 1_555 1_555
H5 C7 1_555 1_555
C8 C1 1_555 1_555
H6 C8 1_555 1_555
H7 C8 1_555 1_555
C9 C1 1_555 1_555
H8 C9 1_555 1_555
H9 C9 1_555 1_555
H10 C9 1_555 1_555
C10 C4 1_555 1_555
H11 C10 1_555 1_555
H12 C10 1_555 1_555
H13 C10 1_555 1_555
C11 C6 1_555 1_555
H14 C11 1_555 1_555
H15 C11 1_555 1_555
H16 C11 1_555 1_555
C12 C6 1_555 1_555
C13 C12 1_555 1_555
C14 C13 1_555 1_555
C15 C14 1_555 1_555
C16 C15 1_555 1_555
C17 C16 1_555 1_555
H17 C17 1_555 1_555
C18 C17 1_555 1_555
H18 C18 1_555 1_555
C19 C18 1_555 1_555
C20 C19 1_555 1_555
H19 C20 1_555 1_555
C21 C16 1_555 1_555
H20 C21 1_555 1_555
C22 C19 1_555 1_555
F1 C22 1_555 1_555
F2 C22 1_555 1_555
F3 C22 1_555 1_555
O3 C26 1_555 1_555
O4 C32 1_555 1_555
N2 H21 1_555 1_555
N3 C27 1_555 1_555
N4 H22 1_555 1_555
C23 H23 1_555 1_555
H24 C23 1_555 1_555
H25 C23 1_555 1_555
C24 H26 1_555 1_555
H27 C24 1_555 1_555
H28 C24 1_555 1_555
C25 C23 1_555 1_555
H29 C25 1_555 1_555
C26 N2 1_555 1_555
C27 N2 1_555 1_555
C28 C27 1_555 1_555
H30 C28 1_555 1_555
C29 C28 1_555 1_555
H31 C29 1_555 1_555
C30 C29 1_555 1_555
H32 C30 1_555 1_555
C31 N3 1_555 1_555
C32 N4 1_555 1_555
C33 C32 1_555 1_555
H33 C33 1_555 1_555
C34 C33 1_555 1_555
H34 C34 1_555 1_555
H35 C34 1_555 1_555
H36 C34 1_555 1_555
C35 C33 1_555 1_555
H37 C35 1_555 1_555
H38 C35 1_555 1_555
H39 C35 1_555 1_555
C4 C8 1_555 1_555
C6 C7 1_555 1_555
C20 C21 1_555 1_555
N4 C31 1_555 1_555
C24 C25 1_555 1_555
C25 C26 1_555 1_555
C30 C31 1_555 1_555

#END
