
#######################################################################
#
#                 Cambridge Crystallographic Data Centre
#                                CCDC 
#
#######################################################################
#
# If this CIF has been generated from an entry in the Cambridge 
# Structural Database, then it will include bibliographic, chemical, 
# crystal, experimental, refinement or atomic coordinate data resulting 
# from the CCDC's data processing and validation procedures.
#
#######################################################################

data_TEHTUW
_chemical_formula_moiety         'C26 H16 Se2'
_chemical_name_systematic        
2,7-diphenyl[1]benzoselenopheno[3,2-b][1]benzoselenophene
_symmetry_cell_setting           orthorhombic
_symmetry_space_group_name_H-M   'P b c a'
_symmetry_Int_Tables_number      61
_space_group_name_Hall           '-P 2ac 2ab'
loop_
_symmetry_equiv_pos_site_id
_symmetry_equiv_pos_as_xyz
1 x,y,z
2 1/2+x,1/2-y,-z
3 -x,1/2+y,1/2-z
4 1/2-x,-y,1/2+z
5 -x,-y,-z
6 1/2-x,1/2+y,z
7 x,1/2-y,1/2+z
8 1/2+x,y,1/2-z
_cell_length_a                   30.008(7)
_cell_length_b                   8.400(4)
_cell_length_c                   7.701(3)
_cell_angle_alpha                90
_cell_angle_beta                 90
_cell_angle_gamma                90
_cell_volume                     1941.17
_exptl_crystal_colour            colorless
_exptl_crystal_description       plate
_chemical_melting_point          'above 300 deg.C'
_cell_formula_units_Z            4
loop_
_atom_site_label
_atom_site_type_symbol
_atom_site_fract_x
_atom_site_fract_y
_atom_site_fract_z
Se1 Se 0.43617(2) 0.60793(7) 0.59060(8)
C1 C 0.4958(2) 0.5352(6) 0.5781(8)
C2 C 0.5315(2) 0.5449(6) 0.7004(8)
C3 C 0.5322(2) 0.6132(6) 0.8674(9)
C4 C 0.5696(2) 0.6035(7) 0.9664(10)
C5 C 0.6086(2) 0.5281(7) 0.9065(8)
C6 C 0.6088(2) 0.4678(7) 0.7386(8)
C7 C 0.4291(2) 0.5256(7) 0.3644(8)
C8 C 0.6481(2) 0.5078(7) 1.0219(8)
C9 C 0.6576(2) 0.6169(7) 1.155(1)
C10 C 0.6934(3) 0.5942(10) 1.262(1)
C11 C 0.7213(2) 0.465(1) 1.244(1)
C12 C 0.7121(3) 0.3561(8) 1.116(1)
C13 C 0.6762(2) 0.3778(7) 1.0057(9)
H1 H 0.5057 0.6656 0.9101
H2 H 0.5693 0.6533 1.0795
H3 H 0.6355 0.4214 0.6921
H4 H 0.6384 0.7068 1.1733
H5 H 0.7004 0.6711 1.3510
H6 H 0.7470 0.4487 1.3241
H7 H 0.7321 0.2641 1.1015
H8 H 0.6700 0.3002 0.9146
Se1D Se 0.56383(2) 0.39207(7) 0.40940(8)
C1D C 0.5042(2) 0.4648(6) 0.4219(8)
C2D C 0.4685(2) 0.4551(6) 0.2996(8)
C3D C 0.4678(2) 0.3868(6) 0.1326(9)
C4D C 0.4304(2) 0.3965(7) 0.0336(10)
C5D C 0.3914(2) 0.4719(7) 0.0935(8)
C6D C 0.3912(2) 0.5322(7) 0.2614(8)
C7D C 0.5709(2) 0.4744(7) 0.6356(8)
C8D C 0.3519(2) 0.4922(7) -0.0219(8)
C9D C 0.3424(2) 0.3831(7) -0.155(1)
C10D C 0.3066(3) 0.4058(10) -0.262(1)
C11D C 0.2787(2) 0.535(1) -0.244(1)
C12D C 0.2879(3) 0.6439(8) -0.116(1)
C13D C 0.3238(2) 0.6222(7) -0.0057(9)
H1D H 0.4943 0.3344 0.0899
H2D H 0.4307 0.3467 -0.0795
H3D H 0.3645 0.5786 0.3079
H4D H 0.3616 0.2932 -0.1733
H5D H 0.2996 0.3289 -0.3510
H6D H 0.2530 0.5513 -0.3241
H7D H 0.2679 0.7359 -0.1015
H8D H 0.3300 0.6998 0.0854
loop_
_geom_bond_atom_site_label_1
_geom_bond_atom_site_label_2
_geom_bond_site_symmetry_1
_geom_bond_site_symmetry_2
Se1 C1 1_555 1_555
C1 C2 1_555 1_555
C2 C3 1_555 1_555
C3 C4 1_555 1_555
C4 C5 1_555 1_555
C5 C6 1_555 1_555
C6 H3 1_555 1_555
C7 Se1 1_555 1_555
C8 C5 1_555 1_555
C9 C8 1_555 1_555
C10 C9 1_555 1_555
C11 C10 1_555 1_555
C12 C11 1_555 1_555
C13 C8 1_555 1_555
H1 C3 1_555 1_555
H2 C4 1_555 1_555
H4 C9 1_555 1_555
H5 C10 1_555 1_555
H6 C11 1_555 1_555
H7 C12 1_555 1_555
H8 C13 1_555 1_555
Se1D C1D 1_555 1_555
C1D C1 1_555 1_555
C2D C7 1_555 1_555
C3D C2D 1_555 1_555
C4D C3D 1_555 1_555
C5D C4D 1_555 1_555
C6D C7 1_555 1_555
C7D C2 1_555 1_555
C8D C5D 1_555 1_555
C9D C8D 1_555 1_555
C10D C9D 1_555 1_555
C11D C10D 1_555 1_555
C12D C11D 1_555 1_555
C13D C8D 1_555 1_555
H1D C3D 1_555 1_555
H2D C4D 1_555 1_555
H3D C6D 1_555 1_555
H4D C9D 1_555 1_555
H5D C10D 1_555 1_555
H6D C11D 1_555 1_555
H7D C12D 1_555 1_555
H8D C13D 1_555 1_555
C6 C7D 1_555 1_555
C12 C13 1_555 1_555
Se1D C7D 1_555 1_555
C1D C2D 1_555 1_555
C5D C6D 1_555 1_555
C12D C13D 1_555 1_555

#END
