
#######################################################################
#
#                 Cambridge Crystallographic Data Centre
#                                CCDC 
#
#######################################################################
#
# If this CIF has been generated from an entry in the Cambridge 
# Structural Database, then it will include bibliographic, chemical, 
# crystal, experimental, refinement or atomic coordinate data resulting 
# from the CCDC's data processing and validation procedures.
#
#######################################################################

data_TEHTOQ
_chemical_formula_moiety         'C14 H8 Se2'
_chemical_name_systematic        '[1]benzoselenopheno[3,2-b][1]benzoselenophene'
_symmetry_cell_setting           monoclinic
_symmetry_space_group_name_H-M   'P 21/c'
_symmetry_Int_Tables_number      14
_space_group_name_Hall           '-P 2ybc'
loop_
_symmetry_equiv_pos_site_id
_symmetry_equiv_pos_as_xyz
1 x,y,z
2 -x,1/2+y,1/2-z
3 -x,-y,-z
4 x,1/2-y,1/2+z
_cell_length_a                   12.037(2)
_cell_length_b                   6.025(1)
_cell_length_c                   8.420(1)
_cell_angle_alpha                90
_cell_angle_beta                 108.45(1)
_cell_angle_gamma                90
_cell_volume                     579.256
_exptl_crystal_colour            colorless
_exptl_crystal_description       plate
_chemical_melting_point          '207-209 deg.C'
_cell_formula_units_Z            2
_exptl_crystal_recrystallization_method chloroform
loop_
_atom_site_label
_atom_site_type_symbol
_atom_site_fract_x
_atom_site_fract_y
_atom_site_fract_z
Se1 Se 1.08430(3) 0.28935(6) 0.65680(4)
C1 C 0.9737(3) 0.0866(5) 0.5264(4)
C2 C 0.8480(3) 0.0827(5) 0.4791(3)
C3 C 0.7728(4) 0.2319(7) 0.5214(5)
C4 C 0.6538(4) 0.1924(9) 0.4655(6)
C5 C 0.6080(4) 0.0062(9) 0.3707(6)
C6 C 0.6801(3) -0.1441(8) 0.3269(5)
C7 C 1.1997(3) 0.1046(5) 0.6180(4)
H1 H 0.803(5) 0.351(9) 0.580(7)
H2 H 0.611(5) 0.278(9) 0.492(7)
H3 H 0.531(5) -0.023(9) 0.331(6)
H4 H 0.657(6) -0.273(8) 0.243(8)
Se1B Se 0.91570(3) -0.28935(6) 0.34320(4)
C1B C 1.0263(3) -0.0866(5) 0.4736(4)
C2B C 1.1520(3) -0.0827(5) 0.5209(3)
C3B C 1.2272(4) -0.2319(7) 0.4786(5)
C4B C 1.3462(4) -0.1924(9) 0.5345(6)
C5B C 1.3920(4) -0.0062(9) 0.6293(6)
C6B C 1.3199(3) 0.1441(8) 0.6731(5)
C7B C 0.8003(3) -0.1046(5) 0.3820(4)
H1B H 1.197(5) -0.351(9) 0.420(7)
H2B H 1.389(5) -0.278(9) 0.508(7)
H3B H 1.469(5) 0.023(9) 0.669(6)
H4B H 1.343(6) 0.273(8) 0.757(8)
loop_
_geom_bond_atom_site_label_1
_geom_bond_atom_site_label_2
_geom_bond_site_symmetry_1
_geom_bond_site_symmetry_2
Se1 C1 1_555 1_555
C1 C2 1_555 1_555
C2 C3 1_555 1_555
C3 C4 1_555 1_555
C4 C5 1_555 1_555
C5 C6 1_555 1_555
C6 H4 1_555 1_555
C7 Se1 1_555 1_555
H1 C3 1_555 1_555
H2 C4 1_555 1_555
H3 C5 1_555 1_555
Se1B C1B 1_555 1_555
C1B C1 1_555 1_555
C2B C7 1_555 1_555
C3B C2B 1_555 1_555
C4B C3B 1_555 1_555
C5B C4B 1_555 1_555
C6B C7 1_555 1_555
C7B C2 1_555 1_555
H1B C3B 1_555 1_555
H2B C4B 1_555 1_555
H3B C5B 1_555 1_555
H4B C6B 1_555 1_555
C6 C7B 1_555 1_555
Se1B C7B 1_555 1_555
C1B C2B 1_555 1_555
C5B C6B 1_555 1_555

#END
