
#######################################################################
#
#                 Cambridge Crystallographic Data Centre
#                                CCDC 
#
#######################################################################
#
# If this CIF has been generated from an entry in the Cambridge 
# Structural Database, then it will include bibliographic, chemical, 
# crystal, experimental, refinement or atomic coordinate data resulting 
# from the CCDC's data processing and validation procedures.
#
#######################################################################

data_TEJGUK
_chemical_formula_moiety         'C14 H13 N1 O1,C8 Cl2 N2 O2'
_chemical_name_systematic        
'9-(2-Hydroxyethyl)carbazole 2,3-dichloro-5,6-dicyano-1,4-benzoquinone'
_symmetry_cell_setting           monoclinic
_symmetry_space_group_name_H-M   'P 21/c'
_symmetry_Int_Tables_number      14
_space_group_name_Hall           '-P 2ybc'
loop_
_symmetry_equiv_pos_site_id
_symmetry_equiv_pos_as_xyz
1 x,y,z
2 -x,1/2+y,1/2-z
3 -x,-y,-z
4 x,1/2-y,1/2+z
_cell_length_a                   8.785(4)
_cell_length_b                   15.306(7)
_cell_length_c                   14.573(3)
_cell_angle_alpha                90
_cell_angle_beta                 97.00(3)
_cell_angle_gamma                90
_cell_volume                     1944.93
_exptl_crystal_colour            'blue green'
_chemical_melting_point          '407-409 K'
_cell_formula_units_Z            4
loop_
_atom_site_label
_atom_site_type_symbol
_atom_site_fract_x
_atom_site_fract_y
_atom_site_fract_z
Cl1 Cl 0.9269(1) 0.7049(1) 0.0041(1)
Cl2 Cl 0.8312(1) 0.5100(1) 0.0435(1)
O1 O 0.5358(3) 0.5021(2) 0.1121(2)
O2 O 0.6970(4) 0.8310(2) 0.0528(2)
N1 N 0.2117(4) 0.6108(2) 0.1675(2)
N2 N 0.3373(5) 0.8607(2) 0.1369(3)
C1 C 0.5737(4) 0.5766(2) 0.0983(2)
C2 C 0.7198(4) 0.5977(3) 0.0627(3)
C3 C 0.7602(4) 0.6798(3) 0.0477(3)
C4 C 0.6626(5) 0.7557(3) 0.0667(2)
C5 C 0.5160(4) 0.7346(2) 0.1027(2)
C6 C 0.4726(4) 0.6508(2) 0.1161(2)
C7 C 0.4179(5) 0.8063(2) 0.1208(3)
C8 C 0.3290(4) 0.6292(2) 0.1452(2)
O3 O 0.0233(5) 0.0989(3) 0.0654(3)
N3 N 0.2790(3) 0.1361(2) 0.2055(2)
C9 C 0.3265(4) 0.2826(2) 0.2046(2)
C10 C 0.2917(5) 0.3706(3) 0.2169(3)
C11 C 0.1535(5) 0.3912(3) 0.2477(3)
C12 C 0.0488(5) 0.3262(3) 0.2647(3)
C13 C 0.0796(4) 0.2398(3) 0.2529(3)
C14 C 0.2200(4) 0.2176(2) 0.2228(2)
C15 C 0.4524(4) 0.2381(2) 0.1694(2)
C16 C 0.4185(4) 0.1482(2) 0.1696(2)
C17 C 0.5142(5) 0.0853(3) 0.1387(3)
C18 C 0.6485(5) 0.1157(3) 0.1078(3)
C19 C 0.6861(5) 0.2037(3) 0.1085(3)
C20 C 0.5905(4) 0.2655(3) 0.1393(3)
C21 C 0.1921(5) 0.0546(2) 0.1997(3)
C22 C 0.1218(6) 0.0340(3) 0.1038(3)
H1 H -0.0599 0.1366 0.0422
H2 H 0.3622 0.4157 0.2043
H3 H 0.1288 0.4513 0.2575
H4 H -0.0469 0.3427 0.2853
H5 H 0.0072 0.1955 0.2649
H6 H 0.4891 0.0242 0.1385
H7 H 0.7174 0.0744 0.0853
H8 H 0.7804 0.2218 0.0873
H9 H 0.6176 0.3263 0.1400
H10 H 0.2596 0.0080 0.2224
H11 H 0.1108 0.0597 0.2379
H12 H 0.0423(45) -0.0184(22) 0.1041(37)
O4? O 0.1701(13) 0.0350(7) 0.0286(6)
loop_
_geom_bond_atom_site_label_1
_geom_bond_atom_site_label_2
_geom_bond_site_symmetry_1
_geom_bond_site_symmetry_2
Cl1 C3 1_555 1_555
Cl2 C2 1_555 1_555
O1 C1 1_555 1_555
O2 C4 1_555 1_555
N1 C8 1_555 1_555
N2 C7 1_555 1_555
C1 C2 1_555 1_555
C2 C3 1_555 1_555
C3 C4 1_555 1_555
C4 C5 1_555 1_555
C5 C6 1_555 1_555
C6 C1 1_555 1_555
C7 C5 1_555 1_555
C8 C6 1_555 1_555
O3 C22 1_555 1_555
N3 C14 1_555 1_555
C9 C10 1_555 1_555
C10 C11 1_555 1_555
C11 C12 1_555 1_555
C12 C13 1_555 1_555
C13 C14 1_555 1_555
C14 C9 1_555 1_555
C15 C9 1_555 1_555
C16 N3 1_555 1_555
C17 C16 1_555 1_555
C18 C17 1_555 1_555
C19 C18 1_555 1_555
C20 C15 1_555 1_555
C21 N3 1_555 1_555
C22 C21 1_555 1_555
H1 O3 1_555 1_555
H2 C10 1_555 1_555
H3 C11 1_555 1_555
H4 C12 1_555 1_555
H5 C13 1_555 1_555
H6 C17 1_555 1_555
H7 C18 1_555 1_555
H8 C19 1_555 1_555
H9 C20 1_555 1_555
H10 C21 1_555 1_555
H11 C21 1_555 1_555
H12 C22 1_555 1_555
C15 C16 1_555 1_555
C19 C20 1_555 1_555

#END
