
#######################################################################
#
#                 Cambridge Crystallographic Data Centre
#                                CCDC 
#
#######################################################################
#
# If this CIF has been generated from an entry in the Cambridge 
# Structural Database, then it will include bibliographic, chemical, 
# crystal, experimental, refinement or atomic coordinate data resulting 
# from the CCDC's data processing and validation procedures.
#
#######################################################################

data_TEJGAR
_chemical_formula_moiety         'C28 H34 O3'
_chemical_name_systematic        'Methyl 12-benzoyldehydroabietate'
_symmetry_cell_setting           monoclinic
_symmetry_space_group_name_H-M   'C 2'
_symmetry_Int_Tables_number      5
_space_group_name_Hall           'C 2y'
loop_
_symmetry_equiv_pos_site_id
_symmetry_equiv_pos_as_xyz
1 x,y,z
2 -x,y,-z
3 1/2+x,1/2+y,z
4 1/2-x,1/2+y,-z
_cell_length_a                   14.0617(13)
_cell_length_b                   6.0363(5)
_cell_length_c                   28.051(4)
_cell_angle_alpha                90
_cell_angle_beta                 102.40(2)
_cell_angle_gamma                90
_cell_volume                     2325.44
_exptl_crystal_colour            colorless
_exptl_crystal_description       block
_chemical_melting_point          '425.6-426.5 K'
_cell_formula_units_Z            4
_exptl_crystal_recrystallization_method 'absolute methanol/chloroform'
loop_
_atom_site_label
_atom_site_type_symbol
_atom_site_fract_x
_atom_site_fract_y
_atom_site_fract_z
O1 O 0.69767(9) 0.0447(3) 0.16653(5)
O2 O 1.13050(11) 0.8147(2) 0.45567(6)
O3 O 1.08690(10) 0.4684(2) 0.43672(5)
C1 C 0.82468(12) 0.4038(3) 0.23174(6)
H1 H 0.7610 0.4320 0.2366
C2 C 0.83507(11) 0.2784(3) 0.19184(6)
C3 C 0.92802(12) 0.2308(3) 0.18391(6)
C4 C 1.00681(12) 0.3166(3) 0.21709(6)
H2 H 1.0705 0.2860 0.2124
C5 C 0.99712(12) 0.4458(3) 0.25699(6)
C6 C 0.90406(12) 0.4902(3) 0.26501(6)
C7 C 1.08897(12) 0.5320(4) 0.29004(7)
H3 H 1.1317 0.5952 0.2697
H4 H 1.1240 0.4064 0.3087
C8 C 1.07019(12) 0.7074(3) 0.32569(6)
H5 H 1.0558 0.8511 0.3087
H6 H 1.1287 0.7259 0.3522
C9 C 0.98365(11) 0.6354(3) 0.34705(6)
H7 H 0.9956 0.4752 0.3552
C10 C 0.88796(12) 0.6391(3) 0.30715(6)
C11 C 0.97998(13) 0.7481(3) 0.39636(6)
C12 C 0.89331(12) 0.6494(3) 0.41521(6)
H8 H 0.9076 0.4928 0.4245
H9 H 0.8859 0.7310 0.4448
C13 C 0.79816(13) 0.6614(3) 0.37737(7)
H10 H 0.7805 0.8186 0.3703
H11 H 0.7458 0.5917 0.3908
C14 C 0.80555(12) 0.5446(3) 0.33004(6)
H12 H 0.7427 0.5596 0.3063
H13 H 0.8174 0.3848 0.3367
C15 C 0.74620(12) 0.1981(3) 0.15662(7)
C16 C 0.71899(12) 0.3152(3) 0.10892(6)
C17 C 0.65451(13) 0.2155(4) 0.06991(7)
H14 H 0.6272 0.0743 0.0737
C18 C 0.63088(15) 0.3267(5) 0.02535(7)
H15 H 0.5882 0.2591 -0.0016
C19 C 0.66864(17) 0.5331(5) 0.01990(8)
H16 H 0.6516 0.6070 -0.0106
C20 C 0.73065(16) 0.6326(4) 0.05829(8)
H17 H 0.7560 0.7760 0.0546
C21 C 0.75611(14) 0.5227(4) 0.10242(7)
H18 H 0.8000 0.5910 0.1288
C22 C 0.94274(12) 0.0864(3) 0.14177(7)
H19 H 0.8769 0.0475 0.1220
C23 C 0.99382(16) -0.1291(4) 0.16058(8)
H20 H 1.0590 -0.0961 0.1799
H21 H 0.9992 -0.2236 0.1329
H22 H 0.9560 -0.2061 0.1811
C24 C 0.99781(15) 0.2084(4) 0.10829(7)
H23 H 0.9609 0.3400 0.0947
H24 H 1.0058 0.1100 0.0816
H25 H 1.0620 0.2533 0.1270
C25 C 0.85694(14) 0.8673(3) 0.28468(7)
H26 H 0.9122 0.9375 0.2745
H27 H 0.8356 0.9608 0.3089
H28 H 0.8032 0.8489 0.2562
C26 C 1.07336(13) 0.6868(3) 0.43273(6)
C27 C 1.17398(15) 0.3934(4) 0.46981(7)
H29 H 1.2312 0.4530 0.4595
H30 H 1.1763 0.2312 0.4695
H31 H 1.1736 0.4452 0.5029
C28 C 0.97432(15) 1.0009(3) 0.39479(8)
H32 H 0.9102 1.0467 0.3762
H33 H 1.0249 1.0592 0.3790
H34 H 0.9843 1.0589 0.4281
loop_
_geom_bond_atom_site_label_1
_geom_bond_atom_site_label_2
_geom_bond_site_symmetry_1
_geom_bond_site_symmetry_2
O1 C15 1_555 1_555
O2 C26 1_555 1_555
O3 C26 1_555 1_555
C1 H1 1_555 1_555
C2 C1 1_555 1_555
C3 C2 1_555 1_555
C4 C3 1_555 1_555
H2 C4 1_555 1_555
C5 C4 1_555 1_555
C6 C1 1_555 1_555
C7 C5 1_555 1_555
H3 C7 1_555 1_555
H4 C7 1_555 1_555
C8 C7 1_555 1_555
H5 C8 1_555 1_555
H6 C8 1_555 1_555
C9 C8 1_555 1_555
H7 C9 1_555 1_555
C10 C6 1_555 1_555
C11 C9 1_555 1_555
C12 C11 1_555 1_555
H8 C12 1_555 1_555
H9 C12 1_555 1_555
C13 C12 1_555 1_555
H10 C13 1_555 1_555
H11 C13 1_555 1_555
C14 C10 1_555 1_555
H12 C14 1_555 1_555
H13 C14 1_555 1_555
C15 C2 1_555 1_555
C16 C15 1_555 1_555
C17 C16 1_555 1_555
H14 C17 1_555 1_555
C18 C17 1_555 1_555
H15 C18 1_555 1_555
C19 C18 1_555 1_555
H16 C19 1_555 1_555
C20 C19 1_555 1_555
H17 C20 1_555 1_555
C21 C16 1_555 1_555
H18 C21 1_555 1_555
C22 C3 1_555 1_555
H19 C22 1_555 1_555
C23 C22 1_555 1_555
H20 C23 1_555 1_555
H21 C23 1_555 1_555
H22 C23 1_555 1_555
C24 C22 1_555 1_555
H23 C24 1_555 1_555
H24 C24 1_555 1_555
H25 C24 1_555 1_555
C25 C10 1_555 1_555
H26 C25 1_555 1_555
H27 C25 1_555 1_555
H28 C25 1_555 1_555
C26 C11 1_555 1_555
C27 O3 1_555 1_555
H29 C27 1_555 1_555
H30 C27 1_555 1_555
H31 C27 1_555 1_555
C28 C11 1_555 1_555
H32 C28 1_555 1_555
H33 C28 1_555 1_555
H34 C28 1_555 1_555
C5 C6 1_555 1_555
C9 C10 1_555 1_555
C13 C14 1_555 1_555
C20 C21 1_555 1_555

#END
