
#######################################################################
#
#                 Cambridge Crystallographic Data Centre
#                                CCDC 
#
#######################################################################
#
# If this CIF has been generated from an entry in the Cambridge 
# Structural Database, then it will include bibliographic, chemical, 
# crystal, experimental, refinement or atomic coordinate data resulting 
# from the CCDC's data processing and validation procedures.
#
#######################################################################

data_TEJHUO
_chemical_formula_moiety         'C25 H21 S2 1+,C1 F3 O3 S1 1-'
_chemical_name_systematic        
'[(diphenylsulfanylidene)methyl](diphenyl)sulfanium trifluoromethanesulfonate'
_symmetry_cell_setting           monoclinic
_symmetry_space_group_name_H-M   'C c'
_symmetry_Int_Tables_number      9
_space_group_name_Hall           'C -2yc'
loop_
_symmetry_equiv_pos_site_id
_symmetry_equiv_pos_as_xyz
1 x,y,z
2 x,-y,1/2+z
3 1/2+x,1/2+y,z
4 1/2+x,1/2-y,1/2+z
_cell_length_a                   18.335(7)
_cell_length_b                   11.104(4)
_cell_length_c                   14.508(6)
_cell_angle_alpha                90
_cell_angle_beta                 123.265(14)
_cell_angle_gamma                90
_cell_volume                     2469.72
_exptl_crystal_colour            colorless
_exptl_crystal_description       block
_chemical_melting_point          '415-417 K'
_cell_formula_units_Z            4
_exptl_crystal_recrystallization_method 'dichlorometane/ diethylether'
loop_
_atom_site_label
_atom_site_type_symbol
_atom_site_fract_x
_atom_site_fract_y
_atom_site_fract_z
S1 S 0.27095(7) 0.14968(10) 0.76707(9)
C1 C 0.2463(4) 0.2792(5) 0.8045(5)
H1 H 0.271(4) 0.340(5) 0.814(5)
S2 S 0.16953(7) 0.26112(10) 0.83240(9)
C2 C 0.2604(3) 0.1717(5) 0.6379(4)
C3 C 0.2870(4) 0.2761(5) 0.6139(5)
H2 H 0.310176 0.340611 0.665297
C4 C 0.2798(4) 0.2862(6) 0.5149(5)
H3 H 0.299766 0.356844 0.498380
C5 C 0.2429(5) 0.1921(7) 0.4387(5)
H4 H 0.236927 0.199268 0.369555
C6 C 0.2156(5) 0.0901(6) 0.4630(5)
H5 H 0.190998 0.026263 0.410926
C7 C 0.2233(4) 0.0786(5) 0.5631(5)
H6 H 0.203426 0.008046 0.579791
C8 C 0.3857(3) 0.1224(4) 0.8560(4)
C9 C 0.4118(4) 0.0033(5) 0.8816(5)
H7 H 0.369855 -0.059678 0.852331
C10 C 0.4995(4) -0.0223(5) 0.9504(5)
H8 H 0.518012 -0.103467 0.969825
C11 C 0.5610(4) 0.0694(6) 0.9916(5)
H9 H 0.621386 0.051175 1.037959
C12 C 0.5334(4) 0.1880(6) 0.9643(5)
H10 H 0.575206 0.251091 0.992173
C13 C 0.4451(4) 0.2152(5) 0.8967(5)
H11 H 0.426132 0.296469 0.878878
C14 C 0.0943(4) 0.3835(4) 0.7711(4)
C15 C 0.0070(4) 0.3558(6) 0.7071(5)
H12 H -0.011878 0.274384 0.696624
C16 C -0.0535(4) 0.4496(7) 0.6574(6)
H13 H -0.114091 0.432089 0.612941
C17 C -0.0256(5) 0.5661(7) 0.6728(6)
H14 H -0.066845 0.629556 0.638713
C18 C 0.0616(5) 0.5921(6) 0.7370(6)
H15 H 0.080172 0.673670 0.746963
C19 C 0.1231(4) 0.5015(5) 0.7877(5)
H16 H 0.183567 0.519884 0.832719
C20 C 0.2140(3) 0.2909(4) 0.9756(4)
C21 C 0.2949(4) 0.3437(5) 1.0435(5)
H17 H 0.329656 0.364996 1.015937
C22 C 0.3243(4) 0.3649(6) 1.1530(5)
H18 H 0.379008 0.402868 1.200877
C23 C 0.2734(4) 0.3303(6) 1.1922(5)
H19 H 0.293611 0.344098 1.267189
C24 C 0.1937(4) 0.2761(6) 1.1230(5)
H20 H 0.159456 0.252502 1.150742
C25 C 0.1632(4) 0.2559(5) 1.0139(5)
H21 H 0.108207 0.218556 0.966054
S3 S 0.46166(9) 0.57023(11) 0.97469(11)
O1 O 0.3774(3) 0.5130(3) 0.9266(3)
O2 O 0.5151(3) 0.5211(5) 0.9411(5)
O3 O 0.4609(3) 0.6986(4) 0.9801(4)
F1 F 0.4757(4) 0.5700(6) 1.1631(4)
F2 F 0.5983(3) 0.5666(4) 1.1778(4)
F3 F 0.5193(4) 0.4095(4) 1.1288(5)
C26 C 0.5164(5) 0.5272(6) 1.1176(6)
loop_
_geom_bond_atom_site_label_1
_geom_bond_atom_site_label_2
_geom_bond_site_symmetry_1
_geom_bond_site_symmetry_2
S1 C1 1_555 1_555
C1 H1 1_555 1_555
S2 C1 1_555 1_555
C2 S1 1_555 1_555
C3 C2 1_555 1_555
H2 C3 1_555 1_555
C4 C3 1_555 1_555
H3 C4 1_555 1_555
C5 C4 1_555 1_555
H4 C5 1_555 1_555
C6 C5 1_555 1_555
H5 C6 1_555 1_555
C7 C2 1_555 1_555
H6 C7 1_555 1_555
C8 S1 1_555 1_555
C9 C8 1_555 1_555
H7 C9 1_555 1_555
C10 C9 1_555 1_555
H8 C10 1_555 1_555
C11 C10 1_555 1_555
H9 C11 1_555 1_555
C12 C11 1_555 1_555
H10 C12 1_555 1_555
C13 C8 1_555 1_555
H11 C13 1_555 1_555
C14 S2 1_555 1_555
C15 C14 1_555 1_555
H12 C15 1_555 1_555
C16 C15 1_555 1_555
H13 C16 1_555 1_555
C17 C16 1_555 1_555
H14 C17 1_555 1_555
C18 C17 1_555 1_555
H15 C18 1_555 1_555
C19 C14 1_555 1_555
H16 C19 1_555 1_555
C20 S2 1_555 1_555
C21 C20 1_555 1_555
H17 C21 1_555 1_555
C22 C21 1_555 1_555
H18 C22 1_555 1_555
C23 C22 1_555 1_555
H19 C23 1_555 1_555
C24 C23 1_555 1_555
H20 C24 1_555 1_555
C25 C20 1_555 1_555
H21 C25 1_555 1_555
S3 O1 1_555 1_555
O2 S3 1_555 1_555
O3 S3 1_555 1_555
F1 C26 1_555 1_555
F2 C26 1_555 1_555
F3 C26 1_555 1_555
C26 S3 1_555 1_555
C6 C7 1_555 1_555
C12 C13 1_555 1_555
C18 C19 1_555 1_555
C24 C25 1_555 1_555

#END
