
#######################################################################
#
#                 Cambridge Crystallographic Data Centre
#                                CCDC 
#
#######################################################################
#
# If this CIF has been generated from an entry in the Cambridge 
# Structural Database, then it will include bibliographic, chemical, 
# crystal, experimental, refinement or atomic coordinate data resulting 
# from the CCDC's data processing and validation procedures.
#
#######################################################################

data_TEJJEY
_chemical_formula_moiety         'C20 H18 O8,C4 H8 O2'
_chemical_name_systematic        
'2,3-Di-p-toluoyl-(2R,3R)-tartaric acid ethyl acetate solvate'
_symmetry_cell_setting           orthorhombic
_symmetry_space_group_name_H-M   'P 21 21 21'
_symmetry_Int_Tables_number      19
_space_group_name_Hall           'P 2ac 2ab'
loop_
_symmetry_equiv_pos_site_id
_symmetry_equiv_pos_as_xyz
1 x,y,z
2 1/2-x,-y,1/2+z
3 -x,1/2+y,1/2-z
4 1/2+x,1/2-y,-z
_cell_length_a                   7.8516(13)
_cell_length_b                   16.140(3)
_cell_length_c                   19.951(3)
_cell_angle_alpha                90
_cell_angle_beta                 90
_cell_angle_gamma                90
_cell_volume                     2528.29
_exptl_crystal_colour            colorless
_exptl_crystal_description       block
_cell_formula_units_Z            4
loop_
_atom_site_label
_atom_site_type_symbol
_atom_site_fract_x
_atom_site_fract_y
_atom_site_fract_z
O1 O 0.5127(4) 0.63629(16) 0.42850(14)
O2 O 0.5844(3) 0.57064(11) 0.33461(10)
O3 O 0.4171(3) 0.75497(15) 0.26344(16)
H1 H 0.306(6) 0.778(2) 0.2558(19)
O4 O 0.2842(3) 0.64400(15) 0.30246(14)
O5 O 0.9379(4) 0.55926(19) 0.21689(17)
O6 O 0.9439(3) 0.66189(16) 0.29099(16)
H2 H 1.043(6) 0.648(2) 0.286(2)
O7 O 0.6012(3) 0.57694(13) 0.19780(11)
O8 O 0.6686(5) 0.64836(16) 0.10670(14)
C1 C 0.5147(8) 0.2521(3) 0.5277(3)
H3 H 0.4645 0.2583 0.5712
H4 H 0.6293 0.2322 0.5323
H5 H 0.4493 0.2131 0.5020
C2 C 0.5161(6) 0.3349(3) 0.4922(2)
C3 C 0.4601(7) 0.4052(4) 0.5247(2)
H6 H 0.4169 0.4008 0.5680
C4 C 0.4668(6) 0.4815(3) 0.49468(19)
H7 H 0.4281 0.5281 0.5175
C5 C 0.5312(4) 0.4893(2) 0.43025(17)
C6 C 0.5858(5) 0.41916(19) 0.39683(16)
H8 H 0.6282 0.4231 0.3534
C7 C 0.5768(5) 0.3433(2) 0.4283(2)
H9 H 0.6132 0.2964 0.4054
C8 C 0.5394(5) 0.5722(2) 0.40007(17)
C9 C 0.5889(4) 0.64878(17) 0.30202(16)
H10 H 0.6501 0.6883 0.3305
C10 C 0.4099(4) 0.68138(19) 0.28930(17)
C11 C 0.6851(4) 0.63823(18) 0.23748(17)
H11 H 0.6820 0.6909 0.2131
C12 C 0.8692(4) 0.6133(2) 0.24663(18)
C13 C 0.6099(5) 0.5870(2) 0.13119(17)
C14 C 0.5458(5) 0.5148(2) 0.09416(16)
C15 C 0.5735(6) 0.5106(2) 0.02614(18)
H12 H 0.6263 0.5547 0.0045
C16 C 0.5253(7) 0.4434(2) -0.00995(19)
H13 H 0.5481 0.4419 -0.0557
C17 C 0.4431(5) 0.3770(2) 0.01958(18)
C18 C 0.4123(6) 0.3820(2) 0.0876(2)
H14 H 0.3549 0.3390 0.1088
C19 C 0.4647(5) 0.4490(2) 0.12433(18)
H15 H 0.4453 0.4500 0.1703
C20 C 0.3885(8) 0.3028(3) -0.0205(2)
H16 H 0.3324 0.2639 0.0084
H17 H 0.4867 0.2772 -0.0403
H18 H 0.3116 0.3200 -0.0552
O9 O -0.1294(3) 0.32505(17) 0.26404(15)
O10 O 0.1252(3) 0.37257(16) 0.23880(13)
C21 C 0.1266(6) 0.4318(2) 0.3499(2)
H19 H 0.1645 0.4231 0.3951
H20 H 0.0046 0.4360 0.3492
H21 H 0.1754 0.4821 0.3328
C22 C 0.1806(5) 0.3618(2) 0.30796(19)
H22 H 0.3037 0.3572 0.3093
H23 H 0.1329 0.3109 0.3257
C23 C -0.0313(5) 0.3533(2) 0.2233(2)
C24 C -0.0729(7) 0.3695(3) 0.1519(2)
H24 H -0.1835 0.3473 0.1419
H25 H 0.0107 0.3434 0.1238
H26 H -0.0727 0.4281 0.1438
loop_
_geom_bond_atom_site_label_1
_geom_bond_atom_site_label_2
_geom_bond_site_symmetry_1
_geom_bond_site_symmetry_2
O1 C8 1_555 1_555
O2 C8 1_555 1_555
O3 H1 1_555 1_555
O4 C10 1_555 1_555
O5 C12 1_555 1_555
O6 H2 1_555 1_555
O7 C11 1_555 1_555
O8 C13 1_555 1_555
O9 C23 1_555 1_555
O10 C22 1_555 1_555
C1 H3 1_555 1_555
H4 C1 1_555 1_555
H5 C1 1_555 1_555
C2 C1 1_555 1_555
C3 C2 1_555 1_555
H6 C3 1_555 1_555
C4 C3 1_555 1_555
H7 C4 1_555 1_555
C5 C4 1_555 1_555
C6 C5 1_555 1_555
H8 C6 1_555 1_555
C7 C2 1_555 1_555
H9 C7 1_555 1_555
C8 C5 1_555 1_555
C9 O2 1_555 1_555
H10 C9 1_555 1_555
C10 O3 1_555 1_555
C11 C9 1_555 1_555
H11 C11 1_555 1_555
C12 O6 1_555 1_555
C13 O7 1_555 1_555
C14 C13 1_555 1_555
C15 C14 1_555 1_555
H12 C15 1_555 1_555
C16 C15 1_555 1_555
H13 C16 1_555 1_555
C17 C16 1_555 1_555
C18 C17 1_555 1_555
H14 C18 1_555 1_555
C19 C14 1_555 1_555
H15 C19 1_555 1_555
C20 C17 1_555 1_555
H16 C20 1_555 1_555
H17 C20 1_555 1_555
H18 C20 1_555 1_555
C21 H19 1_555 1_555
H20 C21 1_555 1_555
H21 C21 1_555 1_555
C22 C21 1_555 1_555
H22 C22 1_555 1_555
H23 C22 1_555 1_555
C23 O10 1_555 1_555
C24 C23 1_555 1_555
H24 C24 1_555 1_555
H25 C24 1_555 1_555
H26 C24 1_555 1_555
C6 C7 1_555 1_555
C9 C10 1_555 1_555
C11 C12 1_555 1_555
C18 C19 1_555 1_555

#END
