
#######################################################################
#
#                 Cambridge Crystallographic Data Centre
#                                CCDC 
#
#######################################################################
#
# If this CIF has been generated from an entry in the Cambridge 
# Structural Database, then it will include bibliographic, chemical, 
# crystal, experimental, refinement or atomic coordinate data resulting 
# from the CCDC's data processing and validation procedures.
#
#######################################################################

data_TEJKUO21
_chemical_formula_moiety         'C6 H16 N1 1+,Br1 1-'
_chemical_name_systematic        'Di-isopropylammonium bromide'
_symmetry_cell_setting           monoclinic
_symmetry_space_group_name_H-M   'P 21'
_symmetry_Int_Tables_number      4
_space_group_name_Hall           'P 2yb'
loop_
_symmetry_equiv_pos_site_id
_symmetry_equiv_pos_as_xyz
1 x,y,z
2 -x,1/2+y,-z
_cell_length_a                   7.766(6)
_cell_length_b                   8.034(6)
_cell_length_c                   7.836(6)
_cell_angle_alpha                90
_cell_angle_beta                 116.346(10)
_cell_angle_gamma                90
_cell_volume                     438.122
_cell_formula_units_Z            2
loop_
_atom_site_label
_atom_site_type_symbol
_atom_site_fract_x
_atom_site_fract_y
_atom_site_fract_z
N1 N -1.1680(3) -0.0453(3) -0.9776(3)
H1 H -1.1629 -0.1512 -0.9410
H2 H -1.0795 -0.0319 -1.0197
C1 C -1.1113(3) 0.0556(10) -0.7984(3)
H3 H -1.1068 0.1733 -0.8291
C2 C -1.3884(6) 0.1646(6) -1.2079(6)
H4 H -1.5138 0.1797 -1.3116
H5 H -1.2925 0.1924 -1.2491
H6 H -1.3743 0.2356 -1.1040
C3 C -1.2577(4) 0.0351(9) -0.7209(4)
H7 H -1.2241 0.1061 -0.6122
H8 H -1.2589 -0.0787 -0.6839
H9 H -1.3829 0.0649 -0.8175
C4 C -1.3636(5) -0.0170(6) -1.1426(5)
H10 H -1.4622 -0.0436 -1.1009
C5 C -0.9110(4) 0.0018(4) -0.6560(4)
H11 H -0.8701 0.0676 -0.5424
H12 H -0.8232 0.0174 -0.7106
H13 H -0.9130 -0.1136 -0.6251
C6 C -1.3856(5) -0.1349(4) -1.3017(5)
H14 H -1.3722 -0.2476 -1.2568
H15 H -1.2883 -0.1115 -1.3424
H16 H -1.5102 -0.1204 -1.4069
Br1 Br -0.84838(3) 0.0548 -1.13604(3)
loop_
_geom_bond_atom_site_label_1
_geom_bond_atom_site_label_2
_geom_bond_site_symmetry_1
_geom_bond_site_symmetry_2
N1 H1 1_555 1_555
H2 N1 1_555 1_555
C1 N1 1_555 1_555
H3 C1 1_555 1_555
C2 H4 1_555 1_555
H5 C2 1_555 1_555
H6 C2 1_555 1_555
C3 C1 1_555 1_555
H7 C3 1_555 1_555
H8 C3 1_555 1_555
H9 C3 1_555 1_555
C4 N1 1_555 1_555
H10 C4 1_555 1_555
C5 C1 1_555 1_555
H11 C5 1_555 1_555
H12 C5 1_555 1_555
H13 C5 1_555 1_555
C6 C4 1_555 1_555
H14 C6 1_555 1_555
H15 C6 1_555 1_555
H16 C6 1_555 1_555
C2 C4 1_555 1_555

#END
