
#######################################################################
#
#                 Cambridge Crystallographic Data Centre
#                                CCDC 
#
#######################################################################
#
# If this CIF has been generated from an entry in the Cambridge 
# Structural Database, then it will include bibliographic, chemical, 
# crystal, experimental, refinement or atomic coordinate data resulting 
# from the CCDC's data processing and validation procedures.
#
#######################################################################

data_TEJKUO15
_chemical_formula_moiety         'C6 H16 N1 1+,Br1 1-'
_chemical_name_systematic        'Di-isopropylammonium bromide'
_symmetry_cell_setting           monoclinic
_symmetry_space_group_name_H-M   'P 21'
_symmetry_Int_Tables_number      4
_space_group_name_Hall           'P 2yb'
loop_
_symmetry_equiv_pos_site_id
_symmetry_equiv_pos_as_xyz
1 x,y,z
2 -x,1/2+y,-z
_cell_length_a                   8.0072(12)
_cell_length_b                   8.2011(12)
_cell_length_c                   8.0278(12)
_cell_angle_alpha                90
_cell_angle_beta                 116.23(2)
_cell_angle_gamma                90
_cell_volume                     472.884
_cell_formula_units_Z            2
loop_
_atom_site_label
_atom_site_type_symbol
_atom_site_fract_x
_atom_site_fract_y
_atom_site_fract_z
N1 N 0.8282(5) 1.0579(5) 0.0275(5)
H1 H 0.9113 1.0355 -0.0167
H2 H 0.8387 1.1648 0.0556
C1 C 0.7491(7) 1.0002(7) 0.2850(8)
H3 H 0.7834 0.9393 0.3975
H4 H 0.6256 0.9702 0.1967
H5 H 0.7525 1.1147 0.3113
C2 C 0.8839(6) 0.9634(10) 0.2055(6)
H6 H 0.8801 0.8465 0.1789
C3 C 1.0811(7) 1.0115(7) 0.3362(7)
H7 H 1.1203 0.9530 0.4509
H8 H 1.0861 1.1266 0.3600
H9 H 1.1623 0.9857 0.2806
C4 C 0.6175(9) 0.8556(6) -0.1948(9)
H10 H 0.6297 0.7830 -0.0963
H11 H 0.7137 0.8329 -0.2322
H12 H 0.4979 0.8404 -0.2986
C5 C 0.6352(7) 1.0292(5) -0.1279(7)
H13 H 0.5409 1.0522 -0.0845
C6 C 0.6108(9) 1.1430(7) -0.2856(8)
H14 H 0.4891 1.1281 -0.3863
H15 H 0.7035 1.1192 -0.3274
H16 H 0.6244 1.2538 -0.2430
Br1 Br 0.85568(6) 0.46087(18) 0.13164(7)
loop_
_geom_bond_atom_site_label_1
_geom_bond_atom_site_label_2
_geom_bond_site_symmetry_1
_geom_bond_site_symmetry_2
N1 H1 1_555 1_555
H2 N1 1_555 1_555
C1 H3 1_555 1_555
H4 C1 1_555 1_555
H5 C1 1_555 1_555
C2 N1 1_555 1_555
H6 C2 1_555 1_555
C3 C2 1_555 1_555
H7 C3 1_555 1_555
H8 C3 1_555 1_555
H9 C3 1_555 1_555
C4 H10 1_555 1_555
H11 C4 1_555 1_555
H12 C4 1_555 1_555
C5 N1 1_555 1_555
H13 C5 1_555 1_555
C6 C5 1_555 1_555
H14 C6 1_555 1_555
H15 C6 1_555 1_555
H16 C6 1_555 1_555
C1 C2 1_555 1_555
C4 C5 1_555 1_555

#END
