
#######################################################################
#
#                 Cambridge Crystallographic Data Centre
#                                CCDC 
#
#######################################################################
#
# If this CIF has been generated from an entry in the Cambridge 
# Structural Database, then it will include bibliographic, chemical, 
# crystal, experimental, refinement or atomic coordinate data resulting 
# from the CCDC's data processing and validation procedures.
#
#######################################################################

data_TEJKUO22
_chemical_formula_moiety         'C6 H16 N1 1+,Br1 1-'
_chemical_name_systematic        'Di-isopropylammonium bromide'
_symmetry_cell_setting           monoclinic
_symmetry_space_group_name_H-M   'P 21'
_symmetry_Int_Tables_number      4
_space_group_name_Hall           'P 2yb'
loop_
_symmetry_equiv_pos_site_id
_symmetry_equiv_pos_as_xyz
1 x,y,z
2 -x,1/2+y,-z
_cell_length_a                   7.855(6)
_cell_length_b                   8.095(6)
_cell_length_c                   7.896(6)
_cell_angle_alpha                90
_cell_angle_beta                 116.231(11)
_cell_angle_gamma                90
_cell_volume                     450.373
_cell_formula_units_Z            2
loop_
_atom_site_label
_atom_site_type_symbol
_atom_site_fract_x
_atom_site_fract_y
_atom_site_fract_z
N1 N 0.8302(3) 0.4555(3) 0.0243(3)
H1 H 0.8353 0.3496 0.0608
H2 H 0.9187 0.4689 -0.0178
C1 C 0.8859(3) 0.5533(10) 0.2019(3)
H3 H 0.8876 0.6705 0.1719
C2 C 0.6129(6) 0.6629(8) -0.2026(8)
H4 H 0.4889 0.6781 -0.3050
H5 H 0.7075 0.6906 -0.2438
H6 H 0.6271 0.7332 -0.0993
C3 C 0.7444(5) 0.5295(9) 0.2817(5)
H7 H 0.7774 0.5999 0.3895
H8 H 0.7464 0.4163 0.3189
H9 H 0.6195 0.5572 0.1872
C4 C 0.6372(6) 0.4832(7) -0.1385(6)
H10 H 0.5407 0.4577 -0.0955
C5 C 1.0850(4) 0.5029(4) 0.3401(4)
H11 H 1.1256 0.5682 0.4528
H12 H 1.1697 0.5205 0.2839
H13 H 1.0859 0.3882 0.3713
C6 C 0.6122(6) 0.3666(5) -0.2948(5)
H14 H 0.6256 0.2550 -0.2495
H15 H 0.7068 0.3888 -0.3378
H16 H 0.4882 0.3811 -0.3975
Br1 Br 1.14759(3) 0.5548 0.86600(4)
loop_
_geom_bond_atom_site_label_1
_geom_bond_atom_site_label_2
_geom_bond_site_symmetry_1
_geom_bond_site_symmetry_2
N1 H1 1_555 1_555
H2 N1 1_555 1_555
C1 N1 1_555 1_555
H3 C1 1_555 1_555
C2 H4 1_555 1_555
H5 C2 1_555 1_555
H6 C2 1_555 1_555
C3 C1 1_555 1_555
H7 C3 1_555 1_555
H8 C3 1_555 1_555
H9 C3 1_555 1_555
C4 N1 1_555 1_555
H10 C4 1_555 1_555
C5 C1 1_555 1_555
H11 C5 1_555 1_555
H12 C5 1_555 1_555
H13 C5 1_555 1_555
C6 C4 1_555 1_555
H14 C6 1_555 1_555
H15 C6 1_555 1_555
H16 C6 1_555 1_555
C2 C4 1_555 1_555

#END
