
#######################################################################
#
#                 Cambridge Crystallographic Data Centre
#                                CCDC 
#
#######################################################################
#
# If this CIF has been generated from an entry in the Cambridge 
# Structural Database, then it will include bibliographic, chemical, 
# crystal, experimental, refinement or atomic coordinate data resulting 
# from the CCDC's data processing and validation procedures.
#
#######################################################################

data_TEJKUO13
_chemical_formula_moiety         'C6 H16 N1 1+,Br1 1-'
_chemical_name_systematic        'Di-isopropylammonium bromide'
_symmetry_cell_setting           orthorhombic
_symmetry_space_group_name_H-M   'P 21 21 21'
_symmetry_Int_Tables_number      19
_space_group_name_Hall           'P 2ac 2ab'
loop_
_symmetry_equiv_pos_site_id
_symmetry_equiv_pos_as_xyz
1 x,y,z
2 1/2-x,-y,1/2+z
3 1/2+x,1/2-y,-z
4 -x,1/2+y,1/2-z
_cell_length_a                   7.9863(16)
_cell_length_b                   8.2607(17)
_cell_length_c                   13.530(3)
_cell_angle_alpha                90
_cell_angle_beta                 90
_cell_angle_gamma                90
_cell_volume                     892.607
_cell_formula_units_Z            4
loop_
_atom_site_label
_atom_site_type_symbol
_atom_site_fract_x
_atom_site_fract_y
_atom_site_fract_z
N1 N 0.1690(3) -0.3339(2) -1.09843(15)
H1 H 0.1950 -0.3099 -1.0354
H2 H 0.0590 -0.3137 -1.1062
C1 C 0.3787(3) -0.5557(4) -1.1007(3)
H3 H 0.3934 -0.6697 -1.1112
H4 H 0.4146 -0.5281 -1.0351
H5 H 0.4441 -0.4966 -1.1480
C2 C 0.1959(3) -0.5126(3) -1.11282(19)
H6 H 0.1612 -0.5412 -1.1801
C3 C 0.0838(4) -0.6010(3) -1.0406(2)
H7 H -0.0307 -0.5710 -1.0522
H8 H 0.1146 -0.5723 -0.9743
H9 H 0.0964 -0.7156 -1.0494
C4 C 0.2257(3) -0.2550(3) -1.27154(19)
H10 H 0.2871 -0.1818 -1.3131
H11 H 0.1079 -0.2416 -1.2831
H12 H 0.2576 -0.3643 -1.2866
C5 C 0.2644(3) -0.2191(3) -1.1645(2)
H13 H 0.3847 -0.2334 -1.1532
C6 C 0.2145(4) -0.0475(3) -1.1353(2)
H14 H 0.2440 -0.0289 -1.0674
H15 H 0.0959 -0.0343 -1.1434
H16 H 0.2724 0.0287 -1.1765
Br1 Br 0.26399(3) -0.25063(4) -0.864530(16)
loop_
_geom_bond_atom_site_label_1
_geom_bond_atom_site_label_2
_geom_bond_site_symmetry_1
_geom_bond_site_symmetry_2
N1 H1 1_555 1_555
H2 N1 1_555 1_555
C1 H3 1_555 1_555
H4 C1 1_555 1_555
H5 C1 1_555 1_555
C2 N1 1_555 1_555
H6 C2 1_555 1_555
C3 C2 1_555 1_555
H7 C3 1_555 1_555
H8 C3 1_555 1_555
H9 C3 1_555 1_555
C4 H10 1_555 1_555
H11 C4 1_555 1_555
H12 C4 1_555 1_555
C5 N1 1_555 1_555
H13 C5 1_555 1_555
C6 C5 1_555 1_555
H14 C6 1_555 1_555
H15 C6 1_555 1_555
H16 C6 1_555 1_555
C1 C2 1_555 1_555
C4 C5 1_555 1_555

#END
