
#######################################################################
#
#                 Cambridge Crystallographic Data Centre
#                                CCDC 
#
#######################################################################
#
# If this CIF has been generated from an entry in the Cambridge 
# Structural Database, then it will include bibliographic, chemical, 
# crystal, experimental, refinement or atomic coordinate data resulting 
# from the CCDC's data processing and validation procedures.
#
#######################################################################

data_TEJKUO11
_chemical_formula_moiety         'C6 H16 N1 1+,Br1 1-'
_chemical_name_systematic        'Di-isopropylammonium bromide'
_symmetry_cell_setting           orthorhombic
_symmetry_space_group_name_H-M   'P 21 21 21'
_symmetry_Int_Tables_number      19
_space_group_name_Hall           'P 2ac 2ab'
loop_
_symmetry_equiv_pos_site_id
_symmetry_equiv_pos_as_xyz
1 x,y,z
2 1/2-x,-y,1/2+z
3 1/2+x,1/2-y,-z
4 -x,1/2+y,1/2-z
_cell_length_a                   8.0594(16)
_cell_length_b                   8.3585(17)
_cell_length_c                   13.636(3)
_cell_angle_alpha                90
_cell_angle_beta                 90
_cell_angle_gamma                90
_cell_volume                     918.582
_cell_formula_units_Z            4
loop_
_atom_site_label
_atom_site_type_symbol
_atom_site_fract_x
_atom_site_fract_y
_atom_site_fract_z
N1 N 0.1769(9) -0.3361(7) -1.1000(5)
H1 H 0.2024 -0.3117 -1.0375
H2 H 0.0680 -0.3160 -1.1080
C1 C 0.3805(15) -0.5513(14) -1.0935(14)
H3 H 0.3973 -0.6638 -1.1037
H4 H 0.4077 -0.5245 -1.0270
H5 H 0.4506 -0.4920 -1.1373
C2 C 0.2027(13) -0.5102(11) -1.1131(7)
H6 H 0.1751 -0.5395 -1.1808
C3 C 0.0848(17) -0.5977(12) -1.0430(9)
H7 H -0.0274 -0.5657 -1.0563
H8 H 0.1126 -0.5710 -0.9765
H9 H 0.0953 -0.7111 -1.0523
C4 C 0.2283(19) -0.2564(14) -1.2698(9)
H10 H 0.2888 -0.1842 -1.3113
H11 H 0.1114 -0.2410 -1.2794
H12 H 0.2573 -0.3646 -1.2859
C5 C 0.2711(12) -0.2241(10) -1.1654(9)
H13 H 0.3906 -0.2389 -1.1555
C6 C 0.2222(18) -0.0562(13) -1.1361(9)
H14 H 0.2516 -0.0383 -1.0688
H15 H 0.1046 -0.0432 -1.1440
H16 H 0.2793 0.0194 -1.1769
Br1 Br 0.27213(12) -0.24982(10) -0.86721(6)
loop_
_geom_bond_atom_site_label_1
_geom_bond_atom_site_label_2
_geom_bond_site_symmetry_1
_geom_bond_site_symmetry_2
N1 H1 1_555 1_555
H2 N1 1_555 1_555
C1 H3 1_555 1_555
H4 C1 1_555 1_555
H5 C1 1_555 1_555
C2 N1 1_555 1_555
H6 C2 1_555 1_555
C3 C2 1_555 1_555
H7 C3 1_555 1_555
H8 C3 1_555 1_555
H9 C3 1_555 1_555
C4 H10 1_555 1_555
H11 C4 1_555 1_555
H12 C4 1_555 1_555
C5 N1 1_555 1_555
H13 C5 1_555 1_555
C6 C5 1_555 1_555
H14 C6 1_555 1_555
H15 C6 1_555 1_555
H16 C6 1_555 1_555
C1 C2 1_555 1_555
C4 C5 1_555 1_555

#END
