
#######################################################################
#
#                 Cambridge Crystallographic Data Centre
#                                CCDC 
#
#######################################################################
#
# If this CIF has been generated from an entry in the Cambridge 
# Structural Database, then it will include bibliographic, chemical, 
# crystal, experimental, refinement or atomic coordinate data resulting 
# from the CCDC's data processing and validation procedures.
#
#######################################################################

data_TEJKUO09
_chemical_formula_moiety         'C6 H16 N1 1+,Br1 1-'
_chemical_name_systematic        'Di-isopropylammonium bromide'
_symmetry_cell_setting           orthorhombic
_symmetry_space_group_name_H-M   'P 21 21 21'
_symmetry_Int_Tables_number      19
_space_group_name_Hall           'P 2ac 2ab'
loop_
_symmetry_equiv_pos_site_id
_symmetry_equiv_pos_as_xyz
1 x,y,z
2 1/2-x,-y,1/2+z
3 1/2+x,1/2-y,-z
4 -x,1/2+y,1/2-z
_cell_length_a                   7.9274(16)
_cell_length_b                   8.1948(16)
_cell_length_c                   13.429(3)
_cell_angle_alpha                90
_cell_angle_beta                 90
_cell_angle_gamma                90
_cell_volume                     872.394
_cell_formula_units_Z            4
loop_
_atom_site_label
_atom_site_type_symbol
_atom_site_fract_x
_atom_site_fract_y
_atom_site_fract_z
N1 N 0.1638(2) -0.3330(2) -1.09762(14)
H1 H 0.1894 -0.3096 -1.0339
H2 H 0.0531 -0.3128 -1.1057
C1 C 0.3761(3) -0.5558(3) -1.1013(2)
H3 H 0.3912 -0.6707 -1.1119
H4 H 0.4127 -0.5278 -1.0353
H5 H 0.4414 -0.4960 -1.1492
C2 C 0.1916(3) -0.5129(3) -1.11300(17)
H6 H 0.1561 -0.5414 -1.1807
C3 C 0.0800(3) -0.6033(3) -1.03940(18)
H7 H -0.0357 -0.5740 -1.0505
H8 H 0.1117 -0.5743 -0.9727
H9 H 0.0935 -0.7188 -1.0485
C4 C 0.2243(3) -0.2522(3) -1.27174(15)
H10 H 0.2866 -0.1778 -1.3130
H11 H 0.1058 -0.2396 -1.2844
H12 H 0.2577 -0.3621 -1.2867
C5 C 0.2602(3) -0.2159(2) -1.16336(17)
H13 H 0.3812 -0.2291 -1.1510
C6 C 0.2078(3) -0.0437(3) -1.13390(17)
H14 H 0.2372 -0.0245 -1.0655
H15 H 0.0881 -0.0318 -1.1421
H16 H 0.2650 0.0339 -1.1755
Br1 Br 0.25857(2) -0.25124(3) -0.862550(13)
loop_
_geom_bond_atom_site_label_1
_geom_bond_atom_site_label_2
_geom_bond_site_symmetry_1
_geom_bond_site_symmetry_2
N1 H1 1_555 1_555
H2 N1 1_555 1_555
C1 H3 1_555 1_555
H4 C1 1_555 1_555
H5 C1 1_555 1_555
C2 N1 1_555 1_555
H6 C2 1_555 1_555
C3 C2 1_555 1_555
H7 C3 1_555 1_555
H8 C3 1_555 1_555
H9 C3 1_555 1_555
C4 H10 1_555 1_555
H11 C4 1_555 1_555
H12 C4 1_555 1_555
C5 N1 1_555 1_555
H13 C5 1_555 1_555
C6 C5 1_555 1_555
H14 C6 1_555 1_555
H15 C6 1_555 1_555
H16 C6 1_555 1_555
C1 C2 1_555 1_555
C4 C5 1_555 1_555

#END
