
#######################################################################
#
#                 Cambridge Crystallographic Data Centre
#                                CCDC 
#
#######################################################################
#
# If this CIF has been generated from an entry in the Cambridge 
# Structural Database, then it will include bibliographic, chemical, 
# crystal, experimental, refinement or atomic coordinate data resulting 
# from the CCDC's data processing and validation procedures.
#
#######################################################################

data_TEJKUO14
_chemical_formula_moiety         'C6 H16 N1 1+,Br1 1-'
_chemical_name_systematic        'Di-isopropylammonium bromide'
_symmetry_cell_setting           orthorhombic
_symmetry_space_group_name_H-M   'P 21 21 21'
_symmetry_Int_Tables_number      19
_space_group_name_Hall           'P 2ac 2ab'
loop_
_symmetry_equiv_pos_site_id
_symmetry_equiv_pos_as_xyz
1 x,y,z
2 1/2-x,-y,1/2+z
3 1/2+x,1/2-y,-z
4 -x,1/2+y,1/2-z
_cell_length_a                   7.9585(12)
_cell_length_b                   8.2206(12)
_cell_length_c                   13.4904(17)
_cell_angle_alpha                90
_cell_angle_beta                 90
_cell_angle_gamma                90
_cell_volume                     882.591
_cell_formula_units_Z            4
loop_
_atom_site_label
_atom_site_type_symbol
_atom_site_fract_x
_atom_site_fract_y
_atom_site_fract_z
N1 N 0.1665(2) -0.3334(2) -1.09817(14)
H1 H 0.1923 -0.3096 -1.0348
H2 H 0.0563 -0.3129 -1.1062
C1 C 0.3775(3) -0.5559(3) -1.1011(2)
H3 H 0.3924 -0.6705 -1.1117
H4 H 0.4140 -0.5281 -1.0354
H5 H 0.4428 -0.4965 -1.1488
C2 C 0.1934(3) -0.5127(3) -1.11290(17)
H6 H 0.1581 -0.5413 -1.1803
C3 C 0.0815(3) -0.6015(3) -1.04021(19)
H7 H -0.0335 -0.5717 -1.0517
H8 H 0.1127 -0.5724 -0.9738
H9 H 0.0944 -0.7167 -1.0490
C4 C 0.2247(3) -0.2537(3) -1.27197(15)
H10 H 0.2867 -0.1799 -1.3132
H11 H 0.1066 -0.2405 -1.2840
H12 H 0.2571 -0.3635 -1.2871
C5 C 0.2624(3) -0.2179(3) -1.16379(17)
H13 H 0.3831 -0.2317 -1.1519
C6 C 0.2111(4) -0.0465(3) -1.13456(19)
H14 H 0.2405 -0.0275 -1.0665
H15 H 0.0920 -0.0342 -1.1427
H16 H 0.2685 0.0306 -1.1760
Br1 Br 0.26179(2) -0.25087(3) -0.863724(14)
loop_
_geom_bond_atom_site_label_1
_geom_bond_atom_site_label_2
_geom_bond_site_symmetry_1
_geom_bond_site_symmetry_2
N1 H1 1_555 1_555
H2 N1 1_555 1_555
C1 H3 1_555 1_555
H4 C1 1_555 1_555
H5 C1 1_555 1_555
C2 N1 1_555 1_555
H6 C2 1_555 1_555
C3 C2 1_555 1_555
H7 C3 1_555 1_555
H8 C3 1_555 1_555
H9 C3 1_555 1_555
C4 H10 1_555 1_555
H11 C4 1_555 1_555
H12 C4 1_555 1_555
C5 N1 1_555 1_555
H13 C5 1_555 1_555
C6 C5 1_555 1_555
H14 C6 1_555 1_555
H15 C6 1_555 1_555
H16 C6 1_555 1_555
C1 C2 1_555 1_555
C4 C5 1_555 1_555

#END
