
#######################################################################
#
#                 Cambridge Crystallographic Data Centre
#                                CCDC 
#
#######################################################################
#
# If this CIF has been generated from an entry in the Cambridge 
# Structural Database, then it will include bibliographic, chemical, 
# crystal, experimental, refinement or atomic coordinate data resulting 
# from the CCDC's data processing and validation procedures.
#
#######################################################################

data_TEJLEA
_chemical_compound_source        'roots of Sinomenium acutum'
_chemical_formula_moiety         'C20 H19 N1 O5'
_chemical_name_systematic        8-Oxocanadine
_chemical_properties_biological  
'roots and stems of source plant used in folk medicine to cure rheumatism, dropsy and dermatophysis'
_symmetry_cell_setting           monoclinic
_symmetry_space_group_name_H-M   'P 21'
_symmetry_Int_Tables_number      4
_space_group_name_Hall           'P 2yb'
loop_
_symmetry_equiv_pos_site_id
_symmetry_equiv_pos_as_xyz
1 x,y,z
2 -x,1/2+y,-z
_cell_length_a                   5.132(2)
_cell_length_b                   7.203(2)
_cell_length_c                   22.767(8)
_cell_angle_alpha                90
_cell_angle_beta                 95.59(3)
_cell_angle_gamma                90
_cell_volume                     837.598
_exptl_crystal_colour            yellow
_exptl_crystal_description       needle
_cell_formula_units_Z            2
_exptl_crystal_recrystallization_method methanol
loop_
_atom_site_label
_atom_site_type_symbol
_atom_site_fract_x
_atom_site_fract_y
_atom_site_fract_z
O1 O 0.8939(5) 0.1808(4) 0.11412(10)
O2 O 0.8235(5) 0.3580(4) 0.02937(9)
O3 O 0.0356(5) 1.0173(3) 0.26661(10)
O4 O -0.0769(5) 0.9773(3) 0.38007(10)
O5 O -0.2044(5) 0.7366(4) 0.45937(9)
N1 N 0.3033(5) 0.8033(3) 0.23256(11)
C1 C 0.6743(6) 0.3960(5) 0.17792(14)
H1 H 0.7042 0.3232 0.2116
C2 C 0.7615(7) 0.3428(5) 0.12622(14)
C3 C 0.7162(7) 0.4473(6) 0.07549(14)
C4 C 0.5849(8) 0.6090(5) 0.07458(15)
H2 H 0.5561 0.6784 0.0401
C5 C 0.4926(7) 0.6697(5) 0.12751(14)
C6 C 0.3507(8) 0.8535(5) 0.12886(13)
H3 H 0.4170 0.9381 0.1007
H4 H 0.1653 0.8349 0.1177
C7 C 0.3897(7) 0.9364(5) 0.18976(13)
H5 H 0.5731 0.9659 0.1996
H6 H 0.2895 1.0503 0.1910
C8 C 0.1376(7) 0.8630(5) 0.27118(14)
C9 C 0.0878(6) 0.7324(5) 0.32014(13)
C10 C -0.0297(7) 0.7909(5) 0.36971(15)
C11 C -0.0895(8) 0.6643(5) 0.41240(15)
C12 C -0.0319(7) 0.4787(5) 0.40589(15)
H7 H -0.0743 0.3935 0.4341
C13 C 0.0893(7) 0.4185(5) 0.35715(15)
H8 H 0.1299 0.2935 0.3534
C14 C 0.1497(6) 0.5429(5) 0.31430(14)
C15 C 0.2703(7) 0.4810(5) 0.26095(14)
H9 H 0.1325 0.4495 0.2304
H10 H 0.3721 0.3696 0.2704
C16 C 0.4449(7) 0.6256(4) 0.23752(14)
H11 H 0.5992 0.6409 0.2660
C17 C 0.5364(7) 0.5658(5) 0.17897(14)
C18 C 0.9758(9) 0.2101(6) 0.05727(15)
H12 H 0.9511 0.0977 0.0339
H13 H 1.1602 0.2423 0.0605
C19 C -0.3406(7) 1.0315(5) 0.36281(15)
H14 H -0.3763 1.0194 0.3208
H15 H -0.3653 1.1583 0.3740
H16 H -0.4578 0.9533 0.3820
C20 C -0.3266(8) 0.6116(6) 0.49627(16)
H17 H -0.4562 0.5403 0.4729
H18 H -0.4089 0.6804 0.5255
H19 H -0.1974 0.5297 0.5154
loop_
_geom_bond_atom_site_label_1
_geom_bond_atom_site_label_2
_geom_bond_site_symmetry_1
_geom_bond_site_symmetry_2
O1 C2 1_555 1_555
O2 C3 1_555 1_555
O3 C8 1_555 1_555
O4 C10 1_555 1_555
O5 C11 1_555 1_555
N1 C7 1_555 1_555
C1 H1 1_555 1_555
C2 C1 1_555 1_555
C3 C2 1_555 1_555
C4 C3 1_555 1_555
H2 C4 1_555 1_555
C5 C4 1_555 1_555
C6 C5 1_555 1_555
H3 C6 1_555 1_555
H4 C6 1_555 1_555
C7 C6 1_555 1_555
H5 C7 1_555 1_555
H6 C7 1_555 1_555
C8 N1 1_555 1_555
C9 C8 1_555 1_555
C10 C9 1_555 1_555
C11 C10 1_555 1_555
C12 C11 1_555 1_555
H7 C12 1_555 1_555
C13 C12 1_555 1_555
H8 C13 1_555 1_555
C14 C9 1_555 1_555
C15 C14 1_555 1_555
H9 C15 1_555 1_555
H10 C15 1_555 1_555
C16 N1 1_555 1_555
H11 C16 1_555 1_555
C17 C1 1_555 1_555
C18 O1 1_555 1_555
H12 C18 1_555 1_555
H13 C18 1_555 1_555
C19 O4 1_555 1_555
H14 C19 1_555 1_555
H15 C19 1_555 1_555
H16 C19 1_555 1_555
C20 O5 1_555 1_555
H17 C20 1_555 1_555
H18 C20 1_555 1_555
H19 C20 1_555 1_555
O2 C18 1_555 1_555
C5 C17 1_555 1_555
C13 C14 1_555 1_555
C15 C16 1_555 1_555
C16 C17 1_555 1_555

#END
