
#######################################################################
#
#                 Cambridge Crystallographic Data Centre
#                                CCDC 
#
#######################################################################
#
# If this CIF has been generated from an entry in the Cambridge 
# Structural Database, then it will include bibliographic, chemical, 
# crystal, experimental, refinement or atomic coordinate data resulting 
# from the CCDC's data processing and validation procedures.
#
#######################################################################

data_TEJNEC
_chemical_formula_moiety         'C13 H14 N4 O1,C7 H9 N3 O1'
_chemical_name_systematic        'Diphenylcarbonohydrazide phenylsemicarbazide'
_symmetry_cell_setting           monoclinic
_symmetry_space_group_name_H-M   'P 21/n'
_symmetry_Int_Tables_number      14
_space_group_name_Hall           '-P 2yn'
loop_
_symmetry_equiv_pos_site_id
_symmetry_equiv_pos_as_xyz
1 x,y,z
2 1/2-x,1/2+y,1/2-z
3 -x,-y,-z
4 1/2+x,1/2-y,1/2+z
_cell_length_a                   14.0097(9)
_cell_length_b                   5.8841(3)
_cell_length_c                   24.3124(19)
_cell_angle_alpha                90
_cell_angle_beta                 94.273(3)
_cell_angle_gamma                90
_cell_volume                     1998.61
_exptl_crystal_colour            colorless
_exptl_crystal_description       plate
_cell_formula_units_Z            4
loop_
_atom_site_label
_atom_site_type_symbol
_atom_site_fract_x
_atom_site_fract_y
_atom_site_fract_z
O1 O 0.18231(12) 0.2251(3) 0.20019(6)
N1 N 0.25927(14) -0.3167(4) 0.15896(8)
H1 H 0.2170 -0.4093 0.1445
N2 N 0.23432(15) -0.1370(4) 0.19223(8)
H2 H 0.2441 -0.1492 0.2275
N3 N 0.17038(14) 0.0558(4) 0.11627(7)
H3 H 0.1448 0.1746 0.1008
H4 H 0.1801 -0.0632 0.0969
C1 C 0.35766(18) -0.3401(5) 0.14989(10)
C2 C 0.3871(2) -0.5431(5) 0.12705(11)
H9 H 0.3435 -0.6606 0.1198
C3 C 0.4823(2) -0.5686(7) 0.11514(13)
H10 H 0.5021 -0.7032 0.0995
C4 C 0.5471(2) -0.3960(8) 0.12639(14)
H11 H 0.6105 -0.4126 0.1182
C5 C 0.5172(3) -0.2002(7) 0.14975(15)
H12 H 0.5612 -0.0847 0.1580
C6 C 0.4227(2) -0.1691(5) 0.16151(11)
H13 H 0.4036 -0.0338 0.1771
C7 C 0.19515(16) 0.0561(5) 0.17061(10)
O2 O 0.02616(11) 0.3820(3) 0.06953(6)
N4 N -0.03660(14) 0.7262(4) 0.04818(8)
H5 H -0.0258 0.7065 0.0141
N5 N -0.08227(14) 0.9266(4) 0.06360(7)
H6 H -0.0556 1.0193 0.0874
N6 N -0.02065(13) 0.6122(4) 0.13819(7)
H7 H -0.0368 0.7478 0.1469
N7 N -0.00711(15) 0.4499(4) 0.18007(7)
H8 H 0.0437 0.4502 0.2023
C8 C -0.17498(18) 0.9673(5) 0.03769(9)
C9 C -0.19680(19) 1.1785(5) 0.01570(10)
H14 H -0.1500 1.2909 0.0167
C10 C -0.2873(2) 1.2247(5) -0.00769(11)
H15 H -0.3014 1.3684 -0.0220
C11 C -0.3570(2) 1.0599(6) -0.01004(11)
H16 H -0.4182 1.0917 -0.0256
C12 C -0.3353(2) 0.8472(6) 0.01088(12)
H17 H -0.3817 0.7339 0.0090
C13 C -0.24452(19) 0.8014(5) 0.03467(10)
H18 H -0.2303 0.6574 0.0487
C14 C -0.00948(16) 0.5653(5) 0.08491(9)
C15 C -0.07927(17) 0.2860(4) 0.18473(9)
C16 C -0.17139(18) 0.3116(5) 0.16065(9)
H19 H -0.1871 0.4388 0.1391
C17 C -0.2402(2) 0.1477(6) 0.16860(11)
H20 H -0.3017 0.1655 0.1519
C18 C -0.2191(2) -0.0396(6) 0.20058(11)
H21 H -0.2657 -0.1484 0.2057
C19 C -0.1278(2) -0.0647(5) 0.22503(10)
H22 H -0.1134 -0.1903 0.2473
C20 C -0.05692(18) 0.0940(5) 0.21697(9)
H23 H 0.0049 0.0728 0.2329
loop_
_geom_bond_atom_site_label_1
_geom_bond_atom_site_label_2
_geom_bond_site_symmetry_1
_geom_bond_site_symmetry_2
O1 C7 1_555 1_555
O2 C14 1_555 1_555
N1 H1 1_555 1_555
N2 N1 1_555 1_555
H2 N2 1_555 1_555
N3 H3 1_555 1_555
H4 N3 1_555 1_555
N4 H5 1_555 1_555
N5 N4 1_555 1_555
H6 N5 1_555 1_555
N6 H7 1_555 1_555
N7 N6 1_555 1_555
H8 N7 1_555 1_555
C1 N1 1_555 1_555
C2 C1 1_555 1_555
H9 C2 1_555 1_555
C3 C2 1_555 1_555
H10 C3 1_555 1_555
C4 C3 1_555 1_555
H11 C4 1_555 1_555
C5 C4 1_555 1_555
H12 C5 1_555 1_555
C6 C1 1_555 1_555
H13 C6 1_555 1_555
C7 N2 1_555 1_555
C8 N5 1_555 1_555
C9 C8 1_555 1_555
H14 C9 1_555 1_555
C10 C9 1_555 1_555
H15 C10 1_555 1_555
C11 C10 1_555 1_555
H16 C11 1_555 1_555
C12 C11 1_555 1_555
H17 C12 1_555 1_555
C13 C8 1_555 1_555
H18 C13 1_555 1_555
C14 N4 1_555 1_555
C15 N7 1_555 1_555
C16 C15 1_555 1_555
H19 C16 1_555 1_555
C17 C16 1_555 1_555
H20 C17 1_555 1_555
C18 C17 1_555 1_555
H21 C18 1_555 1_555
C19 C18 1_555 1_555
H22 C19 1_555 1_555
C20 C15 1_555 1_555
H23 C20 1_555 1_555
N3 C7 1_555 1_555
N6 C14 1_555 1_555
C5 C6 1_555 1_555
C12 C13 1_555 1_555
C19 C20 1_555 1_555

#END
