
#######################################################################
#
#                 Cambridge Crystallographic Data Centre
#                                CCDC 
#
#######################################################################
#
# If this CIF has been generated from an entry in the Cambridge 
# Structural Database, then it will include bibliographic, chemical, 
# crystal, experimental, refinement or atomic coordinate data resulting 
# from the CCDC's data processing and validation procedures.
#
#######################################################################

data_TEJNUS
_chemical_formula_moiety         'C42 H56 N4 O12'
_chemical_name_systematic        
9,25-Dibenzyl-4,4,15,15,20,20,31,31-octamethyl-3,5,14,16,19,21,30,32-octaoxa-8,11,24,27-tetraazapentacyclo(27.3.0.0^2,6^.0^13,17^.0^18,22^)dotriacontane-7,10,23,26-tetrone
_symmetry_cell_setting           triclinic
_symmetry_space_group_name_H-M   'P 1'
_symmetry_Int_Tables_number      1
_space_group_name_Hall           'P 1'
loop_
_symmetry_equiv_pos_site_id
_symmetry_equiv_pos_as_xyz
1 x,y,z
_cell_length_a                   9.17550(10)
_cell_length_b                   15.4193(2)
_cell_length_c                   15.5475(2)
_cell_angle_alpha                77.2624(5)
_cell_angle_beta                 82.0270(5)
_cell_angle_gamma                78.2560(7)
_cell_volume                     2090.45
_exptl_crystal_colour            colorless
_exptl_crystal_description       plate
_cell_formula_units_Z            2
_exptl_crystal_recrystallization_method methanol
loop_
_atom_site_label
_atom_site_type_symbol
_atom_site_fract_x
_atom_site_fract_y
_atom_site_fract_z
C1 C 0.1602(2) 0.71407(18) 0.51070(16)
C2 C 0.2449(2) 0.62211(18) 0.55200(16)
N1 N 0.1838(2) 0.54939(15) 0.55504(14)
C3 C 0.2577(3) 0.45965(18) 0.59511(17)
C4 C 0.3559(3) 0.40664(18) 0.53017(17)
O1 O 0.2602(2) 0.38501(17) 0.47648(14)
C5 C 0.3260(3) 0.39140(19) 0.38814(18)
O2 O 0.4540(2) 0.43120(18) 0.38066(13)
C6 C 0.4679(3) 0.45482(19) 0.46271(16)
C7 C 0.6315(3) 0.42641(17) 0.48008(17)
O3 O 0.67032(18) 0.33075(12) 0.50355(12)
C8 C 0.7937(3) 0.31125(19) 0.55580(18)
O4 O 0.7620(2) 0.38134(12) 0.60731(12)
C9 C 0.6749(3) 0.45836(17) 0.56006(16)
C10 C 0.7611(3) 0.53791(17) 0.52759(16)
N2 N 0.6693(2) 0.61835(14) 0.51277(15)
C11 C 0.7232(3) 0.70397(17) 0.47718(17)
C12 C 0.6423(3) 0.74983(17) 0.39455(17)
N3 N 0.7226(2) 0.75454(15) 0.31638(14)
C13 C 0.6547(3) 0.80035(18) 0.23479(17)
C14 C 0.6079(3) 0.73727(18) 0.18491(17)
O5 O 0.73851(19) 0.68299(13) 0.15021(13)
C15 C 0.7245(3) 0.5896(2) 0.17420(19)
O6 O 0.5734(2) 0.58864(13) 0.20294(15)
C16 C 0.5102(3) 0.66950(17) 0.23612(17)
C17 C 0.3464(3) 0.68978(18) 0.21992(17)
O7 O 0.33149(19) 0.71847(13) 0.12721(12)
C18 C 0.1969(3) 0.7806(2) 0.11569(18)
O8 O 0.1471(2) 0.81080(15) 0.19512(13)
C19 C 0.2486(3) 0.76843(18) 0.25930(16)
C20 C 0.1598(2) 0.73525(18) 0.34743(17)
N4 N 0.2239(2) 0.73839(15) 0.41860(13)
C21 C 0.1771(3) 0.78708(19) 0.55960(17)
C22 C 0.1098(3) 0.77502(19) 0.65504(17)
C23 C -0.0334(3) 0.82065(19) 0.67619(19)
C24 C -0.0963(3) 0.8128(2) 0.76376(19)
C25 C -0.0152(3) 0.7599(2) 0.8311(2)
C26 C 0.1263(3) 0.7138(2) 0.8109(2)
C27 C 0.1893(3) 0.7211(2) 0.72352(18)
O9 O 0.36836(18) 0.61550(13) 0.57846(12)
C28 C 0.2153(4) 0.4520(4) 0.3287(3)
C29 C 0.3741(6) 0.2998(3) 0.3679(4)
C30 C 0.7901(3) 0.2217(2) 0.6183(2)
C31 C 0.9399(3) 0.3142(2) 0.4985(2)
O10 O 0.89684(19) 0.52718(13) 0.51393(15)
C32 C 0.6856(3) 0.76367(18) 0.54684(17)
C33 C 0.7132(3) 0.85939(18) 0.51639(17)
C34 C 0.8247(3) 0.88328(19) 0.45017(17)
C35 C 0.8535(4) 0.9711(2) 0.4280(2)
C36 C 0.7693(4) 1.0361(2) 0.4722(2)
C37 C 0.6581(4) 1.0144(2) 0.5367(2)
C38 C 0.6289(3) 0.9268(2) 0.5588(2)
O11 O 0.50621(18) 0.77882(12) 0.40329(12)
C39 C 0.8256(4) 0.5421(2) 0.2462(2)
C40 C 0.7630(5) 0.5481(3) 0.0924(2)
C42 C 0.1954(6) 0.8451(4) 0.0331(3)
C44 C 0.0779(6) 0.7142(5) 0.1204(5)
O12 O 0.04183(19) 0.70884(16) 0.35092(13)
H1 H 0.0546 0.7106 0.5126
H2 H 0.3240 0.4653 0.6370
H3 H 0.1831 0.4241 0.6254
H4 H 0.4078 0.3499 0.5622
H5 H 0.4388 0.5209 0.4561
H6 H 0.6943 0.4487 0.4266
H7 H 0.5838 0.4770 0.5980
H8 H 0.8306 0.6914 0.4612
H9 H 0.7282 0.8320 0.1954
H10 H 0.5662 0.8445 0.2490
H11 H 0.5571 0.7728 0.1325
H12 H 0.5165 0.6597 0.2999
H13 H 0.3045 0.6343 0.2429
H14 H 0.3100 0.8100 0.2697
H15 H 0.2852 0.7868 0.5578
H16 H 0.1258 0.8455 0.5270
H17 H -0.0854 0.8581 0.6298
H18 H -0.1956 0.8438 0.7772
H19 H -0.0544 0.7544 0.8898
H20 H 0.1811 0.6784 0.8577
H21 H 0.2867 0.6901 0.7100
H22 H 0.2644 0.4696 0.2695
H23 H 0.1759 0.5043 0.3534
H24 H 0.1357 0.4204 0.3271
H25 H 0.4165 0.3057 0.3065
H26 H 0.4485 0.2689 0.4067
H27 H 0.2882 0.2689 0.3800
H28 H 0.8665 0.2101 0.6585
H29 H 0.6933 0.2242 0.6518
H30 H 0.8096 0.1742 0.5838
H31 H 1.0218 0.3024 0.5329
H32 H 0.9351 0.3715 0.4596
H33 H 0.9560 0.2670 0.4643
H34 H 0.7418 0.7341 0.5971
H35 H 0.5793 0.7664 0.5675
H36 H 0.8809 0.8403 0.4189
H37 H 0.9293 0.9853 0.3836
H38 H 0.7869 1.0959 0.4583
H39 H 0.6011 1.0586 0.5665
H40 H 0.5512 0.9120 0.6030
H41 H 0.8136 0.4794 0.2641
H42 H 0.9296 0.5434 0.2241
H43 H 0.7966 0.5727 0.2961
H44 H 0.7413 0.4869 0.1047
H45 H 0.8701 0.5474 0.0722
H46 H 0.7018 0.5843 0.0457
H93 H 0.5729 0.6205 0.5264
H96 H 0.8167 0.7367 0.3141
H97 H 0.1004 0.5558 0.5338
H98 H 0.3057 0.7582 0.4083
H103 H 0.2689 0.8855 0.0310
H104 H 0.0929 0.8822 0.0280
H105 H 0.2232 0.8122 -0.0172
H109 H 0.0800 0.6699 0.1780
H110 H -0.0249 0.7510 0.1156
H111 H 0.1054 0.6809 0.0704
C45 C 1.0124(2) 0.10326(17) 0.91125(17)
N5 N 0.9168(2) 0.18806(14) 0.87479(14)
C46 C 0.9547(3) 0.26958(18) 0.86707(17)
C47 C 0.8363(3) 0.35031(18) 0.83034(17)
O13 O 0.9059(2) 0.42168(13) 0.77952(13)
C48 C 0.8625(3) 0.49951(19) 0.81951(19)
O14 O 0.7271(2) 0.48608(13) 0.87359(13)
C49 C 0.7391(3) 0.39131(17) 0.90704(17)
C50 C 0.5858(3) 0.3661(2) 0.93319(17)
O16 O 0.5254(12) 0.3760(5) 1.0195(8)
C51 C 0.3777(3) 0.4341(2) 1.01408(18)
O17 O 0.3364(2) 0.4376(2) 0.92944(16)
C52 C 0.4632(3) 0.4128(2) 0.87110(19)
C53 C 0.4192(3) 0.35751(19) 0.81228(18)
N6 N 0.3927(2) 0.26731(16) 0.85571(15)
C54 C 0.5019(3) 0.19650(19) 0.85376(16)
C55 C 0.4674(3) 0.10127(19) 0.89230(16)
N7 N 0.5115(2) 0.07369(15) 0.98252(13)
C56 C 0.4147(2) 0.07579(16) 1.05509(16)
C57 C 0.4919(2) 0.04838(17) 1.14107(15)
O18 O 0.4019(2) 0.00516(13) 1.21258(11)
C58 C 0.3687(3) 0.05793(19) 1.28157(17)
O19 O 0.48327(17) 0.11051(13) 1.26527(11)
C59 C 0.5194(3) 0.13188(17) 1.17195(16)
C60 C 0.6781(3) 0.15074(17) 1.15177(17)
O20 O 0.6740(2) 0.23383(13) 1.17970(15)
C61 C 0.8143(3) 0.23237(18) 1.20760(18)
O21 O 0.87966(19) 0.13960(13) 1.23320(13)
C62 C 0.7977(2) 0.08318(17) 1.20512(16)
C63 C 0.9065(3) 0.01718(18) 1.15686(17)
N8 N 0.9784(2) 0.05931(15) 1.07287(14)
C64 C 0.9294(2) 0.05959(17) 0.99621(17)
C65 C 1.0479(3) 0.03790(19) 0.84773(18)
C66 C 1.1189(3) 0.06999(18) 0.75547(17)
C67 C 1.1159(4) 0.0210(2) 0.6911(2)
C68 C 1.1836(5) 0.0436(3) 0.6064(2)
C69 C 1.2539(4) 0.1180(2) 0.5838(2)
C70 C 1.2575(3) 0.1679(2) 0.6461(2)
C71 C 1.1907(3) 0.14407(18) 0.73208(18)
O22 O 1.07266(19) 0.28003(13) 0.88842(14)
C72 C 0.9834(3) 0.5056(2) 0.8739(2)
C73 C 0.8277(4) 0.5815(2) 0.7472(2)
C74 C 0.3882(12) 0.5275(7) 1.0146(7)
C76 C 0.2763(15) 0.3907(10) 1.0917(9)
O23 O 0.63080(18) 0.20509(13) 0.82270(13)
C78 C 0.5583(3) 0.0377(2) 0.83273(17)
C79 C 0.5412(3) -0.0596(2) 0.85827(17)
C80 C 0.4569(3) -0.0944(3) 0.8107(2)
C81 C 0.4525(4) -0.1863(3) 0.8291(3)
C82 C 0.5298(5) -0.2437(3) 0.8948(3)
C83 C 0.6130(4) -0.2102(2) 0.9435(2)
C84 C 0.6186(3) -0.1195(2) 0.92491(18)
O24 O 0.27963(18) 0.09948(14) 1.05416(12)
C85 C 0.2166(3) 0.1165(2) 1.2744(2)
C86 C 0.3852(4) -0.0053(2) 1.36983(18)
C87 C 0.7884(5) 0.2776(3) 1.2867(3)
C88 C 0.9138(4) 0.2775(2) 1.1327(3)
O25 O 0.81821(18) 0.02636(13) 0.99201(12)
H47 H 1.1034 0.1179 0.9241
H48 H 0.7723 0.3329 0.7929
H49 H 0.7956 0.3750 0.9578
H50 H 0.4930 0.4672 0.8317
H51 H 0.3261 0.3909 0.7904
H52 H 0.4971 0.3531 0.7634
H53 H 0.3586 0.1030 0.8956
H54 H 0.5878 0.0069 1.1323
H55 H 0.4493 0.1845 1.1463
H56 H 0.7061 0.1558 1.0879
H57 H 0.7446 0.0482 1.2580
H58 H 0.9859 -0.0123 1.1951
H59 H 0.8542 -0.0263 1.1454
H60 H 1.1150 -0.0129 0.8738
H61 H 0.9531 0.0222 0.8416
H62 H 1.0663 -0.0289 0.7041
H63 H 1.1815 0.0084 0.5646
H64 H 1.2989 0.1343 0.5259
H65 H 1.3059 0.2198 0.6298
H66 H 1.1940 0.1802 0.7742
H67 H 0.9494 0.5580 0.9020
H68 H 1.0006 0.4504 0.9183
H69 H 1.0763 0.5141 0.8376
H70 H 0.7968 0.6346 0.7734
H71 H 0.9132 0.5876 0.7068
H72 H 0.7493 0.5749 0.7170
H73 H 0.6633 0.0418 0.8325
H74 H 0.5289 0.0625 0.7719
H75 H 0.4021 -0.0557 0.7661
H76 H 0.3962 -0.2077 0.7963
H77 H 0.5253 -0.3048 0.9060
H78 H 0.6674 -0.2506 0.9904
H79 H 0.6782 -0.0979 0.9579
H80 H 0.1966 0.1517 1.3202
H81 H 0.1436 0.0780 1.2824
H82 H 0.2154 0.1546 1.2164
H83 H 0.3663 0.0274 1.4170
H84 H 0.4851 -0.0402 1.3725
H85 H 0.3136 -0.0468 1.3817
H86 H 0.8886 0.2752 1.3046
H87 H 0.7285 0.2443 1.3326
H88 H 0.7364 0.3398 1.2702
H89 H 1.0081 0.2761 1.1526
H90 H 0.8707 0.3400 1.1129
H91 H 0.9311 0.2476 1.0811
H92 H 0.6084 0.0563 0.9894
H94 H 0.3051 0.2604 0.8804
H95 H 1.0576 0.0793 1.0738
H99 H 0.8344 0.1853 0.8571
H115 H 0.2755 0.3274 1.0862
H116 H 0.3151 0.3899 1.1489
H117 H 0.1722 0.4263 1.0904
H121 H 0.4560 0.5508 0.9622
H122 H 0.4294 0.5295 1.0703
H123 H 0.2865 0.5660 1.0118
H124 H 0.5905 0.2992 0.9500
C41? C 0.2695(8) 0.8740(5) 0.0700(5)
C43? C 0.0911(8) 0.7720(8) 0.0633(6)
O15? O 0.5329(13) 0.4113(5) 1.0096(7)
C75? C 0.3314(10) 0.5252(7) 1.0470(6)
C77? C 0.2963(15) 0.3632(8) 1.0670(9)
H100? H 0.3453 0.8803 0.1076
H101? H 0.1878 0.9283 0.0660
H102? H 0.3185 0.8690 0.0092
H106? H 0.0481 0.7165 0.0906
H107? H 0.0093 0.8262 0.0594
H108? H 0.1400 0.7670 0.0026
H112? H 0.3300 0.3065 1.0430
H113? H 0.3178 0.3513 1.1302
H114? H 0.1863 0.3838 1.0632
H118? H 0.3891 0.5707 1.0093
H119? H 0.3534 0.5154 1.1100
H120? H 0.2219 0.5479 1.0429
loop_
_geom_bond_atom_site_label_1
_geom_bond_atom_site_label_2
_geom_bond_site_symmetry_1
_geom_bond_site_symmetry_2
C1 C2 1_555 1_555
C2 N1 1_555 1_555
N1 C3 1_555 1_555
C3 C4 1_555 1_555
C4 O1 1_555 1_555
O1 C5 1_555 1_555
C5 O2 1_555 1_555
O2 C6 1_555 1_555
C6 C4 1_555 1_555
C7 C6 1_555 1_555
O3 C7 1_555 1_555
C8 O3 1_555 1_555
O4 C8 1_555 1_555
C9 C7 1_555 1_555
C10 C9 1_555 1_555
N2 C10 1_555 1_555
C11 N2 1_555 1_555
C12 C11 1_555 1_555
N3 C12 1_555 1_555
C13 N3 1_555 1_555
C14 C13 1_555 1_555
O5 C14 1_555 1_555
C15 O5 1_555 1_555
O6 C15 1_555 1_555
C16 C14 1_555 1_555
C17 C16 1_555 1_555
O7 C17 1_555 1_555
C18 O7 1_555 1_555
O8 C18 1_555 1_555
C19 C17 1_555 1_555
C20 C19 1_555 1_555
N4 C1 1_555 1_555
C21 C1 1_555 1_555
C22 C21 1_555 1_555
C23 C22 1_555 1_555
C24 C23 1_555 1_555
C25 C24 1_555 1_555
C26 C25 1_555 1_555
C27 C22 1_555 1_555
O9 C2 1_555 1_555
C28 C5 1_555 1_555
C29 C5 1_555 1_555
C30 C8 1_555 1_555
C31 C8 1_555 1_555
O10 C10 1_555 1_555
C32 C11 1_555 1_555
C33 C32 1_555 1_555
C34 C33 1_555 1_555
C35 C34 1_555 1_555
C36 C35 1_555 1_555
C37 C36 1_555 1_555
C38 C33 1_555 1_555
O11 C12 1_555 1_555
C39 C15 1_555 1_555
C40 C15 1_555 1_555
C42 C18 1_555 1_555
C44 C18 1_555 1_555
O12 C20 1_555 1_555
C45 N5 1_555 1_555
N5 C46 1_555 1_555
C46 C47 1_555 1_555
C47 O13 1_555 1_555
O13 C48 1_555 1_555
C48 O14 1_555 1_555
O14 C49 1_555 1_555
C49 C47 1_555 1_555
C50 C49 1_555 1_555
O16 C50 1_555 1_555
C51 O16 1_555 1_555
O17 C51 1_555 1_555
C52 C50 1_555 1_555
C53 C52 1_555 1_555
N6 C53 1_555 1_555
C54 N6 1_555 1_555
C55 C54 1_555 1_555
N7 C55 1_555 1_555
C56 N7 1_555 1_555
C57 C56 1_555 1_555
O18 C57 1_555 1_555
C58 O18 1_555 1_555
O19 C58 1_555 1_555
C59 C57 1_555 1_555
C60 C59 1_555 1_555
O20 C60 1_555 1_555
C61 O20 1_555 1_555
O21 C61 1_555 1_555
C62 C60 1_555 1_555
C63 C62 1_555 1_555
N8 C63 1_555 1_555
C64 C45 1_555 1_555
C65 C45 1_555 1_555
C66 C65 1_555 1_555
C67 C66 1_555 1_555
C68 C67 1_555 1_555
C69 C68 1_555 1_555
C70 C69 1_555 1_555
C71 C66 1_555 1_555
O22 C46 1_555 1_555
C72 C48 1_555 1_555
C73 C48 1_555 1_555
C74 C51 1_555 1_555
C76 C51 1_555 1_555
O23 C54 1_555 1_555
C78 C55 1_555 1_555
C79 C78 1_555 1_555
C80 C79 1_555 1_555
C81 C80 1_555 1_555
C82 C81 1_555 1_555
C83 C82 1_555 1_555
C84 C79 1_555 1_555
O24 C56 1_555 1_555
C85 C58 1_555 1_555
C86 C58 1_555 1_555
C87 C61 1_555 1_555
C88 C61 1_555 1_555
O25 C64 1_555 1_555
H1 C1 1_555 1_555
H2 C3 1_555 1_555
H3 C3 1_555 1_555
H4 C4 1_555 1_555
H5 C6 1_555 1_555
H6 C7 1_555 1_555
H7 C9 1_555 1_555
H8 C11 1_555 1_555
H9 C13 1_555 1_555
H10 C13 1_555 1_555
H11 C14 1_555 1_555
H12 C16 1_555 1_555
H13 C17 1_555 1_555
H14 C19 1_555 1_555
H15 C21 1_555 1_555
H16 C21 1_555 1_555
H17 C23 1_555 1_555
H18 C24 1_555 1_555
H19 C25 1_555 1_555
H20 C26 1_555 1_555
H21 C27 1_555 1_555
H22 C28 1_555 1_555
H23 C28 1_555 1_555
H24 C28 1_555 1_555
H25 C29 1_555 1_555
H26 C29 1_555 1_555
H27 C29 1_555 1_555
H28 C30 1_555 1_555
H29 C30 1_555 1_555
H30 C30 1_555 1_555
H31 C31 1_555 1_555
H32 C31 1_555 1_555
H33 C31 1_555 1_555
H34 C32 1_555 1_555
H35 C32 1_555 1_555
H36 C34 1_555 1_555
H37 C35 1_555 1_555
H38 C36 1_555 1_555
H39 C37 1_555 1_555
H40 C38 1_555 1_555
H41 C39 1_555 1_555
H42 C39 1_555 1_555
H43 C39 1_555 1_555
H44 C40 1_555 1_555
H45 C40 1_555 1_555
H46 C40 1_555 1_555
H47 C45 1_555 1_555
H48 C47 1_555 1_555
H49 C49 1_555 1_555
H50 C52 1_555 1_555
H51 C53 1_555 1_555
H52 C53 1_555 1_555
H53 C55 1_555 1_555
H54 C57 1_555 1_555
H55 C59 1_555 1_555
H56 C60 1_555 1_555
H57 C62 1_555 1_555
H58 C63 1_555 1_555
H59 C63 1_555 1_555
H60 C65 1_555 1_555
H61 C65 1_555 1_555
H62 C67 1_555 1_555
H63 C68 1_555 1_555
H64 C69 1_555 1_555
H65 C70 1_555 1_555
H66 C71 1_555 1_555
H67 C72 1_555 1_555
H68 C72 1_555 1_555
H69 C72 1_555 1_555
H70 C73 1_555 1_555
H71 C73 1_555 1_555
H72 C73 1_555 1_555
H73 C78 1_555 1_555
H74 C78 1_555 1_555
H75 C80 1_555 1_555
H76 C81 1_555 1_555
H77 C82 1_555 1_555
H78 C83 1_555 1_555
H79 C84 1_555 1_555
H80 C85 1_555 1_555
H81 C85 1_555 1_555
H82 C85 1_555 1_555
H83 C86 1_555 1_555
H84 C86 1_555 1_555
H85 C86 1_555 1_555
H86 C87 1_555 1_555
H87 C87 1_555 1_555
H88 C87 1_555 1_555
H89 C88 1_555 1_555
H90 C88 1_555 1_555
H91 C88 1_555 1_555
H92 N7 1_555 1_555
H93 N2 1_555 1_555
H94 N6 1_555 1_555
H95 N8 1_555 1_555
H96 N3 1_555 1_555
H97 N1 1_555 1_555
H98 N4 1_555 1_555
H99 N5 1_555 1_555
H103 C42 1_555 1_555
H104 C42 1_555 1_555
H105 C42 1_555 1_555
H109 C44 1_555 1_555
H110 C44 1_555 1_555
H111 C44 1_555 1_555
H115 C76 1_555 1_555
H116 C76 1_555 1_555
H117 C76 1_555 1_555
H121 C74 1_555 1_555
H122 C74 1_555 1_555
H123 C74 1_555 1_555
H124 C50 1_555 1_555
O4 C9 1_555 1_555
O6 C16 1_555 1_555
O8 C19 1_555 1_555
C20 N4 1_555 1_555
C26 C27 1_555 1_555
C37 C38 1_555 1_555
O17 C52 1_555 1_555
O19 C59 1_555 1_555
O21 C62 1_555 1_555
N8 C64 1_555 1_555
C70 C71 1_555 1_555
C83 C84 1_555 1_555

#END
