
#######################################################################
#
#                 Cambridge Crystallographic Data Centre
#                                CCDC 
#
#######################################################################
#
# If this CIF has been generated from an entry in the Cambridge 
# Structural Database, then it will include bibliographic, chemical, 
# crystal, experimental, refinement or atomic coordinate data resulting 
# from the CCDC's data processing and validation procedures.
#
#######################################################################

data_TEJRUW
_chemical_formula_moiety         'C37 H32 N2 O2 S1'
_chemical_name_systematic        
3-Benzylidene-3',7'-diphenylcyclohexanespiro-6'-(perhydro-2-thiapyrrolizine)-5'-spiro-3''-(1H-indole)-2,2''-dione
_symmetry_cell_setting           monoclinic
_symmetry_space_group_name_H-M   'P 21/c'
_symmetry_Int_Tables_number      14
_space_group_name_Hall           '-P 2ybc'
loop_
_symmetry_equiv_pos_site_id
_symmetry_equiv_pos_as_xyz
1 x,y,z
2 -x,1/2+y,1/2-z
3 -x,-y,-z
4 x,1/2-y,1/2+z
_cell_length_a                   10.0312(6)
_cell_length_b                   20.8599(13)
_cell_length_c                   14.1305(8)
_cell_angle_alpha                90
_cell_angle_beta                 100.9730(10)
_cell_angle_gamma                90
_cell_volume                     2902.75
_exptl_crystal_colour            colorless
_exptl_crystal_description       Block
_chemical_melting_point          '507 K'
_cell_formula_units_Z            4
_exptl_crystal_recrystallization_method methanol
loop_
_atom_site_label
_atom_site_type_symbol
_atom_site_fract_x
_atom_site_fract_y
_atom_site_fract_z
O1 O 0.40364(12) 0.44823(6) 0.05249(8)
O2 O 0.70613(13) 0.25070(6) 0.22392(8)
N1 N 0.42179(14) 0.39301(6) 0.24143(9)
C1 C 0.53140(16) 0.38460(7) 0.18784(10)
C2 C 0.51275(16) 0.31205(7) 0.14752(10)
C3 C 0.43311(16) 0.28131(7) 0.22058(10)
H1 H 0.4988 0.2736 0.2803
C4 C 0.34015(17) 0.33524(7) 0.24125(11)
H2 H 0.2602 0.3377 0.1893
C5 C 0.2951(2) 0.33057(9) 0.33865(13)
H3 H 0.2871 0.2861 0.3566
H4 H 0.2079 0.3514 0.3356
S1 S 0.42397(6) 0.37036(2) 0.42458(3)
C6 C 0.44012(18) 0.42906(8) 0.33030(11)
H5 H 0.5329 0.4460 0.3436
C7 C 0.51065(17) 0.43548(7) 0.10576(10)
N2 N 0.63019(15) 0.46547(6) 0.10670(10)
H6 H 0.6441 0.4927 0.0639
C8 C 0.72877(17) 0.44682(7) 0.18604(11)
C9 C 0.85933(19) 0.46936(8) 0.21341(13)
H7 H 0.8938 0.5003 0.1771
C10 C 0.9378(2) 0.44463(9) 0.29665(14)
H8 H 1.0266 0.4589 0.3165
C11 C 0.8859(2) 0.39924(9) 0.35046(13)
H9 H 0.9400 0.3834 0.4064
C12 C 0.75376(18) 0.37674(8) 0.32233(11)
H10 H 0.7193 0.3461 0.3591
C13 C 0.67456(17) 0.40052(7) 0.23907(10)
C14 C 0.65271(17) 0.28090(7) 0.15335(11)
C15 C 0.72237(18) 0.29028(8) 0.07009(12)
C16 C 0.6355(2) 0.28523(9) -0.02892(12)
H11 H 0.6121 0.2407 -0.0431
H12 H 0.6862 0.3005 -0.0764
C17 C 0.50734(19) 0.32415(9) -0.03561(11)
H13 H 0.4493 0.3170 -0.0979
H14 H 0.5303 0.3694 -0.0307
C18 C 0.43063(17) 0.30643(8) 0.04371(10)
H15 H 0.3987 0.2626 0.0333
H16 H 0.3513 0.3338 0.0379
C19 C 0.85360(19) 0.30639(8) 0.08990(13)
H17 H 0.8941 0.3090 0.1547
C20 C 0.94054(19) 0.32046(9) 0.01964(13)
C21 C 1.0255(2) 0.37401(10) 0.03372(15)
H18 H 1.0276 0.3996 0.0879
C22 C 1.1060(2) 0.38945(13) -0.03138(18)
H19 H 1.1604 0.4258 -0.0216
C23 C 1.1069(2) 0.35145(14) -0.11109(18)
H20 H 1.1618 0.3619 -0.1549
C24 C 1.0260(2) 0.29821(13) -0.12502(17)
H21 H 1.0266 0.2722 -0.1784
C25 C 0.9433(2) 0.28272(11) -0.06068(16)
H22 H 0.8887 0.2464 -0.0714
C26 C 0.36385(18) 0.21776(7) 0.19089(11)
C27 C 0.4352(2) 0.16082(8) 0.21078(13)
H23 H 0.5260 0.1620 0.2410
C28 C 0.3730(3) 0.10227(10) 0.18617(16)
H24 H 0.4221 0.0646 0.2009
C29 C 0.2403(3) 0.09934(11) 0.14055(17)
H25 H 0.1991 0.0599 0.1240
C30 C 0.1689(3) 0.15472(12) 0.11954(17)
H26 H 0.0786 0.1530 0.0881
C31 C 0.2295(2) 0.21363(10) 0.14462(15)
H27 H 0.1791 0.2510 0.1301
C32 C 0.34223(18) 0.48505(8) 0.32667(13)
C33 C 0.3229(2) 0.51500(11) 0.41025(16)
H28 H 0.3619 0.4979 0.4699
C34 C 0.2454(3) 0.57056(13) 0.4054(2)
H29 H 0.2333 0.5905 0.4620
C35 C 0.1869(3) 0.59610(11) 0.3187(2)
H30 H 0.1368 0.6338 0.3162
C36 C 0.2021(2) 0.56609(11) 0.23523(18)
H31 H 0.1607 0.5829 0.1759
C37 C 0.2794(2) 0.51066(9) 0.23903(15)
H32 H 0.2890 0.4904 0.1821
loop_
_geom_bond_atom_site_label_1
_geom_bond_atom_site_label_2
_geom_bond_site_symmetry_1
_geom_bond_site_symmetry_2
O1 C7 1_555 1_555
O2 C14 1_555 1_555
N1 C1 1_555 1_555
C1 C2 1_555 1_555
C2 C3 1_555 1_555
C3 H1 1_555 1_555
C4 N1 1_555 1_555
H2 C4 1_555 1_555
C5 C4 1_555 1_555
H3 C5 1_555 1_555
H4 C5 1_555 1_555
S1 C5 1_555 1_555
C6 N1 1_555 1_555
H5 C6 1_555 1_555
C7 C1 1_555 1_555
N2 C7 1_555 1_555
H6 N2 1_555 1_555
C8 N2 1_555 1_555
C9 C8 1_555 1_555
H7 C9 1_555 1_555
C10 C9 1_555 1_555
H8 C10 1_555 1_555
C11 C10 1_555 1_555
H9 C11 1_555 1_555
C12 C11 1_555 1_555
H10 C12 1_555 1_555
C13 C1 1_555 1_555
C14 C2 1_555 1_555
C15 C14 1_555 1_555
C16 C15 1_555 1_555
H11 C16 1_555 1_555
H12 C16 1_555 1_555
C17 C16 1_555 1_555
H13 C17 1_555 1_555
H14 C17 1_555 1_555
C18 C2 1_555 1_555
H15 C18 1_555 1_555
H16 C18 1_555 1_555
C19 C15 1_555 1_555
H17 C19 1_555 1_555
C20 C19 1_555 1_555
C21 C20 1_555 1_555
H18 C21 1_555 1_555
C22 C21 1_555 1_555
H19 C22 1_555 1_555
C23 C22 1_555 1_555
H20 C23 1_555 1_555
C24 C23 1_555 1_555
H21 C24 1_555 1_555
C25 C20 1_555 1_555
H22 C25 1_555 1_555
C26 C3 1_555 1_555
C27 C26 1_555 1_555
H23 C27 1_555 1_555
C28 C27 1_555 1_555
H24 C28 1_555 1_555
C29 C28 1_555 1_555
H25 C29 1_555 1_555
C30 C29 1_555 1_555
H26 C30 1_555 1_555
C31 C26 1_555 1_555
H27 C31 1_555 1_555
C32 C6 1_555 1_555
C33 C32 1_555 1_555
H28 C33 1_555 1_555
C34 C33 1_555 1_555
H29 C34 1_555 1_555
C35 C34 1_555 1_555
H30 C35 1_555 1_555
C36 C35 1_555 1_555
H31 C36 1_555 1_555
C37 C32 1_555 1_555
H32 C37 1_555 1_555
C3 C4 1_555 1_555
S1 C6 1_555 1_555
C8 C13 1_555 1_555
C12 C13 1_555 1_555
C17 C18 1_555 1_555
C24 C25 1_555 1_555
C30 C31 1_555 1_555
C36 C37 1_555 1_555

#END
