
#######################################################################
#
#                 Cambridge Crystallographic Data Centre
#                                CCDC 
#
#######################################################################
#
# If this CIF has been generated from an entry in the Cambridge 
# Structural Database, then it will include bibliographic, chemical, 
# crystal, experimental, refinement or atomic coordinate data resulting 
# from the CCDC's data processing and validation procedures.
#
#######################################################################

data_TEJSIK
_chemical_formula_moiety         'C7 H8 Br1 N3 S1'
_chemical_name_systematic        4-(4-Bromophenyl)thiosemicarbazide
_chemical_properties_biological  'antibacterial activity'
_symmetry_cell_setting           monoclinic
_symmetry_space_group_name_H-M   'P 21/c'
_symmetry_Int_Tables_number      14
_space_group_name_Hall           '-P 2ybc'
loop_
_symmetry_equiv_pos_site_id
_symmetry_equiv_pos_as_xyz
1 x,y,z
2 -x,1/2+y,1/2-z
3 -x,-y,-z
4 x,1/2-y,1/2+z
_cell_length_a                   14.907(7)
_cell_length_b                   10.506(4)
_cell_length_c                   12.518(3)
_cell_angle_alpha                90
_cell_angle_beta                 104.07(3)
_cell_angle_gamma                90
_cell_volume                     1901.67
_exptl_crystal_colour            colorless
_cell_formula_units_Z            8
loop_
_atom_site_label
_atom_site_type_symbol
_atom_site_fract_x
_atom_site_fract_y
_atom_site_fract_z
N1 N 0.9395(6) 0.0963(8) 0.7595(6)
N2 N 0.9574(6) 0.2105(8) 0.7085(6)
C1 C 0.9263(6) 0.2256(10) 0.6006(7)
N3 N 0.8785(6) 0.1289(8) 0.5443(7)
C2 C 0.8355(7) 0.1234(10) 0.4311(7)
C3 C 0.8445(8) 0.0122(11) 0.3759(8)
C4 C 0.7975(8) 0.0003(12) 0.2676(9)
C5 C 0.7411(7) 0.0971(11) 0.2146(7)
C6 C 0.7335(8) 0.2065(12) 0.2711(9)
C7 C 0.7796(7) 0.2203(11) 0.3806(8)
Br1 Br 0.6716(1) 0.0783(1) 0.0664(1)
S1 S 0.9533(2) 0.3626(3) 0.5431(2)
H1 H 1.003(4) 0.069(6) 0.780(5)
H2 H 0.943(7) 0.112(10) 0.826(8)
H3 H 0.987(5) 0.257(7) 0.745(5)
H4 H 0.855(6) 0.075(8) 0.579(7)
H5 H 0.885(7) -0.063(9) 0.428(8)
H6 H 0.801(6) -0.072(8) 0.237(7)
H7 H 0.706(6) 0.264(9) 0.246(7)
H8 H 0.771(6) 0.298(9) 0.415(6)
N4 N 0.2265(8) 0.0987(13) 0.1076(8)
N5 N 0.1752(7) 0.1479(9) 0.1797(7)
C8 C 0.2113(7) 0.1445(9) 0.2873(7)
N6 N 0.2990(7) 0.1046(10) 0.3201(8)
C9 C 0.3522(7) 0.0981(13) 0.4310(9)
C10 C 0.3641(7) -0.0156(13) 0.4867(10)
C11 C 0.4144(7) -0.0220(12) 0.5953(8)
C12 C 0.4539(7) 0.0866(13) 0.6462(8)
C13 C 0.4419(8) 0.2026(14) 0.5932(10)
C14 C 0.3918(9) 0.2073(13) 0.4847(10)
Br2 Br 0.5243(1) 0.0781(1) 0.7946(1)
S2 S 0.1502(2) 0.1918(3) 0.3776(2)
H9 H 0.199(7) 0.029(10) 0.089(8)
H10 H 0.239(7) 0.150(9) 0.064(7)
H11 H 0.114(5) 0.141(8) 0.157(6)
H12 H 0.325(7) 0.103(10) 0.271(8)
H13 H 0.335(5) -0.090(8) 0.447(6)
H14 H 0.441(7) -0.101(9) 0.640(8)
H15 H 0.469(8) 0.270(11) 0.634(9)
H16 H 0.383(6) 0.286(9) 0.450(7)
loop_
_geom_bond_atom_site_label_1
_geom_bond_atom_site_label_2
_geom_bond_site_symmetry_1
_geom_bond_site_symmetry_2
N1 N2 1_555 1_555
N2 C1 1_555 1_555
C1 N3 1_555 1_555
N3 C2 1_555 1_555
C2 C3 1_555 1_555
C3 C4 1_555 1_555
C4 C5 1_555 1_555
C5 C6 1_555 1_555
C6 C7 1_555 1_555
C7 C2 1_555 1_555
Br1 C5 1_555 1_555
S1 C1 1_555 1_555
N4 N5 1_555 1_555
N5 C8 1_555 1_555
C8 N6 1_555 1_555
N6 C9 1_555 1_555
C9 C10 1_555 1_555
C10 C11 1_555 1_555
C11 C12 1_555 1_555
C12 C13 1_555 1_555
C13 C14 1_555 1_555
C14 C9 1_555 1_555
Br2 C12 1_555 1_555
S2 C8 1_555 1_555
H1 N1 1_555 1_555
H2 N1 1_555 1_555
H3 N2 1_555 1_555
H4 N3 1_555 1_555
H5 C3 1_555 1_555
H6 C4 1_555 1_555
H7 C6 1_555 1_555
H8 C7 1_555 1_555
H9 N4 1_555 1_555
H10 N4 1_555 1_555
H11 N5 1_555 1_555
H12 N6 1_555 1_555
H13 C10 1_555 1_555
H14 C11 1_555 1_555
H15 C13 1_555 1_555
H16 C14 1_555 1_555

#END
