
#######################################################################
#
#                 Cambridge Crystallographic Data Centre
#                                CCDC 
#
#######################################################################
#
# If this CIF has been generated from an entry in the Cambridge 
# Structural Database, then it will include bibliographic, chemical, 
# crystal, experimental, refinement or atomic coordinate data resulting 
# from the CCDC's data processing and validation procedures.
#
#######################################################################

data_TEJSIN
_chemical_name_common            
"4,4'-{[7,12,22,27-tetrakis(pentafluorophenyl)-hexaphyrin-2,17-diyl]bis[([2,2'-bithiophene]-5',5-diyl)]}bis(2,6-di-t-butylphenoxy radical) octane nonane toluene solvate"
_chemical_formula_moiety         
'C98 H62 F20 N6 O2 S4,1.5(C9 H20),0.5(C8 H18),C7 H8'
_chemical_name_systematic        
"4,4'-{[7,12,22,27-tetrakis(pentafluorophenyl)-31,32,33,34,35,36-hexaazaheptacyclo[26.2.1.1^3,6^.1^8,11^.1^13,16^.1^18,21^.1^23,26^]hexatriaconta-1(31),2,4,6(36),7,9,11,14,16,18(33),19,21,23,25,27,29-hexadecaene-2,17-diyl]bis[([2,2'-bithiophene]-5',5-diyl)]}bis(2,6-di-t-butylphenoxy radical) octane nonane toluene solvate"
_symmetry_cell_setting           triclinic
_symmetry_space_group_name_H-M   'P -1'
_symmetry_Int_Tables_number      2
_space_group_name_Hall           '-P 1'
loop_
_symmetry_equiv_pos_site_id
_symmetry_equiv_pos_as_xyz
1 x,y,z
2 -x,-y,-z
_cell_length_a                   16.161(2)
_cell_length_b                   21.281(2)
_cell_length_c                   34.975(5)
_cell_angle_alpha                79.773(9)
_cell_angle_beta                 89.616(10)
_cell_angle_gamma                82.606(7)
_cell_volume                     11737.5
_exptl_crystal_colour            violet
_exptl_crystal_description       prism
_cell_formula_units_Z            4
_exptl_crystal_recrystallization_method 'toluene/ octane/ nonane'
loop_
_atom_site_label
_atom_site_type_symbol
_atom_site_fract_x
_atom_site_fract_y
_atom_site_fract_z
F1 F 0.2593(2) 0.54887(19) 0.19537(11)
F2 F 0.3883(2) 0.5521(2) 0.24250(11)
F3 F 0.3900(2) 0.6549(2) 0.28006(10)
F4 F 0.2577(3) 0.74774(19) 0.27267(11)
F5 F 0.1283(2) 0.74450(17) 0.22557(10)
F6 F -0.3135(2) 0.7245(2) -0.12253(12)
F7 F -0.4258(3) 0.7857(3) -0.17663(15)
F8 F -0.4129(3) 0.9079(3) -0.21214(17)
F9 F -0.2868(4) 0.9686(3) -0.19139(19)
F10 F -0.1736(3) 0.90779(18) -0.13748(13)
F11 F 0.13955(16) 0.63079(14) -0.14927(8)
F12 F 0.27565(17) 0.60410(15) -0.19055(8)
F13 F 0.41198(17) 0.66418(17) -0.18497(8)
F14 F 0.41003(18) 0.75314(17) -0.13826(9)
F15 F 0.27391(17) 0.78201(15) -0.09756(8)
C1 C 0.1278(3) 0.6977(2) 0.07746(14)
C2 C 0.2172(3) 0.6973(3) 0.08572(15)
H1 H 0.2593 0.7071 0.0674
C3 C 0.2271(3) 0.6804(3) 0.12424(15)
H2 H 0.2777 0.6766 0.1386
C4 C 0.1454(3) 0.6686(3) 0.14022(14)
C5 C 0.1245(3) 0.6511(3) 0.17811(14)
C6 C 0.0434(3) 0.6393(3) 0.19101(15)
C7 C 0.0155(4) 0.6198(3) 0.22911(17)
H3 H 0.0488 0.6108 0.2522
C8 C -0.0683(3) 0.6161(3) 0.22687(17)
H4 H -0.1033 0.6048 0.2482
C9 C -0.0936(3) 0.6318(3) 0.18764(16)
C10 C -0.1746(3) 0.6354(3) 0.17049(18)
S1 S 0.21090(6) 0.48731(6) 0.00043(3)
S2 S -0.03324(6) 0.81016(6) -0.00578(4)
S3 S -0.02467(6) 0.61470(6) -0.01882(3)
S4 S -0.24698(7) 0.93445(7) 0.02805(4)
N1 N 0.0875(2) 0.6798(2) 0.10971(11)
N2 N -0.0243(2) 0.6454(2) 0.16640(12)
H5 H -0.0234 0.6564 0.1409
N3 N -0.1347(2) 0.6531(2) 0.10273(13)
N4 N -0.1435(2) 0.71230(19) -0.03660(12)
N5 N -0.0219(2) 0.74519(19) -0.09074(12)
H6 H -0.0230 0.7344 -0.0653
N6 N 0.0918(2) 0.73023(19) -0.02972(11)
C11 C 0.2718(3) 0.7374(3) -0.11946(14)
C12 C 0.2042(3) 0.6630(2) -0.14615(13)
C13 C -0.4660(3) 1.1213(2) -0.03644(17)
C14 C 0.1990(3) 0.5157(2) -0.07477(14)
H7 H 0.2110 0.5183 -0.1016
C15 C 0.3831(2) 0.4204(2) -0.01372(14)
H8 H 0.3541 0.4132 0.0100
C16 C 0.2061(3) 0.6675(2) 0.00214(13)
H9 H 0.2418 0.6446 0.0229
O1 O 0.58737(19) 0.3926(2) -0.05203(11)
O2 O -0.5668(2) 1.15776(19) 0.00666(12)
C17 C -0.1396(2) 0.6651(2) 0.03129(15)
C18 C 0.2186(2) 0.6688(2) -0.03544(14)
H10 H 0.2656 0.6481 -0.0469
C19 C 0.3382(2) 0.4548(2) -0.04756(13)
C20 C 0.4659(3) 0.3974(2) -0.01381(14)
C21 C 0.3800(3) 0.4610(2) -0.08375(14)
H11 H 0.3493 0.4806 -0.1068
C22 C 0.0873(3) 0.7226(2) 0.03988(13)
C23 C -0.0363(3) 0.7812(3) 0.06947(15)
H12 H -0.0227 0.7620 0.0957
C24 C -0.0636(3) 0.6247(2) 0.02683(14)
C25 C 0.1268(2) 0.7079(2) 0.00565(13)
C26 C 0.0581(2) 0.5591(2) 0.00251(13)
C27 C 0.1206(2) 0.5337(2) -0.02055(13)
C28 C -0.1765(3) 0.6628(2) 0.06928(15)
C29 C -0.1950(3) 0.7557(2) -0.06239(16)
C30 C -0.2604(3) 0.7484(3) -0.00513(18)
H13 H -0.2980 0.7542 0.0153
C31 C -0.1037(3) 0.8275(3) 0.05925(16)
H14 H -0.1411 0.8428 0.0776
C32 C -0.0133(3) 0.5855(2) 0.05622(14)
H15 H -0.0248 0.5836 0.0830
C33 C 0.1250(3) 0.5427(2) -0.06106(14)
H16 H 0.0807 0.5654 -0.0777
C34 C 0.2554(2) 0.4837(2) -0.04444(14)
C35 C 0.4624(3) 0.4397(2) -0.08637(14)
C36 C -0.5024(3) 1.1223(3) 0.00222(16)
C37 C 0.1294(3) 0.7197(2) -0.09583(14)
C38 C -0.0626(3) 0.7782(3) -0.15278(16)
H17 H -0.0962 0.7939 -0.1755
C39 C 0.2008(3) 0.7078(2) -0.12140(13)
C40 C 0.0109(3) 0.7646(2) 0.03812(14)
C41 C -0.4575(3) 1.0805(3) 0.03640(17)
C42 C 0.3249(3) 0.6006(3) 0.23846(17)
C43 C 0.3244(4) 0.6510(3) 0.25717(15)
C44 C -0.3049(3) 0.7833(4) -0.13908(18)
C45 C -0.3635(4) 0.8174(5) -0.1680(2)
C46 C -0.2931(5) 0.9069(4) -0.1751(2)
C47 C -0.2356(4) 0.8752(3) -0.1470(2)
C48 C -0.4277(4) 1.0439(3) 0.10834(18)
H18 H -0.4279 0.9985 0.1064
H19 H -0.4462 1.0507 0.1342
H20 H -0.3710 1.0553 0.1042
C49 C -0.4874(3) 1.1555(3) 0.08414(19)
H21 H -0.4326 1.1693 0.0780
H22 H -0.4998 1.1574 0.1114
H23 H -0.5302 1.1841 0.0674
C50 C -0.5090(4) 1.2387(3) -0.0645(2)
H24 H -0.5404 1.2439 -0.0410
H25 H -0.5362 1.2683 -0.0869
H26 H -0.4519 1.2482 -0.0614
C51 C -0.4574(4) 1.1639(4) -0.1089(2)
H27 H -0.4857 1.1943 -0.1307
H28 H -0.4546 1.1200 -0.1142
H29 H -0.4008 1.1742 -0.1057
C52 C 0.5746(4) 0.4945(4) -0.12315(19)
H30 H 0.6111 0.4763 -0.1006
H31 H 0.5478 0.5373 -0.1203
H32 H 0.6078 0.4979 -0.1468
C53 C 0.5471(4) 0.3854(3) -0.13545(18)
H33 H 0.5030 0.3586 -0.1377
H34 H 0.5864 0.3636 -0.1146
H35 H 0.5767 0.3926 -0.1601
C54 C 0.4479(3) 0.4840(3) -0.15937(15)
H36 H 0.4782 0.4885 -0.1839
H37 H 0.4244 0.5266 -0.1546
H38 H 0.4026 0.4579 -0.1610
C55 C 0.2583(4) 0.6995(3) 0.25339(16)
C56 C -0.1805(3) 0.7060(2) -0.00183(15)
C57 C -0.1117(3) 0.8498(2) 0.01899(16)
C58 C -0.3925(3) 1.0370(3) 0.02961(16)
H39 H -0.3669 1.0076 0.0512
C59 C -0.2670(3) 0.6651(2) 0.07595(18)
H40 H -0.3100 0.6728 0.0567
C60 C -0.3983(3) 1.0776(3) -0.04044(17)
H41 H -0.3755 1.0768 -0.0655
C61 C -0.4870(3) 1.0864(3) 0.07730(17)
C62 C 0.0546(3) 0.5497(2) 0.04289(14)
H42 H 0.0948 0.5215 0.0596
C63 C 0.5106(3) 0.4083(3) -0.05122(14)
C64 C -0.3609(3) 1.0330(3) -0.00774(17)
C65 C -0.1737(3) 0.7775(3) -0.10012(16)
C66 C 0.5079(3) 0.4507(3) -0.12593(15)
C67 C 0.0235(3) 0.7614(3) -0.15168(16)
H43 H 0.0590 0.7629 -0.1735
C68 C -0.0910(3) 0.7682(2) -0.11472(16)
C69 C 0.0486(3) 0.7418(2) -0.11275(14)
C70 C 0.1452(2) 0.7087(2) -0.05615(14)
C71 C 0.2748(3) 0.6486(3) -0.16758(13)
C72 C 0.3439(3) 0.6790(3) -0.16481(13)
C73 C -0.1723(3) 0.8981(2) -0.00014(16)
C74 C -0.2496(3) 0.9735(3) -0.04630(16)
H44 H -0.2657 0.9961 -0.0716
C75 C 0.5129(3) 0.3655(2) 0.02377(14)
C76 C 0.5647(3) 0.3011(3) 0.02028(17)
H45 H 0.5965 0.2840 0.0445
H46 H 0.6034 0.3078 -0.0013
H47 H 0.5274 0.2704 0.0155
C77 C -0.2766(3) 0.6544(2) 0.11415(19)
H48 H -0.3279 0.6521 0.1274
C78 C -0.1939(3) 0.6468(2) 0.13194(17)
C79 C -0.2916(3) 0.9865(3) -0.01267(17)
C80 C -0.2702(3) 0.7771(3) -0.04223(17)
H49 H -0.3170 0.8059 -0.0534
C81 C 0.3433(3) 0.7233(3) -0.14087(14)
C82 C 0.2579(3) 0.5990(3) 0.21369(16)
C83 C -0.1836(3) 0.9257(2) -0.03948(16)
H50 H -0.1489 0.9124 -0.0594
C84 C 0.4532(3) 0.3516(3) 0.05724(15)
H51 H 0.4247 0.3923 0.0630
H52 H 0.4847 0.3278 0.0803
H53 H 0.4118 0.3258 0.0499
C85 C -0.2383(3) 0.8136(3) -0.12882(17)
C86 C -0.5065(3) 1.1690(3) -0.07127(17)
C87 C -0.5736(3) 1.0656(3) 0.08363(19)
H54 H -0.6128 1.0924 0.0643
H55 H -0.5922 1.0705 0.1098
H56 H -0.5714 1.0203 0.0809
C88 C 0.5695(3) 0.4121(2) 0.03440(15)
H57 H 0.5358 0.4529 0.0368
H58 H 0.6108 0.4199 0.0140
H59 H 0.5982 0.3934 0.0592
C89 C 0.1911(3) 0.6473(3) 0.20820(15)
C90 C 0.1919(4) 0.6967(3) 0.22916(15)
C91 C -0.5955(4) 1.1557(3) -0.0786(2)
H60 H -0.6274 1.1552 -0.0546
H61 H -0.5935 1.1138 -0.0868
H62 H -0.6226 1.1895 -0.0990
C92 C -0.3558(5) 0.8780(5) -0.1858(2)
C93 C -0.2497(7) 0.6237(7) 0.1949(4)
C94 C -0.3840(6) 0.6578(6) 0.2195(3)
C95 C -0.3214(14) 0.5496(10) 0.2383(4)
C96 C -0.3157(5) 0.6707(5) 0.1985(3)
C97 C -0.2581(9) 0.5635(6) 0.2148(3)
C98 C -0.3861(8) 0.5964(8) 0.2396(3)
F16 F -0.3142(4) 0.7307(3) 0.17771(19)
F17 F -0.4469(4) 0.7040(4) 0.2217(2)
F18 F -0.4536(5) 0.5835(5) 0.2624(3)
F19 F -0.3288(7) 0.4883(7) 0.2561(4)
F20 F -0.1977(4) 0.5134(3) 0.21194(19)
F26 F -0.1425(2) 0.2148(2) 0.60609(11)
F27 F -0.0167(2) 0.2456(3) 0.64534(12)
F28 F -0.0419(3) 0.3459(3) 0.68406(11)
F29 F -0.1941(3) 0.4143(2) 0.68338(11)
F30 F -0.3212(2) 0.38425(18) 0.64451(10)
F31 F -0.5366(2) 0.09522(17) 0.64307(10)
F32 F -0.6401(3) 0.0296(2) 0.68965(14)
F33 F -0.7974(3) 0.0845(3) 0.70046(18)
F34 F -0.8505(3) 0.2040(4) 0.6626(3)
F35 F -0.7480(3) 0.2714(3) 0.61676(19)
F36 F -0.2063(2) 0.4370(2) 0.30926(12)
F37 F -0.0740(3) 0.4344(2) 0.26236(12)
F38 F -0.0361(2) 0.3345(2) 0.22442(10)
F39 F -0.1318(3) 0.2373(2) 0.23378(12)
F40 F -0.2625(3) 0.24003(19) 0.28081(10)
N7 N -0.5722(3) 0.3368(2) 0.39709(14)
N8 N -0.4590(3) 0.3398(2) 0.33455(13)
H63 H -0.4568 0.3303 0.3601
S5 S -0.42156(8) 0.18296(7) 0.51202(4)
S6 S -0.29287(7) 0.51287(7) 0.49567(4)
S7 S -0.48615(7) 0.38607(7) 0.51739(4)
S8 S -0.60103(9) 0.05576(8) 0.49129(4)
N9 N -0.4446(2) 0.2567(2) 0.59317(13)
H64 H -0.4469 0.2653 0.5676
N10 N -0.3318(2) 0.2687(2) 0.53277(12)
N11 N -0.3416(3) 0.3066(2) 0.39363(12)
C105 C -0.5773(3) 0.3297(3) 0.46821(17)
N12 N -0.5724(3) 0.2869(2) 0.53695(14)
C106 C -0.5070(3) 0.2352(3) 0.61613(17)
C107 C -0.5838(3) 0.2227(3) 0.60095(18)
C108 C -0.6120(3) 0.3490(3) 0.32868(17)
C109 C -0.5083(4) 0.3655(3) 0.27366(17)
H65 H -0.5452 0.3754 0.2518
C110 C -0.4219(4) 0.3628(3) 0.27275(17)
H66 H -0.3891 0.3711 0.2502
C111 C -0.3917(3) 0.3456(3) 0.31153(15)
C112 C -0.2970(3) 0.2911(3) 0.42655(15)
C113 C -0.4779(4) 0.1537(3) 0.44939(17)
H67 H -0.5077 0.1346 0.4321
C114 C -0.7366(4) -0.0362(3) 0.50828(18)
H68 H -0.7124 -0.0251 0.4836
C115 C -0.9347(5) -0.0456(3) 0.4680(2)
H69 H -0.9672 -0.0544 0.4916
H70 H -0.9622 -0.0593 0.4465
H71 H -0.9309 0.0006 0.4614
C116 C -0.7958(5) -0.0663(4) 0.4388(2)
H72 H -0.7843 -0.0217 0.4362
H73 H -0.8273 -0.0713 0.4159
H74 H -0.7430 -0.0952 0.4410
C117 C -0.4201(3) 0.4398(3) 0.49563(16)
O3 O 0.0460(2) 0.6156(3) 0.54522(13)
C118 C -0.2275(3) 0.3306(3) 0.53793(16)
H75 H -0.1880 0.3518 0.5491
C119 C -0.3041(3) 0.2849(3) 0.59842(15)
C120 C -0.6310(3) 0.3406(3) 0.36646(18)
C121 C -0.2845(3) 0.3194(3) 0.36396(16)
C122 C -0.3900(3) 0.2232(3) 0.46775(15)
C123 C -0.4820(3) 0.1375(3) 0.48937(17)
C124 C -0.5286(3) 0.0936(3) 0.51223(17)
C125 C -0.3646(3) 0.4642(3) 0.55813(17)
H76 H -0.4020 0.4428 0.5753
C126 C -0.3012(3) 0.4939(3) 0.57067(16)
H77 H -0.2909 0.4951 0.5972
C127 C -0.1452(3) 0.5828(3) 0.50766(17)
H78 H -0.1749 0.5873 0.4838
C128 C -0.0646(3) 0.5718(3) 0.58065(17)
C129 C -0.1394(3) 0.5499(3) 0.57843(17)
H79 H -0.1649 0.5327 0.6019
C130 C -0.2374(3) 0.2987(3) 0.62364(15)
C131 C -0.6058(3) 0.2896(3) 0.50146(16)
C132 C -0.5171(3) 0.3709(3) 0.47237(16)
C133 C -0.3777(3) 0.2633(3) 0.61530(15)
C134 C -0.1811(3) 0.5514(3) 0.54262(16)
C135 C -0.3011(3) 0.2885(3) 0.49758(15)
C136 C -0.2373(3) 0.3295(3) 0.49997(15)
H80 H -0.2083 0.3512 0.4790
C137 C -0.4763(3) 0.4080(3) 0.44236(16)
H81 H -0.4851 0.4074 0.4156
C138 C -0.2533(3) 0.5224(3) 0.54004(16)
C139 C -0.2882(3) 0.2934(3) 0.55875(15)
C140 C -0.3984(3) 0.2443(3) 0.65393(17)
H82 H -0.3639 0.2439 0.6759
C141 C -0.6137(3) 0.3297(3) 0.42993(17)
C142 C -0.3321(3) 0.2680(3) 0.46407(15)
C143 C -0.2394(3) 0.3389(3) 0.29664(15)
C144 C -0.0711(3) 0.6062(3) 0.50732(17)
C145 C -0.6088(3) 0.2432(3) 0.56193(18)
C146 C -0.7024(3) 0.3279(3) 0.42260(18)
H83 H -0.7446 0.3226 0.4415
C147 C -0.5313(3) 0.3510(3) 0.31253(17)
C148 C -0.3077(3) 0.3350(3) 0.32561(15)
C149 C -0.2012(3) 0.3098(3) 0.38081(16)
H84 H -0.1508 0.3138 0.3670
C150 C -0.2082(3) 0.2946(3) 0.41887(16)
H85 H -0.1642 0.2874 0.4376
C151 C -0.7124(3) 0.3350(3) 0.38406(17)
H86 H -0.7635 0.3363 0.3705
C152 C -0.4777(4) 0.2263(3) 0.65490(18)
H87 H -0.5071 0.2108 0.6775
C153 C -0.5282(4) 0.0759(3) 0.55219(17)
H88 H -0.4916 0.0909 0.5687
C154 C -0.5851(4) 0.0349(3) 0.56629(18)
H89 H -0.5917 0.0194 0.5932
C155 C -0.6328(4) 0.0181(3) 0.53672(18)
C156 C -0.6988(4) -0.0195(3) 0.54103(17)
C157 C -0.8046(4) -0.0669(3) 0.51034(18)
C158 C -0.8028(5) -0.0672(3) 0.58358(17)
C159 C -0.7331(4) -0.0382(3) 0.57834(18)
H90 H -0.7056 -0.0298 0.6005
C160 C -0.8462(4) -0.0830(3) 0.47475(18)
C161 C -0.8519(4) -0.1553(3) 0.4810(2)
H91 H -0.7955 -0.1791 0.4827
H92 H -0.8826 -0.1651 0.4592
H93 H -0.8811 -0.1680 0.5053
C162 C -0.7950(6) -0.0616(5) 0.6555(2)
H94 H -0.7392 -0.0863 0.6587
H95 H -0.8252 -0.0694 0.6799
H96 H -0.7900 -0.0156 0.6483
C163 C -0.4225(3) 0.4450(3) 0.45534(15)
H97 H -0.3900 0.4716 0.4384
C164 C -0.3682(3) 0.4686(3) 0.51752(15)
C165 C -0.0318(3) 0.6352(3) 0.46955(17)
C166 C -0.0940(4) 0.6443(4) 0.4351(2)
H98 H -0.1084 0.6023 0.4317
H99 H -0.0685 0.6646 0.4114
H100 H -0.1447 0.6718 0.4404
C167 C -0.1579(4) 0.2646(3) 0.62492(17)
C168 C -0.0911(4) 0.2795(4) 0.64515(19)
C169 C -0.2469(4) 0.3484(3) 0.64461(16)
C170 C -0.6142(4) 0.1249(3) 0.64755(19)
C171 C -0.6663(6) 0.0909(4) 0.6712(2)
C172 C -0.2167(4) 0.2892(3) 0.27599(15)
C173 C -0.1510(4) 0.2884(3) 0.25246(17)
C174 C -0.1212(4) 0.3863(4) 0.26645(18)
C175 C -0.1904(4) 0.3881(3) 0.29063(17)
C176 C -0.4265(3) 0.2001(3) 0.43671(16)
H101 H -0.4165 0.2151 0.4101
C177 C -0.0245(3) 0.5997(3) 0.54464(18)
C178 C 0.0437(3) 0.5874(3) 0.46106(18)
H102 H 0.0848 0.5805 0.4824
H103 H 0.0693 0.6051 0.4367
H104 H 0.0248 0.5463 0.4587
O4 O -0.9080(3) -0.1091(3) 0.55278(14)
C179 C -0.8438(4) -0.0824(3) 0.54923(19)
C180 C -0.6707(3) 0.2174(3) 0.5409(2)
H105 H -0.7064 0.1869 0.5517
C181 C -0.6677(3) 0.2446(3) 0.50379(19)
H106 H -0.6995 0.2365 0.4828
C182 C -0.0047(4) 0.7006(3) 0.4714(2)
H107 H -0.0533 0.7305 0.4763
H108 H 0.0200 0.7174 0.4466
H109 H 0.0366 0.6959 0.4924
C183 C -0.0192(3) 0.5673(4) 0.61972(17)
C184 C -0.1037(4) 0.3296(4) 0.66478(17)
C185 C -0.1817(4) 0.3644(4) 0.66455(16)
C186 C -0.6380(3) 0.1860(3) 0.62816(19)
C187 C -0.1020(4) 0.3361(3) 0.24760(16)
C188 C -0.7194(4) 0.2118(4) 0.6348(3)
C189 C -0.0084(5) 0.6348(4) 0.6261(2)
H110 H 0.0185 0.6575 0.6035
H111 H 0.0263 0.6319 0.6494
H112 H -0.0633 0.6586 0.6296
C190 C -0.0698(4) 0.5379(4) 0.65407(19)
H113 H -0.1266 0.5609 0.6524
H114 H -0.0431 0.5417 0.6785
H115 H -0.0720 0.4924 0.6533
C191 C -0.8433(5) -0.0829(4) 0.6231(2)
C192 C 0.0642(4) 0.5239(5) 0.6204(2)
H116 H 0.0540 0.4804 0.6177
H117 H 0.0937 0.5220 0.6450
H118 H 0.0983 0.5414 0.5987
C193 C -0.9314(5) -0.0480(4) 0.6227(2)
H119 H -0.9298 -0.0014 0.6171
H120 H -0.9565 -0.0598 0.6481
H121 H -0.9649 -0.0603 0.6026
C194 C -0.8444(6) -0.1572(4) 0.6342(2)
H122 H -0.8785 -0.1715 0.6152
H123 H -0.8681 -0.1673 0.6601
H124 H -0.7873 -0.1792 0.6344
C195 C -0.7455(6) 0.1171(5) 0.6767(3)
C196 C -0.7709(5) 0.1773(5) 0.6580(3)
C197 C -0.7317(4) 0.4159(4) 0.28936(18)
C198 C -0.6824(3) 0.3577(3) 0.29890(18)
C199 C -0.7559(6) 0.3175(6) 0.2499(2)
C200 C -0.6924(4) 0.3096(4) 0.2771(2)
C201 C -0.8102(5) 0.3747(6) 0.2430(2)
C202 C -0.7999(4) 0.4253(5) 0.26339(19)
F41 F -0.6414(3) 0.2534(2) 0.28283(15)
F42 F -0.7654(4) 0.2676(4) 0.23026(16)
F43 F -0.8738(3) 0.3814(4) 0.21804(16)
F44 F -0.8472(3) 0.4807(3) 0.25500(14)
F45 F -0.7230(3) 0.4631(2) 0.30704(14)
C203 C -0.4474(3) 0.5300(3) 0.35746(15)
C204 C -0.4525(4) 0.5835(3) 0.37503(18)
H125 H -0.5049 0.6092 0.3758
C205 C -0.3006(4) 0.5111(4) 0.3731(2)
H126 H -0.2477 0.4860 0.3724
C206 C -0.3845(4) 0.6006(3) 0.3913(2)
H127 H -0.3898 0.6376 0.4033
C207 C -0.5214(4) 0.5095(3) 0.33985(16)
H128 H -0.5465 0.4789 0.3593
H129 H -0.5036 0.4890 0.3177
H130 H -0.5625 0.5473 0.3310
C208 C -0.3698(4) 0.4938(3) 0.35684(18)
H131 H -0.3643 0.4566 0.3450
C209 C -0.3083(4) 0.5645(4) 0.3905(2)
H132 H -0.2608 0.5764 0.4019
C210 C 0.0600(3) 0.4617(3) 0.14200(13)
C211 C 0.1222(3) 0.5008(3) 0.14203(15)
H133 H 0.1124 0.5375 0.1542
C212 C 0.0763(3) 0.4086(3) 0.12391(15)
H134 H 0.0350 0.3808 0.1236
C213 C 0.1981(3) 0.4877(3) 0.12476(16)
H135 H 0.2398 0.5153 0.1250
C214 C 0.2126(3) 0.4342(3) 0.10712(16)
H136 H 0.2650 0.4244 0.0956
C215 C 0.1520(3) 0.3955(3) 0.10620(16)
H137 H 0.1617 0.3595 0.0934
C216 C -0.0222(3) 0.4776(3) 0.16116(15)
H138 H -0.0603 0.5068 0.1424
H139 H -0.0128 0.4984 0.1833
H140 H -0.0467 0.4379 0.1702
C217 C 1.1488(9) 0.1503(6) 0.5053(5)
C218 C 1.1359(10) 0.1312(6) 0.5795(5)
C219 C 1.1241(10) 0.1202(7) 0.5436(6)
C220 C 1.1520(13) 0.1735(9) 0.4306(5)
C221 C 1.1250(11) 0.1447(8) 0.4680(5)
C222 C 1.1221(16) 0.1673(11) 0.3929(6)
C223 C 1.159(2) 0.1985(15) 0.3558(8)
C224 C 1.079(2) 0.2062(17) 0.3196(9)
C225 C 0.690(2) 0.121(2) 0.2186(12)
C226 C 0.6197(19) 0.1417(15) 0.2354(8)
C227 C 0.5952(18) 0.1330(15) 0.2693(8)
C228 C 0.5549(16) 0.1768(13) 0.2895(8)
C229 C 0.725(3) 0.100(2) 0.1980(12)
C230 C 0.964(4) 0.074(4) 0.226(2)
C231 C 0.5453(17) 0.1739(13) 0.3259(8)
C232 C 0.826(3) 0.085(3) 0.2003(19)
C233 C 0.862(4) 0.090(5) 0.221(3)
C234 C 0.469(2) 0.1003(15) 0.3320(12)
C235 C 0.202(4) -0.093(2) 0.3066(15)
C236 C 0.315(3) -0.0453(17) 0.3398(12)
C237 C 0.235(3) -0.032(2) 0.3123(14)
C238 C 0.355(2) 0.022(2) 0.3367(14)
C239 C 0.080(5) -0.101(4) 0.261(3)
C240 C 0.120(5) -0.103(3) 0.305(2)
C241 C 0.407(3) 0.069(2) 0.3606(12)
C242 C -0.163(3) -0.137(3) 0.2008(16)
C243 C -0.239(4) -0.111(2) 0.1619(14)
C244 C -0.553(2) -0.107(3) 0.2324(12)
C245 C -0.591(3) -0.130(3) 0.215(2)
C246 C -0.317(2) -0.094(2) 0.1887(13)
C247 C -0.679(3) -0.127(3) 0.1943(14)
C248 C -0.458(2) -0.079(2) 0.2233(12)
C249 C -0.405(3) -0.098(3) 0.2057(16)
C250 C -0.094(2) -0.1827(16) 0.1742(9)
C251 C -1.2580(7) 0.1664(5) 0.0072(4)
C252 C -1.1740(10) 0.1156(8) 0.0040(6)
C253 C -1.1435(12) 0.0917(8) 0.0458(7)
C254 C -1.0695(10) 0.0374(8) 0.0392(6)
C255 C -0.7714(16) -0.1332(14) 0.1537(7)
C256 C -0.8449(16) -0.1285(11) 0.1162(8)
C257 C -0.9022(14) -0.0714(12) 0.1142(7)
C258 C -1.0252(13) 0.0111(10) 0.0804(6)
C259 C -0.9536(13) -0.0444(10) 0.0773(7)
F21? F -0.2394(11) 0.5203(7) 0.1976(4)
F22? F -0.3646(12) 0.5079(14) 0.2495(7)
F23? F -0.4327(10) 0.6108(12) 0.2794(6)
F24? F -0.2409(12) 0.7331(6) 0.2150(5)
F25? F -0.3544(13) 0.7271(10) 0.2714(6)
C99? C -0.2693(14) 0.5665(9) 0.2146(7)
C100? C -0.3373(13) 0.5611(9) 0.2389(8)
C101? C -0.3711(9) 0.6132(10) 0.2555(5)
C102? C -0.3370(11) 0.6707(8) 0.2476(5)
C103? C -0.2690(11) 0.6761(7) 0.2233(5)
C104? C -0.2352(9) 0.6240(10) 0.2067(5)
loop_
_geom_bond_atom_site_label_1
_geom_bond_atom_site_label_2
_geom_bond_site_symmetry_1
_geom_bond_site_symmetry_2
F1 C82 1_555 1_555
F2 C42 1_555 1_555
F3 C43 1_555 1_555
F4 C55 1_555 1_555
F5 C90 1_555 1_555
F6 C44 1_555 1_555
F7 C45 1_555 1_555
F8 C92 1_555 1_555
F9 C46 1_555 1_555
F10 C47 1_555 1_555
F11 C12 1_555 1_555
F12 C71 1_555 1_555
F13 C72 1_555 1_555
F14 C81 1_555 1_555
F15 C11 1_555 1_555
C1 C2 1_555 1_555
C2 H1 1_555 1_555
C3 C2 1_555 1_555
H2 C3 1_555 1_555
C4 C3 1_555 1_555
C5 C4 1_555 1_555
C6 C5 1_555 1_555
C7 C6 1_555 1_555
H3 C7 1_555 1_555
C8 C7 1_555 1_555
H4 C8 1_555 1_555
C9 C8 1_555 1_555
C10 C9 1_555 1_555
S1 C27 1_555 1_555
S2 C40 1_555 1_555
S3 C24 1_555 1_555
S4 C73 1_555 1_555
N1 C1 1_555 1_555
N2 C6 1_555 1_555
H5 N2 1_555 1_555
N3 C28 1_555 1_555
N4 C29 1_555 1_555
N5 H6 1_555 1_555
N6 C25 1_555 1_555
C11 C39 1_555 1_555
C12 C39 1_555 1_555
C13 C36 1_555 1_555
C14 H7 1_555 1_555
C15 H8 1_555 1_555
C16 H9 1_555 1_555
O1 C63 1_555 1_555
O2 C36 1_555 1_555
C17 C24 1_555 1_555
C18 C16 1_555 1_555
H10 C18 1_555 1_555
C19 C15 1_555 1_555
C20 C15 1_555 1_555
C21 C19 1_555 1_555
H11 C21 1_555 1_555
C22 C1 1_555 1_555
C23 H12 1_555 1_555
C24 C32 1_555 1_555
C25 C16 1_555 1_555
C26 S3 1_555 1_555
C27 C26 1_555 1_555
C28 C17 1_555 1_555
C29 C65 1_555 1_555
C30 H13 1_555 1_555
C31 C23 1_555 1_555
H14 C31 1_555 1_555
C32 H15 1_555 1_555
C33 C14 1_555 1_555
H16 C33 1_555 1_555
C34 S1 1_555 1_555
C35 C21 1_555 1_555
C36 C41 1_555 1_555
C37 C39 1_555 1_555
C38 H17 1_555 1_555
C40 C22 1_555 1_555
C41 C58 1_555 1_555
C42 C43 1_555 1_555
C43 C55 1_555 1_555
C44 C45 1_555 1_555
C45 C92 1_555 1_555
C46 C47 1_555 1_555
C47 C85 1_555 1_555
C48 H18 1_555 1_555
H19 C48 1_555 1_555
H20 C48 1_555 1_555
C49 H21 1_555 1_555
H22 C49 1_555 1_555
H23 C49 1_555 1_555
C50 H24 1_555 1_555
H25 C50 1_555 1_555
H26 C50 1_555 1_555
C51 H27 1_555 1_555
H28 C51 1_555 1_555
H29 C51 1_555 1_555
C52 H30 1_555 1_555
H31 C52 1_555 1_555
H32 C52 1_555 1_555
C53 H33 1_555 1_555
H34 C53 1_555 1_555
H35 C53 1_555 1_555
C54 H36 1_555 1_555
H37 C54 1_555 1_555
H38 C54 1_555 1_555
C55 C90 1_555 1_555
C56 N4 1_555 1_555
C57 S2 1_555 1_555
C58 H39 1_555 1_555
C59 C28 1_555 1_555
H40 C59 1_555 1_555
C60 C13 1_555 1_555
H41 C60 1_555 1_555
C61 C41 1_555 1_555
C62 C26 1_555 1_555
H42 C62 1_555 1_555
C63 C20 1_555 1_555
C64 C58 1_555 1_555
C65 C68 1_555 1_555
C66 C35 1_555 1_555
C67 C38 1_555 1_555
H43 C67 1_555 1_555
C68 N5 1_555 1_555
C69 N5 1_555 1_555
C70 N6 1_555 1_555
C71 C12 1_555 1_555
C72 C71 1_555 1_555
C73 C57 1_555 1_555
C74 H44 1_555 1_555
C75 C20 1_555 1_555
C76 C75 1_555 1_555
H45 C76 1_555 1_555
H46 C76 1_555 1_555
H47 C76 1_555 1_555
C77 C59 1_555 1_555
H48 C77 1_555 1_555
C78 C10 1_555 1_555
C79 S4 1_555 1_555
C80 C29 1_555 1_555
H49 C80 1_555 1_555
C81 C11 1_555 1_555
C82 C42 1_555 1_555
C83 C73 1_555 1_555
H50 C83 1_555 1_555
C84 C75 1_555 1_555
H51 C84 1_555 1_555
H52 C84 1_555 1_555
H53 C84 1_555 1_555
C85 C44 1_555 1_555
C86 C13 1_555 1_555
C87 C61 1_555 1_555
H54 C87 1_555 1_555
H55 C87 1_555 1_555
H56 C87 1_555 1_555
C88 C75 1_555 1_555
H57 C88 1_555 1_555
H58 C88 1_555 1_555
H59 C88 1_555 1_555
C89 C5 1_555 1_555
C90 C89 1_555 1_555
C91 C86 1_555 1_555
H60 C91 1_555 1_555
H61 C91 1_555 1_555
H62 C91 1_555 1_555
C92 C46 1_555 1_555
C93 C10 1_555 1_555
C94 C96 1_555 1_555
C95 C97 1_555 1_555
C96 C93 1_555 1_555
C97 C93 1_555 1_555
C98 C94 1_555 1_555
F16 C96 1_555 1_555
F17 C94 1_555 1_555
F18 C98 1_555 1_555
F19 C95 1_555 1_555
F20 C97 1_555 1_555
F26 C167 1_555 1_555
F27 C168 1_555 1_555
F28 C184 1_555 1_555
F29 C185 1_555 1_555
F30 C169 1_555 1_555
F31 C170 1_555 1_555
F32 C171 1_555 1_555
F33 C195 1_555 1_555
F34 C196 1_555 1_555
F35 C188 1_555 1_555
F36 C175 1_555 1_555
F37 C174 1_555 1_555
F38 C187 1_555 1_555
F39 C173 1_555 1_555
F40 C172 1_555 1_555
N7 C120 1_555 1_555
N8 H63 1_555 1_555
S5 C122 1_555 1_555
S6 C138 1_555 1_555
S7 C117 1_555 1_555
S8 C124 1_555 1_555
N9 H64 1_555 1_555
N10 C135 1_555 1_555
N11 C112 1_555 1_555
C105 C131 1_555 1_555
N12 C131 1_555 1_555
C106 N9 1_555 1_555
C107 C106 1_555 1_555
C108 C120 1_555 1_555
C109 H65 1_555 1_555
C110 C109 1_555 1_555
H66 C110 1_555 1_555
C111 N8 1_555 1_555
C112 C142 1_555 1_555
C113 H67 1_555 1_555
C114 H68 1_555 1_555
C115 H69 1_555 1_555
H70 C115 1_555 1_555
H71 C115 1_555 1_555
C116 H72 1_555 1_555
H73 C116 1_555 1_555
H74 C116 1_555 1_555
C117 C163 1_555 1_555
O3 C177 1_555 1_555
C118 H75 1_555 1_555
C119 C130 1_555 1_555
C120 C151 1_555 1_555
C121 N11 1_555 1_555
C122 C142 1_555 1_555
C123 S5 1_555 1_555
C124 C123 1_555 1_555
C125 H76 1_555 1_555
C126 C125 1_555 1_555
H77 C126 1_555 1_555
C127 H78 1_555 1_555
C128 C129 1_555 1_555
C129 H79 1_555 1_555
C130 C167 1_555 1_555
C131 C181 1_555 1_555
C132 S7 1_555 1_555
C133 N9 1_555 1_555
C134 C127 1_555 1_555
C135 C136 1_555 1_555
C136 C118 1_555 1_555
H80 C136 1_555 1_555
C137 C132 1_555 1_555
H81 C137 1_555 1_555
C138 C126 1_555 1_555
C139 N10 1_555 1_555
C140 C133 1_555 1_555
H82 C140 1_555 1_555
C141 N7 1_555 1_555
C142 C135 1_555 1_555
C143 C148 1_555 1_555
C144 C127 1_555 1_555
C145 N12 1_555 1_555
C146 C141 1_555 1_555
H83 C146 1_555 1_555
C147 N8 1_555 1_555
C148 C111 1_555 1_555
C149 C121 1_555 1_555
H84 C149 1_555 1_555
C150 C112 1_555 1_555
H85 C150 1_555 1_555
C151 C146 1_555 1_555
H86 C151 1_555 1_555
C152 C106 1_555 1_555
H87 C152 1_555 1_555
C153 C124 1_555 1_555
H88 C153 1_555 1_555
C154 C153 1_555 1_555
H89 C154 1_555 1_555
C155 S8 1_555 1_555
C156 C114 1_555 1_555
C157 C114 1_555 1_555
C158 C159 1_555 1_555
C159 C156 1_555 1_555
H90 C159 1_555 1_555
C160 C115 1_555 1_555
C161 C160 1_555 1_555
H91 C161 1_555 1_555
H92 C161 1_555 1_555
H93 C161 1_555 1_555
C162 H94 1_555 1_555
H95 C162 1_555 1_555
H96 C162 1_555 1_555
C163 C137 1_555 1_555
H97 C163 1_555 1_555
C164 S6 1_555 1_555
C165 C144 1_555 1_555
C166 C165 1_555 1_555
H98 C166 1_555 1_555
H99 C166 1_555 1_555
H100 C166 1_555 1_555
C167 C168 1_555 1_555
C168 C184 1_555 1_555
C169 C130 1_555 1_555
C170 C171 1_555 1_555
C171 C195 1_555 1_555
C172 C143 1_555 1_555
C173 C172 1_555 1_555
C174 C175 1_555 1_555
C175 C143 1_555 1_555
C176 C113 1_555 1_555
H101 C176 1_555 1_555
C177 C128 1_555 1_555
C178 C165 1_555 1_555
H102 C178 1_555 1_555
H103 C178 1_555 1_555
H104 C178 1_555 1_555
O4 C179 1_555 1_555
C179 C157 1_555 1_555
C180 C145 1_555 1_555
H105 C180 1_555 1_555
C181 C180 1_555 1_555
H106 C181 1_555 1_555
C182 C165 1_555 1_555
H107 C182 1_555 1_555
H108 C182 1_555 1_555
H109 C182 1_555 1_555
C183 C128 1_555 1_555
C184 C185 1_555 1_555
C185 C169 1_555 1_555
C186 C107 1_555 1_555
C187 C173 1_555 1_555
C188 C186 1_555 1_555
C189 C183 1_555 1_555
H110 C189 1_555 1_555
H111 C189 1_555 1_555
H112 C189 1_555 1_555
C190 C183 1_555 1_555
H113 C190 1_555 1_555
H114 C190 1_555 1_555
H115 C190 1_555 1_555
C191 C158 1_555 1_555
C192 C183 1_555 1_555
H116 C192 1_555 1_555
H117 C192 1_555 1_555
H118 C192 1_555 1_555
C193 C191 1_555 1_555
H119 C193 1_555 1_555
H120 C193 1_555 1_555
H121 C193 1_555 1_555
C194 C191 1_555 1_555
H122 C194 1_555 1_555
H123 C194 1_555 1_555
H124 C194 1_555 1_555
C195 C196 1_555 1_555
C196 C188 1_555 1_555
C197 C198 1_555 1_555
C198 C108 1_555 1_555
C199 C200 1_555 1_555
C200 C198 1_555 1_555
C201 C199 1_555 1_555
C202 C197 1_555 1_555
F41 C200 1_555 1_555
F42 C199 1_555 1_555
F43 C201 1_555 1_555
F44 C202 1_555 1_555
F45 C197 1_555 1_555
C203 C204 1_555 1_555
C204 H125 1_555 1_555
C205 H126 1_555 1_555
C206 C204 1_555 1_555
H127 C206 1_555 1_555
C207 C203 1_555 1_555
H128 C207 1_555 1_555
H129 C207 1_555 1_555
H130 C207 1_555 1_555
C208 C203 1_555 1_555
H131 C208 1_555 1_555
C209 C205 1_555 1_555
H132 C209 1_555 1_555
C210 C211 1_555 1_555
C211 H133 1_555 1_555
C212 C210 1_555 1_555
H134 C212 1_555 1_555
C213 C211 1_555 1_555
H135 C213 1_555 1_555
C214 C213 1_555 1_555
H136 C214 1_555 1_555
C215 C212 1_555 1_555
H137 C215 1_555 1_555
C216 C210 1_555 1_555
H138 C216 1_555 1_555
H139 C216 1_555 1_555
H140 C216 1_555 1_555
C217 C219 1_555 1_555
C218 C219 1_555 1_555
C220 C221 1_555 1_555
C221 C217 1_555 1_555
C222 C220 1_555 1_555
C223 C222 1_555 1_555
C224 C223 1_555 1_555
C225 C226 1_555 1_555
C226 C227 1_555 1_555
C227 C228 1_555 1_555
C228 C231 1_555 1_555
C229 C225 1_555 1_555
C230 C233 1_555 1_555
C232 C229 1_555 1_555
C233 C232 1_555 1_555
C234 C241 1_555 1_555
C235 C237 1_555 1_555
C236 C237 1_555 1_555
C238 C236 1_555 1_555
C239 C240 1_555 1_555
C240 C235 1_555 1_555
C241 C238 1_555 1_555
C242 C243 1_555 1_555
C243 C246 1_555 1_555
C244 C245 1_555 1_555
C245 C247 1_555 1_555
C246 C249 1_555 1_555
C248 C244 1_555 1_555
C249 C248 1_555 1_555
C250 C242 1_555 1_555
C251 C252 1_555 1_555
C252 C253 1_555 1_555
C253 C254 1_555 1_555
C254 C258 1_555 1_555
C255 C256 1_555 1_555
C256 C257 1_555 1_555
C257 C259 1_555 1_555
C258 C259 1_555 1_555
C4 N1 1_555 1_555
C9 N2 1_555 1_555
N3 C78 1_555 1_555
C14 C34 1_555 1_555
C17 C56 1_555 1_555
C18 C70 1_555 1_555
C19 C34 1_555 1_555
C22 C25 1_555 1_555
C23 C40 1_555 1_555
C27 C33 1_555 1_555
C30 C56 1_555 1_555
C30 C80 1_555 1_555
C31 C57 1_555 1_555
C32 C62 1_555 1_555
C35 C63 1_555 1_555
C37 C69 1_555 1_555
C37 C70 1_555 1_555
C38 C68 1_555 1_555
C48 C61 1_555 1_555
C49 C61 1_555 1_555
C50 C86 1_555 1_555
C51 C86 1_555 1_555
C52 C66 1_555 1_555
C53 C66 1_555 1_555
C54 C66 1_555 1_555
C60 C64 1_555 1_555
C64 C79 1_555 1_555
C65 C85 1_555 1_555
C67 C69 1_555 1_555
C72 C81 1_555 1_555
C74 C79 1_555 1_555
C74 C83 1_555 1_555
C77 C78 1_555 1_555
C82 C89 1_555 1_555
C95 C98 1_555 1_555
C105 C132 1_555 1_555
C105 C141 1_555 1_555
C107 C145 1_555 1_555
C108 C147 1_555 1_555
C109 C147 1_555 1_555
C110 C111 1_555 1_555
C113 C123 1_555 1_555
C116 C160 1_555 1_555
C117 C164 1_555 1_555
C118 C139 1_555 1_555
C119 C133 1_555 1_555
C119 C139 1_555 1_555
C121 C148 1_555 1_555
C122 C176 1_555 1_555
C125 C164 1_555 1_555
C129 C134 1_555 1_555
C134 C138 1_555 1_555
C140 C152 1_555 1_555
C144 C177 1_555 1_555
C149 C150 1_555 1_555
C154 C155 1_555 1_555
C155 C156 1_555 1_555
C157 C160 1_555 1_555
C158 C179 1_555 1_555
C162 C191 1_555 1_555
C170 C186 1_555 1_555
C174 C187 1_555 1_555
C201 C202 1_555 1_555
C205 C208 1_555 1_555
C206 C209 1_555 1_555
C214 C215 1_555 1_555

#END
