
#######################################################################
#
#                 Cambridge Crystallographic Data Centre
#                                CCDC 
#
#######################################################################
#
# If this CIF has been generated from an entry in the Cambridge 
# Structural Database, then it will include bibliographic, chemical, 
# crystal, experimental, refinement or atomic coordinate data resulting 
# from the CCDC's data processing and validation procedures.
#
#######################################################################

data_TEKJEY
_chemical_formula_moiety         'C18 H18 O4'
_chemical_name_systematic        
'4-Methoxy-2-(4,4-dimethyl-2-oxo-butan-1-ol)-1-naphthoic-acid lactone'
_symmetry_cell_setting           monoclinic
_symmetry_space_group_name_H-M   'P 21/n'
_symmetry_Int_Tables_number      14
_space_group_name_Hall           '-P 2yn'
loop_
_symmetry_equiv_pos_site_id
_symmetry_equiv_pos_as_xyz
1 x,y,z
2 1/2-x,1/2+y,1/2-z
3 -x,-y,-z
4 1/2+x,1/2-y,1/2+z
_cell_length_a                   11.3530(10)
_cell_length_b                   9.5860(10)
_cell_length_c                   14.0950(10)
_cell_angle_alpha                90
_cell_angle_beta                 97.360(10)
_cell_angle_gamma                90
_cell_volume                     1521.32
_exptl_crystal_colour            white
_chemical_melting_point          446-447K
_cell_formula_units_Z            4
loop_
_atom_site_label
_atom_site_type_symbol
_atom_site_fract_x
_atom_site_fract_y
_atom_site_fract_z
C1 C 0.11053(13) 0.1567(2) 0.81573(10)
C2 C 0.01857(13) 0.0552(2) 0.81507(11)
C3 C -0.0895(2) 0.0650(2) 0.75226(14)
C4 C -0.1768(2) -0.0311(3) 0.7541(2)
C5 C -0.1617(2) -0.1426(3) 0.8182(2)
C6 C -0.0589(2) -0.1576(2) 0.87928(14)
C7 C 0.03367(13) -0.0594(2) 0.87900(11)
C8 C 0.14371(14) -0.0716(2) 0.93861(11)
C9 C 0.22975(14) 0.0273(2) 0.93801(11)
C10 C 0.21414(13) 0.1467(2) 0.87842(10)
C11 C 0.31398(14) 0.2559(2) 0.88365(11)
C12 C 0.2643(2) 0.4060(2) 0.8689(2)
C13 C 0.1581(2) 0.4277(2) 0.92131(15)
C14 C 0.0346(2) 0.4148(2) 0.8671(2)
C15 C 0.0867(2) 0.2684(2) 0.74184(12)
C16 C 0.2652(2) -0.2143(3) 1.0494(2)
C17 C 0.3922(2) 0.2523(3) 0.9813(2)
C18 C 0.3928(2) 0.2233(3) 0.8058(2)
O1 O 0.15382(12) -0.18795(14) 0.99422(10)
O2 O 0.16670(14) 0.4510(2) 1.00634(11)
O3 O 0.03371(12) 0.38682(14) 0.76707(10)
O4 O 0.10405(14) 0.2549(2) 0.66025(9)
H1 H -0.1035(20) 0.1445(26) 0.7049(17)
H2 H -0.2540(21) -0.0213(24) 0.7077(16)
H3 H -0.2212(25) -0.2060(30) 0.8175(18)
H4 H -0.0415(16) -0.2326(21) 0.9251(13)
H5 H 0.3030(17) 0.0128(19) 0.9796(12)
H6 H 0.3253(18) 0.4718(23) 0.8945(14)
H7 H 0.2473(17) 0.4280(22) 0.8009(16)
H8 H -0.0057(22) 0.5037(28) 0.8688(18)
H9 H -0.0081(19) 0.3364(25) 0.8957(15)
H10 H 0.3287(21) -0.2113(25) 1.0091(17)
H11 H 0.2545(20) -0.3054(28) 1.0765(17)
H12 H 0.2835(20) -0.1463(29) 1.0990(19)
H13 H 0.4482(20) 0.3304(26) 0.9838(16)
H14 H 0.4364(24) 0.1598(32) 0.9902(19)
H15 H 0.3413(22) 0.2706(25) 1.0333(18)
H16 H 0.4551(19) 0.2930(22) 0.8088(14)
H17 H 0.4289(21) 0.1277(28) 0.8203(16)
H18 H 0.3442(20) 0.2257(24) 0.7401(17)
loop_
_geom_bond_atom_site_label_1
_geom_bond_atom_site_label_2
_geom_bond_site_symmetry_1
_geom_bond_site_symmetry_2
C1 C2 1_555 1_555
C2 C3 1_555 1_555
C3 C4 1_555 1_555
C4 C5 1_555 1_555
C5 C6 1_555 1_555
C6 C7 1_555 1_555
C7 C2 1_555 1_555
C8 C7 1_555 1_555
C9 C8 1_555 1_555
C10 C1 1_555 1_555
C11 C10 1_555 1_555
C12 C11 1_555 1_555
C13 C12 1_555 1_555
C14 C13 1_555 1_555
C15 C1 1_555 1_555
C16 O1 1_555 1_555
C17 C11 1_555 1_555
C18 C11 1_555 1_555
O1 C8 1_555 1_555
O2 C13 1_555 1_555
O3 C14 1_555 1_555
O4 C15 1_555 1_555
H1 C3 1_555 1_555
H2 C4 1_555 1_555
H3 C5 1_555 1_555
H4 C6 1_555 1_555
H5 C9 1_555 1_555
H6 C12 1_555 1_555
H7 C12 1_555 1_555
H8 C14 1_555 1_555
H9 C14 1_555 1_555
H10 C16 1_555 1_555
H11 C16 1_555 1_555
H12 C16 1_555 1_555
H13 C17 1_555 1_555
H14 C17 1_555 1_555
H15 C17 1_555 1_555
H16 C18 1_555 1_555
H17 C18 1_555 1_555
H18 C18 1_555 1_555
C9 C10 1_555 1_555
C15 O3 1_555 1_555

#END
