
#######################################################################
#
#                 Cambridge Crystallographic Data Centre
#                                CCDC 
#
#######################################################################
#
# If this CIF has been generated from an entry in the Cambridge 
# Structural Database, then it will include bibliographic, chemical, 
# crystal, experimental, refinement or atomic coordinate data resulting 
# from the CCDC's data processing and validation procedures.
#
#######################################################################

data_TEKJAU
_chemical_formula_moiety         'C17 H20 O3'
_chemical_name_systematic        
'(+-)-3-Formyl-1-methyl-2-(2-phenylethyl)cyclohex-2-enecarboxylic acid'
_symmetry_cell_setting           monoclinic
_symmetry_space_group_name_H-M   'P 21/a'
_symmetry_Int_Tables_number      14
_space_group_name_Hall           '-P 2yab'
loop_
_symmetry_equiv_pos_site_id
_symmetry_equiv_pos_as_xyz
1 x,y,z
2 1/2-x,1/2+y,-z
3 -x,-y,-z
4 1/2+x,1/2-y,z
_cell_length_a                   10.598(2)
_cell_length_b                   9.184(2)
_cell_length_c                   16.683(3)
_cell_angle_alpha                90
_cell_angle_beta                 108.39(2)
_cell_angle_gamma                90
_cell_volume                     1540.87
_exptl_crystal_colour            white
_cell_formula_units_Z            4
loop_
_atom_site_label
_atom_site_type_symbol
_atom_site_fract_x
_atom_site_fract_y
_atom_site_fract_z
C1 C 0.8359(12) 0.3884(11) 0.4328(6)
C2 C 0.7960(10) 0.3823(8) 0.3374(6)
C3 C 0.7750(8) 0.2546(10) 0.2959(4)
C4 C 0.7965(9) 0.1118(9) 0.3407(6)
C5 C 0.8486(13) 0.1245(13) 0.4376(8)
C6 C 0.794(2) 0.257(2) 0.469(1)
C8 C 0.791(2) 0.523(2) 0.294(1)
C9 C 0.896(3) 0.018(3) 0.317(2)
C10 C 0.678(2) 0.019(1) 0.314(1)
C11 C 0.761(1) 0.241(1) 0.201(1)
C13 C 0.622(2) 0.285(3) 0.151(1)
C15 C 0.614(3) 0.273(2) 0.058(1)
C17 C 0.644(3) 0.382(3) 0.010(1)
C19 C 0.608(3) 0.372(3) -0.079(1)
C21 C 0.562(3) 0.244(2) -0.120(1)
C23 C 0.563(3) 0.130(3) -0.068(1)
C25 C 0.579(3) 0.143(3) 0.015(1)
O1 O 0.859(3) -0.115(3) 0.303(2)
O2 O 1.006(3) 0.064(2) 0.322(2)
O3 O 0.698(3) 0.595(2) 0.299(2)
H1 H 0.934 0.394 0.456
H2 H 0.802 0.476 0.451
H3 H 0.825 0.039 0.462
H4 H 0.944 0.135 0.455
H5 H 0.693 0.254 0.448
H6 H 0.819 0.261 0.529
H12 H 0.700 -0.074 0.344
H13 H 0.659 -0.003 0.254
H14 H 0.607 0.063 0.325
H15 H 0.827 0.306 0.188
H16 H 0.779 0.144 0.187
H19 H 0.605 0.388 0.162
H20 H 0.557 0.225 0.162
H23 H 0.656 0.481 0.034
H25 H 0.619 0.456 -0.110
H27 H 0.557 0.231 -0.175
H29 H 0.532 0.033 -0.095
H31 H 0.569 0.058 0.049
C7? C 0.923(2) 0.256(2) 0.468(1)
C12? C 0.696(1) 0.254(1) 0.202(1)
C14? C 0.776(2) 0.293(2) 0.143(1)
C16? C 0.700(3) 0.250(4) 0.051(2)
C18? C 0.563(3) 0.277(4) 0.014(2)
C20? C 0.490(4) 0.254(4) -0.071(2)
C22? C 0.567(3) 0.255(4) -0.124(2)
C24? C 0.703(3) 0.247(4) -0.089(2)
C26? C 0.765(4) 0.237(3) -0.006(2)
O4? O 0.688(1) -0.117(1) 0.301(1)
O5? O 0.579(3) 0.073(3) 0.319(2)
O6? O 0.881(2) 0.604(2) 0.296(2)
H7? H 1.004 0.256 0.454
H8? H 0.947 0.255 0.531
H9? H 0.980 0.071 0.331
H10? H 0.866 0.002 0.257
H11? H 0.909 -0.071 0.347
H17? H 0.658 0.159 0.186
H18? H 0.624 0.324 0.192
H21? H 0.861 0.236 0.161
H22? H 0.804 0.396 0.152
H24? H 0.511 0.288 0.057
H26? H 0.401 0.280 -0.087
H28? H 0.520 0.251 -0.181
H30? H 0.750 0.229 -0.130
H32? H 0.860 0.236 0.014
loop_
_geom_bond_atom_site_label_1
_geom_bond_atom_site_label_2
_geom_bond_site_symmetry_1
_geom_bond_site_symmetry_2
C1 C2 1_555 1_555
C2 C3 1_555 1_555
C3 C4 1_555 1_555
C4 C5 1_555 1_555
C5 C6 1_555 1_555
C6 C1 1_555 1_555
C8 C2 1_555 1_555
C9 C4 1_555 1_555
C10 C4 1_555 1_555
C11 C3 1_555 1_555
C13 C11 1_555 1_555
C15 C13 1_555 1_555
C17 C15 1_555 1_555
C19 C17 1_555 1_555
C21 C19 1_555 1_555
C23 C21 1_555 1_555
C25 C15 1_555 1_555
O1 C9 1_555 1_555
O2 C9 1_555 1_555
O3 C8 1_555 1_555
H1 C1 1_555 1_555
H2 C1 1_555 1_555
H3 C5 1_555 1_555
H4 C5 1_555 1_555
H5 C6 1_555 1_555
H6 C6 1_555 1_555
H12 C10 1_555 1_555
H13 C10 1_555 1_555
H14 C10 1_555 1_555
H15 C11 1_555 1_555
H16 C11 1_555 1_555
H19 C13 1_555 1_555
H20 C13 1_555 1_555
H23 C17 1_555 1_555
H25 C19 1_555 1_555
H27 C21 1_555 1_555
H29 C23 1_555 1_555
H31 C25 1_555 1_555
C23 C25 1_555 1_555

#END
