
#######################################################################
#
#                 Cambridge Crystallographic Data Centre
#                                CCDC 
#
#######################################################################
#
# If this CIF has been generated from an entry in the Cambridge 
# Structural Database, then it will include bibliographic, chemical, 
# crystal, experimental, refinement or atomic coordinate data resulting 
# from the CCDC's data processing and validation procedures.
#
#######################################################################

data_TEKSEK
_chemical_formula_moiety         'C16 H12 N4 O1'
_chemical_name_systematic        
4-(4-methylphenyl)[1,2,4]triazolo[1,5-a]quinazolin-5(4H)-one
_symmetry_cell_setting           triclinic
_symmetry_space_group_name_H-M   'P -1'
_symmetry_Int_Tables_number      2
_space_group_name_Hall           '-P 1'
loop_
_symmetry_equiv_pos_site_id
_symmetry_equiv_pos_as_xyz
1 x,y,z
2 -x,-y,-z
_cell_length_a                   5.2574(4)
_cell_length_b                   9.1620(7)
_cell_length_c                   15.1302(12)
_cell_angle_alpha                74.160(2)
_cell_angle_beta                 88.736(2)
_cell_angle_gamma                75.690(2)
_cell_volume                     678.562
_cell_formula_units_Z            2
loop_
_atom_site_label
_atom_site_type_symbol
_atom_site_fract_x
_atom_site_fract_y
_atom_site_fract_z
O1 O 0.0243(3) 0.3822(2) 0.3200(1)
N1 N 0.3970(3) 0.3135(2) 0.2455(1)
N2 N 0.5320(3) 0.5086(2) 0.1311(1)
N3 N 0.7601(3) 0.2663(2) 0.1473(1)
C1 C 0.8466(4) 0.3739(2) 0.0806(2)
C2 C -0.0547(4) 0.7047(3) 0.2257(2)
C3 C -0.0794(5) 0.8591(3) 0.1787(2)
C4 C 0.1029(5) 0.8985(3) 0.1153(2)
C5 C 0.3080(5) 0.7863(2) 0.0969(2)
C6 C 0.3314(4) 0.6307(2) 0.1452(1)
C7 C 0.1527(4) 0.5880(2) 0.2098(1)
C8 C 0.1788(4) 0.4230(2) 0.2632(1)
C9 C 0.5615(4) 0.3571(2) 0.1771(1)
N4 N 0.7199(4) 0.5210(2) 0.0669(1)
C10 C 0.4592(4) 0.1521(2) 0.3017(1)
C11 C 0.3137(4) 0.0525(2) 0.2907(2)
C12 C 0.3810(4) -0.1016(2) 0.3445(2)
C13 C 0.5869(5) -0.1566(2) 0.4095(1)
C14 C 0.7284(5) -0.0533(3) 0.4193(2)
C15 C 0.6657(4) 0.1012(2) 0.3658(1)
C16 C 0.6536(7) -0.3243(3) 0.4677(2)
H1 H 0.9893 0.3442 0.0464
H2 H -0.1771 0.6779 0.2684
H3 H -0.2180 0.9366 0.1895
H4 H 0.0865 1.0034 0.0844
H5 H 0.4278 0.8138 0.0533
H6 H 0.1724 0.0878 0.2479
H7 H 0.2844 -0.1698 0.3365
H8 H 0.8685 -0.0879 0.4626
H9 H 0.7626 0.1697 0.3733
H10 H 0.5112 -0.3423 0.5066
H11 H 0.8104 -0.3447 0.5051
H12 H 0.6815 -0.3930 0.4286
loop_
_geom_bond_atom_site_label_1
_geom_bond_atom_site_label_2
_geom_bond_site_symmetry_1
_geom_bond_site_symmetry_2
O1 C8 1_555 1_555
N1 C8 1_555 1_555
N2 C6 1_555 1_555
N3 C1 1_555 1_555
C1 N4 1_555 1_555
C2 C3 1_555 1_555
C3 C4 1_555 1_555
C4 C5 1_555 1_555
C5 C6 1_555 1_555
C6 C7 1_555 1_555
C7 C2 1_555 1_555
C8 C7 1_555 1_555
C9 N1 1_555 1_555
N4 N2 1_555 1_555
C10 N1 1_555 1_555
C11 C10 1_555 1_555
C12 C11 1_555 1_555
C13 C12 1_555 1_555
C14 C13 1_555 1_555
C15 C10 1_555 1_555
C16 C13 1_555 1_555
H1 C1 1_555 1_555
H2 C2 1_555 1_555
H3 C3 1_555 1_555
H4 C4 1_555 1_555
H5 C5 1_555 1_555
H6 C11 1_555 1_555
H7 C12 1_555 1_555
H8 C14 1_555 1_555
H9 C15 1_555 1_555
H10 C16 1_555 1_555
H11 C16 1_555 1_555
H12 C16 1_555 1_555
N2 C9 1_555 1_555
N3 C9 1_555 1_555
C14 C15 1_555 1_555

#END
