
#######################################################################
#
#                 Cambridge Crystallographic Data Centre
#                                CCDC 
#
#######################################################################
#
# If this CIF has been generated from an entry in the Cambridge 
# Structural Database, then it will include bibliographic, chemical, 
# crystal, experimental, refinement or atomic coordinate data resulting 
# from the CCDC's data processing and validation procedures.
#
#######################################################################

data_TELKIH
_chemical_formula_moiety         'C16 H15 N1 O1'
_chemical_name_systematic        2-(2-(pyridin-2-yl)cyclopent-1-en-1-yl)phenol
_symmetry_cell_setting           monoclinic
_symmetry_space_group_name_H-M   'P 21/c'
_symmetry_Int_Tables_number      14
_space_group_name_Hall           '-P 2ybc'
loop_
_symmetry_equiv_pos_site_id
_symmetry_equiv_pos_as_xyz
1 x,y,z
2 -x,1/2+y,1/2-z
3 -x,-y,-z
4 x,1/2-y,1/2+z
_cell_length_a                   13.8026(8)
_cell_length_b                   13.0901(8)
_cell_length_c                   14.5592(9)
_cell_angle_alpha                90
_cell_angle_beta                 104.461(2)
_cell_angle_gamma                90
_cell_volume                     2547.18
_exptl_crystal_colour            colorless
_exptl_crystal_description       block
_cell_formula_units_Z            8
loop_
_atom_site_label
_atom_site_type_symbol
_atom_site_fract_x
_atom_site_fract_y
_atom_site_fract_z
O1 O 1.10092(13) 0.19944(11) 0.21083(10)
H1 H 1.1006 0.1367 0.2230
N1 N 0.87360(14) 0.50457(14) 0.22811(13)
C1 C 0.77669(18) 0.48939(19) 0.22659(19)
H2 H 0.7414 0.5438 0.2469
C2 C 0.72584(18) 0.40081(19) 0.19780(18)
H3 H 0.6571 0.3941 0.1971
C3 C 0.77731(17) 0.32186(18) 0.16995(16)
H4 H 0.7450 0.2585 0.1510
C4 C 0.87582(16) 0.33516(17) 0.16972(15)
H5 H 0.9118 0.2809 0.1501
C5 C 0.92331(15) 0.42783(15) 0.19817(14)
C6 C 1.02894(15) 0.44805(15) 0.20062(14)
C7 C 1.08646(16) 0.53399(16) 0.26055(16)
H6 H 1.0611 0.6015 0.2346
H7 H 1.0812 0.5291 0.3270
C8 C 1.19225(19) 0.5184(2) 0.2546(2)
H8 H 1.2328 0.4892 0.3147
H9 H 1.2223 0.5843 0.2432
C9 C 1.18974(17) 0.44537(19) 0.17303(18)
H10 H 1.2006 0.4823 0.1171
H11 H 1.2415 0.3917 0.1917
C10 C 1.08617(15) 0.39986(15) 0.15220(14)
C11 C 1.06104(15) 0.31437(16) 0.08336(14)
C12 C 1.07280(15) 0.21352(16) 0.11545(15)
C13 C 1.05370(17) 0.13316(16) 0.05057(16)
H12 H 1.0616 0.0646 0.0725
C14 C 1.02367(18) 0.15273(18) -0.04468(17)
H13 H 1.0104 0.0975 -0.0883
C15 C 1.0124(2) 0.2514(2) -0.07789(17)
H14 H 0.9917 0.2644 -0.1441
C16 C 1.03162(18) 0.33161(18) -0.01412(16)
H15 H 1.0246 0.3998 -0.0372
O2 O 0.58136(12) 0.19698(12) 0.21926(10)
H16 H 0.5517 0.1835 0.1628
N2 N 0.45933(14) 0.31993(14) 0.54315(13)
C17 C 0.3650(2) 0.3148(2) 0.55150(19)
H17 H 0.3525 0.3337 0.6105
C18 C 0.28555(19) 0.2838(2) 0.4802(2)
H18 H 0.2197 0.2817 0.4890
C19 C 0.30475(19) 0.2558(2) 0.39490(19)
H19 H 0.2515 0.2350 0.3433
C20 C 0.40111(17) 0.25824(18) 0.38500(16)
H20 H 0.4151 0.2376 0.3271
C21 C 0.47834(16) 0.29116(15) 0.46061(15)
C22 C 0.58252(16) 0.29961(16) 0.45410(14)
C23 C 0.64626(18) 0.39005(18) 0.49715(17)
H21 H 0.6622 0.3876 0.5673
H22 H 0.6119 0.4553 0.4752
C24 C 0.7409(2) 0.3783(2) 0.4615(2)
H23 H 0.8012 0.3884 0.5142
H24 H 0.7416 0.4292 0.4114
C25 C 0.73856(18) 0.2695(2) 0.42174(18)
H25 H 0.7542 0.2698 0.3590
H26 H 0.7873 0.2251 0.4654
C26 C 0.63308(16) 0.23360(17) 0.41342(14)
C27 C 0.59851(15) 0.13197(16) 0.37331(15)
C28 C 0.57365(15) 0.11548(16) 0.27584(15)
C29 C 0.54283(16) 0.01961(17) 0.23904(16)
H27 H 0.5259 0.0091 0.1724
C30 C 0.53672(17) -0.06054(17) 0.29915(18)
H28 H 0.5154 -0.1260 0.2738
C31 C 0.56156(18) -0.04553(18) 0.39579(18)
H29 H 0.5577 -0.1006 0.4373
C32 C 0.59206(18) 0.04988(18) 0.43217(17)
H30 H 0.6090 0.0597 0.4989
loop_
_geom_bond_atom_site_label_1
_geom_bond_atom_site_label_2
_geom_bond_site_symmetry_1
_geom_bond_site_symmetry_2
O1 H1 1_555 1_555
N1 C1 1_555 1_555
C1 H2 1_555 1_555
C2 C1 1_555 1_555
H3 C2 1_555 1_555
C3 C2 1_555 1_555
H4 C3 1_555 1_555
C4 C3 1_555 1_555
H5 C4 1_555 1_555
C5 N1 1_555 1_555
C6 C5 1_555 1_555
C7 C6 1_555 1_555
H6 C7 1_555 1_555
H7 C7 1_555 1_555
C8 C7 1_555 1_555
H8 C8 1_555 1_555
H9 C8 1_555 1_555
C9 C8 1_555 1_555
H10 C9 1_555 1_555
H11 C9 1_555 1_555
C10 C6 1_555 1_555
C11 C10 1_555 1_555
C12 O1 1_555 1_555
C13 C12 1_555 1_555
H12 C13 1_555 1_555
C14 C13 1_555 1_555
H13 C14 1_555 1_555
C15 C14 1_555 1_555
H14 C15 1_555 1_555
C16 C11 1_555 1_555
H15 C16 1_555 1_555
O2 H16 1_555 1_555
N2 C17 1_555 1_555
C17 H17 1_555 1_555
C18 C17 1_555 1_555
H18 C18 1_555 1_555
C19 C18 1_555 1_555
H19 C19 1_555 1_555
C20 C19 1_555 1_555
H20 C20 1_555 1_555
C21 N2 1_555 1_555
C22 C21 1_555 1_555
C23 C22 1_555 1_555
H21 C23 1_555 1_555
H22 C23 1_555 1_555
C24 C23 1_555 1_555
H23 C24 1_555 1_555
H24 C24 1_555 1_555
C25 C24 1_555 1_555
H25 C25 1_555 1_555
H26 C25 1_555 1_555
C26 C22 1_555 1_555
C27 C26 1_555 1_555
C28 O2 1_555 1_555
C29 C28 1_555 1_555
H27 C29 1_555 1_555
C30 C29 1_555 1_555
H28 C30 1_555 1_555
C31 C30 1_555 1_555
H29 C31 1_555 1_555
C32 C27 1_555 1_555
H30 C32 1_555 1_555
C4 C5 1_555 1_555
C9 C10 1_555 1_555
C11 C12 1_555 1_555
C15 C16 1_555 1_555
C20 C21 1_555 1_555
C25 C26 1_555 1_555
C27 C28 1_555 1_555
C31 C32 1_555 1_555

#END
