
#######################################################################
#
#                 Cambridge Crystallographic Data Centre
#                                CCDC 
#
#######################################################################
#
# If this CIF has been generated from an entry in the Cambridge 
# Structural Database, then it will include bibliographic, chemical, 
# crystal, experimental, refinement or atomic coordinate data resulting 
# from the CCDC's data processing and validation procedures.
#
#######################################################################

data_TELQAF
_chemical_formula_moiety         'C26 H19 N3 O1,C1 H1 Cl3'
_chemical_name_systematic        
'7,11-dimethyl-5-(quinolin-8-yl)-5,11-dihydro-6H-indolo[3,2-c]quinolin-6-one chloroform solvate'
_symmetry_cell_setting           monoclinic
_symmetry_space_group_name_H-M   'P 21/c'
_symmetry_Int_Tables_number      14
_space_group_name_Hall           '-P 2ybc'
loop_
_symmetry_equiv_pos_site_id
_symmetry_equiv_pos_as_xyz
1 x,y,z
2 -x,1/2+y,1/2-z
3 -x,-y,-z
4 x,1/2-y,1/2+z
_cell_length_a                   11.0528(4)
_cell_length_b                   27.2266(9)
_cell_length_c                   7.6920(3)
_cell_angle_alpha                90
_cell_angle_beta                 101.4370(10)
_cell_angle_gamma                90
_cell_volume                     2268.79
_exptl_crystal_colour            colorless
_exptl_crystal_description       block
_cell_formula_units_Z            4
loop_
_atom_site_label
_atom_site_type_symbol
_atom_site_fract_x
_atom_site_fract_y
_atom_site_fract_z
C1 C 1.05272(14) 0.08407(5) 0.0646(2)
C2 C 0.94200(16) 0.08802(6) -0.2195(2)
H1 H 0.8813 0.1029 -0.3042
C3 C 1.00702(17) 0.04852(6) -0.2748(2)
H2 H 0.9880 0.0374 -0.3914
C4 C 1.09827(16) 0.02678(6) -0.1547(2)
H3 H 1.1422 0.0004 -0.1881
C5 C 1.12573(14) 0.04474(5) 0.0216(2)
C6 C 1.22022(15) 0.02521(6) 0.1550(2)
H4 H 1.2688 -0.0004 0.1275
C7 C 1.24102(15) 0.04347(6) 0.3231(2)
H5 H 1.3041 0.0305 0.4090
C8 C 1.16755(14) 0.08199(6) 0.3677(2)
H6 H 1.1817 0.0941 0.4830
C9 C 1.07571(14) 0.10156(5) 0.2420(2)
C10 C 1.03289(14) 0.18956(5) 0.26754(19)
C11 C 1.14706(15) 0.20033(6) 0.2239(2)
H7 H 1.1996 0.1749 0.2063
C12 C 1.18183(16) 0.24839(7) 0.2069(2)
H8 H 1.2579 0.2552 0.1780
C13 C 1.10477(17) 0.28652(6) 0.2323(2)
H9 H 1.1289 0.3189 0.2205
C14 C 0.99225(16) 0.27660(6) 0.2752(2)
H10 H 0.9409 0.3025 0.2921
C15 C 0.95326(14) 0.22812(5) 0.29409(19)
C16 C 0.83758(14) 0.21355(5) 0.33954(19)
C17 C 0.80552(13) 0.16448(5) 0.35629(19)
C18 C 0.88613(13) 0.12535(5) 0.32421(19)
C19 C 0.68408(14) 0.16329(5) 0.40092(19)
C20 C 0.60250(14) 0.12662(6) 0.4410(2)
C21 C 0.49116(16) 0.14252(7) 0.4787(2)
H11 H 0.4358 0.1191 0.5038
C22 C 0.45851(16) 0.19186(7) 0.4806(2)
H12 H 0.3825 0.2004 0.5061
C23 C 0.53656(16) 0.22814(7) 0.4454(2)
H13 H 0.5154 0.2612 0.4475
C24 C 0.64920(14) 0.21318(6) 0.4065(2)
C25 C 0.62993(16) 0.07244(6) 0.4514(2)
H14 H 0.6928 0.0658 0.5540
H15 H 0.6581 0.0623 0.3467
H16 H 0.5563 0.0547 0.4600
C26 C 0.73618(17) 0.29631(6) 0.3752(3)
H17 H 0.8084 0.3090 0.4524
H18 H 0.6640 0.3060 0.4183
H19 H 0.7316 0.3091 0.2578
N1 N 0.96065(12) 0.10558(5) -0.05657(17)
N2 N 0.74310(12) 0.24286(5) 0.37061(17)
N3 N 0.99887(11) 0.14054(4) 0.28651(16)
O1 O 0.86438(10) 0.08106(4) 0.32901(15)
C27 C 0.46640(17) 0.08240(6) 0.9700(2)
H20 H 0.4578 0.0695 1.0860
Cl1 Cl 0.62314(4) 0.09400(2) 0.97692(6)
Cl2 Cl 0.41224(4) 0.03730(2) 0.80862(6)
Cl3 Cl 0.37766(6) 0.13613(2) 0.92891(9)
loop_
_geom_bond_atom_site_label_1
_geom_bond_atom_site_label_2
_geom_bond_site_symmetry_1
_geom_bond_site_symmetry_2
C1 C5 1_555 1_555
C2 H1 1_555 1_555
C3 C2 1_555 1_555
H2 C3 1_555 1_555
C4 C3 1_555 1_555
H3 C4 1_555 1_555
C5 C4 1_555 1_555
C6 C5 1_555 1_555
H4 C6 1_555 1_555
C7 C6 1_555 1_555
H5 C7 1_555 1_555
C8 C7 1_555 1_555
H6 C8 1_555 1_555
C9 C1 1_555 1_555
C10 C11 1_555 1_555
C11 H7 1_555 1_555
C12 C11 1_555 1_555
H8 C12 1_555 1_555
C13 C12 1_555 1_555
H9 C13 1_555 1_555
C14 C13 1_555 1_555
H10 C14 1_555 1_555
C15 C10 1_555 1_555
C16 C15 1_555 1_555
C17 C16 1_555 1_555
C18 C17 1_555 1_555
C19 C17 1_555 1_555
C20 C19 1_555 1_555
C21 C20 1_555 1_555
H11 C21 1_555 1_555
C22 C21 1_555 1_555
H12 C22 1_555 1_555
C23 C22 1_555 1_555
H13 C23 1_555 1_555
C24 C19 1_555 1_555
C25 C20 1_555 1_555
H14 C25 1_555 1_555
H15 C25 1_555 1_555
H16 C25 1_555 1_555
C26 H17 1_555 1_555
H18 C26 1_555 1_555
H19 C26 1_555 1_555
N1 C1 1_555 1_555
N2 C16 1_555 1_555
N3 C9 1_555 1_555
O1 C18 1_555 1_555
C27 H20 1_555 1_555
Cl1 C27 1_555 1_555
Cl2 C27 1_555 1_555
Cl3 C27 1_555 1_555
C2 N1 1_555 1_555
C8 C9 1_555 1_555
C10 N3 1_555 1_555
C14 C15 1_555 1_555
C18 N3 1_555 1_555
C23 C24 1_555 1_555
C24 N2 1_555 1_555
C26 N2 1_555 1_555

#END
