
#######################################################################
#
#                 Cambridge Crystallographic Data Centre
#                                CCDC 
#
#######################################################################
#
# If this CIF has been generated from an entry in the Cambridge 
# Structural Database, then it will include bibliographic, chemical, 
# crystal, experimental, refinement or atomic coordinate data resulting 
# from the CCDC's data processing and validation procedures.
#
#######################################################################

data_TELRUX
_chemical_formula_moiety         'C12 H16 F4 O4'
_chemical_name_systematic        
'trans-Dimethyl 1,4-bis(difluoromethyl)-1,4-cyclohexanedicarboxylate'
_symmetry_cell_setting           triclinic
_symmetry_space_group_name_H-M   'P -1'
_symmetry_Int_Tables_number      2
_space_group_name_Hall           '-P 1'
loop_
_symmetry_equiv_pos_site_id
_symmetry_equiv_pos_as_xyz
1 x,y,z
2 -x,-y,-z
_cell_length_a                   6.222(2)
_cell_length_b                   9.778(2)
_cell_length_c                   5.966(2)
_cell_angle_alpha                102.83(2)
_cell_angle_beta                 108.44(2)
_cell_angle_gamma                96.57(2)
_cell_volume                     328.973
_exptl_crystal_colour            colorless
_cell_formula_units_Z            1
loop_
_atom_site_label
_atom_site_type_symbol
_atom_site_fract_x
_atom_site_fract_y
_atom_site_fract_z
F1 F 0.0636(1) 0.1402(1) 0.7146(2)
F2 F 0.3266(2) 0.33540(9) 0.8391(2)
O1 O 0.8147(2) 0.2924(1) 1.1828(2)
O2 O 0.5815(1) 0.3077(1) 1.4027(2)
C1 C 0.4291(2) 0.1424(1) 1.0076(2)
C2 C 0.5034(2) 0.0645(1) 0.7994(2)
C3 C 0.3294(2) 0.0321(1) 1.1168(2)
C4 C 0.2414(2) 0.2258(1) 0.9148(2)
C5 C 0.6335(2) 0.2545(1) 1.2041(2)
C6 C 0.7561(3) 0.4201(2) 1.5979(3)
H1 H 0.365(2) 0.007(1) 0.667(2)
H2 H 0.574(3) 0.133(2) 0.738(3)
H3 H 0.184(2) -0.026(1) 0.991(2)
H4 H 0.290(2) 0.081(1) 1.253(2)
H5 H 0.177(2) 0.266(2) 1.034(3)
H6 H 0.766(3) 0.504(2) 1.543(3)
H7 H 0.702(4) 0.438(2) 1.734(4)
H8 H 0.907(3) 0.392(2) 1.640(3)
C3A C 0.6706(2) -0.0321(1) 0.8832(2)
C1A C 0.5709(2) -0.1424(1) 0.9924(2)
C2A C 0.4966(2) -0.0645(1) 1.2006(2)
H1A H 0.635(2) -0.007(1) 1.333(2)
H2A H 0.426(3) -0.133(2) 1.262(3)
C4A C 0.7586(2) -0.2258(1) 1.0852(2)
F1A F 0.9364(1) -0.1402(1) 1.2854(2)
F2A F 0.6734(2) -0.33540(9) 1.1609(2)
H5A H 0.823(2) -0.266(2) 0.966(3)
C5A C 0.3665(2) -0.2545(1) 0.7959(2)
O1A O 0.1853(2) -0.2924(1) 0.8172(2)
O2A O 0.4185(1) -0.3077(1) 0.5973(2)
C6A C 0.2439(3) -0.4201(2) 0.4021(3)
H6A H 0.234(3) -0.504(2) 0.457(3)
H7A H 0.298(4) -0.438(2) 0.266(4)
H8A H 0.093(3) -0.392(2) 0.360(3)
H3A H 0.816(2) 0.026(1) 1.009(2)
H4A H 0.710(2) -0.081(1) 0.747(2)
loop_
_geom_bond_atom_site_label_1
_geom_bond_atom_site_label_2
_geom_bond_site_symmetry_1
_geom_bond_site_symmetry_2
F1 C4 1_555 1_555
F2 C4 1_555 1_555
O1 C5 1_555 1_555
O2 C5 1_555 1_555
C1 C2 1_555 1_555
C2 H1 1_555 1_555
C3 C1 1_555 1_555
C4 C1 1_555 1_555
C5 C1 1_555 1_555
C6 O2 1_555 1_555
H2 C2 1_555 1_555
H3 C3 1_555 1_555
H4 C3 1_555 1_555
H5 C4 1_555 1_555
H6 C6 1_555 1_555
H7 C6 1_555 1_555
H8 C6 1_555 1_555
C3A C2 1_555 1_555
C1A C3A 1_555 1_555
C2A C3 1_555 1_555
H1A C2A 1_555 1_555
H2A C2A 1_555 1_555
C4A C1A 1_555 1_555
F1A C4A 1_555 1_555
F2A C4A 1_555 1_555
H5A C4A 1_555 1_555
C5A C1A 1_555 1_555
O1A C5A 1_555 1_555
O2A C5A 1_555 1_555
C6A O2A 1_555 1_555
H6A C6A 1_555 1_555
H7A C6A 1_555 1_555
H8A C6A 1_555 1_555
H3A C3A 1_555 1_555
H4A C3A 1_555 1_555
C1A C2A 1_555 1_555

#END
