
#######################################################################
#
#                 Cambridge Crystallographic Data Centre
#                                CCDC 
#
#######################################################################
#
# If this CIF has been generated from an entry in the Cambridge 
# Structural Database, then it will include bibliographic, chemical, 
# crystal, experimental, refinement or atomic coordinate data resulting 
# from the CCDC's data processing and validation procedures.
#
#######################################################################

data_TELRAG01
_chemical_formula_moiety         'C35 H26 N2'
_chemical_name_systematic        
4-(2-(4-(2-(4-(diphenylamino)phenyl)vinyl)phenyl)vinyl)benzonitrile
_symmetry_cell_setting           triclinic
_symmetry_space_group_name_H-M   'P -1'
_symmetry_Int_Tables_number      2
_space_group_name_Hall           '-P 1'
loop_
_symmetry_equiv_pos_site_id
_symmetry_equiv_pos_as_xyz
1 x,y,z
2 -x,-y,-z
_cell_length_a                   9.4986(19)
_cell_length_b                   11.931(2)
_cell_length_c                   25.139(5)
_cell_angle_alpha                95.24(3)
_cell_angle_beta                 92.40(3)
_cell_angle_gamma                108.77(3)
_cell_volume                     2678.48
_exptl_crystal_colour            yellow
_exptl_crystal_description       plate
_cell_formula_units_Z            4
loop_
_atom_site_label
_atom_site_type_symbol
_atom_site_fract_x
_atom_site_fract_y
_atom_site_fract_z
N1 N 0.5000(3) 0.0501(2) 0.83959(9)
N2 N 1.0690(4) 1.0067(3) 0.22356(12)
C1 C 0.5616(3) 0.1170(2) 0.88906(10)
C2 C 0.7014(3) 0.2055(3) 0.89385(12)
H1 H 0.7561 0.2198 0.8639
C3 C 0.7593(4) 0.2716(3) 0.94227(12)
H2 H 0.8519 0.3307 0.9445
C4 C 0.6811(4) 0.2510(3) 0.98761(13)
H3 H 0.7202 0.2964 1.0202
C5 C 0.5439(4) 0.1620(3) 0.98384(11)
H4 H 0.4913 0.1470 1.0142
C6 C 0.4842(3) 0.0952(2) 0.93553(11)
H5 H 0.3922 0.0354 0.9337
C7 C 0.3892(3) -0.0640(2) 0.83957(10)
C8 C 0.4255(4) -0.1564(3) 0.85910(11)
H6 H 0.5232 -0.1456 0.8714
C9 C 0.3162(5) -0.2647(3) 0.86021(13)
H7 H 0.3409 -0.3267 0.8735
C10 C 0.1719(4) -0.2830(3) 0.84208(13)
H8 H 0.0991 -0.3566 0.8432
C11 C 0.1353(4) -0.1913(3) 0.82218(13)
H9 H 0.0375 -0.2034 0.8096
C12 C 0.2437(3) -0.0806(3) 0.82076(12)
H10 H 0.2188 -0.0188 0.8074
C13 C 0.5347(3) 0.0946(2) 0.78951(10)
C14 C 0.5603(3) 0.2148(2) 0.78303(10)
H11 H 0.5543 0.2669 0.8120
C15 C 0.5941(3) 0.2564(2) 0.73437(10)
H12 H 0.6115 0.3367 0.7312
C16 C 0.6032(3) 0.1810(2) 0.68941(10)
C17 C 0.5767(3) 0.0615(2) 0.69639(11)
H13 H 0.5820 0.0093 0.6673
C18 C 0.5430(3) 0.0183(3) 0.74519(11)
H14 H 0.5258 -0.0619 0.7484
C19 C 0.6434(3) 0.2255(2) 0.63768(10)
H15 H 0.6775 0.1787 0.6132
C20 C 0.6347(3) 0.3275(2) 0.62327(10)
H16 H 0.5946 0.3699 0.6477
C21 C 0.6798(3) 0.3822(2) 0.57424(10)
C22 C 0.6356(3) 0.4787(3) 0.56273(11)
H17 H 0.5744 0.5038 0.5855
C23 C 0.6796(3) 0.5376(3) 0.51878(11)
H18 H 0.6485 0.6021 0.5128
C24 C 0.7701(3) 0.5031(2) 0.48271(10)
C25 C 0.8132(3) 0.4056(2) 0.49390(10)
H19 H 0.8728 0.3798 0.4706
C26 C 0.7704(3) 0.3464(2) 0.53821(10)
H20 H 0.8018 0.2821 0.5443
C27 C 0.8223(3) 0.5649(2) 0.43609(10)
H21 H 0.8868 0.5379 0.4157
C28 C 0.7864(3) 0.6566(2) 0.41989(11)
H22 H 0.7200 0.6818 0.4400
C29 C 0.8397(3) 0.7220(2) 0.37407(10)
C30 C 0.7786(3) 0.8086(3) 0.36028(12)
H23 H 0.7010 0.8200 0.3790
C31 C 0.8309(3) 0.8771(3) 0.31969(12)
H24 H 0.7890 0.9343 0.3112
C32 C 0.9473(3) 0.8605(2) 0.29124(11)
C33 C 1.0053(3) 0.7714(3) 0.30273(11)
H25 H 1.0796 0.7578 0.2828
C34 C 0.9528(3) 0.7033(3) 0.34370(11)
H26 H 0.9927 0.6443 0.3513
C35 C 1.0125(4) 0.9403(3) 0.25261(12)
N3 N 0.5109(3) 0.51304(19) 0.16029(8)
N4 N -0.0608(3) -0.5131(2) 0.75732(11)
C36 C 0.3991(3) 0.4715(2) 0.11624(10)
C37 C 0.4356(4) 0.4300(3) 0.06699(11)
H27 H 0.5324 0.4303 0.0626
C38 C 0.3282(4) 0.3885(3) 0.02467(13)
H28 H 0.3535 0.3616 -0.0083
C39 C 0.1848(4) 0.3865(4) 0.03067(14)
H29 H 0.1126 0.3571 0.0022
C40 C 0.1481(4) 0.4285(4) 0.07949(15)
H30 H 0.0509 0.4276 0.0836
C41 C 0.2552(3) 0.4721(3) 0.12248(12)
H31 H 0.2304 0.5013 0.1551
C42 C 0.6503(3) 0.5970(2) 0.15054(10)
C43 C 0.7864(3) 0.5883(2) 0.16914(11)
H32 H 0.7882 0.5268 0.1891
C44 C 0.9190(3) 0.6710(3) 0.15796(12)
H33 H 1.0092 0.6649 0.1708
C45 C 0.9190(3) 0.7623(2) 0.12804(12)
H34 H 1.0085 0.8174 0.1207
C46 C 0.7840(3) 0.7710(2) 0.10901(11)
H35 H 0.7831 0.8322 0.0887
C47 C 0.6509(3) 0.6891(2) 0.12004(10)
H36 H 0.5610 0.6955 0.1070
C48 C 0.4883(3) 0.4553(2) 0.20714(10)
C49 C 0.3904(12) 0.3459(11) 0.2098(4)
H37 H 0.3339 0.3048 0.1786
C50 C 0.3697(7) 0.2916(5) 0.2565(2)
H38 H 0.2962 0.2179 0.2562
C51 C 0.4570(6) 0.3451(5) 0.30423(19)
C52 C 0.5626(6) 0.4585(5) 0.3022(2)
H39 H 0.6222 0.4975 0.3330
C53 C 0.5804(11) 0.5142(9) 0.2552(4)
H40 H 0.6515 0.5889 0.2549
C54 C 0.4429(4) 0.2890(3) 0.35336(15)
H41 H 0.5170 0.3243 0.3808
C55 C 0.3313(5) 0.1892(3) 0.36323(16)
H42 H 0.2581 0.1545 0.3354
C56 C 0.3133(8) 0.1316(6) 0.4113(2)
C57 C 0.1847(8) 0.0351(6) 0.4165(3)
H43 H 0.1096 0.0111 0.3889
C58 C 0.1666(7) -0.0248(6) 0.4612(3)
H44 H 0.0798 -0.0888 0.4626
C59 C 0.2735(7) 0.0064(6) 0.5048(2)
C60 C 0.3999(7) 0.1028(6) 0.5001(2)
H45 H 0.4733 0.1270 0.5283
C61 C 0.4222(7) 0.1647(6) 0.4554(3)
H46 H 0.5093 0.2285 0.4544
C62 C 0.2554(6) -0.0570(4) 0.55271(18)
H47 H 0.3382 -0.0405 0.5769
C63 C 0.1311(5) -0.1348(4) 0.56374(19)
H48 H 0.0489 -0.1460 0.5399
C64 C 0.1040(8) -0.2076(5) 0.6091(2)
C65 C -0.0412(7) -0.2817(6) 0.6126(3)
H49 H -0.1154 -0.2799 0.5877
C66 C -0.0794(11) -0.3577(8) 0.6517(5)
H50 H -0.1774 -0.4067 0.6529
C67 C 0.0344(3) -0.3597(2) 0.69011(10)
C68 C 0.1744(15) -0.2893(15) 0.6871(5)
H51 H 0.2487 -0.2927 0.7116
C69 C 0.2128(8) -0.2093(7) 0.6474(3)
H52 H 0.3102 -0.1585 0.6471
C70 C -0.0162(3) -0.4432(2) 0.72809(11)
C71? C 0.3579(12) 0.2301(9) 0.3338(4)
H53? H 0.2748 0.1630 0.3241
C72? C 0.4120(13) 0.2391(9) 0.3811(4)
H54? H 0.4955 0.3048 0.3924
C73? C 0.1666(10) -0.0889(8) 0.5368(3)
H55? H 0.0693 -0.1395 0.5283
C74? C 0.2311(9) -0.1039(7) 0.5837(3)
H56? H 0.3293 -0.0556 0.5925
C75? C 0.1633(15) -0.1879(11) 0.6219(5)
C76? C 0.2492(17) -0.2151(15) 0.6618(6)
H57? H 0.3518 -0.1767 0.6641
C77? C 0.196(3) -0.290(3) 0.6962(10)
H58? H 0.2582 -0.3002 0.7237
C78? C 0.0119(17) -0.2486(12) 0.6176(6)
H59? H -0.0492 -0.2351 0.5908
C79? C -0.049(3) -0.3297(18) 0.6533(12)
H60? H -0.1519 -0.3648 0.6516
C80? C 0.2097(14) 0.0636(12) 0.4112(4)
H61? H 0.1572 0.0583 0.3785
C81? C 0.1478(11) -0.0132(11) 0.4487(5)
H62? H 0.0538 -0.0700 0.4410
C82? C 0.2262(11) -0.0052(11) 0.4976(5)
C83? C 0.3666(12) 0.0796(12) 0.5090(4)
H63? H 0.4191 0.0850 0.5417
C84? C 0.4286(11) 0.1565(11) 0.4715(5)
H64? H 0.5225 0.2132 0.4791
C85? C 0.3501(14) 0.1485(11) 0.4226(4)
C86? C 0.4061(14) 0.3114(11) 0.2896(6)
C87? C 0.5150(15) 0.4216(13) 0.2978(6)
H65? H 0.5662 0.4478 0.3314
C88? C 0.549(2) 0.493(2) 0.2575(11)
H66? H 0.6157 0.5698 0.2651
C89? C 0.3339(16) 0.2684(13) 0.2403(6)
H67? H 0.2637 0.1925 0.2351
C90? C 0.363(2) 0.335(2) 0.1994(9)
H68? H 0.3078 0.3080 0.1666
loop_
_geom_bond_atom_site_label_1
_geom_bond_atom_site_label_2
_geom_bond_site_symmetry_1
_geom_bond_site_symmetry_2
N1 C1 1_555 1_555
N2 C35 1_555 1_555
C1 C2 1_555 1_555
C2 H1 1_555 1_555
C3 C2 1_555 1_555
H2 C3 1_555 1_555
C4 C3 1_555 1_555
H3 C4 1_555 1_555
C5 C4 1_555 1_555
H4 C5 1_555 1_555
C6 C1 1_555 1_555
H5 C6 1_555 1_555
C7 N1 1_555 1_555
C8 C7 1_555 1_555
H6 C8 1_555 1_555
C9 C8 1_555 1_555
H7 C9 1_555 1_555
C10 C9 1_555 1_555
H8 C10 1_555 1_555
C11 C10 1_555 1_555
H9 C11 1_555 1_555
C12 C7 1_555 1_555
H10 C12 1_555 1_555
C13 N1 1_555 1_555
C14 C13 1_555 1_555
H11 C14 1_555 1_555
C15 C14 1_555 1_555
H12 C15 1_555 1_555
C16 C15 1_555 1_555
C17 C16 1_555 1_555
H13 C17 1_555 1_555
C18 C13 1_555 1_555
H14 C18 1_555 1_555
C19 C16 1_555 1_555
H15 C19 1_555 1_555
C20 C19 1_555 1_555
H16 C20 1_555 1_555
C21 C20 1_555 1_555
C22 C21 1_555 1_555
H17 C22 1_555 1_555
C23 C22 1_555 1_555
H18 C23 1_555 1_555
C24 C23 1_555 1_555
C25 C24 1_555 1_555
H19 C25 1_555 1_555
C26 C21 1_555 1_555
H20 C26 1_555 1_555
C27 C24 1_555 1_555
H21 C27 1_555 1_555
C28 C27 1_555 1_555
H22 C28 1_555 1_555
C29 C28 1_555 1_555
C30 C29 1_555 1_555
H23 C30 1_555 1_555
C31 C30 1_555 1_555
H24 C31 1_555 1_555
C32 C31 1_555 1_555
C33 C32 1_555 1_555
H25 C33 1_555 1_555
C34 C29 1_555 1_555
H26 C34 1_555 1_555
C35 C32 1_555 1_555
N3 C36 1_555 1_555
N4 C70 1_555 1_555
C36 C37 1_555 1_555
C37 H27 1_555 1_555
C38 C37 1_555 1_555
H28 C38 1_555 1_555
C39 C38 1_555 1_555
H29 C39 1_555 1_555
C40 C39 1_555 1_555
H30 C40 1_555 1_555
C41 C36 1_555 1_555
H31 C41 1_555 1_555
C42 N3 1_555 1_555
C43 C42 1_555 1_555
H32 C43 1_555 1_555
C44 C43 1_555 1_555
H33 C44 1_555 1_555
C45 C44 1_555 1_555
H34 C45 1_555 1_555
C46 C45 1_555 1_555
H35 C46 1_555 1_555
C47 C42 1_555 1_555
H36 C47 1_555 1_555
C48 N3 1_555 1_555
C49 C48 1_555 1_555
H37 C49 1_555 1_555
C50 C49 1_555 1_555
H38 C50 1_555 1_555
C51 C50 1_555 1_555
C52 C51 1_555 1_555
H39 C52 1_555 1_555
C53 C48 1_555 1_555
H40 C53 1_555 1_555
C54 C51 1_555 1_555
H41 C54 1_555 1_555
C55 C54 1_555 1_555
H42 C55 1_555 1_555
C56 C55 1_555 1_555
C57 C56 1_555 1_555
H43 C57 1_555 1_555
C58 C57 1_555 1_555
H44 C58 1_555 1_555
C59 C58 1_555 1_555
C60 C59 1_555 1_555
H45 C60 1_555 1_555
C61 C56 1_555 1_555
H46 C61 1_555 1_555
C62 C59 1_555 1_555
H47 C62 1_555 1_555
C63 C62 1_555 1_555
H48 C63 1_555 1_555
C64 C63 1_555 1_555
C65 C64 1_555 1_555
H49 C65 1_555 1_555
C66 C65 1_555 1_555
H50 C66 1_555 1_555
C67 C66 1_555 1_555
C68 C67 1_555 1_555
H51 C68 1_555 1_555
C69 C64 1_555 1_555
H52 C69 1_555 1_555
C70 C67 1_555 1_555
C5 C6 1_555 1_555
C11 C12 1_555 1_555
C17 C18 1_555 1_555
C25 C26 1_555 1_555
C33 C34 1_555 1_555
C40 C41 1_555 1_555
C46 C47 1_555 1_555
C52 C53 1_555 1_555
C60 C61 1_555 1_555
C68 C69 1_555 1_555

#END
