
#######################################################################
#
#                 Cambridge Crystallographic Data Centre
#                                CCDC 
#
#######################################################################
#
# If this CIF has been generated from an entry in the Cambridge 
# Structural Database, then it will include bibliographic, chemical, 
# crystal, experimental, refinement or atomic coordinate data resulting 
# from the CCDC's data processing and validation procedures.
#
#######################################################################

data_TELVEO
_chemical_formula_moiety         'C36 H47 N3 O7 Si1'
_chemical_name_systematic        
({7-azido-2,3-dimethoxy-8-[(4-methoxyphenyl)methoxy]-2,3-dimethyloctahydro-1,4-benzodioxin-5-yl}oxy)(t-butyl)diphenylsilane
_symmetry_cell_setting           orthorhombic
_symmetry_space_group_name_H-M   'P 21 21 21'
_symmetry_Int_Tables_number      19
_space_group_name_Hall           'P 2ac 2ab'
loop_
_symmetry_equiv_pos_site_id
_symmetry_equiv_pos_as_xyz
1 x,y,z
2 1/2-x,-y,1/2+z
3 -x,1/2+y,1/2-z
4 1/2+x,1/2-y,-z
_cell_length_a                   9.42050(10)
_cell_length_b                   17.8471(2)
_cell_length_c                   21.3542(2)
_cell_angle_alpha                90
_cell_angle_beta                 90
_cell_angle_gamma                90
_cell_volume                     3590.25
_exptl_crystal_colour            colorless
_exptl_crystal_description       block
_cell_formula_units_Z            4
loop_
_atom_site_label
_atom_site_type_symbol
_atom_site_fract_x
_atom_site_fract_y
_atom_site_fract_z
C1 C 0.4092(2) 0.35112(10) 0.69175(8)
H1 H 0.5115 0.3454 0.6985
C2 C 0.3752(2) 0.33501(10) 0.62342(8)
H2 H 0.2726 0.3396 0.6168
C3 C 0.4227(2) 0.25675(11) 0.60494(9)
H3 H 0.5254 0.2517 0.6109
C4 C 0.3446(2) 0.20046(11) 0.64611(9)
H4 H 0.2426 0.2032 0.6374
C5 C 0.3707(3) 0.21645(11) 0.71555(9)
H5 H 0.4702 0.2083 0.7249
H6 H 0.3157 0.1816 0.7405
C6 C 0.3302(2) 0.29687(10) 0.73379(8)
H7 H 0.2276 0.3039 0.7289
O1 O 0.36885(16) 0.42627(7) 0.70613(6)
C7 C 0.4383(2) 0.48047(11) 0.66728(10)
C8 C 0.4098(2) 0.46272(11) 0.59691(10)
O2 O 0.44719(16) 0.38717(8) 0.58413(6)
O3 O 0.26206(18) 0.47394(9) 0.58898(8)
C9 C 0.3799(3) 0.55599(12) 0.68755(13)
H8 H 0.2813 0.5591 0.6767
H9 H 0.4313 0.5952 0.6668
H10 H 0.3904 0.5614 0.7320
O4 O 0.58658(17) 0.47505(9) 0.67349(7)
C10 C 0.4985(3) 0.50968(13) 0.55263(11)
H11 H 0.5972 0.5035 0.5625
H12 H 0.4728 0.5615 0.5570
H13 H 0.4816 0.4938 0.5103
C11 C 0.6427(3) 0.49448(15) 0.73308(13)
H14 H 0.7407 0.4799 0.7352
H15 H 0.5902 0.4691 0.7652
H16 H 0.6352 0.5476 0.7391
C12 C 0.2088(3) 0.45637(15) 0.52828(13)
H17 H 0.2545 0.4876 0.4977
H18 H 0.1082 0.4650 0.5272
H19 H 0.2277 0.4047 0.5190
O5 O 0.36972(15) 0.30998(8) 0.79735(6)
O6 O 0.38722(19) 0.24253(9) 0.54137(7)
N1 N 0.3954(3) 0.12311(10) 0.63409(10)
C13 C 0.5052(3) 0.24888(18) 0.49887(12)
H20 H 0.5678 0.2061 0.5034
H21 H 0.5589 0.2940 0.5078
C14 C 0.4465(3) 0.25186(15) 0.43381(11)
C15 C 0.4095(4) 0.31973(15) 0.40701(13)
H22 H 0.4250 0.3639 0.4291
C16 C 0.3500(4) 0.32300(17) 0.34811(13)
H23 H 0.3262 0.3692 0.3309
C17 C 0.3253(3) 0.25804(17) 0.31442(11)
C18 C 0.3581(4) 0.18965(17) 0.34046(13)
H24 H 0.3401 0.1456 0.3186
C19 C 0.4187(4) 0.18741(16) 0.39999(13)
H25 H 0.4410 0.1412 0.4175
O7 O 0.2685(2) 0.26692(16) 0.25611(9)
C20 C 0.2677(3) 0.2044(3) 0.21538(13)
H26 H 0.2568 0.2213 0.1730
H27 H 0.1902 0.1720 0.2261
H28 H 0.3555 0.1776 0.2194
Si1 Si 0.27301(5) 0.30139(3) 0.86123(2)
C21 C 0.4019(2) 0.32493(12) 0.92609(9)
C22 C 0.4636(3) 0.40277(14) 0.91146(11)
H29 H 0.5159 0.4007 0.8729
H30 H 0.5259 0.4178 0.9448
H31 H 0.3877 0.4384 0.9076
C23 C 0.3282(3) 0.32735(16) 0.99018(10)
H32 H 0.2533 0.3638 0.9893
H33 H 0.3960 0.3409 1.0218
H34 H 0.2894 0.2789 0.9996
C24 C 0.5249(2) 0.26867(16) 0.92868(13)
H35 H 0.4907 0.2214 0.9439
H36 H 0.5973 0.2872 0.9563
H37 H 0.5638 0.2623 0.8875
C25 C 0.1220(2) 0.37008(11) 0.86023(10)
C26 C 0.0086(2) 0.36156(13) 0.90196(10)
H38 H 0.0081 0.3211 0.9294
C27 C -0.1036(2) 0.41240(16) 0.90321(12)
H39 H -0.1768 0.4067 0.9321
C28 C -0.1054(3) 0.47151(16) 0.86112(14)
H40 H -0.1808 0.5051 0.8612
C29 C 0.0044(3) 0.48050(14) 0.81921(13)
H41 H 0.0024 0.5201 0.7909
C30 C 0.1185(3) 0.43069(12) 0.81885(11)
H42 H 0.1929 0.4379 0.7908
C31 C 0.1863(2) 0.20633(11) 0.86558(9)
C32 C 0.0780(2) 0.19255(14) 0.82217(11)
H43 H 0.0542 0.2297 0.7935
C33 C 0.0052(3) 0.12499(15) 0.82073(12)
H44 H -0.0653 0.1171 0.7910
C34 C 0.0374(3) 0.06920(13) 0.86358(13)
H45 H -0.0116 0.0240 0.8630
C35 C 0.1435(3) 0.08170(13) 0.90736(13)
H46 H 0.1656 0.0446 0.9364
C36 C 0.2172(2) 0.14928(12) 0.90821(11)
H47 H 0.2884 0.1566 0.9377
N2 N 0.3663(3) 0.09739(11) 0.58182(11)
N3 N 0.3457(4) 0.06475(13) 0.53710(12)
loop_
_geom_bond_atom_site_label_1
_geom_bond_atom_site_label_2
_geom_bond_site_symmetry_1
_geom_bond_site_symmetry_2
C1 H1 1_555 1_555
C2 C1 1_555 1_555
H2 C2 1_555 1_555
C3 C2 1_555 1_555
H3 C3 1_555 1_555
C4 C3 1_555 1_555
H4 C4 1_555 1_555
C5 C4 1_555 1_555
H5 C5 1_555 1_555
H6 C5 1_555 1_555
C6 C1 1_555 1_555
H7 C6 1_555 1_555
O1 C1 1_555 1_555
C7 O1 1_555 1_555
C8 C7 1_555 1_555
O2 C2 1_555 1_555
O3 C8 1_555 1_555
C9 C7 1_555 1_555
H8 C9 1_555 1_555
H9 C9 1_555 1_555
H10 C9 1_555 1_555
O4 C7 1_555 1_555
C10 C8 1_555 1_555
H11 C10 1_555 1_555
H12 C10 1_555 1_555
H13 C10 1_555 1_555
C11 O4 1_555 1_555
H14 C11 1_555 1_555
H15 C11 1_555 1_555
H16 C11 1_555 1_555
C12 O3 1_555 1_555
H17 C12 1_555 1_555
H18 C12 1_555 1_555
H19 C12 1_555 1_555
O5 C6 1_555 1_555
O6 C3 1_555 1_555
N1 C4 1_555 1_555
C13 O6 1_555 1_555
H20 C13 1_555 1_555
H21 C13 1_555 1_555
C14 C13 1_555 1_555
C15 C14 1_555 1_555
H22 C15 1_555 1_555
C16 C15 1_555 1_555
H23 C16 1_555 1_555
C17 C16 1_555 1_555
C18 C17 1_555 1_555
H24 C18 1_555 1_555
C19 C14 1_555 1_555
H25 C19 1_555 1_555
O7 C17 1_555 1_555
C20 O7 1_555 1_555
H26 C20 1_555 1_555
H27 C20 1_555 1_555
H28 C20 1_555 1_555
Si1 O5 1_555 1_555
C21 Si1 1_555 1_555
C22 C21 1_555 1_555
H29 C22 1_555 1_555
H30 C22 1_555 1_555
H31 C22 1_555 1_555
C23 C21 1_555 1_555
H32 C23 1_555 1_555
H33 C23 1_555 1_555
H34 C23 1_555 1_555
C24 C21 1_555 1_555
H35 C24 1_555 1_555
H36 C24 1_555 1_555
H37 C24 1_555 1_555
C25 Si1 1_555 1_555
C26 C25 1_555 1_555
H38 C26 1_555 1_555
C27 C26 1_555 1_555
H39 C27 1_555 1_555
C28 C27 1_555 1_555
H40 C28 1_555 1_555
C29 C28 1_555 1_555
H41 C29 1_555 1_555
C30 C25 1_555 1_555
H42 C30 1_555 1_555
C31 Si1 1_555 1_555
C32 C31 1_555 1_555
H43 C32 1_555 1_555
C33 C32 1_555 1_555
H44 C33 1_555 1_555
C34 C33 1_555 1_555
H45 C34 1_555 1_555
C35 C34 1_555 1_555
H46 C35 1_555 1_555
C36 C31 1_555 1_555
H47 C36 1_555 1_555
N2 N1 1_555 1_555
N3 N2 1_555 1_555
C5 C6 1_555 1_555
C8 O2 1_555 1_555
C18 C19 1_555 1_555
C29 C30 1_555 1_555
C35 C36 1_555 1_555

#END
