
#######################################################################
#
#                 Cambridge Crystallographic Data Centre
#                                CCDC 
#
#######################################################################
#
# If this CIF has been generated from an entry in the Cambridge 
# Structural Database, then it will include bibliographic, chemical, 
# crystal, experimental, refinement or atomic coordinate data resulting 
# from the CCDC's data processing and validation procedures.
#
#######################################################################

data_TEMJIH
_chemical_formula_moiety         'C46 H58 N4 O8'
_chemical_name_systematic        
4,4'-bis{2-[4-(1,4,7,10-tetraoxa-13-azacyclopentadecan-13-yl)phenyl]ethenyl}-2,2'-bipyridine
_symmetry_cell_setting           monoclinic
_symmetry_space_group_name_H-M   'P 21/c'
_symmetry_Int_Tables_number      14
_space_group_name_Hall           '-P 2ybc'
loop_
_symmetry_equiv_pos_site_id
_symmetry_equiv_pos_as_xyz
1 x,y,z
2 -x,1/2+y,1/2-z
3 -x,-y,-z
4 x,1/2-y,1/2+z
_cell_length_a                   9.509(5)
_cell_length_b                   26.018(5)
_cell_length_c                   8.408(5)
_cell_angle_alpha                90
_cell_angle_beta                 93.120(5)
_cell_angle_gamma                90
_cell_volume                     2077.1
_exptl_crystal_colour            yellow
_exptl_crystal_description       block
_cell_formula_units_Z            2
loop_
_atom_site_label
_atom_site_type_symbol
_atom_site_fract_x
_atom_site_fract_y
_atom_site_fract_z
O1 O 0.6393(2) 0.75705(10) -0.2456(3)
N1 N 0.6970(3) 0.86819(12) -0.1776(4)
O2 O 0.3530(3) 0.89057(10) -0.3824(3)
O3 O 0.3562(3) 0.71852(11) -0.2715(3)
O4 O 0.1550(3) 0.79619(12) -0.3060(3)
N2 N 0.8599(3) 1.04669(12) 0.9840(4)
C1 C 0.9441(3) 1.00816(13) 0.9413(4)
C2 C 0.7621(4) 0.77593(16) -0.1643(5)
H1 H 0.8407 0.7531 -0.1807
H2 H 0.7484 0.7778 -0.0509
C3 C 0.9285(4) 0.98483(14) 0.7930(4)
H3 H 0.9883 0.9582 0.7674
C4 C 0.4423(3) 0.86504(15) -0.2705(4)
H4 H 0.4405 0.8283 -0.2895
H5 H 0.4139 0.8715 -0.1633
C5 C 0.7165(4) 0.89151(16) -0.0304(5)
C6 C 0.5956(4) 0.70914(15) -0.1859(5)
H6 H 0.5647 0.7132 -0.0786
H7 H 0.6731 0.6849 -0.1831
C7 C 0.8260(5) 1.00083(19) 0.6850(5)
C8 C 0.2565(5) 0.71806(18) -0.4022(5)
H8 H 0.2339 0.6829 -0.4321
H9 H 0.2953 0.7350 -0.4928
C9 C 0.8280(5) 0.87829(17) 0.0780(5)
H10 H 0.8911 0.8528 0.0509
C10 C 0.2074(4) 0.88262(18) -0.3675(6)
H11 H 0.1559 0.9099 -0.4235
H12 H 0.1874 0.8850 -0.2558
C11 C 0.5880(4) 0.88651(16) -0.2923(5)
H13 H 0.6153 0.8779 -0.3986
H14 H 0.5836 0.9237 -0.2854
C12 C 0.7929(4) 0.82883(18) -0.2278(5)
H15 H 0.8882 0.8384 -0.1928
H16 H 0.7883 0.8275 -0.3433
C13 C 0.7623(5) 1.06107(18) 0.8771(6)
H17 H 0.7037 1.0879 0.9048
C14 C 0.4769(4) 0.68997(16) -0.2942(5)
H18 H 0.5020 0.6929 -0.4041
H19 H 0.4593 0.6540 -0.2720
C15 C 0.1304(4) 0.74455(18) -0.3581(6)
H20 H 0.0631 0.7449 -0.4490
H21 H 0.0885 0.7255 -0.2735
C16 C 0.7459(6) 0.9782(3) 0.4385(13)
H22 H 0.6820 1.0039 0.4605
C17 C 0.1548(4) 0.83171(18) -0.4312(5)
H23 H 0.0601 0.8355 -0.4787
H24 H 0.2151 0.8196 -0.5127
C18 C 0.7578(10) 0.9391(3) 0.2689(7)
C19 C 0.6260(5) 0.92953(17) 0.0200(6)
H25 H 0.5499 0.9394 -0.0472
C20 C 0.7384(5) 1.0402(2) 0.7275(6)
H26 H 0.6663 1.0522 0.6580
C21 C 0.8456(6) 0.9019(2) 0.2216(5)
H27 H 0.9209 0.8922 0.2902
C22 C 0.6456(8) 0.9523(2) 0.1627(9)
H28 H 0.5826 0.9775 0.1917
C23 C 0.8309(5) 0.9641(3) 0.5062(8)
H29 H 0.8943 0.9385 0.4805
O1B O 1.3607(2) 1.24295(10) 2.2456(3)
N1B N 1.3030(3) 1.13181(12) 2.1776(4)
O2B O 1.6470(3) 1.10943(10) 2.3824(3)
O3B O 1.6438(3) 1.28148(11) 2.2715(3)
O4B O 1.8450(3) 1.20381(12) 2.3060(3)
N2B N 1.1401(3) 0.95331(12) 1.0160(4)
C1B C 1.0559(3) 0.99184(13) 1.0587(4)
C2B C 1.2379(4) 1.22407(16) 2.1643(5)
H1B H 1.1593 1.2469 2.1807
H2B H 1.2516 1.2222 2.0509
C3B C 1.0715(4) 1.01517(14) 1.2070(4)
H3B H 1.0117 1.0418 1.2326
C4B C 1.5577(3) 1.13496(15) 2.2705(4)
H4B H 1.5595 1.1717 2.2895
H5B H 1.5861 1.1285 2.1633
C5B C 1.2835(4) 1.10849(16) 2.0304(5)
C6B C 1.4044(4) 1.29086(15) 2.1859(5)
H6B H 1.4353 1.2868 2.0786
H7B H 1.3269 1.3151 2.1831
C7B C 1.1740(5) 0.99917(19) 1.3150(5)
C8B C 1.7435(5) 1.28194(18) 2.4022(5)
H8B H 1.7661 1.3171 2.4321
H9B H 1.7047 1.2650 2.4928
C9B C 1.1720(5) 1.12171(17) 1.9220(5)
H10B H 1.1089 1.1472 1.9491
C10B C 1.7926(4) 1.11738(18) 2.3675(6)
H11B H 1.8441 1.0901 2.4235
H12B H 1.8126 1.1150 2.2558
C11B C 1.4120(4) 1.11349(16) 2.2923(5)
H13B H 1.3847 1.1221 2.3986
H14B H 1.4164 1.0763 2.2854
C12B C 1.2071(4) 1.17117(18) 2.2278(5)
H15B H 1.1118 1.1616 2.1928
H16B H 1.2117 1.1725 2.3433
C13B C 1.2377(5) 0.93893(18) 1.1229(6)
H17B H 1.2963 0.9121 1.0952
C14B C 1.5231(4) 1.31003(16) 2.2942(5)
H18B H 1.4980 1.3071 2.4041
H19B H 1.5407 1.3460 2.2720
C15B C 1.8696(4) 1.25545(18) 2.3581(6)
H20B H 1.9369 1.2551 2.4490
H21B H 1.9115 1.2745 2.2735
C16B C 1.2541(6) 1.0218(3) 1.5615(13)
H22B H 1.3180 0.9961 1.5395
C17B C 1.8452(4) 1.16829(18) 2.4312(5)
H23B H 1.9399 1.1645 2.4787
H24B H 1.7849 1.1804 2.5127
C18B C 1.2422(10) 1.0609(3) 1.7311(7)
C19B C 1.3740(5) 1.07047(17) 1.9800(6)
H25B H 1.4501 1.0606 2.0472
C20B C 1.2616(5) 0.9598(2) 1.2725(6)
H26B H 1.3337 0.9478 1.3420
C21B C 1.1544(6) 1.0981(2) 1.7784(5)
H27B H 1.0791 1.1078 1.7098
C22B C 1.3544(8) 1.0477(2) 1.8373(9)
H28B H 1.4174 1.0225 1.8083
C23B C 1.1691(5) 1.0359(3) 1.4938(8)
H29B H 1.1057 1.0615 1.5195
loop_
_geom_bond_atom_site_label_1
_geom_bond_atom_site_label_2
_geom_bond_site_symmetry_1
_geom_bond_site_symmetry_2
O1 C2 1_555 1_555
N1 C5 1_555 1_555
O2 C4 1_555 1_555
O3 C8 1_555 1_555
O4 C15 1_555 1_555
N2 C1 1_555 1_555
C1 C3 1_555 1_555
C2 H1 1_555 1_555
H2 C2 1_555 1_555
C3 H3 1_555 1_555
C4 H4 1_555 1_555
H5 C4 1_555 1_555
C5 C9 1_555 1_555
C6 O1 1_555 1_555
H6 C6 1_555 1_555
H7 C6 1_555 1_555
C7 C3 1_555 1_555
C8 H8 1_555 1_555
H9 C8 1_555 1_555
C9 H10 1_555 1_555
C10 O2 1_555 1_555
H11 C10 1_555 1_555
H12 C10 1_555 1_555
C11 N1 1_555 1_555
H13 C11 1_555 1_555
H14 C11 1_555 1_555
C12 N1 1_555 1_555
H15 C12 1_555 1_555
H16 C12 1_555 1_555
C13 N2 1_555 1_555
H17 C13 1_555 1_555
C14 O3 1_555 1_555
H18 C14 1_555 1_555
H19 C14 1_555 1_555
C15 C8 1_555 1_555
H20 C15 1_555 1_555
H21 C15 1_555 1_555
C16 H22 1_555 1_555
C17 O4 1_555 1_555
H23 C17 1_555 1_555
H24 C17 1_555 1_555
C18 C16 1_555 1_555
C19 C5 1_555 1_555
H25 C19 1_555 1_555
C20 C7 1_555 1_555
H26 C20 1_555 1_555
C21 C9 1_555 1_555
H27 C21 1_555 1_555
C22 C18 1_555 1_555
H28 C22 1_555 1_555
C23 C7 1_555 1_555
H29 C23 1_555 1_555
O1B C2B 1_555 1_555
N1B C5B 1_555 1_555
O2B C4B 1_555 1_555
O3B C8B 1_555 1_555
O4B C15B 1_555 1_555
N2B C1B 1_555 1_555
C1B C1 1_555 1_555
C2B H1B 1_555 1_555
H2B C2B 1_555 1_555
C3B C1B 1_555 1_555
H3B C3B 1_555 1_555
C4B H4B 1_555 1_555
H5B C4B 1_555 1_555
C5B C9B 1_555 1_555
C6B O1B 1_555 1_555
H6B C6B 1_555 1_555
H7B C6B 1_555 1_555
C7B C3B 1_555 1_555
C8B H8B 1_555 1_555
H9B C8B 1_555 1_555
C9B H10B 1_555 1_555
C10B O2B 1_555 1_555
H11B C10B 1_555 1_555
H12B C10B 1_555 1_555
C11B N1B 1_555 1_555
H13B C11B 1_555 1_555
H14B C11B 1_555 1_555
C12B N1B 1_555 1_555
H15B C12B 1_555 1_555
H16B C12B 1_555 1_555
C13B N2B 1_555 1_555
H17B C13B 1_555 1_555
C14B O3B 1_555 1_555
H18B C14B 1_555 1_555
H19B C14B 1_555 1_555
C15B C8B 1_555 1_555
H20B C15B 1_555 1_555
H21B C15B 1_555 1_555
C16B H22B 1_555 1_555
C17B O4B 1_555 1_555
H23B C17B 1_555 1_555
H24B C17B 1_555 1_555
C18B C16B 1_555 1_555
C19B C5B 1_555 1_555
H25B C19B 1_555 1_555
C20B C7B 1_555 1_555
H26B C20B 1_555 1_555
C21B C9B 1_555 1_555
H27B C21B 1_555 1_555
C22B C18B 1_555 1_555
H28B C22B 1_555 1_555
C23B C7B 1_555 1_555
H29B C23B 1_555 1_555
C2 C12 1_555 1_555
C4 C11 1_555 1_555
C6 C14 1_555 1_555
C10 C17 1_555 1_555
C13 C20 1_555 1_555
C16 C23 1_555 1_555
C18 C21 1_555 1_555
C19 C22 1_555 1_555
C2B C12B 1_555 1_555
C4B C11B 1_555 1_555
C6B C14B 1_555 1_555
C10B C17B 1_555 1_555
C13B C20B 1_555 1_555
C16B C23B 1_555 1_555
C18B C21B 1_555 1_555
C19B C22B 1_555 1_555

#END
