
#######################################################################
#
#                 Cambridge Crystallographic Data Centre
#                                CCDC 
#
#######################################################################
#
# If this CIF has been generated from an entry in the Cambridge 
# Structural Database, then it will include bibliographic, chemical, 
# crystal, experimental, refinement or atomic coordinate data resulting 
# from the CCDC's data processing and validation procedures.
#
#######################################################################

data_TEMJUS
_chemical_formula_moiety         'C25 H47 I1 N3 O1 Si1 1+,C2 H3 N1,I1 1-'
_chemical_name_systematic        
'N-(1,3-bis(dimethylamino)-2-iodo-4-methyl-6-(2,6,6-trimethylcyclohex-1-en-1-yl)-4-((trimethylsilyl)oxy)hexa-2,5-dien-1-ylidene)-N,N-dimethylammonium iodide acetonitrile solvate'
_symmetry_cell_setting           monoclinic
_symmetry_space_group_name_H-M   'P 21/c'
_symmetry_Int_Tables_number      14
_space_group_name_Hall           '-P 2ybc'
loop_
_symmetry_equiv_pos_site_id
_symmetry_equiv_pos_as_xyz
1 x,y,z
2 -x,1/2+y,1/2-z
3 -x,-y,-z
4 x,1/2-y,1/2+z
_cell_length_a                   21.3070(11)
_cell_length_b                   15.1870(8)
_cell_length_c                   10.4762(6)
_cell_angle_alpha                90
_cell_angle_beta                 97.963(3)
_cell_angle_gamma                90
_cell_volume                     3357.3
_exptl_crystal_colour            yellow
_exptl_crystal_description       block
_cell_formula_units_Z            4
loop_
_atom_site_label
_atom_site_type_symbol
_atom_site_fract_x
_atom_site_fract_y
_atom_site_fract_z
I1 I 0.028163(5) 0.599850(8) 0.731382(11)
N1 N 0.13991(7) 0.46352(9) 0.19638(13)
C1 C 0.15786(9) 0.38548(11) 0.27549(18)
H1 H 0.1788 0.4039 0.3605
H2 H 0.1870 0.3491 0.2334
H3 H 0.1198 0.3513 0.2854
C2 C 0.10792(9) 0.44254(12) 0.06640(17)
H4 H 0.0635 0.4275 0.0708
H5 H 0.1291 0.3924 0.0317
H6 H 0.1098 0.4937 0.0101
N2 N 0.12064(6) 0.61518(9) 0.18457(13)
C3 C 0.14564(8) 0.70361(11) 0.21408(17)
H7 H 0.1249 0.7293 0.2832
H8 H 0.1374 0.7406 0.1369
H9 H 0.1914 0.7002 0.2419
C4 C 0.05497(8) 0.61395(13) 0.11942(17)
H10 H 0.0549 0.6156 0.0259
H11 H 0.0323 0.6654 0.1462
H12 H 0.0340 0.5601 0.1428
C5 C 0.15041(7) 0.54479(11) 0.24022(15)
C6 C 0.19146(8) 0.55730(10) 0.36602(15)
I2 I 0.128564(5) 0.569533(7) 0.508744(10)
C7 C 0.25435(8) 0.56298(10) 0.39042(15)
N3 N 0.28975(7) 0.56721(10) 0.51675(13)
C8 C 0.28975(9) 0.65222(12) 0.58154(17)
H13 H 0.2944 0.6994 0.5197
H14 H 0.3251 0.6546 0.6520
H15 H 0.2497 0.6598 0.6165
C9 C 0.28399(9) 0.49238(13) 0.60221(17)
H16 H 0.2457 0.4992 0.6434
H17 H 0.3212 0.4901 0.6685
H18 H 0.2812 0.4377 0.5520
C10 C 0.29808(7) 0.56315(11) 0.28469(15)
C11 C 0.34689(8) 0.63748(11) 0.30951(16)
H19 H 0.3761 0.6348 0.2451
H20 H 0.3708 0.6308 0.3959
H21 H 0.3250 0.6944 0.3034
O1 O 0.25969(5) 0.57939(8) 0.16380(11)
Si1 Si 0.27427(2) 0.56365(3) 0.01372(4)
C12 C 0.21059(9) 0.62699(13) -0.08424(17)
H22 H 0.1693 0.6021 -0.0729
H23 H 0.2163 0.6238 -0.1754
H24 H 0.2125 0.6886 -0.0563
C13 C 0.35287(9) 0.60773(14) -0.01500(18)
H25 H 0.3564 0.6696 0.0118
H26 H 0.3567 0.6033 -0.1069
H27 H 0.3867 0.5735 0.0350
C14 C 0.27234(11) 0.44495(13) -0.03044(19)
H28 H 0.3116 0.4166 0.0090
H29 H 0.2684 0.4391 -0.1244
H30 H 0.2360 0.4166 0.0008
C15 C 0.32737(8) 0.47236(11) 0.28045(15)
H31 H 0.2984(10) 0.4287(13) 0.2409(19)
C16 C 0.38688(8) 0.44971(12) 0.32117(17)
H32 H 0.4141(10) 0.4953(15) 0.357(2)
C17 C 0.41541(8) 0.36237(12) 0.30282(18)
C18 C 0.48117(10) 0.36676(15) 0.2590(2)
C19 C 0.52820(12) 0.4060(3) 0.3688(3)
H33 H 0.5280 0.3705 0.4468
H34 H 0.5157 0.4665 0.3857
H35 H 0.5709 0.4060 0.3439
C20 C 0.48052(13) 0.42909(18) 0.1438(3)
H36 H 0.5224 0.4292 0.1152
H37 H 0.4700 0.4888 0.1694
H38 H 0.4487 0.4091 0.0732
C21 C 0.4713(3) 0.2090(5) 0.2174(13)
H39 H 0.5054 0.1726 0.2647
H40 H 0.4598 0.1807 0.1323
C22 C 0.4952(3) 0.2778(3) 0.1968(7)
H41 H 0.4864 0.2870 0.1025
H42 H 0.5415 0.2687 0.2172
C23 C 0.41451(12) 0.19803(16) 0.2877(3)
H43 H 0.3864(13) 0.1709(19) 0.222(3)
H44 H 0.4150(16) 0.160(2) 0.355(3)
C24 C 0.38703(9) 0.28583(13) 0.3208(2)
C25 C 0.32569(11) 0.27665(15) 0.3761(3)
H45 H 0.3134 0.3340 0.4075
H46 H 0.3313 0.2346 0.4477
H47 H 0.2925 0.2554 0.3091
N4 N 0.17754(13) 0.19666(17) 0.0940(3)
C26 C 0.12682(13) 0.17987(16) 0.1071(3)
C27 C 0.06162(12) 0.15964(16) 0.1229(2)
H48 H 0.0431 0.2098 0.1632
H49 H 0.0608 0.1075 0.1778
H50 H 0.0371 0.1480 0.0384
C28? C 0.4854(3) 0.2001(5) 0.2851(7)
C29? C 0.5161(3) 0.2800(4) 0.2724(9)
H51? H 0.5058 0.1722 0.3657
H52? H 0.4943 0.1618 0.2132
H53? H 0.5386 0.2744 0.1962
H54? H 0.5491 0.2855 0.3484
loop_
_geom_bond_atom_site_label_1
_geom_bond_atom_site_label_2
_geom_bond_site_symmetry_1
_geom_bond_site_symmetry_2
N1 C1 1_555 1_555
C1 H1 1_555 1_555
H2 C1 1_555 1_555
H3 C1 1_555 1_555
C2 N1 1_555 1_555
H4 C2 1_555 1_555
H5 C2 1_555 1_555
H6 C2 1_555 1_555
N2 C3 1_555 1_555
C3 H7 1_555 1_555
H8 C3 1_555 1_555
H9 C3 1_555 1_555
C4 N2 1_555 1_555
H10 C4 1_555 1_555
H11 C4 1_555 1_555
H12 C4 1_555 1_555
C5 N1 1_555 1_555
C6 C5 1_555 1_555
I2 C6 1_555 1_555
C7 C6 1_555 1_555
N3 C7 1_555 1_555
C8 N3 1_555 1_555
H13 C8 1_555 1_555
H14 C8 1_555 1_555
H15 C8 1_555 1_555
C9 N3 1_555 1_555
H16 C9 1_555 1_555
H17 C9 1_555 1_555
H18 C9 1_555 1_555
C10 C7 1_555 1_555
C11 C10 1_555 1_555
H19 C11 1_555 1_555
H20 C11 1_555 1_555
H21 C11 1_555 1_555
O1 C10 1_555 1_555
Si1 O1 1_555 1_555
C12 Si1 1_555 1_555
H22 C12 1_555 1_555
H23 C12 1_555 1_555
H24 C12 1_555 1_555
C13 Si1 1_555 1_555
H25 C13 1_555 1_555
H26 C13 1_555 1_555
H27 C13 1_555 1_555
C14 Si1 1_555 1_555
H28 C14 1_555 1_555
H29 C14 1_555 1_555
H30 C14 1_555 1_555
C15 C10 1_555 1_555
H31 C15 1_555 1_555
C16 C15 1_555 1_555
H32 C16 1_555 1_555
C17 C16 1_555 1_555
C18 C17 1_555 1_555
C19 C18 1_555 1_555
H33 C19 1_555 1_555
H34 C19 1_555 1_555
H35 C19 1_555 1_555
C20 C18 1_555 1_555
H36 C20 1_555 1_555
H37 C20 1_555 1_555
H38 C20 1_555 1_555
C21 H39 1_555 1_555
H40 C21 1_555 1_555
C22 C18 1_555 1_555
H41 C22 1_555 1_555
H42 C22 1_555 1_555
C23 C21 1_555 1_555
H43 C23 1_555 1_555
H44 C23 1_555 1_555
C24 C17 1_555 1_555
C25 C24 1_555 1_555
H45 C25 1_555 1_555
H46 C25 1_555 1_555
H47 C25 1_555 1_555
N4 C26 1_555 1_555
C26 C27 1_555 1_555
C27 H48 1_555 1_555
H49 C27 1_555 1_555
H50 C27 1_555 1_555
N2 C5 1_555 1_555
C21 C22 1_555 1_555
C23 C24 1_555 1_555

#END
