
#######################################################################
#
#                 Cambridge Crystallographic Data Centre
#                                CCDC 
#
#######################################################################
#
# If this CIF has been generated from an entry in the Cambridge 
# Structural Database, then it will include bibliographic, chemical, 
# crystal, experimental, refinement or atomic coordinate data resulting 
# from the CCDC's data processing and validation procedures.
#
#######################################################################

data_TEMTIR
_chemical_formula_moiety         'C34 H46 O7'
_chemical_name_systematic        
4-{1-[1,3-dihydroxy-5a-methyl-2-(2-methylpropanoyl)-8-(propan-2-yl)-5a,8,9,9a-tetrahydrodibenzo[b,d]furan-4-yl]-2-methylpropyl}-5-hydroxy-2,2,6,6-tetramethylcyclohex-4-ene-1,3-dione
_symmetry_cell_setting           orthorhombic
_symmetry_space_group_name_H-M   'P 21 21 21'
_symmetry_Int_Tables_number      19
_space_group_name_Hall           'P 2ac 2ab'
loop_
_symmetry_equiv_pos_site_id
_symmetry_equiv_pos_as_xyz
1 x,y,z
2 1/2-x,-y,1/2+z
3 1/2+x,1/2-y,-z
4 -x,1/2+y,1/2-z
_cell_length_a                   12.4836(2)
_cell_length_b                   12.5791(2)
_cell_length_c                   20.1204(3)
_cell_angle_alpha                90
_cell_angle_beta                 90
_cell_angle_gamma                90
_cell_volume                     3159.56
_exptl_crystal_colour            colorless
_exptl_crystal_description       blocks
_cell_formula_units_Z            4
loop_
_atom_site_label
_atom_site_type_symbol
_atom_site_fract_x
_atom_site_fract_y
_atom_site_fract_z
O1 O 0.68147(16) 0.75411(19) 0.19988(11)
H1 H 0.665621 0.745408 0.239056
O2 O 0.99633(18) 0.6824(2) 0.07107(11)
H2 H 0.980514 0.739954 0.054682
O3 O 0.88443(17) 0.43260(16) 0.22323(10)
O4 O 0.83032(19) 0.42968(18) 0.35497(11)
H3 H 0.866643 0.407778 0.321721
O5 O 0.8956(2) 0.8497(2) 0.05580(13)
O6 O 0.6223(2) 0.7348(2) 0.32460(12)
O7 O 0.6991(4) 0.6117(4) 0.53854(14)
C1 C 0.9383(2) 0.5611(2) 0.15041(14)
C2 C 0.9240(2) 0.6565(2) 0.11770(13)
C3 C 0.7629(2) 0.6878(2) 0.18343(13)
C4 C 0.8621(2) 0.5308(2) 0.19657(13)
C5 C 0.8350(2) 0.7237(2) 0.13287(13)
C6 C 0.7259(3) 0.8937(2) 0.09766(15)
H4 H 0.706039 0.905640 0.144185
C7 C 0.6464(3) 0.6832(3) 0.43625(15)
C8 C 0.7726(2) 0.5895(2) 0.21453(13)
C9 C 1.0626(3) 0.4499(3) 0.26415(17)
H5 H 1.049993 0.419876 0.305661
C10 C 0.8238(2) 0.8226(3) 0.09526(15)
C11 C 1.1349(3) 0.5257(3) 0.25995(17)
H6 H 1.165678 0.549331 0.299349
C12 C 0.7090(2) 0.5705(2) 0.33573(13)
C13 C 0.6598(2) 0.6659(3) 0.36174(15)
C14 C 0.7715(2) 0.5117(2) 0.37577(14)
C15 C 1.0204(2) 0.4745(3) 0.14311(15)
H7 H 1.002473 0.431466 0.104035
C16 C 0.7866(3) 0.5269(3) 0.44989(15)
C17 C 0.6336(3) 0.8375(3) 0.06231(17)
H8 H 0.652736 0.824881 0.016780
H9 H 0.570770 0.881467 0.064032
H10 H 0.619261 0.770983 0.083890
C18 C 0.6904(3) 0.5430(3) 0.26262(15)
H11 H 0.716693 0.469625 0.263412
C19 C 1.1367(3) 0.5090(3) 0.13817(17)
H12 H 1.181938 0.446398 0.135933
H13 H 1.146761 0.548969 0.097411
C20 C 1.1714(2) 0.5769(3) 0.19669(17)
H14 H 1.134210 0.645301 0.192927
C21 C 1.3278(4) 0.6542(5) 0.1338(3)
H15 H 1.319707 0.605917 0.097158
H16 H 1.401526 0.675003 0.137508
H17 H 1.284348 0.716058 0.126275
C22 C 0.7486(4) 1.0005(3) 0.06491(19)
H18 H 0.812183 1.030908 0.083853
H19 H 0.689149 1.047515 0.072202
H20 H 0.758743 0.990469 0.018034
C23 C 1.0071(4) 0.2889(3) 0.1975(2)
H21 H 0.992053 0.254601 0.239052
H22 H 1.078181 0.270550 0.183233
H23 H 0.956305 0.265810 0.164690
C24 C 0.9990(3) 0.4085(2) 0.20601(17)
C25 C 0.7108(3) 0.6076(4) 0.47908(16)
C26 C 0.5871(4) 0.4580(5) 0.17139(19)
H24 H 0.515996 0.444256 0.155459
H25 H 0.625745 0.498752 0.138931
H26 H 0.623460 0.391796 0.178898
C27 C 0.5275(4) 0.6618(5) 0.4509(2)
H27 H 0.483875 0.706243 0.423152
H28 H 0.512794 0.677266 0.496776
H29 H 0.511447 0.588496 0.442096
C28 C 0.9025(3) 0.5633(4) 0.4631(2)
H30 H 0.915528 0.629120 0.440442
H31 H 0.951391 0.510178 0.447221
H32 H 0.912689 0.573133 0.510029
C29 C 0.5267(4) 0.4401(4) 0.28942(19)
H33 H 0.455048 0.424481 0.275159
H34 H 0.567849 0.375677 0.290696
H35 H 0.524817 0.471265 0.332963
C30 C 1.2927(3) 0.6001(3) 0.1973(2)
H36 H 1.330822 0.532261 0.200881
C31 C 0.6705(6) 0.7978(4) 0.4540(3)
H37 H 0.746368 0.809563 0.452078
H38 H 0.645039 0.812325 0.498069
H39 H 0.635188 0.844052 0.422970
C32 C 0.7677(5) 0.4215(3) 0.48551(19)
H40 H 0.773101 0.432101 0.532649
H41 H 0.820650 0.370878 0.471532
H42 H 0.697624 0.395332 0.474776
C33 C 1.3238(4) 0.6690(5) 0.2570(3)
H43 H 1.315122 0.628741 0.297193
H44 H 1.278639 0.730703 0.258531
H45 H 1.397217 0.690727 0.252759
C34 C 0.5810(4) 0.5221(5) 0.2383(3)
H46 H 0.539141 0.587537 0.233616
H47? H 0.631848 0.592950 0.253843
H48? H 0.549509 0.393979 0.160008
H49? H 0.538838 0.517268 0.169262
H50? H 0.644959 0.468818 0.140663
H51? H 0.490073 0.375279 0.278661
H52? H 0.543345 0.441044 0.335999
H53? H 0.481663 0.499623 0.278860
C35? C 0.6354(5) 0.4475(5) 0.2472(3)
H54? H 0.680675 0.384518 0.252756
loop_
_geom_bond_atom_site_label_1
_geom_bond_atom_site_label_2
_geom_bond_site_symmetry_1
_geom_bond_site_symmetry_2
O1 H1 1_555 1_555
O2 H2 1_555 1_555
O3 C4 1_555 1_555
O4 H3 1_555 1_555
O5 C10 1_555 1_555
O6 C13 1_555 1_555
O7 C25 1_555 1_555
C1 C2 1_555 1_555
C2 O2 1_555 1_555
C3 O1 1_555 1_555
C4 C1 1_555 1_555
C5 C2 1_555 1_555
C6 H4 1_555 1_555
C7 C13 1_555 1_555
C8 C3 1_555 1_555
C9 H5 1_555 1_555
C10 C5 1_555 1_555
C11 C9 1_555 1_555
H6 C11 1_555 1_555
C12 C13 1_555 1_555
C14 O4 1_555 1_555
C15 C1 1_555 1_555
H7 C15 1_555 1_555
C16 C14 1_555 1_555
C17 C6 1_555 1_555
H8 C17 1_555 1_555
H9 C17 1_555 1_555
H10 C17 1_555 1_555
C18 C8 1_555 1_555
H11 C18 1_555 1_555
C19 C15 1_555 1_555
H12 C19 1_555 1_555
H13 C19 1_555 1_555
C20 C11 1_555 1_555
H14 C20 1_555 1_555
C21 H15 1_555 1_555
H16 C21 1_555 1_555
H17 C21 1_555 1_555
C22 C6 1_555 1_555
H18 C22 1_555 1_555
H19 C22 1_555 1_555
H20 C22 1_555 1_555
C23 H21 1_555 1_555
H22 C23 1_555 1_555
H23 C23 1_555 1_555
C24 O3 1_555 1_555
C25 C7 1_555 1_555
C26 H24 1_555 1_555
H25 C26 1_555 1_555
H26 C26 1_555 1_555
C27 C7 1_555 1_555
H27 C27 1_555 1_555
H28 C27 1_555 1_555
H29 C27 1_555 1_555
C28 C16 1_555 1_555
H30 C28 1_555 1_555
H31 C28 1_555 1_555
H32 C28 1_555 1_555
C29 H33 1_555 1_555
H34 C29 1_555 1_555
H35 C29 1_555 1_555
C30 C20 1_555 1_555
H36 C30 1_555 1_555
C31 C7 1_555 1_555
H37 C31 1_555 1_555
H38 C31 1_555 1_555
H39 C31 1_555 1_555
C32 C16 1_555 1_555
H40 C32 1_555 1_555
H41 C32 1_555 1_555
H42 C32 1_555 1_555
C33 C30 1_555 1_555
H43 C33 1_555 1_555
H44 C33 1_555 1_555
H45 C33 1_555 1_555
C34 C18 1_555 1_555
H46 C34 1_555 1_555
C3 C5 1_555 1_555
C4 C8 1_555 1_555
C6 C10 1_555 1_555
C9 C24 1_555 1_555
C12 C14 1_555 1_555
C12 C18 1_555 1_555
C15 C24 1_555 1_555
C16 C25 1_555 1_555
C19 C20 1_555 1_555
C21 C30 1_555 1_555
C23 C24 1_555 1_555
C26 C34 1_555 1_555
C29 C34 1_555 1_555

#END
