
#######################################################################
#
#                 Cambridge Crystallographic Data Centre
#                                CCDC 
#
#######################################################################
#
# If this CIF has been generated from an entry in the Cambridge 
# Structural Database, then it will include bibliographic, chemical, 
# crystal, experimental, refinement or atomic coordinate data resulting 
# from the CCDC's data processing and validation procedures.
#
#######################################################################

data_TEMWOA
_chemical_formula_moiety         'C50 H38 B1 F2 N3'
_chemical_name_systematic        
3,7-bis(9,9-dimethyl-9H-fluoren-2-yl)-5,5-difluoro-1,9-diphenyl-5H-6\l^5^,5\l^5^-dipyrrolo[1,2-c:2',1'-f][1,3,5,2]triazaborinine
_symmetry_cell_setting           monoclinic
_symmetry_space_group_name_H-M   'P 21/c'
_symmetry_Int_Tables_number      14
_space_group_name_Hall           '-P 2ybc'
loop_
_symmetry_equiv_pos_site_id
_symmetry_equiv_pos_as_xyz
1 x,y,z
2 -x,1/2+y,1/2-z
3 -x,-y,-z
4 x,1/2-y,1/2+z
_cell_length_a                   17.671(2)
_cell_length_b                   11.6716(11)
_cell_length_c                   18.446(2)
_cell_angle_alpha                90
_cell_angle_beta                 103.739(2)
_cell_angle_gamma                90
_cell_volume                     3695.61
_exptl_crystal_colour            'dark brown'
_exptl_crystal_description       Prism
_cell_formula_units_Z            4
loop_
_atom_site_label
_atom_site_type_symbol
_atom_site_fract_x
_atom_site_fract_y
_atom_site_fract_z
B1 B 0.37652(8) 0.80169(11) 0.31607(7)
F1 F 0.39822(4) 0.74793(6) 0.25671(4)
F2 F 0.29781(4) 0.82305(6) 0.29864(4)
N1 N 0.42576(5) 0.91381(8) 0.33509(5)
N2 N 0.51053(5) 0.83590(8) 0.44552(5)
N3 N 0.39894(5) 0.72435(8) 0.38743(5)
C1 C 0.42673(6) 1.01209(10) 0.29492(6)
C2 C 0.49245(7) 1.07755(10) 0.32856(6)
H1 H 0.5059 1.1497 0.3113
C3 C 0.53421(7) 1.02032(10) 0.39058(6)
C4 C 0.49194(6) 0.91675(10) 0.39415(6)
C5 C 0.46522(6) 0.74618(10) 0.44365(6)
C6 C 0.47058(7) 0.66335(10) 0.50233(6)
C7 C 0.40576(7) 0.59557(10) 0.48062(7)
H2 H 0.3922 0.5336 0.5084
C8 C 0.36233(7) 0.63302(10) 0.41007(6)
C9 C 0.28895(7) 0.58306(10) 0.36905(7)
C10 C 0.24025(7) 0.53203(10) 0.41034(7)
H3 H 0.2566 0.5302 0.4632
C11 C 0.16927(7) 0.48469(11) 0.37551(7)
H4 H 0.1368 0.4510 0.4040
C12 C 0.14615(7) 0.48730(10) 0.29801(7)
C13 C 0.19483(7) 0.53619(10) 0.25659(6)
C14 C 0.26560(7) 0.58319(10) 0.29106(6)
H5 H 0.2983 0.6154 0.2622
C15 C 0.07550(7) 0.44553(11) 0.24554(7)
C16 C 0.01064(8) 0.38807(12) 0.25773(8)
H6 H 0.0066 0.3705 0.3069
C17 C -0.04793(8) 0.35704(15) 0.19646(9)
H7 H -0.0926 0.3177 0.2037
C18 C -0.04170(8) 0.38314(15) 0.12460(9)
H8 H -0.0824 0.3617 0.0832
C19 C 0.02305(8) 0.43993(13) 0.11233(8)
H9 H 0.0272 0.4568 0.0630
C20 C 0.08143(7) 0.47147(11) 0.17309(7)
C21 C 0.15771(7) 0.53181(10) 0.17347(7)
C22 C 0.20639(7) 0.46373(11) 0.13005(7)
H10 H 0.2579 0.4991 0.1370
H11 H 0.1802 0.4637 0.0769
H12 H 0.2123 0.3847 0.1485
C23 C 0.14437(8) 0.65416(11) 0.14234(8)
H13 H 0.1114 0.6961 0.1691
H14 H 0.1186 0.6510 0.0891
H15 H 0.1946 0.6934 0.1490
C24 C 0.37051(7) 1.05073(10) 0.22742(6)
C25 C 0.40039(7) 1.11871(10) 0.17759(6)
H16 H 0.4550 1.1303 0.1866
C26 C 0.35201(7) 1.16903(10) 0.11580(6)
H17 H 0.3731 1.2144 0.0826
C27 C 0.27207(7) 1.15211(10) 0.10305(6)
C28 C 0.24153(7) 1.08496(10) 0.15225(7)
C29 C 0.28980(7) 1.03425(10) 0.21392(6)
H18 H 0.2685 0.9887 0.2468
C30 C 0.20749(7) 1.19704(10) 0.04508(7)
C31 C 0.20718(7) 1.27001(11) -0.01453(7)
H19 H 0.2546 1.2972 -0.0239
C32 C 0.13627(8) 1.30229(12) -0.06002(7)
H20 H 0.1350 1.3520 -0.1010
C33 C 0.06697(8) 1.26267(12) -0.04626(8)
H21 H 0.0188 1.2856 -0.0780
C34 C 0.06709(8) 1.18980(12) 0.01342(7)
H22 H 0.0195 1.1629 0.0226
C35 C 0.13760(7) 1.15720(10) 0.05925(7)
C36 C 0.15297(7) 1.08166(10) 0.12854(7)
C37 C 0.11607(8) 1.13171(13) 0.18890(8)
H23 H 0.1302 1.0843 0.2339
H24 H 0.0593 1.1328 0.1707
H25 H 0.1351 1.2100 0.2007
C38 C 0.12354(8) 0.95915(12) 0.10900(9)
H26 H 0.1470 0.9285 0.0699
H27 H 0.0667 0.9600 0.0910
H28 H 0.1381 0.9107 0.1535
C39 C 0.60644(6) 1.05956(10) 0.44166(6)
C40 C 0.64438(7) 1.15600(11) 0.42221(7)
H29 H 0.6243 1.1927 0.3756
C41 C 0.71096(7) 1.19845(12) 0.47019(8)
H30 H 0.7357 1.2646 0.4566
C42 C 0.74153(7) 1.14518(12) 0.53765(8)
H31 H 0.7868 1.1750 0.5707
C43 C 0.70562(7) 1.04798(12) 0.55669(7)
H32 H 0.7274 1.0099 0.6024
C44 C 0.63838(7) 1.00576(11) 0.50975(7)
H33 H 0.6138 0.9398 0.5239
C45 C 0.52939(7) 0.66188(10) 0.57318(6)
C46 C 0.60464(7) 0.70433(11) 0.57962(7)
H34 H 0.6193 0.7323 0.5365
C47 C 0.65812(7) 0.70624(11) 0.64789(7)
H35 H 0.7090 0.7356 0.6514
C48 C 0.63768(8) 0.66548(11) 0.71094(7)
H36 H 0.6741 0.6679 0.7580
C49 C 0.56402(8) 0.62124(12) 0.70536(7)
H37 H 0.5502 0.5920 0.7485
C50 C 0.51016(8) 0.61921(11) 0.63720(7)
H38 H 0.4597 0.5885 0.6340
loop_
_geom_bond_atom_site_label_1
_geom_bond_atom_site_label_2
_geom_bond_site_symmetry_1
_geom_bond_site_symmetry_2
B1 F1 1_555 1_555
F2 B1 1_555 1_555
N1 B1 1_555 1_555
N2 C4 1_555 1_555
N3 B1 1_555 1_555
C1 N1 1_555 1_555
C2 C1 1_555 1_555
H1 C2 1_555 1_555
C3 C2 1_555 1_555
C4 N1 1_555 1_555
C5 N2 1_555 1_555
C6 C5 1_555 1_555
C7 C6 1_555 1_555
H2 C7 1_555 1_555
C8 N3 1_555 1_555
C9 C8 1_555 1_555
C10 C9 1_555 1_555
H3 C10 1_555 1_555
C11 C10 1_555 1_555
H4 C11 1_555 1_555
C12 C11 1_555 1_555
C13 C12 1_555 1_555
C14 C9 1_555 1_555
H5 C14 1_555 1_555
C15 C12 1_555 1_555
C16 C15 1_555 1_555
H6 C16 1_555 1_555
C17 C16 1_555 1_555
H7 C17 1_555 1_555
C18 C17 1_555 1_555
H8 C18 1_555 1_555
C19 C18 1_555 1_555
H9 C19 1_555 1_555
C20 C15 1_555 1_555
C21 C13 1_555 1_555
C22 C21 1_555 1_555
H10 C22 1_555 1_555
H11 C22 1_555 1_555
H12 C22 1_555 1_555
C23 C21 1_555 1_555
H13 C23 1_555 1_555
H14 C23 1_555 1_555
H15 C23 1_555 1_555
C24 C1 1_555 1_555
C25 C24 1_555 1_555
H16 C25 1_555 1_555
C26 C25 1_555 1_555
H17 C26 1_555 1_555
C27 C26 1_555 1_555
C28 C27 1_555 1_555
C29 C24 1_555 1_555
H18 C29 1_555 1_555
C30 C27 1_555 1_555
C31 C30 1_555 1_555
H19 C31 1_555 1_555
C32 C31 1_555 1_555
H20 C32 1_555 1_555
C33 C32 1_555 1_555
H21 C33 1_555 1_555
C34 C33 1_555 1_555
H22 C34 1_555 1_555
C35 C30 1_555 1_555
C36 C28 1_555 1_555
C37 C36 1_555 1_555
H23 C37 1_555 1_555
H24 C37 1_555 1_555
H25 C37 1_555 1_555
C38 C36 1_555 1_555
H26 C38 1_555 1_555
H27 C38 1_555 1_555
H28 C38 1_555 1_555
C39 C3 1_555 1_555
C40 C39 1_555 1_555
H29 C40 1_555 1_555
C41 C40 1_555 1_555
H30 C41 1_555 1_555
C42 C41 1_555 1_555
H31 C42 1_555 1_555
C43 C42 1_555 1_555
H32 C43 1_555 1_555
C44 C39 1_555 1_555
H33 C44 1_555 1_555
C45 C6 1_555 1_555
C46 C45 1_555 1_555
H34 C46 1_555 1_555
C47 C46 1_555 1_555
H35 C47 1_555 1_555
C48 C47 1_555 1_555
H36 C48 1_555 1_555
C49 C48 1_555 1_555
H37 C49 1_555 1_555
C50 C45 1_555 1_555
H38 C50 1_555 1_555
N3 C5 1_555 1_555
C3 C4 1_555 1_555
C7 C8 1_555 1_555
C13 C14 1_555 1_555
C19 C20 1_555 1_555
C20 C21 1_555 1_555
C28 C29 1_555 1_555
C34 C35 1_555 1_555
C35 C36 1_555 1_555
C43 C44 1_555 1_555
C49 C50 1_555 1_555

#END
