
#######################################################################
#
#                 Cambridge Crystallographic Data Centre
#                                CCDC 
#
#######################################################################
#
# If this CIF has been generated from an entry in the Cambridge 
# Structural Database, then it will include bibliographic, chemical, 
# crystal, experimental, refinement or atomic coordinate data resulting 
# from the CCDC's data processing and validation procedures.
#
#######################################################################

data_TEMXIV
_chemical_formula_moiety         'C44 H50 N8 2+,F6 P1 1-,C2 H3 N1,H2 O1,I1 1-'
_chemical_name_systematic        
"2,2'-(5,10,10,15,20,20-hexamethyl-5,10,15,20,22,24-hexahydroporphyrin-5,15-diyl)bis(1,3-dimethyl-1H-benzimidazol-3-ium) hexafluorophosphate iodide acetonitrile solvate monohydrate"
_symmetry_cell_setting           monoclinic
_symmetry_space_group_name_H-M   'C 2/c'
_symmetry_Int_Tables_number      15
_space_group_name_Hall           '-C 2yn'
loop_
_symmetry_equiv_pos_site_id
_symmetry_equiv_pos_as_xyz
1 x,y,z
2 -x,y,1/2-z
3 1/2+x,1/2+y,z
4 1/2-x,1/2+y,1/2-z
5 -x,-y,-z
6 x,-y,1/2+z
7 1/2-x,1/2-y,-z
8 1/2+x,1/2-y,1/2+z
_cell_length_a                   32.1763(4)
_cell_length_b                   9.94760(10)
_cell_length_c                   29.2648(4)
_cell_angle_alpha                90
_cell_angle_beta                 100.1890(10)
_cell_angle_gamma                90
_cell_volume                     9219.27
_exptl_crystal_colour            'light yellow'
_exptl_crystal_description       prism
_cell_formula_units_Z            8
loop_
_atom_site_label
_atom_site_type_symbol
_atom_site_fract_x
_atom_site_fract_y
_atom_site_fract_z
C1 C 0.36523(8) 0.6879(3) 0.51745(8)
C2 C 0.37216(8) 0.8155(2) 0.54621(8)
C3 C 0.36675(9) 0.9475(3) 0.53278(10)
H1 H 0.356366 0.979441 0.502300
C4 C 0.37957(10) 1.0273(3) 0.57291(11)
H2 H 0.379171 1.122694 0.574033
C5 C 0.39269(8) 0.9433(2) 0.60996(9)
C6 C 0.41096(9) 0.9740(3) 0.65988(10)
C7 C 0.38008(8) 0.9386(2) 0.69144(9)
C8 C 0.35755(10) 1.0201(3) 0.71586(10)
H3 H 0.357450 1.115572 0.715516
C9 C 0.33440(9) 0.9369(3) 0.74174(9)
H4 H 0.316184 0.966614 0.761928
C10 C 0.34306(7) 0.8062(2) 0.73236(8)
C11 C 0.32712(8) 0.6776(2) 0.75102(8)
C12 C 0.29475(8) 0.6129(3) 0.71301(8)
C13 C 0.25162(8) 0.6141(3) 0.70702(9)
H5 H 0.235165 0.656336 0.726850
C14 C 0.23579(8) 0.5411(3) 0.66607(10)
H6 H 0.206875 0.525794 0.653575
C15 C 0.26961(9) 0.4966(2) 0.64768(10)
C16 C 0.27153(8) 0.4117(3) 0.60474(9)
C17 C 0.28345(9) 0.4978(3) 0.56604(10)
C18 C 0.25967(9) 0.5407(4) 0.52536(11)
H7 H 0.230504 0.522743 0.515193
C19 C 0.28587(9) 0.6166(4) 0.50085(10)
H8 H 0.277416 0.658587 0.471528
C20 C 0.32561(8) 0.6184(3) 0.52714(8)
C21 C 0.35942(9) 0.7253(3) 0.46541(9)
H9 H 0.334546 0.783091 0.457223
H10 H 0.355535 0.643279 0.446610
H11 H 0.384509 0.773373 0.459440
C22 C 0.42003(11) 1.1256(3) 0.66398(11)
H12 H 0.440428 1.149831 0.644163
H13 H 0.431692 1.147929 0.696322
H14 H 0.393738 1.175585 0.654081
C23 C 0.45329(8) 0.8991(3) 0.67501(9)
H15 H 0.448400 0.801897 0.672825
H16 H 0.465217 0.923036 0.707139
H17 H 0.473070 0.924964 0.654650
C24 C 0.30592(8) 0.7138(3) 0.79299(9)
H18 H 0.327011 0.752683 0.817738
H19 H 0.294027 0.632474 0.804487
H20 H 0.283324 0.779298 0.783288
C25 C 0.22761(9) 0.3502(4) 0.58764(11)
H21 H 0.220030 0.291619 0.611798
H22 H 0.228167 0.297621 0.559449
H23 H 0.206689 0.422375 0.580804
C26 C 0.30322(9) 0.2955(3) 0.61681(10)
H24 H 0.331526 0.332297 0.627535
H25 H 0.303410 0.240098 0.589166
H26 H 0.294896 0.240293 0.641412
C27 C 0.40378(8) 0.5961(3) 0.52757(8)
C28 C 0.46945(10) 0.5207(3) 0.54919(10)
C29 C 0.51277(10) 0.5072(3) 0.56578(11)
H27 H 0.530635 0.582635 0.573891
C30 C 0.52791(11) 0.3766(4) 0.56961(11)
H28 H 0.557034 0.361811 0.581211
C31 C 0.50164(12) 0.2657(4) 0.55691(12)
H29 H 0.513516 0.178025 0.560183
C32 C 0.45913(11) 0.2794(3) 0.53984(10)
H30 H 0.441475 0.203999 0.530769
C33 C 0.44346(9) 0.4112(3) 0.53663(9)
C34 C 0.36775(9) 0.3740(3) 0.50202(10)
H31 H 0.354500 0.336299 0.526854
H32 H 0.378254 0.300845 0.484737
H33 H 0.346913 0.426861 0.480933
C35 C 0.46255(9) 0.7701(3) 0.54799(11)
H34 H 0.442780 0.835264 0.530992
H35 H 0.489026 0.771592 0.535809
H36 H 0.468216 0.793671 0.581026
C36 C 0.36288(8) 0.5794(2) 0.76865(8)
C37 C 0.39614(8) 0.3859(3) 0.78981(9)
C38 C 0.40733(9) 0.2534(3) 0.80077(10)
H37 H 0.386797 0.184214 0.799331
C39 C 0.44997(10) 0.2280(3) 0.81388(10)
H38 H 0.459056 0.138629 0.821580
C40 C 0.48012(9) 0.3300(3) 0.81612(10)
H39 H 0.509189 0.307651 0.824310
C41 C 0.46885(8) 0.4627(3) 0.80675(9)
H40 H 0.489249 0.532606 0.809201
C42 C 0.42590(9) 0.4877(2) 0.79353(10)
C43 C 0.42680(8) 0.7356(3) 0.78803(9)
H41 H 0.443809 0.746714 0.763624
H42 H 0.445320 0.736372 0.818465
H43 H 0.406423 0.809383 0.786349
C44 C 0.31793(8) 0.3698(3) 0.76986(10)
H44 H 0.314863 0.312784 0.742158
H45 H 0.294020 0.432092 0.767036
H46 H 0.318549 0.313314 0.797414
N1 N 0.38690(6) 0.8133(2) 0.59325(7)
H47 H 0.391902 0.740060 0.610221
N2 N 0.37008(6) 0.8077(2) 0.70082(7)
H48 H 0.379588 0.735813 0.688460
N3 N 0.30574(6) 0.5418(2) 0.67654(7)
H49 H 0.331746 0.527321 0.672226
N4 N 0.32374(6) 0.5477(2) 0.56725(7)
H50 H 0.345066 0.536074 0.590269
N5 N 0.40419(7) 0.6074(2) 0.78156(7)
N6 N 0.35728(7) 0.4462(2) 0.77432(7)
N7 N 0.40305(7) 0.4609(2) 0.52228(8)
N8 N 0.44401(7) 0.6348(2) 0.54222(7)
P1 P 0.41442(2) 0.92592(8) 0.90602(2)
F1 F 0.45395(6) 0.9337(2) 0.88012(7)
F2 F 0.37507(6) 0.9151(2) 0.93230(8)
F3 F 0.40606(12) 1.0819(3) 0.89808(13)
F4 F 0.38456(11) 0.8917(5) 0.85906(12)
F5 F 0.42518(12) 0.7713(3) 0.91647(15)
F6 F 0.44505(11) 0.9642(4) 0.95394(11)
C45 C 0.25446(10) 0.4210(3) 0.87970(11)
C46 C 0.21572(10) 0.3560(3) 0.88684(11)
H51 H 0.203650 0.405655 0.910297
H52 H 0.221866 0.263542 0.897461
H53 H 0.195491 0.355018 0.857562
N9 N 0.28495(12) 0.4707(4) 0.87462(14)
O1 O 0.37484(11) 0.5332(4) 0.88238(13)
H54 H 0.377353 0.614703 0.891171
H55 H 0.349210 0.509149 0.879874
I1 I 0.41328(2) 0.50739(2) 0.65904(2)
F7? F 0.38366(18) 0.9472(7) 0.85731(17)
F8? F 0.4111(2) 0.7668(5) 0.8955(3)
F9? F 0.44405(18) 0.8974(9) 0.95356(17)
F10? F 0.4163(2) 1.0812(5) 0.9141(2)
loop_
_geom_bond_atom_site_label_1
_geom_bond_atom_site_label_2
_geom_bond_site_symmetry_1
_geom_bond_site_symmetry_2
C1 C2 1_555 1_555
C2 C3 1_555 1_555
C3 H1 1_555 1_555
C4 C3 1_555 1_555
H2 C4 1_555 1_555
C5 C4 1_555 1_555
C6 C5 1_555 1_555
C7 C6 1_555 1_555
C8 C7 1_555 1_555
H3 C8 1_555 1_555
C9 C8 1_555 1_555
H4 C9 1_555 1_555
C10 C9 1_555 1_555
C11 C10 1_555 1_555
C12 C11 1_555 1_555
C13 C12 1_555 1_555
H5 C13 1_555 1_555
C14 C13 1_555 1_555
H6 C14 1_555 1_555
C15 C14 1_555 1_555
C16 C15 1_555 1_555
C17 C16 1_555 1_555
C18 C17 1_555 1_555
H7 C18 1_555 1_555
C19 C18 1_555 1_555
H8 C19 1_555 1_555
C20 C1 1_555 1_555
C21 C1 1_555 1_555
H9 C21 1_555 1_555
H10 C21 1_555 1_555
H11 C21 1_555 1_555
C22 C6 1_555 1_555
H12 C22 1_555 1_555
H13 C22 1_555 1_555
H14 C22 1_555 1_555
C23 C6 1_555 1_555
H15 C23 1_555 1_555
H16 C23 1_555 1_555
H17 C23 1_555 1_555
C24 C11 1_555 1_555
H18 C24 1_555 1_555
H19 C24 1_555 1_555
H20 C24 1_555 1_555
C25 C16 1_555 1_555
H21 C25 1_555 1_555
H22 C25 1_555 1_555
H23 C25 1_555 1_555
C26 C16 1_555 1_555
H24 C26 1_555 1_555
H25 C26 1_555 1_555
H26 C26 1_555 1_555
C27 C1 1_555 1_555
C28 C29 1_555 1_555
C29 H27 1_555 1_555
C30 C29 1_555 1_555
H28 C30 1_555 1_555
C31 C30 1_555 1_555
H29 C31 1_555 1_555
C32 C31 1_555 1_555
H30 C32 1_555 1_555
C33 C28 1_555 1_555
C34 H31 1_555 1_555
H32 C34 1_555 1_555
H33 C34 1_555 1_555
C35 H34 1_555 1_555
H35 C35 1_555 1_555
H36 C35 1_555 1_555
C36 C11 1_555 1_555
C37 C38 1_555 1_555
C38 H37 1_555 1_555
C39 C38 1_555 1_555
H38 C39 1_555 1_555
C40 C39 1_555 1_555
H39 C40 1_555 1_555
C41 C40 1_555 1_555
H40 C41 1_555 1_555
C42 C37 1_555 1_555
C43 H41 1_555 1_555
H42 C43 1_555 1_555
H43 C43 1_555 1_555
C44 H44 1_555 1_555
H45 C44 1_555 1_555
H46 C44 1_555 1_555
N1 C2 1_555 1_555
H47 N1 1_555 1_555
N2 C7 1_555 1_555
H48 N2 1_555 1_555
N3 C12 1_555 1_555
H49 N3 1_555 1_555
N4 C17 1_555 1_555
H50 N4 1_555 1_555
N5 C36 1_555 1_555
N6 C36 1_555 1_555
N7 C27 1_555 1_555
N8 C27 1_555 1_555
P1 F1 1_555 1_555
F2 P1 1_555 1_555
F3 P1 1_555 1_555
F4 P1 1_555 1_555
F5 P1 1_555 1_555
F6 P1 1_555 1_555
C45 C46 1_555 1_555
C46 H51 1_555 1_555
H52 C46 1_555 1_555
H53 C46 1_555 1_555
N9 C45 1_555 1_555
O1 H54 1_555 1_555
H55 O1 1_555 1_555
C5 N1 1_555 1_555
C10 N2 1_555 1_555
C15 N3 1_555 1_555
C19 C20 1_555 1_555
C20 N4 1_555 1_555
C28 N8 1_555 1_555
C32 C33 1_555 1_555
C33 N7 1_555 1_555
C34 N7 1_555 1_555
C35 N8 1_555 1_555
C37 N6 1_555 1_555
C41 C42 1_555 1_555
C42 N5 1_555 1_555
C43 N5 1_555 1_555
C44 N6 1_555 1_555

#END
