
#######################################################################
#
#                 Cambridge Crystallographic Data Centre
#                                CCDC 
#
#######################################################################
#
# If this CIF has been generated from an entry in the Cambridge 
# Structural Database, then it will include bibliographic, chemical, 
# crystal, experimental, refinement or atomic coordinate data resulting 
# from the CCDC's data processing and validation procedures.
#
#######################################################################

data_TEMXAN
_chemical_formula_moiety         
'C39 H47 N7 O2,C8 H20 N1 1+,C2 H3 O3 1-,2(C1 H4 O1),0.5(C1 H1 Cl3)'
_chemical_name_systematic        
'1,17,22,22,31,31-hexamethyl-5,13,36,37,38,39,40-hepta-azaheptacyclo[15.9.9.1^7,11^.1^18,21^.1^23,26^.1^27,30^.1^32,35^]tetraconta-7(40),8,10,18,20,23,25,27,29,32,34-undecaene-6,12-dione tetraethylammonium methyl carbonate chloroform methanol solvate'
_symmetry_cell_setting           triclinic
_symmetry_space_group_name_H-M   'P -1'
_symmetry_Int_Tables_number      2
_space_group_name_Hall           '-P 1'
loop_
_symmetry_equiv_pos_site_id
_symmetry_equiv_pos_as_xyz
1 x,y,z
2 -x,-y,-z
_cell_length_a                   12.3267(6)
_cell_length_b                   13.7583(9)
_cell_length_c                   17.1188(13)
_cell_angle_alpha                82.350(2)
_cell_angle_beta                 83.026(2)
_cell_angle_gamma                66.038(3)
_cell_volume                     2622.14
_exptl_crystal_colour            colorless
_exptl_crystal_description       prisms
_cell_formula_units_Z            2
loop_
_atom_site_label
_atom_site_type_symbol
_atom_site_fract_x
_atom_site_fract_y
_atom_site_fract_z
O1 O 0.76111(19) 0.2050(2) 0.13049(13)
O2 O 0.2418(2) 0.11280(18) 0.24993(13)
N1 N 0.3913(2) 0.5598(2) 0.17614(14)
N2 N 0.3578(2) 0.6706(2) 0.34569(14)
N3 N 0.1184(2) 0.6244(2) 0.39838(14)
N4 N 0.1522(2) 0.51485(19) 0.22848(14)
N5 N 0.6469(2) 0.2703(2) 0.24048(16)
N6 N 0.5008(2) 0.17102(18) 0.21919(14)
N7 N 0.3062(2) 0.2011(2) 0.32339(15)
C1 C 0.3425(2) 0.5657(2) 0.10620(16)
C2 C 0.3796(2) 0.6314(2) 0.05265(17)
H1 H 0.359568 0.651195 -0.000680
C3 C 0.4525(2) 0.6643(2) 0.09045(17)
H2 H 0.490898 0.709641 0.066790
C4 C 0.4588(2) 0.6198(2) 0.16723(16)
C5 C 0.5230(2) 0.6279(2) 0.23451(17)
C6 C 0.4349(2) 0.7013(2) 0.29305(17)
C7 C 0.4098(3) 0.8051(2) 0.30395(18)
H3 H 0.448785 0.847860 0.276110
C8 C 0.3161(3) 0.8380(2) 0.36374(18)
H4 H 0.280853 0.906707 0.382728
C9 C 0.2848(3) 0.7537(2) 0.38956(17)
C10 C 0.1978(3) 0.7410(2) 0.45690(17)
C11 C 0.0986(3) 0.7179(2) 0.43043(16)
C12 C -0.0226(3) 0.7735(2) 0.43674(17)
H5 H -0.063649 0.841217 0.456804
C13 C -0.0760(3) 0.7128(2) 0.40828(17)
H6 H -0.159004 0.732749 0.405997
C14 C 0.0126(2) 0.6203(2) 0.38459(16)
C15 C 0.0072(2) 0.5276(2) 0.34870(16)
C16 C 0.0369(2) 0.5367(2) 0.25969(16)
C17 C -0.0324(3) 0.5654(2) 0.19771(17)
H7 H -0.116017 0.585286 0.201141
C18 C 0.0422(2) 0.5607(2) 0.12667(17)
H8 H 0.017082 0.576578 0.074468
C19 C 0.1565(2) 0.5293(2) 0.14694(16)
C20 C 0.2729(2) 0.4999(2) 0.09615(16)
C21 C 0.6122(3) 0.6772(3) 0.20097(19)
H9 H 0.668236 0.632906 0.161463
H10 H 0.655977 0.680875 0.243821
H11 H 0.569378 0.749319 0.176164
C22 C 0.1414(3) 0.8459(3) 0.4978(2)
H12 H 0.204372 0.861434 0.516352
H13 H 0.087560 0.838108 0.542973
H14 H 0.096590 0.904697 0.460140
C23 C 0.2660(3) 0.6514(3) 0.51818(18)
H15 H 0.305062 0.584188 0.493374
H16 H 0.210300 0.643562 0.562051
H17 H 0.326189 0.669207 0.538237
C24 C -0.1211(3) 0.5324(3) 0.36397(18)
H18 H -0.177120 0.601900 0.342281
H19 H -0.140152 0.522916 0.420989
H20 H -0.127217 0.475465 0.338320
C25 C 0.2477(3) 0.5135(2) 0.00875(17)
H21 H 0.203215 0.470818 0.001321
H22 H 0.323144 0.489451 -0.023917
H23 H 0.200597 0.588972 -0.006882
C26 C 0.3513(3) 0.3810(2) 0.11809(18)
H24 H 0.368881 0.370746 0.173627
H25 H 0.425833 0.359986 0.084444
H26 H 0.308675 0.336897 0.110120
C27 C 0.5902(2) 0.5149(2) 0.27652(17)
H27 H 0.626455 0.522730 0.322567
H28 H 0.531384 0.483850 0.296915
C28 C 0.6878(3) 0.4361(2) 0.22496(18)
H29 H 0.659394 0.444228 0.171844
H30 H 0.758667 0.453963 0.218692
C29 C 0.7237(3) 0.3204(3) 0.25912(19)
H31 H 0.806280 0.278573 0.238823
H32 H 0.722927 0.317220 0.317286
C30 C 0.6742(3) 0.2142(2) 0.17781(18)
C31 C 0.5943(3) 0.1600(2) 0.16635(17)
C32 C 0.6174(3) 0.1031(3) 0.1011(2)
H33 H 0.684620 0.096173 0.065154
C33 C 0.5414(3) 0.0567(3) 0.0894(2)
H34 H 0.556658 0.015959 0.045591
C34 C 0.4428(3) 0.0695(3) 0.1415(2)
H35 H 0.388133 0.039694 0.133710
C35 C 0.4261(3) 0.1276(2) 0.20582(18)
C36 C 0.3173(3) 0.1467(2) 0.26220(18)
C37 C 0.2053(3) 0.2196(3) 0.38203(19)
H36 H 0.229207 0.227074 0.433333
H37 H 0.184608 0.156417 0.388957
C38 C 0.0949(3) 0.3190(2) 0.35989(18)
H38 H 0.091208 0.328154 0.301793
H39 H 0.022875 0.308412 0.384009
C39 C 0.0947(3) 0.4203(2) 0.38718(17)
H40 H 0.176262 0.418594 0.376748
H41 H 0.075961 0.418799 0.445112
H42 H 0.188(3) 0.575(3) 0.3895(18)
H43 H 0.385(2) 0.522(2) 0.2188(18)
H44 H 0.582(3) 0.280(3) 0.273(2)
H45 H 0.361(3) 0.228(3) 0.331(2)
H46 H 0.214(3) 0.490(3) 0.258(2)
H47 H 0.354(3) 0.604(3) 0.351(2)
O3 O 0.34792(17) 0.46268(16) 0.33877(11)
O4 O 0.36795(19) 0.40329(17) 0.46318(12)
O5 O 0.4664(2) 0.29229(17) 0.37067(12)
C40 C 0.3978(3) 0.3829(2) 0.38647(18)
C41 C 0.4187(3) 0.3163(3) 0.52229(19)
H48 H 0.389233 0.260735 0.518986
H49 H 0.395737 0.342404 0.574841
H50 H 0.505639 0.286382 0.513289
C42 C 0.0241(4) 0.2997(3) 0.1318(3)
H51 H -0.002744 0.316960 0.186477
H52 H -0.045262 0.318498 0.101465
H53 H 0.071138 0.340364 0.108068
O6 O 0.0945(2) 0.1897(2) 0.13116(17)
H54 H 0.133(4) 0.169(4) 0.166(3)
C43 C 0.2605(4) 0.2034(3) -0.0379(2)
H55 H 0.187840 0.267284 -0.047684
H56 H 0.308554 0.184896 -0.087859
H57 H 0.306339 0.217496 -0.001181
O7 O 0.2297(2) 0.1177(2) -0.00469(16)
H58 H 0.187(3) 0.136(3) 0.039(2)
N8 N 0.0404(2) -0.10630(19) 0.17312(14)
C44 C 0.1741(3) -0.1572(2) 0.18017(18)
H59 H 0.189272 -0.171414 0.236900
H60 H 0.206831 -0.226833 0.157365
C45 C 0.2402(3) -0.0904(3) 0.1396(2)
H61 H 0.225498 -0.075333 0.083394
H62 H 0.325729 -0.129500 0.145202
H63 H 0.212132 -0.022971 0.163956
C46 C -0.0155(3) 0.0018(2) 0.20679(19)
H64 H 0.014006 0.051560 0.173072
H65 H -0.102705 0.030118 0.203249
C47 C 0.0079(4) 0.0020(3) 0.2905(2)
H66 H -0.020367 -0.047224 0.324719
H67 H -0.034260 0.074298 0.307200
H68 H 0.093551 -0.020821 0.294333
C48 C -0.0099(3) -0.1845(2) 0.21760(18)
H69 H 0.029693 -0.253751 0.194428
H70 H 0.010128 -0.196496 0.273311
C49 C -0.1429(3) -0.1483(3) 0.2162(2)
H71 H -0.183423 -0.082934 0.243077
H72 H -0.167286 -0.204403 0.243281
H73 H -0.164215 -0.134191 0.161276
C50 C 0.0116(3) -0.0851(2) 0.08707(17)
H74 H -0.075984 -0.052456 0.085142
H75 H 0.042716 -0.032074 0.060605
C51 C 0.0609(3) -0.1818(3) 0.04068(19)
H76 H 0.147940 -0.213795 0.040598
H77 H 0.037935 -0.160315 -0.013799
H78 H 0.028912 -0.234179 0.065143
Cl1 Cl 0.4432(3) 0.0539(2) 0.63213(19)
Cl2 Cl 0.2711(3) -0.0349(3) 0.6285(2)
Cl3 Cl 0.4129(5) -0.0177(4) 0.4900(2)
C52 C 0.4006(7) -0.0313(7) 0.5907(3)
H79 H 0.461262 -0.104269 0.605529
loop_
_geom_bond_atom_site_label_1
_geom_bond_atom_site_label_2
_geom_bond_site_symmetry_1
_geom_bond_site_symmetry_2
O1 C30 1_555 1_555
O2 C36 1_555 1_555
N1 C1 1_555 1_555
N2 C6 1_555 1_555
N3 C11 1_555 1_555
N4 C16 1_555 1_555
N5 C29 1_555 1_555
N6 C31 1_555 1_555
N7 C36 1_555 1_555
C1 C2 1_555 1_555
C2 H1 1_555 1_555
C3 C2 1_555 1_555
H2 C3 1_555 1_555
C4 N1 1_555 1_555
C5 C4 1_555 1_555
C6 C5 1_555 1_555
C7 C6 1_555 1_555
H3 C7 1_555 1_555
C8 C7 1_555 1_555
H4 C8 1_555 1_555
C9 N2 1_555 1_555
C10 C9 1_555 1_555
C11 C10 1_555 1_555
C12 C11 1_555 1_555
H5 C12 1_555 1_555
C13 C12 1_555 1_555
H6 C13 1_555 1_555
C14 N3 1_555 1_555
C15 C14 1_555 1_555
C16 C15 1_555 1_555
C17 C16 1_555 1_555
H7 C17 1_555 1_555
C18 C17 1_555 1_555
H8 C18 1_555 1_555
C19 N4 1_555 1_555
C20 C1 1_555 1_555
C21 C5 1_555 1_555
H9 C21 1_555 1_555
H10 C21 1_555 1_555
H11 C21 1_555 1_555
C22 C10 1_555 1_555
H12 C22 1_555 1_555
H13 C22 1_555 1_555
H14 C22 1_555 1_555
C23 C10 1_555 1_555
H15 C23 1_555 1_555
H16 C23 1_555 1_555
H17 C23 1_555 1_555
C24 C15 1_555 1_555
H18 C24 1_555 1_555
H19 C24 1_555 1_555
H20 C24 1_555 1_555
C25 C20 1_555 1_555
H21 C25 1_555 1_555
H22 C25 1_555 1_555
H23 C25 1_555 1_555
C26 C20 1_555 1_555
H24 C26 1_555 1_555
H25 C26 1_555 1_555
H26 C26 1_555 1_555
C27 C5 1_555 1_555
H27 C27 1_555 1_555
H28 C27 1_555 1_555
C28 C27 1_555 1_555
H29 C28 1_555 1_555
H30 C28 1_555 1_555
C29 C28 1_555 1_555
H31 C29 1_555 1_555
H32 C29 1_555 1_555
C30 N5 1_555 1_555
C31 C30 1_555 1_555
C32 C31 1_555 1_555
H33 C32 1_555 1_555
C33 C32 1_555 1_555
H34 C33 1_555 1_555
C34 C33 1_555 1_555
H35 C34 1_555 1_555
C35 N6 1_555 1_555
C36 C35 1_555 1_555
C37 N7 1_555 1_555
H36 C37 1_555 1_555
H37 C37 1_555 1_555
C38 C37 1_555 1_555
H38 C38 1_555 1_555
H39 C38 1_555 1_555
C39 C15 1_555 1_555
H40 C39 1_555 1_555
H41 C39 1_555 1_555
H42 N3 1_555 1_555
H43 N1 1_555 1_555
H44 N5 1_555 1_555
H45 N7 1_555 1_555
H46 N4 1_555 1_555
H47 N2 1_555 1_555
O3 C40 1_555 1_555
O4 C40 1_555 1_555
O5 C40 1_555 1_555
C41 O4 1_555 1_555
H48 C41 1_555 1_555
H49 C41 1_555 1_555
H50 C41 1_555 1_555
C42 H51 1_555 1_555
H52 C42 1_555 1_555
H53 C42 1_555 1_555
O6 C42 1_555 1_555
H54 O6 1_555 1_555
C43 H55 1_555 1_555
H56 C43 1_555 1_555
H57 C43 1_555 1_555
O7 C43 1_555 1_555
H58 O7 1_555 1_555
N8 C44 1_555 1_555
C44 H59 1_555 1_555
H60 C44 1_555 1_555
C45 C44 1_555 1_555
H61 C45 1_555 1_555
H62 C45 1_555 1_555
H63 C45 1_555 1_555
C46 N8 1_555 1_555
H64 C46 1_555 1_555
H65 C46 1_555 1_555
C47 C46 1_555 1_555
H66 C47 1_555 1_555
H67 C47 1_555 1_555
H68 C47 1_555 1_555
C48 N8 1_555 1_555
H69 C48 1_555 1_555
H70 C48 1_555 1_555
C49 C48 1_555 1_555
H71 C49 1_555 1_555
H72 C49 1_555 1_555
H73 C49 1_555 1_555
C50 N8 1_555 1_555
H74 C50 1_555 1_555
H75 C50 1_555 1_555
C51 C50 1_555 1_555
H76 C51 1_555 1_555
H77 C51 1_555 1_555
H78 C51 1_555 1_555
Cl1 C52 1_555 1_555
Cl2 C52 1_555 1_555
Cl3 C52 1_555 1_555
C52 H79 1_555 1_555
C3 C4 1_555 1_555
C8 C9 1_555 1_555
C13 C14 1_555 1_555
C18 C19 1_555 1_555
C19 C20 1_555 1_555
C34 C35 1_555 1_555
C38 C39 1_555 1_555

#END
