
#######################################################################
#
#                 Cambridge Crystallographic Data Centre
#                                CCDC 
#
#######################################################################
#
# If this CIF has been generated from an entry in the Cambridge 
# Structural Database, then it will include bibliographic, chemical, 
# crystal, experimental, refinement or atomic coordinate data resulting 
# from the CCDC's data processing and validation procedures.
#
#######################################################################

data_TENLIH
_chemical_name_common            
C-methyl-5,11,17,23-tetrabromo-6,10:12,16:18,22:24,4-O,O'-tetrakis(propylene)calix[4]resorcinarene
_chemical_formula_moiety         'C44 H44 Br4 O8'
_chemical_name_systematic        
9,15,21,36-Tetrabromo-6,7,12,13,18,19,24,25-octahydro-1,29,31,33-tetramethyl-2,28:3,27-dimetheno-1H,5H,11H,17H,23H,29H,31H,33H-bis(1,5)dioxecino(7,6-k:7',6'-k')benzo(1,2-f:5,4-f')-bis(1,5)benzodioxecine
_symmetry_cell_setting           monoclinic
_symmetry_space_group_name_H-M   'C m'
_symmetry_Int_Tables_number      8
_space_group_name_Hall           'C -2y'
loop_
_symmetry_equiv_pos_site_id
_symmetry_equiv_pos_as_xyz
1 x,y,z
2 x,-y,z
3 1/2+x,1/2+y,z
4 1/2+x,1/2-y,z
_cell_length_a                   8.887(1)
_cell_length_b                   24.148(3)
_cell_length_c                   9.173(1)
_cell_angle_alpha                90
_cell_angle_beta                 100.585(4)
_cell_angle_gamma                90
_cell_volume                     1935.06
_exptl_crystal_colour            colorless
_cell_formula_units_Z            2
loop_
_atom_site_label
_atom_site_type_symbol
_atom_site_fract_x
_atom_site_fract_y
_atom_site_fract_z
Br1 Br -0.21356(13) 0.50000 0.37885(14)
Br2 Br 0.00000 0.21255(3) 0.00000
Br3 Br -0.33243(15) 0.50000 -0.11691(16)
C1 C -0.0172(12) 0.5000 0.3282(12)
C2 C 0.0536(8) 0.4495(3) 0.3099(8)
O1 O -0.0138(6) 0.4006(2) 0.3374(6)
C3 C -0.1160(9) 0.3780(3) 0.2110(8)
H1 H -0.2260 0.3982 0.1992
H2 H -0.0689 0.3845 0.1119
C4 C -0.1346(8) 0.3163(3) 0.2364(8)
H3 H -0.1650 0.2971 0.1286
H4 H -0.2274 0.3113 0.2965
C5 C 0.0023(9) 0.2851(3) 0.3209(9)
H5 H -0.0313 0.2423 0.3269
H6 H 0.0272 0.3024 0.4313
O2 O 0.1434(6) 0.2858(2) 0.2636(6)
C6 C 0.1438(8) 0.3114(3) 0.1308(8)
C7 C 0.0833(7) 0.2849(3) -0.0018(7)
C8 C 0.0752(8) 0.3112(3) -0.1397(8)
O3 O 0.0057(6) 0.2867(2) -0.2699(6)
C9 C -0.1612(10) 0.2835(3) -0.2958(9)
H7 H -0.1963 0.2461 -0.3573
H8 H -0.1978 0.2819 -0.1899
C10 C -0.2401(10) 0.3334(3) -0.3849(10)
H9 H -0.3443 0.3188 -0.4540
H10 H -0.1637 0.3491 -0.4541
C11 C -0.2806(9) 0.3807(3) -0.2915(9)
H11 H -0.3648 0.3665 -0.2288
H12 H -0.3280 0.4142 -0.3636
O4 O -0.1491(6) 0.4005(2) -0.1910(6)
C12 C -0.0855(8) 0.4502(3) -0.2263(8)
C13 C -0.1559(12) 0.5000 -0.2033(12)
C14 C 0.0557(8) 0.4489(3) -0.2743(8)
C15 C 0.1221(11) 0.5000 -0.2941(10)
H13 H 0.2323 0.4999 -0.3278
C16 C 0.1344(8) 0.3944(3) -0.2894(8)
H14 H 0.0654 0.3733 -0.3821
C17 C 0.2961(9) 0.3994(3) -0.3267(9)
H15 H 0.3036 0.4177 -0.4326
H16 H 0.3171 0.3554 -0.3303
H17 H 0.3804 0.4182 -0.2411
C18 C 0.1449(8) 0.3623(3) -0.1440(8)
C19 C 0.2149(8) 0.3866(3) -0.0114(8)
H18 H 0.2724 0.4259 -0.0150
C20 C 0.2130(8) 0.3628(3) 0.1252(8)
C21 C 0.2805(9) 0.3932(3) 0.2677(8)
H19 H 0.2572 0.3697 0.3613
C22 C 0.4546(8) 0.3972(3) 0.2833(8)
H20 H 0.5075 0.4172 0.3852
H21 H 0.4821 0.4199 0.1901
H22 H 0.4969 0.3554 0.2816
C23 C 0.2032(8) 0.4490(3) 0.2785(7)
C24 C 0.2754(12) 0.5000 0.2645(11)
H23 H 0.3900 0.4998 0.2409
C12A C -0.0855(8) 0.5498(3) -0.2263(8)
O4A O -0.1491(6) 0.5995(2) -0.1910(6)
C11A C -0.2806(9) 0.6193(3) -0.2915(9)
C10A C -0.2401(10) 0.6666(3) -0.3849(10)
C9A C -0.1612(10) 0.7165(3) -0.2958(9)
O3A O 0.0057(6) 0.7133(2) -0.2699(6)
C8A C 0.0752(8) 0.6888(3) -0.1397(8)
C7A C 0.0833(7) 0.7151(3) -0.0018(7)
Br2A Br 0.00000 0.78745(3) 0.00000
C6A C 0.1438(8) 0.6886(3) 0.1308(8)
O2A O 0.1434(6) 0.7142(2) 0.2636(6)
C5A C 0.0023(9) 0.7149(3) 0.3209(9)
C4A C -0.1346(8) 0.6837(3) 0.2364(8)
C3A C -0.1160(9) 0.6220(3) 0.2110(8)
O1A O -0.0138(6) 0.5994(2) 0.3374(6)
C2A C 0.0536(8) 0.5505(3) 0.3099(8)
C23A C 0.2032(8) 0.5510(3) 0.2785(7)
C21A C 0.2805(9) 0.6068(3) 0.2677(8)
C20A C 0.2130(8) 0.6372(3) 0.1252(8)
C19A C 0.2149(8) 0.6134(3) -0.0114(8)
C18A C 0.1449(8) 0.6377(3) -0.1440(8)
C16A C 0.1344(8) 0.6056(3) -0.2894(8)
C14A C 0.0557(8) 0.5511(3) -0.2743(8)
H14A H 0.0654 0.6267 -0.3821
C17A C 0.2961(9) 0.6006(3) -0.3267(9)
H15A H 0.3036 0.5823 -0.4326
H16A H 0.3171 0.6446 -0.3303
H17A H 0.3804 0.5818 -0.2411
H18A H 0.2724 0.5741 -0.0150
H19A H 0.2572 0.6303 0.3613
C22A C 0.4546(8) 0.6028(3) 0.2833(8)
H20A H 0.5075 0.5828 0.3852
H21A H 0.4821 0.5801 0.1901
H22A H 0.4969 0.6446 0.2816
H1A H -0.2260 0.6018 0.1992
H2A H -0.0689 0.6155 0.1119
H3A H -0.1650 0.7029 0.1286
H4A H -0.2274 0.6887 0.2965
H5A H -0.0313 0.7577 0.3269
H6A H 0.0272 0.6976 0.4313
H7A H -0.1963 0.7539 -0.3573
H8A H -0.1978 0.7181 -0.1899
H9A H -0.3443 0.6812 -0.4540
H10A H -0.1637 0.6509 -0.4541
H11A H -0.3648 0.6335 -0.2288
H12A H -0.3280 0.5858 -0.3636
loop_
_geom_bond_atom_site_label_1
_geom_bond_atom_site_label_2
_geom_bond_site_symmetry_1
_geom_bond_site_symmetry_2
Br1 C1 1_555 1_555
Br2 C7 1_555 1_555
Br3 C13 1_555 1_555
C1 C2 1_555 1_555
C2 O1 1_555 1_555
O1 C3 1_555 1_555
C3 H1 1_555 1_555
H2 C3 1_555 1_555
C4 C3 1_555 1_555
H3 C4 1_555 1_555
H4 C4 1_555 1_555
C5 C4 1_555 1_555
H5 C5 1_555 1_555
H6 C5 1_555 1_555
O2 C5 1_555 1_555
C6 O2 1_555 1_555
C7 C6 1_555 1_555
C8 C7 1_555 1_555
O3 C8 1_555 1_555
C9 O3 1_555 1_555
H7 C9 1_555 1_555
H8 C9 1_555 1_555
C10 C9 1_555 1_555
H9 C10 1_555 1_555
H10 C10 1_555 1_555
C11 C10 1_555 1_555
H11 C11 1_555 1_555
H12 C11 1_555 1_555
O4 C11 1_555 1_555
C12 O4 1_555 1_555
C13 C12 1_555 1_555
C14 C12 1_555 1_555
C15 C14 1_555 1_555
H13 C15 1_555 1_555
C16 C14 1_555 1_555
H14 C16 1_555 1_555
C17 C16 1_555 1_555
H15 C17 1_555 1_555
H16 C17 1_555 1_555
H17 C17 1_555 1_555
C18 C8 1_555 1_555
C19 C18 1_555 1_555
H18 C19 1_555 1_555
C20 C6 1_555 1_555
C21 C20 1_555 1_555
H19 C21 1_555 1_555
C22 C21 1_555 1_555
H20 C22 1_555 1_555
H21 C22 1_555 1_555
H22 C22 1_555 1_555
C23 C2 1_555 1_555
C24 C23 1_555 1_555
H23 C24 1_555 1_555
C12A C13 1_555 1_555
O4A C12A 1_555 1_555
C11A O4A 1_555 1_555
C10A C11A 1_555 1_555
C9A C10A 1_555 1_555
O3A C9A 1_555 1_555
C8A O3A 1_555 1_555
C7A C8A 1_555 1_555
Br2A C7A 1_555 1_555
C6A C7A 1_555 1_555
O2A C6A 1_555 1_555
C5A O2A 1_555 1_555
C4A C5A 1_555 1_555
C3A C4A 1_555 1_555
O1A C3A 1_555 1_555
C2A C1 1_555 1_555
C23A C24 1_555 1_555
C21A C23A 1_555 1_555
C20A C6A 1_555 1_555
C19A C20A 1_555 1_555
C18A C8A 1_555 1_555
C16A C18A 1_555 1_555
C14A C15 1_555 1_555
H14A C16A 1_555 1_555
C17A C16A 1_555 1_555
H15A C17A 1_555 1_555
H16A C17A 1_555 1_555
H17A C17A 1_555 1_555
H18A C19A 1_555 1_555
H19A C21A 1_555 1_555
C22A C21A 1_555 1_555
H20A C22A 1_555 1_555
H21A C22A 1_555 1_555
H22A C22A 1_555 1_555
H1A C3A 1_555 1_555
H2A C3A 1_555 1_555
H3A C4A 1_555 1_555
H4A C4A 1_555 1_555
H5A C5A 1_555 1_555
H6A C5A 1_555 1_555
H7A C9A 1_555 1_555
H8A C9A 1_555 1_555
H9A C10A 1_555 1_555
H10A C10A 1_555 1_555
H11A C11A 1_555 1_555
H12A C11A 1_555 1_555
C16 C18 1_555 1_555
C19 C20 1_555 1_555
C21 C23 1_555 1_555
C12A C14A 1_555 1_555
O1A C2A 1_555 1_555
C2A C23A 1_555 1_555
C21A C20A 1_555 1_555
C19A C18A 1_555 1_555
C16A C14A 1_555 1_555

#END
