
#######################################################################
#
#                 Cambridge Crystallographic Data Centre
#                                CCDC 
#
#######################################################################
#
# If this CIF has been generated from an entry in the Cambridge 
# Structural Database, then it will include bibliographic, chemical, 
# crystal, experimental, refinement or atomic coordinate data resulting 
# from the CCDC's data processing and validation procedures.
#
#######################################################################

data_TENLIK
_chemical_formula_moiety         'C25 H22 Br1 N1 O2'
_chemical_name_systematic        
(4-bromophenyl)[2-(4-methoxyphenyl)-3-methyl-4-methylidene-3,4-dihydroquinolin-1(2H)-yl]methanone
_symmetry_cell_setting           monoclinic
_symmetry_space_group_name_H-M   'P 21'
_symmetry_Int_Tables_number      4
_space_group_name_Hall           'P 2yb'
loop_
_symmetry_equiv_pos_site_id
_symmetry_equiv_pos_as_xyz
1 x,y,z
2 -x,1/2+y,-z
_cell_length_a                   7.297(2)
_cell_length_b                   10.159(3)
_cell_length_c                   14.198(4)
_cell_angle_alpha                90
_cell_angle_beta                 97.465(4)
_cell_angle_gamma                90
_cell_volume                     1043.58
_exptl_crystal_colour            colorless
_cell_formula_units_Z            2
loop_
_atom_site_label
_atom_site_type_symbol
_atom_site_fract_x
_atom_site_fract_y
_atom_site_fract_z
Br1 Br 0.91503(12) 0.06380(12) -0.07220(5)
C1 C 0.4284(6) 0.0579(6) 0.3045(3)
H1 H 0.5155 0.0817 0.2602
C2 C 0.4291(7) 0.0685(8) 0.5618(4)
H2 H 0.3553 0.0395 0.6063
H3 H 0.5153 0.1349 0.5775
C3 C 0.5350(6) 0.0589(7) 0.4049(3)
H4 H 0.5750 0.1493 0.4205
N1 N 0.3661(5) -0.0780(4) 0.2823(3)
C4 C 0.5961(8) 0.0540(8) 0.0238(4)
H5 H 0.5522 0.1234 -0.0154
O1 O -0.1482(6) 0.4372(4) 0.2445(3)
C5 C 0.2792(7) -0.0909(5) 0.4432(4)
C6 C 0.2590(7) -0.1357(5) 0.3499(4)
C7 C 0.4514(7) -0.1584(6) 0.2236(4)
C8 C 0.1505(8) 0.3742(6) 0.3074(5)
H6 H 0.1690 0.4591 0.3313
C9 C 0.1310(8) -0.2349(6) 0.3204(5)
H7 H 0.1170 -0.2634 0.2576
C10 C -0.0415(8) 0.2134(6) 0.2220(4)
H8 H -0.1535 0.1888 0.1877
C11 C 0.2680(7) 0.1543(5) 0.2893(4)
C12 C 0.7656(9) -0.0018(6) 0.0150(4)
C13 C 0.2900(8) 0.2819(6) 0.3229(4)
H9 H 0.4023 0.3063 0.3570
C14 C 0.0999(7) 0.1235(6) 0.2387(4)
H10 H 0.0810 0.0386 0.2148
O2 O 0.4440(6) -0.2779(4) 0.2268(3)
C15 C -0.0175(8) 0.3396(6) 0.2561(4)
C16 C 0.5548(7) -0.0967(5) 0.1509(4)
C17 C 0.4112(7) 0.0148(5) 0.4755(4)
C18 C 0.1693(7) -0.1495(6) 0.5049(4)
H11 H 0.1797 -0.1210 0.5676
C19 C 0.8272(9) -0.1063(6) 0.0718(5)
H12 H 0.9403 -0.1452 0.0654
C20 C 0.7072(7) -0.0293(6) 0.4109(4)
H13 H 0.7765 -0.0218 0.4729
H14 H 0.7827 -0.0022 0.3639
H15 H 0.6699 -0.1192 0.3996
C21 C 0.4918(8) 0.0066(6) 0.0908(4)
H16 H 0.3774 0.0444 0.0959
C22 C 0.7224(8) -0.1534(6) 0.1380(4)
H17 H 0.7650 -0.2253 0.1751
C23 C 0.0453(8) -0.2488(6) 0.4753(5)
H18 H -0.0249 -0.2872 0.5182
C24 C 0.0264(8) -0.2903(6) 0.3831(5)
H19 H -0.0579 -0.3563 0.3629
C25 C -0.3176(9) 0.4079(8) 0.1875(5)
H20 H -0.2938 0.3837 0.1249
H21 H -0.3963 0.4840 0.1838
H22 H -0.3773 0.3362 0.2153
loop_
_geom_bond_atom_site_label_1
_geom_bond_atom_site_label_2
_geom_bond_site_symmetry_1
_geom_bond_site_symmetry_2
Br1 C12 1_555 1_555
C1 H1 1_555 1_555
C2 H2 1_555 1_555
H3 C2 1_555 1_555
C3 C1 1_555 1_555
H4 C3 1_555 1_555
N1 C1 1_555 1_555
C4 H5 1_555 1_555
O1 C15 1_555 1_555
C5 C6 1_555 1_555
C6 N1 1_555 1_555
C7 N1 1_555 1_555
C8 H6 1_555 1_555
C9 C6 1_555 1_555
H7 C9 1_555 1_555
C10 H8 1_555 1_555
C11 C1 1_555 1_555
C12 C4 1_555 1_555
C13 C8 1_555 1_555
H9 C13 1_555 1_555
C14 C10 1_555 1_555
H10 C14 1_555 1_555
O2 C7 1_555 1_555
C15 C8 1_555 1_555
C16 C7 1_555 1_555
C17 C2 1_555 1_555
C18 C5 1_555 1_555
H11 C18 1_555 1_555
C19 C12 1_555 1_555
H12 C19 1_555 1_555
C20 C3 1_555 1_555
H13 C20 1_555 1_555
H14 C20 1_555 1_555
H15 C20 1_555 1_555
C21 C4 1_555 1_555
H16 C21 1_555 1_555
C22 C16 1_555 1_555
H17 C22 1_555 1_555
C23 C18 1_555 1_555
H18 C23 1_555 1_555
C24 C9 1_555 1_555
H19 C24 1_555 1_555
C25 O1 1_555 1_555
H20 C25 1_555 1_555
H21 C25 1_555 1_555
H22 C25 1_555 1_555
C3 C17 1_555 1_555
C5 C17 1_555 1_555
C10 C15 1_555 1_555
C11 C13 1_555 1_555
C11 C14 1_555 1_555
C16 C21 1_555 1_555
C19 C22 1_555 1_555
C23 C24 1_555 1_555

#END
