
#######################################################################
#
#                 Cambridge Crystallographic Data Centre
#                                CCDC 
#
#######################################################################
#
# If this CIF has been generated from an entry in the Cambridge 
# Structural Database, then it will include bibliographic, chemical, 
# crystal, experimental, refinement or atomic coordinate data resulting 
# from the CCDC's data processing and validation procedures.
#
#######################################################################

data_TENPIO
_chemical_name_common            
't-butyl 11-methyl-10-oxo-3,11-diazatricyclo[5.3.1.0$1,5!]undec-8-ene-3-carboxylate'
_chemical_formula_moiety         'C15 H22 N2 O3'
_chemical_name_systematic        
't-Butyl (1R*,5R*,7R*)-11-methyl-10-oxo-3,11-diazatricyclo[5.3.1.01,5]undec-8-ene-3-carboxylate'
_symmetry_cell_setting           orthorhombic
_symmetry_space_group_name_H-M   'P b c a'
_symmetry_Int_Tables_number      61
_space_group_name_Hall           '-P 2ac 2ab'
loop_
_symmetry_equiv_pos_site_id
_symmetry_equiv_pos_as_xyz
1 x,y,z
2 1/2-x,-y,1/2+z
3 1/2+x,1/2-y,-z
4 -x,1/2+y,1/2-z
5 -x,-y,-z
6 1/2+x,y,1/2-z
7 1/2-x,1/2+y,z
8 x,1/2-y,1/2+z
_cell_length_a                   12.46992(10)
_cell_length_b                   11.36942(7)
_cell_length_c                   20.38085(14)
_cell_angle_alpha                90
_cell_angle_beta                 90
_cell_angle_gamma                90
_cell_volume                     2889.51
_exptl_crystal_colour            yellow
_exptl_crystal_description       irregular
_cell_formula_units_Z            8
loop_
_atom_site_label
_atom_site_type_symbol
_atom_site_fract_x
_atom_site_fract_y
_atom_site_fract_z
O1 O 0.07690(8) 0.11188(10) 0.18222(4)
N1 N -0.10128(8) 0.14106(8) 0.31836(5)
C1 C 0.00282(9) 0.08690(10) 0.21878(6)
O2 O 0.26157(7) 0.29716(8) 0.37924(4)
N2 N 0.14613(8) 0.14524(8) 0.36823(5)
C2 C -0.09325(10) 0.02358(11) 0.19649(6)
H1 H -0.1011 0.0041 0.1524
O3 O 0.26588(7) 0.13909(7) 0.44899(4)
C3 C -0.16909(10) -0.00587(10) 0.23959(6)
H2 H -0.2285 -0.0485 0.2257
C4 C -0.15942(9) 0.02928(10) 0.31079(6)
H3 H -0.2297 0.0320 0.3323
C5 C -0.08190(9) -0.05626(10) 0.34655(6)
H4 H -0.0955 -0.0574 0.3934
H5 H -0.0884 -0.1355 0.3294
C6 C 0.02965(9) -0.00379(9) 0.33126(6)
H6 H 0.0722 -0.0580 0.3044
C7 C 0.00562(9) 0.11252(9) 0.29298(5)
C8 C 0.09143(9) 0.20036(10) 0.31309(6)
H7 H 0.1409 0.2146 0.2773
H8 H 0.0594 0.2745 0.3262
C9 C 0.09383(9) 0.03813(10) 0.39119(6)
H9 H 0.0468 0.0545 0.4280
H10 H 0.1463 -0.0203 0.4043
C10 C -0.15343(10) 0.24410(10) 0.28962(6)
H11 H -0.1593 0.2339 0.2430
H12 H -0.1115 0.3130 0.2988
H13 H -0.2237 0.2531 0.3082
C11 C 0.22764(9) 0.20208(10) 0.39788(6)
C12 C 0.34160(9) 0.19318(10) 0.49576(6)
C13 C 0.44703(10) 0.22466(11) 0.46229(6)
H14 H 0.4749 0.1567 0.4402
H15 H 0.4977 0.2508 0.4946
H16 H 0.4349 0.2863 0.4310
C14 C 0.28886(11) 0.29874(12) 0.52808(6)
H17 H 0.2768 0.3588 0.4958
H18 H 0.3349 0.3287 0.5619
H19 H 0.2216 0.2754 0.5469
C15 C 0.35942(11) 0.09450(12) 0.54489(6)
H20 H 0.2923 0.0734 0.5647
H21 H 0.4084 0.1204 0.5783
H22 H 0.3889 0.0273 0.5227
loop_
_geom_bond_atom_site_label_1
_geom_bond_atom_site_label_2
_geom_bond_site_symmetry_1
_geom_bond_site_symmetry_2
O1 C1 1_555 1_555
N1 C4 1_555 1_555
C1 C2 1_555 1_555
O2 C11 1_555 1_555
N2 C8 1_555 1_555
C2 H1 1_555 1_555
O3 C11 1_555 1_555
C3 C2 1_555 1_555
H2 C3 1_555 1_555
C4 C3 1_555 1_555
H3 C4 1_555 1_555
C5 C4 1_555 1_555
H4 C5 1_555 1_555
H5 C5 1_555 1_555
C6 C5 1_555 1_555
H6 C6 1_555 1_555
C7 N1 1_555 1_555
C8 C7 1_555 1_555
H7 C8 1_555 1_555
H8 C8 1_555 1_555
C9 N2 1_555 1_555
H9 C9 1_555 1_555
H10 C9 1_555 1_555
C10 N1 1_555 1_555
H11 C10 1_555 1_555
H12 C10 1_555 1_555
H13 C10 1_555 1_555
C11 N2 1_555 1_555
C12 O3 1_555 1_555
C13 C12 1_555 1_555
H14 C13 1_555 1_555
H15 C13 1_555 1_555
H16 C13 1_555 1_555
C14 C12 1_555 1_555
H17 C14 1_555 1_555
H18 C14 1_555 1_555
H19 C14 1_555 1_555
C15 C12 1_555 1_555
H20 C15 1_555 1_555
H21 C15 1_555 1_555
H22 C15 1_555 1_555
C1 C7 1_555 1_555
C6 C7 1_555 1_555
C6 C9 1_555 1_555

#END
