
#######################################################################
#
#                 Cambridge Crystallographic Data Centre
#                                CCDC 
#
#######################################################################
#
# If this CIF has been generated from an entry in the Cambridge 
# Structural Database, then it will include bibliographic, chemical, 
# crystal, experimental, refinement or atomic coordinate data resulting 
# from the CCDC's data processing and validation procedures.
#
#######################################################################

data_TENPEK
_chemical_name_common            
'benzyl 5,5-dimethyl-4,6,14-trioxa-12-azatetracyclo[6.5.1.0$1,10!.0$3,7!]tetradec-9-ene-12-carboxylate'
_chemical_formula_moiety         'C20 H23 N1 O5'
_chemical_name_systematic        
'Benzyl (1R*,3R*,7R*,8R*)-5,5-dimethyl-4,6,14-trioxa-12-azatetracyclo[6.5.1.01,10.03,7]tetradec-9-ene-12-carboxylate'
_symmetry_cell_setting           monoclinic
_symmetry_space_group_name_H-M   'C 2/c'
_symmetry_Int_Tables_number      15
_space_group_name_Hall           '-C 2yn'
loop_
_symmetry_equiv_pos_site_id
_symmetry_equiv_pos_as_xyz
1 x,y,z
2 -x,y,1/2-z
3 1/2+x,1/2+y,z
4 1/2-x,1/2+y,1/2-z
5 -x,-y,-z
6 x,-y,1/2+z
7 1/2-x,1/2-y,-z
8 1/2+x,1/2-y,1/2+z
_cell_length_a                   24.781(4)
_cell_length_b                   5.6760(13)
_cell_length_c                   24.297(5)
_cell_angle_alpha                90
_cell_angle_beta                 93.409(17)
_cell_angle_gamma                90
_cell_volume                     3411.49
_exptl_crystal_colour            colorless
_exptl_crystal_description       needle
_cell_formula_units_Z            8
loop_
_atom_site_label
_atom_site_type_symbol
_atom_site_fract_x
_atom_site_fract_y
_atom_site_fract_z
O1 O 0.40607(9) 0.4143(4) 0.17714(9)
N1 N 0.35082(11) 0.1157(5) 0.18762(11)
C1 C 0.49823(14) 0.9164(7) 0.16457(15)
H1 H 0.5152 0.9261 0.1997
O2 O 0.40857(9) 0.2228(4) 0.25984(9)
C2 C 0.50935(15) 1.0836(7) 0.12520(15)
H2 H 0.5341 1.2031 0.1338
O3 O 0.25881(9) -0.3624(4) 0.16779(9)
C3 C 0.48347(14) 1.0723(7) 0.07296(15)
H3 H 0.4903 1.1860 0.0467
O4 O 0.17519(9) 0.1452(4) 0.10662(9)
C4 C 0.44760(14) 0.8914(7) 0.06011(14)
H4 H 0.4305 0.8827 0.0251
O5 O 0.15550(9) -0.1987(4) 0.06108(10)
C5 C 0.43702(14) 0.7224(7) 0.09947(14)
H5 H 0.4131 0.6004 0.0905
C6 C 0.46202(13) 0.7345(6) 0.15212(13)
C7 C 0.45162(13) 0.5560(7) 0.19601(14)
H6 H 0.4832 0.4572 0.2030
H7 H 0.4440 0.6352 0.2301
C8 C 0.39009(13) 0.2451(6) 0.21249(14)
C9 C 0.32306(13) -0.0767(6) 0.21547(13)
H8 H 0.3127 -0.0288 0.2517
H9 H 0.3456 -0.2163 0.2191
C10 C 0.27355(13) -0.1191(6) 0.17627(13)
C11 C 0.29292(12) -0.0464(6) 0.12126(13)
C12 C 0.33344(13) 0.1459(6) 0.12839(13)
H10 H 0.3173 0.2993 0.1213
H11 H 0.3633 0.1236 0.1048
C13 C 0.22279(13) 0.0114(6) 0.19078(13)
H12 H 0.2304 0.1790 0.1925
H13 H 0.2128 -0.0384 0.2270
C14 C 0.17491(13) -0.0329(6) 0.14857(13)
H14 H 0.1408 -0.0266 0.1670
C15 C 0.17770(14) -0.2618(6) 0.11514(14)
H15 H 0.1549 -0.3819 0.1310
C16 C 0.23513(13) -0.3586(6) 0.11130(14)
H16 H 0.2350 -0.5155 0.0944
C17 C 0.27196(13) -0.1887(6) 0.08257(15)
H17 H 0.2784 -0.1857 0.0453
C18 C 0.14568(13) 0.0519(6) 0.05943(14)
C19 C 0.08601(14) 0.1010(7) 0.06155(16)
H18 H 0.0737 0.0461 0.0960
H19 H 0.0666 0.0208 0.0317
H20 H 0.0797 0.2675 0.0583
C20 C 0.16930(15) 0.1554(7) 0.00915(14)
H21 H 0.1634 0.3226 0.0085
H22 H 0.1522 0.0857 -0.0234
H23 H 0.2074 0.1241 0.0103
loop_
_geom_bond_atom_site_label_1
_geom_bond_atom_site_label_2
_geom_bond_site_symmetry_1
_geom_bond_site_symmetry_2
O1 C7 1_555 1_555
N1 C8 1_555 1_555
C1 H1 1_555 1_555
O2 C8 1_555 1_555
C2 C1 1_555 1_555
H2 C2 1_555 1_555
O3 C10 1_555 1_555
C3 C2 1_555 1_555
H3 C3 1_555 1_555
O4 C14 1_555 1_555
C4 C3 1_555 1_555
H4 C4 1_555 1_555
O5 C15 1_555 1_555
C5 C4 1_555 1_555
H5 C5 1_555 1_555
C6 C1 1_555 1_555
C7 C6 1_555 1_555
H6 C7 1_555 1_555
H7 C7 1_555 1_555
C8 O1 1_555 1_555
C9 N1 1_555 1_555
H8 C9 1_555 1_555
H9 C9 1_555 1_555
C10 C9 1_555 1_555
C11 C10 1_555 1_555
C12 N1 1_555 1_555
H10 C12 1_555 1_555
H11 C12 1_555 1_555
C13 C10 1_555 1_555
H12 C13 1_555 1_555
H13 C13 1_555 1_555
C14 C13 1_555 1_555
H14 C14 1_555 1_555
C15 C14 1_555 1_555
H15 C15 1_555 1_555
C16 O3 1_555 1_555
H16 C16 1_555 1_555
C17 C11 1_555 1_555
H17 C17 1_555 1_555
C18 O4 1_555 1_555
C19 C18 1_555 1_555
H18 C19 1_555 1_555
H19 C19 1_555 1_555
H20 C19 1_555 1_555
C20 C18 1_555 1_555
H21 C20 1_555 1_555
H22 C20 1_555 1_555
H23 C20 1_555 1_555
O5 C18 1_555 1_555
C5 C6 1_555 1_555
C11 C12 1_555 1_555
C15 C16 1_555 1_555
C16 C17 1_555 1_555

#END
