
#######################################################################
#
#                 Cambridge Crystallographic Data Centre
#                                CCDC 
#
#######################################################################
#
# If this CIF has been generated from an entry in the Cambridge 
# Structural Database, then it will include bibliographic, chemical, 
# crystal, experimental, refinement or atomic coordinate data resulting 
# from the CCDC's data processing and validation procedures.
#
#######################################################################

data_TENQUA01
_chemical_formula_moiety         'C7 H3 N2 O6 1-,C5 H8 N3 1+'
_chemical_name_systematic        '2,6-diaminopyridin-1-ium 3,5-dinitrobenzoate'
_symmetry_cell_setting           monoclinic
_symmetry_space_group_name_H-M   'P 21/c'
_symmetry_Int_Tables_number      14
_space_group_name_Hall           '-P 2ybc'
loop_
_symmetry_equiv_pos_site_id
_symmetry_equiv_pos_as_xyz
1 x,y,z
2 -x,1/2+y,1/2-z
3 -x,-y,-z
4 x,1/2-y,1/2+z
_cell_length_a                   12.5161(11)
_cell_length_b                   6.7717(8)
_cell_length_c                   31.620(3)
_cell_angle_alpha                90
_cell_angle_beta                 96.6590(10)
_cell_angle_gamma                90
_cell_volume                     2661.88
_exptl_crystal_colour            colorless
_exptl_crystal_description       block
_cell_formula_units_Z            8
loop_
_atom_site_label
_atom_site_type_symbol
_atom_site_fract_x
_atom_site_fract_y
_atom_site_fract_z
N1 N 0.7019(4) 0.2618(7) 0.56347(16)
H1 H 0.6447 0.2571 0.5456
C1 C 0.6902(5) 0.2594(9) 0.6057(2)
C2 C 0.7973(6) 0.2711(9) 0.5481(2)
N2 N 0.7954(5) 0.2773(9) 0.50556(19)
H2 H 0.7349 0.2753 0.4896
H3 H 0.8546 0.2834 0.4943
C3 C 0.7837(6) 0.2641(9) 0.6347(2)
H4 H 0.7797 0.2628 0.6639
N3 N 0.5918(5) 0.2566(9) 0.61651(19)
H5 H 0.5376 0.2564 0.5971
H6 H 0.5817 0.2550 0.6429
C4 C 0.8921(6) 0.2737(10) 0.5765(2)
H7 H 0.9596 0.2772 0.5669
C5 C 0.8804(6) 0.2707(10) 0.6192(2)
H8 H 0.9422 0.2734 0.6386
O1 O 0.5175(4) 0.2518(7) 0.51897(14)
O2 O 0.5768(4) 0.2135(9) 0.45585(16)
N4 N 0.2379(6) 0.2515(8) 0.34966(19)
C6 C 0.3890(5) 0.2346(8) 0.45863(19)
C7 C 0.2628(6) 0.2457(8) 0.39617(19)
C8 C 0.3039(5) 0.2260(9) 0.4835(2)
H9 H 0.3172 0.2193 0.5130
C9 C 0.2007(5) 0.2276(10) 0.4638(2)
C10 C 0.1755(6) 0.2421(9) 0.4202(2)
H10 H 0.1048 0.2490 0.4075
C11 C 0.3663(5) 0.2426(9) 0.4146(2)
H11 H 0.4223 0.2459 0.3977
O3 O 0.1458(5) 0.2713(9) 0.33453(17)
O4 O 0.3127(5) 0.2363(9) 0.32877(17)
O5 O 0.1278(5) 0.1520(11) 0.52562(19)
O6 O 0.0219(5) 0.2555(9) 0.4730(2)
C12 C 0.5049(6) 0.2358(9) 0.4788(2)
N5 N 0.1113(5) 0.2180(10) 0.4895(2)
O7 O 0.5167(4) 0.4483(10) 0.76896(16)
O8 O 0.5784(4) 0.4049(9) 0.70622(16)
C13 C 0.1783(6) 0.4747(11) 0.6700(2)
H12 H 0.1073 0.4748 0.6575
C14 C 0.2027(5) 0.4888(10) 0.7130(2)
C15 C 0.2606(6) 0.4606(11) 0.6461(2)
N6 N 0.2393(6) 0.4567(10) 0.5996(2)
C16 C 0.3684(6) 0.4484(11) 0.6644(2)
H13 H 0.4238 0.4390 0.6473
C17 C 0.3906(6) 0.4507(11) 0.7087(2)
C18 C 0.3052(6) 0.4697(11) 0.7333(2)
H14 H 0.3177 0.4695 0.7628
O9 O 0.1486(5) 0.4926(10) 0.58366(18)
O10 O 0.1303(4) 0.5563(9) 0.77562(17)
O11 O 0.3150(5) 0.4173(11) 0.57928(18)
N7 N 0.1130(5) 0.5059(10) 0.7394(2)
O12 O 0.0215(5) 0.4589(13) 0.7225(2)
C19 C 0.5043(6) 0.4327(12) 0.7293(2)
N8 N 0.2979(4) 0.9569(9) 0.68668(18)
H15 H 0.3555 0.9510 0.7044
C20 C 0.2024(6) 0.9778(10) 0.7029(2)
C21 C 0.3084(6) 0.9448(11) 0.6448(2)
C22 C 0.2169(6) 0.9486(12) 0.6153(2)
H16 H 0.2217 0.9440 0.5861
N9 N 0.2041(5) 0.9936(10) 0.74439(19)
H17 H 0.2644 0.9905 0.7605
H18 H 0.1449 1.0069 0.7555
N10 N 0.4075(5) 0.9299(11) 0.6332(2)
H19 H 0.4624 0.9283 0.6523
H20 H 0.4163 0.9220 0.6067
C23 C 0.1185(6) 0.9597(11) 0.6311(3)
H21 H 0.0561 0.9556 0.6121
C24 C 0.1094(6) 0.9762(12) 0.6734(3)
H22 H 0.0419 0.9865 0.6828
loop_
_geom_bond_atom_site_label_1
_geom_bond_atom_site_label_2
_geom_bond_site_symmetry_1
_geom_bond_site_symmetry_2
N1 H1 1_555 1_555
C1 N1 1_555 1_555
C2 N1 1_555 1_555
N2 C2 1_555 1_555
H2 N2 1_555 1_555
H3 N2 1_555 1_555
C3 C1 1_555 1_555
H4 C3 1_555 1_555
N3 C1 1_555 1_555
H5 N3 1_555 1_555
H6 N3 1_555 1_555
C4 C2 1_555 1_555
H7 C4 1_555 1_555
C5 C3 1_555 1_555
H8 C5 1_555 1_555
O1 C12 1_555 1_555
O2 C12 1_555 1_555
N4 C7 1_555 1_555
C6 C8 1_555 1_555
C7 C10 1_555 1_555
C8 H9 1_555 1_555
C9 C8 1_555 1_555
C10 C9 1_555 1_555
H10 C10 1_555 1_555
C11 C6 1_555 1_555
H11 C11 1_555 1_555
O3 N4 1_555 1_555
O4 N4 1_555 1_555
O5 N5 1_555 1_555
O6 N5 1_555 1_555
C12 C6 1_555 1_555
N5 C9 1_555 1_555
O7 C19 1_555 1_555
O8 C19 1_555 1_555
C13 H12 1_555 1_555
C14 C13 1_555 1_555
C15 C13 1_555 1_555
N6 C15 1_555 1_555
C16 C15 1_555 1_555
H13 C16 1_555 1_555
C17 C16 1_555 1_555
C18 C14 1_555 1_555
H14 C18 1_555 1_555
O9 N6 1_555 1_555
O10 N7 1_555 1_555
O11 N6 1_555 1_555
N7 C14 1_555 1_555
O12 N7 1_555 1_555
C19 C17 1_555 1_555
N8 H15 1_555 1_555
C20 N8 1_555 1_555
C21 N8 1_555 1_555
C22 C21 1_555 1_555
H16 C22 1_555 1_555
N9 C20 1_555 1_555
H17 N9 1_555 1_555
H18 N9 1_555 1_555
N10 C21 1_555 1_555
H19 N10 1_555 1_555
H20 N10 1_555 1_555
C23 C22 1_555 1_555
H21 C23 1_555 1_555
C24 C20 1_555 1_555
H22 C24 1_555 1_555
C4 C5 1_555 1_555
C7 C11 1_555 1_555
C17 C18 1_555 1_555
C23 C24 1_555 1_555

#END
