
#######################################################################
#
#                 Cambridge Crystallographic Data Centre
#                                CCDC 
#
#######################################################################
#
# If this CIF has been generated from an entry in the Cambridge 
# Structural Database, then it will include bibliographic, chemical, 
# crystal, experimental, refinement or atomic coordinate data resulting 
# from the CCDC's data processing and validation procedures.
#
#######################################################################

data_TENRUC
_chemical_formula_moiety         'C17 H18 O4 S1'
_chemical_name_systematic        
'(R)-S-((2-hydroxy-3-methoxyphenyl)(2-methoxyphenyl)methyl) ethanethioate'
_symmetry_cell_setting           triclinic
_symmetry_space_group_name_H-M   'P 1'
_symmetry_Int_Tables_number      1
_space_group_name_Hall           'P 1'
loop_
_symmetry_equiv_pos_site_id
_symmetry_equiv_pos_as_xyz
1 x,y,z
_cell_length_a                   8.7064(18)
_cell_length_b                   8.7244(18)
_cell_length_c                   12.477(3)
_cell_angle_alpha                91.836(4)
_cell_angle_beta                 103.159(5)
_cell_angle_gamma                108.693(4)
_cell_volume                     868.481
_exptl_crystal_colour            colorless
_exptl_crystal_description       prismatic
_chemical_melting_point          '490 K'
_cell_formula_units_Z            2
_chemical_properties_physical    Heat-sensitive
_exptl_crystal_recrystallization_method dichloromethane
loop_
_atom_site_label
_atom_site_type_symbol
_atom_site_fract_x
_atom_site_fract_y
_atom_site_fract_z
S1 S -0.28893(17) 1.01701(15) 0.68069(12)
O1 O 0.0770(5) 0.7863(5) 0.8284(3)
O2 O 0.1120(5) 1.2220(4) 0.8622(3)
H1 H 0.1934 1.2909 0.9039
O3 O 0.3749(6) 1.4389(5) 0.8190(4)
O4 O -0.2962(6) 0.9416(5) 0.8817(4)
C1 C -0.1050(6) 0.9539(5) 0.7204(4)
H2 H -0.0737 0.9622 0.8015
C2 C -0.1404(6) 0.7784(5) 0.6779(4)
C3 C -0.2603(8) 0.6964(6) 0.5842(4)
H3 H -0.3247 0.7501 0.5416
C4 C -0.2866(10) 0.5346(7) 0.5520(5)
H4 H -0.3688 0.4796 0.4887
C5 C -0.1920(12) 0.4578(7) 0.6135(6)
H5 H -0.2107 0.3487 0.5927
C6 C -0.0703(11) 0.5366(7) 0.7048(5)
H6 H -0.0056 0.4814 0.7453
C7 C -0.0403(7) 0.6988(6) 0.7390(4)
C8 C 0.1752(11) 0.7075(11) 0.8991(7)
H7 H 0.1035 0.6243 0.9314
H8 H 0.2576 0.7862 0.9568
H9 H 0.2302 0.6592 0.8564
C9 C 0.0370(6) 1.0748(5) 0.6862(4)
C10 C 0.1424(7) 1.2063(6) 0.7624(4)
C11 C 0.2791(8) 1.3215(6) 0.7350(6)
C12 C 0.3040(9) 1.3056(8) 0.6311(6)
H10 H 0.3929 1.3818 0.6118
C13 C 0.1972(11) 1.1771(10) 0.5564(6)
H11 H 0.2136 1.1676 0.4857
C14 C 0.0670(8) 1.0621(7) 0.5828(5)
H12 H -0.0021 0.9744 0.5307
C15 C 0.5225(12) 1.5514(10) 0.8064(10)
H13 H 0.5936 1.4950 0.7891
H14 H 0.5788 1.6227 0.8740
H15 H 0.4968 1.6141 0.7474
C16 C -0.3593(9) 0.9949(7) 0.8025(6)
C17 C -0.5089(14) 1.0504(15) 0.7948(10)
H16 H -0.5604 1.0130 0.8538
H17 H -0.5884 1.0063 0.7248
H18 H -0.4728 1.1672 0.8008
S2 S 0.51045(17) 0.57089(16) 0.23857(12)
O5 O 0.1611(7) 0.8441(6) 0.1468(5)
O6 O 0.5807(5) 0.8694(4) 0.0669(3)
H19 H 0.6305 0.9246 0.0254
O7 O 0.8149(6) 1.1581(5) 0.1023(5)
O8 O 0.2916(5) 0.4536(4) 0.0489(3)
C18 C 0.4090(6) 0.7269(6) 0.2195(4)
H20 H 0.3548 0.7165 0.1403
C19 C 0.2742(7) 0.7031(6) 0.2803(4)
C20 C 0.2703(10) 0.6276(8) 0.3750(6)
H21 H 0.3537 0.5842 0.4038
C21 C 0.1443(15) 0.6147(12) 0.4284(7)
H22 H 0.1431 0.5635 0.4926
C22 C 0.0227(15) 0.6778(12) 0.3860(10)
H23 H -0.0633 0.6673 0.4209
C23 C 0.0240(11) 0.7572(11) 0.2923(9)
H24 H -0.0593 0.8013 0.2650
C24 C 0.1491(8) 0.7707(8) 0.2396(6)
C25 C 0.0293(14) 0.9040(15) 0.0940(11)
H25 H -0.0775 0.8249 0.0926
H26 H 0.0363 0.9226 0.0196
H27 H 0.0415 1.0042 0.1348
C26 C 0.5469(7) 0.8914(6) 0.2472(4)
C27 C 0.6270(6) 0.9551(6) 0.1682(4)
C28 C 0.7534(7) 1.1067(7) 0.1901(6)
C29 C 0.8039(10) 1.1883(8) 0.2943(8)
H28 H 0.8913 1.2874 0.3110
C30 C 0.7243(13) 1.1225(9) 0.3748(7)
H29 H 0.7581 1.1783 0.4455
C31 C 0.5965(10) 0.9766(8) 0.3512(5)
H30 H 0.5428 0.9344 0.4056
C32 C 0.9435(14) 1.3128(11) 0.1168(11)
H31 H 0.9078 1.3943 0.1469
H32 H 0.9657 1.3393 0.0465
H33 H 1.0435 1.3088 0.1667
C33 C 0.4013(8) 0.4352(6) 0.1183(5)
C34 C 0.4594(13) 0.2907(9) 0.1122(8)
H34 H 0.3867 0.2138 0.0502
H35 H 0.4568 0.2400 0.1793
H36 H 0.5718 0.3264 0.1034
loop_
_geom_bond_atom_site_label_1
_geom_bond_atom_site_label_2
_geom_bond_site_symmetry_1
_geom_bond_site_symmetry_2
S1 C1 1_555 1_555
O1 C7 1_555 1_555
O2 H1 1_555 1_555
O3 C11 1_555 1_555
O4 C16 1_555 1_555
C1 H2 1_555 1_555
C2 C1 1_555 1_555
C3 C2 1_555 1_555
H3 C3 1_555 1_555
C4 C3 1_555 1_555
H4 C4 1_555 1_555
C5 C4 1_555 1_555
H5 C5 1_555 1_555
C6 C5 1_555 1_555
H6 C6 1_555 1_555
C7 C2 1_555 1_555
C8 O1 1_555 1_555
H7 C8 1_555 1_555
H8 C8 1_555 1_555
H9 C8 1_555 1_555
C9 C1 1_555 1_555
C10 O2 1_555 1_555
C11 C10 1_555 1_555
C12 C11 1_555 1_555
H10 C12 1_555 1_555
C13 C12 1_555 1_555
H11 C13 1_555 1_555
C14 C9 1_555 1_555
H12 C14 1_555 1_555
C15 O3 1_555 1_555
H13 C15 1_555 1_555
H14 C15 1_555 1_555
H15 C15 1_555 1_555
C16 S1 1_555 1_555
C17 C16 1_555 1_555
H16 C17 1_555 1_555
H17 C17 1_555 1_555
H18 C17 1_555 1_555
S2 C18 1_555 1_555
O5 C24 1_555 1_555
O6 H19 1_555 1_555
O7 C28 1_555 1_555
O8 C33 1_555 1_555
C18 H20 1_555 1_555
C19 C18 1_555 1_555
C20 C19 1_555 1_555
H21 C20 1_555 1_555
C21 C20 1_555 1_555
H22 C21 1_555 1_555
C22 C21 1_555 1_555
H23 C22 1_555 1_555
C23 C22 1_555 1_555
H24 C23 1_555 1_555
C24 C19 1_555 1_555
C25 O5 1_555 1_555
H25 C25 1_555 1_555
H26 C25 1_555 1_555
H27 C25 1_555 1_555
C26 C18 1_555 1_555
C27 O6 1_555 1_555
C28 C27 1_555 1_555
C29 C28 1_555 1_555
H28 C29 1_555 1_555
C30 C29 1_555 1_555
H29 C30 1_555 1_555
C31 C26 1_555 1_555
H30 C31 1_555 1_555
C32 O7 1_555 1_555
H31 C32 1_555 1_555
H32 C32 1_555 1_555
H33 C32 1_555 1_555
C33 S2 1_555 1_555
C34 C33 1_555 1_555
H34 C34 1_555 1_555
H35 C34 1_555 1_555
H36 C34 1_555 1_555
C6 C7 1_555 1_555
C9 C10 1_555 1_555
C13 C14 1_555 1_555
C23 C24 1_555 1_555
C26 C27 1_555 1_555
C30 C31 1_555 1_555

#END
