
#######################################################################
#
#                 Cambridge Crystallographic Data Centre
#                                CCDC 
#
#######################################################################
#
# If this CIF has been generated from an entry in the Cambridge 
# Structural Database, then it will include bibliographic, chemical, 
# crystal, experimental, refinement or atomic coordinate data resulting 
# from the CCDC's data processing and validation procedures.
#
#######################################################################

data_TENSIR
_chemical_formula_moiety         'C23 H22 N2 O5'
_chemical_name_systematic        
'diethyl 3-(4-methylphenyl)-4-oxoindeno[1,2-c]pyrazole-2,3a(3H,4H)-dicarboxylate'
_symmetry_cell_setting           monoclinic
_symmetry_space_group_name_H-M   'P 21/n'
_symmetry_Int_Tables_number      14
_space_group_name_Hall           '-P 2yn'
loop_
_symmetry_equiv_pos_site_id
_symmetry_equiv_pos_as_xyz
1 x,y,z
2 1/2-x,1/2+y,1/2-z
3 -x,-y,-z
4 1/2+x,1/2-y,1/2+z
_cell_length_a                   8.7581(8)
_cell_length_b                   28.528(3)
_cell_length_c                   16.5308(16)
_cell_angle_alpha                90
_cell_angle_beta                 92.123(2)
_cell_angle_gamma                90
_cell_volume                     4127.4
_exptl_crystal_colour            colorless
_exptl_crystal_description       Prism
_cell_formula_units_Z            8
loop_
_atom_site_label
_atom_site_type_symbol
_atom_site_fract_x
_atom_site_fract_y
_atom_site_fract_z
O1 O 0.18862(19) 0.25203(5) 0.16531(9)
O2 O -0.02724(17) 0.16747(6) 0.17017(9)
O3 O -0.02813(19) 0.12793(6) 0.05248(10)
O4 O 0.55840(18) 0.08404(6) 0.11776(10)
O5 O 0.52115(18) 0.07826(6) -0.01782(10)
N1 N 0.31749(19) 0.14435(6) -0.01883(10)
N2 N 0.35930(19) 0.12100(6) 0.05370(10)
C1 C 0.1716(2) 0.23095(7) 0.10228(13)
C2 C 0.1370(2) 0.25100(7) 0.02038(12)
C3 C 0.0899(2) 0.29623(7) 0.00055(13)
H1 H 0.0720 0.3187 0.0415
C4 C 0.0698(3) 0.30753(8) -0.08030(14)
H2 H 0.0366 0.3381 -0.0953
C5 C 0.0976(3) 0.27462(8) -0.14022(14)
H3 H 0.0821 0.2832 -0.1955
C6 C 0.1472(2) 0.22984(7) -0.12130(13)
H4 H 0.1681 0.2078 -0.1626
C7 C 0.1654(2) 0.21800(7) -0.04015(12)
C8 C 0.2218(2) 0.17575(7) 0.00069(12)
C9 C 0.1858(2) 0.17784(7) 0.08887(12)
C10 C 0.0298(2) 0.15434(8) 0.10115(13)
C11 C -0.1712(3) 0.14576(14) 0.19256(17)
H5 H -0.2550 0.1688 0.1845
H6 H -0.1933 0.1188 0.1562
C12 C -0.1681(4) 0.13053(16) 0.2713(2)
H7 H -0.0942 0.1049 0.2781
H8 H -0.2699 0.1193 0.2848
H9 H -0.1382 0.1565 0.3074
C13 C 0.3190(2) 0.14841(7) 0.12682(12)
H10 H 0.4057 0.1698 0.1422
C14 C 0.2818(2) 0.11900(7) 0.19873(12)
C15 C 0.3000(2) 0.13751(7) 0.27557(12)
H11 H 0.3423 0.1680 0.2824
C16 C 0.2576(2) 0.11249(7) 0.34284(13)
H12 H 0.2701 0.1263 0.3950
C17 C 0.1972(2) 0.06762(7) 0.33550(13)
C18 C 0.1827(3) 0.04888(8) 0.25830(14)
H13 H 0.1447 0.0179 0.2516
C19 C 0.2221(3) 0.07414(8) 0.19073(14)
H14 H 0.2081 0.0606 0.1384
C20 C 0.1456(3) 0.04109(8) 0.40825(14)
H15 H 0.0351 0.0449 0.4129
H16 H 0.1985 0.0533 0.4571
H17 H 0.1696 0.0078 0.4021
C21 C 0.4888(2) 0.09344(7) 0.05570(15)
C22 C 0.6592(3) 0.04963(10) -0.01979(18)
H18 H 0.6484 0.0214 0.0143
H19 H 0.7487 0.0677 0.0010
C23 C 0.6795(3) 0.03609(10) -0.1045(2)
H20 H 0.5913 0.0176 -0.1240
H21 H 0.7727 0.0173 -0.1082
H22 H 0.6881 0.0643 -0.1378
O6 O 0.06292(18) 0.25150(5) 0.66093(9)
O7 O 0.28697(16) 0.16808(6) 0.67073(9)
O8 O 0.28552(18) 0.12940(6) 0.55269(9)
O9 O -0.30561(16) 0.08499(5) 0.59757(9)
O10 O -0.26806(16) 0.07818(5) 0.46322(9)
N3 N -0.06379(18) 0.14488(6) 0.47068(10)
N4 N -0.10493(18) 0.12099(6) 0.54122(10)
C24 C 0.0821(2) 0.23068(7) 0.59848(13)
C25 C 0.1192(2) 0.25094(7) 0.51852(12)
C26 C 0.1707(3) 0.29592(7) 0.50146(14)
H23 H 0.1879 0.3183 0.5434
C27 C 0.1959(3) 0.30702(8) 0.42194(14)
H24 H 0.2338 0.3372 0.4091
C28 C 0.1670(3) 0.27492(8) 0.36024(14)
H25 H 0.1854 0.2836 0.3060
C29 C 0.1118(2) 0.23044(7) 0.37609(13)
H26 H 0.0898 0.2088 0.3335
C30 C 0.0899(2) 0.21858(7) 0.45598(12)
C31 C 0.0322(2) 0.17610(7) 0.49426(12)
C32 C 0.0696(2) 0.17759(7) 0.58382(12)
C33 C 0.2269(2) 0.15513(7) 0.59988(12)
C34 C 0.4350(3) 0.14736(11) 0.69585(15)
H27 H 0.4585 0.1209 0.6596
H28 H 0.5167 0.1711 0.6916
C35 C 0.4299(3) 0.13097(14) 0.77796(19)
H29 H 0.4023 0.1570 0.8133
H30 H 0.5305 0.1188 0.7953
H31 H 0.3535 0.1060 0.7812
C36 C -0.0625(2) 0.14757(7) 0.61653(12)
H32 H -0.1490 0.1686 0.6304
C37 C -0.0207(2) 0.11731(7) 0.68839(12)
C38 C -0.0427(2) 0.13442(7) 0.76541(13)
H33 H -0.0905 0.1640 0.7717
C39 C 0.0036(3) 0.10930(8) 0.83325(14)
H34 H -0.0120 0.1220 0.8855
C40 C 0.0725(2) 0.06591(8) 0.82627(14)
C41 C 0.0924(3) 0.04852(8) 0.74910(14)
H35 H 0.1385 0.0186 0.7430
C42 C 0.0468(2) 0.07359(7) 0.68085(13)
H36 H 0.0616 0.0609 0.6286
C43 C 0.1277(3) 0.03899(10) 0.90049(16)
H37 H 0.2362 0.0457 0.9117
H38 H 0.1140 0.0053 0.8909
H39 H 0.0687 0.0485 0.9470
C44 C -0.2359(2) 0.09386(7) 0.53810(13)
C45 C -0.4022(2) 0.04808(8) 0.45613(15)
H40 H -0.4960 0.0668 0.4630
H41 H -0.3970 0.0236 0.4985
C46 C -0.4051(3) 0.02616(11) 0.37462(18)
H42 H -0.4164 0.0506 0.3331
H43 H -0.4914 0.0044 0.3695
H44 H -0.3095 0.0091 0.3674
loop_
_geom_bond_atom_site_label_1
_geom_bond_atom_site_label_2
_geom_bond_site_symmetry_1
_geom_bond_site_symmetry_2
O1 C1 1_555 1_555
O2 C10 1_555 1_555
O3 C10 1_555 1_555
O4 C21 1_555 1_555
O5 C21 1_555 1_555
N1 N2 1_555 1_555
N2 C13 1_555 1_555
C1 C2 1_555 1_555
C2 C3 1_555 1_555
C3 H1 1_555 1_555
C4 C3 1_555 1_555
H2 C4 1_555 1_555
C5 C4 1_555 1_555
H3 C5 1_555 1_555
C6 C5 1_555 1_555
H4 C6 1_555 1_555
C7 C2 1_555 1_555
C8 N1 1_555 1_555
C9 C1 1_555 1_555
C10 C9 1_555 1_555
C11 O2 1_555 1_555
H5 C11 1_555 1_555
H6 C11 1_555 1_555
C12 C11 1_555 1_555
H7 C12 1_555 1_555
H8 C12 1_555 1_555
H9 C12 1_555 1_555
C13 C9 1_555 1_555
H10 C13 1_555 1_555
C14 C13 1_555 1_555
C15 C14 1_555 1_555
H11 C15 1_555 1_555
C16 C15 1_555 1_555
H12 C16 1_555 1_555
C17 C16 1_555 1_555
C18 C17 1_555 1_555
H13 C18 1_555 1_555
C19 C14 1_555 1_555
H14 C19 1_555 1_555
C20 C17 1_555 1_555
H15 C20 1_555 1_555
H16 C20 1_555 1_555
H17 C20 1_555 1_555
C21 N2 1_555 1_555
C22 O5 1_555 1_555
H18 C22 1_555 1_555
H19 C22 1_555 1_555
C23 C22 1_555 1_555
H20 C23 1_555 1_555
H21 C23 1_555 1_555
H22 C23 1_555 1_555
O6 C24 1_555 1_555
O7 C33 1_555 1_555
O8 C33 1_555 1_555
O9 C44 1_555 1_555
O10 C44 1_555 1_555
N3 N4 1_555 1_555
N4 C36 1_555 1_555
C24 C25 1_555 1_555
C25 C26 1_555 1_555
C26 H23 1_555 1_555
C27 C26 1_555 1_555
H24 C27 1_555 1_555
C28 C27 1_555 1_555
H25 C28 1_555 1_555
C29 C28 1_555 1_555
H26 C29 1_555 1_555
C30 C25 1_555 1_555
C31 N3 1_555 1_555
C32 C24 1_555 1_555
C33 C32 1_555 1_555
C34 O7 1_555 1_555
H27 C34 1_555 1_555
H28 C34 1_555 1_555
C35 C34 1_555 1_555
H29 C35 1_555 1_555
H30 C35 1_555 1_555
H31 C35 1_555 1_555
C36 C32 1_555 1_555
H32 C36 1_555 1_555
C37 C36 1_555 1_555
C38 C37 1_555 1_555
H33 C38 1_555 1_555
C39 C38 1_555 1_555
H34 C39 1_555 1_555
C40 C39 1_555 1_555
C41 C40 1_555 1_555
H35 C41 1_555 1_555
C42 C37 1_555 1_555
H36 C42 1_555 1_555
C43 C40 1_555 1_555
H37 C43 1_555 1_555
H38 C43 1_555 1_555
H39 C43 1_555 1_555
C44 N4 1_555 1_555
C45 O10 1_555 1_555
H40 C45 1_555 1_555
H41 C45 1_555 1_555
C46 C45 1_555 1_555
H42 C46 1_555 1_555
H43 C46 1_555 1_555
H44 C46 1_555 1_555
C6 C7 1_555 1_555
C7 C8 1_555 1_555
C8 C9 1_555 1_555
C18 C19 1_555 1_555
C29 C30 1_555 1_555
C30 C31 1_555 1_555
C31 C32 1_555 1_555
C41 C42 1_555 1_555

#END
