
#######################################################################
#
#                 Cambridge Crystallographic Data Centre
#                                CCDC 
#
#######################################################################
#
# If this CIF has been generated from an entry in the Cambridge 
# Structural Database, then it will include bibliographic, chemical, 
# crystal, experimental, refinement or atomic coordinate data resulting 
# from the CCDC's data processing and validation procedures.
#
#######################################################################

data_TENVEQ
_chemical_formula_moiety         'C22 H20 Cl1 N3 O1'
_chemical_name_systematic        
4-(5-chloro-1H-indol-3-yl)-N-(quinolin-8-yl)pentanamide
_symmetry_cell_setting           monoclinic
_symmetry_space_group_name_H-M   'P 21'
_symmetry_Int_Tables_number      4
_space_group_name_Hall           'P 2yb'
loop_
_symmetry_equiv_pos_site_id
_symmetry_equiv_pos_as_xyz
1 x,y,z
2 -x,1/2+y,-z
_cell_length_a                   9.986(2)
_cell_length_b                   16.831(3)
_cell_length_c                   12.030(2)
_cell_angle_alpha                90
_cell_angle_beta                 109.35(3)
_cell_angle_gamma                90
_cell_volume                     1907.72
_exptl_crystal_colour            colorless
_exptl_crystal_description       Prism
_cell_formula_units_Z            4
loop_
_atom_site_label
_atom_site_type_symbol
_atom_site_fract_x
_atom_site_fract_y
_atom_site_fract_z
Cl1 Cl 0.62027(8) 0.00799(5) 0.19284(6)
O1 O 0.6429(2) -0.02284(15) 0.82306(18)
N1 N 1.1081(2) 0.00009(18) 0.62548(19)
N2 N 0.5259(3) 0.09460(17) 0.7932(2)
N3 N 0.4517(3) 0.22953(18) 0.8695(2)
C1 C 1.0031(3) -0.00748(19) 0.5184(2)
C2 C 0.9899(3) -0.0609(2) 0.4265(2)
H1 H 1.0602 -0.1002 0.4326
C3 C 0.8723(3) -0.0550(2) 0.3271(3)
H2 H 0.8610 -0.0904 0.2631
C4 C 0.7693(3) 0.0027(2) 0.3199(2)
C5 C 0.7803(3) 0.0557(2) 0.4097(2)
H3 H 0.7085 0.0942 0.4029
C6 C 0.9003(3) 0.05133(18) 0.5115(2)
C7 C 0.9481(3) 0.09629(19) 0.6191(2)
C8 C 1.0740(3) 0.0629(2) 0.6851(2)
H4 H 1.1302 0.0803 0.7613
C9 C 0.8733(3) 0.1645(2) 0.6551(2)
H5 H 0.7998 0.1856 0.5827
C10 C 0.9757(3) 0.2318(2) 0.7104(3)
H6 H 1.0467 0.2130 0.7834
H7 H 0.9231 0.2764 0.7281
H8 H 1.0234 0.2492 0.6553
C11 C 0.7981(3) 0.1366(2) 0.7403(2)
H9 H 0.8700 0.1169 0.8134
H10 H 0.7494 0.1825 0.7615
C12 C 0.6895(3) 0.07083(18) 0.6888(2)
H11 H 0.6160 0.0910 0.6171
H12 H 0.7377 0.0256 0.6653
C13 C 0.6188(3) 0.0417(2) 0.7743(2)
C14 C 0.4477(3) 0.0879(2) 0.8712(2)
C15 C 0.4061(3) 0.0182(2) 0.9065(2)
H13 H 0.4333 -0.0308 0.8811
C16 C 0.3228(3) 0.0186(2) 0.9805(2)
H14 H 0.2924 -0.0303 1.0036
C17 C 0.2854(3) 0.0880(2) 1.0194(2)
H15 H 0.2308 0.0870 1.0708
C18 C 0.3262(3) 0.1617(2) 0.9847(2)
C19 C 0.4084(3) 0.1618(2) 0.9084(2)
C20 C 0.4168(3) 0.2978(2) 0.9062(3)
H16 H 0.4460 0.3454 0.8786
C21 C 0.3387(3) 0.3040(2) 0.9840(3)
H17 H 0.3180 0.3545 1.0094
C22 C 0.2934(3) 0.2364(2) 1.0223(3)
H18 H 0.2397 0.2395 1.0742
H19 H 0.523(3) 0.1447(8) 0.766(2)
H20 H 1.190(2) -0.0278(18) 0.647(3)
Cl2 Cl 0.64503(9) 0.36353(6) -0.29499(6)
O2 O 0.6595(2) 0.40237(14) 0.35963(19)
N4 N 1.1202(2) 0.37540(18) 0.1463(2)
N5 N 0.5636(3) 0.27952(17) 0.3311(2)
N6 N 0.4480(2) 0.14507(17) 0.3630(2)
C23 C 1.0171(3) 0.38291(19) 0.0385(2)
C24 C 1.0052(3) 0.4358(2) -0.0527(3)
H21 H 1.0755 0.4754 -0.0451
C25 C 0.8900(3) 0.4303(2) -0.1545(3)
H22 H 0.8801 0.4656 -0.2183
C26 C 0.7872(3) 0.3715(2) -0.1624(2)
C27 C 0.7955(3) 0.3192(2) -0.0739(2)
H23 H 0.7231 0.2808 -0.0822
C28 C 0.9138(3) 0.32335(19) 0.0305(2)
C29 C 0.9605(3) 0.27976(19) 0.1385(2)
C30 C 1.0849(3) 0.3139(2) 0.2044(2)
H24 H 1.1401 0.2969 0.2812
C31 C 0.8886(3) 0.2116(2) 0.1759(3)
H25 H 0.9550 0.1921 0.2530
C32 C 0.8600(3) 0.1417(2) 0.0896(3)
H26 H 0.7911 0.1579 0.0139
H27 H 0.8217 0.0970 0.1216
H28 H 0.9488 0.1257 0.0780
C33 C 0.7512(3) 0.2374(2) 0.1970(2)
H29 H 0.6806 0.2540 0.1213
H30 H 0.7115 0.1916 0.2274
C34 C 0.7771(3) 0.3049(2) 0.2835(3)
H31 H 0.8573 0.2892 0.3540
H32 H 0.8096 0.3508 0.2478
C35 C 0.6601(3) 0.3339(2) 0.3256(2)
C36 C 0.4646(3) 0.28532(19) 0.3910(2)
C37 C 0.4253(3) 0.3542(2) 0.4333(2)
H33 H 0.4619 0.4040 0.4196
C38 C 0.3302(3) 0.3501(2) 0.4971(2)
H34 H 0.3026 0.3977 0.5258
C39 C 0.2766(3) 0.2796(2) 0.5187(2)
H35 H 0.2146 0.2785 0.5639
C40 C 0.3130(3) 0.2080(2) 0.4743(2)
C41 C 0.4078(3) 0.2108(2) 0.4102(2)
C42 C 0.3965(3) 0.0760(2) 0.3803(3)
H36 H 0.4245 0.0300 0.3479
C43 C 0.3025(3) 0.0665(2) 0.4439(3)
H37 H 0.2682 0.0155 0.4547
C44 C 0.2615(3) 0.1330(2) 0.4901(3)
H38 H 0.1975 0.1281 0.5331
H39 H 0.569(3) 0.2295(9) 0.306(3)
H40 H 1.193(2) 0.4095(16) 0.166(3)
loop_
_geom_bond_atom_site_label_1
_geom_bond_atom_site_label_2
_geom_bond_site_symmetry_1
_geom_bond_site_symmetry_2
Cl1 C4 1_555 1_555
O1 C13 1_555 1_555
N1 C1 1_555 1_555
N2 C13 1_555 1_555
N3 C19 1_555 1_555
C1 C2 1_555 1_555
C2 H1 1_555 1_555
C3 C2 1_555 1_555
H2 C3 1_555 1_555
C4 C3 1_555 1_555
C5 C4 1_555 1_555
H3 C5 1_555 1_555
C6 C1 1_555 1_555
C7 C6 1_555 1_555
C8 N1 1_555 1_555
H4 C8 1_555 1_555
C9 C7 1_555 1_555
H5 C9 1_555 1_555
C10 C9 1_555 1_555
H6 C10 1_555 1_555
H7 C10 1_555 1_555
H8 C10 1_555 1_555
C11 C9 1_555 1_555
H9 C11 1_555 1_555
H10 C11 1_555 1_555
C12 C11 1_555 1_555
H11 C12 1_555 1_555
H12 C12 1_555 1_555
C13 C12 1_555 1_555
C14 N2 1_555 1_555
C15 C14 1_555 1_555
H13 C15 1_555 1_555
C16 C15 1_555 1_555
H14 C16 1_555 1_555
C17 C16 1_555 1_555
H15 C17 1_555 1_555
C18 C17 1_555 1_555
C19 C14 1_555 1_555
C20 N3 1_555 1_555
H16 C20 1_555 1_555
C21 C20 1_555 1_555
H17 C21 1_555 1_555
C22 C18 1_555 1_555
H18 C22 1_555 1_555
H19 N2 1_555 1_555
H20 N1 1_555 1_555
Cl2 C26 1_555 1_555
O2 C35 1_555 1_555
N4 C23 1_555 1_555
N5 C35 1_555 1_555
N6 C41 1_555 1_555
C23 C24 1_555 1_555
C24 H21 1_555 1_555
C25 C24 1_555 1_555
H22 C25 1_555 1_555
C26 C25 1_555 1_555
C27 C26 1_555 1_555
H23 C27 1_555 1_555
C28 C23 1_555 1_555
C29 C28 1_555 1_555
C30 N4 1_555 1_555
H24 C30 1_555 1_555
C31 C29 1_555 1_555
H25 C31 1_555 1_555
C32 C31 1_555 1_555
H26 C32 1_555 1_555
H27 C32 1_555 1_555
H28 C32 1_555 1_555
C33 C31 1_555 1_555
H29 C33 1_555 1_555
H30 C33 1_555 1_555
C34 C33 1_555 1_555
H31 C34 1_555 1_555
H32 C34 1_555 1_555
C35 C34 1_555 1_555
C36 N5 1_555 1_555
C37 C36 1_555 1_555
H33 C37 1_555 1_555
C38 C37 1_555 1_555
H34 C38 1_555 1_555
C39 C38 1_555 1_555
H35 C39 1_555 1_555
C40 C39 1_555 1_555
C41 C36 1_555 1_555
C42 N6 1_555 1_555
H36 C42 1_555 1_555
C43 C42 1_555 1_555
H37 C43 1_555 1_555
C44 C40 1_555 1_555
H38 C44 1_555 1_555
H39 N5 1_555 1_555
H40 N4 1_555 1_555
C5 C6 1_555 1_555
C7 C8 1_555 1_555
C18 C19 1_555 1_555
C21 C22 1_555 1_555
C27 C28 1_555 1_555
C29 C30 1_555 1_555
C40 C41 1_555 1_555
C43 C44 1_555 1_555

#END
