
#######################################################################
#
#                 Cambridge Crystallographic Data Centre
#                                CCDC 
#
#######################################################################
#
# If this CIF has been generated from an entry in the Cambridge 
# Structural Database, then it will include bibliographic, chemical, 
# crystal, experimental, refinement or atomic coordinate data resulting 
# from the CCDC's data processing and validation procedures.
#
#######################################################################

data_TEPFAX
_chemical_formula_moiety         'C20 H12 Cl1 N1 O1'
_chemical_name_systematic        
9-Chlorodibenzo[2,3:6,7][1,4]oxazepino[4,5-a]indole
_symmetry_cell_setting           orthorhombic
_symmetry_space_group_name_H-M   'P b c a'
_symmetry_Int_Tables_number      61
_space_group_name_Hall           '-P 2ac 2ab'
loop_
_symmetry_equiv_pos_site_id
_symmetry_equiv_pos_as_xyz
1 x,y,z
2 1/2-x,-y,1/2+z
3 1/2+x,1/2-y,-z
4 -x,1/2+y,1/2-z
5 -x,-y,-z
6 1/2+x,y,1/2-z
7 1/2-x,1/2+y,z
8 x,1/2-y,1/2+z
_cell_length_a                   20.8600(15)
_cell_length_b                   6.7273(4)
_cell_length_c                   21.7338(12)
_cell_angle_alpha                90
_cell_angle_beta                 90
_cell_angle_gamma                90
_cell_volume                     3049.94
_exptl_crystal_colour            colorless
_exptl_crystal_description       block
_cell_formula_units_Z            8
loop_
_atom_site_label
_atom_site_type_symbol
_atom_site_fract_x
_atom_site_fract_y
_atom_site_fract_z
Cl1 Cl 0.18132(3) 0.70237(10) 0.48482(2)
O1 O 0.14396(6) 0.39770(18) 0.39470(5)
N1 N 0.12860(7) 0.4502(2) 0.26857(6)
C1 C 0.15433(8) 0.5832(3) 0.36937(8)
C2 C 0.17355(8) 0.7402(3) 0.40622(8)
C3 C 0.18754(9) 0.9239(3) 0.38151(9)
H1 H 0.2009 1.0278 0.4067
C4 C 0.18144(9) 0.9509(3) 0.31898(10)
H2 H 0.1911 1.0740 0.3018
C5 C 0.16117(9) 0.7979(3) 0.28136(9)
H3 H 0.1562 0.8195 0.2394
C6 C 0.14824(8) 0.6122(3) 0.30614(7)
C7 C 0.14869(8) 0.4173(3) 0.20801(7)
C8 C 0.19956(9) 0.4981(3) 0.17482(8)
H4 H 0.2267 0.5926 0.1921
C9 C 0.20808(10) 0.4322(3) 0.11535(8)
H5 H 0.2414 0.4845 0.0920
C10 C 0.16806(10) 0.2893(3) 0.08918(9)
H6 H 0.1750 0.2490 0.0488
C11 C 0.11872(10) 0.2075(3) 0.12210(9)
H7 H 0.0924 0.1118 0.1044
C12 C 0.10848(9) 0.2702(3) 0.18289(8)
C13 C 0.06375(9) 0.2157(3) 0.22927(8)
H8 H 0.0311 0.1225 0.2250
C14 C 0.07671(8) 0.3227(3) 0.28081(8)
C15 C 0.04638(9) 0.3043(3) 0.34123(8)
C16 C -0.01645(9) 0.2340(3) 0.34612(9)
H9 H -0.0399 0.2103 0.3105
C17 C -0.04455(11) 0.1989(3) 0.40239(9)
H10 H -0.0864 0.1515 0.4044
C18 C -0.01056(11) 0.2343(3) 0.45578(10)
H11 H -0.0294 0.2098 0.4938
C19 C 0.05159(10) 0.3062(3) 0.45264(9)
H12 H 0.0744 0.3319 0.4885
C20 C 0.07932(9) 0.3393(3) 0.39596(8)
loop_
_geom_bond_atom_site_label_1
_geom_bond_atom_site_label_2
_geom_bond_site_symmetry_1
_geom_bond_site_symmetry_2
Cl1 C2 1_555 1_555
O1 C1 1_555 1_555
N1 C6 1_555 1_555
C1 C2 1_555 1_555
C2 C3 1_555 1_555
C3 H1 1_555 1_555
C4 C3 1_555 1_555
H2 C4 1_555 1_555
C5 C4 1_555 1_555
H3 C5 1_555 1_555
C6 C1 1_555 1_555
C7 N1 1_555 1_555
C8 C7 1_555 1_555
H4 C8 1_555 1_555
C9 C8 1_555 1_555
H5 C9 1_555 1_555
C10 C9 1_555 1_555
H6 C10 1_555 1_555
C11 C10 1_555 1_555
H7 C11 1_555 1_555
C12 C7 1_555 1_555
C13 C12 1_555 1_555
H8 C13 1_555 1_555
C14 N1 1_555 1_555
C15 C14 1_555 1_555
C16 C15 1_555 1_555
H9 C16 1_555 1_555
C17 C16 1_555 1_555
H10 C17 1_555 1_555
C18 C17 1_555 1_555
H11 C18 1_555 1_555
C19 C18 1_555 1_555
H12 C19 1_555 1_555
C20 O1 1_555 1_555
C5 C6 1_555 1_555
C11 C12 1_555 1_555
C13 C14 1_555 1_555
C15 C20 1_555 1_555
C19 C20 1_555 1_555

#END
