
#######################################################################
#
#                 Cambridge Crystallographic Data Centre
#                                CCDC 
#
#######################################################################
#
# If this CIF has been generated from an entry in the Cambridge 
# Structural Database, then it will include bibliographic, chemical, 
# crystal, experimental, refinement or atomic coordinate data resulting 
# from the CCDC's data processing and validation procedures.
#
#######################################################################

data_TEPHMN11
_chemical_formula_moiety         'C14 H6 N4'
_chemical_name_systematic        
2,2'-(1,4-phenylenedimethylylidene)dimalononitrile
_symmetry_cell_setting           monoclinic
_symmetry_space_group_name_H-M   'P 21/n'
_symmetry_Int_Tables_number      14
_space_group_name_Hall           '-P 2yn'
loop_
_symmetry_equiv_pos_site_id
_symmetry_equiv_pos_as_xyz
1 x,y,z
2 1/2-x,1/2+y,1/2-z
3 -x,-y,-z
4 1/2+x,1/2-y,1/2+z
_cell_length_a                   6.9562(4)
_cell_length_b                   8.6030(4)
_cell_length_c                   10.0638(8)
_cell_angle_alpha                90
_cell_angle_beta                 104.584(7)
_cell_angle_gamma                90
_cell_volume                     582.855
_cell_formula_units_Z            2
loop_
_atom_site_label
_atom_site_type_symbol
_atom_site_fract_x
_atom_site_fract_y
_atom_site_fract_z
N1 N 0.7313(3) -0.01571(18) 0.4406(2)
N2 N 0.1805(2) 0.1953(2) 0.21488(18)
C1 C 0.9843(2) 0.34103(17) 0.47567(17)
H1 H 0.9747 0.2346 0.4589
C2 C 0.8168(2) 0.43511(16) 0.43189(15)
C3 C 0.8369(2) 0.59538(16) 0.45679(16)
H2 H 0.7271 0.6598 0.4270
C4 C 0.6197(2) 0.38007(17) 0.36241(16)
H3 H 0.5311 0.4575 0.3216
C5 C 0.5448(2) 0.23536(17) 0.34759(16)
C6 C 0.6512(3) 0.09654(17) 0.40068(18)
C7 C 0.3419(3) 0.21154(18) 0.27388(17)
N1B N 1.2687(3) 1.01571(18) 0.5594(2)
N2B N 1.8195(2) 0.8047(2) 0.78512(18)
C1B C 1.0157(2) 0.65897(17) 0.52433(17)
H1B H 1.0253 0.7654 0.5411
C2B C 1.1832(2) 0.56489(16) 0.56811(15)
C3B C 1.1631(2) 0.40462(16) 0.54321(16)
H2B H 1.2729 0.3402 0.5730
C4B C 1.3803(2) 0.61993(17) 0.63759(16)
H3B H 1.4689 0.5425 0.6784
C5B C 1.4552(2) 0.76464(17) 0.65241(16)
C6B C 1.3488(3) 0.90346(17) 0.59932(18)
C7B C 1.6581(3) 0.78846(18) 0.72612(17)
loop_
_geom_bond_atom_site_label_1
_geom_bond_atom_site_label_2
_geom_bond_site_symmetry_1
_geom_bond_site_symmetry_2
N1 C6 1_555 1_555
N2 C7 1_555 1_555
C1 H1 1_555 1_555
C2 C1 1_555 1_555
C3 C2 1_555 1_555
H2 C3 1_555 1_555
C4 C2 1_555 1_555
H3 C4 1_555 1_555
C5 C4 1_555 1_555
C6 C5 1_555 1_555
C7 C5 1_555 1_555
N1B C6B 1_555 1_555
N2B C7B 1_555 1_555
C1B C3 1_555 1_555
H1B C1B 1_555 1_555
C2B C1B 1_555 1_555
C3B C1 1_555 1_555
H2B C3B 1_555 1_555
C4B C2B 1_555 1_555
H3B C4B 1_555 1_555
C5B C4B 1_555 1_555
C6B C5B 1_555 1_555
C7B C5B 1_555 1_555
C2B C3B 1_555 1_555

#END
