
#######################################################################
#
#                 Cambridge Crystallographic Data Centre
#                                CCDC 
#
#######################################################################
#
# If this CIF has been generated from an entry in the Cambridge 
# Structural Database, then it will include bibliographic, chemical, 
# crystal, experimental, refinement or atomic coordinate data resulting 
# from the CCDC's data processing and validation procedures.
#
#######################################################################

data_TEPHTH14
_chemical_formula_moiety         'C8 H6 O4'
_chemical_name_systematic        'Terephthalic acid'
_symmetry_cell_setting           triclinic
_symmetry_space_group_name_H-M   'P -1'
_symmetry_Int_Tables_number      2
_space_group_name_Hall           '-P 1'
loop_
_symmetry_equiv_pos_site_id
_symmetry_equiv_pos_as_xyz
1 x,y,z
2 -x,-y,-z
_cell_length_a                   4.9715(16)
_cell_length_b                   5.3082(18)
_cell_length_c                   6.967(2)
_cell_angle_alpha                72.657(4)
_cell_angle_beta                 75.013(5)
_cell_angle_gamma                86.375(5)
_cell_volume                     169.51
_exptl_crystal_colour            colorless
_exptl_crystal_description       needle
_cell_formula_units_Z            1
loop_
_atom_site_label
_atom_site_type_symbol
_atom_site_fract_x
_atom_site_fract_y
_atom_site_fract_z
C1 C 0.2901(2) 0.5033(2) 0.30594(18)
C2 C 0.1396(2) 0.5037(2) 0.14741(16)
C3 C 0.1641(2) 0.7192(2) -0.02990(18)
H1 H 0.2764 0.8676 -0.0495
C4 C -0.0237(2) 0.2839(2) 0.17769(18)
H2 H -0.0387 0.1375 0.2985
O1 O 0.28017(18) 0.30848(17) 0.45939(13)
O2 O 0.42910(19) 0.71974(17) 0.27092(14)
H3 H 0.520(4) 0.7008(14) 0.377(3)
C1A C -0.2901(2) 0.4967(2) -0.30594(18)
C2A C -0.1396(2) 0.4963(2) -0.14741(16)
C3A C -0.1641(2) 0.2808(2) 0.02990(18)
H1A H -0.2764 0.1324 0.0495
C4A C 0.0237(2) 0.7161(2) -0.17769(18)
H2A H 0.0387 0.8625 -0.2985
O1A O -0.28017(18) 0.69152(17) -0.45939(13)
O2A O -0.42910(19) 0.28026(17) -0.27092(14)
H3A H -0.520(4) 0.2992(14) -0.377(3)
loop_
_geom_bond_atom_site_label_1
_geom_bond_atom_site_label_2
_geom_bond_site_symmetry_1
_geom_bond_site_symmetry_2
C1 C2 1_555 1_555
C2 C3 1_555 1_555
C3 H1 1_555 1_555
C4 C2 1_555 1_555
H2 C4 1_555 1_555
O1 C1 1_555 1_555
O2 C1 1_555 1_555
H3 O2 1_555 1_555
C1A C2A 1_555 1_555
C2A C3A 1_555 1_555
C3A C4 1_555 1_555
H1A C3A 1_555 1_555
C4A C3 1_555 1_555
H2A C4A 1_555 1_555
O1A C1A 1_555 1_555
O2A C1A 1_555 1_555
H3A O2A 1_555 1_555
C2A C4A 1_555 1_555

#END
