
#######################################################################
#
#                 Cambridge Crystallographic Data Centre
#                                CCDC 
#
#######################################################################
#
# If this CIF has been generated from an entry in the Cambridge 
# Structural Database, then it will include bibliographic, chemical, 
# crystal, experimental, refinement or atomic coordinate data resulting 
# from the CCDC's data processing and validation procedures.
#
#######################################################################

data_TEPLAD
_chemical_formula_moiety         'C12 H14 N4,C6 F4 I2'
_chemical_name_systematic        
"4,4',6,6'-Tetramethyl-2,2'-bipyridine 1,3-bis(iodo)-tetrafluorobenzene"
_symmetry_cell_setting           monoclinic
_symmetry_space_group_name_H-M   'P 21/c'
_symmetry_Int_Tables_number      14
_space_group_name_Hall           '-P 2ybc'
loop_
_symmetry_equiv_pos_site_id
_symmetry_equiv_pos_as_xyz
1 x,y,z
2 -x,1/2+y,1/2-z
3 -x,-y,-z
4 x,1/2-y,1/2+z
_cell_length_a                   7.5669(8)
_cell_length_b                   24.046(3)
_cell_length_c                   11.6567(15)
_cell_angle_alpha                90
_cell_angle_beta                 108.7840(10)
_cell_angle_gamma                90
_cell_volume                     2008.01
_exptl_crystal_colour            colorless
_exptl_crystal_description       block
_cell_formula_units_Z            4
loop_
_atom_site_label
_atom_site_type_symbol
_atom_site_fract_x
_atom_site_fract_y
_atom_site_fract_z
F1 F 0.0895(4) 0.25766(10) 0.1984(2)
F2 F -0.0511(4) 0.16092(12) 0.0898(2)
F3 F 0.0223(4) 0.06484(10) 0.2149(2)
F4 F 0.3700(3) 0.16207(8) 0.56262(19)
I1 I 0.32695(4) 0.286322(10) 0.47482(2)
I2 I 0.25882(4) 0.037641(10) 0.49158(3)
C1 C 0.0560(6) 0.16099(17) 0.2073(3)
C2 C 0.0929(5) 0.11242(16) 0.2720(3)
C3 C 0.1999(5) 0.11132(13) 0.3924(3)
C4 C 0.2672(5) 0.16175(13) 0.4447(3)
C5 C 0.2331(5) 0.21194(13) 0.3841(3)
C6 C 0.1273(5) 0.21001(15) 0.2631(3)
N1 N 0.5950(4) 0.33966(11) 0.7370(3)
N2 N 0.6773(4) 0.40885(11) 0.8919(2)
N3 N 0.5144(4) 0.48723(11) 0.7203(2)
N4 N 0.3629(4) 0.41415(11) 0.5861(2)
C7 C 0.6867(5) 0.30119(14) 0.8173(3)
C8 C 0.7740(5) 0.31548(15) 0.9364(3)
H1 H 0.8365 0.2886 0.9922
C9 C 0.7681(5) 0.36960(15) 0.9725(3)
C10 C 0.5938(4) 0.39138(13) 0.7782(3)
C11 C 0.4835(5) 0.43385(13) 0.6884(3)
C12 C 0.4123(5) 0.52473(14) 0.6414(3)
C13 C 0.2836(5) 0.50808(15) 0.5342(3)
H2 H 0.2129 0.5343 0.4799
C14 C 0.2604(5) 0.45223(15) 0.5081(3)
C15 C 0.1194(6) 0.43175(17) 0.3933(4)
H3 H 0.1828 0.4149 0.3428
H4 H 0.0457 0.4625 0.3511
H5 H 0.0396 0.4048 0.4125
C16 C 0.4422(6) 0.58519(14) 0.6747(4)
H6 H 0.3554 0.5967 0.7146
H7 H 0.4229 0.6070 0.6026
H8 H 0.5674 0.5906 0.7280
C17 C 0.8593(6) 0.38750(17) 1.1010(3)
H9 H 0.9643 0.4109 1.1059
H10 H 0.9009 0.3553 1.1512
H11 H 0.7712 0.4078 1.1285
C18 C 0.6875(7) 0.24247(15) 0.7735(4)
H12 H 0.5698 0.2252 0.7658
H13 H 0.7860 0.2220 0.8307
H14 H 0.7071 0.2426 0.6962
loop_
_geom_bond_atom_site_label_1
_geom_bond_atom_site_label_2
_geom_bond_site_symmetry_1
_geom_bond_site_symmetry_2
F1 C6 1_555 1_555
F2 C1 1_555 1_555
F3 C2 1_555 1_555
F4 C4 1_555 1_555
I1 C5 1_555 1_555
I2 C3 1_555 1_555
N1 C7 1_555 1_555
N2 C9 1_555 1_555
N3 C11 1_555 1_555
N4 C11 1_555 1_555
C1 C2 1_555 1_555
C2 C3 1_555 1_555
C3 C4 1_555 1_555
C4 C5 1_555 1_555
C5 C6 1_555 1_555
C6 C1 1_555 1_555
C7 C8 1_555 1_555
C8 H1 1_555 1_555
C9 C8 1_555 1_555
C10 N1 1_555 1_555
C11 C10 1_555 1_555
C12 N3 1_555 1_555
C13 C12 1_555 1_555
H2 C13 1_555 1_555
C14 N4 1_555 1_555
C15 C14 1_555 1_555
H3 C15 1_555 1_555
H4 C15 1_555 1_555
H5 C15 1_555 1_555
C16 C12 1_555 1_555
H6 C16 1_555 1_555
H7 C16 1_555 1_555
H8 C16 1_555 1_555
C17 C9 1_555 1_555
H9 C17 1_555 1_555
H10 C17 1_555 1_555
H11 C17 1_555 1_555
C18 C7 1_555 1_555
H12 C18 1_555 1_555
H13 C18 1_555 1_555
H14 C18 1_555 1_555
N2 C10 1_555 1_555
C13 C14 1_555 1_555

#END
