
#######################################################################
#
#                 Cambridge Crystallographic Data Centre
#                                CCDC 
#
#######################################################################
#
# If this CIF has been generated from an entry in the Cambridge 
# Structural Database, then it will include bibliographic, chemical, 
# crystal, experimental, refinement or atomic coordinate data resulting 
# from the CCDC's data processing and validation procedures.
#
#######################################################################

data_TEPQAJ
_chemical_formula_moiety         'C26 H30 N2 O4 S1'
_chemical_name_systematic        
'ethyl N-(4-methylphenyl)-N-(2-(((4-methylphenyl)sulfonyl)amino)-1-phenylethyl)glycinate'
_symmetry_cell_setting           monoclinic
_symmetry_space_group_name_H-M   'P 21/n'
_symmetry_Int_Tables_number      14
_space_group_name_Hall           '-P 2yn'
loop_
_symmetry_equiv_pos_site_id
_symmetry_equiv_pos_as_xyz
1 x,y,z
2 1/2-x,1/2+y,1/2-z
3 -x,-y,-z
4 1/2+x,1/2-y,1/2+z
_cell_length_a                   5.8241(4)
_cell_length_b                   19.8258(14)
_cell_length_c                   21.1686(17)
_cell_angle_alpha                90
_cell_angle_beta                 96.265(5)
_cell_angle_gamma                90
_cell_volume                     2429.69
_exptl_crystal_colour            colorless
_exptl_crystal_description       needle
_cell_formula_units_Z            4
loop_
_atom_site_label
_atom_site_type_symbol
_atom_site_fract_x
_atom_site_fract_y
_atom_site_fract_z
S1 S -0.30033(15) 0.32601(5) 0.47737(5)
O1 O 0.1229(4) 0.17167(13) 0.48978(12)
O2 O 0.4636(4) 0.12471(13) 0.47686(12)
O3 O -0.4263(4) 0.27976(14) 0.51292(13)
O4 O -0.4238(4) 0.37712(14) 0.44007(13)
N1 N 0.0432(4) 0.18918(14) 0.35417(13)
N2 N -0.1685(5) 0.27914(17) 0.43081(16)
C1 C -0.0610(6) 0.07128(18) 0.35522(18)
H1 H 0.0668 0.0634 0.3846
C2 C -0.2049(7) 0.0180(2) 0.33524(19)
H2 H -0.1710 -0.0247 0.3519
C3 C -0.3977(6) 0.02607(19) 0.29127(19)
C4 C -0.4357(6) 0.0905(2) 0.26855(18)
H3 H -0.5629 0.0982 0.2388
C5 C -0.2952(5) 0.14451(19) 0.28750(17)
H4 H -0.3288 0.1869 0.2701
C6 C -0.1036(6) 0.13626(18) 0.33233(16)
C7 C -0.5514(7) -0.0318(2) 0.2691(2)
H5 H -0.5389 -0.0403 0.2250
H6 H -0.7085 -0.0209 0.2747
H7 H -0.5051 -0.0713 0.2935
C8 C 0.0034(6) 0.25934(17) 0.33307(16)
H8 H -0.1522 0.2605 0.3102
C9 C 0.1665(6) 0.27979(18) 0.28530(17)
C10 C 0.3394(6) 0.32722(18) 0.29730(18)
H9 H 0.3574 0.3495 0.3362
C11 C 0.4863(6) 0.3420(2) 0.2519(2)
H10 H 0.6033 0.3735 0.2610
C12 C 0.4617(7) 0.3108(2) 0.1941(2)
H11 H 0.5606 0.3213 0.1639
C13 C 0.2900(8) 0.2641(2) 0.1811(2)
H12 H 0.2722 0.2425 0.1419
C14 C 0.1437(7) 0.2492(2) 0.2259(2)
H13 H 0.0265 0.2177 0.2163
C15 C 0.2700(5) 0.17347(18) 0.38711(16)
H14 H 0.3718 0.2115 0.3827
H15 H 0.3330 0.1351 0.3664
C16 C 0.2701(6) 0.15776(18) 0.45673(18)
C17 C 0.5029(8) 0.1104(3) 0.5446(2)
H16 H 0.3716 0.0864 0.5582
H17 H 0.5224 0.1521 0.5685
C18 C 0.7118(8) 0.0690(3) 0.5560(2)
H18 H 0.6924 0.0284 0.5314
H19 H 0.7383 0.0578 0.6004
H20 H 0.8416 0.0938 0.5439
C19 C -0.0023(6) 0.30605(18) 0.39000(16)
H21 H 0.1499 0.3087 0.4136
H22 H -0.0480 0.3511 0.3757
C20 C -0.0933(6) 0.36826(19) 0.53030(16)
C21 C -0.1253(7) 0.4351(2) 0.5448(2)
H23 H -0.2563 0.4579 0.5271
C22 C 0.0384(7) 0.4681(2) 0.5860(2)
H24 H 0.0152 0.5131 0.5962
C23 C 0.2359(7) 0.4354(2) 0.61205(19)
C24 C 0.2625(7) 0.3696(2) 0.5973(2)
H25 H 0.3941 0.3470 0.6149
C25 C 0.1010(6) 0.3347(2) 0.55687(18)
H26 H 0.1233 0.2894 0.5478
C26 C 0.4185(7) 0.4731(3) 0.6554(2)
H27 H 0.3645 0.4797 0.6962
H28 H 0.4472 0.5162 0.6370
H29 H 0.5588 0.4473 0.6603
H30 H -0.119(6) 0.241(2) 0.447(2)
loop_
_geom_bond_atom_site_label_1
_geom_bond_atom_site_label_2
_geom_bond_site_symmetry_1
_geom_bond_site_symmetry_2
S1 O3 1_555 1_555
O1 C16 1_555 1_555
O2 C16 1_555 1_555
O4 S1 1_555 1_555
N1 C6 1_555 1_555
N2 S1 1_555 1_555
C1 H1 1_555 1_555
C2 C1 1_555 1_555
H2 C2 1_555 1_555
C3 C2 1_555 1_555
C4 C3 1_555 1_555
H3 C4 1_555 1_555
C5 C4 1_555 1_555
H4 C5 1_555 1_555
C6 C1 1_555 1_555
C7 C3 1_555 1_555
H5 C7 1_555 1_555
H6 C7 1_555 1_555
H7 C7 1_555 1_555
C8 N1 1_555 1_555
H8 C8 1_555 1_555
C9 C8 1_555 1_555
C10 C9 1_555 1_555
H9 C10 1_555 1_555
C11 C10 1_555 1_555
H10 C11 1_555 1_555
C12 C11 1_555 1_555
H11 C12 1_555 1_555
C13 C12 1_555 1_555
H12 C13 1_555 1_555
C14 C9 1_555 1_555
H13 C14 1_555 1_555
C15 N1 1_555 1_555
H14 C15 1_555 1_555
H15 C15 1_555 1_555
C16 C15 1_555 1_555
C17 O2 1_555 1_555
H16 C17 1_555 1_555
H17 C17 1_555 1_555
C18 C17 1_555 1_555
H18 C18 1_555 1_555
H19 C18 1_555 1_555
H20 C18 1_555 1_555
C19 N2 1_555 1_555
H21 C19 1_555 1_555
H22 C19 1_555 1_555
C20 S1 1_555 1_555
C21 C20 1_555 1_555
H23 C21 1_555 1_555
C22 C21 1_555 1_555
H24 C22 1_555 1_555
C23 C22 1_555 1_555
C24 C23 1_555 1_555
H25 C24 1_555 1_555
C25 C20 1_555 1_555
H26 C25 1_555 1_555
C26 C23 1_555 1_555
H27 C26 1_555 1_555
H28 C26 1_555 1_555
H29 C26 1_555 1_555
H30 N2 1_555 1_555
C5 C6 1_555 1_555
C8 C19 1_555 1_555
C13 C14 1_555 1_555
C24 C25 1_555 1_555

#END
