
#######################################################################
#
#                 Cambridge Crystallographic Data Centre
#                                CCDC 
#
#######################################################################
#
# If this CIF has been generated from an entry in the Cambridge 
# Structural Database, then it will include bibliographic, chemical, 
# crystal, experimental, refinement or atomic coordinate data resulting 
# from the CCDC's data processing and validation procedures.
#
#######################################################################

data_TEPSIT
_chemical_formula_moiety         'C18 H16 N2 O5'
_chemical_name_systematic        
'methyl ((1,3-dioxo-2-propyl-2,3-dihydro-1H-benzo[de]isoquinolin-6-yl)amino)(oxo)acetate'
_symmetry_cell_setting           triclinic
_symmetry_space_group_name_H-M   'P -1'
_symmetry_Int_Tables_number      2
_space_group_name_Hall           '-P 1'
loop_
_symmetry_equiv_pos_site_id
_symmetry_equiv_pos_as_xyz
1 x,y,z
2 -x,-y,-z
_cell_length_a                   4.9720(10)
_cell_length_b                   9.226(3)
_cell_length_c                   17.562(3)
_cell_angle_alpha                85.67(4)
_cell_angle_beta                 85.95(3)
_cell_angle_gamma                88.46(3)
_cell_volume                     801.105
_exptl_crystal_colour            colorless
_exptl_crystal_description       block
_cell_formula_units_Z            2
_exptl_crystal_recrystallization_method 'acetonitrile/diethyl ether'
loop_
_atom_site_label
_atom_site_type_symbol
_atom_site_fract_x
_atom_site_fract_y
_atom_site_fract_z
C1 C 0.2213(5) 0.5928(3) 0.32305(16)
C2 C 0.2002(4) 0.5954(3) 0.23924(14)
C3 C 0.3658(4) 0.6880(2) 0.18932(14)
C4 C 0.5511(4) 0.7780(3) 0.21989(14)
C5 C 0.5797(5) 0.7728(3) 0.30236(15)
C6 C 0.7092(4) 0.8700(3) 0.17096(15)
H1 H 0.8288 0.9305 0.1909
C7 C 0.6914(4) 0.8733(3) 0.09208(15)
H2 H 0.7987 0.9364 0.0601
C8 C 0.5175(4) 0.7843(2) 0.06069(14)
C9 C 0.3475(4) 0.6879(2) 0.10893(14)
C10 C 0.1634(4) 0.5937(3) 0.08155(15)
H3 H 0.1520 0.5898 0.0291
C11 C 0.0016(4) 0.5080(3) 0.13152(15)
H4 H -0.1225 0.4489 0.1124
C12 C 0.0187(4) 0.5073(3) 0.21043(15)
H5 H -0.0919 0.4476 0.2435
C13 C 0.7126(4) 0.8112(3) -0.07197(14)
C14 C 0.6322(4) 0.8042(3) -0.15422(14)
C15 C 0.7610(6) 0.8696(4) -0.28373(17)
H6 H 0.5799 0.9036 -0.2913
H7 H 0.7843 0.7724 -0.2995
H8 H 0.8858 0.9322 -0.3136
C16 C 0.4394(6) 0.6760(4) 0.43264(17)
H9 H 0.6290 0.6782 0.4421
H10 H 0.3680 0.5855 0.4565
C17 C 0.2914(8) 0.8028(4) 0.4687(2)
H11 H 0.3610 0.8936 0.4446
H12 H 0.1011 0.8000 0.4602
C18 C 0.3264(12) 0.7965(6) 0.5538(2)
H13 H 0.2465 0.7098 0.5781
H14 H 0.2397 0.8801 0.5749
H15 H 0.5151 0.7956 0.5623
N1 N 0.4120(4) 0.6804(2) 0.34966(12)
N2 N 0.5026(3) 0.7847(2) -0.01996(11)
O1 O 0.7440(4) 0.8458(2) 0.33044(12)
O2 O 0.0791(5) 0.5150(3) 0.36750(12)
O3 O 0.9425(3) 0.8346(2) -0.05782(10)
O4 O 0.4348(3) 0.7454(2) -0.17034(11)
O5 O 0.8108(3) 0.8705(2) -0.20294(10)
loop_
_geom_bond_atom_site_label_1
_geom_bond_atom_site_label_2
_geom_bond_site_symmetry_1
_geom_bond_site_symmetry_2
C1 C2 1_555 1_555
C2 C3 1_555 1_555
C3 C4 1_555 1_555
C4 C5 1_555 1_555
C5 N1 1_555 1_555
C6 C4 1_555 1_555
H1 C6 1_555 1_555
C7 C6 1_555 1_555
H2 C7 1_555 1_555
C8 C7 1_555 1_555
C9 C3 1_555 1_555
C10 C9 1_555 1_555
H3 C10 1_555 1_555
C11 C10 1_555 1_555
H4 C11 1_555 1_555
C12 C2 1_555 1_555
H5 C12 1_555 1_555
C13 C14 1_555 1_555
C14 O4 1_555 1_555
C15 H6 1_555 1_555
H7 C15 1_555 1_555
H8 C15 1_555 1_555
C16 H9 1_555 1_555
H10 C16 1_555 1_555
C17 C16 1_555 1_555
H11 C17 1_555 1_555
H12 C17 1_555 1_555
C18 C17 1_555 1_555
H13 C18 1_555 1_555
H14 C18 1_555 1_555
H15 C18 1_555 1_555
N1 C1 1_555 1_555
N2 C8 1_555 1_555
O1 C5 1_555 1_555
O2 C1 1_555 1_555
O3 C13 1_555 1_555
O5 C14 1_555 1_555
C8 C9 1_555 1_555
C11 C12 1_555 1_555
C13 N2 1_555 1_555
C15 O5 1_555 1_555
C16 N1 1_555 1_555

#END
