
#######################################################################
#
#                 Cambridge Crystallographic Data Centre
#                                CCDC 
#
#######################################################################
#
# If this CIF has been generated from an entry in the Cambridge 
# Structural Database, then it will include bibliographic, chemical, 
# crystal, experimental, refinement or atomic coordinate data resulting 
# from the CCDC's data processing and validation procedures.
#
#######################################################################

data_TEQGIF01
_chemical_formula_moiety         'C16 H32 Li1 O4 1+,C16 H45 B8 Si4 1-'
_chemical_name_systematic        
'tetrakis(Tetrahydrofuran)-lithium tetrakis(trimethylsilyl)-(\m~2~-hydrido)-octahydro-tetracarbadodecaborane'
_symmetry_cell_setting           orthorhombic
_symmetry_space_group_name_H-M   'P c a 21'
_symmetry_Int_Tables_number      29
_space_group_name_Hall           'P 2c -2ac'
loop_
_symmetry_equiv_pos_site_id
_symmetry_equiv_pos_as_xyz
1 x,y,z
2 -x,-y,1/2+z
3 1/2-x,y,1/2+z
4 1/2+x,-y,z
_cell_length_a                   21.449(4)
_cell_length_b                   10.809(2)
_cell_length_c                   20.900(3)
_cell_angle_alpha                90
_cell_angle_beta                 90
_cell_angle_gamma                90
_cell_volume                     4845.5
_chemical_melting_point          '190 deg.C'
_cell_formula_units_Z            4
_exptl_crystal_recrystallization_method benzene/hexane
loop_
_atom_site_label
_atom_site_type_symbol
_atom_site_fract_x
_atom_site_fract_y
_atom_site_fract_z
Si1 Si 0.1314(2) 0.4922(5) 0.1588
Si2 Si 0.0565(2) 0.9397(5) 0.3003(3)
Si3 Si 0.2720(2) 0.9506(4) 0.1373(3)
Si4 Si 0.0269(2) 0.9247(5) 0.0349(3)
C1 C 0.1251(7) 0.6626(15) 0.1601(10)
B1 B 0.0666(14) 0.7176(30) 0.1193(16)
C2 C 0.0774(7) 0.8637(15) 0.0962(8)
B2 B 0.1545(12) 0.8641(23) 0.0787(13)
B3 B 0.1849(19) 0.7327(43) 0.1109(23)
B4 B 0.1226(10) 0.7306(20) 0.2351(11)
C3 C 0.0928(9) 0.8691(20) 0.2277(8)
B5 B 0.0400(14) 0.8474(24) 0.1688(17)
B6 B 0.1087(16) 0.9517(31) 0.1586(22)
C4 C 0.1952(7) 0.8806(14) 0.1501(8)
B7 B 0.1904(13) 0.7373(26) 0.1838(14)
B8 B 0.1681(14) 0.8695(25) 0.2293(14)
C5 C 0.1715(9) 0.4419(19) 0.0857(10)
C6 C 0.0532(8) 0.4228(18) 0.1571(12)
C7 C 0.1718(9) 0.4274(18) 0.2283(9)
C8 C 0.0192(10) 1.0984(16) 0.0416(13)
C9 C -0.0509(7) 0.8573(17) 0.0402(12)
C10 C 0.0592(8) 0.8836(17) -0.0449(9)
C11 C 0.3094(8) 0.8913(16) 0.0635(8)
C12 C 0.2634(10) 1.1181(14) 0.1284(12)
C13 C 0.3273(8) 0.9183(18) 0.2062(10)
C14 C 0.0540(10) 1.1102(16) 0.2937(12)
C15 C 0.0980(9) 0.8918(18) 0.3714(9)
C16 C -0.0232(9) 0.8830(18) 0.3092(9)
H1 H 0.2126 0.4766 0.0829
H2 H 0.1744 0.3533 0.0876
H3 H 0.1477 0.4656 0.0488
H4 H 0.0304 0.4493 0.1941
H5 H 0.0310 0.4468 0.1191
H6 H 0.0577 0.3345 0.1579
H7 H 0.2128 0.4624 0.2306
H8 H 0.1492 0.4470 0.2666
H9 H 0.1749 0.3391 0.2240
H10 H 0.0029 1.1171 0.0833
H11 H 0.0597 1.1354 0.0370
H12 H -0.0083 1.1307 0.0095
H13 H -0.0488 0.7691 0.0354
H14 H -0.0689 0.8772 0.0809
H15 H -0.0762 0.8915 0.0067
H16 H 0.0621 0.7953 -0.0485
H17 H 0.0319 0.9148 -0.0776
H18 H 0.0998 0.9194 -0.0500
H19 H 0.2824 0.9069 0.0277
H20 H 0.3488 0.9312 0.0566
H21 H 0.3157 0.8038 0.0679
H22 H 0.2361 1.1361 0.0932
H23 H 0.2467 1.1532 0.1669
H24 H 0.3038 1.1531 0.1201
H25 H 0.3091 0.9497 0.2449
H26 H 0.3335 0.8307 0.2101
H27 H 0.3666 0.9582 0.1988
H28 H 0.0348 1.1461 0.3308
H29 H 0.0957 1.1415 0.2894
H30 H 0.0303 1.1313 0.2563
H31 H 0.0976 0.8031 0.3732
H32 H 0.1403 0.9207 0.3705
H33 H 0.0773 0.9246 0.4085
H34 H -0.0218 0.7947 0.3138
H35 H -0.0428 0.9187 0.3461
H36 H -0.0467 0.9039 0.2716
Li1 Li 0.1321(15) 0.4316(30) -0.1547(14)
O1 O 0.1920(7) 0.5471(13) -0.1210(8)
C17 C 0.1731(13) 0.6755(24) -0.1100(15)
C18 C 0.2368(15) 0.7286(22) -0.0900(15)
C19 C 0.2789(12) 0.6401(24) -0.0743(19)
C20 C 0.2515(16) 0.5308(20) -0.0993(16)
O2 O 0.1718(6) 0.2738(11) -0.1338(8)
C21 C 0.1722(11) 0.2154(24) -0.0765(13)
C22 C 0.2231(19) 0.1383(40) -0.0715(18)
C23 C 0.2424(20) 0.1165(36) -0.1292(22)
C24 C 0.2104(12) 0.2008(23) -0.1696(10)
O3 O 0.1284(6) 0.4512(12) -0.2471(6)
C25 C 0.1175(11) 0.3705(18) -0.2962(12)
C26 C 0.1275(12) 0.4229(23) -0.3559(13)
C27 C 0.1317(9) 0.5566(21) -0.3465(11)
C28 C 0.1347(10) 0.5706(20) -0.2737(12)
O4 O 0.0557(7) 0.4602(13) -0.1173(8)
C29 C 0.0021(16) 0.5181(26) -0.1456(12)
C30 C -0.0467(10) 0.5226(28) -0.1004(20)
C31 C -0.0264(16) 0.4730(32) -0.0402(15)
C32 C 0.0386(14) 0.4382(29) -0.0579(16)
H37 H 0.1447 0.6801 -0.0745
H38 H 0.1538 0.7125 -0.1468
H39 H 0.2306 0.7900 -0.0574
H40 H 0.2534 0.7683 -0.1274
H41 H 0.2758 0.6303 -0.0288
H42 H 0.3213 0.6601 -0.0852
H43 H 0.2763 0.5177 -0.1370
H44 H 0.2562 0.4603 -0.0718
H45 H 0.1331 0.1746 -0.0692
H46 H 0.1777 0.2773 -0.0440
H47 H 0.2087 0.0621 -0.0531
H48 H 0.2564 0.1697 -0.0454
H49 H 0.2337 0.0330 -0.1422
H50 H 0.2865 0.1300 -0.1317
H51 H 0.2399 0.2499 -0.1929
H52 H 0.1851 0.1565 -0.1998
H53 H 0.0764 0.3360 -0.2933
H54 H 0.1471 0.3043 -0.2920
H55 H 0.0920 0.4067 -0.3827
H56 H 0.1641 0.3919 -0.3769
H57 H 0.0970 0.6003 -0.3647
H58 H 0.1694 0.5875 -0.3654
H59 H 0.1734 0.6081 -0.2610
H60 H 0.1011 0.6234 -0.2604
H61 H -0.0087 0.4825 -0.1862
H62 H 0.0131 0.6032 -0.1523
H63 H -0.0761 0.4618 -0.1148
H64 H -0.0675 0.6010 -0.0968
H65 H -0.0531 0.4148 -0.0189
H66 H -0.0219 0.5443 -0.0132
H67 H 0.0681 0.4688 -0.0273
H68 H 0.0358 0.3501 -0.0530
loop_
_geom_bond_atom_site_label_1
_geom_bond_atom_site_label_2
_geom_bond_site_symmetry_1
_geom_bond_site_symmetry_2
Si1 C1 1_555 1_555
Si2 C3 1_555 1_555
Si3 C4 1_555 1_555
Si4 C2 1_555 1_555
C1 B1 1_555 1_555
B1 C2 1_555 1_555
C2 B2 1_555 1_555
B2 B3 1_555 1_555
B3 C1 1_555 1_555
B4 C1 1_555 1_555
C3 B4 1_555 1_555
B5 B1 1_555 1_555
B6 C2 1_555 1_555
C4 B2 1_555 1_555
B7 C1 1_555 1_555
B8 B4 1_555 1_555
C5 Si1 1_555 1_555
C6 Si1 1_555 1_555
C7 Si1 1_555 1_555
C8 Si4 1_555 1_555
C9 Si4 1_555 1_555
C10 Si4 1_555 1_555
C11 Si3 1_555 1_555
C12 Si3 1_555 1_555
C13 Si3 1_555 1_555
C14 Si2 1_555 1_555
C15 Si2 1_555 1_555
C16 Si2 1_555 1_555
H1 C5 1_555 1_555
H2 C5 1_555 1_555
H3 C5 1_555 1_555
H4 C6 1_555 1_555
H5 C6 1_555 1_555
H6 C6 1_555 1_555
H7 C7 1_555 1_555
H8 C7 1_555 1_555
H9 C7 1_555 1_555
H10 C8 1_555 1_555
H11 C8 1_555 1_555
H12 C8 1_555 1_555
H13 C9 1_555 1_555
H14 C9 1_555 1_555
H15 C9 1_555 1_555
H16 C10 1_555 1_555
H17 C10 1_555 1_555
H18 C10 1_555 1_555
H19 C11 1_555 1_555
H20 C11 1_555 1_555
H21 C11 1_555 1_555
H22 C12 1_555 1_555
H23 C12 1_555 1_555
H24 C12 1_555 1_555
H25 C13 1_555 1_555
H26 C13 1_555 1_555
H27 C13 1_555 1_555
H28 C14 1_555 1_555
H29 C14 1_555 1_555
H30 C14 1_555 1_555
H31 C15 1_555 1_555
H32 C15 1_555 1_555
H33 C15 1_555 1_555
H34 C16 1_555 1_555
H35 C16 1_555 1_555
H36 C16 1_555 1_555
Li1 O1 1_555 1_555
O1 C17 1_555 1_555
C17 C18 1_555 1_555
C18 C19 1_555 1_555
C19 C20 1_555 1_555
C20 O1 1_555 1_555
O2 Li1 1_555 1_555
C21 O2 1_555 1_555
C22 C21 1_555 1_555
C23 C22 1_555 1_555
C24 O2 1_555 1_555
O3 Li1 1_555 1_555
C25 O3 1_555 1_555
C26 C25 1_555 1_555
C27 C26 1_555 1_555
C28 O3 1_555 1_555
O4 Li1 1_555 1_555
C29 O4 1_555 1_555
C30 C29 1_555 1_555
C31 C30 1_555 1_555
C32 O4 1_555 1_555
H37 C17 1_555 1_555
H38 C17 1_555 1_555
H39 C18 1_555 1_555
H40 C18 1_555 1_555
H41 C19 1_555 1_555
H42 C19 1_555 1_555
H43 C20 1_555 1_555
H44 C20 1_555 1_555
H45 C21 1_555 1_555
H46 C21 1_555 1_555
H47 C22 1_555 1_555
H48 C22 1_555 1_555
H49 C23 1_555 1_555
H50 C23 1_555 1_555
H51 C24 1_555 1_555
H52 C24 1_555 1_555
H53 C25 1_555 1_555
H54 C25 1_555 1_555
H55 C26 1_555 1_555
H56 C26 1_555 1_555
H57 C27 1_555 1_555
H58 C27 1_555 1_555
H59 C28 1_555 1_555
H60 C28 1_555 1_555
H61 C29 1_555 1_555
H62 C29 1_555 1_555
H63 C30 1_555 1_555
H64 C30 1_555 1_555
H65 C31 1_555 1_555
H66 C31 1_555 1_555
H67 C32 1_555 1_555
H68 C32 1_555 1_555
C2 B5 1_555 1_555
B3 C4 1_555 1_555
B3 B7 1_555 1_555
B4 B7 1_555 1_555
C3 B5 1_555 1_555
C3 B6 1_555 1_555
C3 B8 1_555 1_555
B5 B6 1_555 1_555
B6 C4 1_555 1_555
C4 B7 1_555 1_555
C4 B8 1_555 1_555
B7 B8 1_555 1_555
C23 C24 1_555 1_555
C27 C28 1_555 1_555
C31 C32 1_555 1_555

#END
