
#######################################################################
#
#                 Cambridge Crystallographic Data Centre
#                                CCDC 
#
#######################################################################
#
# If this CIF has been generated from an entry in the Cambridge 
# Structural Database, then it will include bibliographic, chemical, 
# crystal, experimental, refinement or atomic coordinate data resulting 
# from the CCDC's data processing and validation procedures.
#
#######################################################################

data_TEQGOL01
_chemical_formula_moiety         'C24 H60 B8 Mg1 O2 Si4'
_chemical_name_systematic        
(tetrakis(Trimethylsilyl)-tetracarbadodecaborane)-bis(tetrahydrofuran)-magnesium
_symmetry_cell_setting           orthorhombic
_symmetry_space_group_name_H-M   'P b c a'
_symmetry_Int_Tables_number      61
_space_group_name_Hall           '-P 2ac 2ab'
loop_
_symmetry_equiv_pos_site_id
_symmetry_equiv_pos_as_xyz
1 x,y,z
2 1/2-x,-y,1/2+z
3 1/2+x,1/2-y,-z
4 -x,1/2+y,1/2-z
5 -x,-y,-z
6 1/2+x,y,1/2-z
7 1/2-x,1/2+y,z
8 x,1/2-y,1/2+z
_cell_length_a                   14.821(4)
_cell_length_b                   18.685(7)
_cell_length_c                   27.528(8)
_cell_angle_alpha                90
_cell_angle_beta                 90
_cell_angle_gamma                90
_cell_volume                     7623.34
_exptl_crystal_colour            off-white
_exptl_crystal_description       platelike
_chemical_melting_point          '195 deg.C'
_cell_formula_units_Z            8
_exptl_crystal_recrystallization_method benzene/hexane
loop_
_atom_site_label
_atom_site_type_symbol
_atom_site_fract_x
_atom_site_fract_y
_atom_site_fract_z
Mg1 Mg 0.1391(2) 0.2278(2) 0.1751(1)
Si1 Si 0.0416(2) 0.0963(2) 0.0956(1)
Si2 Si 0.1069(2) 0.4084(2) 0.2334(1)
Si3 Si 0.1574(2) 0.3766(2) 0.0343(1)
Si4 Si -0.1851(2) 0.3557(2) 0.0877(1)
C1 C 0.0397(7) 0.1922(5) 0.1150(3)
B1 B -0.0635(8) 0.2310(7) 0.1123(4)
B2 B 0.0939(7) 0.2453(7) 0.0830(4)
C2 C 0.0972(6) 0.3291(5) 0.0843(3)
B3 B -0.0181(8) 0.2009(6) 0.1673(4)
B4 B 0.0011(7) 0.2795(6) 0.2045(4)
C3 C 0.0744(6) 0.3401(5) 0.1861(3)
C4 C -0.0795(6) 0.3181(5) 0.1156(3)
B5 B 0.0006(8) 0.3628(7) 0.0969(4)
B6 B 0.1188(8) 0.3589(7) 0.1365(5)
B7 B -0.0387(8) 0.3533(6) 0.1685(4)
B8 B -0.0953(7) 0.2696(6) 0.1670(4)
C5 C 0.0838(10) 0.0812(7) 0.0348(5)
C6 C 0.1154(8) 0.0415(6) 0.1384(5)
C7 C -0.0695(6) 0.0514(5) 0.0971(4)
C8 C 0.0429(8) 0.4011(6) 0.2911(4)
C9 C 0.2296(7) 0.3988(6) 0.2478(4)
C10 C 0.0872(7) 0.5018(5) 0.2103(4)
C11 C 0.1068(8) 0.3510(7) -0.0248(4)
C12 C 0.2805(7) 0.3532(6) 0.0334(4)
C13 C 0.1486(8) 0.4760(5) 0.0403(4)
C14 C -0.1714(8) 0.3435(6) 0.0212(3)
C15 C -0.2880(7) 0.3070(6) 0.1071(4)
C16 C -0.2025(7) 0.4517(5) 0.1033(4)
O1 O 0.2692(4) 0.2252(4) 0.1517(2)
C17 C 0.3072(9) 0.1699(7) 0.1206(4)
C18 C 0.4060(9) 0.1788(9) 0.1211(6)
C19 C 0.4210(8) 0.2484(9) 0.1362(6)
C20 C 0.3400(8) 0.2783(6) 0.1617(4)
O2 O 0.1729(5) 0.1746(4) 0.2367(3)
C21 C 0.1105(9) 0.1560(10) 0.2750(6)
C22 C 0.1500(10) 0.1114(9) 0.3081(5)
C23 C 0.2430(10) 0.1108(8) 0.3002(5)
C24 C 0.2558(8) 0.1453(7) 0.2520(4)
H1 H -0.1131 0.1979 0.0952
H2 H 0.1329 0.2239 0.0554
H3 H -0.0430 0.1477 0.1840
H4 H -0.0095 0.2796 0.2449
H5 H -0.0024 0.4185 0.0880
H6 H 0.1642 0.4036 0.1410
H7 H -0.0740 0.4041 0.1841
H8 H -0.1628 0.2679 0.1852
H9 H 0.0484 0.1079 0.0119
H10 H 0.1453 0.0972 0.0334
H11 H 0.0812 0.0312 0.0269
H12 H 0.1751 0.0614 0.1398
H13 H 0.0883 0.0437 0.1701
H14 H 0.1188 -0.0075 0.1280
H15 H -0.1103 0.0750 0.0753
H16 H -0.0626 0.0023 0.0875
H17 H -0.0931 0.0535 0.1296
H18 H 0.0520 0.3541 0.3043
H19 H 0.0635 0.4363 0.3139
H20 H -0.0202 0.4083 0.2848
H21 H 0.2401 0.3511 0.2595
H22 H 0.2650 0.4069 0.2191
H23 H 0.2466 0.4327 0.2724
H24 H 0.0243 0.5070 0.2028
H25 H 0.1038 0.5359 0.2348
H26 H 0.1222 0.5102 0.1815
H27 H 0.0437 0.3626 -0.0252
H28 H 0.1367 0.3759 -0.0507
H29 H 0.1143 0.3003 -0.0290
H30 H 0.2875 0.3024 0.0301
H31 H 0.3096 0.3768 0.0067
H32 H 0.3073 0.3686 0.0634
H33 H 0.0861 0.4895 0.0405
H34 H 0.1763 0.4907 0.0702
H35 H 0.1786 0.4988 0.0136
H36 H -0.1184 0.3681 0.0102
H37 H -0.1659 0.2933 0.0141
H38 H -0.2234 0.3624 0.0048
H39 H -0.2955 0.3132 0.1415
H40 H -0.3397 0.3260 0.0905
H41 H -0.2822 0.2569 0.0998
H42 H -0.2089 0.4564 0.1379
H43 H -0.1507 0.4783 0.0927
H44 H -0.2555 0.4699 0.0876
H45 H 0.2860 0.1768 0.0880
H46 H 0.2896 0.1231 0.1314
H47 H 0.4323 0.1709 0.0897
H48 H 0.4315 0.1452 0.1437
H49 H 0.4360 0.2774 0.1086
H50 H 0.4716 0.2490 0.1579
H51 H 0.3500 0.2833 0.1960
H52 H 0.3236 0.3238 0.1481
H53 H 0.0571 0.1335 0.2625
H54 H 0.0938 0.1996 0.2912
H55 H 0.1247 0.0642 0.3057
H56 H 0.1418 0.1277 0.3409
H57 H 0.2635 0.0620 0.2991
H58 H 0.2773 0.1363 0.3242
H59 H 0.3009 0.1821 0.2532
H60 H 0.2737 0.1105 0.2282
loop_
_geom_bond_atom_site_label_1
_geom_bond_atom_site_label_2
_geom_bond_site_symmetry_1
_geom_bond_site_symmetry_2
Mg1 C1 1_555 1_555
Si1 C1 1_555 1_555
Si2 C3 1_555 1_555
Si3 C2 1_555 1_555
Si4 C4 1_555 1_555
C1 B1 1_555 1_555
B1 B3 1_555 1_555
B2 C1 1_555 1_555
C2 B2 1_555 1_555
B3 Mg1 1_555 1_555
B4 Mg1 1_555 1_555
C3 Mg1 1_555 1_555
C4 B1 1_555 1_555
B5 C2 1_555 1_555
B6 C2 1_555 1_555
B7 B4 1_555 1_555
B8 B1 1_555 1_555
C5 Si1 1_555 1_555
C6 Si1 1_555 1_555
C7 Si1 1_555 1_555
C8 Si2 1_555 1_555
C9 Si2 1_555 1_555
C10 Si2 1_555 1_555
C11 Si3 1_555 1_555
C12 Si3 1_555 1_555
C13 Si3 1_555 1_555
C14 Si4 1_555 1_555
C15 Si4 1_555 1_555
C16 Si4 1_555 1_555
O1 Mg1 1_555 1_555
C17 O1 1_555 1_555
C18 C17 1_555 1_555
C19 C18 1_555 1_555
C20 O1 1_555 1_555
O2 Mg1 1_555 1_555
C21 O2 1_555 1_555
C22 C21 1_555 1_555
C23 C22 1_555 1_555
C24 O2 1_555 1_555
H1 B1 1_555 1_555
H2 B2 1_555 1_555
H3 B3 1_555 1_555
H4 B4 1_555 1_555
H5 B5 1_555 1_555
H6 B6 1_555 1_555
H7 B7 1_555 1_555
H8 B8 1_555 1_555
H9 C5 1_555 1_555
H10 C5 1_555 1_555
H11 C5 1_555 1_555
H12 C6 1_555 1_555
H13 C6 1_555 1_555
H14 C6 1_555 1_555
H15 C7 1_555 1_555
H16 C7 1_555 1_555
H17 C7 1_555 1_555
H18 C8 1_555 1_555
H19 C8 1_555 1_555
H20 C8 1_555 1_555
H21 C9 1_555 1_555
H22 C9 1_555 1_555
H23 C9 1_555 1_555
H24 C10 1_555 1_555
H25 C10 1_555 1_555
H26 C10 1_555 1_555
H27 C11 1_555 1_555
H28 C11 1_555 1_555
H29 C11 1_555 1_555
H30 C12 1_555 1_555
H31 C12 1_555 1_555
H32 C12 1_555 1_555
H33 C13 1_555 1_555
H34 C13 1_555 1_555
H35 C13 1_555 1_555
H36 C14 1_555 1_555
H37 C14 1_555 1_555
H38 C14 1_555 1_555
H39 C15 1_555 1_555
H40 C15 1_555 1_555
H41 C15 1_555 1_555
H42 C16 1_555 1_555
H43 C16 1_555 1_555
H44 C16 1_555 1_555
H45 C17 1_555 1_555
H46 C17 1_555 1_555
H47 C18 1_555 1_555
H48 C18 1_555 1_555
H49 C19 1_555 1_555
H50 C19 1_555 1_555
H51 C20 1_555 1_555
H52 C20 1_555 1_555
H53 C21 1_555 1_555
H54 C21 1_555 1_555
H55 C22 1_555 1_555
H56 C22 1_555 1_555
H57 C23 1_555 1_555
H58 C23 1_555 1_555
H59 C24 1_555 1_555
H60 C24 1_555 1_555
C1 B3 1_555 1_555
B3 B4 1_555 1_555
B3 B8 1_555 1_555
B4 C3 1_555 1_555
B4 B8 1_555 1_555
C3 B6 1_555 1_555
C3 B7 1_555 1_555
C4 B5 1_555 1_555
C4 B7 1_555 1_555
C4 B8 1_555 1_555
B5 B6 1_555 1_555
B5 B7 1_555 1_555
B7 B8 1_555 1_555
C19 C20 1_555 1_555
C23 C24 1_555 1_555

#END
