
#######################################################################
#
#                 Cambridge Crystallographic Data Centre
#                                CCDC 
#
#######################################################################
#
# If this CIF has been generated from an entry in the Cambridge 
# Structural Database, then it will include bibliographic, chemical, 
# crystal, experimental, refinement or atomic coordinate data resulting 
# from the CCDC's data processing and validation procedures.
#
#######################################################################

data_TEQJEG
_chemical_formula_moiety         'C68 H92 N12 O4 S4'
_chemical_name_systematic        
5,11,17,23-Tetra-t-butyl-25,26,27,28-tetrakis(1-n-butyl-1H-1,2,3-triazol-4-ylmethoxy)-2,8,14,20-tetrathiacalix(4)arene
_symmetry_cell_setting           triclinic
_symmetry_space_group_name_H-M   'P -1'
_symmetry_Int_Tables_number      2
_space_group_name_Hall           '-P 1'
loop_
_symmetry_equiv_pos_site_id
_symmetry_equiv_pos_as_xyz
1 x,y,z
2 -x,-y,-z
_cell_length_a                   13.9744(4)
_cell_length_b                   14.0021(4)
_cell_length_c                   19.6538(8)
_cell_angle_alpha                72.1230(10)
_cell_angle_beta                 81.2730(10)
_cell_angle_gamma                79.9070(10)
_cell_volume                     3583.62
_exptl_crystal_colour            colorless
_exptl_crystal_description       block
_cell_formula_units_Z            2
loop_
_atom_site_label
_atom_site_type_symbol
_atom_site_fract_x
_atom_site_fract_y
_atom_site_fract_z
C1 C 0.15019(15) 0.18689(16) 0.63859(13)
C2 C 0.14664(15) 0.10048(17) 0.69678(13)
H1 H 0.0909 0.0947 0.7294
C3 C 0.22472(15) 0.02211(16) 0.70746(12)
C4 C 0.30744(14) 0.02916(15) 0.65831(12)
C5 C 0.31463(15) 0.11755(16) 0.60204(12)
C6 C 0.23654(15) 0.19592(16) 0.59287(13)
H2 H 0.2423 0.2552 0.5556
C7 C 0.06500(16) 0.27329(18) 0.62451(15)
C8 C 0.0552(5) 0.3224(6) 0.5449(3)
H3 H 0.0407 0.2735 0.5241
H4 H 0.1153 0.3466 0.5212
H5 H 0.0032 0.3782 0.5390
C9 C -0.0344(4) 0.2443(5) 0.6604(4)
H6 H -0.0836 0.3018 0.6473
H7 H -0.0335 0.2226 0.7116
H8 H -0.0487 0.1901 0.6449
C10 C 0.0901(7) 0.3524(5) 0.6549(6)
H9 H 0.1538 0.3696 0.6342
H10 H 0.0896 0.3257 0.7062
H11 H 0.0427 0.4120 0.6436
C11 C 0.3603(2) -0.1170(2) 0.62501(16)
H12 H 0.3638 -0.0810 0.5741
H13 H 0.2948 -0.1348 0.6406
C12 C 0.43205(17) -0.20998(17) 0.63718(13)
C13 C 0.5209(2) -0.2339(2) 0.65870(18)
H14 H 0.5556 -0.1925 0.6718
C14 C 0.6298(4) -0.4132(5) 0.6860(4)
H15 H 0.6299 -0.4702 0.6677
H16 H 0.6212 -0.4362 0.7381
C15 C 0.7232(4) -0.3682(4) 0.6597(4)
H17 H 0.7216 -0.3091 0.6760
H18 H 0.7333 -0.3483 0.6076
C16 C 0.8066(5) -0.4537(7) 0.6925(7)
H19 H 0.7889 -0.4832 0.7434
H20 H 0.8160 -0.5068 0.6690
C17 C 0.8973(6) -0.4084(9) 0.6814(8)
H21 H 0.9164 -0.3829 0.6309
H22 H 0.9482 -0.4590 0.7034
H23 H 0.8865 -0.3539 0.7029
C18 C 0.51390(15) 0.13128(16) 0.58429(12)
C19 C 0.51229(15) 0.20801(15) 0.61579(12)
C20 C 0.59237(15) 0.20797(16) 0.65070(12)
C21 C 0.67323(15) 0.13534(16) 0.65022(12)
H24 H 0.7261 0.1361 0.6736
C22 C 0.67780(15) 0.06119(16) 0.61585(12)
C23 C 0.59630(15) 0.05920(16) 0.58468(12)
H25 H 0.5965 0.0083 0.5634
C24 C 0.76925(17) -0.01892(18) 0.61683(14)
C25 C 0.7636(3) -0.0980(2) 0.69183(19)
H26 H 0.7661 -0.0657 0.7280
H27 H 0.8178 -0.1511 0.6934
H28 H 0.7035 -0.1261 0.7005
C26 C 0.7726(2) -0.0743(3) 0.5605(2)
H29 H 0.7155 -0.1075 0.5693
H30 H 0.8300 -0.1237 0.5632
H31 H 0.7745 -0.0264 0.5135
C27 C 0.86217(19) 0.0290(2) 0.6067(2)
H32 H 0.8668 0.0787 0.5605
H33 H 0.9179 -0.0225 0.6094
H34 H 0.8604 0.0609 0.6437
C28 C 0.45142(19) 0.36811(18) 0.54849(15)
H35 H 0.4685 0.3437 0.5064
H36 H 0.5063 0.3978 0.5542
C29 C 0.36448(18) 0.44703(18) 0.53711(15)
C30 C 0.34309(18) 0.53220(18) 0.55784(15)
H37 H 0.3770 0.5516 0.5875
C31 C 0.2106(2) 0.6817(2) 0.5289(2)
H38 H 0.1660 0.7051 0.4920
H39 H 0.2569 0.7297 0.5182
C32 C 0.1554(3) 0.6790(3) 0.5987(2)
H40 H 0.1996 0.6506 0.6357
H41 H 0.1065 0.6340 0.6077
C33 C 0.1044(4) 0.7825(3) 0.6052(3)
H42 H 0.1483 0.8324 0.5825
H43 H 0.0472 0.8015 0.5790
C34 C 0.0745(4) 0.7860(4) 0.6773(3)
H44 H 0.0220 0.7465 0.6975
H45 H 0.0529 0.8550 0.6774
H46 H 0.1287 0.7589 0.7055
C35 C 0.49582(16) 0.28514(16) 0.76020(13)
C36 C 0.42353(17) 0.36650(17) 0.76178(13)
H47 H 0.4266 0.4273 0.7255
C37 C 0.34662(16) 0.35932(16) 0.81619(13)
C38 C 0.34043(16) 0.26563(17) 0.86550(13)
H48 H 0.2865 0.2573 0.8998
C39 C 0.41267(15) 0.18285(16) 0.86553(12)
C40 C 0.49302(15) 0.19426(15) 0.81390(12)
C41 C 0.26745(18) 0.45036(19) 0.81887(15)
C42 C 0.2248(3) 0.4429(3) 0.89590(18)
H49 H 0.1789 0.5023 0.8969
H50 H 0.2764 0.4377 0.9245
H51 H 0.1920 0.3840 0.9149
C43 C 0.3064(3) 0.5497(2) 0.7843(3)
H52 H 0.3318 0.5540 0.7354
H53 H 0.3575 0.5541 0.8103
H54 H 0.2546 0.6045 0.7852
C44 C 0.1851(2) 0.4465(3) 0.7773(2)
H55 H 0.1348 0.5026 0.7782
H56 H 0.1584 0.3841 0.7992
H57 H 0.2103 0.4503 0.7285
C45 C 0.64158(18) 0.1249(2) 0.86051(16)
H58 H 0.6160 0.1057 0.9108
H59 H 0.6533 0.1949 0.8473
C46 C 0.73509(17) 0.05942(19) 0.85022(14)
C47 C 0.76989(18) -0.0358(2) 0.88811(15)
H60 H 0.7371 -0.0791 0.9269
C48 C 0.9341(2) -0.1445(2) 0.8766(2)
H61 H 0.9922 -0.1336 0.8428
H62 H 0.9523 -0.1532 0.9240
C49 C 0.9012(3) -0.2370(3) 0.8761(3)
H63 H 0.8816 -0.2275 0.8289
H64 H 0.8439 -0.2483 0.9106
C50 C 0.9766(3) -0.3311(3) 0.8936(3)
H65 H 1.0292 -0.3249 0.8549
H66 H 1.0041 -0.3349 0.9370
C51 C 0.9379(4) -0.4227(4) 0.9039(4)
H67 H 0.8819 -0.4266 0.9391
H68 H 0.9868 -0.4795 0.9202
H69 H 0.9189 -0.4238 0.8592
C52 C 0.39678(16) -0.02341(16) 0.89717(12)
C53 C 0.46631(16) -0.10937(16) 0.90825(13)
H70 H 0.5188 -0.1130 0.9333
C54 C 0.45959(16) -0.19022(17) 0.88284(13)
C55 C 0.38404(16) -0.17903(16) 0.84122(13)
H71 H 0.3808 -0.2298 0.8206
C56 C 0.31330(15) -0.09417(16) 0.82952(12)
C57 C 0.31693(15) -0.01753(16) 0.86020(12)
C58 C 0.5345(2) -0.28574(19) 0.90048(16)
C59 C 0.6247(5) -0.2531(8) 0.8478(6)
H72 H 0.6456 -0.1972 0.8574
H73 H 0.6080 -0.2331 0.7993
H74 H 0.6767 -0.3089 0.8539
C60 C 0.5657(10) -0.3216(10) 0.9749(4)
H75 H 0.5138 -0.3011 1.0077
H76 H 0.6227 -0.2925 0.9755
H77 H 0.5804 -0.3941 0.9892
C61 C 0.5077(8) -0.3744(7) 0.8803(5)
H78 H 0.5618 -0.4279 0.8856
H79 H 0.4927 -0.3520 0.8313
H80 H 0.4518 -0.3990 0.9113
C62 C 0.16701(19) 0.0394(2) 0.91336(16)
H81 H 0.1946 0.0194 0.9589
H82 H 0.1370 -0.0166 0.9106
C63 C 0.09275(18) 0.1295(2) 0.90897(15)
C64 C 0.0101(2) 0.1577(3) 0.87701(19)
H83 H -0.0153 0.1222 0.8526
C65 C -0.1209(3) 0.3087(4) 0.8670(3)
H84 H -0.1286 0.3109 0.8184
H85 H -0.1188 0.3774 0.8674
C66 C -0.2071(3) 0.2706(5) 0.9154(4)
H86 H -0.2653 0.3146 0.8975
H87 H -0.2111 0.2039 0.9119
C67 C -0.2094(4) 0.2638(4) 0.9879(3)
H88 H -0.1484 0.2259 1.0049
H89 H -0.2616 0.2257 1.0147
C68 C -0.2242(5) 0.3622(5) 1.0036(4)
H90 H -0.2378 0.3515 1.0545
H91 H -0.2782 0.4049 0.9799
H92 H -0.1662 0.3940 0.9865
N1 N 0.41154(19) -0.29034(18) 0.62150(16)
N2 N 0.4837(2) -0.36267(19) 0.63412(18)
N3 N 0.5506(2) -0.3298(2) 0.65782(16)
N4 N 0.2968(2) 0.44914(19) 0.49360(16)
N5 N 0.2355(2) 0.5332(2) 0.48737(17)
N6 N 0.26307(16) 0.58308(16) 0.52692(14)
N7 N 0.80680(16) 0.09500(18) 0.79884(14)
N8 N 0.88282(16) 0.0259(2) 0.80365(14)
N9 N 0.86129(14) -0.05463(17) 0.85813(13)
N10 N 0.10159(17) 0.2025(2) 0.93833(17)
N11 N 0.0270(2) 0.2728(2) 0.92637(19)
N12 N -0.02849(19) 0.2470(2) 0.88723(16)
O1 O 0.38059(10) -0.05284(11) 0.66458(8)
O2 O 0.43370(10) 0.28412(10) 0.61098(8)
O3 O 0.57029(10) 0.11605(11) 0.81729(9)
O4 O 0.24360(10) 0.06282(11) 0.85454(8)
S1 S 0.41702(4) 0.13037(4) 0.53568(3)
S2 S 0.59557(4) 0.30428(4) 0.69161(4)
S3 S 0.40559(5) 0.07066(4) 0.93841(3)
S4 S 0.21396(4) -0.08963(4) 0.78114(3)
C69? C -0.0126(10) 0.2450(16) 0.6866(9)
H93? H -0.0440 0.3048 0.6993
H94? H 0.0169 0.1978 0.7271
H95? H -0.0602 0.2146 0.6729
C70? C 0.0319(16) 0.2686(16) 0.5566(9)
H96? H 0.0878 0.2533 0.5249
H97? H -0.0037 0.3328 0.5336
H98? H -0.0096 0.2168 0.5679
C71? C 0.0880(13) 0.3773(8) 0.6162(13)
H99? H 0.1344 0.3965 0.5748
H100? H 0.1152 0.3771 0.6583
H101? H 0.0292 0.4249 0.6102
C72? C 0.6669(8) -0.3508(9) 0.6447(7)
H102? H 0.6886 -0.3485 0.5950
H103? H 0.6970 -0.3021 0.6574
C73? C 0.6900(9) -0.4553(9) 0.6940(9)
H104? H 0.6517 -0.5012 0.6855
H105? H 0.6749 -0.4549 0.7438
C74? C 0.8011(12) -0.4896(15) 0.6779(12)
H106? H 0.8150 -0.5629 0.6928
H107? H 0.8210 -0.4652 0.6268
C75? C 0.8557(10) -0.4455(12) 0.7193(11)
H108? H 0.8586 -0.3752 0.6946
H109? H 0.9208 -0.4812 0.7229
H110? H 0.8223 -0.4521 0.7666
C76? C 0.6397(6) -0.2669(10) 0.8840(9)
H111? H 0.6474 -0.2106 0.8999
H112? H 0.6580 -0.2519 0.8331
H113? H 0.6808 -0.3262 0.9084
C77? C 0.5162(8) -0.3294(8) 0.9825(4)
H114? H 0.5639 -0.3874 0.9987
H115? H 0.4519 -0.3491 0.9951
H116? H 0.5213 -0.2789 1.0051
C78? C 0.5177(12) -0.3617(11) 0.8659(9)
H117? H 0.5056 -0.4234 0.9022
H118? H 0.5744 -0.3750 0.8341
H119? H 0.4621 -0.3356 0.8389
loop_
_geom_bond_atom_site_label_1
_geom_bond_atom_site_label_2
_geom_bond_site_symmetry_1
_geom_bond_site_symmetry_2
C1 C2 1_555 1_555
C2 H1 1_555 1_555
C3 C2 1_555 1_555
C4 C3 1_555 1_555
C5 C4 1_555 1_555
C6 C1 1_555 1_555
H2 C6 1_555 1_555
C7 C1 1_555 1_555
C8 C7 1_555 1_555
H3 C8 1_555 1_555
H4 C8 1_555 1_555
H5 C8 1_555 1_555
C9 C7 1_555 1_555
H6 C9 1_555 1_555
H7 C9 1_555 1_555
H8 C9 1_555 1_555
C10 C7 1_555 1_555
H9 C10 1_555 1_555
H10 C10 1_555 1_555
H11 C10 1_555 1_555
C11 H12 1_555 1_555
H13 C11 1_555 1_555
C12 C11 1_555 1_555
C13 C12 1_555 1_555
H14 C13 1_555 1_555
C14 H15 1_555 1_555
H16 C14 1_555 1_555
C15 C14 1_555 1_555
H17 C15 1_555 1_555
H18 C15 1_555 1_555
C16 C15 1_555 1_555
H19 C16 1_555 1_555
H20 C16 1_555 1_555
C17 C16 1_555 1_555
H21 C17 1_555 1_555
H22 C17 1_555 1_555
H23 C17 1_555 1_555
C18 C19 1_555 1_555
C19 C20 1_555 1_555
C20 C21 1_555 1_555
C21 H24 1_555 1_555
C22 C21 1_555 1_555
C23 C18 1_555 1_555
H25 C23 1_555 1_555
C24 C22 1_555 1_555
C25 C24 1_555 1_555
H26 C25 1_555 1_555
H27 C25 1_555 1_555
H28 C25 1_555 1_555
C26 C24 1_555 1_555
H29 C26 1_555 1_555
H30 C26 1_555 1_555
H31 C26 1_555 1_555
C27 C24 1_555 1_555
H32 C27 1_555 1_555
H33 C27 1_555 1_555
H34 C27 1_555 1_555
C28 H35 1_555 1_555
H36 C28 1_555 1_555
C29 C28 1_555 1_555
C30 C29 1_555 1_555
H37 C30 1_555 1_555
C31 H38 1_555 1_555
H39 C31 1_555 1_555
C32 C31 1_555 1_555
H40 C32 1_555 1_555
H41 C32 1_555 1_555
C33 C32 1_555 1_555
H42 C33 1_555 1_555
H43 C33 1_555 1_555
C34 C33 1_555 1_555
H44 C34 1_555 1_555
H45 C34 1_555 1_555
H46 C34 1_555 1_555
C35 C36 1_555 1_555
C36 H47 1_555 1_555
C37 C36 1_555 1_555
C38 C37 1_555 1_555
H48 C38 1_555 1_555
C39 C38 1_555 1_555
C40 C35 1_555 1_555
C41 C37 1_555 1_555
C42 C41 1_555 1_555
H49 C42 1_555 1_555
H50 C42 1_555 1_555
H51 C42 1_555 1_555
C43 C41 1_555 1_555
H52 C43 1_555 1_555
H53 C43 1_555 1_555
H54 C43 1_555 1_555
C44 C41 1_555 1_555
H55 C44 1_555 1_555
H56 C44 1_555 1_555
H57 C44 1_555 1_555
C45 H58 1_555 1_555
H59 C45 1_555 1_555
C46 C45 1_555 1_555
C47 C46 1_555 1_555
H60 C47 1_555 1_555
C48 H61 1_555 1_555
H62 C48 1_555 1_555
C49 C48 1_555 1_555
H63 C49 1_555 1_555
H64 C49 1_555 1_555
C50 C49 1_555 1_555
H65 C50 1_555 1_555
H66 C50 1_555 1_555
C51 C50 1_555 1_555
H67 C51 1_555 1_555
H68 C51 1_555 1_555
H69 C51 1_555 1_555
C52 C53 1_555 1_555
C53 H70 1_555 1_555
C54 C53 1_555 1_555
C55 C54 1_555 1_555
H71 C55 1_555 1_555
C56 C55 1_555 1_555
C57 C52 1_555 1_555
C58 C54 1_555 1_555
C59 C58 1_555 1_555
H72 C59 1_555 1_555
H73 C59 1_555 1_555
H74 C59 1_555 1_555
C60 C58 1_555 1_555
H75 C60 1_555 1_555
H76 C60 1_555 1_555
H77 C60 1_555 1_555
C61 C58 1_555 1_555
H78 C61 1_555 1_555
H79 C61 1_555 1_555
H80 C61 1_555 1_555
C62 H81 1_555 1_555
H82 C62 1_555 1_555
C63 C62 1_555 1_555
C64 C63 1_555 1_555
H83 C64 1_555 1_555
C65 H84 1_555 1_555
H85 C65 1_555 1_555
C66 C65 1_555 1_555
H86 C66 1_555 1_555
H87 C66 1_555 1_555
C67 C66 1_555 1_555
H88 C67 1_555 1_555
H89 C67 1_555 1_555
C68 C67 1_555 1_555
H90 C68 1_555 1_555
H91 C68 1_555 1_555
H92 C68 1_555 1_555
N1 C12 1_555 1_555
N2 N1 1_555 1_555
N3 C13 1_555 1_555
N4 C29 1_555 1_555
N5 N4 1_555 1_555
N6 C30 1_555 1_555
N7 C46 1_555 1_555
N8 N7 1_555 1_555
N9 C47 1_555 1_555
N10 C63 1_555 1_555
N11 N10 1_555 1_555
N12 C64 1_555 1_555
O1 C4 1_555 1_555
O2 C19 1_555 1_555
O3 C40 1_555 1_555
O4 C57 1_555 1_555
S1 C5 1_555 1_555
S2 C20 1_555 1_555
S3 C39 1_555 1_555
S4 C3 1_555 1_555
C5 C6 1_555 1_555
C11 O1 1_555 1_555
C14 N3 1_555 1_555
C18 S1 1_555 1_555
C22 C23 1_555 1_555
C28 O2 1_555 1_555
C31 N6 1_555 1_555
C35 S2 1_555 1_555
C39 C40 1_555 1_555
C45 O3 1_555 1_555
C48 N9 1_555 1_555
C52 S3 1_555 1_555
C56 C57 1_555 1_555
C56 S4 1_555 1_555
C62 O4 1_555 1_555
C65 N12 1_555 1_555
N2 N3 1_555 1_555
N5 N6 1_555 1_555
N8 N9 1_555 1_555
N11 N12 1_555 1_555

#END
