
#######################################################################
#
#                 Cambridge Crystallographic Data Centre
#                                CCDC 
#
#######################################################################
#
# If this CIF has been generated from an entry in the Cambridge 
# Structural Database, then it will include bibliographic, chemical, 
# crystal, experimental, refinement or atomic coordinate data resulting 
# from the CCDC's data processing and validation procedures.
#
#######################################################################

data_TEQMIN
_chemical_formula_moiety         'C37 H40 B2 F2 N2'
_chemical_name_systematic        
10-(4-(Dimesitylboryl)phenyl)-5,5-difluoro-1,3,7,9-tetramethyl-5H-4\l^5^,5\l^5^-dipyrrolo[1,2-c:2',1'-f][1,3,2]diazaborinine
_symmetry_cell_setting           monoclinic
_symmetry_space_group_name_H-M   'P 21/c'
_symmetry_Int_Tables_number      14
_space_group_name_Hall           '-P 2ybc'
loop_
_symmetry_equiv_pos_site_id
_symmetry_equiv_pos_as_xyz
1 x,y,z
2 -x,1/2+y,1/2-z
3 -x,-y,-z
4 x,1/2-y,1/2+z
_cell_length_a                   18.770(2)
_cell_length_b                   9.8560(13)
_cell_length_c                   16.662(2)
_cell_angle_alpha                90
_cell_angle_beta                 90.167(8)
_cell_angle_gamma                90
_cell_volume                     3082.41
_exptl_crystal_colour            orange
_exptl_crystal_description       prism
_cell_formula_units_Z            4
loop_
_atom_site_label
_atom_site_type_symbol
_atom_site_fract_x
_atom_site_fract_y
_atom_site_fract_z
F1 F 1.2189(2) 0.1918(4) 0.3383(2)
F2 F 1.1980(2) -0.0319(4) 0.3607(2)
N1 N 1.1318(3) 0.0806(5) 0.2549(3)
N2 N 1.1072(3) 0.1300(5) 0.3980(3)
B1 B 1.1672(4) 0.0915(7) 0.3390(4)
B2 B 0.7026(4) 0.0904(7) 0.2448(4)
C1 C 1.0104(3) 0.0974(5) 0.3048(3)
C2 C 1.0586(3) 0.0747(5) 0.2421(3)
C3 C 1.0465(3) 0.0541(6) 0.1580(3)
C4 C 1.1138(3) 0.0487(6) 0.1232(3)
H1 H 1.1231 0.0361 0.0689
C5 C 1.1652(3) 0.0653(6) 0.1835(3)
C6 C 1.0342(3) 0.1269(5) 0.3819(3)
C7 C 0.9968(3) 0.1578(6) 0.4553(3)
C8 C 1.0489(3) 0.1756(6) 0.5129(3)
H2 H 1.0410 0.1955 0.5667
C9 C 1.1161(3) 0.1588(6) 0.4768(3)
C10 C 0.9782(3) 0.0411(7) 0.1136(3)
H3 H 0.9392 0.0480 0.1506
H4 H 0.9765 -0.0453 0.0871
H5 H 0.9746 0.1123 0.0745
C11 C 1.2444(3) 0.0692(7) 0.1760(4)
H6 H 1.2653 0.0822 0.2281
H7 H 1.2578 0.1427 0.1414
H8 H 1.2609 -0.0149 0.1537
C12 C 0.9189(3) 0.1696(6) 0.4701(3)
H9 H 0.8934 0.1531 0.4210
H10 H 0.9082 0.2592 0.4892
H11 H 0.9048 0.1041 0.5096
C13 C 1.1881(4) 0.1656(7) 0.5150(4)
H12 H 1.2240 0.1498 0.4752
H13 H 1.1916 0.0977 0.5562
H14 H 1.1949 0.2538 0.5384
C14 C 0.9334(3) 0.0929(6) 0.2892(3)
C15 C 0.8962(3) -0.0295(6) 0.2789(3)
H15 H 0.9207 -0.1113 0.2829
C16 C 0.8247(3) -0.0305(6) 0.2631(3)
H16 H 0.8017 -0.1130 0.2551
C17 C 0.7852(3) 0.0901(6) 0.2586(3)
C18 C 0.8227(3) 0.2115(6) 0.2676(3)
H17 H 0.7980 0.2930 0.2648
C19 C 0.8945(3) 0.2143(6) 0.2803(3)
H18 H 0.9181 0.2972 0.2831
C20 C 0.6584(3) 0.2115(6) 0.2824(3)
C21 C 0.6213(3) 0.3049(6) 0.2339(3)
C22 C 0.5841(3) 0.4111(6) 0.2682(4)
H19 H 0.5616 0.4736 0.2348
C23 C 0.5792(3) 0.4280(6) 0.3519(4)
C24 C 0.6163(3) 0.3363(6) 0.3992(3)
H20 H 0.6141 0.3452 0.4547
C25 C 0.6566(3) 0.2313(6) 0.3670(3)
C26 C 0.6247(3) 0.2969(7) 0.1434(3)
H21 H 0.6527 0.2198 0.1280
H22 H 0.6461 0.3781 0.1228
H23 H 0.5774 0.2878 0.1221
C27 C 0.5367(4) 0.5414(7) 0.3873(4)
H24 H 0.5153 0.5936 0.3449
H25 H 0.5674 0.5987 0.4186
H26 H 0.5001 0.5048 0.4210
C28 C 0.6968(4) 0.1406(7) 0.4240(4)
H27 H 0.7217 0.0723 0.3941
H28 H 0.6640 0.0980 0.4601
H29 H 0.7304 0.1937 0.4541
C29 C 0.6672(3) -0.0253(6) 0.1935(3)
C30 C 0.6875(3) -0.0476(6) 0.1132(3)
C31 C 0.6525(3) -0.1453(6) 0.0676(3)
H30 H 0.6641 -0.1549 0.0136
C32 C 0.6009(3) -0.2284(6) 0.1002(4)
C33 C 0.5832(3) -0.2112(6) 0.1801(3)
H31 H 0.5497 -0.2686 0.2031
C34 C 0.6142(3) -0.1107(6) 0.2270(3)
C35 C 0.7471(3) 0.0317(7) 0.0740(4)
H32 H 0.7654 0.0975 0.1112
H33 H 0.7291 0.0773 0.0272
H34 H 0.7845 -0.0293 0.0587
C36 C 0.5628(4) -0.3346(7) 0.0497(4)
H35 H 0.5817 -0.3338 -0.0038
H36 H 0.5128 -0.3146 0.0479
H37 H 0.5699 -0.4227 0.0730
C37 C 0.5918(4) -0.0992(7) 0.3138(3)
H38 H 0.6176 -0.0266 0.3390
H39 H 0.6019 -0.1828 0.3410
H40 H 0.5416 -0.0808 0.3163
loop_
_geom_bond_atom_site_label_1
_geom_bond_atom_site_label_2
_geom_bond_site_symmetry_1
_geom_bond_site_symmetry_2
F1 B1 1_555 1_555
F2 B1 1_555 1_555
N1 B1 1_555 1_555
N2 B1 1_555 1_555
B2 C17 1_555 1_555
C1 C2 1_555 1_555
C2 N1 1_555 1_555
C3 C2 1_555 1_555
C4 C3 1_555 1_555
H1 C4 1_555 1_555
C5 N1 1_555 1_555
C6 N2 1_555 1_555
C7 C6 1_555 1_555
C8 C7 1_555 1_555
H2 C8 1_555 1_555
C9 N2 1_555 1_555
C10 C3 1_555 1_555
H3 C10 1_555 1_555
H4 C10 1_555 1_555
H5 C10 1_555 1_555
C11 C5 1_555 1_555
H6 C11 1_555 1_555
H7 C11 1_555 1_555
H8 C11 1_555 1_555
C12 C7 1_555 1_555
H9 C12 1_555 1_555
H10 C12 1_555 1_555
H11 C12 1_555 1_555
C13 C9 1_555 1_555
H12 C13 1_555 1_555
H13 C13 1_555 1_555
H14 C13 1_555 1_555
C14 C1 1_555 1_555
C15 C14 1_555 1_555
H15 C15 1_555 1_555
C16 C15 1_555 1_555
H16 C16 1_555 1_555
C17 C16 1_555 1_555
C18 C17 1_555 1_555
H17 C18 1_555 1_555
C19 C14 1_555 1_555
H18 C19 1_555 1_555
C20 B2 1_555 1_555
C21 C20 1_555 1_555
C22 C21 1_555 1_555
H19 C22 1_555 1_555
C23 C22 1_555 1_555
C24 C23 1_555 1_555
H20 C24 1_555 1_555
C25 C20 1_555 1_555
C26 C21 1_555 1_555
H21 C26 1_555 1_555
H22 C26 1_555 1_555
H23 C26 1_555 1_555
C27 C23 1_555 1_555
H24 C27 1_555 1_555
H25 C27 1_555 1_555
H26 C27 1_555 1_555
C28 C25 1_555 1_555
H27 C28 1_555 1_555
H28 C28 1_555 1_555
H29 C28 1_555 1_555
C29 B2 1_555 1_555
C30 C29 1_555 1_555
C31 C30 1_555 1_555
H30 C31 1_555 1_555
C32 C31 1_555 1_555
C33 C32 1_555 1_555
H31 C33 1_555 1_555
C34 C29 1_555 1_555
C35 C30 1_555 1_555
H32 C35 1_555 1_555
H33 C35 1_555 1_555
H34 C35 1_555 1_555
C36 C32 1_555 1_555
H35 C36 1_555 1_555
H36 C36 1_555 1_555
H37 C36 1_555 1_555
C37 C34 1_555 1_555
H38 C37 1_555 1_555
H39 C37 1_555 1_555
H40 C37 1_555 1_555
C1 C6 1_555 1_555
C4 C5 1_555 1_555
C8 C9 1_555 1_555
C18 C19 1_555 1_555
C24 C25 1_555 1_555
C33 C34 1_555 1_555

#END
