
#######################################################################
#
#                 Cambridge Crystallographic Data Centre
#                                CCDC 
#
#######################################################################
#
# If this CIF has been generated from an entry in the Cambridge 
# Structural Database, then it will include bibliographic, chemical, 
# crystal, experimental, refinement or atomic coordinate data resulting 
# from the CCDC's data processing and validation procedures.
#
#######################################################################

data_TEQMOT
_chemical_formula_moiety         'C25 H27 B1 O1'
_chemical_name_systematic        4-(Dimesitylboryl)benzaldehyde
_symmetry_cell_setting           triclinic
_symmetry_space_group_name_H-M   'P -1'
_symmetry_Int_Tables_number      2
_space_group_name_Hall           '-P 1'
loop_
_symmetry_equiv_pos_site_id
_symmetry_equiv_pos_as_xyz
1 x,y,z
2 -x,-y,-z
_cell_length_a                   8.506(19)
_cell_length_b                   11.56(3)
_cell_length_c                   11.58(3)
_cell_angle_alpha                83.27(4)
_cell_angle_beta                 88.36(4)
_cell_angle_gamma                76.94(4)
_cell_volume                     1101.56
_cell_formula_units_Z            2
loop_
_atom_site_label
_atom_site_type_symbol
_atom_site_fract_x
_atom_site_fract_y
_atom_site_fract_z
B1 B 0.2015(4) 0.2488(3) 0.7895(2)
C1 C 0.0626(3) 0.3651(2) 0.7543(2)
C2 C 0.0220(4) 0.4596(3) 0.8260(2)
H1 H 0.0765 0.4525 0.8959
C3 C -0.0975(4) 0.5630(3) 0.7947(3)
H2 H -0.1231 0.6225 0.8441
C4 C -0.1779(4) 0.5762(3) 0.6892(3)
C5 C -0.1413(4) 0.4849(3) 0.6167(3)
H3 H -0.1958 0.4932 0.5467
C6 C -0.0231(4) 0.3809(3) 0.6490(2)
H4 H -0.0006 0.3211 0.6000
C7 C -0.3025(5) 0.6894(4) 0.6564(4)
H5 H -0.3215 0.7478 0.7072
C8 C 0.1907(3) 0.1257(2) 0.7430(2)
C9 C 0.0447(4) 0.0835(3) 0.7527(3)
C10 C 0.0328(4) -0.0186(3) 0.7007(3)
H6 H -0.0637 -0.0439 0.7072
C11 C 0.1605(5) -0.0829(3) 0.6398(3)
C12 C 0.3047(4) -0.0453(3) 0.6342(2)
H7 H 0.3916 -0.0880 0.5950
C13 C 0.3245(4) 0.0557(3) 0.6858(2)
C14 C 0.3446(3) 0.2658(2) 0.8671(2)
C15 C 0.3782(4) 0.1988(3) 0.9780(2)
C16 C 0.5025(4) 0.2183(3) 1.0467(2)
H8 H 0.5224 0.1742 1.1193
C17 C 0.5963(4) 0.3000(3) 1.0113(3)
C18 C 0.5631(4) 0.3655(3) 0.9027(3)
H9 H 0.6235 0.4214 0.8772
C19 C 0.4411(3) 0.3501(2) 0.8300(2)
C20 C -0.1010(4) 0.1438(3) 0.8210(4)
H10 H -0.1882 0.1798 0.7685
H11 H -0.0724 0.2042 0.8611
H12 H -0.1338 0.0852 0.8764
C21 C 0.1420(6) -0.1920(3) 0.5801(3)
H13 H 0.2465 -0.2424 0.5693
H14 H 0.0910 -0.1650 0.5059
H15 H 0.0769 -0.2364 0.6279
C22 C 0.4895(4) 0.0882(3) 0.6755(3)
H16 H 0.5645 0.0280 0.6391
H17 H 0.5279 0.0927 0.7516
H18 H 0.4797 0.1641 0.6295
C23 C 0.2792(4) 0.1095(3) 1.0261(3)
H19 H 0.3034 0.0855 1.1069
H20 H 0.3053 0.0406 0.9843
H21 H 0.1664 0.1459 1.0173
C24 C 0.7320(4) 0.3173(4) 1.0866(3)
H22 H 0.6883 0.3738 1.1401
H23 H 0.8109 0.3467 1.0379
H24 H 0.7820 0.2422 1.1291
C25 C 0.4215(4) 0.4204(3) 0.7102(3)
H25 H 0.3311 0.4873 0.7106
H26 H 0.4035 0.3698 0.6543
H27 H 0.5177 0.4487 0.6901
O1 O -0.3783(5) 0.7080(3) 0.5682(3)
loop_
_geom_bond_atom_site_label_1
_geom_bond_atom_site_label_2
_geom_bond_site_symmetry_1
_geom_bond_site_symmetry_2
B1 C1 1_555 1_555
C1 C2 1_555 1_555
C2 H1 1_555 1_555
C3 C2 1_555 1_555
H2 C3 1_555 1_555
C4 C3 1_555 1_555
C5 C4 1_555 1_555
H3 C5 1_555 1_555
C6 C1 1_555 1_555
H4 C6 1_555 1_555
C7 C4 1_555 1_555
H5 C7 1_555 1_555
C8 B1 1_555 1_555
C9 C8 1_555 1_555
C10 C9 1_555 1_555
H6 C10 1_555 1_555
C11 C10 1_555 1_555
C12 C11 1_555 1_555
H7 C12 1_555 1_555
C13 C8 1_555 1_555
C14 B1 1_555 1_555
C15 C14 1_555 1_555
C16 C15 1_555 1_555
H8 C16 1_555 1_555
C17 C16 1_555 1_555
C18 C17 1_555 1_555
H9 C18 1_555 1_555
C19 C14 1_555 1_555
C20 C9 1_555 1_555
H10 C20 1_555 1_555
H11 C20 1_555 1_555
H12 C20 1_555 1_555
C21 C11 1_555 1_555
H13 C21 1_555 1_555
H14 C21 1_555 1_555
H15 C21 1_555 1_555
C22 C13 1_555 1_555
H16 C22 1_555 1_555
H17 C22 1_555 1_555
H18 C22 1_555 1_555
C23 C15 1_555 1_555
H19 C23 1_555 1_555
H20 C23 1_555 1_555
H21 C23 1_555 1_555
C24 C17 1_555 1_555
H22 C24 1_555 1_555
H23 C24 1_555 1_555
H24 C24 1_555 1_555
C25 C19 1_555 1_555
H25 C25 1_555 1_555
H26 C25 1_555 1_555
H27 C25 1_555 1_555
O1 C7 1_555 1_555
C5 C6 1_555 1_555
C12 C13 1_555 1_555
C18 C19 1_555 1_555

#END
