
#######################################################################
#
#                 Cambridge Crystallographic Data Centre
#                                CCDC 
#
#######################################################################
#
# If this CIF has been generated from an entry in the Cambridge 
# Structural Database, then it will include bibliographic, chemical, 
# crystal, experimental, refinement or atomic coordinate data resulting 
# from the CCDC's data processing and validation procedures.
#
#######################################################################

data_TEQNIO
_chemical_formula_moiety         'C21 H23 N1 O8'
_chemical_name_systematic        
'6-Ethyl 9-methyl 6-hydroxy-8-(3-nitrophenyl)-1-oxospiro[4.5]dec-9-ene-6,9-dicarboxylate'
_symmetry_cell_setting           triclinic
_symmetry_space_group_name_H-M   'P -1'
_symmetry_Int_Tables_number      2
_space_group_name_Hall           '-P 1'
loop_
_symmetry_equiv_pos_site_id
_symmetry_equiv_pos_as_xyz
1 x,y,z
2 -x,-y,-z
_cell_length_a                   6.2700(7)
_cell_length_b                   13.0333(7)
_cell_length_c                   13.3502(8)
_cell_angle_alpha                104.013(5)
_cell_angle_beta                 97.803(7)
_cell_angle_gamma                103.712(7)
_cell_volume                     1006.5
_exptl_crystal_colour            colorless
_exptl_crystal_description       block
_cell_formula_units_Z            2
loop_
_atom_site_label
_atom_site_type_symbol
_atom_site_fract_x
_atom_site_fract_y
_atom_site_fract_z
O1 O -0.1527(3) 0.58957(11) 0.92941(13)
O2 O -0.4307(2) 0.81998(11) 0.60478(11)
O3 O -0.4230(3) 0.64581(11) 0.57051(13)
O4 O 0.3435(3) 0.93659(11) 1.08229(11)
O5 O 0.3117(2) 0.75683(10) 1.04322(11)
O6 O -0.1283(2) 0.80814(10) 0.96197(11)
H1 H -0.1800 0.7452 0.9650
O7 O -0.1759(4) 1.23266(16) 0.6754(2)
O8 O 0.0768(3) 1.27563(15) 0.59034(18)
N1 N -0.0207(3) 1.21555(15) 0.63604(16)
C1 C 0.2913(3) 0.70005(15) 0.80970(16)
H2 H 0.3099 0.7295 0.7503
H3 H 0.4173 0.7406 0.8677
C2 C 0.2753(4) 0.57748(19) 0.7792(2)
H4 H 0.2057 0.5433 0.7053
H5 H 0.4233 0.5666 0.7914
C3 C 0.1339(4) 0.52870(17) 0.8480(2)
H6 H 0.0374 0.4559 0.8088
H7 H 0.2283 0.5226 0.9089
C4 C -0.0036(3) 0.60547(15) 0.88185(16)
C5 C 0.0679(3) 0.70821(13) 0.84296(14)
C6 C 0.0780(3) 0.81617(14) 0.92583(14)
C7 C 0.1151(3) 0.91040(14) 0.87634(14)
H8 H 0.2576 0.9192 0.8540
H9 H 0.1243 0.9779 0.9293
C8 C -0.0702(3) 0.89383(13) 0.78118(14)
H10 H -0.1915 0.9203 0.8076
C9 C -0.1668(3) 0.77420(13) 0.71872(14)
C10 C -0.1060(3) 0.69279(14) 0.74666(14)
H11 H -0.1753 0.6213 0.7040
C11 C -0.3501(3) 0.75114(15) 0.62626(15)
C12 C -0.6080(5) 0.6188(2) 0.4821(2)
H12 H -0.5558 0.6477 0.4274
H13 H -0.7228 0.6507 0.5047
H14 H -0.6681 0.5403 0.4556
C13 C 0.2610(3) 0.84523(15) 1.02492(15)
C14 C 0.4841(4) 0.77642(17) 1.13538(17)
H15 H 0.4371 0.8097 1.1987
H16 H 0.6222 0.8262 1.1309
C15 C 0.5203(4) 0.66915(19) 1.1392(2)
H17 H 0.5719 0.6382 1.0774
H18 H 0.3819 0.6199 1.1418
H19 H 0.6307 0.6798 1.2010
C16 C 0.0238(3) 0.96425(14) 0.71257(14)
C17 C 0.1910(3) 0.94021(15) 0.66093(16)
H20 H 0.2380 0.8787 0.6657
C18 C 0.2898(3) 1.00510(17) 0.60269(16)
H21 H 0.4021 0.9872 0.5690
C19 C 0.2221(3) 1.09635(17) 0.59437(16)
H22 H 0.2876 1.1412 0.5558
C20 C 0.0545(3) 1.11880(14) 0.64498(15)
C21 C -0.0463(3) 1.05528(14) 0.70417(14)
H23 H -0.1587 1.0734 0.7376
loop_
_geom_bond_atom_site_label_1
_geom_bond_atom_site_label_2
_geom_bond_site_symmetry_1
_geom_bond_site_symmetry_2
O1 C4 1_555 1_555
O2 C11 1_555 1_555
O3 C11 1_555 1_555
O4 C13 1_555 1_555
O5 C13 1_555 1_555
O6 H1 1_555 1_555
O7 N1 1_555 1_555
O8 N1 1_555 1_555
N1 C20 1_555 1_555
C1 H2 1_555 1_555
H3 C1 1_555 1_555
C2 C1 1_555 1_555
H4 C2 1_555 1_555
H5 C2 1_555 1_555
C3 C2 1_555 1_555
H6 C3 1_555 1_555
H7 C3 1_555 1_555
C4 C3 1_555 1_555
C5 C1 1_555 1_555
C6 O6 1_555 1_555
C7 C6 1_555 1_555
H8 C7 1_555 1_555
H9 C7 1_555 1_555
C8 C7 1_555 1_555
H10 C8 1_555 1_555
C9 C8 1_555 1_555
C10 C5 1_555 1_555
H11 C10 1_555 1_555
C11 C9 1_555 1_555
C12 O3 1_555 1_555
H12 C12 1_555 1_555
H13 C12 1_555 1_555
H14 C12 1_555 1_555
C13 C6 1_555 1_555
C14 O5 1_555 1_555
H15 C14 1_555 1_555
H16 C14 1_555 1_555
C15 C14 1_555 1_555
H17 C15 1_555 1_555
H18 C15 1_555 1_555
H19 C15 1_555 1_555
C16 C8 1_555 1_555
C17 C16 1_555 1_555
H20 C17 1_555 1_555
C18 C17 1_555 1_555
H21 C18 1_555 1_555
C19 C18 1_555 1_555
H22 C19 1_555 1_555
C20 C19 1_555 1_555
C21 C16 1_555 1_555
H23 C21 1_555 1_555
C4 C5 1_555 1_555
C5 C6 1_555 1_555
C9 C10 1_555 1_555
C20 C21 1_555 1_555

#END
