
#######################################################################
#
#                 Cambridge Crystallographic Data Centre
#                                CCDC 
#
#######################################################################
#
# If this CIF has been generated from an entry in the Cambridge 
# Structural Database, then it will include bibliographic, chemical, 
# crystal, experimental, refinement or atomic coordinate data resulting 
# from the CCDC's data processing and validation procedures.
#
#######################################################################

data_TEQTER
_chemical_formula_moiety         'C36 H36 N24 O24,20(H2 O1)'
_chemical_name_systematic        'dodecahydroxycucurbit[6]uril icosahydrate'
_symmetry_cell_setting           triclinic
_symmetry_space_group_name_H-M   'P -1'
_symmetry_Int_Tables_number      2
_space_group_name_Hall           '-P 1'
loop_
_symmetry_equiv_pos_site_id
_symmetry_equiv_pos_as_xyz
1 x,y,z
2 -x,-y,-z
_cell_length_a                   11.3453(13)
_cell_length_b                   12.5873(15)
_cell_length_c                   13.3419(16)
_cell_angle_alpha                61.922(4)
_cell_angle_beta                 83.098(4)
_cell_angle_gamma                69.125(4)
_cell_volume                     1568.11
_exptl_crystal_colour            colorless
_exptl_crystal_description       prism
_cell_formula_units_Z            1
loop_
_atom_site_label
_atom_site_type_symbol
_atom_site_fract_x
_atom_site_fract_y
_atom_site_fract_z
O1 O 0.5376(3) 0.1013(4) 1.0184(3)
O2 O 1.3978(4) -0.0761(5) 0.5784(4)
O3 O 0.7148(4) 0.7401(5) 0.4173(8)
O4 O 1.5231(6) -0.7013(11) 0.9700(6)
O5 O 0.4167(6) 0.0114(6) 0.7047(7)
O6 O 1.2871(7) -0.8321(8) 0.8828(6)
O7 O 1.3526(5) -0.5054(7) 1.1242(5)
O8 O 0.7112(9) 0.6223(9) 0.6356(11)
O9 O 1.1881(9) 0.0736(8) 0.5093(7)
O10 O 1.6108(17) -0.234(2) 0.6649(17)
O11 O 1.5392(14) 0.0177(11) 0.5839(9)
C1 C 0.9846(3) -0.3602(3) 0.7683(3)
C2 C 1.2000(3) -0.4506(3) 0.8238(3)
C3 C 1.1258(3) -0.3767(3) 0.8929(3)
C4 C 1.2765(3) -0.2861(3) 0.7872(3)
C5 C 0.8897(3) -0.2722(3) 0.9018(3)
H1 H 0.8161 -0.2871 0.8867
H2 H 0.9086 -0.3182 0.9843
C6 C 1.1579(3) -0.1982(3) 0.9149(3)
H3 H 1.2300 -0.1694 0.9058
H4 H 1.1502 -0.2474 0.9966
C7 C 0.7528(3) -0.0460(3) 0.7950(3)
C8 C 0.9203(3) -0.0843(3) 0.9102(3)
C9 C 0.8385(3) 0.0623(3) 0.8520(3)
C10 C 1.0485(3) 0.0337(4) 0.8000(3)
C11 C 0.6383(3) 0.1870(3) 0.7202(3)
H5 H 0.6084 0.2357 0.7634
H6 H 0.5680 0.1649 0.7092
C12 C 0.9058(3) 0.2577(3) 0.7330(3)
H7 H 0.8491 0.2923 0.7801
H8 H 0.9860 0.2706 0.7332
C13 C 0.6340(3) 0.2774(4) 0.5118(3)
C14 C 0.7177(3) 0.3705(3) 0.5887(3)
C15 C 0.7100(3) 0.4474(3) 0.4543(3)
C16 C 0.9208(3) 0.3684(3) 0.5239(3)
C17 C 0.6166(3) 0.4219(4) 0.3062(3)
H9 H 0.5819 0.5158 0.2695
H10 H 0.5478 0.3909 0.3090
C18 C 0.8818(3) 0.4986(4) 0.3153(3)
H11 H 0.9617 0.5090 0.3217
H12 H 0.8191 0.5843 0.2745
N1 N 1.1006(2) -0.4312(3) 0.7511(3)
N2 N 0.9971(2) -0.3247(3) 0.8472(2)
N3 N 1.2868(3) -0.3822(3) 0.7629(2)
N4 N 1.1841(3) -0.2815(3) 0.8636(2)
N5 N 0.8581(3) -0.1373(3) 0.8639(2)
N6 N 0.7396(3) 0.0703(3) 0.7864(2)
N7 N 1.0441(3) -0.0862(3) 0.8683(2)
N8 N 0.9290(2) 0.1217(3) 0.7841(2)
N9 N 0.6736(3) 0.2681(3) 0.6095(2)
N10 N 0.6611(3) 0.3761(3) 0.4211(2)
N11 N 0.8512(2) 0.3291(3) 0.6182(2)
N12 N 0.8409(2) 0.4357(3) 0.4285(2)
O12 O 0.8848(2) -0.3338(3) 0.7212(3)
O13 O 0.6816(2) -0.0663(3) 0.7501(2)
O14 O 0.5836(3) 0.2089(3) 0.5072(2)
O15 O 1.3411(3) -0.2172(3) 0.7500(2)
O16 O 1.1423(2) 0.0602(3) 0.7585(2)
O17 O 1.0332(2) 0.3490(3) 0.5263(2)
O18 O 1.2597(3) -0.5800(3) 0.8871(2)
H13 H 1.2971 -0.6110 0.8444
O19 O 1.1300(3) -0.4529(3) 1.0092(2)
H14 H 1.0897 -0.4078 1.0399
O20 O 0.9305(3) -0.1454(3) 1.0264(2)
H15 H 0.9654 -0.1123 1.0492
O21 O 0.7894(3) 0.1131(3) 0.9251(2)
H16 H 0.8479 0.1065 0.9619
O22 O 0.6437(3) 0.4384(3) 0.6427(3)
H17 H 0.5693 0.4687 0.6176
O23 O 0.6300(2) 0.5730(2) 0.4080(2)
H18 H 0.5704 0.5817 0.3711
C1A C 1.0154(3) 0.3602(3) 0.2317(3)
C2A C 0.8000(3) 0.4506(3) 0.1762(3)
C3A C 0.8742(3) 0.3767(3) 0.1071(3)
C4A C 0.7235(3) 0.2861(3) 0.2128(3)
C5A C 1.1103(3) 0.2722(3) 0.0982(3)
H1A H 1.1839 0.2871 0.1133
H2A H 1.0914 0.3182 0.0157
C6A C 0.8421(3) 0.1982(3) 0.0851(3)
H3A H 0.7700 0.1694 0.0942
H4A H 0.8498 0.2474 0.0034
C7A C 1.2472(3) 0.0460(3) 0.2050(3)
C8A C 1.0797(3) 0.0843(3) 0.0898(3)
C9A C 1.1615(3) -0.0623(3) 0.1480(3)
C10A C 0.9515(3) -0.0337(4) 0.2000(3)
C11A C 1.3617(3) -0.1870(3) 0.2798(3)
H5A H 1.3916 -0.2357 0.2366
H6A H 1.4320 -0.1649 0.2908
C12A C 1.0942(3) -0.2577(3) 0.2670(3)
H7A H 1.1509 -0.2923 0.2199
H8A H 1.0140 -0.2706 0.2668
C13A C 1.3660(3) -0.2774(4) 0.4882(3)
C14A C 1.2823(3) -0.3705(3) 0.4113(3)
C15A C 1.2900(3) -0.4474(3) 0.5457(3)
C16A C 1.0792(3) -0.3684(3) 0.4761(3)
C17A C 1.3834(3) -0.4219(4) 0.6938(3)
H9A H 1.4181 -0.5158 0.7305
H10A H 1.4522 -0.3909 0.6910
C18A C 1.1182(3) -0.4986(4) 0.6847(3)
H11A H 1.0383 -0.5090 0.6783
H12A H 1.1809 -0.5843 0.7255
N1A N 0.8994(2) 0.4312(3) 0.2489(3)
N2A N 1.0029(2) 0.3247(3) 0.1528(2)
N3A N 0.7132(3) 0.3822(3) 0.2371(2)
N4A N 0.8159(3) 0.2815(3) 0.1364(2)
N5A N 1.1419(3) 0.1373(3) 0.1361(2)
N6A N 1.2604(3) -0.0703(3) 0.2136(2)
N7A N 0.9559(3) 0.0862(3) 0.1317(2)
N8A N 1.0710(2) -0.1217(3) 0.2159(2)
N9A N 1.3264(3) -0.2681(3) 0.3905(2)
N10A N 1.3389(3) -0.3761(3) 0.5789(2)
N11A N 1.1488(2) -0.3291(3) 0.3818(2)
N12A N 1.1591(2) -0.4357(3) 0.5715(2)
O12A O 1.1152(2) 0.3338(3) 0.2788(3)
O13A O 1.3184(2) 0.0663(3) 0.2499(2)
O14A O 1.4164(3) -0.2089(3) 0.4928(2)
O15A O 0.6589(3) 0.2172(3) 0.2500(2)
O16A O 0.8577(2) -0.0602(3) 0.2415(2)
O17A O 0.9668(2) -0.3490(3) 0.4737(2)
O18A O 0.7403(3) 0.5800(3) 0.1129(2)
H13A H 0.7029 0.6110 0.1556
O19A O 0.8700(3) 0.4529(3) -0.0092(2)
H14A H 0.9103 0.4078 -0.0399
O20A O 1.0695(3) 0.1454(3) -0.0264(2)
H15A H 1.0346 0.1123 -0.0492
O21A O 1.2106(3) -0.1131(3) 0.0749(2)
H16A H 1.1521 -0.1065 0.0381
O22A O 1.3563(3) -0.4384(3) 0.3573(3)
H17A H 1.4307 -0.4687 0.3824
O23A O 1.3700(2) -0.5730(2) 0.5920(2)
H18A H 1.4296 -0.5817 0.6289
O24? O 1.4811(9) -0.6369(10) 0.9993(10)
O25? O 0.3119(7) 0.0155(9) 0.6569(7)
O26? O 1.568(3) -0.105(2) 0.5920(12)
O27? O 0.4338(14) -0.034(2) 0.807(2)
loop_
_geom_bond_atom_site_label_1
_geom_bond_atom_site_label_2
_geom_bond_site_symmetry_1
_geom_bond_site_symmetry_2
C1 N1 1_555 1_555
C2 C3 1_555 1_555
C3 N2 1_555 1_555
C4 N3 1_555 1_555
C5 H1 1_555 1_555
H2 C5 1_555 1_555
C6 H3 1_555 1_555
H4 C6 1_555 1_555
C7 N5 1_555 1_555
C8 C9 1_555 1_555
C9 N6 1_555 1_555
C10 N7 1_555 1_555
C11 H5 1_555 1_555
H6 C11 1_555 1_555
C12 H7 1_555 1_555
H8 C12 1_555 1_555
C13 N9 1_555 1_555
C14 C15 1_555 1_555
C15 N10 1_555 1_555
C16 N11 1_555 1_555
C17 H9 1_555 1_555
H10 C17 1_555 1_555
C18 H11 1_555 1_555
H12 C18 1_555 1_555
N1 C2 1_555 1_555
N2 C1 1_555 1_555
N3 C2 1_555 1_555
N4 C3 1_555 1_555
N5 C5 1_555 1_555
N6 C7 1_555 1_555
N7 C6 1_555 1_555
N8 C9 1_555 1_555
N9 C11 1_555 1_555
N10 C13 1_555 1_555
N11 C12 1_555 1_555
N12 C15 1_555 1_555
O12 C1 1_555 1_555
O13 C7 1_555 1_555
O14 C13 1_555 1_555
O15 C4 1_555 1_555
O16 C10 1_555 1_555
O17 C16 1_555 1_555
O18 C2 1_555 1_555
H13 O18 1_555 1_555
O19 C3 1_555 1_555
H14 O19 1_555 1_555
O20 C8 1_555 1_555
H15 O20 1_555 1_555
O21 C9 1_555 1_555
H16 O21 1_555 1_555
O22 C14 1_555 1_555
H17 O22 1_555 1_555
O23 C15 1_555 1_555
H18 O23 1_555 1_555
C1A N1A 1_555 1_555
C2A C3A 1_555 1_555
C3A N2A 1_555 1_555
C4A N3A 1_555 1_555
C5A H1A 1_555 1_555
H2A C5A 1_555 1_555
C6A H3A 1_555 1_555
H4A C6A 1_555 1_555
C7A N5A 1_555 1_555
C8A C9A 1_555 1_555
C9A N6A 1_555 1_555
C10A N7A 1_555 1_555
C11A H5A 1_555 1_555
H6A C11A 1_555 1_555
C12A H7A 1_555 1_555
H8A C12A 1_555 1_555
C13A N9A 1_555 1_555
C14A C15A 1_555 1_555
C15A N10A 1_555 1_555
C16A N11A 1_555 1_555
C17A N3 1_555 1_555
H9A C17A 1_555 1_555
H10A C17A 1_555 1_555
C18A N1 1_555 1_555
H11A C18A 1_555 1_555
H12A C18A 1_555 1_555
N1A C18 1_555 1_555
N2A C1A 1_555 1_555
N3A C17 1_555 1_555
N4A C3A 1_555 1_555
N5A C5A 1_555 1_555
N6A C7A 1_555 1_555
N7A C6A 1_555 1_555
N8A C9A 1_555 1_555
N9A C11A 1_555 1_555
N10A C13A 1_555 1_555
N11A C12A 1_555 1_555
N12A C15A 1_555 1_555
O12A C1A 1_555 1_555
O13A C7A 1_555 1_555
O14A C13A 1_555 1_555
O15A C4A 1_555 1_555
O16A C10A 1_555 1_555
O17A C16A 1_555 1_555
O18A C2A 1_555 1_555
H13A O18A 1_555 1_555
O19A C3A 1_555 1_555
H14A O19A 1_555 1_555
O20A C8A 1_555 1_555
H15A O20A 1_555 1_555
O21A C9A 1_555 1_555
H16A O21A 1_555 1_555
O22A C14A 1_555 1_555
H17A O22A 1_555 1_555
O23A C15A 1_555 1_555
H18A O23A 1_555 1_555
C4 N4 1_555 1_555
C5 N2 1_555 1_555
C6 N4 1_555 1_555
C8 N5 1_555 1_555
C8 N7 1_555 1_555
C10 N8 1_555 1_555
C11 N6 1_555 1_555
C12 N8 1_555 1_555
C14 N9 1_555 1_555
C14 N11 1_555 1_555
C16 N12 1_555 1_555
C17 N10 1_555 1_555
C18 N12 1_555 1_555
C2A N1A 1_555 1_555
C2A N3A 1_555 1_555
C4A N4A 1_555 1_555
C5A N2A 1_555 1_555
C6A N4A 1_555 1_555
C8A N5A 1_555 1_555
C8A N7A 1_555 1_555
C10A N8A 1_555 1_555
C11A N6A 1_555 1_555
C12A N8A 1_555 1_555
C14A N9A 1_555 1_555
C14A N11A 1_555 1_555
C16A N12A 1_555 1_555
C17A N10A 1_555 1_555
C18A N12A 1_555 1_555

#END
