
#######################################################################
#
#                 Cambridge Crystallographic Data Centre
#                                CCDC 
#
#######################################################################
#
# If this CIF has been generated from an entry in the Cambridge 
# Structural Database, then it will include bibliographic, chemical, 
# crystal, experimental, refinement or atomic coordinate data resulting 
# from the CCDC's data processing and validation procedures.
#
#######################################################################

data_TEQXUJ
_chemical_formula_moiety         'C10 H9 N3 O1'
_chemical_name_systematic        
1-(4-Methylphenyl)-1H-1,2,3-triazole-4-carbaldehyde
_chemical_properties_biological  
'inhibitory activity against Mycobacterium tuberculosis H37Rv strain (ATCC 27294)'
_symmetry_cell_setting           monoclinic
_symmetry_space_group_name_H-M   'P c'
_symmetry_Int_Tables_number      7
_space_group_name_Hall           'P -2yc'
loop_
_symmetry_equiv_pos_site_id
_symmetry_equiv_pos_as_xyz
1 x,y,z
2 x,-y,1/2+z
_cell_length_a                   3.8806(3)
_cell_length_b                   12.6636(12)
_cell_length_c                   9.1604(9)
_cell_angle_alpha                90
_cell_angle_beta                 101.292(6)
_cell_angle_gamma                90
_cell_volume                     441.449
_exptl_crystal_colour            colorless
_exptl_crystal_description       lath
_chemical_melting_point          105-106deg.C
_cell_formula_units_Z            2
_exptl_crystal_recrystallization_method water
loop_
_atom_site_label
_atom_site_type_symbol
_atom_site_fract_x
_atom_site_fract_y
_atom_site_fract_z
O1 O 0.2015(5) 0.77061(13) 1.0069(2)
N1 N 0.4089(4) 1.12031(15) 1.0145(2)
N2 N 0.1710(5) 1.08936(15) 0.8914(2)
N3 N 0.1408(5) 0.98639(15) 0.8983(2)
C1 C 0.3599(6) 0.95123(18) 1.0247(3)
C2 C 0.5319(6) 1.03593(17) 1.0988(3)
C3 C 0.5007(6) 1.22964(18) 1.0377(3)
C4 C 0.3742(6) 1.30240(18) 0.9275(2)
H1 H 0.2269 1.2809 0.8371
C5 C 0.4680(5) 1.40775(18) 0.9524(2)
H2 H 0.3805 1.4583 0.8777
C6 C 0.6845(6) 1.44149(18) 1.0825(2)
C7 C 0.8056(6) 1.36596(19) 1.1917(3)
H3 H 0.9527 1.3872 1.2824
C8 C 0.7142(5) 1.26052(19) 1.1699(3)
H4 H 0.7976 1.2099 1.2450
C9 C 0.3892(6) 0.8401(2) 1.0691(3)
C10 C 0.7911(6) 1.55596(18) 1.1035(3)
H5 H 0.6333 1.5994 1.0308
H6 H 1.0330 1.5644 1.0888
H7 H 0.7760 1.5784 1.2044
H8 H 0.588(8) 0.824(2) 1.158(3)
H9 H 0.687(7) 1.042(2) 1.183(3)
loop_
_geom_bond_atom_site_label_1
_geom_bond_atom_site_label_2
_geom_bond_site_symmetry_1
_geom_bond_site_symmetry_2
O1 C9 1_555 1_555
N1 N2 1_555 1_555
N2 N3 1_555 1_555
N3 C1 1_555 1_555
C1 C2 1_555 1_555
C2 N1 1_555 1_555
C3 N1 1_555 1_555
C4 C3 1_555 1_555
H1 C4 1_555 1_555
C5 C4 1_555 1_555
H2 C5 1_555 1_555
C6 C5 1_555 1_555
C7 C6 1_555 1_555
H3 C7 1_555 1_555
C8 C3 1_555 1_555
H4 C8 1_555 1_555
C9 C1 1_555 1_555
C10 C6 1_555 1_555
H5 C10 1_555 1_555
H6 C10 1_555 1_555
H7 C10 1_555 1_555
H8 C9 1_555 1_555
H9 C2 1_555 1_555
C7 C8 1_555 1_555

#END
