
#######################################################################
#
#                 Cambridge Crystallographic Data Centre
#                                CCDC 
#
#######################################################################
#
# If this CIF has been generated from an entry in the Cambridge 
# Structural Database, then it will include bibliographic, chemical, 
# crystal, experimental, refinement or atomic coordinate data resulting 
# from the CCDC's data processing and validation procedures.
#
#######################################################################

data_TEQYOG
_chemical_formula_moiety         'C29 H45 B2 N4 O2 1+,C24 B1 F20 1-'
_chemical_name_systematic        
'(N,N-dimethylpyridin-4-amine)(4,4,5,5-tetramethyl-1,3,2-dioxaborolan-2-yl)(1,3,4,5-tetramethyl-1H-imidazol-3-ium-2-yl)(2,4,6-trimethylphenyl)boron tetrakis(pentafluorophenyl)borate'
_symmetry_cell_setting           monoclinic
_symmetry_space_group_name_H-M   'P 21/c'
_symmetry_Int_Tables_number      14
_space_group_name_Hall           '-P 2ybc'
loop_
_symmetry_equiv_pos_site_id
_symmetry_equiv_pos_as_xyz
1 x,y,z
2 -x,1/2+y,1/2-z
3 -x,-y,-z
4 x,1/2-y,1/2+z
_cell_length_a                   8.281(2)
_cell_length_b                   27.653(7)
_cell_length_c                   23.173(6)
_cell_angle_alpha                90
_cell_angle_beta                 91.817(4)
_cell_angle_gamma                90
_cell_volume                     5303.82
_exptl_crystal_colour            colorless
_exptl_crystal_description       prism
_cell_formula_units_Z            4
loop_
_atom_site_label
_atom_site_type_symbol
_atom_site_fract_x
_atom_site_fract_y
_atom_site_fract_z
B1 B 0.2454(9) 0.5087(2) 0.2252(3)
B2 B 0.1515(10) 0.5099(2) 0.2920(3)
N1 N 0.3625(6) 0.46213(17) 0.2231(2)
N2 N 0.6621(7) 0.34086(18) 0.2171(2)
N3 N 0.5166(6) 0.56417(18) 0.2301(2)
N4 N 0.2947(6) 0.60136(17) 0.2443(2)
O1 O 0.2383(6) 0.5074(2) 0.3431(2)
O2 O -0.0069(6) 0.5160(2) 0.3018(2)
C1 C 0.3548(8) 0.5578(2) 0.2301(3)
C2 C 0.6396(8) 0.5306(2) 0.2102(3)
H1 H 0.6777 0.5106 0.2422
H2 H 0.7294 0.5487 0.1952
H3 H 0.5931 0.5102 0.1799
C3 C 0.7275(8) 0.6285(3) 0.2513(3)
H4 H 0.7699 0.6330 0.2132
H5 H 0.7923 0.6047 0.2723
H6 H 0.7313 0.6590 0.2720
C4 C 0.5573(7) 0.6114(2) 0.2459(3)
C5 C 0.4206(8) 0.6345(2) 0.2544(3)
C6 C 0.3879(9) 0.6854(2) 0.2722(3)
H7 H 0.4869 0.7040 0.2712
H8 H 0.3478 0.6856 0.3111
H9 H 0.3076 0.6995 0.2459
C7 C 0.1241(8) 0.6145(2) 0.2437(3)
H10 H 0.0587 0.5858 0.2368
H11 H 0.1020 0.6379 0.2133
H12 H 0.0980 0.6285 0.2807
C8 C 0.1163(7) 0.5058(2) 0.1703(3)
C9 C 0.1107(8) 0.5378(2) 0.1227(3)
C10 C -0.0126(9) 0.5352(3) 0.0816(3)
H13 H -0.0158 0.5582 0.0518
C11 C -0.1323(9) 0.5003(3) 0.0820(3)
C12 C -0.1202(8) 0.4670(3) 0.1260(3)
H14 H -0.1970 0.4420 0.1270
C13 C 0.0010(8) 0.4686(2) 0.1694(3)
C14 C 0.2393(9) 0.5743(3) 0.1103(3)
H15 H 0.2442 0.5790 0.0689
H16 H 0.3429 0.5626 0.1252
H17 H 0.2139 0.6047 0.1287
C15 C -0.2680(10) 0.4991(3) 0.0377(4)
H18 H -0.3641 0.5131 0.0539
H19 H -0.2898 0.4659 0.0265
H20 H -0.2381 0.5176 0.0041
C16 C -0.0015(10) 0.4285(3) 0.2122(3)
H21 H -0.1122 0.4183 0.2175
H22 H 0.0450 0.4397 0.2488
H23 H 0.0610 0.4015 0.1983
C17 C 0.4381(8) 0.4448(2) 0.2703(3)
H24 H 0.4242 0.4610 0.3055
C18 C 0.5358(8) 0.4044(2) 0.2704(3)
H25 H 0.5840 0.3932 0.3052
C19 C 0.5628(8) 0.3802(2) 0.2188(3)
C20 C 0.4868(8) 0.3994(2) 0.1691(3)
H26 H 0.5030 0.3853 0.1328
C21 C 0.3894(8) 0.4387(2) 0.1738(3)
H27 H 0.3370 0.4502 0.1399
C22 C 0.7452(12) 0.3234(3) 0.2693(3)
H28 H 0.8190 0.3480 0.2839
H29 H 0.8055 0.2943 0.2605
H30 H 0.6666 0.3161 0.2982
C23 C 0.6904(10) 0.3166(3) 0.1643(3)
H31 H 0.5880 0.3093 0.1447
H32 H 0.7484 0.2867 0.1722
H33 H 0.7543 0.3371 0.1399
C24 C -0.0305(11) 0.5083(4) 0.3634(4)
C25 C -0.1730(16) 0.5326(7) 0.3799(4)
H34 H -0.2618 0.5239 0.3536
H35 H -0.1556 0.5673 0.3783
H36 H -0.1988 0.5234 0.4189
C26 C -0.0578(18) 0.4497(5) 0.3698(5)
H37 H 0.0016 0.4380 0.4038
H38 H -0.0192 0.4334 0.3358
H39 H -0.1720 0.4430 0.3736
C27 C 0.1333(12) 0.5171(3) 0.3895(3)
C28 C 0.139(3) 0.5736(4) 0.4013(5)
H40 H 0.2249 0.5881 0.3799
H41 H 0.1576 0.5794 0.4422
H42 H 0.0362 0.5880 0.3890
C29 C 0.1910(13) 0.4933(4) 0.4411(4)
H43 H 0.1891 0.4585 0.4351
H44 H 0.1222 0.5015 0.4727
H45 H 0.3008 0.5036 0.4503
B3 B 0.1884(11) 0.7598(3) 0.0261(3)
F1 F 0.4102(5) 0.76282(13) 0.12397(16)
F2 F 0.6374(5) 0.70099(15) 0.15438(18)
F3 F 0.6897(6) 0.62003(16) 0.0904(2)
F4 F 0.5010(6) 0.60393(14) -0.0057(2)
F5 F 0.2691(6) 0.66380(14) -0.03588(16)
F6 F 0.4021(5) 0.76370(14) -0.06914(16)
F7 F 0.6116(6) 0.83201(17) -0.09475(19)
F8 F 0.6392(7) 0.91287(17) -0.0285(2)
F9 F 0.4549(6) 0.92219(15) 0.0648(2)
F10 F 0.2481(5) 0.85502(13) 0.09252(17)
F11 F 0.1092(6) 0.81326(15) -0.08782(17)
F12 F -0.1054(6) 0.78719(19) -0.16594(17)
F13 F -0.2795(7) 0.7048(2) -0.1540(2)
F14 F -0.2309(7) 0.6493(2) -0.0577(2)
F15 F -0.0150(6) 0.67556(16) 0.02307(17)
F16 F -0.0416(6) 0.83831(15) 0.02495(18)
F17 F -0.2565(5) 0.85981(17) 0.1033(2)
F18 F -0.2728(6) 0.80755(18) 0.2025(2)
F19 F -0.0694(5) 0.73066(16) 0.21889(17)
F20 F 0.1345(5) 0.70615(14) 0.14054(16)
C30 C 0.3200(8) 0.7171(2) 0.0425(3)
C31 C 0.4267(9) 0.7233(2) 0.0905(3)
C32 C 0.5500(9) 0.6922(2) 0.1069(3)
C33 C 0.5732(10) 0.6522(3) 0.0754(4)
C34 C 0.4813(10) 0.6440(2) 0.0279(4)
C35 C 0.3553(9) 0.6757(2) 0.0123(3)
C36 C 0.3043(8) 0.8058(2) 0.0119(3)
C37 C 0.4073(9) 0.8028(2) -0.0341(3)
C38 C 0.5182(9) 0.8376(3) -0.0484(3)
C39 C 0.5343(9) 0.8784(3) -0.0159(3)
C40 C 0.4395(9) 0.8833(2) 0.0312(3)
C41 C 0.3310(9) 0.8473(2) 0.0442(3)
C42 C 0.0651(9) 0.7450(2) -0.0285(3)
C43 C -0.0330(9) 0.7043(3) -0.0245(3)
C44 C -0.1459(9) 0.6896(3) -0.0651(3)
C45 C -0.1701(11) 0.7175(4) -0.1129(4)
C46 C -0.0835(9) 0.7589(3) -0.1191(3)
C47 C 0.0303(9) 0.7709(3) -0.0775(3)
C48 C 0.0621(8) 0.7715(2) 0.0777(3)
C49 C -0.0416(9) 0.8097(3) 0.0734(3)
C50 C -0.1556(10) 0.8218(3) 0.1126(4)
C51 C -0.1637(9) 0.7955(3) 0.1626(3)
C52 C -0.0670(9) 0.7574(3) 0.1702(3)
C53 C 0.0459(8) 0.7457(2) 0.1292(3)
loop_
_geom_bond_atom_site_label_1
_geom_bond_atom_site_label_2
_geom_bond_site_symmetry_1
_geom_bond_site_symmetry_2
B1 B2 1_555 1_555
B2 O1 1_555 1_555
N1 B1 1_555 1_555
N2 C19 1_555 1_555
N3 C1 1_555 1_555
N4 C1 1_555 1_555
O1 C27 1_555 1_555
O2 B2 1_555 1_555
C1 B1 1_555 1_555
C2 N3 1_555 1_555
H1 C2 1_555 1_555
H2 C2 1_555 1_555
H3 C2 1_555 1_555
C3 H4 1_555 1_555
H5 C3 1_555 1_555
H6 C3 1_555 1_555
C4 N3 1_555 1_555
C5 N4 1_555 1_555
C6 C5 1_555 1_555
H7 C6 1_555 1_555
H8 C6 1_555 1_555
H9 C6 1_555 1_555
C7 N4 1_555 1_555
H10 C7 1_555 1_555
H11 C7 1_555 1_555
H12 C7 1_555 1_555
C8 B1 1_555 1_555
C9 C8 1_555 1_555
C10 C9 1_555 1_555
H13 C10 1_555 1_555
C11 C10 1_555 1_555
C12 C11 1_555 1_555
H14 C12 1_555 1_555
C13 C8 1_555 1_555
C14 C9 1_555 1_555
H15 C14 1_555 1_555
H16 C14 1_555 1_555
H17 C14 1_555 1_555
C15 C11 1_555 1_555
H18 C15 1_555 1_555
H19 C15 1_555 1_555
H20 C15 1_555 1_555
C16 C13 1_555 1_555
H21 C16 1_555 1_555
H22 C16 1_555 1_555
H23 C16 1_555 1_555
C17 N1 1_555 1_555
H24 C17 1_555 1_555
C18 C17 1_555 1_555
H25 C18 1_555 1_555
C19 C18 1_555 1_555
C20 C19 1_555 1_555
H26 C20 1_555 1_555
C21 N1 1_555 1_555
H27 C21 1_555 1_555
C22 N2 1_555 1_555
H28 C22 1_555 1_555
H29 C22 1_555 1_555
H30 C22 1_555 1_555
C23 N2 1_555 1_555
H31 C23 1_555 1_555
H32 C23 1_555 1_555
H33 C23 1_555 1_555
C24 O2 1_555 1_555
C25 C24 1_555 1_555
H34 C25 1_555 1_555
H35 C25 1_555 1_555
H36 C25 1_555 1_555
C26 C24 1_555 1_555
H37 C26 1_555 1_555
H38 C26 1_555 1_555
H39 C26 1_555 1_555
C27 C24 1_555 1_555
C28 C27 1_555 1_555
H40 C28 1_555 1_555
H41 C28 1_555 1_555
H42 C28 1_555 1_555
C29 C27 1_555 1_555
H43 C29 1_555 1_555
H44 C29 1_555 1_555
H45 C29 1_555 1_555
B3 C30 1_555 1_555
F1 C31 1_555 1_555
F2 C32 1_555 1_555
F3 C33 1_555 1_555
F4 C34 1_555 1_555
F5 C35 1_555 1_555
F6 C37 1_555 1_555
F7 C38 1_555 1_555
F8 C39 1_555 1_555
F9 C40 1_555 1_555
F10 C41 1_555 1_555
F11 C47 1_555 1_555
F12 C46 1_555 1_555
F13 C45 1_555 1_555
F14 C44 1_555 1_555
F15 C43 1_555 1_555
F16 C49 1_555 1_555
F17 C50 1_555 1_555
F18 C51 1_555 1_555
F19 C52 1_555 1_555
F20 C53 1_555 1_555
C30 C31 1_555 1_555
C31 C32 1_555 1_555
C32 C33 1_555 1_555
C33 C34 1_555 1_555
C34 C35 1_555 1_555
C35 C30 1_555 1_555
C36 B3 1_555 1_555
C37 C36 1_555 1_555
C38 C37 1_555 1_555
C39 C38 1_555 1_555
C40 C39 1_555 1_555
C41 C36 1_555 1_555
C42 B3 1_555 1_555
C43 C42 1_555 1_555
C44 C43 1_555 1_555
C45 C44 1_555 1_555
C46 C45 1_555 1_555
C47 C42 1_555 1_555
C48 B3 1_555 1_555
C49 C48 1_555 1_555
C50 C49 1_555 1_555
C51 C50 1_555 1_555
C52 C51 1_555 1_555
C53 C48 1_555 1_555
C3 C4 1_555 1_555
C4 C5 1_555 1_555
C12 C13 1_555 1_555
C20 C21 1_555 1_555
C40 C41 1_555 1_555
C46 C47 1_555 1_555
C52 C53 1_555 1_555

#END
