
#######################################################################
#
#                 Cambridge Crystallographic Data Centre
#                                CCDC 
#
#######################################################################
#
# If this CIF has been generated from an entry in the Cambridge 
# Structural Database, then it will include bibliographic, chemical, 
# crystal, experimental, refinement or atomic coordinate data resulting 
# from the CCDC's data processing and validation procedures.
#
#######################################################################

data_TEQYUL
_chemical_formula_moiety         'C21 H17 N3 O3'
_chemical_name_systematic        
1,5-Dimethyl-4-(((4-oxo-4H-chromen-3-yl)methylene)amino)-2-phenyl-1,2-dihydro-3H-pyrazol-3-one
_symmetry_cell_setting           rhombohedral
_symmetry_space_group_name_H-M   'R -3'
_symmetry_Int_Tables_number      148
_space_group_name_Hall           '-R 3'
loop_
_symmetry_equiv_pos_site_id
_symmetry_equiv_pos_as_xyz
1 x,y,z
2 -y,x-y,z
3 -x+y,-x,z
4 2/3+x,1/3+y,1/3+z
5 2/3-y,1/3+x-y,1/3+z
6 2/3-x+y,1/3-x,1/3+z
7 1/3+x,2/3+y,2/3+z
8 1/3-y,2/3+x-y,2/3+z
9 1/3-x+y,2/3-x,2/3+z
10 -x,-y,-z
11 y,-x+y,-z
12 x-y,x,-z
13 1/3-x,2/3-y,2/3-z
14 1/3+y,2/3-x+y,2/3-z
15 1/3+x-y,2/3+x,2/3-z
16 2/3-x,1/3-y,1/3-z
17 2/3+y,1/3-x+y,1/3-z
18 2/3+x-y,1/3+x,1/3-z
_cell_length_a                   34.465(13)
_cell_length_b                   34.465(13)
_cell_length_c                   7.825(3)
_cell_angle_alpha                90
_cell_angle_beta                 90
_cell_angle_gamma                120
_cell_volume                     8049.55
_exptl_crystal_colour            yellow
_exptl_crystal_description       block
_cell_formula_units_Z            18
loop_
_atom_site_label
_atom_site_type_symbol
_atom_site_fract_x
_atom_site_fract_y
_atom_site_fract_z
C1 C 0.87036(7) 0.27122(6) 0.2416(2)
C2 C 0.90525(9) 0.31274(7) 0.1874(3)
H1 H 0.9347 0.3192 0.1995
C3 C 0.89670(11) 0.34418(8) 0.1166(3)
H2 H 0.9202 0.3716 0.0806
C4 C 0.85310(12) 0.33474(8) 0.0993(3)
H3 H 0.8475 0.3564 0.0543
C5 C 0.81760(9) 0.29387(8) 0.1470(3)
H4 H 0.7882 0.2875 0.1326
C6 C 0.82710(7) 0.26223(6) 0.2178(2)
C7 C 0.79864(6) 0.19017(6) 0.3344(2)
H5 H 0.7739 0.1628 0.3630
C8 C 0.83927(6) 0.19554(5) 0.3667(2)
C9 C 0.87894(6) 0.23759(6) 0.3220(3)
C10 C 0.84467(6) 0.15981(6) 0.4465(2)
H6 H 0.8733 0.1655 0.4733
C11 C 0.81802(5) 0.08832(5) 0.5551(2)
C12 C 0.78349(5) 0.04632(6) 0.5959(2)
C13 C 0.85954(6) 0.09009(5) 0.5971(2)
C14 C 0.73423(6) 0.02923(7) 0.5844(3)
H7 H 0.7193 -0.0011 0.5437
H8 H 0.7289 0.0476 0.5068
H9 H 0.7229 0.0302 0.6954
C15 C 0.77639(7) -0.02110(6) 0.7509(3)
H10 H 0.7469 -0.0268 0.7792
H11 H 0.7926 -0.0187 0.8539
H12 H 0.7742 -0.0453 0.6827
C16 C 0.87557(5) 0.03005(5) 0.6948(2)
C17 C 0.86762(7) -0.01025(6) 0.6239(2)
H13 H 0.8422 -0.0273 0.5578
C18 C 0.89790(8) -0.02479(7) 0.6525(3)
H14 H 0.8925 -0.0520 0.6072
C19 C 0.93549(8) 0.00039(8) 0.7464(4)
H15 H 0.9558 -0.0095 0.7632
C20 C 0.94370(7) 0.04047(7) 0.8168(3)
H16 H 0.9696 0.0575 0.8803
C21 C 0.91340(6) 0.05544(6) 0.7935(2)
H17 H 0.9184 0.0821 0.8432
N1 N 0.81129(5) 0.12131(5) 0.48012(18)
N2 N 0.84654(4) 0.04767(4) 0.6658(2)
N3 N 0.79993(4) 0.02053(4) 0.65518(19)
O1 O 0.79069(5) 0.22151(5) 0.26339(19)
O2 O 0.91710(5) 0.24509(5) 0.3499(3)
O3 O 0.89927(4) 0.11987(4) 0.57981(19)
loop_
_geom_bond_atom_site_label_1
_geom_bond_atom_site_label_2
_geom_bond_site_symmetry_1
_geom_bond_site_symmetry_2
C1 C2 1_555 1_555
C2 H1 1_555 1_555
C3 C2 1_555 1_555
H2 C3 1_555 1_555
C4 C3 1_555 1_555
H3 C4 1_555 1_555
C5 C4 1_555 1_555
H4 C5 1_555 1_555
C6 C1 1_555 1_555
C7 H5 1_555 1_555
C8 C7 1_555 1_555
C9 C1 1_555 1_555
C10 C8 1_555 1_555
H6 C10 1_555 1_555
C11 C12 1_555 1_555
C12 C14 1_555 1_555
C13 C11 1_555 1_555
C14 H7 1_555 1_555
H8 C14 1_555 1_555
H9 C14 1_555 1_555
C15 H10 1_555 1_555
H11 C15 1_555 1_555
H12 C15 1_555 1_555
C16 C17 1_555 1_555
C17 H13 1_555 1_555
C18 C17 1_555 1_555
H14 C18 1_555 1_555
C19 C18 1_555 1_555
H15 C19 1_555 1_555
C20 C19 1_555 1_555
H16 C20 1_555 1_555
C21 C16 1_555 1_555
H17 C21 1_555 1_555
N1 C10 1_555 1_555
N2 C13 1_555 1_555
N3 C12 1_555 1_555
O1 C6 1_555 1_555
O2 C9 1_555 1_555
O3 C13 1_555 1_555
C5 C6 1_555 1_555
C7 O1 1_555 1_555
C8 C9 1_555 1_555
C11 N1 1_555 1_555
C15 N3 1_555 1_555
C16 N2 1_555 1_555
C20 C21 1_555 1_555
N2 N3 1_555 1_555

#END
