
#######################################################################
#
#                 Cambridge Crystallographic Data Centre
#                                CCDC 
#
#######################################################################
#
# If this CIF has been generated from an entry in the Cambridge 
# Structural Database, then it will include bibliographic, chemical, 
# crystal, experimental, refinement or atomic coordinate data resulting 
# from the CCDC's data processing and validation procedures.
#
#######################################################################

data_TEQZAS
_chemical_formula_moiety         'C26 H29 N1 O1'
_chemical_name_systematic        
(7-(Benzyloxy)-2-methyl-2-vinyl-1,2,3,4,4a,9,10,10a-octahydrophenanthren-1-yl)acetonitrile
_chemical_properties_biological  'tested for anticancer activity'
_symmetry_cell_setting           orthorhombic
_symmetry_space_group_name_H-M   'P 21 21 21'
_symmetry_Int_Tables_number      19
_space_group_name_Hall           'P 2ac 2ab'
loop_
_symmetry_equiv_pos_site_id
_symmetry_equiv_pos_as_xyz
1 x,y,z
2 1/2-x,-y,1/2+z
3 1/2+x,1/2-y,-z
4 -x,1/2+y,1/2-z
_cell_length_a                   10.984(5)
_cell_length_b                   11.098(5)
_cell_length_c                   17.391(5)
_cell_angle_alpha                90
_cell_angle_beta                 90
_cell_angle_gamma                90
_cell_volume                     2119.97
_exptl_crystal_colour            colorless
_exptl_crystal_description       prism
_cell_formula_units_Z            4
loop_
_atom_site_label
_atom_site_type_symbol
_atom_site_fract_x
_atom_site_fract_y
_atom_site_fract_z
O1 O 0.46635(15) 0.84274(14) 0.65498(8)
C1 C 0.3902(2) 0.91891(18) 1.02197(12)
H1 H 0.4703 0.8810 1.0276
C2 C 0.3605(2) 0.8430(2) 0.88529(13)
C3 C 0.4763(2) 0.93371(19) 0.78273(13)
H2 H 0.5295 0.9934 0.7660
C4 C 0.3142(3) 0.8393(2) 0.96743(14)
C5 C 0.3205(2) 0.7579(2) 0.83239(15)
H3 H 0.2669 0.6981 0.8485
C6 C 0.4384(2) 0.93225(18) 0.85947(12)
C7 C 0.4854(2) 1.02896(19) 0.91281(12)
H4 H 0.4860 1.1054 0.8857
H5 H 0.5686 1.0101 0.9270
C8 C 0.3580(2) 0.7596(2) 0.75697(15)
H6 H 0.3307 0.7008 0.7230
C9 C 0.4358(2) 0.8480(2) 0.73183(13)
C10 C 0.3313(3) 0.9234(2) 1.10176(14)
C11 C 0.4095(2) 1.04177(18) 0.98540(12)
H7 H 0.3314 1.0774 0.9729
H8 H 0.4508 1.0946 1.0214
C12 C 0.5689(3) 0.90288(19) 0.54252(14)
C13 C 0.5504(2) 0.9298(2) 0.62586(12)
H9 H 0.6271 0.9245 0.6533
H10 H 0.5180 1.0105 0.6323
C14 C 0.6785(3) 0.8665(2) 0.51428(16)
H11 H 0.7437 0.8572 0.5479
C15 C 0.3121(3) 0.7982(2) 1.13889(14)
C16 C 0.3002(3) 0.7146(2) 1.00107(14)
H12 H 0.3794 0.6764 1.0043
H13 H 0.2495 0.6663 0.9673
C17 C 0.3924(3) 1.0139(2) 1.15705(13)
H14 H 0.3710 1.0949 1.1411
H15 H 0.3596 1.0017 1.2082
C18 C 0.2299(4) 0.8129(3) 1.2087(2)
C19 C 0.5238(3) 1.0048(2) 1.16082(15)
C20 C 0.6952(3) 0.8433(2) 0.43707(18)
H16 H 0.7701 0.8163 0.4191
C21 C 0.6008(4) 0.8603(3) 0.38753(16)
H17 H 0.6118 0.8475 0.3351
N1 N 0.6260(3) 0.9988(2) 1.16398(16)
C22 C 0.2432(3) 0.7188(2) 1.08043(14)
H18 H 0.2387 0.6373 1.1005
H19 H 0.1605 0.7487 1.0757
C23 C 0.2490(4) 0.7837(3) 1.2784(3)
C24 C 0.4320(3) 0.7373(2) 1.16038(13)
H20 H 0.4159 0.6583 1.1804
H21 H 0.4731 0.7845 1.1987
H22 H 0.4826 0.7307 1.1155
C25 C 0.4759(3) 0.9164(3) 0.49200(17)
H23 H 0.3999 0.9401 0.5101
C26 C 0.4912(4) 0.8958(3) 0.41434(18)
H24 H 0.4264 0.9063 0.3806
H25 H 0.2519(17) 0.9549(15) 1.0954(10)
H26 H 0.2359(18) 0.8735(16) 0.9677(11)
H27 H 0.154(3) 0.855(3) 1.1967(18)
H28 H 0.178(3) 0.799(2) 1.3199(17)
H29 H 0.328(3) 0.757(3) 1.2889(17)
loop_
_geom_bond_atom_site_label_1
_geom_bond_atom_site_label_2
_geom_bond_site_symmetry_1
_geom_bond_site_symmetry_2
O1 C9 1_555 1_555
C1 H1 1_555 1_555
C2 C4 1_555 1_555
C3 H2 1_555 1_555
C4 C1 1_555 1_555
C5 C2 1_555 1_555
H3 C5 1_555 1_555
C6 C2 1_555 1_555
C7 C6 1_555 1_555
H4 C7 1_555 1_555
H5 C7 1_555 1_555
C8 C5 1_555 1_555
H6 C8 1_555 1_555
C9 C3 1_555 1_555
C10 C1 1_555 1_555
C11 C1 1_555 1_555
H7 C11 1_555 1_555
H8 C11 1_555 1_555
C12 C13 1_555 1_555
C13 O1 1_555 1_555
H9 C13 1_555 1_555
H10 C13 1_555 1_555
C14 C12 1_555 1_555
H11 C14 1_555 1_555
C15 C10 1_555 1_555
C16 C4 1_555 1_555
H12 C16 1_555 1_555
H13 C16 1_555 1_555
C17 C10 1_555 1_555
H14 C17 1_555 1_555
H15 C17 1_555 1_555
C18 C15 1_555 1_555
C19 C17 1_555 1_555
C20 C14 1_555 1_555
H16 C20 1_555 1_555
C21 C20 1_555 1_555
H17 C21 1_555 1_555
N1 C19 1_555 1_555
C22 C15 1_555 1_555
H18 C22 1_555 1_555
H19 C22 1_555 1_555
C23 C18 1_555 1_555
C24 C15 1_555 1_555
H20 C24 1_555 1_555
H21 C24 1_555 1_555
H22 C24 1_555 1_555
C25 C12 1_555 1_555
H23 C25 1_555 1_555
C26 C21 1_555 1_555
H24 C26 1_555 1_555
H25 C10 1_555 1_555
H26 C4 1_555 1_555
H27 C18 1_555 1_555
H28 C23 1_555 1_555
H29 C23 1_555 1_555
C3 C6 1_555 1_555
C7 C11 1_555 1_555
C8 C9 1_555 1_555
C16 C22 1_555 1_555
C25 C26 1_555 1_555

#END
