
#######################################################################
#
#                 Cambridge Crystallographic Data Centre
#                                CCDC 
#
#######################################################################
#
# If this CIF has been generated from an entry in the Cambridge 
# Structural Database, then it will include bibliographic, chemical, 
# crystal, experimental, refinement or atomic coordinate data resulting 
# from the CCDC's data processing and validation procedures.
#
#######################################################################

data_TEQZIA
_chemical_formula_moiety         'C26 H30 N4 O1'
_chemical_name_systematic        
2-(Benzyloxy)-6a,7-dimethyl-4b,5,6,6a,7,12,12a,12b,13,14-decahydronaphtho[2,1-f]tetrazolo[1,5-b]isoquinoline
_chemical_properties_biological  'tested for anticancer activity'
_symmetry_cell_setting           monoclinic
_symmetry_space_group_name_H-M   'P 21'
_symmetry_Int_Tables_number      4
_space_group_name_Hall           'P 2yb'
loop_
_symmetry_equiv_pos_site_id
_symmetry_equiv_pos_as_xyz
1 x,y,z
2 -x,1/2+y,-z
_cell_length_a                   9.039(5)
_cell_length_b                   12.320(5)
_cell_length_c                   9.996(5)
_cell_angle_alpha                90
_cell_angle_beta                 93.034(5)
_cell_angle_gamma                90
_cell_volume                     1111.6
_exptl_crystal_colour            colorless
_exptl_crystal_description       plate
_cell_formula_units_Z            2
loop_
_atom_site_label
_atom_site_type_symbol
_atom_site_fract_x
_atom_site_fract_y
_atom_site_fract_z
O1 O 0.6070(2) 0.46592(16) 0.3132(2)
C1 C 0.8574(3) -0.0887(2) 0.6379(3)
C2 C 0.6267(3) 0.5745(2) 0.3608(3)
C3 C 0.8970(3) -0.0677(2) 0.7892(3)
C4 C 0.8287(3) 0.3119(2) 0.5674(3)
C5 C 0.7581(3) 0.4001(3) 0.5065(3)
C6 C 0.7368(3) 0.1938(2) 0.3929(3)
N1 N 0.8987(3) -0.2657(2) 0.8077(3)
C7 C 1.0014(4) 0.0292(3) 0.7983(3)
C8 C 0.8222(3) 0.2084(2) 0.5130(3)
C9 C 0.6670(4) 0.2822(2) 0.3317(3)
C10 C 0.5698(3) 0.6513(2) 0.2528(3)
C11 C 0.6780(3) 0.3848(2) 0.3861(3)
C12 C 0.9384(4) 0.1305(3) 0.7300(3)
C13 C 0.8953(3) 0.1109(2) 0.5823(3)
N2 N 0.7480(4) -0.3774(2) 0.7042(3)
C14 C 0.7965(3) 0.0115(2) 0.5619(3)
C15 C 0.7962(4) -0.2758(2) 0.7081(3)
C16 C 0.9832(4) -0.1672(3) 0.8460(3)
C17 C 0.4965(3) 0.7450(3) 0.2868(3)
C18 C 0.5928(4) 0.6318(3) 0.1188(3)
C19 C 0.4481(4) 0.8193(3) 0.1890(4)
C20 C 0.7168(5) 0.0830(3) 0.3312(3)
H1 H 0.6117 0.0713 0.3123
H2 H 0.7636 0.0830 0.2461
N3 N 0.9179(4) -0.3635(2) 0.8679(3)
C21 C 0.7756(5) -0.0098(3) 0.4107(3)
H3 H 0.8704 -0.0305 0.3773
H4 H 0.7088 -0.0708 0.3966
C22 C 0.7585(4) -0.0465(3) 0.8667(3)
H5 H 0.7871 -0.0183 0.9538
H6 H 0.7051 -0.1132 0.8761
H7 H 0.6964 0.0052 0.8189
C23 C 0.7505(5) -0.1848(3) 0.6192(4)
N4 N 0.8259(5) -0.4291(3) 0.8059(3)
C24 C 0.4717(4) 0.7988(3) 0.0573(4)
C25 C 1.0191(7) -0.1670(4) 0.9951(5)
C26 C 0.5433(5) 0.7053(3) 0.0221(4)
H8 H 0.956(3) -0.114(2) 0.599(2)
H9 H 0.692(3) 0.033(2) 0.602(3)
H10 H 0.883(3) 0.326(2) 0.652(3)
H11 H 0.766(4) 0.469(3) 0.548(4)
H12 H 1.030(3) 0.042(3) 0.890(3)
H13 H 0.845(3) 0.157(3) 0.774(3)
H14 H 0.566(4) 0.686(3) -0.066(4)
H15 H 1.075(5) -0.108(3) 1.020(4)
H16 H 0.740(3) 0.594(2) 0.384(3)
H17 H 0.578(3) 0.581(3) 0.443(3)
H18 H 0.608(3) 0.271(2) 0.250(3)
H19 H 0.406(4) 0.886(3) 0.223(4)
H20 H 0.649(6) -0.165(4) 0.636(5)
H21 H 1.089(5) -0.228(4) 1.012(4)
H22 H 1.075(3) -0.170(3) 0.806(3)
H23 H 0.438(4) 0.849(3) -0.012(4)
H24 H 1.014(4) 0.192(3) 0.740(4)
H25 H 0.639(3) 0.567(3) 0.098(3)
H26 H 0.750(4) -0.210(3) 0.530(4)
H27 H 0.992(3) 0.090(3) 0.536(3)
H28 H 0.491(4) 0.759(3) 0.378(3)
H29 H 1.094(4) 0.008(3) 0.755(3)
H30 H 0.937(5) -0.181(4) 1.045(4)
loop_
_geom_bond_atom_site_label_1
_geom_bond_atom_site_label_2
_geom_bond_site_symmetry_1
_geom_bond_site_symmetry_2
O1 C2 1_555 1_555
C1 C3 1_555 1_555
C2 C10 1_555 1_555
C3 C7 1_555 1_555
C4 C5 1_555 1_555
C5 C11 1_555 1_555
C6 C8 1_555 1_555
N1 C15 1_555 1_555
C7 C12 1_555 1_555
C8 C4 1_555 1_555
C9 C6 1_555 1_555
C10 C17 1_555 1_555
C11 O1 1_555 1_555
C12 C13 1_555 1_555
C13 C8 1_555 1_555
N2 C15 1_555 1_555
C14 C1 1_555 1_555
C15 C23 1_555 1_555
C16 C3 1_555 1_555
C17 C19 1_555 1_555
C18 C10 1_555 1_555
C19 C24 1_555 1_555
C20 C6 1_555 1_555
H1 C20 1_555 1_555
H2 C20 1_555 1_555
N3 N1 1_555 1_555
C21 C14 1_555 1_555
H3 C21 1_555 1_555
H4 C21 1_555 1_555
C22 C3 1_555 1_555
H5 C22 1_555 1_555
H6 C22 1_555 1_555
H7 C22 1_555 1_555
C23 C1 1_555 1_555
N4 N2 1_555 1_555
C24 C26 1_555 1_555
C25 C16 1_555 1_555
C26 C18 1_555 1_555
H8 C1 1_555 1_555
H9 C14 1_555 1_555
H10 C4 1_555 1_555
H11 C5 1_555 1_555
H12 C7 1_555 1_555
H13 C12 1_555 1_555
H14 C26 1_555 1_555
H15 C25 1_555 1_555
H16 C2 1_555 1_555
H17 C2 1_555 1_555
H18 C9 1_555 1_555
H19 C19 1_555 1_555
H20 C23 1_555 1_555
H21 C25 1_555 1_555
H22 C16 1_555 1_555
H23 C24 1_555 1_555
H24 C12 1_555 1_555
H25 C18 1_555 1_555
H26 C23 1_555 1_555
H27 C13 1_555 1_555
H28 C17 1_555 1_555
H29 C7 1_555 1_555
H30 C25 1_555 1_555
N1 C16 1_555 1_555
C9 C11 1_555 1_555
C13 C14 1_555 1_555
C20 C21 1_555 1_555
N3 N4 1_555 1_555

#END
