
#######################################################################
#
#                 Cambridge Crystallographic Data Centre
#                                CCDC 
#
#######################################################################
#
# If this CIF has been generated from an entry in the Cambridge 
# Structural Database, then it will include bibliographic, chemical, 
# crystal, experimental, refinement or atomic coordinate data resulting 
# from the CCDC's data processing and validation procedures.
#
#######################################################################

data_TERCIC
_chemical_formula_moiety         'C36 H44 O9'
_chemical_name_systematic        
1D-1-O-Allyl-3,6-di-O-benzyl-2-O((-)-camphanoyl)-4,5-O-isopropylidene-scyllo-inositol
_symmetry_cell_setting           triclinic
_symmetry_space_group_name_H-M   'P 1'
_symmetry_Int_Tables_number      1
_space_group_name_Hall           'P 1'
loop_
_symmetry_equiv_pos_site_id
_symmetry_equiv_pos_as_xyz
1 x,y,z
_cell_length_a                   6.340(2)
_cell_length_b                   11.422(3)
_cell_length_c                   12.438(3)
_cell_angle_alpha                100.37(2)
_cell_angle_beta                 94.40(3)
_cell_angle_gamma                103.27(2)
_cell_volume                     855.756
_chemical_melting_point          157-160deg.C
_cell_formula_units_Z            1
loop_
_atom_site_label
_atom_site_type_symbol
_atom_site_fract_x
_atom_site_fract_y
_atom_site_fract_z
O1 O -0.0696 0.9800 1.0536
O2 O -0.4166(7) 0.9974(4) 1.0344(3)
O3 O 0.0341(7) 0.8912(4) 1.4049(3)
O4 O -0.0947(6) 0.9075(3) 1.2378(3)
O5 O -0.1236(7) 0.7893(3) 0.8710(3)
O6 O 0.2193(7) 0.8179(4) 0.7340(3)
O7 O 0.3624(7) 1.0857(4) 0.7030(3)
O8 O 0.3206(7) 1.2485(4) 0.8318(3)
O9 O -0.0102(7) 1.2122(4) 1.0001(3)
C1 C -0.0355(8) 1.0022(4) 0.9444(4)
C2 C 0.0498(8) 0.8958(4) 0.8865(4)
C3 C 0.1239(9) 0.9155(4) 0.7743(4)
C4 C 0.2805(8) 1.0420(4) 0.7967(3)
C5 C 0.1673(9) 1.1385(4) 0.8410(4)
C6 C 0.1130(8) 1.1299(4) 0.9560(4)
C7 C -0.2668(8) 0.9763(4) 1.0854(4)
C8 C -0.2882(7) 0.9435(4) 1.1967(3)
C9 C -0.1013(8) 0.9178(5) 1.3484(4)
C10 C -0.3002(8) 0.9620(5) 1.3774(4)
C11 C -0.4892(8) 0.8479(5) 1.3264(4)
C12 C -0.4829(9) 0.8379(5) 1.2008(4)
C13 C -0.3027(8) 1.0474(4) 1.2933(4)
C14 C -0.2983(10) 1.0120(6) 1.4981(4)
C15 C -0.5133(9) 1.0919(5) 1.2823(5)
C16 C -0.1060(9) 1.1577(5) 1.3135(4)
C17 C -0.0855(11) 0.6951(5) 0.9227(5)
C18 C -0.2950(13) 0.6062(6) 0.9298(5)
C19 C -0.4860(14) 0.6172(7) 0.9018(7)
C20 C 0.2154(12) 0.7966(6) 0.6165(4)
C21 C 0.3210(10) 0.6947(5) 0.5791(4)
C22 C 0.2200(11) 0.6060(5) 0.4883(4)
C23 C 0.3223(18) 0.5140(6) 0.4475(6)
C24 C 0.5175(20) 0.5118(8) 0.4965(8)
C25 C 0.6172(14) 0.6003(9) 0.5868(7)
C26 C 0.5198(10) 0.6883(6) 0.6267(5)
C27 C 0.4136(9) 1.2169(4) 0.7316(4)
C28 C 0.3092(13) 1.2604(6) 0.6406(5)
C29 C 0.6561(10) 1.2697(6) 0.7558(6)
C30 C 0.0990(10) 1.3374(5) 1.0229(5)
C31 C -0.0201(9) 1.4099(5) 1.0979(4)
C32 C 0.0855(10) 1.5310(5) 1.1437(4)
C33 C -0.0163(11) 1.6039(5) 1.2116(5)
C34 C -0.2193(11) 1.5564(5) 1.2359(5)
C35 C -0.2234(9) 1.3631(5) 1.1217(4)
C36 C -0.3251(10) 1.4360(5) 1.1932(4)
H1 H -0.1651(8) 1.0032(4) 0.8996(4)
H2 H 0.1758(8) 0.8890(4) 0.9306(4)
H3 H 0.0088(9) 0.9138(4) 0.7187(4)
H4 H 0.3968(8) 1.0309(4) 0.8449(3)
H5 H 0.0264(9) 1.1320(4) 0.8027(4)
H6 H 0.2479(8) 1.1484(4) 1.0037(4)
H7 H -0.6267(8) 0.8603(5) 1.3469(4)
H8 H -0.4642(8) 0.7757(5) 1.3489(4)
H9 H -0.6152(9) 0.8488(5) 1.1657(4)
H10 H -0.4595(9) 0.7602(5) 1.1669(4)
H11 H -0.4299(10) 1.0380(6) 1.5094(4)
H12 H -0.1743(10) 1.0808(6) 1.5228(4)
H13 H -0.2893(10) 0.9492(6) 1.5389(4)
H14 H -0.6376(9) 1.0226(5) 1.2695(5)
H15 H -0.5135(9) 1.1332(5) 1.2216(5)
H16 H -0.5202(9) 1.1475(5) 1.3489(5)
H17 H 0.0257(9) 1.1303(5) 1.3204(4)
H18 H -0.1133(9) 1.2133(5) 1.3802(4)
H19 H -0.1066(9) 1.1990(5) 1.2528(4)
H20 H 0.0049(11) 0.6520(5) 0.8810(5)
H21 H -0.0122(11) 0.7306(5) 0.9957(5)
H22 H 0.0668(12) 0.7746(6) 0.5825(4)
H23 H 0.2932(12) 0.8701(6) 0.5958(4)
H24 H 0.0805(11) 0.6072(5) 0.4533(4)
H25 H 0.2527(18) 0.4520(6) 0.3840(6)
H26 H 0.5869(20) 0.4483(8) 0.4681(8)
H27 H 0.7570(14) 0.5992(9) 0.6216(7)
H28 H 0.5912(10) 0.7490(6) 0.6907(5)
H29 H 0.3407(13) 1.3485(6) 0.6575(5)
H30 H 0.1540(13) 1.2269(6) 0.6322(5)
H31 H 0.3654(13) 1.2338(6) 0.5734(5)
H32 H 0.7232(10) 1.2501(6) 0.6905(6)
H33 H 0.7138(10) 1.2353(6) 0.8130(6)
H34 H 0.6863(10) 1.3573(6) 0.7793(6)
H35 H 0.2444(10) 1.3476(5) 1.0576(5)
H36 H 0.1057(10) 1.3666(5) 0.9552(5)
H37 H 0.2304(10) 1.5645(5) 1.1280(4)
H38 H 0.0565(11) 1.6883(5) 1.2417(5)
H39 H -0.2894(11) 1.6074(5) 1.2834(5)
H40 H -0.2984(9) 1.2796(5) 1.0895(4)
H41 H -0.4672(10) 1.4020(5) 1.2120(4)
H42 H -0.6281(51) 0.5662(42) 0.9129(43)
H43 H -0.4903(94) 0.6977(28) 0.8853(43)
loop_
_geom_bond_atom_site_label_1
_geom_bond_atom_site_label_2
_geom_bond_site_symmetry_1
_geom_bond_site_symmetry_2
O1 C1 1_555 1_555
O2 C7 1_555 1_555
O3 C9 1_555 1_555
O4 C8 1_555 1_555
O5 C2 1_555 1_555
O6 C3 1_555 1_555
O7 C4 1_555 1_555
O8 C5 1_555 1_555
O9 C6 1_555 1_555
C1 C2 1_555 1_555
C2 C3 1_555 1_555
C3 C4 1_555 1_555
C4 C5 1_555 1_555
C5 C6 1_555 1_555
C6 C1 1_555 1_555
C7 O1 1_555 1_555
C8 C7 1_555 1_555
C9 O4 1_555 1_555
C10 C9 1_555 1_555
C11 C10 1_555 1_555
C12 C8 1_555 1_555
C13 C8 1_555 1_555
C14 C10 1_555 1_555
C15 C13 1_555 1_555
C16 C13 1_555 1_555
C17 O5 1_555 1_555
C18 C17 1_555 1_555
C19 C18 1_555 1_555
C20 O6 1_555 1_555
C21 C20 1_555 1_555
C22 C21 1_555 1_555
C23 C22 1_555 1_555
C24 C23 1_555 1_555
C25 C24 1_555 1_555
C26 C21 1_555 1_555
C27 O7 1_555 1_555
C28 C27 1_555 1_555
C29 C27 1_555 1_555
C30 O9 1_555 1_555
C31 C30 1_555 1_555
C32 C31 1_555 1_555
C33 C32 1_555 1_555
C34 C33 1_555 1_555
C35 C31 1_555 1_555
C36 C34 1_555 1_555
H1 C1 1_555 1_555
H2 C2 1_555 1_555
H3 C3 1_555 1_555
H4 C4 1_555 1_555
H5 C5 1_555 1_555
H6 C6 1_555 1_555
H7 C11 1_555 1_555
H8 C11 1_555 1_555
H9 C12 1_555 1_555
H10 C12 1_555 1_555
H11 C14 1_555 1_555
H12 C14 1_555 1_555
H13 C14 1_555 1_555
H14 C15 1_555 1_555
H15 C15 1_555 1_555
H16 C15 1_555 1_555
H17 C16 1_555 1_555
H18 C16 1_555 1_555
H19 C16 1_555 1_555
H20 C17 1_555 1_555
H21 C17 1_555 1_555
H22 C20 1_555 1_555
H23 C20 1_555 1_555
H24 C22 1_555 1_555
H25 C23 1_555 1_555
H26 C24 1_555 1_555
H27 C25 1_555 1_555
H28 C26 1_555 1_555
H29 C28 1_555 1_555
H30 C28 1_555 1_555
H31 C28 1_555 1_555
H32 C29 1_555 1_555
H33 C29 1_555 1_555
H34 C29 1_555 1_555
H35 C30 1_555 1_555
H36 C30 1_555 1_555
H37 C32 1_555 1_555
H38 C33 1_555 1_555
H39 C34 1_555 1_555
H40 C35 1_555 1_555
H41 C36 1_555 1_555
H42 C19 1_555 1_555
H43 C19 1_555 1_555
O8 C27 1_555 1_555
C10 C13 1_555 1_555
C11 C12 1_555 1_555
C25 C26 1_555 1_555
C35 C36 1_555 1_555

#END
