
#######################################################################
#
#                 Cambridge Crystallographic Data Centre
#                                CCDC 
#
#######################################################################
#
# If this CIF has been generated from an entry in the Cambridge 
# Structural Database, then it will include bibliographic, chemical, 
# crystal, experimental, refinement or atomic coordinate data resulting 
# from the CCDC's data processing and validation procedures.
#
#######################################################################

data_TERDOK
_chemical_formula_moiety         'C11 H18 O6'
_chemical_name_systematic        
'3,4-Dihydroxy-1,7-dioxaspiro(5.5)undec-5-yl acetate'
_symmetry_cell_setting           monoclinic
_symmetry_space_group_name_H-M   'P 21/c'
_symmetry_Int_Tables_number      14
_space_group_name_Hall           '-P 2ybc'
loop_
_symmetry_equiv_pos_site_id
_symmetry_equiv_pos_as_xyz
1 x,y,z
2 -x,1/2+y,1/2-z
3 -x,-y,-z
4 x,1/2-y,1/2+z
_cell_length_a                   9.8482(10)
_cell_length_b                   14.5630(15)
_cell_length_c                   16.8257(17)
_cell_angle_alpha                90
_cell_angle_beta                 99.159(2)
_cell_angle_gamma                90
_cell_volume                     2382.36
_exptl_crystal_colour            colorless
_exptl_crystal_description       block
_cell_formula_units_Z            8
loop_
_atom_site_label
_atom_site_type_symbol
_atom_site_fract_x
_atom_site_fract_y
_atom_site_fract_z
O1 O 0.55623(12) 1.09445(7) -0.28461(6)
O2 O 0.69563(11) 0.97193(8) -0.23140(6)
O3 O 0.72793(13) 0.81904(8) -0.33195(7)
H1 H 0.718(2) 0.7848(16) -0.3687(15)
O4 O 0.50383(13) 0.87347(8) -0.45057(7)
H2 H 0.549(2) 0.8712(16) -0.4884(15)
O5 O 0.35583(11) 0.98040(7) -0.35608(7)
O6 O 0.24644(15) 0.86268(11) -0.30711(12)
C1 C 0.6194(2) 1.15953(12) -0.22508(11)
H3 H 0.6095(19) 1.2199(13) -0.2528(12)
H4 H 0.7170(19) 1.1465(12) -0.2128(10)
C2 C 0.5522(2) 1.15808(13) -0.15021(11)
H5 H 0.599(2) 1.2005(14) -0.1123(13)
H6 H 0.455(2) 1.1776(14) -0.1655(12)
C3 C 0.5553(2) 1.06117(13) -0.11562(10)
H7 H 0.505(2) 1.0602(14) -0.0698(13)
H8 H 0.653(2) 1.0438(13) -0.0990(11)
C4 C 0.48815(19) 0.99594(12) -0.18146(10)
H9 H 0.4898(19) 0.9295(14) -0.1644(11)
H10 H 0.390(2) 1.0120(12) -0.1995(11)
C5 C 0.55872(16) 1.00282(10) -0.25569(9)
C6 C 0.77810(18) 0.97398(13) -0.29468(10)
H11 H 0.8704(19) 0.9526(12) -0.2701(11)
H12 H 0.7842(17) 1.0377(12) -0.3141(10)
C7 C 0.71981(17) 0.91055(11) -0.36244(10)
H13 H 0.7744(19) 0.9143(12) -0.4068(11)
C8 C 0.57127(16) 0.93817(11) -0.39466(9)
H14 H 0.5734(17) 1.0001(12) -0.4204(11)
C9 C 0.48953(16) 0.94271(11) -0.32537(9)
H15 H 0.4775(16) 0.8809(12) -0.3063(10)
C10 C 0.24254(18) 0.93212(12) -0.34567(11)
C11 C 0.1164(2) 0.97921(17) -0.38622(16)
H16 H 0.038(3) 0.9448(18) -0.3773(16)
H17 H 0.122(3) 0.982(2) -0.440(2)
H18 H 0.111(3) 1.0404(19) -0.3678(15)
O7 O 0.87512(11) 0.91754(7) -0.00273(6)
O8 O 0.74165(11) 0.80088(7) 0.04101(6)
O9 O 0.64543(13) 0.66384(8) -0.07598(7)
H19 H 0.628(2) 0.6327(17) -0.1174(16)
O10 O 0.82199(14) 0.72190(9) -0.18374(7)
H20 H 0.802(3) 0.7509(17) -0.2232(16)
O11 O 1.03624(12) 0.79124(8) -0.06668(7)
O12 O 1.10428(15) 0.64318(10) -0.06518(10)
C12 C 0.84984(19) 0.98454(12) 0.05631(10)
H21 H 0.7528(18) 0.9767(11) 0.0657(10)
H22 H 0.8573(18) 1.0450(13) 0.0290(11)
C13 C 0.9511(2) 0.97629(13) 0.13352(10)
H23 H 0.921(2) 1.0228(13) 0.1711(12)
H24 H 1.042(2) 0.9927(13) 0.1227(12)
C14 C 0.9498(2) 0.87897(13) 0.16614(10)
H25 H 1.021(2) 0.8685(14) 0.2148(13)
H26 H 0.859(2) 0.8658(13) 0.1814(11)
C15 C 0.97585(18) 0.81084(12) 0.10115(10)
H27 H 1.0687(18) 0.8195(12) 0.0891(10)
H28 H 0.9698(18) 0.7475(13) 0.1176(11)
C16 C 0.87535(16) 0.82592(10) 0.02363(9)
C17 C 0.63262(17) 0.81524(11) -0.02528(9)
H29 H 0.6235(16) 0.8803(12) -0.0397(10)
H30 H 0.5482(19) 0.7967(12) -0.0060(11)
C18 C 0.65415(17) 0.75796(11) -0.09732(9)
H31 H 0.5819(18) 0.7719(12) -0.1427(11)
C19 C 0.79431(17) 0.78031(11) -0.12048(9)
H32 H 0.7945(16) 0.8444(12) -0.1367(9)
C20 C 0.90404(16) 0.76585(11) -0.04701(9)
H33 H 0.9081(17) 0.7004(12) -0.0316(10)
C21 C 1.12550(18) 0.72271(13) -0.07565(11)
C22 C 1.2526(2) 0.76118(18) -0.10098(17)
H34 H 1.319(3) 0.7128(18) -0.1008(16)
H35 H 1.287(3) 0.8122(19) -0.0667(16)
H36 H 1.229(3) 0.783(2) -0.1542(19)
loop_
_geom_bond_atom_site_label_1
_geom_bond_atom_site_label_2
_geom_bond_site_symmetry_1
_geom_bond_site_symmetry_2
O1 C1 1_555 1_555
O2 C5 1_555 1_555
O3 H1 1_555 1_555
O4 H2 1_555 1_555
O5 C9 1_555 1_555
O6 C10 1_555 1_555
C1 H3 1_555 1_555
H4 C1 1_555 1_555
C2 C1 1_555 1_555
H5 C2 1_555 1_555
H6 C2 1_555 1_555
C3 C2 1_555 1_555
H7 C3 1_555 1_555
H8 C3 1_555 1_555
C4 C3 1_555 1_555
H9 C4 1_555 1_555
H10 C4 1_555 1_555
C5 O1 1_555 1_555
C6 O2 1_555 1_555
H11 C6 1_555 1_555
H12 C6 1_555 1_555
C7 O3 1_555 1_555
H13 C7 1_555 1_555
C8 O4 1_555 1_555
H14 C8 1_555 1_555
C9 C5 1_555 1_555
H15 C9 1_555 1_555
C10 O5 1_555 1_555
C11 C10 1_555 1_555
H16 C11 1_555 1_555
H17 C11 1_555 1_555
H18 C11 1_555 1_555
O7 C12 1_555 1_555
O8 C16 1_555 1_555
O9 H19 1_555 1_555
O10 H20 1_555 1_555
O11 C20 1_555 1_555
O12 C21 1_555 1_555
C12 H21 1_555 1_555
H22 C12 1_555 1_555
C13 C12 1_555 1_555
H23 C13 1_555 1_555
H24 C13 1_555 1_555
C14 C13 1_555 1_555
H25 C14 1_555 1_555
H26 C14 1_555 1_555
C15 C14 1_555 1_555
H27 C15 1_555 1_555
H28 C15 1_555 1_555
C16 O7 1_555 1_555
C17 O8 1_555 1_555
H29 C17 1_555 1_555
H30 C17 1_555 1_555
C18 O9 1_555 1_555
H31 C18 1_555 1_555
C19 O10 1_555 1_555
H32 C19 1_555 1_555
C20 C16 1_555 1_555
H33 C20 1_555 1_555
C21 O11 1_555 1_555
C22 C21 1_555 1_555
H34 C22 1_555 1_555
H35 C22 1_555 1_555
H36 C22 1_555 1_555
C4 C5 1_555 1_555
C6 C7 1_555 1_555
C7 C8 1_555 1_555
C8 C9 1_555 1_555
C15 C16 1_555 1_555
C17 C18 1_555 1_555
C18 C19 1_555 1_555
C19 C20 1_555 1_555

#END
