
#######################################################################
#
#                 Cambridge Crystallographic Data Centre
#                                CCDC 
#
#######################################################################
#
# If this CIF has been generated from an entry in the Cambridge 
# Structural Database, then it will include bibliographic, chemical, 
# crystal, experimental, refinement or atomic coordinate data resulting 
# from the CCDC's data processing and validation procedures.
#
#######################################################################

data_TERJEG
_chemical_formula_moiety         'C29 H26 N3 1+,I1 1-'
_chemical_name_systematic        
'1-(Diphenylaminomethyl)-2-(2-pyridyl)-4-(1-methyl-2-pyridinio)-3-methylenecyclobut-1-ene iodide'
_symmetry_cell_setting           orthorhombic
_symmetry_space_group_name_H-M   'P b c n'
_symmetry_Int_Tables_number      60
_space_group_name_Hall           '-P 2n 2ab'
loop_
_symmetry_equiv_pos_site_id
_symmetry_equiv_pos_as_xyz
1 x,y,z
2 1/2-x,1/2-y,1/2+z
3 -x,y,1/2-z
4 1/2+x,1/2-y,-z
5 -x,-y,-z
6 1/2+x,1/2+y,1/2-z
7 x,-y,1/2+z
8 1/2-x,1/2+y,z
_cell_length_a                   11.6652(7)
_cell_length_b                   14.2846(9)
_cell_length_c                   30.3170(19)
_cell_angle_alpha                90
_cell_angle_beta                 90
_cell_angle_gamma                90
_cell_volume                     5051.8
_exptl_crystal_colour            colorless
_cell_formula_units_Z            8
loop_
_atom_site_label
_atom_site_type_symbol
_atom_site_fract_x
_atom_site_fract_y
_atom_site_fract_z
I1 I 0.22980(2) 0.131842(18) 0.539149(8)
N1 N 0.1800(3) 0.3427(2) 0.46186(9)
N2 N -0.1006(3) 0.1632(2) 0.29892(10)
N3 N 0.0332(2) 0.4258(2) 0.36126(10)
C1 C 0.0243(3) 0.2502(3) 0.42667(12)
C2 C -0.0239(2) 0.2639(2) 0.38031(11)
C3 C -0.0459(3) 0.1730(2) 0.37439(11)
C4 C -0.0029(3) 0.1457(3) 0.41792(11)
C5 C 0.0091(3) 0.0710(3) 0.44292(15)
C6 C 0.1494(3) 0.2740(2) 0.43410(11)
C7 C 0.2334(3) 0.2262(3) 0.41182(12)
H1 H 0.2137 0.1793 0.3919
C8 C 0.3474(3) 0.2479(3) 0.41913(14)
H2 H 0.4047 0.2153 0.4043
C9 C 0.3753(4) 0.3173(3) 0.44806(14)
H3 H 0.4518 0.3324 0.4530
C10 C 0.2919(3) 0.3639(3) 0.46953(14)
H4 H 0.3109 0.4106 0.4896
C11 C 0.0936(4) 0.3989(3) 0.48543(15)
H5 H 0.0406 0.4251 0.4646
H6 H 0.1310 0.4486 0.5012
H7 H 0.0530 0.3598 0.5059
C12 C -0.0984(3) 0.1186(2) 0.33799(11)
C13 C -0.1434(3) 0.0307(3) 0.34417(12)
H8 H -0.1400 0.0020 0.3717
C14 C -0.1935(3) -0.0142(3) 0.30908(14)
H9 H -0.2240 -0.0740 0.3123
C15 C -0.1976(3) 0.0302(4) 0.26972(15)
H10 H -0.2334 0.0022 0.2457
C16 C -0.1486(4) 0.1163(3) 0.26568(14)
H11 H -0.1487 0.1442 0.2380
C17 C -0.0531(3) 0.3517(2) 0.35634(12)
H12 H -0.0621 0.3376 0.3252
H13 H -0.1261 0.3748 0.3671
C18 C -0.0111(3) 0.5185(2) 0.35728(12)
C19 C -0.0812(3) 0.5535(3) 0.39067(13)
H14 H -0.0956 0.5173 0.4156
C20 C -0.1290(3) 0.6412(3) 0.38709(17)
H15 H -0.1761 0.6637 0.4095
C21 C -0.1082(4) 0.6953(3) 0.35106(18)
H16 H -0.1397 0.7550 0.3491
C22 C -0.0401(4) 0.6614(3) 0.31743(17)
H17 H -0.0270 0.6979 0.2925
C23 C 0.0085(3) 0.5738(3) 0.32062(13)
H18 H 0.0549 0.5516 0.2979
C24 C 0.1438(3) 0.4091(3) 0.34368(11)
C25 C 0.2341(3) 0.4650(3) 0.35827(13)
H19 H 0.2199 0.5135 0.3780
C26 C 0.3438(3) 0.4492(3) 0.34377(14)
H20 H 0.4031 0.4876 0.3533
C27 C 0.3665(4) 0.3767(3) 0.31516(16)
H21 H 0.4412 0.3660 0.3057
C28 C 0.2798(4) 0.3206(3) 0.30065(15)
H22 H 0.2952 0.2716 0.2814
C29 C 0.1676(3) 0.3371(3) 0.31478(13)
H23 H 0.1085 0.2991 0.3046
H24 H -0.019(3) 0.281(2) 0.4480(9)
H25 H 0.047(3) 0.068(2) 0.4723(11)
H26 H -0.016(2) 0.012(2) 0.4345(10)
loop_
_geom_bond_atom_site_label_1
_geom_bond_atom_site_label_2
_geom_bond_site_symmetry_1
_geom_bond_site_symmetry_2
N1 C6 1_555 1_555
N2 C12 1_555 1_555
N3 C17 1_555 1_555
C1 C2 1_555 1_555
C2 C3 1_555 1_555
C3 C4 1_555 1_555
C4 C1 1_555 1_555
C5 C4 1_555 1_555
C6 C1 1_555 1_555
C7 C6 1_555 1_555
H1 C7 1_555 1_555
C8 C7 1_555 1_555
H2 C8 1_555 1_555
C9 C8 1_555 1_555
H3 C9 1_555 1_555
C10 N1 1_555 1_555
H4 C10 1_555 1_555
C11 N1 1_555 1_555
H5 C11 1_555 1_555
H6 C11 1_555 1_555
H7 C11 1_555 1_555
C12 C3 1_555 1_555
C13 C12 1_555 1_555
H8 C13 1_555 1_555
C14 C13 1_555 1_555
H9 C14 1_555 1_555
C15 C14 1_555 1_555
H10 C15 1_555 1_555
C16 N2 1_555 1_555
H11 C16 1_555 1_555
C17 C2 1_555 1_555
H12 C17 1_555 1_555
H13 C17 1_555 1_555
C18 N3 1_555 1_555
C19 C18 1_555 1_555
H14 C19 1_555 1_555
C20 C19 1_555 1_555
H15 C20 1_555 1_555
C21 C20 1_555 1_555
H16 C21 1_555 1_555
C22 C21 1_555 1_555
H17 C22 1_555 1_555
C23 C18 1_555 1_555
H18 C23 1_555 1_555
C24 N3 1_555 1_555
C25 C24 1_555 1_555
H19 C25 1_555 1_555
C26 C25 1_555 1_555
H20 C26 1_555 1_555
C27 C26 1_555 1_555
H21 C27 1_555 1_555
C28 C27 1_555 1_555
H22 C28 1_555 1_555
C29 C24 1_555 1_555
H23 C29 1_555 1_555
H24 C1 1_555 1_555
H25 C5 1_555 1_555
H26 C5 1_555 1_555
C9 C10 1_555 1_555
C15 C16 1_555 1_555
C22 C23 1_555 1_555
C28 C29 1_555 1_555

#END
