
#######################################################################
#
#                 Cambridge Crystallographic Data Centre
#                                CCDC 
#
#######################################################################
#
# If this CIF has been generated from an entry in the Cambridge 
# Structural Database, then it will include bibliographic, chemical, 
# crystal, experimental, refinement or atomic coordinate data resulting 
# from the CCDC's data processing and validation procedures.
#
#######################################################################

data_TERNIO01
_chemical_formula_moiety         'C13 H10 F1 N3 O1,H2 O1'
_chemical_name_systematic        
'(E)-N-isonicotinoyl 4-fluorobenzaldehydehydrazone monohydrate'
_symmetry_cell_setting           orthorhombic
_symmetry_space_group_name_H-M   'P 21 21 21'
_symmetry_Int_Tables_number      19
_space_group_name_Hall           'P 2ac 2ab'
loop_
_symmetry_equiv_pos_site_id
_symmetry_equiv_pos_as_xyz
1 x,y,z
2 1/2-x,-y,1/2+z
3 -x,1/2+y,1/2-z
4 1/2+x,1/2-y,-z
_cell_length_a                   6.4189(3)
_cell_length_b                   6.8520(3)
_cell_length_c                   27.3451(12)
_cell_angle_alpha                90
_cell_angle_beta                 90
_cell_angle_gamma                90
_cell_volume                     1202.7
_exptl_crystal_colour            colorless
_exptl_crystal_description       block
_chemical_melting_point          '443-445 K'
_cell_formula_units_Z            4
_exptl_crystal_recrystallization_method ethanol
loop_
_atom_site_label
_atom_site_type_symbol
_atom_site_fract_x
_atom_site_fract_y
_atom_site_fract_z
N1 N 0.1309(3) 0.1955(2) 0.79927(6)
C1 C 0.0466(3) 0.1661(3) 0.75506(7)
C2 C 0.1535(3) 0.1943(3) 0.71156(7)
C3 C 0.3602(3) 0.2524(3) 0.71330(7)
C4 C 0.4512(3) 0.2827(3) 0.75919(7)
C5 C 0.3300(3) 0.2539(3) 0.80056(7)
C6 C 0.4957(3) 0.2774(3) 0.66882(6)
O1 O 0.6837(2) 0.2441(2) 0.67050(5)
N2 N 0.3945(2) 0.3369(2) 0.62815(6)
N3 N 0.5123(2) 0.3767(2) 0.58669(5)
C7 C 0.4069(3) 0.4085(3) 0.54793(7)
C8 C 0.5097(3) 0.4644(3) 0.50215(7)
C9 C 0.3966(3) 0.4563(3) 0.45859(7)
C10 C 0.4844(3) 0.5159(3) 0.41463(7)
C11 C 0.6858(3) 0.5828(3) 0.41546(7)
F1 F 0.77439(19) 0.64424(19) 0.37277(4)
C12 C 0.8048(3) 0.5928(3) 0.45748(7)
C13 C 0.7147(3) 0.5337(3) 0.50133(7)
H1 H -0.0941 0.1238 0.7534
H2 H 0.0861 0.1740 0.6810
H3 H 0.5927 0.3220 0.7619
H4 H 0.3917 0.2769 0.8316
H5 H 0.2585 0.3689 0.6288
H6 H 0.2595 0.3958 0.5488
H7 H 0.2574 0.4093 0.4590
H8 H 0.4075 0.5105 0.3850
H9 H 0.9443 0.6387 0.4565
H10 H 0.7926 0.5404 0.5308
O2 O -0.0118(2) 0.4809(2) 0.61671(5)
H11 H -0.0294 0.5613 0.6395
H12 H -0.1175 0.4087 0.6160
loop_
_geom_bond_atom_site_label_1
_geom_bond_atom_site_label_2
_geom_bond_site_symmetry_1
_geom_bond_site_symmetry_2
N1 C1 1_555 1_555
C1 C2 1_555 1_555
C2 C3 1_555 1_555
C3 C4 1_555 1_555
C4 C5 1_555 1_555
C5 N1 1_555 1_555
C6 C3 1_555 1_555
O1 C6 1_555 1_555
N2 C6 1_555 1_555
N3 N2 1_555 1_555
C7 N3 1_555 1_555
C8 C7 1_555 1_555
C9 C8 1_555 1_555
C10 C9 1_555 1_555
C11 C10 1_555 1_555
F1 C11 1_555 1_555
C12 C11 1_555 1_555
C13 C8 1_555 1_555
O2 H11 1_555 1_555
H1 C1 1_555 1_555
H2 C2 1_555 1_555
H3 C4 1_555 1_555
H4 C5 1_555 1_555
H5 N2 1_555 1_555
H6 C7 1_555 1_555
H7 C9 1_555 1_555
H8 C10 1_555 1_555
H9 C12 1_555 1_555
H10 C13 1_555 1_555
H12 O2 1_555 1_555
C12 C13 1_555 1_555

#END
