
#######################################################################
#
#                 Cambridge Crystallographic Data Centre
#                                CCDC 
#
#######################################################################
#
# If this CIF has been generated from an entry in the Cambridge 
# Structural Database, then it will include bibliographic, chemical, 
# crystal, experimental, refinement or atomic coordinate data resulting 
# from the CCDC's data processing and validation procedures.
#
#######################################################################

data_TERPIQ
_chemical_formula_moiety         'C7 H5 N3 O1 S1'
_chemical_name_systematic        5-(3-Pyridyl)-1,3,4-oxadiazole-2-thione
_symmetry_cell_setting           monoclinic
_symmetry_space_group_name_H-M   'P 21/c'
_symmetry_Int_Tables_number      14
_space_group_name_Hall           '-P 2ybc'
loop_
_symmetry_equiv_pos_site_id
_symmetry_equiv_pos_as_xyz
1 x,y,z
2 -x,1/2+y,1/2-z
3 -x,-y,-z
4 x,1/2-y,1/2+z
_cell_length_a                   5.1351(2)
_cell_length_b                   18.1940(7)
_cell_length_c                   8.5727(4)
_cell_angle_alpha                90
_cell_angle_beta                 98.694(3)
_cell_angle_gamma                90
_cell_volume                     791.727
_exptl_crystal_colour            'pale yellow'
_exptl_crystal_description       plate
_cell_formula_units_Z            4
_exptl_crystal_recrystallization_method ethanol
loop_
_atom_site_label
_atom_site_type_symbol
_atom_site_fract_x
_atom_site_fract_y
_atom_site_fract_z
S1 S 0.32792(10) 0.62705(3) 0.23934(6)
O1 O 0.6622(2) 0.61418(6) 0.03048(13)
N1 N 1.2852(3) 0.65454(9) -0.32830(17)
N2 N 0.7374(3) 0.72894(8) -0.03755(17)
N3 N 0.5637(3) 0.72662(8) 0.07103(17)
C1 C 1.1196(4) 0.67778(11) -0.2333(2)
C2 C 0.9621(3) 0.63049(9) -0.16110(19)
C3 C 0.9754(4) 0.55578(10) -0.1904(2)
C4 C 1.1448(4) 0.53137(11) -0.2893(2)
C5 C 1.2948(4) 0.58204(11) -0.3556(2)
C6 C 0.7898(3) 0.66080(9) -0.05733(19)
C7 C 0.5156(3) 0.65819(10) 0.11450(19)
H1 H 1.119(4) 0.7289(11) -0.214(2)
H2 H 0.875(4) 0.5229(10) -0.143(2)
H3 H 1.421(4) 0.5668(12) -0.420(2)
H4 H 0.485(4) 0.7694(13) 0.105(2)
H5 H 1.158(4) 0.4806(12) -0.312(2)
loop_
_geom_bond_atom_site_label_1
_geom_bond_atom_site_label_2
_geom_bond_site_symmetry_1
_geom_bond_site_symmetry_2
S1 C7 1_555 1_555
O1 C6 1_555 1_555
N1 C1 1_555 1_555
N2 N3 1_555 1_555
N3 C7 1_555 1_555
C1 C2 1_555 1_555
C2 C3 1_555 1_555
C3 C4 1_555 1_555
C4 C5 1_555 1_555
C5 N1 1_555 1_555
C6 N2 1_555 1_555
C7 O1 1_555 1_555
H1 C1 1_555 1_555
H2 C3 1_555 1_555
H3 C5 1_555 1_555
H4 N3 1_555 1_555
H5 C4 1_555 1_555
C2 C6 1_555 1_555

#END
