
#######################################################################
#
#                 Cambridge Crystallographic Data Centre
#                                CCDC 
#
#######################################################################
#
# If this CIF has been generated from an entry in the Cambridge 
# Structural Database, then it will include bibliographic, chemical, 
# crystal, experimental, refinement or atomic coordinate data resulting 
# from the CCDC's data processing and validation procedures.
#
#######################################################################

data_TERPAI
_chemical_formula_moiety         'C9 H5 Cl1 F3 N5 O1'
_chemical_name_systematic        
5-Amino-1-(2-chloronicotinoyl)-3-trifluoromethyl-1H-1,2,4-triazole
_symmetry_cell_setting           monoclinic
_symmetry_space_group_name_H-M   'P 21/n'
_symmetry_Int_Tables_number      14
_space_group_name_Hall           '-P 2yn'
loop_
_symmetry_equiv_pos_site_id
_symmetry_equiv_pos_as_xyz
1 x,y,z
2 1/2-x,1/2+y,1/2-z
3 -x,-y,-z
4 1/2+x,1/2-y,1/2+z
_cell_length_a                   4.64770(10)
_cell_length_b                   19.7414(10)
_cell_length_c                   12.3721(5)
_cell_angle_alpha                90
_cell_angle_beta                 91.147(3)
_cell_angle_gamma                90
_cell_volume                     1134.94
_exptl_crystal_colour            colorless
_exptl_crystal_description       needle
_cell_formula_units_Z            4
_exptl_crystal_recrystallization_method 'ethyl acetate'
loop_
_atom_site_label
_atom_site_type_symbol
_atom_site_fract_x
_atom_site_fract_y
_atom_site_fract_z
N1 N 0.3230(3) 0.66804(8) 0.53946(13)
N2 N 0.1330(3) 0.66249(8) 0.62443(13)
C1 C 0.1366(4) 0.59720(10) 0.64084(15)
C2 C -0.0261(4) 0.56599(10) 0.73046(17)
F1 F -0.2485(3) 0.60360(6) 0.76044(10)
F2 F -0.1271(3) 0.50499(6) 0.70283(11)
F3 F 0.1419(3) 0.55681(7) 0.81869(10)
N3 N 0.3061(3) 0.55840(8) 0.57685(13)
C3 C 0.4244(4) 0.60400(10) 0.51248(15)
N4 N 0.6132(4) 0.59136(9) 0.43635(13)
C4 C 0.4050(4) 0.73123(10) 0.49861(15)
O1 O 0.5656(3) 0.73437(7) 0.42315(11)
N5 N 0.2498(3) 0.86511(9) 0.70620(13)
C5 C 0.3523(4) 0.81141(10) 0.65678(15)
Cl1 Cl 0.61338(10) 0.76614(3) 0.72787(4)
C6 C 0.2760(4) 0.79157(10) 0.55210(15)
C7 C 0.0833(4) 0.83207(10) 0.49519(17)
C8 C -0.0272(4) 0.88902(11) 0.54533(17)
C9 C 0.0579(4) 0.90288(11) 0.65022(18)
H1 H 0.6809 0.6248 0.3972
H2 H 0.6709 0.5496 0.4249
H3 H 0.0276 0.8211 0.4230
H4 H -0.1591 0.9179 0.5080
H5 H -0.0232 0.9411 0.6848
loop_
_geom_bond_atom_site_label_1
_geom_bond_atom_site_label_2
_geom_bond_site_symmetry_1
_geom_bond_site_symmetry_2
N1 N2 1_555 1_555
N2 C1 1_555 1_555
C1 C2 1_555 1_555
C2 F1 1_555 1_555
F2 C2 1_555 1_555
F3 C2 1_555 1_555
N3 C1 1_555 1_555
C3 N1 1_555 1_555
N4 C3 1_555 1_555
C4 N1 1_555 1_555
O1 C4 1_555 1_555
N5 C5 1_555 1_555
C5 Cl1 1_555 1_555
C6 C4 1_555 1_555
C7 C6 1_555 1_555
C8 C7 1_555 1_555
C9 N5 1_555 1_555
H1 N4 1_555 1_555
H2 N4 1_555 1_555
H3 C7 1_555 1_555
H4 C8 1_555 1_555
H5 C9 1_555 1_555
N3 C3 1_555 1_555
C5 C6 1_555 1_555
C8 C9 1_555 1_555

#END
