
#######################################################################
#
#                 Cambridge Crystallographic Data Centre
#                                CCDC 
#
#######################################################################
#
# If this CIF has been generated from an entry in the Cambridge 
# Structural Database, then it will include bibliographic, chemical, 
# crystal, experimental, refinement or atomic coordinate data resulting 
# from the CCDC's data processing and validation procedures.
#
#######################################################################

data_TERPOY
_chemical_formula_moiety         'C26 H19 N1'
_chemical_name_systematic        6,7-diphenyl-5H-dibenzo[b,d]azepine
_symmetry_cell_setting           orthorhombic
_symmetry_space_group_name_H-M   'P b c a'
_symmetry_Int_Tables_number      61
_space_group_name_Hall           '-P 2ac 2ab'
loop_
_symmetry_equiv_pos_site_id
_symmetry_equiv_pos_as_xyz
1 x,y,z
2 1/2-x,-y,1/2+z
3 1/2+x,1/2-y,-z
4 -x,1/2+y,1/2-z
5 -x,-y,-z
6 1/2+x,y,1/2-z
7 1/2-x,1/2+y,z
8 x,1/2-y,1/2+z
_cell_length_a                   17.418(7)
_cell_length_b                   10.346(4)
_cell_length_c                   20.901(8)
_cell_angle_alpha                90
_cell_angle_beta                 90
_cell_angle_gamma                90
_cell_volume                     3766.5
_exptl_crystal_colour            yellow
_exptl_crystal_description       Block
_cell_formula_units_Z            8
loop_
_atom_site_label
_atom_site_type_symbol
_atom_site_fract_x
_atom_site_fract_y
_atom_site_fract_z
N1 N 0.22079(14) 0.0324(2) 0.35603(11)
H1 H 0.2698 0.0425 0.3542
C1 C 0.18655(17) -0.0356(3) 0.40762(14)
C2 C 0.2062(2) -0.1635(4) 0.41721(17)
H2 H 0.2421 -0.2028 0.3906
C3 C 0.1727(2) -0.2332(4) 0.4661(2)
H3 H 0.1869 -0.3188 0.4729
C4 C 0.1188(2) -0.1768(4) 0.50477(17)
H4 H 0.0947 -0.2246 0.5367
C5 C 0.10040(18) -0.0482(4) 0.49576(13)
H5 H 0.0647 -0.0097 0.5228
C6 C 0.13397(17) 0.0259(3) 0.44722(13)
C7 C 0.11498(17) 0.1651(3) 0.44143(13)
C8 C 0.10930(19) 0.2383(4) 0.49722(15)
H6 H 0.1203 0.1989 0.5362
C9 C 0.0882(2) 0.3653(4) 0.49697(17)
H7 H 0.0861 0.4117 0.5350
C10 C 0.0702(2) 0.4240(4) 0.43997(18)
H8 H 0.0541 0.5097 0.4393
C11 C 0.07612(19) 0.3552(3) 0.38387(15)
H9 H 0.0632 0.3954 0.3456
C12 C 0.10090(17) 0.2268(3) 0.38261(13)
C13 C 0.11461(18) 0.1660(3) 0.31960(12)
C14 C 0.0674(2) 0.2108(3) 0.26409(13)
C15 C 0.0953(2) 0.3002(3) 0.22113(14)
H10 H 0.1435 0.3361 0.2282
C16 C 0.0545(3) 0.3375(4) 0.16863(15)
H11 H 0.0748 0.3991 0.1410
C17 C -0.0154(3) 0.2856(4) 0.15636(17)
H12 H -0.0424 0.3095 0.1199
C18 C -0.0460(2) 0.1974(4) 0.1982(2)
H13 H -0.0942 0.1620 0.1905
C19 C -0.0046(2) 0.1610(3) 0.25243(17)
H14 H -0.0259 0.1023 0.2811
C20 C 0.17260(18) 0.0832(3) 0.30773(13)
C21 C 0.19300(19) 0.0407(3) 0.24179(13)
C22 C 0.2546(2) 0.0925(4) 0.21073(17)
H15 H 0.2852 0.1530 0.2315
C23 C 0.2720(3) 0.0565(5) 0.1490(2)
H16 H 0.3141 0.0935 0.1286
C24 C 0.2296(4) -0.0305(6) 0.11821(19)
H17 H 0.2419 -0.0548 0.0766
C25 C 0.1680(3) -0.0834(4) 0.1483(2)
H18 H 0.1378 -0.1436 0.1269
C26 C 0.1499(3) -0.0491(4) 0.20988(16)
H19 H 0.1081 -0.0871 0.2301
loop_
_geom_bond_atom_site_label_1
_geom_bond_atom_site_label_2
_geom_bond_site_symmetry_1
_geom_bond_site_symmetry_2
N1 H1 1_555 1_555
C1 N1 1_555 1_555
C2 C1 1_555 1_555
H2 C2 1_555 1_555
C3 C2 1_555 1_555
H3 C3 1_555 1_555
C4 C3 1_555 1_555
H4 C4 1_555 1_555
C5 C4 1_555 1_555
H5 C5 1_555 1_555
C6 C1 1_555 1_555
C7 C6 1_555 1_555
C8 C7 1_555 1_555
H6 C8 1_555 1_555
C9 C8 1_555 1_555
H7 C9 1_555 1_555
C10 C9 1_555 1_555
H8 C10 1_555 1_555
C11 C10 1_555 1_555
H9 C11 1_555 1_555
C12 C7 1_555 1_555
C13 C12 1_555 1_555
C14 C13 1_555 1_555
C15 C14 1_555 1_555
H10 C15 1_555 1_555
C16 C15 1_555 1_555
H11 C16 1_555 1_555
C17 C16 1_555 1_555
H12 C17 1_555 1_555
C18 C17 1_555 1_555
H13 C18 1_555 1_555
C19 C14 1_555 1_555
H14 C19 1_555 1_555
C20 N1 1_555 1_555
C21 C20 1_555 1_555
C22 C21 1_555 1_555
H15 C22 1_555 1_555
C23 C22 1_555 1_555
H16 C23 1_555 1_555
C24 C23 1_555 1_555
H17 C24 1_555 1_555
C25 C24 1_555 1_555
H18 C25 1_555 1_555
C26 C21 1_555 1_555
H19 C26 1_555 1_555
C5 C6 1_555 1_555
C11 C12 1_555 1_555
C13 C20 1_555 1_555
C18 C19 1_555 1_555
C25 C26 1_555 1_555

#END
