
#######################################################################
#
#                 Cambridge Crystallographic Data Centre
#                                CCDC 
#
#######################################################################
#
# If this CIF has been generated from an entry in the Cambridge 
# Structural Database, then it will include bibliographic, chemical, 
# crystal, experimental, refinement or atomic coordinate data resulting 
# from the CCDC's data processing and validation procedures.
#
#######################################################################

data_TERQAL
_chemical_formula_moiety         'C30 H28 Cl1 N1'
_chemical_name_systematic        
2-t-butyl-11-chloro-6,7-diphenyl-6,7-dihydro-5H-dibenzo[b,d]azepine
_symmetry_cell_setting           orthorhombic
_symmetry_space_group_name_H-M   'P 21 21 21'
_symmetry_Int_Tables_number      19
_space_group_name_Hall           'P 2ac 2ab'
loop_
_symmetry_equiv_pos_site_id
_symmetry_equiv_pos_as_xyz
1 x,y,z
2 1/2-x,-y,1/2+z
3 -x,1/2+y,1/2-z
4 1/2+x,1/2-y,-z
_cell_length_a                   9.8258(14)
_cell_length_b                   11.0296(16)
_cell_length_c                   22.159(3)
_cell_angle_alpha                90
_cell_angle_beta                 90
_cell_angle_gamma                90
_cell_volume                     2401.47
_exptl_crystal_colour            colorless
_exptl_crystal_description       block
_cell_formula_units_Z            4
loop_
_atom_site_label
_atom_site_type_symbol
_atom_site_fract_x
_atom_site_fract_y
_atom_site_fract_z
Cl1 Cl 0.72031(8) 1.03093(8) 1.03824(3)
C1 C 0.6867(2) 0.6745(2) 0.96805(11)
C2 C 0.7495(3) 0.7884(2) 0.96260(11)
H1 H 0.8199 0.8074 0.9890
C3 C 0.7743(3) 0.9965(2) 0.91740(11)
C4 C 0.8116(3) 0.9597(3) 0.80605(11)
H2 H 0.8309 0.8767 0.8193
C5 C 0.6110(3) 0.8430(2) 0.87740(11)
C6 C 0.6336(3) 0.8780(3) 0.73056(12)
C7 C 0.5492(3) 0.7297(3) 0.88162(13)
H3 H 0.4832 0.7082 0.8535
C8 C 0.6626(3) 0.9606(3) 0.78371(11)
H4 H 0.6418 1.0436 0.7709
C9 C 0.5841(3) 0.6480(3) 0.92688(12)
H5 H 0.5380 0.5745 0.9296
C10 C 0.7321(3) 0.5876(3) 1.01770(12)
C11 C 0.8249(3) 1.0410(2) 0.86213(11)
C12 C 0.7123(3) 0.8736(2) 0.91998(11)
C13 C 0.7834(3) 1.0746(3) 0.96759(12)
C14 C 1.0422(3) 0.9350(3) 0.76067(13)
H6 H 1.0601 0.8803 0.7916
C15 C 0.9148(3) 0.9894(3) 0.75757(11)
C16 C 0.8417(3) 1.1862(3) 0.96341(15)
H7 H 0.8476 1.2349 0.9976
C17 C 0.8830(3) 1.1539(3) 0.85897(14)
H8 H 0.9170 1.1816 0.8223
C18 C 0.5288(3) 0.9082(3) 0.69175(13)
H9 H 0.4856 0.9827 0.6961
C19 C 0.7088(4) 0.6463(3) 1.07947(13)
H10 H 0.7461 0.5952 1.1104
H11 H 0.6130 0.6565 1.0861
H12 H 0.7528 0.7240 1.0806
C20 C 0.4872(4) 0.8307(4) 0.64702(14)
H13 H 0.4172 0.8536 0.6212
C21 C 0.6535(3) 0.4667(3) 1.01590(15)
H14 H 0.6653 0.4295 0.9771
H15 H 0.5586 0.4818 1.0228
H16 H 0.6878 0.4137 1.0467
C22 C 0.5485(5) 0.7187(4) 0.64005(15)
H17 H 0.5188 0.6653 0.6104
C23 C 0.8918(4) 1.2278(3) 0.90968(16)
H18 H 0.9312 1.3043 0.9071
C24 C 0.8823(3) 0.5588(3) 1.00982(13)
H19 H 0.8961 0.5192 0.9717
H20 H 0.9117 0.5064 1.0419
H21 H 0.9339 0.6326 1.0109
C25 C 0.6963(4) 0.7676(3) 0.72259(15)
H22 H 0.7683 0.7459 0.7476
C26 C 0.9915(5) 1.0936(4) 0.66776(15)
H23 H 0.9733 1.1457 0.6358
C27 C 1.1164(4) 1.0425(4) 0.67252(15)
H24 H 1.1844 1.0622 0.6450
C28 C 1.1427(3) 0.9597(4) 0.71915(15)
H25 H 1.2271 0.9220 0.7220
C29 C 0.8906(4) 1.0697(3) 0.70963(14)
H26 H 0.8062 1.1071 0.7060
C30 C 0.6535(5) 0.6876(3) 0.67749(17)
H27 H 0.6966 0.6131 0.6729
N1 N 0.5699(2) 0.9312(2) 0.83468(9)
H28 H 0.4878 0.9106 0.8198
loop_
_geom_bond_atom_site_label_1
_geom_bond_atom_site_label_2
_geom_bond_site_symmetry_1
_geom_bond_site_symmetry_2
Cl1 C13 1_555 1_555
C1 C2 1_555 1_555
C2 H1 1_555 1_555
C3 C11 1_555 1_555
C4 H2 1_555 1_555
C5 C7 1_555 1_555
C6 C8 1_555 1_555
C7 H3 1_555 1_555
C8 C4 1_555 1_555
H4 C8 1_555 1_555
C9 C1 1_555 1_555
H5 C9 1_555 1_555
C10 C1 1_555 1_555
C11 C4 1_555 1_555
C12 C2 1_555 1_555
C13 C3 1_555 1_555
C14 H6 1_555 1_555
C15 C4 1_555 1_555
C16 C13 1_555 1_555
H7 C16 1_555 1_555
C17 C11 1_555 1_555
H8 C17 1_555 1_555
C18 C6 1_555 1_555
H9 C18 1_555 1_555
C19 C10 1_555 1_555
H10 C19 1_555 1_555
H11 C19 1_555 1_555
H12 C19 1_555 1_555
C20 C18 1_555 1_555
H13 C20 1_555 1_555
C21 C10 1_555 1_555
H14 C21 1_555 1_555
H15 C21 1_555 1_555
H16 C21 1_555 1_555
C22 C20 1_555 1_555
H17 C22 1_555 1_555
C23 C16 1_555 1_555
H18 C23 1_555 1_555
C24 C10 1_555 1_555
H19 C24 1_555 1_555
H20 C24 1_555 1_555
H21 C24 1_555 1_555
C25 C6 1_555 1_555
H22 C25 1_555 1_555
C26 H23 1_555 1_555
C27 C26 1_555 1_555
H24 C27 1_555 1_555
C28 C14 1_555 1_555
H25 C28 1_555 1_555
C29 C15 1_555 1_555
H26 C29 1_555 1_555
C30 C22 1_555 1_555
H27 C30 1_555 1_555
N1 C5 1_555 1_555
H28 N1 1_555 1_555
C3 C12 1_555 1_555
C5 C12 1_555 1_555
C7 C9 1_555 1_555
C8 N1 1_555 1_555
C14 C15 1_555 1_555
C17 C23 1_555 1_555
C25 C30 1_555 1_555
C26 C29 1_555 1_555
C27 C28 1_555 1_555

#END
