
#######################################################################
#
#                 Cambridge Crystallographic Data Centre
#                                CCDC 
#
#######################################################################
#
# If this CIF has been generated from an entry in the Cambridge 
# Structural Database, then it will include bibliographic, chemical, 
# crystal, experimental, refinement or atomic coordinate data resulting 
# from the CCDC's data processing and validation procedures.
#
#######################################################################

data_TERWIZ
_chemical_formula_moiety         'C23 H20 F3 N1 O3 S1'
_chemical_name_systematic        
N-[2-(benzenecarbonyl)-3,3,3-trifluoro-1-phenylpropyl]-4-methylbenzene-1-sulfonamide
_symmetry_cell_setting           monoclinic
_symmetry_space_group_name_H-M   'P 21/c'
_symmetry_Int_Tables_number      14
_space_group_name_Hall           '-P 2ybc'
loop_
_symmetry_equiv_pos_site_id
_symmetry_equiv_pos_as_xyz
1 x,y,z
2 -x,1/2+y,1/2-z
3 -x,-y,-z
4 x,1/2-y,1/2+z
_cell_length_a                   13.3366(12)
_cell_length_b                   14.4419(13)
_cell_length_c                   11.0444(10)
_cell_angle_alpha                90
_cell_angle_beta                 104.124(3)
_cell_angle_gamma                90
_cell_volume                     2062.91
_exptl_crystal_colour            colorless
_exptl_crystal_description       block
_cell_formula_units_Z            4
loop_
_atom_site_label
_atom_site_type_symbol
_atom_site_fract_x
_atom_site_fract_y
_atom_site_fract_z
S1 S 0.11792(3) 0.01723(3) -0.11408(4)
N1 N 0.13343(10) 0.09271(9) -0.00161(13)
H1 H 0.0836 0.1048 0.0329
O1 O 0.01233(10) -0.01260(9) -0.13661(12)
O2 O 0.15454(11) 0.05797(10) -0.21269(12)
O3 O 0.14434(11) 0.30057(10) -0.11449(12)
F1 F 0.28497(10) 0.38785(8) 0.11206(14)
F2 F 0.36677(10) 0.28654(10) 0.03507(18)
F3 F 0.36785(11) 0.28160(11) 0.22743(16)
C1 C 0.19887(13) -0.07735(12) -0.05704(16)
C2 C 0.27463(15) -0.10416(15) -0.11614(18)
H2 H 0.2812 -0.0739 -0.1881
C3 C 0.34022(16) -0.17601(16) -0.0676(2)
H3 H 0.3905 -0.1942 -0.1081
C4 C 0.33291(15) -0.22162(14) 0.03997(19)
C5 C 0.25625(16) -0.19355(14) 0.09769(19)
H4 H 0.2501 -0.2234 0.1701
C6 C 0.18943(15) -0.12285(13) 0.05031(18)
H5 H 0.1382 -0.1056 0.0898
C7 C 0.40433(19) -0.30005(17) 0.0924(2)
H6 H 0.3878 -0.3230 0.1667
H7 H 0.3963 -0.3489 0.0318
H8 H 0.4745 -0.2784 0.1120
C8 C 0.23424(12) 0.14044(11) 0.04069(16)
H9 H 0.2627 0.1489 -0.0324
C9 C 0.31278(13) 0.08607(12) 0.13699(16)
C10 C 0.40217(15) 0.05379(15) 0.10965(19)
H10 H 0.4154 0.0674 0.0327
C11 C 0.47223(16) 0.00132(17) 0.1955(2)
H11 H 0.5317 -0.0208 0.1755
C12 C 0.45461(16) -0.01834(15) 0.3100(2)
H12 H 0.5017 -0.0539 0.3673
C13 C 0.36695(16) 0.01487(14) 0.3398(2)
H13 H 0.3554 0.0028 0.4180
C14 C 0.29584(14) 0.06627(13) 0.25329(17)
H14 H 0.2362 0.0877 0.2734
C15 C 0.21223(12) 0.23738(12) 0.08668(15)
H15 H 0.1878 0.2305 0.1630
C16 C 0.30756(15) 0.29780(13) 0.1147(2)
C17 C 0.12721(13) 0.28537(11) -0.01335(15)
C18 C 0.03111(13) 0.31460(12) 0.01924(16)
C19 C -0.03005(16) 0.38161(14) -0.0550(2)
H16 H -0.0128 0.4034 -0.1265
C20 C -0.11618(19) 0.41525(18) -0.0216(3)
H17 H -0.1564 0.4608 -0.0699
C21 C -0.14294(19) 0.3819(2) 0.0826(3)
H18 H -0.2006 0.4057 0.1051
C22 C -0.08554(17) 0.3139(2) 0.1538(2)
H19 H -0.1054 0.2904 0.2229
C23 C 0.00170(14) 0.28028(15) 0.12291(17)
H20 H 0.0410 0.2345 0.1716
loop_
_geom_bond_atom_site_label_1
_geom_bond_atom_site_label_2
_geom_bond_site_symmetry_1
_geom_bond_site_symmetry_2
S1 N1 1_555 1_555
N1 H1 1_555 1_555
O1 S1 1_555 1_555
O2 S1 1_555 1_555
O3 C17 1_555 1_555
F1 C16 1_555 1_555
F2 C16 1_555 1_555
F3 C16 1_555 1_555
C1 S1 1_555 1_555
C2 C1 1_555 1_555
H2 C2 1_555 1_555
C3 C2 1_555 1_555
H3 C3 1_555 1_555
C4 C3 1_555 1_555
C5 C4 1_555 1_555
H4 C5 1_555 1_555
C6 C1 1_555 1_555
H5 C6 1_555 1_555
C7 C4 1_555 1_555
H6 C7 1_555 1_555
H7 C7 1_555 1_555
H8 C7 1_555 1_555
C8 N1 1_555 1_555
H9 C8 1_555 1_555
C9 C8 1_555 1_555
C10 C9 1_555 1_555
H10 C10 1_555 1_555
C11 C10 1_555 1_555
H11 C11 1_555 1_555
C12 C11 1_555 1_555
H12 C12 1_555 1_555
C13 C12 1_555 1_555
H13 C13 1_555 1_555
C14 C9 1_555 1_555
H14 C14 1_555 1_555
C15 C8 1_555 1_555
H15 C15 1_555 1_555
C16 C15 1_555 1_555
C17 C15 1_555 1_555
C18 C17 1_555 1_555
C19 C18 1_555 1_555
H16 C19 1_555 1_555
C20 C19 1_555 1_555
H17 C20 1_555 1_555
C21 C20 1_555 1_555
H18 C21 1_555 1_555
C22 C21 1_555 1_555
H19 C22 1_555 1_555
C23 C18 1_555 1_555
H20 C23 1_555 1_555
C5 C6 1_555 1_555
C13 C14 1_555 1_555
C22 C23 1_555 1_555

#END
