
#######################################################################
#
#                 Cambridge Crystallographic Data Centre
#                                CCDC 
#
#######################################################################
#
# If this CIF has been generated from an entry in the Cambridge 
# Structural Database, then it will include bibliographic, chemical, 
# crystal, experimental, refinement or atomic coordinate data resulting 
# from the CCDC's data processing and validation procedures.
#
#######################################################################

data_TESCAX
_chemical_formula_moiety         'C17 H13 N3 O5 S1'
_chemical_name_systematic        
2-(2,3-Dihydro-1,4-benzodioxin-6-yl)-5-((4-nitrobenzyl)sulfanyl)-1,3,4-oxadiazole
_symmetry_cell_setting           triclinic
_symmetry_space_group_name_H-M   'P -1'
_symmetry_Int_Tables_number      2
_space_group_name_Hall           '-P 1'
loop_
_symmetry_equiv_pos_site_id
_symmetry_equiv_pos_as_xyz
1 x,y,z
2 -x,-y,-z
_cell_length_a                   7.1993(14)
_cell_length_b                   8.0024(16)
_cell_length_c                   14.547(3)
_cell_angle_alpha                96.722(2)
_cell_angle_beta                 94.865(2)
_cell_angle_gamma                105.649(2)
_cell_volume                     795.507
_exptl_crystal_colour            colorless
_exptl_crystal_description       block
_cell_formula_units_Z            2
_exptl_crystal_recrystallization_method acetonitrile
loop_
_atom_site_label
_atom_site_type_symbol
_atom_site_fract_x
_atom_site_fract_y
_atom_site_fract_z
N1 N 0.3806(3) 0.56482(19) 0.78289(10)
N2 N 0.3731(2) 0.41786(19) 0.71634(10)
N3 N 0.1602(2) -0.5912(2) 0.37562(11)
O1 O 0.2432(2) 1.02252(16) 1.03869(8)
O2 O 0.2204(2) 0.84568(16) 1.19810(8)
O3 O 0.25182(18) 0.32438(15) 0.84158(8)
O4 O 0.2048(3) -0.70948(18) 0.40957(11)
O5 O 0.0836(3) -0.60815(19) 0.29602(10)
S1 S 0.23362(8) 0.06172(6) 0.71249(3)
C1 C 0.1689(4) 1.0801(3) 1.12155(13)
H1 H 0.0297 1.0264 1.1159
H2 H 0.1920 1.2063 1.1287
C2 C 0.2641(3) 1.0320(2) 1.20474(13)
H3 H 0.4036 1.0830 1.2095
H4 H 0.2189 1.0785 1.2605
C3 C 0.2380(3) 0.7658(2) 1.11224(11)
C4 C 0.2390(3) 0.5928(2) 1.10345(12)
H5 H 0.2258 0.5339 1.1550
C5 C 0.2593(3) 0.5065(2) 1.01923(12)
H6 H 0.2583 0.3893 1.0137
C6 C 0.2813(2) 0.5948(2) 0.94225(11)
C7 C 0.2769(3) 0.7678(2) 0.95012(12)
H7 H 0.2903 0.8265 0.8985
C8 C 0.2527(3) 0.8533(2) 1.03465(12)
C9 C 0.3080(3) 0.5041(2) 0.85377(12)
C10 C 0.2965(3) 0.2833(2) 0.75477(11)
C11 C 0.3262(3) 0.0787(2) 0.60133(13)
H8 H 0.2692 0.1548 0.5682
H9 H 0.4660 0.1299 0.6112
C12 C 0.2776(3) -0.1001(2) 0.54405(12)
C13 C 0.3309(3) -0.2377(2) 0.57795(12)
H10 H 0.3938 -0.2208 0.6383
C14 C 0.2922(3) -0.3991(2) 0.52348(12)
H11 H 0.3278 -0.4912 0.5464
C15 C 0.1999(2) -0.4204(2) 0.43464(11)
C16 C 0.1433(3) -0.2878(2) 0.39883(12)
H12 H 0.0800 -0.3058 0.3385
C17 C 0.1828(3) -0.1272(2) 0.45453(12)
H13 H 0.1450 -0.0362 0.4315
loop_
_geom_bond_atom_site_label_1
_geom_bond_atom_site_label_2
_geom_bond_site_symmetry_1
_geom_bond_site_symmetry_2
N1 N2 1_555 1_555
N2 C10 1_555 1_555
N3 O4 1_555 1_555
O1 C1 1_555 1_555
O2 C2 1_555 1_555
O3 C9 1_555 1_555
O5 N3 1_555 1_555
S1 C10 1_555 1_555
C1 H1 1_555 1_555
H2 C1 1_555 1_555
C2 C1 1_555 1_555
H3 C2 1_555 1_555
H4 C2 1_555 1_555
C3 O2 1_555 1_555
C4 C3 1_555 1_555
H5 C4 1_555 1_555
C5 C4 1_555 1_555
H6 C5 1_555 1_555
C6 C5 1_555 1_555
C7 C6 1_555 1_555
H7 C7 1_555 1_555
C8 O1 1_555 1_555
C9 N1 1_555 1_555
C10 O3 1_555 1_555
C11 S1 1_555 1_555
H8 C11 1_555 1_555
H9 C11 1_555 1_555
C12 C11 1_555 1_555
C13 C12 1_555 1_555
H10 C13 1_555 1_555
C14 C13 1_555 1_555
H11 C14 1_555 1_555
C15 N3 1_555 1_555
C16 C15 1_555 1_555
H12 C16 1_555 1_555
C17 C12 1_555 1_555
H13 C17 1_555 1_555
C3 C8 1_555 1_555
C6 C9 1_555 1_555
C7 C8 1_555 1_555
C14 C15 1_555 1_555
C16 C17 1_555 1_555

#END
