
#######################################################################
#
#                 Cambridge Crystallographic Data Centre
#                                CCDC 
#
#######################################################################
#
# If this CIF has been generated from an entry in the Cambridge 
# Structural Database, then it will include bibliographic, chemical, 
# crystal, experimental, refinement or atomic coordinate data resulting 
# from the CCDC's data processing and validation procedures.
#
#######################################################################

data_TESDOM
_chemical_formula_moiety         'C15 H24 O3'
_chemical_name_systematic        
(3R,6R,Z)-3-Hydroxy-3,6-dimethyl-2-(3-methylbutylidene)hexahydro-1-benzofuran-4(2H)-one
_symmetry_cell_setting           monoclinic
_symmetry_space_group_name_H-M   'P 21'
_symmetry_Int_Tables_number      4
_space_group_name_Hall           'P 2yb'
loop_
_symmetry_equiv_pos_site_id
_symmetry_equiv_pos_as_xyz
1 x,y,z
2 -x,1/2+y,-z
_cell_length_a                   6.830(10)
_cell_length_b                   9.285(12)
_cell_length_c                   12.813(19)
_cell_angle_alpha                90
_cell_angle_beta                 103.291(19)
_cell_angle_gamma                90
_cell_volume                     790.792
_exptl_crystal_colour            colorless
_exptl_crystal_description       block
_chemical_melting_point          '368 K'
_cell_formula_units_Z            2
_exptl_crystal_recrystallization_method 'diethyl ether/ethyl acetate'
loop_
_atom_site_label
_atom_site_type_symbol
_atom_site_fract_x
_atom_site_fract_y
_atom_site_fract_z
C1 C 0.2851(5) 0.4564(4) 0.4369(3)
C2 C 0.2414(6) 0.5579(4) 0.5238(3)
H1 H 0.2497 0.6570 0.4989
O1 O -0.0644(4) 0.4850(5) 0.4146(3)
O2 O 0.3528(5) 0.3228(3) 0.4903(3)
H2 H 0.3797 0.2656 0.4469
C3 C 0.0795(6) 0.4385(5) 0.3663(4)
O3 O 0.5456(5) 0.6101(4) 0.6485(3)
C4 C 0.3880(6) 0.5432(5) 0.6309(3)
C5 C -0.0071(7) 0.4135(6) 0.5994(4)
H3 H 0.0340 0.3213 0.5758
H4 H -0.1488 0.4074 0.5994
C6 C 0.0231(6) 0.5273(5) 0.5233(4)
H5 H -0.0410 0.6165 0.5394
C7 C 0.4394(7) 0.5134(6) 0.3789(5)
H6 H 0.4598 0.4439 0.3269
H7 H 0.5643 0.5303 0.4298
H8 H 0.3918 0.6019 0.3433
C8 C 0.3365(8) 0.4440(6) 0.7109(4)
H9 H 0.4146 0.4704 0.7815
H10 H 0.3752 0.3470 0.6959
C9 C 0.1132(8) 0.4441(6) 0.7127(4)
H11 H 0.0770 0.5400 0.7341
C10 C 0.0281(8) 0.3843(7) 0.2696(5)
H12 H 0.1314 0.3571 0.2374
C11 C -0.1807(13) 0.3628(11) 0.2070(7)
H13 H -0.2306 0.2755 0.2335
H14 H -0.2605 0.4418 0.2243
C12 C 0.0691(13) 0.3345(11) 0.7918(6)
H15 H 0.1466 0.3569 0.8624
H16 H 0.1042 0.2400 0.7716
H17 H -0.0716 0.3370 0.7915
C13 C -0.2219(15) 0.3522(13) 0.0951(8)
H18 H -0.1706 0.2590 0.0774
C14 C -0.4550(16) 0.3501(16) 0.0531(10)
H19 H -0.4877 0.3463 -0.0239
H20 H -0.5114 0.4357 0.0763
H21 H -0.5094 0.2670 0.0809
C15 C -0.131(2) 0.4668(16) 0.0376(11)
H22 H 0.0096 0.4772 0.0712
H23 H -0.1984 0.5567 0.0410
H24 H -0.1449 0.4394 -0.0360
loop_
_geom_bond_atom_site_label_1
_geom_bond_atom_site_label_2
_geom_bond_site_symmetry_1
_geom_bond_site_symmetry_2
C1 C2 1_555 1_555
C2 H1 1_555 1_555
O1 C3 1_555 1_555
O2 C1 1_555 1_555
H2 O2 1_555 1_555
C3 C1 1_555 1_555
O3 C4 1_555 1_555
C4 C2 1_555 1_555
C5 H3 1_555 1_555
H4 C5 1_555 1_555
C6 C2 1_555 1_555
H5 C6 1_555 1_555
C7 C1 1_555 1_555
H6 C7 1_555 1_555
H7 C7 1_555 1_555
H8 C7 1_555 1_555
C8 C4 1_555 1_555
H9 C8 1_555 1_555
H10 C8 1_555 1_555
C9 C5 1_555 1_555
H11 C9 1_555 1_555
C10 C3 1_555 1_555
H12 C10 1_555 1_555
C11 C10 1_555 1_555
H13 C11 1_555 1_555
H14 C11 1_555 1_555
C12 C9 1_555 1_555
H15 C12 1_555 1_555
H16 C12 1_555 1_555
H17 C12 1_555 1_555
C13 C11 1_555 1_555
H18 C13 1_555 1_555
C14 C13 1_555 1_555
H19 C14 1_555 1_555
H20 C14 1_555 1_555
H21 C14 1_555 1_555
C15 C13 1_555 1_555
H22 C15 1_555 1_555
H23 C15 1_555 1_555
H24 C15 1_555 1_555
O1 C6 1_555 1_555
C5 C6 1_555 1_555
C8 C9 1_555 1_555

#END
