
#######################################################################
#
#                 Cambridge Crystallographic Data Centre
#                                CCDC 
#
#######################################################################
#
# If this CIF has been generated from an entry in the Cambridge 
# Structural Database, then it will include bibliographic, chemical, 
# crystal, experimental, refinement or atomic coordinate data resulting 
# from the CCDC's data processing and validation procedures.
#
#######################################################################

data_TESGEF
_chemical_formula_moiety         'C22 H19 N3 O1'
_chemical_name_systematic        
2-Phenyl-3-((1-phenylethylidene)amino)-2,3-dihydroquinazolin-4(1H)-one
_symmetry_cell_setting           monoclinic
_symmetry_space_group_name_H-M   'C 2/c'
_symmetry_Int_Tables_number      15
_space_group_name_Hall           '-C 2yn'
loop_
_symmetry_equiv_pos_site_id
_symmetry_equiv_pos_as_xyz
1 x,y,z
2 -x,y,1/2-z
3 1/2+x,1/2+y,z
4 1/2-x,1/2+y,1/2-z
5 -x,-y,-z
6 x,-y,1/2+z
7 1/2-x,1/2-y,-z
8 1/2+x,1/2-y,1/2+z
_cell_length_a                   10.597(5)
_cell_length_b                   13.740(6)
_cell_length_c                   24.817(11)
_cell_angle_alpha                90
_cell_angle_beta                 94.764(5)
_cell_angle_gamma                90
_cell_volume                     3600.94
_exptl_crystal_colour            colorless
_exptl_crystal_description       block
_cell_formula_units_Z            8
_exptl_crystal_recrystallization_method ethanol/water
loop_
_atom_site_label
_atom_site_type_symbol
_atom_site_fract_x
_atom_site_fract_y
_atom_site_fract_z
O1 O 0.25965(12) -0.04739(7) 0.27149(4)
N1 N 0.23388(11) 0.24250(8) 0.25869(4)
N2 N 0.21423(11) 0.09839(7) 0.30761(4)
N3 N 0.21428(11) 0.05490(8) 0.35966(4)
C1 C 0.25442(12) 0.20129(9) 0.31222(5)
H1 H 0.3448 0.2044 0.3243
C2 C 0.26267(13) 0.04152(9) 0.26865(5)
C3 C 0.31146(12) 0.09470(9) 0.22347(5)
C4 C 0.37177(15) 0.04526(10) 0.18395(6)
H2 H 0.3846 -0.0215 0.1872
C5 C 0.41243(16) 0.09370(11) 0.14040(6)
H3 H 0.4546 0.0604 0.1147
C6 C 0.39035(14) 0.19237(11) 0.13499(6)
H4 H 0.4153 0.2248 0.1047
C7 C 0.33231(13) 0.24331(10) 0.17350(5)
H5 H 0.3186 0.3099 0.1694
C8 C 0.29381(11) 0.19522(9) 0.21883(5)
C9 C 0.11499(12) 0.00808(9) 0.36897(5)
C10 C -0.00169(16) 0.00041(15) 0.33149(7)
H6 H 0.0050 0.0432 0.3013
H7 H -0.0739 0.0184 0.3502
H8 H -0.0114 -0.0654 0.3188
C11 C 0.12083(12) -0.04116(9) 0.42239(5)
C12 C 0.23342(15) -0.04554(14) 0.45434(6)
H9 H 0.3052 -0.0160 0.4426
C13 C 0.24119(19) -0.09288(17) 0.50327(7)
H10 H 0.3181 -0.0952 0.5242
C14 C 0.13694(19) -0.13665(13) 0.52147(7)
H11 H 0.1428 -0.1691 0.5545
C15 C 0.02457(18) -0.13222(12) 0.49084(7)
H12 H -0.0469 -0.1612 0.5031
C16 C 0.01592(15) -0.08478(11) 0.44146(6)
H13 H -0.0615 -0.0823 0.4209
C17 C 0.17981(12) 0.25457(8) 0.35199(5)
C18 C 0.05525(13) 0.28106(11) 0.33969(6)
H14 H 0.0149 0.2656 0.3061
C19 C -0.00971(15) 0.33056(12) 0.37724(7)
H15 H -0.0935 0.3486 0.3687
C20 C 0.04876(16) 0.35309(11) 0.42699(7)
H16 H 0.0046 0.3864 0.4521
C21 C 0.17177(16) 0.32664(12) 0.43975(6)
H17 H 0.2116 0.3419 0.4735
C22 C 0.23671(14) 0.27725(10) 0.40245(6)
H18 H 0.3203 0.2589 0.4114
H19 H 0.2368(14) 0.3059(10) 0.2576(6)
loop_
_geom_bond_atom_site_label_1
_geom_bond_atom_site_label_2
_geom_bond_site_symmetry_1
_geom_bond_site_symmetry_2
O1 C2 1_555 1_555
N1 C1 1_555 1_555
N2 N3 1_555 1_555
N3 C9 1_555 1_555
C1 N2 1_555 1_555
H1 C1 1_555 1_555
C2 N2 1_555 1_555
C3 C2 1_555 1_555
C4 C3 1_555 1_555
H2 C4 1_555 1_555
C5 C4 1_555 1_555
H3 C5 1_555 1_555
C6 C5 1_555 1_555
H4 C6 1_555 1_555
C7 C6 1_555 1_555
H5 C7 1_555 1_555
C8 N1 1_555 1_555
C9 C10 1_555 1_555
C10 H6 1_555 1_555
H7 C10 1_555 1_555
H8 C10 1_555 1_555
C11 C9 1_555 1_555
C12 C11 1_555 1_555
H9 C12 1_555 1_555
C13 C12 1_555 1_555
H10 C13 1_555 1_555
C14 C13 1_555 1_555
H11 C14 1_555 1_555
C15 C14 1_555 1_555
H12 C15 1_555 1_555
C16 C11 1_555 1_555
H13 C16 1_555 1_555
C17 C1 1_555 1_555
C18 C17 1_555 1_555
H14 C18 1_555 1_555
C19 C18 1_555 1_555
H15 C19 1_555 1_555
C20 C19 1_555 1_555
H16 C20 1_555 1_555
C21 C20 1_555 1_555
H17 C21 1_555 1_555
C22 C17 1_555 1_555
H18 C22 1_555 1_555
H19 N1 1_555 1_555
C3 C8 1_555 1_555
C7 C8 1_555 1_555
C15 C16 1_555 1_555
C21 C22 1_555 1_555

#END
