
#######################################################################
#
#                 Cambridge Crystallographic Data Centre
#                                CCDC 
#
#######################################################################
#
# If this CIF has been generated from an entry in the Cambridge 
# Structural Database, then it will include bibliographic, chemical, 
# crystal, experimental, refinement or atomic coordinate data resulting 
# from the CCDC's data processing and validation procedures.
#
#######################################################################

data_TESGUV
_chemical_formula_moiety         'C7 H8 N2 O1 S1'
_chemical_name_systematic        
2-Amino-5,6-dihydro-1,3-benzothiazol-7(4H)-one
_symmetry_cell_setting           monoclinic
_symmetry_space_group_name_H-M   'P 21/c'
_symmetry_Int_Tables_number      14
_space_group_name_Hall           '-P 2ybc'
loop_
_symmetry_equiv_pos_site_id
_symmetry_equiv_pos_as_xyz
1 x,y,z
2 -x,1/2+y,1/2-z
3 -x,-y,-z
4 x,1/2-y,1/2+z
_cell_length_a                   6.432(3)
_cell_length_b                   14.898(8)
_cell_length_c                   8.165(4)
_cell_angle_alpha                90
_cell_angle_beta                 95.294(5)
_cell_angle_gamma                90
_cell_volume                     779.065
_exptl_crystal_colour            yellow
_exptl_crystal_description       block
_cell_formula_units_Z            4
_exptl_crystal_recrystallization_method 'ethyl acetate'
loop_
_atom_site_label
_atom_site_type_symbol
_atom_site_fract_x
_atom_site_fract_y
_atom_site_fract_z
S1 S 0.42627(6) 0.34365(3) 0.19895(6)
N1 N 0.0693(2) 0.37974(9) 0.03834(16)
C1 C 0.0776(2) 0.28916(10) 0.05926(18)
C2 C 0.2437(2) 0.41764(10) 0.10505(19)
C3 C 0.2559(2) 0.25637(10) 0.14220(19)
N2 N 0.2771(2) 0.50533(10) 0.1001(2)
C4 C 0.2960(3) 0.16338(11) 0.1750(2)
O1 O 0.4578(2) 0.13718(10) 0.2504(2)
C5 C -0.0960(3) 0.22909(12) -0.0036(2)
H1 H -0.0890 0.2190 -0.1203
H2 H -0.2283 0.2579 0.0108
C6 C 0.1267(3) 0.10004(12) 0.1099(3)
H3 H 0.1626 0.0762 0.0056
H4 H 0.1228 0.0501 0.1857
C7 C -0.0856(4) 0.14013(15) 0.0851(5)
H5 H -0.1382 0.1481 0.1917
H6 H -0.1774 0.0981 0.0232
H7 H 0.384(3) 0.5289(14) 0.150(2)
H8 H 0.191(4) 0.5371(17) 0.065(3)
C8? C -0.0417(14) 0.1381(5) -0.0148(14)
H9? H -0.2064 0.2334 0.0694
H10? H -0.1519 0.2507 -0.1108
H11? H 0.0029 0.1282 -0.1236
H12? H -0.1675 0.1029 -0.0074
H13? H 0.0567 0.0781 0.2023
H14? H 0.1918 0.0488 0.0620
loop_
_geom_bond_atom_site_label_1
_geom_bond_atom_site_label_2
_geom_bond_site_symmetry_1
_geom_bond_site_symmetry_2
S1 C2 1_555 1_555
N1 C1 1_555 1_555
C1 C3 1_555 1_555
C2 N1 1_555 1_555
C3 S1 1_555 1_555
N2 C2 1_555 1_555
C4 C3 1_555 1_555
O1 C4 1_555 1_555
C5 C1 1_555 1_555
H1 C5 1_555 1_555
H2 C5 1_555 1_555
C6 C4 1_555 1_555
H3 C6 1_555 1_555
H4 C6 1_555 1_555
C7 C5 1_555 1_555
H5 C7 1_555 1_555
H6 C7 1_555 1_555
H7 N2 1_555 1_555
H8 N2 1_555 1_555
C6 C7 1_555 1_555

#END
