
#######################################################################
#
#                 Cambridge Crystallographic Data Centre
#                                CCDC 
#
#######################################################################
#
# If this CIF has been generated from an entry in the Cambridge 
# Structural Database, then it will include bibliographic, chemical, 
# crystal, experimental, refinement or atomic coordinate data resulting 
# from the CCDC's data processing and validation procedures.
#
#######################################################################

data_TESMUB
_chemical_name_common            (E)-1,2-bis(9-n-Hexyl-9H-carbazol-3-yl)ethane
_chemical_formula_moiety         'C38 H42 N2'
_chemical_name_systematic        
(E)-3,3'-Ethene-1,2-diylbis(9-hexyl-9H-carbazole)
_symmetry_cell_setting           monoclinic
_symmetry_space_group_name_H-M   'P 21/c'
_symmetry_Int_Tables_number      14
_space_group_name_Hall           '-P 2ybc'
loop_
_symmetry_equiv_pos_site_id
_symmetry_equiv_pos_as_xyz
1 x,y,z
2 -x,1/2+y,1/2-z
3 -x,-y,-z
4 x,1/2-y,1/2+z
_cell_length_a                   5.1381(4)
_cell_length_b                   14.2379(10)
_cell_length_c                   21.3724(15)
_cell_angle_alpha                90
_cell_angle_beta                 92.359(4)
_cell_angle_gamma                90
_cell_volume                     1562.19
_exptl_crystal_colour            colorless
_exptl_crystal_description       block
_chemical_melting_point          '191 deg.C'
_cell_formula_units_Z            2
_exptl_crystal_recrystallization_method dichloromethane/n-hexane
loop_
_atom_site_label
_atom_site_type_symbol
_atom_site_fract_x
_atom_site_fract_y
_atom_site_fract_z
C1 C 0.1071(5) 0.57777(18) 0.30426(12)
C2 C 0.3913(5) 0.69607(18) 0.28587(13)
C3 C 0.2184(5) 0.68540(18) 0.23370(13)
C4 C 0.3212(5) 0.62603(19) 0.33113(12)
C5 C 0.3017(7) 0.5238(2) 0.42145(13)
C6 C 0.0900(6) 0.4804(2) 0.39352(15)
H1 H 0.0110 0.4318 0.4148
C7 C 0.4200(6) 0.5977(2) 0.39056(13)
H2 H 0.5634 0.6282 0.4092
C8 C 0.2376(6) 0.7399(2) 0.18047(15)
H3 H 0.1229 0.7322 0.1460
C9 C -0.0095(6) 0.5051(2) 0.33625(14)
H4 H -0.1537 0.4740 0.3186
C10 C 0.5841(6) 0.7632(2) 0.28482(17)
H5 H 0.6988 0.7716 0.3192
C11 C 0.6038(7) 0.8175(2) 0.23244(19)
H6 H 0.7337 0.8629 0.2315
N1 N 0.0456(4) 0.61411(16) 0.24563(10)
C12 C -0.1520(5) 0.5771(2) 0.20161(13)
H7 H -0.2229 0.6282 0.1762
H8 H -0.2930 0.5506 0.2248
C13 C -0.0465(7) 0.5027(3) 0.15933(16)
H9 H 0.0972 0.5291 0.1371
H10 H 0.0217 0.4514 0.1849
C14 C -0.2422(8) 0.4647(3) 0.11291(18)
H11 H -0.3006 0.5146 0.0848
H12 H -0.3920 0.4420 0.1346
C15 C -0.1091(19) 0.2631(5) -0.0017(3)
H13 H 0.0425 0.2893 -0.0199
H14 H -0.2204 0.2360 -0.0341
H15 H -0.0570 0.2154 0.0280
C16 C -0.1270(15) 0.3835(5) 0.0744(3)
H16 H 0.0268 0.4082 0.0553
H17 H -0.0669 0.3361 0.1043
C17 C -0.258(2) 0.3414(6) 0.0320(4)
H18 H -0.3186 0.3872 0.0011
H19 H -0.4103 0.3140 0.0501
C18 C 0.4018(6) 0.4863(3) 0.48526(17)
H20 H 0.3057 0.4388 0.5032
C19 C 0.4344(7) 0.8063(2) 0.18059(18)
H21 H 0.4535 0.8439 0.1455
C1B C 0.8929(5) 0.42223(18) 0.69574(12)
C2B C 0.6087(5) 0.30393(18) 0.71413(13)
C3B C 0.7816(5) 0.31460(18) 0.76630(13)
C4B C 0.6788(5) 0.37397(19) 0.66887(12)
C5B C 0.6983(7) 0.4762(2) 0.57855(13)
C6B C 0.9100(6) 0.5196(2) 0.60648(15)
H1B H 0.9890 0.5682 0.5852
C7B C 0.5800(6) 0.4023(2) 0.60944(13)
H2B H 0.4366 0.3718 0.5908
C8B C 0.7624(6) 0.2601(2) 0.81953(15)
H3B H 0.8771 0.2678 0.8540
C9B C 1.0095(6) 0.4949(2) 0.66375(14)
H4B H 1.1537 0.5260 0.6814
C10B C 0.4159(6) 0.2368(2) 0.71518(17)
H5B H 0.3012 0.2284 0.6808
C11B C 0.3962(7) 0.1825(2) 0.76756(19)
H6B H 0.2663 0.1371 0.7685
N1B N 0.9544(4) 0.38589(16) 0.75437(10)
C12B C 1.1520(5) 0.4229(2) 0.79839(13)
H7B H 1.2229 0.3718 0.8238
H8B H 1.2930 0.4494 0.7752
C13B C 1.0465(7) 0.4973(3) 0.84067(16)
H9B H 0.9028 0.4709 0.8629
H10B H 0.9783 0.5486 0.8151
C14B C 1.2422(8) 0.5353(3) 0.88709(18)
H11B H 1.3006 0.4854 0.9152
H12B H 1.3920 0.5580 0.8654
C15B C 1.1091(19) 0.7369(5) 1.0017(3)
H13B H 0.9575 0.7107 1.0199
H14B H 1.2204 0.7640 1.0341
H15B H 1.0570 0.7846 0.9720
C16B C 1.1270(15) 0.6165(5) 0.9256(3)
H16B H 0.9732 0.5918 0.9447
H17B H 1.0669 0.6639 0.8957
C17B C 1.258(2) 0.6586(6) 0.9680(4)
H18B H 1.3186 0.6128 0.9989
H19B H 1.4103 0.6860 0.9499
C18B C 0.5982(6) 0.5137(3) 0.51474(17)
H20B H 0.6943 0.5612 0.4968
C19B C 0.5656(7) 0.1937(2) 0.81941(18)
H21B H 0.5465 0.1561 0.8545
loop_
_geom_bond_atom_site_label_1
_geom_bond_atom_site_label_2
_geom_bond_site_symmetry_1
_geom_bond_site_symmetry_2
C1 C4 1_555 1_555
C2 C3 1_555 1_555
C3 C8 1_555 1_555
C4 C2 1_555 1_555
C5 C6 1_555 1_555
C6 H1 1_555 1_555
C7 C4 1_555 1_555
H2 C7 1_555 1_555
C8 H3 1_555 1_555
C9 C1 1_555 1_555
H4 C9 1_555 1_555
C10 C2 1_555 1_555
H5 C10 1_555 1_555
C11 C10 1_555 1_555
H6 C11 1_555 1_555
N1 C1 1_555 1_555
C12 N1 1_555 1_555
H7 C12 1_555 1_555
H8 C12 1_555 1_555
C13 C12 1_555 1_555
H9 C13 1_555 1_555
H10 C13 1_555 1_555
C14 C13 1_555 1_555
H11 C14 1_555 1_555
H12 C14 1_555 1_555
C15 H13 1_555 1_555
H14 C15 1_555 1_555
H15 C15 1_555 1_555
C16 C14 1_555 1_555
H16 C16 1_555 1_555
H17 C16 1_555 1_555
C17 C15 1_555 1_555
H18 C17 1_555 1_555
H19 C17 1_555 1_555
C18 C5 1_555 1_555
H20 C18 1_555 1_555
C19 C8 1_555 1_555
H21 C19 1_555 1_555
C1B C4B 1_555 1_555
C2B C3B 1_555 1_555
C3B C8B 1_555 1_555
C4B C2B 1_555 1_555
C5B C6B 1_555 1_555
C6B H1B 1_555 1_555
C7B C4B 1_555 1_555
H2B C7B 1_555 1_555
C8B H3B 1_555 1_555
C9B C1B 1_555 1_555
H4B C9B 1_555 1_555
C10B C2B 1_555 1_555
H5B C10B 1_555 1_555
C11B C10B 1_555 1_555
H6B C11B 1_555 1_555
N1B C1B 1_555 1_555
C12B N1B 1_555 1_555
H7B C12B 1_555 1_555
H8B C12B 1_555 1_555
C13B C12B 1_555 1_555
H9B C13B 1_555 1_555
H10B C13B 1_555 1_555
C14B C13B 1_555 1_555
H11B C14B 1_555 1_555
H12B C14B 1_555 1_555
C15B H13B 1_555 1_555
H14B C15B 1_555 1_555
H15B C15B 1_555 1_555
C16B C14B 1_555 1_555
H16B C16B 1_555 1_555
H17B C16B 1_555 1_555
C17B C15B 1_555 1_555
H18B C17B 1_555 1_555
H19B C17B 1_555 1_555
C18B C18 1_555 1_555
H20B C18B 1_555 1_555
C19B C8B 1_555 1_555
H21B C19B 1_555 1_555
C3 N1 1_555 1_555
C5 C7 1_555 1_555
C6 C9 1_555 1_555
C11 C19 1_555 1_555
C16 C17 1_555 1_555
C3B N1B 1_555 1_555
C5B C7B 1_555 1_555
C5B C18B 1_555 1_555
C6B C9B 1_555 1_555
C11B C19B 1_555 1_555
C16B C17B 1_555 1_555

#END
