
#######################################################################
#
#                 Cambridge Crystallographic Data Centre
#                                CCDC 
#
#######################################################################
#
# If this CIF has been generated from an entry in the Cambridge 
# Structural Database, then it will include bibliographic, chemical, 
# crystal, experimental, refinement or atomic coordinate data resulting 
# from the CCDC's data processing and validation procedures.
#
#######################################################################

data_TESPAK
_chemical_name_common            
3-Bromo-5-((E)-(2-chlorobenzylidene)amino)pyridin-4-amine
_chemical_formula_moiety         'C12 H9 Br1 Cl1 N3'
_chemical_name_systematic        
trans-N^3^-(2-Chlorobenzylidene)-5-bromopyridine-3,4-diamine
_symmetry_cell_setting           monoclinic
_symmetry_space_group_name_H-M   'P 21/n'
_symmetry_Int_Tables_number      14
_space_group_name_Hall           '-P 2yn'
loop_
_symmetry_equiv_pos_site_id
_symmetry_equiv_pos_as_xyz
1 x,y,z
2 1/2-x,1/2+y,1/2-z
3 -x,-y,-z
4 1/2+x,1/2-y,1/2+z
_cell_length_a                   3.8743(5)
_cell_length_b                   22.229(2)
_cell_length_c                   13.631(1)
_cell_angle_alpha                90
_cell_angle_beta                 98.103(6)
_cell_angle_gamma                90
_cell_volume                     1162.21
_exptl_crystal_colour            colorless
_exptl_crystal_description       prism
_cell_formula_units_Z            4
loop_
_atom_site_label
_atom_site_type_symbol
_atom_site_fract_x
_atom_site_fract_y
_atom_site_fract_z
Br1 Br 0.17191(5) 0.170047(7) 0.491498(13)
Cl1 Cl 0.96788(13) 0.46929(2) 0.11479(3)
N1 N 0.4964(5) 0.30129(6) 0.50575(10)
H1 H 0.490(6) 0.2827(9) 0.5566(16)
H2 H 0.604(7) 0.3334(9) 0.5086(17)
N2 N 0.1216(4) 0.24569(6) 0.21532(10)
N3 N 0.5194(4) 0.37940(6) 0.35125(10)
C1 C 0.1044(4) 0.20970(7) 0.29343(12)
H3 H 0.0060 0.1708 0.2815
C2 C 0.2216(4) 0.22595(6) 0.39022(11)
C3 C 0.3741(4) 0.28247(6) 0.41312(11)
C4 C 0.3942(4) 0.32052(6) 0.33035(11)
C5 C 0.2645(5) 0.30018(7) 0.23557(11)
H4 H 0.2781 0.3267 0.1815
C6 C 0.6647(4) 0.40752(6) 0.28599(11)
H5 H 0.7058 0.3870 0.2276
C7 C 0.7693(4) 0.47098(6) 0.29959(11)
C8 C 0.9020(4) 0.50365(7) 0.22539(11)
C9 C 0.9888(5) 0.56431(7) 0.23757(13)
H6 H 1.0738 0.5859 0.1858
C10 C 0.9502(4) 0.59275(7) 0.32546(13)
H7 H 1.0104 0.6340 0.3342
C11 C 0.8231(4) 0.56120(7) 0.40177(12)
H8 H 0.7996 0.5807 0.4625
C12 C 0.7320(4) 0.50119(7) 0.38766(12)
H9 H 0.6419 0.4800 0.4390
loop_
_geom_bond_atom_site_label_1
_geom_bond_atom_site_label_2
_geom_bond_site_symmetry_1
_geom_bond_site_symmetry_2
Br1 C2 1_555 1_555
Cl1 C8 1_555 1_555
N1 H1 1_555 1_555
H2 N1 1_555 1_555
N2 C1 1_555 1_555
N3 C4 1_555 1_555
C1 H3 1_555 1_555
C2 C1 1_555 1_555
C3 N1 1_555 1_555
C4 C3 1_555 1_555
C5 N2 1_555 1_555
H4 C5 1_555 1_555
C6 N3 1_555 1_555
H5 C6 1_555 1_555
C7 C6 1_555 1_555
C8 C7 1_555 1_555
C9 C8 1_555 1_555
H6 C9 1_555 1_555
C10 C9 1_555 1_555
H7 C10 1_555 1_555
C11 C10 1_555 1_555
H8 C11 1_555 1_555
C12 C7 1_555 1_555
H9 C12 1_555 1_555
C2 C3 1_555 1_555
C4 C5 1_555 1_555
C11 C12 1_555 1_555

#END
