
#######################################################################
#
#                 Cambridge Crystallographic Data Centre
#                                CCDC 
#
#######################################################################
#
# If this CIF has been generated from an entry in the Cambridge 
# Structural Database, then it will include bibliographic, chemical, 
# crystal, experimental, refinement or atomic coordinate data resulting 
# from the CCDC's data processing and validation procedures.
#
#######################################################################

data_TESPUE
_chemical_formula_moiety         'C11 H15 N2 O3 S1'
_chemical_name_systematic        
't-Butyl 3-(4-oxo-2-thioxo-3,4-dihydropyrimidin-1(2H)-yl)propanoate'
_symmetry_cell_setting           monoclinic
_symmetry_space_group_name_H-M   'P 21/c'
_symmetry_Int_Tables_number      14
_space_group_name_Hall           '-P 2ybc'
loop_
_symmetry_equiv_pos_site_id
_symmetry_equiv_pos_as_xyz
1 x,y,z
2 -x,1/2+y,1/2-z
3 -x,-y,-z
4 x,1/2-y,1/2+z
_cell_length_a                   11.8521(16)
_cell_length_b                   7.4670(10)
_cell_length_c                   15.548(2)
_cell_angle_alpha                90
_cell_angle_beta                 103.983(2)
_cell_angle_gamma                90
_cell_volume                     1335.22
_exptl_crystal_colour            colorless
_exptl_crystal_description       block
_cell_formula_units_Z            4
loop_
_atom_site_label
_atom_site_type_symbol
_atom_site_fract_x
_atom_site_fract_y
_atom_site_fract_z
S1 S 0.13557(18) 0.3350(3) 0.05778(14)
O1 O 0.0069(6) 0.7479(8) 0.2589(4)
O2 O 0.3837(5) 0.8988(9) 0.0928(5)
O3 O 0.5223(5) 0.6877(8) 0.1101(4)
N1 N 0.1575(5) 0.6922(8) 0.0567(4)
N2 N 0.0715(5) 0.5732(8) 0.1627(4)
C1 C 0.7127(9) 0.6620(19) 0.1924(9)
H1 H 0.6883 0.5507 0.2130
H2 H 0.7746 0.7122 0.2375
H3 H 0.7397 0.6412 0.1398
C2 C 0.6401(11) 0.957(2) 0.1287(8)
H4 H 0.6625 0.9279 0.0751
H5 H 0.7026 1.0196 0.1682
H6 H 0.5724 1.0324 0.1151
C3 C 0.5743(9) 0.8290(16) 0.2557(6)
H7 H 0.5079 0.9068 0.2419
H8 H 0.6363 0.8866 0.2979
H9 H 0.5539 0.7194 0.2804
C4 C 0.6133(7) 0.7887(13) 0.1723(6)
C5 C 0.4166(7) 0.7548(12) 0.0764(5)
C6 C 0.3431(7) 0.6209(11) 0.0155(5)
H10 H 0.3473 0.5070 0.0461
H11 H 0.3752 0.6040 -0.0357
C7 C 0.2156(7) 0.6753(11) -0.0163(5)
H12 H 0.2109 0.7890 -0.0472
H13 H 0.1750 0.5866 -0.0581
C8 C 0.1329(7) 0.8595(10) 0.0833(5)
H14 H 0.1548 0.9586 0.0550
C9 C 0.0795(7) 0.8861(9) 0.1472(5)
H15 H 0.0612 1.0021 0.1608
C10 C 0.0492(6) 0.7385(10) 0.1961(5)
C11 C 0.1206(6) 0.5441(10) 0.0932(5)
loop_
_geom_bond_atom_site_label_1
_geom_bond_atom_site_label_2
_geom_bond_site_symmetry_1
_geom_bond_site_symmetry_2
S1 C11 1_555 1_555
O1 C10 1_555 1_555
O2 C5 1_555 1_555
O3 C4 1_555 1_555
N1 C7 1_555 1_555
N2 C10 1_555 1_555
C1 H1 1_555 1_555
H2 C1 1_555 1_555
H3 C1 1_555 1_555
C2 H4 1_555 1_555
H5 C2 1_555 1_555
H6 C2 1_555 1_555
C3 H7 1_555 1_555
H8 C3 1_555 1_555
H9 C3 1_555 1_555
C4 C1 1_555 1_555
C5 O3 1_555 1_555
C6 C5 1_555 1_555
H10 C6 1_555 1_555
H11 C6 1_555 1_555
C7 C6 1_555 1_555
H12 C7 1_555 1_555
H13 C7 1_555 1_555
C8 N1 1_555 1_555
H14 C8 1_555 1_555
C9 C8 1_555 1_555
H15 C9 1_555 1_555
C10 C9 1_555 1_555
C11 N1 1_555 1_555
N2 C11 1_555 1_555
C2 C4 1_555 1_555
C3 C4 1_555 1_555

#END
