
#######################################################################
#
#                 Cambridge Crystallographic Data Centre
#                                CCDC 
#
#######################################################################
#
# If this CIF has been generated from an entry in the Cambridge 
# Structural Database, then it will include bibliographic, chemical, 
# crystal, experimental, refinement or atomic coordinate data resulting 
# from the CCDC's data processing and validation procedures.
#
#######################################################################

data_TESSES
_chemical_compound_source        'aerial parts of Salvia hispanica'
_chemical_name_common            'salvihispin A'
_chemical_formula_moiety         'C20 H24 O5'
_chemical_name_systematic        
7-(2-(3-furyl)-2-hydroxyethyl)-5-hydroxy-7-methyl-8-methylene-6,6a,7,8,9,10-hexahydronaphtho[1,8a-c]furan-3(5H)-one
_symmetry_cell_setting           orthorhombic
_symmetry_space_group_name_H-M   'P 21 21 21'
_symmetry_Int_Tables_number      19
_space_group_name_Hall           'P 2ac 2ab'
loop_
_symmetry_equiv_pos_site_id
_symmetry_equiv_pos_as_xyz
1 x,y,z
2 1/2+x,1/2-y,-z
3 -x,1/2+y,1/2-z
4 1/2-x,-y,1/2+z
_cell_length_a                   7.5775(2)
_cell_length_b                   8.9612(2)
_cell_length_c                   24.9985(7)
_cell_angle_alpha                90
_cell_angle_beta                 90
_cell_angle_gamma                90
_cell_volume                     1697.49
_exptl_crystal_colour            colorless
_exptl_crystal_description       prism
_cell_formula_units_Z            4
loop_
_atom_site_label
_atom_site_type_symbol
_atom_site_fract_x
_atom_site_fract_y
_atom_site_fract_z
O1 O 0.6627(3) 0.9637(2) 0.99308(7)
O2 O 0.7034(3) 0.7198(2) 1.00679(7)
O3 O 0.5822(2) 0.0483(2) 0.78047(7)
H1 H 0.4747 0.0535 0.7885
O4 O 1.1631(3) 0.0535(3) 0.80793(9)
O5 O 0.4604(3) 0.7599(2) 0.80116(7)
H2 H 0.4076 0.7065 0.7787
C1 C 0.4703(4) 0.8341(3) 0.89491(10)
H3 H 0.4311 0.9332 0.9014
C2 C 0.3807(3) 0.7408(3) 0.85284(10)
H4 H 0.2535 0.7700 0.8507
C3 C 0.3931(3) 0.5758(3) 0.86830(10)
H5 H 0.3280 0.5584 0.9021
H6 H 0.3385 0.5137 0.8400
C4 C 0.5865(3) 0.5314(3) 0.87543(9)
H7 H 0.6442 0.5603 0.8410
C5 C 0.6269(3) 0.3608(3) 0.88156(10)
C6 C 0.6172(3) 0.2907(3) 0.82456(10)
H8 H 0.4928 0.2933 0.8125
H9 H 0.6864 0.3541 0.7998
C7 C 0.6848(3) 0.1288(3) 0.81963(10)
H10 H 0.6679 0.0789 0.8550
C8 C 0.8787(4) 0.1204(3) 0.80562(10)
C9 C 0.9703(4) 0.1949(3) 0.76350(11)
H11 H 0.9210 0.2622 0.7382
C10 C 1.1396(4) 0.1517(4) 0.76656(12)
H12 H 1.2305 0.1846 0.7432
C11 C 0.6581(4) 0.8381(3) 0.97595(11)
C12 C 0.6664(4) 0.5809(3) 0.97762(10)
H13 H 0.5468 0.5432 0.9861
H14 H 0.7540 0.5029 0.9867
C13 C 0.6804(4) 0.6253(3) 0.91780(10)
C14 C 1.0003(4) 0.0368(3) 0.83069(12)
H15 H 0.9762 -0.0260 0.8604
C15 C 0.4923(4) 0.2829(3) 0.91750(10)
H16 H 0.5291 0.1794 0.9236
H17 H 0.3763 0.2840 0.9001
H18 H 0.4851 0.3353 0.9518
C16 C 0.8163(4) 0.3502(3) 0.90279(10)
C17 C 0.8713(4) 0.2483(3) 0.93730(11)
H19 H 0.9895 0.2506 0.9500
H20 H 0.7927 0.1729 0.9494
C18 C 0.9382(3) 0.4712(3) 0.88289(11)
H21 H 0.9424 0.4681 0.8433
H22 H 1.0589 0.4522 0.8964
C19 C 0.8779(4) 0.6287(3) 0.90109(11)
H23 H 0.8945 0.7007 0.8715
H24 H 0.9509 0.6619 0.9317
C20 C 0.6033(4) 0.7789(3) 0.92296(10)
loop_
_geom_bond_atom_site_label_1
_geom_bond_atom_site_label_2
_geom_bond_site_symmetry_1
_geom_bond_site_symmetry_2
O1 C11 1_555 1_555
O2 C11 1_555 1_555
O3 H1 1_555 1_555
O4 C10 1_555 1_555
O5 H2 1_555 1_555
C1 H3 1_555 1_555
C2 O5 1_555 1_555
H4 C2 1_555 1_555
C3 C2 1_555 1_555
H5 C3 1_555 1_555
H6 C3 1_555 1_555
C4 C3 1_555 1_555
H7 C4 1_555 1_555
C5 C4 1_555 1_555
C6 C5 1_555 1_555
H8 C6 1_555 1_555
H9 C6 1_555 1_555
C7 O3 1_555 1_555
H10 C7 1_555 1_555
C8 C7 1_555 1_555
C9 C8 1_555 1_555
H11 C9 1_555 1_555
C10 C9 1_555 1_555
H12 C10 1_555 1_555
C11 C20 1_555 1_555
C12 O2 1_555 1_555
H13 C12 1_555 1_555
H14 C12 1_555 1_555
C13 C4 1_555 1_555
C14 O4 1_555 1_555
H15 C14 1_555 1_555
C15 C5 1_555 1_555
H16 C15 1_555 1_555
H17 C15 1_555 1_555
H18 C15 1_555 1_555
C16 C5 1_555 1_555
C17 C16 1_555 1_555
H19 C17 1_555 1_555
H20 C17 1_555 1_555
C18 C16 1_555 1_555
H21 C18 1_555 1_555
H22 C18 1_555 1_555
C19 C13 1_555 1_555
H23 C19 1_555 1_555
H24 C19 1_555 1_555
C20 C1 1_555 1_555
C1 C2 1_555 1_555
C6 C7 1_555 1_555
C8 C14 1_555 1_555
C12 C13 1_555 1_555
C13 C20 1_555 1_555
C18 C19 1_555 1_555

#END
