
#######################################################################
#
#                 Cambridge Crystallographic Data Centre
#                                CCDC 
#
#######################################################################
#
# If this CIF has been generated from an entry in the Cambridge 
# Structural Database, then it will include bibliographic, chemical, 
# crystal, experimental, refinement or atomic coordinate data resulting 
# from the CCDC's data processing and validation procedures.
#
#######################################################################

data_TESYIC
_chemical_formula_moiety         'C20 H15 N3 O2 S2'
_chemical_name_systematic        
N'-{[3-(1,3-benzothiazol-2-yl)-2-hydroxy-5-methylphenyl]methylidene}thiophene-2-carbohydrazide
_symmetry_cell_setting           triclinic
_symmetry_space_group_name_H-M   'P -1'
_symmetry_Int_Tables_number      2
_space_group_name_Hall           '-P 1'
loop_
_symmetry_equiv_pos_site_id
_symmetry_equiv_pos_as_xyz
1 x,y,z
2 -x,-y,-z
_cell_length_a                   7.989(15)
_cell_length_b                   7.996(15)
_cell_length_c                   14.42(3)
_cell_angle_alpha                92.42(2)
_cell_angle_beta                 102.33(2)
_cell_angle_gamma                91.94(2)
_cell_volume                     898.233
_exptl_crystal_colour            white
_exptl_crystal_description       Block
_cell_formula_units_Z            2
loop_
_atom_site_label
_atom_site_type_symbol
_atom_site_fract_x
_atom_site_fract_y
_atom_site_fract_z
C1 C 0.2186(4) 0.2860(4) 0.3007(2)
C2 C 0.2218(5) 0.2183(5) 0.2108(3)
H1 H 0.2591 0.2826 0.1662
C3 C 0.1680(5) 0.0533(5) 0.1900(3)
H2 H 0.1697 0.0051 0.1304
C4 C 0.1106(5) -0.0440(5) 0.2566(3)
H3 H 0.0760 -0.1557 0.2407
C5 C 0.1047(5) 0.0233(5) 0.3448(3)
H4 H 0.0652 -0.0410 0.3886
C6 C 0.1593(4) 0.1897(4) 0.3673(2)
C7 C 0.2245(4) 0.4288(4) 0.4548(2)
C8 C 0.2463(4) 0.5450(4) 0.5374(2)
C9 C 0.3155(4) 0.7076(4) 0.5366(2)
H5 H 0.3446 0.7425 0.4812
C10 C 0.3423(4) 0.8189(4) 0.6151(2)
C11 C 0.4150(5) 0.9932(4) 0.6134(2)
H6 H 0.4235 1.0500 0.6743
H7 H 0.5269 0.9890 0.5992
H8 H 0.3412 1.0525 0.5655
C12 C 0.2952(4) 0.7628(4) 0.6961(2)
H9 H 0.3125 0.8353 0.7497
C13 C 0.2239(4) 0.6038(4) 0.7010(2)
C14 C 0.1982(4) 0.4925(4) 0.6200(2)
C15 C 0.1671(4) 0.5544(4) 0.7862(2)
H10 H 0.0841 0.4684 0.7821
C16 C 0.2382(4) 0.6287(4) 1.0308(2)
C17 C 0.4087(4) 0.7105(4) 1.0539(2)
C18 C 0.4940(4) 0.7429(4) 1.1523(2)
H11 H 0.4497 0.7209 1.2053
C19 C 0.6613(5) 0.8160(5) 1.1520(3)
H12 H 0.7403 0.8488 1.2076
C20 C 0.6948(5) 0.8334(6) 1.0649(3)
H13 H 0.7987 0.8775 1.0555
N1 N 0.1637(3) 0.2745(3) 0.45394(18)
N2 N 0.2319(3) 0.6295(3) 0.86571(18)
N3 N 0.1604(4) 0.5849(4) 0.94026(18)
H14 H 0.0642 0.5281 0.9289
O1 O 0.1285(3) 0.3380(3) 0.62680(16)
H15 H 0.1195 0.2839 0.5763
O2 O 0.1637(3) 0.5937(3) 1.09566(16)
S1 S 0.28108(11) 0.48558(11) 0.34921(6)
S2 S 0.53296(14) 0.76871(15) 0.97587(8)
loop_
_geom_bond_atom_site_label_1
_geom_bond_atom_site_label_2
_geom_bond_site_symmetry_1
_geom_bond_site_symmetry_2
C1 C2 1_555 1_555
C2 H1 1_555 1_555
C3 C2 1_555 1_555
H2 C3 1_555 1_555
C4 C3 1_555 1_555
H3 C4 1_555 1_555
C5 C4 1_555 1_555
H4 C5 1_555 1_555
C6 C1 1_555 1_555
C7 C8 1_555 1_555
C8 C9 1_555 1_555
C9 H5 1_555 1_555
C10 C9 1_555 1_555
C11 C10 1_555 1_555
H6 C11 1_555 1_555
H7 C11 1_555 1_555
H8 C11 1_555 1_555
C12 C10 1_555 1_555
H9 C12 1_555 1_555
C13 C12 1_555 1_555
C14 C8 1_555 1_555
C15 C13 1_555 1_555
H10 C15 1_555 1_555
C16 C17 1_555 1_555
C17 C18 1_555 1_555
C18 H11 1_555 1_555
C19 C18 1_555 1_555
H12 C19 1_555 1_555
C20 C19 1_555 1_555
H13 C20 1_555 1_555
N1 C6 1_555 1_555
N2 C15 1_555 1_555
N3 C16 1_555 1_555
H14 N3 1_555 1_555
O1 C14 1_555 1_555
H15 O1 1_555 1_555
O2 C16 1_555 1_555
S1 C1 1_555 1_555
S2 C17 1_555 1_555
C5 C6 1_555 1_555
C7 N1 1_555 1_555
C7 S1 1_555 1_555
C13 C14 1_555 1_555
C20 S2 1_555 1_555
N2 N3 1_555 1_555

#END
