
#######################################################################
#
#                 Cambridge Crystallographic Data Centre
#                                CCDC 
#
#######################################################################
#
# If this CIF has been generated from an entry in the Cambridge 
# Structural Database, then it will include bibliographic, chemical, 
# crystal, experimental, refinement or atomic coordinate data resulting 
# from the CCDC's data processing and validation procedures.
#
#######################################################################

data_TESZID
_chemical_formula_moiety         'C20 H16 O7 S1'
_chemical_name_systematic        
'4-({[(2-oxo-2H-1-benzopyran-7-yl)oxy]sulfonyl}methyl)phenyl cyclopropanecarboxylate'
_symmetry_cell_setting           orthorhombic
_symmetry_space_group_name_H-M   'P b c a'
_symmetry_Int_Tables_number      61
_space_group_name_Hall           '-P 2ac 2ab'
loop_
_symmetry_equiv_pos_site_id
_symmetry_equiv_pos_as_xyz
1 x,y,z
2 1/2-x,-y,1/2+z
3 -x,1/2+y,1/2-z
4 1/2+x,1/2-y,-z
5 -x,-y,-z
6 1/2+x,y,1/2-z
7 x,1/2-y,1/2+z
8 1/2-x,1/2+y,z
_cell_length_a                   21.475(6)
_cell_length_b                   7.148(2)
_cell_length_c                   23.269(7)
_cell_angle_alpha                90
_cell_angle_beta                 90
_cell_angle_gamma                90
_cell_volume                     3571.87
_exptl_crystal_colour            colorless
_exptl_crystal_description       rod
_cell_formula_units_Z            8
loop_
_atom_site_label
_atom_site_type_symbol
_atom_site_fract_x
_atom_site_fract_y
_atom_site_fract_z
S1 S 0.61162(3) 0.35690(10) 0.63705(3)
O1 O 0.62623(9) 0.1822(3) 0.67830(9)
O2 O 0.82698(9) 0.2228(3) 0.76106(9)
O3 O 0.43577(9) 1.0110(3) 0.52975(9)
O4 O 0.33757(9) 0.8978(3) 0.53299(9)
O5 O 0.66338(9) 0.4809(3) 0.63765(9)
O6 O 0.59220(10) 0.2714(3) 0.58468(9)
O7 O 0.92242(10) 0.2318(4) 0.79516(11)
C1 C 0.73770(14) 0.2599(4) 0.82258(12)
C2 C 0.66424(13) 0.2125(4) 0.72685(12)
C3 C 0.76341(13) 0.2294(4) 0.76869(12)
C4 C 0.45923(12) 0.8690(4) 0.56539(12)
C5 C 0.72747(13) 0.2052(4) 0.72004(12)
H1 H 0.7455 0.1849 0.6842
C6 C 0.37472(13) 1.0078(4) 0.51332(12)
C7 C 0.51594(12) 0.6053(4) 0.63426(12)
C8 C 0.52086(13) 0.7922(4) 0.64714(12)
H2 H 0.5438 0.8296 0.6791
C9 C 0.48226(13) 0.5510(4) 0.58601(12)
H3 H 0.4787 0.4246 0.5770
C10 C 0.49176(13) 0.9272(5) 0.61274(13)
H4 H 0.4945 1.0536 0.6219
C11 C 0.63548(14) 0.2386(4) 0.77938(13)
H5 H 0.5923 0.2394 0.7824
C12 C 0.45387(13) 0.6832(4) 0.55114(13)
H6 H 0.4316 0.6467 0.5187
C13 C 0.54665(12) 0.4597(4) 0.67179(12)
H7 H 0.5166 0.3630 0.6812
H8 H 0.5601 0.5174 0.7074
C14 C 0.86769(14) 0.2435(4) 0.80671(14)
C15 C 0.67268(15) 0.2635(4) 0.82746(13)
H9 H 0.6544 0.2828 0.8632
C16 C 0.36234(14) 1.1548(5) 0.47172(13)
H10 H 0.3969 1.2397 0.4629
C17 C 0.77905(17) 0.2849(5) 0.87001(13)
H11 H 0.7630 0.3077 0.9065
C18 C 0.31865(13) 1.1087(5) 0.42308(13)
H12 H 0.3276 1.1624 0.3857
H13 H 0.3009 0.9840 0.4221
C19 C 0.84074(16) 0.2758(5) 0.86231(14)
H14 H 0.8669 0.2907 0.8938
C20 C 0.29741(14) 1.2367(5) 0.46904(14)
H15 H 0.2668 1.1900 0.4961
H16 H 0.2935 1.3685 0.4597
loop_
_geom_bond_atom_site_label_1
_geom_bond_atom_site_label_2
_geom_bond_site_symmetry_1
_geom_bond_site_symmetry_2
S1 O1 1_555 1_555
O1 C2 1_555 1_555
O2 C3 1_555 1_555
O3 C4 1_555 1_555
O4 C6 1_555 1_555
O5 S1 1_555 1_555
O6 S1 1_555 1_555
O7 C14 1_555 1_555
C1 C3 1_555 1_555
C2 C5 1_555 1_555
C3 C5 1_555 1_555
C4 C10 1_555 1_555
C5 H1 1_555 1_555
C6 O3 1_555 1_555
C7 C8 1_555 1_555
C8 H2 1_555 1_555
C9 C7 1_555 1_555
H3 C9 1_555 1_555
C10 C8 1_555 1_555
H4 C10 1_555 1_555
C11 C2 1_555 1_555
H5 C11 1_555 1_555
C12 C4 1_555 1_555
H6 C12 1_555 1_555
C13 S1 1_555 1_555
H7 C13 1_555 1_555
H8 C13 1_555 1_555
C14 O2 1_555 1_555
C15 C1 1_555 1_555
H9 C15 1_555 1_555
C16 C6 1_555 1_555
H10 C16 1_555 1_555
C17 C1 1_555 1_555
H11 C17 1_555 1_555
C18 C16 1_555 1_555
H12 C18 1_555 1_555
H13 C18 1_555 1_555
C19 C14 1_555 1_555
H14 C19 1_555 1_555
C20 C16 1_555 1_555
H15 C20 1_555 1_555
H16 C20 1_555 1_555
C7 C13 1_555 1_555
C9 C12 1_555 1_555
C11 C15 1_555 1_555
C17 C19 1_555 1_555
C18 C20 1_555 1_555

#END
