
#######################################################################
#
#                 Cambridge Crystallographic Data Centre
#                                CCDC 
#
#######################################################################
#
# If this CIF has been generated from an entry in the Cambridge 
# Structural Database, then it will include bibliographic, chemical, 
# crystal, experimental, refinement or atomic coordinate data resulting 
# from the CCDC's data processing and validation procedures.
#
#######################################################################

data_TETGUX
_chemical_formula_moiety         'C30 H22 N4 O4,1.5(C1 H4 O1)'
_chemical_name_systematic        
'3-(4-hydroxy-3-methoxyphenyl)-2-(7-oxo-5,6,7,13-tetrahydro-12H-indolo[2,3-a]pyrrolo[3,4-c]carbazol-12-yl)prop-2-enamide methanol solvate'
_symmetry_cell_setting           triclinic
_symmetry_space_group_name_H-M   'P -1'
_symmetry_Int_Tables_number      2
_space_group_name_Hall           '-P 1'
loop_
_symmetry_equiv_pos_site_id
_symmetry_equiv_pos_as_xyz
1 x,y,z
2 -x,-y,-z
_cell_length_a                   10.6126(3)
_cell_length_b                   11.4102(4)
_cell_length_c                   13.3071(5)
_cell_angle_alpha                95.819(3)
_cell_angle_beta                 112.387(3)
_cell_angle_gamma                111.273(3)
_cell_volume                     1333.67
_exptl_crystal_colour            yellow
_exptl_crystal_description       block
_cell_formula_units_Z            2
loop_
_atom_site_label
_atom_site_type_symbol
_atom_site_fract_x
_atom_site_fract_y
_atom_site_fract_z
O1 O 0.22214(17) 0.43062(14) 0.38883(12)
O2 O 1.05443(13) 0.86342(13) 1.01648(10)
O3 O 0.24280(14) 0.73072(13) 0.90556(12)
O4 O 0.33506(17) 0.88320(18) 1.11582(12)
H1 H 0.251830 0.862263 1.059469
N1 N 0.30506(19) 0.60615(17) 0.32212(13)
H2 H 0.240026 0.567064 0.250419
N2 N 0.65744(15) 0.71213(13) 0.81171(11)
N3 N 0.80089(16) 0.97841(14) 0.75333(12)
H3 H 0.857690 0.995770 0.826320
N4 N 0.93953(17) 0.74345(15) 0.83632(12)
H4 H 1.025704 0.747554 0.840104
H5 H 0.855334 0.700429 0.772945
C1 C 0.4177(2) 0.7409(2) 0.36174(15)
H6 H 0.370236 0.801650 0.346259
H7 H 0.487532 0.754434 0.326913
C2 C 0.3080(2) 0.5456(2) 0.40409(16)
C3 C 0.4322(2) 0.64292(18) 0.51112(15)
C4 C 0.4978(2) 0.75752(18) 0.48647(14)
C5 C 0.6202(2) 0.86821(17) 0.57183(14)
C6 C 0.67947(18) 0.86046(16) 0.68414(14)
C7 C 0.61478(18) 0.74287(16) 0.70862(13)
C8 C 0.48798(19) 0.63332(16) 0.62366(14)
C9 C 0.44879(19) 0.53271(17) 0.67885(15)
C10 C 0.55697(18) 0.58377(16) 0.79388(14)
C11 C 0.5531(2) 0.51286(18) 0.87259(16)
H8 H 0.627457 0.548710 0.949463
C12 C 0.4366(2) 0.38805(19) 0.83438(17)
H9 H 0.430870 0.336959 0.885981
C13 C 0.3272(2) 0.33561(19) 0.72126(18)
H10 H 0.247777 0.249996 0.697768
C14 C 0.3322(2) 0.40543(18) 0.64317(17)
H11 H 0.257846 0.368111 0.566332
C15 C 0.7086(2) 1.00008(18) 0.57458(15)
C16 C 0.8180(2) 1.06473(17) 0.68819(15)
C17 C 0.9238(2) 1.19526(19) 0.72149(18)
H12 H 0.997380 1.238293 0.798000
C18 C 0.9163(3) 1.2592(2) 0.6375(2)
H13 H 0.987472 1.347776 0.657392
C19 C 0.8085(3) 1.1983(2) 0.5257(2)
H14 H 0.806377 1.245952 0.471005
C20 C 0.7036(2) 1.0682(2) 0.49276(18)
H15 H 0.629968 1.026521 0.416098
C21 C 0.78797(18) 0.79241(16) 0.91542(13)
C22 C 0.93657(18) 0.80205(16) 0.92602(14)
C23 C 0.78351(18) 0.85687(16) 1.00326(14)
H16 H 0.880286 0.907108 1.065954
C24 C 0.65968(19) 0.86501(16) 1.02145(14)
C25 C 0.50561(19) 0.79498(16) 0.94444(15)
H17 H 0.476699 0.743704 0.871678
C26 C 0.39582(19) 0.80025(17) 0.97395(15)
C27 C 0.4371(2) 0.87841(19) 1.08037(16)
C28 C 0.5886(2) 0.9508(2) 1.15446(15)
H18 H 0.617343 1.005653 1.225597
C29 C 0.6996(2) 0.94429(18) 1.12619(15)
H19 H 0.803395 0.994108 1.178408
C30 C 0.1980(3) 0.6378(3) 0.8028(2)
H20 H 0.233586 0.684116 0.753819
H21 H 0.087360 0.589436 0.763735
H22 H 0.242562 0.576346 0.820911
O5 O 1.0387(2) 0.7949(2) 0.64437(16)
H23 H 0.963043 0.723257 0.625759
C31 C 0.9917(3) 0.8824(3) 0.5906(2)
H24 H 0.953272 0.850056 0.508747
H25 H 1.077773 0.968968 0.619132
H26 H 0.911222 0.888781 0.606655
O6? O 1.000000 0.500000 1.000000
C32? C 0.8842(6) 0.4291(5) 0.9149(3)
loop_
_geom_bond_atom_site_label_1
_geom_bond_atom_site_label_2
_geom_bond_site_symmetry_1
_geom_bond_site_symmetry_2
O1 C2 1_555 1_555
O2 C22 1_555 1_555
O3 C26 1_555 1_555
O4 H1 1_555 1_555
N1 H2 1_555 1_555
N2 C7 1_555 1_555
N3 H3 1_555 1_555
N4 H4 1_555 1_555
H5 N4 1_555 1_555
C1 N1 1_555 1_555
H6 C1 1_555 1_555
H7 C1 1_555 1_555
C2 N1 1_555 1_555
C3 C2 1_555 1_555
C4 C1 1_555 1_555
C5 C4 1_555 1_555
C6 N3 1_555 1_555
C7 C6 1_555 1_555
C8 C3 1_555 1_555
C9 C8 1_555 1_555
C10 N2 1_555 1_555
C11 C10 1_555 1_555
H8 C11 1_555 1_555
C12 C11 1_555 1_555
H9 C12 1_555 1_555
C13 C12 1_555 1_555
H10 C13 1_555 1_555
C14 C9 1_555 1_555
H11 C14 1_555 1_555
C15 C5 1_555 1_555
C16 N3 1_555 1_555
C17 C16 1_555 1_555
H12 C17 1_555 1_555
C18 C17 1_555 1_555
H13 C18 1_555 1_555
C19 C18 1_555 1_555
H14 C19 1_555 1_555
C20 C15 1_555 1_555
H15 C20 1_555 1_555
C21 N2 1_555 1_555
C22 N4 1_555 1_555
C23 C21 1_555 1_555
H16 C23 1_555 1_555
C24 C23 1_555 1_555
C25 C24 1_555 1_555
H17 C25 1_555 1_555
C26 C25 1_555 1_555
C27 O4 1_555 1_555
C28 C27 1_555 1_555
H18 C28 1_555 1_555
C29 C24 1_555 1_555
H19 C29 1_555 1_555
C30 O3 1_555 1_555
H20 C30 1_555 1_555
H21 C30 1_555 1_555
H22 C30 1_555 1_555
O5 H23 1_555 1_555
C31 O5 1_555 1_555
H24 C31 1_555 1_555
H25 C31 1_555 1_555
H26 C31 1_555 1_555
C3 C4 1_555 1_555
C5 C6 1_555 1_555
C7 C8 1_555 1_555
C9 C10 1_555 1_555
C13 C14 1_555 1_555
C15 C16 1_555 1_555
C19 C20 1_555 1_555
C21 C22 1_555 1_555
C26 C27 1_555 1_555
C28 C29 1_555 1_555

#END
