
#######################################################################
#
#                 Cambridge Crystallographic Data Centre
#                                CCDC 
#
#######################################################################
#
# If this CIF has been generated from an entry in the Cambridge 
# Structural Database, then it will include bibliographic, chemical, 
# crystal, experimental, refinement or atomic coordinate data resulting 
# from the CCDC's data processing and validation procedures.
#
#######################################################################

data_TETHIM
_chemical_formula_moiety         'C23 H19 F1 O6 S1'
_chemical_name_systematic        
2-(3,4-dimethoxyphenyl)-3-[(4-fluorophenyl)sulfonyl]-2,3-dihydro-4H-1-benzopyran-4-one
_symmetry_cell_setting           monoclinic
_symmetry_space_group_name_H-M   'P 21/c'
_symmetry_Int_Tables_number      14
_space_group_name_Hall           '-P 2ybc'
loop_
_symmetry_equiv_pos_site_id
_symmetry_equiv_pos_as_xyz
1 x,y,z
2 -x,1/2+y,1/2-z
3 -x,-y,-z
4 x,1/2-y,1/2+z
_cell_length_a                   20.5754(16)
_cell_length_b                   11.9457(8)
_cell_length_c                   8.2774(6)
_cell_angle_alpha                90
_cell_angle_beta                 93.216(4)
_cell_angle_gamma                90
_cell_volume                     2031.28
_exptl_crystal_colour            colorless
_cell_formula_units_Z            4
loop_
_atom_site_label
_atom_site_type_symbol
_atom_site_fract_x
_atom_site_fract_y
_atom_site_fract_z
S1 S 0.17415(2) 0.61173(3) 0.27270(5)
F1 F -0.05823(6) 0.84818(12) 0.02261(19)
O1 O 0.45517(6) 0.61034(10) -0.40364(13)
O2 O 0.21340(6) 0.68719(10) 0.37334(14)
O3 O 0.15679(6) 0.50474(10) 0.33654(15)
O4 O 0.14547(6) 0.47148(10) -0.07401(15)
O5 O 0.31204(5) 0.50037(9) 0.21942(13)
O6 O 0.50278(5) 0.64278(10) -0.11498(13)
C1 C -0.00489(9) 0.79297(18) 0.0843(3)
C2 C -0.00867(9) 0.67929(18) 0.1071(3)
H1 H -0.0482 0.6403 0.0828
C3 C 0.04640(9) 0.62276(16) 0.1664(3)
H2 H 0.0454 0.5440 0.1816
C4 C 0.10300(8) 0.68280(14) 0.2033(2)
C5 C 0.21683(7) 0.58953(13) 0.08719(19)
H3 H 0.2037 0.6500 0.0085
C6 C 0.29005(8) 0.59565(13) 0.12221(19)
H4 H 0.2993 0.6645 0.1882
C7 C 0.32934(8) 0.60400(12) -0.02788(19)
C8 C 0.39637(8) 0.62310(13) -0.00066(19)
H5 H 0.4140 0.6338 0.1067
C9 C 0.43705(8) 0.62647(13) -0.12813(19)
C10 C 0.41039(8) 0.61050(12) -0.28761(18)
C11 C 0.43122(9) 0.58296(17) -0.56427(19)
H6 H 0.4113 0.5084 -0.5647
H7 H 0.4673 0.5833 -0.6366
H8 H 0.3986 0.6383 -0.6017
C12 C 0.05061(9) 0.85447(16) 0.1218(2)
H9 H 0.0512 0.9333 0.1066
C13 C 0.10540(9) 0.79809(15) 0.1821(2)
H10 H 0.1445 0.8379 0.2088
C14 C 0.19437(8) 0.47709(14) 0.01555(19)
C15 C 0.23514(8) 0.38096(13) 0.06562(19)
C16 C 0.29196(8) 0.39666(13) 0.16339(18)
C17 C 0.53253(8) 0.65247(16) 0.04518(19)
H11 H 0.5163 0.7198 0.0971
H12 H 0.5799 0.6578 0.0393
H13 H 0.5218 0.5864 0.1086
C18 C 0.34428(8) 0.59592(13) -0.31513(19)
H14 H 0.3261 0.5884 -0.4227
C19 C 0.30375(8) 0.59214(13) -0.18448(19)
H15 H 0.2582 0.5813 -0.2041
C20 C 0.33028(8) 0.30609(14) 0.21403(19)
H16 H 0.3694 0.3175 0.2783
C21 C 0.31075(9) 0.19936(14) 0.1698(2)
H17 H 0.3365 0.1371 0.2055
C22 C 0.25401(9) 0.18129(15) 0.0739(2)
H18 H 0.2410 0.1073 0.0450
C23 C 0.21676(9) 0.27133(14) 0.0209(2)
H19 H 0.1784 0.2593 -0.0461
loop_
_geom_bond_atom_site_label_1
_geom_bond_atom_site_label_2
_geom_bond_site_symmetry_1
_geom_bond_site_symmetry_2
S1 O2 1_555 1_555
F1 C1 1_555 1_555
O1 C10 1_555 1_555
O3 S1 1_555 1_555
O4 C14 1_555 1_555
O5 C6 1_555 1_555
O6 C9 1_555 1_555
C1 C2 1_555 1_555
C2 H1 1_555 1_555
C3 C2 1_555 1_555
H2 C3 1_555 1_555
C4 S1 1_555 1_555
C5 S1 1_555 1_555
H3 C5 1_555 1_555
C6 C5 1_555 1_555
H4 C6 1_555 1_555
C7 C6 1_555 1_555
C8 C7 1_555 1_555
H5 C8 1_555 1_555
C9 C8 1_555 1_555
C10 C9 1_555 1_555
C11 O1 1_555 1_555
H6 C11 1_555 1_555
H7 C11 1_555 1_555
H8 C11 1_555 1_555
C12 C1 1_555 1_555
H9 C12 1_555 1_555
C13 C4 1_555 1_555
H10 C13 1_555 1_555
C14 C5 1_555 1_555
C15 C14 1_555 1_555
C16 O5 1_555 1_555
C17 O6 1_555 1_555
H11 C17 1_555 1_555
H12 C17 1_555 1_555
H13 C17 1_555 1_555
C18 C10 1_555 1_555
H14 C18 1_555 1_555
C19 C7 1_555 1_555
H15 C19 1_555 1_555
C20 C16 1_555 1_555
H16 C20 1_555 1_555
C21 C20 1_555 1_555
H17 C21 1_555 1_555
C22 C21 1_555 1_555
H18 C22 1_555 1_555
C23 C15 1_555 1_555
H19 C23 1_555 1_555
C3 C4 1_555 1_555
C12 C13 1_555 1_555
C15 C16 1_555 1_555
C18 C19 1_555 1_555
C22 C23 1_555 1_555

#END
