
#######################################################################
#
#                 Cambridge Crystallographic Data Centre
#                                CCDC 
#
#######################################################################
#
# If this CIF has been generated from an entry in the Cambridge 
# Structural Database, then it will include bibliographic, chemical, 
# crystal, experimental, refinement or atomic coordinate data resulting 
# from the CCDC's data processing and validation procedures.
#
#######################################################################

data_TETHEI
_chemical_formula_moiety         'C24 H22 O6 S1'
_chemical_name_systematic        
2-(3,4-dimethoxyphenyl)-3-[(4-methylphenyl)sulfonyl]-2,3-dihydro-4H-1-benzopyran-4-one
_symmetry_cell_setting           monoclinic
_symmetry_space_group_name_H-M   'P 21/c'
_symmetry_Int_Tables_number      14
_space_group_name_Hall           '-P 2ybc'
loop_
_symmetry_equiv_pos_site_id
_symmetry_equiv_pos_as_xyz
1 x,y,z
2 -x,1/2+y,1/2-z
3 -x,-y,-z
4 x,1/2-y,1/2+z
_cell_length_a                   21.002(3)
_cell_length_b                   11.9195(15)
_cell_length_c                   8.3067(11)
_cell_angle_alpha                90
_cell_angle_beta                 97.290(5)
_cell_angle_gamma                90
_cell_volume                     2062.63
_exptl_crystal_colour            colorless
_exptl_crystal_description       tubular
_cell_formula_units_Z            4
loop_
_atom_site_label
_atom_site_type_symbol
_atom_site_fract_x
_atom_site_fract_y
_atom_site_fract_z
S1 S 0.32126(2) 0.89641(4) 0.27284(5)
O1 O 0.04627(6) 0.89108(11) 0.90033(15)
O2 O 0.28359(6) 0.81990(12) 0.16523(16)
O3 O 0.33432(6) 1.00669(11) 0.21499(17)
O4 O 0.34956(6) 1.03180(12) 0.62732(17)
O5 O 0.18538(6) 0.99675(10) 0.30731(14)
O6 O -0.00084(6) 0.85796(11) 0.60426(15)
C1 C 0.57151(10) 0.6727(2) 0.5314(3)
H1 H 0.5889 0.6323 0.4439
H2 H 0.5638 0.6196 0.6169
H3 H 0.6023 0.7298 0.5765
C2 C 0.50942(9) 0.72823(19) 0.4652(3)
C3 C 0.45237(10) 0.66747(19) 0.4396(3)
H4 H 0.4530 0.5896 0.4643
C4 C 0.39509(9) 0.71744(17) 0.3794(3)
H5 H 0.3567 0.6745 0.3617
C5 C 0.39427(9) 0.83063(15) 0.3454(2)
C6 C 0.28080(8) 0.91119(15) 0.4534(2)
H6 H 0.2956 0.8497 0.5311
C7 C 0.20858(8) 0.90109(14) 0.4077(2)
H7 H 0.2001 0.8317 0.3407
C8 C 0.17045(8) 0.89244(13) 0.5503(2)
C9 C 0.10411(8) 0.87477(14) 0.5107(2)
H8 H 0.0867 0.8642 0.4005
C10 C 0.06409(8) 0.87258(14) 0.6297(2)
C11 C 0.09025(9) 0.88902(14) 0.7932(2)
C12 C 0.07006(10) 0.91945(18) 1.0645(2)
H9 H 0.1015 0.8631 1.1089
H10 H 0.0343 0.9213 1.1298
H11 H 0.0906 0.9933 1.0672
C13 C 0.30049(9) 1.02373(15) 0.5324(2)
C14 C 0.25733(8) 1.11789(15) 0.4818(2)
C15 C 0.20190(8) 1.10038(14) 0.3721(2)
C16 C -0.03000(9) 0.84864(17) 0.4392(2)
H12 H -0.0197 0.9154 0.3786
H13 H -0.0767 0.8425 0.4363
H14 H -0.0136 0.7817 0.3898
C17 C 0.15577(9) 0.90188(14) 0.8330(2)
H15 H 0.1736 0.9092 0.9435
C18 C 0.19571(8) 0.90415(14) 0.7111(2)
H16 H 0.2407 0.9138 0.7389
C19 C 0.16197(9) 1.18926(15) 0.3191(2)
H17 H 0.1239 1.1766 0.2467
C20 C 0.17831(10) 1.29639(16) 0.3729(2)
H18 H 0.1516 1.3577 0.3350
C21 C 0.23334(10) 1.31594(16) 0.4818(2)
H19 H 0.2441 1.3900 0.5175
C22 C 0.27189(9) 1.22734(16) 0.5372(2)
H20 H 0.3088 1.2403 0.6137
C23 C 0.45014(9) 0.89335(18) 0.3662(3)
H21 H 0.4494 0.9710 0.3402
C24 C 0.50718(10) 0.84118(19) 0.4254(3)
H22 H 0.5457 0.8838 0.4390
loop_
_geom_bond_atom_site_label_1
_geom_bond_atom_site_label_2
_geom_bond_site_symmetry_1
_geom_bond_site_symmetry_2
S1 O2 1_555 1_555
O1 C11 1_555 1_555
O3 S1 1_555 1_555
O4 C13 1_555 1_555
O5 C7 1_555 1_555
O6 C10 1_555 1_555
C1 H1 1_555 1_555
H2 C1 1_555 1_555
H3 C1 1_555 1_555
C2 C1 1_555 1_555
C3 C2 1_555 1_555
H4 C3 1_555 1_555
C4 C3 1_555 1_555
H5 C4 1_555 1_555
C5 S1 1_555 1_555
C6 S1 1_555 1_555
H6 C6 1_555 1_555
C7 C6 1_555 1_555
H7 C7 1_555 1_555
C8 C7 1_555 1_555
C9 C8 1_555 1_555
H8 C9 1_555 1_555
C10 C9 1_555 1_555
C11 C10 1_555 1_555
C12 O1 1_555 1_555
H9 C12 1_555 1_555
H10 C12 1_555 1_555
H11 C12 1_555 1_555
C13 C6 1_555 1_555
C14 C13 1_555 1_555
C15 O5 1_555 1_555
C16 O6 1_555 1_555
H12 C16 1_555 1_555
H13 C16 1_555 1_555
H14 C16 1_555 1_555
C17 C11 1_555 1_555
H15 C17 1_555 1_555
C18 C8 1_555 1_555
H16 C18 1_555 1_555
C19 C15 1_555 1_555
H17 C19 1_555 1_555
C20 C19 1_555 1_555
H18 C20 1_555 1_555
C21 C20 1_555 1_555
H19 C21 1_555 1_555
C22 C14 1_555 1_555
H20 C22 1_555 1_555
C23 C5 1_555 1_555
H21 C23 1_555 1_555
C24 C2 1_555 1_555
H22 C24 1_555 1_555
C4 C5 1_555 1_555
C14 C15 1_555 1_555
C17 C18 1_555 1_555
C21 C22 1_555 1_555
C23 C24 1_555 1_555

#END
