
#######################################################################
#
#                 Cambridge Crystallographic Data Centre
#                                CCDC 
#
#######################################################################
#
# If this CIF has been generated from an entry in the Cambridge 
# Structural Database, then it will include bibliographic, chemical, 
# crystal, experimental, refinement or atomic coordinate data resulting 
# from the CCDC's data processing and validation procedures.
#
#######################################################################

data_TETQAK
_chemical_formula_moiety         
'C15 H15 N1 O2,C15 H16 N1 O2 1+,C7 H6 O3,C7 H5 O3 1-,H2 O1'
_chemical_name_systematic        
'Merocyanine 2,4-dihydroxybenzaldehyde monohydrate'
_symmetry_cell_setting           triclinic
_symmetry_space_group_name_H-M   'P 1'
_symmetry_Int_Tables_number      1
_space_group_name_Hall           'P 1'
loop_
_symmetry_equiv_pos_site_id
_symmetry_equiv_pos_as_xyz
1 x,y,z
_cell_length_a                   8.262(3)
_cell_length_b                   10.039(4)
_cell_length_c                   13.491(4)
_cell_angle_alpha                69.73(2)
_cell_angle_beta                 82.99(11)
_cell_angle_gamma                66.06(3)
_cell_volume                     959.149
_exptl_crystal_colour            red
_cell_formula_units_Z            1
loop_
_atom_site_label
_atom_site_type_symbol
_atom_site_fract_x
_atom_site_fract_y
_atom_site_fract_z
O3 O -0.2829(5) 0.7429(4) 0.3293(3)
C16 C 0.0117(5) 0.7013(4) 0.3594(3)
C17 C 0.1653(6) 0.7235(5) 0.3145(3)
C18 C 0.3119(6) 0.6784(5) 0.3747(3)
C19 C 0.3110(5) 0.6068(4) 0.4851(3)
C20 C 0.1596(5) 0.5838(4) 0.5307(3)
C21 C 0.0121(5) 0.6303(4) 0.4703(3)
C22 C -0.1412(6) 0.7538(5) 0.2943(4)
O4 O -0.1340(5) 0.6084(4) 0.5178(3)
O5 O 0.4552(4) 0.5650(4) 0.5409(3)
H16 H -0.2402 0.6567 0.4461
H17 H 0.1652 0.7709 0.2393
H18 H 0.4123 0.6955 0.3377
H19 H 0.1569 0.5335 0.6054
H20 H -0.1324 0.7984 0.2194
C23 C 0.8758(5) 0.2331(4) 0.9216(3)
C24 C 0.7159(5) 0.2140(5) 0.9592(3)
C25 C 0.5768(6) 0.2666(5) 0.8908(3)
C26 C 0.5888(5) 0.3395(4) 0.7825(3)
C27 C 0.7465(5) 0.3601(5) 0.7445(3)
C28 C 0.8858(5) 0.3084(4) 0.8131(3)
C29 C 1.0210(6) 0.1703(5) 0.9928(4)
O6 O 1.1684(5) 0.1758(4) 0.9676(3)
O7 O 1.0357(6) 0.3280(6) 0.7667(4)
O9 O 0.4550(4) 0.3837(4) 0.7194(3)
H21 H 0.4515 0.4628 0.6434
H22 H 0.4696 0.2518 0.9159
H23 H 0.7570 0.4104 0.6706
H24 H 1.0136 0.1166 1.0664
H25 H 1.1163 0.2879 0.8141
O10 O 1.4331(6) 1.0288(4) 0.1355(3)
H27 H 1.3410 0.9893 0.1741
H28 H 1.4704 0.9430 0.1338
O11 O 0.9549(4) 0.3238(3) 1.1583(2)
C30 C 0.9037(5) 0.2764(4) 1.2588(3)
C31 C 0.9496(6) 0.1180(4) 1.3068(3)
C32 C 0.8912(6) 0.0615(4) 1.4054(3)
C33 C 0.7871(5) 0.1592(4) 1.4624(3)
C34 C 0.7526(5) 0.3160(4) 1.4150(3)
C35 C 0.8092(5) 0.3739(4) 1.3155(3)
C36 C 0.7110(5) 0.1028(4) 1.5629(3)
C37 C 0.7198(5) -0.0411(4) 1.6108(3)
C38 C 0.6367(5) -0.0964(4) 1.7085(3)
C39 C 0.6590(6) -0.2511(6) 1.7471(3)
C40 C 0.5767(6) -0.3060(5) 1.8366(3)
C41 C 0.4519(5) -0.0636(4) 1.8561(3)
C42 C 0.5292(5) -0.0037(4) 1.7669(3)
C43 C 0.3871(5) -0.2738(5) 1.9882(3)
C44 C 0.5137(5) -0.3575(5) 2.0819(3)
N2 N 0.4730(5) -0.2123(4) 1.8907(3)
O12 O 0.5725(4) -0.2559(3) 2.1019(3)
H29 H 0.9473 0.4255 1.1362
H30 H 1.0238 0.0480 1.2707
H31 H 0.9239 -0.0475 1.4391
H32 H 0.6854 0.3839 1.4542
H33 H 0.7770 0.4830 1.2831
H34 H 0.6486 0.1761 1.5988
H35 H 0.7983 -0.1169 1.5802
H36 H 0.7450 -0.3192 1.7005
H37 H 0.5914 -0.4122 1.8630
H38 H 0.3800 0.0016 1.8960
H39 H 0.5088 0.1038 1.7434
H40 H 0.3351 -0.3391 1.9795
H41 H 0.2950 -0.1876 2.0035
H42 H 0.6124 -0.4357 2.0625
H43 H 0.4639 -0.4068 2.1447
H44 H 0.7166 -0.3114 2.1038
O1 O 0.9119 0.6078 1.0865
C1 C 0.9646(5) 0.6660(4) 0.9899(3)
C2 C 0.9181(5) 0.8252(4) 0.9440(3)
C3 C 0.9790(5) 0.8876(4) 0.8474(3)
C4 C 1.0910(5) 0.7941(4) 0.7893(3)
C5 C 1.1324(5) 0.6352(4) 0.8335(3)
C6 C 1.0712(5) 0.5722(4) 0.9313(3)
C7 C 1.1673(5) 0.8548(4) 0.6907(3)
C8 C 1.1565(5) 0.9995(4) 0.6454(3)
C9 C 1.2374(5) 1.0572(4) 0.5478(3)
C10 C 1.2231(5) 1.2110(5) 0.5122(3)
C11 C 1.3012(6) 1.2671(5) 0.4219(3)
C12 C 1.4093(5) 1.0296(4) 0.3936(3)
C13 C 1.3348(6) 0.9689(5) 0.4837(3)
C14 C 1.4724(5) 1.2434(4) 0.2627(3)
C15 C 1.3378(5) 1.3441(5) 0.1749(3)
N1 N 1.3925(5) 1.1782(4) 0.3625(3)
O2 O 1.2256(4) 1.4803(3) 0.1982(3)
H1 H 0.8357 0.9017 0.9728
H2 H 0.9443 0.9974 0.8187
H3 H 1.2409 0.5540 0.7998
H4 H 1.1022 0.4629 0.9540
H5 H 1.2288 0.7851 0.6520
H6 H 1.0877 1.0706 0.6820
H7 H 1.1533 1.2762 0.5525
H8 H 1.2906 1.3721 0.3989
H9 H 1.4713 0.9694 0.3487
H10 H 1.3521 0.8622 0.5062
H11 H 1.5633 1.1620 0.2417
H12 H 1.5262 1.3041 0.2762
H13 H 1.2685 1.2898 0.1694
H14 H 1.3940 1.3711 0.1086
H15 H 1.0920 1.5118 0.1606
O8? O 0.7104(7) 0.1242(7) 1.0653(4)
H26? H 0.6174 0.1052 1.0731
loop_
_geom_bond_atom_site_label_1
_geom_bond_atom_site_label_2
_geom_bond_site_symmetry_1
_geom_bond_site_symmetry_2
O1 C1 1_555 1_555
C1 C2 1_555 1_555
C2 C3 1_555 1_555
C3 C4 1_555 1_555
C4 C5 1_555 1_555
C5 C6 1_555 1_555
C6 C1 1_555 1_555
C7 C4 1_555 1_555
C8 C7 1_555 1_555
C9 C8 1_555 1_555
C10 C9 1_555 1_555
C11 C10 1_555 1_555
C12 C13 1_555 1_555
C13 C9 1_555 1_555
C14 C15 1_555 1_555
C15 O2 1_555 1_555
N1 C11 1_555 1_555
O2 H15 1_555 1_555
O3 C22 1_555 1_555
C16 C17 1_555 1_555
C17 C18 1_555 1_555
C18 C19 1_555 1_555
C19 C20 1_555 1_555
C20 C21 1_555 1_555
C21 C16 1_555 1_555
C22 C16 1_555 1_555
O4 C21 1_555 1_555
O5 C19 1_555 1_555
C23 C24 1_555 1_555
C24 C25 1_555 1_555
C25 C26 1_555 1_555
C26 C27 1_555 1_555
C27 C28 1_555 1_555
C28 C23 1_555 1_555
C29 C23 1_555 1_555
O6 C29 1_555 1_555
O7 C28 1_555 1_555
O9 C26 1_555 1_555
O10 H27 1_555 1_555
O11 C30 1_555 1_555
C30 C31 1_555 1_555
C31 C32 1_555 1_555
C32 C33 1_555 1_555
C33 C34 1_555 1_555
C34 C35 1_555 1_555
C35 C30 1_555 1_555
C36 C33 1_555 1_555
C37 C36 1_555 1_555
C38 C37 1_555 1_555
C39 C38 1_555 1_555
C40 C39 1_555 1_555
C41 C42 1_555 1_555
C42 C38 1_555 1_555
C43 C44 1_555 1_555
C44 O12 1_555 1_555
N2 C40 1_555 1_555
O12 H44 1_555 1_555
H1 C2 1_555 1_555
H2 C3 1_555 1_555
H3 C5 1_555 1_555
H4 C6 1_555 1_555
H5 C7 1_555 1_555
H6 C8 1_555 1_555
H7 C10 1_555 1_555
H8 C11 1_555 1_555
H9 C12 1_555 1_555
H10 C13 1_555 1_555
H11 C14 1_555 1_555
H12 C14 1_555 1_555
H13 C15 1_555 1_555
H14 C15 1_555 1_555
H16 O4 1_555 1_555
H17 C17 1_555 1_555
H18 C18 1_555 1_555
H19 C20 1_555 1_555
H20 C22 1_555 1_555
H21 O9 1_555 1_555
H22 C25 1_555 1_555
H23 C27 1_555 1_555
H24 C29 1_555 1_555
H25 O7 1_555 1_555
H28 O10 1_555 1_555
H29 O11 1_555 1_555
H30 C31 1_555 1_555
H31 C32 1_555 1_555
H32 C34 1_555 1_555
H33 C35 1_555 1_555
H34 C36 1_555 1_555
H35 C37 1_555 1_555
H36 C39 1_555 1_555
H37 C40 1_555 1_555
H38 C41 1_555 1_555
H39 C42 1_555 1_555
H40 C43 1_555 1_555
H41 C43 1_555 1_555
H42 C44 1_555 1_555
H43 C44 1_555 1_555
C12 N1 1_555 1_555
C14 N1 1_555 1_555
C41 N2 1_555 1_555
C43 N2 1_555 1_555

#END
