
#######################################################################
#
#                 Cambridge Crystallographic Data Centre
#                                CCDC 
#
#######################################################################
#
# If this CIF has been generated from an entry in the Cambridge 
# Structural Database, then it will include bibliographic, chemical, 
# crystal, experimental, refinement or atomic coordinate data resulting 
# from the CCDC's data processing and validation procedures.
#
#######################################################################

data_TETRDO05
_chemical_formula_moiety         'C10 H12 O2'
_chemical_name_systematic        (S,S)-1,2,3,4-Tetrahydronaphthalene-2,3-diol
_symmetry_cell_setting           monoclinic
_symmetry_space_group_name_H-M   'P 21'
_symmetry_Int_Tables_number      4
_space_group_name_Hall           'P 2yb'
loop_
_symmetry_equiv_pos_site_id
_symmetry_equiv_pos_as_xyz
1 x,y,z
2 -x,1/2+y,-z
_cell_length_a                   5.01710(10)
_cell_length_b                   28.0235(7)
_cell_length_c                   5.88640(10)
_cell_angle_alpha                90
_cell_angle_beta                 94.4410(10)
_cell_angle_gamma                90
_cell_volume                     825.124
_cell_formula_units_Z            4
loop_
_atom_site_label
_atom_site_type_symbol
_atom_site_fract_x
_atom_site_fract_y
_atom_site_fract_z
O1 O 0.7092(4) 0.09373(7) 0.0031(3)
O2 O 1.0472(3) 0.09946(7) 0.4028(3)
C1 C 1.0009(5) 0.13970(9) 0.2556(4)
H1 H 0.8529 0.1586 0.3074
C2 C 0.8742(5) 0.16943(9) -0.1339(4)
H2 H 0.8666 0.1606 -0.2937
H3 H 0.6992 0.1813 -0.1027
C3 C 1.4247(5) 0.24838(10) 0.1417(5)
H4 H 1.5376 0.2494 0.2746
C4 C 1.2537(5) 0.16951(9) 0.2747(4)
H5 H 1.2798 0.1823 0.4280
H6 H 1.4050 0.1491 0.2503
C5 C 1.2681(6) 0.28355(11) -0.2127(5)
H7 H 1.2754 0.3077 -0.3203
C6 C 1.2487(5) 0.21032(9) 0.1069(4)
C7 C 1.0886(5) 0.24623(11) -0.2495(5)
H8 H 0.9745 0.2459 -0.3818
C8 C 1.0754(5) 0.20916(10) -0.0923(4)
C9 C 1.4368(5) 0.28463(10) -0.0147(5)
H9 H 1.5569 0.3096 0.0121
C10 C 0.9347(5) 0.12498(9) 0.0092(4)
H10 H 1.0875 0.1081 -0.0472
H11 H 0.883(7) 0.0858(12) 0.417(5)
H12 H 0.652(8) 0.0915(16) -0.114(6)
O3 O 0.7244(3) 0.00216(7) 0.2151(3)
H13 H 0.7022 0.0289 0.1600
O4 O 0.5536(3) 0.06476(6) 0.5552(3)
H14 H 0.4103 0.0768 0.5101
C11 C 0.0444(5) -0.06899(9) 0.8569(4)
H15 H -0.0184 -0.0488 0.9662
C12 C 0.2785(5) 0.00156(10) 0.7003(4)
H16 H 0.1798 0.0243 0.7726
C13 C 0.5007(5) -0.06368(10) 0.3676(4)
H17 H 0.6797 -0.0742 0.4183
H18 H 0.4541 -0.0780 0.2197
C14 C 0.2129(5) -0.05083(9) 0.6979(4)
C15 C 0.3074(5) -0.08154(9) 0.5345(4)
C16 C 0.2274(5) -0.12888(10) 0.5316(5)
H19 H 0.2876 -0.1493 0.4218
C17 C 0.5021(5) -0.00984(10) 0.3415(4)
H20 H 0.3364 0.0003 0.2561
C18 C -0.0288(5) -0.11627(10) 0.8525(4)
H21 H -0.1382 -0.1280 0.9602
C19 C 0.5218(5) 0.01372(9) 0.5732(4)
H22 H 0.6802 0.0010 0.6607
C20 C 0.0599(5) -0.14664(10) 0.6882(5)
H23 H 0.0077 -0.1785 0.6831
loop_
_geom_bond_atom_site_label_1
_geom_bond_atom_site_label_2
_geom_bond_site_symmetry_1
_geom_bond_site_symmetry_2
O1 C10 1_555 1_555
O2 C1 1_555 1_555
C1 H1 1_555 1_555
C2 H2 1_555 1_555
H3 C2 1_555 1_555
C3 H4 1_555 1_555
C4 C1 1_555 1_555
H5 C4 1_555 1_555
H6 C4 1_555 1_555
C5 H7 1_555 1_555
C6 C3 1_555 1_555
C7 C5 1_555 1_555
H8 C7 1_555 1_555
C8 C2 1_555 1_555
C9 C3 1_555 1_555
H9 C9 1_555 1_555
C10 C1 1_555 1_555
H10 C10 1_555 1_555
H11 O2 1_555 1_555
H12 O1 1_555 1_555
O3 H13 1_555 1_555
O4 H14 1_555 1_555
C11 H15 1_555 1_555
C12 H16 1_555 1_555
C13 H17 1_555 1_555
H18 C13 1_555 1_555
C14 C11 1_555 1_555
C15 C13 1_555 1_555
C16 C15 1_555 1_555
H19 C16 1_555 1_555
C17 O3 1_555 1_555
H20 C17 1_555 1_555
C18 C11 1_555 1_555
H21 C18 1_555 1_555
C19 O4 1_555 1_555
H22 C19 1_555 1_555
C20 C16 1_555 1_555
H23 C20 1_555 1_555
C2 C10 1_555 1_555
C4 C6 1_555 1_555
C5 C9 1_555 1_555
C6 C8 1_555 1_555
C7 C8 1_555 1_555
C12 C14 1_555 1_555
C12 C19 1_555 1_555
C13 C17 1_555 1_555
C14 C15 1_555 1_555
C17 C19 1_555 1_555
C18 C20 1_555 1_555

#END
