
#######################################################################
#
#                 Cambridge Crystallographic Data Centre
#                                CCDC 
#
#######################################################################
#
# If this CIF has been generated from an entry in the Cambridge 
# Structural Database, then it will include bibliographic, chemical, 
# crystal, experimental, refinement or atomic coordinate data resulting 
# from the CCDC's data processing and validation procedures.
#
#######################################################################

data_TETSOA
_chemical_formula_moiety         'C16 H25 N2 O5 P1'
_chemical_name_systematic        
'N-(Isopropylcarbamoyl-methoxyphosphonyl)-phenylalanine ethyl ester'
_symmetry_cell_setting           monoclinic
_symmetry_space_group_name_H-M   'P 21'
_symmetry_Int_Tables_number      4
_space_group_name_Hall           'P 2yb'
loop_
_symmetry_equiv_pos_site_id
_symmetry_equiv_pos_as_xyz
1 x,y,z
2 -x,1/2+y,-z
_cell_length_a                   5.256(1)
_cell_length_b                   15.869(3)
_cell_length_c                   11.718(4)
_cell_angle_alpha                90
_cell_angle_beta                 96.50(3)
_cell_angle_gamma                90
_cell_volume                     971.086
_exptl_crystal_colour            colorless
_chemical_melting_point          163.5-165deg.C
_cell_formula_units_Z            2
loop_
_atom_site_label
_atom_site_type_symbol
_atom_site_fract_x
_atom_site_fract_y
_atom_site_fract_z
P1 P 0.1777(2) 0.357 0.6966(1)
O1 O -0.0752(6) 0.3897(3) 0.7147(4)
O2 O 0.2291(9) 0.3400(2) 0.5700(4)
O3 O 0.4572(6) 0.2220(3) 0.7575(5)
O4 O 0.350(1) 0.3587(5) 0.9684(4)
O5 O 0.656(2) 0.4475(5) 1.0277(6)
N1 N 0.4097(6) 0.4196(2) 0.7475(4)
N2 N 0.0396(6) 0.2066(3) 0.7837(4)
C1 C 0.232(3) 0.4081(6) 0.4888(8)
C2 C 0.2373(8) 0.2491(3) 0.7517(5)
C3 C 0.0582(9) 0.1214(3) 0.8271(5)
C4 C -0.002(4) 0.0588(5) 0.732(1)
C5 C -0.108(1) 0.1084(6) 0.9219(7)
C6 C 0.560(1) 0.5525(3) 0.8360(6)
C7 C 0.4798(9) 0.6038(3) 0.7308(5)
C8 C 0.268(1) 0.6564(4) 0.7274(7)
C9 C 0.196(2) 0.7071(6) 0.6308(9)
C10 C 0.327(2) 0.7026(6) 0.5368(8)
C11 C 0.534(2) 0.6503(8) 0.5382(8)
C12 C 0.609(1) 0.6001(5) 0.6351(7)
C13 C 0.4013(8) 0.4737(3) 0.8470(5)
C14 C 0.486(1) 0.4265(3) 0.9595(5)
C15 C 0.414(2) 0.3034(5) 1.0664(8)
C16 C 0.248(3) 0.322(1) 1.154(1)
H1 H 0.500 0.375 0.750
H2 H 0.291 0.457 0.500
H3 H 0.044 0.418 0.461
H4 H 0.317 0.385 0.424
H5 H -0.082 0.229 0.779
H6 H 0.240 0.112 0.861
H7 H -0.041 0.020 0.750
H8 H 0.158 0.049 0.693
H9 H -0.138 0.082 0.675
H10 H -0.010 0.080 0.989
H11 H -0.261 0.074 0.893
H12 H -0.166 0.166 0.945
H13 H 0.543 0.582 0.918
H14 H 0.709 0.520 0.834
H15 H 0.165 0.659 0.794
H16 H 0.048 0.747 0.630
H17 H 0.273 0.737 0.467
H18 H 0.632 0.648 0.470
H19 H 0.758 0.561 0.634
H20 H 0.220 0.492 0.851
H21 H 0.597 0.313 1.099
H22 H 0.392 0.243 1.042
H23 H 0.097 0.282 1.147
H24 H 0.183 0.381 1.146
H25 H 0.345 0.315 1.232
loop_
_geom_bond_atom_site_label_1
_geom_bond_atom_site_label_2
_geom_bond_site_symmetry_1
_geom_bond_site_symmetry_2
P1 O1 1_555 1_555
O2 P1 1_555 1_555
O3 C2 1_555 1_555
O4 C14 1_555 1_555
O5 C14 1_555 1_555
N1 P1 1_555 1_555
N2 C2 1_555 1_555
C1 O2 1_555 1_555
C2 P1 1_555 1_555
C3 N2 1_555 1_555
C4 C3 1_555 1_555
C5 C3 1_555 1_555
C6 C7 1_555 1_555
C7 C8 1_555 1_555
C8 C9 1_555 1_555
C9 C10 1_555 1_555
C10 C11 1_555 1_555
C11 C12 1_555 1_555
C12 C7 1_555 1_555
C13 N1 1_555 1_555
C14 C13 1_555 1_555
C15 O4 1_555 1_555
C16 C15 1_555 1_555
H1 N1 1_555 1_555
H2 C1 1_555 1_555
H3 C1 1_555 1_555
H4 C1 1_555 1_555
H5 N2 1_555 1_555
H6 C3 1_555 1_555
H7 C4 1_555 1_555
H8 C4 1_555 1_555
H9 C4 1_555 1_555
H10 C5 1_555 1_555
H11 C5 1_555 1_555
H12 C5 1_555 1_555
H13 C6 1_555 1_555
H14 C6 1_555 1_555
H15 C8 1_555 1_555
H16 C9 1_555 1_555
H17 C10 1_555 1_555
H18 C11 1_555 1_555
H19 C12 1_555 1_555
H20 C13 1_555 1_555
H21 C15 1_555 1_555
H22 C15 1_555 1_555
H23 C16 1_555 1_555
H24 C16 1_555 1_555
H25 C16 1_555 1_555
C6 C13 1_555 1_555

#END
