
#######################################################################
#
#                 Cambridge Crystallographic Data Centre
#                                CCDC 
#
#######################################################################
#
# If this CIF has been generated from an entry in the Cambridge 
# Structural Database, then it will include bibliographic, chemical, 
# crystal, experimental, refinement or atomic coordinate data resulting 
# from the CCDC's data processing and validation procedures.
#
#######################################################################

data_TETSUG
_chemical_formula_moiety         'C12 H18 N1 O6 P1'
_chemical_name_systematic        
'O,O-Diethyl-(\a-p-hydroxyphenyl-\b-nitroethyl) phosphonate'
_chemical_properties_biological  'possible pharmacological activity'
_symmetry_cell_setting           orthorhombic
_symmetry_space_group_name_H-M   'P c a b'
_symmetry_Int_Tables_number      61
_space_group_name_Hall           '-P 2bc 2ac'
loop_
_symmetry_equiv_pos_site_id
_symmetry_equiv_pos_as_xyz
1 x,y,z
2 -x,1/2-y,1/2+z
3 1/2+x,-y,1/2-z
4 1/2-x,1/2+y,-z
5 -x,-y,-z
6 x,1/2+y,1/2-z
7 1/2-x,y,1/2+z
8 1/2+x,1/2-y,z
_cell_length_a                   10.708(5)
_cell_length_b                   16.151(4)
_cell_length_c                   17.615(2)
_cell_angle_alpha                90
_cell_angle_beta                 90
_cell_angle_gamma                90
_cell_volume                     3046.42
_exptl_crystal_colour            colorless
_cell_formula_units_Z            8
loop_
_atom_site_label
_atom_site_type_symbol
_atom_site_fract_x
_atom_site_fract_y
_atom_site_fract_z
P1 P 0.3404(5) 0.1502(3) 0.0879(3)
O1 O 0.340(1) 0.2231(8) 0.0264(7)
O2 O 0.189(1) -0.0582(6) 0.3857(6)
O3 O 0.244(1) 0.0832(8) 0.0566(7)
O4 O 0.461(1) 0.1168(9) 0.1036(6)
O5 O 0.139(1) 0.3093(7) 0.2627(8)
O6 O 0.321(1) 0.3441(8) 0.2962(7)
N1 N 0.253(1) 0.3107(7) 0.2542(8)
C1 C 0.265(2) 0.199(1) 0.167(1)
C2 C 0.313(2) 0.272(1) 0.1858(9)
C3 C 0.391(2) 0.214(1) -0.050(1)
C4 C 0.509(3) 0.251(2) -0.043(2)
C5 C 0.274(2) -0.004(1) 0.071(1)
C6 C 0.162(3) -0.050(2) 0.054(1)
C7 C 0.250(1) 0.1279(8) 0.2322(9)
C8 C 0.348(1) 0.104(1) 0.2758(9)
C9 C 0.325(1) 0.042(1) 0.329(1)
C10 C 0.209(1) 0.007(1) 0.3351(9)
C11 C 0.109(1) 0.035(1) 0.2917(8)
C12 C 0.127(1) 0.0959(9) 0.237(1)
loop_
_geom_bond_atom_site_label_1
_geom_bond_atom_site_label_2
_geom_bond_site_symmetry_1
_geom_bond_site_symmetry_2
P1 O1 1_555 1_555
O1 C3 1_555 1_555
O2 C10 1_555 1_555
O3 P1 1_555 1_555
O4 P1 1_555 1_555
O5 N1 1_555 1_555
O6 N1 1_555 1_555
N1 C2 1_555 1_555
C1 P1 1_555 1_555
C2 C1 1_555 1_555
C3 C4 1_555 1_555
C5 O3 1_555 1_555
C6 C5 1_555 1_555
C7 C1 1_555 1_555
C8 C7 1_555 1_555
C9 C8 1_555 1_555
C10 C9 1_555 1_555
C11 C10 1_555 1_555
C12 C7 1_555 1_555
C11 C12 1_555 1_555

#END
