
#######################################################################
#
#                 Cambridge Crystallographic Data Centre
#                                CCDC 
#
#######################################################################
#
# If this CIF has been generated from an entry in the Cambridge 
# Structural Database, then it will include bibliographic, chemical, 
# crystal, experimental, refinement or atomic coordinate data resulting 
# from the CCDC's data processing and validation procedures.
#
#######################################################################

data_TETZOJ
_chemical_formula_moiety         'C18 H14 N2 O2'
_chemical_name_systematic        3-(Di-1H-pyrrol-2-ylmethyl)-4H-chromen-4-one
_symmetry_cell_setting           triclinic
_symmetry_space_group_name_H-M   'P -1'
_symmetry_Int_Tables_number      2
_space_group_name_Hall           '-P 1'
loop_
_symmetry_equiv_pos_site_id
_symmetry_equiv_pos_as_xyz
1 x,y,z
2 -x,-y,-z
_cell_length_a                   9.7407(7)
_cell_length_b                   11.6842(8)
_cell_length_c                   14.5889(9)
_cell_angle_alpha                102.850(6)
_cell_angle_beta                 104.501(6)
_cell_angle_gamma                104.832(6)
_cell_volume                     1479.34
_exptl_crystal_colour            red
_exptl_crystal_description       block
_cell_formula_units_Z            4
loop_
_atom_site_label
_atom_site_type_symbol
_atom_site_fract_x
_atom_site_fract_y
_atom_site_fract_z
O1 O 0.3928(2) 0.15870(17) 0.15079(14)
O2 O 0.4688(2) 0.43321(16) 0.40423(14)
N1 N 0.6708(2) 0.3618(2) 0.54723(17)
H1 H 0.6318 0.4207 0.5403
N2 N 0.3253(3) 0.3035(2) 0.52503(17)
H2 H 0.3933 0.3769 0.5403
C1 C 0.3988(3) 0.2761(3) 0.1467(2)
C2 C 0.3805(3) 0.2930(3) 0.0529(2)
H5 H 0.3649 0.2267 -0.0039
C3 C 0.3860(3) 0.4091(3) 0.0466(2)
H6 H 0.3745 0.4231 -0.0162
C4 C 0.4079(3) 0.5072(3) 0.1286(2)
H7 H 0.4109 0.5867 0.1217
C5 C 0.4252(3) 0.4883(3) 0.2198(2)
H8 H 0.4403 0.5551 0.2762
C6 C 0.4207(3) 0.3710(2) 0.2304(2)
C7 C 0.4418(3) 0.3484(2) 0.3268(2)
C8 C 0.4314(3) 0.2231(2) 0.3258(2)
C9 C 0.4101(3) 0.1386(3) 0.2405(2)
H9 H 0.4068 0.0574 0.2428
C10 C 0.4463(3) 0.1838(2) 0.4196(2)
H10 H 0.4287 0.0925 0.3965
C11 C 0.6030(3) 0.2384(2) 0.4950(2)
C12 C 0.6997(3) 0.1786(3) 0.5273(2)
H11 H 0.6823 0.0918 0.5041
C13 C 0.8295(3) 0.2672(3) 0.6011(2)
H12 H 0.9152 0.2514 0.6363
C14 C 0.8091(3) 0.3797(3) 0.6123(2)
H13 H 0.8783 0.4570 0.6572
C15 C 0.3249(3) 0.1950(2) 0.46497(19)
C16 C 0.2013(3) 0.1036(3) 0.4598(2)
H14 H 0.1712 0.0183 0.4230
C17 C 0.1258(3) 0.1576(3) 0.5185(2)
H15 H 0.0363 0.1156 0.5289
C18 C 0.2050(3) 0.2807(3) 0.5574(2)
H16 H 0.1805 0.3408 0.6001
O3 O 1.0194(2) 0.20714(19) 0.14643(16)
O4 O 0.8005(2) 0.43507(17) 0.05524(14)
N3 N 0.6405(3) 0.2049(2) -0.24369(18)
H3 H 0.6895 0.2355 -0.2807
N4 N 1.0883(2) 0.3036(2) -0.15655(17)
H4 H 1.1204 0.3852 -0.1326
C19 C 0.9559(3) 0.2667(3) 0.2085(2)
C20 C 0.9796(4) 0.2502(3) 0.3020(2)
H17 H 1.0404 0.2026 0.3226
C21 C 0.9129(3) 0.3042(3) 0.3639(3)
H18 H 0.9255 0.2920 0.4273
C22 C 0.8271(3) 0.3766(3) 0.3351(2)
H19 H 0.7813 0.4132 0.3785
C23 C 0.8089(3) 0.3949(3) 0.2439(2)
H20 H 0.7511 0.4452 0.2248
C24 C 0.8740(3) 0.3407(2) 0.1785(2)
C25 C 0.8560(3) 0.3581(2) 0.0804(2)
C26 C 0.9077(3) 0.2790(2) 0.0150(2)
C27 C 0.9871(3) 0.2123(3) 0.0517(2)
H21 H 1.0240 0.1647 0.0081
C28 C 0.8710(3) 0.2777(3) -0.0929(2)
H22 H 0.8910 0.3662 -0.0925
C29 C 0.7046(3) 0.2107(2) -0.1468(2)
C30 C 0.5920(3) 0.1536(2) -0.1164(2)
H23 H 0.6028 0.1437 -0.0524
C31 C 0.4560(3) 0.1115(3) -0.1964(3)
H24 H 0.3592 0.0683 -0.1962
C32 C 0.4901(3) 0.1446(3) -0.2738(3)
H25 H 0.4208 0.1285 -0.3378
C33 C 0.9646(3) 0.2265(3) -0.1475(2)
C34 C 0.9532(3) 0.1080(3) -0.1947(2)
H26 H 0.8775 0.0342 -0.2009
C35 C 1.0733(3) 0.1144(3) -0.2325(2)
H27 H 1.0933 0.0458 -0.2686
C36 C 1.1552(3) 0.2359(3) -0.2080(2)
H28 H 1.2432 0.2681 -0.2239
loop_
_geom_bond_atom_site_label_1
_geom_bond_atom_site_label_2
_geom_bond_site_symmetry_1
_geom_bond_site_symmetry_2
O1 C1 1_555 1_555
O2 C7 1_555 1_555
O3 C19 1_555 1_555
O4 C25 1_555 1_555
N1 H1 1_555 1_555
N2 H2 1_555 1_555
N3 H3 1_555 1_555
N4 H4 1_555 1_555
C1 C2 1_555 1_555
C2 H5 1_555 1_555
C3 C2 1_555 1_555
H6 C3 1_555 1_555
C4 C3 1_555 1_555
H7 C4 1_555 1_555
C5 C4 1_555 1_555
H8 C5 1_555 1_555
C6 C1 1_555 1_555
C7 C6 1_555 1_555
C8 C7 1_555 1_555
C9 O1 1_555 1_555
H9 C9 1_555 1_555
C10 C8 1_555 1_555
H10 C10 1_555 1_555
C11 N1 1_555 1_555
C12 C11 1_555 1_555
H11 C12 1_555 1_555
C13 C12 1_555 1_555
H12 C13 1_555 1_555
C14 N1 1_555 1_555
H13 C14 1_555 1_555
C15 N2 1_555 1_555
C16 C15 1_555 1_555
H14 C16 1_555 1_555
C17 C16 1_555 1_555
H15 C17 1_555 1_555
C18 N2 1_555 1_555
H16 C18 1_555 1_555
C19 C20 1_555 1_555
C20 H17 1_555 1_555
C21 C20 1_555 1_555
H18 C21 1_555 1_555
C22 C21 1_555 1_555
H19 C22 1_555 1_555
C23 C22 1_555 1_555
H20 C23 1_555 1_555
C24 C19 1_555 1_555
C25 C24 1_555 1_555
C26 C25 1_555 1_555
C27 O3 1_555 1_555
H21 C27 1_555 1_555
C28 C26 1_555 1_555
H22 C28 1_555 1_555
C29 N3 1_555 1_555
C30 C29 1_555 1_555
H23 C30 1_555 1_555
C31 C30 1_555 1_555
H24 C31 1_555 1_555
C32 N3 1_555 1_555
H25 C32 1_555 1_555
C33 N4 1_555 1_555
C34 C33 1_555 1_555
H26 C34 1_555 1_555
C35 C34 1_555 1_555
H27 C35 1_555 1_555
C36 N4 1_555 1_555
H28 C36 1_555 1_555
C5 C6 1_555 1_555
C8 C9 1_555 1_555
C10 C11 1_555 1_555
C10 C15 1_555 1_555
C13 C14 1_555 1_555
C17 C18 1_555 1_555
C23 C24 1_555 1_555
C26 C27 1_555 1_555
C28 C29 1_555 1_555
C28 C33 1_555 1_555
C31 C32 1_555 1_555
C35 C36 1_555 1_555

#END
