
#######################################################################
#
#                 Cambridge Crystallographic Data Centre
#                                CCDC 
#
#######################################################################
#
# If this CIF has been generated from an entry in the Cambridge 
# Structural Database, then it will include bibliographic, chemical, 
# crystal, experimental, refinement or atomic coordinate data resulting 
# from the CCDC's data processing and validation procedures.
#
#######################################################################

data_TEVBIH
_chemical_formula_moiety         'C21 H17 B1 F2 N2 O2'
_chemical_name_systematic        
13,13-Difluoro-10-isopropyl-6bH,13H-7,12-dioxa-6a,13a-diaza-13-boradicyclopenta[a,h]naphtho[3,2,1-cd]azulene
_symmetry_cell_setting           monoclinic
_symmetry_space_group_name_H-M   'P 21/n'
_symmetry_Int_Tables_number      14
_space_group_name_Hall           '-P 2yn'
loop_
_symmetry_equiv_pos_site_id
_symmetry_equiv_pos_as_xyz
1 x,y,z
2 1/2-x,1/2+y,1/2-z
3 -x,-y,-z
4 1/2+x,1/2-y,1/2+z
_cell_length_a                   6.2233(15)
_cell_length_b                   21.974(5)
_cell_length_c                   13.118(3)
_cell_angle_alpha                90
_cell_angle_beta                 91.286(4)
_cell_angle_gamma                90
_cell_volume                     1793.45
_exptl_crystal_colour            orange
_exptl_crystal_description       block
_cell_formula_units_Z            4
loop_
_atom_site_label
_atom_site_type_symbol
_atom_site_fract_x
_atom_site_fract_y
_atom_site_fract_z
F1 F 0.4543(4) 0.75667(13) 0.47347(18)
F2 F 0.8001(4) 0.78119(10) 0.51707(18)
O1 O 0.6813(4) 0.68210(12) 0.52810(17)
O2 O 1.1445(4) 0.55040(11) 0.54364(18)
N1 N 0.7255(4) 0.73236(14) 0.3569(2)
N2 N 1.3152(4) 0.59936(13) 0.4075(2)
C1 C 0.7369(10) 0.5917(4) 0.9776(4)
H1 H 0.8496 0.6206 0.9665
H2 H 0.7986 0.5531 0.9959
H3 H 0.6482 0.6057 1.0318
C2 C 0.6058(8) 0.5851(4) 0.8841(4)
H4 H 0.5959 0.5411 0.8957
C3 C 0.7377(7) 0.5737(3) 0.7899(3)
C4 C 0.7350(6) 0.6151(2) 0.7104(3)
H5 H 0.6421 0.6482 0.7129
C5 C 0.8664(5) 0.60881(18) 0.6269(3)
C6 C 0.8581(5) 0.64955(16) 0.5393(2)
C7 C 1.0236(5) 0.64735(15) 0.4735(2)
C8 C 1.0422(5) 0.66649(15) 0.3710(2)
C9 C 1.2260(5) 0.63592(16) 0.3312(3)
C10 C 1.3527(6) 0.62968(17) 0.2471(3)
H6 H 1.3319 0.6486 0.1842
C11 C 1.5185(6) 0.58947(18) 0.2743(3)
H7 H 1.6277 0.5767 0.2320
C12 C 0.7213(7) 0.75003(19) 0.1882(3)
H8 H 0.6773 0.7644 0.1244
C13 C 0.8976(6) 0.71503(16) 0.2096(3)
H9 H 0.9966 0.7013 0.1628
C14 C 0.9030(5) 0.70353(15) 0.3143(3)
C15 C 0.6204(7) 0.76003(19) 0.2798(3)
H10 H 0.4959 0.7829 0.2867
C16 C 1.2117(5) 0.60754(16) 0.5037(2)
H11 H 1.3073 0.6286 0.5525
C17 C 1.0052(5) 0.55852(17) 0.6229(3)
C18 C 0.9999(6) 0.5148(2) 0.6982(3)
H12 H 1.0848 0.4801 0.6938
C19 C 0.8677(7) 0.5229(3) 0.7801(3)
H13 H 0.8655 0.4931 0.8305
C20 C 1.4933(6) 0.57198(18) 0.3736(3)
H14 H 1.5830 0.5459 0.4107
B1 B 0.6659(8) 0.7393(2) 0.4706(4)
C21 C 0.3965(10) 0.5883(5) 0.8742(6)
H15 H 0.3560 0.5867 0.8032
H16 H 0.3473 0.6259 0.9028
H17 H 0.3325 0.5548 0.9092
loop_
_geom_bond_atom_site_label_1
_geom_bond_atom_site_label_2
_geom_bond_site_symmetry_1
_geom_bond_site_symmetry_2
F1 B1 1_555 1_555
F2 B1 1_555 1_555
O1 C6 1_555 1_555
O2 C16 1_555 1_555
N1 C14 1_555 1_555
N2 C9 1_555 1_555
C1 H1 1_555 1_555
H2 C1 1_555 1_555
H3 C1 1_555 1_555
C2 C1 1_555 1_555
H4 C2 1_555 1_555
C3 C2 1_555 1_555
C4 C3 1_555 1_555
H5 C4 1_555 1_555
C5 C4 1_555 1_555
C6 C5 1_555 1_555
C7 C6 1_555 1_555
C8 C7 1_555 1_555
C9 C8 1_555 1_555
C10 C9 1_555 1_555
H6 C10 1_555 1_555
C11 C10 1_555 1_555
H7 C11 1_555 1_555
C12 H8 1_555 1_555
C13 C12 1_555 1_555
H9 C13 1_555 1_555
C14 C8 1_555 1_555
C15 N1 1_555 1_555
H10 C15 1_555 1_555
C16 N2 1_555 1_555
H11 C16 1_555 1_555
C17 O2 1_555 1_555
C18 C17 1_555 1_555
H12 C18 1_555 1_555
C19 C3 1_555 1_555
H13 C19 1_555 1_555
C20 N2 1_555 1_555
H14 C20 1_555 1_555
B1 O1 1_555 1_555
C21 C2 1_555 1_555
H15 C21 1_555 1_555
H16 C21 1_555 1_555
H17 C21 1_555 1_555
N1 B1 1_555 1_555
C5 C17 1_555 1_555
C7 C16 1_555 1_555
C11 C20 1_555 1_555
C12 C15 1_555 1_555
C13 C14 1_555 1_555
C18 C19 1_555 1_555

#END
