
#######################################################################
#
#                 Cambridge Crystallographic Data Centre
#                                CCDC 
#
#######################################################################
#
# If this CIF has been generated from an entry in the Cambridge 
# Structural Database, then it will include bibliographic, chemical, 
# crystal, experimental, refinement or atomic coordinate data resulting 
# from the CCDC's data processing and validation procedures.
#
#######################################################################

data_TEVCIG
_chemical_formula_moiety         
'C28 H38 O6 Si1,0.5(C3 H7 N1 O1),0.25(C1 H1 Cl3)'
_chemical_name_systematic        
'(+-)-1-O-t-Butyldiphenylsilyl-2,3-O-cyclohexylidene-myo-inositol dimethylformamide chloroform solvate'
_symmetry_cell_setting           triclinic
_symmetry_space_group_name_H-M   'P -1'
_symmetry_Int_Tables_number      2
_space_group_name_Hall           '-P 1'
loop_
_symmetry_equiv_pos_site_id
_symmetry_equiv_pos_as_xyz
1 x,y,z
2 -x,-y,-z
_cell_length_a                   9.556(3)
_cell_length_b                   16.834(3)
_cell_length_c                   20.186(4)
_cell_angle_alpha                80.45(2)
_cell_angle_beta                 77.74(2)
_cell_angle_gamma                89.02(2)
_cell_volume                     3128.65
_exptl_crystal_colour            colorless
_chemical_melting_point          '98-100 deg.C'
_cell_formula_units_Z            4
loop_
_atom_site_label
_atom_site_type_symbol
_atom_site_fract_x
_atom_site_fract_y
_atom_site_fract_z
C29 C 0.2669(5) 0.3216(2) 0.7250(2)
H39 H 0.2202(40) 0.3558(21) 0.7546(18)
C30 C 0.1500(5) 0.2663(2) 0.7168(2)
H40 H 0.0922(43) 0.2515(22) 0.7569(20)
C31 C 0.0597(5) 0.2984(3) 0.6651(2)
H41 H -0.0189(40) 0.3263(20) 0.6836(17)
C32 C 0.1418(5) 0.3504(2) 0.6010(2)
H42 H 0.2060(38) 0.3185(20) 0.5744(17)
C33 C 0.2368(6) 0.4122(3) 0.6178(2)
H43 H 0.1716(44) 0.4429(23) 0.6417(19)
C34 C 0.3425(5) 0.3700(3) 0.6577(2)
H44 H 0.4014(44) 0.3268(24) 0.6280(20)
O7 O 0.3684(3) 0.2768(2) 0.75763(13)
O8 O 0.2109(3) 0.1973(2) 0.69036(15)
O9 O 0.0061(4) 0.2260(2) 0.6502(2)
O10 O 0.0412(4) 0.3869(2) 0.5625(2)
H45 H 0.0743(56) 0.4121(29) 0.5238(25)
O11 O 0.3110(4) 0.4594(2) 0.55678(15)
H46 H 0.2969(59) 0.5068(32) 0.5563(26)
O12 O 0.4357(4) 0.4251(2) 0.6733(2)
H47 H 0.4747(50) 0.4533(26) 0.6385(23)
Si2 Si 0.36448(14) 0.24963(7) 0.83975(6)
C35 C 0.3746(5) 0.3415(2) 0.8797(2)
C36 C 0.4130(6) 0.4160(3) 0.8407(2)
H48 H 0.4341(6) 0.4209(3) 0.7931(2)
C37 C 0.4214(6) 0.4838(3) 0.8700(3)
H49 H 0.4456(6) 0.5336(3) 0.8423(3)
C38 C 0.3938(6) 0.4772(3) 0.9403(3)
H50 H 0.3993(6) 0.5225(3) 0.9605(3)
C39 C 0.3582(6) 0.4037(3) 0.9803(2)
H51 H 0.3409(6) 0.3989(3) 1.0279(2)
C40 C 0.3478(6) 0.3372(3) 0.9508(2)
H52 H 0.3223(6) 0.2878(3) 0.9789(2)
C41 C 0.1915(5) 0.1951(3) 0.8844(2)
C42 C 0.1720(6) 0.1122(3) 0.8901(2)
H53 H 0.2488(6) 0.0814(3) 0.8732(2)
C43 C 0.0411(8) 0.0749(4) 0.9205(3)
H54 H 0.0319(8) 0.0193(4) 0.9243(3)
C44 C -0.0727(7) 0.1174(4) 0.9444(3)
H55 H -0.1604(7) 0.0915(4) 0.9643(3)
C45 C -0.0595(7) 0.1998(4) 0.9395(3)
H56 H -0.1379(7) 0.2299(4) 0.9559(3)
C46 C 0.0720(6) 0.2371(3) 0.9099(2)
H57 H 0.0804(6) 0.2926(3) 0.9070(2)
C47 C 0.5273(6) 0.1860(3) 0.8411(3)
C48 C 0.5378(7) 0.1218(3) 0.7944(3)
H58 H 0.4536(29) 0.0776(19) 0.8176(20)
H59 H 0.6406(19) 0.0935(23) 0.7922(21)
H60 H 0.526(40) 0.1468(25) 0.7430(9)
C49 C 0.5319(7) 0.1457(4) 0.9155(3)
H61 H 0.4388(26) 0.1083(19) 0.9406(21)
H62 H 0.5394(40) 0.1938(18) 0.9439(20)
H63 H 0.6269(24) 0.1098(20) 0.9135(24)
C50 C 0.6606(6) 0.2429(3) 0.8145(3)
H64 H 0.6660(47) 0.2881(17) 0.8461(17)
H65 H 0.6527(49) 0.2719(21) 0.7635(8)
H66 H 0.7560(30) 0.2072(33) 0.8113(20)
C51 C 0.0988(5) 0.1610(3) 0.6677(2)
C52 C 0.1630(7) 0.1249(3) 0.6057(3)
H67 H 0.2226(7) 0.1650(3) 0.5719(3)
H68 H 0.0872(7) 0.1083(3) 0.5854(3)
C53 C 0.2523(9) 0.0529(4) 0.6241(3)
H69 H 0.3335(9) 0.0705(4) 0.6402(3)
H70 H 0.2888(9) 0.0289(4) 0.5835(3)
C54 C 0.1644(9) -0.0099(3) 0.6799(4)
H71 H 0.0879(9) -0.0309(3) 0.6626(4)
H72 H 0.2250(9) -0.0543(3) 0.6923(4)
C55 C 0.1023(8) 0.0266(3) 0.7420(3)
H73 H 0.1793(8) 0.0426(3) 0.7618(3)
H74 H 0.0429(8) -0.0133(3) 0.7760(3)
C56 C 0.0135(6) 0.0992(3) 0.7248(3)
H75 H -0.0188(6) 0.1237(3) 0.7655(3)
H76 H -0.0704(6) 0.0821(3) 0.7106(3)
C57 C 0.9957(19) 0.1707(7) 0.4233(6)
H77 H 1.0917(19) 0.1568(7) 0.4002(6)
Cl1 Cl 1.0291(5) 0.02399(2) 0.4696(2)
Cl2 Cl 0.9195(7) 0.2056(3) 0.3590(3)
Cl3 Cl 0.9309(7) 0.0829(3) 0.4724(2)
Cl1A Cl 0.9709(5) -0.02399(2) 0.5304(2)
Cl3A Cl 1.0691(7) -0.0829(3) 0.5276(2)
C57A C 1.0043(19) -0.1707(7) 0.5767(6)
H77A H 0.9083(19) -0.1568(7) 0.5998(6)
Cl2A Cl 1.0805(7) -0.2056(3) 0.6410(3)
N1 N 0.6637(7) 0.2838(3) 0.5430(3)
C58 C 0.7154(8) 0.3543(4) 0.5054(4)
H78 H 0.7619(8) 0.3875(4) 0.5267(4)
O13 O 0.7077(6) 0.3804(2) 0.4441(3)
C59 C 0.6902(10) 0.2554(6) 0.6087(4)
H79 H 0.5936(63) 0.2294(56) 0.6431(49)
H80 H 0.703(11) 0.3172(21) 0.6151(58)
H81 H 0.7813(69) 0.2215(53) 0.6203(57)
C60 C 0.5648(15) 0.2401(6) 0.5155(6)
H82 H 0.552(11) 0.2033(65) 0.5657(26)
H83 H 0.6693(50) 0.2306(75) 0.4851(44)
H84 H 0.4831(83) 0.2237(75) 0.4903(49)
C1 C 0.3250(5) 0.3288(3) 0.2964(2)
H1 H 0.2970(38) 0.2841(21) 0.3311(18)
C2 C 0.1891(6) 0.3687(3) 0.2819(2)
H2 H 0.1282(45) 0.3288(24) 0.2759(20)
C3 C 0.1096(6) 0.4162(3) 0.3361(2)
H3 H 0.0318(53) 0.3842(27) 0.3767(24)
C4 C 0.2042(6) 0.4594(3) 0.3708(2)
H4 H 0.2493(39) 0.5050(21) 0.3424(18)
C5 C 0.3251(5) 0.4076(3) 0.3890(2)
H5 H 0.2831(37) 0.3600(21) 0.4194(17)
C6 C 0.4154(5) 0.3812(3) 0.3255(2)
H6 H 0.4448(45) 0.4300(25) 0.2911(21)
O1 O 0.4063(3) 0.3028(2) 0.23655(13)
O2 O 0.2145(3) 0.4275(2) 0.22105(14)
O3 O 0.0340(4) 0.4752(2) 0.2969(2)
O4 O 0.1240(5) 0.4810(2) 0.4329(2)
H7 H 0.0690(62) 0.5200(33) 0.4303(27)
O5 O 0.4163(4) 0.4496(2) 0.4197(2)
H8 H 0.3484(86) 0.4531(45) 0.4703(41)
O6 O 0.5358(4) 0.3372(2) 0.3416(2)
H9 H 0.5850(73) 0.3551(38) 0.3664(33)
Si1 Si 0.4412(2) 0.21152(7) 0.21896(6)
C7 C 0.3197(5) 0.1866(3) 0.1638(2)
C8 C 0.3241(6) 0.1127(3) 0.1399(2)
H10 H 0.3904(6) 0.0750(3) 0.1519(2)
C9 C 0.2358(7) 0.0939(3) 0.0999(3)
H11 H 0.2413(7) 0.0440(3) 0.0855(3)
C10 C 0.1386(7) 0.1491(4) 0.0809(3)
H12 H 0.0786(7) 0.1372(4) 0.0530(3)
C11 C 0.1300(6) 0.2219(3) 0.1032(2)
H13 H 0.0630(6) 0.2591(3) 0.0909(2)
C12 C 0.2201(5) 0.2402(3) 0.1437(2)
H14 H 0.2135(5) 0.2902(3) 0.1580(2)
C13 C 0.4080(6) 0.1350(3) 0.2993(2)
C14 C 0.4700(6) 0.1439(3) 0.3548(3)
H15 H 0.5293(6) 0.1883(3) 0.3511(3)
C15 C 0.4451(8) 0.0879(4) 0.4151(3)
H16 H 0.4865(8) 0.0956(4) 0.4514(3)
C16 C 0.3607(9) 0.0223(4) 0.4210(3)
H17 H 0.3440(9) -0.0154(4) 0.4613(3)
C17 C 0.3001(10) 0.0116(4) 0.3674(4)
H18 H 0.2432(10) -0.0339(4) 0.3711(4)
C18 C 0.3223(8) 0.0669(3) 0.3088(3)
H19 H 0.2780(8) 0.0587(3) 0.2736(3)
C19 C 0.6336(6) 0.2174(3) 0.1692(2)
C20 C 0.6447(8) 0.2798(4) 0.1034(3)
H20 H 0.5665(35) 0.2649(30) 0.0757(23)
H21 H 0.7504(21) 0.2814(29) 0.0708(22)
H22 H 0.6216(46) 0.3381(15) 0.1185(26)
C21 C 0.6840(7) 0.1355(3) 0.1494(3)
H23 H 0.6262(44) 0.1170(29) 0.1138(18)
H24 H 0.6701(49) 0.0902(23) 0.1951(15)
H25 H 0.7965(13) 0.1426(32) 0.1256(21)
C22 C 0.7332(6) 0.2430(4) 0.2126(3)
H26 H 0.7007(50) 0.3000(13) 0.2282(22)
H27 H 0.8389(25) 0.2495(26) 0.1798(22)
H28 H 0.7349(53) 0.1984(21) 0.2575(14)
C23 C 0.0895(6) 0.4757(3) 0.2254(2)
C24 C 0.1350(6) 0.5598(3) 0.1889(3)
H29 H 0.0569(6) 0.5962(3) 0.2000(3)
H30 H 0.2157(6) 0.5773(3) 0.2054(3)
C25 C 0.1767(7) 0.5650(3) 0.1121(3)
H31 H 0.2624(7) 0.5340(3) 0.1006(3)
H32 H 0.1989(7) 0.6207(3) 0.0910(3)
C26 C 0.0587(8) 0.5335(3) 0.0827(3)
H33 H -0.0242(8) 0.5676(3) 0.0898(3)
H34 H 0.0917(8) 0.5350(3) 0.0337(3)
C27 C 0.0176(7) 0.4485(3) 0.1174(3)
H35 H 0.0977(7) 0.4136(3) 0.1055(3)
H36 H -0.0620(7) 0.4303(3) 0.1005(3)
C28 C -0.0242(6) 0.4417(3) 0.1945(3)
H37 H -0.0419(6) 0.3854(3) 0.2147(3)
H38 H -0.1128(6) 0.4701(3) 0.2064(3)
loop_
_geom_bond_atom_site_label_1
_geom_bond_atom_site_label_2
_geom_bond_site_symmetry_1
_geom_bond_site_symmetry_2
C1 H1 1_555 1_555
C2 C1 1_555 1_555
H2 C2 1_555 1_555
C3 C2 1_555 1_555
H3 C3 1_555 1_555
C4 C3 1_555 1_555
H4 C4 1_555 1_555
C5 C4 1_555 1_555
H5 C5 1_555 1_555
C6 C1 1_555 1_555
H6 C6 1_555 1_555
O1 C1 1_555 1_555
O2 C2 1_555 1_555
O3 C3 1_555 1_555
O4 C4 1_555 1_555
H7 O4 1_555 1_555
O5 C5 1_555 1_555
H8 O5 1_555 1_555
O6 C6 1_555 1_555
H9 O6 1_555 1_555
Si1 O1 1_555 1_555
C7 Si1 1_555 1_555
C8 C7 1_555 1_555
H10 C8 1_555 1_555
C9 C8 1_555 1_555
H11 C9 1_555 1_555
C10 C9 1_555 1_555
H12 C10 1_555 1_555
C11 C10 1_555 1_555
H13 C11 1_555 1_555
C12 C7 1_555 1_555
H14 C12 1_555 1_555
C13 Si1 1_555 1_555
C14 C13 1_555 1_555
H15 C14 1_555 1_555
C15 C14 1_555 1_555
H16 C15 1_555 1_555
C16 C15 1_555 1_555
H17 C16 1_555 1_555
C17 C16 1_555 1_555
H18 C17 1_555 1_555
C18 C13 1_555 1_555
H19 C18 1_555 1_555
C19 Si1 1_555 1_555
C20 C19 1_555 1_555
H20 C20 1_555 1_555
H21 C20 1_555 1_555
H22 C20 1_555 1_555
C21 C19 1_555 1_555
H23 C21 1_555 1_555
H24 C21 1_555 1_555
H25 C21 1_555 1_555
C22 C19 1_555 1_555
H26 C22 1_555 1_555
H27 C22 1_555 1_555
H28 C22 1_555 1_555
C23 O2 1_555 1_555
C24 C23 1_555 1_555
H29 C24 1_555 1_555
H30 C24 1_555 1_555
C25 C24 1_555 1_555
H31 C25 1_555 1_555
H32 C25 1_555 1_555
C26 C25 1_555 1_555
H33 C26 1_555 1_555
H34 C26 1_555 1_555
C27 C26 1_555 1_555
H35 C27 1_555 1_555
H36 C27 1_555 1_555
C28 C23 1_555 1_555
H37 C28 1_555 1_555
H38 C28 1_555 1_555
C29 H39 1_555 1_555
C30 C29 1_555 1_555
H40 C30 1_555 1_555
C31 C30 1_555 1_555
H41 C31 1_555 1_555
C32 C31 1_555 1_555
H42 C32 1_555 1_555
C33 C32 1_555 1_555
H43 C33 1_555 1_555
C34 C29 1_555 1_555
H44 C34 1_555 1_555
O7 C29 1_555 1_555
O8 C30 1_555 1_555
O9 C31 1_555 1_555
O10 C32 1_555 1_555
H45 O10 1_555 1_555
O11 C33 1_555 1_555
H46 O11 1_555 1_555
O12 C34 1_555 1_555
H47 O12 1_555 1_555
Si2 O7 1_555 1_555
C35 Si2 1_555 1_555
C36 C35 1_555 1_555
H48 C36 1_555 1_555
C37 C36 1_555 1_555
H49 C37 1_555 1_555
C38 C37 1_555 1_555
H50 C38 1_555 1_555
C39 C38 1_555 1_555
H51 C39 1_555 1_555
C40 C35 1_555 1_555
H52 C40 1_555 1_555
C41 Si2 1_555 1_555
C42 C41 1_555 1_555
H53 C42 1_555 1_555
C43 C42 1_555 1_555
H54 C43 1_555 1_555
C44 C43 1_555 1_555
H55 C44 1_555 1_555
C45 C44 1_555 1_555
H56 C45 1_555 1_555
C46 C41 1_555 1_555
H57 C46 1_555 1_555
C47 Si2 1_555 1_555
C48 C47 1_555 1_555
H58 C48 1_555 1_555
H59 C48 1_555 1_555
H60 C48 1_555 1_555
C49 C47 1_555 1_555
H61 C49 1_555 1_555
H62 C49 1_555 1_555
H63 C49 1_555 1_555
C50 C47 1_555 1_555
H64 C50 1_555 1_555
H65 C50 1_555 1_555
H66 C50 1_555 1_555
C51 O8 1_555 1_555
C52 C51 1_555 1_555
H67 C52 1_555 1_555
H68 C52 1_555 1_555
C53 C52 1_555 1_555
H69 C53 1_555 1_555
H70 C53 1_555 1_555
C54 C53 1_555 1_555
H71 C54 1_555 1_555
H72 C54 1_555 1_555
C55 C54 1_555 1_555
H73 C55 1_555 1_555
H74 C55 1_555 1_555
C56 C51 1_555 1_555
H75 C56 1_555 1_555
H76 C56 1_555 1_555
C57 H77 1_555 1_555
Cl1 Cl3 1_555 1_555
Cl2 C57 1_555 1_555
Cl3 C57 1_555 1_555
N1 C58 1_555 1_555
C58 H78 1_555 1_555
O13 C58 1_555 1_555
C59 N1 1_555 1_555
H79 C59 1_555 1_555
H80 C59 1_555 1_555
H81 C59 1_555 1_555
C60 N1 1_555 1_555
H82 C60 1_555 1_555
H83 C60 1_555 1_555
H84 C60 1_555 1_555
Cl1A Cl1 1_555 1_555
Cl3A Cl1 1_555 1_555
C57A Cl3A 1_555 1_555
H77A C57A 1_555 1_555
Cl2A C57A 1_555 1_555
C5 C6 1_555 1_555
O3 C23 1_555 1_555
C11 C12 1_555 1_555
C17 C18 1_555 1_555
C27 C28 1_555 1_555
C33 C34 1_555 1_555
O9 C51 1_555 1_555
C39 C40 1_555 1_555
C45 C46 1_555 1_555
C55 C56 1_555 1_555
Cl3 Cl1A 1_555 1_555
Cl1A Cl3A 1_555 1_555

#END
