
#######################################################################
#
#                 Cambridge Crystallographic Data Centre
#                                CCDC 
#
#######################################################################
#
# If this CIF has been generated from an entry in the Cambridge 
# Structural Database, then it will include bibliographic, chemical, 
# crystal, experimental, refinement or atomic coordinate data resulting 
# from the CCDC's data processing and validation procedures.
#
#######################################################################

data_TEVFUY
_chemical_name_common            
'N,N  bis(dichloroacetyl) 2,3 dimethyl 1,2,3,4 tetrahydroquinoxaline'
_chemical_formula_moiety         'C14 H14 Cl4 N2 O2'
_chemical_name_systematic        
1,1'-(2,3-dimethyl-2,3-dihydroquinoxaline-1,4-diyl)bis(2,2-dichloroethanone)
_chemical_properties_biological  
'protects maize against the injury caused by acetochlor'
_symmetry_cell_setting           monoclinic
_symmetry_space_group_name_H-M   'P 21/c'
_symmetry_Int_Tables_number      14
_space_group_name_Hall           '-P 2ybc'
loop_
_symmetry_equiv_pos_site_id
_symmetry_equiv_pos_as_xyz
1 x,y,z
2 -x,1/2+y,1/2-z
3 -x,-y,-z
4 x,1/2-y,1/2+z
_cell_length_a                   13.326(3)
_cell_length_b                   13.668(3)
_cell_length_c                   18.615(4)
_cell_angle_alpha                90
_cell_angle_beta                 96.89(3)
_cell_angle_gamma                90
_cell_volume                     3366.05
_exptl_crystal_colour            colorless
_exptl_crystal_description       block
_cell_formula_units_Z            8
loop_
_atom_site_label
_atom_site_type_symbol
_atom_site_fract_x
_atom_site_fract_y
_atom_site_fract_z
C1 C 0.4503(3) 0.2017(3) 0.37831(18)
C2 C 0.4152(3) 0.1396(3) 0.3225(2)
H1 H 0.4541 0.1273 0.2852
C3 C 0.3216(3) 0.0958(3) 0.3224(2)
H2 H 0.2985 0.0524 0.2856
C4 C 0.2625(3) 0.1157(3) 0.3760(2)
H3 H 0.2004 0.0846 0.3759
C5 C 0.2945(3) 0.1813(3) 0.4301(2)
H4 H 0.2528 0.1976 0.4649
C6 C 0.3889(3) 0.2222(3) 0.43201(19)
C7 C 0.4558(3) 0.3852(3) 0.4388(2)
H5 H 0.4749 0.4375 0.4737
C8 C 0.5528(3) 0.3554(3) 0.4054(2)
H6 H 0.6101 0.3629 0.4432
C9 C 0.3668(3) 0.4232(3) 0.3863(2)
H7 H 0.3522 0.3776 0.3472
H8 H 0.3841 0.4855 0.3674
H9 H 0.3085 0.4304 0.4115
C10 C 0.5732(3) 0.4194(3) 0.3421(2)
H10 H 0.6354 0.3996 0.3252
H11 H 0.5782 0.4865 0.3574
H12 H 0.5188 0.4126 0.3037
C11 C 0.6375(3) 0.2023(3) 0.38927(19)
C12 C 0.6354(3) 0.0906(3) 0.3774(2)
H13 H 0.5688 0.0648 0.3848
C13 C 0.4646(3) 0.2901(3) 0.5507(2)
C14 C 0.4504(3) 0.1893(3) 0.5833(2)
H14 H 0.3844 0.1632 0.5635
Cl1 Cl 0.65840(10) 0.06886(10) 0.28682(6)
Cl2 Cl 0.72940(8) 0.03461(8) 0.43883(6)
Cl3 Cl 0.54642(10) 0.11168(9) 0.55788(7)
Cl4 Cl 0.45657(12) 0.19554(13) 0.67697(6)
N1 N 0.5468(2) 0.2489(2) 0.38436(15)
N2 N 0.4257(2) 0.2997(2) 0.48010(16)
O1 O 0.71749(18) 0.2446(2) 0.40223(16)
O2 O 0.5098(2) 0.3550(2) 0.58504(15)
C15 C -0.0117(2) 0.1890(3) 0.12419(17)
C16 C -0.0569(3) 0.1184(3) 0.16306(19)
H15 H -0.0179 0.0765 0.1944
C17 C -0.1616(3) 0.1117(3) 0.1542(2)
H16 H -0.1925 0.0631 0.1788
C18 C -0.2208(3) 0.1749(3) 0.1101(2)
H17 H -0.2908 0.1688 0.1047
C19 C -0.1753(3) 0.2479(3) 0.07363(19)
H18 H -0.2145 0.2927 0.0450
C20 C -0.0708(3) 0.2534(3) 0.08020(18)
C21 C 0.0480(3) 0.3808(3) 0.11434(19)
H19 H 0.0802 0.4379 0.0950
C22 C 0.1325(3) 0.3075(3) 0.14123(19)
H20 H 0.1872 0.3166 0.1110
C23 C -0.0161(3) 0.4173(3) 0.1716(2)
H21 H -0.0703 0.4571 0.1489
H22 H 0.0252 0.4554 0.2070
H23 H -0.0435 0.3624 0.1948
C24 C 0.1777(3) 0.3225(3) 0.2193(2)
H24 H 0.1276 0.3088 0.2509
H25 H 0.2001 0.3890 0.2260
H26 H 0.2342 0.2792 0.2304
C25 C 0.0066(3) 0.3463(3) -0.0152(2)
C26 C -0.0401(3) 0.2707(3) -0.06998(18)
H27 H -0.1061 0.2498 -0.0573
C27 C 0.1641(3) 0.1375(3) 0.1131(2)
C28 C 0.1252(3) 0.0339(3) 0.09605(19)
H28 H 0.0520 0.0362 0.0819
Cl5 Cl 0.18370(8) -0.01650(8) 0.02475(6)
Cl6 Cl 0.15091(8) -0.03962(8) 0.17459(6)
Cl7 Cl 0.04539(8) 0.16988(8) -0.06288(6)
Cl8 Cl -0.05334(9) 0.31773(9) -0.15832(6)
N3 N 0.09548(19) 0.2047(2) 0.13009(15)
N4 N -0.0167(2) 0.3347(2) 0.05383(15)
O3 O 0.2529(2) 0.1568(2) 0.11257(17)
O4 O 0.06399(19) 0.40895(19) -0.03165(14)
loop_
_geom_bond_atom_site_label_1
_geom_bond_atom_site_label_2
_geom_bond_site_symmetry_1
_geom_bond_site_symmetry_2
C1 C2 1_555 1_555
C2 H1 1_555 1_555
C3 C2 1_555 1_555
H2 C3 1_555 1_555
C4 C3 1_555 1_555
H3 C4 1_555 1_555
C5 C4 1_555 1_555
H4 C5 1_555 1_555
C6 C1 1_555 1_555
C7 H5 1_555 1_555
C8 C7 1_555 1_555
H6 C8 1_555 1_555
C9 C7 1_555 1_555
H7 C9 1_555 1_555
H8 C9 1_555 1_555
H9 C9 1_555 1_555
C10 C8 1_555 1_555
H10 C10 1_555 1_555
H11 C10 1_555 1_555
H12 C10 1_555 1_555
C11 C12 1_555 1_555
C12 H13 1_555 1_555
C13 C14 1_555 1_555
C14 H14 1_555 1_555
Cl1 C12 1_555 1_555
Cl2 C12 1_555 1_555
Cl3 C14 1_555 1_555
Cl4 C14 1_555 1_555
N1 C1 1_555 1_555
N2 C6 1_555 1_555
O1 C11 1_555 1_555
O2 C13 1_555 1_555
C15 C16 1_555 1_555
C16 H15 1_555 1_555
C17 C16 1_555 1_555
H16 C17 1_555 1_555
C18 C17 1_555 1_555
H17 C18 1_555 1_555
C19 C18 1_555 1_555
H18 C19 1_555 1_555
C20 C15 1_555 1_555
C21 H19 1_555 1_555
C22 C21 1_555 1_555
H20 C22 1_555 1_555
C23 C21 1_555 1_555
H21 C23 1_555 1_555
H22 C23 1_555 1_555
H23 C23 1_555 1_555
C24 C22 1_555 1_555
H24 C24 1_555 1_555
H25 C24 1_555 1_555
H26 C24 1_555 1_555
C25 C26 1_555 1_555
C26 H27 1_555 1_555
C27 C28 1_555 1_555
C28 H28 1_555 1_555
Cl5 C28 1_555 1_555
Cl6 C28 1_555 1_555
Cl7 C26 1_555 1_555
Cl8 C26 1_555 1_555
N3 C15 1_555 1_555
N4 C20 1_555 1_555
O3 C27 1_555 1_555
O4 C25 1_555 1_555
C5 C6 1_555 1_555
C7 N2 1_555 1_555
C8 N1 1_555 1_555
C11 N1 1_555 1_555
C13 N2 1_555 1_555
C19 C20 1_555 1_555
C21 N4 1_555 1_555
C22 N3 1_555 1_555
C25 N4 1_555 1_555
C27 N3 1_555 1_555

#END
