
#######################################################################
#
#                 Cambridge Crystallographic Data Centre
#                                CCDC 
#
#######################################################################
#
# If this CIF has been generated from an entry in the Cambridge 
# Structural Database, then it will include bibliographic, chemical, 
# crystal, experimental, refinement or atomic coordinate data resulting 
# from the CCDC's data processing and validation procedures.
#
#######################################################################

data_TEVFAB
_chemical_formula_moiety         'C18 H20 O5,H2 O1'
_chemical_name_systematic        
'sym-6-Hydroxy-dibenzo-14-crown-4 monohydrate clathrate'
_symmetry_cell_setting           orthorhombic
_symmetry_space_group_name_H-M   'C m c 21'
_symmetry_Int_Tables_number      36
_space_group_name_Hall           'C 2n -2'
loop_
_symmetry_equiv_pos_site_id
_symmetry_equiv_pos_as_xyz
1 x,y,z
2 -x,-y,1/2+z
3 -x,y,z
4 x,-y,1/2+z
5 1/2+x,1/2+y,z
6 1/2-x,1/2-y,1/2+z
7 1/2-x,1/2+y,z
8 1/2+x,1/2-y,1/2+z
_cell_length_a                   16.256(10)
_cell_length_b                   12.075(5)
_cell_length_c                   8.767(3)
_cell_angle_alpha                90
_cell_angle_beta                 90
_cell_angle_gamma                90
_cell_volume                     1720.88
_cell_formula_units_Z            4
loop_
_atom_site_label
_atom_site_type_symbol
_atom_site_fract_x
_atom_site_fract_y
_atom_site_fract_z
C1 C 0.0000 0.3867(7) 1.0150
C2 C 0.0769(5) 0.3213(6) 1.0197(9)
C3 C 0.1579(3) 0.1988(5) 0.8623(8)
C4 C 0.2274(4) 0.2080(6) 0.9537(10)
C5 C 0.2937(4) 0.1371(7) 0.9298(11)
C6 C 0.2918(4) 0.0632(7) 0.8183(9)
C7 C 0.2219(3) 0.0530(5) 0.7231(9)
C8 C 0.1561(4) 0.1232(5) 0.7455(8)
C9 C 0.0763(4) 0.0425(6) 0.5433(8)
C10 C 0.0000 0.0657(8) 0.4552(11)
O1 O 0.0896(3) 0.2623(4) 0.8811(7)
O2 O 0.0856(2) 0.1236(3) 0.6615(6)
O3 O 0.0000 0.4591(8) 0.9195(14)
H1 H 0.0000 0.4455 1.0700
H2 H 0.0726 0.2682 1.1017
H3 H 0.1238 0.3704 1.0370
H4 H 0.2287 0.2626 1.0342
H5 H 0.3427 0.1417 0.9927
H6 H 0.3390 0.0144 0.8022
H7 H 0.2212 -0.0022 0.6433
H8 H 0.1240 0.0464 0.4771
H9 H 0.0727 -0.0318 0.5865
H10 H 0.0000 -0.0009 0.3881
H11 H 0.0000 0.4455 0.8140
C9B C -0.0763(4) 0.0425(6) 0.5433(8)
O2B O -0.0856(2) 0.1236(3) 0.6615(6)
C8B C -0.1561(4) 0.1232(5) 0.7455(8)
C3B C -0.1579(3) 0.1988(5) 0.8623(8)
C4B C -0.2274(4) 0.2080(6) 0.9537(10)
C5B C -0.2937(4) 0.1371(7) 0.9298(11)
C6B C -0.2918(4) 0.0632(7) 0.8183(9)
C7B C -0.2219(3) 0.0530(5) 0.7231(9)
H7B H -0.2212 -0.0022 0.6433
H6B H -0.3390 0.0144 0.8022
H5B H -0.3427 0.1417 0.9927
H4B H -0.2287 0.2626 1.0342
O1B O -0.0896(3) 0.2623(4) 0.8811(7)
C2B C -0.0769(5) 0.3213(6) 1.0197(9)
H2B H -0.0726 0.2682 1.1017
H3B H -0.1238 0.3704 1.0370
H8B H -0.1240 0.0464 0.4771
H9B H -0.0727 -0.0318 0.5865
O5 O 0.0000 0.3473(6) 0.6049(9)
H13 H 0.0405 0.2995 0.6693
H13B H -0.0405 0.2995 0.6693
O4? O 0.0000 0.1583(8) 0.3772(10)
H12? H 0.0000 0.2091 0.4701
loop_
_geom_bond_atom_site_label_1
_geom_bond_atom_site_label_2
_geom_bond_site_symmetry_1
_geom_bond_site_symmetry_2
C1 C2 1_555 1_555
C2 O1 1_555 1_555
C3 C4 1_555 1_555
C4 C5 1_555 1_555
C5 C6 1_555 1_555
C6 C7 1_555 1_555
C7 C8 1_555 1_555
C8 C3 1_555 1_555
C9 C10 1_555 1_555
C10 H10 1_555 1_555
O1 C3 1_555 1_555
O2 C8 1_555 1_555
O3 C1 1_555 1_555
O5 H13 1_555 1_555
H1 C1 1_555 1_555
H2 C2 1_555 1_555
H3 C2 1_555 1_555
H4 C4 1_555 1_555
H5 C5 1_555 1_555
H6 C6 1_555 1_555
H7 C7 1_555 1_555
H8 C9 1_555 1_555
H9 C9 1_555 1_555
H11 O3 1_555 1_555
C9B C10 1_555 1_555
O2B C9B 1_555 1_555
C8B O2B 1_555 1_555
C3B C8B 1_555 1_555
C4B C3B 1_555 1_555
C5B C4B 1_555 1_555
C6B C5B 1_555 1_555
C7B C8B 1_555 1_555
H7B C7B 1_555 1_555
H6B C6B 1_555 1_555
H5B C5B 1_555 1_555
H4B C4B 1_555 1_555
O1B C3B 1_555 1_555
C2B C1 1_555 1_555
H2B C2B 1_555 1_555
H3B C2B 1_555 1_555
H8B C9B 1_555 1_555
H9B C9B 1_555 1_555
H13B O5 1_555 1_555
C9 O2 1_555 1_555
C6B C7B 1_555 1_555
O1B C2B 1_555 1_555

#END
