
#######################################################################
#
#                 Cambridge Crystallographic Data Centre
#                                CCDC 
#
#######################################################################
#
# If this CIF has been generated from an entry in the Cambridge 
# Structural Database, then it will include bibliographic, chemical, 
# crystal, experimental, refinement or atomic coordinate data resulting 
# from the CCDC's data processing and validation procedures.
#
#######################################################################

data_TEVGEJ
_chemical_formula_moiety         'C34 H36 N6 O2 S2'
_chemical_name_systematic        
2,2'-(4,4'-bis(2-ethylhexyl)-5,5'-dioxo-4,4',5,5'-tetrahydro-2H,2'H-6,6'-bithieno[3,2-b]pyrrole-2,2'-diylidene)dimalononitrile
_symmetry_cell_setting           triclinic
_symmetry_space_group_name_H-M   'P -1'
_symmetry_Int_Tables_number      2
_space_group_name_Hall           '-P 1'
loop_
_symmetry_equiv_pos_site_id
_symmetry_equiv_pos_as_xyz
1 x,y,z
2 -x,-y,-z
_cell_length_a                   6.521(5)
_cell_length_b                   9.915(5)
_cell_length_c                   13.407(7)
_cell_angle_alpha                97.31(3)
_cell_angle_beta                 95.05(4)
_cell_angle_gamma                103.14(4)
_cell_volume                     831.122
_exptl_crystal_colour            red
_exptl_crystal_description       needle
_cell_formula_units_Z            1
loop_
_atom_site_label
_atom_site_type_symbol
_atom_site_fract_x
_atom_site_fract_y
_atom_site_fract_z
C1 C 0.6150(15) 0.1793(8) 0.4040(6)
C2 C 0.5813(15) 0.2765(8) 0.4856(6)
H1 H 0.6794 0.3629 0.5121
C3 C 0.3936(15) 0.2311(7) 0.5206(6)
C4 C 0.2700(15) 0.0952(8) 0.4651(6)
C5 C 0.0881(15) 0.0607(8) 0.5107(6)
C6 C 0.0927(16) 0.1791(8) 0.5906(7)
C7 C 0.3422(14) 0.4124(8) 0.6587(6)
H2 H 0.2158 0.452 0.659
H3 H 0.4533 0.477 0.6303
C8 C 0.4228(18) 0.4025(9) 0.7677(6)
H4 H 0.3114 0.3292 0.7902
C9 C 0.6229(18) 0.3507(11) 0.7752(7)
H5 H 0.7374 0.4176 0.7506
H6 H 0.5923 0.2616 0.7277
C10 C 0.672(4) 0.316(4) 0.8817(13)
H7 H 0.6907 0.4 0.9329
H8 H 0.5538 0.2421 0.8969
C11 C 0.877(4) 0.264(3) 0.8851(14)
H9 H 0.8491 0.1736 0.8391
H10 H 0.9862 0.3319 0.8584
C12 C 0.967(5) 0.243(4) 0.9897(17)
H11 H 0.9129 0.1454 0.9994
H12 H 0.9243 0.3056 1.042
H13 H 1.1224 0.2642 0.9946
C13 C 0.434(2) 0.5395(11) 0.8385(8)
H14 H 0.2922 0.5608 0.8333
H15 H 0.4703 0.5267 0.9094
C14 C 0.598(3) 0.6639(14) 0.8129(11)
H16 H 0.7317 0.6366 0.8048
H17 H 0.6223 0.7431 0.8679
H18 H 0.5453 0.6914 0.7497
C15 C 0.7894(15) 0.1931(8) 0.3530(6)
C16 C 0.8041(16) 0.0834(10) 0.2729(7)
C17 C 0.9667(16) 0.3100(9) 0.3797(6)
N1 N 0.2868(11) 0.2765(6) 0.5944(5)
N2 N 0.8160(15) -0.0030(9) 0.2119(6)
N3 N 1.1096(12) 0.4069(7) 0.4048(5)
O1 O -0.0461(11) 0.1963(5) 0.6419(4)
S1 S 0.3981(4) 0.03121(19) 0.37151(16)
C1A C -0.6150(15) -0.1793(8) 0.5960(6)
C2A C -0.5813(15) -0.2765(8) 0.5144(6)
H1A H -0.6794 -0.3629 0.4879
C3A C -0.3936(15) -0.2311(7) 0.4794(6)
C4A C -0.2700(15) -0.0952(8) 0.5349(6)
C5A C -0.0881(15) -0.0607(8) 0.4893(6)
C6A C -0.0927(16) -0.1791(8) 0.4094(7)
C7A C -0.3422(14) -0.4124(8) 0.3413(6)
H2A H -0.2158 -0.452 0.341
H3A H -0.4533 -0.477 0.3697
C8A C -0.4228(18) -0.4025(9) 0.2323(6)
H4A H -0.3114 -0.3292 0.2098
C9A C -0.6229(18) -0.3507(11) 0.2248(7)
H5A H -0.7374 -0.4176 0.2494
H6A H -0.5923 -0.2616 0.2723
C10A C -0.672(4) -0.316(4) 0.1183(13)
H7A H -0.6907 -0.4 0.0671
H8A H -0.5538 -0.2421 0.1031
C11A C -0.877(4) -0.264(3) 0.1149(14)
H9A H -0.8491 -0.1736 0.1609
H10A H -0.9862 -0.3319 0.1416
C12A C -0.967(5) -0.243(4) 0.0103(17)
H11A H -0.9129 -0.1454 0.0006
H12A H -0.9243 -0.3056 -0.042
H13A H -1.1224 -0.2642 0.0054
C13A C -0.434(2) -0.5395(11) 0.1615(8)
H14A H -0.2922 -0.5608 0.1667
H15A H -0.4703 -0.5267 0.0906
C14A C -0.598(3) -0.6639(14) 0.1871(11)
H16A H -0.7317 -0.6366 0.1952
H17A H -0.6223 -0.7431 0.1321
H18A H -0.5453 -0.6914 0.2503
C15A C -0.7894(15) -0.1931(8) 0.6470(6)
C16A C -0.8041(16) -0.0834(10) 0.7271(7)
C17A C -0.9667(16) -0.3100(9) 0.6203(6)
N1A N -0.2868(11) -0.2765(6) 0.4056(5)
N2A N -0.8160(15) 0.0030(9) 0.7881(6)
N3A N -1.1096(12) -0.4069(7) 0.5952(5)
O1A O 0.0461(11) -0.1963(5) 0.3581(4)
S1A S -0.3981(4) -0.03121(19) 0.62849(16)
C18? C 0.738(5) 0.335(3) 0.8760(15)
H19? H 0.6865 0.3935 0.929
H20? H 0.8894 0.3814 0.875
C19? C 0.737(5) 0.197(3) 0.916(2)
H21? H 0.5895 0.152 0.9251
H22? H 0.7822 0.1336 0.8633
C20? C 0.879(6) 0.209(4) 1.015(3)
H23? H 0.9784 0.149 1.0056
H24? H 0.7902 0.1781 1.0676
H25? H 0.9575 0.3062 1.0366
loop_
_geom_bond_atom_site_label_1
_geom_bond_atom_site_label_2
_geom_bond_site_symmetry_1
_geom_bond_site_symmetry_2
C1 C2 1_555 1_555
C2 H1 1_555 1_555
C3 C2 1_555 1_555
C4 C3 1_555 1_555
C5 C4 1_555 1_555
C6 C5 1_555 1_555
C7 H2 1_555 1_555
H3 C7 1_555 1_555
C8 C7 1_555 1_555
H4 C8 1_555 1_555
C9 C8 1_555 1_555
H5 C9 1_555 1_555
H6 C9 1_555 1_555
C10 C9 1_555 1_555
H7 C10 1_555 1_555
H8 C10 1_555 1_555
C11 C10 1_555 1_555
H9 C11 1_555 1_555
H10 C11 1_555 1_555
C12 C11 1_555 1_555
H11 C12 1_555 1_555
H12 C12 1_555 1_555
H13 C12 1_555 1_555
C13 C8 1_555 1_555
H14 C13 1_555 1_555
H15 C13 1_555 1_555
C14 C13 1_555 1_555
H16 C14 1_555 1_555
H17 C14 1_555 1_555
H18 C14 1_555 1_555
C15 C1 1_555 1_555
C16 C15 1_555 1_555
C17 C15 1_555 1_555
N1 C3 1_555 1_555
N2 C16 1_555 1_555
N3 C17 1_555 1_555
O1 C6 1_555 1_555
S1 C1 1_555 1_555
C1A C2A 1_555 1_555
C2A H1A 1_555 1_555
C3A C2A 1_555 1_555
C4A C3A 1_555 1_555
C5A C5 1_555 1_555
C6A C5A 1_555 1_555
C7A H2A 1_555 1_555
H3A C7A 1_555 1_555
C8A C7A 1_555 1_555
H4A C8A 1_555 1_555
C9A C8A 1_555 1_555
H5A C9A 1_555 1_555
H6A C9A 1_555 1_555
C10A C9A 1_555 1_555
H7A C10A 1_555 1_555
H8A C10A 1_555 1_555
C11A C10A 1_555 1_555
H9A C11A 1_555 1_555
H10A C11A 1_555 1_555
C12A C11A 1_555 1_555
H11A C12A 1_555 1_555
H12A C12A 1_555 1_555
H13A C12A 1_555 1_555
C13A C8A 1_555 1_555
H14A C13A 1_555 1_555
H15A C13A 1_555 1_555
C14A C13A 1_555 1_555
H16A C14A 1_555 1_555
H17A C14A 1_555 1_555
H18A C14A 1_555 1_555
C15A C1A 1_555 1_555
C16A C15A 1_555 1_555
C17A C15A 1_555 1_555
N1A C3A 1_555 1_555
N2A C16A 1_555 1_555
N3A C17A 1_555 1_555
O1A C6A 1_555 1_555
S1A C1A 1_555 1_555
C4 S1 1_555 1_555
C6 N1 1_555 1_555
C7 N1 1_555 1_555
C4A C5A 1_555 1_555
C4A S1A 1_555 1_555
C6A N1A 1_555 1_555
C7A N1A 1_555 1_555

#END
