
#######################################################################
#
#                 Cambridge Crystallographic Data Centre
#                                CCDC 
#
#######################################################################
#
# If this CIF has been generated from an entry in the Cambridge 
# Structural Database, then it will include bibliographic, chemical, 
# crystal, experimental, refinement or atomic coordinate data resulting 
# from the CCDC's data processing and validation procedures.
#
#######################################################################

data_TEVJIP01
_chemical_formula_moiety         'C28 H30 N4'
_chemical_name_systematic        
5,5'-Pyrazine-2,5-diylbis(10,10-dimethyl-4-azatricyclo[7.1.1.0^2,7^]undeca-2,4,6-triene)
_symmetry_cell_setting           monoclinic
_symmetry_space_group_name_H-M   'P 21'
_symmetry_Int_Tables_number      4
_space_group_name_Hall           'P 2yb'
loop_
_symmetry_equiv_pos_site_id
_symmetry_equiv_pos_as_xyz
1 x,y,z
2 -x,1/2+y,-z
_cell_length_a                   7.098(6)
_cell_length_b                   8.894(7)
_cell_length_c                   19.076(16)
_cell_angle_alpha                90
_cell_angle_beta                 91.500(14)
_cell_angle_gamma                90
_cell_volume                     1203.85
_cell_formula_units_Z            2
loop_
_atom_site_label
_atom_site_type_symbol
_atom_site_fract_x
_atom_site_fract_y
_atom_site_fract_z
C1 C 0.6718(10) 0.5920(9) 0.2161(4)
H1 H 0.6162 0.5114 0.1923
C2 C 0.8558(9) 0.6084(8) 0.2178(4)
C3 C 0.8282(10) 0.8298(8) 0.2870(4)
H2 H 0.8830 0.9106 0.3108
C4 C 0.6469(11) 0.8106(8) 0.2869(4)
C5 C 0.9059(13) 0.3495(11) 0.1724(5)
H3 H 0.7844 0.3230 0.1847
C6 C 0.9743(12) 0.4972(9) 0.1824(4)
C7 C 1.2656(12) 0.4347(12) 0.1435(5)
H4 H 1.3856 0.4629 0.1301
C8 C 1.2081(12) 0.2842(10) 0.1336(4)
C9 C 1.0257(13) 0.2467(10) 0.1440(5)
C10 C 0.5304(9) 0.9148(8) 0.3285(4)
C11 C 0.6046(12) 1.0474(10) 0.3544(5)
H5 H 0.7297 1.0734 0.3476
C12 C 0.4829(12) 1.1424(10) 0.3919(5)
C13 C 0.2977(10) 1.1080(9) 0.3980(4)
C14 C 0.2386(14) 0.9744(10) 0.3691(5)
H6 H 0.1126 0.9481 0.3735
C15 C 0.9657(17) 0.0804(11) 0.1319(7)
H7 H 0.9133 0.0391 0.1742
H8 H 0.8710 0.0742 0.0944
C16 C 1.1400(19) -0.0060(11) 0.1124(8)
H9 H 1.1178 -0.1142 0.1071
C17 C 1.306(2) 0.0299(13) 0.1583(7)
H10 H 1.4034 -0.0470 0.1587
H11 H 1.2751 0.0595 0.2055
C18 C 1.3454(13) 0.1625(12) 0.1092(5)
H12 H 1.4771 0.1916 0.1027
C19 C 1.2452(14) 0.0645(13) 0.0496(5)
C20 C 1.134(2) 0.1531(19) -0.0059(6)
H13 H 1.1778 0.1276 -0.0516
H14 H 1.1513 0.2588 0.0021
H15 H 1.0025 0.1288 -0.0033
C21 C 1.387(2) -0.0358(18) 0.0151(8)
H16 H 1.3374 -0.1358 0.0109
H17 H 1.5017 -0.0380 0.0432
H18 H 1.4138 0.0026 -0.0306
C22 C 0.5551(11) 1.2901(11) 0.4260(6)
H19 H 0.6539 1.2684 0.4606
H20 H 0.6064 1.3556 0.3906
C23 C 0.3898(14) 1.3669(13) 0.4610(6)
H21 H 0.4213 1.4624 0.4841
C24 C 0.2913(16) 1.2559(15) 0.5063(5)
H22 H 0.2140 1.3001 0.5420
H23 H 0.3707 1.1759 0.5249
C25 C 0.1830(13) 1.2170(10) 0.4355(5)
H24 H 0.0500 1.1899 0.4400
C26 C 0.2189(12) 1.3736(10) 0.4114(6)
C27 C 0.0740(16) 1.4950(11) 0.4392(8)
H25 H -0.0467 1.4804 0.4163
H26 H 0.1194 1.5941 0.4291
H27 H 0.0618 1.4836 0.4889
C28 C 0.241(2) 1.4052(15) 0.3343(7)
H28 H 0.3419 1.3454 0.3167
H29 H 0.2687 1.5098 0.3278
H30 H 0.1258 1.3805 0.3093
N1 N 1.1550(10) 0.5364(9) 0.1710(4)
N2 N 0.9330(11) 0.7344(12) 0.2534(6)
N3 N 0.5664(12) 0.6921(10) 0.2487(5)
N4 N 0.3510(9) 0.8788(9) 0.3349(4)
loop_
_geom_bond_atom_site_label_1
_geom_bond_atom_site_label_2
_geom_bond_site_symmetry_1
_geom_bond_site_symmetry_2
C1 H1 1_555 1_555
C2 C1 1_555 1_555
C3 H2 1_555 1_555
C4 C3 1_555 1_555
C5 H3 1_555 1_555
C6 C2 1_555 1_555
C7 H4 1_555 1_555
C8 C7 1_555 1_555
C9 C5 1_555 1_555
C10 C4 1_555 1_555
C11 C10 1_555 1_555
H5 C11 1_555 1_555
C12 C11 1_555 1_555
C13 C12 1_555 1_555
C14 C13 1_555 1_555
H6 C14 1_555 1_555
C15 C9 1_555 1_555
H7 C15 1_555 1_555
H8 C15 1_555 1_555
C16 C15 1_555 1_555
H9 C16 1_555 1_555
C17 C16 1_555 1_555
H10 C17 1_555 1_555
H11 C17 1_555 1_555
C18 C8 1_555 1_555
H12 C18 1_555 1_555
C19 C16 1_555 1_555
C20 C19 1_555 1_555
H13 C20 1_555 1_555
H14 C20 1_555 1_555
H15 C20 1_555 1_555
C21 C19 1_555 1_555
H16 C21 1_555 1_555
H17 C21 1_555 1_555
H18 C21 1_555 1_555
C22 C12 1_555 1_555
H19 C22 1_555 1_555
H20 C22 1_555 1_555
C23 C22 1_555 1_555
H21 C23 1_555 1_555
C24 C23 1_555 1_555
H22 C24 1_555 1_555
H23 C24 1_555 1_555
C25 C13 1_555 1_555
H24 C25 1_555 1_555
C26 C23 1_555 1_555
C27 C26 1_555 1_555
H25 C27 1_555 1_555
H26 C27 1_555 1_555
H27 C27 1_555 1_555
C28 C26 1_555 1_555
H28 C28 1_555 1_555
H29 C28 1_555 1_555
H30 C28 1_555 1_555
N1 C6 1_555 1_555
N2 C2 1_555 1_555
N3 C1 1_555 1_555
N4 C10 1_555 1_555
C3 N2 1_555 1_555
C4 N3 1_555 1_555
C5 C6 1_555 1_555
C7 N1 1_555 1_555
C8 C9 1_555 1_555
C14 N4 1_555 1_555
C17 C18 1_555 1_555
C18 C19 1_555 1_555
C24 C25 1_555 1_555
C25 C26 1_555 1_555

#END
