
#######################################################################
#
#                 Cambridge Crystallographic Data Centre
#                                CCDC 
#
#######################################################################
#
# If this CIF has been generated from an entry in the Cambridge 
# Structural Database, then it will include bibliographic, chemical, 
# crystal, experimental, refinement or atomic coordinate data resulting 
# from the CCDC's data processing and validation procedures.
#
#######################################################################

data_TEVKAG
_chemical_formula_moiety         'C14 H17 Cl3 O5'
_chemical_name_systematic        
endo-4,5,7-Trichloro-3,6,6-trimethoxy-2-oxatetracyclo(6.4.0.0^3,7^.0^5,9^)dodecan-10-one
_symmetry_cell_setting           monoclinic
_symmetry_space_group_name_H-M   'P 21/n'
_symmetry_Int_Tables_number      14
_space_group_name_Hall           '-P 2yn'
loop_
_symmetry_equiv_pos_site_id
_symmetry_equiv_pos_as_xyz
1 x,y,z
2 1/2-x,1/2+y,1/2-z
3 -x,-y,-z
4 1/2+x,1/2-y,1/2+z
_cell_length_a                   8.646(1)
_cell_length_b                   9.242(2)
_cell_length_c                   19.651(1)
_cell_angle_alpha                90
_cell_angle_beta                 100.086(9)
_cell_angle_gamma                90
_cell_volume                     1545.97
_exptl_crystal_colour            colorless
_chemical_melting_point          199.0-200.5deg.C
_cell_formula_units_Z            4
loop_
_atom_site_label
_atom_site_type_symbol
_atom_site_fract_x
_atom_site_fract_y
_atom_site_fract_z
Cl1 Cl 0.3986(1) 0.8604(1) 0.51835(4)
Cl2 Cl 0.05452(8) 0.58314(8) 0.69380(4)
Cl3 Cl 0.61678(9) 0.5785(1) 0.59336(4)
O1 O 0.2756(2) 0.4008(2) 0.6373(1)
O2 O 0.4548(2) 0.5351(2) 0.7125(1)
O3 O 0.6420(3) 0.9666(3) 0.6562(1)
O4 O 0.1081(2) 0.8693(2) 0.5920(1)
O5 O 0.0987(2) 0.6397(2) 0.5424(1)
C1 C 0.3416(3) 0.5359(3) 0.6507(1)
C2 C 0.4248(4) 0.6523(3) 0.7572(1)
C3 C 0.3199(3) 0.7544(3) 0.7095(1)
C4 C 0.4074(3) 0.8405(3) 0.6594(1)
C5 C 0.3572(3) 0.7604(2) 0.5892(1)
C6 C 0.1781(3) 0.7344(3) 0.5911(1)
C7 C 0.2163(3) 0.6519(3) 0.6605(1)
C8 C 0.4122(3) 0.6031(3) 0.5896(1)
C9 C 0.3803(5) 0.2897(4) 0.6216(2)
C10 C 0.5783(4) 0.7193(4) 0.7926(2)
C11 C 0.6728(4) 0.7825(4) 0.7422(2)
C12 C 0.5824(3) 0.8694(4) 0.6835(2)
C13 C -0.0548(5) 0.8714(5) 0.5988(3)
C14 C 0.0636(6) 0.6889(5) 0.4716(2)
loop_
_geom_bond_atom_site_label_1
_geom_bond_atom_site_label_2
_geom_bond_site_symmetry_1
_geom_bond_site_symmetry_2
Cl1 C5 1_555 1_555
Cl2 C7 1_555 1_555
Cl3 C8 1_555 1_555
O1 C1 1_555 1_555
O2 C1 1_555 1_555
O3 C12 1_555 1_555
O4 C6 1_555 1_555
O5 C6 1_555 1_555
C1 C7 1_555 1_555
C2 O2 1_555 1_555
C3 C2 1_555 1_555
C4 C3 1_555 1_555
C5 C4 1_555 1_555
C6 C5 1_555 1_555
C7 C3 1_555 1_555
C8 C1 1_555 1_555
C9 O1 1_555 1_555
C10 C2 1_555 1_555
C11 C10 1_555 1_555
C12 C4 1_555 1_555
C13 O4 1_555 1_555
C14 O5 1_555 1_555
C5 C8 1_555 1_555
C6 C7 1_555 1_555
C11 C12 1_555 1_555

#END
