
#######################################################################
#
#                 Cambridge Crystallographic Data Centre
#                                CCDC 
#
#######################################################################
#
# If this CIF has been generated from an entry in the Cambridge 
# Structural Database, then it will include bibliographic, chemical, 
# crystal, experimental, refinement or atomic coordinate data resulting 
# from the CCDC's data processing and validation procedures.
#
#######################################################################

data_TEVMOX
_chemical_name_common            
1-(Picolinoyl)-3-((2-pyridyl)(2,2,2-trifluoroacetamido)methyl)urea
_chemical_formula_moiety         'C15 H12 F3 N5 O3'
_chemical_name_systematic        
1-(2-Pyridylcarbonyl)-3-((2-pyridyl)(2,2,2-trifluoroacetamido)methyl)urea
_symmetry_cell_setting           triclinic
_symmetry_space_group_name_H-M   'P -1'
_symmetry_Int_Tables_number      2
_space_group_name_Hall           '-P 1'
loop_
_symmetry_equiv_pos_site_id
_symmetry_equiv_pos_as_xyz
1 x,y,z
2 -x,-y,-z
_cell_length_a                   4.9095(12)
_cell_length_b                   12.754(3)
_cell_length_c                   13.072(3)
_cell_angle_alpha                85.969(4)
_cell_angle_beta                 79.721(4)
_cell_angle_gamma                86.585(4)
_cell_volume                     802.462
_exptl_crystal_colour            colorless
_exptl_crystal_description       block
_cell_formula_units_Z            2
_exptl_crystal_recrystallization_method chloroform/methanol
loop_
_atom_site_label
_atom_site_type_symbol
_atom_site_fract_x
_atom_site_fract_y
_atom_site_fract_z
C1 C 0.1702(8) 0.6351(3) 0.9945(3)
H1 H 0.0075 0.6143 1.0372
C2 C 0.2648(9) 0.7311(3) 1.0071(3)
H2 H 0.1705 0.7735 1.0583
C3 C 0.4966(9) 0.7635(3) 0.9444(3)
H3 H 0.5617 0.8294 0.9503
C4 C 0.6375(8) 0.6968(3) 0.8704(3)
H4 H 0.8009 0.7163 0.8273
C5 C 0.5284(6) 0.6020(2) 0.8630(2)
C6 C 0.6723(6) 0.5253(2) 0.7872(2)
C7 C 0.5987(6) 0.3458(3) 0.7372(2)
C8 C 0.9345(6) 0.2427(2) 0.6242(2)
H5 H 0.7822 0.2154 0.5962
C9 C 1.1764(6) 0.2611(2) 0.5350(2)
C10 C 1.2679(7) 0.1803(3) 0.4708(3)
H6 H 1.1797 0.1169 0.4799
C11 C 1.4926(8) 0.1957(3) 0.3931(3)
H7 H 1.5585 0.1426 0.3484
C12 C 1.6179(7) 0.2890(3) 0.3819(3)
H8 H 1.7708 0.3010 0.3300
C13 C 1.5138(7) 0.3648(3) 0.4488(3)
H9 H 1.5994 0.4287 0.4407
C14 C 0.9002(7) 0.0734(3) 0.7220(3)
C15 C 0.9784(9) 0.0099(3) 0.8176(3)
F1 F 1.0325(7) -0.0896(2) 0.8000(2)
F2 F 1.1921(5) 0.0454(2) 0.8518(2)
F3 F 0.7729(5) 0.01262(18) 0.89643(17)
N1 N 0.2992(6) 0.5696(2) 0.9241(2)
N2 N 0.5252(5) 0.4407(2) 0.7824(2)
H10 H 0.3550 0.4466 0.8129
N3 N 0.8397(5) 0.33964(18) 0.67091(18)
H11 H 0.9380 0.3940 0.6562
N4 N 1.2952(5) 0.3525(2) 0.52564(19)
O1 O 0.9029(4) 0.53802(17) 0.73670(18)
O2 O 0.4438(4) 0.27274(18) 0.75907(17)
O3 O 0.7370(7) 0.0374(2) 0.6769(2)
N5 N 1.0171(5) 0.16519(19) 0.70160(19)
H12 H 1.1451 0.1795 0.7349
loop_
_geom_bond_atom_site_label_1
_geom_bond_atom_site_label_2
_geom_bond_site_symmetry_1
_geom_bond_site_symmetry_2
C1 H1 1_555 1_555
C2 C1 1_555 1_555
H2 C2 1_555 1_555
C3 C2 1_555 1_555
H3 C3 1_555 1_555
C4 C3 1_555 1_555
H4 C4 1_555 1_555
C5 C4 1_555 1_555
C6 C5 1_555 1_555
C7 N2 1_555 1_555
C8 H5 1_555 1_555
C9 C8 1_555 1_555
C10 C9 1_555 1_555
H6 C10 1_555 1_555
C11 C10 1_555 1_555
H7 C11 1_555 1_555
C12 C11 1_555 1_555
H8 C12 1_555 1_555
C13 C12 1_555 1_555
H9 C13 1_555 1_555
C14 C15 1_555 1_555
C15 F1 1_555 1_555
F2 C15 1_555 1_555
F3 C15 1_555 1_555
N1 C1 1_555 1_555
N2 C6 1_555 1_555
H10 N2 1_555 1_555
N3 C7 1_555 1_555
H11 N3 1_555 1_555
N4 C9 1_555 1_555
O1 C6 1_555 1_555
O2 C7 1_555 1_555
O3 C14 1_555 1_555
N5 C8 1_555 1_555
H12 N5 1_555 1_555
C5 N1 1_555 1_555
C8 N3 1_555 1_555
C13 N4 1_555 1_555
C14 N5 1_555 1_555

#END
