
#######################################################################
#
#                 Cambridge Crystallographic Data Centre
#                                CCDC 
#
#######################################################################
#
# If this CIF has been generated from an entry in the Cambridge 
# Structural Database, then it will include bibliographic, chemical, 
# crystal, experimental, refinement or atomic coordinate data resulting 
# from the CCDC's data processing and validation procedures.
#
#######################################################################

data_TEVMUD
_chemical_formula_moiety         'C26 H18 O2,C4 H8 O2'
_chemical_name_systematic        
"9,9'-Bifluorene-9,9'-diol ethyl acetate solvate"
_symmetry_cell_setting           triclinic
_symmetry_space_group_name_H-M   'P -1'
_symmetry_Int_Tables_number      2
_space_group_name_Hall           '-P 1'
loop_
_symmetry_equiv_pos_site_id
_symmetry_equiv_pos_as_xyz
1 x,y,z
2 -x,-y,-z
_cell_length_a                   10.5498(18)
_cell_length_b                   12.464(2)
_cell_length_c                   19.203(3)
_cell_angle_alpha                73.437(2)
_cell_angle_beta                 85.872(2)
_cell_angle_gamma                77.195(2)
_cell_volume                     2359.98
_exptl_crystal_colour            colorless
_exptl_crystal_description       block
_cell_formula_units_Z            4
loop_
_atom_site_label
_atom_site_type_symbol
_atom_site_fract_x
_atom_site_fract_y
_atom_site_fract_z
O1 O 0.56369(11) 1.07576(10) 0.28840(6)
H1 H 0.6293 1.1019 0.2728
O2 O 0.31156(10) 1.06629(10) 0.28241(6)
H2 H 0.3425 1.1096 0.2989
C1 C 0.64660(16) 0.91569(15) 0.23417(10)
C2 C 0.72308(17) 0.83185(16) 0.28689(11)
H3 H 0.7097 0.8285 0.3363
C3 C 0.8205(2) 0.75239(18) 0.26494(13)
H4 H 0.8743 0.6955 0.3001
C4 C 0.8395(2) 0.75564(18) 0.19261(14)
H5 H 0.9041 0.6996 0.1792
C5 C 0.7651(2) 0.83999(17) 0.13998(12)
H6 H 0.7782 0.8422 0.0907
C6 C 0.67019(17) 0.92183(15) 0.16074(10)
C7 C 0.58574(17) 1.02563(15) 0.11669(10)
C8 C 0.5745(2) 1.06945(17) 0.04224(11)
H7 H 0.6252 1.0307 0.0110
C9 C 0.4872(2) 1.17119(18) 0.01452(11)
H8 H 0.4777 1.2015 -0.0360
C10 C 0.4138(2) 1.22879(17) 0.06041(11)
H9 H 0.3557 1.2984 0.0406
C11 C 0.42460(18) 1.18552(15) 0.13509(10)
H10 H 0.3744 1.2252 0.1660
C12 C 0.51028(16) 1.08302(14) 0.16351(9)
C13 C 0.53529(16) 1.01292(14) 0.24235(9)
C14 C 0.36148(16) 0.90081(15) 0.23621(10)
C15 C 0.30381(18) 0.93715(17) 0.16895(10)
H11 H 0.2894 1.0147 0.1423
C16 C 0.2676(2) 0.8570(2) 0.14152(12)
H12 H 0.2277 0.8804 0.0959
C17 C 0.2894(3) 0.7431(2) 0.18052(14)
H13 H 0.2672 0.6896 0.1602
C18 C 0.3431(2) 0.70647(19) 0.24872(13)
H14 H 0.3555 0.6291 0.2755
C19 C 0.37841(18) 0.78620(16) 0.27704(11)
C20 C 0.42623(18) 0.77485(16) 0.34918(11)
C21 C 0.4494(2) 0.68188(19) 0.41010(13)
H15 H 0.4403 0.6094 0.4083
C22 C 0.4861(2) 0.6973(2) 0.47364(13)
H16 H 0.5026 0.6346 0.5153
C23 C 0.4990(2) 0.8038(2) 0.47664(12)
H17 H 0.5228 0.8131 0.5205
C24 C 0.47703(18) 0.89762(19) 0.41535(10)
H18 H 0.4867 0.9699 0.4172
C25 C 0.44090(16) 0.88233(16) 0.35201(10)
C26 C 0.41075(16) 0.96960(14) 0.27835(9)
O3 O 1.04486(11) 0.13999(10) 0.27544(7)
H19 H 1.1224 0.1183 0.2654
O4 O 0.79207(11) 0.15330(10) 0.26577(6)
H20 H 0.8456 0.1027 0.2932
C27 C 0.98625(16) 0.18844(15) 0.14580(10)
C28 C 0.94563(18) 0.09608(16) 0.13487(11)
H21 H 0.9197 0.0404 0.1743
C29 C 0.9441(2) 0.08770(18) 0.06446(12)
H22 H 0.9151 0.0264 0.0561
C30 C 0.9844(2) 0.16765(18) 0.00649(12)
H23 H 0.9812 0.1607 -0.0408
C31 C 1.02932(19) 0.25793(16) 0.01690(11)
H24 H 1.0590 0.3113 -0.0225
C32 C 1.02954(17) 0.26782(15) 0.08702(10)
C33 C 1.06867(16) 0.35485(14) 0.11385(9)
C34 C 1.12403(18) 0.44694(16) 0.07804(10)
H25 H 1.1376 0.4648 0.0275
C35 C 1.1589(2) 0.51210(17) 0.11785(11)
H26 H 1.1969 0.5746 0.0942
C36 C 1.1385(2) 0.48639(18) 0.19224(11)
H27 H 1.1636 0.5312 0.2186
C37 C 1.08148(17) 0.39501(16) 0.22854(10)
H28 H 1.0676 0.3779 0.2791
C38 C 1.04568(16) 0.32997(14) 0.18897(9)
C39 C 0.98345(16) 0.22600(14) 0.21498(9)
C40 C 0.82917(16) 0.31628(15) 0.30279(9)
C41 C 0.87541(18) 0.27317(18) 0.37299(10)
H29 H 0.9244 0.1980 0.3891
C42 C 0.8479(2) 0.3432(2) 0.41929(11)
H30 H 0.8790 0.3151 0.4671
C43 C 0.7758(2) 0.4532(2) 0.39608(12)
H31 H 0.7581 0.4991 0.4283
C44 C 0.7289(2) 0.49684(18) 0.32593(11)
H32 H 0.6796 0.5719 0.3102
C45 C 0.75611(17) 0.42776(15) 0.27940(9)
C46 C 0.70980(16) 0.44671(15) 0.20562(9)
C47 C 0.62757(19) 0.54068(16) 0.16176(11)
H33 H 0.6023 0.6097 0.1747
C48 C 0.5839(2) 0.52989(17) 0.09849(11)
H34 H 0.5274 0.5923 0.0683
C49 C 0.6217(2) 0.42927(18) 0.07883(11)
H35 H 0.5899 0.4239 0.0357
C50 C 0.70597(17) 0.33581(16) 0.12166(10)
H36 H 0.7318 0.2674 0.1080
C51 C 0.75105(16) 0.34562(14) 0.18502(9)
C52 C 0.84005(16) 0.25675(14) 0.24266(9)
O5 O 0.31467(13) 0.22901(11) 0.36106(7)
O6 O 0.29845(13) 0.40786(11) 0.36703(7)
C53 C 0.4604(2) 0.3413(2) 0.29124(14)
H37 H 0.4971 0.2741 0.2747
H38 H 0.5269 0.3598 0.3154
H39 H 0.4283 0.4054 0.2499
C54 C 0.35137(18) 0.31763(16) 0.34291(10)
C55 C 0.1890(2) 0.39850(19) 0.41710(11)
H40 H 0.2193 0.3601 0.4669
H41 H 0.1328 0.3546 0.4039
C56 C 0.1171(3) 0.5178(2) 0.41126(14)
H42 H 0.0426 0.5163 0.4440
H43 H 0.0878 0.5546 0.3618
H44 H 0.1741 0.5602 0.4243
O7 O 0.92918(16) 0.77217(13) 0.43872(8)
O8 O 0.88615(13) 0.96313(11) 0.39494(7)
C57 C 1.0655(2) 0.85953(19) 0.34522(13)
H45 H 1.1125 0.7818 0.3490
H46 H 1.1235 0.9031 0.3560
H47 H 1.0326 0.8951 0.2963
C58 C 0.95503(19) 0.85738(18) 0.39784(11)
C59 C 0.7814(2) 0.9715(2) 0.44822(12)
H48 H 0.7407 0.9053 0.4570
H49 H 0.7150 1.0407 0.4288
C60 C 0.8303(2) 0.9755(2) 0.51783(12)
H50 H 0.7587 0.9805 0.5522
H51 H 0.8687 1.0421 0.5094
H52 H 0.8954 0.9067 0.5373
loop_
_geom_bond_atom_site_label_1
_geom_bond_atom_site_label_2
_geom_bond_site_symmetry_1
_geom_bond_site_symmetry_2
O1 H1 1_555 1_555
O2 H2 1_555 1_555
C1 C2 1_555 1_555
C2 H3 1_555 1_555
C3 C2 1_555 1_555
H4 C3 1_555 1_555
C4 C3 1_555 1_555
H5 C4 1_555 1_555
C5 C4 1_555 1_555
H6 C5 1_555 1_555
C6 C1 1_555 1_555
C7 C6 1_555 1_555
C8 C7 1_555 1_555
H7 C8 1_555 1_555
C9 C8 1_555 1_555
H8 C9 1_555 1_555
C10 C9 1_555 1_555
H9 C10 1_555 1_555
C11 C10 1_555 1_555
H10 C11 1_555 1_555
C12 C7 1_555 1_555
C13 O1 1_555 1_555
C14 C15 1_555 1_555
C15 H11 1_555 1_555
C16 C15 1_555 1_555
H12 C16 1_555 1_555
C17 C16 1_555 1_555
H13 C17 1_555 1_555
C18 C17 1_555 1_555
H14 C18 1_555 1_555
C19 C14 1_555 1_555
C20 C19 1_555 1_555
C21 C20 1_555 1_555
H15 C21 1_555 1_555
C22 C21 1_555 1_555
H16 C22 1_555 1_555
C23 C22 1_555 1_555
H17 C23 1_555 1_555
C24 C23 1_555 1_555
H18 C24 1_555 1_555
C25 C20 1_555 1_555
C26 O2 1_555 1_555
O3 H19 1_555 1_555
O4 H20 1_555 1_555
C27 C28 1_555 1_555
C28 H21 1_555 1_555
C29 C28 1_555 1_555
H22 C29 1_555 1_555
C30 C29 1_555 1_555
H23 C30 1_555 1_555
C31 C30 1_555 1_555
H24 C31 1_555 1_555
C32 C27 1_555 1_555
C33 C32 1_555 1_555
C34 C33 1_555 1_555
H25 C34 1_555 1_555
C35 C34 1_555 1_555
H26 C35 1_555 1_555
C36 C35 1_555 1_555
H27 C36 1_555 1_555
C37 C36 1_555 1_555
H28 C37 1_555 1_555
C38 C33 1_555 1_555
C39 O3 1_555 1_555
C40 C41 1_555 1_555
C41 H29 1_555 1_555
C42 C41 1_555 1_555
H30 C42 1_555 1_555
C43 C42 1_555 1_555
H31 C43 1_555 1_555
C44 C43 1_555 1_555
H32 C44 1_555 1_555
C45 C40 1_555 1_555
C46 C45 1_555 1_555
C47 C46 1_555 1_555
H33 C47 1_555 1_555
C48 C47 1_555 1_555
H34 C48 1_555 1_555
C49 C48 1_555 1_555
H35 C49 1_555 1_555
C50 C49 1_555 1_555
H36 C50 1_555 1_555
C51 C46 1_555 1_555
C52 O4 1_555 1_555
O5 C54 1_555 1_555
O6 C54 1_555 1_555
C53 H37 1_555 1_555
H38 C53 1_555 1_555
H39 C53 1_555 1_555
C54 C53 1_555 1_555
C55 O6 1_555 1_555
H40 C55 1_555 1_555
H41 C55 1_555 1_555
C56 C55 1_555 1_555
H42 C56 1_555 1_555
H43 C56 1_555 1_555
H44 C56 1_555 1_555
O7 C58 1_555 1_555
O8 C58 1_555 1_555
C57 H45 1_555 1_555
H46 C57 1_555 1_555
H47 C57 1_555 1_555
C58 C57 1_555 1_555
C59 O8 1_555 1_555
H48 C59 1_555 1_555
H49 C59 1_555 1_555
C60 C59 1_555 1_555
H50 C60 1_555 1_555
H51 C60 1_555 1_555
H52 C60 1_555 1_555
C1 C13 1_555 1_555
C5 C6 1_555 1_555
C11 C12 1_555 1_555
C12 C13 1_555 1_555
C13 C26 1_555 1_555
C14 C26 1_555 1_555
C18 C19 1_555 1_555
C24 C25 1_555 1_555
C25 C26 1_555 1_555
C27 C39 1_555 1_555
C31 C32 1_555 1_555
C37 C38 1_555 1_555
C38 C39 1_555 1_555
C39 C52 1_555 1_555
C40 C52 1_555 1_555
C44 C45 1_555 1_555
C50 C51 1_555 1_555
C51 C52 1_555 1_555

#END
