
#######################################################################
#
#                 Cambridge Crystallographic Data Centre
#                                CCDC 
#
#######################################################################
#
# If this CIF has been generated from an entry in the Cambridge 
# Structural Database, then it will include bibliographic, chemical, 
# crystal, experimental, refinement or atomic coordinate data resulting 
# from the CCDC's data processing and validation procedures.
#
#######################################################################

data_TEVPEQ
_chemical_formula_moiety         'C32 H31 N3 O4 S1'
_chemical_name_systematic        
'Benzhydryl 2-(3-benzyl-7-oxo-4-thia-2,6-diazabicyclo(3.2.0)hept-2-en-6-yl)-3-(4-morpholinyl)but-2-enoate'
_symmetry_cell_setting           orthorhombic
_symmetry_space_group_name_H-M   'P 21 21 21'
_symmetry_Int_Tables_number      19
_space_group_name_Hall           'P 2ac 2ab'
loop_
_symmetry_equiv_pos_site_id
_symmetry_equiv_pos_as_xyz
1 x,y,z
2 1/2+x,1/2-y,-z
3 -x,1/2+y,1/2-z
4 1/2-x,-y,1/2+z
_cell_length_a                   8.648(3)
_cell_length_b                   12.278(4)
_cell_length_c                   26.246(8)
_cell_angle_alpha                90
_cell_angle_beta                 90
_cell_angle_gamma                90
_cell_volume                     2786.8
_exptl_crystal_colour            colorless
_exptl_crystal_description       block
_chemical_melting_point          '532 K'
_cell_formula_units_Z            4
_exptl_crystal_recrystallization_method methanol
loop_
_atom_site_label
_atom_site_type_symbol
_atom_site_fract_x
_atom_site_fract_y
_atom_site_fract_z
S1 S 0.23693(5) 0.31495(3) 0.379793(16)
N1 N 0.04148(16) 0.14912(11) 0.34627(5)
N2 N -0.01637(17) 0.30813(12) 0.43581(5)
N3 N 0.31607(16) 0.03079(11) 0.36876(5)
O1 O -0.17125(14) 0.08171(10) 0.39244(5)
O2 O 0.03623(15) -0.02916(9) 0.23717(5)
O3 O -0.10038(13) 0.11815(9) 0.26099(4)
O4 O 0.44708(15) -0.08033(10) 0.45332(5)
C1 C -0.08456(19) 0.15220(14) 0.37780(6)
C2 C -0.0688(2) 0.27663(14) 0.38563(7)
H1 H -0.1592 0.3196 0.3729
C3 C 0.0675(2) 0.26774(13) 0.34665(6)
H2 H 0.0480 0.3045 0.3133
C4 C 0.1288(2) 0.32463(13) 0.43737(6)
C5 C 0.2171(2) 0.35312(15) 0.48529(7)
H3 H 0.1450 0.3843 0.5107
H4 H 0.2626 0.2861 0.5000
C6 C 0.3440(2) 0.43411(14) 0.47428(6)
C7 C 0.3121(2) 0.54505(14) 0.47514(7)
H5 H 0.2135 0.5699 0.4861
C8 C 0.4234(2) 0.61949(16) 0.46009(7)
H6 H 0.4008 0.6952 0.4608
C9 C 0.5665(2) 0.58429(18) 0.44413(7)
H7 H 0.6415 0.6353 0.4327
C10 C 0.6005(2) 0.47460(19) 0.44476(8)
H8 H 0.7002 0.4501 0.4347
C11 C 0.4899(2) 0.40030(16) 0.45996(8)
H9 H 0.5146 0.3249 0.4606
C12 C 0.10392(19) 0.06848(13) 0.31287(6)
C13 C 0.01682(19) 0.04501(12) 0.26731(6)
C14 C -0.1857(2) 0.10910(14) 0.21382(6)
H10 H -0.1999 0.0303 0.2055
C15 C -0.0944(2) 0.16276(14) 0.17143(6)
C16 C -0.0410(2) 0.26893(14) 0.17698(7)
H11 H -0.0627 0.3083 0.2073
C17 C 0.0441(2) 0.31760(14) 0.13832(7)
H12 H 0.0824 0.3896 0.1426
C18 C 0.0731(2) 0.26159(16) 0.09379(7)
H13 H 0.1308 0.2952 0.0673
C19 C 0.0186(2) 0.15745(16) 0.08766(7)
H14 H 0.0373 0.1195 0.0567
C20 C -0.0637(2) 0.10733(14) 0.12660(6)
H15 H -0.0991 0.0346 0.1225
C21 C -0.3423(2) 0.16010(14) 0.22263(7)
C22 C -0.3785(2) 0.21656(14) 0.26690(7)
H16 H -0.3037 0.2237 0.2932
C23 C -0.5246(2) 0.26273(16) 0.27278(8)
H17 H -0.5484 0.3016 0.3031
C24 C -0.6349(2) 0.25263(17) 0.23521(8)
H18 H -0.7340 0.2849 0.2394
C25 C -0.6003(2) 0.19505(18) 0.19123(8)
H19 H -0.6762 0.1863 0.1654
C26 C -0.4546(2) 0.15037(17) 0.18516(7)
H20 H -0.4310 0.1122 0.1547
C27 C 0.2510(2) 0.02702(12) 0.32211(6)
C28 C 0.3476(2) -0.02104(15) 0.28080(7)
H21 H 0.4330 0.0286 0.2727
H22 H 0.2839 -0.0321 0.2503
H23 H 0.3895 -0.0911 0.2922
C29 C 0.2296(2) 0.01985(14) 0.41620(6)
H24 H 0.1175 0.0145 0.4090
H25 H 0.2474 0.0841 0.4382
C30 C 0.2859(2) -0.08308(15) 0.44271(7)
H26 H 0.2284 -0.0924 0.4750
H27 H 0.2632 -0.1468 0.4208
C31 C 0.5305(2) -0.07203(15) 0.40687(7)
H28 H 0.5105 -0.1374 0.3858
H29 H 0.6427 -0.0692 0.4142
C32 C 0.48351(19) 0.02895(14) 0.37760(7)
H30 H 0.5141 0.0946 0.3971
H31 H 0.5383 0.0305 0.3445
loop_
_geom_bond_atom_site_label_1
_geom_bond_atom_site_label_2
_geom_bond_site_symmetry_1
_geom_bond_site_symmetry_2
S1 C3 1_555 1_555
N1 C1 1_555 1_555
N2 C2 1_555 1_555
N3 C27 1_555 1_555
O1 C1 1_555 1_555
O2 C13 1_555 1_555
O3 C13 1_555 1_555
O4 C30 1_555 1_555
C1 C2 1_555 1_555
C2 H1 1_555 1_555
C3 N1 1_555 1_555
H2 C3 1_555 1_555
C4 S1 1_555 1_555
C5 C4 1_555 1_555
H3 C5 1_555 1_555
H4 C5 1_555 1_555
C6 C5 1_555 1_555
C7 C6 1_555 1_555
H5 C7 1_555 1_555
C8 C7 1_555 1_555
H6 C8 1_555 1_555
C9 C8 1_555 1_555
H7 C9 1_555 1_555
C10 C9 1_555 1_555
H8 C10 1_555 1_555
C11 C6 1_555 1_555
H9 C11 1_555 1_555
C12 N1 1_555 1_555
C13 C12 1_555 1_555
C14 O3 1_555 1_555
H10 C14 1_555 1_555
C15 C14 1_555 1_555
C16 C15 1_555 1_555
H11 C16 1_555 1_555
C17 C16 1_555 1_555
H12 C17 1_555 1_555
C18 C17 1_555 1_555
H13 C18 1_555 1_555
C19 C18 1_555 1_555
H14 C19 1_555 1_555
C20 C15 1_555 1_555
H15 C20 1_555 1_555
C21 C14 1_555 1_555
C22 C21 1_555 1_555
H16 C22 1_555 1_555
C23 C22 1_555 1_555
H17 C23 1_555 1_555
C24 C23 1_555 1_555
H18 C24 1_555 1_555
C25 C24 1_555 1_555
H19 C25 1_555 1_555
C26 C21 1_555 1_555
H20 C26 1_555 1_555
C27 C12 1_555 1_555
C28 C27 1_555 1_555
H21 C28 1_555 1_555
H22 C28 1_555 1_555
H23 C28 1_555 1_555
C29 N3 1_555 1_555
H24 C29 1_555 1_555
H25 C29 1_555 1_555
C30 C29 1_555 1_555
H26 C30 1_555 1_555
H27 C30 1_555 1_555
C31 O4 1_555 1_555
H28 C31 1_555 1_555
H29 C31 1_555 1_555
C32 N3 1_555 1_555
H30 C32 1_555 1_555
H31 C32 1_555 1_555
N2 C4 1_555 1_555
C2 C3 1_555 1_555
C10 C11 1_555 1_555
C19 C20 1_555 1_555
C25 C26 1_555 1_555
C31 C32 1_555 1_555

#END
