
#######################################################################
#
#                 Cambridge Crystallographic Data Centre
#                                CCDC 
#
#######################################################################
#
# If this CIF has been generated from an entry in the Cambridge 
# Structural Database, then it will include bibliographic, chemical, 
# crystal, experimental, refinement or atomic coordinate data resulting 
# from the CCDC's data processing and validation procedures.
#
#######################################################################

data_TEVPIU02
_chemical_formula_moiety         'C19 H15 N3 O3'
_chemical_name_systematic        
2-(1,5-Dimethyl-3-oxo-2-phenyl-2,3-dihydro-1H-pyrazol-4-yl)-1H-isoindole-1,3(2H)-dione
_symmetry_cell_setting           monoclinic
_symmetry_space_group_name_H-M   'P 21/c'
_symmetry_Int_Tables_number      14
_space_group_name_Hall           '-P 2ybc'
loop_
_symmetry_equiv_pos_site_id
_symmetry_equiv_pos_as_xyz
1 x,y,z
2 -x,1/2+y,1/2-z
3 -x,-y,-z
4 x,1/2-y,1/2+z
_cell_length_a                   13.9519(19)
_cell_length_b                   15.935(2)
_cell_length_c                   7.3487(10)
_cell_angle_alpha                90
_cell_angle_beta                 102.409(2)
_cell_angle_gamma                90
_cell_volume                     1595.62
_exptl_crystal_colour            colorless
_exptl_crystal_description       plane
_cell_formula_units_Z            4
loop_
_atom_site_label
_atom_site_type_symbol
_atom_site_fract_x
_atom_site_fract_y
_atom_site_fract_z
N1 N 0.33230(14) 1.05636(12) 0.7753(2)
N2 N 0.34311(14) 1.01844(12) 0.6075(2)
N3 N 0.13536(13) 0.90667(11) 0.7062(3)
O1 O 0.24167(12) 1.02658(10) 0.9980(2)
O2 O 0.02337(14) 1.01052(10) 0.7353(3)
O3 O 0.20499(12) 0.77645(10) 0.6787(3)
C1 C 0.41130(16) 1.10130(13) 0.8873(3)
C2 C 0.38987(18) 1.15957(14) 1.0121(3)
H1 H 0.3251 1.1696 1.0189
C3 C 0.4650(2) 1.20282(16) 1.1263(4)
H2 H 0.4507 1.2404 1.2137
C4 C 0.5608(2) 1.19096(16) 1.1124(4)
H3 H 0.6111 1.2209 1.1887
C5 C 0.58166(18) 1.13449(16) 0.9849(4)
H4 H 0.6461 1.1275 0.9726
C6 C 0.50771(17) 1.08796(14) 0.8748(3)
H5 H 0.5226 1.0480 0.7929
C7 C 0.25866(16) 1.01569(13) 0.8433(3)
C8 C 0.21527(16) 0.95984(13) 0.6947(3)
C9 C 0.26560(17) 0.96307(14) 0.5580(3)
C10 C 0.2501(2) 0.91598(17) 0.3801(4)
H6 H 0.1956 0.8783 0.3722
H7 H 0.3081 0.8844 0.3753
H8 H 0.2365 0.9547 0.2777
C11 C 0.3653(2) 1.07727(17) 0.4678(3)
H9 H 0.3598 1.0487 0.3510
H10 H 0.4308 1.0984 0.5087
H11 H 0.3196 1.1231 0.4525
C12 C 0.04445(17) 0.93770(15) 0.7326(3)
C13 C -0.01503(17) 0.86191(14) 0.7497(3)
C14 C 0.03911(16) 0.79131(13) 0.7287(3)
C15 C 0.13694(17) 0.81833(14) 0.7017(3)
C16 C 0.00080(17) 0.71207(14) 0.7331(3)
H12 H 0.0373 0.6647 0.7183
C17 C -0.09389(18) 0.70523(16) 0.7606(3)
H13 H -0.1217 0.6524 0.7640
C18 C -0.14779(18) 0.77583(17) 0.7829(4)
H14 H -0.2114 0.7696 0.8009
C19 C -0.10885(18) 0.85575(16) 0.7789(3)
H15 H -0.1448 0.9033 0.7953
loop_
_geom_bond_atom_site_label_1
_geom_bond_atom_site_label_2
_geom_bond_site_symmetry_1
_geom_bond_site_symmetry_2
N1 N2 1_555 1_555
N2 C9 1_555 1_555
N3 C8 1_555 1_555
O1 C7 1_555 1_555
O2 C12 1_555 1_555
O3 C15 1_555 1_555
C1 N1 1_555 1_555
C2 C1 1_555 1_555
H1 C2 1_555 1_555
C3 C2 1_555 1_555
H2 C3 1_555 1_555
C4 C3 1_555 1_555
H3 C4 1_555 1_555
C5 C4 1_555 1_555
H4 C5 1_555 1_555
C6 C1 1_555 1_555
H5 C6 1_555 1_555
C7 N1 1_555 1_555
C8 C7 1_555 1_555
C9 C8 1_555 1_555
C10 C9 1_555 1_555
H6 C10 1_555 1_555
H7 C10 1_555 1_555
H8 C10 1_555 1_555
C11 N2 1_555 1_555
H9 C11 1_555 1_555
H10 C11 1_555 1_555
H11 C11 1_555 1_555
C12 N3 1_555 1_555
C13 C12 1_555 1_555
C14 C13 1_555 1_555
C15 N3 1_555 1_555
C16 C14 1_555 1_555
H12 C16 1_555 1_555
C17 C16 1_555 1_555
H13 C17 1_555 1_555
C18 C17 1_555 1_555
H14 C18 1_555 1_555
C19 C13 1_555 1_555
H15 C19 1_555 1_555
C5 C6 1_555 1_555
C14 C15 1_555 1_555
C18 C19 1_555 1_555

#END
