
#######################################################################
#
#                 Cambridge Crystallographic Data Centre
#                                CCDC 
#
#######################################################################
#
# If this CIF has been generated from an entry in the Cambridge 
# Structural Database, then it will include bibliographic, chemical, 
# crystal, experimental, refinement or atomic coordinate data resulting 
# from the CCDC's data processing and validation procedures.
#
#######################################################################

data_TEVPAN
_chemical_formula_moiety         'C28 H46 Mg2 N2 O2'
_chemical_name_systematic        
bis(\m~2~-2-Methyl-1-(6-methylpyridin-2-yl)propan-2-olato)-dibutyl-di-magnesium
_symmetry_cell_setting           triclinic
_symmetry_space_group_name_H-M   'P -1'
_symmetry_Int_Tables_number      2
_space_group_name_Hall           '-P 1'
loop_
_symmetry_equiv_pos_site_id
_symmetry_equiv_pos_as_xyz
1 x,y,z
2 -x,-y,-z
_cell_length_a                   9.2391(13)
_cell_length_b                   9.9204(14)
_cell_length_c                   10.2260(15)
_cell_angle_alpha                115.841(2)
_cell_angle_beta                 90.150(2)
_cell_angle_gamma                113.948(2)
_cell_volume                     752.342
_exptl_crystal_colour            colorless
_exptl_crystal_description       block
_cell_formula_units_Z            1
loop_
_atom_site_label
_atom_site_type_symbol
_atom_site_fract_x
_atom_site_fract_y
_atom_site_fract_z
Mg1 Mg 0.11618(7) 0.66828(8) 0.11251(7)
N1 N -0.03236(18) 0.76051(19) 0.25804(17)
O1 O -0.05945(15) 0.56501(16) -0.06359(14)
C1 C -0.1235(2) 0.8083(2) 0.2018(2)
C2 C -0.2408(3) 0.8470(3) 0.2721(3)
H1 H -0.3054 0.8788 0.2308
C3 C -0.2623(3) 0.8387(3) 0.4017(3)
H2 H -0.3423 0.8640 0.4505
C4 C -0.1667(3) 0.7932(3) 0.4604(3)
H3 H -0.1788 0.7887 0.5508
C5 C -0.0530(3) 0.7543(3) 0.3858(2)
C6 C -0.0913(3) 0.8188(2) 0.0622(2)
H4 H 0.0266 0.8872 0.0770
H5 H -0.1471 0.8788 0.0461
C7 C 0.0544(3) 0.7036(3) 0.4442(3)
H6 H 0.0114 0.5812 0.3900
H7 H 0.0574 0.7405 0.5505
H8 H 0.1644 0.7560 0.4302
C8 C 0.3585(3) 0.8640(3) 0.1825(3)
H9 H 0.4055 0.8813 0.2790
H10 H 0.4202 0.8209 0.1101
C9 C 0.3937(3) 1.0345(3) 0.2019(3)
H11 H 0.3219 1.0737 0.2629
H12 H 0.3661 1.0233 0.1028
C10 C 0.5698(4) 1.1683(4) 0.2752(5)
H13 H 0.5991 1.1740 0.3713
H14 H 0.6406 1.1317 0.2109
C11 C 0.6044(5) 1.3359(5) 0.3027(8)
H15 H 0.5981 1.3375 0.2077
H16 H 0.7136 1.4158 0.3651
H17 H 0.5248 1.3677 0.3539
C12 C -0.1461(2) 0.6480(2) -0.0803(2)
C13 C -0.1071(4) 0.6852(3) -0.2095(3)
H18 H -0.1486 0.5794 -0.3031
H19 H -0.1584 0.7528 -0.2137
H20 H 0.0107 0.7472 -0.1946
C14 C -0.3283(3) 0.5383(3) -0.1080(3)
H21 H -0.3511 0.5114 -0.0264
H22 H -0.3876 0.5989 -0.1131
H23 H -0.3629 0.4341 -0.2022
Mg1A Mg -0.11618(7) 0.33172(8) -0.11251(7)
N1A N 0.03236(18) 0.23949(19) -0.25804(17)
O1A O 0.05945(15) 0.43499(16) 0.06359(14)
C1A C 0.1235(2) 0.1917(2) -0.2018(2)
C2A C 0.2408(3) 0.1530(3) -0.2721(3)
H1A H 0.3054 0.1212 -0.2308
C3A C 0.2623(3) 0.1613(3) -0.4017(3)
H2A H 0.3423 0.1360 -0.4505
C4A C 0.1667(3) 0.2068(3) -0.4604(3)
H3A H 0.1788 0.2113 -0.5508
C5A C 0.0530(3) 0.2457(3) -0.3858(2)
C6A C 0.0913(3) 0.1812(2) -0.0622(2)
H4A H -0.0266 0.1128 -0.0770
H5A H 0.1471 0.1212 -0.0461
C7A C -0.0544(3) 0.2964(3) -0.4442(3)
H6A H -0.0114 0.4188 -0.3900
H7A H -0.0574 0.2595 -0.5505
H8A H -0.1644 0.2440 -0.4302
C8A C -0.3585(3) 0.1360(3) -0.1825(3)
H9A H -0.4055 0.1187 -0.2790
H10A H -0.4202 0.1791 -0.1101
C9A C -0.3937(3) -0.0345(3) -0.2019(3)
H11A H -0.3219 -0.0737 -0.2629
H12A H -0.3661 -0.0233 -0.1028
C10A C -0.5698(4) -0.1683(4) -0.2752(5)
H13A H -0.5991 -0.1740 -0.3713
H14A H -0.6406 -0.1317 -0.2109
C11A C -0.6044(5) -0.3359(5) -0.3027(8)
H15A H -0.5981 -0.3375 -0.2077
H16A H -0.7136 -0.4158 -0.3651
H17A H -0.5248 -0.3677 -0.3539
C12A C 0.1461(2) 0.3520(2) 0.0803(2)
C13A C 0.1071(4) 0.3148(3) 0.2095(3)
H18A H 0.1486 0.4206 0.3031
H19A H 0.1584 0.2472 0.2137
H20A H -0.0107 0.2528 0.1946
C14A C 0.3283(3) 0.4617(3) 0.1080(3)
H21A H 0.3511 0.4886 0.0264
H22A H 0.3876 0.4011 0.1131
H23A H 0.3629 0.5659 0.2022
loop_
_geom_bond_atom_site_label_1
_geom_bond_atom_site_label_2
_geom_bond_site_symmetry_1
_geom_bond_site_symmetry_2
Mg1 N1 1_555 1_555
N1 C1 1_555 1_555
O1 Mg1 1_555 1_555
C1 C2 1_555 1_555
C2 H1 1_555 1_555
C3 C2 1_555 1_555
H2 C3 1_555 1_555
C4 C3 1_555 1_555
H3 C4 1_555 1_555
C5 N1 1_555 1_555
C6 C1 1_555 1_555
H4 C6 1_555 1_555
H5 C6 1_555 1_555
C7 C5 1_555 1_555
H6 C7 1_555 1_555
H7 C7 1_555 1_555
H8 C7 1_555 1_555
C8 Mg1 1_555 1_555
H9 C8 1_555 1_555
H10 C8 1_555 1_555
C9 C8 1_555 1_555
H11 C9 1_555 1_555
H12 C9 1_555 1_555
C10 C9 1_555 1_555
H13 C10 1_555 1_555
H14 C10 1_555 1_555
C11 C10 1_555 1_555
H15 C11 1_555 1_555
H16 C11 1_555 1_555
H17 C11 1_555 1_555
C12 O1 1_555 1_555
C13 C12 1_555 1_555
H18 C13 1_555 1_555
H19 C13 1_555 1_555
H20 C13 1_555 1_555
C14 C12 1_555 1_555
H21 C14 1_555 1_555
H22 C14 1_555 1_555
H23 C14 1_555 1_555
Mg1A O1 1_555 1_555
N1A Mg1A 1_555 1_555
O1A Mg1 1_555 1_555
C1A N1A 1_555 1_555
C2A C1A 1_555 1_555
H1A C2A 1_555 1_555
C3A C2A 1_555 1_555
H2A C3A 1_555 1_555
C4A C3A 1_555 1_555
H3A C4A 1_555 1_555
C5A N1A 1_555 1_555
C6A C1A 1_555 1_555
H4A C6A 1_555 1_555
H5A C6A 1_555 1_555
C7A C5A 1_555 1_555
H6A C7A 1_555 1_555
H7A C7A 1_555 1_555
H8A C7A 1_555 1_555
C8A Mg1A 1_555 1_555
H9A C8A 1_555 1_555
H10A C8A 1_555 1_555
C9A C8A 1_555 1_555
H11A C9A 1_555 1_555
H12A C9A 1_555 1_555
C10A C9A 1_555 1_555
H13A C10A 1_555 1_555
H14A C10A 1_555 1_555
C11A C10A 1_555 1_555
H15A C11A 1_555 1_555
H16A C11A 1_555 1_555
H17A C11A 1_555 1_555
C12A O1A 1_555 1_555
C13A C12A 1_555 1_555
H18A C13A 1_555 1_555
H19A C13A 1_555 1_555
H20A C13A 1_555 1_555
C14A C12A 1_555 1_555
H21A C14A 1_555 1_555
H22A C14A 1_555 1_555
H23A C14A 1_555 1_555
C4 C5 1_555 1_555
C6 C12 1_555 1_555
Mg1A O1A 1_555 1_555
C4A C5A 1_555 1_555
C6A C12A 1_555 1_555

#END
