
#######################################################################
#
#                 Cambridge Crystallographic Data Centre
#                                CCDC 
#
#######################################################################
#
# If this CIF has been generated from an entry in the Cambridge 
# Structural Database, then it will include bibliographic, chemical, 
# crystal, experimental, refinement or atomic coordinate data resulting 
# from the CCDC's data processing and validation procedures.
#
#######################################################################

data_TEVQER
_chemical_formula_moiety         'C19 H19 N3 O2'
_chemical_name_systematic        
4-((2-Methoxybenzylidene)amino)-1,5-dimethyl-2-phenyl-1,2-dihydro-3H-pyrazol-3-one
_symmetry_cell_setting           orthorhombic
_symmetry_space_group_name_H-M   'P 21 21 21'
_symmetry_Int_Tables_number      19
_space_group_name_Hall           'P 2ac 2ab'
loop_
_symmetry_equiv_pos_site_id
_symmetry_equiv_pos_as_xyz
1 x,y,z
2 1/2-x,-y,1/2+z
3 -x,1/2+y,1/2-z
4 1/2+x,1/2-y,-z
_cell_length_a                   6.841(3)
_cell_length_b                   14.021(6)
_cell_length_c                   17.886(8)
_cell_angle_alpha                90
_cell_angle_beta                 90
_cell_angle_gamma                90
_cell_volume                     1715.58
_exptl_crystal_colour            yellow
_exptl_crystal_description       block
_cell_formula_units_Z            4
loop_
_atom_site_label
_atom_site_type_symbol
_atom_site_fract_x
_atom_site_fract_y
_atom_site_fract_z
N1 N -0.0054(4) 0.4880(2) 0.03294(16)
N2 N -0.1758(4) 0.4385(2) 0.01076(16)
N3 N 0.0170(5) 0.26648(19) 0.13701(16)
O1 O 0.2640(4) 0.45152(17) 0.10595(14)
O2 O 0.5231(4) 0.24268(19) 0.24855(15)
C1 C 0.0999(6) 0.4304(2) 0.0830(2)
C2 C -0.0216(5) 0.3487(2) 0.09611(18)
C3 C -0.1871(5) 0.3584(2) 0.0539(2)
C4 C -0.3431(5) 0.4977(3) -0.0100(2)
H1 H -0.4478 0.4576 -0.0271
H2 H -0.3057 0.5406 -0.0493
H3 H -0.3857 0.5336 0.0326
C5 C -0.3600(5) 0.2954(3) 0.0509(2)
H4 H -0.3344 0.2383 0.0788
H5 H -0.3876 0.2792 -0.0002
H6 H -0.4705 0.3279 0.0721
C6 C 0.1777(6) 0.2586(2) 0.1731(2)
H7 H 0.2641 0.3098 0.1741
C7 C 0.2282(5) 0.1715(3) 0.2125(2)
C8 C 0.4051(6) 0.1641(3) 0.2509(2)
C9 C 0.4540(6) 0.0814(3) 0.2893(2)
H8 H 0.5713 0.0775 0.3154
C10 C 0.3272(7) 0.0054(3) 0.2882(2)
H9 H 0.3610 -0.0508 0.3127
C11 C 0.1519(7) 0.0113(3) 0.2517(2)
H10 H 0.0656 -0.0400 0.2527
C12 C 0.1034(6) 0.0931(3) 0.2134(2)
H11 H -0.0146 0.0961 0.1877
C13 C 0.6883(6) 0.2465(3) 0.2968(3)
H12 H 0.6470 0.2359 0.3474
H13 H 0.7490 0.3080 0.2929
H14 H 0.7802 0.1980 0.2826
C14 C 0.0883(5) 0.5496(3) -0.0192(2)
C15 C 0.0874(6) 0.5304(3) -0.0948(2)
H15 H 0.0225 0.4773 -0.1135
C16 C 0.1854(8) 0.5920(4) -0.1421(3)
H16 H 0.1835 0.5812 -0.1934
C17 C 0.2856(7) 0.6690(4) -0.1140(4)
H17 H 0.3541 0.7090 -0.1461
C18 C 0.2845(8) 0.6868(3) -0.0390(3)
H18 H 0.3511 0.7395 -0.0202
C19 C 0.1849(6) 0.6270(3) 0.0092(3)
H19 H 0.1836 0.6392 0.0603
loop_
_geom_bond_atom_site_label_1
_geom_bond_atom_site_label_2
_geom_bond_site_symmetry_1
_geom_bond_site_symmetry_2
N1 N2 1_555 1_555
N2 C3 1_555 1_555
N3 C2 1_555 1_555
O1 C1 1_555 1_555
O2 C8 1_555 1_555
C1 N1 1_555 1_555
C2 C1 1_555 1_555
C3 C2 1_555 1_555
C4 N2 1_555 1_555
H1 C4 1_555 1_555
H2 C4 1_555 1_555
H3 C4 1_555 1_555
C5 C3 1_555 1_555
H4 C5 1_555 1_555
H5 C5 1_555 1_555
H6 C5 1_555 1_555
C6 N3 1_555 1_555
H7 C6 1_555 1_555
C7 C6 1_555 1_555
C8 C7 1_555 1_555
C9 C8 1_555 1_555
H8 C9 1_555 1_555
C10 C9 1_555 1_555
H9 C10 1_555 1_555
C11 C10 1_555 1_555
H10 C11 1_555 1_555
C12 C7 1_555 1_555
H11 C12 1_555 1_555
C13 O2 1_555 1_555
H12 C13 1_555 1_555
H13 C13 1_555 1_555
H14 C13 1_555 1_555
C14 N1 1_555 1_555
C15 C14 1_555 1_555
H15 C15 1_555 1_555
C16 C15 1_555 1_555
H16 C16 1_555 1_555
C17 C16 1_555 1_555
H17 C17 1_555 1_555
C18 C17 1_555 1_555
H18 C18 1_555 1_555
C19 C14 1_555 1_555
H19 C19 1_555 1_555
C11 C12 1_555 1_555
C18 C19 1_555 1_555

#END
