
#######################################################################
#
#                 Cambridge Crystallographic Data Centre
#                                CCDC 
#
#######################################################################
#
# If this CIF has been generated from an entry in the Cambridge 
# Structural Database, then it will include bibliographic, chemical, 
# crystal, experimental, refinement or atomic coordinate data resulting 
# from the CCDC's data processing and validation procedures.
#
#######################################################################

data_TEVRUI
_chemical_formula_moiety         'C22 H22 O4'
_chemical_name_systematic        'Diisopropyl anthracene-1,8-dicarboxylate'
_symmetry_cell_setting           monoclinic
_symmetry_space_group_name_H-M   'P 21/c'
_symmetry_Int_Tables_number      14
_space_group_name_Hall           '-P 2ybc'
loop_
_symmetry_equiv_pos_site_id
_symmetry_equiv_pos_as_xyz
1 x,y,z
2 -x,1/2+y,1/2-z
3 -x,-y,-z
4 x,1/2-y,1/2+z
_cell_length_a                   10.4097(2)
_cell_length_b                   7.95410(10)
_cell_length_c                   22.2260(4)
_cell_angle_alpha                90
_cell_angle_beta                 99.7490(10)
_cell_angle_gamma                90
_cell_volume                     1813.73
_exptl_crystal_colour            yellow
_exptl_crystal_description       block
_cell_formula_units_Z            4
_exptl_crystal_recrystallization_method 'ethyl acetate'
loop_
_atom_site_label
_atom_site_type_symbol
_atom_site_fract_x
_atom_site_fract_y
_atom_site_fract_z
O1 O 0.55172(6) 0.60784(8) 0.36918(3)
O2 O 0.46563(7) 0.45601(8) 0.28647(3)
O3 O 0.36508(6) 0.61088(8) 0.12099(3)
O4 O 0.24109(7) 0.48628(10) 0.04059(3)
C1 C 0.32721(8) 0.63284(11) 0.33564(4)
C2 C 0.31041(9) 0.66863(13) 0.39419(4)
H1 H 0.3782 0.6423 0.4271
C3 C 0.19462(10) 0.74375(14) 0.40668(4)
H2 H 0.1848 0.7663 0.4476
C4 C 0.09735(10) 0.78364(13) 0.35993(4)
H3 H 0.0204 0.8360 0.3685
C5 C -0.09063(9) 0.78166(13) 0.14214(5)
H4 H -0.1665 0.8344 0.1517
C6 C -0.08609(10) 0.73869(14) 0.08340(5)
H5 H -0.1594 0.7580 0.0524
C7 C 0.02798(9) 0.66526(12) 0.06852(4)
H6 H 0.0299 0.6355 0.0273
C8 C 0.13623(9) 0.63562(11) 0.11181(4)
C9 C 0.23551(8) 0.63596(11) 0.22368(4)
H7 H 0.3132 0.5865 0.2148
C10 C 0.00889(9) 0.78680(12) 0.25015(4)
H8 H -0.0672 0.8408 0.2590
C11 C 0.10911(9) 0.74798(11) 0.29811(4)
C12 C 0.22528(8) 0.66964(11) 0.28477(4)
C13 C 0.13396(8) 0.67352(11) 0.17544(4)
C14 C 0.01687(9) 0.74877(11) 0.18961(4)
C15 C 0.45303(9) 0.55510(11) 0.32620(4)
C16 C 0.68102(9) 0.53707(12) 0.36724(4)
H9 H 0.6724 0.4172 0.3536
C17 C 0.75291(11) 0.54614(14) 0.43216(5)
H10 H 0.7571 0.6633 0.4460
H11 H 0.8415 0.5023 0.4340
H12 H 0.7068 0.4787 0.4586
C18 C 0.74566(10) 0.63823(15) 0.32331(5)
H13 H 0.6907 0.6372 0.2829
H14 H 0.8307 0.5889 0.3206
H15 H 0.7576 0.7543 0.3379
C19 C 0.25147(9) 0.56724(11) 0.08750(4)
C20 C 0.48520(9) 0.55572(12) 0.10037(4)
H16 H 0.4738 0.4390 0.0836
C21 C 0.58806(10) 0.55694(13) 0.15718(5)
H17 H 0.5948 0.6701 0.1749
H18 H 0.6722 0.5244 0.1466
H19 H 0.5639 0.4771 0.1869
C22 C 0.51495(10) 0.67500(14) 0.05145(5)
H20 H 0.4417 0.6760 0.0174
H21 H 0.5940 0.6377 0.0369
H22 H 0.5284 0.7885 0.0685
loop_
_geom_bond_atom_site_label_1
_geom_bond_atom_site_label_2
_geom_bond_site_symmetry_1
_geom_bond_site_symmetry_2
O1 C15 1_555 1_555
O2 C15 1_555 1_555
O3 C19 1_555 1_555
O4 C19 1_555 1_555
C1 C2 1_555 1_555
C2 H1 1_555 1_555
C3 C2 1_555 1_555
H2 C3 1_555 1_555
C4 C3 1_555 1_555
H3 C4 1_555 1_555
C5 H4 1_555 1_555
C6 C5 1_555 1_555
H5 C6 1_555 1_555
C7 C6 1_555 1_555
H6 C7 1_555 1_555
C8 C7 1_555 1_555
C9 H7 1_555 1_555
C10 H8 1_555 1_555
C11 C4 1_555 1_555
C12 C1 1_555 1_555
C13 C8 1_555 1_555
C14 C5 1_555 1_555
C15 C1 1_555 1_555
C16 O1 1_555 1_555
H9 C16 1_555 1_555
C17 C16 1_555 1_555
H10 C17 1_555 1_555
H11 C17 1_555 1_555
H12 C17 1_555 1_555
C18 C16 1_555 1_555
H13 C18 1_555 1_555
H14 C18 1_555 1_555
H15 C18 1_555 1_555
C19 C8 1_555 1_555
C20 O3 1_555 1_555
H16 C20 1_555 1_555
C21 C20 1_555 1_555
H17 C21 1_555 1_555
H18 C21 1_555 1_555
H19 C21 1_555 1_555
C22 C20 1_555 1_555
H20 C22 1_555 1_555
H21 C22 1_555 1_555
H22 C22 1_555 1_555
C9 C12 1_555 1_555
C9 C13 1_555 1_555
C10 C11 1_555 1_555
C10 C14 1_555 1_555
C11 C12 1_555 1_555
C13 C14 1_555 1_555

#END
