
#######################################################################
#
#                 Cambridge Crystallographic Data Centre
#                                CCDC 
#
#######################################################################
#
# If this CIF has been generated from an entry in the Cambridge 
# Structural Database, then it will include bibliographic, chemical, 
# crystal, experimental, refinement or atomic coordinate data resulting 
# from the CCDC's data processing and validation procedures.
#
#######################################################################

data_TEVWIC
_chemical_formula_moiety         'C18 H15 N3 O1'
_chemical_name_systematic        
3-((5-(4-Methylphenyl)-1,3,4-oxadiazol-2-yl)methyl)-1H-indole
_symmetry_cell_setting           monoclinic
_symmetry_space_group_name_H-M   'P 21/n'
_symmetry_Int_Tables_number      14
_space_group_name_Hall           '-P 2yn'
loop_
_symmetry_equiv_pos_site_id
_symmetry_equiv_pos_as_xyz
1 x,y,z
2 1/2-x,1/2+y,1/2-z
3 -x,-y,-z
4 1/2+x,1/2-y,1/2+z
_cell_length_a                   16.584(3)
_cell_length_b                   5.8646(9)
_cell_length_c                   16.652(3)
_cell_angle_alpha                90
_cell_angle_beta                 114.513(2)
_cell_angle_gamma                90
_cell_volume                     1473.57
_cell_formula_units_Z            4
loop_
_atom_site_label
_atom_site_type_symbol
_atom_site_fract_x
_atom_site_fract_y
_atom_site_fract_z
C1 C 0.23901(7) 0.5984(2) 0.13848(7)
C2 C 0.30099(9) 0.4346(2) 0.18754(9)
H1 H 0.2835 0.3076 0.2120
C3 C 0.38795(9) 0.4604(3) 0.19989(10)
H2 H 0.4306 0.3505 0.2336
C4 C 0.41448(9) 0.6454(3) 0.16369(10)
H3 H 0.4748 0.6579 0.1729
C5 C 0.35551(8) 0.8088(2) 0.11532(9)
H4 H 0.3738 0.9346 0.0910
C6 C 0.26744(7) 0.7842(2) 0.10297(8)
C7 C 0.12238(8) 0.8218(2) 0.06434(8)
H5 H 0.0641 0.8830 0.0384
C8 C 0.14559(7) 0.6264(2) 0.11304(7)
C9 C 0.09030(8) 0.4643(2) 0.13874(8)
H6 H 0.0904 0.3143 0.1115
H7 H 0.1189 0.4437 0.2036
C10 C -0.00287(7) 0.5341(2) 0.11348(7)
C11 C -0.13490(8) 0.4993(2) 0.10330(8)
C12 C -0.21016(8) 0.3982(2) 0.11364(8)
C13 C -0.20323(9) 0.1901(2) 0.15552(10)
H8 H -0.1486 0.1095 0.1780
C14 C -0.27643(10) 0.1000(3) 0.16441(11)
H9 H -0.2713 -0.0424 0.1933
C15 C -0.35655(10) 0.2134(3) 0.13210(11)
C16 C -0.36245(9) 0.4218(3) 0.09085(11)
H10 H -0.4170 0.5025 0.0689
C17 C -0.29046(9) 0.5143(3) 0.08103(10)
H11 H -0.2958 0.6568 0.0521
C18 C -0.43597(13) 0.1128(4) 0.14148(16)
H12 H -0.4357 -0.0533 0.1350
H13 H -0.4904 0.1758 0.0957
H14 H -0.4334 0.1504 0.1998
N1 N 0.19495(7) 0.9175(2) 0.05811(8)
H15 H 0.1921(10) 1.052(3) 0.0264(10)
N2 N -0.04490(7) 0.71326(19) 0.07330(8)
N3 N -0.13210(7) 0.69086(19) 0.06670(8)
O1 O -0.05540(5) 0.38969(14) 0.13508(5)
loop_
_geom_bond_atom_site_label_1
_geom_bond_atom_site_label_2
_geom_bond_site_symmetry_1
_geom_bond_site_symmetry_2
C1 C2 1_555 1_555
C2 H1 1_555 1_555
C3 C2 1_555 1_555
H2 C3 1_555 1_555
C4 C3 1_555 1_555
H3 C4 1_555 1_555
C5 C4 1_555 1_555
H4 C5 1_555 1_555
C6 C1 1_555 1_555
C7 H5 1_555 1_555
C8 C1 1_555 1_555
C9 C8 1_555 1_555
H6 C9 1_555 1_555
H7 C9 1_555 1_555
C10 C9 1_555 1_555
C11 C12 1_555 1_555
C12 C13 1_555 1_555
C13 H8 1_555 1_555
C14 C13 1_555 1_555
H9 C14 1_555 1_555
C15 C14 1_555 1_555
C16 C15 1_555 1_555
H10 C16 1_555 1_555
C17 C12 1_555 1_555
H11 C17 1_555 1_555
C18 C15 1_555 1_555
H12 C18 1_555 1_555
H13 C18 1_555 1_555
H14 C18 1_555 1_555
N1 C6 1_555 1_555
H15 N1 1_555 1_555
N2 C10 1_555 1_555
N3 C11 1_555 1_555
O1 C10 1_555 1_555
C5 C6 1_555 1_555
C7 C8 1_555 1_555
C7 N1 1_555 1_555
C11 O1 1_555 1_555
C16 C17 1_555 1_555
N2 N3 1_555 1_555

#END
