
#######################################################################
#
#                 Cambridge Crystallographic Data Centre
#                                CCDC 
#
#######################################################################
#
# If this CIF has been generated from an entry in the Cambridge 
# Structural Database, then it will include bibliographic, chemical, 
# crystal, experimental, refinement or atomic coordinate data resulting 
# from the CCDC's data processing and validation procedures.
#
#######################################################################

data_TEVWOI
_chemical_formula_moiety         'C13 H10 F3 N3 O1'
_chemical_name_systematic        
1-Ethyl-3-(5-(trifluoromethyl)-1,3,4-oxadiazol-2-yl)-1H-indole
_symmetry_cell_setting           monoclinic
_symmetry_space_group_name_H-M   'P 21/c'
_symmetry_Int_Tables_number      14
_space_group_name_Hall           '-P 2ybc'
loop_
_symmetry_equiv_pos_site_id
_symmetry_equiv_pos_as_xyz
1 x,y,z
2 -x,1/2+y,1/2-z
3 -x,-y,-z
4 x,1/2-y,1/2+z
_cell_length_a                   17.750(2)
_cell_length_b                   19.692(3)
_cell_length_c                   7.1270(10)
_cell_angle_alpha                90
_cell_angle_beta                 91.554(2)
_cell_angle_gamma                90
_cell_volume                     2490.21
_cell_formula_units_Z            8
loop_
_atom_site_label
_atom_site_type_symbol
_atom_site_fract_x
_atom_site_fract_y
_atom_site_fract_z
C1 C -0.10966(11) 0.11002(10) 0.2945(3)
H1 H -0.1097 0.1578 0.2943
C2 C -0.17434(12) 0.07320(11) 0.3258(3)
H2 H -0.2195 0.0964 0.3479
C3 C -0.17420(11) 0.00235(11) 0.3252(3)
H3 H -0.2195 -0.0210 0.3451
C4 C -0.10977(10) -0.03401(10) 0.2964(3)
H4 H -0.1104 -0.0817 0.2966
C5 C -0.04306(9) 0.00150(9) 0.2668(2)
C6 C -0.04451(10) 0.07299(9) 0.2634(2)
C7 C 0.07302(10) 0.04142(9) 0.2061(3)
H5 H 0.1246 0.0436 0.1796
C8 C 0.03307(9) -0.01745(8) 0.2312(2)
C9 C 0.05010(13) 0.16638(9) 0.1986(3)
H6 H 0.0051 0.1937 0.1703
H7 H 0.0827 0.1690 0.0902
C10 C 0.09021(15) 0.19559(12) 0.3629(4)
H8 H 0.0568 0.1967 0.4684
H9 H 0.1063 0.2414 0.3339
H10 H 0.1339 0.1679 0.3947
C11 C 0.06378(9) -0.08420(9) 0.2212(2)
C12 C 0.14780(11) -0.15938(9) 0.1943(3)
C13 C 0.22482(12) -0.18675(10) 0.1720(3)
F1 F 0.25731(8) -0.16195(9) 0.0234(2)
F2 F 0.26970(7) -0.17037(7) 0.3174(2)
F3 F 0.22380(9) -0.25343(7) 0.1606(3)
N1 N 0.02738(8) 0.09579(7) 0.2250(2)
N2 N 0.03020(9) -0.14246(8) 0.2336(2)
N3 N 0.08640(9) -0.19231(8) 0.2158(3)
O1 O 0.13957(7) -0.09107(6) 0.19573(18)
C14 C 0.45609(12) 0.07383(9) 0.3082(3)
C15 C 0.39068(14) 0.10926(11) 0.3451(3)
H11 H 0.3916 0.1556 0.3768
C16 C 0.32439(14) 0.07340(13) 0.3330(3)
H12 H 0.2789 0.0955 0.3591
C17 C 0.32309(12) 0.00484(12) 0.2828(3)
H13 H 0.2767 -0.0181 0.2746
C18 C 0.38798(11) -0.02985(10) 0.2454(3)
H14 H 0.3863 -0.0760 0.2114
C19 C 0.45631(10) 0.00469(9) 0.2586(2)
C20 C 0.57536(12) 0.04392(10) 0.2692(3)
H15 H 0.6281 0.0466 0.2622
C21 C 0.53374(10) -0.01336(9) 0.2341(2)
C22 C 0.5641(4) 0.1619(3) 0.3829(8)
H16 H 0.5328 0.1817 0.4800
H17 H 0.6145 0.1537 0.4375
C23 C 0.5689(4) 0.2098(2) 0.2206(6)
H18 H 0.6006 0.1902 0.1260
H19 H 0.5903 0.2525 0.2635
H20 H 0.5188 0.2176 0.1671
C24 C 0.56312(10) -0.07871(9) 0.1921(2)
C25 C 0.64615(11) -0.15322(9) 0.1455(3)
C26 C 0.72286(12) -0.18208(11) 0.1307(3)
F4 F 0.76469(7) -0.17032(7) 0.2850(2)
F5 F 0.76041(8) -0.15513(10) -0.0073(2)
F6 F 0.72068(9) -0.24810(8) 0.1082(3)
N4 N 0.53013(11) 0.09605(8) 0.3151(3)
N5 N 0.52797(9) -0.13608(8) 0.1702(2)
N6 N 0.58343(9) -0.18533(8) 0.1393(3)
O2 O 0.63950(7) -0.08611(6) 0.17774(17)
C27? C 0.6062(9) 0.1930(6) 0.272(3)
H21? H 0.6460 0.1661 0.3311
H22? H 0.6131 0.2404 0.3057
H23? H 0.6080 0.1881 0.1369
C28? C 0.5359(9) 0.1705(6) 0.334(3)
H24? H 0.4955 0.1922 0.2593
H25? H 0.5301 0.1834 0.4655
loop_
_geom_bond_atom_site_label_1
_geom_bond_atom_site_label_2
_geom_bond_site_symmetry_1
_geom_bond_site_symmetry_2
C1 H1 1_555 1_555
C2 C1 1_555 1_555
H2 C2 1_555 1_555
C3 C2 1_555 1_555
H3 C3 1_555 1_555
C4 C3 1_555 1_555
H4 C4 1_555 1_555
C5 C4 1_555 1_555
C6 C1 1_555 1_555
C7 H5 1_555 1_555
C8 C5 1_555 1_555
C9 H6 1_555 1_555
H7 C9 1_555 1_555
C10 C9 1_555 1_555
H8 C10 1_555 1_555
H9 C10 1_555 1_555
H10 C10 1_555 1_555
C11 C8 1_555 1_555
C12 C13 1_555 1_555
C13 F1 1_555 1_555
F2 C13 1_555 1_555
F3 C13 1_555 1_555
N1 C6 1_555 1_555
N2 C11 1_555 1_555
N3 C12 1_555 1_555
O1 C11 1_555 1_555
C14 C15 1_555 1_555
C15 H11 1_555 1_555
C16 C15 1_555 1_555
H12 C16 1_555 1_555
C17 C16 1_555 1_555
H13 C17 1_555 1_555
C18 C17 1_555 1_555
H14 C18 1_555 1_555
C19 C14 1_555 1_555
C20 H15 1_555 1_555
C21 C19 1_555 1_555
C22 H16 1_555 1_555
H17 C22 1_555 1_555
C23 C22 1_555 1_555
H18 C23 1_555 1_555
H19 C23 1_555 1_555
H20 C23 1_555 1_555
C24 C21 1_555 1_555
C25 C26 1_555 1_555
C26 F4 1_555 1_555
F5 C26 1_555 1_555
F6 C26 1_555 1_555
N4 C14 1_555 1_555
N5 C24 1_555 1_555
N6 C25 1_555 1_555
O2 C24 1_555 1_555
C5 C6 1_555 1_555
C7 C8 1_555 1_555
C7 N1 1_555 1_555
C9 N1 1_555 1_555
C12 O1 1_555 1_555
N2 N3 1_555 1_555
C18 C19 1_555 1_555
C20 C21 1_555 1_555
C20 N4 1_555 1_555
C22 N4 1_555 1_555
C25 O2 1_555 1_555
N5 N6 1_555 1_555

#END
