
#######################################################################
#
#                 Cambridge Crystallographic Data Centre
#                                CCDC 
#
#######################################################################
#
# If this CIF has been generated from an entry in the Cambridge 
# Structural Database, then it will include bibliographic, chemical, 
# crystal, experimental, refinement or atomic coordinate data resulting 
# from the CCDC's data processing and validation procedures.
#
#######################################################################

data_TEVWUO
_chemical_formula_moiety         'C23 H20 N4 O7 S1,2(C1 H4 O1)'
_chemical_name_systematic        
'4-(3-Oxo-3-((4-(pyrimidin-2-ylsulfamoyl)phenyl)amino)prop-1-en-1-yl)-1,2-phenylene diacetate methanol solvate'
_symmetry_cell_setting           triclinic
_symmetry_space_group_name_H-M   'P -1'
_symmetry_Int_Tables_number      2
_space_group_name_Hall           '-P 1'
loop_
_symmetry_equiv_pos_site_id
_symmetry_equiv_pos_as_xyz
1 x,y,z
2 -x,-y,-z
_cell_length_a                   10.302(7)
_cell_length_b                   11.621(8)
_cell_length_c                   12.107(8)
_cell_angle_alpha                100.904(9)
_cell_angle_beta                 102.624(8)
_cell_angle_gamma                95.501(9)
_cell_volume                     1374.56
_exptl_crystal_colour            yellow
_exptl_crystal_description       block
_cell_formula_units_Z            2
loop_
_atom_site_label
_atom_site_type_symbol
_atom_site_fract_x
_atom_site_fract_y
_atom_site_fract_z
S1 S 0.07943(10) -0.20396(10) -0.39001(8)
N1 N 0.2137(3) -0.0408(3) 0.1228(3)
H1 H 0.1579 -0.0713 0.1564
N2 N 0.0826(3) -0.3450(3) -0.4234(3)
H2 H 0.0063 -0.3890 -0.4538
N3 N 0.1719(3) -0.5189(3) -0.4489(3)
N4 N 0.3163(3) -0.3382(3) -0.3543(3)
O1 O 0.5815(5) 0.4344(4) 0.8888(3)
O2 O 0.5785(3) 0.2415(3) 0.8826(2)
O3 O 0.3990(4) 0.0949(3) 0.1530(3)
O4 O -0.0600(3) -0.1934(3) -0.4300(2)
O5 O 0.1782(3) -0.1414(3) -0.4328(2)
O6 O 0.7606(3) 0.2977(3) 0.7583(2)
O7 O 0.7403(4) 0.4541(4) 0.6752(4)
C1 C 0.6548(7) 0.3700(6) 1.0656(4)
H3 H 0.6689 0.4526 1.1018
H4 H 0.7387 0.3392 1.0799
H5 H 0.5919 0.3281 1.0972
C2 C 0.5999(5) 0.3544(6) 0.9368(4)
C3 C 0.5384(5) 0.2144(4) 0.7613(3)
C4 C 0.4138(5) 0.1546(4) 0.7057(4)
H6 H 0.3537 0.1355 0.7488
C5 C 0.3757(4) 0.1220(4) 0.5864(4)
H7 H 0.2903 0.0815 0.5495
C6 C 0.4667(4) 0.1502(3) 0.5204(3)
C7 C 0.4352(4) 0.1194(4) 0.3929(3)
H8 H 0.5036 0.1435 0.3598
C8 C 0.3229(4) 0.0621(4) 0.3185(3)
H9 H 0.2496 0.0357 0.3449
C9 C 0.3163(4) 0.0406(4) 0.1920(4)
C10 C 0.1885(4) -0.0809(4) 0.0019(3)
C11 C 0.0581(4) -0.1383(4) -0.0585(3)
H10 H -0.0072 -0.1495 -0.0178
C12 C 0.0269(4) -0.1775(4) -0.1763(3)
H11 H -0.0594 -0.2147 -0.2153
C13 C 0.1237(4) -0.1620(3) -0.2379(3)
C14 C 0.1960(4) -0.4036(4) -0.4084(3)
C15 C 0.2809(4) -0.5765(4) -0.4378(4)
H12 H 0.2693 -0.6577 -0.4678
C16 C 0.4072(4) -0.5189(5) -0.3840(4)
H13 H 0.4814 -0.5591 -0.3753
C17 C 0.4194(4) -0.4008(4) -0.3441(4)
H14 H 0.5048 -0.3602 -0.3072
C18 C 0.2524(4) -0.1085(4) -0.1799(3)
H15 H 0.3176 -0.0996 -0.2212
C19 C 0.2850(4) -0.0683(4) -0.0613(3)
H16 H 0.3720 -0.0326 -0.0231
C20 C 0.5952(4) 0.2100(4) 0.5792(3)
H17 H 0.6574 0.2271 0.5373
C21 C 0.6303(4) 0.2436(4) 0.6981(3)
C22 C 0.8061(5) 0.4053(6) 0.7414(4)
C23 C 0.9459(6) 0.4499(7) 0.8100(7)
H18 H 0.9737 0.5261 0.7963
H19 H 1.0046 0.3956 0.7872
H20 H 0.9496 0.4570 0.8910
O8 O 0.7411(6) 0.7915(6) 1.0275(4)
H21 H 0.6944 0.8265 0.9848
C24 C 0.7338(11) 0.6844(8) 0.9758(11)
H22 H 0.8109 0.6521 1.0106
H23 H 0.7312 0.6808 0.8955
H24 H 0.6536 0.6394 0.9822
O9 O 0.0194(4) 0.1313(5) 0.7998(3)
H25 H 0.0844 0.1722 0.8474
C25 C 0.0280(7) 0.1404(6) 0.6907(5)
H26 H 0.0979 0.2034 0.6956
H27 H -0.0561 0.1570 0.6489
H28 H 0.0482 0.0672 0.6509
loop_
_geom_bond_atom_site_label_1
_geom_bond_atom_site_label_2
_geom_bond_site_symmetry_1
_geom_bond_site_symmetry_2
S1 N2 1_555 1_555
N1 H1 1_555 1_555
N2 H2 1_555 1_555
N3 C14 1_555 1_555
N4 C14 1_555 1_555
O1 C2 1_555 1_555
O2 C2 1_555 1_555
O3 C9 1_555 1_555
O4 S1 1_555 1_555
O5 S1 1_555 1_555
O6 C21 1_555 1_555
O7 C22 1_555 1_555
C1 H3 1_555 1_555
H4 C1 1_555 1_555
H5 C1 1_555 1_555
C2 C1 1_555 1_555
C3 O2 1_555 1_555
C4 C3 1_555 1_555
H6 C4 1_555 1_555
C5 C4 1_555 1_555
H7 C5 1_555 1_555
C6 C5 1_555 1_555
C7 C6 1_555 1_555
H8 C7 1_555 1_555
C8 C7 1_555 1_555
H9 C8 1_555 1_555
C9 N1 1_555 1_555
C10 N1 1_555 1_555
C11 C10 1_555 1_555
H10 C11 1_555 1_555
C12 C11 1_555 1_555
H11 C12 1_555 1_555
C13 S1 1_555 1_555
C14 N2 1_555 1_555
C15 N3 1_555 1_555
H12 C15 1_555 1_555
C16 C15 1_555 1_555
H13 C16 1_555 1_555
C17 N4 1_555 1_555
H14 C17 1_555 1_555
C18 C13 1_555 1_555
H15 C18 1_555 1_555
C19 C10 1_555 1_555
H16 C19 1_555 1_555
C20 C6 1_555 1_555
H17 C20 1_555 1_555
C21 C3 1_555 1_555
C22 O6 1_555 1_555
C23 C22 1_555 1_555
H18 C23 1_555 1_555
H19 C23 1_555 1_555
H20 C23 1_555 1_555
O8 H21 1_555 1_555
C24 O8 1_555 1_555
H22 C24 1_555 1_555
H23 C24 1_555 1_555
H24 C24 1_555 1_555
O9 H25 1_555 1_555
C25 O9 1_555 1_555
H26 C25 1_555 1_555
H27 C25 1_555 1_555
H28 C25 1_555 1_555
C8 C9 1_555 1_555
C12 C13 1_555 1_555
C16 C17 1_555 1_555
C18 C19 1_555 1_555
C20 C21 1_555 1_555

#END
