
#######################################################################
#
#                 Cambridge Crystallographic Data Centre
#                                CCDC 
#
#######################################################################
#
# If this CIF has been generated from an entry in the Cambridge 
# Structural Database, then it will include bibliographic, chemical, 
# crystal, experimental, refinement or atomic coordinate data resulting 
# from the CCDC's data processing and validation procedures.
#
#######################################################################

data_TEVYEZ
_chemical_name_common            '(R,S)-Ethambutol dinitrate'
_chemical_formula_moiety         'C10 H26 N2 O2 2+,2(N1 O3 1-)'
_chemical_name_systematic        
"(R,S)-2,2'-(Ethane-1,2-diyldiiminio)dibutan-1-ol dinitrate"
_symmetry_cell_setting           monoclinic
_symmetry_space_group_name_H-M   'C 2/c'
_symmetry_Int_Tables_number      15
_space_group_name_Hall           '-C 2yn'
loop_
_symmetry_equiv_pos_site_id
_symmetry_equiv_pos_as_xyz
1 x,y,z
2 1/2+x,1/2+y,z
3 -x,y,1/2-z
4 1/2-x,1/2+y,1/2-z
5 -x,-y,-z
6 1/2-x,1/2-y,-z
7 x,-y,1/2+z
8 1/2+x,1/2-y,1/2+z
_cell_length_a                   23.350(5)
_cell_length_b                   5.5367(11)
_cell_length_c                   13.167(3)
_cell_angle_alpha                90
_cell_angle_beta                 99.03(3)
_cell_angle_gamma                90
_cell_volume                     1681.16
_exptl_crystal_colour            colorless
_exptl_crystal_description       block
_cell_formula_units_Z            4
_exptl_crystal_recrystallization_method methanol
loop_
_atom_site_label
_atom_site_type_symbol
_atom_site_fract_x
_atom_site_fract_y
_atom_site_fract_z
O1 O 0.36057(8) 0.3339(3) 0.54299(12)
H1 H 0.3780(14) 0.398(6) 0.598(2)
N1 N 0.42306(7) 0.0246(3) 0.43492(12)
H2 H 0.4287(9) -0.058(4) 0.3781(16)
H3 H 0.4244(9) 0.186(4) 0.4194(15)
C1 C 0.26085(12) -0.0874(7) 0.3622(2)
H4 H 0.2644 -0.2596 0.3689
H5 H 0.2357 -0.0484 0.2995
H6 H 0.2449 -0.0235 0.4195
C2 C 0.32011(9) 0.0220(5) 0.36051(17)
H7 H 0.3164 0.1964 0.3559
H8 H 0.3348 -0.0340 0.2997
C3 C 0.36355(8) -0.0432(4) 0.45583(15)
H9 H 0.3623 -0.2182 0.4665
C4 C 0.35184(10) 0.0823(4) 0.55248(16)
H10 H 0.3123 0.0514 0.5628
H11 H 0.3778 0.0202 0.6115
C5 C 0.47177(8) -0.0218(3) 0.51964(14)
H12 H 0.4702 -0.1872 0.5433
H13 H 0.4689 0.0850 0.5770
O1D O 0.63943(8) -0.3339(3) 0.45701(12)
H1D H 0.6220(14) -0.398(6) 0.402(2)
N1D N 0.57694(7) -0.0246(3) 0.56508(12)
H2D H 0.5713(9) 0.058(4) 0.6219(16)
H3D H 0.5756(9) -0.186(4) 0.5806(15)
C1D C 0.73915(12) 0.0874(7) 0.6378(2)
H4D H 0.7356 0.2596 0.6311
H5D H 0.7643 0.0484 0.7005
H6D H 0.7551 0.0235 0.5805
C2D C 0.67989(9) -0.0220(5) 0.63949(17)
H7D H 0.6836 -0.1964 0.6441
H8D H 0.6652 0.0340 0.7003
C3D C 0.63645(8) 0.0432(4) 0.54417(15)
H9D H 0.6377 0.2182 0.5335
C4D C 0.64816(10) -0.0823(4) 0.44752(16)
H10D H 0.6877 -0.0514 0.4372
H11D H 0.6222 -0.0202 0.3885
C5D C 0.52823(8) 0.0218(3) 0.48036(14)
H12D H 0.5298 0.1872 0.4567
H13D H 0.5311 -0.0850 0.4230
O2 O 0.44631(8) 0.5028(3) 0.38058(11)
O3 O 0.41830(11) 0.3639(4) 0.22846(15)
O4 O 0.43053(9) 0.7431(3) 0.25284(12)
N2 N 0.43162(8) 0.5335(3) 0.28629(14)
loop_
_geom_bond_atom_site_label_1
_geom_bond_atom_site_label_2
_geom_bond_site_symmetry_1
_geom_bond_site_symmetry_2
O1 H1 1_555 1_555
N1 H2 1_555 1_555
H3 N1 1_555 1_555
C1 H4 1_555 1_555
H5 C1 1_555 1_555
H6 C1 1_555 1_555
C2 C1 1_555 1_555
H7 C2 1_555 1_555
H8 C2 1_555 1_555
C3 N1 1_555 1_555
H9 C3 1_555 1_555
C4 O1 1_555 1_555
H10 C4 1_555 1_555
H11 C4 1_555 1_555
C5 N1 1_555 1_555
H12 C5 1_555 1_555
H13 C5 1_555 1_555
O2 N2 1_555 1_555
O3 N2 1_555 1_555
O4 N2 1_555 1_555
O1D H1D 1_555 1_555
N1D H2D 1_555 1_555
H3D N1D 1_555 1_555
C1D H4D 1_555 1_555
H5D C1D 1_555 1_555
H6D C1D 1_555 1_555
C2D C1D 1_555 1_555
H7D C2D 1_555 1_555
H8D C2D 1_555 1_555
C3D N1D 1_555 1_555
H9D C3D 1_555 1_555
C4D O1D 1_555 1_555
H10D C4D 1_555 1_555
H11D C4D 1_555 1_555
C5D C5 1_555 1_555
H12D C5D 1_555 1_555
H13D C5D 1_555 1_555
C2 C3 1_555 1_555
C3 C4 1_555 1_555
N1D C5D 1_555 1_555
C2D C3D 1_555 1_555
C3D C4D 1_555 1_555

#END
