
#######################################################################
#
#                 Cambridge Crystallographic Data Centre
#                                CCDC 
#
#######################################################################
#
# If this CIF has been generated from an entry in the Cambridge 
# Structural Database, then it will include bibliographic, chemical, 
# crystal, experimental, refinement or atomic coordinate data resulting 
# from the CCDC's data processing and validation procedures.
#
#######################################################################

data_TEVZEB
_chemical_name_common            'Terminamine A'
_chemical_formula_moiety         'C29 H48 N2 O3'
_chemical_name_systematic        
20-(Dimethylamino)-16-hydroxy-3-(3-isopropyl-2-oxoazetidin-1-yl)pregnan-4-one
_symmetry_cell_setting           monoclinic
_symmetry_space_group_name_H-M   'P 21'
_symmetry_Int_Tables_number      4
_space_group_name_Hall           'P 2yb'
loop_
_symmetry_equiv_pos_site_id
_symmetry_equiv_pos_as_xyz
1 x,y,z
2 -x,1/2+y,-z
_cell_length_a                   12.3568(12)
_cell_length_b                   9.7426(9)
_cell_length_c                   12.6551(13)
_cell_angle_alpha                90
_cell_angle_beta                 119.022(6)
_cell_angle_gamma                90
_cell_volume                     1332.21
_exptl_crystal_colour            colorless
_exptl_crystal_description       Prism
_cell_formula_units_Z            2
loop_
_atom_site_label
_atom_site_type_symbol
_atom_site_fract_x
_atom_site_fract_y
_atom_site_fract_z
N1 N 0.60091(14) 0.88549(16) 0.64143(14)
N2 N -0.56802(14) 0.84100(17) 0.12131(14)
O1 O 0.45985(12) 0.76387(15) 0.72376(13)
O2 O -0.41463(13) 0.69301(14) 0.32924(13)
H1 H -0.496(2) 0.712(3) 0.270(2)
O3 O 0.68083(14) 1.05620(16) 0.79027(14)
C1 C 0.26830(17) 0.8889(2) 0.37683(17)
H2 H 0.2335 0.8587 0.2918
H3 H 0.2501 0.9880 0.3761
C2 C 0.40862(17) 0.8693(2) 0.44073(17)
H4 H 0.4442 0.9266 0.4006
H5 H 0.4277 0.7721 0.4336
C3 C 0.46827(16) 0.9084(2) 0.57429(17)
H6 H 0.4540 1.0089 0.5783
C4 C 0.40348(17) 0.83323(19) 0.63327(17)
C5 C 0.26549(16) 0.85232(19) 0.57082(16)
H7 H 0.2514 0.9533 0.5714
C6 C 0.20635(16) 0.7870(2) 0.63910(16)
H8 H 0.2478 0.8209 0.7234
H9 H 0.2172 0.6862 0.6411
C7 C 0.06905(17) 0.8213(2) 0.57899(15)
H10 H 0.0593 0.9205 0.5893
H11 H 0.0309 0.7698 0.6199
C8 C 0.00062(16) 0.7866(2) 0.44406(16)
H12 H 0.0007 0.6846 0.4350
C9 C 0.06484(16) 0.8516(2) 0.37786(16)
H13 H 0.0644 0.9529 0.3905
C10 C 0.20290(17) 0.80969(18) 0.43562(16)
C11 C -0.01188(17) 0.8289(2) 0.24020(16)
H14 H 0.0264 0.8815 0.1999
H15 H -0.0085 0.7305 0.2227
C12 C -0.14815(17) 0.8721(2) 0.18594(16)
H16 H -0.1528 0.9728 0.1934
H17 H -0.1926 0.8487 0.0989
C13 C -0.21133(17) 0.80099(19) 0.24943(15)
C14 C -0.13266(16) 0.83548(19) 0.38515(15)
H18 H -0.1289 0.9379 0.3906
C15 C -0.21176(16) 0.7901(2) 0.44075(15)
H19 H -0.1919 0.8445 0.5140
H20 H -0.1982 0.6917 0.4629
C16 C -0.34541(17) 0.81538(19) 0.34238(16)
H21 H -0.3813 0.8927 0.3673
C17 C -0.33890(16) 0.8571(2) 0.22634(16)
H22 H -0.3331 0.9595 0.2271
C18 C -0.22035(19) 0.6453(2) 0.22467(18)
H23 H -0.2630 0.6291 0.1373
H24 H -0.2669 0.6017 0.2601
H25 H -0.1369 0.6060 0.2610
C19 C 0.21893(19) 0.65490(19) 0.42384(18)
H26 H 0.1899 0.6320 0.3389
H27 H 0.1706 0.6035 0.4532
H28 H 0.3066 0.6305 0.4720
C20 C -0.45640(17) 0.8178(2) 0.10863(16)
H29 H -0.4515 0.7168 0.0975
C21 C -0.46126(19) 0.8876(3) -0.00158(18)
H30 H -0.5406 0.8672 -0.0732
H31 H -0.3935 0.8533 -0.0137
H32 H -0.4527 0.9870 0.0114
C22 C 0.68364(19) 0.9466(2) 0.74735(19)
C23 C 0.77307(18) 0.8245(2) 0.78361(18)
H33 H 0.7766 0.7773 0.8554
C24 C 0.67159(17) 0.7562(2) 0.66520(18)
H34 H 0.6991 0.7352 0.6054
H35 H 0.6309 0.6759 0.6789
C25 C 0.90241(18) 0.8462(2) 0.80364(17)
H36 H 0.8950 0.8911 0.7294
C26 C 0.9758(2) 0.9430(2) 0.90913(19)
H37 H 0.9288 1.0280 0.8974
H38 H 1.0553 0.9642 0.9134
H39 H 0.9904 0.8990 0.9846
C27 C 0.97010(18) 0.7105(2) 0.81957(19)
H40 H 0.9781 0.6631 0.8913
H41 H 1.0526 0.7283 0.8295
H42 H 0.9232 0.6529 0.7481
C28 C -0.67811(18) 0.7749(2) 0.02578(18)
H43 H -0.7451 0.7784 0.0462
H44 H -0.6593 0.6790 0.0178
H45 H -0.7039 0.8229 -0.0508
C29 C -0.5937(2) 0.9848(2) 0.1316(2)
H46 H -0.6157 1.0322 0.0555
H47 H -0.5201 1.0277 0.1974
H48 H -0.6627 0.9913 0.1490
loop_
_geom_bond_atom_site_label_1
_geom_bond_atom_site_label_2
_geom_bond_site_symmetry_1
_geom_bond_site_symmetry_2
N1 C3 1_555 1_555
N2 C20 1_555 1_555
O1 C4 1_555 1_555
O2 H1 1_555 1_555
O3 C22 1_555 1_555
C1 H2 1_555 1_555
H3 C1 1_555 1_555
C2 C1 1_555 1_555
H4 C2 1_555 1_555
H5 C2 1_555 1_555
C3 C2 1_555 1_555
H6 C3 1_555 1_555
C4 C3 1_555 1_555
C5 C4 1_555 1_555
H7 C5 1_555 1_555
C6 C5 1_555 1_555
H8 C6 1_555 1_555
H9 C6 1_555 1_555
C7 C6 1_555 1_555
H10 C7 1_555 1_555
H11 C7 1_555 1_555
C8 C7 1_555 1_555
H12 C8 1_555 1_555
C9 C8 1_555 1_555
H13 C9 1_555 1_555
C10 C1 1_555 1_555
C11 C9 1_555 1_555
H14 C11 1_555 1_555
H15 C11 1_555 1_555
C12 C11 1_555 1_555
H16 C12 1_555 1_555
H17 C12 1_555 1_555
C13 C12 1_555 1_555
C14 C8 1_555 1_555
H18 C14 1_555 1_555
C15 C14 1_555 1_555
H19 C15 1_555 1_555
H20 C15 1_555 1_555
C16 O2 1_555 1_555
H21 C16 1_555 1_555
C17 C13 1_555 1_555
H22 C17 1_555 1_555
C18 C13 1_555 1_555
H23 C18 1_555 1_555
H24 C18 1_555 1_555
H25 C18 1_555 1_555
C19 C10 1_555 1_555
H26 C19 1_555 1_555
H27 C19 1_555 1_555
H28 C19 1_555 1_555
C20 C17 1_555 1_555
H29 C20 1_555 1_555
C21 C20 1_555 1_555
H30 C21 1_555 1_555
H31 C21 1_555 1_555
H32 C21 1_555 1_555
C22 N1 1_555 1_555
C23 C22 1_555 1_555
H33 C23 1_555 1_555
C24 N1 1_555 1_555
H34 C24 1_555 1_555
H35 C24 1_555 1_555
C25 C23 1_555 1_555
H36 C25 1_555 1_555
C26 C25 1_555 1_555
H37 C26 1_555 1_555
H38 C26 1_555 1_555
H39 C26 1_555 1_555
C27 C25 1_555 1_555
H40 C27 1_555 1_555
H41 C27 1_555 1_555
H42 C27 1_555 1_555
C28 N2 1_555 1_555
H43 C28 1_555 1_555
H44 C28 1_555 1_555
H45 C28 1_555 1_555
C29 N2 1_555 1_555
H46 C29 1_555 1_555
H47 C29 1_555 1_555
H48 C29 1_555 1_555
C5 C10 1_555 1_555
C9 C10 1_555 1_555
C13 C14 1_555 1_555
C15 C16 1_555 1_555
C16 C17 1_555 1_555
C23 C24 1_555 1_555

#END
