
#######################################################################
#
#                 Cambridge Crystallographic Data Centre
#                                CCDC 
#
#######################################################################
#
# If this CIF has been generated from an entry in the Cambridge 
# Structural Database, then it will include bibliographic, chemical, 
# crystal, experimental, refinement or atomic coordinate data resulting 
# from the CCDC's data processing and validation procedures.
#
#######################################################################

data_TEWJUD
_chemical_name_common            
'(mu-2,7,12,17,22,27,32,37-octakis(pentafluorophenyl)-41,42,43,44,45,46,47,48-octaazanonacyclo[36.2.1.13,6.18,11.113,16.118,21.123,26.128,31.133,36]octatetraconta-1,3(48),4,6,8(47),9,11,13,15,17,19,21,23(44),24,26,28(43),29,31,33,35,37,39-docosaene-4,24,41,42,45,46-hexayl)-dimethyl-di-silicon 2-methylbutane solvate'
_chemical_formula_moiety         'C90 H20 F40 N8 Si2,3(C5 H12)'
_chemical_name_systematic        
'(\m-5,10,15,20,25,30,35,40-octakis(pentafluorophenyl)[38]octaphyrinato)-dimethyl-di-silicon 2-methylbutane solvate'
_symmetry_cell_setting           monoclinic
_symmetry_space_group_name_H-M   'P 21/c'
_symmetry_Int_Tables_number      14
_space_group_name_Hall           '-P 2ybc'
loop_
_symmetry_equiv_pos_site_id
_symmetry_equiv_pos_as_xyz
1 x,y,z
2 -x,1/2+y,1/2-z
3 -x,-y,-z
4 x,1/2-y,1/2+z
_cell_length_a                   14.547(2)
_cell_length_b                   17.817(3)
_cell_length_c                   38.114(6)
_cell_angle_alpha                90
_cell_angle_beta                 97.592(5)
_cell_angle_gamma                90
_cell_volume                     9791.94
_exptl_crystal_colour            violet
_exptl_crystal_description       Prism
_cell_formula_units_Z            4
loop_
_atom_site_label
_atom_site_type_symbol
_atom_site_fract_x
_atom_site_fract_y
_atom_site_fract_z
Si1 Si 0.17465(5) 0.64394(4) 0.18643(2)
Si2 Si 0.02789(4) 0.26549(4) 0.09229(2)
F1 F 0.07121(10) 0.44441(9) 0.00376(4)
F2 F 0.38777(10) 0.30485(9) 0.06041(4)
F3 F 0.27589(10) 0.36691(9) 0.10357(4)
F4 F 0.18095(11) 0.37849(10) -0.03886(4)
F5 F -0.49774(11) 0.42470(10) 0.04527(5)
F6 F -0.12222(11) 0.66324(10) 0.10952(4)
F7 F -0.54525(11) 0.41815(10) 0.11155(5)
F8 F 0.51954(10) 0.56954(10) 0.16598(4)
F9 F 0.28350(12) 0.22425(10) 0.22430(4)
F10 F 0.33784(10) 0.63516(10) 0.05841(4)
F11 F 0.66643(10) 0.54666(10) 0.13073(4)
F12 F 0.36784(12) 0.20103(10) 0.10953(4)
F13 F 0.34091(11) 0.30942(10) -0.01025(4)
F14 F 0.32266(12) 0.93280(9) 0.16426(4)
F15 F 0.64712(11) 0.56125(10) 0.05969(4)
F16 F 0.32262(11) 0.45810(10) 0.18573(4)
F17 F -0.40701(11) 0.77471(10) 0.12230(5)
F18 F -0.25002(11) 0.32573(10) 0.15408(4)
F19 F -0.29136(11) 0.71314(11) 0.08087(4)
F20 F -0.32650(11) 0.38148(10) 0.03313(4)
F21 F 0.22872(12) 0.85934(11) 0.27291(4)
F22 F -0.35502(12) 0.78768(12) 0.19313(5)
F23 F 0.12668(12) 0.45048(11) 0.27502(4)
N1 N -0.08434(14) 0.21882(12) 0.08797(5)
F24 F 0.48254(12) 0.60643(12) 0.02383(4)
F25 F -0.04206(14) -0.03993(10) 0.12573(4)
N2 N 0.06503(14) 0.58317(12) 0.19580(5)
F26 F -0.07784(14) 0.05558(10) 0.00959(4)
F27 F 0.39314(14) 1.05926(10) 0.19399(5)
F28 F -0.18252(12) 0.74491(13) 0.22152(4)
N3 N 0.24188(14) 0.52796(12) 0.09915(5)
F29 F 0.46223(14) 0.23635(12) 0.25057(5)
N4 N -0.03148(14) 0.36458(12) 0.07846(5)
F30 F -0.42093(12) 0.36977(10) 0.16612(4)
N5 N 0.10917(14) 0.73050(12) 0.18951(5)
F31 F -0.13643(16) -0.07937(11) -0.01527(5)
F32 F 0.27726(17) 0.44334(14) 0.32437(5)
N6 N 0.27519(14) 0.70370(12) 0.17275(5)
F33 F 0.29440(13) 0.98926(12) 0.30200(5)
N7 N 0.19586(15) 0.33545(12) 0.18209(6)
F34 F 0.54727(13) 0.20538(12) 0.13686(6)
F35 F 0.59581(13) 0.22462(13) 0.20780(7)
C1 C 0.21941(18) 0.22204(15) 0.14941(7)
C2 C -0.09865(18) 0.14297(15) 0.08212(6)
F36 F 0.47128(12) 0.44637(12) 0.23493(6)
C3 C 0.20533(18) 0.37759(16) -0.00366(6)
C4 C 0.01285(18) 0.74073(15) 0.18328(7)
C5 C -0.14844(18) 0.70171(15) 0.16632(7)
C6 C 0.42268(17) 0.60207(15) 0.11349(7)
F37 F 0.45066(15) 0.44133(13) 0.30437(6)
C7 C 0.14693(18) 0.80072(15) 0.19796(7)
C8 C -0.12311(17) 0.38193(15) 0.08221(6)
N8 N 0.08598(14) 0.17271(12) 0.11074(5)
F38 F 0.37761(14) 1.08989(10) 0.26286(5)
F39 F -0.15014(16) -0.19531(11) 0.03016(6)
F40 F -0.10263(17) -0.17423(11) 0.10059(5)
C9 C 0.11052(17) 0.54363(14) 0.12751(6)
H1 H 0.0488 0.5383 0.1328
C10 C -0.13744(17) 0.46005(15) 0.08024(7)
H2 H -0.1941 0.4857 0.0815
C11 C 0.17654(17) 0.58865(14) 0.14474(6)
C12 C 0.07605(18) 0.25103(15) 0.04971(7)
H3 H 0.0545 0.2028 0.0394
H4 H 0.1440 0.2511 0.0542
H5 H 0.0550 0.2916 0.0332
C13 C -0.04958(17) 0.68250(15) 0.17973(6)
C14 C 0.25720(17) 0.57795(15) 0.12477(6)
C15 C 0.08091(17) 0.31136(14) 0.13426(6)
C16 C 0.28612(18) 0.34265(15) 0.01065(7)
C17 C 0.50835(18) 0.58028(15) 0.13095(7)
C18 C -0.26491(19) 0.71829(16) 0.11565(7)
C19 C 0.57521(18) 0.57651(16) 0.07698(7)
C20 C 0.17137(17) 0.40944(14) 0.05496(6)
C21 C -0.23947(18) 0.19320(16) 0.08381(7)
H6 H -0.3041 0.1992 0.0844
C22 C 0.21930(18) 0.45409(15) 0.22872(7)
C23 C 0.06180(18) 0.10354(15) 0.09703(6)
C24 C -0.0824(2) -0.00071(16) 0.03271(7)
C25 C 0.34814(17) 0.67742(15) 0.15599(7)
C26 C 0.11088(17) 0.44872(14) 0.07760(6)
C27 C 0.30405(17) 0.76964(15) 0.18898(6)
C28 C 0.25295(17) 0.37354(15) 0.06872(6)
C29 C -0.03497(18) 0.48409(16) 0.19607(7)
H7 H -0.0574 0.4347 0.1989
C30 C -0.18903(17) 0.32698(15) 0.08759(6)
C31 C 0.31810(18) 0.21659(15) 0.16553(7)
C32 C -0.00698(18) 0.81827(16) 0.18647(7)
H8 H -0.0665 0.8409 0.1819
C33 C 0.40027(18) 0.78271(15) 0.18488(7)
H9 H 0.4378 0.8231 0.1947
C34 C 0.41695(17) 0.61081(16) 0.07703(7)
C35 C 0.12740(17) 0.39082(15) 0.17986(7)
C36 C 0.16852(17) 0.28838(15) 0.15613(7)
C37 C 0.05649(17) 0.37476(15) 0.14995(6)
H10 H 0.0026 0.4039 0.1428
C38 C 0.24264(18) 0.81674(15) 0.20268(7)
C39 C 0.31008(17) 0.34048(15) 0.04681(7)
C40 C 0.14016(18) 0.05292(16) 0.10391(7)
H11 H 0.1421 0.0020 0.0967
C41 C -0.43691(18) 0.39924(17) 0.07189(8)
C42 C -0.05382(17) 0.49177(15) 0.07619(6)
H12 H -0.0418 0.5438 0.0738
C43 C 0.27455(18) 0.89029(16) 0.21788(7)
C44 C -0.02799(18) 0.08853(15) 0.08179(7)
C45 C 0.34236(17) 0.61846(15) 0.13269(6)
C46 C -0.28421(17) 0.35181(15) 0.09331(7)
C47 C -0.46051(19) 0.39590(16) 0.10566(8)
C48 C 0.14950(17) 0.41029(15) 0.01844(7)
C49 C -0.31049(18) 0.34933(16) 0.12694(7)
C50 C -0.39764(19) 0.37172(16) 0.13333(7)
C51 C 0.24343(18) 0.62752(15) 0.23078(7)
H13 H 0.2581 0.6758 0.2425
H14 H 0.3011 0.6013 0.2278
H15 H 0.2071 0.5968 0.2453
C52 C 0.31575(19) 0.94419(16) 0.19851(7)
C53 C 0.15039(16) 0.50459(14) 0.09935(6)
C54 C 0.17626(17) 0.16710(15) 0.12786(7)
C55 C 0.07423(19) 0.85428(16) 0.19720(7)
H16 H 0.0812 0.9059 0.2031
C56 C -0.02587(17) 0.60733(15) 0.18699(6)
C57 C 0.13513(18) 0.45156(15) 0.20213(6)
C58 C -0.20946(19) 0.73375(18) 0.18697(7)
C59 C 0.58404(17) 0.56821(16) 0.11325(7)
C60 C 0.42636(18) 0.72752(16) 0.16469(7)
H17 H 0.4859 0.7220 0.1573
C61 C -0.29674(19) 0.75672(18) 0.17266(8)
C62 C 0.20983(19) 0.09174(15) 0.12254(7)
H18 H 0.2701 0.0731 0.1307
C63 C -0.32387(18) 0.74985(16) 0.13691(8)
C64 C -0.17184(17) 0.25092(15) 0.08824(6)
C65 C -0.17891(18) 0.69348(16) 0.13062(7)
C66 C 0.38894(19) 0.20922(16) 0.14454(8)
C67 C -0.05661(18) 0.01252(15) 0.06854(7)
C68 C 0.01144(17) 0.43291(14) 0.07615(6)
C69 C -0.34868(18) 0.37742(16) 0.06609(7)
C70 C -0.08780(18) 0.54682(16) 0.18752(7)
H19 H -0.1535 0.5490 0.1829
C71 C -0.0641(2) -0.04810(17) 0.09066(7)
C72 C 0.05912(17) 0.50655(15) 0.19996(6)
C73 C 0.30834(19) 0.45249(16) 0.21960(7)
C74 C 0.49132(19) 0.59813(17) 0.05882(7)
C75 C 0.3014(2) 0.97512(19) 0.26805(8)
C76 C 0.5060(2) 0.22183(19) 0.19401(10)
C77 C 0.2115(2) 0.45134(17) 0.26447(7)
C78 C 0.3462(2) 0.22418(16) 0.20166(8)
C79 C -0.19531(19) 0.12777(16) 0.07863(7)
H20 H -0.2239 0.0804 0.0736
C80 C -0.0954(2) -0.11740(17) 0.07812(8)
C81 C 0.3434(2) 1.02603(17) 0.24810(9)
C82 C 0.3511(2) 1.01060(17) 0.21345(8)
C83 C -0.1204(2) -0.12818(17) 0.04251(9)
C84 C 0.26785(19) 0.90817(18) 0.25281(7)
C85 C 0.2883(2) 0.44752(19) 0.28997(8)
C86 C 0.4813(2) 0.21154(18) 0.15829(10)
C87 C -0.1135(2) -0.06955(18) 0.01950(8)
C88 C 0.4382(2) 0.22808(18) 0.21562(9)
C89 C 0.3858(2) 0.44818(18) 0.24465(9)
C90 C 0.3752(2) 0.44568(19) 0.27998(9)
C91 C 0.0738(4) 0.6897(3) 0.05166(14)
H21 H 0.1019 0.6418 0.0463
H22 H 0.0127 0.6944 0.0376
H23 H 0.0671 0.6917 0.0769
C92 C 0.1467(4) 0.8169(3) 0.10238(12)
H24 H 0.1108 0.8635 0.1017
H25 H 0.2037 0.8226 0.1190
H26 H 0.1098 0.7755 0.1101
C93 C 0.1659(3) 0.7477(4) 0.00811(12)
H27 H 0.2129 0.7867 0.0068
H28 H 0.1138 0.7561 -0.0105
H29 H 0.1932 0.6983 0.0049
C94 C 0.1325(4) 0.7507(3) 0.04313(14)
H30 H 0.0789 0.7840 0.0345
C95 C 0.1702(7) 0.8009(5) 0.06756(16)
H31 H 0.1655 0.8498 0.0551
H32 H 0.2371 0.7885 0.0714
C96 C 0.1028(9) 0.0854(7) 0.2141(4)
H33 H 0.1261 0.1329 0.2248
H34 H 0.1456 0.0669 0.1983
H35 H 0.0982 0.0484 0.2328
C97 C 0.0105(7) 0.0973(6) 0.1938(3)
H36 H -0.0201 0.0478 0.1902
H37 H 0.0196 0.1168 0.1702
C98 C -0.0566(5) 0.1504(4) 0.20958(19)
H38 H -0.0772 0.1282 0.2313
C99 C -0.1296(14) 0.1358(16) 0.1765(7)
H39 H -0.1321 0.1792 0.1606
H40 H -0.1907 0.1280 0.1841
H41 H -0.1120 0.0910 0.1640
C100 C -0.0282(10) 0.2271(8) 0.2155(4)
H42 H -0.0305 0.2530 0.1927
H43 H 0.0352 0.2285 0.2279
H44 H -0.0701 0.2520 0.2299
C106 C 0.5537(6) 0.1985(6) 0.0097(3)
H57 H 0.5116 0.2028 0.0277
H58 H 0.5990 0.1586 0.0165
H59 H 0.5862 0.2462 0.0078
C107 C 0.3708(8) 0.1245(6) 0.0202(3)
H60 H 0.4120 0.1317 0.0424
H61 H 0.3355 0.0779 0.0215
H62 H 0.3278 0.1669 0.0163
C108 C 0.4978(11) 0.1793(9) -0.0261(5)
H63 H 0.4590 0.2244 -0.0334
C109 C 0.4302(12) 0.1194(8) -0.0114(5)
H64 H 0.3849 0.1064 -0.0322
H65 H 0.4691 0.0742 -0.0063
C110 C 0.5724(14) 0.1737(12) -0.0528(6)
H66 H 0.5413 0.1614 -0.0765
H67 H 0.6046 0.2219 -0.0536
H68 H 0.6175 0.1343 -0.0449
C101? C 0.0769(8) 0.0632(7) 0.2048(3)
H45? H 0.0315 0.0400 0.1868
H46? H 0.0832 0.0327 0.2264
H47? H 0.1370 0.0665 0.1960
C102? C 0.0452(7) 0.1396(6) 0.2129(4)
H48? H 0.0335 0.1387 0.2379
H49? H 0.0988 0.1734 0.2119
C103? C -0.0274(8) 0.1734(7) 0.1948(3)
H50? H -0.0051 0.1922 0.1727
C104? C -0.1308(16) 0.1488(16) 0.1834(7)
H51? H -0.1361 0.0943 0.1860
H52? H -0.1498 0.1627 0.1586
H53? H -0.1710 0.1740 0.1984
C105? C -0.0566(11) 0.2494(9) 0.2158(5)
H54? H -0.1106 0.2384 0.2278
H55? H -0.0718 0.2901 0.1988
H56? H -0.0045 0.2647 0.2334
C111? C 0.3354(11) 0.0639(9) -0.0844(4)
H69? H 0.3081 0.1013 -0.1020
H70? H 0.2932 0.0203 -0.0843
C112? C 0.3565(12) 0.0947(11) -0.0513(5)
H71? H 0.3399 0.0592 -0.0335
H72? H 0.3217 0.1414 -0.0499
H73? H 0.4232 0.1053 -0.0468
C113? C 0.4359(12) 0.0398(10) -0.0908(6)
H74? H 0.4328 0.0621 -0.1150
C114? C 0.4801(17) -0.0387(11) -0.1004(7)
H75? H 0.5461 -0.0318 -0.1023
H76? H 0.4733 -0.0753 -0.0817
H77? H 0.4480 -0.0572 -0.1230
C115? C 0.5393(14) 0.0707(13) -0.0763(7)
H78? H 0.5856 0.0406 -0.0865
H79? H 0.5445 0.1233 -0.0833
H80? H 0.5499 0.0668 -0.0504
loop_
_geom_bond_atom_site_label_1
_geom_bond_atom_site_label_2
_geom_bond_site_symmetry_1
_geom_bond_site_symmetry_2
Si1 N2 1_555 1_555
Si2 N1 1_555 1_555
F1 C48 1_555 1_555
F2 C39 1_555 1_555
F3 C28 1_555 1_555
F4 C3 1_555 1_555
F5 C41 1_555 1_555
F6 C65 1_555 1_555
F7 C47 1_555 1_555
F8 C17 1_555 1_555
F9 C78 1_555 1_555
F10 C34 1_555 1_555
F11 C59 1_555 1_555
F12 C66 1_555 1_555
F13 C16 1_555 1_555
F14 C52 1_555 1_555
F15 C19 1_555 1_555
F16 C73 1_555 1_555
F17 C63 1_555 1_555
F18 C49 1_555 1_555
F19 C18 1_555 1_555
F20 C69 1_555 1_555
F21 C84 1_555 1_555
F22 C61 1_555 1_555
F23 C77 1_555 1_555
N1 C2 1_555 1_555
F24 C74 1_555 1_555
F25 C71 1_555 1_555
N2 C56 1_555 1_555
F26 C24 1_555 1_555
F27 C82 1_555 1_555
F28 C58 1_555 1_555
N3 C14 1_555 1_555
F29 C88 1_555 1_555
N4 Si2 1_555 1_555
F30 C50 1_555 1_555
N5 Si1 1_555 1_555
F31 C87 1_555 1_555
F32 C85 1_555 1_555
N6 Si1 1_555 1_555
F33 C75 1_555 1_555
N7 C35 1_555 1_555
F34 C86 1_555 1_555
F35 C76 1_555 1_555
C1 C31 1_555 1_555
C2 C44 1_555 1_555
F36 C89 1_555 1_555
C3 C16 1_555 1_555
C4 N5 1_555 1_555
C5 C13 1_555 1_555
C6 C17 1_555 1_555
F37 C90 1_555 1_555
C7 N5 1_555 1_555
C8 N4 1_555 1_555
N8 Si2 1_555 1_555
F38 C81 1_555 1_555
F39 C83 1_555 1_555
F40 C80 1_555 1_555
C9 H1 1_555 1_555
C10 C8 1_555 1_555
H2 C10 1_555 1_555
C11 Si1 1_555 1_555
C12 Si2 1_555 1_555
H3 C12 1_555 1_555
H4 C12 1_555 1_555
H5 C12 1_555 1_555
C13 C4 1_555 1_555
C14 C11 1_555 1_555
C15 Si2 1_555 1_555
C16 C39 1_555 1_555
C17 C59 1_555 1_555
C18 C63 1_555 1_555
C19 C59 1_555 1_555
C20 C26 1_555 1_555
C21 H6 1_555 1_555
C22 C57 1_555 1_555
C23 N8 1_555 1_555
C24 C67 1_555 1_555
C25 N6 1_555 1_555
C26 C53 1_555 1_555
C27 N6 1_555 1_555
C28 C20 1_555 1_555
C29 H7 1_555 1_555
C30 C8 1_555 1_555
C31 C66 1_555 1_555
C32 C4 1_555 1_555
H8 C32 1_555 1_555
C33 C27 1_555 1_555
H9 C33 1_555 1_555
C34 C6 1_555 1_555
C35 C37 1_555 1_555
C36 N7 1_555 1_555
C37 C15 1_555 1_555
H10 C37 1_555 1_555
C38 C7 1_555 1_555
C39 C28 1_555 1_555
C40 C23 1_555 1_555
H11 C40 1_555 1_555
C41 C47 1_555 1_555
C42 C10 1_555 1_555
H12 C42 1_555 1_555
C43 C38 1_555 1_555
C44 C23 1_555 1_555
C45 C6 1_555 1_555
C46 C30 1_555 1_555
C47 C50 1_555 1_555
C48 C3 1_555 1_555
C49 C46 1_555 1_555
C50 C49 1_555 1_555
C51 Si1 1_555 1_555
H13 C51 1_555 1_555
H14 C51 1_555 1_555
H15 C51 1_555 1_555
C52 C43 1_555 1_555
C53 N3 1_555 1_555
C54 C1 1_555 1_555
C55 C7 1_555 1_555
H16 C55 1_555 1_555
C56 C13 1_555 1_555
C57 C35 1_555 1_555
C58 C5 1_555 1_555
C60 C25 1_555 1_555
H17 C60 1_555 1_555
C61 C58 1_555 1_555
C62 C40 1_555 1_555
H18 C62 1_555 1_555
C63 C61 1_555 1_555
C64 N1 1_555 1_555
C65 C5 1_555 1_555
C66 C86 1_555 1_555
C67 C44 1_555 1_555
C68 N4 1_555 1_555
C69 C41 1_555 1_555
C70 C29 1_555 1_555
H19 C70 1_555 1_555
C71 C67 1_555 1_555
C72 N2 1_555 1_555
C73 C22 1_555 1_555
C74 C19 1_555 1_555
C75 C81 1_555 1_555
C76 C86 1_555 1_555
C77 C22 1_555 1_555
C78 C31 1_555 1_555
C79 C2 1_555 1_555
H20 C79 1_555 1_555
C80 C71 1_555 1_555
C81 C82 1_555 1_555
C82 C52 1_555 1_555
C83 C80 1_555 1_555
C84 C43 1_555 1_555
C85 C77 1_555 1_555
C87 C24 1_555 1_555
C88 C76 1_555 1_555
C89 C73 1_555 1_555
C90 C85 1_555 1_555
C91 H21 1_555 1_555
H22 C91 1_555 1_555
H23 C91 1_555 1_555
C92 H24 1_555 1_555
H25 C92 1_555 1_555
H26 C92 1_555 1_555
C93 H27 1_555 1_555
H28 C93 1_555 1_555
H29 C93 1_555 1_555
C94 C91 1_555 1_555
H30 C94 1_555 1_555
C95 C92 1_555 1_555
H31 C95 1_555 1_555
H32 C95 1_555 1_555
C96 H33 1_555 1_555
H34 C96 1_555 1_555
H35 C96 1_555 1_555
C97 C96 1_555 1_555
H36 C97 1_555 1_555
H37 C97 1_555 1_555
C98 C97 1_555 1_555
H38 C98 1_555 1_555
C99 C98 1_555 1_555
H39 C99 1_555 1_555
H40 C99 1_555 1_555
H41 C99 1_555 1_555
C100 C98 1_555 1_555
H42 C100 1_555 1_555
H43 C100 1_555 1_555
H44 C100 1_555 1_555
C106 H57 1_555 1_555
H58 C106 1_555 1_555
H59 C106 1_555 1_555
C107 H60 1_555 1_555
H61 C107 1_555 1_555
H62 C107 1_555 1_555
C108 C106 1_555 1_555
H63 C108 1_555 1_555
C109 C107 1_555 1_555
H64 C109 1_555 1_555
H65 C109 1_555 1_555
C110 C108 1_555 1_555
H66 C110 1_555 1_555
H67 C110 1_555 1_555
H68 C110 1_555 1_555
C1 C36 1_555 1_555
N8 C54 1_555 1_555
C9 C11 1_555 1_555
C9 C53 1_555 1_555
C14 C45 1_555 1_555
C15 C36 1_555 1_555
C18 C65 1_555 1_555
C20 C48 1_555 1_555
C21 C64 1_555 1_555
C21 C79 1_555 1_555
C25 C45 1_555 1_555
C26 C68 1_555 1_555
C27 C38 1_555 1_555
C29 C72 1_555 1_555
C30 C64 1_555 1_555
C32 C55 1_555 1_555
C33 C60 1_555 1_555
C34 C74 1_555 1_555
C42 C68 1_555 1_555
C46 C69 1_555 1_555
C54 C62 1_555 1_555
C56 C70 1_555 1_555
C57 C72 1_555 1_555
C75 C84 1_555 1_555
C78 C88 1_555 1_555
C83 C87 1_555 1_555
C89 C90 1_555 1_555
C93 C94 1_555 1_555
C94 C95 1_555 1_555
C108 C109 1_555 1_555

#END
