
#######################################################################
#
#                 Cambridge Crystallographic Data Centre
#                                CCDC 
#
#######################################################################
#
# If this CIF has been generated from an entry in the Cambridge 
# Structural Database, then it will include bibliographic, chemical, 
# crystal, experimental, refinement or atomic coordinate data resulting 
# from the CCDC's data processing and validation procedures.
#
#######################################################################

data_TEWKIQ
_chemical_formula_moiety         'C18 H26 N4 O4 S2'
_chemical_name_systematic        
"4,4'-Diamino-N,N'-diethyl bis(benzenesulfamide)"
_symmetry_cell_setting           monoclinic
_symmetry_space_group_name_H-M   'P 21/c'
_symmetry_Int_Tables_number      14
_space_group_name_Hall           '-P 2ybc'
loop_
_symmetry_equiv_pos_site_id
_symmetry_equiv_pos_as_xyz
1 x,y,z
2 -x,1/2+y,1/2-z
3 -x,-y,-z
4 x,1/2-y,1/2+z
_cell_length_a                   10.0623(9)
_cell_length_b                   13.6759(13)
_cell_length_c                   15.5309(14)
_cell_angle_alpha                90
_cell_angle_beta                 100.482(2)
_cell_angle_gamma                90
_cell_volume                     2101.56
_exptl_crystal_colour            colorless
_exptl_crystal_description       prismatic
_chemical_melting_point          176-178deg.C
_cell_formula_units_Z            4
loop_
_atom_site_label
_atom_site_type_symbol
_atom_site_fract_x
_atom_site_fract_y
_atom_site_fract_z
S1 S 0.08064(5) 0.70100(4) 0.07323(3)
S2 S 0.44420(5) 0.93158(4) 0.22386(3)
O1 O -0.01410(16) 0.65278(13) 0.00713(10)
O2 O 0.07343(16) 0.80513(10) 0.08067(10)
O3 O 0.32085(16) 0.89206(10) 0.24224(10)
O4 O 0.55571(18) 0.94688(12) 0.29381(10)
N1 N 0.23032(17) 0.67595(12) 0.05228(11)
N2 N 0.49578(18) 0.85612(12) 0.15644(12)
N3 N 0.0777(3) 0.5205(3) 0.41805(17)
N4 N 0.3165(3) 1.31646(16) 0.05880(16)
C1 C 0.3450(2) 0.71750(14) 0.11483(13)
H1 H 0.4201 0.6719 0.1216
H2 H 0.3184 0.7245 0.1715
C2 C 0.3921(2) 0.81552(15) 0.08718(14)
H3 H 0.4288 0.8080 0.0340
H4 H 0.3160 0.8601 0.0751
C3 C 0.2508(3) 0.57239(16) 0.02709(15)
H5 H 0.2979 0.5369 0.0776
H6 H 0.1637 0.5414 0.0080
C4 C 0.3290(5) 0.5678(2) -0.0432(2)
H7 H 0.2838 0.6046 -0.0926
H8 H 0.3375 0.5009 -0.0602
H9 H 0.4173 0.5949 -0.0232
C5 C 0.6344(3) 0.8663(2) 0.1392(2)
H10 H 0.6304 0.8824 0.0779
H11 H 0.6791 0.9198 0.1740
C6 C 0.7139(3) 0.7768(3) 0.1598(2)
H12 H 0.7237 0.7632 0.2213
H13 H 0.8016 0.7855 0.1448
H14 H 0.6685 0.7232 0.1270
C7 C 0.0710(2) 0.64972(15) 0.17499(13)
C8 C 0.1059(2) 0.70417(16) 0.25096(15)
H15 H 0.1284 0.7698 0.2478
C9 C 0.1071(2) 0.66105(19) 0.33097(15)
H16 H 0.1296 0.6982 0.3817
C10 C 0.0753(2) 0.56293(18) 0.33736(15)
C11 C 0.0399(3) 0.50959(18) 0.26128(17)
H17 H 0.0173 0.4439 0.2645
C12 C 0.0375(2) 0.55195(17) 0.18078(16)
H18 H 0.0134 0.5149 0.1301
C13 C 0.4069(2) 1.04365(14) 0.17203(12)
C14 C 0.5079(2) 1.11334(15) 0.17374(13)
H19 H 0.5962 1.0991 0.2004
C15 C 0.4772(2) 1.20299(15) 0.13606(14)
H20 H 0.5452 1.2493 0.1370
C16 C 0.3449(2) 1.22573(15) 0.09620(13)
C17 C 0.2461(2) 1.15427(16) 0.09275(14)
H21 H 0.1584 1.1674 0.0643
C18 C 0.2761(2) 1.06467(15) 0.13062(14)
H22 H 0.2085 1.0178 0.1286
H23 H 0.363(3) 1.3615(19) 0.0906(19)
H24 H 0.059(3) 0.4582(14) 0.414(2)
H25 H 0.2309(19) 1.331(2) 0.0446(19)
H26 H 0.095(5) 0.558(3) 0.461(2)
loop_
_geom_bond_atom_site_label_1
_geom_bond_atom_site_label_2
_geom_bond_site_symmetry_1
_geom_bond_site_symmetry_2
S1 O1 1_555 1_555
S2 O3 1_555 1_555
O2 S1 1_555 1_555
O4 S2 1_555 1_555
N1 S1 1_555 1_555
N2 S2 1_555 1_555
N3 C10 1_555 1_555
N4 C16 1_555 1_555
C1 N1 1_555 1_555
H1 C1 1_555 1_555
H2 C1 1_555 1_555
C2 N2 1_555 1_555
H3 C2 1_555 1_555
H4 C2 1_555 1_555
C3 N1 1_555 1_555
H5 C3 1_555 1_555
H6 C3 1_555 1_555
C4 C3 1_555 1_555
H7 C4 1_555 1_555
H8 C4 1_555 1_555
H9 C4 1_555 1_555
C5 N2 1_555 1_555
H10 C5 1_555 1_555
H11 C5 1_555 1_555
C6 C5 1_555 1_555
H12 C6 1_555 1_555
H13 C6 1_555 1_555
H14 C6 1_555 1_555
C7 S1 1_555 1_555
C8 C7 1_555 1_555
H15 C8 1_555 1_555
C9 C8 1_555 1_555
H16 C9 1_555 1_555
C10 C9 1_555 1_555
C11 C10 1_555 1_555
H17 C11 1_555 1_555
C12 C7 1_555 1_555
H18 C12 1_555 1_555
C13 S2 1_555 1_555
C14 C13 1_555 1_555
H19 C14 1_555 1_555
C15 C14 1_555 1_555
H20 C15 1_555 1_555
C16 C15 1_555 1_555
C17 C16 1_555 1_555
H21 C17 1_555 1_555
C18 C13 1_555 1_555
H22 C18 1_555 1_555
H23 N4 1_555 1_555
H24 N3 1_555 1_555
H25 N4 1_555 1_555
H26 N3 1_555 1_555
C1 C2 1_555 1_555
C11 C12 1_555 1_555
C17 C18 1_555 1_555

#END
