
#######################################################################
#
#                 Cambridge Crystallographic Data Centre
#                                CCDC 
#
#######################################################################
#
# If this CIF has been generated from an entry in the Cambridge 
# Structural Database, then it will include bibliographic, chemical, 
# crystal, experimental, refinement or atomic coordinate data resulting 
# from the CCDC's data processing and validation procedures.
#
#######################################################################

data_TEWSOG
_chemical_formula_moiety         'C21 H17 N3 O2 P2,C7 H8'
_chemical_name_systematic        
'2-methyl-1,3-diphenyl-2,3-dihydro-1H-[1,2,4,3,5]triazadiphospholo[1,2-b]phthalazine-5,10-dione toluene solvate'
_symmetry_cell_setting           monoclinic
_symmetry_space_group_name_H-M   'P 21/c'
_symmetry_Int_Tables_number      14
_space_group_name_Hall           '-P 2ybc'
loop_
_symmetry_equiv_pos_site_id
_symmetry_equiv_pos_as_xyz
1 x,y,z
2 -x,1/2+y,1/2-z
3 -x,-y,-z
4 x,1/2-y,1/2+z
_cell_length_a                   10.9682(3)
_cell_length_b                   26.2652(7)
_cell_length_c                   9.4692(2)
_cell_angle_alpha                90
_cell_angle_beta                 115.1501(7)
_cell_angle_gamma                90
_cell_volume                     2469.29
_exptl_crystal_colour            colorless
_exptl_crystal_description       prism
_cell_formula_units_Z            4
loop_
_atom_site_label
_atom_site_type_symbol
_atom_site_fract_x
_atom_site_fract_y
_atom_site_fract_z
C1 C 0.73576(15) 0.84704(6) -0.11122(17)
C2 C 0.63831(15) 0.81102(6) -0.09854(17)
C3 C 0.50114(15) 0.81793(6) -0.19291(19)
H1 H 0.4718 0.8454 -0.2650
C4 C 0.40872(16) 0.78476(7) -0.1810(2)
H2 H 0.3154 0.7895 -0.2446
C5 C 0.45125(17) 0.74448(8) -0.0765(2)
H3 H 0.3868 0.7217 -0.0695
C6 C 0.58673(17) 0.73721(7) 0.0175(2)
H4 H 0.6153 0.7095 0.0887
C7 C 0.68090(15) 0.77073(6) 0.00735(17)
C8 C 0.82504(15) 0.76415(6) 0.11253(18)
C9 C 1.10881(14) 0.83466(6) 0.37267(16)
C10 C 1.20948(16) 0.87150(6) 0.42628(18)
H5 H 1.2632 0.8777 0.3715
C11 C 1.23140(19) 0.89922(6) 0.5601(2)
H6 H 1.2991 0.9248 0.5957
C12 C 1.1550(2) 0.88965(7) 0.6411(2)
H7 H 1.1703 0.9087 0.7325
C13 C 1.0566(2) 0.85269(7) 0.5907(2)
H8 H 1.0043 0.8463 0.6471
C14 C 1.03396(16) 0.82478(6) 0.45729(18)
H9 H 0.9672 0.7989 0.4236
C15 C 1.20709(17) 0.81559(7) 0.0164(2)
H10 H 1.2827 0.7970 0.0956
H11 H 1.2415 0.8443 -0.0222
H12 H 1.1559 0.7927 -0.0704
C16 C 1.00456(14) 0.92721(5) 0.10977(17)
C17 C 1.10965(16) 0.96163(6) 0.14104(19)
H13 H 1.1702 0.9569 0.0943
C18 C 1.12646(19) 1.00252(6) 0.2395(2)
H14 H 1.1989 1.0256 0.2614
C19 C 1.0377(2) 1.00963(7) 0.3056(2)
H15 H 1.0498 1.0375 0.3743
C20 C 0.9312(2) 0.97657(7) 0.2728(2)
H16 H 0.8696 0.9821 0.3177
C21 C 0.91401(17) 0.93534(6) 0.17440(19)
H17 H 0.8404 0.9127 0.1514
N1 N 0.86683(12) 0.83943(4) -0.01134(14)
N2 N 0.91026(12) 0.79915(5) 0.09856(14)
N3 N 1.11813(12) 0.83492(5) 0.08598(14)
O1 O 0.70555(12) 0.88293(4) -0.20274(14)
O2 O 0.86855(11) 0.73036(5) 0.21147(14)
P1 P 1.08640(4) 0.79465(2) 0.20590(4)
P2 P 0.99452(4) 0.87643(2) -0.02562(4)
C29 C 0.6058(4) 0.91621(13) 0.3030(4)
C30 C 0.5352(4) 0.89792(14) 0.1521(5)
H26 H 0.5544 0.8650 0.1252
C31 C 0.4366(4) 0.9278(2) 0.0405(4)
H27 H 0.3884 0.9153 -0.0627
C32 C 0.4086(5) 0.9760(2) 0.0798(5)
H28 H 0.3412 0.9964 0.0035
C33 C 0.4792(5) 0.99430(15) 0.2307(6)
H29 H 0.4600 1.0272 0.2575
C34 C 0.5778(4) 0.96440(14) 0.3423(4)
H30 H 0.6260 0.9769 0.4455
C35 C 0.7115(5) 0.8852(2) 0.4189(6)
H31 H 0.7509 0.9035 0.5184
H32 H 0.6730 0.8530 0.4329
H33 H 0.7817 0.8783 0.3832
C22? C 0.5780(5) 0.90255(13) 0.2691(5)
C23? C 0.4947(5) 0.91941(17) 0.1198(4)
H18? H 0.4802 0.8986 0.0320
C24? C 0.4326(6) 0.9667(2) 0.0989(6)
H19? H 0.3756 0.9782 -0.0031
C25? C 0.4537(7) 0.99714(17) 0.2274(8)
H20? H 0.4113 1.0295 0.2131
C26? C 0.5370(6) 0.98028(18) 0.3767(7)
H21? H 0.5515 1.0011 0.4645
C27? C 0.5992(4) 0.93299(19) 0.3976(4)
H22? H 0.6561 0.9215 0.4996
C28? C 0.6482(6) 0.8532(2) 0.2932(8)
H23? H 0.7020 0.8476 0.4051
H24? H 0.5818 0.8258 0.2510
H25? H 0.7074 0.8534 0.2396
loop_
_geom_bond_atom_site_label_1
_geom_bond_atom_site_label_2
_geom_bond_site_symmetry_1
_geom_bond_site_symmetry_2
C1 C2 1_555 1_555
C2 C3 1_555 1_555
C3 H1 1_555 1_555
C4 C3 1_555 1_555
H2 C4 1_555 1_555
C5 C4 1_555 1_555
H3 C5 1_555 1_555
C6 C5 1_555 1_555
H4 C6 1_555 1_555
C7 C2 1_555 1_555
C8 C7 1_555 1_555
C9 C10 1_555 1_555
C10 H5 1_555 1_555
C11 C10 1_555 1_555
H6 C11 1_555 1_555
C12 C11 1_555 1_555
H7 C12 1_555 1_555
C13 C12 1_555 1_555
H8 C13 1_555 1_555
C14 C9 1_555 1_555
H9 C14 1_555 1_555
C15 H10 1_555 1_555
H11 C15 1_555 1_555
H12 C15 1_555 1_555
C16 C17 1_555 1_555
C17 H13 1_555 1_555
C18 C17 1_555 1_555
H14 C18 1_555 1_555
C19 C18 1_555 1_555
H15 C19 1_555 1_555
C20 C19 1_555 1_555
H16 C20 1_555 1_555
C21 C16 1_555 1_555
H17 C21 1_555 1_555
N1 C1 1_555 1_555
N2 C8 1_555 1_555
N3 C15 1_555 1_555
O1 C1 1_555 1_555
O2 C8 1_555 1_555
P1 C9 1_555 1_555
P2 C16 1_555 1_555
C29 C30 1_555 1_555
C30 H26 1_555 1_555
C31 C30 1_555 1_555
H27 C31 1_555 1_555
C32 C31 1_555 1_555
H28 C32 1_555 1_555
C33 C32 1_555 1_555
H29 C33 1_555 1_555
C34 C29 1_555 1_555
H30 C34 1_555 1_555
C35 C29 1_555 1_555
H31 C35 1_555 1_555
H32 C35 1_555 1_555
H33 C35 1_555 1_555
C6 C7 1_555 1_555
C13 C14 1_555 1_555
C20 C21 1_555 1_555
N1 N2 1_555 1_555
N1 P2 1_555 1_555
N2 P1 1_555 1_555
N3 P1 1_555 1_555
N3 P2 1_555 1_555
C33 C34 1_555 1_555

#END
