
#######################################################################
#
#                 Cambridge Crystallographic Data Centre
#                                CCDC 
#
#######################################################################
#
# If this CIF has been generated from an entry in the Cambridge 
# Structural Database, then it will include bibliographic, chemical, 
# crystal, experimental, refinement or atomic coordinate data resulting 
# from the CCDC's data processing and validation procedures.
#
#######################################################################

data_TEWSEW
_chemical_formula_moiety         'C17 H23 N3 P2'
_chemical_name_systematic        
1,2-diethyl-4-methyl-3,5-diphenyl-1,2,4,3,5-triazadiphospholidine
_symmetry_cell_setting           orthorhombic
_symmetry_space_group_name_H-M   'P 21 21 21'
_symmetry_Int_Tables_number      19
_space_group_name_Hall           'P 2ac 2ab'
loop_
_symmetry_equiv_pos_site_id
_symmetry_equiv_pos_as_xyz
1 x,y,z
2 1/2+x,1/2-y,-z
3 -x,1/2+y,1/2-z
4 1/2-x,-y,1/2+z
_cell_length_a                   7.8803(4)
_cell_length_b                   13.0541(7)
_cell_length_c                   17.3852(9)
_cell_angle_alpha                90
_cell_angle_beta                 90
_cell_angle_gamma                90
_cell_volume                     1788.42
_exptl_crystal_colour            colorless
_exptl_crystal_description       plate
_cell_formula_units_Z            4
loop_
_atom_site_label
_atom_site_type_symbol
_atom_site_fract_x
_atom_site_fract_y
_atom_site_fract_z
C1 C 0.3728(3) 0.47408(14) 0.89843(12)
C2 C 0.3991(3) 0.48789(16) 0.97710(12)
H1 H 0.3073 0.4786 1.0119
C3 C 0.5575(3) 0.51495(16) 1.00510(12)
H2 H 0.5742 0.5233 1.0589
C4 C 0.6912(3) 0.52982(16) 0.95491(12)
H3 H 0.8002 0.5476 0.9741
C5 C 0.6659(3) 0.51861(18) 0.87636(13)
H4 H 0.7571 0.5297 0.8416
C6 C 0.5071(3) 0.49122(17) 0.84854(13)
H5 H 0.4903 0.4841 0.7947
C7 C 0.1374(3) 0.55493(17) 0.73309(13)
H6 H 0.2253 0.6038 0.7487
H7 H 0.0258 0.5810 0.7485
H8 H 0.1405 0.5462 0.6771
C8 C 0.0232(3) 0.31421(15) 0.67442(11)
C9 C -0.1351(3) 0.35148(16) 0.69667(11)
H9 H -0.1431 0.3984 0.7383
C10 C -0.2813(3) 0.32059(17) 0.65860(13)
H10 H -0.3886 0.3464 0.6742
C11 C -0.2709(3) 0.25218(17) 0.59792(12)
H11 H -0.3711 0.2302 0.5725
C12 C -0.1147(3) 0.21604(17) 0.57450(13)
H12 H -0.1075 0.1692 0.5328
C13 C 0.0314(3) 0.24785(16) 0.61163(12)
H13 H 0.1387 0.2242 0.5941
C14 C 0.4074(3) 0.22228(17) 0.81387(13)
H14 H 0.4742 0.2643 0.8504
H15 H 0.4736 0.2159 0.7657
C15 C 0.3792(3) 0.11678(17) 0.84792(14)
H16 H 0.3130 0.1229 0.8954
H17 H 0.4891 0.0851 0.8594
H18 H 0.3173 0.0741 0.8110
C16 C 0.0018(3) 0.25629(17) 0.88248(12)
H19 H 0.0194 0.1818 0.8751
H20 H -0.0867 0.2790 0.8458
C17 C -0.0581(3) 0.27582(19) 0.96352(14)
H21 H 0.0321 0.2576 0.9998
H22 H -0.1589 0.2341 0.9740
H23 H -0.0865 0.3485 0.9694
N1 N 0.1679(2) 0.45657(13) 0.77022(10)
N2 N 0.2456(2) 0.27376(12) 0.79753(9)
N3 N 0.1614(2) 0.31102(12) 0.86604(9)
P1 P 0.15575(6) 0.44258(4) 0.86767(3)
P2 P 0.22702(6) 0.35079(4) 0.71854(3)
loop_
_geom_bond_atom_site_label_1
_geom_bond_atom_site_label_2
_geom_bond_site_symmetry_1
_geom_bond_site_symmetry_2
C1 C2 1_555 1_555
C2 H1 1_555 1_555
C3 C2 1_555 1_555
H2 C3 1_555 1_555
C4 C3 1_555 1_555
H3 C4 1_555 1_555
C5 C4 1_555 1_555
H4 C5 1_555 1_555
C6 C1 1_555 1_555
H5 C6 1_555 1_555
C7 H6 1_555 1_555
H7 C7 1_555 1_555
H8 C7 1_555 1_555
C8 C9 1_555 1_555
C9 H9 1_555 1_555
C10 C9 1_555 1_555
H10 C10 1_555 1_555
C11 C10 1_555 1_555
H11 C11 1_555 1_555
C12 C11 1_555 1_555
H12 C12 1_555 1_555
C13 C8 1_555 1_555
H13 C13 1_555 1_555
C14 H14 1_555 1_555
H15 C14 1_555 1_555
C15 C14 1_555 1_555
H16 C15 1_555 1_555
H17 C15 1_555 1_555
H18 C15 1_555 1_555
C16 H19 1_555 1_555
H20 C16 1_555 1_555
C17 C16 1_555 1_555
H21 C17 1_555 1_555
H22 C17 1_555 1_555
H23 C17 1_555 1_555
N1 C7 1_555 1_555
N2 C14 1_555 1_555
N3 C16 1_555 1_555
P1 C1 1_555 1_555
P2 C8 1_555 1_555
C5 C6 1_555 1_555
C12 C13 1_555 1_555
N1 P1 1_555 1_555
N1 P2 1_555 1_555
N2 N3 1_555 1_555
N2 P2 1_555 1_555
N3 P1 1_555 1_555

#END
