
#######################################################################
#
#                 Cambridge Crystallographic Data Centre
#                                CCDC 
#
#######################################################################
#
# If this CIF has been generated from an entry in the Cambridge 
# Structural Database, then it will include bibliographic, chemical, 
# crystal, experimental, refinement or atomic coordinate data resulting 
# from the CCDC's data processing and validation procedures.
#
#######################################################################

data_TEWTEX
_chemical_formula_moiety         '2(C8 H20 N1 1+),2(H3 B1 O3),C1 O3 2-,5(H2 O1)'
_chemical_name_systematic        
'bis(tetraethylammonium) carbonate bis(boric acid) pentahydrate'
_symmetry_cell_setting           monoclinic
_symmetry_space_group_name_H-M   'P 21/c'
_symmetry_Int_Tables_number      14
_space_group_name_Hall           '-P 2ybc'
loop_
_symmetry_equiv_pos_site_id
_symmetry_equiv_pos_as_xyz
1 x,y,z
2 -x,1/2+y,1/2-z
3 -x,-y,-z
4 x,1/2-y,1/2+z
_cell_length_a                   14.3049(6)
_cell_length_b                   14.5382(7)
_cell_length_c                   15.0065(7)
_cell_angle_alpha                90
_cell_angle_beta                 103.185(3)
_cell_angle_gamma                90
_cell_volume                     3038.59
_exptl_crystal_colour            colorless
_exptl_crystal_description       block
_cell_formula_units_Z            4
loop_
_atom_site_label
_atom_site_type_symbol
_atom_site_fract_x
_atom_site_fract_y
_atom_site_fract_z
C1 C 0.79334(16) 0.20899(16) 0.02193(16)
H1 H 0.8403 0.1642 0.0122
H2 H 0.7453 0.1763 0.0460
N1 N 0.84290(10) 0.27691(10) 0.09287(11)
C2 C 0.7457(2) 0.2496(3) -0.0685(2)
H3 H 0.7161 0.2015 -0.1092
H4 H 0.6975 0.2928 -0.0603
H5 H 0.7927 0.2806 -0.0942
C3 C 0.91710(16) 0.33208(17) 0.05817(17)
H6 H 0.8842 0.3689 0.0066
H7 H 0.9481 0.3741 0.1061
C4 C 0.99350(18) 0.2764(2) 0.0289(2)
H8 H 1.0370 0.3169 0.0081
H9 H 1.0281 0.2410 0.0798
H10 H 0.9641 0.2357 -0.0199
C5 C 0.89022(16) 0.22149(15) 0.17669(16)
H11 H 0.8413 0.1851 0.1956
H12 H 0.9356 0.1791 0.1596
C6 C 0.9422(2) 0.2774(2) 0.25723(19)
H13 H 0.9698 0.2370 0.3069
H14 H 0.9922 0.3124 0.2401
H15 H 0.8978 0.3184 0.2761
C7 C 0.77162(15) 0.34436(15) 0.11630(16)
H16 H 0.8063 0.3875 0.1612
H17 H 0.7432 0.3791 0.0616
C8 C 0.69235(18) 0.30268(19) 0.1532(2)
H18 H 0.6510 0.3505 0.1660
H19 H 0.6560 0.2612 0.1087
H20 H 0.7193 0.2697 0.2085
O1 O 0.31306(9) 0.00102(10) 0.07003(8)
O2 O 0.46194(9) 0.01154(11) 0.15217(8)
O3 O 0.34043(8) 0.00924(10) 0.22129(8)
C9 C 0.37179(12) 0.00750(12) 0.14750(11)
O4 O 0.10356(16) 0.4933(2) 0.1582(2)
H21 H 0.148(2) 0.518(3) 0.198(3)
H22 H 0.0492(16) 0.514(3) 0.163(4)
B1 B 0.09669(15) 0.00990(15) 0.12558(14)
O5 O 0.12762(9) -0.00504(10) 0.04862(9)
H23 H 0.1888(7) -0.0065(17) 0.0570(18)
O6 O 0.15703(9) 0.01917(13) 0.20915(9)
H24 H 0.2182(8) 0.015(2) 0.214(2)
O7 O 0.00081(9) 0.01707(13) 0.12269(10)
H25 H -0.0375(18) 0.012(2) 0.0706(11)
N2 N 0.32973(11) 0.22341(10) 0.87185(11)
C10 C 0.41160(18) 0.17226(18) 0.8477(2)
H26 H 0.3859 0.1292 0.7989
H27 H 0.4440 0.1368 0.9006
C11 C 0.4848(2) 0.2331(3) 0.8175(3)
H28 H 0.5347 0.1955 0.8033
H29 H 0.4540 0.2673 0.7642
H30 H 0.5122 0.2750 0.8659
C12 C 0.36487(17) 0.28704(15) 0.95156(15)
H31 H 0.3099 0.3186 0.9650
H32 H 0.4058 0.3332 0.9334
C13 C 0.4199(2) 0.2414(2) 1.03840(19)
H33 H 0.4393 0.2870 1.0852
H34 H 0.3796 0.1968 1.0583
H35 H 0.4757 0.2114 1.0267
C14 C 0.26188(17) 0.15157(16) 0.89619(18)
H36 H 0.2380 0.1135 0.8428
H37 H 0.2983 0.1122 0.9438
C15 C 0.17776(18) 0.1893(2) 0.9281(2)
H38 H 0.1393 0.1395 0.9418
H39 H 0.2002 0.2257 0.9822
H40 H 0.1398 0.2270 0.8809
C16 C 0.27718(18) 0.28342(17) 0.79418(16)
H41 H 0.2250 0.3143 0.8134
H42 H 0.3210 0.3304 0.7822
C17 C 0.2367(3) 0.2323(3) 0.7063(2)
H43 H 0.2046 0.2749 0.6605
H44 H 0.2880 0.2028 0.6856
H45 H 0.1919 0.1867 0.7168
O8 O 0.73286(11) 0.06453(16) 0.23149(12)
H46 H 0.7013(19) 0.067(3) 0.1760(8)
H47 H 0.6936(18) 0.055(3) 0.2656(17)
B2 B 0.54853(14) 0.00945(15) 0.38186(13)
O9 O 0.58139(10) 0.01172(13) 0.30520(9)
H48 H 0.5399(17) 0.011(2) 0.2546(12)
O10 O 0.61543(9) 0.01024(11) 0.46357(9)
H49 H 0.5942(18) 0.0028(17) 0.5121(12)
O11 O 0.45376(8) 0.00604(10) 0.38185(8)
H50 H 0.4178(15) 0.0035(16) 0.3281(9)
O12 O 0.80495(12) 0.93980(14) 0.47664(12)
H51 H 0.8311(19) 0.966(2) 0.4377(18)
H52 H 0.7484(11) 0.962(2) 0.469(2)
O13 O 0.39566(11) 0.92532(12) 0.93726(10)
H53 H 0.3843(18) 0.9501(18) 0.9852(13)
H54 H 0.4445(13) 0.9498(18) 0.9252(18)
O14 O 0.07435(12) 0.07431(14) 0.35216(11)
H55 H 0.099(2) 0.054(2) 0.3097(14)
H56 H 0.1088(19) 0.063(2) 0.4046(9)
loop_
_geom_bond_atom_site_label_1
_geom_bond_atom_site_label_2
_geom_bond_site_symmetry_1
_geom_bond_site_symmetry_2
C1 H1 1_555 1_555
H2 C1 1_555 1_555
N1 C1 1_555 1_555
C2 C1 1_555 1_555
H3 C2 1_555 1_555
H4 C2 1_555 1_555
H5 C2 1_555 1_555
C3 N1 1_555 1_555
H6 C3 1_555 1_555
H7 C3 1_555 1_555
C4 C3 1_555 1_555
H8 C4 1_555 1_555
H9 C4 1_555 1_555
H10 C4 1_555 1_555
C5 N1 1_555 1_555
H11 C5 1_555 1_555
H12 C5 1_555 1_555
C6 C5 1_555 1_555
H13 C6 1_555 1_555
H14 C6 1_555 1_555
H15 C6 1_555 1_555
C7 N1 1_555 1_555
H16 C7 1_555 1_555
H17 C7 1_555 1_555
C8 C7 1_555 1_555
H18 C8 1_555 1_555
H19 C8 1_555 1_555
H20 C8 1_555 1_555
O1 C9 1_555 1_555
O2 C9 1_555 1_555
O3 C9 1_555 1_555
O4 H21 1_555 1_555
H22 O4 1_555 1_555
B1 O5 1_555 1_555
O5 H23 1_555 1_555
O6 B1 1_555 1_555
H24 O6 1_555 1_555
O7 B1 1_555 1_555
H25 O7 1_555 1_555
N2 C10 1_555 1_555
C10 H26 1_555 1_555
H27 C10 1_555 1_555
C11 C10 1_555 1_555
H28 C11 1_555 1_555
H29 C11 1_555 1_555
H30 C11 1_555 1_555
C12 N2 1_555 1_555
H31 C12 1_555 1_555
H32 C12 1_555 1_555
C13 C12 1_555 1_555
H33 C13 1_555 1_555
H34 C13 1_555 1_555
H35 C13 1_555 1_555
C14 N2 1_555 1_555
H36 C14 1_555 1_555
H37 C14 1_555 1_555
C15 C14 1_555 1_555
H38 C15 1_555 1_555
H39 C15 1_555 1_555
H40 C15 1_555 1_555
C16 N2 1_555 1_555
H41 C16 1_555 1_555
H42 C16 1_555 1_555
C17 C16 1_555 1_555
H43 C17 1_555 1_555
H44 C17 1_555 1_555
H45 C17 1_555 1_555
O8 H46 1_555 1_555
H47 O8 1_555 1_555
B2 O9 1_555 1_555
O9 H48 1_555 1_555
O10 B2 1_555 1_555
H49 O10 1_555 1_555
O11 B2 1_555 1_555
H50 O11 1_555 1_555
O12 H51 1_555 1_555
H52 O12 1_555 1_555
O13 H53 1_555 1_555
H54 O13 1_555 1_555
O14 H55 1_555 1_555
H56 O14 1_555 1_555

#END
