
#######################################################################
#
#                 Cambridge Crystallographic Data Centre
#                                CCDC 
#
#######################################################################
#
# If this CIF has been generated from an entry in the Cambridge 
# Structural Database, then it will include bibliographic, chemical, 
# crystal, experimental, refinement or atomic coordinate data resulting 
# from the CCDC's data processing and validation procedures.
#
#######################################################################

data_TEWTIA
_chemical_formula_moiety         'C28 H19 Cl1 N2 O3'
_chemical_name_systematic        
4-Benzoyl-5-(4-chlorophenyl)-1,2,3,5-tetrahydrobenzo[g]imidazo[1,2-a]quinoline-6,11-dione
_symmetry_cell_setting           triclinic
_symmetry_space_group_name_H-M   'P -1'
_symmetry_Int_Tables_number      2
_space_group_name_Hall           '-P 1'
loop_
_symmetry_equiv_pos_site_id
_symmetry_equiv_pos_as_xyz
1 x,y,z
2 -x,-y,-z
_cell_length_a                   9.592(2)
_cell_length_b                   10.080(3)
_cell_length_c                   11.857(3)
_cell_angle_alpha                89.893(10)
_cell_angle_beta                 76.026(7)
_cell_angle_gamma                80.083(8)
_cell_volume                     1094.93
_exptl_crystal_colour            colorless
_exptl_crystal_description       block
_cell_formula_units_Z            2
loop_
_atom_site_label
_atom_site_type_symbol
_atom_site_fract_x
_atom_site_fract_y
_atom_site_fract_z
Cl1 Cl 0.93400(7) 0.18782(8) -0.19695(5)
O1 O 0.55739(16) -0.17546(14) 0.19599(12)
O2 O 0.88334(14) -0.15357(13) 0.50000(12)
O3 O 0.43450(15) 0.43418(13) 0.40145(11)
N1 N 0.70614(16) 0.08399(14) 0.46099(12)
N2 N 0.60647(17) 0.29411(16) 0.52143(13)
H1 H 0.5468 0.3721 0.5296
C1 C 0.56374(18) 0.08288(17) 0.27325(14)
H2 H 0.4685 0.0654 0.2616
C2 C 0.53137(19) 0.20339(17) 0.35886(15)
C3 C 0.60932(19) 0.19819(17) 0.44404(14)
C4 C 0.7112(2) 0.25800(19) 0.59139(16)
H3 H 0.6649 0.2775 0.6752
H4 H 0.7941 0.3069 0.5681
C5 C 0.7608(2) 0.10692(19) 0.56495(16)
H5 H 0.8685 0.0821 0.5477
H6 H 0.7172 0.0546 0.6308
C6 C 0.70844(18) -0.03774(17) 0.40659(15)
C7 C 0.63634(18) -0.04251(17) 0.32104(15)
C8 C 0.63131(19) -0.17136(18) 0.26713(16)
C9 C 0.71558(19) -0.29683(18) 0.29973(16)
C10 C 0.79630(19) -0.29162(18) 0.38215(15)
C11 C 0.80148(19) -0.16135(18) 0.43681(15)
C12 C 0.8783(2) -0.4095(2) 0.41029(17)
H7 H 0.9333 -0.4061 0.4666
C13 C 0.8795(2) -0.5313(2) 0.35615(19)
H8 H 0.9353 -0.6116 0.3753
C14 C 0.7993(3) -0.5361(2) 0.2741(2)
H9 H 0.8006 -0.6198 0.2368
C15 C 0.7173(2) -0.4196(2) 0.24594(18)
H10 H 0.6621 -0.4236 0.1898
C16 C 0.65833(19) 0.10880(17) 0.15425(15)
C17 C 0.8030(2) 0.12392(18) 0.14061(16)
H11 H 0.8439 0.1174 0.2062
C18 C 0.8880(2) 0.1482(2) 0.03341(17)
H12 H 0.9864 0.1589 0.0251
C19 C 0.8276(2) 0.1567(2) -0.06124(16)
C20 C 0.6857(2) 0.1420(2) -0.05109(17)
H13 H 0.6456 0.1482 -0.1172
C21 C 0.6016(2) 0.1180(2) 0.05693(16)
H14 H 0.5032 0.1076 0.0645
C22 C 0.44262(19) 0.32859(18) 0.34352(15)
C23 C 0.3569(2) 0.33879(19) 0.25157(15)
C24 C 0.2617(2) 0.2517(2) 0.24434(17)
H15 H 0.2500 0.1821 0.2981
C25 C 0.1834(2) 0.2654(3) 0.15937(19)
H16 H 0.1183 0.2054 0.1552
C26 C 0.2001(3) 0.3658(3) 0.0812(2)
H17 H 0.1481 0.3739 0.0220
C27 C 0.2922(3) 0.4547(2) 0.0884(2)
H18 H 0.3027 0.5246 0.0348
C28 C 0.3695(2) 0.4420(2) 0.17394(18)
H19 H 0.4315 0.5044 0.1795
loop_
_geom_bond_atom_site_label_1
_geom_bond_atom_site_label_2
_geom_bond_site_symmetry_1
_geom_bond_site_symmetry_2
Cl1 C19 1_555 1_555
O1 C8 1_555 1_555
O2 C11 1_555 1_555
O3 C22 1_555 1_555
N1 C3 1_555 1_555
N2 H1 1_555 1_555
C1 H2 1_555 1_555
C2 C1 1_555 1_555
C3 N2 1_555 1_555
C4 N2 1_555 1_555
H3 C4 1_555 1_555
H4 C4 1_555 1_555
C5 N1 1_555 1_555
H5 C5 1_555 1_555
H6 C5 1_555 1_555
C6 N1 1_555 1_555
C7 C1 1_555 1_555
C8 C7 1_555 1_555
C9 C8 1_555 1_555
C10 C9 1_555 1_555
C11 C6 1_555 1_555
C12 C10 1_555 1_555
H7 C12 1_555 1_555
C13 C12 1_555 1_555
H8 C13 1_555 1_555
C14 C13 1_555 1_555
H9 C14 1_555 1_555
C15 C9 1_555 1_555
H10 C15 1_555 1_555
C16 C1 1_555 1_555
C17 C16 1_555 1_555
H11 C17 1_555 1_555
C18 C17 1_555 1_555
H12 C18 1_555 1_555
C19 C18 1_555 1_555
C20 C19 1_555 1_555
H13 C20 1_555 1_555
C21 C16 1_555 1_555
H14 C21 1_555 1_555
C22 C2 1_555 1_555
C23 C22 1_555 1_555
C24 C23 1_555 1_555
H15 C24 1_555 1_555
C25 C24 1_555 1_555
H16 C25 1_555 1_555
C26 C25 1_555 1_555
H17 C26 1_555 1_555
C27 C26 1_555 1_555
H18 C27 1_555 1_555
C28 C23 1_555 1_555
H19 C28 1_555 1_555
C2 C3 1_555 1_555
C4 C5 1_555 1_555
C6 C7 1_555 1_555
C10 C11 1_555 1_555
C14 C15 1_555 1_555
C20 C21 1_555 1_555
C27 C28 1_555 1_555

#END
