
#######################################################################
#
#                 Cambridge Crystallographic Data Centre
#                                CCDC 
#
#######################################################################
#
# If this CIF has been generated from an entry in the Cambridge 
# Structural Database, then it will include bibliographic, chemical, 
# crystal, experimental, refinement or atomic coordinate data resulting 
# from the CCDC's data processing and validation procedures.
#
#######################################################################

data_TEWWOK
_chemical_formula_moiety         'C30 H26'
_chemical_name_systematic        
10-(3,5-dimethylphenyl)-2,4-dimethyl-9-phenylphenanthrene
_symmetry_cell_setting           monoclinic
_symmetry_space_group_name_H-M   'P 21/c'
_symmetry_Int_Tables_number      14
_space_group_name_Hall           '-P 2ybc'
loop_
_symmetry_equiv_pos_site_id
_symmetry_equiv_pos_as_xyz
1 x,y,z
2 -x,1/2+y,1/2-z
3 -x,-y,-z
4 x,1/2-y,1/2+z
_cell_length_a                   17.4337(14)
_cell_length_b                   6.9903(4)
_cell_length_c                   17.9350(12)
_cell_angle_alpha                90
_cell_angle_beta                 103.640(7)
_cell_angle_gamma                90
_cell_volume                     2124.04
_exptl_crystal_colour            colorless
_exptl_crystal_description       plate
_cell_formula_units_Z            4
loop_
_atom_site_label
_atom_site_type_symbol
_atom_site_fract_x
_atom_site_fract_y
_atom_site_fract_z
C1 C 0.24437(13) 0.6890(3) 0.31958(12)
C2 C 0.31387(13) 0.5988(3) 0.32063(12)
C3 C 0.35808(13) 0.6418(3) 0.26402(12)
C4 C 0.42686(13) 0.5391(3) 0.26208(13)
H1 H 0.4468 0.4487 0.3015
C5 C 0.46614(13) 0.5656(3) 0.20489(13)
H2 H 0.5133 0.4971 0.2055
C6 C 0.43570(13) 0.6947(3) 0.14589(13)
H3 H 0.4606 0.7091 0.1045
C7 C 0.36998(13) 0.8004(3) 0.14772(13)
H4 H 0.3499 0.8868 0.1069
C8 C 0.33113(13) 0.7854(3) 0.20818(12)
C9 C 0.26292(13) 0.9010(3) 0.21299(12)
C10 C 0.24061(13) 1.0742(3) 0.17072(12)
C11 C 0.16934(14) 1.1570(3) 0.17285(13)
H5 H 0.1545 1.2707 0.1441
C12 C 0.11770(13) 1.0842(3) 0.21454(12)
C13 C 0.14345(13) 0.9297(3) 0.26188(12)
H6 H 0.1110 0.8821 0.2935
C14 C 0.21655(13) 0.8412(3) 0.26441(12)
C15 C 0.29238(15) 1.1822(3) 0.12821(15)
H7 H 0.3477 1.1701 0.1560
H8 H 0.2773 1.3176 0.1246
H9 H 0.2856 1.1289 0.0765
C16 C 0.03901(14) 1.1776(3) 0.20901(14)
H10 H 0.0114 1.1123 0.2434
H11 H 0.0074 1.1691 0.1561
H12 H 0.0469 1.3123 0.2240
C17 C 0.19797(13) 0.6408(3) 0.37724(12)
C18 C 0.19546(13) 0.7671(3) 0.43666(13)
H13 H 0.2231 0.8850 0.4399
C19 C 0.15320(14) 0.7241(3) 0.49147(13)
C20 C 0.11243(13) 0.5520(3) 0.48515(13)
H14 H 0.0832 0.5215 0.5220
C21 C 0.11331(13) 0.4230(3) 0.42623(13)
C22 C 0.15720(12) 0.4684(3) 0.37330(12)
H15 H 0.1594 0.3800 0.3336
C23 C 0.15140(16) 0.8609(3) 0.55639(14)
H16 H 0.1966 0.9481 0.5636
H17 H 0.1541 0.7884 0.6037
H18 H 0.1023 0.9350 0.5439
C24 C 0.06479(16) 0.2424(3) 0.41867(15)
H19 H 0.0150 0.2618 0.3805
H20 H 0.0537 0.2109 0.4683
H21 H 0.0942 0.1373 0.4023
C25 C 0.34536(13) 0.4484(3) 0.37933(12)
C26 C 0.38672(13) 0.4953(3) 0.45264(12)
H22 H 0.3936 0.6261 0.4670
C27 C 0.41834(14) 0.3553(3) 0.50549(14)
H23 H 0.4469 0.3905 0.5555
C28 C 0.40852(14) 0.1645(3) 0.48563(14)
H24 H 0.4302 0.0683 0.5219
C29 C 0.36690(14) 0.1141(3) 0.41269(14)
H25 H 0.3600 -0.0170 0.3988
C30 C 0.33531(14) 0.2544(3) 0.36001(14)
H26 H 0.3065 0.2188 0.3102
loop_
_geom_bond_atom_site_label_1
_geom_bond_atom_site_label_2
_geom_bond_site_symmetry_1
_geom_bond_site_symmetry_2
C1 C2 1_555 1_555
C2 C3 1_555 1_555
C3 C4 1_555 1_555
C4 H1 1_555 1_555
C5 C4 1_555 1_555
H2 C5 1_555 1_555
C6 C5 1_555 1_555
H3 C6 1_555 1_555
C7 C6 1_555 1_555
H4 C7 1_555 1_555
C8 C3 1_555 1_555
C9 C8 1_555 1_555
C10 C9 1_555 1_555
C11 C10 1_555 1_555
H5 C11 1_555 1_555
C12 C11 1_555 1_555
C13 C12 1_555 1_555
H6 C13 1_555 1_555
C14 C1 1_555 1_555
C15 C10 1_555 1_555
H7 C15 1_555 1_555
H8 C15 1_555 1_555
H9 C15 1_555 1_555
C16 C12 1_555 1_555
H10 C16 1_555 1_555
H11 C16 1_555 1_555
H12 C16 1_555 1_555
C17 C1 1_555 1_555
C18 C17 1_555 1_555
H13 C18 1_555 1_555
C19 C18 1_555 1_555
C20 C19 1_555 1_555
H14 C20 1_555 1_555
C21 C20 1_555 1_555
C22 C17 1_555 1_555
H15 C22 1_555 1_555
C23 C19 1_555 1_555
H16 C23 1_555 1_555
H17 C23 1_555 1_555
H18 C23 1_555 1_555
C24 C21 1_555 1_555
H19 C24 1_555 1_555
H20 C24 1_555 1_555
H21 C24 1_555 1_555
C25 C2 1_555 1_555
C26 C25 1_555 1_555
H22 C26 1_555 1_555
C27 C26 1_555 1_555
H23 C27 1_555 1_555
C28 C27 1_555 1_555
H24 C28 1_555 1_555
C29 C28 1_555 1_555
H25 C29 1_555 1_555
C30 C25 1_555 1_555
H26 C30 1_555 1_555
C7 C8 1_555 1_555
C9 C14 1_555 1_555
C13 C14 1_555 1_555
C21 C22 1_555 1_555
C29 C30 1_555 1_555

#END
