
#######################################################################
#
#                 Cambridge Crystallographic Data Centre
#                                CCDC 
#
#######################################################################
#
# If this CIF has been generated from an entry in the Cambridge 
# Structural Database, then it will include bibliographic, chemical, 
# crystal, experimental, refinement or atomic coordinate data resulting 
# from the CCDC's data processing and validation procedures.
#
#######################################################################

data_TEXCOQ
_chemical_formula_moiety         'C49 H36 N2'
_chemical_name_systematic        
4,4'-(9H-Fluorene-2,7-diyl)bis(N,N-diphenylaniline)
_symmetry_cell_setting           triclinic
_symmetry_space_group_name_H-M   'P -1'
_symmetry_Int_Tables_number      2
_space_group_name_Hall           '-P 1'
loop_
_symmetry_equiv_pos_site_id
_symmetry_equiv_pos_as_xyz
1 x,y,z
2 -x,-y,-z
_cell_length_a                   9.320(4)
_cell_length_b                   11.250(6)
_cell_length_c                   17.369(6)
_cell_angle_alpha                88.035(3)
_cell_angle_beta                 86.450(5)
_cell_angle_gamma                73.524(5)
_cell_volume                     1742.74
_exptl_crystal_colour            yellow
_exptl_crystal_description       block
_chemical_melting_point          '214 K'
_cell_formula_units_Z            2
loop_
_atom_site_label
_atom_site_type_symbol
_atom_site_fract_x
_atom_site_fract_y
_atom_site_fract_z
N1 N 0.6538(3) 1.0123(2) 0.29124(12)
C1 C 0.6338(3) 1.0453(2) 0.21220(14)
N2 N 0.8116(3) 2.2647(2) 0.87731(14)
C2 C 0.7392(3) 1.0928(3) 0.17103(15)
H1 H 0.8239 1.1011 0.1958
C3 C 0.6011(3) 0.9153(2) 0.32560(14)
C4 C 1.0759(3) 2.2181(3) 0.90492(17)
H2 H 1.1020 2.1669 0.8609
C5 C 0.8868(3) 1.9287(3) 0.84372(16)
H3 H 0.9134 1.8532 0.8727
C6 C 0.5113(3) 1.0327(2) 0.17455(15)
H4 H 0.4392 0.9996 0.2016
C7 C 0.9252(3) 2.2800(2) 0.92315(15)
C8 C 0.8686(3) 2.0395(3) 0.88070(16)
H5 H 0.8827 2.0392 0.9344
C9 C 0.8671(3) 1.9253(3) 0.76523(16)
C10 C 0.7021(3) 1.0921(3) 0.33915(15)
C11 C 0.8299(3) 2.1510(3) 0.83959(16)
C12 C 0.8839(3) 1.8057(3) 0.72607(16)
C13 C 0.6229(3) 0.8040(3) 0.28799(16)
H6 H 0.6766 0.7916 0.2392
C14 C 0.7211(3) 1.1276(3) 0.09480(15)
H7 H 0.7933 1.1601 0.0673
C15 C 0.8895(3) 2.3552(2) 0.98747(15)
H8 H 0.7880 2.3976 1.0009
C16 C 0.5991(4) 1.1158(3) 0.05774(16)
H9 H 0.5870 1.1401 0.0051
C17 C 0.8089(3) 2.1494(3) 0.76121(16)
H10 H 0.7811 2.2252 0.7326
C18 C 0.8283(3) 2.0382(3) 0.72452(16)
H11 H 0.8150 2.0386 0.6707
C19 C 0.7941(4) 1.2489(3) 0.43708(16)
C20 C 0.9010(4) 1.4815(3) 0.60316(16)
C21 C 0.4947(3) 1.0682(3) 0.09811(15)
H12 H 0.4106 1.0598 0.0729
C22 C 0.5414(3) 2.3451(3) 0.87016(16)
H13 H 0.5327 2.2642 0.8815
C23 C 1.0024(4) 2.3679(3) 1.03182(16)
H14 H 0.9773 2.4197 1.0756
C24 C 0.5674(4) 0.7112(3) 0.32079(17)
H15 H 0.5833 0.6355 0.2945
C25 C 0.6818(3) 2.3655(3) 0.86478(15)
C26 C 0.9115(3) 1.5823(3) 0.65273(16)
C27 C 0.9835(4) 1.6959(3) 0.75037(16)
H16 H 1.0431 1.6970 0.7926
C28 C 0.4893(4) 0.7278(3) 0.39131(17)
H17 H 0.4495 0.6647 0.4135
C29 C 0.5247(4) 0.9300(3) 0.39692(16)
H18 H 0.5098 1.0049 0.4240
C30 C 1.1863(3) 2.2310(3) 0.95028(18)
H19 H 1.2878 2.1872 0.9379
C31 C 0.6927(4) 2.4841(3) 0.84713(17)
H20 H 0.7882 2.4991 0.8421
C32 C 0.4136(4) 2.4424(3) 0.85901(17)
H21 H 0.3180 2.4276 0.8629
C33 C 0.8345(4) 1.3304(3) 0.49306(16)
C34 C 1.1512(4) 2.3066(3) 1.01361(19)
H22 H 1.2280 2.3165 1.0442
C35 C 0.9980(4) 1.5845(3) 0.71442(17)
H23 H 1.0667 1.5104 0.7320
C36 C 0.7977(3) 1.5304(3) 0.5482(2)
C37 C 0.4247(4) 2.5595(3) 0.84244(18)
H24 H 0.3369 2.6258 0.8348
C38 C 0.4697(4) 0.8366(3) 0.42913(17)
H25 H 0.4175 0.8480 0.4783
C39 C 0.6413(5) 1.2179(3) 0.33668(17)
H26 H 0.5664 1.2537 0.3014
C40 C 0.6872(5) 1.2934(3) 0.38465(17)
H27 H 0.6426 1.3804 0.3811
C41 C 0.5635(4) 2.5810(3) 0.83686(18)
H28 H 0.5710 2.6624 0.8259
C42 C 0.7653(4) 1.4560(4) 0.4944(2)
H29 H 0.6938 1.4921 0.4575
C43 C 0.8121(4) 1.0462(3) 0.3890(2)
H30 H 0.8586 0.9594 0.3913
C44 C 0.8137(3) 1.6919(3) 0.6273(2)
C45 C 0.9376(6) 1.2836(3) 0.5481(2)
H31 H 0.9870 1.1972 0.5486
C46 C 0.7979(4) 1.8019(3) 0.6639(2)
H32 H 0.7280 1.8756 0.6467
C47 C 0.9727(6) 1.3569(3) 0.6026(2)
H33 H 1.0453 1.3211 0.6390
C48 C 0.8580(4) 1.1231(4) 0.4366(3)
H34 H 0.9364 1.0875 0.4701
C49 C 0.7330(5) 1.6686(4) 0.5592(3)
H35 H 0.7544 1.7159 0.5129
H36 H 0.6233 1.6909 0.5707
loop_
_geom_bond_atom_site_label_1
_geom_bond_atom_site_label_2
_geom_bond_site_symmetry_1
_geom_bond_site_symmetry_2
N1 C1 1_555 1_555
C1 C2 1_555 1_555
N2 C7 1_555 1_555
C2 H1 1_555 1_555
C3 N1 1_555 1_555
C4 H2 1_555 1_555
C5 H3 1_555 1_555
C6 C1 1_555 1_555
H4 C6 1_555 1_555
C7 C4 1_555 1_555
C8 C5 1_555 1_555
H5 C8 1_555 1_555
C9 C5 1_555 1_555
C10 N1 1_555 1_555
C11 N2 1_555 1_555
C12 C9 1_555 1_555
C13 C3 1_555 1_555
H6 C13 1_555 1_555
C14 C2 1_555 1_555
H7 C14 1_555 1_555
C15 C7 1_555 1_555
H8 C15 1_555 1_555
C16 C14 1_555 1_555
H9 C16 1_555 1_555
C17 C11 1_555 1_555
H10 C17 1_555 1_555
C18 C9 1_555 1_555
H11 C18 1_555 1_555
C19 C33 1_555 1_555
C20 C26 1_555 1_555
C21 C6 1_555 1_555
H12 C21 1_555 1_555
C22 H13 1_555 1_555
C23 C15 1_555 1_555
H14 C23 1_555 1_555
C24 C13 1_555 1_555
H15 C24 1_555 1_555
C25 N2 1_555 1_555
C26 C35 1_555 1_555
C27 C12 1_555 1_555
H16 C27 1_555 1_555
C28 C24 1_555 1_555
H17 C28 1_555 1_555
C29 C3 1_555 1_555
H18 C29 1_555 1_555
C30 C4 1_555 1_555
H19 C30 1_555 1_555
C31 C25 1_555 1_555
H20 C31 1_555 1_555
C32 C22 1_555 1_555
H21 C32 1_555 1_555
C33 C42 1_555 1_555
C34 C23 1_555 1_555
H22 C34 1_555 1_555
C35 C27 1_555 1_555
H23 C35 1_555 1_555
C36 C20 1_555 1_555
C37 C32 1_555 1_555
H24 C37 1_555 1_555
C38 C28 1_555 1_555
H25 C38 1_555 1_555
C39 C10 1_555 1_555
H26 C39 1_555 1_555
C40 C19 1_555 1_555
H27 C40 1_555 1_555
C41 C31 1_555 1_555
H28 C41 1_555 1_555
C42 C36 1_555 1_555
H29 C42 1_555 1_555
C43 C10 1_555 1_555
H30 C43 1_555 1_555
C44 C26 1_555 1_555
C45 C33 1_555 1_555
H31 C45 1_555 1_555
C46 C12 1_555 1_555
H32 C46 1_555 1_555
C47 C20 1_555 1_555
H33 C47 1_555 1_555
C48 C19 1_555 1_555
H34 C48 1_555 1_555
C49 C36 1_555 1_555
H35 C49 1_555 1_555
H36 C49 1_555 1_555
C8 C11 1_555 1_555
C16 C21 1_555 1_555
C17 C18 1_555 1_555
C22 C25 1_555 1_555
C29 C38 1_555 1_555
C30 C34 1_555 1_555
C37 C41 1_555 1_555
C39 C40 1_555 1_555
C43 C48 1_555 1_555
C44 C46 1_555 1_555
C44 C49 1_555 1_555
C45 C47 1_555 1_555

#END
