
#######################################################################
#
#                 Cambridge Crystallographic Data Centre
#                                CCDC 
#
#######################################################################
#
# If this CIF has been generated from an entry in the Cambridge 
# Structural Database, then it will include bibliographic, chemical, 
# crystal, experimental, refinement or atomic coordinate data resulting 
# from the CCDC's data processing and validation procedures.
#
#######################################################################

data_TEXMOA
_chemical_formula_moiety         'C23 H24 N2 O3'
_chemical_name_systematic        
'Ethyl 6-methyl-2-oxo-4-phenyl-3-(3-phenylprop-2-en-1-yl)-1,2,3,4-tetrahydropyrimidine-5-carboxylate'
_symmetry_cell_setting           triclinic
_symmetry_space_group_name_H-M   'P -1'
_symmetry_Int_Tables_number      2
_space_group_name_Hall           '-P 1'
loop_
_symmetry_equiv_pos_site_id
_symmetry_equiv_pos_as_xyz
1 x,y,z
2 -x,-y,-z
_cell_length_a                   9.310(4)
_cell_length_b                   9.722(5)
_cell_length_c                   12.548(6)
_cell_angle_alpha                90.798(5)
_cell_angle_beta                 109.442(4)
_cell_angle_gamma                106.726(5)
_cell_volume                     1018.07
_exptl_crystal_colour            colorless
_exptl_crystal_description       block
_cell_formula_units_Z            2
loop_
_atom_site_label
_atom_site_type_symbol
_atom_site_fract_x
_atom_site_fract_y
_atom_site_fract_z
C1 C 0.7355(3) 0.7806(3) 0.3351(2)
H1 H 0.8073 0.8136 0.2922
C2 C 0.8355(3) 0.8165(3) 0.4603(2)
C3 C 0.7834(3) 0.8731(3) 0.5323(2)
C4 C 0.5642(3) 0.9126(3) 0.3778(2)
C5 C 0.5530(4) 0.8796(4) 0.1835(2)
H2 H 0.4527 0.9006 0.1674
H3 H 0.5322 0.7915 0.1358
C6 C 0.6709(4) 1.0020(4) 0.1560(2)
H4 H 0.7110 1.0890 0.2033
C7 C 0.7222(4) 0.9971(4) 0.0714(3)
H5 H 0.6803 0.9097 0.0243
C8 C 0.8369(4) 1.1121(4) 0.0425(2)
C9 C 0.8704(5) 1.0923(5) -0.0556(3)
H6 H 0.8155 1.0058 -0.1037
C10 C 0.9811(6) 1.1958(5) -0.0831(3)
H7 H 1.0008 1.1794 -0.1494
C11 C 1.0633(6) 1.3230(5) -0.0146(4)
H8 H 1.1392 1.3935 -0.0337
C12 C 1.0341(6) 1.3471(5) 0.0828(4)
H9 H 1.0910 1.4339 0.1302
C13 C 0.9219(5) 1.2446(4) 0.1108(3)
H10 H 0.9017 1.2633 0.1764
C14 C 0.6538(3) 0.6183(3) 0.3005(2)
C15 C 0.6698(5) 0.5481(4) 0.2117(4)
H11 H 0.7308 0.6003 0.1716
C16 C 0.5966(6) 0.4008(5) 0.1808(5)
H12 H 0.6072 0.3554 0.1193
C17 C 0.5107(6) 0.3232(5) 0.2384(5)
H13 H 0.4624 0.2240 0.2178
C18 C 0.4946(5) 0.3908(4) 0.3278(4)
H14 H 0.4349 0.3378 0.3683
C19 C 0.5664(4) 0.5366(4) 0.3577(3)
H15 H 0.5550 0.5812 0.4191
C20 C 0.9869(3) 0.7824(3) 0.5009(3)
C21 C 1.1620(4) 0.6875(5) 0.4480(4)
H16 H 1.1704 0.6393 0.5160
H17 H 1.2569 0.7708 0.4646
C22 C 1.1503(7) 0.5883(6) 0.3547(4)
H18 H 1.0530 0.5089 0.3358
H19 H 1.2404 0.5521 0.3777
H20 H 1.1499 0.6386 0.2894
C23 C 0.8637(4) 0.9105(3) 0.6591(2)
H21 H 0.8515 0.8233 0.6949
H22 H 0.8153 0.9715 0.6864
H23 H 0.9756 0.9606 0.6771
N1 N 0.6154(3) 0.8581(2) 0.30382(18)
N2 N 0.6410(3) 0.9048(2) 0.49058(18)
H24 H 0.5976 0.9206 0.5383
O1 O 0.4569(2) 0.9693(2) 0.34998(17)
O2 O 1.0729(3) 0.7923(3) 0.5979(2)
O3 O 1.0199(2) 0.7335(3) 0.41448(19)
loop_
_geom_bond_atom_site_label_1
_geom_bond_atom_site_label_2
_geom_bond_site_symmetry_1
_geom_bond_site_symmetry_2
C1 H1 1_555 1_555
C2 C1 1_555 1_555
C3 C2 1_555 1_555
C4 N1 1_555 1_555
C5 H2 1_555 1_555
H3 C5 1_555 1_555
C6 C5 1_555 1_555
H4 C6 1_555 1_555
C7 C6 1_555 1_555
H5 C7 1_555 1_555
C8 C7 1_555 1_555
C9 C8 1_555 1_555
H6 C9 1_555 1_555
C10 C9 1_555 1_555
H7 C10 1_555 1_555
C11 C10 1_555 1_555
H8 C11 1_555 1_555
C12 C11 1_555 1_555
H9 C12 1_555 1_555
C13 C8 1_555 1_555
H10 C13 1_555 1_555
C14 C1 1_555 1_555
C15 C14 1_555 1_555
H11 C15 1_555 1_555
C16 C15 1_555 1_555
H12 C16 1_555 1_555
C17 C16 1_555 1_555
H13 C17 1_555 1_555
C18 C17 1_555 1_555
H14 C18 1_555 1_555
C19 C14 1_555 1_555
H15 C19 1_555 1_555
C20 C2 1_555 1_555
C21 H16 1_555 1_555
H17 C21 1_555 1_555
C22 C21 1_555 1_555
H18 C22 1_555 1_555
H19 C22 1_555 1_555
H20 C22 1_555 1_555
C23 C3 1_555 1_555
H21 C23 1_555 1_555
H22 C23 1_555 1_555
H23 C23 1_555 1_555
N1 C1 1_555 1_555
N2 C3 1_555 1_555
H24 N2 1_555 1_555
O1 C4 1_555 1_555
O2 C20 1_555 1_555
O3 C20 1_555 1_555
C4 N2 1_555 1_555
C5 N1 1_555 1_555
C12 C13 1_555 1_555
C18 C19 1_555 1_555
C21 O3 1_555 1_555

#END
