
#######################################################################
#
#                 Cambridge Crystallographic Data Centre
#                                CCDC 
#
#######################################################################
#
# If this CIF has been generated from an entry in the Cambridge 
# Structural Database, then it will include bibliographic, chemical, 
# crystal, experimental, refinement or atomic coordinate data resulting 
# from the CCDC's data processing and validation procedures.
#
#######################################################################

data_TEXROD
_chemical_formula_moiety         'C14 H19 N1 O4 Se1'
_chemical_name_systematic        
'Ethyl 2-(phenylselenonylmethyl)pyrrolidine-1-carboxylate'
_symmetry_cell_setting           triclinic
_symmetry_space_group_name_H-M   'P -1'
_symmetry_Int_Tables_number      2
_space_group_name_Hall           '-P 1'
loop_
_symmetry_equiv_pos_site_id
_symmetry_equiv_pos_as_xyz
1 x,y,z
2 -x,-y,-z
_cell_length_a                   9.3060(40)
_cell_length_b                   11.5480(40)
_cell_length_c                   7.2700(30)
_cell_angle_alpha                95.500(30)
_cell_angle_beta                 111.900(30)
_cell_angle_gamma                100.820(30)
_cell_volume                     700.117
_exptl_crystal_colour            colorless
_cell_formula_units_Z            2
loop_
_atom_site_label
_atom_site_type_symbol
_atom_site_fract_x
_atom_site_fract_y
_atom_site_fract_z
Se1 Se -0.27418(4) 0.13943(4) 0.62894(6)
O1 O -0.35798(32) 0.24991(24) 0.58999(40)
O2 O -0.34418(30) 0.04229(24) 0.73688(38)
O3 O 0.05488(28) 0.11518(21) 0.41390(37)
O4 O 0.14585(27) 0.31507(20) 0.49518(35)
N1 N -0.11419(33) 0.23533(25) 0.34332(42)
C1 C -0.05891(40) 0.20686(32) 0.80518(50)
C2 C -0.25350(42) 0.13378(33) 0.24274(55)
C3 C -0.00479(48) 0.32908(35) 0.85527(58)
C4 C 0.14787(51) 0.37718(38) 0.99254(61)
C5 C -0.38687(49) 0.19373(39) 0.14097(63)
C6 C 0.24339(49) 0.30387(37) 1.07879(60)
C7 C -0.30336(52) 0.31053(38) 0.11128(61)
C8 C 0.18846(49) 0.18312(38) 1.02708(63)
C9 C -0.15013(53) 0.34898(36) 0.29693(66)
C10 C -0.28204(50) 0.05451(34) 0.38504(58)
C11 C 0.03675(46) 0.13318(36) 0.88946(58)
C12 C 0.03164(42) 0.21416(32) 0.41636(51)
C13 C 0.30501(43) 0.29712(35) 0.58461(62)
C14 C 0.41404(56) 0.41703(41) 0.66940(80)
H1 H -0.0763(41) 0.3770(32) 0.7956(51)
H2 H -0.2377(36) 0.0840(28) 0.1416(46)
H3 H 0.1796(42) 0.4544(34) 1.0234(53)
H4 H -0.4644(48) 0.1476(36) 0.0202(64)
H5 H -0.4379(41) 0.2108(31) 0.2202(52)
H6 H 0.3451(47) 0.3368(35) 1.1635(58)
H7 H -0.2830(39) 0.2982(30) -0.0104(51)
H8 H -0.3651(40) 0.3616(32) 0.0915(50)
H9 H 0.2413(42) 0.1391(32) 1.0814(52)
H10 H -0.1593(40) 0.3881(31) 0.3954(51)
H11 H -0.0732(41) 0.3964(31) 0.2720(50)
H12 H 0.0041(38) 0.0571(30) 0.8533(48)
H13 H -0.2097(44) 0.0149(32) 0.4333(54)
H14 H -0.3844(50) 0.0146(35) 0.3414(59)
H15 H 0.3094(39) 0.2533(30) 0.6933(52)
H16 H 0.3217(36) 0.2581(29) 0.4800(48)
H17 H 0.5127(52) 0.4119(37) 0.7115(63)
H18 H 0.3975(51) 0.4581(38) 0.5783(65)
H19 H 0.4028(55) 0.4551(42) 0.8050(73)
loop_
_geom_bond_atom_site_label_1
_geom_bond_atom_site_label_2
_geom_bond_site_symmetry_1
_geom_bond_site_symmetry_2
Se1 O1 1_555 1_555
O2 Se1 1_555 1_555
O3 C12 1_555 1_555
O4 C12 1_555 1_555
N1 C2 1_555 1_555
C1 Se1 1_555 1_555
C2 C5 1_555 1_555
C3 C1 1_555 1_555
C4 C3 1_555 1_555
C5 C7 1_555 1_555
C6 C4 1_555 1_555
C7 C9 1_555 1_555
C8 C6 1_555 1_555
C9 N1 1_555 1_555
C10 Se1 1_555 1_555
C11 C1 1_555 1_555
C12 N1 1_555 1_555
C13 O4 1_555 1_555
C14 C13 1_555 1_555
H1 C3 1_555 1_555
H2 C2 1_555 1_555
H3 C4 1_555 1_555
H4 C5 1_555 1_555
H5 C5 1_555 1_555
H6 C6 1_555 1_555
H7 C7 1_555 1_555
H8 C7 1_555 1_555
H9 C8 1_555 1_555
H10 C9 1_555 1_555
H11 C9 1_555 1_555
H12 C11 1_555 1_555
H13 C10 1_555 1_555
H14 C10 1_555 1_555
H15 C13 1_555 1_555
H16 C13 1_555 1_555
H17 C14 1_555 1_555
H18 C14 1_555 1_555
H19 C14 1_555 1_555
C2 C10 1_555 1_555
C8 C11 1_555 1_555

#END
