
#######################################################################
#
#                 Cambridge Crystallographic Data Centre
#                                CCDC 
#
#######################################################################
#
# If this CIF has been generated from an entry in the Cambridge 
# Structural Database, then it will include bibliographic, chemical, 
# crystal, experimental, refinement or atomic coordinate data resulting 
# from the CCDC's data processing and validation procedures.
#
#######################################################################

data_TEXREU
_chemical_formula_moiety         'C20 H36 S2 Se4 Si4'
_chemical_name_systematic        
1,3,6,8-tetrakis(Trimethylsilanyl)-2,7-dithia-4,5,9,10-tetraselenadicyclopenta(a,e)cyclo-octadiene
_symmetry_cell_setting           triclinic
_symmetry_space_group_name_H-M   'P -1'
_symmetry_Int_Tables_number      2
_space_group_name_Hall           '-P 1'
loop_
_symmetry_equiv_pos_site_id
_symmetry_equiv_pos_as_xyz
1 x,y,z
2 -x,-y,-z
_cell_length_a                   6.2840(2)
_cell_length_b                   9.5240(2)
_cell_length_c                   13.6870(4)
_cell_angle_alpha                77.853(2)
_cell_angle_beta                 81.908(2)
_cell_angle_gamma                86.535(2)
_cell_volume                     792.435
_exptl_crystal_colour            orange
_exptl_crystal_description       slab
_cell_formula_units_Z            1
_exptl_crystal_recrystallization_method chloroform
loop_
_atom_site_label
_atom_site_type_symbol
_atom_site_fract_x
_atom_site_fract_y
_atom_site_fract_z
C1 C 0.3369(5) -0.4474(3) 0.8871(2)
H1 H 0.4242 -0.5366 0.8900
H2 H 0.2006 -0.4590 0.8631
H3 H 0.3080 -0.4252 0.9546
C2 C 0.5153(5) -0.3300(3) 0.6678(2)
H4 H 0.5837 -0.2478 0.6210
H5 H 0.3731 -0.3422 0.6497
H6 H 0.6046 -0.4171 0.6640
C3 C 0.7542(5) -0.2793(4) 0.8354(3)
H7 H 0.8373 -0.3700 0.8364
H8 H 0.7373 -0.2561 0.9025
H9 H 0.8302 -0.2023 0.7864
C4 C 0.3216(4) -0.1244(3) 0.79693(19)
C5 C 0.1227(4) 0.0773(3) 0.83809(19)
C6 C 0.0934(4) 0.0993(3) 0.73818(19)
C7 C -0.3520(4) 0.2468(3) 0.7237(2)
H10 H -0.4424 0.3063 0.6772
H11 H -0.3552 0.2882 0.7837
H12 H -0.4065 0.1492 0.7437
C8 C 0.0595(5) 0.4171(3) 0.6384(2)
H13 H 0.2021 0.4120 0.5996
H14 H 0.0739 0.4406 0.7035
H15 H -0.0296 0.4916 0.6009
C9 C -0.0739(5) 0.1850(3) 0.5380(2)
H16 H -0.1513 0.2587 0.4937
H17 H -0.1464 0.0935 0.5500
H18 H 0.0739 0.1735 0.5060
C10 C 0.2491(4) -0.0498(3) 0.87145(19)
Si1 Si 0.48547(11) -0.29748(8) 0.79896(6)
Si2 Si -0.06983(12) 0.24026(7) 0.65999(5)
S1 S 0.23054(10) -0.03569(7) 0.68617(5)
Se1 Se 0.31258(4) -0.11669(3) 1.006360(19)
Se2 Se 0.01723(4) 0.21382(3) 0.91816(2)
C1A C -0.3369(5) 0.4474(3) 1.1129(2)
H1A H -0.4242 0.5366 1.1100
H2A H -0.2006 0.4590 1.1369
H3A H -0.3080 0.4252 1.0454
C2A C -0.5153(5) 0.3300(3) 1.3322(2)
H4A H -0.5837 0.2478 1.3790
H5A H -0.3731 0.3422 1.3503
H6A H -0.6046 0.4171 1.3360
C3A C -0.7542(5) 0.2793(4) 1.1646(3)
H7A H -0.8373 0.3700 1.1636
H8A H -0.7373 0.2561 1.0975
H9A H -0.8302 0.2023 1.2136
C4A C -0.3216(4) 0.1244(3) 1.20307(19)
C5A C -0.1227(4) -0.0773(3) 1.16191(19)
C6A C -0.0934(4) -0.0993(3) 1.26182(19)
C7A C 0.3520(4) -0.2468(3) 1.2763(2)
H10A H 0.4424 -0.3063 1.3228
H11A H 0.3552 -0.2882 1.2163
H12A H 0.4065 -0.1492 1.2563
C8A C -0.0595(5) -0.4171(3) 1.3616(2)
H13A H -0.2021 -0.4120 1.4004
H14A H -0.0739 -0.4406 1.2965
H15A H 0.0296 -0.4916 1.3991
C9A C 0.0739(5) -0.1850(3) 1.4620(2)
H16A H 0.1513 -0.2587 1.5063
H17A H 0.1464 -0.0935 1.4500
H18A H -0.0739 -0.1735 1.4940
C10A C -0.2491(4) 0.0498(3) 1.12855(19)
Si1A Si -0.48547(11) 0.29748(8) 1.20104(6)
Si2A Si 0.06983(12) -0.24026(7) 1.34001(5)
S1A S -0.23054(10) 0.03569(7) 1.31383(5)
Se1A Se -0.31258(4) 0.11669(3) 0.993640(19)
Se2A Se -0.01723(4) -0.21382(3) 1.08184(2)
loop_
_geom_bond_atom_site_label_1
_geom_bond_atom_site_label_2
_geom_bond_site_symmetry_1
_geom_bond_site_symmetry_2
C1 H1 1_555 1_555
H2 C1 1_555 1_555
H3 C1 1_555 1_555
C2 H4 1_555 1_555
H5 C2 1_555 1_555
H6 C2 1_555 1_555
C3 H7 1_555 1_555
H8 C3 1_555 1_555
H9 C3 1_555 1_555
C4 C10 1_555 1_555
C5 C6 1_555 1_555
C6 Si2 1_555 1_555
C7 H10 1_555 1_555
H11 C7 1_555 1_555
H12 C7 1_555 1_555
C8 H13 1_555 1_555
H14 C8 1_555 1_555
H15 C8 1_555 1_555
C9 H16 1_555 1_555
H17 C9 1_555 1_555
H18 C9 1_555 1_555
C10 C5 1_555 1_555
Si1 C1 1_555 1_555
Si2 C7 1_555 1_555
S1 C4 1_555 1_555
Se1 C10 1_555 1_555
Se2 C5 1_555 1_555
C1A H1A 1_555 1_555
H2A C1A 1_555 1_555
H3A C1A 1_555 1_555
C2A H4A 1_555 1_555
H5A C2A 1_555 1_555
H6A C2A 1_555 1_555
C3A H7A 1_555 1_555
H8A C3A 1_555 1_555
H9A C3A 1_555 1_555
C4A C10A 1_555 1_555
C5A C6A 1_555 1_555
C6A Si2A 1_555 1_555
C7A H10A 1_555 1_555
H11A C7A 1_555 1_555
H12A C7A 1_555 1_555
C8A H13A 1_555 1_555
H14A C8A 1_555 1_555
H15A C8A 1_555 1_555
C9A H16A 1_555 1_555
H17A C9A 1_555 1_555
H18A C9A 1_555 1_555
C10A C5A 1_555 1_555
Si1A C1A 1_555 1_555
Si2A C7A 1_555 1_555
S1A C4A 1_555 1_555
Se1A Se2 1_555 1_555
Se2A Se1 1_555 1_555
C2 Si1 1_555 1_555
C3 Si1 1_555 1_555
C4 Si1 1_555 1_555
C6 S1 1_555 1_555
C8 Si2 1_555 1_555
C9 Si2 1_555 1_555
C2A Si1A 1_555 1_555
C3A Si1A 1_555 1_555
C4A Si1A 1_555 1_555
C5A Se2A 1_555 1_555
C6A S1A 1_555 1_555
C8A Si2A 1_555 1_555
C9A Si2A 1_555 1_555
C10A Se1A 1_555 1_555

#END
