
#######################################################################
#
#                 Cambridge Crystallographic Data Centre
#                                CCDC 
#
#######################################################################
#
# If this CIF has been generated from an entry in the Cambridge 
# Structural Database, then it will include bibliographic, chemical, 
# crystal, experimental, refinement or atomic coordinate data resulting 
# from the CCDC's data processing and validation procedures.
#
#######################################################################

data_TEXROG
_chemical_formula_moiety         'C21 H16 F1 N3 O2'
_chemical_name_systematic        
1-(1-ethyl-5-fluoro-2-oxo-2,3-dihydro-1H-indol-3-yl)-3-hydroxy-1,3-dihydro-2H-indene-2,2-dicarbonitrile
_symmetry_cell_setting           triclinic
_symmetry_space_group_name_H-M   'P -1'
_symmetry_Int_Tables_number      2
_space_group_name_Hall           '-P 1'
loop_
_symmetry_equiv_pos_site_id
_symmetry_equiv_pos_as_xyz
1 x,y,z
2 -x,-y,-z
_cell_length_a                   9.9489(12)
_cell_length_b                   10.3474(13)
_cell_length_c                   10.6354(13)
_cell_angle_alpha                96.506(2)
_cell_angle_beta                 110.941(2)
_cell_angle_gamma                113.864(2)
_cell_volume                     891.478
_exptl_crystal_colour            colorless
_exptl_crystal_description       prism
_cell_formula_units_Z            2
loop_
_atom_site_label
_atom_site_type_symbol
_atom_site_fract_x
_atom_site_fract_y
_atom_site_fract_z
O1 O 0.34772(11) 0.80553(10) 0.27108(10)
O2 O 0.39496(12) 0.93888(11) 0.69617(10)
H1 H 0.488(2) 1.028(2) 0.7204(19)
F1 F -0.52249(11) 0.38260(11) -0.13460(10)
C1 C 0.05629(15) 0.69177(13) 0.35106(12)
H2 H -0.0504 0.6228 0.3487
N1 N 0.07526(15) 0.65485(12) 0.67270(12)
N2 N 0.13151(13) 0.76799(12) 0.06727(11)
C2 C -0.31875(18) 0.56836(17) -0.17160(15)
H3 H -0.4003 0.5589 -0.2586
C3 C -0.36177(17) 0.48208(16) -0.08878(15)
C4 C -0.24979(17) 0.48991(15) 0.03990(14)
H4 H -0.2836 0.4292 0.0948
C5 C -0.08691(16) 0.59037(13) 0.08402(13)
C6 C 0.06438(15) 0.62881(13) 0.21594(13)
H5 H 0.0797 0.5395 0.2213
C7 C 0.07155(15) 0.84536(13) 0.36634(13)
C8 C -0.04575(17) 0.88288(14) 0.28965(13)
H6 H -0.1504 0.8089 0.2186
C9 C -0.00556(18) 1.03189(15) 0.31991(14)
H7 H -0.0848 1.0596 0.2703
C10 C 0.14884(18) 1.14085(14) 0.42176(14)
H8 H 0.1750 1.2422 0.4386
C11 C 0.20087(15) 0.71873(13) 0.49481(13)
C12 C 0.32732(15) 0.88838(13) 0.54775(13)
H9 H 0.4160 0.9054 0.5177
C13 C 0.22336(16) 0.95335(13) 0.47101(13)
C14 C 0.26497(17) 1.10294(14) 0.49897(14)
H10 H 0.3702 1.1770 0.5691
C15 C 0.28148(16) 0.62667(14) 0.48968(13)
N3 N 0.34645(16) 0.55717(14) 0.49222(13)
C16 C 0.13247(16) 0.68551(13) 0.59714(13)
C17 C -0.15429(17) 0.66982(15) -0.12656(14)
H11 H -0.1211 0.7311 -0.1813
C18 C -0.04093(16) 0.67808(14) 0.00093(13)
C19 C 0.20017(16) 0.74369(13) 0.19117(13)
C20 C 0.22636(17) 0.87489(15) 0.01284(14)
H12 H 0.1718 0.8380 -0.0916
H13 H 0.3368 0.8831 0.0458
C21 C 0.2439(2) 1.02748(16) 0.05997(17)
H14 H 0.1354 1.0214 0.0211
H15 H 0.3136 1.0965 0.0259
H16 H 0.2940 1.0629 0.1633
loop_
_geom_bond_atom_site_label_1
_geom_bond_atom_site_label_2
_geom_bond_site_symmetry_1
_geom_bond_site_symmetry_2
O1 C19 1_555 1_555
O2 H1 1_555 1_555
F1 C3 1_555 1_555
C1 H2 1_555 1_555
N1 C16 1_555 1_555
N2 C18 1_555 1_555
C2 H3 1_555 1_555
C3 C2 1_555 1_555
C4 C3 1_555 1_555
H4 C4 1_555 1_555
C5 C4 1_555 1_555
C6 C1 1_555 1_555
H5 C6 1_555 1_555
C7 C1 1_555 1_555
C8 C7 1_555 1_555
H6 C8 1_555 1_555
C9 C8 1_555 1_555
H7 C9 1_555 1_555
C10 C9 1_555 1_555
H8 C10 1_555 1_555
C11 C1 1_555 1_555
C12 O2 1_555 1_555
H9 C12 1_555 1_555
C13 C7 1_555 1_555
C14 C10 1_555 1_555
H10 C14 1_555 1_555
C15 C11 1_555 1_555
N3 C15 1_555 1_555
C16 C11 1_555 1_555
C17 C2 1_555 1_555
H11 C17 1_555 1_555
C18 C5 1_555 1_555
C19 N2 1_555 1_555
C20 N2 1_555 1_555
H12 C20 1_555 1_555
H13 C20 1_555 1_555
C21 C20 1_555 1_555
H14 C21 1_555 1_555
H15 C21 1_555 1_555
H16 C21 1_555 1_555
C5 C6 1_555 1_555
C6 C19 1_555 1_555
C11 C12 1_555 1_555
C12 C13 1_555 1_555
C13 C14 1_555 1_555
C17 C18 1_555 1_555

#END
