
#######################################################################
#
#                 Cambridge Crystallographic Data Centre
#                                CCDC 
#
#######################################################################
#
# If this CIF has been generated from an entry in the Cambridge 
# Structural Database, then it will include bibliographic, chemical, 
# crystal, experimental, refinement or atomic coordinate data resulting 
# from the CCDC's data processing and validation procedures.
#
#######################################################################

data_TEXXEB
_chemical_formula_moiety         'C21 H14 N4'
_chemical_name_systematic        
N^5^-(Pyren-1-ylmethylene)pyrimidine-4,5-diamine
_symmetry_cell_setting           monoclinic
_symmetry_space_group_name_H-M   'P 2/c'
_symmetry_Int_Tables_number      13
_space_group_name_Hall           '-P 2yc'
loop_
_symmetry_equiv_pos_site_id
_symmetry_equiv_pos_as_xyz
1 x,y,z
2 -x,y,1/2-z
3 -x,-y,-z
4 x,-y,1/2+z
_cell_length_a                   25.4796(32)
_cell_length_b                   6.8649(7)
_cell_length_c                   8.9741(11)
_cell_angle_alpha                90
_cell_angle_beta                 99.204(7)
_cell_angle_gamma                90
_cell_volume                     1549.49
_exptl_crystal_colour            orange
_exptl_crystal_description       plate
_cell_formula_units_Z            4
loop_
_atom_site_label
_atom_site_type_symbol
_atom_site_fract_x
_atom_site_fract_y
_atom_site_fract_z
C1 C 0.71207(5) 0.36312(17) 0.63766(14)
C2 C 0.68610(5) 0.19406(18) 0.57755(15)
H1 H 0.6501 0.1781 0.5819
C3 C 0.71279(5) 0.05070(19) 0.51196(16)
H2 H 0.6945 -0.0593 0.4717
C4 C 0.76704(6) 0.06900(19) 0.50530(15)
C5 C 0.79587(6) -0.0779(2) 0.43810(17)
H3 H 0.7778 -0.1875 0.396
C6 C 0.84830(6) -0.0613(2) 0.43447(18)
H4 H 0.8656 -0.1592 0.3898
C7 C 0.87787(6) 0.1047(2) 0.49819(16)
C8 C 0.93247(6) 0.1258(2) 0.49653(19)
H5 H 0.9507 0.0289 0.4535
C9 C 0.95962(6) 0.2888(3) 0.5580(2)
H6 H 0.9959 0.3003 0.5561
C10 C 0.93328(6) 0.4347(3) 0.6223(2)
H7 H 0.9521 0.5434 0.6633
C11 C 0.87876(6) 0.4212(2) 0.62665(17)
C12 C 0.85013(6) 0.5684(2) 0.69290(18)
H8 H 0.8683 0.6777 0.735
C13 C 0.79751(6) 0.5535(2) 0.69619(17)
H9 H 0.7805 0.6529 0.7402
C14 C 0.76706(5) 0.38775(18) 0.63321(15)
C15 C 0.79464(5) 0.23796(18) 0.56702(14)
C16 C 0.85032(5) 0.2547(2) 0.56359(15)
C17 C 0.68093(5) 0.50944(18) 0.70557(15)
H10 H 0.6990(6) 0.633(2) 0.7433(17)
C18 C 0.60347(5) 0.62706(17) 0.77506(15)
C19 C 0.56388(5) 0.57372(17) 0.86314(15)
C20 C 0.54773(6) 0.89778(19) 0.89064(18)
H11 H 0.5298 0.9931 0.9361
C21 C 0.60840(5) 0.82186(18) 0.74441(15)
H12 H 0.632 0.8581 0.6802
N1 N 0.63235(4) 0.47724(15) 0.71835(12)
N2 N 0.55397(5) 0.38746(15) 0.89113(14)
H13 H 0.5692(6) 0.296(2) 0.8440(18)
H14 H 0.5270(7) 0.359(2) 0.9380(18)
N3 N 0.53647(5) 0.71407(15) 0.92345(14)
N4 N 0.58091(5) 0.96328(15) 0.80237(14)
loop_
_geom_bond_atom_site_label_1
_geom_bond_atom_site_label_2
_geom_bond_site_symmetry_1
_geom_bond_site_symmetry_2
C1 C2 1_555 1_555
C2 H1 1_555 1_555
C3 C2 1_555 1_555
H2 C3 1_555 1_555
C4 C3 1_555 1_555
C5 C4 1_555 1_555
H3 C5 1_555 1_555
C6 C5 1_555 1_555
H4 C6 1_555 1_555
C7 C6 1_555 1_555
C8 C7 1_555 1_555
H5 C8 1_555 1_555
C9 C8 1_555 1_555
H6 C9 1_555 1_555
C10 C9 1_555 1_555
H7 C10 1_555 1_555
C11 C10 1_555 1_555
C12 C11 1_555 1_555
H8 C12 1_555 1_555
C13 C12 1_555 1_555
H9 C13 1_555 1_555
C14 C1 1_555 1_555
C15 C4 1_555 1_555
C16 C7 1_555 1_555
C17 C1 1_555 1_555
H10 C17 1_555 1_555
C18 C19 1_555 1_555
C19 N2 1_555 1_555
C20 H11 1_555 1_555
C21 C18 1_555 1_555
H12 C21 1_555 1_555
N1 C17 1_555 1_555
N2 H13 1_555 1_555
H14 N2 1_555 1_555
N3 C19 1_555 1_555
N4 C20 1_555 1_555
C11 C16 1_555 1_555
C13 C14 1_555 1_555
C14 C15 1_555 1_555
C15 C16 1_555 1_555
C18 N1 1_555 1_555
C20 N3 1_555 1_555
C21 N4 1_555 1_555

#END
