
#######################################################################
#
#                 Cambridge Crystallographic Data Centre
#                                CCDC 
#
#######################################################################
#
# If this CIF has been generated from an entry in the Cambridge 
# Structural Database, then it will include bibliographic, chemical, 
# crystal, experimental, refinement or atomic coordinate data resulting 
# from the CCDC's data processing and validation procedures.
#
#######################################################################

data_TEXZEE
_chemical_formula_moiety         'C18 H15 Cl2 N3 O4'
_chemical_name_systematic        
3-(3,4-dichlorophenyl)-1-(2-methoxyethyl)-5-(4-nitrophenoxy)-1H-pyrazole
_symmetry_cell_setting           triclinic
_symmetry_space_group_name_H-M   'P -1'
_symmetry_Int_Tables_number      2
_space_group_name_Hall           '-P 1'
loop_
_symmetry_equiv_pos_site_id
_symmetry_equiv_pos_as_xyz
1 x,y,z
2 -x,-y,-z
_cell_length_a                   9.0482(7)
_cell_length_b                   9.5333(7)
_cell_length_c                   11.7435(10)
_cell_angle_alpha                97.328(6)
_cell_angle_beta                 101.653(7)
_cell_angle_gamma                108.175(7)
_cell_volume                     922.633
_exptl_crystal_colour            colorless
_exptl_crystal_description       Parallelepiped
_chemical_melting_point          '83.6-84.0 deg.C'
_cell_formula_units_Z            2
loop_
_atom_site_label
_atom_site_type_symbol
_atom_site_fract_x
_atom_site_fract_y
_atom_site_fract_z
Cl1 Cl -0.28769(7) 0.15546(7) 0.22338(5)
Cl2 Cl -0.12205(8) 0.47569(8) 0.16657(6)
O1 O 0.72403(18) 0.71019(19) 0.74742(13)
O2 O 0.6741(2) 0.7839(2) 1.27448(14)
O3 O 0.6966(2) 1.01944(19) 0.79827(14)
O4 O 0.9325(2) 0.8771(2) 1.29943(14)
N1 N 0.7945(3) 0.8170(2) 1.23501(18)
N2 N 0.5612(2) 0.7708(2) 0.59525(16)
N3 N 0.4159(2) 0.7130(2) 0.51380(16)
C1 C 0.7731(3) 0.7851(2) 1.10699(19)
C2 C 0.7310(3) 0.7300(3) 0.86662(19)
C3 C 0.6195(3) 0.7152(3) 1.0340(2)
H1 H 0.5296 0.6856 1.0670
C4 C 0.5982(3) 0.6890(3) 0.9123(2)
H2 H 0.4932 0.6432 0.8606
C5 C 0.1882(3) 0.4769(3) 0.46167(19)
C6 C 0.9072(3) 0.8245(3) 1.0625(2)
H3 H 1.0121 0.8700 1.1145
C7 C -0.0326(3) 0.4191(3) 0.2895(2)
C8 C -0.0317(3) 0.2390(3) 0.4133(2)
H4 H -0.0810 0.1436 0.4311
C9 C 0.4457(3) 0.5479(3) 0.63219(19)
H5 H 0.4242 0.4601 0.6654
C10 C 0.3466(3) 0.5779(3) 0.53715(19)
C11 C -0.1058(3) 0.2798(3) 0.3143(2)
C12 C 0.8855(3) 0.7961(3) 0.9408(2)
H6 H 0.9758 0.8218 0.9081
C13 C 0.1126(3) 0.5171(3) 0.3625(2)
H7 H 0.1610 0.6127 0.3448
C14 C 0.5787(3) 0.6733(3) 0.66535(19)
C15 C 0.1134(3) 0.3365(3) 0.4863(2)
H8 H 0.1631 0.3075 0.5542
C16 C 0.6736(3) 0.9188(3) 0.5984(2)
H9 H 0.6574 0.9400 0.5173
H10 H 0.7848 0.9187 0.6237
C17 C 0.6546(3) 1.0413(3) 0.6809(2)
H11 H 0.7253 1.1410 0.6740
H12 H 0.5418 1.0382 0.6601
C18 C 0.6747(4) 1.1243(4) 0.8835(3)
H13 H 0.7490 1.2256 0.8870
H14 H 0.6963 1.0976 0.9615
H15 H 0.5637 1.1225 0.8612
loop_
_geom_bond_atom_site_label_1
_geom_bond_atom_site_label_2
_geom_bond_site_symmetry_1
_geom_bond_site_symmetry_2
Cl1 C11 1_555 1_555
Cl2 C7 1_555 1_555
O1 C2 1_555 1_555
O2 N1 1_555 1_555
O3 C17 1_555 1_555
O4 N1 1_555 1_555
N1 C1 1_555 1_555
N2 N3 1_555 1_555
N3 C10 1_555 1_555
C1 C3 1_555 1_555
C2 C4 1_555 1_555
C3 H1 1_555 1_555
C4 C3 1_555 1_555
H2 C4 1_555 1_555
C5 C10 1_555 1_555
C6 C1 1_555 1_555
H3 C6 1_555 1_555
C7 C11 1_555 1_555
C8 H4 1_555 1_555
C9 H5 1_555 1_555
C10 C9 1_555 1_555
C11 C8 1_555 1_555
C12 C2 1_555 1_555
H6 C12 1_555 1_555
C13 C5 1_555 1_555
H7 C13 1_555 1_555
C14 O1 1_555 1_555
C15 C5 1_555 1_555
H8 C15 1_555 1_555
C16 N2 1_555 1_555
H9 C16 1_555 1_555
H10 C16 1_555 1_555
C17 C16 1_555 1_555
H11 C17 1_555 1_555
H12 C17 1_555 1_555
C18 O3 1_555 1_555
H13 C18 1_555 1_555
H14 C18 1_555 1_555
H15 C18 1_555 1_555
N2 C14 1_555 1_555
C6 C12 1_555 1_555
C7 C13 1_555 1_555
C8 C15 1_555 1_555
C9 C14 1_555 1_555

#END
