
#######################################################################
#
#                 Cambridge Crystallographic Data Centre
#                                CCDC 
#
#######################################################################
#
# If this CIF has been generated from an entry in the Cambridge 
# Structural Database, then it will include bibliographic, chemical, 
# crystal, experimental, refinement or atomic coordinate data resulting 
# from the CCDC's data processing and validation procedures.
#
#######################################################################

data_TEYDAC
_chemical_formula_moiety         'C10 H13 F1 N2 O5'
_chemical_name_systematic        
1-(2-Deoxy-2-fluoro-\b-L-arabinofuranosyl)thymine
_chemical_properties_biological  'potent antihepatitis B virus activity'
_symmetry_cell_setting           monoclinic
_symmetry_space_group_name_H-M   'P 21'
_symmetry_Int_Tables_number      4
_space_group_name_Hall           'P 2yb'
loop_
_symmetry_equiv_pos_site_id
_symmetry_equiv_pos_as_xyz
1 x,y,z
2 -x,1/2+y,-z
_cell_length_a                   10.4326
_cell_length_b                   10.8549
_cell_length_c                   10.5575
_cell_angle_alpha                90
_cell_angle_beta                 108.8716
_cell_angle_gamma                90
_cell_volume                     1131.31
_exptl_crystal_colour            colorless
_chemical_melting_point          184-185deg.C
_cell_formula_units_Z            4
loop_
_atom_site_label
_atom_site_type_symbol
_atom_site_fract_x
_atom_site_fract_y
_atom_site_fract_z
F1 F -0.1152(3) 0.0000 -0.0950(3)
O1 O -0.3998(3) -0.4669(3) -0.0515(2)
O2 O -0.5055(3) -0.0909(3) -0.2368(3)
O3 O -0.2514(2) 0.0737(3) 0.0890(2)
O4 O -0.2145(3) 0.2950(4) -0.1429(3)
O5 O 0.0141(4) 0.1976(5) 0.2247(4)
N1 N -0.3347(3) -0.1041(4) -0.0376(3)
N2 N -0.4574(3) -0.2761(3) -0.1333(3)
C1 C -0.3139(3) 0.0304(4) -0.0405(3)
C2 C -0.4396(3) -0.1524(4) -0.1410(3)
C3 C -0.2241(4) 0.0701(5) -0.1223(4)
C4 C -0.1667(3) 0.1935(4) -0.0540(3)
C5 C -0.3743(3) -0.3549(4) -0.0417(3)
C6 C -0.2103(3) 0.1984(4) 0.0716(3)
C7 C -0.2621(3) -0.2990(4) 0.0590(3)
C8 C -0.1034(5) 0.2421(5) 0.1996(5)
C9 C -0.2459(3) -0.1773(4) 0.0574(3)
C10 C -0.1654(4) -0.3819(4) 0.1577(4)
F2 F -0.6307(2) -0.8304(3) -0.6260(2)
O6 O -0.6746(2) -0.3798(3) -0.3490(2)
O7 O -0.4929(2) -0.7539(3) -0.2125(2)
O8 O -0.7986(2) -0.9284(3) -0.4786(2)
O9 O -0.5529(2) -1.1360(3) -0.5167(3)
O10 O -0.9395(3) -1.0582(4) -0.7397(3)
N3 N -0.6802(3) -0.7456(4) -0.3989(2)
N4 N -0.5949(3) -0.5694(3) -0.2778(3)
C11 C -0.6683(3) -0.8778(4) -0.4183(3)
C12 C -0.5819(3) -0.6940(4) -0.2617(3)
C13 C -0.5921(3) -0.9104(4) -0.5152(4)
C14 C -0.6496(3) -1.0394(4) -0.5640(3)
C15 C -0.6835(3) -0.4921(4) -0.3666(3)
C16 C -0.7704(3) -1.0523(4) -0.5140(3)
C17 C -0.7814(3) -0.5513(4) -0.4791(3)
C18 C -0.8954(4) -1.1097(5) -0.6106(5)
C19 C -0.7749(3) -0.6752(4) -0.4921(3)
C20 C -0.8846(4) -0.4743(4) -0.5759(4)
loop_
_geom_bond_atom_site_label_1
_geom_bond_atom_site_label_2
_geom_bond_site_symmetry_1
_geom_bond_site_symmetry_2
F1 C3 1_555 1_555
O1 C5 1_555 1_555
O2 C2 1_555 1_555
O3 C1 1_555 1_555
O4 C4 1_555 1_555
O5 C8 1_555 1_555
N1 C1 1_555 1_555
N2 C2 1_555 1_555
C1 C3 1_555 1_555
C2 N1 1_555 1_555
C3 C4 1_555 1_555
C4 C6 1_555 1_555
C5 N2 1_555 1_555
C6 O3 1_555 1_555
C7 C5 1_555 1_555
C8 C6 1_555 1_555
C9 N1 1_555 1_555
C10 C7 1_555 1_555
F2 C13 1_555 1_555
O6 C15 1_555 1_555
O7 C12 1_555 1_555
O8 C11 1_555 1_555
O9 C14 1_555 1_555
O10 C18 1_555 1_555
N3 C11 1_555 1_555
N4 C12 1_555 1_555
C11 C13 1_555 1_555
C12 N3 1_555 1_555
C13 C14 1_555 1_555
C14 C16 1_555 1_555
C15 N4 1_555 1_555
C16 O8 1_555 1_555
C17 C15 1_555 1_555
C18 C16 1_555 1_555
C19 N3 1_555 1_555
C20 C17 1_555 1_555
C7 C9 1_555 1_555
C17 C19 1_555 1_555

#END
