
#######################################################################
#
#                 Cambridge Crystallographic Data Centre
#                                CCDC 
#
#######################################################################
#
# If this CIF has been generated from an entry in the Cambridge 
# Structural Database, then it will include bibliographic, chemical, 
# crystal, experimental, refinement or atomic coordinate data resulting 
# from the CCDC's data processing and validation procedures.
#
#######################################################################

data_TEYHIQ01
_chemical_formula_moiety         'C29 H30 O3'
_chemical_name_systematic        
(4b,8b,12b,12d-Tetramethyl-4b,8b,12b,12d-tetrahydrodibenzo[2,3:4,5]pentaleno[1,6-ab]indene-2,6,10-triyl)trimethanol
_symmetry_cell_setting           triclinic
_symmetry_space_group_name_H-M   'P -1'
_symmetry_Int_Tables_number      2
_space_group_name_Hall           '-P 1'
loop_
_symmetry_equiv_pos_site_id
_symmetry_equiv_pos_as_xyz
1 x,y,z
2 -x,-y,-z
_cell_length_a                   8.642(4)
_cell_length_b                   11.335(5)
_cell_length_c                   12.752(6)
_cell_angle_alpha                101.855(8)
_cell_angle_beta                 101.090(7)
_cell_angle_gamma                108.971(7)
_cell_volume                     1109.86
_exptl_crystal_colour            colorless
_exptl_crystal_description       block
_cell_formula_units_Z            2
loop_
_atom_site_label
_atom_site_type_symbol
_atom_site_fract_x
_atom_site_fract_y
_atom_site_fract_z
C1 C 0.6093(9) 0.7055(6) 0.2541(6)
H1 H 0.6656 0.6516 0.2224
H2 H 0.6209 0.7741 0.2180
C2 C 0.4231(7) 0.6235(5) 0.2284(5)
C3 C 0.3626(8) 0.4877(6) 0.1894(5)
H3 H 0.4378 0.4464 0.1790
C4 C 0.1891(7) 0.4142(5) 0.1660(4)
C5 C 0.0761(7) 0.4749(5) 0.1816(4)
C6 C 0.1369(8) 0.6102(5) 0.2202(5)
H4 H 0.0619 0.6517 0.2305
C7 C 0.3082(8) 0.6823(6) 0.2433(5)
H5 H 0.3476 0.7726 0.2694
C8 C 0.1974(8) -0.0408(6) 0.4198(5)
H6 H 0.0998 -0.0616 0.4494
H7 H 0.1992 -0.1220 0.3781
C9 C 0.1789(7) 0.0419(5) 0.3418(5)
C10 C 0.3152(8) 0.1054(6) 0.3048(6)
H8 H 0.4193 0.0979 0.3288
C11 C 0.2986(8) 0.1798(6) 0.2326(6)
H9 H 0.3907 0.2212 0.2080
C12 C 0.1431(7) 0.1922(5) 0.1971(5)
C13 C 0.0061(7) 0.1299(5) 0.2332(5)
C14 C 0.0234(7) 0.0543(5) 0.3051(5)
H10 H -0.0693 0.0119 0.3287
C15 C -0.2250(8) 0.5535(7) 0.5206(5)
H11 H -0.2319 0.5269 0.5877
H12 H -0.1218 0.6306 0.5397
C16 C -0.2139(7) 0.4471(6) 0.4352(5)
C17 C -0.1719(7) 0.4679(6) 0.3388(5)
H13 H -0.1549 0.5484 0.3260
C18 C -0.1550(6) 0.3705(5) 0.2612(4)
C19 C -0.1808(6) 0.2501(5) 0.2795(5)
C20 C -0.2267(8) 0.2259(6) 0.3735(5)
H14 H -0.2476 0.1442 0.3847
C21 C -0.2415(7) 0.3248(7) 0.4512(5)
H15 H -0.2703 0.3089 0.5149
C22 C 0.0999(7) 0.2670(5) 0.1167(4)
C23 C -0.1489(7) 0.1581(5) 0.1889(5)
C24 C -0.1075(7) 0.3779(5) 0.1539(4)
C25 C -0.0964(7) 0.2408(5) 0.1058(4)
C26 C 0.1448(9) 0.2240(6) 0.0082(5)
H16 H 0.2640 0.2393 0.0249
H17 H 0.1192 0.2729 -0.0411
H18 H 0.0792 0.1328 -0.0270
C27 C -0.3105(7) 0.0313(6) 0.1393(6)
H19 H -0.2930 -0.0272 0.0810
H20 H -0.4061 0.0517 0.1093
H21 H -0.3325 -0.0093 0.1968
C28 C -0.2298(8) 0.4167(6) 0.0775(5)
H22 H -0.3441 0.3549 0.0613
H23 H -0.1988 0.4176 0.0092
H24 H -0.2231 0.5019 0.1141
C29 C -0.2073(9) 0.1725(7) -0.0149(5)
H25 H -0.1707 0.2265 -0.0614
H26 H -0.3242 0.1577 -0.0182
H27 H -0.1964 0.0906 -0.0407
O1 O 0.6930(8) 0.7628(6) 0.3698(5)
H28 H 0.6748 0.8289 0.3919
O2 O 0.3505(7) 0.0253(5) 0.5104(5)
H29 H 0.4020 -0.0234 0.5163
O3 O -0.3661(7) 0.5851(6) 0.4842(5)
H30 H -0.3421 0.6371 0.4480
loop_
_geom_bond_atom_site_label_1
_geom_bond_atom_site_label_2
_geom_bond_site_symmetry_1
_geom_bond_site_symmetry_2
C1 H1 1_555 1_555
H2 C1 1_555 1_555
C2 C1 1_555 1_555
C3 C2 1_555 1_555
H3 C3 1_555 1_555
C4 C3 1_555 1_555
C5 C4 1_555 1_555
C6 C5 1_555 1_555
H4 C6 1_555 1_555
C7 C2 1_555 1_555
H5 C7 1_555 1_555
C8 H6 1_555 1_555
H7 C8 1_555 1_555
C9 C8 1_555 1_555
C10 C9 1_555 1_555
H8 C10 1_555 1_555
C11 C10 1_555 1_555
H9 C11 1_555 1_555
C12 C11 1_555 1_555
C13 C12 1_555 1_555
C14 C9 1_555 1_555
H10 C14 1_555 1_555
C15 H11 1_555 1_555
H12 C15 1_555 1_555
C16 C15 1_555 1_555
C17 C16 1_555 1_555
H13 C17 1_555 1_555
C18 C17 1_555 1_555
C19 C18 1_555 1_555
C20 C19 1_555 1_555
H14 C20 1_555 1_555
C21 C16 1_555 1_555
H15 C21 1_555 1_555
C22 C4 1_555 1_555
C23 C13 1_555 1_555
C24 C5 1_555 1_555
C25 C22 1_555 1_555
C26 C22 1_555 1_555
H16 C26 1_555 1_555
H17 C26 1_555 1_555
H18 C26 1_555 1_555
C27 C23 1_555 1_555
H19 C27 1_555 1_555
H20 C27 1_555 1_555
H21 C27 1_555 1_555
C28 C24 1_555 1_555
H22 C28 1_555 1_555
H23 C28 1_555 1_555
H24 C28 1_555 1_555
C29 C25 1_555 1_555
H25 C29 1_555 1_555
H26 C29 1_555 1_555
H27 C29 1_555 1_555
O1 C1 1_555 1_555
H28 O1 1_555 1_555
O2 C8 1_555 1_555
H29 O2 1_555 1_555
O3 C15 1_555 1_555
H30 O3 1_555 1_555
C6 C7 1_555 1_555
C12 C22 1_555 1_555
C13 C14 1_555 1_555
C18 C24 1_555 1_555
C19 C23 1_555 1_555
C20 C21 1_555 1_555
C23 C25 1_555 1_555
C24 C25 1_555 1_555

#END
