
#######################################################################
#
#                 Cambridge Crystallographic Data Centre
#                                CCDC 
#
#######################################################################
#
# If this CIF has been generated from an entry in the Cambridge 
# Structural Database, then it will include bibliographic, chemical, 
# crystal, experimental, refinement or atomic coordinate data resulting 
# from the CCDC's data processing and validation procedures.
#
#######################################################################

data_TEYHOW
_chemical_formula_moiety         'C29 H30 O3,C1 H4 O1'
_chemical_name_systematic        
'(+-)-(4b,8b,12b,12d-Tetramethyl-4b,8b,12b,12d-tetrahydrodibenzo[2,3:4,5]pentaleno[1,6-ab]indene-2,6,10-triyl)trimethanol methanol solvate'
_symmetry_cell_setting           trigonal
_symmetry_space_group_name_H-M   'P -3'
_symmetry_Int_Tables_number      147
_space_group_name_Hall           '-P 3'
loop_
_symmetry_equiv_pos_site_id
_symmetry_equiv_pos_as_xyz
1 x,y,z
2 -y,x-y,z
3 -x+y,-x,z
4 -x,-y,-z
5 y,-x+y,-z
6 x-y,x,-z
_cell_length_a                   11.9000(9)
_cell_length_b                   11.9000(9)
_cell_length_c                   9.9832(7)
_cell_angle_alpha                90
_cell_angle_beta                 90
_cell_angle_gamma                120
_cell_volume                     1224.32
_exptl_crystal_colour            colorless
_exptl_crystal_description       block
_cell_formula_units_Z            2
_exptl_crystal_recrystallization_method methanol/dichloromethane
loop_
_atom_site_label
_atom_site_type_symbol
_atom_site_fract_x
_atom_site_fract_y
_atom_site_fract_z
C1 C 0.5448(2) 0.14495(19) 0.69411(19)
C2 C 0.4497(2) 0.0397(2) 0.7654(2)
H1 H 0.3645 0.0229 0.7657
C3 C 0.52649(19) 0.24011(19) 0.60885(19)
C4 C 0.49867(19) 0.32920(19) 0.69447(19)
C5 C 0.3852(2) 0.2962(2) 0.7645(2)
H2 H 0.3169 0.2110 0.7637
C6 C 0.3738(2) 0.3907(2) 0.8361(2)
C7 C 0.4776(2) 0.5172(2) 0.8359(2)
H3 H 0.4713 0.5808 0.8839
C8 C 0.2507(2) 0.3627(2) 0.9053(3)
H4 H 0.2710 0.4265 0.9755
H5 H 0.1942 0.3714 0.8414
C9 C 0.6667 0.3333 0.5482(3)
C10 C 0.6667 0.3333 0.3956(4)
H6 H 0.7508 0.3972 0.3635
C11 C 0.4165(2) 0.1662(2) 0.5070(2)
H7 H 0.3368 0.1126 0.5539
H8 H 0.4369 0.1128 0.4518
H9 H 0.4073 0.2272 0.4519
O1 O 0.18547(19) 0.23905(19) 0.9612(2)
H10 H 0.1115 0.2210 0.9813
C1A C 0.85505(19) 0.39985(28) 0.69411(19)
C2A C 0.9603(2) 0.4100(3) 0.7654(2)
H1A H 0.9771 0.3416 0.7657
C3A C 0.75989(19) 0.28638(27) 0.60885(19)
C4A C 0.67080(19) 0.16947(27) 0.69447(19)
C5A C 0.7038(2) 0.0890(3) 0.7645(2)
H2A H 0.7890 0.1059 0.7637
C6A C 0.6093(2) -0.0169(3) 0.8361(2)
C7A C 0.4828(2) -0.0396(3) 0.8359(2)
H3A H 0.4192 -0.1095 0.8839
C8A C 0.6373(2) -0.1120(3) 0.9053(3)
H4A H 0.5735 -0.1555 0.9755
H5A H 0.6286 -0.1772 0.8414
H6A H 0.6028 0.3536 0.3635
C11A C 0.8338(2) 0.2503(3) 0.5070(2)
H7A H 0.8874 0.2242 0.5539
H8A H 0.8872 0.3241 0.4518
H9A H 0.7728 0.1801 0.4519
O1A O 0.76095(19) -0.05358(27) 0.9612(2)
H10A H 0.7790 -0.1095 0.9813
C1B C 0.60015(28) 0.4552(2) 0.69411(19)
C2B C 0.5900(3) 0.5503(2) 0.7654(2)
H1B H 0.6584 0.6355 0.7657
C3B C 0.71362(27) 0.47351(19) 0.60885(19)
C4B C 0.83053(27) 0.50133(19) 0.69447(19)
C5B C 0.9110(3) 0.6148(2) 0.7645(2)
H2B H 0.8941 0.6831 0.7637
C6B C 1.0169(3) 0.6262(2) 0.8361(2)
C7B C 1.0396(3) 0.5224(2) 0.8359(2)
H3B H 1.1095 0.5287 0.8839
C8B C 1.1120(3) 0.7493(2) 0.9053(3)
H4B H 1.1555 0.7290 0.9755
H5B H 1.1772 0.8058 0.8414
H6B H 0.6464 0.2492 0.3635
C11B C 0.7497(3) 0.5835(2) 0.5070(2)
H7B H 0.7758 0.6632 0.5539
H8B H 0.6759 0.5631 0.4518
H9B H 0.8199 0.5927 0.4519
O1B O 1.05358(27) 0.81453(19) 0.9612(2)
H10B H 1.1095 0.8885 0.9813
H11? H 0.7508 0.3972 0.3635
H12? H 0.7508 0.3972 0.3635
C12? C 0.8886(13) 0.9329(15) 0.629(2)
O2? O 1.0000 1.0000 0.6880(16)
loop_
_geom_bond_atom_site_label_1
_geom_bond_atom_site_label_2
_geom_bond_site_symmetry_1
_geom_bond_site_symmetry_2
C1 C2 1_555 1_555
C2 H1 1_555 1_555
C3 C1 1_555 1_555
C4 C3 1_555 1_555
C5 C4 1_555 1_555
H2 C5 1_555 1_555
C6 C5 1_555 1_555
C7 C6 1_555 1_555
H3 C7 1_555 1_555
C8 C6 1_555 1_555
H4 C8 1_555 1_555
H5 C8 1_555 1_555
C9 C3 1_555 1_555
C10 C9 1_555 1_555
H6 C10 1_555 1_555
C11 C3 1_555 1_555
H7 C11 1_555 1_555
H8 C11 1_555 1_555
H9 C11 1_555 1_555
O1 C8 1_555 1_555
H10 O1 1_555 1_555
C1A C2A 1_555 1_555
C2A H1A 1_555 1_555
C3A C9 1_555 1_555
C4A C1 1_555 1_555
C5A C4A 1_555 1_555
H2A C5A 1_555 1_555
C6A C5A 1_555 1_555
C7A C2 1_555 1_555
H3A C7A 1_555 1_555
C8A C6A 1_555 1_555
H4A C8A 1_555 1_555
H5A C8A 1_555 1_555
H6A C10 1_555 1_555
C11A C3A 1_555 1_555
H7A C11A 1_555 1_555
H8A C11A 1_555 1_555
H9A C11A 1_555 1_555
O1A C8A 1_555 1_555
H10A O1A 1_555 1_555
C1B C4 1_555 1_555
C2B C7 1_555 1_555
H1B C2B 1_555 1_555
C3B C9 1_555 1_555
C4B C1A 1_555 1_555
C5B C4B 1_555 1_555
H2B C5B 1_555 1_555
C6B C5B 1_555 1_555
C7B C2A 1_555 1_555
H3B C7B 1_555 1_555
C8B C6B 1_555 1_555
H4B C8B 1_555 1_555
H5B C8B 1_555 1_555
H6B C10 1_555 1_555
C11B C3B 1_555 1_555
H7B C11B 1_555 1_555
H8B C11B 1_555 1_555
H9B C11B 1_555 1_555
O1B C8B 1_555 1_555
H10B O1B 1_555 1_555
C1A C3A 1_555 1_555
C3A C4A 1_555 1_555
C6A C7A 1_555 1_555
C1B C2B 1_555 1_555
C1B C3B 1_555 1_555
C3B C4B 1_555 1_555
C6B C7B 1_555 1_555

#END
