
#######################################################################
#
#                 Cambridge Crystallographic Data Centre
#                                CCDC 
#
#######################################################################
#
# If this CIF has been generated from an entry in the Cambridge 
# Structural Database, then it will include bibliographic, chemical, 
# crystal, experimental, refinement or atomic coordinate data resulting 
# from the CCDC's data processing and validation procedures.
#
#######################################################################

data_TEYPOD
_chemical_formula_moiety         'C17 H18 N2 O4'
_chemical_name_systematic        
'7a-cyano-octahydro-1-H-inden-1-yl 4-nitrobenzoate'
_symmetry_cell_setting           monoclinic
_symmetry_space_group_name_H-M   'P 21/c'
_symmetry_Int_Tables_number      14
_space_group_name_Hall           '-P 2ybc'
loop_
_symmetry_equiv_pos_site_id
_symmetry_equiv_pos_as_xyz
1 x,y,z
2 -x,1/2+y,1/2-z
3 -x,-y,-z
4 x,1/2-y,1/2+z
_cell_length_a                   11.6040(5)
_cell_length_b                   13.2810(6)
_cell_length_c                   10.7820(5)
_cell_angle_alpha                90
_cell_angle_beta                 111.354(2)
_cell_angle_gamma                90
_cell_volume                     1547.57
_exptl_crystal_colour            colorless
_exptl_crystal_description       plate
_cell_formula_units_Z            4
loop_
_atom_site_label
_atom_site_type_symbol
_atom_site_fract_x
_atom_site_fract_y
_atom_site_fract_z
C1 C 0.7811(3) 0.0228(2) 0.5624(3)
C2 C 0.8177(3) 0.0610(2) 0.4481(3)
H1 H 0.8647 0.0106 0.4196
C3 C 0.8930(3) 0.1544(2) 0.5036(3)
H2 H 0.8801 0.2042 0.4342
H3 H 0.9805 0.1382 0.5414
C4 C 0.8480(3) 0.1945(2) 0.6121(3)
H4 H 0.8139 0.2616 0.5896
H5 H 0.9161 0.1973 0.6973
C5 C 0.7474(3) 0.1207(2) 0.6189(3)
H6 H 0.6671 0.1442 0.5569
C6 C 0.7379(3) 0.1062(2) 0.7543(3)
H7 H 0.6633 0.0685 0.7433
H8 H 0.7304 0.1716 0.7906
C7 C 0.8483(3) 0.0511(3) 0.8535(3)
H9 H 0.9215 0.0931 0.8758
H10 H 0.8329 0.0383 0.9347
C8 C 0.8707(3) -0.0477(3) 0.7958(3)
H11 H 0.9427 -0.0805 0.8593
H12 H 0.8000 -0.0916 0.7802
C9 C 0.8910(3) -0.0314(2) 0.6668(3)
H13 H 0.9032 -0.0961 0.6315
H14 H 0.9654 0.0082 0.6839
C10 C 0.6744(4) -0.0464(3) 0.5153(3)
C11 C 0.7006(3) 0.0846(2) 0.2166(4)
C12 C 0.5770(3) 0.11518(19) 0.1195(4)
C13 C 0.4773(4) 0.1343(2) 0.1568(3)
H15 H 0.4868 0.1320 0.2462
C14 C 0.3639(3) 0.1569(2) 0.0619(5)
H16 H 0.2963 0.1703 0.0862
C15 C 0.3522(4) 0.1595(2) -0.0690(4)
C16 C 0.4495(4) 0.1428(2) -0.1090(3)
H17 H 0.4396 0.1464 -0.1984
C17 C 0.5627(3) 0.1202(2) -0.0127(4)
H18 H 0.6304 0.1083 -0.0375
N1 N 0.5928(3) -0.0998(2) 0.4820(3)
N2 N 0.2292(3) 0.1814(2) -0.1701(3)
O1 O 0.70318(17) 0.08851(14) 0.3415(3)
O2 O 0.7869(2) 0.05881(16) 0.1882(2)
O3 O 0.1443(3) 0.1961(2) -0.1314(3)
O4 O 0.2186(2) 0.18191(18) -0.2866(3)
loop_
_geom_bond_atom_site_label_1
_geom_bond_atom_site_label_2
_geom_bond_site_symmetry_1
_geom_bond_site_symmetry_2
C1 C2 1_555 1_555
C2 H1 1_555 1_555
C3 C2 1_555 1_555
H2 C3 1_555 1_555
H3 C3 1_555 1_555
C4 C3 1_555 1_555
H4 C4 1_555 1_555
H5 C4 1_555 1_555
C5 C1 1_555 1_555
H6 C5 1_555 1_555
C6 C5 1_555 1_555
H7 C6 1_555 1_555
H8 C6 1_555 1_555
C7 C6 1_555 1_555
H9 C7 1_555 1_555
H10 C7 1_555 1_555
C8 C7 1_555 1_555
H11 C8 1_555 1_555
H12 C8 1_555 1_555
C9 C1 1_555 1_555
H13 C9 1_555 1_555
H14 C9 1_555 1_555
C10 C1 1_555 1_555
C11 C12 1_555 1_555
C12 C13 1_555 1_555
C13 H15 1_555 1_555
C14 C13 1_555 1_555
H16 C14 1_555 1_555
C15 C14 1_555 1_555
C16 C15 1_555 1_555
H17 C16 1_555 1_555
C17 C12 1_555 1_555
H18 C17 1_555 1_555
N1 C10 1_555 1_555
N2 C15 1_555 1_555
O1 C2 1_555 1_555
O2 C11 1_555 1_555
O3 N2 1_555 1_555
O4 N2 1_555 1_555
C4 C5 1_555 1_555
C8 C9 1_555 1_555
C11 O1 1_555 1_555
C16 C17 1_555 1_555

#END
