
#######################################################################
#
#                 Cambridge Crystallographic Data Centre
#                                CCDC 
#
#######################################################################
#
# If this CIF has been generated from an entry in the Cambridge 
# Structural Database, then it will include bibliographic, chemical, 
# crystal, experimental, refinement or atomic coordinate data resulting 
# from the CCDC's data processing and validation procedures.
#
#######################################################################

data_TEYTOJ
_chemical_formula_moiety         'C14 H18 N2 O2 2+,2(C6 H4 N1 O5 S1 1-)'
_chemical_name_systematic        
"3,3'-dimethoxy[1,1'-biphenyl]-4,4'-diaminium bis(4-nitrobenzene-1-sulfonate)"
_symmetry_cell_setting           triclinic
_symmetry_space_group_name_H-M   'P -1'
_symmetry_Int_Tables_number      2
_space_group_name_Hall           '-P 1'
loop_
_symmetry_equiv_pos_site_id
_symmetry_equiv_pos_as_xyz
1 x,y,z
2 -x,-y,-z
_cell_length_a                   6.0303(6)
_cell_length_b                   9.7210(8)
_cell_length_c                   12.4638(12)
_cell_angle_alpha                98.012(7)
_cell_angle_beta                 94.549(8)
_cell_angle_gamma                97.848(7)
_cell_volume                     713.116
_exptl_crystal_colour            colorless
_exptl_crystal_description       block
_cell_formula_units_Z            1
loop_
_atom_site_label
_atom_site_type_symbol
_atom_site_fract_x
_atom_site_fract_y
_atom_site_fract_z
C1 C 0.1861(4) 0.5461(3) 0.8276(2)
C2 C 0.3795(5) 0.4853(3) 0.8317(2)
H1 H 0.474548 0.497485 0.895886
C3 C 0.4287(5) 0.4062(3) 0.7389(2)
H2 H 0.558972 0.364895 0.739514
C4 C 0.2843(4) 0.3882(2) 0.6443(2)
C5 C 0.0924(4) 0.4509(3) 0.6418(2)
H3 H -0.003258 0.438933 0.577865
C6 C 0.0428(5) 0.5315(3) 0.7349(2)
H4 H -0.085393 0.574926 0.734244
N1 N 0.1302(4) 0.6284(2) 0.92752(19)
O1 O -0.0324(4) 0.6886(3) 0.92156(19)
O2 O 0.2480(5) 0.6317(3) 1.01146(17)
O3 O 0.5782(4) 0.3032(3) 0.5228(2)
O4 O 0.2568(6) 0.1382(2) 0.5428(2)
O5 O 0.2141(4) 0.3134(2) 0.43527(16)
S1 S 0.34148(11) 0.27756(6) 0.52678(5)
C7 C 0.8115(4) 0.0004(3) 0.2087(2)
C8 C 0.7288(4) -0.0366(3) 0.1012(2)
H5 H 0.795088 -0.100282 0.056113
C9 C 0.5456(4) 0.0204(2) 0.05837(19)
C10 C 0.4515(5) 0.1153(3) 0.1282(2)
H6 H 0.332332 0.156135 0.101173
C11 C 0.5314(5) 0.1503(3) 0.2372(2)
H7 H 0.464698 0.212705 0.283216
C12 C 0.7097(4) 0.0921(2) 0.27681(19)
C13 C 1.0862(5) -0.1546(3) 0.2010(3)
H8 H 1.210602 -0.175572 0.245699
H9 H 0.974581 -0.236744 0.182681
H10 H 1.138062 -0.125836 0.135545
N2 N 0.7962(4) 0.1229(3) 0.39144(18)
O6 O 0.9912(4) -0.0449(2) 0.25862(15)
H11 H 0.708(5) 0.174(3) 0.431(2)
H12 H 0.946(4) 0.163(3) 0.404(3)
H13 H 0.795(7) 0.045(4) 0.425(3)
C7A C 0.1885(4) -0.0004(3) -0.2087(2)
C8A C 0.2712(4) 0.0366(3) -0.1012(2)
H5A H 0.204912 0.100282 -0.056113
C9A C 0.4544(4) -0.0204(2) -0.05837(19)
C10A C 0.5485(5) -0.1153(3) -0.1282(2)
H6A H 0.667668 -0.156135 -0.101173
C11A C 0.4686(5) -0.1503(3) -0.2372(2)
H7A H 0.535302 -0.212705 -0.283216
C12A C 0.2903(4) -0.0921(2) -0.27681(19)
C13A C -0.0862(5) 0.1546(3) -0.2010(3)
H8A H -0.210602 0.175572 -0.245699
H9A H 0.025419 0.236744 -0.182681
H10A H -0.138062 0.125836 -0.135545
N2A N 0.2038(4) -0.1229(3) -0.39144(18)
O6A O 0.0088(4) 0.0449(2) -0.25862(15)
H11A H 0.292(5) -0.174(3) -0.431(2)
H12A H 0.054(4) -0.163(3) -0.404(3)
H13A H 0.205(7) -0.045(4) -0.425(3)
loop_
_geom_bond_atom_site_label_1
_geom_bond_atom_site_label_2
_geom_bond_site_symmetry_1
_geom_bond_site_symmetry_2
C1 C2 1_555 1_555
C2 H1 1_555 1_555
C3 C2 1_555 1_555
H2 C3 1_555 1_555
C4 C3 1_555 1_555
C5 C4 1_555 1_555
H3 C5 1_555 1_555
C6 C1 1_555 1_555
H4 C6 1_555 1_555
N1 C1 1_555 1_555
O1 N1 1_555 1_555
O2 N1 1_555 1_555
O3 S1 1_555 1_555
O4 S1 1_555 1_555
O5 S1 1_555 1_555
S1 C4 1_555 1_555
C7 C8 1_555 1_555
C8 H5 1_555 1_555
C9 C8 1_555 1_555
C10 C9 1_555 1_555
H6 C10 1_555 1_555
C11 C10 1_555 1_555
H7 C11 1_555 1_555
C12 C7 1_555 1_555
C13 H8 1_555 1_555
H9 C13 1_555 1_555
H10 C13 1_555 1_555
N2 C12 1_555 1_555
O6 C7 1_555 1_555
H11 N2 1_555 1_555
H12 N2 1_555 1_555
H13 N2 1_555 1_555
C7A C8A 1_555 1_555
C8A H5A 1_555 1_555
C9A C9 1_555 1_555
C10A C9A 1_555 1_555
H6A C10A 1_555 1_555
C11A C10A 1_555 1_555
H7A C11A 1_555 1_555
C12A C7A 1_555 1_555
C13A H8A 1_555 1_555
H9A C13A 1_555 1_555
H10A C13A 1_555 1_555
N2A C12A 1_555 1_555
O6A C7A 1_555 1_555
H11A N2A 1_555 1_555
H12A N2A 1_555 1_555
H13A N2A 1_555 1_555
C5 C6 1_555 1_555
C11 C12 1_555 1_555
C13 O6 1_555 1_555
C8A C9A 1_555 1_555
C11A C12A 1_555 1_555
C13A O6A 1_555 1_555

#END
