
#######################################################################
#
#                 Cambridge Crystallographic Data Centre
#                                CCDC 
#
#######################################################################
#
# If this CIF has been generated from an entry in the Cambridge 
# Structural Database, then it will include bibliographic, chemical, 
# crystal, experimental, refinement or atomic coordinate data resulting 
# from the CCDC's data processing and validation procedures.
#
#######################################################################

data_TEYVOK
_chemical_formula_moiety         'C22 H26 N2 O1'
_chemical_name_systematic        
2-(((2,6-Diisopropylphenyl)amino)methyl)quinolin-8-ol
_symmetry_cell_setting           orthorhombic
_symmetry_space_group_name_H-M   'P b c a'
_symmetry_Int_Tables_number      61
_space_group_name_Hall           '-P 2ac 2ab'
loop_
_symmetry_equiv_pos_site_id
_symmetry_equiv_pos_as_xyz
1 x,y,z
2 1/2-x,-y,1/2+z
3 1/2+x,1/2-y,-z
4 -x,1/2+y,1/2-z
5 -x,-y,-z
6 1/2+x,y,1/2-z
7 1/2-x,1/2+y,z
8 x,1/2-y,1/2+z
_cell_length_a                   18.436(13)
_cell_length_b                   9.448(7)
_cell_length_c                   21.777(15)
_cell_angle_alpha                90
_cell_angle_beta                 90
_cell_angle_gamma                90
_cell_volume                     3793.19
_exptl_crystal_colour            colorless
_exptl_crystal_description       prism
_cell_formula_units_Z            8
loop_
_atom_site_label
_atom_site_type_symbol
_atom_site_fract_x
_atom_site_fract_y
_atom_site_fract_z
O1 O 0.36679(11) 0.8036(2) 0.39861(8)
H1 H 0.3996(19) 0.874(4) 0.4075(15)
N1 N 0.46157(10) 0.7656(2) 0.49708(7)
N2 N 0.53322(11) 0.9749(2) 0.59674(8)
H2 H 0.4986(14) 1.020(3) 0.5753(11)
C1 C 0.40829(13) 0.6678(3) 0.48613(9)
C2 C 0.36122(14) 0.6889(3) 0.43560(10)
C3 C 0.30879(16) 0.5913(3) 0.42284(13)
H3 H 0.2785 0.6048 0.3892
C4 C 0.29995(17) 0.4712(3) 0.45978(14)
H4 H 0.2637 0.4061 0.4506
C5 C 0.34360(17) 0.4491(3) 0.50866(13)
H5 H 0.3372 0.3690 0.5329
C6 C 0.39886(15) 0.5470(3) 0.52310(10)
C7 C 0.44580(17) 0.5307(3) 0.57316(11)
H6 H 0.4414 0.4523 0.5987
C8 C 0.49770(16) 0.6291(3) 0.58451(10)
H7 H 0.5284 0.6196 0.6181
C9 C 0.50441(13) 0.7455(3) 0.54477(9)
C10 C 0.55970(13) 0.8585(3) 0.55793(9)
H8 H 0.6011 0.8151 0.5779
H9 H 0.5764 0.8976 0.5192
C11 C 0.50499(13) 0.9353(2) 0.65611(9)
C12 C 0.43046(14) 0.9301(3) 0.66676(10)
C13 C 0.40681(16) 0.8986(3) 0.72551(11)
H10 H 0.3573 0.8983 0.7338
C14 C 0.45448(18) 0.8680(4) 0.77163(12)
H11 H 0.4374 0.8466 0.8107
C15 C 0.52690(17) 0.8687(4) 0.76031(10)
H12 H 0.5588 0.8450 0.7918
C16 C 0.55463(14) 0.9040(3) 0.70290(9)
C17 C 0.37456(13) 0.9566(3) 0.61637(11)
H13 H 0.3997 0.9425 0.5772
C18 C 0.31266(17) 0.8510(4) 0.61784(15)
H14 H 0.2825 0.8695 0.6529
H15 H 0.3319 0.7568 0.6206
H16 H 0.2844 0.8599 0.5810
C19 C 0.3479(2) 1.1070(4) 0.61655(16)
H17 H 0.3231 1.1258 0.6544
H18 H 0.3152 1.1210 0.5828
H19 H 0.3885 1.1701 0.6125
C20 C 0.63623(14) 0.9091(3) 0.69476(11)
H20 H 0.6461 0.9431 0.6531
C21 C 0.67118(18) 1.0126(4) 0.73955(15)
H21 H 0.6483 1.1035 0.7357
H22 H 0.7219 1.0213 0.7304
H23 H 0.6653 0.9783 0.7807
C22 C 0.66963(17) 0.7628(4) 0.70078(14)
H24 H 0.6579 0.7241 0.7403
H25 H 0.7213 0.7696 0.6966
H26 H 0.6507 0.7022 0.6692
loop_
_geom_bond_atom_site_label_1
_geom_bond_atom_site_label_2
_geom_bond_site_symmetry_1
_geom_bond_site_symmetry_2
O1 H1 1_555 1_555
N1 C1 1_555 1_555
N2 H2 1_555 1_555
C1 C2 1_555 1_555
C2 O1 1_555 1_555
C3 C2 1_555 1_555
H3 C3 1_555 1_555
C4 C3 1_555 1_555
H4 C4 1_555 1_555
C5 C4 1_555 1_555
H5 C5 1_555 1_555
C6 C1 1_555 1_555
C7 C6 1_555 1_555
H6 C7 1_555 1_555
C8 C7 1_555 1_555
H7 C8 1_555 1_555
C9 N1 1_555 1_555
C10 N2 1_555 1_555
H8 C10 1_555 1_555
H9 C10 1_555 1_555
C11 N2 1_555 1_555
C12 C11 1_555 1_555
C13 C12 1_555 1_555
H10 C13 1_555 1_555
C14 C13 1_555 1_555
H11 C14 1_555 1_555
C15 C14 1_555 1_555
H12 C15 1_555 1_555
C16 C11 1_555 1_555
C17 C12 1_555 1_555
H13 C17 1_555 1_555
C18 C17 1_555 1_555
H14 C18 1_555 1_555
H15 C18 1_555 1_555
H16 C18 1_555 1_555
C19 C17 1_555 1_555
H17 C19 1_555 1_555
H18 C19 1_555 1_555
H19 C19 1_555 1_555
C20 C16 1_555 1_555
H20 C20 1_555 1_555
C21 C20 1_555 1_555
H21 C21 1_555 1_555
H22 C21 1_555 1_555
H23 C21 1_555 1_555
C22 C20 1_555 1_555
H24 C22 1_555 1_555
H25 C22 1_555 1_555
H26 C22 1_555 1_555
C5 C6 1_555 1_555
C8 C9 1_555 1_555
C9 C10 1_555 1_555
C15 C16 1_555 1_555

#END
