
#######################################################################
#
#                 Cambridge Crystallographic Data Centre
#                                CCDC 
#
#######################################################################
#
# If this CIF has been generated from an entry in the Cambridge 
# Structural Database, then it will include bibliographic, chemical, 
# crystal, experimental, refinement or atomic coordinate data resulting 
# from the CCDC's data processing and validation procedures.
#
#######################################################################

data_TEYVIF
_chemical_formula_moiety         'C12 H14 N2 O2 2+,2(C6 H5 O3 S1 1-),H2 O1'
_chemical_name_systematic        
"3,3'-dihydroxy[1,1'-biphenyl]-4,4'-diaminium bis(benzenesulfonate) monohydrate"
_symmetry_cell_setting           triclinic
_symmetry_space_group_name_H-M   'P -1'
_symmetry_Int_Tables_number      2
_space_group_name_Hall           '-P 1'
loop_
_symmetry_equiv_pos_site_id
_symmetry_equiv_pos_as_xyz
1 x,y,z
2 -x,-y,-z
_cell_length_a                   7.7042(5)
_cell_length_b                   12.1758(9)
_cell_length_c                   13.3268(10)
_cell_angle_alpha                84.238(6)
_cell_angle_beta                 89.648(5)
_cell_angle_gamma                83.067(6)
_cell_volume                     1234.68
_exptl_crystal_colour            colorless
_exptl_crystal_description       block
_cell_formula_units_Z            2
loop_
_atom_site_label
_atom_site_type_symbol
_atom_site_fract_x
_atom_site_fract_y
_atom_site_fract_z
C1 C 0.3175(3) 0.7807(2) 0.79158(18)
C2 C 0.4277(4) 0.6823(2) 0.7933(2)
H1 H 0.504230 0.660273 0.847248
C3 C 0.4240(4) 0.6173(2) 0.7154(2)
H2 H 0.498534 0.551084 0.716676
C4 C 0.3114(4) 0.6487(2) 0.6355(2)
H3 H 0.308955 0.603947 0.583046
C5 C 0.2024(4) 0.7468(2) 0.6335(2)
H4 H 0.126204 0.768554 0.579324
C6 C 0.2052(3) 0.8134(2) 0.71114(19)
H5 H 0.131620 0.879958 0.709244
O1 O 0.1896(3) 0.82897(19) 0.96334(15)
O2 O 0.4947(2) 0.83869(16) 0.93591(13)
O3 O 0.2830(3) 0.97691(16) 0.85016(15)
S1 S 0.31950(8) 0.86295(5) 0.89317(5)
C7 C -0.1524(3) 0.4951(2) 0.83040(19)
C8 C -0.2435(4) 0.4587(3) 0.9144(2)
H6 H -0.292556 0.392333 0.916666
C9 C -0.2608(4) 0.5222(3) 0.9949(2)
H7 H -0.321795 0.498283 1.051826
C10 C -0.1894(4) 0.6196(3) 0.9919(3)
H8 H -0.201220 0.661545 1.046734
C11 C -0.1006(4) 0.6557(3) 0.9083(3)
H9 H -0.053091 0.722597 0.906144
C12 C -0.0809(3) 0.5934(2) 0.8271(2)
H10 H -0.019554 0.617866 0.770546
O4 O 0.0319(2) 0.33162(15) 0.75741(14)
O5 O -0.0825(3) 0.48630(18) 0.64166(15)
O6 O -0.2739(3) 0.3596(2) 0.7206(2)
S2 S -0.11851(8) 0.41233(5) 0.72951(5)
C13 C 0.1137(3) 0.9350(2) 1.22603(18)
C14 C 0.0858(3) 0.9030(2) 1.32644(19)
H11 H 0.028431 0.841123 1.344915
C15 C 0.1432(3) 0.9628(2) 1.39905(19)
H12 H 0.125412 0.940302 1.466714
C16 C 0.2275(3) 1.0563(2) 1.37327(18)
C17 C 0.2585(3) 1.0859(2) 1.27146(18)
H13 H 0.316485 1.147383 1.252779
C18 C 0.2039(3) 1.0247(2) 1.19773(18)
C19 C 0.2770(3) 1.1226(2) 1.45304(18)
C20 C 0.3335(3) 1.0699(2) 1.54708(18)
H14 H 0.343472 0.992769 1.558337
C21 C 0.3747(3) 1.1308(2) 1.62328(19)
H15 H 0.413120 1.095067 1.685528
C22 C 0.3586(3) 1.2441(2) 1.60687(18)
C23 C 0.3026(3) 1.2995(2) 1.51459(19)
C24 C 0.2643(3) 1.2384(2) 1.43787(18)
H16 H 0.229509 1.274735 1.375199
N1 N 0.0413(3) 0.8787(2) 1.14765(19)
N2 N 0.3906(3) 1.3111(2) 1.68849(18)
O7 O 0.2296(3) 1.04821(18) 1.09741(13)
O8 O 0.2923(3) 1.41163(16) 1.50708(16)
H17 H 0.114(5) 0.870(3) 1.098(3)
H18 H 0.020(4) 0.810(3) 1.171(2)
H19 H -0.070(5) 0.919(3) 1.127(2)
H20 H 0.309(5) 1.362(3) 1.693(3)
H21 H 0.400(4) 1.267(3) 1.748(3)
H22 H 0.494(4) 1.342(3) 1.681(2)
H23 H 0.305(5) 1.084(3) 1.089(3)
H24 H 0.235(5) 1.436(3) 1.457(3)
O9 O 0.4230(5) 1.1737(2) 1.86220(19)
H25 H 0.473(5) 1.185(3) 1.911(3)
H26 H 0.405(5) 1.111(3) 1.864(3)
loop_
_geom_bond_atom_site_label_1
_geom_bond_atom_site_label_2
_geom_bond_site_symmetry_1
_geom_bond_site_symmetry_2
C1 C2 1_555 1_555
C2 H1 1_555 1_555
C3 C2 1_555 1_555
H2 C3 1_555 1_555
C4 C3 1_555 1_555
H3 C4 1_555 1_555
C5 C4 1_555 1_555
H4 C5 1_555 1_555
C6 C1 1_555 1_555
H5 C6 1_555 1_555
O1 S1 1_555 1_555
O2 S1 1_555 1_555
O3 S1 1_555 1_555
S1 C1 1_555 1_555
C7 C8 1_555 1_555
C8 H6 1_555 1_555
C9 C8 1_555 1_555
H7 C9 1_555 1_555
C10 C9 1_555 1_555
H8 C10 1_555 1_555
C11 C10 1_555 1_555
H9 C11 1_555 1_555
C12 C7 1_555 1_555
H10 C12 1_555 1_555
O4 S2 1_555 1_555
O5 S2 1_555 1_555
O6 S2 1_555 1_555
S2 C7 1_555 1_555
C13 C14 1_555 1_555
C14 H11 1_555 1_555
C15 C14 1_555 1_555
H12 C15 1_555 1_555
C16 C15 1_555 1_555
C17 C16 1_555 1_555
H13 C17 1_555 1_555
C18 C13 1_555 1_555
C19 C16 1_555 1_555
C20 C19 1_555 1_555
H14 C20 1_555 1_555
C21 C20 1_555 1_555
H15 C21 1_555 1_555
C22 C21 1_555 1_555
C23 C22 1_555 1_555
C24 C19 1_555 1_555
H16 C24 1_555 1_555
N1 C13 1_555 1_555
N2 C22 1_555 1_555
O7 C18 1_555 1_555
O8 C23 1_555 1_555
H17 N1 1_555 1_555
H18 N1 1_555 1_555
H19 N1 1_555 1_555
H20 N2 1_555 1_555
H21 N2 1_555 1_555
H22 N2 1_555 1_555
H23 O7 1_555 1_555
H24 O8 1_555 1_555
O9 H25 1_555 1_555
H26 O9 1_555 1_555
C5 C6 1_555 1_555
C11 C12 1_555 1_555
C17 C18 1_555 1_555
C23 C24 1_555 1_555

#END
