
#######################################################################
#
#                 Cambridge Crystallographic Data Centre
#                                CCDC 
#
#######################################################################
#
# If this CIF has been generated from an entry in the Cambridge 
# Structural Database, then it will include bibliographic, chemical, 
# crystal, experimental, refinement or atomic coordinate data resulting 
# from the CCDC's data processing and validation procedures.
#
#######################################################################

data_TEYVAX
_chemical_formula_moiety         'C14 H18 N2 O2 2+,2(C6 H5 O3 S1 1-)'
_chemical_name_systematic        
"3,3'-dimethoxy[1,1'-biphenyl]-4,4'-diaminium bis(benzenesulfonate)"
_symmetry_cell_setting           monoclinic
_symmetry_space_group_name_H-M   'P 21/n'
_symmetry_Int_Tables_number      14
_space_group_name_Hall           '-P 2yn'
loop_
_symmetry_equiv_pos_site_id
_symmetry_equiv_pos_as_xyz
1 x,y,z
2 1/2-x,1/2+y,1/2-z
3 -x,-y,-z
4 1/2+x,1/2-y,1/2+z
_cell_length_a                   5.7205(6)
_cell_length_b                   20.450(2)
_cell_length_c                   11.7153(11)
_cell_angle_alpha                90
_cell_angle_beta                 102.871(10)
_cell_angle_gamma                90
_cell_volume                     1336.07
_exptl_crystal_colour            colorless
_exptl_crystal_description       block
_cell_formula_units_Z            2
loop_
_atom_site_label
_atom_site_type_symbol
_atom_site_fract_x
_atom_site_fract_y
_atom_site_fract_z
C1 C 0.1746(6) 0.32166(17) -0.1390(3)
C2 C 0.3489(8) 0.3200(2) -0.2015(4)
H1 H 0.471992 0.350699 -0.187025
C3 C 0.3424(11) 0.2723(2) -0.2874(4)
H2 H 0.460511 0.271046 -0.330534
C4 C 0.1621(12) 0.2278(3) -0.3071(5)
H3 H 0.155016 0.196370 -0.365170
C5 C -0.0075(12) 0.2288(3) -0.2430(6)
H4 H -0.128187 0.197454 -0.256052
C6 C -0.0028(9) 0.2758(2) -0.1589(5)
H5 H -0.120621 0.276427 -0.115570
O1 O 0.4049(4) 0.41216(14) -0.0101(2)
O2 O 0.0993(5) 0.35500(13) 0.0633(2)
O3 O -0.0088(5) 0.43212(12) -0.0940(2)
S1 S 0.16755(15) 0.38459(4) -0.03593(7)
C7 C 0.7189(6) 0.46346(15) 0.2492(3)
C8 C 0.5240(7) 0.50315(18) 0.2400(3)
H6 H 0.449953 0.520645 0.167711
C9 C 0.4367(7) 0.5174(2) 0.3379(3)
H7 H 0.303481 0.544386 0.330584
C10 C 0.5435(6) 0.49217(16) 0.4469(2)
C11 C 0.7393(7) 0.45007(17) 0.4529(3)
H8 H 0.811743 0.431676 0.524655
C12 C 0.8279(6) 0.43505(16) 0.3558(3)
C13 C 1.1085(9) 0.3572(2) 0.4551(3)
H9 H 1.241790 0.331809 0.442557
H10 H 1.160602 0.385131 0.521757
H11 H 0.985267 0.328392 0.469056
N1 N 0.8142(6) 0.44994(15) 0.1459(2)
O4 O 1.0167(5) 0.39593(14) 0.3544(2)
H12 H 0.931(5) 0.4182(14) 0.158(3)
H13 H 0.884(7) 0.488(2) 0.123(4)
H14 H 0.695(8) 0.436(2) 0.095(4)
C7B C 0.2811(6) 0.53654(15) 0.7508(3)
C8B C 0.4760(7) 0.49685(18) 0.7600(3)
H6B H 0.550047 0.479355 0.832289
C9B C 0.5633(7) 0.4826(2) 0.6621(3)
H7B H 0.696519 0.455614 0.669416
C10B C 0.4565(6) 0.50783(16) 0.5531(2)
C11B C 0.2607(7) 0.54993(17) 0.5471(3)
H8B H 0.188257 0.568324 0.475345
C12B C 0.1721(6) 0.56495(16) 0.6442(3)
C13B C -0.1085(9) 0.6428(2) 0.5449(3)
H9B H -0.241790 0.668191 0.557443
H10B H -0.160602 0.614869 0.478243
H11B H 0.014733 0.671608 0.530944
N1B N 0.1858(6) 0.55006(15) 0.8541(2)
O4B O -0.0167(5) 0.60407(14) 0.6456(2)
H12B H 0.069(5) 0.5818(14) 0.842(3)
H13B H 0.116(7) 0.512(2) 0.877(4)
H14B H 0.305(8) 0.564(2) 0.905(4)
loop_
_geom_bond_atom_site_label_1
_geom_bond_atom_site_label_2
_geom_bond_site_symmetry_1
_geom_bond_site_symmetry_2
C1 C2 1_555 1_555
C2 H1 1_555 1_555
C3 C2 1_555 1_555
H2 C3 1_555 1_555
C4 C3 1_555 1_555
H3 C4 1_555 1_555
C5 C4 1_555 1_555
H4 C5 1_555 1_555
C6 C1 1_555 1_555
H5 C6 1_555 1_555
O1 S1 1_555 1_555
O2 S1 1_555 1_555
O3 S1 1_555 1_555
S1 C1 1_555 1_555
C7 C8 1_555 1_555
C8 H6 1_555 1_555
C9 C8 1_555 1_555
H7 C9 1_555 1_555
C10 C9 1_555 1_555
C11 C10 1_555 1_555
H8 C11 1_555 1_555
C12 C7 1_555 1_555
C13 H9 1_555 1_555
H10 C13 1_555 1_555
H11 C13 1_555 1_555
N1 C7 1_555 1_555
O4 C12 1_555 1_555
H12 N1 1_555 1_555
H13 N1 1_555 1_555
H14 N1 1_555 1_555
C7B C8B 1_555 1_555
C8B H6B 1_555 1_555
C9B C8B 1_555 1_555
H7B C9B 1_555 1_555
C10B C10 1_555 1_555
C11B C10B 1_555 1_555
H8B C11B 1_555 1_555
C12B C7B 1_555 1_555
C13B H9B 1_555 1_555
H10B C13B 1_555 1_555
H11B C13B 1_555 1_555
N1B C7B 1_555 1_555
O4B C12B 1_555 1_555
H12B N1B 1_555 1_555
H13B N1B 1_555 1_555
H14B N1B 1_555 1_555
C5 C6 1_555 1_555
C11 C12 1_555 1_555
C13 O4 1_555 1_555
C9B C10B 1_555 1_555
C11B C12B 1_555 1_555
C13B O4B 1_555 1_555

#END
