
#######################################################################
#
#                 Cambridge Crystallographic Data Centre
#                                CCDC 
#
#######################################################################
#
# If this CIF has been generated from an entry in the Cambridge 
# Structural Database, then it will include bibliographic, chemical, 
# crystal, experimental, refinement or atomic coordinate data resulting 
# from the CCDC's data processing and validation procedures.
#
#######################################################################

data_TEYXED
_chemical_formula_moiety         'C14 H18 N2 2+,2(C7 H7 O3 S1 1-),0.5(C1 H4 O1)'
_chemical_name_systematic        
"3,3'-dimethyl[1,1'-biphenyl]-4,4'-diaminium bis(4-methylbenzene-1-sulfonate) methanol solvate"
_symmetry_cell_setting           monoclinic
_symmetry_space_group_name_H-M   'C 2/c'
_symmetry_Int_Tables_number      15
_space_group_name_Hall           '-C 2yn'
loop_
_symmetry_equiv_pos_site_id
_symmetry_equiv_pos_as_xyz
1 x,y,z
2 -x,y,1/2-z
3 1/2+x,1/2+y,z
4 1/2-x,1/2+y,1/2-z
5 -x,-y,-z
6 x,-y,1/2+z
7 1/2-x,1/2-y,-z
8 1/2+x,1/2-y,1/2+z
_cell_length_a                   26.738(5)
_cell_length_b                   7.0810(11)
_cell_length_c                   30.146(7)
_cell_angle_alpha                90
_cell_angle_beta                 90.53(2)
_cell_angle_gamma                90
_cell_volume                     5707.35
_exptl_crystal_colour            colorless
_exptl_crystal_description       block
_cell_formula_units_Z            8
loop_
_atom_site_label
_atom_site_type_symbol
_atom_site_fract_x
_atom_site_fract_y
_atom_site_fract_z
C15 C 0.4481(2) 0.7218(9) 0.1202(3)
H19 H 0.453317 0.688778 0.150759
H20 H 0.462833 0.627228 0.101602
H21 H 0.463315 0.841874 0.114338
C16 C 0.3925(2) 0.7335(7) 0.1105(3)
C17 C 0.3754(2) 0.7786(8) 0.0689(3)
H22 H 0.398272 0.807268 0.046854
C18 C 0.3251(2) 0.7822(7) 0.0592(2)
H23 H 0.314408 0.812515 0.030604
C19 C 0.29023(18) 0.7414(6) 0.09135(18)
C20 C 0.3064(2) 0.6948(7) 0.1339(2)
H24 H 0.283465 0.664794 0.155778
C21 C 0.3571(3) 0.6936(8) 0.1431(3)
H25 H 0.367975 0.665587 0.171757
O1 O 0.21857(12) 0.6034(4) 0.04341(13)
O2 O 0.20025(14) 0.6936(6) 0.11870(13)
O3 O 0.21500(13) 0.9315(4) 0.06264(13)
S1 S 0.22629(4) 0.74398(16) 0.07804(5)
C22 C 0.3662(2) 0.2438(8) 0.2000(2)
H26 H 0.378219 0.169124 0.175765
H27 H 0.380086 0.368543 0.198306
H28 H 0.376110 0.186220 0.227562
C23 C 0.3102(2) 0.2553(6) 0.19755(19)
C24 C 0.2838(2) 0.1674(7) 0.1638(2)
H29 H 0.301314 0.103261 0.141998
C25 C 0.23251(19) 0.1715(6) 0.16140(18)
H30 H 0.215911 0.107266 0.138740
C26 C 0.20558(19) 0.2705(6) 0.19241(17)
C27 C 0.23151(19) 0.3622(7) 0.22593(19)
H31 H 0.214071 0.430209 0.247170
C28 C 0.2823(2) 0.3538(7) 0.22816(19)
H32 H 0.298867 0.416545 0.251093
O4 O 0.12380(12) 0.0972(4) 0.21096(13)
O5 O 0.12315(13) 0.4359(4) 0.21342(13)
O6 O 0.12545(15) 0.2746(6) 0.14319(13)
S2 S 0.13964(5) 0.27023(17) 0.18980(5)
C1 C 0.57242(17) 0.2647(6) 0.12950(17)
C2 C 0.58159(18) 0.3142(7) 0.08598(19)
H1 H 0.613550 0.351341 0.077734
C3 C 0.54366(18) 0.3090(7) 0.05474(18)
H2 H 0.550468 0.340821 0.025486
C4 C 0.49536(17) 0.2569(6) 0.06629(18)
C5 C 0.48767(17) 0.2110(7) 0.11066(19)
H3 H 0.455571 0.176631 0.119119
C6 C 0.52457(19) 0.2134(7) 0.14269(19)
C7 C 0.5136(2) 0.1685(9) 0.1902(2)
H4 H 0.543820 0.177387 0.207532
H5 H 0.489448 0.256564 0.201343
H6 H 0.500439 0.042615 0.192281
C8 C 0.45424(17) 0.2474(6) 0.03374(18)
C9 C 0.46226(19) 0.2060(6) -0.01072(18)
H7 H 0.494761 0.184824 -0.020260
C10 C 0.42357(18) 0.1956(6) -0.04103(18)
H8 H 0.429848 0.166771 -0.070553
C11 C 0.37577(17) 0.2282(6) -0.02720(17)
C12 C 0.36439(17) 0.2670(6) 0.01647(17)
C13 C 0.40463(18) 0.2778(6) 0.04629(18)
H9 H 0.398152 0.306397 0.075791
C14 C 0.31147(17) 0.2951(7) 0.03185(19)
H10 H 0.311551 0.320449 0.063132
H11 H 0.296752 0.399811 0.016271
H12 H 0.292368 0.182939 0.025940
N1 N 0.61431(16) 0.2667(6) 0.16095(16)
N2 N 0.33477(16) 0.2193(6) -0.05970(16)
H13 H 0.6454(12) 0.253(7) 0.149(2)
H14 H 0.6137(17) 0.374(4) 0.1776(14)
H15 H 0.6116(15) 0.166(4) 0.1789(12)
H16 H 0.3165(17) 0.106(7) -0.0535(16)
H17 H 0.344(2) 0.199(7) -0.0882(9)
H18 H 0.3172(16) 0.330(4) -0.0601(18)
C29? C 0.457(2) 0.730(9) 0.222(2)
C30? C 0.4581(7) 0.555(3) 0.2346(7)
O7? O 0.500000 0.662(3) 0.250000
loop_
_geom_bond_atom_site_label_1
_geom_bond_atom_site_label_2
_geom_bond_site_symmetry_1
_geom_bond_site_symmetry_2
C1 C2 1_555 1_555
C2 H1 1_555 1_555
C3 C2 1_555 1_555
H2 C3 1_555 1_555
C4 C3 1_555 1_555
C5 C4 1_555 1_555
H3 C5 1_555 1_555
C6 C1 1_555 1_555
C7 C6 1_555 1_555
H4 C7 1_555 1_555
H5 C7 1_555 1_555
H6 C7 1_555 1_555
C8 C4 1_555 1_555
C9 C8 1_555 1_555
H7 C9 1_555 1_555
C10 C9 1_555 1_555
H8 C10 1_555 1_555
C11 C10 1_555 1_555
C12 C11 1_555 1_555
C13 C8 1_555 1_555
H9 C13 1_555 1_555
C14 C12 1_555 1_555
H10 C14 1_555 1_555
H11 C14 1_555 1_555
H12 C14 1_555 1_555
N1 C1 1_555 1_555
N2 C11 1_555 1_555
H13 N1 1_555 1_555
H14 N1 1_555 1_555
H15 N1 1_555 1_555
H16 N2 1_555 1_555
H17 N2 1_555 1_555
H18 N2 1_555 1_555
C15 H19 1_555 1_555
H20 C15 1_555 1_555
H21 C15 1_555 1_555
C16 C15 1_555 1_555
C17 C16 1_555 1_555
H22 C17 1_555 1_555
C18 C17 1_555 1_555
H23 C18 1_555 1_555
C19 C18 1_555 1_555
C20 C19 1_555 1_555
H24 C20 1_555 1_555
C21 C16 1_555 1_555
H25 C21 1_555 1_555
O1 S1 1_555 1_555
O2 S1 1_555 1_555
O3 S1 1_555 1_555
S1 C19 1_555 1_555
C22 H26 1_555 1_555
H27 C22 1_555 1_555
H28 C22 1_555 1_555
C23 C22 1_555 1_555
C24 C23 1_555 1_555
H29 C24 1_555 1_555
C25 C24 1_555 1_555
H30 C25 1_555 1_555
C26 C25 1_555 1_555
C27 C26 1_555 1_555
H31 C27 1_555 1_555
C28 C23 1_555 1_555
H32 C28 1_555 1_555
O4 S2 1_555 1_555
O5 S2 1_555 1_555
O6 S2 1_555 1_555
S2 C26 1_555 1_555
C5 C6 1_555 1_555
C12 C13 1_555 1_555
C20 C21 1_555 1_555
C27 C28 1_555 1_555

#END
