
#######################################################################
#
#                 Cambridge Crystallographic Data Centre
#                                CCDC 
#
#######################################################################
#
# If this CIF has been generated from an entry in the Cambridge 
# Structural Database, then it will include bibliographic, chemical, 
# crystal, experimental, refinement or atomic coordinate data resulting 
# from the CCDC's data processing and validation procedures.
#
#######################################################################

data_TEYYAA
_chemical_formula_moiety         'C10 H11 N4 1+,C6 H4 N1 O5 S1 1-'
_chemical_name_systematic        
'5-amino-2-(5-aminopyridin-2-yl)pyridinium 4-nitrobenzene-1-sulfonate'
_symmetry_cell_setting           triclinic
_symmetry_space_group_name_H-M   'P -1'
_symmetry_Int_Tables_number      2
_space_group_name_Hall           '-P 1'
loop_
_symmetry_equiv_pos_site_id
_symmetry_equiv_pos_as_xyz
1 x,y,z
2 -x,-y,-z
_cell_length_a                   7.0021(3)
_cell_length_b                   9.7512(5)
_cell_length_c                   13.0986(8)
_cell_angle_alpha                70.369(5)
_cell_angle_beta                 88.781(4)
_cell_angle_gamma                82.494(4)
_cell_volume                     834.911
_exptl_crystal_colour            colorless
_exptl_crystal_description       block
_cell_formula_units_Z            2
loop_
_atom_site_label
_atom_site_type_symbol
_atom_site_fract_x
_atom_site_fract_y
_atom_site_fract_z
C1 C 0.0212(3) 0.1152(2) 0.34123(16)
C2 C -0.0905(3) 0.2003(2) 0.39148(18)
H1 H -0.223405 0.217732 0.380094
C3 C -0.0061(3) 0.2595(3) 0.45845(18)
H2 H -0.080411 0.317007 0.492434
C4 C 0.1907(3) 0.2313(2) 0.47364(17)
C5 C 0.3040(3) 0.1483(2) 0.42383(18)
H3 H 0.437132 0.132501 0.434301
C6 C 0.2186(3) 0.0891(2) 0.35856(18)
H4 H 0.293881 0.030800 0.325542
N1 N 0.2844(3) 0.2934(2) 0.54406(16)
O1 O 0.1843(3) 0.3580(2) 0.59513(16)
O2 O 0.4594(3) 0.2782(2) 0.54756(16)
O3 O -0.2744(2) 0.01769(17) 0.28862(12)
O4 O -0.0914(2) 0.16665(18) 0.14566(12)
O5 O 0.0406(2) -0.08036(18) 0.24681(15)
S1 S -0.08634(7) 0.04867(6) 0.24851(4)
C7 C 0.5312(3) 0.5251(2) 0.76294(18)
H5 H 0.422875 0.511707 0.729307
C8 C 0.7107(3) 0.4692(2) 0.73640(17)
C9 C 0.8709(3) 0.4930(2) 0.78691(18)
H6 H 0.994429 0.457790 0.771913
C10 C 0.8453(3) 0.5681(2) 0.85842(17)
H7 H 0.951461 0.585652 0.891429
C11 C 0.6605(3) 0.6182(2) 0.88161(16)
C12 C 0.6220(3) 0.6978(2) 0.95836(16)
C13 C 0.7556(3) 0.7279(2) 1.02089(18)
H8 H 0.885805 0.698792 1.014220
C14 C 0.7012(3) 0.7997(2) 1.09262(18)
H9 H 0.794627 0.819128 1.133478
C15 C 0.5067(3) 0.8442(2) 1.10496(17)
C16 C 0.3772(3) 0.8152(2) 1.03964(17)
H10 H 0.246304 0.844850 1.043643
N2 N 0.7313(4) 0.3983(2) 0.66195(18)
N3 N 0.4463(4) 0.9150(2) 1.17450(17)
N4 N 0.5047(2) 0.59674(19) 0.83369(15)
N5 N 0.4370(3) 0.74517(19) 0.97059(14)
H11 H 0.635(4) 0.375(3) 0.646(2)
H12 H 0.841(4) 0.341(3) 0.665(2)
H13 H 0.523(4) 0.934(3) 1.208(2)
H14 H 0.321(4) 0.929(3) 1.189(2)
H15 H 0.345(3) 0.732(3) 0.933(2)
loop_
_geom_bond_atom_site_label_1
_geom_bond_atom_site_label_2
_geom_bond_site_symmetry_1
_geom_bond_site_symmetry_2
C1 C2 1_555 1_555
C2 H1 1_555 1_555
C3 C2 1_555 1_555
H2 C3 1_555 1_555
C4 C3 1_555 1_555
C5 C4 1_555 1_555
H3 C5 1_555 1_555
C6 C1 1_555 1_555
H4 C6 1_555 1_555
N1 C4 1_555 1_555
O1 N1 1_555 1_555
O2 N1 1_555 1_555
O3 S1 1_555 1_555
O4 S1 1_555 1_555
O5 S1 1_555 1_555
S1 C1 1_555 1_555
C7 H5 1_555 1_555
C8 C7 1_555 1_555
C9 C8 1_555 1_555
H6 C9 1_555 1_555
C10 C9 1_555 1_555
H7 C10 1_555 1_555
C11 C10 1_555 1_555
C12 C11 1_555 1_555
C13 C12 1_555 1_555
H8 C13 1_555 1_555
C14 C13 1_555 1_555
H9 C14 1_555 1_555
C15 C14 1_555 1_555
C16 C15 1_555 1_555
H10 C16 1_555 1_555
N2 C8 1_555 1_555
N3 C15 1_555 1_555
N4 C7 1_555 1_555
N5 C12 1_555 1_555
H11 N2 1_555 1_555
H12 N2 1_555 1_555
H13 N3 1_555 1_555
H14 N3 1_555 1_555
H15 N5 1_555 1_555
C5 C6 1_555 1_555
C11 N4 1_555 1_555
C16 N5 1_555 1_555

#END
