
#######################################################################
#
#                 Cambridge Crystallographic Data Centre
#                                CCDC 
#
#######################################################################
#
# If this CIF has been generated from an entry in the Cambridge 
# Structural Database, then it will include bibliographic, chemical, 
# crystal, experimental, refinement or atomic coordinate data resulting 
# from the CCDC's data processing and validation procedures.
#
#######################################################################

data_TEYYEE
_chemical_formula_moiety         'C6 H8 N3 O2 1+,C6 H5 O4 S1 1-'
_chemical_name_systematic        
'4-amino-3-nitroanilinium 4-hydroxybenzene-1-sulfonate'
_symmetry_cell_setting           monoclinic
_symmetry_space_group_name_H-M   'P 21/c'
_symmetry_Int_Tables_number      14
_space_group_name_Hall           '-P 2ybc'
loop_
_symmetry_equiv_pos_site_id
_symmetry_equiv_pos_as_xyz
1 x,y,z
2 -x,1/2+y,1/2-z
3 -x,-y,-z
4 x,1/2-y,1/2+z
_cell_length_a                   7.4332(10)
_cell_length_b                   8.2644(11)
_cell_length_c                   22.734(3)
_cell_angle_alpha                90
_cell_angle_beta                 96.542(15)
_cell_angle_gamma                90
_cell_volume                     1387.48
_exptl_crystal_colour            colorless
_exptl_crystal_description       block
_cell_formula_units_Z            4
loop_
_atom_site_label
_atom_site_type_symbol
_atom_site_fract_x
_atom_site_fract_y
_atom_site_fract_z
C1 C 0.7569(3) 0.8515(3) 0.61887(11)
C2 C 0.6989(3) 0.9858(3) 0.58637(12)
H1 H 0.636800 0.973582 0.548741
C3 C 0.7323(4) 1.1377(3) 0.60933(12)
H2 H 0.694260 1.228592 0.587226
C4 C 0.8235(4) 1.1549(3) 0.66587(12)
C5 C 0.8812(4) 1.0208(3) 0.69817(12)
H3 H 0.941580 1.032604 0.736053
C6 C 0.8500(3) 0.8699(3) 0.67476(11)
H4 H 0.891504 0.779222 0.696435
O1 O 0.8587(3) 1.3004(3) 0.69182(11)
O2 O 0.8727(2) 0.6040(2) 0.56330(8)
O3 O 0.5576(2) 0.6654(2) 0.54684(9)
O4 O 0.6858(3) 0.5571(2) 0.64146(9)
S1 S 0.71459(9) 0.65598(8) 0.59071(3)
H5 H 0.816(4) 1.367(4) 0.6696(14)
C7 C 0.6874(3) 0.8854(3) 0.32020(12)
C8 C 0.6611(4) 0.7236(4) 0.30434(11)
H6 H 0.623838 0.698445 0.264970
C9 C 0.6879(4) 0.6012(3) 0.34435(11)
H7 H 0.669110 0.494471 0.332162
C10 C 0.7434(3) 0.6356(3) 0.40338(11)
C11 C 0.7712(3) 0.7907(3) 0.42164(11)
H8 H 0.808390 0.813488 0.461216
C12 C 0.7432(3) 0.9158(3) 0.38036(11)
N1 N 0.6561(4) 0.9982(4) 0.27752(14)
N2 N 0.7673(3) 0.5017(3) 0.44542(11)
N3 N 0.7738(3) 1.0784(3) 0.40301(11)
O5 O 0.8190(3) 1.0990(3) 0.45562(10)
O6 O 0.7512(3) 1.1921(2) 0.36768(10)
H9 H 0.689(4) 1.089(4) 0.2868(15)
H10 H 0.645(4) 0.967(4) 0.2424(14)
H11 H 0.803(4) 0.538(4) 0.4829(14)
H12 H 0.664(5) 0.442(4) 0.4452(15)
H13 H 0.863(4) 0.444(4) 0.4366(12)
loop_
_geom_bond_atom_site_label_1
_geom_bond_atom_site_label_2
_geom_bond_site_symmetry_1
_geom_bond_site_symmetry_2
C1 C2 1_555 1_555
C2 H1 1_555 1_555
C3 C2 1_555 1_555
H2 C3 1_555 1_555
C4 C3 1_555 1_555
C5 C4 1_555 1_555
H3 C5 1_555 1_555
C6 C1 1_555 1_555
H4 C6 1_555 1_555
O1 C4 1_555 1_555
O2 S1 1_555 1_555
O3 S1 1_555 1_555
O4 S1 1_555 1_555
S1 C1 1_555 1_555
H5 O1 1_555 1_555
C7 C8 1_555 1_555
C8 H6 1_555 1_555
C9 C8 1_555 1_555
H7 C9 1_555 1_555
C10 C9 1_555 1_555
C11 C10 1_555 1_555
H8 C11 1_555 1_555
C12 C7 1_555 1_555
N1 C7 1_555 1_555
N2 C10 1_555 1_555
N3 C12 1_555 1_555
O5 N3 1_555 1_555
O6 N3 1_555 1_555
H9 N1 1_555 1_555
H10 N1 1_555 1_555
H11 N2 1_555 1_555
H12 N2 1_555 1_555
H13 N2 1_555 1_555
C5 C6 1_555 1_555
C11 C12 1_555 1_555

#END
