
#######################################################################
#
#                 Cambridge Crystallographic Data Centre
#                                CCDC 
#
#######################################################################
#
# If this CIF has been generated from an entry in the Cambridge 
# Structural Database, then it will include bibliographic, chemical, 
# crystal, experimental, refinement or atomic coordinate data resulting 
# from the CCDC's data processing and validation procedures.
#
#######################################################################

data_TEZBIK
_chemical_formula_moiety         'C26 H42 O9'
_chemical_name_systematic        
'(4-Acetoxy-2,12-bis(methoxymethoxy)-2,8,12-trimethyl-15-oxabicyclo(9.3.1)pentadeca-5,7-dien-5-yl)methyl acetate'
_symmetry_cell_setting           orthorhombic
_symmetry_space_group_name_H-M   'P 21 21 21'
_symmetry_Int_Tables_number      19
_space_group_name_Hall           'P 2ac 2ab'
loop_
_symmetry_equiv_pos_site_id
_symmetry_equiv_pos_as_xyz
1 x,y,z
2 1/2-x,-y,1/2+z
3 -x,1/2+y,1/2-z
4 1/2+x,1/2-y,-z
_cell_length_a                   9.9249(16)
_cell_length_b                   11.4687(18)
_cell_length_c                   24.190(4)
_cell_angle_alpha                90
_cell_angle_beta                 90
_cell_angle_gamma                90
_cell_volume                     2753.44
_exptl_crystal_colour            colorless
_chemical_melting_point          '80-81 deg.C'
_cell_formula_units_Z            4
loop_
_atom_site_label
_atom_site_type_symbol
_atom_site_fract_x
_atom_site_fract_y
_atom_site_fract_z
O1 O 0.6333(3) -0.0639(3) -0.03245(16)
O2 O 0.6092(4) -0.1116(4) -0.1420(2)
O3 O 0.5525(9) 0.0427(10) -0.2123(4)
O4 O 0.6377(3) 0.2392(2) 0.00118(15)
O5 O 0.4980(4) 0.3938(4) -0.0246(2)
O6 O 0.6238(4) 0.2057(3) 0.12592(16)
O7 O 0.8284(6) 0.1923(5) 0.1603(2)
O8 O 0.4174(6) 0.0588(4) 0.18711(18)
O9 O 0.4322(9) 0.1910(8) 0.2506(4)
C1 C 0.6237(6) -0.0033(5) 0.1444(3)
C2 C 0.6643(6) -0.1134(5) 0.1356(3)
H1 H 0.6464 -0.1688 0.1627
C3 C 0.7340(6) -0.1500(5) 0.0866(3)
H2 H 0.7600 -0.0907 0.0627
C4 C 0.7659(5) -0.2564(5) 0.0710(3)
C5 C 0.8345(6) -0.2788(5) 0.0164(3)
H3 H 0.7863 -0.3415 -0.0019
H4 H 0.9245 -0.3073 0.0242
C6 C 0.8475(5) -0.1791(5) -0.0246(3)
H5 H 0.9184 -0.1983 -0.0507
H6 H 0.8756 -0.1099 -0.0047
C7 C 0.7183(5) -0.1498(5) -0.0575(3)
H7 H 0.6653 -0.2219 -0.0584
C8 C 0.7429(6) -0.1162(6) -0.1182(4)
C9 C 0.8067(6) 0.0069(5) -0.1199(3)
H8 H 0.8960 0.0044 -0.1037
H9 H 0.8153 0.0325 -0.1579
C10 C 0.7194(5) 0.0926(5) -0.0880(2)
H10 H 0.7670 0.1662 -0.0852
H11 H 0.6374 0.1064 -0.1088
C11 C 0.6820(4) 0.0519(4) -0.0303(2)
H12 H 0.7631 0.0533 -0.0072
C12 C 0.5733(4) 0.1264(4) -0.0023(2)
C13 C 0.5366(4) 0.0801(4) 0.0543(2)
H13 H 0.5139 -0.0017 0.0502
H14 H 0.4554 0.1200 0.0662
C14 C 0.6402(5) 0.0898(4) 0.1015(2)
H15 H 0.7309 0.0840 0.0857
C15 C 0.7405(7) -0.3621(6) 0.1038(4)
H16 H 0.7015 -0.3408 0.1387
H17 H 0.8239 -0.4025 0.1100
H18 H 0.6795 -0.4121 0.0841
C16 C 0.8265(7) -0.2056(6) -0.1499(3)
H19 H 0.8301 -0.1842 -0.1882
H20 H 0.7858 -0.2812 -0.1463
H21 H 0.9161 -0.2077 -0.1350
C17 C 0.5826(13) -0.0813(12) -0.2044(4)
H22 H 0.6786 -0.0719 -0.2129
C18 C 0.5225(16) 0.0869(13) -0.2655(6)
H23 H 0.4446 0.0392 -0.2741
H24 H 0.5951 0.0509 -0.2862
C19 C 0.4444(4) 0.1318(5) -0.0392(2)
H25 H 0.4642 0.1736 -0.0726
H26 H 0.3738 0.1710 -0.0195
H27 H 0.4161 0.0540 -0.0482
C20 C 0.5617(5) 0.3351(4) 0.0189(3)
H28 H 0.4940 0.3086 0.0449
H29 H 0.6205 0.3892 0.0381
C21 C 0.5928(7) 0.4495(6) -0.0582(4)
H30 H 0.6630 0.3955 -0.0677
H31 H 0.6308 0.5145 -0.0387
H32 H 0.5496 0.4767 -0.0913
C22 C 0.7270(9) 0.2461(6) 0.1538(3)
C23 C 0.6991(9) 0.3630(6) 0.1807(2)
H33 H 0.7724 0.4153 0.1732
H34 H 0.6901 0.3528 0.2199
H35 H 0.6172 0.3949 0.1660
C24 C 0.5599(9) 0.0235(7) 0.1984(3)
H36 H 0.6078 0.0864 0.2167
H37 H 0.5619 -0.0446 0.2222
C25 C 0.3531(13) 0.1389(11) 0.2180(5)
C26 C 0.2262(11) 0.1692(9) 0.2012(3)
H38 H 0.1874 0.2221 0.2276
H39 H 0.1713 0.1005 0.1987
H40 H 0.2310 0.2063 0.1657
O10? O 0.5883(19) -0.2120(19) -0.2070(8)
C27? C 0.507(2) -0.306(2) -0.1953(9)
H41? H 0.4200 -0.2740 -0.1858
H42? H 0.5430 -0.3396 -0.1614
loop_
_geom_bond_atom_site_label_1
_geom_bond_atom_site_label_2
_geom_bond_site_symmetry_1
_geom_bond_site_symmetry_2
O1 C7 1_555 1_555
O2 C8 1_555 1_555
O3 C17 1_555 1_555
O4 C12 1_555 1_555
O5 C20 1_555 1_555
O6 C14 1_555 1_555
O7 C22 1_555 1_555
O8 C24 1_555 1_555
O9 C25 1_555 1_555
C1 C2 1_555 1_555
C2 H1 1_555 1_555
C3 C2 1_555 1_555
H2 C3 1_555 1_555
C4 C3 1_555 1_555
C5 C4 1_555 1_555
H3 C5 1_555 1_555
H4 C5 1_555 1_555
C6 C5 1_555 1_555
H5 C6 1_555 1_555
H6 C6 1_555 1_555
C7 C6 1_555 1_555
H7 C7 1_555 1_555
C8 C7 1_555 1_555
C9 C8 1_555 1_555
H8 C9 1_555 1_555
H9 C9 1_555 1_555
C10 C9 1_555 1_555
H10 C10 1_555 1_555
H11 C10 1_555 1_555
C11 O1 1_555 1_555
H12 C11 1_555 1_555
C12 C11 1_555 1_555
C13 C12 1_555 1_555
H13 C13 1_555 1_555
H14 C13 1_555 1_555
C14 C1 1_555 1_555
H15 C14 1_555 1_555
C15 C4 1_555 1_555
H16 C15 1_555 1_555
H17 C15 1_555 1_555
H18 C15 1_555 1_555
C16 C8 1_555 1_555
H19 C16 1_555 1_555
H20 C16 1_555 1_555
H21 C16 1_555 1_555
C17 O2 1_555 1_555
H22 C17 1_555 1_555
C18 O3 1_555 1_555
H23 C18 1_555 1_555
H24 C18 1_555 1_555
C19 C12 1_555 1_555
H25 C19 1_555 1_555
H26 C19 1_555 1_555
H27 C19 1_555 1_555
C20 O4 1_555 1_555
H28 C20 1_555 1_555
H29 C20 1_555 1_555
C21 O5 1_555 1_555
H30 C21 1_555 1_555
H31 C21 1_555 1_555
H32 C21 1_555 1_555
C22 O6 1_555 1_555
C23 C22 1_555 1_555
H33 C23 1_555 1_555
H34 C23 1_555 1_555
H35 C23 1_555 1_555
C24 C1 1_555 1_555
H36 C24 1_555 1_555
H37 C24 1_555 1_555
C25 O8 1_555 1_555
C26 C25 1_555 1_555
H38 C26 1_555 1_555
H39 C26 1_555 1_555
H40 C26 1_555 1_555
C10 C11 1_555 1_555
C13 C14 1_555 1_555

#END
