
#######################################################################
#
#                 Cambridge Crystallographic Data Centre
#                                CCDC 
#
#######################################################################
#
# If this CIF has been generated from an entry in the Cambridge 
# Structural Database, then it will include bibliographic, chemical, 
# crystal, experimental, refinement or atomic coordinate data resulting 
# from the CCDC's data processing and validation procedures.
#
#######################################################################

data_TEZCAF
_chemical_formula_moiety         'C26 H20 N1 O1 P1'
_chemical_name_systematic        
2-(2-(diphenylphosphino)phenyl)-5-methyl-1,3-benzoxazole
_symmetry_cell_setting           monoclinic
_symmetry_space_group_name_H-M   'P 21/c'
_symmetry_Int_Tables_number      14
_space_group_name_Hall           '-P 2ybc'
loop_
_symmetry_equiv_pos_site_id
_symmetry_equiv_pos_as_xyz
1 x,y,z
2 -x,1/2+y,1/2-z
3 -x,-y,-z
4 x,1/2-y,1/2+z
_cell_length_a                   11.059(4)
_cell_length_b                   9.699(4)
_cell_length_c                   19.399(7)
_cell_angle_alpha                90
_cell_angle_beta                 96.049(6)
_cell_angle_gamma                90
_cell_volume                     2069.18
_exptl_crystal_colour            yellow
_exptl_crystal_description       cubic
_cell_formula_units_Z            4
loop_
_atom_site_label
_atom_site_type_symbol
_atom_site_fract_x
_atom_site_fract_y
_atom_site_fract_z
P1 P 0.70858(6) 0.47210(7) 0.56228(3)
N1 N 0.68568(19) 0.6276(2) 0.68656(11)
O1 O 0.68926(16) 0.85779(17) 0.69152(9)
C1 C 0.7112(2) 0.7391(3) 0.65614(13)
C2 C 0.6442(2) 0.8108(3) 0.75062(14)
C3 C 0.6070(3) 0.8865(3) 0.80384(16)
H1 H 0.6093 0.9824 0.8045
C4 C 0.5656(2) 0.8103(4) 0.85659(16)
H2 H 0.5384 0.8574 0.8938
C5 C 0.5621(2) 0.6679(3) 0.85714(14)
C6 C 0.6002(2) 0.5962(3) 0.80209(14)
H3 H 0.5981 0.5003 0.8010
C7 C 0.6418(2) 0.6702(3) 0.74846(13)
C8 C 0.7600(2) 0.7562(3) 0.58975(13)
C9 C 0.7690(2) 0.6442(2) 0.54391(12)
C10 C 0.8137(2) 0.6733(3) 0.48142(13)
H4 H 0.8201 0.6021 0.4499
C11 C 0.8492(2) 0.8050(3) 0.46428(15)
H5 H 0.8784 0.8209 0.4217
C12 C 0.8415(2) 0.9111(3) 0.50958(16)
H6 H 0.8665 0.9991 0.4985
C13 C 0.7966(2) 0.8871(3) 0.57158(15)
H7 H 0.7905 0.9599 0.6022
C14 C 0.7351(2) 0.3759(2) 0.48416(11)
C15 C 0.6354(2) 0.3462(3) 0.43758(13)
H8 H 0.5591 0.3774 0.4466
C16 C 0.6460(3) 0.2723(3) 0.37887(15)
H9 H 0.5772 0.2532 0.3485
C17 C 0.7586(3) 0.2254(3) 0.36414(14)
H10 H 0.7665 0.1767 0.3236
C18 C 0.8569(3) 0.2517(3) 0.40987(15)
H11 H 0.9329 0.2195 0.4008
C19 C 0.8465(2) 0.3245(3) 0.46887(13)
H12 H 0.9154 0.3402 0.4997
C20 C 0.8273(2) 0.3972(3) 0.62307(12)
C21 C 0.9424(2) 0.4526(3) 0.63891(13)
H13 H 0.9626 0.5356 0.6190
C22 C 1.0267(3) 0.3855(3) 0.68393(15)
H14 H 1.1035 0.4240 0.6943
C23 C 1.0002(3) 0.2638(4) 0.71367(16)
H15 H 1.0585 0.2190 0.7437
C24 C 0.8876(3) 0.2084(3) 0.69907(16)
H16 H 0.8684 0.1250 0.7190
C25 C 0.8020(3) 0.2762(3) 0.65467(15)
H17 H 0.7246 0.2384 0.6459
C26 C 0.5191(3) 0.5933(3) 0.91749(13)
H18 H 0.4589 0.5264 0.9010
H19 H 0.4842 0.6581 0.9471
H20 H 0.5866 0.5475 0.9430
loop_
_geom_bond_atom_site_label_1
_geom_bond_atom_site_label_2
_geom_bond_site_symmetry_1
_geom_bond_site_symmetry_2
P1 C9 1_555 1_555
N1 C1 1_555 1_555
O1 C1 1_555 1_555
C1 C8 1_555 1_555
C2 O1 1_555 1_555
C3 C2 1_555 1_555
H1 C3 1_555 1_555
C4 C3 1_555 1_555
H2 C4 1_555 1_555
C5 C4 1_555 1_555
C6 C5 1_555 1_555
H3 C6 1_555 1_555
C7 N1 1_555 1_555
C8 C9 1_555 1_555
C9 C10 1_555 1_555
C10 H4 1_555 1_555
C11 C10 1_555 1_555
H5 C11 1_555 1_555
C12 C11 1_555 1_555
H6 C12 1_555 1_555
C13 C8 1_555 1_555
H7 C13 1_555 1_555
C14 P1 1_555 1_555
C15 C14 1_555 1_555
H8 C15 1_555 1_555
C16 C15 1_555 1_555
H9 C16 1_555 1_555
C17 C16 1_555 1_555
H10 C17 1_555 1_555
C18 C17 1_555 1_555
H11 C18 1_555 1_555
C19 C14 1_555 1_555
H12 C19 1_555 1_555
C20 P1 1_555 1_555
C21 C20 1_555 1_555
H13 C21 1_555 1_555
C22 C21 1_555 1_555
H14 C22 1_555 1_555
C23 C22 1_555 1_555
H15 C23 1_555 1_555
C24 C23 1_555 1_555
H16 C24 1_555 1_555
C25 C20 1_555 1_555
H17 C25 1_555 1_555
C26 C5 1_555 1_555
H18 C26 1_555 1_555
H19 C26 1_555 1_555
H20 C26 1_555 1_555
C2 C7 1_555 1_555
C6 C7 1_555 1_555
C12 C13 1_555 1_555
C18 C19 1_555 1_555
C24 C25 1_555 1_555

#END
