
#######################################################################
#
#                 Cambridge Crystallographic Data Centre
#                                CCDC 
#
#######################################################################
#
# If this CIF has been generated from an entry in the Cambridge 
# Structural Database, then it will include bibliographic, chemical, 
# crystal, experimental, refinement or atomic coordinate data resulting 
# from the CCDC's data processing and validation procedures.
#
#######################################################################

data_TEZFAG
_chemical_formula_moiety         'C18 H17 N1 O2'
_chemical_name_systematic        
cis-2-Cyano-3-(4-methoxyphenyl)-5-phenyl-2,3,4,5-tetrahydrofuran
_symmetry_cell_setting           monoclinic
_symmetry_space_group_name_H-M   'P 21/c'
_symmetry_Int_Tables_number      14
_space_group_name_Hall           '-P 2ybc'
loop_
_symmetry_equiv_pos_site_id
_symmetry_equiv_pos_as_xyz
1 x,y,z
2 -x,1/2+y,1/2-z
3 -x,-y,-z
4 x,1/2-y,1/2+z
_cell_length_a                   5.8513(2)
_cell_length_b                   9.3655(4)
_cell_length_c                   27.1933(9)
_cell_angle_alpha                90
_cell_angle_beta                 90.00
_cell_angle_gamma                90
_cell_volume                     1490.2
_exptl_crystal_colour            colorless
_exptl_crystal_description       plates
_chemical_melting_point          '76-78 deg.C'
_cell_formula_units_Z            4
loop_
_atom_site_label
_atom_site_type_symbol
_atom_site_fract_x
_atom_site_fract_y
_atom_site_fract_z
C1 C 0.3975(3) 0.6786(2) 0.57828(7)
C2 C 0.4669(4) 0.7966(2) 0.48478(7)
C3 C 0.6298(4) 0.7088(2) 0.50565(7)
H1 H 0.7637 0.6888 0.4886
C4 C 0.6412(3) 0.4851(2) 0.74317(7)
C5 C 0.2381(3) 0.7663(2) 0.55646(7)
H2 H 0.1040 0.7867 0.5734
C6 C 0.2695(4) 0.8253(2) 0.51030(7)
H3 H 0.1579 0.8838 0.4967
C7 C 0.5954(3) 0.6504(2) 0.55158(7)
H4 H 0.7065 0.5910 0.5650
C8 C 0.6544(4) 0.5563(2) 0.78766(7)
H5 H 0.5462 0.6256 0.7952
C9 C 0.9735(4) 0.3507(3) 0.76683(8)
H6 H 1.0808 0.2804 0.7597
C10 C 0.8035(3) 0.3818(2) 0.73317(7)
H7 H 0.7983 0.3327 0.7035
C11 C 0.8259(4) 0.5259(3) 0.82105(8)
H8 H 0.8335 0.5755 0.8506
C12 C 0.9850(4) 0.4225(3) 0.81060(8)
H9 H 1.0998 0.4015 0.8331
C13 C 0.3542(3) 0.6142(2) 0.62821(7)
H10 H 0.2057 0.6490 0.6398
C14 C 0.5277(3) 0.6392(2) 0.66920(7)
H11 H 0.6827 0.6248 0.6576
H12 H 0.5139 0.7346 0.6828
C15 C 0.4603(3) 0.5262(2) 0.70674(7)
H13 H 0.3247 0.5590 0.7246
O1 O 0.3989(2) 0.40324(14) 0.67706(5)
C16 C 0.1179(4) 0.3977(2) 0.61432(7)
C17 C 0.3461(3) 0.4495(2) 0.62835(7)
H14 H 0.4603 0.4121 0.6054
N1 N -0.0604(3) 0.3628(2) 0.60310(7)
O2 O 0.5174(2) 0.84899(16) 0.43895(5)
C18 C 0.3558(4) 0.9424(2) 0.41662(8)
H15 H 0.2131 0.8933 0.4124
H16 H 0.4121 0.9726 0.3851
H17 H 0.3332 1.0244 0.4373
loop_
_geom_bond_atom_site_label_1
_geom_bond_atom_site_label_2
_geom_bond_site_symmetry_1
_geom_bond_site_symmetry_2
C1 C5 1_555 1_555
C2 C3 1_555 1_555
C3 H1 1_555 1_555
C4 C8 1_555 1_555
C5 H2 1_555 1_555
C6 C2 1_555 1_555
H3 C6 1_555 1_555
C7 C1 1_555 1_555
H4 C7 1_555 1_555
C8 H5 1_555 1_555
C9 H6 1_555 1_555
C10 C4 1_555 1_555
H7 C10 1_555 1_555
C11 C8 1_555 1_555
H8 C11 1_555 1_555
C12 C9 1_555 1_555
H9 C12 1_555 1_555
C13 C1 1_555 1_555
H10 C13 1_555 1_555
C14 C13 1_555 1_555
H11 C14 1_555 1_555
H12 C14 1_555 1_555
C15 C4 1_555 1_555
H13 C15 1_555 1_555
O1 C15 1_555 1_555
C16 C17 1_555 1_555
C17 C13 1_555 1_555
H14 C17 1_555 1_555
N1 C16 1_555 1_555
O2 C2 1_555 1_555
C18 O2 1_555 1_555
H15 C18 1_555 1_555
H16 C18 1_555 1_555
H17 C18 1_555 1_555
C3 C7 1_555 1_555
C5 C6 1_555 1_555
C9 C10 1_555 1_555
C11 C12 1_555 1_555
C14 C15 1_555 1_555
O1 C17 1_555 1_555

#END
