
#######################################################################
#
#                 Cambridge Crystallographic Data Centre
#                                CCDC 
#
#######################################################################
#
# If this CIF has been generated from an entry in the Cambridge 
# Structural Database, then it will include bibliographic, chemical, 
# crystal, experimental, refinement or atomic coordinate data resulting 
# from the CCDC's data processing and validation procedures.
#
#######################################################################

data_TEZLUH
_chemical_formula_moiety         
'C16 H16 N4 2+,2(C7 H4 O6 S1 2-),2(C7 H7 N2 1+),4(H2 O1)'
_chemical_name_systematic        
"1H-3,1-Benzimidazol-3-ium 3,3'-ethane-1,2-diylbis-1H-3,1-benzimidazol-3-ium bis(2-hydroxy-5-sulfonatobenzoate) tetrahydrate"
_symmetry_cell_setting           triclinic
_symmetry_space_group_name_H-M   'P -1'
_symmetry_Int_Tables_number      2
_space_group_name_Hall           '-P 1'
loop_
_symmetry_equiv_pos_site_id
_symmetry_equiv_pos_as_xyz
1 x,y,z
2 -x,-y,-z
_cell_length_a                   7.2760(7)
_cell_length_b                   10.2287(12)
_cell_length_c                   16.7003(19)
_cell_angle_alpha                73.3520(10)
_cell_angle_beta                 86.249(2)
_cell_angle_gamma                70.9100(10)
_cell_volume                     1124.77
_exptl_crystal_colour            colorless
_exptl_crystal_description       block
_cell_formula_units_Z            1
loop_
_atom_site_label
_atom_site_type_symbol
_atom_site_fract_x
_atom_site_fract_y
_atom_site_fract_z
N1 N 0.5211(4) 0.6049(3) 0.07106(16)
N2 N 0.4295(4) 0.7971(3) 0.11427(16)
H1 H 0.4030 0.8854 0.1144
C1 C 0.4979(4) 0.7441(3) 0.0507(2)
H2 H 0.5257 0.7974 -0.0010
C2 C 0.4080(4) 0.6858(3) 0.18051(19)
C3 C 0.4665(4) 0.5630(3) 0.15315(19)
C4 C 0.4669(5) 0.4316(3) 0.2045(2)
H3 H 0.5071 0.3489 0.1865
C5 C 0.4042(5) 0.4292(4) 0.2843(2)
H4 H 0.4018 0.3425 0.3214
C6 C 0.3442(5) 0.5539(4) 0.3109(2)
H5 H 0.3026 0.5477 0.3653
C7 C 0.3444(5) 0.6838(4) 0.2600(2)
H6 H 0.3039 0.7667 0.2779
C8 C 0.5866(4) 0.5120(4) 0.0159(2)
H7 H 0.6777 0.4201 0.0461
H8 H 0.6528 0.5565 -0.0309
N1A N 0.4789(4) 0.3951(3) -0.07106(16)
N2A N 0.5705(4) 0.2029(3) -0.11427(16)
H1A H 0.5970 0.1146 -0.1144
C1A C 0.5021(4) 0.2559(3) -0.0507(2)
H2A H 0.4743 0.2026 0.0010
C2A C 0.5920(4) 0.3142(3) -0.18051(19)
C3A C 0.5335(4) 0.4370(3) -0.15315(19)
C4A C 0.5331(5) 0.5684(3) -0.2045(2)
H3A H 0.4929 0.6511 -0.1865
C5A C 0.5958(5) 0.5708(4) -0.2843(2)
H4A H 0.5982 0.6575 -0.3214
C6A C 0.6558(5) 0.4461(4) -0.3109(2)
H5A H 0.6974 0.4523 -0.3653
C7A C 0.6556(5) 0.3162(4) -0.2600(2)
H6A H 0.6961 0.2333 -0.2779
C8A C 0.4134(4) 0.4880(4) -0.0159(2)
H7A H 0.3223 0.5799 -0.0461
H8A H 0.3472 0.4435 0.0309
N3 N 0.8080(4) 0.1746(3) 0.39324(15)
H9 H 0.8148 0.2534 0.3588
N4 N 0.8531(4) -0.0516(3) 0.44805(18)
H10 H 0.8932 -0.1431 0.4549
C9 C 0.8887(5) 0.0457(4) 0.3843(2)
H11 H 0.9617 0.0255 0.3389
C10 C 0.7394(5) 0.0190(4) 0.5022(2)
C11 C 0.7106(5) 0.1636(4) 0.4666(2)
C12 C 0.5990(6) 0.2669(5) 0.5043(3)
H12 H 0.5782 0.3646 0.4798
C13 C 0.5220(6) 0.2187(7) 0.5782(3)
H13 H 0.4441 0.2853 0.6045
C14 C 0.5551(7) 0.0739(7) 0.6159(3)
H14 H 0.5021 0.0462 0.6677
C15 C 0.6637(6) -0.0314(5) 0.5798(3)
H15 H 0.6851 -0.1290 0.6053
O1 O 0.8779(3) 0.5286(2) 0.37044(13)
O2 O 0.9224(3) 0.3809(2) 0.29108(13)
O3 O 0.9811(3) 0.4598(2) 0.13596(13)
H16 H 0.9734 0.4033 0.1812
O4 O 0.8004(3) 1.1414(2) 0.08131(12)
O5 O 1.0109(3) 1.0404(2) 0.20463(13)
O6 O 0.6674(3) 1.0747(2) 0.21730(13)
S1 S 0.83469(11) 1.04590(8) 0.16481(5)
C16 C 0.9011(5) 0.5030(3) 0.3012(2)
C17 C 0.9039(4) 0.6215(3) 0.22379(17)
C18 C 0.9466(4) 0.5921(3) 0.14571(19)
C19 C 0.9523(4) 0.7023(3) 0.07559(18)
H17 H 0.9809 0.6829 0.0242
C20 C 0.9164(4) 0.8394(3) 0.08081(18)
H18 H 0.9213 0.9121 0.0330
C21 C 0.8727(4) 0.8712(3) 0.15641(17)
C22 C 0.8688(4) 0.7606(3) 0.22711(18)
H19 H 0.8418 0.7810 0.2782
O7 O 0.3511(3) 0.0738(2) 0.12518(12)
H20 H 0.2538 0.0631 0.1541
H21 H 0.4378 0.0729 0.1572
O8 O 0.9952(4) 0.6664(3) 0.47144(16)
H22 H 0.9596 0.6239 0.4414
H23 H 1.0328 0.6069 0.5192
loop_
_geom_bond_atom_site_label_1
_geom_bond_atom_site_label_2
_geom_bond_site_symmetry_1
_geom_bond_site_symmetry_2
N1 C1 1_555 1_555
N2 H1 1_555 1_555
C1 N2 1_555 1_555
H2 C1 1_555 1_555
C2 N2 1_555 1_555
C3 N1 1_555 1_555
C4 C3 1_555 1_555
H3 C4 1_555 1_555
C5 C4 1_555 1_555
H4 C5 1_555 1_555
C6 C5 1_555 1_555
H5 C6 1_555 1_555
C7 C2 1_555 1_555
H6 C7 1_555 1_555
C8 N1 1_555 1_555
H7 C8 1_555 1_555
H8 C8 1_555 1_555
N3 H9 1_555 1_555
N4 H10 1_555 1_555
C9 N3 1_555 1_555
H11 C9 1_555 1_555
C10 N4 1_555 1_555
C11 N3 1_555 1_555
C12 C11 1_555 1_555
H12 C12 1_555 1_555
C13 C12 1_555 1_555
H13 C13 1_555 1_555
C14 C13 1_555 1_555
H14 C14 1_555 1_555
C15 C10 1_555 1_555
H15 C15 1_555 1_555
O1 C16 1_555 1_555
O2 C16 1_555 1_555
O3 H16 1_555 1_555
O4 S1 1_555 1_555
O5 S1 1_555 1_555
O6 S1 1_555 1_555
S1 C21 1_555 1_555
C16 C17 1_555 1_555
C17 C18 1_555 1_555
C18 O3 1_555 1_555
C19 C18 1_555 1_555
H17 C19 1_555 1_555
C20 C19 1_555 1_555
H18 C20 1_555 1_555
C21 C20 1_555 1_555
C22 C17 1_555 1_555
H19 C22 1_555 1_555
O7 H20 1_555 1_555
H21 O7 1_555 1_555
O8 H22 1_555 1_555
H23 O8 1_555 1_555
N1A C1A 1_555 1_555
N2A H1A 1_555 1_555
C1A N2A 1_555 1_555
H2A C1A 1_555 1_555
C2A N2A 1_555 1_555
C3A N1A 1_555 1_555
C4A C3A 1_555 1_555
H3A C4A 1_555 1_555
C5A C4A 1_555 1_555
H4A C5A 1_555 1_555
C6A C5A 1_555 1_555
H5A C6A 1_555 1_555
C7A C2A 1_555 1_555
H6A C7A 1_555 1_555
C8A C8 1_555 1_555
H7A C8A 1_555 1_555
H8A C8A 1_555 1_555
C2 C3 1_555 1_555
C6 C7 1_555 1_555
N4 C9 1_555 1_555
C10 C11 1_555 1_555
C14 C15 1_555 1_555
C21 C22 1_555 1_555
N1A C8A 1_555 1_555
C2A C3A 1_555 1_555
C6A C7A 1_555 1_555

#END
