
#######################################################################
#
#                 Cambridge Crystallographic Data Centre
#                                CCDC 
#
#######################################################################
#
# If this CIF has been generated from an entry in the Cambridge 
# Structural Database, then it will include bibliographic, chemical, 
# crystal, experimental, refinement or atomic coordinate data resulting 
# from the CCDC's data processing and validation procedures.
#
#######################################################################

data_TEZNET01
_chemical_formula_moiety         'C9 H9 N5,C8 H6 O4'
_chemical_name_systematic        
'isophthalic acid 6-phenyl-1,3,5-triazine-2,4-diamine'
_symmetry_cell_setting           triclinic
_symmetry_space_group_name_H-M   'P -1'
_symmetry_Int_Tables_number      2
_space_group_name_Hall           '-P 1'
loop_
_symmetry_equiv_pos_site_id
_symmetry_equiv_pos_as_xyz
1 x,y,z
2 -x,-y,-z
_cell_length_a                   8.506(3)
_cell_length_b                   10.140(4)
_cell_length_c                   10.148(4)
_cell_angle_alpha                108.07(2)
_cell_angle_beta                 91.84(3)
_cell_angle_gamma                93.39(3)
_cell_volume                     829.473
_exptl_crystal_colour            colorless
_exptl_crystal_description       block
_cell_formula_units_Z            2
loop_
_atom_site_label
_atom_site_type_symbol
_atom_site_fract_x
_atom_site_fract_y
_atom_site_fract_z
O1 O 0.26653(18) 0.64725(14) 1.1229(2)
O2 O 0.35884(19) 0.43964(14) 1.0902(2)
H1 H 0.292(3) 0.409(3) 1.022(3)
O3 O 0.83667(18) 0.54012(14) 1.60015(19)
H2 H 0.898(3) 0.481(2) 1.613(4)
O4 O 0.77641(18) 0.37290(14) 1.40035(19)
C1 C 0.5467(3) 0.8073(2) 1.4915(3)
H3 H 0.5430 0.8987 1.5481
C2 C 0.6449(3) 0.7199(2) 1.5297(3)
H4 H 0.7056 0.7520 1.6128
C3 C 0.6528(2) 0.58458(19) 1.4441(3)
C4 C 0.5596(2) 0.53592(19) 1.3223(3)
H5 H 0.5642 0.4448 1.2653
C5 C 0.4590(2) 0.62277(18) 1.2848(3)
C6 C 0.4544(3) 0.7594(2) 1.3701(3)
H6 H 0.3887 0.8187 1.3449
C7 C 0.7614(2) 0.48778(19) 1.4781(3)
C8 C 0.3531(2) 0.57138(18) 1.1571(3)
N1 N -0.0492(2) 0.17222(17) 0.4866(2)
H7 H -0.0893 0.2257 0.4454
H8 H -0.0512 0.0841 0.4451
N2 N 0.0973(2) 0.55052(15) 0.8601(2)
H9 H 0.0593 0.6040 0.8177
H10 H 0.1426 0.5857 0.9416
N3 N 0.0739(2) 0.13747(16) 0.6762(2)
N4 N 0.14771(19) 0.33461(15) 0.8714(2)
N5 N 0.01524(19) 0.36360(15) 0.6735(2)
C9 C 0.2167(5) 0.0423(3) 1.0863(4)
H11 H 0.1972 0.0594 1.1796
C10 C 0.2912(5) -0.0737(3) 1.0162(5)
H12 H 0.3229 -0.1344 1.0626
C11 C 0.3191(4) -0.1008(2) 0.8780(5)
H13 H 0.3712 -0.1787 0.8318
C12 C 0.2696(3) -0.0122(2) 0.8076(3)
H14 H 0.2863 -0.0310 0.7136
C13 C 0.1946(3) 0.10555(19) 0.8791(3)
C14 C 0.1710(3) 0.1336(3) 1.0179(3)
H15 H 0.1243 0.2140 1.0661
C15 C 0.1356(2) 0.19701(18) 0.8020(3)
C16 C 0.0862(2) 0.41404(18) 0.7998(2)
C17 C 0.0147(2) 0.22470(19) 0.6122(3)
loop_
_geom_bond_atom_site_label_1
_geom_bond_atom_site_label_2
_geom_bond_site_symmetry_1
_geom_bond_site_symmetry_2
O1 C8 1_555 1_555
O2 H1 1_555 1_555
O3 H2 1_555 1_555
O4 C7 1_555 1_555
C1 H3 1_555 1_555
C2 C1 1_555 1_555
H4 C2 1_555 1_555
C3 C2 1_555 1_555
C4 C3 1_555 1_555
H5 C4 1_555 1_555
C5 C4 1_555 1_555
C6 C1 1_555 1_555
H6 C6 1_555 1_555
C7 O3 1_555 1_555
C8 O2 1_555 1_555
N1 H7 1_555 1_555
H8 N1 1_555 1_555
N2 H9 1_555 1_555
H10 N2 1_555 1_555
N3 C15 1_555 1_555
N4 C15 1_555 1_555
N5 C16 1_555 1_555
C9 H11 1_555 1_555
C10 C9 1_555 1_555
H12 C10 1_555 1_555
C11 C10 1_555 1_555
H13 C11 1_555 1_555
C12 C11 1_555 1_555
H14 C12 1_555 1_555
C13 C12 1_555 1_555
C14 C9 1_555 1_555
H15 C14 1_555 1_555
C15 C13 1_555 1_555
C16 N2 1_555 1_555
C17 N1 1_555 1_555
C3 C7 1_555 1_555
C5 C6 1_555 1_555
C5 C8 1_555 1_555
N3 C17 1_555 1_555
N4 C16 1_555 1_555
N5 C17 1_555 1_555
C13 C14 1_555 1_555

#END
