
#######################################################################
#
#                 Cambridge Crystallographic Data Centre
#                                CCDC 
#
#######################################################################
#
# If this CIF has been generated from an entry in the Cambridge 
# Structural Database, then it will include bibliographic, chemical, 
# crystal, experimental, refinement or atomic coordinate data resulting 
# from the CCDC's data processing and validation procedures.
#
#######################################################################

data_TEZQEV01
_chemical_formula_moiety         'C26 H21 N1 O7'
_chemical_name_systematic        
"Methyl 1'-(2-hydroxy-1,3-dioxoindan-2-yl)-1,3-dioxoindane-2-spiro-3'-pyrrolizidine-1-carboxylate"
_symmetry_cell_setting           monoclinic
_symmetry_space_group_name_H-M   'C 2/c'
_symmetry_Int_Tables_number      15
_space_group_name_Hall           '-C 2yn'
loop_
_symmetry_equiv_pos_site_id
_symmetry_equiv_pos_as_xyz
1 x,y,z
2 1/2+x,1/2+y,z
3 -x,y,1/2-z
4 1/2-x,1/2+y,1/2-z
5 -x,-y,-z
6 1/2-x,1/2-y,-z
7 x,-y,1/2+z
8 1/2+x,1/2-y,1/2+z
_cell_length_a                   39.580(5)
_cell_length_b                   7.6690(15)
_cell_length_c                   14.868(3)
_cell_angle_alpha                90
_cell_angle_beta                 103.291(16)
_cell_angle_gamma                90
_cell_volume                     4392.14
_exptl_crystal_colour            colorless
_exptl_crystal_description       block
_cell_formula_units_Z            8
_exptl_crystal_recrystallization_method ethanol
loop_
_atom_site_label
_atom_site_type_symbol
_atom_site_fract_x
_atom_site_fract_y
_atom_site_fract_z
O1 O 0.07308(5) 0.7325(3) 0.11713(13)
O2 O 0.12466(4) 0.7130(2) 0.21385(11)
O3 O 0.22421(4) 0.6868(3) 0.21202(11)
O4 O 0.17375(4) 0.5356(3) -0.09529(11)
O5 O 0.10878(5) 0.6593(3) -0.11651(11)
H1 H 0.1292 0.6292 -0.1003
O6 O 0.10669(5) 1.0111(2) -0.03087(14)
O7 O 0.05550(6) 0.4526(3) -0.0507(2)
N1 N 0.16725(4) 0.4251(2) 0.09413(11)
C1 C 0.18367(5) 0.5860(3) 0.07124(13)
C2 C 0.15739(5) 0.7337(3) 0.06648(15)
H2 H 0.1577 0.8093 0.0144
H3 H 0.1629 0.8027 0.1226
C3 C 0.12111(5) 0.6473(3) 0.05505(13)
C4 C 0.12937(5) 0.4442(3) 0.06061(15)
H4 H 0.1227 0.3958 -0.0020
C5 C 0.11382(6) 0.3280(3) 0.12542(18)
H5 H 0.1010 0.3976 0.1608
H6 H 0.0983 0.2414 0.0904
C6 C 0.14515(7) 0.2410(3) 0.18904(18)
H7 H 0.1412 0.2232 0.2504
H8 H 0.1502 0.1295 0.1642
C7 C 0.17429(6) 0.3687(3) 0.19145(15)
H9 H 0.1731 0.4658 0.2325
H10 H 0.1968 0.3129 0.2103
C8 C 0.10343(5) 0.7037(3) 0.13072(15)
C9 C 0.10900(8) 0.7620(4) 0.28863(19)
H11 H 0.0999 0.8781 0.2785
H12 H 0.1262 0.7580 0.3459
H13 H 0.0905 0.6824 0.2913
C10 C 0.21928(6) 0.6158(3) 0.13721(15)
C11 C 0.24625(5) 0.5492(3) 0.09159(15)
C12 C 0.28137(6) 0.5255(3) 0.1270(2)
H14 H 0.2915 0.5499 0.1885
C13 C 0.30097(6) 0.4644(4) 0.0679(2)
H15 H 0.3247 0.4472 0.0903
C14 C 0.28613(7) 0.4280(3) -0.0240(2)
H16 H 0.3000 0.3872 -0.0621
C15 C 0.25130(6) 0.4510(3) -0.05965(18)
H17 H 0.2414 0.4279 -0.1215
C16 C 0.23135(5) 0.5101(3) -0.00032(15)
C17 C 0.19387(5) 0.5440(3) -0.01998(14)
C18 C 0.09585(5) 0.6972(3) -0.03765(15)
C19 C 0.08603(6) 0.8913(3) -0.04602(15)
C20 C 0.04821(6) 0.9050(3) -0.08045(16)
C21 C 0.02816(8) 1.0539(4) -0.1044(2)
H18 H 0.0382 1.1641 -0.0999
C22 C -0.00700(8) 1.0321(5) -0.1347(2)
H19 H -0.0210 1.1295 -0.1517
C23 C -0.02206(8) 0.8695(6) -0.1408(3)
H20 H -0.0460 0.8592 -0.1618
C24 C -0.00228(7) 0.7217(5) -0.1162(2)
H21 H -0.0125 0.6120 -0.1196
C25 C 0.03318(6) 0.7415(4) -0.08649(18)
C26 C 0.06007(6) 0.6068(3) -0.05542(19)
loop_
_geom_bond_atom_site_label_1
_geom_bond_atom_site_label_2
_geom_bond_site_symmetry_1
_geom_bond_site_symmetry_2
O1 C8 1_555 1_555
O2 C8 1_555 1_555
O3 C10 1_555 1_555
O4 C17 1_555 1_555
O5 H1 1_555 1_555
O6 C19 1_555 1_555
O7 C26 1_555 1_555
N1 C1 1_555 1_555
C1 C2 1_555 1_555
C2 H2 1_555 1_555
H3 C2 1_555 1_555
C3 C2 1_555 1_555
C4 N1 1_555 1_555
H4 C4 1_555 1_555
C5 C4 1_555 1_555
H5 C5 1_555 1_555
H6 C5 1_555 1_555
C6 C5 1_555 1_555
H7 C6 1_555 1_555
H8 C6 1_555 1_555
C7 N1 1_555 1_555
H9 C7 1_555 1_555
H10 C7 1_555 1_555
C8 C3 1_555 1_555
C9 O2 1_555 1_555
H11 C9 1_555 1_555
H12 C9 1_555 1_555
H13 C9 1_555 1_555
C10 C1 1_555 1_555
C11 C10 1_555 1_555
C12 C11 1_555 1_555
H14 C12 1_555 1_555
C13 C12 1_555 1_555
H15 C13 1_555 1_555
C14 C13 1_555 1_555
H16 C14 1_555 1_555
C15 C14 1_555 1_555
H17 C15 1_555 1_555
C16 C11 1_555 1_555
C17 C1 1_555 1_555
C18 O5 1_555 1_555
C19 C18 1_555 1_555
C20 C19 1_555 1_555
C21 C20 1_555 1_555
H18 C21 1_555 1_555
C22 C21 1_555 1_555
H19 C22 1_555 1_555
C23 C22 1_555 1_555
H20 C23 1_555 1_555
C24 C23 1_555 1_555
H21 C24 1_555 1_555
C25 C20 1_555 1_555
C26 C18 1_555 1_555
C3 C4 1_555 1_555
C3 C18 1_555 1_555
C6 C7 1_555 1_555
C15 C16 1_555 1_555
C16 C17 1_555 1_555
C24 C25 1_555 1_555
C25 C26 1_555 1_555

#END
