
#######################################################################
#
#                 Cambridge Crystallographic Data Centre
#                                CCDC 
#
#######################################################################
#
# If this CIF has been generated from an entry in the Cambridge 
# Structural Database, then it will include bibliographic, chemical, 
# crystal, experimental, refinement or atomic coordinate data resulting 
# from the CCDC's data processing and validation procedures.
#
#######################################################################

data_TEZQUM
_chemical_formula_moiety         'C7 H4 N1 O5 1-,C7 H7 N2 1+,C7 H6 N2'
_chemical_name_systematic        
'1H-Benzimidazol-3-ium 2-hydroxy-5-nitrobenzoate 1H-benzimidazole'
_symmetry_cell_setting           triclinic
_symmetry_space_group_name_H-M   'P -1'
_symmetry_Int_Tables_number      2
_space_group_name_Hall           '-P 1'
loop_
_symmetry_equiv_pos_site_id
_symmetry_equiv_pos_as_xyz
1 x,y,z
2 -x,-y,-z
_cell_length_a                   8.9060(8)
_cell_length_b                   9.2819(9)
_cell_length_c                   12.3591(11)
_cell_angle_alpha                93.7100(10)
_cell_angle_beta                 101.480(2)
_cell_angle_gamma                90.4000(10)
_cell_volume                     998.917
_exptl_crystal_colour            colorless
_exptl_crystal_description       block
_cell_formula_units_Z            2
loop_
_atom_site_label
_atom_site_type_symbol
_atom_site_fract_x
_atom_site_fract_y
_atom_site_fract_z
N1 N 0.0611(10) 0.9213(8) 0.3743(7)
H1 H 0.0290 0.9599 0.4305
N2 N 0.2094(7) 0.8818(6) 0.2509(5)
H2 H 0.2827 0.8882 0.2154
C1 C 0.1891(11) 0.9625(10) 0.3365(8)
H3 H 0.2538 1.0394 0.3686
C2 C 0.0887(8) 0.7839(7) 0.2289(6)
C3 C -0.0062(9) 0.8059(8) 0.3045(6)
C4 C -0.1348(10) 0.7236(9) 0.3035(7)
H4 H -0.1963 0.7420 0.3553
C5 C -0.1695(10) 0.6120(9) 0.2222(8)
H5 H -0.2558 0.5536 0.2192
C6 C -0.0777(11) 0.5865(10) 0.1458(8)
H6 H -0.1033 0.5104 0.0924
C7 C 0.0523(10) 0.6709(9) 0.1459(7)
H7 H 0.1126 0.6534 0.0932
N3 N 0.4666(7) 0.8661(7) 0.1491(5)
N4 N 0.5915(8) 0.7737(7) 0.0277(5)
H8 H 0.6156 0.7147 -0.0223
C8 C 0.4749(9) 0.7579(9) 0.0767(7)
H9 H 0.4066 0.6796 0.0620
C9 C 0.6697(8) 0.9024(8) 0.0704(6)
C10 C 0.5881(8) 0.9635(8) 0.1473(6)
C11 C 0.6351(10) 1.0908(9) 0.2081(7)
H10 H 0.5822 1.1297 0.2605
C12 C 0.7658(11) 1.1594(10) 0.1877(8)
H11 H 0.8011 1.2467 0.2258
C13 C 0.8437(10) 1.0954(10) 0.1090(8)
H12 H 0.9323 1.1409 0.0980
C14 C 0.7959(9) 0.9704(10) 0.0484(7)
H13 H 0.8467 0.9326 -0.0056
N5 N 0.5020(8) 0.7766(7) 0.4795(6)
O1 O 0.3908(8) 0.4312(6) 0.1347(5)
O2 O 0.2134(9) 0.2773(7) 0.1699(6)
O3 O 0.1075(7) 0.3104(6) 0.3391(6)
H14 H 0.1198 0.2753 0.2790
O4 O 0.5010(9) 0.8396(8) 0.5711(6)
O5 O 0.5877(7) 0.8180(7) 0.4220(6)
C15 C 0.3065(11) 0.3845(9) 0.1958(7)
C16 C 0.3047(9) 0.4658(8) 0.3045(6)
C17 C 0.2020(9) 0.4208(8) 0.3708(7)
C18 C 0.2021(9) 0.4994(9) 0.4736(7)
H15 H 0.1349 0.4722 0.5177
C19 C 0.2991(9) 0.6133(9) 0.5074(6)
H16 H 0.2992 0.6631 0.5752
C20 C 0.3983(8) 0.6566(7) 0.4421(6)
C21 C 0.4035(8) 0.5827(7) 0.3420(6)
H17 H 0.4729 0.6112 0.3001
loop_
_geom_bond_atom_site_label_1
_geom_bond_atom_site_label_2
_geom_bond_site_symmetry_1
_geom_bond_site_symmetry_2
N1 H1 1_555 1_555
N2 H2 1_555 1_555
C1 N1 1_555 1_555
H3 C1 1_555 1_555
C2 N2 1_555 1_555
C3 N1 1_555 1_555
C4 C3 1_555 1_555
H4 C4 1_555 1_555
C5 C4 1_555 1_555
H5 C5 1_555 1_555
C6 C5 1_555 1_555
H6 C6 1_555 1_555
C7 C2 1_555 1_555
H7 C7 1_555 1_555
N3 C8 1_555 1_555
N4 H8 1_555 1_555
C8 N4 1_555 1_555
H9 C8 1_555 1_555
C9 N4 1_555 1_555
C10 N3 1_555 1_555
C11 C10 1_555 1_555
H10 C11 1_555 1_555
C12 C11 1_555 1_555
H11 C12 1_555 1_555
C13 C12 1_555 1_555
H12 C13 1_555 1_555
C14 C9 1_555 1_555
H13 C14 1_555 1_555
N5 O4 1_555 1_555
O1 C15 1_555 1_555
O2 C15 1_555 1_555
O3 H14 1_555 1_555
O5 N5 1_555 1_555
C15 C16 1_555 1_555
C16 C17 1_555 1_555
C17 O3 1_555 1_555
C18 C17 1_555 1_555
H15 C18 1_555 1_555
C19 C18 1_555 1_555
H16 C19 1_555 1_555
C20 N5 1_555 1_555
C21 C16 1_555 1_555
H17 C21 1_555 1_555
N2 C1 1_555 1_555
C2 C3 1_555 1_555
C6 C7 1_555 1_555
C9 C10 1_555 1_555
C13 C14 1_555 1_555
C19 C20 1_555 1_555
C20 C21 1_555 1_555

#END
