
#######################################################################
#
#                 Cambridge Crystallographic Data Centre
#                                CCDC 
#
#######################################################################
#
# If this CIF has been generated from an entry in the Cambridge 
# Structural Database, then it will include bibliographic, chemical, 
# crystal, experimental, refinement or atomic coordinate data resulting 
# from the CCDC's data processing and validation procedures.
#
#######################################################################

data_TEZREX
_chemical_formula_moiety         'C7 H3 N2 O6 1-,C6 H7 Cl1 N1 O1 1+'
_chemical_name_systematic        
'5-Chloro-2-hydroxyanilinium 3,5-dinitrobenzoate'
_symmetry_cell_setting           triclinic
_symmetry_space_group_name_H-M   'P -1'
_symmetry_Int_Tables_number      2
_space_group_name_Hall           '-P 1'
loop_
_symmetry_equiv_pos_site_id
_symmetry_equiv_pos_as_xyz
1 x,y,z
2 -x,-y,-z
_cell_length_a                   7.3617(5)
_cell_length_b                   7.4375(7)
_cell_length_c                   13.6853(13)
_cell_angle_alpha                103.183(2)
_cell_angle_beta                 94.1080(10)
_cell_angle_gamma                94.8200(10)
_cell_volume                     723.789
_exptl_crystal_colour            colorless
_exptl_crystal_description       block
_cell_formula_units_Z            2
loop_
_atom_site_label
_atom_site_type_symbol
_atom_site_fract_x
_atom_site_fract_y
_atom_site_fract_z
Cl1 Cl 1.11888(10) 0.41574(12) 0.37474(5)
N1 N 0.7739(2) 0.0085(3) 0.04736(13)
H1 H 0.8038 0.0899 0.0111
H2 H 0.6634 -0.0499 0.0242
H3 H 0.8557 -0.0739 0.0427
O1 O 0.4656(2) -0.0141(2) 0.13737(12)
H4 H 0.3773 -0.0191 0.1703
C1 C 0.6103(3) 0.0845(3) 0.19773(17)
C2 C 0.7720(3) 0.1061(3) 0.15280(16)
C3 C 0.9276(3) 0.2081(3) 0.20596(17)
H5 H 1.0333 0.2239 0.1742
C4 C 0.9231(3) 0.2863(3) 0.30722(18)
C5 C 0.7659(4) 0.2639(4) 0.35468(18)
H6 H 0.7651 0.3163 0.4232
C6 C 0.6098(3) 0.1635(3) 0.30007(17)
H7 H 0.5040 0.1489 0.3320
N2 N 0.4706(3) 0.4205(3) 0.11356(16)
N3 N 0.6799(3) 0.8154(3) 0.44700(16)
O2 O 1.0587(2) 0.7927(2) 0.07229(12)
O3 O 0.5169(2) 0.3273(2) 0.03529(13)
O4 O 0.3154(2) 0.4073(3) 0.13876(16)
O5 O 0.5424(3) 0.7513(4) 0.47637(16)
O6 O 0.7905(3) 0.9340(3) 0.49866(15)
O7 O 1.2158(2) 0.8489(3) 0.22418(13)
C7 C 1.0764(3) 0.7915(3) 0.16511(18)
C8 C 0.9057(3) 0.7230(3) 0.20697(16)
C9 C 0.7724(3) 0.6009(3) 0.14307(17)
H8 H 0.7912 0.5519 0.0762
C10 C 0.6109(3) 0.5535(3) 0.18087(17)
C11 C 0.5748(3) 0.6228(3) 0.27892(18)
H9 H 0.4632 0.5923 0.3021
C12 C 0.7130(3) 0.7401(3) 0.34107(17)
C13 C 0.8792(3) 0.7898(3) 0.30783(17)
H10 H 0.9710 0.8662 0.3520
loop_
_geom_bond_atom_site_label_1
_geom_bond_atom_site_label_2
_geom_bond_site_symmetry_1
_geom_bond_site_symmetry_2
Cl1 C4 1_555 1_555
N1 H1 1_555 1_555
H2 N1 1_555 1_555
H3 N1 1_555 1_555
O1 H4 1_555 1_555
C1 O1 1_555 1_555
C2 N1 1_555 1_555
C3 C2 1_555 1_555
H5 C3 1_555 1_555
C4 C3 1_555 1_555
C5 C4 1_555 1_555
H6 C5 1_555 1_555
C6 C1 1_555 1_555
H7 C6 1_555 1_555
N2 O3 1_555 1_555
N3 O5 1_555 1_555
O2 C7 1_555 1_555
O4 N2 1_555 1_555
O6 N3 1_555 1_555
O7 C7 1_555 1_555
C7 C8 1_555 1_555
C8 C9 1_555 1_555
C9 H8 1_555 1_555
C10 N2 1_555 1_555
C11 C10 1_555 1_555
H9 C11 1_555 1_555
C12 N3 1_555 1_555
C13 C8 1_555 1_555
H10 C13 1_555 1_555
C1 C2 1_555 1_555
C5 C6 1_555 1_555
C9 C10 1_555 1_555
C11 C12 1_555 1_555
C12 C13 1_555 1_555

#END
