
#######################################################################
#
#                 Cambridge Crystallographic Data Centre
#                                CCDC 
#
#######################################################################
#
# If this CIF has been generated from an entry in the Cambridge 
# Structural Database, then it will include bibliographic, chemical, 
# crystal, experimental, refinement or atomic coordinate data resulting 
# from the CCDC's data processing and validation procedures.
#
#######################################################################

data_TEZVEA
_chemical_name_common            
"bis(Amantadinium) 5,5'-(diazenediyl)-bis(tetrazolate) dihydrate"
_chemical_formula_moiety         '2(C10 H18 N1 1+),C2 N10 2-,2(H2 O1)'
_chemical_name_systematic        
"bis(Adamantane-1-ammonium) 5,5'-(diazenediyl)-bis(tetrazolate) dihydrate"
_symmetry_cell_setting           monoclinic
_symmetry_space_group_name_H-M   'P 21/n'
_symmetry_Int_Tables_number      14
_space_group_name_Hall           '-P 2yn'
loop_
_symmetry_equiv_pos_site_id
_symmetry_equiv_pos_as_xyz
1 x,y,z
2 1/2-x,1/2+y,1/2-z
3 -x,-y,-z
4 1/2+x,1/2-y,1/2+z
_cell_length_a                   9.789(7)
_cell_length_b                   12.614(9)
_cell_length_c                   10.961(8)
_cell_angle_alpha                90
_cell_angle_beta                 97.657(11)
_cell_angle_gamma                90
_cell_volume                     1341.38
_exptl_crystal_colour            yellow
_exptl_crystal_description       block
_cell_formula_units_Z            2
_exptl_crystal_recrystallization_method methanol
loop_
_atom_site_label
_atom_site_type_symbol
_atom_site_fract_x
_atom_site_fract_y
_atom_site_fract_z
N1 N 0.1831(2) 0.42391(17) 0.6586(2)
N2 N 0.2881(2) 0.4474(2) 0.7464(2)
N3 N 0.3116(2) 0.5505(2) 0.7471(2)
N4 N 0.2220(2) 0.59699(19) 0.6602(2)
N5 N 0.0358(2) 0.54014(17) 0.5161(2)
C1 C 0.1452(3) 0.5179(2) 0.6105(3)
N1B N -0.1831(2) 0.57609(17) 0.3414(2)
N2B N -0.2881(2) 0.5526(2) 0.2536(2)
N3B N -0.3116(2) 0.4495(2) 0.2529(2)
N4B N -0.2220(2) 0.40301(19) 0.3398(2)
N5B N -0.0358(2) 0.45986(17) 0.4839(2)
C1B C -0.1452(3) 0.4821(2) 0.3895(3)
N6 N 0.3958(2) 0.70876(17) -0.0540(2)
H1 H 0.3782 0.6617 -0.1146
H2 H 0.4853 0.7077 -0.0257
H3 H 0.3722 0.7732 -0.0824
C2 C 0.3142(3) 0.6813(2) 0.0480(3)
C3 C 0.3584(3) 0.5709(2) 0.0958(3)
H4 H 0.3401 0.5194 0.0299
H5 H 0.4565 0.5705 0.1244
C4 C 0.1609(3) 0.6805(3) -0.0007(3)
H6 H 0.1425 0.6297 -0.0673
H7 H 0.1322 0.7501 -0.0321
C5 C 0.3436(3) 0.7631(2) 0.1504(3)
H8 H 0.3158 0.8329 0.1194
H9 H 0.4416 0.7648 0.1796
C6 C 0.2784(4) 0.5413(3) 0.2015(3)
H10 H 0.3071 0.4708 0.2327
C7 C 0.1250(4) 0.5401(3) 0.1533(4)
H11 H 0.1069 0.4886 0.0874
H12 H 0.0727 0.5199 0.2188
C8 C 0.0809(3) 0.6500(3) 0.1057(4)
H13 H -0.0181 0.6495 0.0760
C9 C 0.1101(4) 0.7312(3) 0.2095(4)
H14 H 0.0803 0.8009 0.1795
H15 H 0.0590 0.7127 0.2764
C10 C 0.2634(4) 0.7332(3) 0.2558(3)
H16 H 0.2818 0.7854 0.3222
C11 C 0.3082(4) 0.6229(3) 0.3047(3)
H17 H 0.4060 0.6233 0.3348
H18 H 0.2585 0.6043 0.3725
O1 O 0.17614(19) 0.80233(16) 0.54678(18)
H19 H 0.1733 0.8451 0.6063
H20 H 0.1898 0.7425 0.5819
loop_
_geom_bond_atom_site_label_1
_geom_bond_atom_site_label_2
_geom_bond_site_symmetry_1
_geom_bond_site_symmetry_2
N1 N2 1_555 1_555
N2 N3 1_555 1_555
N3 N4 1_555 1_555
N4 C1 1_555 1_555
N5 C1 1_555 1_555
C1 N1 1_555 1_555
N6 H1 1_555 1_555
H2 N6 1_555 1_555
H3 N6 1_555 1_555
C2 N6 1_555 1_555
C3 C2 1_555 1_555
H4 C3 1_555 1_555
H5 C3 1_555 1_555
C4 C2 1_555 1_555
H6 C4 1_555 1_555
H7 C4 1_555 1_555
C5 C2 1_555 1_555
H8 C5 1_555 1_555
H9 C5 1_555 1_555
C6 C3 1_555 1_555
H10 C6 1_555 1_555
C7 C6 1_555 1_555
H11 C7 1_555 1_555
H12 C7 1_555 1_555
C8 C4 1_555 1_555
H13 C8 1_555 1_555
C9 C8 1_555 1_555
H14 C9 1_555 1_555
H15 C9 1_555 1_555
C10 C5 1_555 1_555
H16 C10 1_555 1_555
C11 C6 1_555 1_555
H17 C11 1_555 1_555
H18 C11 1_555 1_555
O1 H19 1_555 1_555
H20 O1 1_555 1_555
N1B N2B 1_555 1_555
N2B N3B 1_555 1_555
N3B N4B 1_555 1_555
N4B C1B 1_555 1_555
N5B N5 1_555 1_555
C1B N1B 1_555 1_555
C7 C8 1_555 1_555
C9 C10 1_555 1_555
C10 C11 1_555 1_555
N5B C1B 1_555 1_555

#END
