
#######################################################################
#
#                 Cambridge Crystallographic Data Centre
#                                CCDC 
#
#######################################################################
#
# If this CIF has been generated from an entry in the Cambridge 
# Structural Database, then it will include bibliographic, chemical, 
# crystal, experimental, refinement or atomic coordinate data resulting 
# from the CCDC's data processing and validation procedures.
#
#######################################################################

data_TEZXIG
_chemical_formula_moiety         'C5 H7 N2 1+,C7 H5 O4 1-'
_chemical_name_systematic        '3-Aminopyridinium 2,4-dihydroxybenzoate'
_symmetry_cell_setting           monoclinic
_symmetry_space_group_name_H-M   'P 21/n'
_symmetry_Int_Tables_number      14
_space_group_name_Hall           '-P 2yn'
loop_
_symmetry_equiv_pos_site_id
_symmetry_equiv_pos_as_xyz
1 x,y,z
2 1/2-x,1/2+y,1/2-z
3 -x,-y,-z
4 1/2+x,1/2-y,1/2+z
_cell_length_a                   11.7788(15)
_cell_length_b                   8.5808(11)
_cell_length_c                   12.3340(16)
_cell_angle_alpha                90
_cell_angle_beta                 111.113(2)
_cell_angle_gamma                90
_cell_volume                     1162.93
_exptl_crystal_colour            yellow
_exptl_crystal_description       block
_cell_formula_units_Z            4
loop_
_atom_site_label
_atom_site_type_symbol
_atom_site_fract_x
_atom_site_fract_y
_atom_site_fract_z
C1 C 0.93717(11) 1.04675(13) 1.24661(10)
C2 C 1.02462(11) 1.09169(16) 1.35365(11)
C3 C 0.99288(13) 1.18526(17) 1.42994(11)
H1 H 1.0513 1.2132 1.5010
C4 C 0.87487(12) 1.23690(15) 1.40050(10)
C5 C 0.78723(12) 1.19841(14) 1.29285(11)
H2 H 0.7081 1.2360 1.2718
C6 C 0.81927(11) 1.10462(14) 1.21864(10)
H3 H 0.7605 1.0786 1.1472
C7 C 0.96975(11) 0.94251(14) 1.16599(11)
O1 O 0.88626(8) 0.89919(11) 1.07278(7)
O2 O 1.07829(9) 0.89982(13) 1.19233(9)
O3 O 1.14156(9) 1.04575(15) 1.38534(9)
H11 H 1.1490 0.9879 1.3354
O4 O 0.84603(10) 1.32595(13) 1.47787(8)
H12 H 0.7726 1.3426 1.4530
C8 C 0.87630(12) 0.67694(14) 0.84055(11)
H4 H 0.7985 0.7171 0.8237
C9 C 0.89967(12) 0.57732(15) 0.76250(11)
C10 C 1.01906(13) 0.52396(16) 0.79214(12)
H5 H 1.0387 0.4584 0.7415
C11 C 1.10741(13) 0.56677(16) 0.89465(12)
H6 H 1.1866 0.5303 0.9136
C12 C 1.07871(13) 0.66387(15) 0.96959(11)
H7 H 1.1378 0.6930 1.0399
N1 N 0.96540(10) 0.71533(12) 0.93997(9)
N2 N 0.81077(13) 0.53484(18) 0.66170(12)
H8 H 0.7370(9) 0.5588(19) 0.6499(14)
H9 H 0.9430(15) 0.7780(16) 0.9841(13)
H10 H 0.8316(17) 0.478(2) 0.6148(14)
loop_
_geom_bond_atom_site_label_1
_geom_bond_atom_site_label_2
_geom_bond_site_symmetry_1
_geom_bond_site_symmetry_2
C1 C2 1_555 1_555
C2 C3 1_555 1_555
C3 H1 1_555 1_555
C4 C3 1_555 1_555
C5 C4 1_555 1_555
H2 C5 1_555 1_555
C6 C1 1_555 1_555
H3 C6 1_555 1_555
C7 C1 1_555 1_555
C8 H4 1_555 1_555
C9 C8 1_555 1_555
C10 C9 1_555 1_555
H5 C10 1_555 1_555
C11 C10 1_555 1_555
H6 C11 1_555 1_555
C12 C11 1_555 1_555
H7 C12 1_555 1_555
N1 C8 1_555 1_555
N2 C9 1_555 1_555
H8 N2 1_555 1_555
H9 N1 1_555 1_555
H10 N2 1_555 1_555
O1 C7 1_555 1_555
O2 C7 1_555 1_555
O3 C2 1_555 1_555
H11 O3 1_555 1_555
O4 C4 1_555 1_555
H12 O4 1_555 1_555
C5 C6 1_555 1_555
C12 N1 1_555 1_555

#END
