
#######################################################################
#
#                 Cambridge Crystallographic Data Centre
#                                CCDC 
#
#######################################################################
#
# If this CIF has been generated from an entry in the Cambridge 
# Structural Database, then it will include bibliographic, chemical, 
# crystal, experimental, refinement or atomic coordinate data resulting 
# from the CCDC's data processing and validation procedures.
#
#######################################################################

data_THEOPH03
_chemical_name_common            'Theophylline monohydrate'
_chemical_formula_moiety         'C7 H8 N4 O2,H2 O1'
_chemical_name_systematic        
'1,3-Dimethyl-3,7-dihydro-1H-purine-2,6-dione monohydrate'
_symmetry_cell_setting           monoclinic
_symmetry_space_group_name_H-M   'P 21/n'
_symmetry_Int_Tables_number      14
_space_group_name_Hall           '-P 2yn'
loop_
_symmetry_equiv_pos_site_id
_symmetry_equiv_pos_as_xyz
1 x,y,z
2 1/2-x,1/2+y,1/2-z
3 -x,-y,-z
4 1/2+x,1/2-y,1/2+z
_cell_length_a                   4.4605(3)
_cell_length_b                   15.3207(9)
_cell_length_c                   13.0529(7)
_cell_angle_alpha                90
_cell_angle_beta                 97.511(2)
_cell_angle_gamma                90
_cell_volume                     884.355
_exptl_crystal_colour            colorless
_exptl_crystal_description       'elongated prism'
_cell_formula_units_Z            4
loop_
_atom_site_label
_atom_site_type_symbol
_atom_site_fract_x
_atom_site_fract_y
_atom_site_fract_z
O1 O 1.1748(11) 0.7587(3) 0.7974(4)
O2 O 0.8382(11) 0.5121(3) 0.6200(4)
N1 N 0.7740(6) 0.77473(15) 0.6715(2)
N2 N 1.0014(6) 0.63604(16) 0.7083(2)
C1 C 0.5818(8) 0.7351(2) 0.5946(3)
N3 N 0.3539(6) 0.77396(16) 0.5318(2)
C2 C 0.5979(8) 0.6476(2) 0.5740(3)
C3 C 0.9922(8) 0.7259(2) 0.7295(3)
N4 N 0.3708(6) 0.63149(15) 0.49391(19)
C4 C 0.8130(8) 0.5912(2) 0.6323(3)
C5 C 1.2232(9) 0.5843(2) 0.7760(3)
C6 C 0.7522(10) 0.8684(2) 0.6907(3)
C7 C 0.2338(9) 0.7086(2) 0.4721(3)
H1 H 0.3109(19) 0.5729(5) 0.4583(7)
H2 H 0.042(2) 0.7159(6) 0.4100(7)
H4 H 1.421(3) 0.6219(7) 0.7983(11)
H5 H 1.126(3) 0.5643(13) 0.8429(11)
H6 H 1.284(3) 0.5273(9) 0.7329(11)
H8 H 0.890(6) 0.8841(8) 0.7593(11)
H9 H 0.530(4) 0.8833(9) 0.706(2)
H11 H 0.813(7) 0.9054(8) 0.6317(15)
O3 O 0.2404(14) 0.9538(3) 0.4721(5)
H3 H 0.262(2) 0.8942(6) 0.4958(8)
H10 H 0.406(4) 0.9856(12) 0.4941(19)
H7? H 0.090(4) 0.9819(11) 0.4889(14)
loop_
_geom_bond_atom_site_label_1
_geom_bond_atom_site_label_2
_geom_bond_site_symmetry_1
_geom_bond_site_symmetry_2
O1 C3 1_555 1_555
O2 C4 1_555 1_555
N1 C1 1_555 1_555
N2 C3 1_555 1_555
C1 N3 1_555 1_555
N3 C7 1_555 1_555
C2 C1 1_555 1_555
O3 H3 1_555 1_555
C3 N1 1_555 1_555
N4 C2 1_555 1_555
C4 N2 1_555 1_555
C5 N2 1_555 1_555
C6 N1 1_555 1_555
C7 N4 1_555 1_555
H1 N4 1_555 1_555
H2 C7 1_555 1_555
H4 C5 1_555 1_555
H5 C5 1_555 1_555
H6 C5 1_555 1_555
H8 C6 1_555 1_555
H9 C6 1_555 1_555
H10 O3 1_555 1_555
H11 C6 1_555 1_555
C2 C4 1_555 1_555

#END
