
#######################################################################
#
#                 Cambridge Crystallographic Data Centre
#                                CCDC 
#
#######################################################################
#
# If this CIF has been generated from an entry in the Cambridge 
# Structural Database, then it will include bibliographic, chemical, 
# crystal, experimental, refinement or atomic coordinate data resulting 
# from the CCDC's data processing and validation procedures.
#
#######################################################################

data_THEOPH04
_chemical_name_common            'Theophylline monohydrate'
_chemical_formula_moiety         'C7 H8 N4 O2,H2 O1'
_chemical_name_systematic        
'1,3-Dimethyl-3,7-dihydro-1H-purine-2,6-dione monohydrate'
_symmetry_cell_setting           monoclinic
_symmetry_space_group_name_H-M   'P 21/n'
_symmetry_Int_Tables_number      14
_space_group_name_Hall           '-P 2yn'
loop_
_symmetry_equiv_pos_site_id
_symmetry_equiv_pos_as_xyz
1 x,y,z
2 1/2-x,1/2+y,1/2-z
3 -x,-y,-z
4 1/2+x,1/2-y,1/2+z
_cell_length_a                   4.4159(3)
_cell_length_b                   15.1675(9)
_cell_length_c                   12.9224(7)
_cell_angle_alpha                90
_cell_angle_beta                 97.511(2)
_cell_angle_gamma                90
_cell_volume                     858.092
_cell_formula_units_Z            4
loop_
_atom_site_label
_atom_site_type_symbol
_atom_site_fract_x
_atom_site_fract_y
_atom_site_fract_z
O1 O 1.170(2) 0.7595(5) 0.8009(8)
O2 O 0.841(2) 0.5116(5) 0.6204(8)
N1 N 0.7689(12) 0.7750(3) 0.6736(4)
N2 N 1.0012(12) 0.6363(3) 0.7090(4)
C1 C 0.5774(16) 0.7354(4) 0.5964(6)
N3 N 0.3483(12) 0.7743(3) 0.5336(5)
C2 C 0.5965(17) 0.6476(4) 0.5744(6)
C3 C 0.9879(16) 0.7263(4) 0.7312(6)
N4 N 0.3695(12) 0.6309(3) 0.4951(4)
C4 C 0.8119(16) 0.5916(4) 0.6329(6)
C5 C 1.2241(17) 0.5849(5) 0.7776(7)
C6 C 0.7405(18) 0.8686(5) 0.6940(7)
C7 C 0.2291(18) 0.7077(4) 0.4738(7)
H1 H 0.315(4) 0.5720(9) 0.4599(15)
H2 H 0.039(4) 0.7157(12) 0.4123(17)
H3 H 0.812(7) 0.9064(11) 0.6319(16)
H5 H 1.127(5) 0.5615(19) 0.844(2)
H6 H 1.421(5) 0.6237(14) 0.8008(19)
H7 H 0.508(5) 0.8849(15) 0.704(3)
H8 H 0.886(7) 0.8848(13) 0.7611(19)
H10 H 1.286(6) 0.5276(14) 0.732(2)
O3 O 0.240(2) 0.9536(5) 0.4725(9)
H4 H 0.261(5) 0.8918(12) 0.4967(17)
H11 H 0.406(11) 0.987(3) 0.500(3)
H9? H 0.093(8) 0.985(2) 0.496(2)
loop_
_geom_bond_atom_site_label_1
_geom_bond_atom_site_label_2
_geom_bond_site_symmetry_1
_geom_bond_site_symmetry_2
O1 C3 1_555 1_555
O2 C4 1_555 1_555
N1 C1 1_555 1_555
N2 C3 1_555 1_555
C1 N3 1_555 1_555
N3 C7 1_555 1_555
C2 C1 1_555 1_555
O3 H4 1_555 1_555
C3 N1 1_555 1_555
N4 C2 1_555 1_555
C4 N2 1_555 1_555
C5 N2 1_555 1_555
C6 N1 1_555 1_555
C7 N4 1_555 1_555
H1 N4 1_555 1_555
H2 C7 1_555 1_555
H3 C6 1_555 1_555
H5 C5 1_555 1_555
H6 C5 1_555 1_555
H7 C6 1_555 1_555
H8 C6 1_555 1_555
H10 C5 1_555 1_555
H11 O3 1_555 1_555
C2 C4 1_555 1_555

#END
