
#######################################################################
#
#                 Cambridge Crystallographic Data Centre
#                                CCDC 
#
#######################################################################
#
# If this CIF has been generated from an entry in the Cambridge 
# Structural Database, then it will include bibliographic, chemical, 
# crystal, experimental, refinement or atomic coordinate data resulting 
# from the CCDC's data processing and validation procedures.
#
#######################################################################

data_THIANT04
_chemical_formula_moiety         'C12 H8 S2'
_chemical_name_systematic        thianthrene
_symmetry_cell_setting           monoclinic
_symmetry_space_group_name_H-M   'P 21/c'
_symmetry_Int_Tables_number      14
_space_group_name_Hall           '-P 2ybc'
loop_
_symmetry_equiv_pos_site_id
_symmetry_equiv_pos_as_xyz
1 x,y,z
2 -x,1/2+y,1/2-z
3 -x,-y,-z
4 x,1/2-y,1/2+z
_cell_length_a                   11.941(2)
_cell_length_b                   6.1614(12)
_cell_length_c                   14.500(3)
_cell_angle_alpha                90
_cell_angle_beta                 109.93(3)
_cell_angle_gamma                90
_cell_volume                     1002.92
_exptl_crystal_colour            colorless
_exptl_crystal_description       block
_chemical_melting_point          '429 K'
_cell_formula_units_Z            4
_exptl_crystal_recrystallization_method dichloromethane/methanol
_exptl_crystal_preparation       Luminescent
loop_
_atom_site_label
_atom_site_type_symbol
_atom_site_fract_x
_atom_site_fract_y
_atom_site_fract_z
C1 C 0.34915(13) 0.3157(3) 0.51194(11)
C2 C 0.46543(15) 0.2642(3) 0.57024(11)
H1 H 0.4995 0.1345 0.5603
C3 C 0.53025(15) 0.4057(3) 0.64277(12)
H2 H 0.6075 0.3699 0.6819
C4 C 0.48115(17) 0.5995(3) 0.65753(12)
H3 H 0.5255 0.6940 0.7063
C5 C 0.36608(16) 0.6540(3) 0.59998(12)
H4 H 0.3335 0.7855 0.6097
C6 C 0.29898(13) 0.5115(3) 0.52729(11)
C7 C 0.15200(12) 0.5106(2) 0.33756(11)
C8 C 0.10020(14) 0.6514(3) 0.25955(12)
H5 H 0.0703 0.7845 0.2706
C9 C 0.09316(16) 0.5933(3) 0.16551(13)
H6 H 0.0560 0.6852 0.1131
C10 C 0.14128(16) 0.3990(4) 0.14928(13)
H7 H 0.1364 0.3607 0.0860
C11 C 0.19689(15) 0.2605(3) 0.22697(12)
H8 H 0.2312 0.1320 0.2159
C12 C 0.20136(13) 0.3143(3) 0.32171(11)
S1 S 0.26655(4) 0.13239(6) 0.41971(3)
S2 S 0.15059(3) 0.57878(7) 0.45583(3)
loop_
_geom_bond_atom_site_label_1
_geom_bond_atom_site_label_2
_geom_bond_site_symmetry_1
_geom_bond_site_symmetry_2
C1 C2 1_555 1_555
C2 H1 1_555 1_555
C3 C2 1_555 1_555
H2 C3 1_555 1_555
C4 C3 1_555 1_555
H3 C4 1_555 1_555
C5 C4 1_555 1_555
H4 C5 1_555 1_555
C6 C1 1_555 1_555
C7 C8 1_555 1_555
C8 H5 1_555 1_555
C9 C8 1_555 1_555
H6 C9 1_555 1_555
C10 C9 1_555 1_555
H7 C10 1_555 1_555
C11 C10 1_555 1_555
H8 C11 1_555 1_555
C12 C7 1_555 1_555
S1 C1 1_555 1_555
S2 C6 1_555 1_555
C5 C6 1_555 1_555
C7 S2 1_555 1_555
C11 C12 1_555 1_555
C12 S1 1_555 1_555

#END
