
#######################################################################
#
#                 Cambridge Crystallographic Data Centre
#                                CCDC 
#
#######################################################################
#
# If this CIF has been generated from an entry in the Cambridge 
# Structural Database, then it will include bibliographic, chemical, 
# crystal, experimental, refinement or atomic coordinate data resulting 
# from the CCDC's data processing and validation procedures.
#
#######################################################################

data_THYMEA20
_chemical_formula_moiety         'C28 H48 O12,C7 H8'
_chemical_name_systematic        
'4,7,10,15,18,21,24,27,30,33,36,39-Dodecaoxatricyclo(11.9.9.9^2,12^)tetraconta-1,12-diene toluene solvate'
_symmetry_cell_setting           triclinic
_symmetry_space_group_name_H-M   'P -1'
_symmetry_Int_Tables_number      2
_space_group_name_Hall           '-P 1'
loop_
_symmetry_equiv_pos_site_id
_symmetry_equiv_pos_as_xyz
1 x,y,z
2 -x,-y,-z
_cell_length_a                   8.451(4)
_cell_length_b                   10.722(7)
_cell_length_c                   10.054(6)
_cell_angle_alpha                93.05(5)
_cell_angle_beta                 102.59(4)
_cell_angle_gamma                95.33(4)
_cell_volume                     882.727
_cell_formula_units_Z            1
loop_
_atom_site_label
_atom_site_type_symbol
_atom_site_fract_x
_atom_site_fract_y
_atom_site_fract_z
O1 O 0.0726(5) 0.3392(4) 0.2563(4)
O2 O 0.1117(5) 0.3459(4) -0.0205(4)
O3 O 0.0551(5) 0.2047(4) -0.2882(4)
O4 O 0.3001(5) -0.0669(4) 0.3786(4)
O5 O 0.3935(5) -0.1311(4) 0.1286(4)
O6 O 0.2708(5) -0.1877(4) -0.1685(4)
C1 C -0.0142(7) 0.1164(6) 0.2566(5)
C2 C 0.0397(8) 0.2406(6) 0.3393(6)
C3 C 0.2192(8) 0.3301(6) 0.2117(7)
C4 C 0.2189(7) 0.4072(6) 0.0947(7)
C5 C 0.1242(8) 0.3984(5) -0.1427(7)
C6 C 0.0082(8) 0.3239(6) -0.2585(7)
C7 C 0.0107(7) 0.1120(6) -0.2045(6)
C8 C 0.0421(7) 0.0090(6) 0.2901(5)
C9 C 0.1732(8) -0.0043(6) 0.4140(6)
C10 C 0.4036(8) 0.0102(6) 0.3161(6)
C11 C 0.5006(7) -0.0682(6) 0.2463(7)
C12 C 0.4746(8) -0.1930(7) 0.0411(8)
C13 C 0.3514(8) -0.2638(6) -0.0719(7)
C14 C -0.1420(7) 0.1314(5) 0.1305(6)
H1 H -0.04603 0.26090 0.38235
H2 H 0.13412 0.33212 0.40630
H3 H 0.30944 0.35989 0.28501
H4 H 0.22690 0.24528 0.18531
H5 H 0.18535 0.48739 0.11463
H6 H 0.32651 0.41909 0.07917
H7 H 0.09727 0.48243 -0.13977
H8 H 0.23135 0.39701 -0.15594
H9 H -0.09649 0.31260 -0.23707
H10 H -0.00002 0.36945 -0.33825
H11 H 0.10075 0.10201 -0.13188
H12 H -0.07750 0.13567 -0.16658
H13 H 0.12634 -0.05196 0.47632
H14 H 0.21617 0.07623 0.45647
H15 H 0.47504 0.06606 0.38382
H16 H 0.33870 0.05691 0.25139
H17 H 0.54661 -0.12816 0.30446
H18 H 0.58371 -0.01701 0.21936
H19 H 0.53915 -0.25059 0.09035
H20 H 0.54093 -0.13381 0.00579
H21 H 0.27006 -0.30959 -0.03674
H22 H 0.40311 -0.32059 -0.12014
H23 H -0.18224 0.05184 0.08343
H24 H -0.09647 0.18375 0.07143
C8A C -0.0421(7) -0.0090(6) -0.2901(5)
C7A C -0.0107(7) -0.1120(6) 0.2045(6)
C14A C 0.1420(7) -0.1314(5) -0.1305(6)
O6A O -0.2708(5) 0.1877(4) 0.1685(4)
C1A C 0.0142(7) -0.1164(6) -0.2566(5)
C9A C -0.1732(8) 0.0043(6) -0.4140(6)
O3A O -0.0551(5) -0.2047(4) 0.2882(4)
H11A H -0.10075 -0.10201 0.13188
H12A H 0.07750 -0.13567 0.16658
H23A H 0.18224 -0.05184 -0.08343
H24A H 0.09647 -0.18375 -0.07143
C13A C -0.3514(8) 0.2638(6) 0.0719(7)
C2A C -0.0397(8) -0.2406(6) -0.3393(6)
O4A O -0.3001(5) 0.0669(4) -0.3786(4)
H13A H -0.12634 0.05196 -0.47632
H14A H -0.21617 -0.07623 -0.45647
C6A C -0.0082(8) -0.3239(6) 0.2585(7)
C12A C -0.4746(8) 0.1930(7) -0.0411(8)
H21A H -0.27006 0.30959 0.03674
H22A H -0.40311 0.32059 0.12014
O1A O -0.0726(5) -0.3392(4) -0.2563(4)
H1A H 0.04603 -0.26090 -0.38235
H2A H -0.13412 -0.33212 -0.40630
C10A C -0.4036(8) -0.0102(6) -0.3161(6)
C5A C -0.1242(8) -0.3984(5) 0.1427(7)
H9A H 0.09649 -0.31260 0.23707
H10A H 0.00002 -0.36945 0.33825
O5A O -0.3935(5) 0.1311(4) -0.1286(4)
H19A H -0.53915 0.25059 -0.09035
H20A H -0.54093 0.13381 -0.00579
C3A C -0.2192(8) -0.3301(6) -0.2117(7)
C11A C -0.5006(7) 0.0682(6) -0.2463(7)
H15A H -0.47504 -0.06606 -0.38382
H16A H -0.33870 -0.05691 -0.25139
O2A O -0.1117(5) -0.3459(4) 0.0205(4)
H7A H -0.09727 -0.48243 0.13977
H8A H -0.23135 -0.39701 0.15594
C4A C -0.2189(7) -0.4072(6) -0.0947(7)
H3A H -0.30944 -0.35989 -0.28501
H4A H -0.22690 -0.24528 -0.18531
H17A H -0.54661 0.12816 -0.30446
H18A H -0.58371 0.01701 -0.21936
H5A H -0.18535 -0.48739 -0.11463
H6A H -0.32651 -0.41909 -0.07917
loop_
_geom_bond_atom_site_label_1
_geom_bond_atom_site_label_2
_geom_bond_site_symmetry_1
_geom_bond_site_symmetry_2
O1 C2 1_555 1_555
O2 C4 1_555 1_555
O3 C6 1_555 1_555
O4 C9 1_555 1_555
O5 C11 1_555 1_555
O6 C13 1_555 1_555
C1 C2 1_555 1_555
C2 H1 1_555 1_555
C3 O1 1_555 1_555
C4 C3 1_555 1_555
C5 O2 1_555 1_555
C6 C5 1_555 1_555
C7 O3 1_555 1_555
C8 C1 1_555 1_555
C9 C8 1_555 1_555
C10 O4 1_555 1_555
C11 C10 1_555 1_555
C12 O5 1_555 1_555
C13 C12 1_555 1_555
C14 C1 1_555 1_555
H2 C2 1_555 1_555
H3 C3 1_555 1_555
H4 C3 1_555 1_555
H5 C4 1_555 1_555
H6 C4 1_555 1_555
H7 C5 1_555 1_555
H8 C5 1_555 1_555
H9 C6 1_555 1_555
H10 C6 1_555 1_555
H11 C7 1_555 1_555
H12 C7 1_555 1_555
H13 C9 1_555 1_555
H14 C9 1_555 1_555
H15 C10 1_555 1_555
H16 C10 1_555 1_555
H17 C11 1_555 1_555
H18 C11 1_555 1_555
H19 C12 1_555 1_555
H20 C12 1_555 1_555
H21 C13 1_555 1_555
H22 C13 1_555 1_555
H23 C14 1_555 1_555
H24 C14 1_555 1_555
C8A C7 1_555 1_555
C7A C8 1_555 1_555
C14A O6 1_555 1_555
O6A C14 1_555 1_555
C1A C8A 1_555 1_555
C9A C8A 1_555 1_555
O3A C7A 1_555 1_555
H11A C7A 1_555 1_555
H12A C7A 1_555 1_555
H23A C14A 1_555 1_555
H24A C14A 1_555 1_555
C13A O6A 1_555 1_555
C2A C1A 1_555 1_555
O4A C9A 1_555 1_555
H13A C9A 1_555 1_555
H14A C9A 1_555 1_555
C6A O3A 1_555 1_555
C12A C13A 1_555 1_555
H21A C13A 1_555 1_555
H22A C13A 1_555 1_555
O1A C2A 1_555 1_555
H1A C2A 1_555 1_555
H2A C2A 1_555 1_555
C10A O4A 1_555 1_555
C5A C6A 1_555 1_555
H9A C6A 1_555 1_555
H10A C6A 1_555 1_555
O5A C12A 1_555 1_555
H19A C12A 1_555 1_555
H20A C12A 1_555 1_555
C3A O1A 1_555 1_555
C11A C10A 1_555 1_555
H15A C10A 1_555 1_555
H16A C10A 1_555 1_555
O2A C5A 1_555 1_555
H7A C5A 1_555 1_555
H8A C5A 1_555 1_555
C4A C3A 1_555 1_555
H3A C3A 1_555 1_555
H4A C3A 1_555 1_555
H17A C11A 1_555 1_555
H18A C11A 1_555 1_555
H5A C4A 1_555 1_555
H6A C4A 1_555 1_555
C14A C1A 1_555 1_555
O5A C11A 1_555 1_555
O2A C4A 1_555 1_555

#END
