
#######################################################################
#
#                 Cambridge Crystallographic Data Centre
#                                CCDC 
#
#######################################################################
#
# If this CIF has been generated from an entry in the Cambridge 
# Structural Database, then it will include bibliographic, chemical, 
# crystal, experimental, refinement or atomic coordinate data resulting 
# from the CCDC's data processing and validation procedures.
#
#######################################################################

data_THYMDN01
_chemical_name_common            alpha-Thymidine
_chemical_formula_moiety         'C10 H14 N2 O5'
_chemical_name_systematic        1-(2-Deoxy-\a-D-ribofuranosyl)-5-methyluracil
_symmetry_cell_setting           triclinic
_symmetry_space_group_name_H-M   'P 1'
_symmetry_Int_Tables_number      1
_space_group_name_Hall           'P 1'
loop_
_symmetry_equiv_pos_site_id
_symmetry_equiv_pos_as_xyz
1 x,y,z
_cell_length_a                   5.838(2)
_cell_length_b                   9.883(4)
_cell_length_c                   10.576(4)
_cell_angle_alpha                107.225(14)
_cell_angle_beta                 100.203(14)
_cell_angle_gamma                98.894(14)
_cell_volume                     559.53
_exptl_crystal_colour            colorless
_exptl_crystal_description       block
_cell_formula_units_Z            2
_exptl_crystal_recrystallization_method aqueous
loop_
_atom_site_label
_atom_site_type_symbol
_atom_site_fract_x
_atom_site_fract_y
_atom_site_fract_z
O1 O 0.99446(13) 0.60401(9) 0.20607(7)
O2 O 0.53074(15) 0.79306(11) -0.06091(7)
O3 O 0.38596(13) 0.80434(11) 0.55607(8)
H1 H 0.338(5) 0.850(3) 0.621(3)
O4 O 0.89252(10) 0.84899(6) 0.53619(6)
O5 O 1.21317(12) 0.89927(8) 0.78953(7)
H2 H 1.302(4) 0.871(2) 0.843(2)
N1 N 0.73696(12) 0.73467(8) 0.30135(7)
N2 N 0.75051(13) 0.69610(9) 0.07467(7)
H3 H 0.805(3) 0.646(2) 0.0082(19)
C1 C 0.83777(14) 0.67390(9) 0.19547(7)
C2 C 0.58619(14) 0.77987(10) 0.05303(8)
C3 C 0.49125(14) 0.84449(9) 0.16944(7)
C4 C 0.56658(13) 0.81612(9) 0.28648(7)
H4 H 0.4994 0.8538 0.3615
C5 C 0.31675(18) 0.93993(12) 0.15600(10)
H5 H 0.2520 0.9637 0.2373
H6 H 0.1863 0.8885 0.0752
H7 H 0.3985 1.0296 0.1467
C6 C 0.81025(14) 0.70905(8) 0.43197(7)
H8 H 0.9434 0.6565 0.4281
C7 C 0.60614(16) 0.62447(10) 0.47267(8)
H9 H 0.4595 0.5897 0.3983
H10 H 0.6523 0.5400 0.4939
C8 C 0.56696(14) 0.73461(10) 0.59950(8)
H11 H 0.5245 0.6875 0.6664
C9 C 0.81051(13) 0.84212(9) 0.65648(7)
H12 H 0.7875 0.9399 0.7075
C10 C 0.98963(15) 0.79587(10) 0.74950(8)
H13 H 0.9311 0.7923 0.8310
H14 H 1.0104 0.6979 0.7009
O6 O -0.07623(14) 0.52463(8) 0.85938(7)
O7 O 0.46198(14) 0.39902(10) 1.14759(7)
O8 O 0.22204(13) 0.06900(8) 0.48502(7)
H15 H 0.148(4) 0.000(2) 0.503(2)
O9 O 0.18710(15) 0.38733(8) 0.55097(7)
O10 O -0.23065(16) 0.30407(12) 0.31947(10)
H16 H -0.292(5) 0.324(3) 0.264(3)
N3 N 0.14988(15) 0.36854(9) 0.76382(7)
N4 N 0.20318(14) 0.46219(9) 0.99941(7)
H17 H 0.147(3) 0.515(2) 1.0612(19)
C11 C 0.08264(15) 0.45638(9) 0.87243(8)
C12 C 0.37674(14) 0.38616(9) 1.02740(8)
C13 C 0.44383(15) 0.29765(9) 0.90897(8)
C14 C 0.32851(17) 0.29357(10) 0.78413(9)
H18 H 0.3721 0.2364 0.7064
C15 C 0.63390(18) 0.21410(12) 0.93006(10)
H19 H 0.6656 0.1644 0.8421
H20 H 0.5793 0.1422 0.9714
H21 H 0.7804 0.2813 0.9905
C16 C 0.01834(16) 0.34594(9) 0.62248(8)
H22 H -0.1010 0.4087 0.6256
C17 C -0.11032(15) 0.18592(9) 0.54249(9)
H23 H -0.1105 0.1273 0.6039
H24 H -0.2772 0.1792 0.4970
C18 C 0.03540(15) 0.13386(9) 0.43691(8)
H25 H -0.0711 0.0663 0.3487
C19 C 0.15448(15) 0.27520(9) 0.42040(8)
H26 H 0.3147 0.2661 0.4021
C20 C 0.00923(18) 0.31191(11) 0.30524(9)
H27 H 0.0801 0.4109 0.3084
H28 H 0.0114 0.2426 0.2163
loop_
_geom_bond_atom_site_label_1
_geom_bond_atom_site_label_2
_geom_bond_site_symmetry_1
_geom_bond_site_symmetry_2
O1 C1 1_555 1_555
O2 C2 1_555 1_555
O3 H1 1_555 1_555
O4 C6 1_555 1_555
O5 H2 1_555 1_555
N1 C1 1_555 1_555
N2 H3 1_555 1_555
C1 N2 1_555 1_555
C2 N2 1_555 1_555
C3 C2 1_555 1_555
C4 N1 1_555 1_555
H4 C4 1_555 1_555
C5 C3 1_555 1_555
H5 C5 1_555 1_555
H6 C5 1_555 1_555
H7 C5 1_555 1_555
C6 N1 1_555 1_555
H8 C6 1_555 1_555
C7 C6 1_555 1_555
H9 C7 1_555 1_555
H10 C7 1_555 1_555
C8 O3 1_555 1_555
H11 C8 1_555 1_555
C9 O4 1_555 1_555
H12 C9 1_555 1_555
C10 O5 1_555 1_555
H13 C10 1_555 1_555
H14 C10 1_555 1_555
O6 C11 1_555 1_555
O7 C12 1_555 1_555
O8 H15 1_555 1_555
O9 C16 1_555 1_555
O10 H16 1_555 1_555
N3 C11 1_555 1_555
N4 H17 1_555 1_555
C11 N4 1_555 1_555
C12 N4 1_555 1_555
C13 C12 1_555 1_555
C14 N3 1_555 1_555
H18 C14 1_555 1_555
C15 C13 1_555 1_555
H19 C15 1_555 1_555
H20 C15 1_555 1_555
H21 C15 1_555 1_555
C16 N3 1_555 1_555
H22 C16 1_555 1_555
C17 C16 1_555 1_555
H23 C17 1_555 1_555
H24 C17 1_555 1_555
C18 O8 1_555 1_555
H25 C18 1_555 1_555
C19 O9 1_555 1_555
H26 C19 1_555 1_555
C20 O10 1_555 1_555
H27 C20 1_555 1_555
H28 C20 1_555 1_555
C3 C4 1_555 1_555
C7 C8 1_555 1_555
C8 C9 1_555 1_555
C9 C10 1_555 1_555
C13 C14 1_555 1_555
C17 C18 1_555 1_555
C18 C19 1_555 1_555
C19 C20 1_555 1_555

#END
