
#######################################################################
#
#                 Cambridge Crystallographic Data Centre
#                                CCDC 
#
#######################################################################
#
# If this CIF has been generated from an entry in the Cambridge 
# Structural Database, then it will include bibliographic, chemical, 
# crystal, experimental, refinement or atomic coordinate data resulting 
# from the CCDC's data processing and validation procedures.
#
#######################################################################

data_TIBDIU
_chemical_formula_moiety         'C16 H13 B1 N2'
_chemical_name_systematic        
4-phenyl-4,5-dihydropyrrolo[2,1-c][1,4,2]benzodiazaborinine
_symmetry_cell_setting           triclinic
_symmetry_space_group_name_H-M   'P -1'
_symmetry_Int_Tables_number      2
_space_group_name_Hall           '-P 1'
loop_
_symmetry_equiv_pos_site_id
_symmetry_equiv_pos_as_xyz
1 x,y,z
2 -x,-y,-z
_cell_length_a                   11.5921(18)
_cell_length_b                   11.6642(17)
_cell_length_c                   20.517(3)
_cell_angle_alpha                74.126(13)
_cell_angle_beta                 88.092(13)
_cell_angle_gamma                77.278(13)
_cell_volume                     2601.78
_exptl_crystal_colour            colorless
_exptl_crystal_description       block
_cell_formula_units_Z            8
loop_
_atom_site_label
_atom_site_type_symbol
_atom_site_fract_x
_atom_site_fract_y
_atom_site_fract_z
B1 B 0.1731(10) 0.8396(10) 0.5750(7)
C1 C 0.3754(8) 1.0268(9) 0.5747(5)
H1 H 0.4165 1.0853 0.5520
C2 C 0.3866(8) 0.9729(8) 0.6416(5)
H2 H 0.4374 0.9887 0.6706
C3 C 0.3155(8) 0.8929(8) 0.6620(5)
H3 H 0.3078 0.8457 0.7058
C4 C 0.2522(8) 0.8968(8) 0.5994(5)
C5 C 0.2651(5) 1.0218(5) 0.4766(2)
C6 C 0.1856(5) 0.9617(5) 0.4585(3)
C7 C 0.1514(5) 0.9864(6) 0.3909(3)
H4 H 0.0982 0.9462 0.3787
C8 C 0.1968(6) 1.0713(6) 0.3414(3)
H5 H 0.1740 1.0879 0.2961
C9 C 0.2764(6) 1.1314(5) 0.3596(3)
H6 H 0.3068 1.1882 0.3265
C10 C 0.3106(5) 1.1067(5) 0.4272(3)
H7 H 0.3638 1.1469 0.4393
C11 C 0.1264(9) 0.7284(9) 0.6269(5)
C12 C 0.1956(9) 0.6417(9) 0.6825(5)
H8 H 0.2700 0.6527 0.6913
C13 C 0.1576(9) 0.5410(9) 0.7247(5)
H9 H 0.2048 0.4830 0.7595
C14 C 0.0508(10) 0.5362(11) 0.7108(6)
H10 H 0.0171 0.4814 0.7432
C15 C -0.0158(10) 0.5987(10) 0.6568(6)
H11 H -0.0810 0.5726 0.6459
C16 C 0.0136(9) 0.7067(9) 0.6154(5)
H12 H -0.0389 0.7614 0.5820
N1 N 0.1382(6) 0.8708(6) 0.5116(4)
H13 H 0.0858 0.8374 0.5001
N2 N 0.2986(6) 0.9866(6) 0.5446(4)
B2 B 0.2304(11) 0.5429(11) 0.4459(8)
C17 C 0.4866(8) 0.3456(8) 0.3930(5)
H14 H 0.5573 0.2874 0.4030
C18 C 0.4336(8) 0.3950(8) 0.3310(6)
H15 H 0.4646 0.3747 0.2922
C19 C 0.3275(9) 0.4795(8) 0.3310(6)
H16 H 0.2770 0.5234 0.2941
C20 C 0.3125(8) 0.4845(8) 0.4021(6)
C21 C 0.4461(5) 0.3631(5) 0.5078(3)
C22 C 0.3612(4) 0.4185(5) 0.5457(3)
C23 C 0.3754(5) 0.3888(6) 0.6157(3)
H17 H 0.3186 0.4258 0.6410
C24 C 0.4746(6) 0.3037(6) 0.6480(3)
H18 H 0.4841 0.2838 0.6948
C25 C 0.5595(5) 0.2484(5) 0.6101(3)
H19 H 0.6258 0.1915 0.6317
C26 C 0.5453(4) 0.2781(5) 0.5400(3)
H20 H 0.6021 0.2410 0.5147
C27 C 0.1126(10) 0.6355(9) 0.4144(6)
C28 C 0.1041(10) 0.7118(10) 0.3446(6)
H21 H 0.1693 0.7075 0.3170
C29 C -0.0048(10) 0.7924(10) 0.3197(6)
H22 H -0.0123 0.8438 0.2758
C30 C -0.0942(11) 0.7932(11) 0.3594(7)
H23 H -0.1669 0.8349 0.3383
C31 C -0.0979(10) 0.7417(10) 0.4282(7)
H24 H -0.1621 0.7595 0.4549
C32 C 0.0126(10) 0.6559(10) 0.4530(6)
H25 H 0.0172 0.6108 0.4982
N3 N 0.2564(6) 0.5105(6) 0.5118(4)
H26 H 0.2084 0.5459 0.5369
N4 N 0.4196(6) 0.3951(6) 0.4389(4)
B3 B 0.1150(9) 0.8340(9) 0.0330(6)
C33 C -0.0781(7) 0.6334(7) 0.0195(5)
H27 H -0.1204 0.6013 -0.0062
C34 C -0.0778(7) 0.6081(7) 0.0879(5)
H28 H -0.1173 0.5540 0.1168
C35 C -0.0098(8) 0.6750(8) 0.1075(5)
C36 C 0.0402(7) 0.7429(7) 0.0493(4)
C37 C 0.0184(7) 0.7622(7) -0.0741(4)
C38 C 0.0819(7) 0.8543(7) -0.0904(5)
C39 C 0.0987(8) 0.9075(8) -0.1570(5)
H29 H 0.1391 0.9706 -0.1679
C40 C 0.0584(8) 0.8716(8) -0.2081(5)
H30 H 0.0719 0.9088 -0.2531
C41 C -0.0014(8) 0.7811(8) -0.1924(5)
H31 H -0.0271 0.7551 -0.2272
C42 C -0.0256(7) 0.7263(8) -0.1270(5)
H32 H -0.0702 0.6667 -0.1176
C43 C 0.1821(7) 0.8676(8) 0.0873(5)
C44 C 0.2035(7) 0.9849(8) 0.0770(5)
H33 H 0.1747 1.0447 0.0374
C45 C 0.2677(8) 1.0149(9) 0.1249(5)
H34 H 0.2804 1.0935 0.1170
C46 C 0.3092(9) 0.9306(9) 0.1809(5)
H35 H 0.3493 0.9512 0.2131
C47 C 0.2945(9) 0.8102(9) 0.1934(5)
H36 H 0.3287 0.7505 0.2319
C48 C 0.2303(8) 0.7824(8) 0.1488(5)
H37 H 0.2169 0.7038 0.1587
H38 H 0.013(8) 0.674(8) 0.151(4)
N5 N 0.1280(6) 0.8868(6) -0.0366(4)
H39 H 0.1673 0.9434 -0.0473
N6 N -0.0069(6) 0.7135(6) -0.0061(4)
B4 B 0.4980(8) 0.7963(9) 0.9336(5)
C49 C 0.7217(7) 0.5428(8) 0.8991(5)
H40 H 0.7709 0.4654 0.9128
C50 C 0.7126(7) 0.6185(8) 0.8368(5)
H41 H 0.7555 0.6022 0.8000
C51 C 0.6283(7) 0.7267(8) 0.8350(5)
H42 H 0.6060 0.7931 0.7972
C52 C 0.5851(7) 0.7167(7) 0.8988(4)
C53 C 0.6268(7) 0.5557(7) 1.0101(4)
C54 C 0.5472(7) 0.6316(7) 1.0418(4)
C55 C 0.5344(8) 0.5880(8) 1.1110(5)
H43 H 0.4821 0.6364 1.1332
C56 C 0.5961(8) 0.4765(9) 1.1476(5)
H44 H 0.5852 0.4494 1.1939
C57 C 0.6731(8) 0.4051(8) 1.1161(5)
H45 H 0.7150 0.3292 1.1414
C58 C 0.6909(7) 0.4424(8) 1.0478(5)
H46 H 0.7448 0.3929 1.0269
C59 C 0.4262(7) 0.9279(7) 0.8973(4)
C60 C 0.3990(7) 0.9680(8) 0.8273(5)
H47 H 0.4228 0.9136 0.8012
C61 C 0.3390(8) 1.0841(9) 0.7962(5)
H48 H 0.3211 1.1068 0.7500
C62 C 0.3046(8) 1.1685(9) 0.8337(5)
H49 H 0.2659 1.2483 0.8124
C63 C 0.3275(8) 1.1343(8) 0.9001(5)
H50 H 0.3032 1.1904 0.9251
C64 C 0.3868(7) 1.0166(8) 0.9327(5)
H51 H 0.4010 0.9954 0.9792
N7 N 0.4852(5) 0.7466(6) 1.0030(3)
H52 H 0.4897 0.8005 1.0237
N8 N 0.6451(5) 0.5991(6) 0.9403(3)
loop_
_geom_bond_atom_site_label_1
_geom_bond_atom_site_label_2
_geom_bond_site_symmetry_1
_geom_bond_site_symmetry_2
B1 C4 1_555 1_555
C1 H1 1_555 1_555
C2 C1 1_555 1_555
H2 C2 1_555 1_555
C3 C2 1_555 1_555
H3 C3 1_555 1_555
C4 C3 1_555 1_555
C5 C6 1_555 1_555
C6 C7 1_555 1_555
C7 H4 1_555 1_555
C8 C7 1_555 1_555
H5 C8 1_555 1_555
C9 C8 1_555 1_555
H6 C9 1_555 1_555
C10 C5 1_555 1_555
H7 C10 1_555 1_555
C11 B1 1_555 1_555
C12 C11 1_555 1_555
H8 C12 1_555 1_555
C13 C12 1_555 1_555
H9 C13 1_555 1_555
C14 C13 1_555 1_555
H10 C14 1_555 1_555
C15 C14 1_555 1_555
H11 C15 1_555 1_555
C16 C11 1_555 1_555
H12 C16 1_555 1_555
N1 B1 1_555 1_555
H13 N1 1_555 1_555
N2 C1 1_555 1_555
B2 C20 1_555 1_555
C17 H14 1_555 1_555
C18 C17 1_555 1_555
H15 C18 1_555 1_555
C19 C18 1_555 1_555
H16 C19 1_555 1_555
C20 C19 1_555 1_555
C21 C22 1_555 1_555
C22 C23 1_555 1_555
C23 H17 1_555 1_555
C24 C23 1_555 1_555
H18 C24 1_555 1_555
C25 C24 1_555 1_555
H19 C25 1_555 1_555
C26 C21 1_555 1_555
H20 C26 1_555 1_555
C27 B2 1_555 1_555
C28 C27 1_555 1_555
H21 C28 1_555 1_555
C29 C28 1_555 1_555
H22 C29 1_555 1_555
C30 C29 1_555 1_555
H23 C30 1_555 1_555
C31 C30 1_555 1_555
H24 C31 1_555 1_555
C32 C27 1_555 1_555
H25 C32 1_555 1_555
N3 B2 1_555 1_555
H26 N3 1_555 1_555
N4 C17 1_555 1_555
B3 C36 1_555 1_555
C33 H27 1_555 1_555
C34 C33 1_555 1_555
H28 C34 1_555 1_555
C35 C34 1_555 1_555
C36 C35 1_555 1_555
C37 C38 1_555 1_555
C38 C39 1_555 1_555
C39 H29 1_555 1_555
C40 C39 1_555 1_555
H30 C40 1_555 1_555
C41 C40 1_555 1_555
H31 C41 1_555 1_555
C42 C37 1_555 1_555
H32 C42 1_555 1_555
C43 B3 1_555 1_555
C44 C43 1_555 1_555
H33 C44 1_555 1_555
C45 C44 1_555 1_555
H34 C45 1_555 1_555
C46 C45 1_555 1_555
H35 C46 1_555 1_555
C47 C46 1_555 1_555
H36 C47 1_555 1_555
C48 C43 1_555 1_555
H37 C48 1_555 1_555
H38 C35 1_555 1_555
N5 B3 1_555 1_555
H39 N5 1_555 1_555
N6 C33 1_555 1_555
B4 C52 1_555 1_555
C49 H40 1_555 1_555
C50 C49 1_555 1_555
H41 C50 1_555 1_555
C51 C50 1_555 1_555
H42 C51 1_555 1_555
C52 C51 1_555 1_555
C53 C54 1_555 1_555
C54 C55 1_555 1_555
C55 H43 1_555 1_555
C56 C55 1_555 1_555
H44 C56 1_555 1_555
C57 C56 1_555 1_555
H45 C57 1_555 1_555
C58 C53 1_555 1_555
H46 C58 1_555 1_555
C59 B4 1_555 1_555
C60 C59 1_555 1_555
H47 C60 1_555 1_555
C61 C60 1_555 1_555
H48 C61 1_555 1_555
C62 C61 1_555 1_555
H49 C62 1_555 1_555
C63 C62 1_555 1_555
H50 C63 1_555 1_555
C64 C59 1_555 1_555
H51 C64 1_555 1_555
N7 B4 1_555 1_555
H52 N7 1_555 1_555
N8 C49 1_555 1_555
C4 N2 1_555 1_555
C5 N2 1_555 1_555
C6 N1 1_555 1_555
C9 C10 1_555 1_555
C15 C16 1_555 1_555
C20 N4 1_555 1_555
C21 N4 1_555 1_555
C22 N3 1_555 1_555
C25 C26 1_555 1_555
C31 C32 1_555 1_555
C36 N6 1_555 1_555
C37 N6 1_555 1_555
C38 N5 1_555 1_555
C41 C42 1_555 1_555
C47 C48 1_555 1_555
C52 N8 1_555 1_555
C53 N8 1_555 1_555
C54 N7 1_555 1_555
C57 C58 1_555 1_555
C63 C64 1_555 1_555

#END
