
#######################################################################
#
#                 Cambridge Crystallographic Data Centre
#                                CCDC 
#
#######################################################################
#
# If this CIF has been generated from an entry in the Cambridge 
# Structural Database, then it will include bibliographic, chemical, 
# crystal, experimental, refinement or atomic coordinate data resulting 
# from the CCDC's data processing and validation procedures.
#
#######################################################################

data_TIBGOD
_chemical_formula_moiety         'C27 H22 Br1 N3 O2 S1'
_chemical_name_systematic        
'5-(4-bromophenyl)-1-[(4-methylphenyl)sulfonyl]-3-phenyl-2,3-dihydro-1H-1,3,4-benzotriazepine unknown solvate'
_symmetry_cell_setting           triclinic
_symmetry_space_group_name_H-M   'P -1'
_symmetry_Int_Tables_number      2
_space_group_name_Hall           '-P 1'
loop_
_symmetry_equiv_pos_site_id
_symmetry_equiv_pos_as_xyz
1 x,y,z
2 -x,-y,-z
_cell_length_a                   10.978(2)
_cell_length_b                   11.037(2)
_cell_length_c                   11.550(2)
_cell_angle_alpha                91.74(3)
_cell_angle_beta                 115.45(3)
_cell_angle_gamma                97.91(3)
_cell_volume                     1245.34
_exptl_crystal_colour            colorless
_exptl_crystal_description       block
_cell_formula_units_Z            2
loop_
_atom_site_label
_atom_site_type_symbol
_atom_site_fract_x
_atom_site_fract_y
_atom_site_fract_z
Br1 Br 0.68358(2) 0.72712(2) 0.04419(2)
S1 S -0.00583(5) 0.58018(5) 0.32147(5)
O1 O -0.02895(17) 0.65505(16) 0.41106(15)
O2 O -0.11048(15) 0.48359(15) 0.23688(15)
N1 N 0.12527(17) 0.51493(15) 0.40990(15)
N2 N 0.32239(18) 0.67403(16) 0.52787(16)
N3 N 0.37845(17) 0.67462(16) 0.44385(15)
C1 C 0.5837(2) 0.6823(2) 0.1406(2)
C2 C 0.6468(2) 0.71207(19) 0.2727(2)
H1 H 0.736805 0.752654 0.313763
C3 C 0.5735(2) 0.68043(18) 0.34324(19)
H2 H 0.614731 0.701172 0.431909
C4 C 0.4395(2) 0.61825(18) 0.28302(18)
C5 C 0.3796(2) 0.5891(2) 0.1496(2)
H3 H 0.290166 0.547274 0.108196
C6 C 0.4502(2) 0.6211(2) 0.0775(2)
H4 H 0.408859 0.601879 -0.011374
C7 C 0.36172(19) 0.58467(18) 0.36020(18)
C8 C 0.2859(2) 0.45651(18) 0.33356(18)
C9 C 0.1689(2) 0.42331(18) 0.35302(18)
C10 C 0.1039(2) 0.3024(2) 0.3323(2)
H5 H 0.027496 0.282377 0.347804
C11 C 0.1538(2) 0.2113(2) 0.2883(2)
H6 H 0.110020 0.130027 0.272871
C12 C 0.2693(2) 0.2419(2) 0.2676(2)
H7 H 0.303053 0.180845 0.238592
C13 C 0.3340(2) 0.36203(19) 0.28957(19)
H8 H 0.411175 0.381109 0.275057
C14 C 0.2262(2) 0.57288(19) 0.53548(19)
H9 H 0.276782 0.511586 0.584198
H10 H 0.179315 0.603741 0.581807
C15 C 0.0451(2) 0.67737(19) 0.22646(19)
C16 C 0.1168(2) 0.7941(2) 0.2780(2)
H11 H 0.137592 0.821887 0.362190
C17 C 0.1576(2) 0.8692(2) 0.2029(2)
H12 H 0.206288 0.947766 0.237557
C18 C 0.1271(2) 0.8295(2) 0.0768(2)
C19 C 0.0557(2) 0.7120(2) 0.0274(2)
H13 H 0.035412 0.684049 -0.056695
C20 C 0.0138(2) 0.6349(2) 0.1009(2)
H14 H -0.034341 0.556098 0.066588
C21 C 0.1689(3) 0.9150(3) -0.0046(3)
H15 H 0.102747 0.968500 -0.040341
H16 H 0.173549 0.867488 -0.073204
H17 H 0.257016 0.963292 0.047983
C22 C 0.3656(2) 0.78160(19) 0.61514(19)
C23 C 0.3603(2) 0.7758(2) 0.7332(2)
H18 H 0.329719 0.701413 0.755435
C24 C 0.4010(3) 0.8816(2) 0.8175(2)
H19 H 0.396652 0.877580 0.895984
C25 C 0.4474(3) 0.9921(2) 0.7869(2)
H20 H 0.473767 1.062626 0.843836
C26 C 0.4547(3) 0.9977(2) 0.6701(2)
H21 H 0.486916 1.072149 0.649139
C27 C 0.4143(2) 0.8930(2) 0.5846(2)
H22 H 0.419830 0.897276 0.506674
loop_
_geom_bond_atom_site_label_1
_geom_bond_atom_site_label_2
_geom_bond_site_symmetry_1
_geom_bond_site_symmetry_2
Br1 C1 1_555 1_555
S1 O1 1_555 1_555
O2 S1 1_555 1_555
N1 S1 1_555 1_555
N2 N3 1_555 1_555
N3 C7 1_555 1_555
C1 C2 1_555 1_555
C2 H1 1_555 1_555
C3 C2 1_555 1_555
H2 C3 1_555 1_555
C4 C3 1_555 1_555
C5 C4 1_555 1_555
H3 C5 1_555 1_555
C6 C1 1_555 1_555
H4 C6 1_555 1_555
C7 C4 1_555 1_555
C8 C7 1_555 1_555
C9 N1 1_555 1_555
C10 C9 1_555 1_555
H5 C10 1_555 1_555
C11 C10 1_555 1_555
H6 C11 1_555 1_555
C12 C11 1_555 1_555
H7 C12 1_555 1_555
C13 C8 1_555 1_555
H8 C13 1_555 1_555
C14 N1 1_555 1_555
H9 C14 1_555 1_555
H10 C14 1_555 1_555
C15 S1 1_555 1_555
C16 C15 1_555 1_555
H11 C16 1_555 1_555
C17 C16 1_555 1_555
H12 C17 1_555 1_555
C18 C17 1_555 1_555
C19 C18 1_555 1_555
H13 C19 1_555 1_555
C20 C15 1_555 1_555
H14 C20 1_555 1_555
C21 C18 1_555 1_555
H15 C21 1_555 1_555
H16 C21 1_555 1_555
H17 C21 1_555 1_555
C22 N2 1_555 1_555
C23 C22 1_555 1_555
H18 C23 1_555 1_555
C24 C23 1_555 1_555
H19 C24 1_555 1_555
C25 C24 1_555 1_555
H20 C25 1_555 1_555
C26 C25 1_555 1_555
H21 C26 1_555 1_555
C27 C22 1_555 1_555
H22 C27 1_555 1_555
N2 C14 1_555 1_555
C5 C6 1_555 1_555
C8 C9 1_555 1_555
C12 C13 1_555 1_555
C19 C20 1_555 1_555
C26 C27 1_555 1_555

#END
