
#######################################################################
#
#                 Cambridge Crystallographic Data Centre
#                                CCDC 
#
#######################################################################
#
# If this CIF has been generated from an entry in the Cambridge 
# Structural Database, then it will include bibliographic, chemical, 
# crystal, experimental, refinement or atomic coordinate data resulting 
# from the CCDC's data processing and validation procedures.
#
#######################################################################

data_TIBGET
_chemical_formula_moiety         'C15 H11 N3 O4'
_chemical_name_systematic        
5'-nitro-1,4-dihydrospiro[3,1-benzoxazine-2,3'-indol]-2'(1'H)-one
_symmetry_cell_setting           monoclinic
_symmetry_space_group_name_H-M   'P 21/c'
_symmetry_Int_Tables_number      14
_space_group_name_Hall           '-P 2ybc'
loop_
_symmetry_equiv_pos_site_id
_symmetry_equiv_pos_as_xyz
1 x,y,z
2 -x,1/2+y,1/2-z
3 -x,-y,-z
4 x,1/2-y,1/2+z
_cell_length_a                   12.8698(6)
_cell_length_b                   8.1365(3)
_cell_length_c                   13.0309(6)
_cell_angle_alpha                90
_cell_angle_beta                 107.275(5)
_cell_angle_gamma                90
_cell_volume                     1302.98
_exptl_crystal_colour            colorless
_exptl_crystal_description       block
_cell_formula_units_Z            4
loop_
_atom_site_label
_atom_site_type_symbol
_atom_site_fract_x
_atom_site_fract_y
_atom_site_fract_z
C1 C 0.50260(15) 0.1988(2) 0.59411(14)
C2 C 0.31973(15) 0.2340(2) 0.56038(14)
C3 C 0.20908(16) 0.2224(2) 0.51299(16)
H1 H 0.1802 0.1587 0.4519
C4 C 0.14245(16) 0.3091(3) 0.55982(17)
H2 H 0.0673 0.3055 0.5295
C5 C 0.18727(15) 0.4006(2) 0.65135(15)
C6 C 0.29914(15) 0.4182(2) 0.69722(14)
H3 H 0.3280 0.4826 0.7580
C7 C 0.36486(14) 0.3360(2) 0.64857(14)
C8 C 0.48666(14) 0.3376(2) 0.67193(14)
C9 C 0.63047(15) 0.5016(2) 0.64088(15)
H4 H 0.6488 0.6156 0.6332
H5 H 0.6427 0.4405 0.5816
C10 C 0.70370(15) 0.4361(2) 0.74414(14)
C11 C 0.81548(16) 0.4608(2) 0.77324(17)
H6 H 0.8455 0.5176 0.7270
C12 C 0.88258(17) 0.4028(3) 0.86935(19)
H7 H 0.9574 0.4191 0.8875
C13 C 0.83782(16) 0.3201(3) 0.93859(18)
H8 H 0.8825 0.2836 1.0046
C14 C 0.72727(16) 0.2913(2) 0.91047(15)
H9 H 0.6978 0.2351 0.9574
C15 C 0.65979(14) 0.3459(2) 0.81216(14)
O1 O 0.15323(14) 0.5344(2) 0.79367(14)
O2 O 0.01794(13) 0.4940(3) 0.65155(16)
O3 O 0.58905(11) 0.14139(15) 0.59145(10)
O4 O 0.51663(10) 0.49075(14) 0.63476(10)
N1 N 0.11430(14) 0.4820(2) 0.70211(16)
N2 N 0.40246(13) 0.15524(18) 0.52997(12)
H10 H 0.3914 0.0875 0.4772
N3 N 0.54687(11) 0.31629(18) 0.78242(11)
H11 H 0.5154 0.2865 0.8291
loop_
_geom_bond_atom_site_label_1
_geom_bond_atom_site_label_2
_geom_bond_site_symmetry_1
_geom_bond_site_symmetry_2
C1 C8 1_555 1_555
C2 C3 1_555 1_555
C3 H1 1_555 1_555
C4 C3 1_555 1_555
H2 C4 1_555 1_555
C5 C4 1_555 1_555
C6 C5 1_555 1_555
H3 C6 1_555 1_555
C7 C2 1_555 1_555
C8 C7 1_555 1_555
C9 H4 1_555 1_555
H5 C9 1_555 1_555
C10 C9 1_555 1_555
C11 C10 1_555 1_555
H6 C11 1_555 1_555
C12 C11 1_555 1_555
H7 C12 1_555 1_555
C13 C12 1_555 1_555
H8 C13 1_555 1_555
C14 C13 1_555 1_555
H9 C14 1_555 1_555
C15 C10 1_555 1_555
O1 N1 1_555 1_555
O2 N1 1_555 1_555
O3 C1 1_555 1_555
O4 C8 1_555 1_555
N1 C5 1_555 1_555
N2 C1 1_555 1_555
H10 N2 1_555 1_555
N3 C8 1_555 1_555
H11 N3 1_555 1_555
C2 N2 1_555 1_555
C6 C7 1_555 1_555
C9 O4 1_555 1_555
C14 C15 1_555 1_555
C15 N3 1_555 1_555

#END
