
#######################################################################
#
#                 Cambridge Crystallographic Data Centre
#                                CCDC 
#
#######################################################################
#
# If this CIF has been generated from an entry in the Cambridge 
# Structural Database, then it will include bibliographic, chemical, 
# crystal, experimental, refinement or atomic coordinate data resulting 
# from the CCDC's data processing and validation procedures.
#
#######################################################################

data_TIBLOI
_chemical_formula_moiety         'C25 H27 F1 N2 O5'
_chemical_name_systematic        
'dimethyl 2-ethyl-5-{1-[(4-fluorophenyl)amino]ethyl}-1-(4-methoxyphenyl)-1H-pyrrole-3,4-dicarboxylate unknown solvate'
_symmetry_cell_setting           monoclinic
_symmetry_space_group_name_H-M   'C 2/c'
_symmetry_Int_Tables_number      15
_space_group_name_Hall           '-C 2yn'
loop_
_symmetry_equiv_pos_site_id
_symmetry_equiv_pos_as_xyz
1 x,y,z
2 -x,y,1/2-z
3 1/2+x,1/2+y,z
4 1/2-x,1/2+y,1/2-z
5 -x,-y,-z
6 x,-y,1/2+z
7 1/2-x,1/2-y,-z
8 1/2+x,1/2-y,1/2+z
_cell_length_a                   16.981(8)
_cell_length_b                   14.008(6)
_cell_length_c                   23.918(11)
_cell_angle_alpha                90
_cell_angle_beta                 101.735(9)
_cell_angle_gamma                90
_cell_volume                     5570.46
_exptl_crystal_colour            yellow
_exptl_crystal_description       block
_cell_formula_units_Z            8
loop_
_atom_site_label
_atom_site_type_symbol
_atom_site_fract_x
_atom_site_fract_y
_atom_site_fract_z
F1 F 0.4543(4) 0.0325(5) 0.3230(3)
N1 N 0.1126(3) 0.0872(3) 0.4729(2)
N2 N 0.2147(4) -0.1189(4) 0.4230(3)
H1 H 0.2216 -0.1763 0.4359
O1 O 0.2427(4) 0.2019(4) 0.6316(2)
O2 O 0.2728(4) 0.0477(4) 0.6451(2)
O3 O 0.2578(3) -0.1528(3) 0.5567(3)
O4 O 0.3436(3) -0.0349(3) 0.5491(3)
O5 O -0.1130(4) 0.1995(5) 0.2811(2)
C1 C 0.1453(5) 0.3196(5) 0.5071(3)
H2 H 0.2001 0.3213 0.5275
H3 H 0.1192 0.3785 0.5128
H4 H 0.1441 0.3109 0.4671
C2 C 0.3217(8) 0.0682(8) 0.7005(4)
H5 H 0.3539 0.1238 0.6981
H6 H 0.3562 0.0148 0.7132
H7 H 0.2876 0.0797 0.7273
C3 C 0.4113(5) -0.0991(7) 0.5633(7)
H8 H 0.4131 -0.1254 0.6006
H9 H 0.4601 -0.0648 0.5631
H10 H 0.4055 -0.1498 0.5358
C4 C 0.1358(4) 0.1411(4) 0.5212(3)
C5 C 0.1962(4) 0.0907(4) 0.5564(3)
C6 C 0.2078(4) 0.0031(4) 0.5282(3)
C7 C 0.1567(4) 0.0045(4) 0.4766(3)
C8 C 0.2378(4) 0.1216(5) 0.6142(3)
C9 C 0.2698(5) -0.0708(5) 0.5463(3)
C10 C 0.0522(4) 0.1155(4) 0.4236(3)
C11 C 0.0756(4) 0.1699(5) 0.3809(3)
H11 H 0.1288 0.1891 0.3843
C12 C 0.0183(5) 0.1945(5) 0.3334(3)
H12 H 0.0331 0.2288 0.3039
C13 C -0.0606(5) 0.1686(6) 0.3296(3)
C14 C -0.0845(4) 0.1144(5) 0.3725(3)
H13 H -0.1379 0.0963 0.3696
C15 C -0.0268(4) 0.0888(4) 0.4190(3)
H14 H -0.0413 0.0527 0.4479
C16 C -0.1917(10) 0.1713(12) 0.2729(6)
H15 H -0.1941 0.1054 0.2833
H16 H -0.2168 0.1792 0.2334
H17 H -0.2193 0.2095 0.2961
C17 C 0.0772(5) -0.1407(5) 0.4364(4)
H18 H 0.0671 -0.1851 0.4052
H19 H 0.0288 -0.1064 0.4379
H20 H 0.0949 -0.1749 0.4716
C18 C 0.1424(4) -0.0706(4) 0.4278(3)
H21 H 0.1228 -0.0367 0.3919
C19 C 0.2743(5) -0.0788(5) 0.3988(3)
C20 C 0.3429(6) -0.1312(6) 0.3947(4)
H22 H 0.3483 -0.1932 0.4089
C21 C 0.4009(6) -0.0947(9) 0.3710(5)
H23 H 0.4458 -0.1312 0.3685
C22 C 0.3939(6) -0.0027(9) 0.3500(4)
C23 C 0.3299(6) 0.0526(6) 0.3531(3)
H24 H 0.3262 0.1148 0.3394
C24 C 0.2702(5) 0.0141(6) 0.3772(3)
H25 H 0.2255 0.0513 0.3791
C25 C 0.1018(4) 0.2373(4) 0.5289(3)
H26 H 0.1032 0.2471 0.5692
H27 H 0.0459 0.2383 0.5093
loop_
_geom_bond_atom_site_label_1
_geom_bond_atom_site_label_2
_geom_bond_site_symmetry_1
_geom_bond_site_symmetry_2
F1 C22 1_555 1_555
N1 C4 1_555 1_555
N2 H1 1_555 1_555
O1 C8 1_555 1_555
O2 C2 1_555 1_555
O3 C9 1_555 1_555
O4 C3 1_555 1_555
O5 C13 1_555 1_555
C1 H2 1_555 1_555
H3 C1 1_555 1_555
H4 C1 1_555 1_555
C2 H5 1_555 1_555
H6 C2 1_555 1_555
H7 C2 1_555 1_555
C3 H8 1_555 1_555
H9 C3 1_555 1_555
H10 C3 1_555 1_555
C4 C5 1_555 1_555
C5 C6 1_555 1_555
C6 C7 1_555 1_555
C7 N1 1_555 1_555
C8 O2 1_555 1_555
C9 O4 1_555 1_555
C10 N1 1_555 1_555
C11 C10 1_555 1_555
H11 C11 1_555 1_555
C12 C11 1_555 1_555
H12 C12 1_555 1_555
C13 C12 1_555 1_555
C14 C13 1_555 1_555
H13 C14 1_555 1_555
C15 C10 1_555 1_555
H14 C15 1_555 1_555
C16 O5 1_555 1_555
H15 C16 1_555 1_555
H16 C16 1_555 1_555
H17 C16 1_555 1_555
C17 H18 1_555 1_555
H19 C17 1_555 1_555
H20 C17 1_555 1_555
C18 N2 1_555 1_555
H21 C18 1_555 1_555
C19 N2 1_555 1_555
C20 C19 1_555 1_555
H22 C20 1_555 1_555
C21 C20 1_555 1_555
H23 C21 1_555 1_555
C22 C21 1_555 1_555
C23 C22 1_555 1_555
H24 C23 1_555 1_555
C24 C19 1_555 1_555
H25 C24 1_555 1_555
C25 C1 1_555 1_555
H26 C25 1_555 1_555
H27 C25 1_555 1_555
C4 C25 1_555 1_555
C5 C8 1_555 1_555
C6 C9 1_555 1_555
C7 C18 1_555 1_555
C14 C15 1_555 1_555
C17 C18 1_555 1_555
C23 C24 1_555 1_555

#END
