
#######################################################################
#
#                 Cambridge Crystallographic Data Centre
#                                CCDC 
#
#######################################################################
#
# If this CIF has been generated from an entry in the Cambridge 
# Structural Database, then it will include bibliographic, chemical, 
# crystal, experimental, refinement or atomic coordinate data resulting 
# from the CCDC's data processing and validation procedures.
#
#######################################################################

data_TIBLIC
_chemical_formula_moiety         'C22 H20 Br2 N2 O4'
_chemical_name_systematic        
'dimethyl 1-(4-bromophenyl)-2-{[(4-bromophenyl)amino]methyl}-5-methyl-1H-pyrrole-3,4-dicarboxylate'
_symmetry_cell_setting           triclinic
_symmetry_space_group_name_H-M   'P -1'
_symmetry_Int_Tables_number      2
_space_group_name_Hall           '-P 1'
loop_
_symmetry_equiv_pos_site_id
_symmetry_equiv_pos_as_xyz
1 x,y,z
2 -x,-y,-z
_cell_length_a                   9.4954(14)
_cell_length_b                   10.5088(16)
_cell_length_c                   13.656(3)
_cell_angle_alpha                110.231(4)
_cell_angle_beta                 94.931(4)
_cell_angle_gamma                113.196(3)
_cell_volume                     1135.58
_exptl_crystal_colour            yellow
_exptl_crystal_description       block
_cell_formula_units_Z            2
loop_
_atom_site_label
_atom_site_type_symbol
_atom_site_fract_x
_atom_site_fract_y
_atom_site_fract_z
Br1 Br 0.25828(10) 0.19737(10) 0.09809(7)
Br2 Br 0.64017(10) -0.67080(8) -0.10780(6)
N1 N 1.0171(5) -0.0830(5) 0.2926(4)
C1 C 1.0043(6) 0.0509(6) 0.3119(5)
O1 O 1.1111(6) 0.3847(5) 0.4082(4)
O2 O 1.1610(5) 0.3660(5) 0.5633(4)
O3 O 1.4247(5) 0.3126(5) 0.5461(4)
O4 O 1.3796(5) 0.1191(5) 0.5905(4)
C2 C 0.4146(7) 0.1550(7) 0.1561(5)
C3 C 0.4041(7) 0.1196(7) 0.2440(5)
H1 H 0.3221 0.1195 0.2766
C4 C 0.5158(7) 0.0843(7) 0.2836(5)
H2 H 0.5073 0.0585 0.3422
C5 C 0.6412(6) 0.0869(6) 0.2370(5)
C6 C 0.6505(7) 0.1236(6) 0.1497(5)
H3 H 0.7334 0.1259 0.1175
C7 C 0.5369(8) 0.1574(7) 0.1092(5)
H4 H 0.5440 0.1818 0.0500
N2 N 0.7528(6) 0.0554(6) 0.2802(4)
H5 H 0.7417 0.0325 0.3346
C8 C 0.8870(7) 0.0593(7) 0.2383(5)
H6 H 0.9373 0.1526 0.2285
H7 H 0.8516 -0.0255 0.1683
C9 C 0.7583(8) -0.4870(7) 0.0168(5)
C10 C 0.6962(8) -0.4560(8) 0.1039(6)
H8 H 0.5957 -0.5244 0.1011
C11 C 0.7822(8) -0.3238(7) 0.1955(5)
H9 H 0.7408 -0.3039 0.2551
C12 C 0.9293(7) -0.2214(7) 0.1988(5)
C13 C 0.9888(8) -0.2527(7) 0.1103(5)
H10 H 1.0887 -0.1839 0.1123
C14 C 0.9025(8) -0.3847(7) 0.0184(5)
H11 H 0.9424 -0.4037 -0.0420
C15 C 1.1350(6) -0.0564(6) 0.3751(5)
C16 C 1.1822(8) -0.1779(7) 0.3737(6)
H12 H 1.2883 -0.1313 0.4179
H13 H 1.1774 -0.2375 0.3009
H14 H 1.1108 -0.2425 0.4014
C17 C 1.1950(7) 0.0923(7) 0.4463(5)
C18 C 1.1129(7) 0.1598(6) 0.4068(5)
C19 C 1.1280(7) 0.3144(7) 0.4560(6)
C20 C 1.1914(11) 0.5226(8) 0.6204(7)
H15 H 1.2701 0.5862 0.5960
H16 H 1.2290 0.5544 0.6965
H17 H 1.0952 0.5308 0.6066
C21 C 1.3382(7) 0.1712(7) 0.5352(5)
C22 C 1.5633(9) 0.4082(9) 0.6357(7)
H18 H 1.5333 0.4131 0.7018
H19 H 1.6114 0.5086 0.6376
H20 H 1.6375 0.3667 0.6274
loop_
_geom_bond_atom_site_label_1
_geom_bond_atom_site_label_2
_geom_bond_site_symmetry_1
_geom_bond_site_symmetry_2
Br1 C2 1_555 1_555
Br2 C9 1_555 1_555
N1 C1 1_555 1_555
C1 C8 1_555 1_555
O1 C19 1_555 1_555
O2 C19 1_555 1_555
O3 C21 1_555 1_555
O4 C21 1_555 1_555
C2 C3 1_555 1_555
C3 H1 1_555 1_555
C4 C3 1_555 1_555
H2 C4 1_555 1_555
C5 C4 1_555 1_555
C6 C5 1_555 1_555
H3 C6 1_555 1_555
C7 C2 1_555 1_555
H4 C7 1_555 1_555
N2 C5 1_555 1_555
H5 N2 1_555 1_555
C8 N2 1_555 1_555
H6 C8 1_555 1_555
H7 C8 1_555 1_555
C9 C10 1_555 1_555
C10 H8 1_555 1_555
C11 C10 1_555 1_555
H9 C11 1_555 1_555
C12 N1 1_555 1_555
C13 C12 1_555 1_555
H10 C13 1_555 1_555
C14 C9 1_555 1_555
H11 C14 1_555 1_555
C15 N1 1_555 1_555
C16 C15 1_555 1_555
H12 C16 1_555 1_555
H13 C16 1_555 1_555
H14 C16 1_555 1_555
C17 C15 1_555 1_555
C18 C1 1_555 1_555
C19 C18 1_555 1_555
C20 O2 1_555 1_555
H15 C20 1_555 1_555
H16 C20 1_555 1_555
H17 C20 1_555 1_555
C21 C17 1_555 1_555
C22 O3 1_555 1_555
H18 C22 1_555 1_555
H19 C22 1_555 1_555
H20 C22 1_555 1_555
C6 C7 1_555 1_555
C11 C12 1_555 1_555
C13 C14 1_555 1_555
C17 C18 1_555 1_555

#END
