
#######################################################################
#
#                 Cambridge Crystallographic Data Centre
#                                CCDC 
#
#######################################################################
#
# If this CIF has been generated from an entry in the Cambridge 
# Structural Database, then it will include bibliographic, chemical, 
# crystal, experimental, refinement or atomic coordinate data resulting 
# from the CCDC's data processing and validation procedures.
#
#######################################################################

data_TIBVUW
_chemical_formula_moiety         'C18 H14 O8,2(C6 H18 N3 O1 P1)'
_chemical_name_systematic        
"(-)-(2R,3R)-O,O'-Dibenzoyl-(2R,3R)-tartaric acid hexamethylphosphoramide"
_symmetry_cell_setting           orthorhombic
_symmetry_space_group_name_H-M   'P 21 21 21'
_symmetry_Int_Tables_number      19
_space_group_name_Hall           'P 2ac 2ab'
loop_
_symmetry_equiv_pos_site_id
_symmetry_equiv_pos_as_xyz
1 x,y,z
2 1/2-x,-y,1/2+z
3 -x,1/2+y,1/2-z
4 1/2+x,1/2-y,-z
_cell_length_a                   12.2940(2)
_cell_length_b                   19.1370(3)
_cell_length_c                   32.5842(6)
_cell_angle_alpha                90
_cell_angle_beta                 90
_cell_angle_gamma                90
_cell_volume                     7666.09
_exptl_crystal_colour            colorless
_exptl_crystal_description       block
_cell_formula_units_Z            8
loop_
_atom_site_label
_atom_site_type_symbol
_atom_site_fract_x
_atom_site_fract_y
_atom_site_fract_z
P1 P 0.13863(4) 0.26509(2) 0.667800(14)
O17 O 0.06665(11) 0.20278(7) 0.67135(4)
N1 N 0.09442(16) 0.31830(9) 0.63265(6)
N2 N 0.14431(15) 0.30533(9) 0.71213(5)
N3 N 0.26349(14) 0.24666(11) 0.65334(6)
C37 C -0.0223(2) 0.33556(17) 0.63343(11)
H25 H -0.0515 0.3322 0.6062
H26 H -0.0317 0.3823 0.6435
H27 H -0.0597 0.3035 0.6511
C38 C 0.1606(3) 0.36685(16) 0.60916(9)
H28 H 0.1529 0.4130 0.6203
H29 H 0.1371 0.3668 0.5811
H30 H 0.2355 0.3528 0.6106
C39 C 0.1845(3) 0.37679(13) 0.71519(9)
H31 H 0.2530 0.3770 0.7293
H32 H 0.1330 0.4047 0.7301
H33 H 0.1939 0.3958 0.6882
C40 C 0.13351(18) 0.26933(14) 0.75089(7)
H34 H 0.0862 0.2955 0.7686
H35 H 0.2038 0.2649 0.7635
H36 H 0.1034 0.2237 0.7463
C41 C 0.3505(2) 0.23795(19) 0.68172(9)
H37 H 0.4170 0.2541 0.6695
H38 H 0.3574 0.1894 0.6887
H39 H 0.3357 0.2645 0.7061
C42 C 0.2781(2) 0.20833(19) 0.61509(10)
H40 H 0.2694 0.1592 0.6201
H41 H 0.3496 0.2171 0.6045
H42 H 0.2247 0.2235 0.5955
P2 P 0.71607(3) 0.03102(2) 0.616460(12)
O18 O 0.64841(10) -0.00655(7) 0.58574(4)
N4 N 0.78128(12) -0.02690(7) 0.64458(4)
N5 N 0.79852(14) 0.08470(8) 0.59218(4)
N6 N 0.65271(13) 0.07917(9) 0.65082(5)
C43 C 0.83819(15) -0.08261(10) 0.62267(6)
H43 H 0.8392 -0.1240 0.6393
H44 H 0.9115 -0.0682 0.6170
H45 H 0.8013 -0.0922 0.5973
C44 C 0.8304(2) -0.01129(13) 0.68409(6)
H46 H 0.9044 0.0033 0.6801
H47 H 0.8289 -0.0523 0.7010
H48 H 0.7904 0.0255 0.6972
C45 C 0.8866(2) 0.11865(16) 0.61478(7)
H49 H 0.9071 0.1610 0.6010
H50 H 0.9482 0.0878 0.6161
H51 H 0.8625 0.1294 0.6421
C46 C 0.82486(19) 0.07248(11) 0.54911(6)
H52 H 0.8913 0.0463 0.5472
H53 H 0.8336 0.1165 0.5354
H54 H 0.7670 0.0466 0.5364
C47 C 0.5724(2) 0.04252(15) 0.67619(8)
H55 H 0.5038 0.0413 0.6621
H56 H 0.5640 0.0666 0.7018
H57 H 0.5967 -0.0044 0.6812
C48 C 0.6199(3) 0.15073(13) 0.64077(7)
H58 H 0.6006 0.1750 0.6655
H59 H 0.5584 0.1496 0.6226
H60 H 0.6791 0.1745 0.6276
P3 P -0.20907(3) -0.12980(2) 0.478180(12)
O19 O -0.12337(10) -0.11772(8) 0.50950(4)
N7 N -0.30990(11) -0.17658(7) 0.49573(5)
N8 N -0.15703(11) -0.16987(7) 0.43845(4)
N9 N -0.26322(13) -0.05615(7) 0.46299(4)
C49 C -0.33702(16) -0.24654(9) 0.48281(6)
H61 H -0.4091 -0.2470 0.4715
H62 H -0.3340 -0.2775 0.5060
H63 H -0.2860 -0.2618 0.4624
C50 C -0.37046(17) -0.15222(11) 0.53123(7)
H64 H -0.3604 -0.1842 0.5536
H65 H -0.4464 -0.1495 0.5245
H66 H -0.3446 -0.1068 0.5391
C51 C -0.06732(18) -0.21887(13) 0.44291(8)
H67 H -0.0156 -0.2114 0.4213
H68 H -0.0946 -0.2658 0.4414
H69 H -0.0326 -0.2117 0.4690
C52 C -0.21689(16) -0.17701(9) 0.40016(5)
H70 H -0.2461 -0.2234 0.3982
H71 H -0.1688 -0.1686 0.3775
H72 H -0.2753 -0.1437 0.3996
C53 C -0.1895(2) -0.00054(10) 0.44965(6)
H73 H -0.2146 0.0435 0.4601
H74 H -0.1877 0.0010 0.4202
H75 H -0.1177 -0.0097 0.4599
C54 C -0.37541(18) -0.04687(12) 0.44964(7)
H76 H -0.3769 -0.0383 0.4206
H77 H -0.4069 -0.0078 0.4638
H78 H -0.4163 -0.0884 0.4557
P4 P -0.54515(4) -0.04960(3) 0.836700(16)
O20 O -0.43284(13) -0.06244(9) 0.82249(7)
N10 N -0.58744(15) 0.03168(10) 0.83515(6)
N11 N -0.5503(2) -0.06998(12) 0.88550(7)
N12 N -0.6314(2) -0.09688(14) 0.81113(9)
C55 C -0.5286(2) 0.08434(12) 0.85847(9)
H79 H -0.5795 0.1156 0.8712
H80 H -0.4819 0.1102 0.8404
H81 H -0.4855 0.0620 0.8792
C56 C -0.6496(3) 0.05830(18) 0.80108(10)
H82 H -0.6010 0.0744 0.7801
H83 H -0.6942 0.0964 0.8102
H84 H -0.6949 0.0218 0.7903
C57 C -0.6298(4) -0.0437(2) 0.91505(10)
H85 H -0.5990 -0.0449 0.9421
H86 H -0.6938 -0.0724 0.9143
H87 H -0.6487 0.0036 0.9082
C58 C -0.4941(4) -0.13183(18) 0.89993(11)
H88 H -0.5437 -0.1706 0.9003
H89 H -0.4670 -0.1237 0.9271
H90 H -0.4345 -0.1422 0.8819
C59 C -0.6148(4) -0.1272(3) 0.77356(16)
H91 H -0.5419 -0.1180 0.7646
H92 H -0.6654 -0.1082 0.7541
H93 H -0.6256 -0.1768 0.7757
C60 C -0.7433(3) -0.1080(2) 0.82836(13)
H97 H -0.7559 -0.1571 0.8320
H98 H -0.7963 -0.0893 0.8097
H99 H -0.7492 -0.0846 0.8543
O1 O 0.20609(9) -0.03026(5) 0.58923(3)
O2 O 0.18329(11) -0.14392(6) 0.60546(4)
O3 O 0.04013(9) -0.06667(7) 0.54276(4)
O4 O 0.14125(11) -0.08164(7) 0.48638(4)
O5 O 0.45881(10) -0.02727(7) 0.55845(5)
O6 O 0.41509(11) 0.08578(6) 0.56581(4)
O7 O 0.22425(9) 0.06768(6) 0.52593(4)
O8 O 0.33128(10) 0.11084(7) 0.47587(4)
C1 C 0.15722(15) 0.01362(9) 0.66674(6)
H1 H 0.1754 0.0464 0.6468
C2 C 0.13258(17) 0.03498(10) 0.70651(6)
H2 H 0.1340 0.0822 0.7132
C3 C 0.10596(17) -0.01397(11) 0.73617(6)
H3 H 0.0901 0.0005 0.7628
C4 C 0.10284(16) -0.08405(11) 0.72644(6)
H4 H 0.0845 -0.1166 0.7465
C5 C 0.12703(14) -0.10627(9) 0.68687(5)
H5 H 0.1249 -0.1536 0.6804
C6 C 0.15447(12) -0.05739(8) 0.65700(5)
C7 C 0.18147(12) -0.08318(8) 0.61532(5)
C8 C 0.23168(12) -0.05067(8) 0.54795(5)
H6 H 0.2783 -0.0922 0.5489
C9 C 0.13058(12) -0.06770(8) 0.52232(5)
C10 C 0.29524(12) 0.00866(8) 0.52880(5)
H7 H 0.3177 -0.0051 0.5011
C11 C 0.39667(12) 0.02795(8) 0.55371(5)
C12 C 0.25391(13) 0.11687(9) 0.49818(5)
C13 C 0.17936(13) 0.17758(9) 0.49866(5)
C14 C 0.09099(17) 0.18145(11) 0.52494(7)
H8 H 0.0767 0.1451 0.5431
C15 C 0.0240(2) 0.23953(14) 0.52412(10)
H9 H -0.0342 0.2426 0.5423
C16 C 0.0431(2) 0.29322(12) 0.49640(9)
H10 H -0.0032 0.3316 0.4955
C17 C 0.1300(2) 0.28926(11) 0.47059(7)
H11 H 0.1434 0.3255 0.4522
C18 C 0.19858(17) 0.23194(11) 0.47139(6)
H12 H 0.2577 0.2298 0.4536
H100 H -0.0120(18) -0.0784(17) 0.5287(9)
H101 H 0.5180(15) -0.0169(17) 0.5680(10)
O9 O -0.28699(9) 0.19469(6) 0.78833(3)
O10 O -0.43071(11) 0.18114(8) 0.74633(4)
O11 O -0.07661(10) 0.15476(6) 0.71719(4)
O12 O -0.15101(12) 0.25775(7) 0.73419(5)
O13 O -0.31018(11) 0.02309(7) 0.78817(4)
O14 O -0.22739(14) 0.03867(7) 0.84878(4)
O15 O -0.09648(9) 0.13906(6) 0.81715(3)
O16 O 0.01587(13) 0.04707(8) 0.82515(4)
C19 C -0.39103(14) 0.30002(9) 0.83090(5)
H13 H -0.3155 0.2981 0.8324
C20 C -0.44879(16) 0.34634(10) 0.85567(5)
H14 H -0.4115 0.3762 0.8732
C21 C -0.56111(17) 0.34828(11) 0.85433(6)
H15 H -0.5994 0.3788 0.8712
C22 C -0.61614(17) 0.30442(14) 0.82768(7)
H16 H -0.6917 0.3054 0.8268
C23 C -0.55983(16) 0.25921(12) 0.80239(7)
H17 H -0.5975 0.2304 0.7843
C24 C -0.44692(13) 0.25671(8) 0.80397(5)
C25 C -0.38985(13) 0.20736(8) 0.77597(5)
C26 C -0.22253(12) 0.15071(8) 0.76234(4)
H18 H -0.2709 0.1248 0.7439
C27 C -0.14554(13) 0.19533(8) 0.73655(5)
C28 C -0.16136(12) 0.09907(8) 0.78918(4)
H19 H -0.1133 0.0708 0.7718
C29 C -0.23749(14) 0.05049(8) 0.81288(5)
C30 C -0.01169(14) 0.10517(9) 0.83458(5)
C31 C 0.04182(14) 0.14950(10) 0.86644(5)
C32 C 0.00569(14) 0.21662(9) 0.87538(5)
H20 H -0.0520 0.2358 0.8607
C33 C 0.05573(16) 0.25512(10) 0.90620(6)
H21 H 0.0318 0.3001 0.9122
C34 C 0.14132(18) 0.22625(14) 0.92800(7)
H22 H 0.1751 0.2521 0.9485
C35 C 0.1771(2) 0.15907(15) 0.91945(8)
H23 H 0.2341 0.1398 0.9344
C36 C 0.1276(2) 0.12051(13) 0.88839(7)
H24 H 0.1517 0.0756 0.8824
H102 H -0.038(2) 0.1788(13) 0.7022(7)
H103 H -0.341(3) -0.0103(13) 0.7983(10)
H94? H -0.6800 -0.1507 0.7650
H95? H -0.5565 -0.1604 0.7755
H96? H -0.5963 -0.0919 0.7539
loop_
_geom_bond_atom_site_label_1
_geom_bond_atom_site_label_2
_geom_bond_site_symmetry_1
_geom_bond_site_symmetry_2
P1 O17 1_555 1_555
P2 O18 1_555 1_555
P3 O19 1_555 1_555
P4 O20 1_555 1_555
O1 C7 1_555 1_555
O2 C7 1_555 1_555
O3 C9 1_555 1_555
O4 C9 1_555 1_555
O5 C11 1_555 1_555
O6 C11 1_555 1_555
O7 C10 1_555 1_555
O8 C12 1_555 1_555
O9 C25 1_555 1_555
O10 C25 1_555 1_555
O11 C27 1_555 1_555
O12 C27 1_555 1_555
O13 C29 1_555 1_555
O14 C29 1_555 1_555
O15 C28 1_555 1_555
O16 C30 1_555 1_555
N1 P1 1_555 1_555
N2 P1 1_555 1_555
N3 P1 1_555 1_555
N4 P2 1_555 1_555
N5 P2 1_555 1_555
N6 P2 1_555 1_555
N7 P3 1_555 1_555
N8 P3 1_555 1_555
N9 P3 1_555 1_555
N10 P4 1_555 1_555
N11 P4 1_555 1_555
N12 P4 1_555 1_555
C1 H1 1_555 1_555
C2 C1 1_555 1_555
H2 C2 1_555 1_555
C3 C2 1_555 1_555
H3 C3 1_555 1_555
C4 C3 1_555 1_555
H4 C4 1_555 1_555
C5 C4 1_555 1_555
H5 C5 1_555 1_555
C6 C1 1_555 1_555
C7 C6 1_555 1_555
C8 O1 1_555 1_555
H6 C8 1_555 1_555
C9 C8 1_555 1_555
C10 C8 1_555 1_555
H7 C10 1_555 1_555
C11 C10 1_555 1_555
C12 O7 1_555 1_555
C13 C12 1_555 1_555
C14 C13 1_555 1_555
H8 C14 1_555 1_555
C15 C14 1_555 1_555
H9 C15 1_555 1_555
C16 C15 1_555 1_555
H10 C16 1_555 1_555
C17 C16 1_555 1_555
H11 C17 1_555 1_555
C18 C13 1_555 1_555
H12 C18 1_555 1_555
C19 H13 1_555 1_555
C20 C19 1_555 1_555
H14 C20 1_555 1_555
C21 C20 1_555 1_555
H15 C21 1_555 1_555
C22 C21 1_555 1_555
H16 C22 1_555 1_555
C23 C22 1_555 1_555
H17 C23 1_555 1_555
C24 C19 1_555 1_555
C25 C24 1_555 1_555
C26 O9 1_555 1_555
H18 C26 1_555 1_555
C27 C26 1_555 1_555
C28 C26 1_555 1_555
H19 C28 1_555 1_555
C29 C28 1_555 1_555
C30 O15 1_555 1_555
C31 C30 1_555 1_555
C32 C31 1_555 1_555
H20 C32 1_555 1_555
C33 C32 1_555 1_555
H21 C33 1_555 1_555
C34 C33 1_555 1_555
H22 C34 1_555 1_555
C35 C34 1_555 1_555
H23 C35 1_555 1_555
C36 C31 1_555 1_555
H24 C36 1_555 1_555
C37 N1 1_555 1_555
H25 C37 1_555 1_555
H26 C37 1_555 1_555
H27 C37 1_555 1_555
C38 N1 1_555 1_555
H28 C38 1_555 1_555
H29 C38 1_555 1_555
H30 C38 1_555 1_555
C39 N2 1_555 1_555
H31 C39 1_555 1_555
H32 C39 1_555 1_555
H33 C39 1_555 1_555
C40 N2 1_555 1_555
H34 C40 1_555 1_555
H35 C40 1_555 1_555
H36 C40 1_555 1_555
C41 N3 1_555 1_555
H37 C41 1_555 1_555
H38 C41 1_555 1_555
H39 C41 1_555 1_555
C42 N3 1_555 1_555
H40 C42 1_555 1_555
H41 C42 1_555 1_555
H42 C42 1_555 1_555
C43 N4 1_555 1_555
H43 C43 1_555 1_555
H44 C43 1_555 1_555
H45 C43 1_555 1_555
C44 N4 1_555 1_555
H46 C44 1_555 1_555
H47 C44 1_555 1_555
H48 C44 1_555 1_555
C45 N5 1_555 1_555
H49 C45 1_555 1_555
H50 C45 1_555 1_555
H51 C45 1_555 1_555
C46 N5 1_555 1_555
H52 C46 1_555 1_555
H53 C46 1_555 1_555
H54 C46 1_555 1_555
C47 N6 1_555 1_555
H55 C47 1_555 1_555
H56 C47 1_555 1_555
H57 C47 1_555 1_555
C48 N6 1_555 1_555
H58 C48 1_555 1_555
H59 C48 1_555 1_555
H60 C48 1_555 1_555
C49 N7 1_555 1_555
H61 C49 1_555 1_555
H62 C49 1_555 1_555
H63 C49 1_555 1_555
C50 N7 1_555 1_555
H64 C50 1_555 1_555
H65 C50 1_555 1_555
H66 C50 1_555 1_555
C51 N8 1_555 1_555
H67 C51 1_555 1_555
H68 C51 1_555 1_555
H69 C51 1_555 1_555
C52 N8 1_555 1_555
H70 C52 1_555 1_555
H71 C52 1_555 1_555
H72 C52 1_555 1_555
C53 N9 1_555 1_555
H73 C53 1_555 1_555
H74 C53 1_555 1_555
H75 C53 1_555 1_555
C54 N9 1_555 1_555
H76 C54 1_555 1_555
H77 C54 1_555 1_555
H78 C54 1_555 1_555
C55 N10 1_555 1_555
H79 C55 1_555 1_555
H80 C55 1_555 1_555
H81 C55 1_555 1_555
C56 N10 1_555 1_555
H82 C56 1_555 1_555
H83 C56 1_555 1_555
H84 C56 1_555 1_555
C57 N11 1_555 1_555
H85 C57 1_555 1_555
H86 C57 1_555 1_555
H87 C57 1_555 1_555
C58 N11 1_555 1_555
H88 C58 1_555 1_555
H89 C58 1_555 1_555
H90 C58 1_555 1_555
C59 N12 1_555 1_555
H91 C59 1_555 1_555
H92 C59 1_555 1_555
H93 C59 1_555 1_555
C60 N12 1_555 1_555
H97 C60 1_555 1_555
H98 C60 1_555 1_555
H99 C60 1_555 1_555
H100 O3 1_555 1_555
H101 O5 1_555 1_555
H102 O11 1_555 1_555
H103 O13 1_555 1_555
C5 C6 1_555 1_555
C17 C18 1_555 1_555
C23 C24 1_555 1_555
C35 C36 1_555 1_555

#END
