
#######################################################################
#
#                 Cambridge Crystallographic Data Centre
#                                CCDC 
#
#######################################################################
#
# If this CIF has been generated from an entry in the Cambridge 
# Structural Database, then it will include bibliographic, chemical, 
# crystal, experimental, refinement or atomic coordinate data resulting 
# from the CCDC's data processing and validation procedures.
#
#######################################################################

data_TIBWUY
_chemical_formula_moiety         'C40 H31 N1 O2'
_chemical_name_systematic        
9-t-Butyl-4,5,6,7-tetraphenylazepino[3,2,1-hi]indole-1,2-dione
_symmetry_cell_setting           monoclinic
_symmetry_space_group_name_H-M   'P 21/n'
_symmetry_Int_Tables_number      14
_space_group_name_Hall           '-P 2yn'
loop_
_symmetry_equiv_pos_site_id
_symmetry_equiv_pos_as_xyz
1 x,y,z
2 1/2-x,1/2+y,1/2-z
3 -x,-y,-z
4 1/2+x,1/2-y,1/2+z
_cell_length_a                   17.119(2)
_cell_length_b                   13.5180(18)
_cell_length_c                   27.388(4)
_cell_angle_alpha                90
_cell_angle_beta                 107.639(3)
_cell_angle_gamma                90
_cell_volume                     6040
_exptl_crystal_colour            red
_exptl_crystal_description       Block
_cell_formula_units_Z            8
loop_
_atom_site_label
_atom_site_type_symbol
_atom_site_fract_x
_atom_site_fract_y
_atom_site_fract_z
C1 C 0.1493(2) -0.0118(2) 0.36736(16)
H1 H 0.1047 -0.0549 0.3478
H2 H 0.1623 -0.0268 0.4040
H3 H 0.1979 -0.0231 0.3563
C2 C 0.0543(2) 0.1146(3) 0.38163(16)
H4 H 0.0372 0.1841 0.3767
H5 H 0.0740 0.0997 0.4184
H6 H 0.0075 0.0719 0.3650
C3 C 0.1956(2) 0.1615(3) 0.38504(16)
H7 H 0.2408 0.1487 0.3709
H8 H 0.2133 0.1466 0.4218
H9 H 0.1794 0.2312 0.3798
O1 O -0.07496(14) 0.32032(17) 0.10484(9)
O2 O -0.09718(14) 0.33292(17) 0.20739(9)
N1 N 0.02838(15) 0.20940(17) 0.14614(10)
C4 C -0.03646(19) 0.2753(2) 0.14228(13)
C5 C -0.0453(2) 0.2824(2) 0.19705(13)
C6 C 0.01861(18) 0.2194(2) 0.22942(12)
C7 C 0.05651(18) 0.1721(2) 0.19731(12)
C8 C 0.10806(18) 0.0923(2) 0.21411(12)
C9 C 0.12799(18) 0.0716(2) 0.26670(12)
H10 H 0.1659 0.0197 0.2800
C10 C 0.09591(19) 0.1221(2) 0.30105(12)
C11 C 0.03803(19) 0.1956(2) 0.28087(13)
H11 H 0.0121 0.2292 0.3023
C12 C 0.08786(19) 0.2252(2) 0.11887(12)
C13 C 0.13612(18) 0.1503(2) 0.11362(12)
C14 C 0.13013(17) 0.0458(2) 0.13060(12)
C15 C 0.12829(17) 0.0219(2) 0.17803(12)
C16 C 0.12287(16) 0.09626(19) 0.35797(13)
C17 C 0.09677(18) 0.3300(2) 0.10420(12)
C18 C 0.1107(2) 0.4033(2) 0.14122(13)
H12 H 0.1161 0.3861 0.1757
C19 C 0.1170(2) 0.5024(2) 0.12814(14)
H13 H 0.1267 0.5524 0.1536
C20 C 0.1090(2) 0.5269(2) 0.07782(14)
H14 H 0.1125 0.5941 0.0686
C21 C 0.0960(2) 0.4543(2) 0.04129(14)
H15 H 0.0911 0.4714 0.0068
C22 C 0.0900(2) 0.3566(2) 0.05428(13)
H16 H 0.0812 0.3069 0.0286
C23 C 0.21112(19) 0.1697(2) 0.09685(12)
C24 C 0.2807(2) 0.2054(2) 0.13360(13)
H17 H 0.2787 0.2197 0.1672
C25 C 0.3533(2) 0.2204(3) 0.12146(14)
H18 H 0.4007 0.2443 0.1468
C26 C 0.3560(2) 0.2006(3) 0.07273(14)
H19 H 0.4054 0.2106 0.0644
C27 C 0.2877(2) 0.1666(3) 0.03620(14)
H20 H 0.2896 0.1543 0.0024
C28 C 0.2153(2) 0.1499(3) 0.04833(13)
H21 H 0.1686 0.1247 0.0230
C29 C 0.12373(19) -0.0334(2) 0.09133(12)
C30 C 0.1887(2) -0.0859(2) 0.08406(13)
H22 H 0.2433 -0.0695 0.1034
C31 C 0.1747(2) -0.1625(3) 0.04876(13)
H23 H 0.2199 -0.1984 0.0446
C32 C 0.0972(2) -0.1872(2) 0.01988(14)
H24 H 0.0883 -0.2405 -0.0038
C33 C 0.0322(3) -0.1336(3) 0.02575(17)
H25 H -0.0221 -0.1484 0.0052
C34 C 0.0457(2) -0.0586(3) 0.06132(16)
H26 H 0.0002 -0.0232 0.0654
C35 C 0.13826(18) -0.0835(2) 0.19562(11)
C36 C 0.2142(2) -0.1289(2) 0.20458(12)
H27 H 0.2586 -0.0934 0.1989
C37 C 0.2253(2) -0.2258(3) 0.22173(13)
H28 H 0.2770 -0.2571 0.2272
C38 C 0.1614(2) -0.2769(2) 0.23089(13)
H29 H 0.1690 -0.3435 0.2423
C39 C 0.0867(2) -0.2319(2) 0.22353(14)
H30 H 0.0430 -0.2669 0.2303
C40 C 0.0753(2) -0.1352(2) 0.20617(13)
H31 H 0.0239 -0.1039 0.2014
O3 O 0.41353(13) -0.06359(17) 0.13132(9)
O4 O 0.40787(13) -0.07249(16) 0.23755(9)
N2 N 0.52001(15) 0.04743(18) 0.16669(10)
C44 C 0.45711(19) -0.0176(2) 0.16730(13)
C45 C 0.45644(19) -0.0229(2) 0.22308(13)
C46 C 0.52311(18) 0.0407(2) 0.25239(12)
C47 C 0.55477(17) 0.0875(2) 0.21697(11)
C48 C 0.60730(17) 0.1673(2) 0.23087(12)
C49 C 0.63292(18) 0.1909(2) 0.28337(12)
H41 H 0.6708 0.2436 0.2944
C50 C 0.60591(19) 0.1412(2) 0.32066(12)
C51 C 0.54827(19) 0.0663(2) 0.30364(12)
H42 H 0.5264 0.0329 0.3271
C52 C 0.57202(18) 0.0306(2) 0.13474(12)
C53 C 0.62155(18) 0.1018(2) 0.12703(11)
C54 C 0.62600(18) 0.2062(2) 0.14523(12)
C55 C 0.62677(17) 0.2342(2) 0.19294(11)
C56 C 0.6371(2) 0.1698(2) 0.37732(12)
C57 C 0.6660(2) 0.2775(2) 0.38457(13)
H43 H 0.7137 0.2857 0.3723
H44 H 0.6810 0.2948 0.4210
H45 H 0.6217 0.3210 0.3651
C58 C 0.7078(2) 0.1016(3) 0.40366(14)
H46 H 0.6887 0.0329 0.3998
H47 H 0.7284 0.1183 0.4402
H48 H 0.7518 0.1096 0.3880
C59 C 0.5689(2) 0.1582(3) 0.40254(14)
H49 H 0.5214 0.1981 0.3839
H50 H 0.5889 0.1807 0.4382
H51 H 0.5528 0.0885 0.4016
C60 C 0.57469(18) -0.0734(2) 0.11684(12)
C61 C 0.61502(19) -0.1450(2) 0.15141(13)
H52 H 0.6381 -0.1289 0.1866
C62 C 0.6217(2) -0.2408(2) 0.13439(14)
H53 H 0.6495 -0.2900 0.1581
C63 C 0.5881(2) -0.2645(2) 0.08331(15)
H54 H 0.5937 -0.3297 0.0718
C64 C 0.5467(2) -0.1945(2) 0.04914(14)
H55 H 0.5228 -0.2113 0.0141
C65 C 0.5397(2) -0.0988(2) 0.06579(13)
H56 H 0.5108 -0.0503 0.0420
C66 C 0.68384(19) 0.0756(2) 0.10024(12)
C67 C 0.6640(2) 0.0751(2) 0.04762(13)
H57 H 0.6092 0.0881 0.0274
C68 C 0.7234(2) 0.0560(3) 0.02404(14)
H58 H 0.7092 0.0551 -0.0123
C69 C 0.8032(2) 0.0383(3) 0.05336(15)
H59 H 0.8441 0.0261 0.0372
C70 C 0.8238(2) 0.0384(2) 0.10593(14)
H60 H 0.8787 0.0261 0.1261
C71 C 0.7636(2) 0.0565(2) 0.12944(13)
H61 H 0.7775 0.0558 0.1658
C72 C 0.62993(18) 0.2831(2) 0.10660(11)
C73 C 0.6972(2) 0.2969(2) 0.08858(12)
H62 H 0.7437 0.2551 0.1005
C74 C 0.6968(2) 0.3708(2) 0.05360(13)
H63 H 0.7432 0.3798 0.0419
C75 C 0.6297(2) 0.4314(2) 0.03569(13)
H64 H 0.6296 0.4817 0.0115
C76 C 0.5623(2) 0.4190(2) 0.05300(12)
H65 H 0.5158 0.4607 0.0407
C77 C 0.56285(19) 0.3462(2) 0.08795(12)
H66 H 0.5165 0.3384 0.0998
C78 C 0.64359(18) 0.3396(2) 0.20875(11)
C79 C 0.7161(2) 0.3838(2) 0.20767(12)
H67 H 0.7559 0.3455 0.1983
C80 C 0.7316(2) 0.4815(3) 0.21982(13)
H68 H 0.7813 0.5106 0.2182
C81 C 0.6759(3) 0.5374(3) 0.23418(13)
H69 H 0.6867 0.6053 0.2424
C82 C 0.6036(2) 0.4950(2) 0.23682(13)
H70 H 0.5651 0.5337 0.2472
C83 C 0.5874(2) 0.3961(2) 0.22434(12)
H71 H 0.5380 0.3669 0.2264
C41? C 0.2106(4) 0.0587(10) 0.3796(6)
H32? H 0.2135 -0.0101 0.3690
H33? H 0.2276 0.0624 0.4171
H34? H 0.2472 0.0997 0.3666
C42? C 0.0659(7) 0.0223(8) 0.3721(6)
H35? H 0.0092 0.0459 0.3591
H36? H 0.0813 0.0156 0.4094
H37? H 0.0705 -0.0421 0.3568
C43? C 0.1164(9) 0.1946(6) 0.3840(6)
H38? H 0.1362 0.2482 0.3667
H39? H 0.1498 0.1918 0.4200
H40? H 0.0591 0.2069 0.3819
loop_
_geom_bond_atom_site_label_1
_geom_bond_atom_site_label_2
_geom_bond_site_symmetry_1
_geom_bond_site_symmetry_2
C1 H1 1_555 1_555
H2 C1 1_555 1_555
H3 C1 1_555 1_555
C2 H4 1_555 1_555
H5 C2 1_555 1_555
H6 C2 1_555 1_555
C3 H7 1_555 1_555
H8 C3 1_555 1_555
H9 C3 1_555 1_555
O1 C4 1_555 1_555
O2 C5 1_555 1_555
N1 C4 1_555 1_555
C4 C5 1_555 1_555
C5 C6 1_555 1_555
C6 C7 1_555 1_555
C7 N1 1_555 1_555
C8 C7 1_555 1_555
C9 C8 1_555 1_555
H10 C9 1_555 1_555
C10 C9 1_555 1_555
C11 C6 1_555 1_555
H11 C11 1_555 1_555
C12 N1 1_555 1_555
C13 C12 1_555 1_555
C14 C13 1_555 1_555
C15 C8 1_555 1_555
C16 C1 1_555 1_555
C17 C12 1_555 1_555
C18 C17 1_555 1_555
H12 C18 1_555 1_555
C19 C18 1_555 1_555
H13 C19 1_555 1_555
C20 C19 1_555 1_555
H14 C20 1_555 1_555
C21 C20 1_555 1_555
H15 C21 1_555 1_555
C22 C17 1_555 1_555
H16 C22 1_555 1_555
C23 C13 1_555 1_555
C24 C23 1_555 1_555
H17 C24 1_555 1_555
C25 C24 1_555 1_555
H18 C25 1_555 1_555
C26 C25 1_555 1_555
H19 C26 1_555 1_555
C27 C26 1_555 1_555
H20 C27 1_555 1_555
C28 C23 1_555 1_555
H21 C28 1_555 1_555
C29 C14 1_555 1_555
C30 C29 1_555 1_555
H22 C30 1_555 1_555
C31 C30 1_555 1_555
H23 C31 1_555 1_555
C32 C31 1_555 1_555
H24 C32 1_555 1_555
C33 C32 1_555 1_555
H25 C33 1_555 1_555
C34 C29 1_555 1_555
H26 C34 1_555 1_555
C35 C15 1_555 1_555
C36 C35 1_555 1_555
H27 C36 1_555 1_555
C37 C36 1_555 1_555
H28 C37 1_555 1_555
C38 C37 1_555 1_555
H29 C38 1_555 1_555
C39 C38 1_555 1_555
H30 C39 1_555 1_555
C40 C35 1_555 1_555
H31 C40 1_555 1_555
O3 C44 1_555 1_555
O4 C45 1_555 1_555
N2 C44 1_555 1_555
C44 C45 1_555 1_555
C45 C46 1_555 1_555
C46 C47 1_555 1_555
C47 N2 1_555 1_555
C48 C47 1_555 1_555
C49 C48 1_555 1_555
H41 C49 1_555 1_555
C50 C49 1_555 1_555
C51 C46 1_555 1_555
H42 C51 1_555 1_555
C52 N2 1_555 1_555
C53 C52 1_555 1_555
C54 C53 1_555 1_555
C55 C48 1_555 1_555
C56 C50 1_555 1_555
C57 C56 1_555 1_555
H43 C57 1_555 1_555
H44 C57 1_555 1_555
H45 C57 1_555 1_555
C58 C56 1_555 1_555
H46 C58 1_555 1_555
H47 C58 1_555 1_555
H48 C58 1_555 1_555
C59 C56 1_555 1_555
H49 C59 1_555 1_555
H50 C59 1_555 1_555
H51 C59 1_555 1_555
C60 C52 1_555 1_555
C61 C60 1_555 1_555
H52 C61 1_555 1_555
C62 C61 1_555 1_555
H53 C62 1_555 1_555
C63 C62 1_555 1_555
H54 C63 1_555 1_555
C64 C63 1_555 1_555
H55 C64 1_555 1_555
C65 C60 1_555 1_555
H56 C65 1_555 1_555
C66 C53 1_555 1_555
C67 C66 1_555 1_555
H57 C67 1_555 1_555
C68 C67 1_555 1_555
H58 C68 1_555 1_555
C69 C68 1_555 1_555
H59 C69 1_555 1_555
C70 C69 1_555 1_555
H60 C70 1_555 1_555
C71 C66 1_555 1_555
H61 C71 1_555 1_555
C72 C54 1_555 1_555
C73 C72 1_555 1_555
H62 C73 1_555 1_555
C74 C73 1_555 1_555
H63 C74 1_555 1_555
C75 C74 1_555 1_555
H64 C75 1_555 1_555
C76 C75 1_555 1_555
H65 C76 1_555 1_555
C77 C72 1_555 1_555
H66 C77 1_555 1_555
C78 C55 1_555 1_555
C79 C78 1_555 1_555
H67 C79 1_555 1_555
C80 C79 1_555 1_555
H68 C80 1_555 1_555
C81 C80 1_555 1_555
H69 C81 1_555 1_555
C82 C81 1_555 1_555
H70 C82 1_555 1_555
C83 C78 1_555 1_555
H71 C83 1_555 1_555
C2 C16 1_555 1_555
C3 C16 1_555 1_555
C10 C11 1_555 1_555
C10 C16 1_555 1_555
C14 C15 1_555 1_555
C21 C22 1_555 1_555
C27 C28 1_555 1_555
C33 C34 1_555 1_555
C39 C40 1_555 1_555
C50 C51 1_555 1_555
C54 C55 1_555 1_555
C64 C65 1_555 1_555
C70 C71 1_555 1_555
C76 C77 1_555 1_555
C82 C83 1_555 1_555

#END
