
#######################################################################
#
#                 Cambridge Crystallographic Data Centre
#                                CCDC 
#
#######################################################################
#
# If this CIF has been generated from an entry in the Cambridge 
# Structural Database, then it will include bibliographic, chemical, 
# crystal, experimental, refinement or atomic coordinate data resulting 
# from the CCDC's data processing and validation procedures.
#
#######################################################################

data_TIBXUA
_chemical_formula_moiety         'C40 H29 N3,0.13(H2 O1)'
_chemical_name_systematic        
'6,7,8,9-tetraphenyl-1-(pyrimidin-2-yl)-2,3-dihydro-1H-benzo[g]indole hydrate'
_symmetry_cell_setting           triclinic
_symmetry_space_group_name_H-M   'P -1'
_symmetry_Int_Tables_number      2
_space_group_name_Hall           '-P 1'
loop_
_symmetry_equiv_pos_site_id
_symmetry_equiv_pos_as_xyz
1 x,y,z
2 -x,-y,-z
_cell_length_a                   13.0701(7)
_cell_length_b                   13.6845(8)
_cell_length_c                   16.8344(11)
_cell_angle_alpha                96.967(5)
_cell_angle_beta                 97.057(5)
_cell_angle_gamma                93.517(5)
_cell_volume                     2957.19
_exptl_crystal_colour            colorless
_exptl_crystal_description       needle
_cell_formula_units_Z            4
loop_
_atom_site_label
_atom_site_type_symbol
_atom_site_fract_x
_atom_site_fract_y
_atom_site_fract_z
C1 C 0.4678(3) 0.4319(3) 0.3493(2)
C2 C 0.4547(3) 0.5251(3) 0.3849(2)
C3 C 0.3568(3) 0.5587(3) 0.3835(2)
H1 H 0.3480 0.6225 0.4062
C4 C 0.2734(3) 0.4967(3) 0.3482(2)
H2 H 0.2073 0.5171 0.3511
C5 C 0.2851(3) 0.4027(2) 0.3073(2)
C6 C 0.3859(2) 0.3721(2) 0.30076(19)
C7 C 0.3982(2) 0.2878(2) 0.24445(19)
C8 C 0.3121(2) 0.2318(2) 0.20321(19)
C9 C 0.2104(2) 0.2566(2) 0.21710(18)
C10 C 0.1979(2) 0.3417(2) 0.26777(19)
C11 C 0.5567(3) 0.5763(3) 0.4239(2)
H3 H 0.5620 0.5823 0.4823
H4 H 0.5668 0.6414 0.4075
C12 C 0.6346(3) 0.5067(3) 0.3916(2)
H5 H 0.6633 0.5311 0.3466
H6 H 0.6906 0.5002 0.4337
C13 C 0.5018(2) 0.2694(2) 0.22026(19)
C14 C 0.5494(3) 0.1832(2) 0.2299(2)
H7 H 0.5179 0.1342 0.2545
C15 C 0.6438(3) 0.1702(3) 0.2030(3)
H8 H 0.6761 0.1129 0.2109
C16 C 0.6907(3) 0.2397(3) 0.1650(3)
H9 H 0.7536 0.2294 0.1461
C17 C 0.6435(3) 0.3251(3) 0.1551(2)
H10 H 0.6748 0.3731 0.1295
C18 C 0.5504(3) 0.3401(3) 0.1829(2)
H11 H 0.5197 0.3986 0.1765
C19 C 0.3226(2) 0.1458(2) 0.1424(2)
C20 C 0.2930(2) 0.0511(3) 0.1554(2)
H12 H 0.2655 0.0413 0.2025
C21 C 0.3033(3) -0.0288(3) 0.1004(3)
H13 H 0.2831 -0.0920 0.1105
C22 C 0.3430(3) -0.0159(4) 0.0312(3)
H14 H 0.3501 -0.0704 -0.0059
C23 C 0.3724(3) 0.0764(4) 0.0159(3)
H15 H 0.3996 0.0851 -0.0315
C24 C 0.3614(3) 0.1579(3) 0.0718(2)
H16 H 0.3806 0.2211 0.0611
C25 C 0.1170(2) 0.1956(2) 0.1730(2)
C26 C 0.0489(3) 0.1489(2) 0.2151(2)
H17 H 0.0638 0.1518 0.2708
C27 C -0.0414(3) 0.0979(3) 0.1758(3)
H18 H -0.0867 0.0671 0.2051
C28 C -0.0640(3) 0.0928(3) 0.0937(3)
H19 H -0.1248 0.0587 0.0672
C29 C 0.0032(3) 0.1380(3) 0.0511(3)
H20 H -0.0120 0.1343 -0.0046
C30 C 0.0931(3) 0.1891(3) 0.0896(2)
H21 H 0.1382 0.2194 0.0597
C31 C 0.0918(3) 0.3682(2) 0.2807(2)
C32 C 0.0561(3) 0.3602(3) 0.3536(2)
H22 H 0.1011 0.3448 0.3967
C33 C -0.0449(3) 0.3745(3) 0.3635(3)
H23 H -0.0675 0.3692 0.4132
C34 C -0.1125(3) 0.3965(3) 0.3004(3)
H24 H -0.1814 0.4043 0.3064
C35 C -0.0771(3) 0.4069(3) 0.2285(3)
H25 H -0.1222 0.4232 0.1858
C36 C 0.0239(3) 0.3938(2) 0.2183(2)
H26 H 0.0468 0.4021 0.1692
C37 C 0.6033(3) 0.3293(3) 0.39894(19)
C38 C 0.5630(3) 0.1870(3) 0.4463(2)
H27 H 0.5144 0.1409 0.4591
C39 C 0.6650(3) 0.1709(3) 0.4606(3)
H28 H 0.6872 0.1149 0.4815
C40 C 0.7328(3) 0.2421(3) 0.4423(3)
H29 H 0.8030 0.2336 0.4521
N1 N 0.5732(2) 0.4113(2) 0.36541(17)
N2 N 0.7051(2) 0.3219(2) 0.41168(18)
N3 N 0.5297(2) 0.2656(2) 0.41486(17)
C41 C 0.1725(2) 0.9150(2) 0.3460(2)
C42 C 0.2082(2) 1.0063(3) 0.3859(2)
C43 C 0.3104(3) 1.0410(3) 0.3879(2)
H30 H 0.3343 1.1038 0.4134
C44 C 0.3752(3) 0.9810(3) 0.3514(2)
H31 H 0.4453 1.0013 0.3569
C45 C 0.3400(2) 0.8896(2) 0.30600(19)
C46 C 0.2324(2) 0.8581(2) 0.29597(19)
C47 C 0.1937(2) 0.7785(2) 0.23564(18)
C48 C 0.2616(2) 0.7250(2) 0.19402(18)
C49 C 0.3702(2) 0.7502(2) 0.21071(18)
C50 C 0.4078(2) 0.8320(2) 0.26427(19)
C51 C 0.1238(2) 1.0556(3) 0.4251(2)
H32 H 0.1199 1.1230 0.4133
H33 H 0.1339 1.0555 0.4831
C52 C 0.0270(2) 0.9901(2) 0.3854(2)
H34 H -0.0215 0.9822 0.4237
H35 H -0.0071 1.0178 0.3397
C53 C 0.5205(2) 0.8629(2) 0.2768(2)
C54 C 0.5791(3) 0.8591(3) 0.3505(2)
H36 H 0.5471 0.8410 0.3934
C55 C 0.6849(3) 0.8820(3) 0.3609(3)
H37 H 0.7235 0.8794 0.4107
C56 C 0.7325(3) 0.9083(3) 0.2983(3)
H38 H 0.8039 0.9220 0.3049
C57 C 0.6753(3) 0.9146(3) 0.2260(3)
H39 H 0.7076 0.9333 0.1833
C58 C 0.5701(2) 0.8935(2) 0.2158(2)
H40 H 0.5317 0.9000 0.1667
C59 C 0.4439(2) 0.6933(2) 0.1658(2)
C60 C 0.5201(2) 0.6460(2) 0.2066(2)
H41 H 0.5228 0.6465 0.2621
C61 C 0.5921(3) 0.5982(3) 0.1666(3)
H42 H 0.6432 0.5674 0.1955
C62 C 0.5893(3) 0.5955(3) 0.0856(3)
H43 H 0.6381 0.5632 0.0587
C63 C 0.5129(3) 0.6413(3) 0.0437(2)
H44 H 0.5099 0.6392 -0.0119
C64 C 0.4411(3) 0.6901(2) 0.0830(2)
H45 H 0.3904 0.7211 0.0538
C65 C 0.2233(2) 0.6412(2) 0.1306(2)
C66 C 0.2512(3) 0.5477(3) 0.1400(2)
H46 H 0.2933 0.5377 0.1866
C67 C 0.2189(3) 0.4691(3) 0.0826(3)
H47 H 0.2393 0.4066 0.0902
C68 C 0.1576(4) 0.4819(4) 0.0153(3)
H48 H 0.1352 0.4280 -0.0234
C69 C 0.1279(3) 0.5722(4) 0.0032(3)
H49 H 0.0852 0.5799 -0.0436
C70 C 0.1613(3) 0.6549(3) 0.0611(2)
H50 H 0.1418 0.7174 0.0526
C71 C 0.0794(2) 0.7618(2) 0.20960(18)
C72 C 0.0237(2) 0.6741(2) 0.21279(19)
H51 H 0.0574 0.6216 0.2313
C73 C -0.0825(3) 0.6630(3) 0.1886(2)
H52 H -0.1197 0.6041 0.1925
C74 C -0.1320(3) 0.7381(3) 0.1592(2)
H53 H -0.2029 0.7306 0.1428
C75 C -0.0772(3) 0.8246(3) 0.1539(2)
H54 H -0.1109 0.8757 0.1332
C76 C 0.0279(2) 0.8370(2) 0.1791(2)
H55 H 0.0643 0.8965 0.1755
C77 C 0.0300(3) 0.8103(3) 0.38272(19)
C78 C 0.0487(3) 0.6555(3) 0.4105(2)
H56 H 0.0897 0.6031 0.4170
C79 C -0.0525(3) 0.6428(3) 0.4211(2)
H57 H -0.0816 0.5833 0.4327
C80 C -0.1086(3) 0.7226(4) 0.4135(3)
H58 H -0.1776 0.7173 0.4218
N4 N 0.06809(19) 0.8957(2) 0.35926(16)
N5 N 0.0924(2) 0.7376(2) 0.39156(17)
N6 N -0.0697(2) 0.8076(2) 0.39506(18)
O1 O 0.3015(7) 0.2662(8) 0.4492(7)
H59 H 0.3005 0.3145 0.4859
H60 H 0.3596 0.2685 0.4315
loop_
_geom_bond_atom_site_label_1
_geom_bond_atom_site_label_2
_geom_bond_site_symmetry_1
_geom_bond_site_symmetry_2
C1 C2 1_555 1_555
C2 C3 1_555 1_555
C3 H1 1_555 1_555
C4 C3 1_555 1_555
H2 C4 1_555 1_555
C5 C4 1_555 1_555
C6 C1 1_555 1_555
C7 C6 1_555 1_555
C8 C7 1_555 1_555
C9 C8 1_555 1_555
C10 C5 1_555 1_555
C11 C2 1_555 1_555
H3 C11 1_555 1_555
H4 C11 1_555 1_555
C12 C11 1_555 1_555
H5 C12 1_555 1_555
H6 C12 1_555 1_555
C13 C7 1_555 1_555
C14 C13 1_555 1_555
H7 C14 1_555 1_555
C15 C14 1_555 1_555
H8 C15 1_555 1_555
C16 C15 1_555 1_555
H9 C16 1_555 1_555
C17 C16 1_555 1_555
H10 C17 1_555 1_555
C18 C13 1_555 1_555
H11 C18 1_555 1_555
C19 C8 1_555 1_555
C20 C19 1_555 1_555
H12 C20 1_555 1_555
C21 C20 1_555 1_555
H13 C21 1_555 1_555
C22 C21 1_555 1_555
H14 C22 1_555 1_555
C23 C22 1_555 1_555
H15 C23 1_555 1_555
C24 C19 1_555 1_555
H16 C24 1_555 1_555
C25 C9 1_555 1_555
C26 C25 1_555 1_555
H17 C26 1_555 1_555
C27 C26 1_555 1_555
H18 C27 1_555 1_555
C28 C27 1_555 1_555
H19 C28 1_555 1_555
C29 C28 1_555 1_555
H20 C29 1_555 1_555
C30 C25 1_555 1_555
H21 C30 1_555 1_555
C31 C10 1_555 1_555
C32 C31 1_555 1_555
H22 C32 1_555 1_555
C33 C32 1_555 1_555
H23 C33 1_555 1_555
C34 C33 1_555 1_555
H24 C34 1_555 1_555
C35 C34 1_555 1_555
H25 C35 1_555 1_555
C36 C31 1_555 1_555
H26 C36 1_555 1_555
C37 N1 1_555 1_555
C38 H27 1_555 1_555
C39 C38 1_555 1_555
H28 C39 1_555 1_555
C40 C39 1_555 1_555
H29 C40 1_555 1_555
N1 C1 1_555 1_555
N2 C37 1_555 1_555
N3 C37 1_555 1_555
C41 C42 1_555 1_555
C42 C43 1_555 1_555
C43 H30 1_555 1_555
C44 C43 1_555 1_555
H31 C44 1_555 1_555
C45 C44 1_555 1_555
C46 C41 1_555 1_555
C47 C46 1_555 1_555
C48 C47 1_555 1_555
C49 C48 1_555 1_555
C50 C45 1_555 1_555
C51 C42 1_555 1_555
H32 C51 1_555 1_555
H33 C51 1_555 1_555
C52 C51 1_555 1_555
H34 C52 1_555 1_555
H35 C52 1_555 1_555
C53 C50 1_555 1_555
C54 C53 1_555 1_555
H36 C54 1_555 1_555
C55 C54 1_555 1_555
H37 C55 1_555 1_555
C56 C55 1_555 1_555
H38 C56 1_555 1_555
C57 C56 1_555 1_555
H39 C57 1_555 1_555
C58 C53 1_555 1_555
H40 C58 1_555 1_555
C59 C49 1_555 1_555
C60 C59 1_555 1_555
H41 C60 1_555 1_555
C61 C60 1_555 1_555
H42 C61 1_555 1_555
C62 C61 1_555 1_555
H43 C62 1_555 1_555
C63 C62 1_555 1_555
H44 C63 1_555 1_555
C64 C59 1_555 1_555
H45 C64 1_555 1_555
C65 C48 1_555 1_555
C66 C65 1_555 1_555
H46 C66 1_555 1_555
C67 C66 1_555 1_555
H47 C67 1_555 1_555
C68 C67 1_555 1_555
H48 C68 1_555 1_555
C69 C68 1_555 1_555
H49 C69 1_555 1_555
C70 C65 1_555 1_555
H50 C70 1_555 1_555
C71 C47 1_555 1_555
C72 C71 1_555 1_555
H51 C72 1_555 1_555
C73 C72 1_555 1_555
H52 C73 1_555 1_555
C74 C73 1_555 1_555
H53 C74 1_555 1_555
C75 C74 1_555 1_555
H54 C75 1_555 1_555
C76 C71 1_555 1_555
H55 C76 1_555 1_555
C77 N4 1_555 1_555
C78 H56 1_555 1_555
C79 C78 1_555 1_555
H57 C79 1_555 1_555
C80 C79 1_555 1_555
H58 C80 1_555 1_555
N4 C41 1_555 1_555
N5 C77 1_555 1_555
N6 C77 1_555 1_555
O1 H59 1_555 1_555
H60 O1 1_555 1_555
C5 C6 1_555 1_555
C9 C10 1_555 1_555
C12 N1 1_555 1_555
C17 C18 1_555 1_555
C23 C24 1_555 1_555
C29 C30 1_555 1_555
C35 C36 1_555 1_555
C38 N3 1_555 1_555
C40 N2 1_555 1_555
C45 C46 1_555 1_555
C49 C50 1_555 1_555
C52 N4 1_555 1_555
C57 C58 1_555 1_555
C63 C64 1_555 1_555
C69 C70 1_555 1_555
C75 C76 1_555 1_555
C78 N5 1_555 1_555
C80 N6 1_555 1_555

#END
