
#######################################################################
#
#                 Cambridge Crystallographic Data Centre
#                                CCDC 
#
#######################################################################
#
# If this CIF has been generated from an entry in the Cambridge 
# Structural Database, then it will include bibliographic, chemical, 
# crystal, experimental, refinement or atomic coordinate data resulting 
# from the CCDC's data processing and validation procedures.
#
#######################################################################

data_TIBXUY
_chemical_formula_moiety         'C11 H11 F4 N1 O2'
_chemical_name_systematic        
5,5,5-Trifluoro-N-(4-fluorophenyl)-4-hydroxypentanamide
_symmetry_cell_setting           orthorhombic
_symmetry_space_group_name_H-M   'P c c n'
_symmetry_Int_Tables_number      56
_space_group_name_Hall           '-P 2ab 2ac'
loop_
_symmetry_equiv_pos_site_id
_symmetry_equiv_pos_as_xyz
1 x,y,z
2 1/2-x,1/2-y,z
3 -x,1/2+y,1/2-z
4 1/2+x,-y,1/2-z
5 -x,-y,-z
6 1/2+x,1/2+y,-z
7 x,1/2-y,1/2+z
8 1/2-x,y,1/2+z
_cell_length_a                   12.162(2)
_cell_length_b                   23.153(4)
_cell_length_c                   8.5893(14)
_cell_angle_alpha                90
_cell_angle_beta                 90
_cell_angle_gamma                90
_cell_volume                     2418.63
_exptl_crystal_colour            colorless
_exptl_crystal_description       plate
_chemical_melting_point          '386.4-386.8 K'
_cell_formula_units_Z            8
loop_
_atom_site_label
_atom_site_type_symbol
_atom_site_fract_x
_atom_site_fract_y
_atom_site_fract_z
F1 F 0.63780(17) 0.70671(9) 0.1727(3)
F2 F 0.61515(15) 0.30221(6) 1.15861(19)
F3 F 0.75984(14) 0.33225(6) 1.0436(2)
F4 F 0.63064(16) 0.29254(6) 0.9123(2)
C1 C 0.6219(2) 0.66753(12) 0.2882(4)
C2 C 0.6686(2) 0.61488(13) 0.2745(3)
H1 H 0.7123 0.6061 0.1889
C3 C 0.6503(2) 0.57403(11) 0.3904(3)
H2 H 0.6815 0.5375 0.3823
C4 C 0.58628(16) 0.58767(9) 0.5167(2)
C5 C 0.5374(3) 0.64079(11) 0.5245(3)
H3 H 0.4915 0.6496 0.6077
C6 C 0.5557(3) 0.68140(13) 0.4096(4)
H4 H 0.5231 0.7177 0.4153
C7 C 0.62436(16) 0.50256(9) 0.6833(2)
C8 C 0.58733(17) 0.47352(10) 0.8314(2)
H5 H 0.5081 0.4689 0.8282
H6 H 0.6046 0.4985 0.9188
C9 C 0.63946(18) 0.41523(9) 0.8586(2)
H7 H 0.7185 0.4199 0.8661
H8 H 0.6243 0.3905 0.7701
C10 C 0.59759(16) 0.38628(9) 1.0057(2)
H9 H 0.5185 0.3798 0.9929
C11 C 0.6512(2) 0.32834(10) 1.0299(3)
N1 N 0.56458(14) 0.54842(7) 0.64051(19)
H10 H 0.5062 0.5550 0.6941
O1 O 0.70526(13) 0.48602(7) 0.61034(18)
O2 O 0.61248(11) 0.42015(6) 1.14061(15)
H11 H 0.6726 0.4361 1.1369
loop_
_geom_bond_atom_site_label_1
_geom_bond_atom_site_label_2
_geom_bond_site_symmetry_1
_geom_bond_site_symmetry_2
F1 C1 1_555 1_555
F2 C11 1_555 1_555
F3 C11 1_555 1_555
F4 C11 1_555 1_555
C1 C2 1_555 1_555
C2 H1 1_555 1_555
C3 C2 1_555 1_555
H2 C3 1_555 1_555
C4 C3 1_555 1_555
C5 C4 1_555 1_555
H3 C5 1_555 1_555
C6 C1 1_555 1_555
H4 C6 1_555 1_555
C7 C8 1_555 1_555
C8 H5 1_555 1_555
H6 C8 1_555 1_555
C9 C8 1_555 1_555
H7 C9 1_555 1_555
H8 C9 1_555 1_555
C10 C9 1_555 1_555
H9 C10 1_555 1_555
C11 C10 1_555 1_555
N1 C4 1_555 1_555
H10 N1 1_555 1_555
O1 C7 1_555 1_555
O2 C10 1_555 1_555
H11 O2 1_555 1_555
C5 C6 1_555 1_555
C7 N1 1_555 1_555

#END
