
#######################################################################
#
#                 Cambridge Crystallographic Data Centre
#                                CCDC 
#
#######################################################################
#
# If this CIF has been generated from an entry in the Cambridge 
# Structural Database, then it will include bibliographic, chemical, 
# crystal, experimental, refinement or atomic coordinate data resulting 
# from the CCDC's data processing and validation procedures.
#
#######################################################################

data_TIBYAH
_chemical_formula_moiety         'C30 H25 N3'
_chemical_name_systematic        
6,9-dimethyl-7,8-diphenyl-1-(pyrimidin-2-yl)-2,3-dihydro-1H-benzo[g]indole
_symmetry_cell_setting           monoclinic
_symmetry_space_group_name_H-M   'P 21/c'
_symmetry_Int_Tables_number      14
_space_group_name_Hall           '-P 2ybc'
loop_
_symmetry_equiv_pos_site_id
_symmetry_equiv_pos_as_xyz
1 x,y,z
2 -x,1/2+y,1/2-z
3 -x,-y,-z
4 x,1/2-y,1/2+z
_cell_length_a                   8.93622(19)
_cell_length_b                   21.6637(5)
_cell_length_c                   12.2109(3)
_cell_angle_alpha                90
_cell_angle_beta                 103.531(2)
_cell_angle_gamma                90
_cell_volume                     2298.31
_exptl_crystal_colour            colorless
_exptl_crystal_description       prism
_cell_formula_units_Z            4
loop_
_atom_site_label
_atom_site_type_symbol
_atom_site_fract_x
_atom_site_fract_y
_atom_site_fract_z
C1 C 1.07188(16) 0.40442(7) 0.36146(12)
C2 C 0.94321(17) 0.44021(7) 0.32105(12)
C3 C 0.79933(17) 0.42350(7) 0.34447(12)
C4 C 0.78504(16) 0.37295(7) 0.40973(12)
C5 C 0.91460(16) 0.33297(7) 0.44779(11)
C6 C 1.05990(16) 0.35027(7) 0.42572(12)
C7 C 1.19318(17) 0.31439(8) 0.47115(14)
H1 H 1.2860 0.3251 0.4543
C8 C 1.18846(19) 0.26464(9) 0.53892(14)
H2 H 1.2779 0.2430 0.5707
C9 C 1.04850(19) 0.24675(7) 0.55988(12)
C10 C 0.91482(17) 0.27730(7) 0.51046(11)
C11 C 1.0170(2) 0.19512(9) 0.63345(15)
H3 H 1.0871 0.1964 0.7072
H4 H 1.0250 0.1552 0.5993
C12 C 0.8520(2) 0.20855(10) 0.64063(15)
H5 H 0.7940 0.1706 0.6391
H6 H 0.8502 0.2310 0.7091
C13 C 0.66690(18) 0.22384(7) 0.45754(14)
C14 C 0.5409(2) 0.21812(11) 0.27492(18)
H7 H 0.5341 0.2270 0.1994
C15 C 0.4211(2) 0.18775(11) 0.3031(2)
H8 H 0.3334 0.1764 0.2494
C16 C 0.4381(2) 0.17500(10) 0.4152(2)
H9 H 0.3610 0.1526 0.4368
C17 C 1.22459(19) 0.42147(9) 0.33635(16)
H10 H 1.2965 0.4323 0.4052
H11 H 1.2106 0.4560 0.2856
H12 H 1.2636 0.3869 0.3024
C18 C 0.95474(17) 0.49925(7) 0.25976(13)
C19 C 1.0108(3) 0.55153(9) 0.31956(16)
H13 H 1.0392 0.5498 0.3978
C20 C 1.0258(3) 0.60645(9) 0.26564(19)
H14 H 1.0645 0.6411 0.3077
C21 C 0.9838(2) 0.61005(9) 0.15032(17)
H15 H 0.9934 0.6470 0.1139
C22 C 0.9274(2) 0.55849(10) 0.08952(15)
H16 H 0.8990 0.5605 0.0113
C23 C 0.9125(2) 0.50341(9) 0.14378(14)
H17 H 0.8736 0.4688 0.1015
C24 C 0.66169(18) 0.46254(8) 0.29446(14)
C25 C 0.6260(3) 0.51485(10) 0.34735(18)
H18 H 0.6877 0.5266 0.4166
C26 C 0.4984(3) 0.55018(11) 0.2978(3)
H19 H 0.4734 0.5845 0.3356
C27 C 0.4095(3) 0.53519(13) 0.1949(3)
H20 H 0.3255 0.5596 0.1615
C28 C 0.4448(2) 0.48429(13) 0.1414(2)
H21 H 0.3854 0.4741 0.0706
C29 C 0.5687(2) 0.44730(10) 0.19124(17)
H22 H 0.5892 0.4118 0.1545
C30 C 0.63620(19) 0.36528(8) 0.44762(16)
H23 H 0.5632 0.3431 0.3912
H24 H 0.5953 0.4052 0.4585
H25 H 0.6559 0.3427 0.5172
N1 N 0.78778(16) 0.24674(7) 0.53956(11)
N2 N 0.66692(17) 0.23566(8) 0.35034(12)
N3 N 0.55857(19) 0.19278(8) 0.49466(14)
loop_
_geom_bond_atom_site_label_1
_geom_bond_atom_site_label_2
_geom_bond_site_symmetry_1
_geom_bond_site_symmetry_2
C1 C2 1_555 1_555
C2 C3 1_555 1_555
C3 C4 1_555 1_555
C4 C5 1_555 1_555
C5 C6 1_555 1_555
C6 C1 1_555 1_555
C7 C6 1_555 1_555
H1 C7 1_555 1_555
C8 C7 1_555 1_555
H2 C8 1_555 1_555
C9 C8 1_555 1_555
C10 C5 1_555 1_555
C11 C9 1_555 1_555
H3 C11 1_555 1_555
H4 C11 1_555 1_555
C12 C11 1_555 1_555
H5 C12 1_555 1_555
H6 C12 1_555 1_555
C13 N1 1_555 1_555
C14 H7 1_555 1_555
C15 C14 1_555 1_555
H8 C15 1_555 1_555
C16 C15 1_555 1_555
H9 C16 1_555 1_555
C17 C1 1_555 1_555
H10 C17 1_555 1_555
H11 C17 1_555 1_555
H12 C17 1_555 1_555
C18 C2 1_555 1_555
C19 C18 1_555 1_555
H13 C19 1_555 1_555
C20 C19 1_555 1_555
H14 C20 1_555 1_555
C21 C20 1_555 1_555
H15 C21 1_555 1_555
C22 C21 1_555 1_555
H16 C22 1_555 1_555
C23 C18 1_555 1_555
H17 C23 1_555 1_555
C24 C3 1_555 1_555
C25 C24 1_555 1_555
H18 C25 1_555 1_555
C26 C25 1_555 1_555
H19 C26 1_555 1_555
C27 C26 1_555 1_555
H20 C27 1_555 1_555
C28 C27 1_555 1_555
H21 C28 1_555 1_555
C29 C24 1_555 1_555
H22 C29 1_555 1_555
C30 C4 1_555 1_555
H23 C30 1_555 1_555
H24 C30 1_555 1_555
H25 C30 1_555 1_555
N1 C10 1_555 1_555
N2 C13 1_555 1_555
N3 C13 1_555 1_555
C9 C10 1_555 1_555
C12 N1 1_555 1_555
C14 N2 1_555 1_555
C16 N3 1_555 1_555
C22 C23 1_555 1_555
C28 C29 1_555 1_555

#END
