
#######################################################################
#
#                 Cambridge Crystallographic Data Centre
#                                CCDC 
#
#######################################################################
#
# If this CIF has been generated from an entry in the Cambridge 
# Structural Database, then it will include bibliographic, chemical, 
# crystal, experimental, refinement or atomic coordinate data resulting 
# from the CCDC's data processing and validation procedures.
#
#######################################################################

data_TIBZUC
_chemical_formula_moiety         'C38 H33 B1 N2 P2'
_chemical_name_systematic        
'1,3-bis[(diphenylphosphino)methyl]-2-phenyl-2,3-dihydro-1H-1,3,2-benzodiazaborole unknown solvate'
_symmetry_cell_setting           monoclinic
_symmetry_space_group_name_H-M   'P 21/n'
_symmetry_Int_Tables_number      14
_space_group_name_Hall           '-P 2yn'
loop_
_symmetry_equiv_pos_site_id
_symmetry_equiv_pos_as_xyz
1 x,y,z
2 1/2-x,1/2+y,1/2-z
3 -x,-y,-z
4 1/2+x,1/2-y,1/2+z
_cell_length_a                   7.4073(6)
_cell_length_b                   19.1167(12)
_cell_length_c                   24.749(3)
_cell_angle_alpha                90
_cell_angle_beta                 94.253(10)
_cell_angle_gamma                90
_cell_volume                     3494.89
_exptl_crystal_colour            colorless
_exptl_crystal_description       prism
_cell_formula_units_Z            4
loop_
_atom_site_label
_atom_site_type_symbol
_atom_site_fract_x
_atom_site_fract_y
_atom_site_fract_z
B1 B 0.2989(8) 0.1079(3) 0.5653(3)
N1 N 0.2291(5) 0.1089(2) 0.5098(2)
N2 N 0.3333(6) 0.0351(2) 0.57753(19)
P1 P 0.33093(19) 0.19531(7) 0.42587(7)
P2 P 0.23622(19) -0.04689(7) 0.66446(7)
C1 C 0.1671(7) 0.1672(3) 0.4751(3)
C2 C 0.4060(7) 0.0043(3) 0.6285(2)
C3 C 0.2232(6) 0.0398(2) 0.4894(2)
C4 C 0.2877(6) -0.0045(3) 0.5318(2)
C5 C 0.2951(7) -0.0758(3) 0.5230(2)
C6 C 0.2378(7) -0.1022(3) 0.4723(2)
C7 C 0.1736(7) -0.0580(3) 0.4308(2)
C8 C 0.1639(6) 0.0146(3) 0.4397(2)
C9 C 0.3296(8) 0.1720(3) 0.6031(3)
C10 C 0.1907(8) 0.2194(3) 0.6114(3)
C11 C 0.2200(11) 0.2764(3) 0.6461(4)
C12 C 0.3849(14) 0.2861(4) 0.6738(4)
C13 C 0.5216(10) 0.2396(4) 0.6665(3)
C14 C 0.4968(8) 0.1835(3) 0.6319(3)
C15 C 0.4897(7) 0.2524(3) 0.4652(3)
C16 C 0.6650(8) 0.2583(3) 0.4465(3)
C17 C 0.7940(9) 0.2995(3) 0.4727(4)
C18 C 0.7596(10) 0.3355(4) 0.5192(4)
C19 C 0.5893(11) 0.3302(4) 0.5396(3)
C20 C 0.4551(9) 0.2893(3) 0.5098(3)
C21 C 0.1845(8) 0.2585(3) 0.3881(3)
C22 C 0.0433(9) 0.2314(3) 0.3539(3)
C23 C -0.0758(10) 0.2755(4) 0.3234(3)
C24 C -0.0511(10) 0.3462(4) 0.3264(4)
C25 C 0.0935(10) 0.3737(3) 0.3586(4)
C26 C 0.2076(9) 0.3295(3) 0.3893(3)
C27 C 0.3909(7) -0.0730(3) 0.7224(3)
C28 C 0.5242(9) -0.1228(3) 0.7123(3)
C29 C 0.6484(9) -0.1433(3) 0.7530(3)
C30 C 0.6492(8) -0.1165(3) 0.8042(3)
C31 C 0.5160(9) -0.0680(3) 0.8151(3)
C32 C 0.3882(8) -0.0473(3) 0.7745(3)
C33 C 0.0983(7) 0.0197(3) 0.6945(3)
C34 C -0.0733(8) -0.0016(3) 0.7075(3)
C35 C -0.1866(8) 0.0444(4) 0.7313(3)
C36 C -0.1347(8) 0.1134(4) 0.7414(3)
C37 C 0.0341(9) 0.1352(3) 0.7288(3)
C38 C 0.1513(8) 0.0884(3) 0.7065(3)
H1 H 0.1441 0.2060 0.4976
H2 H 0.0579 0.1537 0.4553
H3 H 0.4507 0.0409 0.6517
H4 H 0.5026 -0.0261 0.6211
H5 H 0.3386 -0.1063 0.5512
H6 H 0.2430 -0.1511 0.4660
H7 H 0.1358 -0.0768 0.3963
H8 H 0.1173 0.0452 0.4119
H9 H 0.0747 0.2126 0.5932
H10 H 0.1248 0.3087 0.6503
H11 H 0.4038 0.3245 0.6979
H12 H 0.6362 0.2464 0.6856
H13 H 0.5942 0.1522 0.6277
H14 H 0.6935 0.2331 0.4152
H15 H 0.9092 0.3037 0.4587
H16 H 0.8511 0.3636 0.5373
H17 H 0.5638 0.3529 0.5722
H18 H 0.3362 0.2881 0.5217
H19 H 0.0271 0.1823 0.3516
H20 H -0.1721 0.2564 0.3006
H21 H -0.1325 0.3766 0.3064
H22 H 0.1136 0.4227 0.3597
H23 H 0.3047 0.3488 0.4116
H24 H 0.5280 -0.1422 0.6772
H25 H 0.7366 -0.1773 0.7454
H26 H 0.7382 -0.1305 0.8316
H27 H 0.5126 -0.0492 0.8505
H28 H 0.2974 -0.0146 0.7826
H29 H -0.1121 -0.0482 0.7001
H30 H -0.3017 0.0288 0.7407
H31 H -0.2149 0.1451 0.7570
H32 H 0.0705 0.1822 0.7354
H33 H 0.2692 0.1034 0.6992
loop_
_geom_bond_atom_site_label_1
_geom_bond_atom_site_label_2
_geom_bond_site_symmetry_1
_geom_bond_site_symmetry_2
B1 N1 1_555 1_555
N1 C1 1_555 1_555
N2 B1 1_555 1_555
P1 C1 1_555 1_555
P2 C2 1_555 1_555
C1 H1 1_555 1_555
C2 N2 1_555 1_555
C3 N1 1_555 1_555
C4 N2 1_555 1_555
C5 C4 1_555 1_555
C6 C5 1_555 1_555
C7 C6 1_555 1_555
C8 C3 1_555 1_555
C9 B1 1_555 1_555
C10 C9 1_555 1_555
C11 C10 1_555 1_555
C12 C11 1_555 1_555
C13 C12 1_555 1_555
C14 C9 1_555 1_555
C15 P1 1_555 1_555
C16 C15 1_555 1_555
C17 C16 1_555 1_555
C18 C17 1_555 1_555
C19 C18 1_555 1_555
C20 C15 1_555 1_555
C21 P1 1_555 1_555
C22 C21 1_555 1_555
C23 C22 1_555 1_555
C24 C23 1_555 1_555
C25 C24 1_555 1_555
C26 C21 1_555 1_555
C27 P2 1_555 1_555
C28 C27 1_555 1_555
C29 C28 1_555 1_555
C30 C29 1_555 1_555
C31 C30 1_555 1_555
C32 C27 1_555 1_555
C33 P2 1_555 1_555
C34 C33 1_555 1_555
C35 C34 1_555 1_555
C36 C35 1_555 1_555
C37 C36 1_555 1_555
C38 C33 1_555 1_555
H2 C1 1_555 1_555
H3 C2 1_555 1_555
H4 C2 1_555 1_555
H5 C5 1_555 1_555
H6 C6 1_555 1_555
H7 C7 1_555 1_555
H8 C8 1_555 1_555
H9 C10 1_555 1_555
H10 C11 1_555 1_555
H11 C12 1_555 1_555
H12 C13 1_555 1_555
H13 C14 1_555 1_555
H14 C16 1_555 1_555
H15 C17 1_555 1_555
H16 C18 1_555 1_555
H17 C19 1_555 1_555
H18 C20 1_555 1_555
H19 C22 1_555 1_555
H20 C23 1_555 1_555
H21 C24 1_555 1_555
H22 C25 1_555 1_555
H23 C26 1_555 1_555
H24 C28 1_555 1_555
H25 C29 1_555 1_555
H26 C30 1_555 1_555
H27 C31 1_555 1_555
H28 C32 1_555 1_555
H29 C34 1_555 1_555
H30 C35 1_555 1_555
H31 C36 1_555 1_555
H32 C37 1_555 1_555
H33 C38 1_555 1_555
C3 C4 1_555 1_555
C7 C8 1_555 1_555
C13 C14 1_555 1_555
C19 C20 1_555 1_555
C25 C26 1_555 1_555
C31 C32 1_555 1_555
C37 C38 1_555 1_555

#END
