
#######################################################################
#
#                 Cambridge Crystallographic Data Centre
#                                CCDC 
#
#######################################################################
#
# If this CIF has been generated from an entry in the Cambridge 
# Structural Database, then it will include bibliographic, chemical, 
# crystal, experimental, refinement or atomic coordinate data resulting 
# from the CCDC's data processing and validation procedures.
#
#######################################################################

data_TIBZOU
_chemical_formula_moiety         'C16 H20 N2 O5 S1'
_chemical_name_systematic        
'Methyl 6-methyl-2-thioxo-4-(3,4,5-trimethoxyphenyl)-1,2,3,4-tetrahydropyrimidine-5-carboxylate'
_symmetry_cell_setting           monoclinic
_symmetry_space_group_name_H-M   'C 2/c'
_symmetry_Int_Tables_number      15
_space_group_name_Hall           '-C 2yn'
loop_
_symmetry_equiv_pos_site_id
_symmetry_equiv_pos_as_xyz
1 x,y,z
2 1/2+x,1/2+y,z
3 -x,y,1/2-z
4 1/2-x,1/2+y,1/2-z
5 -x,-y,-z
6 1/2-x,1/2-y,-z
7 x,-y,1/2+z
8 1/2+x,1/2-y,1/2+z
_cell_length_a                   23.589(4)
_cell_length_b                   7.2610(8)
_cell_length_c                   20.233(3)
_cell_angle_alpha                90
_cell_angle_beta                 98.522(5)
_cell_angle_gamma                90
_cell_volume                     3427.24
_exptl_crystal_colour            colorless
_exptl_crystal_description       prism
_cell_formula_units_Z            8
_exptl_crystal_recrystallization_method 'absolute methanol'
loop_
_atom_site_label
_atom_site_type_symbol
_atom_site_fract_x
_atom_site_fract_y
_atom_site_fract_z
S1 S 0.018018(18) 0.77840(6) 0.04831(2)
N1 N 0.04880(6) 0.43844(19) 0.08742(7)
H1 H 0.0344(10) 0.403(3) 0.0470(12)
N2 N 0.06573(6) 0.6596(2) 0.16812(7)
H2 H 0.0653(9) 0.776(3) 0.1800(11)
O1 O 0.06965(5) 0.03465(17) 0.23060(6)
O2 O 0.07082(5) 0.23791(17) 0.31383(6)
O3 O 0.22138(5) -0.10817(19) 0.05461(8)
O4 O 0.30579(5) 0.1124(2) 0.10834(6)
O5 O 0.28435(5) 0.4323(2) 0.16595(7)
C1 C 0.04599(6) 0.6149(2) 0.10319(8)
C2 C 0.07538(6) 0.2938(2) 0.13295(8)
H3 H 0.0526 0.1783 0.1232
C3 C 0.07139(6) 0.3500(2) 0.20406(8)
C4 C 0.07076(6) 0.5312(2) 0.22011(8)
C5 C 0.07573(8) 0.6174(3) 0.28783(9)
H4 H 0.0608 0.5323 0.3187
H5 H 0.0535 0.7320 0.2850
H6 H 0.1161 0.6444 0.3042
C6 C 0.13736(7) 0.2526(2) 0.12379(8)
C7 C 0.14895(7) 0.0902(2) 0.09250(9)
H7 H 0.1186 0.0093 0.0756
C8 C 0.20534(7) 0.0459(2) 0.08589(9)
C9 C 0.24992(7) 0.1631(3) 0.11142(9)
C10 C 0.23783(7) 0.3268(3) 0.14253(9)
C11 C 0.18125(7) 0.3721(3) 0.14894(9)
H8 H 0.1730 0.4834 0.1703
C12 C 0.07061(6) 0.1936(2) 0.24973(8)
C13 C 0.06966(8) 0.0852(3) 0.35944(9)
H9 H 0.0366 0.0066 0.3440
H10 H 0.0666 0.1323 0.4042
H11 H 0.1050 0.0133 0.3610
C14 C 0.17676(9) -0.2270(3) 0.02457(13)
H12 H 0.1571 -0.2810 0.0594
H13 H 0.1932 -0.3254 0.0002
H14 H 0.1493 -0.1562 -0.0065
C15 C 0.32909(7) 0.1964(3) 0.05405(10)
H15 H 0.3086 0.1507 0.0115
H16 H 0.3699 0.1655 0.0574
H17 H 0.3247 0.3304 0.0562
C17 C 0.2737(3) 0.6129(13) 0.1934(7)
H21 H 0.2480 0.6836 0.1601
H22 H 0.3101 0.6790 0.2046
H23 H 0.2558 0.5975 0.2337
C16? C 0.2746(5) 0.573(2) 0.2122(9)
H18? H 0.2497 0.6681 0.1890
H19? H 0.3114 0.6282 0.2313
H20? H 0.2562 0.5196 0.2480
loop_
_geom_bond_atom_site_label_1
_geom_bond_atom_site_label_2
_geom_bond_site_symmetry_1
_geom_bond_site_symmetry_2
S1 C1 1_555 1_555
N1 H1 1_555 1_555
N2 H2 1_555 1_555
O1 C12 1_555 1_555
O2 C12 1_555 1_555
O3 C8 1_555 1_555
O4 C9 1_555 1_555
O5 C10 1_555 1_555
C1 N1 1_555 1_555
C2 N1 1_555 1_555
H3 C2 1_555 1_555
C3 C2 1_555 1_555
C4 N2 1_555 1_555
C5 C4 1_555 1_555
H4 C5 1_555 1_555
H5 C5 1_555 1_555
H6 C5 1_555 1_555
C6 C2 1_555 1_555
C7 C6 1_555 1_555
H7 C7 1_555 1_555
C8 C7 1_555 1_555
C9 C8 1_555 1_555
C10 C9 1_555 1_555
C11 C6 1_555 1_555
H8 C11 1_555 1_555
C12 C3 1_555 1_555
C13 O2 1_555 1_555
H9 C13 1_555 1_555
H10 C13 1_555 1_555
H11 C13 1_555 1_555
C14 O3 1_555 1_555
H12 C14 1_555 1_555
H13 C14 1_555 1_555
H14 C14 1_555 1_555
C15 O4 1_555 1_555
H15 C15 1_555 1_555
H16 C15 1_555 1_555
H17 C15 1_555 1_555
C17 O5 1_555 1_555
H21 C17 1_555 1_555
H22 C17 1_555 1_555
H23 C17 1_555 1_555
N2 C1 1_555 1_555
C3 C4 1_555 1_555
C10 C11 1_555 1_555

#END
