
#######################################################################
#
#                 Cambridge Crystallographic Data Centre
#                                CCDC 
#
#######################################################################
#
# If this CIF has been generated from an entry in the Cambridge 
# Structural Database, then it will include bibliographic, chemical, 
# crystal, experimental, refinement or atomic coordinate data resulting 
# from the CCDC's data processing and validation procedures.
#
#######################################################################

data_TIBZUB
_chemical_formula_moiety         'C33 H35 N3 O2 S1'
_chemical_name_systematic        
3',6'-bis(diethylamino)-2-(2-thienylmethyl)spiro[isoindole-1,9'-xanthen]-3(2H)-one
_symmetry_cell_setting           triclinic
_symmetry_space_group_name_H-M   'P -1'
_symmetry_Int_Tables_number      2
_space_group_name_Hall           '-P 1'
loop_
_symmetry_equiv_pos_site_id
_symmetry_equiv_pos_as_xyz
1 x,y,z
2 -x,-y,-z
_cell_length_a                   10.8119(7)
_cell_length_b                   12.1454(8)
_cell_length_c                   12.1718(8)
_cell_angle_alpha                104.339(5)
_cell_angle_beta                 110.802(5)
_cell_angle_gamma                100.215(5)
_cell_volume                     1384.1
_exptl_crystal_colour            violet
_exptl_crystal_description       plate
_cell_formula_units_Z            2
loop_
_atom_site_label
_atom_site_type_symbol
_atom_site_fract_x
_atom_site_fract_y
_atom_site_fract_z
S1 S 0.42229(6) 0.68327(6) 0.81491(7)
O1 O 0.83223(15) 0.97143(12) 1.01740(14)
O2 O 0.66832(16) 0.50163(14) 0.58007(13)
N1 N 0.75831(16) 0.78898(14) 0.86447(15)
N2 N 0.9808(2) 0.67435(19) 0.43394(18)
N3 N 0.4012(3) 0.2432(2) 0.7018(2)
C1 C 0.84598(19) 0.87396(17) 0.97585(18)
C2 C 0.6402(2) 0.80917(19) 0.7757(2)
H1 H 0.6068 0.7465 0.6935
H2 H 0.6711 0.8865 0.7659
C3 C 0.5219(2) 0.80953(19) 0.8128(2)
C4 C 0.4769(2) 0.9054(2) 0.8481(2)
H3 H 0.5187 0.9834 0.8537
C5 C 0.3608(3) 0.8748(3) 0.8754(2)
H4 H 0.3162 0.9304 0.9009
C6 C 0.3207(3) 0.7595(3) 0.8615(3)
H5 H 0.2448 0.7242 0.8759
C7 C 0.80831(19) 0.68454(17) 0.83046(18)
C8 C 0.93541(19) 0.71289(17) 0.95207(18)
C9 C 0.95742(19) 0.82337(18) 1.03400(18)
C10 C 1.0712(2) 0.8728(2) 1.14910(19)
H6 H 1.0860 0.9492 1.2047
C11 C 1.1621(2) 0.8068(2) 1.1797(2)
H7 H 1.2414 0.8385 1.2572
C12 C 1.1385(2) 0.6942(2) 1.0979(2)
H8 H 1.2012 0.6497 1.1214
C13 C 1.0255(2) 0.64617(19) 0.9834(2)
H9 H 1.0100 0.5697 0.9278
C14 C 0.84873(19) 0.68390(17) 0.72329(18)
C15 C 0.7811(2) 0.59464(17) 0.60772(19)
C16 C 0.8206(2) 0.59049(19) 0.51059(19)
H10 H 0.7704 0.5276 0.4330
C17 C 0.9347(2) 0.67918(19) 0.52670(19)
C18 C 1.0010(2) 0.77291(19) 0.6422(2)
H11 H 1.0758 0.8363 0.6549
C19 C 0.9594(2) 0.77420(18) 0.73674(19)
H12 H 1.0071 0.8383 0.8137
C20 C 1.0893(2) 0.7728(2) 0.4454(2)
H13 H 1.0804 0.8485 0.4910
H14 H 1.0761 0.7736 0.3609
C21 C 1.2332(3) 0.7651(3) 0.5128(3)
H15 H 1.3017 0.8331 0.5176
H16 H 1.2434 0.6911 0.4671
H17 H 1.2479 0.7662 0.5973
C22 C 0.9377(2) 0.5665(2) 0.3271(2)
H18 H 0.9024 0.4969 0.3476
H19 H 1.0189 0.5565 0.3102
C23 C 0.8265(3) 0.5702(3) 0.2112(2)
H20 H 0.8014 0.4968 0.1416
H21 H 0.8613 0.6386 0.1901
H22 H 0.7448 0.5775 0.2265
C24 C 0.70145(19) 0.56857(17) 0.79714(19)
C25 C 0.6374(2) 0.48648(19) 0.6768(2)
C26 C 0.5382(2) 0.3805(2) 0.6449(2)
H23 H 0.4957 0.3280 0.5609
C27 C 0.4995(2) 0.3494(2) 0.7336(2)
C28 C 0.5644(2) 0.43180(19) 0.8567(2)
H24 H 0.5415 0.4144 0.9203
C29 C 0.6608(2) 0.53739(18) 0.88479(19)
H25 H 0.7016 0.5916 0.9680
C30 C 0.3766(3) 0.2032(3) 0.7979(3)
H26 H 0.3817 0.2727 0.8641
H27 H 0.4509 0.1692 0.8362
C31 C 0.2392(4) 0.1120(3) 0.7491(4)
H28 H 0.2284 0.0895 0.8179
H29 H 0.2345 0.0416 0.6856
H30 H 0.1649 0.1452 0.7119
C32 C 0.3221(4) 0.1695(4) 0.5653(4)
H31 H 0.3087 0.2215 0.5136
H32 H 0.2301 0.1203 0.5497
C33 C 0.4084(6) 0.0905(6) 0.5336(6)
H33 H 0.3608 0.0408 0.4453
H34 H 0.4208 0.0397 0.5855
H35 H 0.4991 0.1404 0.5497
C34? C 0.4146(6) 0.1343(5) 0.6128(6)
H36? H 0.5036 0.1541 0.6055
H37? H 0.4088 0.0661 0.6433
C35? C 0.2945(6) 0.1063(6) 0.4892(6)
H38? H 0.2958 0.0377 0.4275
H39? H 0.3019 0.1751 0.4611
H40? H 0.2077 0.0878 0.4987
loop_
_geom_bond_atom_site_label_1
_geom_bond_atom_site_label_2
_geom_bond_site_symmetry_1
_geom_bond_site_symmetry_2
S1 C3 1_555 1_555
O1 C1 1_555 1_555
O2 C15 1_555 1_555
N1 C1 1_555 1_555
N2 C17 1_555 1_555
N3 C27 1_555 1_555
C1 C9 1_555 1_555
C2 N1 1_555 1_555
H1 C2 1_555 1_555
H2 C2 1_555 1_555
C3 C2 1_555 1_555
C4 C3 1_555 1_555
H3 C4 1_555 1_555
C5 C4 1_555 1_555
H4 C5 1_555 1_555
C6 S1 1_555 1_555
H5 C6 1_555 1_555
C7 N1 1_555 1_555
C8 C7 1_555 1_555
C9 C8 1_555 1_555
C10 C9 1_555 1_555
H6 C10 1_555 1_555
C11 C10 1_555 1_555
H7 C11 1_555 1_555
C12 C11 1_555 1_555
H8 C12 1_555 1_555
C13 C8 1_555 1_555
H9 C13 1_555 1_555
C14 C7 1_555 1_555
C15 C14 1_555 1_555
C16 C15 1_555 1_555
H10 C16 1_555 1_555
C17 C16 1_555 1_555
C18 C17 1_555 1_555
H11 C18 1_555 1_555
C19 C14 1_555 1_555
H12 C19 1_555 1_555
C20 N2 1_555 1_555
H13 C20 1_555 1_555
H14 C20 1_555 1_555
C21 C20 1_555 1_555
H15 C21 1_555 1_555
H16 C21 1_555 1_555
H17 C21 1_555 1_555
C22 N2 1_555 1_555
H18 C22 1_555 1_555
H19 C22 1_555 1_555
C23 C22 1_555 1_555
H20 C23 1_555 1_555
H21 C23 1_555 1_555
H22 C23 1_555 1_555
C24 C7 1_555 1_555
C25 O2 1_555 1_555
C26 C25 1_555 1_555
H23 C26 1_555 1_555
C27 C26 1_555 1_555
C28 C27 1_555 1_555
H24 C28 1_555 1_555
C29 C24 1_555 1_555
H25 C29 1_555 1_555
C30 N3 1_555 1_555
H26 C30 1_555 1_555
H27 C30 1_555 1_555
C31 C30 1_555 1_555
H28 C31 1_555 1_555
H29 C31 1_555 1_555
H30 C31 1_555 1_555
C32 N3 1_555 1_555
H31 C32 1_555 1_555
H32 C32 1_555 1_555
C33 C32 1_555 1_555
H33 C33 1_555 1_555
H34 C33 1_555 1_555
H35 C33 1_555 1_555
C5 C6 1_555 1_555
C12 C13 1_555 1_555
C18 C19 1_555 1_555
C24 C25 1_555 1_555
C28 C29 1_555 1_555

#END
