
#######################################################################
#
#                 Cambridge Crystallographic Data Centre
#                                CCDC 
#
#######################################################################
#
# If this CIF has been generated from an entry in the Cambridge 
# Structural Database, then it will include bibliographic, chemical, 
# crystal, experimental, refinement or atomic coordinate data resulting 
# from the CCDC's data processing and validation procedures.
#
#######################################################################

data_TICBAJ
_chemical_formula_moiety         'C13 H14 O3'
_chemical_name_systematic        
'Ethyl (E)-3-(2,3-Dihydro-1-benzofuran-5-yl)-2-propenoate'
_symmetry_cell_setting           monoclinic
_symmetry_space_group_name_H-M   'P 21/c'
_symmetry_Int_Tables_number      14
_space_group_name_Hall           '-P 2ybc'
loop_
_symmetry_equiv_pos_site_id
_symmetry_equiv_pos_as_xyz
1 x,y,z
2 -x,1/2+y,1/2-z
3 -x,-y,-z
4 x,1/2-y,1/2+z
_cell_length_a                   7.7498(12)
_cell_length_b                   20.334(4)
_cell_length_c                   7.7582(13)
_cell_angle_alpha                90
_cell_angle_beta                 109.544(10)
_cell_angle_gamma                90
_cell_volume                     1152.13
_exptl_crystal_colour            colorless
_exptl_crystal_description       block
_chemical_melting_point          '329 K'
_cell_formula_units_Z            4
_exptl_crystal_recrystallization_method ethanol
loop_
_atom_site_label
_atom_site_type_symbol
_atom_site_fract_x
_atom_site_fract_y
_atom_site_fract_z
O1 O 0.58324(18) 0.65676(6) 1.34747(15)
O2 O -0.01394(16) 0.65596(5) 0.16230(15)
O3 O -0.0525(2) 0.55682(6) 0.26556(17)
C1 C 0.5861(3) 0.59447(9) 1.4398(2)
H1 H 0.5403 0.6002 1.5409
H2 H 0.7103 0.5777 1.4878
C2 C 0.4644(2) 0.54643(8) 1.2997(2)
H3 H 0.5312 0.5070 1.2903
H4 H 0.3573 0.5342 1.3306
C3 C 0.4124(2) 0.58581(7) 1.1260(2)
C4 C 0.3101(2) 0.57040(7) 0.9487(2)
H5 H 0.2613 0.5284 0.9208
C5 C 0.2786(2) 0.61746(7) 0.8097(2)
C6 C 0.3555(2) 0.68010(7) 0.8572(2)
H6 H 0.3361 0.7119 0.7664
C7 C 0.4588(2) 0.69599(8) 1.0342(2)
H7 H 0.5093 0.7377 1.0637
C8 C 0.4851(2) 0.64823(8) 1.1662(2)
C9 C 0.1670(2) 0.59998(8) 0.6225(2)
H8 H 0.1201 0.5575 0.6065
C10 C 0.1240(2) 0.63648(8) 0.4734(2)
H9 H 0.1666 0.6795 0.4822
C11 C 0.0107(2) 0.61108(8) 0.2941(2)
C12 C -0.1210(2) 0.63665(8) -0.0220(2)
H10 H -0.2424 0.6227 -0.0271
H11 H -0.0623 0.6004 -0.0620
C13 C -0.1336(3) 0.69518(9) -0.1415(2)
H12 H -0.1946 0.7303 -0.1023
H13 H -0.2016 0.6839 -0.2659
H14 H -0.0126 0.7090 -0.1332
loop_
_geom_bond_atom_site_label_1
_geom_bond_atom_site_label_2
_geom_bond_site_symmetry_1
_geom_bond_site_symmetry_2
O1 C1 1_555 1_555
O2 C11 1_555 1_555
O3 C11 1_555 1_555
C1 H1 1_555 1_555
H2 C1 1_555 1_555
C2 C1 1_555 1_555
H3 C2 1_555 1_555
H4 C2 1_555 1_555
C3 C2 1_555 1_555
C4 C3 1_555 1_555
H5 C4 1_555 1_555
C5 C4 1_555 1_555
C6 C5 1_555 1_555
H6 C6 1_555 1_555
C7 C6 1_555 1_555
H7 C7 1_555 1_555
C8 O1 1_555 1_555
C9 C5 1_555 1_555
H8 C9 1_555 1_555
C10 C9 1_555 1_555
H9 C10 1_555 1_555
C11 C10 1_555 1_555
C12 O2 1_555 1_555
H10 C12 1_555 1_555
H11 C12 1_555 1_555
C13 C12 1_555 1_555
H12 C13 1_555 1_555
H13 C13 1_555 1_555
H14 C13 1_555 1_555
C3 C8 1_555 1_555
C7 C8 1_555 1_555

#END
