
#######################################################################
#
#                 Cambridge Crystallographic Data Centre
#                                CCDC 
#
#######################################################################
#
# If this CIF has been generated from an entry in the Cambridge 
# Structural Database, then it will include bibliographic, chemical, 
# crystal, experimental, refinement or atomic coordinate data resulting 
# from the CCDC's data processing and validation procedures.
#
#######################################################################

data_TICBUD
_chemical_formula_moiety         'C26 H20 N2'
_chemical_name_systematic        2,9-Dimethyl-4,7-diphenyl-1,10-phenanthroline
_symmetry_cell_setting           monoclinic
_symmetry_space_group_name_H-M   'C 2/c'
_symmetry_Int_Tables_number      15
_space_group_name_Hall           '-C 2yn'
loop_
_symmetry_equiv_pos_site_id
_symmetry_equiv_pos_as_xyz
1 x,y,z
2 1/2+x,1/2+y,z
3 -x,y,1/2-z
4 1/2-x,1/2+y,1/2-z
5 -x,-y,-z
6 1/2-x,1/2-y,-z
7 x,-y,1/2+z
8 1/2+x,1/2-y,1/2+z
_cell_length_a                   16.4953(19)
_cell_length_b                   10.6869(10)
_cell_length_c                   11.4661(10)
_cell_angle_alpha                90
_cell_angle_beta                 109.12(3)
_cell_angle_gamma                90
_cell_volume                     1909.78
_exptl_crystal_colour            pink
_exptl_crystal_description       block
_cell_formula_units_Z            4
loop_
_atom_site_label
_atom_site_type_symbol
_atom_site_fract_x
_atom_site_fract_y
_atom_site_fract_z
C1 C 0.39584(10) 0.43765(14) 1.01487(14)
C2 C 0.37423(10) 0.54724(14) 0.94448(13)
H1 H 0.3441 0.5416 0.8605
C3 C 0.39665(9) 0.66245(14) 0.99720(13)
C4 C 0.44689(9) 0.66567(13) 1.12434(12)
C5 C 0.47134(9) 0.55137(13) 1.18605(12)
C6 C 0.47574(10) 0.77956(13) 1.18997(11)
H2 H 0.4607 0.8555 1.1489
C7 C 0.36349(12) 0.31287(15) 0.95793(15)
H3 H 0.4040 0.2489 0.9975
H4 H 0.3566 0.3149 0.8715
H5 H 0.3092 0.2952 0.9684
C8 C 0.37227(10) 0.77897(13) 0.92277(12)
C9 C 0.40088(10) 0.79918(15) 0.82345(13)
H6 H 0.4332 0.7383 0.8009
C10 C 0.38146(12) 0.90951(16) 0.75808(15)
H7 H 0.4015 0.9231 0.6921
C11 C 0.33264(11) 1.00009(17) 0.78940(15)
H8 H 0.3212 1.0753 0.7462
C12 C 0.30098(11) 0.97885(15) 0.88455(15)
H9 H 0.2663 1.0383 0.9039
C13 C 0.32078(10) 0.86947(14) 0.95103(14)
H10 H 0.2995 0.8557 1.0157
N1 N 0.44397(8) 0.43857(10) 1.13279(11)
C1B C 0.60416(10) 0.43765(14) 1.48513(14)
C2B C 0.62577(10) 0.54724(14) 1.55552(13)
H1B H 0.6559 0.5416 1.6395
C3B C 0.60335(9) 0.66245(14) 1.50280(13)
C4B C 0.55311(9) 0.66567(13) 1.37566(12)
C5B C 0.52866(9) 0.55137(13) 1.31395(12)
C6B C 0.52426(10) 0.77956(13) 1.31003(11)
H2B H 0.5393 0.8555 1.3511
C7B C 0.63651(12) 0.31287(15) 1.54207(15)
H3B H 0.5960 0.2489 1.5025
H4B H 0.6434 0.3149 1.6285
H5B H 0.6908 0.2952 1.5316
C8B C 0.62773(10) 0.77897(13) 1.57723(12)
C9B C 0.59912(10) 0.79918(15) 1.67655(13)
H6B H 0.5668 0.7383 1.6991
C10B C 0.61854(12) 0.90951(16) 1.74192(15)
H7B H 0.5985 0.9231 1.8079
C11B C 0.66736(11) 1.00009(17) 1.71060(15)
H8B H 0.6788 1.0753 1.7538
C12B C 0.69902(11) 0.97885(15) 1.61545(15)
H9B H 0.7337 1.0383 1.5961
C13B C 0.67922(10) 0.86947(14) 1.54897(14)
H10B H 0.7005 0.8557 1.4843
N1B N 0.55603(8) 0.43857(10) 1.36721(11)
loop_
_geom_bond_atom_site_label_1
_geom_bond_atom_site_label_2
_geom_bond_site_symmetry_1
_geom_bond_site_symmetry_2
C1 C2 1_555 1_555
C2 H1 1_555 1_555
C3 C2 1_555 1_555
C4 C3 1_555 1_555
C5 C4 1_555 1_555
C6 C4 1_555 1_555
H2 C6 1_555 1_555
C7 C1 1_555 1_555
H3 C7 1_555 1_555
H4 C7 1_555 1_555
H5 C7 1_555 1_555
C8 C3 1_555 1_555
C9 C8 1_555 1_555
H6 C9 1_555 1_555
C10 C9 1_555 1_555
H7 C10 1_555 1_555
C11 C10 1_555 1_555
H8 C11 1_555 1_555
C12 C11 1_555 1_555
H9 C12 1_555 1_555
C13 C8 1_555 1_555
H10 C13 1_555 1_555
N1 C1 1_555 1_555
C1B C2B 1_555 1_555
C2B H1B 1_555 1_555
C3B C2B 1_555 1_555
C4B C3B 1_555 1_555
C5B C5 1_555 1_555
C6B C6 1_555 1_555
H2B C6B 1_555 1_555
C7B C1B 1_555 1_555
H3B C7B 1_555 1_555
H4B C7B 1_555 1_555
H5B C7B 1_555 1_555
C8B C3B 1_555 1_555
C9B C8B 1_555 1_555
H6B C9B 1_555 1_555
C10B C9B 1_555 1_555
H7B C10B 1_555 1_555
C11B C10B 1_555 1_555
H8B C11B 1_555 1_555
C12B C11B 1_555 1_555
H9B C12B 1_555 1_555
C13B C8B 1_555 1_555
H10B C13B 1_555 1_555
N1B C1B 1_555 1_555
C5 N1 1_555 1_555
C12 C13 1_555 1_555
C4B C5B 1_555 1_555
C4B C6B 1_555 1_555
C5B N1B 1_555 1_555
C12B C13B 1_555 1_555

#END
