
#######################################################################
#
#                 Cambridge Crystallographic Data Centre
#                                CCDC 
#
#######################################################################
#
# If this CIF has been generated from an entry in the Cambridge 
# Structural Database, then it will include bibliographic, chemical, 
# crystal, experimental, refinement or atomic coordinate data resulting 
# from the CCDC's data processing and validation procedures.
#
#######################################################################

data_TICFET
_chemical_formula_moiety         'C23 H30 O4'
_chemical_name_systematic        
'methyl 4-{[1-(4-methoxyphenyl)-2-oxocyclopentyl]methyl}bicyclo[2.2.2]octane-1-carboxylate'
_symmetry_cell_setting           monoclinic
_symmetry_space_group_name_H-M   'P 21/n'
_symmetry_Int_Tables_number      14
_space_group_name_Hall           '-P 2yn'
loop_
_symmetry_equiv_pos_site_id
_symmetry_equiv_pos_as_xyz
1 x,y,z
2 1/2-x,1/2+y,1/2-z
3 -x,-y,-z
4 1/2+x,1/2-y,1/2+z
_cell_length_a                   17.18(4)
_cell_length_b                   6.536(15)
_cell_length_c                   17.28(4)
_cell_angle_alpha                90
_cell_angle_beta                 91.34(4)
_cell_angle_gamma                90
_cell_volume                     1939.81
_exptl_crystal_colour            colorless
_exptl_crystal_description       block
_cell_formula_units_Z            4
loop_
_atom_site_label
_atom_site_type_symbol
_atom_site_fract_x
_atom_site_fract_y
_atom_site_fract_z
C1 C -0.26115(15) 0.6208(4) 0.14789(17)
H1 H -0.2413 0.7080 0.1885
H2 H -0.3170 0.6275 0.1461
H3 H -0.2413 0.6653 0.0992
C2 C -0.16011(13) 0.3742(4) 0.16081(14)
C3 C -0.10225(14) 0.5144(4) 0.15202(13)
H4 H -0.1147 0.6520 0.1461
C4 C -0.02538(13) 0.4539(4) 0.15183(13)
H5 H 0.0131 0.5521 0.1453
C5 C -0.00385(12) 0.2513(4) 0.16112(12)
C6 C -0.06384(13) 0.1104(4) 0.16913(14)
H6 H -0.0516 -0.0275 0.1745
C7 C -0.14050(14) 0.1689(4) 0.16932(15)
H7 H -0.1793 0.0713 0.1751
C8 C 0.08032(13) 0.1770(4) 0.16010(13)
C9 C 0.13818(13) 0.3442(4) 0.13756(14)
H8 H 0.1265 0.4716 0.1637
H9 H 0.1910 0.3038 0.1516
C10 C 0.12913(17) 0.3693(4) 0.05032(15)
H10 H 0.0867 0.4620 0.0373
H11 H 0.1767 0.4215 0.0284
C11 C 0.11164(17) 0.1554(4) 0.02105(15)
H12 H 0.0716 0.1592 -0.0195
H13 H 0.1581 0.0935 0.0004
C12 C 0.08421(13) 0.0365(4) 0.08904(14)
C13 C 0.10358(13) 0.0482(4) 0.23107(13)
H14 H 0.0653 -0.0602 0.2348
H15 H 0.1526 -0.0172 0.2195
C14 C 0.11303(13) 0.1412(4) 0.31165(13)
C15 C 0.18442(18) 0.2770(6) 0.31963(17)
H16 H 0.2297 0.2021 0.3029
H17 H 0.1779 0.3955 0.2863
C16 C 0.19781(17) 0.3476(5) 0.40246(16)
H18 H 0.1996 0.4958 0.4041
H19 H 0.2474 0.2958 0.4220
C17 C 0.13238(14) 0.2705(4) 0.45347(14)
C18 C 0.05429(16) 0.3433(5) 0.41877(15)
H20 H 0.0122 0.2960 0.4506
H21 H 0.0530 0.4917 0.4177
C19 C 0.04371(15) 0.2605(5) 0.33748(15)
H22 H -0.0018 0.1728 0.3353
H23 H 0.0345 0.3736 0.3021
C20 C 0.12477(19) -0.0364(5) 0.36794(16)
H24 H 0.0807 -0.1288 0.3634
H25 H 0.1712 -0.1118 0.3545
C21 C 0.13293(17) 0.0383(4) 0.45095(15)
H26 H 0.1813 -0.0123 0.4739
H27 H 0.0903 -0.0145 0.4809
C22 C 0.14189(17) 0.3548(5) 0.53356(16)
C23 C 0.10203(18) 0.3307(5) 0.66184(16)
H28 H 0.1528 0.3027 0.6837
H29 H 0.0634 0.2626 0.6917
H30 H 0.0927 0.4755 0.6625
O1 O -0.23741(10) 0.4178(3) 0.16236(12)
O2 O 0.06933(12) -0.1424(3) 0.08853(11)
O3 O 0.18368(17) 0.4925(4) 0.55192(14)
O4 O 0.09778(11) 0.2580(4) 0.58352(11)
loop_
_geom_bond_atom_site_label_1
_geom_bond_atom_site_label_2
_geom_bond_site_symmetry_1
_geom_bond_site_symmetry_2
C1 H1 1_555 1_555
H2 C1 1_555 1_555
H3 C1 1_555 1_555
C2 C3 1_555 1_555
C3 H4 1_555 1_555
C4 C3 1_555 1_555
H5 C4 1_555 1_555
C5 C4 1_555 1_555
C6 C5 1_555 1_555
H6 C6 1_555 1_555
C7 C2 1_555 1_555
H7 C7 1_555 1_555
C8 C5 1_555 1_555
C9 C8 1_555 1_555
H8 C9 1_555 1_555
H9 C9 1_555 1_555
C10 C9 1_555 1_555
H10 C10 1_555 1_555
H11 C10 1_555 1_555
C11 C10 1_555 1_555
H12 C11 1_555 1_555
H13 C11 1_555 1_555
C12 C8 1_555 1_555
C13 C8 1_555 1_555
H14 C13 1_555 1_555
H15 C13 1_555 1_555
C14 C13 1_555 1_555
C15 C14 1_555 1_555
H16 C15 1_555 1_555
H17 C15 1_555 1_555
C16 C15 1_555 1_555
H18 C16 1_555 1_555
H19 C16 1_555 1_555
C17 C16 1_555 1_555
C18 C17 1_555 1_555
H20 C18 1_555 1_555
H21 C18 1_555 1_555
C19 C14 1_555 1_555
H22 C19 1_555 1_555
H23 C19 1_555 1_555
C20 C14 1_555 1_555
H24 C20 1_555 1_555
H25 C20 1_555 1_555
C21 C17 1_555 1_555
H26 C21 1_555 1_555
H27 C21 1_555 1_555
C22 C17 1_555 1_555
C23 H28 1_555 1_555
H29 C23 1_555 1_555
H30 C23 1_555 1_555
O1 C1 1_555 1_555
O2 C12 1_555 1_555
O3 C22 1_555 1_555
O4 C22 1_555 1_555
C2 O1 1_555 1_555
C6 C7 1_555 1_555
C11 C12 1_555 1_555
C18 C19 1_555 1_555
C20 C21 1_555 1_555
C23 O4 1_555 1_555

#END
