
#######################################################################
#
#                 Cambridge Crystallographic Data Centre
#                                CCDC 
#
#######################################################################
#
# If this CIF has been generated from an entry in the Cambridge 
# Structural Database, then it will include bibliographic, chemical, 
# crystal, experimental, refinement or atomic coordinate data resulting 
# from the CCDC's data processing and validation procedures.
#
#######################################################################

data_TICGIY
_chemical_formula_moiety         'C18 H12 N2'
_chemical_name_systematic        5,7-dihydroindolo[2,3-b]carbazole
_symmetry_cell_setting           orthorhombic
_symmetry_space_group_name_H-M   'P 21 21 21'
_symmetry_Int_Tables_number      19
_space_group_name_Hall           'P 2ac 2ab'
loop_
_symmetry_equiv_pos_site_id
_symmetry_equiv_pos_as_xyz
1 x,y,z
2 1/2-x,-y,1/2+z
3 -x,1/2+y,1/2-z
4 1/2+x,1/2-y,-z
_cell_length_a                   5.9084(11)
_cell_length_b                   7.7954(13)
_cell_length_c                   26.162(4)
_cell_angle_alpha                90
_cell_angle_beta                 90
_cell_angle_gamma                90
_cell_volume                     1204.98
_exptl_crystal_colour            colorless
_exptl_crystal_description       plate
_cell_formula_units_Z            4
_exptl_crystal_recrystallization_method Sublimation
loop_
_atom_site_label
_atom_site_type_symbol
_atom_site_fract_x
_atom_site_fract_y
_atom_site_fract_z
C1 C 0.7529(5) 0.4790(3) 0.54941(11)
C2 C 0.7935(5) 0.4361(3) 0.60033(11)
H1 H 0.9306 0.467 0.6169
C3 C 0.6248(5) 0.3463(3) 0.62572(11)
H2 H 0.647 0.3154 0.6605
C4 C 0.4225(5) 0.3001(3) 0.60134(10)
H3 H 0.3108 0.2376 0.6197
C5 C 0.3836(5) 0.3446(3) 0.55072(10)
H4 H 0.2464 0.313 0.5343
C6 C 0.5489(5) 0.4365(3) 0.52430(11)
C7 C 0.5594(5) 0.5118(3) 0.47359(10)
C8 C 0.7723(5) 0.5987(3) 0.47034(10)
C9 C 0.8382(5) 0.6947(3) 0.42808(10)
H5 H 0.9786 0.7539 0.4267
C10 C 0.6831(5) 0.6977(3) 0.38795(10)
C11 C 0.4717(5) 0.6068(3) 0.38903(10)
C12 C 0.4101(5) 0.5134(3) 0.43221(9)
H6 H 0.2708 0.4528 0.4335
C13 C 0.3652(5) 0.6390(3) 0.33994(10)
C14 C 0.5117(5) 0.7488(3) 0.31221(11)
C15 C 0.4600(5) 0.8060(4) 0.26332(11)
H7 H 0.5593 0.8801 0.2452
C16 C 0.2580(5) 0.7510(4) 0.24193(11)
H8 H 0.2187 0.7879 0.2085
C17 C 0.1104(5) 0.6423(4) 0.26851(11)
H9 H -0.0267 0.6063 0.2529
C18 C 0.1629(5) 0.5865(3) 0.31756(10)
H10 H 0.0619 0.5135 0.3356
N1 N 0.8879(4) 0.5732(3) 0.51598(9)
H11 H 1.0252 0.6108 0.5227
N2 N 0.6988(4) 0.7855(3) 0.34228(9)
H12 H 0.8104 0.8543 0.3336
loop_
_geom_bond_atom_site_label_1
_geom_bond_atom_site_label_2
_geom_bond_site_symmetry_1
_geom_bond_site_symmetry_2
C1 C2 1_555 1_555
C2 H1 1_555 1_555
C3 C2 1_555 1_555
H2 C3 1_555 1_555
C4 C3 1_555 1_555
H3 C4 1_555 1_555
C5 C4 1_555 1_555
H4 C5 1_555 1_555
C6 C1 1_555 1_555
C7 C6 1_555 1_555
C8 C7 1_555 1_555
C9 C8 1_555 1_555
H5 C9 1_555 1_555
C10 C9 1_555 1_555
C11 C10 1_555 1_555
C12 C7 1_555 1_555
H6 C12 1_555 1_555
C13 C11 1_555 1_555
C14 C13 1_555 1_555
C15 C14 1_555 1_555
H7 C15 1_555 1_555
C16 C15 1_555 1_555
H8 C16 1_555 1_555
C17 C16 1_555 1_555
H9 C17 1_555 1_555
C18 C13 1_555 1_555
H10 C18 1_555 1_555
N1 C1 1_555 1_555
H11 N1 1_555 1_555
N2 C10 1_555 1_555
H12 N2 1_555 1_555
C5 C6 1_555 1_555
C8 N1 1_555 1_555
C11 C12 1_555 1_555
C14 N2 1_555 1_555
C17 C18 1_555 1_555

#END
