
#######################################################################
#
#                 Cambridge Crystallographic Data Centre
#                                CCDC 
#
#######################################################################
#
# If this CIF has been generated from an entry in the Cambridge 
# Structural Database, then it will include bibliographic, chemical, 
# crystal, experimental, refinement or atomic coordinate data resulting 
# from the CCDC's data processing and validation procedures.
#
#######################################################################

data_TICGUK
_chemical_formula_moiety         'C18 H12 N2'
_chemical_name_systematic        5,12-dihydroindolo[3,2-a]carbazole
_symmetry_cell_setting           orthorhombic
_symmetry_space_group_name_H-M   'P 21 21 21'
_symmetry_Int_Tables_number      19
_space_group_name_Hall           'P 2ac 2ab'
loop_
_symmetry_equiv_pos_site_id
_symmetry_equiv_pos_as_xyz
1 x,y,z
2 1/2-x,-y,1/2+z
3 -x,1/2+y,1/2-z
4 1/2+x,1/2-y,-z
_cell_length_a                   5.5247(5)
_cell_length_b                   9.5415(10)
_cell_length_c                   23.363(3)
_cell_angle_alpha                90
_cell_angle_beta                 90
_cell_angle_gamma                90
_cell_volume                     1231.56
_exptl_crystal_colour            colorless
_exptl_crystal_description       block
_cell_formula_units_Z            4
_exptl_crystal_recrystallization_method Acetonitrile
loop_
_atom_site_label
_atom_site_type_symbol
_atom_site_fract_x
_atom_site_fract_y
_atom_site_fract_z
C1 C 0.8953(7) 0.4939(4) 0.45646(15)
C2 C 0.9196(7) 0.4351(4) 0.40228(15)
H1 H 1.0508 0.4597 0.378
C3 C 0.7478(7) 0.3405(4) 0.38523(15)
H2 H 0.7606 0.2997 0.3482
C4 C 0.5552(7) 0.3019(4) 0.42022(15)
H3 H 0.4407 0.2351 0.4069
C5 C 0.5284(7) 0.3597(4) 0.47411(15)
H4 H 0.3968 0.3329 0.4979
C6 C 0.6969(7) 0.4577(4) 0.49301(13)
C7 C 0.7224(7) 0.5446(4) 0.54331(14)
C8 C 0.9268(7) 0.6288(4) 0.53597(14)
C9 C 1.0032(7) 0.7299(4) 0.57521(15)
H5 H 1.1432 0.7851 0.5682
C10 C 0.8688(7) 0.7471(4) 0.62439(15)
H6 H 0.9161 0.8152 0.6519
C11 C 0.6611(7) 0.6642(4) 0.63426(15)
C12 C 0.5932(6) 0.5624(4) 0.59374(15)
C13 C 0.3303(7) 0.5454(4) 0.66794(14)
C14 C 0.4927(7) 0.6523(4) 0.68137(13)
C15 C 0.4646(8) 0.7247(4) 0.73295(15)
H7 H 0.5713 0.7991 0.7427
C16 C 0.2789(8) 0.6865(5) 0.76983(15)
H8 H 0.2595 0.7339 0.8053
C17 C 0.1188(8) 0.5772(5) 0.75465(16)
H9 H -0.0075 0.5517 0.7802
C18 C 0.1427(7) 0.5067(4) 0.70322(15)
H10 H 0.0335 0.4343 0.6927
N1 N 1.0324(6) 0.5953(3) 0.48341(12)
H11 H 1.1656 0.6329 0.4696
N2 N 0.3931(5) 0.4909(3) 0.61429(12)
H12 H 0.3176 0.4224 0.5965
loop_
_geom_bond_atom_site_label_1
_geom_bond_atom_site_label_2
_geom_bond_site_symmetry_1
_geom_bond_site_symmetry_2
C1 C2 1_555 1_555
C2 H1 1_555 1_555
C3 C2 1_555 1_555
H2 C3 1_555 1_555
C4 C3 1_555 1_555
H3 C4 1_555 1_555
C5 C4 1_555 1_555
H4 C5 1_555 1_555
C6 C1 1_555 1_555
C7 C6 1_555 1_555
C8 C7 1_555 1_555
C9 C8 1_555 1_555
H5 C9 1_555 1_555
C10 C9 1_555 1_555
H6 C10 1_555 1_555
C11 C10 1_555 1_555
C12 C7 1_555 1_555
C13 C14 1_555 1_555
C14 C11 1_555 1_555
C15 C14 1_555 1_555
H7 C15 1_555 1_555
C16 C15 1_555 1_555
H8 C16 1_555 1_555
C17 C16 1_555 1_555
H9 C17 1_555 1_555
C18 C13 1_555 1_555
H10 C18 1_555 1_555
N1 C1 1_555 1_555
H11 N1 1_555 1_555
N2 C12 1_555 1_555
H12 N2 1_555 1_555
C5 C6 1_555 1_555
C8 N1 1_555 1_555
C11 C12 1_555 1_555
C13 N2 1_555 1_555
C17 C18 1_555 1_555

#END
