
#######################################################################
#
#                 Cambridge Crystallographic Data Centre
#                                CCDC 
#
#######################################################################
#
# If this CIF has been generated from an entry in the Cambridge 
# Structural Database, then it will include bibliographic, chemical, 
# crystal, experimental, refinement or atomic coordinate data resulting 
# from the CCDC's data processing and validation procedures.
#
#######################################################################

data_TICHUI04
_chemical_name_common            '2-Oxo-2H-chromene-3-carboxylic acid'
_chemical_formula_moiety         'C10 H6 O4'
_chemical_name_systematic        'Coumarin-3-carboxylic acid'
_symmetry_cell_setting           monoclinic
_symmetry_space_group_name_H-M   'P 21/n'
_symmetry_Int_Tables_number      14
_space_group_name_Hall           '-P 2yn'
loop_
_symmetry_equiv_pos_site_id
_symmetry_equiv_pos_as_xyz
1 x,y,z
2 1/2-x,1/2+y,1/2-z
3 -x,-y,-z
4 1/2+x,1/2-y,1/2+z
_cell_length_a                   11.19920(10)
_cell_length_b                   5.46620(10)
_cell_length_c                   13.7267(2)
_cell_angle_alpha                90
_cell_angle_beta                 107.2560(10)
_cell_angle_gamma                90
_cell_volume                     802.485
_exptl_crystal_colour            colorless
_exptl_crystal_description       block
_cell_formula_units_Z            4
_exptl_crystal_recrystallization_method acetonitrile
loop_
_atom_site_label
_atom_site_type_symbol
_atom_site_fract_x
_atom_site_fract_y
_atom_site_fract_z
O1 O 0.900004(14) 0.19923(2) 0.254215(12)
O2 O 0.772812(16) 0.30671(3) 0.341479(13)
O3 O 0.73811(2) 0.03092(4) 0.483840(17)
O4 O 0.856569(19) -0.29867(3) 0.528735(15)
C1 C 0.980824(12) 0.03660(2) 0.230834(10)
C2 C 1.023635(14) 0.09363(2) 0.148238(12)
C3 C 1.106404(15) -0.06761(3) 0.123505(12)
C4 C 1.146074(15) -0.28187(3) 0.180257(13)
C5 C 1.102190(13) -0.33595(2) 0.262115(12)
C6 C 1.017881(12) -0.17668(2) 0.288303(10)
C7 C 0.965884(12) -0.22503(2) 0.369680(10)
C8 C 0.881696(12) -0.06819(2) 0.389306(10)
C9 C 0.846586(12) 0.15328(2) 0.328619(10)
C10 C 0.825109(14) -0.12314(2) 0.472765(11)
H1 H 0.730201 0.162694 0.430715
H2 H 0.993041 0.256504 0.103211
H3 H 1.140067 -0.023708 0.059563
H4 H 1.209662 -0.408184 0.160928
H5 H 1.130951 -0.500765 0.306234
H6 H 0.9972 -0.384099 0.41704
loop_
_geom_bond_atom_site_label_1
_geom_bond_atom_site_label_2
_geom_bond_site_symmetry_1
_geom_bond_site_symmetry_2
O1 C1 1_555 1_555
O2 C9 1_555 1_555
O3 C10 1_555 1_555
O4 C10 1_555 1_555
C1 C2 1_555 1_555
C2 C3 1_555 1_555
C3 C4 1_555 1_555
C4 C5 1_555 1_555
C5 C6 1_555 1_555
C6 C1 1_555 1_555
C7 C6 1_555 1_555
C8 C7 1_555 1_555
C9 O1 1_555 1_555
C10 C8 1_555 1_555
H1 O3 1_555 1_555
H2 C2 1_555 1_555
H3 C3 1_555 1_555
H4 C4 1_555 1_555
H5 C5 1_555 1_555
H6 C7 1_555 1_555
C8 C9 1_555 1_555

#END
