
#######################################################################
#
#                 Cambridge Crystallographic Data Centre
#                                CCDC 
#
#######################################################################
#
# If this CIF has been generated from an entry in the Cambridge 
# Structural Database, then it will include bibliographic, chemical, 
# crystal, experimental, refinement or atomic coordinate data resulting 
# from the CCDC's data processing and validation procedures.
#
#######################################################################

data_TICKEV
_chemical_formula_moiety         'C18 H20 N2 O2,C6 H6 O2'
_chemical_name_systematic        
"N,N'-bis-(4-Methoxybenzylidene)ethylendiamine hydroquinone"
_symmetry_cell_setting           monoclinic
_symmetry_space_group_name_H-M   'P 21/c'
_symmetry_Int_Tables_number      14
_space_group_name_Hall           '-P 2ybc'
loop_
_symmetry_equiv_pos_site_id
_symmetry_equiv_pos_as_xyz
1 x,y,z
2 -x,1/2+y,1/2-z
3 -x,-y,-z
4 x,1/2-y,1/2+z
_cell_length_a                   11.929(3)
_cell_length_b                   9.357(3)
_cell_length_c                   10.434(3)
_cell_angle_alpha                90
_cell_angle_beta                 113.32(2)
_cell_angle_gamma                90
_cell_volume                     1069.5
_exptl_crystal_colour            colorless
_chemical_melting_point          425-426K
_cell_formula_units_Z            2
loop_
_atom_site_label
_atom_site_type_symbol
_atom_site_fract_x
_atom_site_fract_y
_atom_site_fract_z
C1 C 0.5870(2) 0.2245(3) 0.8116(2)
C2 C 0.4328(1) 0.1870(2) 0.5828(2)
C3 C 0.3675(2) 0.0901(2) 0.4788(2)
C4 C 0.2902(2) 0.1384(2) 0.3488(2)
C5 C 0.2731(1) 0.2837(2) 0.3203(2)
C6 C 0.3375(2) 0.3795(2) 0.4260(2)
C7 C 0.4173(2) 0.3327(2) 0.5564(2)
C8 C 0.1904(1) 0.3303(2) 0.1796(2)
C9 C 0.0641(2) 0.4832(2) 0.0050(2)
N1 N 0.1450(1) 0.4550(2) 0.1513(1)
O1 O 0.5104(1) 0.1288(1) 0.7065(1)
H1 H 0.6373(22) 0.2813(25) 0.7736(23)
H2 H 0.6363(24) 0.1624(26) 0.8898(27)
H3 H 0.5356(25) 0.2920(30) 0.8432(26)
H4 H 0.3779(18) -0.0119(24) 0.4975(20)
H5 H 0.2483(17) 0.0692(21) 0.2777(20)
H6 H 0.3273(18) 0.4815(23) 0.4062(20)
H7 H 0.4605(18) 0.4014(22) 0.6248(21)
H8 H 0.1700(17) 0.2534(20) 0.1071(20)
H9 H 0.0976(16) 0.5658(21) -0.0295(18)
H10 H 0.0609(15) 0.4004(19) -0.0568(18)
C9B C -0.0641(2) 0.5168(2) -0.0050(2)
N1B N -0.1450(1) 0.5450(2) -0.1513(1)
C8B C -0.1904(1) 0.6697(2) -0.1796(2)
C5B C -0.2731(1) 0.7163(2) -0.3203(2)
C4B C -0.2902(2) 0.8616(2) -0.3488(2)
C3B C -0.3675(2) 0.9099(2) -0.4788(2)
C2B C -0.4328(1) 0.8130(2) -0.5828(2)
C7B C -0.4173(2) 0.6673(2) -0.5564(2)
C6B C -0.3375(2) 0.6205(2) -0.4260(2)
H6B H -0.3273(18) 0.5185(23) -0.4062(20)
H7B H -0.4605(18) 0.5986(22) -0.6248(21)
O1B O -0.5104(1) 0.8712(1) -0.7065(1)
C1B C -0.5870(2) 0.7755(3) -0.8116(2)
H1B H -0.6373(22) 0.7187(25) -0.7736(23)
H2B H -0.6363(24) 0.8376(26) -0.8898(27)
H3B H -0.5356(25) 0.7080(30) -0.8432(26)
H4B H -0.3779(18) 1.0119(24) -0.4975(20)
H5B H -0.2483(17) 0.9308(21) -0.2777(20)
H8B H -0.1700(17) 0.7466(20) -0.1071(20)
H9B H -0.0976(16) 0.4342(21) 0.0295(18)
H10B H -0.0609(15) 0.5996(19) 0.0568(18)
C10 C 0.9351(2) 0.0644(2) 0.0711(2)
C11 C 0.9302(2) 0.1199(2) -0.0549(2)
C12 C 1.0052(2) -0.0568(2) 0.1250(2)
O2 O 0.8719(1) 0.1345(1) 0.1380(1)
H11 H 0.8795(17) 0.2033(21) -0.0949(19)
H12 H 1.0077(16) -0.0968(20) 0.2101(20)
H13 H 0.8686(22) 0.0789(27) 0.2077(26)
C12B C 0.9948(2) 0.0568(2) -0.1250(2)
C10B C 1.0649(2) -0.0644(2) -0.0711(2)
C11B C 1.0698(2) -0.1199(2) 0.0549(2)
H11B H 1.1205(17) -0.2033(21) 0.0949(19)
O2B O 1.1281(1) -0.1345(1) -0.1380(1)
H13B H 1.1314(22) -0.0789(27) -0.2077(26)
H12B H 0.9923(16) 0.0968(20) -0.2101(20)
loop_
_geom_bond_atom_site_label_1
_geom_bond_atom_site_label_2
_geom_bond_site_symmetry_1
_geom_bond_site_symmetry_2
C1 O1 1_555 1_555
C2 C3 1_555 1_555
C3 C4 1_555 1_555
C4 C5 1_555 1_555
C5 C6 1_555 1_555
C6 C7 1_555 1_555
C7 C2 1_555 1_555
C8 C5 1_555 1_555
C9 N1 1_555 1_555
N1 C8 1_555 1_555
O1 C2 1_555 1_555
C10 C11 1_555 1_555
C11 H11 1_555 1_555
C12 C10 1_555 1_555
O2 C10 1_555 1_555
H1 C1 1_555 1_555
H2 C1 1_555 1_555
H3 C1 1_555 1_555
H4 C3 1_555 1_555
H5 C4 1_555 1_555
H6 C6 1_555 1_555
H7 C7 1_555 1_555
H8 C8 1_555 1_555
H9 C9 1_555 1_555
H10 C9 1_555 1_555
H12 C12 1_555 1_555
H13 O2 1_555 1_555
C9B C9 1_555 1_555
N1B C9B 1_555 1_555
C8B N1B 1_555 1_555
C5B C8B 1_555 1_555
C4B C5B 1_555 1_555
C3B C4B 1_555 1_555
C2B C3B 1_555 1_555
C7B C2B 1_555 1_555
C6B C5B 1_555 1_555
H6B C6B 1_555 1_555
H7B C7B 1_555 1_555
O1B C2B 1_555 1_555
C1B O1B 1_555 1_555
H1B C1B 1_555 1_555
H2B C1B 1_555 1_555
H3B C1B 1_555 1_555
H4B C3B 1_555 1_555
H5B C4B 1_555 1_555
H8B C8B 1_555 1_555
H9B C9B 1_555 1_555
H10B C9B 1_555 1_555
C12B C11 1_555 1_555
C10B C12B 1_555 1_555
C11B C12 1_555 1_555
H11B C11B 1_555 1_555
O2B C10B 1_555 1_555
H13B O2B 1_555 1_555
H12B C12B 1_555 1_555
C7B C6B 1_555 1_555
C10B C11B 1_555 1_555

#END
