
#######################################################################
#
#                 Cambridge Crystallographic Data Centre
#                                CCDC 
#
#######################################################################
#
# If this CIF has been generated from an entry in the Cambridge 
# Structural Database, then it will include bibliographic, chemical, 
# crystal, experimental, refinement or atomic coordinate data resulting 
# from the CCDC's data processing and validation procedures.
#
#######################################################################

data_TICMUQ
_chemical_formula_moiety         'C11 H12 N2 O1 S1'
_chemical_name_systematic        
3-(4-methoxyphenyl)-5-(methylsulfanyl)-1H-pyrazole
_symmetry_cell_setting           monoclinic
_symmetry_space_group_name_H-M   'C 2/c'
_symmetry_Int_Tables_number      15
_space_group_name_Hall           '-C 2yn'
loop_
_symmetry_equiv_pos_site_id
_symmetry_equiv_pos_as_xyz
1 x,y,z
2 -x,y,1/2-z
3 1/2+x,1/2+y,z
4 1/2-x,1/2+y,1/2-z
5 -x,-y,-z
6 x,-y,1/2+z
7 1/2-x,1/2-y,-z
8 1/2+x,1/2-y,1/2+z
_cell_length_a                   11.5863(5)
_cell_length_b                   17.8465(7)
_cell_length_c                   22.1451(10)
_cell_angle_alpha                90
_cell_angle_beta                 99.685(4)
_cell_angle_gamma                90
_cell_volume                     4513.79
_exptl_crystal_colour            yellow
_exptl_crystal_description       block
_cell_formula_units_Z            16
_exptl_crystal_recrystallization_method chloroform
loop_
_atom_site_label
_atom_site_type_symbol
_atom_site_fract_x
_atom_site_fract_y
_atom_site_fract_z
S1 S 0.41928(8) 0.24275(5) 0.31698(4)
O1 O 0.8097(2) -0.10132(12) 0.60781(10)
N1 N 0.5211(2) 0.10888(15) 0.31675(12)
N2 N 0.5784(2) 0.05453(13) 0.35342(11)
C1 C 0.5805(2) 0.07492(15) 0.41232(13)
C2 C 0.6381(2) 0.02892(15) 0.46349(13)
C3 C 0.5241(3) 0.14363(16) 0.41293(15)
C4 C 0.6383(3) 0.05040(17) 0.52357(13)
H1 H 0.5997 0.0943 0.5311
C5 C 0.7520(3) -0.05560(17) 0.56268(14)
C6 C 0.4888(2) 0.16315(16) 0.35233(14)
C7 C 0.6982(3) -0.03685(17) 0.45473(14)
H2 H 0.7006 -0.0530 0.4150
C8 C 0.7539(3) -0.07822(17) 0.50323(15)
H3 H 0.7932 -0.1219 0.4960
C9 C 0.8044(3) -0.08277(19) 0.66964(14)
H4 H 0.8484 -0.1188 0.6963
H5 H 0.7243 -0.0832 0.6757
H6 H 0.8370 -0.0338 0.6786
C10 C 0.6935(3) 0.00907(17) 0.57267(14)
H7 H 0.6912 0.0249 0.6125
C11 C 0.3257(3) 0.26852(18) 0.37069(15)
H8 H 0.2817 0.3124 0.3562
H9 H 0.3726 0.2788 0.4098
H10 H 0.2729 0.2281 0.3747
H11 H 0.512(2) 0.1728(15) 0.4453(13)
H12 H 0.512(4) 0.105(2) 0.2818(15)
S2 S 0.92364(8) -0.02767(5) 0.32931(4)
O2 O 0.50811(18) -0.31457(12) 0.00884(9)
N3 N 0.6921(2) -0.05480(14) 0.28727(11)
N4 N 0.628(2) -0.0953(8) 0.2446(7)
C12 C 0.6431(2) -0.18208(14) 0.15910(12)
C13 C 0.6909(2) -0.13303(14) 0.21041(12)
C14 C 0.8069(3) -0.11413(16) 0.23255(13)
C15 C 0.5582(3) -0.27285(15) 0.05810(13)
C16 C 0.8043(2) -0.06517(15) 0.28044(12)
C17 C 0.5247(3) -0.18392(17) 0.13404(14)
H13 H 0.4724 -0.1543 0.1510
C18 C 0.6759(3) -0.27219(16) 0.08177(13)
H14 H 0.7278 -0.3016 0.0643
C19 C 0.7163(3) -0.22732(16) 0.13183(13)
H15 H 0.7959 -0.2276 0.1477
C20 C 0.4836(3) -0.22870(18) 0.08471(14)
H16 H 0.4040 -0.2291 0.0690
C21 C 0.8798(3) 0.0642(2) 0.34388(19)
H17 H 0.9417 0.0889 0.3708
H18 H 0.8111 0.0623 0.3627
H19 H 0.8627 0.0913 0.3060
C22 C 0.5815(3) -0.3627(2) -0.01974(16)
H20 H 0.5349 -0.3885 -0.0533
H21 H 0.6186 -0.3986 0.0096
H22 H 0.6402 -0.3334 -0.0346
H23 H 0.871(2) -0.1303(14) 0.2151(12)
H24 H 0.656(4) -0.019(2) 0.307(2)
N5? N 0.597(8) -0.097(2) 0.2419(16)
loop_
_geom_bond_atom_site_label_1
_geom_bond_atom_site_label_2
_geom_bond_site_symmetry_1
_geom_bond_site_symmetry_2
S1 C6 1_555 1_555
O1 C5 1_555 1_555
N1 N2 1_555 1_555
N2 C1 1_555 1_555
C1 C2 1_555 1_555
C2 C4 1_555 1_555
C3 C1 1_555 1_555
C4 H1 1_555 1_555
C5 C8 1_555 1_555
C6 N1 1_555 1_555
C7 C2 1_555 1_555
H2 C7 1_555 1_555
C8 C7 1_555 1_555
H3 C8 1_555 1_555
C9 O1 1_555 1_555
H4 C9 1_555 1_555
H5 C9 1_555 1_555
H6 C9 1_555 1_555
C10 C4 1_555 1_555
H7 C10 1_555 1_555
C11 S1 1_555 1_555
H8 C11 1_555 1_555
H9 C11 1_555 1_555
H10 C11 1_555 1_555
H11 C3 1_555 1_555
H12 N1 1_555 1_555
S2 C16 1_555 1_555
O2 C15 1_555 1_555
N3 N4 1_555 1_555
N4 C13 1_555 1_555
C12 C13 1_555 1_555
C13 C14 1_555 1_555
C14 C16 1_555 1_555
C15 C18 1_555 1_555
C16 N3 1_555 1_555
C17 C12 1_555 1_555
H13 C17 1_555 1_555
C18 H14 1_555 1_555
C19 C12 1_555 1_555
H15 C19 1_555 1_555
C20 C15 1_555 1_555
H16 C20 1_555 1_555
C21 S2 1_555 1_555
H17 C21 1_555 1_555
H18 C21 1_555 1_555
H19 C21 1_555 1_555
C22 O2 1_555 1_555
H20 C22 1_555 1_555
H21 C22 1_555 1_555
H22 C22 1_555 1_555
H23 C14 1_555 1_555
H24 N3 1_555 1_555
C3 C6 1_555 1_555
C5 C10 1_555 1_555
C17 C20 1_555 1_555
C18 C19 1_555 1_555

#END
