
#######################################################################
#
#                 Cambridge Crystallographic Data Centre
#                                CCDC 
#
#######################################################################
#
# If this CIF has been generated from an entry in the Cambridge 
# Structural Database, then it will include bibliographic, chemical, 
# crystal, experimental, refinement or atomic coordinate data resulting 
# from the CCDC's data processing and validation procedures.
#
#######################################################################

data_TICQOO
_chemical_formula_moiety         'C19 H22 N2 O2 S2'
_chemical_name_systematic        
4-methyl-N'-(1-phenylethylidene)-N-(thiolan-2-yl)benzene-1-sulfonohydrazide
_symmetry_cell_setting           monoclinic
_symmetry_space_group_name_H-M   'P 21/n'
_symmetry_Int_Tables_number      14
_space_group_name_Hall           '-P 2yn'
loop_
_symmetry_equiv_pos_site_id
_symmetry_equiv_pos_as_xyz
1 x,y,z
2 1/2-x,1/2+y,1/2-z
3 -x,-y,-z
4 1/2+x,1/2-y,1/2+z
_cell_length_a                   12.587(3)
_cell_length_b                   7.5186(15)
_cell_length_c                   19.615(4)
_cell_angle_alpha                90
_cell_angle_beta                 98.029(3)
_cell_angle_gamma                90
_cell_volume                     1838.1
_exptl_crystal_colour            colorless
_exptl_crystal_description       block
_cell_formula_units_Z            4
loop_
_atom_site_label
_atom_site_type_symbol
_atom_site_fract_x
_atom_site_fract_y
_atom_site_fract_z
S1 S 0.78069(6) 0.28367(11) 0.00749(4)
S2 S 0.71744(8) 0.55578(13) 0.14819(5)
N1 N 0.9025(2) 0.2871(3) 0.12614(12)
N2 N 0.8583(2) 0.3953(3) 0.06832(12)
C1 C 1.0484(2) 0.1245(4) 0.18195(15)
C2 C 0.6667(2) 0.2077(4) 0.04032(15)
C3 C 0.9976(2) 0.2285(4) 0.12156(15)
C4 C 1.0694(3) 0.0592(5) 0.30386(17)
H1 H 1.048225 0.076578 0.346944
C5 C 0.4815(3) 0.2345(4) 0.05010(19)
H2 H 0.416478 0.293562 0.038710
C6 C 1.0610(3) 0.2608(5) 0.06372(17)
H3 H 1.129143 0.201956 0.073326
H4 H 1.022474 0.214931 0.021711
H5 H 1.072147 0.386263 0.059000
C7 C 0.4860(3) 0.0894(4) 0.09384(16)
C8 C 1.1311(3) 0.0060(4) 0.17533(17)
H6 H 1.152017 -0.014545 0.132370
C9 C 1.0157(3) 0.1468(4) 0.24629(16)
H7 H 0.957743 0.220291 0.251006
C10 C 0.6739(3) 0.0613(4) 0.08364(18)
H8 H 0.738833 0.002418 0.095292
C11 C 0.5696(3) 0.2938(4) 0.02308(18)
H9 H 0.564217 0.390961 -0.006546
C12 C 0.9129(3) 0.6882(4) 0.12544(16)
H10 H 0.981137 0.647859 0.113540
H11 H 0.902074 0.811232 0.111299
C13 C 0.5830(3) 0.0045(4) 0.10917(18)
H12 H 0.587566 -0.094763 0.137737
C14 C 1.1828(3) -0.0821(5) 0.23333(19)
H13 H 1.237852 -0.161966 0.228823
C15 C 0.8180(3) 0.5675(4) 0.08988(16)
H14 H 0.785318 0.629379 0.048198
C16 C 1.1530(3) -0.0517(5) 0.29677(18)
H15 H 1.189930 -0.107161 0.335368
C17 C 0.7963(4) 0.6791(6) 0.2157(2)
H16 H 0.772958 0.802125 0.214985
H17 H 0.788368 0.628612 0.260241
O1 O 0.74653(19) 0.4103(3) -0.04533(11)
O2 O 0.84202(19) 0.1312(3) -0.00694(12)
C18 C 0.3886(3) 0.0255(5) 0.12255(19)
H18 H 0.328725 0.100605 0.106375
H19 H 0.372855 -0.094530 0.107753
H20 H 0.401897 0.029381 0.171926
C19 C 0.9098(4) 0.6683(6) 0.2035(2)
H21 H 0.940356 0.554815 0.219555
H22 H 0.951397 0.762268 0.228453
loop_
_geom_bond_atom_site_label_1
_geom_bond_atom_site_label_2
_geom_bond_site_symmetry_1
_geom_bond_site_symmetry_2
S1 N2 1_555 1_555
S2 C15 1_555 1_555
N1 N2 1_555 1_555
N2 C15 1_555 1_555
C1 C3 1_555 1_555
C2 S1 1_555 1_555
C3 N1 1_555 1_555
C4 H1 1_555 1_555
C5 H2 1_555 1_555
C6 C3 1_555 1_555
H3 C6 1_555 1_555
H4 C6 1_555 1_555
H5 C6 1_555 1_555
C7 C5 1_555 1_555
C8 C1 1_555 1_555
H6 C8 1_555 1_555
C9 C1 1_555 1_555
H7 C9 1_555 1_555
C10 C2 1_555 1_555
H8 C10 1_555 1_555
C11 C2 1_555 1_555
H9 C11 1_555 1_555
C12 H10 1_555 1_555
H11 C12 1_555 1_555
C13 C7 1_555 1_555
H12 C13 1_555 1_555
C14 C8 1_555 1_555
H13 C14 1_555 1_555
C15 C12 1_555 1_555
H14 C15 1_555 1_555
C16 C4 1_555 1_555
H15 C16 1_555 1_555
C17 S2 1_555 1_555
H16 C17 1_555 1_555
H17 C17 1_555 1_555
O1 S1 1_555 1_555
O2 S1 1_555 1_555
C18 C7 1_555 1_555
H18 C18 1_555 1_555
H19 C18 1_555 1_555
H20 C18 1_555 1_555
C19 C12 1_555 1_555
H21 C19 1_555 1_555
H22 C19 1_555 1_555
C4 C9 1_555 1_555
C5 C11 1_555 1_555
C10 C13 1_555 1_555
C14 C16 1_555 1_555
C17 C19 1_555 1_555

#END
