
#######################################################################
#
#                 Cambridge Crystallographic Data Centre
#                                CCDC 
#
#######################################################################
#
# If this CIF has been generated from an entry in the Cambridge 
# Structural Database, then it will include bibliographic, chemical, 
# crystal, experimental, refinement or atomic coordinate data resulting 
# from the CCDC's data processing and validation procedures.
#
#######################################################################

data_TICROO
_chemical_name_common            'bis(sulfadiazine) 1,2-bis(4-pyridyl)acetylene'
_chemical_formula_moiety         '2(C10 H10 N4 O2 S1),C12 H8 N2'
_chemical_name_systematic        
"bis(4-Amino-N-(pyrimidin-2-yl)benzenesulfonamide) 4,4'-ethyne-1,2-diyldipyridine"
_chemical_properties_biological  'Sulfadiazine is a sulfonamide antibiotic'
_symmetry_cell_setting           triclinic
_symmetry_space_group_name_H-M   'P -1'
_symmetry_Int_Tables_number      2
_space_group_name_Hall           '-P 1'
loop_
_symmetry_equiv_pos_site_id
_symmetry_equiv_pos_as_xyz
1 x,y,z
2 -x,-y,-z
_cell_length_a                   5.734(3)
_cell_length_b                   8.057(4)
_cell_length_c                   18.163(10)
_cell_angle_alpha                78.438(7)
_cell_angle_beta                 81.646(8)
_cell_angle_gamma                77.011(7)
_cell_volume                     796.62
_exptl_crystal_colour            colorless
_cell_formula_units_Z            1
loop_
_atom_site_label
_atom_site_type_symbol
_atom_site_fract_x
_atom_site_fract_y
_atom_site_fract_z
S1 S 0.25816(9) 0.51481(7) 0.31767(3)
O1 O 0.0494(3) 0.64387(19) 0.29730(8)
O2 O 0.4892(3) 0.5586(2) 0.29870(9)
N1 N 0.2324(4) -0.0746(3) 0.17494(12)
H1 H 0.367(5) -0.112(3) 0.1502(16)
H2 H 0.137(5) -0.133(4) 0.1916(17)
N2 N 0.1992(3) 0.4645(3) 0.40970(10)
H3 H 0.062(5) 0.510(3) 0.4264(15)
N3 N 0.2596(3) 0.3429(2) 0.53218(9)
N4 N 0.5569(3) 0.2669(3) 0.43145(11)
C1 C 0.2460(4) 0.0526(3) 0.21226(12)
C2 C 0.0552(4) 0.1150(3) 0.26405(12)
H4 H -0.0767 0.0616 0.2761
C3 C 0.0595(4) 0.2530(3) 0.29712(12)
H5 H -0.0710 0.2951 0.3298
C4 C 0.2596(3) 0.3297(3) 0.28154(11)
C5 C 0.4538(4) 0.2679(3) 0.23185(12)
H6 H 0.5884 0.3184 0.2220
C6 C 0.4465(4) 0.1324(3) 0.19749(13)
H7 H 0.5760 0.0927 0.1639
C7 C 0.3485(3) 0.3524(3) 0.45927(11)
C8 C 0.4013(4) 0.2373(3) 0.58155(13)
H8 H 0.3479 0.2263 0.6328
C9 C 0.6233(4) 0.1444(4) 0.55922(14)
H9 H 0.7220 0.0724 0.5940
C10 C 0.6917(4) 0.1633(4) 0.48301(15)
H10 H 0.8401 0.1004 0.4663
N5 N 0.7044(3) -0.2013(3) 0.08224(11)
C11 C 0.8332(4) -0.3293(4) 0.12729(14)
H11 H 0.7665 -0.3606 0.1766
C12 C 1.0578(5) -0.4176(3) 0.10545(14)
H12 H 1.1381 -0.5072 0.1393
C13 C 1.1652(4) -0.3732(3) 0.03285(13)
C14 C 1.0316(4) -0.2406(3) -0.01455(14)
H13 H 1.0942 -0.2059 -0.0640
C15 C 0.8068(4) -0.1611(3) 0.01202(15)
H14 H 0.7201 -0.0735 -0.0210
C16 C 1.4017(4) -0.4618(3) 0.00851(14)
N5A N 2.2956(3) -0.7987(3) -0.08224(11)
C11A C 2.1668(4) -0.6707(4) -0.12729(14)
H11A H 2.2335 -0.6394 -0.1766
C12A C 1.9422(5) -0.5824(3) -0.10545(14)
H12A H 1.8619 -0.4928 -0.1393
C13A C 1.8348(4) -0.6268(3) -0.03285(13)
C14A C 1.9684(4) -0.7594(3) 0.01455(14)
H13A H 1.9058 -0.7941 0.0640
C15A C 2.1932(4) -0.8389(3) -0.01202(15)
H14A H 2.2799 -0.9265 0.0210
C16A C 1.5983(4) -0.5382(3) -0.00851(14)
loop_
_geom_bond_atom_site_label_1
_geom_bond_atom_site_label_2
_geom_bond_site_symmetry_1
_geom_bond_site_symmetry_2
S1 O1 1_555 1_555
O2 S1 1_555 1_555
N1 H1 1_555 1_555
H2 N1 1_555 1_555
N2 S1 1_555 1_555
H3 N2 1_555 1_555
N3 C7 1_555 1_555
N4 C7 1_555 1_555
C1 N1 1_555 1_555
C2 C1 1_555 1_555
H4 C2 1_555 1_555
C3 C2 1_555 1_555
H5 C3 1_555 1_555
C4 S1 1_555 1_555
C5 C4 1_555 1_555
H6 C5 1_555 1_555
C6 C1 1_555 1_555
H7 C6 1_555 1_555
C7 N2 1_555 1_555
C8 N3 1_555 1_555
H8 C8 1_555 1_555
C9 C8 1_555 1_555
H9 C9 1_555 1_555
C10 N4 1_555 1_555
H10 C10 1_555 1_555
N5 C11 1_555 1_555
C11 H11 1_555 1_555
C12 C11 1_555 1_555
H12 C12 1_555 1_555
C13 C12 1_555 1_555
C14 C13 1_555 1_555
H13 C14 1_555 1_555
C15 N5 1_555 1_555
H14 C15 1_555 1_555
C16 C13 1_555 1_555
N5A C11A 1_555 1_555
C11A H11A 1_555 1_555
C12A C11A 1_555 1_555
H12A C12A 1_555 1_555
C13A C12A 1_555 1_555
C14A C13A 1_555 1_555
H13A C14A 1_555 1_555
C15A N5A 1_555 1_555
H14A C15A 1_555 1_555
C16A C16 1_555 1_555
C3 C4 1_555 1_555
C5 C6 1_555 1_555
C9 C10 1_555 1_555
C14 C15 1_555 1_555
C13A C16A 1_555 1_555
C14A C15A 1_555 1_555

#END
