
#######################################################################
#
#                 Cambridge Crystallographic Data Centre
#                                CCDC 
#
#######################################################################
#
# If this CIF has been generated from an entry in the Cambridge 
# Structural Database, then it will include bibliographic, chemical, 
# crystal, experimental, refinement or atomic coordinate data resulting 
# from the CCDC's data processing and validation procedures.
#
#######################################################################

data_TICRII
_chemical_name_common            
'bis(sulfadiazine) (E)-1,2-bis(4-pyridyl)ethene'
_chemical_formula_moiety         '2(C10 H10 N4 O2 S1),C12 H10 N2'
_chemical_name_systematic        
"bis(4-Amino-N-(pyrimidin-2-yl)benzenesulfonamide) 4,4'-ethene-1,2-diyldipyridine"
_chemical_properties_biological  'Sulfadiazine is a sulfonamide antibiotic'
_symmetry_cell_setting           triclinic
_symmetry_space_group_name_H-M   'P -1'
_symmetry_Int_Tables_number      2
_space_group_name_Hall           '-P 1'
loop_
_symmetry_equiv_pos_site_id
_symmetry_equiv_pos_as_xyz
1 x,y,z
2 -x,-y,-z
_cell_length_a                   5.7617(12)
_cell_length_b                   7.9548(17)
_cell_length_c                   18.104(4)
_cell_angle_alpha                98.292(4)
_cell_angle_beta                 98.831(3)
_cell_angle_gamma                102.779(3)
_cell_volume                     785.832
_exptl_crystal_colour            colorless
_exptl_crystal_description       parallelepiped
_cell_formula_units_Z            1
loop_
_atom_site_label
_atom_site_type_symbol
_atom_site_fract_x
_atom_site_fract_y
_atom_site_fract_z
S1 S 0.92760(8) 1.00964(6) 0.18337(2)
O1 O 1.1571(2) 1.13779(18) 0.20362(7)
O2 O 0.7179(2) 1.05770(19) 0.20368(8)
N1 N 1.0754(3) 0.4130(2) 0.32610(11)
H1 H 1.153(5) 0.345(3) 0.3088(15)
H2 H 0.975(4) 0.371(3) 0.3515(14)
N2 N 0.8958(3) 0.9583(2) 0.09059(8)
H3 H 1.0166 1.0031 0.0710
N3 N 0.7070(3) 0.8451(2) -0.03278(9)
N4 N 0.5150(3) 0.7633(2) 0.06928(9)
C1 C 1.0283(3) 0.5405(2) 0.28769(10)
C2 C 1.1781(3) 0.6056(3) 0.23829(11)
H4 H 1.3007 0.5524 0.2277
C3 C 1.1462(3) 0.7463(3) 0.20549(10)
H5 H 1.2504 0.7907 0.1746
C4 C 0.9569(3) 0.8221(2) 0.21874(10)
C5 C 0.8003(3) 0.7557(3) 0.26502(10)
H6 H 0.6719 0.8050 0.2729
C6 C 0.8358(3) 0.6174(3) 0.29897(11)
H7 H 0.7310 0.5739 0.3299
C7 C 0.6950(3) 0.8508(2) 0.04098(10)
C8 C 0.5151(4) 0.7431(3) -0.08252(11)
H8 H 0.5156 0.7355 -0.1342
C9 C 0.3154(4) 0.6484(3) -0.05986(13)
H9 H 0.1813 0.5784 -0.0948
C10 C 0.3265(4) 0.6636(3) 0.01722(13)
H10 H 0.1952 0.6009 0.0342
N5 N 0.6910(3) 0.2859(2) 0.41516(10)
C11 C 0.5030(4) 0.1592(3) 0.37498(12)
H11 H 0.5035 0.1211 0.3240
C12 C 0.3079(4) 0.0811(3) 0.40452(11)
H12 H 0.1827 -0.0073 0.3737
C13 C 0.2991(3) 0.1348(2) 0.48033(11)
C14 C 0.4957(4) 0.2658(3) 0.52248(12)
H13 H 0.5007 0.3059 0.5737
C15 C 0.6830(4) 0.3363(3) 0.48833(13)
H14 H 0.8116 0.4241 0.5179
C16 C 0.1001(3) 0.0602(3) 0.51676(11)
H15 H 0.1164 0.1015 0.5685
N5A N -0.6910(3) -0.2859(2) 0.58484(10)
C11A C -0.5030(4) -0.1592(3) 0.62502(12)
H11A H -0.5035 -0.1211 0.6760
C12A C -0.3079(4) -0.0811(3) 0.59548(11)
H12A H -0.1827 0.0073 0.6263
C13A C -0.2991(3) -0.1348(2) 0.51967(11)
C14A C -0.4957(4) -0.2658(3) 0.47752(12)
H13A H -0.5007 -0.3059 0.4263
C15A C -0.6830(4) -0.3363(3) 0.51167(13)
H14A H -0.8116 -0.4241 0.4821
C16A C -0.1001(3) -0.0602(3) 0.48324(11)
H15A H -0.1164 -0.1015 0.4315
loop_
_geom_bond_atom_site_label_1
_geom_bond_atom_site_label_2
_geom_bond_site_symmetry_1
_geom_bond_site_symmetry_2
S1 O1 1_555 1_555
O2 S1 1_555 1_555
N1 H1 1_555 1_555
H2 N1 1_555 1_555
N2 S1 1_555 1_555
H3 N2 1_555 1_555
N3 C7 1_555 1_555
N4 C7 1_555 1_555
C1 N1 1_555 1_555
C2 C1 1_555 1_555
H4 C2 1_555 1_555
C3 C2 1_555 1_555
H5 C3 1_555 1_555
C4 S1 1_555 1_555
C5 C4 1_555 1_555
H6 C5 1_555 1_555
C6 C1 1_555 1_555
H7 C6 1_555 1_555
C7 N2 1_555 1_555
C8 N3 1_555 1_555
H8 C8 1_555 1_555
C9 C8 1_555 1_555
H9 C9 1_555 1_555
C10 N4 1_555 1_555
H10 C10 1_555 1_555
N5 C11 1_555 1_555
C11 H11 1_555 1_555
C12 C11 1_555 1_555
H12 C12 1_555 1_555
C13 C12 1_555 1_555
C14 C13 1_555 1_555
H13 C14 1_555 1_555
C15 N5 1_555 1_555
H14 C15 1_555 1_555
C16 C13 1_555 1_555
H15 C16 1_555 1_555
N5A C11A 1_555 1_555
C11A H11A 1_555 1_555
C12A C11A 1_555 1_555
H12A C12A 1_555 1_555
C13A C12A 1_555 1_555
C14A C13A 1_555 1_555
H13A C14A 1_555 1_555
C15A N5A 1_555 1_555
H14A C15A 1_555 1_555
C16A C16 1_555 1_555
H15A C16A 1_555 1_555
C3 C4 1_555 1_555
C5 C6 1_555 1_555
C9 C10 1_555 1_555
C14 C15 1_555 1_555
C13A C16A 1_555 1_555
C14A C15A 1_555 1_555

#END
