
#######################################################################
#
#                 Cambridge Crystallographic Data Centre
#                                CCDC 
#
#######################################################################
#
# If this CIF has been generated from an entry in the Cambridge 
# Structural Database, then it will include bibliographic, chemical, 
# crystal, experimental, refinement or atomic coordinate data resulting 
# from the CCDC's data processing and validation procedures.
#
#######################################################################

data_TICSON
_chemical_formula_moiety         'C20 H14 O12 Si2 2-,2(C6 H16 N1 1+)'
_chemical_name_systematic        
'(+)-bis(Triethylammonium) bis((R,R)-tartrato)diphenyldisilicate'
_symmetry_cell_setting           orthorhombic
_symmetry_space_group_name_H-M   'P 21 21 21'
_symmetry_Int_Tables_number      19
_space_group_name_Hall           'P 2ac 2ab'
loop_
_symmetry_equiv_pos_site_id
_symmetry_equiv_pos_as_xyz
1 x,y,z
2 1/2-x,-y,1/2+z
3 1/2+x,1/2-y,-z
4 -x,1/2+y,1/2-z
_cell_length_a                   9.625(3)
_cell_length_b                   20.989(3)
_cell_length_c                   17.653(2)
_cell_angle_alpha                90
_cell_angle_beta                 90
_cell_angle_gamma                90
_cell_volume                     3566.24
_exptl_crystal_colour            colorless
_cell_formula_units_Z            4
loop_
_atom_site_label
_atom_site_type_symbol
_atom_site_fract_x
_atom_site_fract_y
_atom_site_fract_z
Si1 Si 0.7409(2) 0.20443(6) 0.76936(7)
Si2 Si 0.7356(2) 0.01098(6) 0.78357(7)
O1 O 0.8143(4) 0.2027(2) 0.8655(2)
O2 O 0.8826(3) 0.1655(2) 0.7401(2)
O3 O 0.6691(4) 0.1968(2) 0.6757(2)
O4 O 0.6023(4) 0.1667(2) 0.8040(2)
O5 O 0.8687(4) 0.0114(2) 0.7081(2)
O6 O 0.8471(4) 0.0520(2) 0.8374(2)
O7 O 0.6298(4) 0.0466(2) 0.7221(2)
O8 O 0.6037(4) 0.0189(2) 0.8553(2)
O9 O 0.9963(4) 0.1668(2) 0.9304(2)
O10 O 0.4793(4) 0.1605(2) 0.6165(2)
O11 O 1.0739(4) 0.0545(2) 0.6806(2)
O12 O 0.3866(4) 0.0547(2) 0.8707(2)
C1 C 0.9315(5) 0.1732(2) 0.8709(3)
C2 C 0.9773(5) 0.1447(2) 0.7962(3)
C3 C 0.5483(6) 0.1672(2) 0.6733(3)
C4 C 0.5046(5) 0.1439(2) 0.7513(3)
C5 C 0.9721(5) 0.0724(2) 0.8035(3)
C6 C 0.9764(6) 0.0444(3) 0.7237(3)
C7 C 0.5038(6) 0.0702(2) 0.7513(3)
C8 C 0.4904(6) 0.0479(2) 0.8328(3)
C9 C 0.7447(5) 0.2934(2) 0.7671(3)
C10 C 0.7281(7) 0.3298(3) 0.8328(4)
C11 C 0.7334(8) 0.3968(3) 0.8289(5)
C12 C 0.7534(7) 0.4267(3) 0.7624(6)
C13 C 0.7695(7) 0.3924(3) 0.6977(5)
C14 C 0.7649(6) 0.3269(3) 0.6986(4)
C15 C 0.7363(5) -0.0788(2) 0.7897(3)
C16 C 0.6159(6) -0.1128(2) 0.8000(3)
C17 C 0.6141(6) -0.1795(3) 0.8031(3)
C18 C 0.7379(7) -0.2126(3) 0.7977(4)
C19 C 0.8603(6) -0.1793(3) 0.7867(4)
C20 C 0.8594(6) -0.1141(3) 0.7824(4)
H1 H 1.0877 0.1705 0.7812
H2 H 0.3983 0.1552 0.7646
H3 H 1.0626 0.0490 0.8317
H4 H 0.4015 0.0509 0.7255
H5 H 0.7089 0.3071 0.8823
H6 H 0.7148 0.4209 0.8770
H7 H 0.7636 0.4787 0.7557
H8 H 0.7859 0.4145 0.6526
H9 H 0.7734 0.2987 0.6502
H10 H 0.5316 -0.0872 0.7965
H11 H 0.5389 -0.2047 0.8103
H12 H 0.7380 -0.2655 0.7993
H13 H 0.9479 -0.2044 0.7754
H14 H 0.9481 -0.0915 0.7733
N1 N 0.7780(5) 0.1534(3) 0.0381(2)
C21 C 0.8449(8) 0.1124(6) 0.0959(4)
C22 C 0.921(1) 0.0566(4) 0.0648(7)
C23 C 0.7327(9) 0.2182(4) 0.0681(4)
C24 C 0.8469(9) 0.2617(5) 0.0812(5)
C25 C 0.6603(7) 0.1218(3) -0.0023(3)
C26 C 0.5412(8) 0.1048(4) 0.0482(4)
H15 H 0.8551 0.1517 -0.0029
H17 H 0.7771 0.1022 0.1345
H18 H 0.9147 0.1395 0.1231
H19 H 0.9263 0.0274 0.1121
H20 H 1.0007 0.0666 0.0496
H21 H 0.8561 0.0368 0.0338
H22 H 0.6834 0.2107 0.1157
H23 H 0.6700 0.2354 0.0331
H24 H 0.8980 0.2703 0.0373
H25 H 0.8118 0.3028 0.1007
H26 H 0.9098 0.2464 0.1202
H27 H 0.5698 0.0768 0.0895
H28 H 0.5054 0.1432 0.0740
H29 H 0.6281 0.1492 -0.0421
H30 H 0.6924 0.0827 -0.0267
H31 H 0.4646 0.0856 0.0237
N2 N 0.0379(6) 0.1196(2) 0.5473(3)
C27 C 0.086(2) 0.0825(4) 0.4859(4)
C28 C 0.2385(10) 0.0517(4) 0.5129(4)
C29 C 0.098(1) 0.1779(4) 0.5756(4)
C30 C 0.117(2) 0.2293(5) 0.5161(5)
C31 C -0.118(1) 0.1367(6) 0.5276(5)
C32 C -0.2115(9) 0.0867(4) 0.5244(5)
H16 H 0.0333 0.0928 0.5992
H32 H 0.0325 0.0498 0.4712
H33 H 0.1096 0.1102 0.4431
H34 H 0.3029 0.0859 0.5352
H35 H 0.2285 0.0225 0.5554
H36 H 0.2924 0.0319 0.4755
H37 H 0.1897 0.1694 0.5973
H38 H 0.0421 0.1936 0.6179
H39 H 0.1490 0.2692 0.5346
H40 H 0.1688 0.2166 0.4740
H41 H 0.0207 0.2403 0.4941
H42 H -0.1560 0.1637 0.5665
H43 H -0.1258 0.1541 0.4809
H44 H -0.3053 0.0994 0.5161
H45 H -0.1863 0.0545 0.4904
H46 H -0.2162 0.0640 0.5760
loop_
_geom_bond_atom_site_label_1
_geom_bond_atom_site_label_2
_geom_bond_site_symmetry_1
_geom_bond_site_symmetry_2
Si1 O1 1_555 1_555
Si2 O5 1_555 1_555
O1 C1 1_555 1_555
O2 Si1 1_555 1_555
O3 Si1 1_555 1_555
O4 Si1 1_555 1_555
O5 C6 1_555 1_555
O6 Si2 1_555 1_555
O7 Si2 1_555 1_555
O8 Si2 1_555 1_555
O9 C1 1_555 1_555
O10 C3 1_555 1_555
O11 C6 1_555 1_555
O12 C8 1_555 1_555
N1 C21 1_555 1_555
N2 C27 1_555 1_555
C1 C2 1_555 1_555
C2 O2 1_555 1_555
C3 O3 1_555 1_555
C4 O4 1_555 1_555
C5 O6 1_555 1_555
C6 C5 1_555 1_555
C7 O7 1_555 1_555
C8 O8 1_555 1_555
C9 Si1 1_555 1_555
C10 C9 1_555 1_555
C11 C10 1_555 1_555
C12 C11 1_555 1_555
C13 C12 1_555 1_555
C14 C9 1_555 1_555
C15 Si2 1_555 1_555
C16 C15 1_555 1_555
C17 C16 1_555 1_555
C18 C17 1_555 1_555
C19 C18 1_555 1_555
C20 C15 1_555 1_555
C21 C22 1_555 1_555
C22 H19 1_555 1_555
C23 N1 1_555 1_555
C24 C23 1_555 1_555
C25 N1 1_555 1_555
C26 C25 1_555 1_555
C27 C28 1_555 1_555
C28 H34 1_555 1_555
C29 N2 1_555 1_555
C30 C29 1_555 1_555
C31 N2 1_555 1_555
C32 C31 1_555 1_555
H1 C2 1_555 1_555
H2 C4 1_555 1_555
H3 C5 1_555 1_555
H4 C7 1_555 1_555
H5 C10 1_555 1_555
H6 C11 1_555 1_555
H7 C12 1_555 1_555
H8 C13 1_555 1_555
H9 C14 1_555 1_555
H10 C16 1_555 1_555
H11 C17 1_555 1_555
H12 C18 1_555 1_555
H13 C19 1_555 1_555
H14 C20 1_555 1_555
H15 N1 1_555 1_555
H16 N2 1_555 1_555
H17 C21 1_555 1_555
H18 C21 1_555 1_555
H20 C22 1_555 1_555
H21 C22 1_555 1_555
H22 C23 1_555 1_555
H23 C23 1_555 1_555
H24 C24 1_555 1_555
H25 C24 1_555 1_555
H26 C24 1_555 1_555
H27 C26 1_555 1_555
H28 C26 1_555 1_555
H29 C25 1_555 1_555
H30 C25 1_555 1_555
H31 C26 1_555 1_555
H32 C27 1_555 1_555
H33 C27 1_555 1_555
H35 C28 1_555 1_555
H36 C28 1_555 1_555
H37 C29 1_555 1_555
H38 C29 1_555 1_555
H39 C30 1_555 1_555
H40 C30 1_555 1_555
H41 C30 1_555 1_555
H42 C31 1_555 1_555
H43 C31 1_555 1_555
H44 C32 1_555 1_555
H45 C32 1_555 1_555
H46 C32 1_555 1_555
C2 C5 1_555 1_555
C3 C4 1_555 1_555
C4 C7 1_555 1_555
C7 C8 1_555 1_555
C13 C14 1_555 1_555
C19 C20 1_555 1_555

#END
