
#######################################################################
#
#                 Cambridge Crystallographic Data Centre
#                                CCDC 
#
#######################################################################
#
# If this CIF has been generated from an entry in the Cambridge 
# Structural Database, then it will include bibliographic, chemical, 
# crystal, experimental, refinement or atomic coordinate data resulting 
# from the CCDC's data processing and validation procedures.
#
#######################################################################

data_TICTEH
_chemical_formula_moiety         'C30 H31 N3 O2'
_chemical_name_systematic        
't-butyl (2-{2-[(1H-indol-7-yl)(phenyl)methyl]-1H-indol-3-yl}ethyl)carbamate'
_symmetry_cell_setting           monoclinic
_symmetry_space_group_name_H-M   'P 21'
_symmetry_Int_Tables_number      4
_space_group_name_Hall           'P 2yb'
loop_
_symmetry_equiv_pos_site_id
_symmetry_equiv_pos_as_xyz
1 x,y,z
2 -x,1/2+y,-z
_cell_length_a                   8.4477(3)
_cell_length_b                   14.1511(5)
_cell_length_c                   10.8100(4)
_cell_angle_alpha                90
_cell_angle_beta                 96.980(2)
_cell_angle_gamma                90
_cell_volume                     1282.7
_exptl_crystal_colour            colorless
_exptl_crystal_description       block
_cell_formula_units_Z            2
loop_
_atom_site_label
_atom_site_type_symbol
_atom_site_fract_x
_atom_site_fract_y
_atom_site_fract_z
O1 O 0.4202(4) 0.21084(17) 0.2243(2)
O2 O 0.3430(3) 0.35452(17) 0.14897(19)
N1 N 0.4504(2) 0.53500(14) 0.6710(2)
H1 H 0.451564 0.594841 0.684983
N2 N -0.1848(3) 0.5201(2) 0.4683(3)
H2 H -0.179337 0.510414 0.547198
N3 N 0.3179(3) 0.31993(17) 0.3432(2)
H3 H 0.290494 0.378176 0.348571
C1 C 0.1585(3) 0.52780(17) 0.5864(2)
H4 H 0.083100 0.483626 0.617393
C2 C 0.3207(3) 0.48378(16) 0.6175(2)
C3 C 0.3640(3) 0.39047(17) 0.6072(2)
C4 C 0.5278(3) 0.38353(17) 0.6584(2)
C5 C 0.6372(4) 0.3085(2) 0.6782(3)
H5 H 0.607821 0.247734 0.651785
C6 C 0.7877(4) 0.3258(2) 0.7369(3)
H6 H 0.860470 0.276472 0.749989
C7 C 0.8327(4) 0.4163(2) 0.7771(3)
H7 H 0.935324 0.425741 0.816953
C8 C 0.7300(3) 0.4929(2) 0.7598(3)
H8 H 0.760661 0.553172 0.787430
C9 C 0.5779(3) 0.47448(18) 0.6984(2)
C10 C 0.1054(3) 0.53805(17) 0.4481(2)
C11 C 0.2078(4) 0.5535(2) 0.3591(3)
H9 H 0.317125 0.555490 0.383852
C12 C 0.1510(5) 0.5663(2) 0.2328(3)
H10 H 0.223426 0.576201 0.175871
C13 C -0.0090(5) 0.5644(2) 0.1914(3)
H11 H -0.045047 0.573140 0.107388
C14 C -0.1168(4) 0.5492(2) 0.2778(3)
C15 C -0.0569(3) 0.53622(19) 0.4036(3)
C16 C -0.2871(4) 0.5403(3) 0.2712(5)
H12 H -0.359810 0.546261 0.199748
C17 C -0.3225(4) 0.5219(3) 0.3866(5)
H13 H -0.424559 0.511888 0.407834
C18 C 0.1395(3) 0.62058(17) 0.6551(3)
C19 C 0.1060(4) 0.6198(2) 0.7763(3)
H14 H 0.097000 0.562253 0.816353
C20 C 0.0853(5) 0.7028(3) 0.8403(4)
H15 H 0.064254 0.700188 0.922688
C21 C 0.0954(4) 0.7873(3) 0.7844(5)
H16 H 0.077722 0.842829 0.826641
C22 C 0.1318(6) 0.7903(2) 0.6655(5)
H17 H 0.142495 0.848425 0.627271
C23 C 0.1533(5) 0.7075(2) 0.6000(3)
H18 H 0.177185 0.710863 0.518373
C24 C 0.2575(3) 0.31014(18) 0.5589(2)
H19 H 0.151148 0.334735 0.534317
H20 H 0.250724 0.265540 0.626198
C25 C 0.3119(4) 0.25750(19) 0.4488(3)
H21 H 0.416858 0.230800 0.473040
H22 H 0.238887 0.205911 0.425065
C26 C 0.3655(4) 0.2879(2) 0.2375(3)
C27 C 0.3776(4) 0.3370(3) 0.0216(3)
C28 C 0.5486(5) 0.3212(6) 0.0201(5)
H23 H 0.607728 0.364419 0.076458
H24 H 0.575444 0.331154 -0.062651
H25 H 0.574648 0.257468 0.045559
C29 C 0.2700(8) 0.2633(5) -0.0368(4)
H26 H 0.284981 0.206063 0.010836
H27 H 0.293623 0.251950 -0.120167
H28 H 0.161465 0.283941 -0.039078
C30 C 0.3355(8) 0.4335(4) -0.0400(4)
H29 H 0.345799 0.429841 -0.127305
H30 H 0.406731 0.480894 -0.001808
H31 H 0.227758 0.449851 -0.029147
loop_
_geom_bond_atom_site_label_1
_geom_bond_atom_site_label_2
_geom_bond_site_symmetry_1
_geom_bond_site_symmetry_2
O1 C26 1_555 1_555
O2 C26 1_555 1_555
N1 H1 1_555 1_555
N2 H2 1_555 1_555
N3 H3 1_555 1_555
C1 H4 1_555 1_555
C2 N1 1_555 1_555
C3 C2 1_555 1_555
C4 C3 1_555 1_555
C5 C4 1_555 1_555
H5 C5 1_555 1_555
C6 C5 1_555 1_555
H6 C6 1_555 1_555
C7 C6 1_555 1_555
H7 C7 1_555 1_555
C8 C7 1_555 1_555
H8 C8 1_555 1_555
C9 N1 1_555 1_555
C10 C1 1_555 1_555
C11 C10 1_555 1_555
H9 C11 1_555 1_555
C12 C11 1_555 1_555
H10 C12 1_555 1_555
C13 C12 1_555 1_555
H11 C13 1_555 1_555
C14 C13 1_555 1_555
C15 N2 1_555 1_555
C16 C14 1_555 1_555
H12 C16 1_555 1_555
C17 N2 1_555 1_555
H13 C17 1_555 1_555
C18 C1 1_555 1_555
C19 C18 1_555 1_555
H14 C19 1_555 1_555
C20 C19 1_555 1_555
H15 C20 1_555 1_555
C21 C20 1_555 1_555
H16 C21 1_555 1_555
C22 C21 1_555 1_555
H17 C22 1_555 1_555
C23 C18 1_555 1_555
H18 C23 1_555 1_555
C24 C3 1_555 1_555
H19 C24 1_555 1_555
H20 C24 1_555 1_555
C25 N3 1_555 1_555
H21 C25 1_555 1_555
H22 C25 1_555 1_555
C26 N3 1_555 1_555
C27 O2 1_555 1_555
C28 C27 1_555 1_555
H23 C28 1_555 1_555
H24 C28 1_555 1_555
H25 C28 1_555 1_555
C29 C27 1_555 1_555
H26 C29 1_555 1_555
H27 C29 1_555 1_555
H28 C29 1_555 1_555
C30 C27 1_555 1_555
H29 C30 1_555 1_555
H30 C30 1_555 1_555
H31 C30 1_555 1_555
C1 C2 1_555 1_555
C4 C9 1_555 1_555
C8 C9 1_555 1_555
C10 C15 1_555 1_555
C14 C15 1_555 1_555
C16 C17 1_555 1_555
C22 C23 1_555 1_555
C24 C25 1_555 1_555

#END
