
#######################################################################
#
#                 Cambridge Crystallographic Data Centre
#                                CCDC 
#
#######################################################################
#
# If this CIF has been generated from an entry in the Cambridge 
# Structural Database, then it will include bibliographic, chemical, 
# crystal, experimental, refinement or atomic coordinate data resulting 
# from the CCDC's data processing and validation procedures.
#
#######################################################################

data_TIDBEQ
_chemical_formula_moiety         'C21 H17 F2 N3 O4'
_chemical_name_systematic        
5-ethoxy-9-fluoro-N-[(4-fluorophenyl)methyl]-3-nitro-5H-[1]benzopyrano[4,3-b]pyridin-2-amine
_symmetry_cell_setting           monoclinic
_symmetry_space_group_name_H-M   'P 21/c'
_symmetry_Int_Tables_number      14
_space_group_name_Hall           '-P 2ybc'
loop_
_symmetry_equiv_pos_site_id
_symmetry_equiv_pos_as_xyz
1 x,y,z
2 -x,1/2+y,1/2-z
3 -x,-y,-z
4 x,1/2-y,1/2+z
_cell_length_a                   4.4590(17)
_cell_length_b                   17.667(7)
_cell_length_c                   24.108(9)
_cell_angle_alpha                90
_cell_angle_beta                 93.963(6)
_cell_angle_gamma                90
_cell_volume                     1894.62
_exptl_crystal_colour            pink
_exptl_crystal_description       block
_cell_formula_units_Z            4
loop_
_atom_site_label
_atom_site_type_symbol
_atom_site_fract_x
_atom_site_fract_y
_atom_site_fract_z
F1 F 0.6982(6) 0.40396(14) -0.02930(9)
N1 N 0.2004(7) 0.09109(15) 0.05100(11)
H1 H 0.2786 0.0556 0.0323
N2 N 0.1059(6) 0.14349(14) 0.13443(11)
N3 N 0.6147(8) -0.01759(17) 0.10865(13)
O1 O 0.5821(7) -0.02340(13) 0.05750(11)
O2 O 0.7889(7) -0.05862(15) 0.13638(11)
O3 O 0.1310(5) 0.05326(12) 0.30270(8)
O4 O 0.3099(5) 0.17680(13) 0.30173(9)
F2 F -0.5342(5) 0.35968(12) 0.19591(9)
C1 C 0.5338(9) 0.3418(2) -0.01712(18)
C2 C 0.5022(10) 0.2857(2) -0.05531(16)
H2 H 0.5912 0.2891 -0.0890
C3 C 0.3337(9) 0.2234(2) -0.04266(13)
H3 H 0.3089 0.1844 -0.0685
C4 C 0.2006(8) 0.2173(2) 0.00725(13)
C5 C 0.2415(9) 0.2762(2) 0.04488(14)
H4 H 0.1546 0.2736 0.0788
C6 C 0.4099(9) 0.3390(2) 0.03267(15)
H5 H 0.4377 0.3784 0.0581
C7 C 0.0216(8) 0.1483(2) 0.02077(13)
H6 H -0.1421 0.1635 0.0428
H7 H -0.0657 0.1264 -0.0136
C8 C 0.2505(8) 0.09040(19) 0.10657(13)
C9 C 0.4469(8) 0.03895(18) 0.13593(13)
C10 C 0.4829(8) 0.04224(17) 0.19351(13)
H8 H 0.6101 0.0084 0.2131
C11 C 0.3291(7) 0.09593(18) 0.22131(13)
C12 C 0.1462(7) 0.14581(18) 0.18961(13)
C13 C -0.0019(7) 0.20624(18) 0.21879(13)
C14 C 0.0889(8) 0.21910(19) 0.27389(14)
C15 C -0.0242(9) 0.2799(2) 0.30238(15)
H9 H 0.0411 0.2888 0.3393
C16 C -0.2332(9) 0.3268(2) 0.27564(18)
H10 H -0.3127 0.3674 0.2943
C17 C -0.3222(9) 0.3131(2) 0.22159(17)
C18 C -0.2165(8) 0.2544(2) 0.19242(14)
H11 H -0.2852 0.2463 0.1556
C19 C 0.3495(8) 0.10126(19) 0.28335(13)
H12 H 0.5481 0.0834 0.2976
C20 C 0.1487(9) 0.0473(2) 0.36244(13)
H13 H 0.0422 0.0891 0.3782
H14 H 0.3571 0.0493 0.3768
C21 C 0.0121(10) -0.0257(2) 0.37829(15)
H15 H -0.1909 -0.0285 0.3623
H16 H 0.0123 -0.0287 0.4180
H17 H 0.1266 -0.0669 0.3647
loop_
_geom_bond_atom_site_label_1
_geom_bond_atom_site_label_2
_geom_bond_site_symmetry_1
_geom_bond_site_symmetry_2
F1 C1 1_555 1_555
N1 H1 1_555 1_555
N2 C8 1_555 1_555
N3 O1 1_555 1_555
O2 N3 1_555 1_555
O3 C19 1_555 1_555
O4 C14 1_555 1_555
F2 C17 1_555 1_555
C1 C2 1_555 1_555
C2 H2 1_555 1_555
C3 C2 1_555 1_555
H3 C3 1_555 1_555
C4 C3 1_555 1_555
C5 C4 1_555 1_555
H4 C5 1_555 1_555
C6 C1 1_555 1_555
H5 C6 1_555 1_555
C7 N1 1_555 1_555
H6 C7 1_555 1_555
H7 C7 1_555 1_555
C8 N1 1_555 1_555
C9 N3 1_555 1_555
C10 C9 1_555 1_555
H8 C10 1_555 1_555
C11 C10 1_555 1_555
C12 N2 1_555 1_555
C13 C12 1_555 1_555
C14 C13 1_555 1_555
C15 C14 1_555 1_555
H9 C15 1_555 1_555
C16 C15 1_555 1_555
H10 C16 1_555 1_555
C17 C16 1_555 1_555
C18 C13 1_555 1_555
H11 C18 1_555 1_555
C19 O4 1_555 1_555
H12 C19 1_555 1_555
C20 O3 1_555 1_555
H13 C20 1_555 1_555
H14 C20 1_555 1_555
C21 C20 1_555 1_555
H15 C21 1_555 1_555
H16 C21 1_555 1_555
H17 C21 1_555 1_555
C4 C7 1_555 1_555
C5 C6 1_555 1_555
C8 C9 1_555 1_555
C11 C12 1_555 1_555
C11 C19 1_555 1_555
C17 C18 1_555 1_555

#END
