
#######################################################################
#
#                 Cambridge Crystallographic Data Centre
#                                CCDC 
#
#######################################################################
#
# If this CIF has been generated from an entry in the Cambridge 
# Structural Database, then it will include bibliographic, chemical, 
# crystal, experimental, refinement or atomic coordinate data resulting 
# from the CCDC's data processing and validation procedures.
#
#######################################################################

data_TIDBOZ
_chemical_formula_moiety         'C11 H12 N3 1+,F6 P1 1-'
_chemical_name_systematic        
'2-((Pyridin-2-ylamino)methyl)pyridinium hexafluorophosphate'
_symmetry_cell_setting           monoclinic
_symmetry_space_group_name_H-M   'C 2/c'
_symmetry_Int_Tables_number      15
_space_group_name_Hall           '-C 2yn'
loop_
_symmetry_equiv_pos_site_id
_symmetry_equiv_pos_as_xyz
1 x,y,z
2 -x,y,1/2-z
3 1/2+x,1/2+y,z
4 1/2-x,1/2+y,1/2-z
5 -x,-y,-z
6 x,-y,1/2+z
7 1/2-x,1/2-y,-z
8 1/2+x,1/2-y,1/2+z
_cell_length_a                   10.0830(4)
_cell_length_b                   13.1064(5)
_cell_length_c                   23.2914(13)
_cell_angle_alpha                90
_cell_angle_beta                 103.232(4)
_cell_angle_gamma                90
_cell_volume                     2996.28
_exptl_crystal_colour            yellowish
_exptl_crystal_description       prism
_cell_formula_units_Z            8
loop_
_atom_site_label
_atom_site_type_symbol
_atom_site_fract_x
_atom_site_fract_y
_atom_site_fract_z
P1 P 0.52776(7) 0.63382(5) 0.40536(3)
F1 F 0.51150(16) 0.61072(13) 0.47456(7)
F2 F 0.35722(14) 0.61715(12) 0.37962(7)
F3 F 0.54193(17) 0.65545(12) 0.33520(7)
F4 F 0.69495(15) 0.64868(13) 0.42938(8)
F5 F 0.54810(16) 0.50784(11) 0.39648(8)
F6 F 0.50275(16) 0.75819(11) 0.41338(7)
N1 N 0.2556(2) 0.5188(2) 0.48167(11)
H1 H 0.334(4) 0.496(5) 0.501(3)
N2 N 0.2052(3) 0.34424(18) 0.35514(11)
H2 H 0.143(3) 0.2981(19) 0.3498(16)
N3 N 0.2968(2) 0.46231(18) 0.30071(10)
C1 C 0.1990(4) 0.5971(3) 0.50393(16)
H3 H 0.2467 0.6285 0.5383
C2 C 0.0753(4) 0.6311(3) 0.47774(19)
H4 H 0.0361 0.6852 0.4938
C3 C 0.0070(4) 0.5849(3) 0.4269(2)
H5 H -0.0788 0.6084 0.4077
C4 C 0.0641(3) 0.5047(3) 0.40420(16)
H6 H 0.0168 0.4725 0.3701
C5 C 0.1915(3) 0.4718(2) 0.43188(12)
C6 C 0.2684(3) 0.3849(2) 0.41241(12)
H7 H 0.3593 0.4082 0.4117
H8 H 0.2775 0.3305 0.4413
C7 C 0.2266(3) 0.37550(19) 0.30358(12)
C8 C 0.1772(3) 0.3218(2) 0.25102(14)
H9 H 0.1259 0.2629 0.2512
C9 C 0.2040(3) 0.3555(3) 0.20018(14)
H10 H 0.1724 0.3186 0.1657
C10 C 0.2788(3) 0.4454(3) 0.19833(15)
H11 H 0.2965 0.4689 0.1632
C11 C 0.3238(3) 0.4961(2) 0.24928(15)
H12 H 0.3744 0.5555 0.2494
H13? H 0.325(6) 0.501(4) 0.3311(18)
loop_
_geom_bond_atom_site_label_1
_geom_bond_atom_site_label_2
_geom_bond_site_symmetry_1
_geom_bond_site_symmetry_2
P1 F1 1_555 1_555
F2 P1 1_555 1_555
F3 P1 1_555 1_555
F4 P1 1_555 1_555
F5 P1 1_555 1_555
F6 P1 1_555 1_555
N1 H1 1_555 1_555
N2 H2 1_555 1_555
N3 C7 1_555 1_555
C1 N1 1_555 1_555
H3 C1 1_555 1_555
C2 C1 1_555 1_555
H4 C2 1_555 1_555
C3 C2 1_555 1_555
H5 C3 1_555 1_555
C4 C3 1_555 1_555
H6 C4 1_555 1_555
C5 N1 1_555 1_555
C6 N2 1_555 1_555
H7 C6 1_555 1_555
H8 C6 1_555 1_555
C7 N2 1_555 1_555
C8 C7 1_555 1_555
H9 C8 1_555 1_555
C9 C8 1_555 1_555
H10 C9 1_555 1_555
C10 C9 1_555 1_555
H11 C10 1_555 1_555
C11 N3 1_555 1_555
H12 C11 1_555 1_555
C4 C5 1_555 1_555
C5 C6 1_555 1_555
C10 C11 1_555 1_555

#END
