
#######################################################################
#
#                 Cambridge Crystallographic Data Centre
#                                CCDC 
#
#######################################################################
#
# If this CIF has been generated from an entry in the Cambridge 
# Structural Database, then it will include bibliographic, chemical, 
# crystal, experimental, refinement or atomic coordinate data resulting 
# from the CCDC's data processing and validation procedures.
#
#######################################################################

data_TIDBIT
_chemical_formula_moiety         'C11 H12 N3 1+,F6 P1 1-'
_chemical_name_systematic        
'2-((Pyridin-3-ylmethyl)amino)pyridinium hexafluorophosphate'
_symmetry_cell_setting           monoclinic
_symmetry_space_group_name_H-M   'P 21/c'
_symmetry_Int_Tables_number      14
_space_group_name_Hall           '-P 2ybc'
loop_
_symmetry_equiv_pos_site_id
_symmetry_equiv_pos_as_xyz
1 x,y,z
2 -x,1/2+y,1/2-z
3 -x,-y,-z
4 x,1/2-y,1/2+z
_cell_length_a                   7.3681(15)
_cell_length_b                   12.231(2)
_cell_length_c                   15.253(3)
_cell_angle_alpha                90
_cell_angle_beta                 98.31(3)
_cell_angle_gamma                90
_cell_volume                     1360.16
_exptl_crystal_colour            yellowish
_exptl_crystal_description       prism
_cell_formula_units_Z            4
loop_
_atom_site_label
_atom_site_type_symbol
_atom_site_fract_x
_atom_site_fract_y
_atom_site_fract_z
P1 P 0.44245(12) 0.14006(7) 0.69558(6)
F1 F 0.6618(3) 0.14487(19) 0.70768(16)
F2 F 0.2254(3) 0.1326(2) 0.68483(17)
F3 F 0.4442(3) 0.2044(2) 0.78617(15)
F4 F 0.4572(4) 0.0291(2) 0.75079(18)
F5 F 0.4418(4) 0.0735(3) 0.60648(16)
F6 F 0.4313(5) 0.2494(3) 0.6417(2)
N1 N 0.7307(4) 0.4087(3) 0.4532(2)
H1 H 0.708(7) 0.365(3) 0.407(2)
N2 N 0.8078(5) 0.2561(2) 0.55205(19)
H2 H 0.826(6) 0.227(4) 0.6041(15)
N3 N 0.9524(5) 0.1263(2) 0.27688(18)
C1 C 0.7121(5) 0.5204(3) 0.4455(2)
H3 H 0.6728 0.5507 0.3901
C2 C 0.7501(5) 0.5882(3) 0.5175(3)
H4 H 0.7372 0.6636 0.5117
C3 C 0.8075(5) 0.5412(3) 0.5978(2)
H5 H 0.8345 0.5855 0.6475
C4 C 0.8257(4) 0.4321(2) 0.60639(17)
H6 H 0.8658 0.4032 0.6622
C5 C 0.7882(4) 0.3635(3) 0.5374(2)
C6 C 0.7497(6) 0.1741(3) 0.4857(3)
H7 H 0.6365 0.1979 0.4504
H8 H 0.7244 0.1066 0.5150
C7 C 0.8378(5) 0.1473(2) 0.3345(2)
H9 H 0.7150 0.1597 0.3126
C8 C 0.8905(5) 0.1519(2) 0.4249(2)
C9 C 1.0715(5) 0.1303(3) 0.4563(2)
H10 H 1.1124 0.1314 0.5169
C10 C 1.1912(5) 0.1073(3) 0.3982(3)
H11 H 1.3135 0.0917 0.4187
C11 C 1.1282(6) 0.1077(3) 0.3095(3)
H12 H 1.2109 0.0945 0.2701
loop_
_geom_bond_atom_site_label_1
_geom_bond_atom_site_label_2
_geom_bond_site_symmetry_1
_geom_bond_site_symmetry_2
P1 F1 1_555 1_555
F2 P1 1_555 1_555
F3 P1 1_555 1_555
F4 P1 1_555 1_555
F5 P1 1_555 1_555
F6 P1 1_555 1_555
N1 H1 1_555 1_555
N2 H2 1_555 1_555
N3 C7 1_555 1_555
C1 N1 1_555 1_555
H3 C1 1_555 1_555
C2 C1 1_555 1_555
H4 C2 1_555 1_555
C3 C2 1_555 1_555
H5 C3 1_555 1_555
C4 C3 1_555 1_555
H6 C4 1_555 1_555
C5 N1 1_555 1_555
C6 N2 1_555 1_555
H7 C6 1_555 1_555
H8 C6 1_555 1_555
C7 H9 1_555 1_555
C8 C6 1_555 1_555
C9 C8 1_555 1_555
H10 C9 1_555 1_555
C10 C9 1_555 1_555
H11 C10 1_555 1_555
C11 N3 1_555 1_555
H12 C11 1_555 1_555
N2 C5 1_555 1_555
C4 C5 1_555 1_555
C7 C8 1_555 1_555
C10 C11 1_555 1_555

#END
