
#######################################################################
#
#                 Cambridge Crystallographic Data Centre
#                                CCDC 
#
#######################################################################
#
# If this CIF has been generated from an entry in the Cambridge 
# Structural Database, then it will include bibliographic, chemical, 
# crystal, experimental, refinement or atomic coordinate data resulting 
# from the CCDC's data processing and validation procedures.
#
#######################################################################

data_TIDCIU
_chemical_formula_moiety         'C11 H13 N3 2+,2(N1 O3 1-)'
_chemical_name_systematic        
'2-((Pyridinium-4-ylmethyl)amino)pyridinium dinitrate'
_symmetry_cell_setting           monoclinic
_symmetry_space_group_name_H-M   'P 21/n'
_symmetry_Int_Tables_number      14
_space_group_name_Hall           '-P 2yn'
loop_
_symmetry_equiv_pos_site_id
_symmetry_equiv_pos_as_xyz
1 x,y,z
2 1/2-x,1/2+y,1/2-z
3 -x,-y,-z
4 1/2+x,1/2-y,1/2+z
_cell_length_a                   9.3186(19)
_cell_length_b                   13.311(3)
_cell_length_c                   11.444(2)
_cell_angle_alpha                90
_cell_angle_beta                 95.92(3)
_cell_angle_gamma                90
_cell_volume                     1411.94
_exptl_crystal_colour            yellowish
_exptl_crystal_description       prism
_cell_formula_units_Z            4
loop_
_atom_site_label
_atom_site_type_symbol
_atom_site_fract_x
_atom_site_fract_y
_atom_site_fract_z
O1 O 0.12098(17) -0.03199(11) -0.05266(14)
O2 O 0.3327(2) -0.09967(14) -0.00577(17)
O3 O 0.1958(2) -0.15358(16) -0.15360(19)
N1 N 0.2181(2) -0.09503(13) -0.07169(17)
O4 O 0.3356(2) 0.42160(13) 0.19755(15)
O5 O 0.3795(2) 0.36133(15) 0.03100(17)
O6 O 0.1603(2) 0.39489(18) 0.06264(18)
N2 N 0.2916(3) 0.39273(14) 0.09651(19)
N3 N 0.6374(2) 0.38170(14) 0.23357(17)
H1 H 0.5436(11) 0.382(2) 0.223(2)
N4 N 0.6351(2) 0.26589(14) 0.38552(16)
H2 H 0.686(3) 0.2217(15) 0.427(2)
N5 N 0.2175(3) 0.09455(14) 0.14192(19)
H3 H 0.172(3) 0.0544(18) 0.090(2)
C1 C 0.7089(3) 0.44046(19) 0.1614(2)
H4 H 0.6563 0.4800 0.1053
C2 C 0.8560(3) 0.44275(19) 0.1694(2)
H5 H 0.9032 0.4820 0.1181
C3 C 0.9347(3) 0.38506(17) 0.2560(2)
H6 H 1.0350 0.3869 0.2641
C4 C 0.8635(2) 0.32656(17) 0.3280(2)
H7 H 0.9156 0.2880 0.3855
C5 C 0.7090(2) 0.32341(15) 0.31657(18)
C6 C 0.4782(2) 0.26745(16) 0.39282(19)
H8 H 0.4454 0.3365 0.3851
H9 H 0.4602 0.2445 0.4704
C7 C 0.3878(2) 0.20463(14) 0.30270(18)
C8 C 0.2386(3) 0.19520(17) 0.3100(2)
H10 H 0.1966 0.2267 0.3705
C9 C 0.1539(3) 0.13904(18) 0.2271(3)
H11 H 0.0552 0.1326 0.2310
C10 C 0.3596(3) 0.10189(16) 0.1329(2)
H12 H 0.3989 0.0690 0.0720
C11 C 0.4476(3) 0.15710(15) 0.21210(19)
H13 H 0.5458 0.1624 0.2049
loop_
_geom_bond_atom_site_label_1
_geom_bond_atom_site_label_2
_geom_bond_site_symmetry_1
_geom_bond_site_symmetry_2
O1 N1 1_555 1_555
O2 N1 1_555 1_555
O3 N1 1_555 1_555
O4 N2 1_555 1_555
O5 N2 1_555 1_555
O6 N2 1_555 1_555
N3 H1 1_555 1_555
N4 H2 1_555 1_555
N5 H3 1_555 1_555
C1 N3 1_555 1_555
H4 C1 1_555 1_555
C2 C1 1_555 1_555
H5 C2 1_555 1_555
C3 C2 1_555 1_555
H6 C3 1_555 1_555
C4 C3 1_555 1_555
H7 C4 1_555 1_555
C5 N3 1_555 1_555
C6 N4 1_555 1_555
H8 C6 1_555 1_555
H9 C6 1_555 1_555
C7 C6 1_555 1_555
C8 C7 1_555 1_555
H10 C8 1_555 1_555
C9 N5 1_555 1_555
H11 C9 1_555 1_555
C10 N5 1_555 1_555
H12 C10 1_555 1_555
C11 C7 1_555 1_555
H13 C11 1_555 1_555
N4 C5 1_555 1_555
C4 C5 1_555 1_555
C8 C9 1_555 1_555
C10 C11 1_555 1_555

#END
