
#######################################################################
#
#                 Cambridge Crystallographic Data Centre
#                                CCDC 
#
#######################################################################
#
# If this CIF has been generated from an entry in the Cambridge 
# Structural Database, then it will include bibliographic, chemical, 
# crystal, experimental, refinement or atomic coordinate data resulting 
# from the CCDC's data processing and validation procedures.
#
#######################################################################

data_TIDCAN
_chemical_formula_moiety         'C24 H20 N2'
_chemical_name_systematic        3-methyl-N,4,6-triphenylpyridin-2-amine
_symmetry_cell_setting           orthorhombic
_symmetry_space_group_name_H-M   'P n a 21'
_symmetry_Int_Tables_number      33
_space_group_name_Hall           'P 2c -2n'
loop_
_symmetry_equiv_pos_site_id
_symmetry_equiv_pos_as_xyz
1 x,y,z
2 -x,-y,1/2+z
3 1/2-x,1/2+y,1/2+z
4 1/2+x,1/2-y,z
_cell_length_a                   10.53852(15)
_cell_length_b                   11.82433(16)
_cell_length_c                   14.4092(2)
_cell_angle_alpha                90
_cell_angle_beta                 90
_cell_angle_gamma                90
_cell_volume                     1795.54
_cell_formula_units_Z            4
loop_
_atom_site_label
_atom_site_type_symbol
_atom_site_fract_x
_atom_site_fract_y
_atom_site_fract_z
C1 C 0.44781(19) 0.96786(17) 0.70389(15)
C2 C 0.3899(2) 0.89428(17) 0.64301(15)
H1 H 0.3326 0.9219 0.5995
C3 C 0.4167(2) 0.77791(17) 0.64615(14)
C4 C 0.50598(19) 0.73927(17) 0.70965(15)
C5 C 0.56287(19) 0.82205(17) 0.76772(15)
C6 C 0.4203(2) 1.09087(17) 0.70377(15)
C7 C 0.4961(3) 1.1660(2) 0.7524(2)
H2 H 0.5656 1.1387 0.7854
C8 C 0.4708(3) 1.2804(2) 0.7531(3)
H3 H 0.5227 1.3288 0.7869
C9 C 0.3702(3) 1.3233(2) 0.7047(2)
H4 H 0.3539 1.4006 0.7047
C10 C 0.2940(3) 1.2505(2) 0.65612(19)
H5 H 0.2251 1.2787 0.6231
C11 C 0.3181(3) 1.1357(2) 0.65559(19)
H6 H 0.2650 1.0877 0.6224
C12 C 0.3468(2) 0.70361(17) 0.58037(16)
C13 C 0.3429(3) 0.7299(2) 0.48620(18)
H7 H 0.3900 0.7907 0.4639
C14 C 0.2700(3) 0.6669(2) 0.42527(19)
H8 H 0.2687 0.6854 0.3625
C15 C 0.1993(3) 0.5768(2) 0.45726(19)
H9 H 0.1493 0.5352 0.4165
C16 C 0.2035(2) 0.5488(2) 0.55032(18)
H10 H 0.1569 0.4874 0.5720
C17 C 0.2762(2) 0.61137(17) 0.61121(16)
H11 H 0.2781 0.5917 0.6737
C18 C 0.5466(2) 0.61710(18) 0.71584(19)
H12 H 0.5173 0.5854 0.7733
H13 H 0.6375 0.6126 0.7132
H14 H 0.5108 0.5756 0.6649
C19 C 0.7480(2) 0.84276(18) 0.88002(15)
C20 C 0.7564(3) 0.9595(2) 0.88913(18)
H15 H 0.6954 1.0059 0.8623
C21 C 0.8567(3) 1.0065(2) 0.93868(19)
H16 H 0.8622 1.0848 0.9440
C22 C 0.9476(3) 0.9405(3) 0.97986(19)
H17 H 1.0148 0.9733 1.0118
C23 C 0.9374(3) 0.8241(3) 0.97295(18)
H18 H 0.9969 0.7780 1.0020
C24 C 0.8395(2) 0.7762(2) 0.92335(17)
H19 H 0.8344 0.6979 0.9187
N1 N 0.53383(17) 0.93140(14) 0.76682(13)
N2 N 0.6557(2) 0.78523(17) 0.82895(15)
H20 H 0.664(3) 0.713(2) 0.834(2)
loop_
_geom_bond_atom_site_label_1
_geom_bond_atom_site_label_2
_geom_bond_site_symmetry_1
_geom_bond_site_symmetry_2
C1 C2 1_555 1_555
C2 H1 1_555 1_555
C3 C2 1_555 1_555
C4 C3 1_555 1_555
C5 C4 1_555 1_555
C6 C1 1_555 1_555
C7 C6 1_555 1_555
H2 C7 1_555 1_555
C8 C7 1_555 1_555
H3 C8 1_555 1_555
C9 C8 1_555 1_555
H4 C9 1_555 1_555
C10 C9 1_555 1_555
H5 C10 1_555 1_555
C11 C6 1_555 1_555
H6 C11 1_555 1_555
C12 C3 1_555 1_555
C13 C12 1_555 1_555
H7 C13 1_555 1_555
C14 C13 1_555 1_555
H8 C14 1_555 1_555
C15 C14 1_555 1_555
H9 C15 1_555 1_555
C16 C15 1_555 1_555
H10 C16 1_555 1_555
C17 C12 1_555 1_555
H11 C17 1_555 1_555
C18 C4 1_555 1_555
H12 C18 1_555 1_555
H13 C18 1_555 1_555
H14 C18 1_555 1_555
C19 C20 1_555 1_555
C20 H15 1_555 1_555
C21 C20 1_555 1_555
H16 C21 1_555 1_555
C22 C21 1_555 1_555
H17 C22 1_555 1_555
C23 C22 1_555 1_555
H18 C23 1_555 1_555
C24 C19 1_555 1_555
H19 C24 1_555 1_555
N1 C1 1_555 1_555
N2 C5 1_555 1_555
H20 N2 1_555 1_555
C5 N1 1_555 1_555
C10 C11 1_555 1_555
C16 C17 1_555 1_555
C19 N2 1_555 1_555
C23 C24 1_555 1_555

#END
