
#######################################################################
#
#                 Cambridge Crystallographic Data Centre
#                                CCDC 
#
#######################################################################
#
# If this CIF has been generated from an entry in the Cambridge 
# Structural Database, then it will include bibliographic, chemical, 
# crystal, experimental, refinement or atomic coordinate data resulting 
# from the CCDC's data processing and validation procedures.
#
#######################################################################

data_TIDCUG
_chemical_formula_moiety         'C11 H13 N3 2+,2(N1 O3 1-)'
_chemical_name_systematic        
'2-((Pyridinium-2-ylmethyl)amino)pyridinium dinitrate'
_symmetry_cell_setting           monoclinic
_symmetry_space_group_name_H-M   'P 21/n'
_symmetry_Int_Tables_number      14
_space_group_name_Hall           '-P 2yn'
loop_
_symmetry_equiv_pos_site_id
_symmetry_equiv_pos_as_xyz
1 x,y,z
2 1/2-x,1/2+y,1/2-z
3 -x,-y,-z
4 1/2+x,1/2-y,1/2+z
_cell_length_a                   9.4912(6)
_cell_length_b                   14.4740(8)
_cell_length_c                   10.4976(10)
_cell_angle_alpha                90
_cell_angle_beta                 104.455(8)
_cell_angle_gamma                90
_cell_volume                     1396.46
_exptl_crystal_colour            yellowish
_exptl_crystal_description       prism
_cell_formula_units_Z            4
loop_
_atom_site_label
_atom_site_type_symbol
_atom_site_fract_x
_atom_site_fract_y
_atom_site_fract_z
O1 O 0.7733(4) 0.38004(18) 0.5103(3)
O2 O 0.6454(3) 0.3482(3) 0.3222(3)
O3 O 0.8602(2) 0.39768(17) 0.3447(2)
N1 N 0.7597(3) 0.37634(18) 0.3918(3)
O4 O 0.8405(2) 0.33021(15) 0.8248(2)
O5 O 0.8487(3) 0.47607(18) 0.8456(3)
O6 O 0.6439(2) 0.40964(16) 0.7609(2)
N2 N 0.7759(3) 0.40609(19) 0.8117(2)
N3 N 0.6410(2) 0.11851(16) 0.4417(2)
H1 H 0.5488(13) 0.117(2) 0.436(3)
N4 N 0.6636(2) 0.21093(16) 0.6277(2)
H2 H 0.721(3) 0.2498(16) 0.677(2)
N5 N 0.4505(2) 0.33556(16) 0.4993(2)
H3 H 0.5381(15) 0.334(2) 0.492(3)
C1 C 0.7233(3) 0.16559(17) 0.5430(3)
C2 C 0.8735(3) 0.16618(19) 0.5554(3)
H4 H 0.9344 0.1997 0.6226
C3 C 0.9297(3) 0.1182(2) 0.4700(4)
H5 H 1.0296 0.1193 0.4788
C4 C 0.8421(4) 0.0672(2) 0.3694(4)
H6 H 0.8818 0.0330 0.3118
C5 C 0.6977(4) 0.0688(2) 0.3576(3)
H7 H 0.6361 0.0353 0.2907
C6 C 0.5173(3) 0.20032(19) 0.6407(3)
H8 H 0.5200 0.1995 0.7337
H9 H 0.4813 0.1407 0.6047
C7 C 0.4108(3) 0.27273(18) 0.5756(2)
C8 C 0.2723(3) 0.2765(2) 0.5922(3)
H10 H 0.2429 0.2341 0.6468
C9 C 0.1777(3) 0.3421(2) 0.5289(3)
H11 H 0.0836 0.3442 0.5401
C10 C 0.2212(3) 0.4053(2) 0.4482(3)
H12 H 0.1569 0.4499 0.4037
C11 C 0.3600(3) 0.40104(19) 0.4351(3)
H13 H 0.3921 0.4434 0.3819
loop_
_geom_bond_atom_site_label_1
_geom_bond_atom_site_label_2
_geom_bond_site_symmetry_1
_geom_bond_site_symmetry_2
O1 N1 1_555 1_555
O2 N1 1_555 1_555
O3 N1 1_555 1_555
O4 N2 1_555 1_555
O5 N2 1_555 1_555
O6 N2 1_555 1_555
N3 H1 1_555 1_555
N4 H2 1_555 1_555
N5 H3 1_555 1_555
C1 N3 1_555 1_555
C2 C1 1_555 1_555
H4 C2 1_555 1_555
C3 C2 1_555 1_555
H5 C3 1_555 1_555
C4 C3 1_555 1_555
H6 C4 1_555 1_555
C5 N3 1_555 1_555
H7 C5 1_555 1_555
C6 N4 1_555 1_555
H8 C6 1_555 1_555
H9 C6 1_555 1_555
C7 N5 1_555 1_555
C8 C7 1_555 1_555
H10 C8 1_555 1_555
C9 C8 1_555 1_555
H11 C9 1_555 1_555
C10 C9 1_555 1_555
H12 C10 1_555 1_555
C11 N5 1_555 1_555
H13 C11 1_555 1_555
N4 C1 1_555 1_555
C4 C5 1_555 1_555
C6 C7 1_555 1_555
C10 C11 1_555 1_555

#END
