
#######################################################################
#
#                 Cambridge Crystallographic Data Centre
#                                CCDC 
#
#######################################################################
#
# If this CIF has been generated from an entry in the Cambridge 
# Structural Database, then it will include bibliographic, chemical, 
# crystal, experimental, refinement or atomic coordinate data resulting 
# from the CCDC's data processing and validation procedures.
#
#######################################################################

data_TIDCOZ
_chemical_formula_moiety         'C28 H29 N1 O3'
_chemical_name_systematic        
1-((S)-(1R)-1-(1-Naphthyl)ethan-1-amine((4S)-2,2-dimethyl-1,3-dioxolan-4-yl)methyl)-2-naphthol
_symmetry_cell_setting           orthorhombic
_symmetry_space_group_name_H-M   'P 21 21 21'
_symmetry_Int_Tables_number      19
_space_group_name_Hall           'P 2ac 2ab'
loop_
_symmetry_equiv_pos_site_id
_symmetry_equiv_pos_as_xyz
1 x,y,z
2 1/2-x,-y,1/2+z
3 -x,1/2+y,1/2-z
4 1/2+x,1/2-y,-z
_cell_length_a                   9.2441(8)
_cell_length_b                   11.8452(10)
_cell_length_c                   21.5940(19)
_cell_angle_alpha                90
_cell_angle_beta                 90
_cell_angle_gamma                90
_cell_volume                     2364.5
_exptl_crystal_colour            colorless
_exptl_crystal_description       prismatic
_chemical_melting_point          138-140deg.C
_cell_formula_units_Z            4
loop_
_atom_site_label
_atom_site_type_symbol
_atom_site_fract_x
_atom_site_fract_y
_atom_site_fract_z
N1 N 0.8561(3) 0.2410(2) 0.81599(10)
H1 H 0.8638 0.2216 0.7777
C1 C 0.9415(3) 0.1886(2) 0.86670(13)
H2 H 0.9931 0.2493 0.8883
C2 C 1.0539(4) 0.1099(3) 0.83923(17)
H3 H 1.1089 0.1495 0.8084
H4 H 1.0065 0.0464 0.8205
H5 H 1.1176 0.0840 0.8714
C3 C 0.8475(3) 0.1283(2) 0.91415(13)
C4 C 0.7643(4) 0.0384(3) 0.89541(18)
H6 H 0.7638 0.0181 0.8538
C5 C 0.6808(5) -0.0230(3) 0.9372(2)
H7 H 0.6231 -0.0819 0.9229
C6 C 0.6827(5) 0.0025(3) 0.9987(2)
H8 H 0.6289 -0.0405 1.0264
C7 C 0.7652(4) 0.0930(3) 1.02032(16)
C8 C 0.8470(3) 0.1597(2) 0.97800(13)
C9 C 0.9231(3) 0.2545(3) 1.00149(15)
H9 H 0.9762 0.2998 0.9746
C10 C 0.9191(5) 0.2798(4) 1.06301(17)
H10 H 0.9691 0.3425 1.0776
C11 C 0.8410(5) 0.2129(5) 1.10456(17)
H11 H 0.8401 0.2310 1.1465
C12 C 0.7662(5) 0.1215(5) 1.08392(18)
H12 H 0.7151 0.0772 1.1119
C13 C 0.8370(3) 0.4388(2) 0.85233(12)
C14 C 0.9556(3) 0.4709(3) 0.81790(13)
O1 O 1.0169(3) 0.4040(2) 0.77371(12)
H13 H 0.991(6) 0.3373(18) 0.778(2)
C15 C 1.0226(4) 0.5763(3) 0.82679(16)
H14 H 1.1014 0.5965 0.8024
C16 C 0.9733(4) 0.6486(3) 0.87050(17)
H15 H 1.0166 0.7191 0.8748
C17 C 0.8569(4) 0.6185(2) 0.90968(15)
C18 C 0.7874(3) 0.5126(2) 0.90027(13)
C19 C 0.6695(4) 0.4869(3) 0.94022(15)
H16 H 0.6193 0.4196 0.9348
C20 C 0.6287(5) 0.5593(3) 0.98641(19)
H17 H 0.5518 0.5398 1.0120
C21 C 0.6988(5) 0.6606(4) 0.9959(2)
H18 H 0.6698 0.7083 1.0278
C22 C 0.8118(5) 0.6907(3) 0.9580(2)
H19 H 0.8589 0.7592 0.9642
C23 C 0.7573(3) 0.3293(2) 0.83805(12)
H20 H 0.7121 0.3026 0.8764
C24 C 0.6341(5) 0.3535(3) 0.78996(17)
H21 H 0.5638 0.4069 0.8072
O2 O 0.5651(4) 0.2512(3) 0.77412(15)
C25 C 0.5139(4) 0.2619(3) 0.71044(17)
O3 O 0.5577(4) 0.3712(3) 0.68979(16)
C26 C 0.6882(5) 0.3953(4) 0.7261(2)
H22 H 0.7114 0.4751 0.7265
H23 H 0.7711 0.3525 0.7117
C27 C 0.5646(10) 0.1745(7) 0.6684(4)
H24 H 0.6667 0.1834 0.6617
H25 H 0.5146 0.1809 0.6296
H26 H 0.5461 0.1016 0.6861
C28 C 0.3532(6) 0.2711(5) 0.7121(3)
H27 H 0.3178 0.2878 0.6713
H28 H 0.3256 0.3304 0.7400
H29 H 0.3127 0.2009 0.7260
C29? C 0.660(2) 0.3392(11) 0.7881(5)
H30? H 0.5760 0.3664 0.8111
O4? O 0.6018(13) 0.2353(8) 0.7668(4)
C30? C 0.6605(18) 0.2247(11) 0.7042(6)
O5? O 0.6251(14) 0.3311(8) 0.6815(4)
C31? C 0.6474(18) 0.4160(8) 0.7321(5)
H31? H 0.5655 0.4667 0.7357
H32? H 0.7349 0.4596 0.7256
C32? C 0.812(2) 0.197(3) 0.6986(16)
H33? H 0.8553 0.2427 0.6670
H34? H 0.8221 0.1186 0.6878
H35? H 0.8598 0.2106 0.7374
C33? C 0.561(3) 0.1357(15) 0.6803(9)
H36? H 0.5141 0.1622 0.6433
H37? H 0.4889 0.1189 0.7111
H38? H 0.6149 0.0686 0.6711
loop_
_geom_bond_atom_site_label_1
_geom_bond_atom_site_label_2
_geom_bond_site_symmetry_1
_geom_bond_site_symmetry_2
N1 H1 1_555 1_555
C1 N1 1_555 1_555
H2 C1 1_555 1_555
C2 C1 1_555 1_555
H3 C2 1_555 1_555
H4 C2 1_555 1_555
H5 C2 1_555 1_555
C3 C1 1_555 1_555
C4 C3 1_555 1_555
H6 C4 1_555 1_555
C5 C4 1_555 1_555
H7 C5 1_555 1_555
C6 C5 1_555 1_555
H8 C6 1_555 1_555
C7 C6 1_555 1_555
C8 C3 1_555 1_555
C9 C8 1_555 1_555
H9 C9 1_555 1_555
C10 C9 1_555 1_555
H10 C10 1_555 1_555
C11 C10 1_555 1_555
H11 C11 1_555 1_555
C12 C7 1_555 1_555
H12 C12 1_555 1_555
C13 C14 1_555 1_555
C14 O1 1_555 1_555
O1 H13 1_555 1_555
C15 C14 1_555 1_555
H14 C15 1_555 1_555
C16 C15 1_555 1_555
H15 C16 1_555 1_555
C17 C16 1_555 1_555
C18 C13 1_555 1_555
C19 C18 1_555 1_555
H16 C19 1_555 1_555
C20 C19 1_555 1_555
H17 C20 1_555 1_555
C21 C20 1_555 1_555
H18 C21 1_555 1_555
C22 C17 1_555 1_555
H19 C22 1_555 1_555
C23 N1 1_555 1_555
H20 C23 1_555 1_555
C24 C23 1_555 1_555
H21 C24 1_555 1_555
O2 C24 1_555 1_555
C25 O2 1_555 1_555
O3 C25 1_555 1_555
C26 C24 1_555 1_555
H22 C26 1_555 1_555
H23 C26 1_555 1_555
C27 C25 1_555 1_555
H24 C27 1_555 1_555
H25 C27 1_555 1_555
H26 C27 1_555 1_555
C28 C25 1_555 1_555
H27 C28 1_555 1_555
H28 C28 1_555 1_555
H29 C28 1_555 1_555
C7 C8 1_555 1_555
C11 C12 1_555 1_555
C13 C23 1_555 1_555
C17 C18 1_555 1_555
C21 C22 1_555 1_555
O3 C26 1_555 1_555

#END
