
#######################################################################
#
#                 Cambridge Crystallographic Data Centre
#                                CCDC 
#
#######################################################################
#
# If this CIF has been generated from an entry in the Cambridge 
# Structural Database, then it will include bibliographic, chemical, 
# crystal, experimental, refinement or atomic coordinate data resulting 
# from the CCDC's data processing and validation procedures.
#
#######################################################################

data_TIDCOA
_chemical_formula_moiety         'C11 H13 N3 2+,2(N1 O3 1-)'
_chemical_name_systematic        
'2-((Pyridinium-3-ylmethyl)amino)pyridinium dinitrate'
_symmetry_cell_setting           triclinic
_symmetry_space_group_name_H-M   'P -1'
_symmetry_Int_Tables_number      2
_space_group_name_Hall           '-P 1'
loop_
_symmetry_equiv_pos_site_id
_symmetry_equiv_pos_as_xyz
1 x,y,z
2 -x,-y,-z
_cell_length_a                   5.6882(11)
_cell_length_b                   7.1254(10)
_cell_length_c                   18.859(3)
_cell_angle_alpha                93.019(12)
_cell_angle_beta                 93.569(14)
_cell_angle_gamma                112.646(15)
_cell_volume                     701.628
_exptl_crystal_colour            yellowish
_exptl_crystal_description       prism
_cell_formula_units_Z            2
loop_
_atom_site_label
_atom_site_type_symbol
_atom_site_fract_x
_atom_site_fract_y
_atom_site_fract_z
O1 O 0.4466(5) 1.0962(4) 0.33006(14)
O2 O 0.6869(4) 1.0796(3) 0.42022(12)
O3 O 0.4703(6) 1.2643(5) 0.43041(16)
N1 N 0.5325(5) 1.1472(4) 0.39247(15)
O4 O 1.6903(5) 1.1518(4) 0.05604(12)
O5 O 1.7412(5) 1.2385(4) 0.16701(12)
O6 O 2.0557(4) 1.3577(4) 0.10329(14)
N2 N 1.8274(5) 1.2506(4) 0.10877(14)
N3 N 0.9886(6) 0.7824(4) 0.41025(15)
H1 H 0.964(8) 0.887(4) 0.430(2)
N4 N 0.7281(5) 0.7835(4) 0.30703(13)
H2 H 0.703(7) 0.888(4) 0.323(2)
N5 N 1.1508(6) 0.9218(5) 0.12515(19)
H3 H 1.304(4) 1.018(5) 0.127(3)
C1 C 0.8793(5) 0.7034(4) 0.34202(13)
C2 C 0.9374(6) 0.5425(4) 0.31264(16)
H4 H 0.8669 0.4819 0.2673
C3 C 1.0986(6) 0.4748(4) 0.35111(18)
H5 H 1.1355 0.3675 0.3319
C4 C 1.2041(6) 0.5649(5) 0.41737(19)
H6 H 1.3171 0.5225 0.4431
C5 C 1.1436(5) 0.7126(4) 0.44431(13)
H7 H 1.2140 0.7710 0.4899
C6 C 0.5959(6) 0.7033(6) 0.23862(15)
H8 H 0.4629 0.7556 0.2309
H9 H 0.5129 0.5562 0.2386
C7 C 1.0124(5) 0.8886(4) 0.18399(16)
H10 H 1.0883 0.9577 0.2280
C8 C 0.7606(5) 0.7523(4) 0.17726(14)
C9 C 0.6615(6) 0.6573(6) 0.11104(18)
H11 H 0.4915 0.5664 0.1041
C10 C 0.8064(8) 0.6935(7) 0.05565(19)
H12 H 0.7356 0.6247 0.0113
C11 C 1.0437(5) 0.8229(4) 0.06281(14)
H13 H 1.1390 0.8458 0.0235
loop_
_geom_bond_atom_site_label_1
_geom_bond_atom_site_label_2
_geom_bond_site_symmetry_1
_geom_bond_site_symmetry_2
O1 N1 1_555 1_555
O2 N1 1_555 1_555
O3 N1 1_555 1_555
O4 N2 1_555 1_555
O5 N2 1_555 1_555
O6 N2 1_555 1_555
N3 H1 1_555 1_555
N4 H2 1_555 1_555
N5 H3 1_555 1_555
C1 N3 1_555 1_555
C2 C1 1_555 1_555
H4 C2 1_555 1_555
C3 C2 1_555 1_555
H5 C3 1_555 1_555
C4 C3 1_555 1_555
H6 C4 1_555 1_555
C5 N3 1_555 1_555
H7 C5 1_555 1_555
C6 N4 1_555 1_555
H8 C6 1_555 1_555
H9 C6 1_555 1_555
C7 N5 1_555 1_555
H10 C7 1_555 1_555
C8 C6 1_555 1_555
C9 C8 1_555 1_555
H11 C9 1_555 1_555
C10 C9 1_555 1_555
H12 C10 1_555 1_555
C11 N5 1_555 1_555
H13 C11 1_555 1_555
N4 C1 1_555 1_555
C4 C5 1_555 1_555
C7 C8 1_555 1_555
C10 C11 1_555 1_555

#END
