
#######################################################################
#
#                 Cambridge Crystallographic Data Centre
#                                CCDC 
#
#######################################################################
#
# If this CIF has been generated from an entry in the Cambridge 
# Structural Database, then it will include bibliographic, chemical, 
# crystal, experimental, refinement or atomic coordinate data resulting 
# from the CCDC's data processing and validation procedures.
#
#######################################################################

data_TIDDAN
_chemical_formula_moiety         'C11 H13 N3 2+,2(Cl1 1-)'
_chemical_name_systematic        
'2-((Pyridinium-4-ylmethyl)amino)pyridinium dichloride'
_symmetry_cell_setting           monoclinic
_symmetry_space_group_name_H-M   'P 21/n'
_symmetry_Int_Tables_number      14
_space_group_name_Hall           '-P 2yn'
loop_
_symmetry_equiv_pos_site_id
_symmetry_equiv_pos_as_xyz
1 x,y,z
2 1/2-x,1/2+y,1/2-z
3 -x,-y,-z
4 1/2+x,1/2-y,1/2+z
_cell_length_a                   8.9165(5)
_cell_length_b                   13.8016(8)
_cell_length_c                   10.3354(4)
_cell_angle_alpha                90
_cell_angle_beta                 102.248(5)
_cell_angle_gamma                90
_cell_volume                     1242.94
_exptl_crystal_colour            yellowish
_exptl_crystal_description       prism
_cell_formula_units_Z            4
loop_
_atom_site_label
_atom_site_type_symbol
_atom_site_fract_x
_atom_site_fract_y
_atom_site_fract_z
Cl1 Cl 0.67409(9) 0.60362(6) 0.88964(7)
Cl2 Cl 0.81003(11) 1.08553(8) 1.07249(8)
N1 N 0.3290(3) 0.63359(19) 0.7783(2)
H1 H 0.4280(12) 0.634(2) 0.794(3)
N2 N 0.3106(3) 0.7359(2) 0.5968(2)
H2 H 0.250(3) 0.771(2) 0.539(2)
N3 N 0.7489(6) 0.9315(3) 0.8538(4)
H3 H 0.775(6) 0.977(2) 0.911(3)
C1 C 0.2443(4) 0.6868(2) 0.6814(3)
C2 C 0.0854(4) 0.6881(2) 0.6705(3)
H4 H 0.0235 0.7238 0.6035
C3 C 0.0211(4) 0.6375(2) 0.7570(3)
H5 H -0.0845 0.6395 0.7504
C4 C 0.1130(5) 0.5826(3) 0.8558(3)
H6 H 0.0697 0.5475 0.9155
C5 C 0.2658(5) 0.5809(2) 0.8638(3)
H7 H 0.3283 0.5434 0.9283
C6 C 0.4716(4) 0.7355(2) 0.5953(3)
H8 H 0.4833 0.7496 0.5060
H9 H 0.5115 0.6708 0.6175
C7 C 0.8075(5) 0.8826(4) 0.7653(5)
H10 H 0.9095 0.8913 0.7601
C8 C 0.7173(4) 0.8202(3) 0.6830(3)
H11 H 0.7582 0.7859 0.6212
C9 C 0.5673(4) 0.8066(2) 0.6889(3)
C10 C 0.5081(4) 0.8585(2) 0.7795(3)
H12 H 0.4058 0.8514 0.7846
C11 C 0.6020(7) 0.9206(3) 0.8621(3)
H13 H 0.5636 0.9558 0.9247
loop_
_geom_bond_atom_site_label_1
_geom_bond_atom_site_label_2
_geom_bond_site_symmetry_1
_geom_bond_site_symmetry_2
N1 H1 1_555 1_555
N2 H2 1_555 1_555
N3 H3 1_555 1_555
C1 N1 1_555 1_555
C2 C1 1_555 1_555
H4 C2 1_555 1_555
C3 C2 1_555 1_555
H5 C3 1_555 1_555
C4 C3 1_555 1_555
H6 C4 1_555 1_555
C5 N1 1_555 1_555
H7 C5 1_555 1_555
C6 N2 1_555 1_555
H8 C6 1_555 1_555
H9 C6 1_555 1_555
C7 N3 1_555 1_555
H10 C7 1_555 1_555
C8 C7 1_555 1_555
H11 C8 1_555 1_555
C9 C6 1_555 1_555
C10 C9 1_555 1_555
H12 C10 1_555 1_555
C11 N3 1_555 1_555
H13 C11 1_555 1_555
N2 C1 1_555 1_555
C4 C5 1_555 1_555
C8 C9 1_555 1_555
C10 C11 1_555 1_555

#END
