
#######################################################################
#
#                 Cambridge Crystallographic Data Centre
#                                CCDC 
#
#######################################################################
#
# If this CIF has been generated from an entry in the Cambridge 
# Structural Database, then it will include bibliographic, chemical, 
# crystal, experimental, refinement or atomic coordinate data resulting 
# from the CCDC's data processing and validation procedures.
#
#######################################################################

data_TIDFET
_chemical_formula_moiety         'C16 H12 Cl2 N2 O6'
_chemical_name_systematic        
'3-(2,4-Dichlorophenyl)-4-(2,4-dinitrophenyl)butanoic acid'
_symmetry_cell_setting           monoclinic
_symmetry_space_group_name_H-M   'P 21'
_symmetry_Int_Tables_number      4
_space_group_name_Hall           'P 2yb'
loop_
_symmetry_equiv_pos_site_id
_symmetry_equiv_pos_as_xyz
1 x,y,z
2 -x,1/2+y,-z
_cell_length_a                   8.6929(12)
_cell_length_b                   13.1892(18)
_cell_length_c                   14.975(2)
_cell_angle_alpha                90
_cell_angle_beta                 91.844(3)
_cell_angle_gamma                90
_cell_volume                     1716.03
_exptl_crystal_colour            colorless
_exptl_crystal_description       prismatic
_cell_formula_units_Z            4
loop_
_atom_site_label
_atom_site_type_symbol
_atom_site_fract_x
_atom_site_fract_y
_atom_site_fract_z
Cl1 Cl -0.46505(11) 0.17897(10) 0.72603(7)
Cl2 Cl 0.14440(11) 0.13482(11) 0.72158(6)
N1 N 0.6904(4) -0.1063(3) 0.3583(3)
N2 N 0.1480(5) -0.0380(3) 0.2961(3)
O1 O 0.2468(3) 0.1876(3) 0.29852(16)
O2 O 0.3854(3) 0.1983(3) 0.42474(16)
O3 O 0.7905(4) -0.1333(3) 0.4105(2)
O4 O 0.7085(4) -0.0997(4) 0.2774(2)
O5 O 0.0323(5) 0.0090(3) 0.3126(3)
O6 O 0.1515(11) -0.0952(7) 0.2355(6)
C1 C 0.2604(4) 0.1925(3) 0.3843(2)
C2 C 0.1126(4) 0.1942(4) 0.4324(2)
H1 H 0.0301 0.1740 0.3910
H2 H 0.0922 0.2633 0.4506
C3 C 0.1082(4) 0.1256(3) 0.5152(2)
H3 H 0.1996 0.1408 0.5528
C4 C 0.1081(5) 0.0127(3) 0.4962(3)
H4 H 0.0934 -0.0233 0.5518
H5 H 0.0212 -0.0029 0.4563
C5 C 0.2522(5) -0.0258(3) 0.4552(3)
C6 C 0.3814(5) -0.0401(4) 0.5112(3)
H6 H 0.3706 -0.0308 0.5722
C7 C 0.5229(5) -0.0670(4) 0.4819(3)
H7 H 0.6062 -0.0760 0.5217
C8 C 0.5379(5) -0.0802(3) 0.3907(3)
C9 C 0.4165(5) -0.0710(3) 0.3321(3)
H8 H 0.4285 -0.0821 0.2714
C10 C 0.2758(5) -0.0452(3) 0.3641(3)
C11 C -0.0325(4) 0.1487(3) 0.5695(2)
C12 C -0.1755(4) 0.1591(4) 0.5273(3)
H9 H -0.1822 0.1585 0.4652
C13 C -0.3085(4) 0.1704(4) 0.5742(3)
H10 H -0.4035 0.1772 0.5445
C14 C -0.2969(4) 0.1713(3) 0.6659(2)
C15 C -0.1591(4) 0.1623(3) 0.7101(2)
H11 H -0.1530 0.1639 0.7722
C16 C -0.0285(4) 0.1505(3) 0.6616(2)
H12 H 0.334(3) 0.196(4) 0.278(3)
Cl3 Cl -0.34719(11) 0.77392(11) 0.08610(8)
Cl4 Cl 0.26535(10) 0.77202(11) 0.07319(6)
N3 N 0.1654(10) 0.4150(4) 0.2699(4)
N4 N 0.5133(6) 0.5027(4) 0.0308(5)
O8 O 0.3580(4) 0.6849(4) -0.33609(17)
O9 O 0.4932(3) 0.6868(4) -0.21145(17)
O10 O 0.0331(9) 0.3930(4) 0.2893(3)
O11 O 0.2817(9) 0.4122(4) 0.3160(3)
O12 O 0.6133(6) 0.4743(6) 0.0812(4)
O13 O 0.5385(6) 0.5385(5) -0.0392(4)
C17 C 0.3696(4) 0.6853(4) -0.2514(2)
C18 C 0.2193(5) 0.6887(5) -0.2064(2)
H13 H 0.1483 0.6434 -0.2378
H14 H 0.1780 0.7568 -0.2122
C19 C 0.2240(4) 0.6598(3) -0.1069(2)
H15 H 0.3156 0.6903 -0.0781
C20 C 0.2338(5) 0.5439(4) -0.0962(3)
H16 H 0.1490 0.5132 -0.1300
H17 H 0.3287 0.5204 -0.1216
C21 C 0.2290(5) 0.5081(3) -0.0005(3)
C22 C 0.0837(6) 0.4900(4) 0.0338(3)
H18 H -0.0023 0.4985 -0.0040
C23 C 0.0616(7) 0.4606(4) 0.1202(3)
H19 H -0.0370 0.4510 0.1409
C24 C 0.1869(8) 0.4458(4) 0.1746(3)
C25 C 0.3333(7) 0.4595(4) 0.1466(3)
H20 H 0.4179 0.4484 0.1849
C26 C 0.3522(6) 0.4910(4) 0.0579(3)
C27 C 0.0829(4) 0.6995(3) -0.0618(2)
C28 C -0.0629(4) 0.6830(4) -0.0990(2)
H21 H -0.0719 0.6549 -0.1559
C29 C -0.1955(4) 0.7064(4) -0.0549(3)
H22 H -0.2919 0.6942 -0.0815
C30 C -0.1822(4) 0.7476(3) 0.0278(2)
C31 C -0.0419(4) 0.7690(4) 0.0675(2)
H23 H -0.0346 0.7989 0.1238
C32 C 0.0883(4) 0.7449(3) 0.0218(2)
H24 H 0.446(4) 0.686(7) -0.358(4)
O7? O 0.1982(16) -0.0351(11) 0.2150(8)
loop_
_geom_bond_atom_site_label_1
_geom_bond_atom_site_label_2
_geom_bond_site_symmetry_1
_geom_bond_site_symmetry_2
Cl1 C14 1_555 1_555
Cl2 C16 1_555 1_555
N1 O3 1_555 1_555
N2 O5 1_555 1_555
O1 C1 1_555 1_555
O2 C1 1_555 1_555
O4 N1 1_555 1_555
O6 N2 1_555 1_555
C1 C2 1_555 1_555
C2 H1 1_555 1_555
H2 C2 1_555 1_555
C3 C2 1_555 1_555
H3 C3 1_555 1_555
C4 C3 1_555 1_555
H4 C4 1_555 1_555
H5 C4 1_555 1_555
C5 C4 1_555 1_555
C6 C5 1_555 1_555
H6 C6 1_555 1_555
C7 C6 1_555 1_555
H7 C7 1_555 1_555
C8 N1 1_555 1_555
C9 C8 1_555 1_555
H8 C9 1_555 1_555
C10 N2 1_555 1_555
C11 C3 1_555 1_555
C12 C11 1_555 1_555
H9 C12 1_555 1_555
C13 C12 1_555 1_555
H10 C13 1_555 1_555
C14 C13 1_555 1_555
C15 C14 1_555 1_555
H11 C15 1_555 1_555
C16 C11 1_555 1_555
H12 O1 1_555 1_555
Cl3 C30 1_555 1_555
Cl4 C32 1_555 1_555
N3 O10 1_555 1_555
N4 O12 1_555 1_555
O8 C17 1_555 1_555
O9 C17 1_555 1_555
O11 N3 1_555 1_555
O13 N4 1_555 1_555
C17 C18 1_555 1_555
C18 H13 1_555 1_555
H14 C18 1_555 1_555
C19 C18 1_555 1_555
H15 C19 1_555 1_555
C20 C19 1_555 1_555
H16 C20 1_555 1_555
H17 C20 1_555 1_555
C21 C20 1_555 1_555
C22 C21 1_555 1_555
H18 C22 1_555 1_555
C23 C22 1_555 1_555
H19 C23 1_555 1_555
C24 N3 1_555 1_555
C25 C24 1_555 1_555
H20 C25 1_555 1_555
C26 N4 1_555 1_555
C27 C19 1_555 1_555
C28 C27 1_555 1_555
H21 C28 1_555 1_555
C29 C28 1_555 1_555
H22 C29 1_555 1_555
C30 C29 1_555 1_555
C31 C30 1_555 1_555
H23 C31 1_555 1_555
C32 C27 1_555 1_555
H24 O8 1_555 1_555
C5 C10 1_555 1_555
C7 C8 1_555 1_555
C9 C10 1_555 1_555
C15 C16 1_555 1_555
C21 C26 1_555 1_555
C23 C24 1_555 1_555
C25 C26 1_555 1_555
C31 C32 1_555 1_555

#END
