
#######################################################################
#
#                 Cambridge Crystallographic Data Centre
#                                CCDC 
#
#######################################################################
#
# If this CIF has been generated from an entry in the Cambridge 
# Structural Database, then it will include bibliographic, chemical, 
# crystal, experimental, refinement or atomic coordinate data resulting 
# from the CCDC's data processing and validation procedures.
#
#######################################################################

data_TIDGIZ
_chemical_formula_moiety         'C18 H16 Br1 N1 O5'
_chemical_name_systematic        
'4-(4-bromophenyl)-2-(nitromethyl)-4-oxobutyl benzoate'
_symmetry_cell_setting           monoclinic
_symmetry_space_group_name_H-M   'P 21'
_symmetry_Int_Tables_number      4
_space_group_name_Hall           'P 2yb'
loop_
_symmetry_equiv_pos_site_id
_symmetry_equiv_pos_as_xyz
1 x,y,z
2 -x,1/2+y,-z
_cell_length_a                   10.8540(5)
_cell_length_b                   5.5969(3)
_cell_length_c                   15.0011(9)
_cell_angle_alpha                90
_cell_angle_beta                 107.715(6)
_cell_angle_gamma                90
_cell_volume                     868.086
_exptl_crystal_colour            white
_exptl_crystal_description       needle
_cell_formula_units_Z            2
_exptl_crystal_recrystallization_method hexane/dichloromethane
loop_
_atom_site_label
_atom_site_type_symbol
_atom_site_fract_x
_atom_site_fract_y
_atom_site_fract_z
Br1 Br 0.11714(5) 0.45400(16) -0.01692(4)
O1 O 1.1485(3) 0.4650(9) 0.2825(2)
C1 C 0.7884(4) 0.4862(11) 0.2005(3)
H1 H 0.7874 0.4476 0.1372
H2 H 0.7663 0.3419 0.2280
C2 C 1.3734(4) 0.4183(10) 0.3256(3)
C3 C 0.5126(5) 0.3971(8) 0.0968(3)
H3 H 0.5754 0.2841 0.0966
C4 C 1.0189(5) 0.3899(11) 0.2327(4)
H4 H 1.0044 0.2284 0.2508
H5 H 1.0061 0.3919 0.1658
C5 C 0.3846(5) 0.3533(9) 0.0488(4)
H6 H 0.3610 0.2125 0.0150
C6 C 0.2929(5) 0.5172(9) 0.0512(3)
O2 O 1.2243(4) 0.1557(8) 0.2225(3)
C7 C 1.6206(6) 0.5616(11) 0.4275(4)
H7 H 1.7035 0.6092 0.4620
O3 O 0.7145(4) 0.8695(6) 0.2283(3)
C8 C 1.6018(6) 0.3447(12) 0.3813(4)
H8 H 1.6721 0.2463 0.3847
C9 C 0.5476(5) 0.6092(8) 0.1451(3)
C10 C 0.3245(6) 0.7285(10) 0.1014(4)
H9 H 0.2611 0.8375 0.1043
C11 C 0.9371(5) 0.5532(11) 0.3601(3)
H10 H 0.8617 0.6306 0.3689
H11 H 0.9368 0.3881 0.3797
C12 C 0.6851(5) 0.6707(10) 0.1953(3)
C13 C 0.9260(5) 0.5588(9) 0.2564(4)
H12 H 0.9427 0.7216 0.2389
C14 C 1.5166(5) 0.7065(10) 0.4223(3)
H13 H 1.5297 0.8533 0.4528
C15 C 1.3931(5) 0.6366(9) 0.3724(4)
H14 H 1.3231 0.7350 0.3699
C16 C 1.4804(6) 0.2747(9) 0.3308(4)
H15 H 1.4687 0.1292 0.2993
C17 C 0.4525(6) 0.7700(9) 0.1466(4)
H16 H 0.4761 0.9122 0.1794
C18 C 1.2436(6) 0.3290(10) 0.2715(4)
O4 O 1.0816(5) 0.8720(9) 0.4015(4)
N1 N 1.0552(5) 0.6721(13) 0.4210(4)
O5 O 1.1200(4) 0.5609(11) 0.4886(3)
loop_
_geom_bond_atom_site_label_1
_geom_bond_atom_site_label_2
_geom_bond_site_symmetry_1
_geom_bond_site_symmetry_2
Br1 C6 1_555 1_555
O1 C4 1_555 1_555
C1 H1 1_555 1_555
H2 C1 1_555 1_555
C2 C15 1_555 1_555
C3 H3 1_555 1_555
C4 H4 1_555 1_555
H5 C4 1_555 1_555
C5 C3 1_555 1_555
H6 C5 1_555 1_555
C6 C5 1_555 1_555
O2 C18 1_555 1_555
C7 H7 1_555 1_555
O3 C12 1_555 1_555
C8 C7 1_555 1_555
H8 C8 1_555 1_555
C9 C3 1_555 1_555
C10 C6 1_555 1_555
H9 C10 1_555 1_555
C11 H10 1_555 1_555
H11 C11 1_555 1_555
C12 C1 1_555 1_555
C13 C1 1_555 1_555
H12 C13 1_555 1_555
C14 C7 1_555 1_555
H13 C14 1_555 1_555
C15 C14 1_555 1_555
H14 C15 1_555 1_555
C16 C2 1_555 1_555
H15 C16 1_555 1_555
C17 C9 1_555 1_555
H16 C17 1_555 1_555
C18 O1 1_555 1_555
O4 N1 1_555 1_555
N1 C11 1_555 1_555
O5 N1 1_555 1_555
C2 C18 1_555 1_555
C4 C13 1_555 1_555
C8 C16 1_555 1_555
C9 C12 1_555 1_555
C10 C17 1_555 1_555
C11 C13 1_555 1_555

#END
