
#######################################################################
#
#                 Cambridge Crystallographic Data Centre
#                                CCDC 
#
#######################################################################
#
# If this CIF has been generated from an entry in the Cambridge 
# Structural Database, then it will include bibliographic, chemical, 
# crystal, experimental, refinement or atomic coordinate data resulting 
# from the CCDC's data processing and validation procedures.
#
#######################################################################

data_TIDJOH
_chemical_formula_moiety         'C14 H11 N1 O1 S1'
_chemical_name_systematic        2-(1,3-Benzothiazol-2-yl)-5-methylphenol
_symmetry_cell_setting           monoclinic
_symmetry_space_group_name_H-M   'P 21/c'
_symmetry_Int_Tables_number      14
_space_group_name_Hall           '-P 2ybc'
loop_
_symmetry_equiv_pos_site_id
_symmetry_equiv_pos_as_xyz
1 x,y,z
2 -x,1/2+y,1/2-z
3 -x,-y,-z
4 x,1/2-y,1/2+z
_cell_length_a                   10.4932(9)
_cell_length_b                   7.6375(6)
_cell_length_c                   14.7440(13)
_cell_angle_alpha                90
_cell_angle_beta                 100.306(4)
_cell_angle_gamma                90
_cell_volume                     1162.55
_cell_formula_units_Z            4
loop_
_atom_site_label
_atom_site_type_symbol
_atom_site_fract_x
_atom_site_fract_y
_atom_site_fract_z
S1 S 0.56221(8) 0.03008(12) 0.21117(6)
O1 O 0.1804(3) 0.2983(4) 0.07740(17)
H1 H 0.2440 0.2732 0.0548
N1 N 0.4236(3) 0.2128(3) 0.08214(18)
C1 C 0.5805(4) 0.2634(4) -0.0216(2)
H2 H 0.5219 0.3271 -0.0637
C2 C 0.7060(4) 0.2348(5) -0.0364(3)
H3 H 0.7323 0.2820 -0.0882
C3 C 0.7919(4) 0.1369(5) 0.0252(3)
H4 H 0.8750 0.1173 0.0136
C4 C 0.7574(3) 0.0677(5) 0.1033(3)
H5 H 0.8161 0.0019 0.1443
C5 C 0.6341(3) 0.0980(4) 0.1195(2)
C6 C 0.5441(3) 0.1950(4) 0.0575(2)
C7 C 0.4186(3) 0.1330(4) 0.1600(2)
C8 C 0.3044(3) 0.1338(4) 0.2033(2)
C9 C 0.1904(3) 0.2224(4) 0.1605(2)
C10 C 0.0855(3) 0.2327(4) 0.2064(2)
H6 H 0.0103 0.2886 0.1777
C11 C 0.0899(3) 0.1626(4) 0.2931(2)
C12 C 0.2003(4) 0.0709(5) 0.3339(2)
H7 H 0.2035 0.0186 0.3912
C13 C 0.3047(3) 0.0575(4) 0.2894(2)
H8 H 0.3776 -0.0041 0.3176
C14 C -0.0215(4) 0.1891(6) 0.3433(3)
H9 H 0.0031 0.1506 0.4060
H10 H -0.0948 0.1225 0.3135
H11 H -0.0438 0.3110 0.3424
loop_
_geom_bond_atom_site_label_1
_geom_bond_atom_site_label_2
_geom_bond_site_symmetry_1
_geom_bond_site_symmetry_2
S1 C5 1_555 1_555
O1 H1 1_555 1_555
N1 C6 1_555 1_555
C1 H2 1_555 1_555
C2 C1 1_555 1_555
H3 C2 1_555 1_555
C3 C2 1_555 1_555
H4 C3 1_555 1_555
C4 C3 1_555 1_555
H5 C4 1_555 1_555
C5 C4 1_555 1_555
C6 C1 1_555 1_555
C7 S1 1_555 1_555
C8 C7 1_555 1_555
C9 O1 1_555 1_555
C10 C9 1_555 1_555
H6 C10 1_555 1_555
C11 C10 1_555 1_555
C12 C11 1_555 1_555
H7 C12 1_555 1_555
C13 C8 1_555 1_555
H8 C13 1_555 1_555
C14 C11 1_555 1_555
H9 C14 1_555 1_555
H10 C14 1_555 1_555
H11 C14 1_555 1_555
N1 C7 1_555 1_555
C5 C6 1_555 1_555
C8 C9 1_555 1_555
C12 C13 1_555 1_555

#END
