
#######################################################################
#
#                 Cambridge Crystallographic Data Centre
#                                CCDC 
#
#######################################################################
#
# If this CIF has been generated from an entry in the Cambridge 
# Structural Database, then it will include bibliographic, chemical, 
# crystal, experimental, refinement or atomic coordinate data resulting 
# from the CCDC's data processing and validation procedures.
#
#######################################################################

data_TIDJOI
_chemical_formula_moiety         'C17 H22 O3'
_chemical_name_systematic        
14-methoxytetracyclo[10.3.1.0^1,10^.0^5,10^]hexadec-13-ene-15,16-dione
_symmetry_cell_setting           monoclinic
_symmetry_space_group_name_H-M   'P 21/n'
_symmetry_Int_Tables_number      14
_space_group_name_Hall           '-P 2yn'
loop_
_symmetry_equiv_pos_site_id
_symmetry_equiv_pos_as_xyz
1 x,y,z
2 1/2-x,1/2+y,1/2-z
3 -x,-y,-z
4 1/2+x,1/2-y,1/2+z
_cell_length_a                   11.1210(2)
_cell_length_b                   11.1802(3)
_cell_length_c                   11.2091(2)
_cell_angle_alpha                90
_cell_angle_beta                 90.997(2)
_cell_angle_gamma                90
_cell_volume                     1393.47
_exptl_crystal_colour            colorless
_exptl_crystal_description       plate
_cell_formula_units_Z            4
loop_
_atom_site_label
_atom_site_type_symbol
_atom_site_fract_x
_atom_site_fract_y
_atom_site_fract_z
O1 O 0.91560(11) 0.58169(13) 0.40759(12)
O2 O 0.70225(12) 0.57492(13) 0.50694(12)
O3 O 0.66697(15) 0.93144(12) 0.35781(14)
C1 C 0.60784(14) 0.72164(14) 0.37841(13)
C2 C 0.82699(15) 0.64885(15) 0.35640(14)
C3 C 0.71204(14) 0.64045(15) 0.42173(13)
C4 C 0.66677(15) 0.83064(14) 0.32141(14)
C5 C 0.54385(14) 0.66426(14) 0.26479(13)
C6 C 0.72557(15) 0.78133(15) 0.21083(14)
H1 H 0.7453 0.8438 0.1530
C7 C 0.42376(15) 0.73072(15) 0.23809(15)
H2 H 0.4449 0.8111 0.2105
C8 C 0.83533(15) 0.71818(16) 0.25986(14)
H3 H 0.9090 0.7275 0.2229
C9 C 0.52144(16) 0.53048(15) 0.28235(17)
H4 H 0.5982 0.4899 0.2913
H5 H 0.4775 0.5189 0.3554
C10 C 0.63245(16) 0.69072(17) 0.16146(13)
H6 H 0.6721 0.6178 0.1367
H7 H 0.5894 0.7241 0.0932
C11 C 0.52659(17) 0.75130(19) 0.48240(14)
H8 H 0.5042 0.6777 0.5221
H9 H 0.5710 0.8001 0.5396
C12 C 0.34633(16) 0.74676(19) 0.34790(18)
H10 H 0.2727 0.7882 0.3255
H11 H 0.3248 0.6689 0.3792
C13 C 0.35368(18) 0.67025(19) 0.13550(19)
H12 H 0.2767 0.7100 0.1250
H13 H 0.3979 0.6801 0.0623
C14 C 0.41293(18) 0.8176(2) 0.44359(17)
H14 H 0.3615 0.8288 0.5117
H15 H 0.4339 0.8958 0.4128
C15 C 0.4509(2) 0.47402(18) 0.1792(2)
H16 H 0.4986 0.4772 0.1077
H17 H 0.4356 0.3906 0.1972
C16 C 1.03034(18) 0.5870(2) 0.3535(2)
H18 H 1.0225 0.5655 0.2708
H19 H 1.0843 0.5324 0.3932
H20 H 1.0617 0.6668 0.3600
C17 C 0.3323(2) 0.5377(2) 0.1565(2)
H21 H 0.2807 0.5273 0.2246
H22 H 0.2920 0.5032 0.0872
loop_
_geom_bond_atom_site_label_1
_geom_bond_atom_site_label_2
_geom_bond_site_symmetry_1
_geom_bond_site_symmetry_2
O1 C2 1_555 1_555
O2 C3 1_555 1_555
O3 C4 1_555 1_555
C1 C3 1_555 1_555
C2 C3 1_555 1_555
C4 C1 1_555 1_555
C5 C1 1_555 1_555
C6 C4 1_555 1_555
H1 C6 1_555 1_555
C7 C5 1_555 1_555
H2 C7 1_555 1_555
C8 C2 1_555 1_555
H3 C8 1_555 1_555
C9 C5 1_555 1_555
H4 C9 1_555 1_555
H5 C9 1_555 1_555
C10 C5 1_555 1_555
H6 C10 1_555 1_555
H7 C10 1_555 1_555
C11 C1 1_555 1_555
H8 C11 1_555 1_555
H9 C11 1_555 1_555
C12 C7 1_555 1_555
H10 C12 1_555 1_555
H11 C12 1_555 1_555
C13 C7 1_555 1_555
H12 C13 1_555 1_555
H13 C13 1_555 1_555
C14 C11 1_555 1_555
H14 C14 1_555 1_555
H15 C14 1_555 1_555
C15 C9 1_555 1_555
H16 C15 1_555 1_555
H17 C15 1_555 1_555
C16 O1 1_555 1_555
H18 C16 1_555 1_555
H19 C16 1_555 1_555
H20 C16 1_555 1_555
C17 C13 1_555 1_555
H21 C17 1_555 1_555
H22 C17 1_555 1_555
C6 C8 1_555 1_555
C6 C10 1_555 1_555
C12 C14 1_555 1_555
C15 C17 1_555 1_555

#END
