
#######################################################################
#
#                 Cambridge Crystallographic Data Centre
#                                CCDC 
#
#######################################################################
#
# If this CIF has been generated from an entry in the Cambridge 
# Structural Database, then it will include bibliographic, chemical, 
# crystal, experimental, refinement or atomic coordinate data resulting 
# from the CCDC's data processing and validation procedures.
#
#######################################################################

data_TIDJIA
_chemical_formula_moiety         'C13 H19 N1 O3'
_chemical_name_systematic        
7-endo-Acetyl-2-methoxycarbonyl-4,6-dimethyl-2-azabicyclo(2.2.2)oct-5-ene
_symmetry_cell_setting           orthorhombic
_symmetry_space_group_name_H-M   'P c c n'
_symmetry_Int_Tables_number      56
_space_group_name_Hall           '-P 2ab 2ac'
loop_
_symmetry_equiv_pos_site_id
_symmetry_equiv_pos_as_xyz
1 x,y,z
2 1/2+x,-y,1/2-z
3 -x,1/2+y,1/2-z
4 1/2-x,1/2-y,z
5 -x,-y,-z
6 1/2-x,y,1/2+z
7 x,1/2-y,1/2+z
8 1/2+x,1/2+y,-z
_cell_length_a                   21.277(4)
_cell_length_b                   10.565(2)
_cell_length_c                   11.624(2)
_cell_angle_alpha                90
_cell_angle_beta                 90
_cell_angle_gamma                90
_cell_volume                     2612.98
_cell_formula_units_Z            8
loop_
_atom_site_label
_atom_site_type_symbol
_atom_site_fract_x
_atom_site_fract_y
_atom_site_fract_z
C1 C 0.55124(6) 0.36017(12) 0.41248(13)
H1 H 0.5302 0.4102 0.3541
H2 H 0.5493 0.4057 0.4849
C2 C 0.51938(6) 0.23007(12) 0.42441(11)
C3 C 0.52416(6) 0.16451(13) 0.30582(11)
H3 H 0.5043 0.0820 0.3095
H4 H 0.5022 0.2147 0.2486
C4 C 0.59360(6) 0.14913(12) 0.27034(11)
H5 H 0.6009 0.1996 0.2009
C5 C 0.63510(6) 0.20379(12) 0.36909(11)
H6 H 0.6800 0.1948 0.3517
C6 C 0.61809(6) 0.13751(12) 0.48006(11)
C7 C 0.55794(6) 0.15269(12) 0.50779(11)
H7 H 0.5407 0.1179 0.5742
C8 C 0.65910(6) 0.42968(12) 0.35874(11)
C9 C 0.67344(8) 0.64994(14) 0.34596(17)
H8 H 0.7056 0.6506 0.4038
H9 H 0.6501 0.7277 0.3493
H10 H 0.6924 0.6415 0.2714
C10 C 0.45143(6) 0.24565(14) 0.46266(13)
H11 H 0.4332 0.1638 0.4759
H12 H 0.4282 0.2888 0.4038
H13 H 0.4501 0.2942 0.5324
C11 C 0.61276(6) 0.01334(13) 0.24556(11)
C12 C 0.66984(7) -0.00445(16) 0.17188(14)
H14 H 0.6767 -0.0932 0.1593
H15 H 0.7058 0.0313 0.2098
H16 H 0.6636 0.0371 0.0993
C13 C 0.66639(8) 0.06377(15) 0.54501(14)
H17 H 0.6471 0.0245 0.6106
H18 H 0.6992 0.1197 0.5702
H19 H 0.6839 -0.0002 0.4959
N1 N 0.61702(5) 0.33782(10) 0.37960(11)
O1 O 0.71423(4) 0.41379(9) 0.33623(9)
O2 O 0.63180(5) 0.54530(9) 0.36589(9)
O3 O 0.58377(5) -0.07603(10) 0.28399(10)
loop_
_geom_bond_atom_site_label_1
_geom_bond_atom_site_label_2
_geom_bond_site_symmetry_1
_geom_bond_site_symmetry_2
C1 H1 1_555 1_555
H2 C1 1_555 1_555
C2 C1 1_555 1_555
C3 C2 1_555 1_555
H3 C3 1_555 1_555
H4 C3 1_555 1_555
C4 C3 1_555 1_555
H5 C4 1_555 1_555
C5 C4 1_555 1_555
H6 C5 1_555 1_555
C6 C5 1_555 1_555
C7 C2 1_555 1_555
H7 C7 1_555 1_555
C8 N1 1_555 1_555
C9 H8 1_555 1_555
H9 C9 1_555 1_555
H10 C9 1_555 1_555
C10 C2 1_555 1_555
H11 C10 1_555 1_555
H12 C10 1_555 1_555
H13 C10 1_555 1_555
C11 C4 1_555 1_555
C12 C11 1_555 1_555
H14 C12 1_555 1_555
H15 C12 1_555 1_555
H16 C12 1_555 1_555
C13 C6 1_555 1_555
H17 C13 1_555 1_555
H18 C13 1_555 1_555
H19 C13 1_555 1_555
N1 C1 1_555 1_555
O1 C8 1_555 1_555
O2 C8 1_555 1_555
O3 C11 1_555 1_555
C5 N1 1_555 1_555
C6 C7 1_555 1_555
C9 O2 1_555 1_555

#END
