
#######################################################################
#
#                 Cambridge Crystallographic Data Centre
#                                CCDC 
#
#######################################################################
#
# If this CIF has been generated from an entry in the Cambridge 
# Structural Database, then it will include bibliographic, chemical, 
# crystal, experimental, refinement or atomic coordinate data resulting 
# from the CCDC's data processing and validation procedures.
#
#######################################################################

data_TIDJAU
_chemical_formula_moiety         'C20 H22 O3'
_chemical_name_systematic        
10-methoxy-8-methyl-7-phenyltricyclo[6.3.1.0^1,6^]dodec-9-ene-11,12-dione
_symmetry_cell_setting           monoclinic
_symmetry_space_group_name_H-M   'I a'
_symmetry_Int_Tables_number      9
_space_group_name_Hall           'I -2ya'
loop_
_symmetry_equiv_pos_site_id
_symmetry_equiv_pos_as_xyz
1 x,y,z
2 1/2+x,-y,z
3 1/2+x,1/2+y,1/2+z
4 x,1/2-y,1/2+z
_cell_length_a                   10.1842(5)
_cell_length_b                   12.5401(6)
_cell_length_c                   13.1591(6)
_cell_angle_alpha                90
_cell_angle_beta                 98.832(5)
_cell_angle_gamma                90
_cell_volume                     1660.63
_exptl_crystal_colour            colorless
_exptl_crystal_description       block
_cell_formula_units_Z            4
loop_
_atom_site_label
_atom_site_type_symbol
_atom_site_fract_x
_atom_site_fract_y
_atom_site_fract_z
O1 O 0.4214(4) 0.5691(3) 0.2915(3)
O2 O 0.1375(3) 0.6314(3) 0.5520(3)
O3 O 0.2287(4) 0.7117(4) 0.2678(3)
C1 C 0.6746(5) 0.7349(4) 0.5318(4)
H1 H 0.6356 0.7313 0.4632
C2 C 0.3842(4) 0.6094(4) 0.3777(4)
C3 C 0.8113(5) 0.7321(5) 0.5564(5)
H2 H 0.8627 0.7261 0.5041
C4 C 0.2821(4) 0.6939(4) 0.3549(4)
C5 C 0.4270(4) 0.5788(3) 0.4741(4)
H3 H 0.4876 0.5229 0.4855
C6 C 0.5944(4) 0.7429(4) 0.6078(4)
C7 C 0.2387(4) 0.6661(4) 0.5272(4)
C8 C 0.8722(5) 0.7380(5) 0.6554(6)
H4 H 0.9644 0.7360 0.6711
C9 C 0.3804(4) 0.6320(4) 0.5664(4)
C10 C 0.4454(4) 0.7432(4) 0.5875(4)
H5 H 0.4154 0.7708 0.6497
C11 C 0.2499(4) 0.7525(4) 0.4492(4)
C12 C 0.3784(5) 0.8144(4) 0.4953(6)
H6 H 0.4375 0.8121 0.4432
C13 C 0.3942(6) 0.5583(5) 0.6584(5)
H7 H 0.3401 0.4962 0.6418
H8 H 0.3659 0.5947 0.7155
H9 H 0.4854 0.5373 0.6765
C14 C 0.1287(5) 0.8254(5) 0.4251(6)
H10 H 0.0609 0.7893 0.3775
H11 H 0.0926 0.8389 0.4879
C15 C 0.6583(6) 0.7494(6) 0.7074(5)
H12 H 0.6083 0.7556 0.7606
C16 C 0.5232(7) 0.4905(6) 0.3045(5)
H13 H 0.5400 0.4668 0.2383
H14 H 0.4955 0.4310 0.3420
H15 H 0.6029 0.5205 0.3420
C17 C 0.7968(6) 0.7469(7) 0.7305(6)
H16 H 0.8374 0.7514 0.7987
C18 C 0.3577(11) 0.9244(6) 0.5156(8)
H17 H 0.3197 0.9286 0.5787
H18 H 0.4443 0.9583 0.5289
C19 C 0.2765(9) 0.9864(6) 0.4402(7)
H19 H 0.3316 1.0142 0.3924
H20 H 0.2426 1.0469 0.4742
C20 C 0.1607(7) 0.9282(7) 0.3799(6)
H21 H 0.0830 0.9738 0.3739
H22 H 0.1800 0.9153 0.3110
loop_
_geom_bond_atom_site_label_1
_geom_bond_atom_site_label_2
_geom_bond_site_symmetry_1
_geom_bond_site_symmetry_2
O1 C2 1_555 1_555
O2 C7 1_555 1_555
O3 C4 1_555 1_555
C1 H1 1_555 1_555
C2 C4 1_555 1_555
C3 C1 1_555 1_555
H2 C3 1_555 1_555
C4 C11 1_555 1_555
C5 C2 1_555 1_555
H3 C5 1_555 1_555
C6 C1 1_555 1_555
C7 C9 1_555 1_555
C8 C3 1_555 1_555
H4 C8 1_555 1_555
C9 C5 1_555 1_555
C10 C6 1_555 1_555
H5 C10 1_555 1_555
C11 C7 1_555 1_555
C12 C10 1_555 1_555
H6 C12 1_555 1_555
C13 C9 1_555 1_555
H7 C13 1_555 1_555
H8 C13 1_555 1_555
H9 C13 1_555 1_555
C14 C11 1_555 1_555
H10 C14 1_555 1_555
H11 C14 1_555 1_555
C15 C6 1_555 1_555
H12 C15 1_555 1_555
C16 O1 1_555 1_555
H13 C16 1_555 1_555
H14 C16 1_555 1_555
H15 C16 1_555 1_555
C17 C8 1_555 1_555
H16 C17 1_555 1_555
C18 C12 1_555 1_555
H17 C18 1_555 1_555
H18 C18 1_555 1_555
C19 C18 1_555 1_555
H19 C19 1_555 1_555
H20 C19 1_555 1_555
C20 C14 1_555 1_555
H21 C20 1_555 1_555
H22 C20 1_555 1_555
C9 C10 1_555 1_555
C11 C12 1_555 1_555
C15 C17 1_555 1_555
C19 C20 1_555 1_555

#END
