
#######################################################################
#
#                 Cambridge Crystallographic Data Centre
#                                CCDC 
#
#######################################################################
#
# If this CIF has been generated from an entry in the Cambridge 
# Structural Database, then it will include bibliographic, chemical, 
# crystal, experimental, refinement or atomic coordinate data resulting 
# from the CCDC's data processing and validation procedures.
#
#######################################################################

data_TIDKID
_chemical_formula_moiety         'C18 H24 O3'
_chemical_name_systematic        
10'-methoxyspiro[cyclohexane-1,7'-tricyclo[6.3.1.0^1,6^]dodecane]-9'-ene-11',12'-dione
_symmetry_cell_setting           monoclinic
_symmetry_space_group_name_H-M   'P 21/c'
_symmetry_Int_Tables_number      14
_space_group_name_Hall           '-P 2ybc'
loop_
_symmetry_equiv_pos_site_id
_symmetry_equiv_pos_as_xyz
1 x,y,z
2 -x,1/2+y,1/2-z
3 -x,-y,-z
4 x,1/2-y,1/2+z
_cell_length_a                   7.0294(2)
_cell_length_b                   21.2558(11)
_cell_length_c                   10.7355(4)
_cell_angle_alpha                90
_cell_angle_beta                 101.817(3)
_cell_angle_gamma                90
_cell_volume                     1570.06
_cell_formula_units_Z            4
loop_
_atom_site_label
_atom_site_type_symbol
_atom_site_fract_x
_atom_site_fract_y
_atom_site_fract_z
O1 O 0.0827(2) 0.16424(8) 0.18615(14)
O2 O 0.12280(18) 0.26924(6) 0.32368(12)
O3 O 0.15413(18) 0.06021(7) 0.51432(13)
C1 C 0.0275(3) 0.16306(9) 0.28625(18)
C2 C 0.0555(2) 0.21705(9) 0.37502(17)
C3 C 0.0230(2) 0.21112(9) 0.49275(17)
H1 H 0.0465 0.2452 0.5481
C4 C -0.0506(2) 0.15048(9) 0.53790(17)
H2 H -0.0139 0.1461 0.6306
C5 C -0.2728(2) 0.13945(9) 0.48765(18)
C6 C -0.2809(2) 0.12456(10) 0.34475(18)
H3 H -0.3142 0.1637 0.2972
C7 C -0.4249(3) 0.07455(13) 0.2824(2)
H4 H -0.3971 0.0352 0.3281
H5 H -0.5557 0.0873 0.2871
C8 C -0.4125(4) 0.06508(17) 0.1452(3)
H6 H -0.5001 0.0314 0.1099
H7 H -0.4564 0.1031 0.0981
C9 C -0.2119(4) 0.04944(15) 0.1262(3)
H8 H -0.1735 0.0804 0.0697
H9 H -0.2154 0.0088 0.0849
C10 C -0.0604(3) 0.04772(11) 0.2487(2)
H10 H 0.0676 0.0448 0.2285
H11 H -0.0802 0.0104 0.2964
C11 C -0.0685(2) 0.10554(9) 0.33108(17)
C12 C 0.0334(2) 0.09868(9) 0.47014(18)
C13 C -0.3966(3) 0.19681(10) 0.5025(2)
H12 H -0.3484 0.2327 0.4625
H13 H -0.5293 0.1890 0.4582
C14 C -0.3966(3) 0.21278(12) 0.6403(2)
H14 H -0.2672 0.2259 0.6822
H15 H -0.4845 0.2477 0.6432
C15 C -0.4582(3) 0.15740(14) 0.7106(3)
H16 H -0.5939 0.1481 0.6765
H17 H -0.4450 0.1681 0.7998
C16 C -0.3366(3) 0.09960(12) 0.6989(2)
H18 H -0.3871 0.0641 0.7388
H19 H -0.2040 0.1069 0.7437
C17 C -0.3374(3) 0.08381(10) 0.56101(19)
H20 H -0.4674 0.0711 0.5194
H21 H -0.2511 0.0485 0.5580
C18 C 0.1603(3) 0.32234(10) 0.4049(2)
H22 H 0.2049 0.3566 0.3601
H23 H 0.2582 0.3119 0.4783
H24 H 0.0431 0.3345 0.4314
loop_
_geom_bond_atom_site_label_1
_geom_bond_atom_site_label_2
_geom_bond_site_symmetry_1
_geom_bond_site_symmetry_2
O1 C1 1_555 1_555
O2 C2 1_555 1_555
O3 C12 1_555 1_555
C1 C2 1_555 1_555
C2 C3 1_555 1_555
C3 H1 1_555 1_555
C4 C3 1_555 1_555
H2 C4 1_555 1_555
C5 C4 1_555 1_555
C6 C5 1_555 1_555
H3 C6 1_555 1_555
C7 C6 1_555 1_555
H4 C7 1_555 1_555
H5 C7 1_555 1_555
C8 C7 1_555 1_555
H6 C8 1_555 1_555
H7 C8 1_555 1_555
C9 C8 1_555 1_555
H8 C9 1_555 1_555
H9 C9 1_555 1_555
C10 C9 1_555 1_555
H10 C10 1_555 1_555
H11 C10 1_555 1_555
C11 C1 1_555 1_555
C12 C4 1_555 1_555
C13 C5 1_555 1_555
H12 C13 1_555 1_555
H13 C13 1_555 1_555
C14 C13 1_555 1_555
H14 C14 1_555 1_555
H15 C14 1_555 1_555
C15 C14 1_555 1_555
H16 C15 1_555 1_555
H17 C15 1_555 1_555
C16 C15 1_555 1_555
H18 C16 1_555 1_555
H19 C16 1_555 1_555
C17 C5 1_555 1_555
H20 C17 1_555 1_555
H21 C17 1_555 1_555
C18 O2 1_555 1_555
H22 C18 1_555 1_555
H23 C18 1_555 1_555
H24 C18 1_555 1_555
C6 C11 1_555 1_555
C10 C11 1_555 1_555
C11 C12 1_555 1_555
C16 C17 1_555 1_555

#END
