
#######################################################################
#
#                 Cambridge Crystallographic Data Centre
#                                CCDC 
#
#######################################################################
#
# If this CIF has been generated from an entry in the Cambridge 
# Structural Database, then it will include bibliographic, chemical, 
# crystal, experimental, refinement or atomic coordinate data resulting 
# from the CCDC's data processing and validation procedures.
#
#######################################################################

data_TIDKAV
_chemical_formula_moiety         'C19 H26 O3'
_chemical_name_systematic        
10-methoxy-2-methyl-2-(pent-4-en-1-yl)tricyclo[6.3.1.0^1,6^]dodec-9-ene-11,12-dione
_symmetry_cell_setting           triclinic
_symmetry_space_group_name_H-M   'P -1'
_symmetry_Int_Tables_number      2
_space_group_name_Hall           '-P 1'
loop_
_symmetry_equiv_pos_site_id
_symmetry_equiv_pos_as_xyz
1 x,y,z
2 -x,-y,-z
_cell_length_a                   7.3374(4)
_cell_length_b                   10.2378(7)
_cell_length_c                   12.0123(7)
_cell_angle_alpha                90.540(5)
_cell_angle_beta                 97.870(5)
_cell_angle_gamma                105.392(6)
_cell_volume                     860.801
_exptl_crystal_colour            colorless
_exptl_crystal_description       plate
_cell_formula_units_Z            2
loop_
_atom_site_label
_atom_site_type_symbol
_atom_site_fract_x
_atom_site_fract_y
_atom_site_fract_z
O1 O 0.8676(2) 0.91463(17) 0.30334(14)
O2 O 0.3704(2) 0.60796(19) 0.41422(14)
O3 O 0.4529(3) 0.7879(2) 0.58075(16)
C1 C 0.6648(2) 0.68708(19) 0.33656(16)
C2 C 0.8239(3) 0.8203(2) 0.36166(17)
C3 C 0.5293(3) 0.6831(2) 0.42480(16)
C4 C 0.7932(3) 0.5894(2) 0.37222(19)
H1 H 0.7143 0.4990 0.3853
C5 C 0.4562(3) 0.7730(2) 0.18544(17)
H2 H 0.3692 0.7724 0.2395
H3 H 0.5524 0.8596 0.1959
C6 C 0.5986(3) 0.7784(2) 0.52540(18)
C7 C 0.5564(3) 0.6603(2) 0.21372(16)
C8 C 0.9193(3) 0.8070(2) 0.48024(18)
H4 H 1.0481 0.8686 0.4973
C9 C 0.9201(3) 0.6556(2) 0.48139(19)
H5 H 1.0488 0.6468 0.4831
H6 H 0.8686 0.6136 0.5466
C10 C 0.7846(3) 0.8379(2) 0.55267(18)
H7 H 0.8296 0.8975 0.6154
C11 C 0.7029(3) 0.6604(3) 0.13386(19)
H8 H 0.6373 0.6422 0.0573
H9 H 0.7928 0.7495 0.1380
C12 C 0.4069(3) 0.5213(2) 0.1983(2)
H10 H 0.4572 0.4556 0.2396
H11 H 0.3775 0.4934 0.1199
H12 H 0.2929 0.5282 0.2259
C13 C 0.9193(4) 0.5816(3) 0.2816(2)
H13 H 1.0185 0.6664 0.2847
H14 H 0.9813 0.5100 0.2989
C14 C 0.3441(4) 0.7650(3) 0.0676(2)
H15 H 0.4313 0.7719 0.0127
H16 H 0.2510 0.6772 0.0548
C15 C 0.8119(4) 0.5549(3) 0.1626(2)
H17 H 0.7231 0.4652 0.1558
H18 H 0.9016 0.5575 0.1098
C16 C 0.2419(4) 0.8746(4) 0.0495(2)
H19 H 0.1519 0.8647 0.1029
H20 H 0.3352 0.9617 0.0667
C17 C 0.1370(6) 0.8767(5) -0.0651(3)
H21 H 0.1570 0.9637 -0.0914
C18 C 0.5029(7) 0.8805(5) 0.6758(3)
H22 H 0.5649 0.9692 0.6535
H23 H 0.5881 0.8514 0.7319
H24 H 0.3896 0.8835 0.7061
C19 C 0.0361(10) 0.7953(7) -0.1295(4)
H25 H 0.0059 0.7044 -0.1121
H26 H -0.0147 0.8208 -0.1984
loop_
_geom_bond_atom_site_label_1
_geom_bond_atom_site_label_2
_geom_bond_site_symmetry_1
_geom_bond_site_symmetry_2
O1 C2 1_555 1_555
O2 C3 1_555 1_555
O3 C6 1_555 1_555
C1 C2 1_555 1_555
C2 C8 1_555 1_555
C3 C1 1_555 1_555
C4 C1 1_555 1_555
H1 C4 1_555 1_555
C5 H2 1_555 1_555
H3 C5 1_555 1_555
C6 C3 1_555 1_555
C7 C1 1_555 1_555
C8 H4 1_555 1_555
C9 C4 1_555 1_555
H5 C9 1_555 1_555
H6 C9 1_555 1_555
C10 C6 1_555 1_555
H7 C10 1_555 1_555
C11 C7 1_555 1_555
H8 C11 1_555 1_555
H9 C11 1_555 1_555
C12 C7 1_555 1_555
H10 C12 1_555 1_555
H11 C12 1_555 1_555
H12 C12 1_555 1_555
C13 C4 1_555 1_555
H13 C13 1_555 1_555
H14 C13 1_555 1_555
C14 C5 1_555 1_555
H15 C14 1_555 1_555
H16 C14 1_555 1_555
C15 C11 1_555 1_555
H17 C15 1_555 1_555
H18 C15 1_555 1_555
C16 C14 1_555 1_555
H19 C16 1_555 1_555
H20 C16 1_555 1_555
C17 C16 1_555 1_555
H21 C17 1_555 1_555
C18 O3 1_555 1_555
H22 C18 1_555 1_555
H23 C18 1_555 1_555
H24 C18 1_555 1_555
C19 C17 1_555 1_555
H25 C19 1_555 1_555
H26 C19 1_555 1_555
C5 C7 1_555 1_555
C8 C9 1_555 1_555
C8 C10 1_555 1_555
C13 C15 1_555 1_555

#END
