
#######################################################################
#
#                 Cambridge Crystallographic Data Centre
#                                CCDC 
#
#######################################################################
#
# If this CIF has been generated from an entry in the Cambridge 
# Structural Database, then it will include bibliographic, chemical, 
# crystal, experimental, refinement or atomic coordinate data resulting 
# from the CCDC's data processing and validation procedures.
#
#######################################################################

data_TIDLAW
_chemical_formula_moiety         'C27 H23 Cl1 N2 O4'
_chemical_name_systematic        
"ethyl 5'-chloro-8b-hydroxy-2'-oxo-2-phenyl-1,1',2,2',4,8b-hexahydro-3aH-spiro[cyclopenta[b]indole-3,3'-indole]-3a-carboxylate"
_symmetry_cell_setting           orthorhombic
_symmetry_space_group_name_H-M   'P 21 21 21'
_symmetry_Int_Tables_number      19
_space_group_name_Hall           'P 2ac 2ab'
loop_
_symmetry_equiv_pos_site_id
_symmetry_equiv_pos_as_xyz
1 x,y,z
2 1/2-x,-y,1/2+z
3 -x,1/2+y,1/2-z
4 1/2+x,1/2-y,-z
_cell_length_a                   12.4868(3)
_cell_length_b                   12.5072(4)
_cell_length_c                   15.1254(4)
_cell_angle_alpha                90
_cell_angle_beta                 90
_cell_angle_gamma                90
_cell_volume                     2362.21
_exptl_crystal_colour            colorless
_exptl_crystal_description       block
_cell_formula_units_Z            4
loop_
_atom_site_label
_atom_site_type_symbol
_atom_site_fract_x
_atom_site_fract_y
_atom_site_fract_z
Cl1 Cl 0.51874(7) 0.67296(8) 0.13640(5)
O1 O 0.96779(14) 0.58182(14) 0.45859(13)
C1 C 0.76508(18) 0.64352(17) 0.30057(13)
O2 O 0.69250(14) 0.56283(14) 0.47191(13)
C2 C 0.67624(19) 0.68446(19) 0.25792(13)
H1 H 0.6478 0.7506 0.2733
O3 O 0.64232(14) 0.88103(15) 0.40170(12)
H2 H 0.5994 0.8671 0.4411
C3 C 0.83287(17) 0.68651(16) 0.37622(13)
C4 C 0.76760(17) 0.73246(17) 0.45439(13)
C5 C 0.78147(19) 0.9114(2) 0.51425(16)
N1 N 0.82890(17) 0.73530(16) 0.53791(12)
H3 H 0.8582 0.6809 0.5629
C6 C 0.96937(18) 0.77043(18) 0.26737(15)
C7 C 0.82319(19) 0.87707(17) 0.35234(15)
H4 H 0.7835 0.8801 0.2973
H5 H 0.8597 0.9447 0.3608
C8 C 0.90471(19) 0.58984(19) 0.39767(16)
C9 C 0.90349(17) 0.78537(17) 0.35037(13)
H6 H 0.9539 0.7973 0.3991
C10 C 0.66903(18) 0.6657(2) 0.47479(14)
C11 C 0.74729(18) 0.85436(18) 0.43021(14)
C12 C 0.8039(2) 0.54239(19) 0.27787(15)
C13 C 0.6308(2) 0.6228(2) 0.19092(15)
N2 N 0.88850(18) 0.51416(17) 0.33443(15)
C14 C 0.83196(19) 0.8402(2) 0.57010(15)
O4 O 0.58339(17) 0.70043(17) 0.49510(17)
C15 C 0.7578(3) 0.4820(2) 0.2115(2)
H7 H 0.7844 0.4148 0.1971
C16 C 0.9347(2) 0.8042(2) 0.18544(15)
H8 H 0.8693 0.8392 0.1805
C17 C 0.8196(3) 1.0534(3) 0.6140(2)
H9 H 0.8161 1.1255 0.6289
C18 C 0.8701(3) 0.9826(3) 0.6697(2)
H10 H 0.9002 1.0075 0.7220
C19 C 0.8767(2) 0.8748(3) 0.64931(18)
H11 H 0.9101 0.8270 0.6875
C20 C 0.7738(2) 1.0175(2) 0.5355(2)
H12 H 0.7386 1.0649 0.4981
C21 C 0.6084(2) 0.4861(2) 0.4903(2)
H13 H 0.5422 0.5072 0.4616
H14 H 0.5956 0.4812 0.5535
C22 C 1.0675(2) 0.7194(2) 0.2719(2)
H15 H 1.0940 0.6974 0.3264
C23 C 0.6709(3) 0.5246(3) 0.16702(18)
H16 H 0.6395 0.4868 0.1209
C24 C 0.9963(3) 0.7866(3) 0.10994(18)
H17 H 0.9720 0.8105 0.0553
C25 C 1.0913(3) 0.7349(3) 0.1157(2)
H18 H 1.1320 0.7229 0.0652
C26 C 1.1267(3) 0.7007(3) 0.1959(3)
H19 H 1.1914 0.6643 0.1998
C27 C 0.6458(5) 0.3833(4) 0.4556(5)
H20 H 0.6503 0.3871 0.3923
H21 H 0.5964 0.3280 0.4722
H22 H 0.7152 0.3675 0.4796
loop_
_geom_bond_atom_site_label_1
_geom_bond_atom_site_label_2
_geom_bond_site_symmetry_1
_geom_bond_site_symmetry_2
Cl1 C13 1_555 1_555
O1 C8 1_555 1_555
C1 C2 1_555 1_555
O2 C10 1_555 1_555
C2 H1 1_555 1_555
O3 H2 1_555 1_555
C3 C1 1_555 1_555
C4 C3 1_555 1_555
C5 C11 1_555 1_555
N1 C4 1_555 1_555
H3 N1 1_555 1_555
C6 C9 1_555 1_555
C7 H4 1_555 1_555
H5 C7 1_555 1_555
C8 C3 1_555 1_555
C9 C3 1_555 1_555
H6 C9 1_555 1_555
C10 C4 1_555 1_555
C11 O3 1_555 1_555
C12 C1 1_555 1_555
C13 C2 1_555 1_555
N2 C8 1_555 1_555
C14 C5 1_555 1_555
O4 C10 1_555 1_555
C15 C12 1_555 1_555
H7 C15 1_555 1_555
C16 C6 1_555 1_555
H8 C16 1_555 1_555
C17 H9 1_555 1_555
C18 C17 1_555 1_555
H10 C18 1_555 1_555
C19 C14 1_555 1_555
H11 C19 1_555 1_555
C20 C5 1_555 1_555
H12 C20 1_555 1_555
C21 O2 1_555 1_555
H13 C21 1_555 1_555
H14 C21 1_555 1_555
C22 C6 1_555 1_555
H15 C22 1_555 1_555
C23 C13 1_555 1_555
H16 C23 1_555 1_555
C24 C16 1_555 1_555
H17 C24 1_555 1_555
C25 C24 1_555 1_555
H18 C25 1_555 1_555
C26 C22 1_555 1_555
H19 C26 1_555 1_555
C27 C21 1_555 1_555
H20 C27 1_555 1_555
H21 C27 1_555 1_555
H22 C27 1_555 1_555
C4 C11 1_555 1_555
N1 C14 1_555 1_555
C7 C9 1_555 1_555
C7 C11 1_555 1_555
C12 N2 1_555 1_555
C15 C23 1_555 1_555
C17 C20 1_555 1_555
C18 C19 1_555 1_555
C25 C26 1_555 1_555

#END
