
#######################################################################
#
#                 Cambridge Crystallographic Data Centre
#                                CCDC 
#
#######################################################################
#
# If this CIF has been generated from an entry in the Cambridge 
# Structural Database, then it will include bibliographic, chemical, 
# crystal, experimental, refinement or atomic coordinate data resulting 
# from the CCDC's data processing and validation procedures.
#
#######################################################################

data_TIDLEA
_chemical_formula_moiety         'C24 H19 Br1 N2 O2'
_chemical_name_systematic        
5'-bromo-5-phenyl-2-(phenylamino)-3H-spiro[cyclopentane-1,3'-indole]-2',3(1'H)-dione
_symmetry_cell_setting           orthorhombic
_symmetry_space_group_name_H-M   'P 21 21 21'
_symmetry_Int_Tables_number      19
_space_group_name_Hall           'P 2ac 2ab'
loop_
_symmetry_equiv_pos_site_id
_symmetry_equiv_pos_as_xyz
1 x,y,z
2 1/2+x,1/2-y,-z
3 -x,1/2+y,1/2-z
4 1/2-x,-y,1/2+z
_cell_length_a                   7.9956(2)
_cell_length_b                   13.3033(4)
_cell_length_c                   19.0822(6)
_cell_angle_alpha                90
_cell_angle_beta                 90
_cell_angle_gamma                90
_cell_volume                     2029.73
_exptl_crystal_colour            colorless
_exptl_crystal_description       block
_cell_formula_units_Z            4
loop_
_atom_site_label
_atom_site_type_symbol
_atom_site_fract_x
_atom_site_fract_y
_atom_site_fract_z
C1 C 0.5482(4) 0.85626(17) 0.19931(14)
Br1 Br 0.36406(5) 1.27492(2) 0.04321(2)
C2 C 0.4966(3) 1.11511(18) 0.12554(14)
H1 H 0.5672 1.1638 0.1443
C3 C 0.2021(4) 1.0698(2) 0.34706(16)
H2 H 0.2040 1.1394 0.3421
C4 C 0.8263(3) 0.9795(2) 0.04853(15)
H3 H 0.7828 1.0440 0.0533
N1 N 0.4785(3) 1.06362(16) 0.29904(12)
H4 H 0.4749 1.1282 0.2988
C5 C 0.8660(4) 0.9439(2) -0.01737(15)
H5 H 0.8500 0.9847 -0.0564
O1 O 0.6022(3) 0.78651(13) 0.23414(11)
C6 C 0.8502(3) 0.92047(17) 0.10780(12)
C7 C 0.6186(3) 0.96343(16) 0.19884(12)
C8 C 0.3415(4) 1.01364(18) 0.32600(12)
C9 C 0.3776(4) 1.13986(19) 0.07561(15)
N2 N 0.4223(3) 0.85265(16) 0.15279(12)
H6 H 0.3659 0.7992 0.1437
C10 C 0.9510(5) 0.7887(2) 0.03167(18)
H7 H 0.9919 0.7237 0.0262
C11 C 0.9124(4) 0.8246(2) 0.09848(16)
H8 H 0.9289 0.7834 0.1372
C12 C 0.0639(4) 1.0251(3) 0.37469(18)
H9 H -0.0263 1.0645 0.3885
C13 C 0.9289(5) 0.8487(3) -0.02568(17)
H10 H 0.9564 0.8252 -0.0701
C14 C 0.3342(5) 0.9102(2) 0.33539(16)
H11 H 0.4252 0.8702 0.3233
C15 C 0.3931(3) 0.94641(19) 0.12062(15)
C16 C 0.0554(5) 0.9226(3) 0.38248(19)
H12 H -0.0398 0.8920 0.4006
C17 C 0.2695(4) 1.0697(3) 0.04838(19)
H13 H 0.1913 1.0889 0.0149
C18 C 0.5073(3) 1.01571(17) 0.14670(12)
C19 C 0.8780(4) 1.0602(2) 0.20297(14)
H14 H 0.9923 1.0544 0.2195
H15 H 0.8750 1.1071 0.1641
C20 C 0.7648(4) 1.0940(2) 0.26061(14)
C21 C 0.6259(4) 1.01701(18) 0.27151(13)
H16 H 0.6652 0.9679 0.3061
C22 C 0.8096(3) 0.95743(18) 0.18086(13)
H17 H 0.8580 0.9083 0.2133
C23 C 0.1911(5) 0.8668(2) 0.3628(2)
H18 H 0.1871 0.7974 0.3680
C24 C 0.2762(4) 0.9705(3) 0.07050(17)
H19 H 0.2044 0.9221 0.0522
O2 O 0.7749(3) 1.17248(15) 0.29260(12)
loop_
_geom_bond_atom_site_label_1
_geom_bond_atom_site_label_2
_geom_bond_site_symmetry_1
_geom_bond_site_symmetry_2
C1 O1 1_555 1_555
Br1 C9 1_555 1_555
C2 H1 1_555 1_555
C3 H2 1_555 1_555
C4 H3 1_555 1_555
N1 H4 1_555 1_555
C5 C4 1_555 1_555
H5 C5 1_555 1_555
C6 C4 1_555 1_555
C7 C1 1_555 1_555
C8 C3 1_555 1_555
C9 C2 1_555 1_555
N2 C1 1_555 1_555
H6 N2 1_555 1_555
C10 H7 1_555 1_555
C11 C6 1_555 1_555
H8 C11 1_555 1_555
C12 C3 1_555 1_555
H9 C12 1_555 1_555
C13 C5 1_555 1_555
H10 C13 1_555 1_555
C14 C8 1_555 1_555
H11 C14 1_555 1_555
C15 N2 1_555 1_555
C16 C12 1_555 1_555
H12 C16 1_555 1_555
C17 C9 1_555 1_555
H13 C17 1_555 1_555
C18 C2 1_555 1_555
C19 H14 1_555 1_555
H15 C19 1_555 1_555
C20 C19 1_555 1_555
C21 N1 1_555 1_555
H16 C21 1_555 1_555
C22 C6 1_555 1_555
H17 C22 1_555 1_555
C23 C14 1_555 1_555
H18 C23 1_555 1_555
C24 C15 1_555 1_555
H19 C24 1_555 1_555
O2 C20 1_555 1_555
N1 C8 1_555 1_555
C7 C18 1_555 1_555
C7 C21 1_555 1_555
C7 C22 1_555 1_555
C10 C11 1_555 1_555
C10 C13 1_555 1_555
C15 C18 1_555 1_555
C16 C23 1_555 1_555
C17 C24 1_555 1_555
C19 C22 1_555 1_555
C20 C21 1_555 1_555

#END
