
#######################################################################
#
#                 Cambridge Crystallographic Data Centre
#                                CCDC 
#
#######################################################################
#
# If this CIF has been generated from an entry in the Cambridge 
# Structural Database, then it will include bibliographic, chemical, 
# crystal, experimental, refinement or atomic coordinate data resulting 
# from the CCDC's data processing and validation procedures.
#
#######################################################################

data_TIDMIF
_chemical_formula_moiety         'C23 H19 Cl1 N2 O5 S2'
_chemical_name_systematic        
4-chloro-8-ethenyl-13-[(4-methylphenyl)sulfonyl]-13,13a-dihydro-6H,8H-6\l^6^-quinazolino[3,2-c][1,2,3]benzoxathiazine-6,6-dione
_symmetry_cell_setting           orthorhombic
_symmetry_space_group_name_H-M   'P 21 21 21'
_symmetry_Int_Tables_number      19
_space_group_name_Hall           'P 2ac 2ab'
loop_
_symmetry_equiv_pos_site_id
_symmetry_equiv_pos_as_xyz
1 x,y,z
2 1/2-x,-y,1/2+z
3 -x,1/2+y,1/2-z
4 1/2+x,1/2-y,-z
_cell_length_a                   8.5314(14)
_cell_length_b                   16.072(3)
_cell_length_c                   16.618(3)
_cell_angle_alpha                90
_cell_angle_beta                 90
_cell_angle_gamma                90
_cell_volume                     2278.6
_exptl_crystal_colour            colorless
_exptl_crystal_description       block
_cell_formula_units_Z            4
loop_
_atom_site_label
_atom_site_type_symbol
_atom_site_fract_x
_atom_site_fract_y
_atom_site_fract_z
S1 S 0.40840(10) 0.54810(5) 0.46734(5)
C1 C 0.5902(4) 0.42392(18) 0.44446(18)
H1 H 0.542606 0.392372 0.490220
Cl1 Cl 0.79719(13) 0.71309(6) 0.54518(6)
O1 O 0.2981(3) 0.60096(16) 0.42968(15)
N1 N 0.4649(3) 0.47542(16) 0.40614(15)
N2 N 0.6508(3) 0.36492(15) 0.38721(16)
S2 S 0.60085(11) 0.26525(4) 0.39117(5)
O2 O 0.3787(3) 0.51089(17) 0.54330(14)
C2 C 0.4906(4) 0.50452(18) 0.32108(17)
H2 H 0.495775 0.566674 0.321720
O3 O 0.5630(3) 0.60460(14) 0.47597(15)
C3 C 0.6429(4) 0.47256(19) 0.28716(18)
C4 C 0.7114(4) 0.5152(2) 0.22295(19)
H3 H 0.663534 0.564434 0.203021
O4 O 0.5547(3) 0.25088(14) 0.47270(14)
C5 C 0.8470(5) 0.4867(2) 0.1884(2)
H4 H 0.892504 0.516314 0.144756
O5 O 0.7284(3) 0.22050(14) 0.35686(17)
C6 C 0.9184(5) 0.4148(2) 0.2169(2)
H5 H 1.010746 0.394391 0.191725
C7 C 0.8551(4) 0.3731(2) 0.2817(2)
H6 H 0.906034 0.325327 0.302982
C8 C 0.7155(4) 0.40153(18) 0.31583(18)
C9 C 0.7233(4) 0.47717(19) 0.47736(18)
C10 C 0.7033(4) 0.5614(2) 0.49294(19)
C11 C 0.8245(4) 0.6084(2) 0.5261(2)
C12 C 0.9662(4) 0.5718(2) 0.5438(2)
H7 H 1.049086 0.604053 0.565831
C13 C 0.9875(4) 0.4875(2) 0.5295(2)
H8 H 1.084499 0.461739 0.542398
C14 C 0.8669(4) 0.4409(2) 0.4961(2)
H9 H 0.882591 0.383330 0.485907
C15 C 0.3533(4) 0.4795(2) 0.26954(19)
H10 H 0.321789 0.422844 0.269119
C16 C 0.2763(5) 0.5325(3) 0.2256(2)
H11 H 0.306052 0.589423 0.225232
H12 H 0.190303 0.514197 0.193925
C17 C 0.4373(4) 0.25014(18) 0.32881(19)
C18 C 0.4569(4) 0.2448(2) 0.2454(2)
H13 H 0.557297 0.252465 0.221844
C19 C 0.3270(5) 0.2283(2) 0.1977(2)
H14 H 0.339106 0.226080 0.140876
C20 C 0.1790(4) 0.2147(2) 0.2312(2)
C21 C 0.1626(4) 0.2221(2) 0.3138(2)
H15 H 0.062126 0.214455 0.337344
C22 C 0.2894(4) 0.2404(2) 0.3632(2)
H16 H 0.275523 0.246275 0.419604
C23 C 0.0428(5) 0.1904(3) 0.1790(3)
H17 H 0.037926 0.227378 0.132158
H18 H -0.054653 0.195016 0.209845
H19 H 0.056301 0.132800 0.160766
loop_
_geom_bond_atom_site_label_1
_geom_bond_atom_site_label_2
_geom_bond_site_symmetry_1
_geom_bond_site_symmetry_2
S1 O1 1_555 1_555
C1 H1 1_555 1_555
Cl1 C11 1_555 1_555
N1 S1 1_555 1_555
N2 C1 1_555 1_555
S2 N2 1_555 1_555
O2 S1 1_555 1_555
C2 N1 1_555 1_555
H2 C2 1_555 1_555
O3 S1 1_555 1_555
C3 C2 1_555 1_555
C4 C3 1_555 1_555
H3 C4 1_555 1_555
O4 S2 1_555 1_555
C5 C4 1_555 1_555
H4 C5 1_555 1_555
O5 S2 1_555 1_555
C6 C5 1_555 1_555
H5 C6 1_555 1_555
C7 C6 1_555 1_555
H6 C7 1_555 1_555
C8 N2 1_555 1_555
C9 C1 1_555 1_555
C10 O3 1_555 1_555
C11 C10 1_555 1_555
C12 C11 1_555 1_555
H7 C12 1_555 1_555
C13 C12 1_555 1_555
H8 C13 1_555 1_555
C14 C9 1_555 1_555
H9 C14 1_555 1_555
C15 C2 1_555 1_555
H10 C15 1_555 1_555
C16 C15 1_555 1_555
H11 C16 1_555 1_555
H12 C16 1_555 1_555
C17 S2 1_555 1_555
C18 C17 1_555 1_555
H13 C18 1_555 1_555
C19 C18 1_555 1_555
H14 C19 1_555 1_555
C20 C19 1_555 1_555
C21 C20 1_555 1_555
H15 C21 1_555 1_555
C22 C17 1_555 1_555
H16 C22 1_555 1_555
C23 C20 1_555 1_555
H17 C23 1_555 1_555
H18 C23 1_555 1_555
H19 C23 1_555 1_555
C1 N1 1_555 1_555
C3 C8 1_555 1_555
C7 C8 1_555 1_555
C9 C10 1_555 1_555
C13 C14 1_555 1_555
C21 C22 1_555 1_555

#END
