
#######################################################################
#
#                 Cambridge Crystallographic Data Centre
#                                CCDC 
#
#######################################################################
#
# If this CIF has been generated from an entry in the Cambridge 
# Structural Database, then it will include bibliographic, chemical, 
# crystal, experimental, refinement or atomic coordinate data resulting 
# from the CCDC's data processing and validation procedures.
#
#######################################################################

data_TIDQUT
_chemical_formula_moiety         'C19 H14 Br1 F2 N1'
_chemical_name_systematic        
2,6-bis(4-Methylphenyl)-4-bromo-3,5-difluoropyridine
_symmetry_cell_setting           monoclinic
_symmetry_space_group_name_H-M   'I 2/a'
_symmetry_Int_Tables_number      15
_space_group_name_Hall           '-I 2ya'
loop_
_symmetry_equiv_pos_site_id
_symmetry_equiv_pos_as_xyz
1 x,y,z
2 1/2+x,1/2+y,1/2+z
3 1/2-x,y,-z
4 -x,1/2+y,1/2-z
5 -x,-y,-z
6 1/2-x,1/2-y,1/2-z
7 1/2+x,-y,z
8 x,1/2-y,1/2+z
_cell_length_a                   22.695(3)
_cell_length_b                   4.7838(6)
_cell_length_c                   28.562(4)
_cell_angle_alpha                90
_cell_angle_beta                 95.78(3)
_cell_angle_gamma                90
_cell_volume                     3085.16
_exptl_crystal_colour            colorless
_exptl_crystal_description       plate
_chemical_melting_point          '423.8 K'
_cell_formula_units_Z            8
loop_
_atom_site_label
_atom_site_type_symbol
_atom_site_fract_x
_atom_site_fract_y
_atom_site_fract_z
Br1 Br 0.241389(18) 0.75979(11) 0.100087(16)
F1 F 0.11510(10) 0.8345(5) 0.05981(8)
F2 F 0.23069(9) 0.3236(5) 0.17410(9)
N1 N 0.07354(13) 0.3119(6) 0.14071(10)
C1 C 0.06792(16) 0.5040(8) 0.10649(13)
C2 C 0.11831(17) 0.6384(9) 0.09379(13)
C3 C 0.17321(16) 0.5773(9) 0.11661(14)
C4 C 0.17670(16) 0.3801(9) 0.15203(14)
C5 C 0.12594(15) 0.2473(9) 0.16436(13)
C6 C -0.17140(17) 0.7025(9) 0.01997(15)
H1 H -0.1869 0.5268 0.0061
H2 H -0.1708 0.8444 -0.0047
H3 H -0.1968 0.7661 0.0437
C7 C 0.1087(2) -0.5714(9) 0.31378(15)
H4 H 0.1479 -0.6150 0.3296
H5 H 0.0902 -0.7429 0.3005
H6 H 0.0839 -0.4913 0.3366
C8 C 0.00700(16) 0.5619(8) 0.08444(12)
C9 C -0.0384(3) 0.5227(16) 0.1102(3)
H7 H -0.0312 0.4645 0.1421
C10 C -0.0959(3) 0.5670(15) 0.0906(3)
H8 H -0.1275 0.5366 0.1094
C13 C -0.10936(16) 0.6569(8) 0.04286(13)
C14 C -0.0590(3) 0.6882(15) 0.0177(3)
H11 H -0.0649 0.7436 -0.0144
C15 C -0.0018(3) 0.6425(16) 0.0373(3)
H12 H 0.0308 0.6652 0.0192
C18 C 0.12450(16) 0.0338(8) 0.20226(13)
C19 C 0.07129(16) -0.1063(8) 0.20687(13)
H15 H 0.0377 -0.0663 0.1853
C20 C 0.06631(17) -0.3013(8) 0.24195(14)
H16 H 0.0297 -0.3946 0.2439
C21 C 0.11480(17) -0.3626(9) 0.27464(14)
C22 C 0.16738(17) -0.2267(9) 0.26981(15)
H17 H 0.2009 -0.2669 0.2914
C23 C 0.17282(17) -0.0338(9) 0.23454(14)
H18 H 0.2099 0.0542 0.2322
C11? C -0.0380(3) 0.3562(16) 0.0842(2)
H9? H -0.0291 0.1802 0.0986
C12? C -0.0956(3) 0.4083(16) 0.0631(3)
H10? H -0.1250 0.2669 0.0630
C16? C -0.0677(3) 0.8679(18) 0.0430(3)
H13? H -0.0778 1.0433 0.0288
C17? C -0.0109(3) 0.8195(16) 0.0642(3)
H14? H 0.0171 0.9674 0.0651
loop_
_geom_bond_atom_site_label_1
_geom_bond_atom_site_label_2
_geom_bond_site_symmetry_1
_geom_bond_site_symmetry_2
Br1 C3 1_555 1_555
F1 C2 1_555 1_555
F2 C4 1_555 1_555
N1 C1 1_555 1_555
C1 C2 1_555 1_555
C2 C3 1_555 1_555
C3 C4 1_555 1_555
C4 C5 1_555 1_555
C5 N1 1_555 1_555
C6 H1 1_555 1_555
H2 C6 1_555 1_555
H3 C6 1_555 1_555
C7 H4 1_555 1_555
H5 C7 1_555 1_555
H6 C7 1_555 1_555
C8 C1 1_555 1_555
C9 C8 1_555 1_555
H7 C9 1_555 1_555
C10 C9 1_555 1_555
H8 C10 1_555 1_555
C13 C6 1_555 1_555
C14 C13 1_555 1_555
H11 C14 1_555 1_555
C15 C8 1_555 1_555
H12 C15 1_555 1_555
C18 C5 1_555 1_555
C19 C18 1_555 1_555
H15 C19 1_555 1_555
C20 C19 1_555 1_555
H16 C20 1_555 1_555
C21 C7 1_555 1_555
C22 C21 1_555 1_555
H17 C22 1_555 1_555
C23 C18 1_555 1_555
H18 C23 1_555 1_555
C10 C13 1_555 1_555
C14 C15 1_555 1_555
C20 C21 1_555 1_555
C22 C23 1_555 1_555

#END
