
#######################################################################
#
#                 Cambridge Crystallographic Data Centre
#                                CCDC 
#
#######################################################################
#
# If this CIF has been generated from an entry in the Cambridge 
# Structural Database, then it will include bibliographic, chemical, 
# crystal, experimental, refinement or atomic coordinate data resulting 
# from the CCDC's data processing and validation procedures.
#
#######################################################################

data_TIDSUX
_chemical_formula_moiety         'C17 H14 O2'
_chemical_name_systematic        '2,4-diphenylpenta-2,3-dienoic acid'
_symmetry_cell_setting           monoclinic
_symmetry_space_group_name_H-M   'P 21/c'
_symmetry_Int_Tables_number      14
_space_group_name_Hall           '-P 2ybc'
loop_
_symmetry_equiv_pos_site_id
_symmetry_equiv_pos_as_xyz
1 x,y,z
2 -x,1/2+y,1/2-z
3 -x,-y,-z
4 x,1/2-y,1/2+z
_cell_length_a                   10.5915(2)
_cell_length_b                   15.1258(2)
_cell_length_c                   9.0257(2)
_cell_angle_alpha                90
_cell_angle_beta                 109.468(2)
_cell_angle_gamma                90
_cell_volume                     1363.29
_exptl_crystal_colour            colorless
_exptl_crystal_description       block
_cell_formula_units_Z            4
loop_
_atom_site_label
_atom_site_type_symbol
_atom_site_fract_x
_atom_site_fract_y
_atom_site_fract_z
O1 O 0.81940(8) 0.48653(6) 0.45165(14)
H1 H 0.878892 0.522081 0.455612
O2 O 0.99372(8) 0.39749(6) 0.55546(12)
C1 C 0.49431(15) 0.38065(11) 0.10334(17)
H2 H 0.584853 0.394668 0.133380
C2 C 0.41879(19) 0.37709(13) -0.05415(19)
H3 H 0.458652 0.389634 -0.129282
C3 C 0.28477(17) 0.35513(11) -0.10125(18)
H4 H 0.234477 0.352315 -0.207511
C4 C 0.22687(15) 0.33758(11) 0.00979(18)
H5 H 0.136606 0.322679 -0.020996
C5 C 0.30113(12) 0.34179(9) 0.16701(16)
H6 H 0.260107 0.329880 0.241287
C6 C 0.43623(11) 0.36349(7) 0.21685(14)
C7 C 0.51557(11) 0.36674(7) 0.38663(14)
C8 C 0.64537(11) 0.35543(8) 0.43400(13)
C9 C 0.77435(11) 0.33701(8) 0.48464(13)
C10 C 0.82173(11) 0.24409(8) 0.51856(14)
C11 C 0.75916(15) 0.17802(10) 0.41337(19)
H7 H 0.691170 0.192608 0.320741
C12 C 0.7967(2) 0.09099(11) 0.4446(3)
H8 H 0.753144 0.047211 0.373612
C13 C 0.89761(19) 0.06849(12) 0.5795(3)
H9 H 0.922080 0.009563 0.600637
C14 C 0.96208(16) 0.13280(12) 0.6828(2)
H10 H 1.031910 0.117644 0.773397
C15 C 0.92440(13) 0.22075(10) 0.65393(16)
H11 H 0.968276 0.264080 0.725746
C16 C 0.87271(11) 0.40931(8) 0.50207(14)
C17 C 0.44612(13) 0.38246(10) 0.50569(16)
H12 H 0.386920 0.432183 0.473660
H13 H 0.511751 0.394286 0.606504
H14 H 0.395522 0.330898 0.512603
loop_
_geom_bond_atom_site_label_1
_geom_bond_atom_site_label_2
_geom_bond_site_symmetry_1
_geom_bond_site_symmetry_2
O1 H1 1_555 1_555
O2 C16 1_555 1_555
C1 H2 1_555 1_555
C2 C1 1_555 1_555
H3 C2 1_555 1_555
C3 C2 1_555 1_555
H4 C3 1_555 1_555
C4 C3 1_555 1_555
H5 C4 1_555 1_555
C5 C4 1_555 1_555
H6 C5 1_555 1_555
C6 C1 1_555 1_555
C7 C6 1_555 1_555
C8 C7 1_555 1_555
C9 C8 1_555 1_555
C10 C9 1_555 1_555
C11 C10 1_555 1_555
H7 C11 1_555 1_555
C12 C11 1_555 1_555
H8 C12 1_555 1_555
C13 C12 1_555 1_555
H9 C13 1_555 1_555
C14 C13 1_555 1_555
H10 C14 1_555 1_555
C15 C10 1_555 1_555
H11 C15 1_555 1_555
C16 O1 1_555 1_555
C17 C7 1_555 1_555
H12 C17 1_555 1_555
H13 C17 1_555 1_555
H14 C17 1_555 1_555
C5 C6 1_555 1_555
C9 C16 1_555 1_555
C14 C15 1_555 1_555

#END
