
#######################################################################
#
#                 Cambridge Crystallographic Data Centre
#                                CCDC 
#
#######################################################################
#
# If this CIF has been generated from an entry in the Cambridge 
# Structural Database, then it will include bibliographic, chemical, 
# crystal, experimental, refinement or atomic coordinate data resulting 
# from the CCDC's data processing and validation procedures.
#
#######################################################################

data_TIDSEG
_chemical_formula_moiety         'C13 H16 N4 O3'
_chemical_name_systematic        
'Ethyl 1-((4-methoxyphenyl)amino)-5-methyl-1H-1,2,3-triazole-4-carboxylate'
_symmetry_cell_setting           monoclinic
_symmetry_space_group_name_H-M   'P 21/c'
_symmetry_Int_Tables_number      14
_space_group_name_Hall           '-P 2ybc'
loop_
_symmetry_equiv_pos_site_id
_symmetry_equiv_pos_as_xyz
1 x,y,z
2 -x,1/2+y,1/2-z
3 -x,-y,-z
4 x,1/2-y,1/2+z
_cell_length_a                   8.965(4)
_cell_length_b                   9.911(4)
_cell_length_c                   15.067(7)
_cell_angle_alpha                90
_cell_angle_beta                 96.587(14)
_cell_angle_gamma                90
_cell_volume                     1329.9
_exptl_crystal_colour            orange
_exptl_crystal_description       prism
_cell_formula_units_Z            4
loop_
_atom_site_label
_atom_site_type_symbol
_atom_site_fract_x
_atom_site_fract_y
_atom_site_fract_z
O1 O 1.03665(15) -0.25530(14) 0.55301(9)
O2 O 0.84505(15) -0.14201(13) 0.47560(9)
O3 O 0.28581(15) 0.10090(14) 0.94554(10)
N1 N 0.84061(17) 0.06274(16) 0.71533(10)
N2 N 0.94650(18) -0.01469(17) 0.76318(11)
N3 N 0.98733(18) -0.10476(17) 0.70684(11)
N4 N 0.77526(18) 0.17355(17) 0.75196(11)
H1 H 0.850(3) 0.230(2) 0.7775(15)
C1 C 0.8114(2) 0.02168(19) 0.62920(12)
C2 C 0.9071(2) -0.08586(19) 0.62503(13)
C3 C 0.6995(2) 0.0907(2) 0.56448(13)
H2 H 0.6184 0.1267 0.5959
H3 H 0.6580 0.0261 0.5189
H4 H 0.7483 0.1648 0.5358
C4 C 0.9380(2) -0.17150(19) 0.54926(13)
C5 C 0.8600(2) -0.2246(2) 0.39699(13)
H5 H 0.8343 -0.3197 0.4084
H6 H 0.9643 -0.2211 0.3816
C6 C 0.7536(2) -0.1678(2) 0.32239(14)
H7 H 0.6505 -0.1754 0.3375
H8 H 0.7631 -0.2182 0.2674
H9 H 0.7776 -0.0726 0.3135
C7 C 0.6553(2) 0.14462(19) 0.80391(12)
C8 C 0.5888(2) 0.0193(2) 0.80663(13)
H10 H 0.6274 -0.0544 0.7760
C9 C 0.4653(2) -0.0004(2) 0.85398(13)
H11 H 0.4206 -0.0871 0.8555
C10 C 0.4079(2) 0.1066(2) 0.89869(13)
C11 C 0.4757(2) 0.23304(19) 0.89599(13)
H12 H 0.4374 0.3068 0.9266
C12 C 0.5980(2) 0.25209(19) 0.84912(12)
H13 H 0.6431 0.3387 0.8478
C13 C 0.2174(2) -0.0279(2) 0.95383(15)
H14 H 0.1813 -0.0626 0.8943
H15 H 0.1328 -0.0189 0.9892
H16 H 0.2914 -0.0907 0.9837
loop_
_geom_bond_atom_site_label_1
_geom_bond_atom_site_label_2
_geom_bond_site_symmetry_1
_geom_bond_site_symmetry_2
O1 C4 1_555 1_555
O2 C4 1_555 1_555
O3 C10 1_555 1_555
N1 N2 1_555 1_555
N2 N3 1_555 1_555
N3 C2 1_555 1_555
N4 N1 1_555 1_555
H1 N4 1_555 1_555
C1 N1 1_555 1_555
C2 C1 1_555 1_555
C3 C1 1_555 1_555
H2 C3 1_555 1_555
H3 C3 1_555 1_555
H4 C3 1_555 1_555
C4 C2 1_555 1_555
C5 O2 1_555 1_555
H5 C5 1_555 1_555
H6 C5 1_555 1_555
C6 C5 1_555 1_555
H7 C6 1_555 1_555
H8 C6 1_555 1_555
H9 C6 1_555 1_555
C7 N4 1_555 1_555
C8 C7 1_555 1_555
H10 C8 1_555 1_555
C9 C8 1_555 1_555
H11 C9 1_555 1_555
C10 C9 1_555 1_555
C11 C10 1_555 1_555
H12 C11 1_555 1_555
C12 C7 1_555 1_555
H13 C12 1_555 1_555
C13 O3 1_555 1_555
H14 C13 1_555 1_555
H15 C13 1_555 1_555
H16 C13 1_555 1_555
C11 C12 1_555 1_555

#END
