
#######################################################################
#
#                 Cambridge Crystallographic Data Centre
#                                CCDC 
#
#######################################################################
#
# If this CIF has been generated from an entry in the Cambridge 
# Structural Database, then it will include bibliographic, chemical, 
# crystal, experimental, refinement or atomic coordinate data resulting 
# from the CCDC's data processing and validation procedures.
#
#######################################################################

data_TIDTEH
_chemical_formula_moiety         'C12 H14 N4 O2'
_chemical_name_systematic        
'Ethyl 1-anilino-5-methyl-1H-1,2,3-triazole-4-carboxylate'
_symmetry_cell_setting           orthorhombic
_symmetry_space_group_name_H-M   'P c a 21'
_symmetry_Int_Tables_number      29
_space_group_name_Hall           'P 2c -2ac'
loop_
_symmetry_equiv_pos_site_id
_symmetry_equiv_pos_as_xyz
1 x,y,z
2 -x,-y,1/2+z
3 1/2-x,y,1/2+z
4 1/2+x,-y,z
_cell_length_a                   22.1366(6)
_cell_length_b                   10.4274(3)
_cell_length_c                   10.7186(3)
_cell_angle_alpha                90
_cell_angle_beta                 90
_cell_angle_gamma                90
_cell_volume                     2474.14
_exptl_crystal_colour            brown
_exptl_crystal_description       lath
_cell_formula_units_Z            8
loop_
_atom_site_label
_atom_site_type_symbol
_atom_site_fract_x
_atom_site_fract_y
_atom_site_fract_z
O1 O 0.99724(9) -0.28921(18) 1.12163(19)
O2 O 1.04429(7) -0.17406(16) 0.97325(16)
N1 N 0.90221(8) 0.07313(18) 1.02311(18)
N2 N 0.87461(10) 0.00673(18) 1.11690(19)
N3 N 0.90674(9) -0.09717(18) 1.13168(19)
N4 N 0.88272(9) 0.19339(18) 0.9881(2)
H1 H 0.8898(13) 0.2544(19) 1.043(2)
C1 C 0.95160(10) 0.0135(2) 0.9789(2)
C2 C 0.95397(10) -0.0958(2) 1.0493(2)
C3 C 0.98964(12) 0.0672(2) 0.8786(2)
H2 H 0.9667 0.1320 0.8324
H3 H 1.0018 -0.0017 0.8217
H4 H 1.0257 0.1068 0.9151
C4 C 0.99954(11) -0.1982(2) 1.0539(2)
C5 C 1.09669(12) -0.2571(3) 0.9801(3)
H5 H 1.1164 -0.2615 0.8973
H6 H 1.0839 -0.3448 1.0035
C6 C 1.14053(13) -0.2074(3) 1.0744(3)
H7 H 1.1501 -0.1176 1.0558
H8 H 1.1776 -0.2586 1.0715
H9 H 1.1226 -0.2133 1.1579
C7 C 0.82889(10) 0.2028(2) 0.9204(2)
C8 C 0.80124(11) 0.0981(2) 0.8656(2)
H10 H 0.8167 0.0143 0.8794
C9 C 0.75080(12) 0.1156(2) 0.7905(3)
H11 H 0.7320 0.0434 0.7528
C10 C 0.72779(11) 0.2363(3) 0.7702(2)
H12 H 0.6936 0.2480 0.7179
C11 C 0.75510(13) 0.3407(2) 0.8270(3)
H13 H 0.7391 0.4242 0.8139
C12 C 0.80488(11) 0.3252(2) 0.9018(2)
H14 H 0.8229 0.3974 0.9409
O3 O 0.00351(8) 0.78428(17) 0.65101(17)
O4 O -0.05384(7) 0.66811(15) 0.78114(16)
N5 N 0.08988(9) 0.42148(18) 0.78293(18)
N6 N 0.12427(9) 0.48670(19) 0.6987(2)
N7 N 0.09367(9) 0.58924(19) 0.66998(18)
N8 N 0.10577(10) 0.30149(19) 0.8249(2)
H15 H 0.1021(12) 0.2422(19) 0.7664(19)
C13 C 0.03723(11) 0.4808(2) 0.8074(2)
C14 C 0.04043(10) 0.5890(2) 0.7347(2)
C15 C -0.00850(11) 0.4300(2) 0.8950(2)
H16 H -0.0446 0.4040 0.8484
H17 H -0.0193 0.4966 0.9555
H18 H 0.0081 0.3556 0.9392
C16 C -0.00374(11) 0.6918(2) 0.7170(2)
C17 C -0.10403(11) 0.7568(2) 0.7642(2)
H19 H -0.1188 0.7543 0.6771
H20 H -0.0914 0.8456 0.7841
C18 C -0.15242(12) 0.7129(3) 0.8525(3)
H21 H -0.1657 0.6265 0.8291
H22 H -0.1868 0.7720 0.8483
H23 H -0.1364 0.7115 0.9377
C19 C 0.15364(11) 0.2916(2) 0.9110(2)
C20 C 0.17713(11) 0.3962(2) 0.9743(2)
H24 H 0.1621 0.4799 0.9579
C21 C 0.22250(11) 0.3788(3) 1.0614(2)
H25 H 0.2390 0.4509 1.1035
C22 C 0.24403(13) 0.2579(3) 1.0877(3)
H26 H 0.2750 0.2465 1.1480
C23 C 0.22026(11) 0.1537(3) 1.0259(3)
H27 H 0.2348 0.0701 1.0443
C24 C 0.17533(11) 0.1696(2) 0.9371(2)
H28 H 0.1595 0.0973 0.8942
loop_
_geom_bond_atom_site_label_1
_geom_bond_atom_site_label_2
_geom_bond_site_symmetry_1
_geom_bond_site_symmetry_2
O1 C4 1_555 1_555
O2 C4 1_555 1_555
N1 N2 1_555 1_555
N2 N3 1_555 1_555
N3 C2 1_555 1_555
N4 N1 1_555 1_555
H1 N4 1_555 1_555
C1 N1 1_555 1_555
C2 C1 1_555 1_555
C3 C1 1_555 1_555
H2 C3 1_555 1_555
H3 C3 1_555 1_555
H4 C3 1_555 1_555
C4 C2 1_555 1_555
C5 O2 1_555 1_555
H5 C5 1_555 1_555
H6 C5 1_555 1_555
C6 C5 1_555 1_555
H7 C6 1_555 1_555
H8 C6 1_555 1_555
H9 C6 1_555 1_555
C7 N4 1_555 1_555
C8 C7 1_555 1_555
H10 C8 1_555 1_555
C9 C8 1_555 1_555
H11 C9 1_555 1_555
C10 C9 1_555 1_555
H12 C10 1_555 1_555
C11 C10 1_555 1_555
H13 C11 1_555 1_555
C12 C7 1_555 1_555
H14 C12 1_555 1_555
O3 C16 1_555 1_555
O4 C16 1_555 1_555
N5 N6 1_555 1_555
N6 N7 1_555 1_555
N7 C14 1_555 1_555
N8 N5 1_555 1_555
H15 N8 1_555 1_555
C13 N5 1_555 1_555
C14 C13 1_555 1_555
C15 C13 1_555 1_555
H16 C15 1_555 1_555
H17 C15 1_555 1_555
H18 C15 1_555 1_555
C16 C14 1_555 1_555
C17 O4 1_555 1_555
H19 C17 1_555 1_555
H20 C17 1_555 1_555
C18 C17 1_555 1_555
H21 C18 1_555 1_555
H22 C18 1_555 1_555
H23 C18 1_555 1_555
C19 N8 1_555 1_555
C20 C19 1_555 1_555
H24 C20 1_555 1_555
C21 C20 1_555 1_555
H25 C21 1_555 1_555
C22 C21 1_555 1_555
H26 C22 1_555 1_555
C23 C22 1_555 1_555
H27 C23 1_555 1_555
C24 C19 1_555 1_555
H28 C24 1_555 1_555
C11 C12 1_555 1_555
C23 C24 1_555 1_555

#END
