
#######################################################################
#
#                 Cambridge Crystallographic Data Centre
#                                CCDC 
#
#######################################################################
#
# If this CIF has been generated from an entry in the Cambridge 
# Structural Database, then it will include bibliographic, chemical, 
# crystal, experimental, refinement or atomic coordinate data resulting 
# from the CCDC's data processing and validation procedures.
#
#######################################################################

data_TIDTAD
_chemical_formula_moiety         'C12 H13 F1 N4 O2'
_chemical_name_systematic        
'Ethyl 1-((4-fluorophenyl)amino)-5-methyl-1H-1,2,3-triazole-4-carboxylate'
_symmetry_cell_setting           monoclinic
_symmetry_space_group_name_H-M   'P 21/c'
_symmetry_Int_Tables_number      14
_space_group_name_Hall           '-P 2ybc'
loop_
_symmetry_equiv_pos_site_id
_symmetry_equiv_pos_as_xyz
1 x,y,z
2 -x,1/2+y,1/2-z
3 -x,-y,-z
4 x,1/2-y,1/2+z
_cell_length_a                   10.057(3)
_cell_length_b                   17.510(4)
_cell_length_c                   14.102(4)
_cell_angle_alpha                90
_cell_angle_beta                 95.722(3)
_cell_angle_gamma                90
_cell_volume                     2470.96
_exptl_crystal_colour            colorless
_exptl_crystal_description       block
_cell_formula_units_Z            8
loop_
_atom_site_label
_atom_site_type_symbol
_atom_site_fract_x
_atom_site_fract_y
_atom_site_fract_z
F1 F 0.35080(14) 0.07103(9) 1.36600(9)
O1 O 0.21531(15) 0.16960(10) 0.66198(11)
O2 O 0.40311(15) 0.09964(10) 0.68869(11)
N1 N 0.41998(16) 0.19577(11) 0.95470(12)
N2 N 0.30438(18) 0.23695(11) 0.93948(13)
N3 N 0.25443(17) 0.21994(11) 0.85323(13)
N4 N 0.50087(19) 0.20070(13) 1.03889(13)
H1 H 0.549(3) 0.2429(10) 1.041(2)
C1 C 0.44309(19) 0.15294(13) 0.87946(15)
C2 C 0.33664(19) 0.16970(12) 0.81405(15)
C3 C 0.5601(2) 0.10181(14) 0.87861(17)
H2 H 0.6145 0.1179 0.8283
H3 H 0.5294 0.0493 0.8665
H4 H 0.6138 0.1044 0.9405
C4 C 0.30917(19) 0.14713(12) 0.71421(14)
C5 C 0.3902(2) 0.07477(15) 0.59021(16)
H5 H 0.4796 0.0625 0.5707
H6 H 0.3516 0.1165 0.5489
C6 C 0.3020(2) 0.00559(14) 0.57785(17)
H7 H 0.3382 -0.0349 0.6209
H8 H 0.2985 -0.0123 0.5118
H9 H 0.2117 0.0189 0.5927
C7 C 0.45487(19) 0.17007(12) 1.12056(14)
C8 C 0.3546(2) 0.11542(13) 1.11612(15)
H10 H 0.3105 0.1006 1.0562
C9 C 0.3188(2) 0.08256(13) 1.19914(16)
H11 H 0.2494 0.0456 1.1969
C10 C 0.3846(2) 0.10401(13) 1.28445(15)
C11 C 0.4844(2) 0.15808(13) 1.29098(15)
H12 H 0.5288 0.1718 1.3512
C12 C 0.5189(2) 0.19186(13) 1.20880(15)
H13 H 0.5863 0.2300 1.2121
F2 F 0.85298(14) 0.03486(9) -0.03513(10)
O3 O 0.68173(15) 0.17240(10) 0.58972(12)
O4 O 0.88441(14) 0.11776(9) 0.60420(10)
N5 N 0.91161(16) 0.22457(11) 0.34389(12)
N6 N 0.79478(17) 0.26389(11) 0.34511(13)
N7 N 0.74357(17) 0.24310(11) 0.42180(13)
N8 N 0.97986(17) 0.23234(11) 0.26494(13)
H14 H 1.0646(12) 0.2443(15) 0.2788(18)
C13 C 0.93537(19) 0.17838(12) 0.42067(14)
C14 C 0.82657(19) 0.19165(12) 0.47030(14)
C15 C 1.0547(2) 0.12939(14) 0.43726(16)
H15 H 1.0995 0.1264 0.3788
H16 H 1.0278 0.0781 0.4555
H17 H 1.1161 0.1512 0.4885
C16 C 0.7890(2) 0.16076(12) 0.55996(15)
C17 C 0.8544(2) 0.08558(14) 0.69461(15)
H18 H 0.7837 0.0463 0.6839
H19 H 0.8224 0.1261 0.7357
C18 C 0.9798(2) 0.05059(16) 0.74139(17)
H20 H 1.0120 0.0116 0.6993
H21 H 0.9615 0.0269 0.8017
H22 H 1.0481 0.0903 0.7538
C19 C 0.94763(19) 0.17898(12) 0.19098(14)
C20 C 0.8406(2) 0.12936(13) 0.19147(16)
H23 H 0.7892 0.1284 0.2444
C21 C 0.8083(2) 0.08089(14) 0.11473(17)
H24 H 0.7346 0.0469 0.1144
C22 C 0.8846(2) 0.08294(14) 0.03951(16)
C23 C 0.9912(2) 0.13161(14) 0.03714(16)
H25 H 1.0425 0.1318 -0.0159
C24 C 1.0226(2) 0.18020(14) 0.11302(16)
H26 H 1.0955 0.2146 0.1121
loop_
_geom_bond_atom_site_label_1
_geom_bond_atom_site_label_2
_geom_bond_site_symmetry_1
_geom_bond_site_symmetry_2
F1 C10 1_555 1_555
O1 C4 1_555 1_555
O2 C4 1_555 1_555
N1 N2 1_555 1_555
N2 N3 1_555 1_555
N3 C2 1_555 1_555
N4 N1 1_555 1_555
H1 N4 1_555 1_555
C1 N1 1_555 1_555
C2 C1 1_555 1_555
C3 C1 1_555 1_555
H2 C3 1_555 1_555
H3 C3 1_555 1_555
H4 C3 1_555 1_555
C4 C2 1_555 1_555
C5 O2 1_555 1_555
H5 C5 1_555 1_555
H6 C5 1_555 1_555
C6 C5 1_555 1_555
H7 C6 1_555 1_555
H8 C6 1_555 1_555
H9 C6 1_555 1_555
C7 N4 1_555 1_555
C8 C7 1_555 1_555
H10 C8 1_555 1_555
C9 C8 1_555 1_555
H11 C9 1_555 1_555
C10 C9 1_555 1_555
C11 C10 1_555 1_555
H12 C11 1_555 1_555
C12 C7 1_555 1_555
H13 C12 1_555 1_555
F2 C22 1_555 1_555
O3 C16 1_555 1_555
O4 C16 1_555 1_555
N5 N6 1_555 1_555
N6 N7 1_555 1_555
N7 C14 1_555 1_555
N8 N5 1_555 1_555
H14 N8 1_555 1_555
C13 N5 1_555 1_555
C14 C13 1_555 1_555
C15 C13 1_555 1_555
H15 C15 1_555 1_555
H16 C15 1_555 1_555
H17 C15 1_555 1_555
C16 C14 1_555 1_555
C17 O4 1_555 1_555
H18 C17 1_555 1_555
H19 C17 1_555 1_555
C18 C17 1_555 1_555
H20 C18 1_555 1_555
H21 C18 1_555 1_555
H22 C18 1_555 1_555
C19 N8 1_555 1_555
C20 C19 1_555 1_555
H23 C20 1_555 1_555
C21 C20 1_555 1_555
H24 C21 1_555 1_555
C22 C21 1_555 1_555
C23 C22 1_555 1_555
H25 C23 1_555 1_555
C24 C19 1_555 1_555
H26 C24 1_555 1_555
C11 C12 1_555 1_555
C23 C24 1_555 1_555

#END
