
#######################################################################
#
#                 Cambridge Crystallographic Data Centre
#                                CCDC 
#
#######################################################################
#
# If this CIF has been generated from an entry in the Cambridge 
# Structural Database, then it will include bibliographic, chemical, 
# crystal, experimental, refinement or atomic coordinate data resulting 
# from the CCDC's data processing and validation procedures.
#
#######################################################################

data_TIDYOV
_chemical_formula_moiety         'C24 H20 N2 O4'
_chemical_name_systematic        
"Diethyl (R,S)-4,4'-biquinoline-3,3'-dicarboxylate"
_symmetry_cell_setting           monoclinic
_symmetry_space_group_name_H-M   'P 21/n'
_symmetry_Int_Tables_number      14
_space_group_name_Hall           '-P 2yn'
loop_
_symmetry_equiv_pos_site_id
_symmetry_equiv_pos_as_xyz
1 x,y,z
2 1/2-x,1/2+y,1/2-z
3 -x,-y,-z
4 1/2+x,1/2-y,1/2+z
_cell_length_a                   8.2382(8)
_cell_length_b                   24.952(2)
_cell_length_c                   10.1270(9)
_cell_angle_alpha                90
_cell_angle_beta                 103.629(2)
_cell_angle_gamma                90
_cell_volume                     2023.08
_exptl_crystal_colour            'light yellow'
_exptl_crystal_description       block
_cell_formula_units_Z            4
loop_
_atom_site_label
_atom_site_type_symbol
_atom_site_fract_x
_atom_site_fract_y
_atom_site_fract_z
C1 C 0.2296(2) 0.07539(8) 0.17250(17)
C2 C 0.2466(2) 0.10625(7) 0.30250(17)
C3 C 0.1271(2) 0.09686(7) 0.38071(18)
C4 C 0.3143(2) 0.02534(7) 0.17737(18)
C5 C 0.3763(2) 0.14104(7) 0.35304(18)
N1 N 0.2768(2) 0.15838(7) 0.55578(16)
C6 C 0.3848(3) 0.16552(8) 0.48097(19)
H1 H 0.4741 0.1884 0.5143
O1 O -0.0657(2) 0.14881(6) -0.08400(15)
C7 C 0.1469(3) 0.12424(8) 0.50633(18)
C8 C 0.1270(2) 0.09114(8) 0.05098(18)
C9 C 0.2908(3) -0.00481(8) 0.0562(2)
C10 C 0.0343(3) 0.14246(8) 0.03911(19)
O2 O 0.0462(2) 0.17537(7) 0.12694(15)
C11 C 0.1102(3) 0.05675(9) -0.06293(19)
H2 H 0.0385 0.0676 -0.1438
C12 C -0.0123(3) 0.06276(9) 0.3384(2)
H3 H -0.0278 0.0447 0.2561
N2 N 0.1873(2) 0.01116(7) -0.06317(17)
O3 O 0.6123(2) 0.19063(7) 0.34235(16)
C13 C 0.4208(3) 0.00479(9) 0.2968(2)
H4 H 0.4364 0.0239 0.3778
C14 C 0.3772(3) -0.05414(9) 0.0575(3)
H5 H 0.3634 -0.0742 -0.0218
C15 C 0.5028(3) 0.15542(9) 0.2753(2)
C16 C 0.5007(3) -0.04288(10) 0.2940(3)
H6 H 0.5702 -0.0561 0.3734
C17 C 0.4797(3) -0.07206(9) 0.1739(3)
H7 H 0.5367 -0.1042 0.1737
C18 C 0.0287(3) 0.11606(10) 0.5847(2)
H8 H 0.0416 0.1336 0.6675
C19 C -0.1030(3) 0.08307(12) 0.5413(3)
H9 H -0.1801 0.0782 0.5941
O4 O 0.5050(2) 0.13877(8) 0.16528(18)
C20 C -0.1239(3) 0.05614(11) 0.4167(3)
H10 H -0.2151 0.0335 0.3875
C21 C -0.1698(4) 0.19632(11) -0.1046(3)
H11 H -0.2619 0.1917 -0.0612
H12 H -0.1048 0.2271 -0.0640
C22 C 0.7399(4) 0.20983(14) 0.2761(3)
H13 H 0.6882 0.2256 0.1888
H14 H 0.8103 0.1803 0.2612
C23 C 0.8404(4) 0.25023(15) 0.3655(3)
H15 H 0.9255 0.2637 0.3238
H16 H 0.8917 0.2341 0.4512
H17 H 0.7697 0.2792 0.3796
C24 C -0.2335(4) 0.20533(13) -0.2483(3)
H18 H -0.3027 0.2368 -0.2618
H19 H -0.2983 0.1749 -0.2880
H20 H -0.1419 0.2103 -0.2907
loop_
_geom_bond_atom_site_label_1
_geom_bond_atom_site_label_2
_geom_bond_site_symmetry_1
_geom_bond_site_symmetry_2
C1 C2 1_555 1_555
C2 C3 1_555 1_555
C3 C7 1_555 1_555
C4 C1 1_555 1_555
C5 C2 1_555 1_555
N1 C6 1_555 1_555
C6 C5 1_555 1_555
H1 C6 1_555 1_555
O1 C10 1_555 1_555
C7 N1 1_555 1_555
C8 C1 1_555 1_555
C9 C4 1_555 1_555
C10 C8 1_555 1_555
O2 C10 1_555 1_555
C11 C8 1_555 1_555
H2 C11 1_555 1_555
C12 C3 1_555 1_555
H3 C12 1_555 1_555
N2 C9 1_555 1_555
O3 C15 1_555 1_555
C13 C4 1_555 1_555
H4 C13 1_555 1_555
C14 C9 1_555 1_555
H5 C14 1_555 1_555
C15 C5 1_555 1_555
C16 C13 1_555 1_555
H6 C16 1_555 1_555
C17 C14 1_555 1_555
H7 C17 1_555 1_555
C18 C7 1_555 1_555
H8 C18 1_555 1_555
C19 C18 1_555 1_555
H9 C19 1_555 1_555
O4 C15 1_555 1_555
C20 C12 1_555 1_555
H10 C20 1_555 1_555
C21 O1 1_555 1_555
H11 C21 1_555 1_555
H12 C21 1_555 1_555
C22 O3 1_555 1_555
H13 C22 1_555 1_555
H14 C22 1_555 1_555
C23 C22 1_555 1_555
H15 C23 1_555 1_555
H16 C23 1_555 1_555
H17 C23 1_555 1_555
C24 C21 1_555 1_555
H18 C24 1_555 1_555
H19 C24 1_555 1_555
H20 C24 1_555 1_555
C11 N2 1_555 1_555
C16 C17 1_555 1_555
C19 C20 1_555 1_555

#END
