
#######################################################################
#
#                 Cambridge Crystallographic Data Centre
#                                CCDC 
#
#######################################################################
#
# If this CIF has been generated from an entry in the Cambridge 
# Structural Database, then it will include bibliographic, chemical, 
# crystal, experimental, refinement or atomic coordinate data resulting 
# from the CCDC's data processing and validation procedures.
#
#######################################################################

data_TIFHAU
_chemical_formula_moiety         'C44 H32 N1 O1 P1'
_chemical_name_systematic        
'7-(4-(diphenylamino)phenyl)benzo[b]phosphole oxide'
_symmetry_cell_setting           triclinic
_symmetry_space_group_name_H-M   'P -1'
_symmetry_Int_Tables_number      2
_space_group_name_Hall           '-P 1'
loop_
_symmetry_equiv_pos_site_id
_symmetry_equiv_pos_as_xyz
1 x,y,z
2 -x,-y,-z
_cell_length_a                   9.9250(4)
_cell_length_b                   10.1565(3)
_cell_length_c                   17.6017(7)
_cell_angle_alpha                100.8870(10)
_cell_angle_beta                 93.3470(10)
_cell_angle_gamma                112.723(2)
_cell_volume                     1590.15
_exptl_crystal_colour            brown
_exptl_crystal_description       plate
_cell_formula_units_Z            2
_exptl_crystal_recrystallization_method dichloromethane/hexane
loop_
_atom_site_label
_atom_site_type_symbol
_atom_site_fract_x
_atom_site_fract_y
_atom_site_fract_z
P1 P 0.51170(6) 0.26459(6) 0.21948(3)
O1 O 0.45726(17) 0.11102(16) 0.22904(10)
C1 C 0.5642(2) 0.4117(2) 0.30725(12)
C2 C 0.7138(2) 0.5061(2) 0.30898(13)
C3 C 0.7811(2) 0.4641(2) 0.24010(12)
C4 C 0.6900(2) 0.3412(2) 0.18809(13)
C5 C 0.4842(2) 0.4440(2) 0.36487(13)
C6 C 0.5570(2) 0.5720(2) 0.42424(13)
H1 H 0.5034 0.5984 0.4629
C7 C 0.7055(2) 0.6610(2) 0.42773(13)
H2 H 0.7530 0.7443 0.4699
C8 C 0.7849(2) 0.6285(2) 0.36977(14)
H3 H 0.8863 0.6894 0.3719
C9 C 0.3838(2) 0.2895(2) 0.15195(12)
C10 C 0.4325(2) 0.3956(2) 0.10799(13)
H4 H 0.5348 0.4563 0.1133
C11 C 0.3325(3) 0.4131(3) 0.05658(15)
H5 H 0.3660 0.4863 0.0273
C12 C 0.1827(3) 0.3228(3) 0.04808(14)
H6 H 0.1142 0.3344 0.0128
C13 C 0.1336(2) 0.2168(3) 0.09070(15)
H7 H 0.0314 0.1552 0.0843
C14 C 0.2331(2) 0.1995(2) 0.14320(14)
H8 H 0.1987 0.1270 0.1728
C15 C 0.9375(2) 0.5552(2) 0.23398(12)
C16 C 0.9807(2) 0.7024(2) 0.23130(13)
H9 H 0.9106 0.7449 0.2341
C17 C 1.1262(3) 0.7868(2) 0.22458(13)
H10 H 1.1545 0.8861 0.2216
C18 C 1.2310(2) 0.7261(3) 0.22217(14)
H11 H 1.3307 0.7842 0.2184
C19 C 1.1881(2) 0.5805(3) 0.22532(15)
H12 H 1.2589 0.5387 0.2238
C20 C 1.0415(2) 0.4945(3) 0.23064(14)
H13 H 1.0129 0.3944 0.2320
C21 C 0.7184(2) 0.2771(2) 0.11070(13)
C22 C 0.7896(2) 0.3664(3) 0.06108(13)
H14 H 0.8257 0.4700 0.0781
C23 C 0.8075(3) 0.3042(3) -0.01279(14)
H15 H 0.8545 0.3654 -0.0465
C24 C 0.7569(3) 0.1526(3) -0.03775(15)
H16 H 0.7699 0.1103 -0.0882
C25 C 0.6873(3) 0.0633(3) 0.01146(14)
H17 H 0.6538 -0.0401 -0.0052
C26 C 0.6666(2) 0.1246(2) 0.08464(14)
H18 H 0.6169 0.0627 0.1175
C27 C 0.3267(2) 0.3509(2) 0.36599(13)
C28 C 0.2292(2) 0.4162(2) 0.38668(13)
H19 H 0.2653 0.5202 0.4009
C29 C 0.0805(2) 0.3324(3) 0.38688(14)
H20 H 0.0157 0.3788 0.4006
C30 C 0.0268(2) 0.1795(3) 0.36674(13)
C31 C 0.1243(3) 0.1134(2) 0.35098(13)
H21 H 0.0894 0.0096 0.3409
C32 C 0.2725(2) 0.1972(2) 0.34977(13)
H22 H 0.3375 0.1503 0.3379
N1 N -0.1267(2) 0.0913(2) 0.35969(12)
C33 C -0.2053(2) 0.1210(2) 0.42056(13)
C34 C -0.3389(3) 0.1327(3) 0.40432(15)
H23 H -0.3797 0.1199 0.3519
C35 C -0.4118(3) 0.1636(3) 0.46618(15)
H24 H -0.5037 0.1699 0.4554
C36 C -0.3526(3) 0.1850(3) 0.54312(15)
H25 H -0.4031 0.2064 0.5847
C37 C -0.2186(3) 0.1750(3) 0.55863(15)
H26 H -0.1764 0.1909 0.6111
C38 C -0.1464(3) 0.1419(3) 0.49782(15)
H27 H -0.0557 0.1333 0.5089
C39 C -0.1981(2) -0.0125(2) 0.28856(14)
C40 C -0.1410(3) 0.0065(2) 0.21956(14)
H28 H -0.0554 0.0917 0.2196
C41 C -0.2080(3) -0.0984(3) 0.15014(14)
H29 H -0.1664 -0.0857 0.1034
C42 C -0.3352(3) -0.2214(3) 0.14878(15)
H30 H -0.3822 -0.2920 0.1012
C43 C -0.3928(2) -0.2400(3) 0.21768(16)
H31 H -0.4798 -0.3242 0.2171
C44 C -0.3253(2) -0.1377(3) 0.28738(14)
H32 H -0.3653 -0.1525 0.3343
loop_
_geom_bond_atom_site_label_1
_geom_bond_atom_site_label_2
_geom_bond_site_symmetry_1
_geom_bond_site_symmetry_2
P1 O1 1_555 1_555
C1 P1 1_555 1_555
C2 C1 1_555 1_555
C3 C2 1_555 1_555
C4 P1 1_555 1_555
C5 C1 1_555 1_555
C6 C5 1_555 1_555
H1 C6 1_555 1_555
C7 C6 1_555 1_555
H2 C7 1_555 1_555
C8 C2 1_555 1_555
H3 C8 1_555 1_555
C9 P1 1_555 1_555
C10 C9 1_555 1_555
H4 C10 1_555 1_555
C11 C10 1_555 1_555
H5 C11 1_555 1_555
C12 C11 1_555 1_555
H6 C12 1_555 1_555
C13 C12 1_555 1_555
H7 C13 1_555 1_555
C14 C9 1_555 1_555
H8 C14 1_555 1_555
C15 C3 1_555 1_555
C16 C15 1_555 1_555
H9 C16 1_555 1_555
C17 C16 1_555 1_555
H10 C17 1_555 1_555
C18 C17 1_555 1_555
H11 C18 1_555 1_555
C19 C18 1_555 1_555
H12 C19 1_555 1_555
C20 C15 1_555 1_555
H13 C20 1_555 1_555
C21 C4 1_555 1_555
C22 C21 1_555 1_555
H14 C22 1_555 1_555
C23 C22 1_555 1_555
H15 C23 1_555 1_555
C24 C23 1_555 1_555
H16 C24 1_555 1_555
C25 C24 1_555 1_555
H17 C25 1_555 1_555
C26 C21 1_555 1_555
H18 C26 1_555 1_555
C27 C5 1_555 1_555
C28 C27 1_555 1_555
H19 C28 1_555 1_555
C29 C28 1_555 1_555
H20 C29 1_555 1_555
C30 C29 1_555 1_555
C31 C30 1_555 1_555
H21 C31 1_555 1_555
C32 C27 1_555 1_555
H22 C32 1_555 1_555
N1 C30 1_555 1_555
C33 N1 1_555 1_555
C34 C33 1_555 1_555
H23 C34 1_555 1_555
C35 C34 1_555 1_555
H24 C35 1_555 1_555
C36 C35 1_555 1_555
H25 C36 1_555 1_555
C37 C36 1_555 1_555
H26 C37 1_555 1_555
C38 C33 1_555 1_555
H27 C38 1_555 1_555
C39 N1 1_555 1_555
C40 C39 1_555 1_555
H28 C40 1_555 1_555
C41 C40 1_555 1_555
H29 C41 1_555 1_555
C42 C41 1_555 1_555
H30 C42 1_555 1_555
C43 C42 1_555 1_555
H31 C43 1_555 1_555
C44 C39 1_555 1_555
H32 C44 1_555 1_555
C3 C4 1_555 1_555
C7 C8 1_555 1_555
C13 C14 1_555 1_555
C19 C20 1_555 1_555
C25 C26 1_555 1_555
C31 C32 1_555 1_555
C37 C38 1_555 1_555
C43 C44 1_555 1_555

#END
