
#######################################################################
#
#                 Cambridge Crystallographic Data Centre
#                                CCDC 
#
#######################################################################
#
# If this CIF has been generated from an entry in the Cambridge 
# Structural Database, then it will include bibliographic, chemical, 
# crystal, experimental, refinement or atomic coordinate data resulting 
# from the CCDC's data processing and validation procedures.
#
#######################################################################

data_TIFJEY
_chemical_formula_moiety         'C21 H20 Cl1 F2 N1 O4'
_chemical_name_systematic        
(4S)-4-Benzyl-3-((2R,3S)-4-chloro-3-(2,5-difluorophenyl)-3-hydroxy-2-methyl-1-oxobutyl)oxazolidin-2-one
_symmetry_cell_setting           orthorhombic
_symmetry_space_group_name_H-M   'P 21 21 21'
_symmetry_Int_Tables_number      19
_space_group_name_Hall           'P 2ac 2ab'
loop_
_symmetry_equiv_pos_site_id
_symmetry_equiv_pos_as_xyz
1 x,y,z
2 1/2-x,-y,1/2+z
3 1/2+x,1/2-y,-z
4 -x,1/2+y,1/2-z
_cell_length_a                   8.2983(7)
_cell_length_b                   11.1748(9)
_cell_length_c                   21.3114(17)
_cell_angle_alpha                90
_cell_angle_beta                 90
_cell_angle_gamma                90
_cell_volume                     1976.25
_exptl_crystal_colour            colorless
_chemical_melting_point          '109-111 deg.C'
_cell_formula_units_Z            4
loop_
_atom_site_label
_atom_site_type_symbol
_atom_site_fract_x
_atom_site_fract_y
_atom_site_fract_z
Cl1 Cl 0.20469(11) 0.15195(7) 0.03951(4)
F1 F -0.1554(2) -0.03508(15) 0.05077(7)
F2 F -0.2826(2) 0.34410(15) 0.19959(9)
O1 O 0.1303(2) 0.03193(16) 0.21100(7)
H1 H 0.1175 0.0992 0.2256
O2 O -0.0572(2) -0.16424(15) 0.19751(8)
O3 O 0.0931(3) -0.26188(19) 0.01715(9)
O4 O -0.0564(3) -0.42174(17) 0.03949(9)
N1 N -0.0447(3) -0.27945(17) 0.11227(9)
C1 C -0.1823(3) 0.0600(2) 0.08919(11)
C2 C -0.3255(3) 0.1207(2) 0.08020(13)
H2 H -0.3978 0.0963 0.0494
C3 C -0.3591(4) 0.2179(3) 0.11766(14)
H3 H -0.4534 0.2617 0.1121
C4 C -0.2512(4) 0.2486(2) 0.16298(13)
C5 C -0.1108(3) 0.1878(2) 0.17220(12)
H4 H -0.0411 0.2118 0.2040
C6 C -0.0703(3) 0.0903(2) 0.13463(11)
C7 C 0.0968(3) 0.0337(2) 0.14505(11)
C8 C 0.1203(3) -0.0926(2) 0.11720(11)
H5 H 0.1034 -0.0886 0.0717
C9 C -0.0009(3) -0.1781(2) 0.14498(11)
C10 C 0.0063(4) -0.3147(2) 0.05229(12)
C11 C -0.1390(4) -0.4698(2) 0.09351(13)
H6 H -0.0734 -0.5299 0.1141
H7 H -0.2406 -0.5058 0.0813
C12 C -0.1670(3) -0.3633(2) 0.13667(11)
H8 H -0.1425 -0.3850 0.1802
C13 C -0.3364(3) -0.3086(2) 0.13215(12)
H9 H -0.3419 -0.2389 0.1592
H10 H -0.3549 -0.2820 0.0894
C14 C -0.4675(3) -0.3945(2) 0.15043(12)
C15 C -0.5599(3) -0.4511(3) 0.10545(13)
H11 H -0.5392 -0.4374 0.0632
C16 C -0.6837(4) -0.5286(3) 0.12276(16)
H12 H -0.7453 -0.5663 0.0921
C17 C -0.7144(4) -0.5489(3) 0.18448(17)
H13 H -0.7970 -0.6007 0.1960
C18 C -0.6238(4) -0.4932(3) 0.23016(16)
H14 H -0.6453 -0.5068 0.2724
C19 C -0.5022(4) -0.4177(3) 0.21286(13)
H15 H -0.4410 -0.3808 0.2439
C20 C 0.2239(3) 0.1211(2) 0.12018(13)
H16 H 0.3301 0.0879 0.1279
H17 H 0.2159 0.1956 0.1434
C21 C 0.2898(3) -0.1429(3) 0.12983(14)
H18 H 0.2986 -0.2213 0.1118
H19 H 0.3076 -0.1476 0.1743
H20 H 0.3690 -0.0911 0.1113
loop_
_geom_bond_atom_site_label_1
_geom_bond_atom_site_label_2
_geom_bond_site_symmetry_1
_geom_bond_site_symmetry_2
Cl1 C20 1_555 1_555
F1 C1 1_555 1_555
F2 C4 1_555 1_555
O1 H1 1_555 1_555
O2 C9 1_555 1_555
O3 C10 1_555 1_555
O4 C10 1_555 1_555
N1 C9 1_555 1_555
C1 C2 1_555 1_555
C2 H2 1_555 1_555
C3 C2 1_555 1_555
H3 C3 1_555 1_555
C4 C3 1_555 1_555
C5 C4 1_555 1_555
H4 C5 1_555 1_555
C6 C1 1_555 1_555
C7 O1 1_555 1_555
C8 C7 1_555 1_555
H5 C8 1_555 1_555
C9 C8 1_555 1_555
C10 N1 1_555 1_555
C11 O4 1_555 1_555
H6 C11 1_555 1_555
H7 C11 1_555 1_555
C12 N1 1_555 1_555
H8 C12 1_555 1_555
C13 C12 1_555 1_555
H9 C13 1_555 1_555
H10 C13 1_555 1_555
C14 C13 1_555 1_555
C15 C14 1_555 1_555
H11 C15 1_555 1_555
C16 C15 1_555 1_555
H12 C16 1_555 1_555
C17 C16 1_555 1_555
H13 C17 1_555 1_555
C18 C17 1_555 1_555
H14 C18 1_555 1_555
C19 C14 1_555 1_555
H15 C19 1_555 1_555
C20 C7 1_555 1_555
H16 C20 1_555 1_555
H17 C20 1_555 1_555
C21 C8 1_555 1_555
H18 C21 1_555 1_555
H19 C21 1_555 1_555
H20 C21 1_555 1_555
C5 C6 1_555 1_555
C6 C7 1_555 1_555
C11 C12 1_555 1_555
C18 C19 1_555 1_555

#END
