
#######################################################################
#
#                 Cambridge Crystallographic Data Centre
#                                CCDC 
#
#######################################################################
#
# If this CIF has been generated from an entry in the Cambridge 
# Structural Database, then it will include bibliographic, chemical, 
# crystal, experimental, refinement or atomic coordinate data resulting 
# from the CCDC's data processing and validation procedures.
#
#######################################################################

data_TIFMIF
_chemical_formula_moiety         'C50 H34 O4,3(C4 H8 O2),2(C8 H10)'
_chemical_name_systematic        
"9,10-bis(4,4''-Dihydroxy-m-terphenyl-5'-yl)anthracene tris(ethyl acetate) bis(p-xylene) clathrate"
_symmetry_cell_setting           triclinic
_symmetry_space_group_name_H-M   'P -1'
_symmetry_Int_Tables_number      2
_space_group_name_Hall           '-P 1'
loop_
_symmetry_equiv_pos_site_id
_symmetry_equiv_pos_as_xyz
1 x,y,z
2 -x,-y,-z
_cell_length_a                   11.7863(3)
_cell_length_b                   12.1310(4)
_cell_length_c                   13.864(1)
_cell_angle_alpha                87.451(2)
_cell_angle_beta                 66.360(3)
_cell_angle_gamma                62.936(4)
_cell_volume                     1593.78
_exptl_crystal_colour            yellow
_exptl_crystal_description       block
_cell_formula_units_Z            1
loop_
_atom_site_label
_atom_site_type_symbol
_atom_site_fract_x
_atom_site_fract_y
_atom_site_fract_z
O1 O 1.7496(2) -0.5826(2) -0.6752(2)
O2 O 1.8310(2) -0.4751(2) 0.1519(2)
C1 C 1.1753(3) 0.1798(3) -0.1480(2)
C2 C 1.2090(3) 0.0609(3) -0.1335(2)
C3 C 1.1058(3) 0.0278(2) -0.0674(2)
C4 C 1.1412(3) -0.0957(2) -0.0495(2)
C5 C 1.0372(3) -0.1243(2) 0.0170(2)
C6 C 1.0680(3) -0.2488(2) 0.0352(2)
C7 C 1.0339(3) 0.2757(3) -0.0979(3)
C8 C 1.2912(3) -0.1957(2) -0.0995(2)
C9 C 1.3553(3) -0.2506(2) -0.2050(2)
C10 C 1.4953(3) -0.3430(2) -0.2512(2)
C11 C 1.5702(3) -0.3774(2) -0.1896(2)
C12 C 1.5085(3) -0.3257(2) -0.0835(2)
C13 C 1.3675(3) -0.2348(2) -0.0393(2)
C14 C 1.5908(3) -0.3645(2) -0.0199(2)
C15 C 1.7205(3) -0.3685(3) -0.0577(2)
C16 C 1.7993(3) -0.4044(3) 0.0001(2)
C17 C 1.7486(3) -0.4379(2) 0.0981(2)
C18 C 1.6209(3) -0.4355(3) 0.1371(2)
C19 C 1.5425(3) -0.3982(2) 0.0783(2)
C20 C 1.5627(3) -0.4059(2) -0.3627(2)
C21 C 1.6574(3) -0.5333(3) -0.3917(2)
C22 C 1.7210(3) -0.5943(3) -0.4950(2)
C23 C 1.6902(3) -0.5273(3) -0.5720(2)
C24 C 1.5971(3) -0.4011(3) -0.5458(2)
C25 C 1.5344(3) -0.3418(3) -0.4418(2)
H1 H 1.010(3) 0.360(3) -0.109(2)
H2 H 1.163(3) -0.313(2) 0.000(2)
H3 H 1.308(3) -0.003(3) -0.169(2)
H4 H 1.250(3) 0.203(3) -0.198(2)
H5 H 1.329(3) -0.200(2) 0.030(2)
H6 H 1.664(3) -0.435(2) -0.220(2)
H7 H 1.304(3) -0.226(2) -0.248(2)
H8 H 1.677(3) -0.581(3) -0.338(2)
H9 H 1.784(3) -0.685(3) -0.514(2)
H10 H 1.580(3) -0.356(3) -0.599(3)
H11 H 1.472(3) -0.251(3) -0.425(2)
H12 H 1.751(3) -0.345(2) -0.121(2)
H13 H 1.885(4) -0.405(3) -0.024(3)
H14 H 1.593(3) -0.469(2) 0.200(2)
H15 H 1.455(4) -0.395(3) 0.105(3)
H16 H 1.793(4) -0.507(3) 0.215(3)
H17 H 1.812(4) -0.674(4) -0.685(3)
O1A O 0.2504(2) 0.5826(2) 0.6752(2)
O2A O 0.1690(2) 0.4751(2) -0.1519(2)
C1A C 0.8247(3) -0.1798(3) 0.1480(2)
C2A C 0.7910(3) -0.0609(3) 0.1335(2)
C3A C 0.8942(3) -0.0278(2) 0.0674(2)
C4A C 0.8588(3) 0.0957(2) 0.0495(2)
C5A C 0.9628(3) 0.1243(2) -0.0170(2)
C6A C 0.9320(3) 0.2488(2) -0.0352(2)
C7A C 0.9661(3) -0.2757(3) 0.0979(3)
C8A C 0.7088(3) 0.1957(2) 0.0995(2)
C9A C 0.6447(3) 0.2506(2) 0.2050(2)
C10A C 0.5047(3) 0.3430(2) 0.2512(2)
C11A C 0.4298(3) 0.3774(2) 0.1896(2)
C12A C 0.4915(3) 0.3257(2) 0.0835(2)
C13A C 0.6325(3) 0.2348(2) 0.0393(2)
C14A C 0.4092(3) 0.3645(2) 0.0199(2)
C15A C 0.2795(3) 0.3685(3) 0.0577(2)
C16A C 0.2007(3) 0.4044(3) -0.0001(2)
C17A C 0.2514(3) 0.4379(2) -0.0981(2)
C18A C 0.3791(3) 0.4355(3) -0.1371(2)
C19A C 0.4575(3) 0.3982(2) -0.0783(2)
C20A C 0.4373(3) 0.4059(2) 0.3627(2)
C21A C 0.3426(3) 0.5333(3) 0.3917(2)
C22A C 0.2790(3) 0.5943(3) 0.4950(2)
C23A C 0.3098(3) 0.5273(3) 0.5720(2)
C24A C 0.4029(3) 0.4011(3) 0.5458(2)
C25A C 0.4656(3) 0.3418(3) 0.4418(2)
H1A H 0.990(3) -0.360(3) 0.109(2)
H2A H 0.837(3) 0.313(2) 0.000(2)
H3A H 0.692(3) 0.003(3) 0.169(2)
H4A H 0.750(3) -0.203(3) 0.198(2)
H5A H 0.671(3) 0.200(2) -0.030(2)
H6A H 0.336(3) 0.435(2) 0.220(2)
H7A H 0.696(3) 0.226(2) 0.248(2)
H8A H 0.323(3) 0.581(3) 0.338(2)
H9A H 0.216(3) 0.685(3) 0.514(2)
H10A H 0.420(3) 0.356(3) 0.599(3)
H11A H 0.528(3) 0.251(3) 0.425(2)
H12A H 0.249(3) 0.345(2) 0.121(2)
H13A H 0.115(4) 0.405(3) 0.024(3)
H14A H 0.407(3) 0.469(2) -0.200(2)
H15A H 0.545(4) 0.395(3) -0.105(3)
H16A H 0.207(4) 0.507(3) -0.215(3)
H17A H 0.188(4) 0.674(4) 0.685(3)
O3 O 0.9081(2) 0.1674(2) 0.2936(2)
O4 O 1.1073(2) -0.0099(2) 0.2148(2)
C34 C 1.1060(4) 0.1732(3) 0.1583(3)
C35 C 1.0301(3) 0.1124(3) 0.2284(3)
C36 C 1.0376(5) -0.0767(4) 0.2800(4)
C37 C 1.057(2) -0.090(2) 0.370(1)
H28 H 1.1760 0.1178 0.0921
H29 H 1.1521 0.1952 0.1911
H30 H 1.0428 0.2478 0.1432
H31 H 0.9662 -0.0819 0.2485
C26 C 1.4779(5) -0.0582(4) 0.1285(4)
C27 C 1.4270(4) -0.0250(3) 0.2441(3)
C28 C 1.4085(4) -0.1065(3) 0.3125(4)
C29 C 1.3972(4) 0.0892(4) 0.2874(4)
C30 C 1.3563(5) 0.1171(5) 0.3933(4)
C31 C 1.3646(5) -0.0768(5) 0.4185(4)
C32 C 1.3383(5) 0.0352(5) 0.4622(4)
C33 C 1.2968(6) 0.0662(8) 0.5781(5)
H18 H 1.4054 0.1492 0.2423
H19 H 1.3376 0.1981 0.4205
H20 H 1.3528 -0.1364 0.4640
H21 H 1.4269 -0.1860 0.2852
H22 H 1.2194 0.1462 0.6063
H23 H 1.3739 0.0584 0.5883
H24 H 1.2697 0.0050 0.6140
H25 H 1.4910 0.0064 0.0942
H26 H 1.4064 -0.0667 0.1169
H27 H 1.5614 -0.1350 0.1025
O5? O 0.031(1) 0.438(2) 0.5206(8)
O6? O -0.071(1) 0.613(1) 0.625(1)
C38? C 1.1361(8) -0.2021(7) 0.2790(8)
C39? C 0.001(1) 0.489(2) 0.605(2)
C40? C 0.0330(8) 0.4265(8) 0.6888(6)
loop_
_geom_bond_atom_site_label_1
_geom_bond_atom_site_label_2
_geom_bond_site_symmetry_1
_geom_bond_site_symmetry_2
O1 C23 1_555 1_555
O2 C17 1_555 1_555
O3 C35 1_555 1_555
O4 C35 1_555 1_555
C1 C2 1_555 1_555
C2 C3 1_555 1_555
C3 C4 1_555 1_555
C4 C5 1_555 1_555
C5 C6 1_555 1_555
C6 H2 1_555 1_555
C7 C1 1_555 1_555
C8 C4 1_555 1_555
C9 C8 1_555 1_555
C10 C9 1_555 1_555
C11 C10 1_555 1_555
C12 C11 1_555 1_555
C13 C8 1_555 1_555
C14 C12 1_555 1_555
C15 C14 1_555 1_555
C16 C15 1_555 1_555
C17 C16 1_555 1_555
C18 C17 1_555 1_555
C19 C14 1_555 1_555
C20 C10 1_555 1_555
C21 C20 1_555 1_555
C22 C21 1_555 1_555
C23 C22 1_555 1_555
C24 C23 1_555 1_555
C25 C20 1_555 1_555
C26 C27 1_555 1_555
C27 C28 1_555 1_555
C28 C31 1_555 1_555
C29 C27 1_555 1_555
C30 C29 1_555 1_555
C31 C32 1_555 1_555
C32 C30 1_555 1_555
C33 C32 1_555 1_555
C34 C35 1_555 1_555
C36 O4 1_555 1_555
C37 C36 1_555 1_555
H1 C7 1_555 1_555
H3 C2 1_555 1_555
H4 C1 1_555 1_555
H5 C13 1_555 1_555
H6 C11 1_555 1_555
H7 C9 1_555 1_555
H8 C21 1_555 1_555
H9 C22 1_555 1_555
H10 C24 1_555 1_555
H11 C25 1_555 1_555
H12 C15 1_555 1_555
H13 C16 1_555 1_555
H14 C18 1_555 1_555
H15 C19 1_555 1_555
H16 O2 1_555 1_555
H17 O1 1_555 1_555
H18 C29 1_555 1_555
H19 C30 1_555 1_555
H20 C31 1_555 1_555
H21 C28 1_555 1_555
H22 C33 1_555 1_555
H23 C33 1_555 1_555
H24 C33 1_555 1_555
H25 C26 1_555 1_555
H26 C26 1_555 1_555
H27 C26 1_555 1_555
H28 C34 1_555 1_555
H29 C34 1_555 1_555
H30 C34 1_555 1_555
H31 C36 1_555 1_555
O1A C23A 1_555 1_555
O2A C17A 1_555 1_555
C1A C2A 1_555 1_555
C2A C3A 1_555 1_555
C3A C5 1_555 1_555
C4A C3A 1_555 1_555
C5A C3 1_555 1_555
C6A C7 1_555 1_555
C7A C6 1_555 1_555
C8A C4A 1_555 1_555
C9A C8A 1_555 1_555
C10A C9A 1_555 1_555
C11A C10A 1_555 1_555
C12A C11A 1_555 1_555
C13A C8A 1_555 1_555
C14A C12A 1_555 1_555
C15A C14A 1_555 1_555
C16A C15A 1_555 1_555
C17A C16A 1_555 1_555
C18A C17A 1_555 1_555
C19A C14A 1_555 1_555
C20A C10A 1_555 1_555
C21A C20A 1_555 1_555
C22A C21A 1_555 1_555
C23A C22A 1_555 1_555
C24A C23A 1_555 1_555
C25A C20A 1_555 1_555
H1A C7A 1_555 1_555
H2A C6A 1_555 1_555
H3A C2A 1_555 1_555
H4A C1A 1_555 1_555
H5A C13A 1_555 1_555
H6A C11A 1_555 1_555
H7A C9A 1_555 1_555
H8A C21A 1_555 1_555
H9A C22A 1_555 1_555
H10A C24A 1_555 1_555
H11A C25A 1_555 1_555
H12A C15A 1_555 1_555
H13A C16A 1_555 1_555
H14A C18A 1_555 1_555
H15A C19A 1_555 1_555
H16A O2A 1_555 1_555
H17A O1A 1_555 1_555
C12 C13 1_555 1_555
C18 C19 1_555 1_555
C24 C25 1_555 1_555
C1A C7A 1_555 1_555
C4A C5A 1_555 1_555
C5A C6A 1_555 1_555
C12A C13A 1_555 1_555
C18A C19A 1_555 1_555
C24A C25A 1_555 1_555

#END
