
#######################################################################
#
#                 Cambridge Crystallographic Data Centre
#                                CCDC 
#
#######################################################################
#
# If this CIF has been generated from an entry in the Cambridge 
# Structural Database, then it will include bibliographic, chemical, 
# crystal, experimental, refinement or atomic coordinate data resulting 
# from the CCDC's data processing and validation procedures.
#
#######################################################################

data_TIFMAX
_chemical_formula_moiety         'C50 H34 O4,5(C4 H8 O2)'
_chemical_name_systematic        
"9,10-bis(4,4''-Dihydroxy-m-terphenyl-5'-yl)anthracene pentakis(ethyl acetate) clathrate"
_symmetry_cell_setting           triclinic
_symmetry_space_group_name_H-M   'P -1'
_symmetry_Int_Tables_number      2
_space_group_name_Hall           '-P 1'
loop_
_symmetry_equiv_pos_site_id
_symmetry_equiv_pos_as_xyz
1 x,y,z
2 -x,-y,-z
_cell_length_a                   11.8068(1)
_cell_length_b                   11.8656(3)
_cell_length_c                   14.0903(3)
_cell_angle_alpha                88.846(2)
_cell_angle_beta                 67.9064(1)
_cell_angle_gamma                64.164(5)
_cell_volume                     1621.56
_exptl_crystal_colour            yellow
_exptl_crystal_description       block
_cell_formula_units_Z            1
loop_
_atom_site_label
_atom_site_type_symbol
_atom_site_fract_x
_atom_site_fract_y
_atom_site_fract_z
O1 O 0.2623(4) 0.5709(4) 0.6706(3)
O2 O 0.1704(4) 0.4687(4) -0.1598(3)
C1 C 0.8985(5) -0.0274(5) 0.0739(4)
C2 C 0.8008(5) -0.0635(6) 0.1461(5)
C3 C 0.8403(6) -0.1853(6) 0.1672(5)
C4 C 0.9824(6) -0.2793(6) 0.1180(5)
C5 C 1.0780(5) -0.2498(5) 0.0510(5)
C6 C 0.9567(5) 0.1259(5) -0.0256(4)
C7 C 0.8580(5) 0.0949(5) 0.0486(4)
C8 C 0.7086(5) 0.1928(5) 0.0958(4)
C9 C 0.6325(5) 0.2302(5) 0.0350(4)
C10 C 0.4916(5) 0.3188(5) 0.0794(4)
C11 C 0.4295(5) 0.3693(5) 0.1857(4)
C12 C 0.5037(5) 0.3344(5) 0.2484(4)
C13 C 0.6451(5) 0.2437(5) 0.2009(4)
C14 C 0.4392(5) 0.3945(5) 0.3582(4)
C15 C 0.4751(6) 0.3284(6) 0.4342(5)
C16 C 0.4167(6) 0.3840(6) 0.5382(5)
C17 C 0.3184(5) 0.5151(6) 0.5666(5)
C18 C 0.2795(5) 0.5843(6) 0.4932(5)
C19 C 0.3410(5) 0.5231(6) 0.3909(5)
C20 C 0.4082(5) 0.3581(5) 0.0159(4)
C21 C 0.2772(5) 0.3644(5) 0.0522(4)
C22 C 0.2002(5) 0.3988(5) -0.0074(5)
C23 C 0.2529(5) 0.4323(5) -0.1058(4)
C24 C 0.3813(5) 0.4274(5) -0.1432(4)
C25 C 0.4601(5) 0.3913(5) -0.0832(4)
H1 H 0.689(5) 0.002(5) 0.185(4)
H2 H 0.755(6) -0.192(6) 0.218(5)
H3 H 1.034(6) -0.377(6) 0.126(5)
H4 H 1.166(4) -0.304(4) 0.026(3)
H5 H 0.695(4) 0.221(4) 0.246(3)
H6 H 0.332(5) 0.425(5) 0.217(4)
H7 H 0.676(4) 0.197(4) -0.039(3)
H8 H 0.533(5) 0.246(6) 0.432(4)
H9 H 0.436(4) 0.315(5) 0.601(4)
H10 H 0.187(9) 0.677(9) 0.675(7)
H11 H 0.203(5) 0.691(5) 0.519(4)
H12 H 0.310(5) 0.563(5) 0.342(5)
H13 H 0.227(5) 0.330(5) 0.140(4)
H14 H 0.110(4) 0.406(4) 0.018(3)
H15 H 0.190(9) 0.550(10) -0.194(7)
H16 H 0.413(5) 0.461(5) -0.212(4)
H17 H 0.560(6) 0.388(6) -0.131(5)
O1A O 1.7377(4) -0.5709(4) -0.6706(3)
O2A O 1.8296(4) -0.4687(4) 0.1598(3)
C1A C 1.1015(5) 0.0274(5) -0.0739(4)
C2A C 1.1992(5) 0.0635(6) -0.1461(5)
C3A C 1.1597(6) 0.1853(6) -0.1672(5)
C4A C 1.0176(6) 0.2793(6) -0.1180(5)
C5A C 0.9220(5) 0.2498(5) -0.0510(5)
C6A C 1.0433(5) -0.1259(5) 0.0256(4)
C7A C 1.1420(5) -0.0949(5) -0.0486(4)
C8A C 1.2914(5) -0.1928(5) -0.0958(4)
C9A C 1.3675(5) -0.2302(5) -0.0350(4)
C10A C 1.5084(5) -0.3188(5) -0.0794(4)
C11A C 1.5705(5) -0.3693(5) -0.1857(4)
C12A C 1.4963(5) -0.3344(5) -0.2484(4)
C13A C 1.3549(5) -0.2437(5) -0.2009(4)
C14A C 1.5608(5) -0.3945(5) -0.3582(4)
C15A C 1.5249(6) -0.3284(6) -0.4342(5)
C16A C 1.5833(6) -0.3840(6) -0.5382(5)
C17A C 1.6816(5) -0.5151(6) -0.5666(5)
C18A C 1.7205(5) -0.5843(6) -0.4932(5)
C19A C 1.6590(5) -0.5231(6) -0.3909(5)
C20A C 1.5918(5) -0.3581(5) -0.0159(4)
C21A C 1.7228(5) -0.3644(5) -0.0522(4)
C22A C 1.7998(5) -0.3988(5) 0.0074(5)
C23A C 1.7471(5) -0.4323(5) 0.1058(4)
C24A C 1.6187(5) -0.4274(5) 0.1432(4)
C25A C 1.5399(5) -0.3913(5) 0.0832(4)
H1A H 1.311(5) -0.002(5) -0.185(4)
H2A H 1.245(6) 0.192(6) -0.218(5)
H3A H 0.966(6) 0.377(6) -0.126(5)
H4A H 0.834(4) 0.304(4) -0.026(3)
H5A H 1.305(4) -0.221(4) -0.246(3)
H6A H 1.668(5) -0.425(5) -0.217(4)
H7A H 1.324(4) -0.197(4) 0.039(3)
H8A H 1.467(5) -0.246(6) -0.432(4)
H9A H 1.564(4) -0.315(5) -0.601(4)
H10A H 1.813(9) -0.677(9) -0.675(7)
H11A H 1.797(5) -0.691(5) -0.519(4)
H12A H 1.690(5) -0.563(5) -0.342(5)
H13A H 1.773(5) -0.330(5) -0.140(4)
H14A H 1.890(4) -0.406(4) -0.018(3)
H15A H 1.810(9) -0.550(10) 0.194(7)
H16A H 1.587(5) -0.461(5) 0.212(4)
H17A H 1.440(6) -0.388(6) 0.131(5)
O3 O 1.1030(4) -0.1773(4) -0.2997(3)
O4 O 0.9061(4) 0.0047(4) -0.2276(4)
C26 C 0.9118(7) -0.1750(7) -0.1547(5)
C27 C 0.9835(6) -0.1189(6) -0.2319(5)
C28 C 0.9704(8) 0.0648(7) -0.3042(7)
C29 C 0.867(1) 0.184(1) -0.3039(10)
H18 H 0.8334 -0.1664 -0.1650
H19 H 0.8825 -0.1323 -0.0871
H20 H 0.9717 -0.2624 -0.1614
H21 H 0.8266 0.2337 -0.2375
H22 H 0.8018 0.1719 -0.3187
H23 H 0.9094 0.2228 -0.3553
H24 H 1.0372 0.0748 -0.2884
H25 H 1.0147 0.0134 -0.3715
O5? O 0.881(2) 0.673(3) -0.338(1)
O6? O 1.0000 0.5000 -0.5000
C30? C 0.960(2) 0.562(2) -0.376(1)
C31? C 1.039(1) 0.435(2) -0.3513(9)
C32? C 1.093(2) 0.377(3) -0.474(2)
C33? C 0.532(2) 0.027(2) -0.130(2)
C34? C 0.640(2) -0.073(2) -0.254(1)
C35? C 0.561(2) 0.053(2) -0.208(2)
C36? C 0.553(2) 0.017(2) -0.321(1)
loop_
_geom_bond_atom_site_label_1
_geom_bond_atom_site_label_2
_geom_bond_site_symmetry_1
_geom_bond_site_symmetry_2
O1 C17 1_555 1_555
O2 C23 1_555 1_555
O3 C27 1_555 1_555
O4 C27 1_555 1_555
C1 C2 1_555 1_555
C2 C3 1_555 1_555
C3 C4 1_555 1_555
C4 C5 1_555 1_555
C5 H4 1_555 1_555
C6 C7 1_555 1_555
C7 C1 1_555 1_555
C8 C7 1_555 1_555
C9 C8 1_555 1_555
C10 C9 1_555 1_555
C11 C10 1_555 1_555
C12 C11 1_555 1_555
C13 C8 1_555 1_555
C14 C12 1_555 1_555
C15 C14 1_555 1_555
C16 C15 1_555 1_555
C17 C16 1_555 1_555
C18 C17 1_555 1_555
C19 C14 1_555 1_555
C20 C10 1_555 1_555
C21 C20 1_555 1_555
C22 C21 1_555 1_555
C23 C22 1_555 1_555
C24 C23 1_555 1_555
C25 C20 1_555 1_555
C26 C27 1_555 1_555
C28 O4 1_555 1_555
C29 C28 1_555 1_555
H1 C2 1_555 1_555
H2 C3 1_555 1_555
H3 C4 1_555 1_555
H5 C13 1_555 1_555
H6 C11 1_555 1_555
H7 C9 1_555 1_555
H8 C15 1_555 1_555
H9 C16 1_555 1_555
H10 O1 1_555 1_555
H11 C18 1_555 1_555
H12 C19 1_555 1_555
H13 C21 1_555 1_555
H14 C22 1_555 1_555
H15 O2 1_555 1_555
H16 C24 1_555 1_555
H17 C25 1_555 1_555
H18 C26 1_555 1_555
H19 C26 1_555 1_555
H20 C26 1_555 1_555
H21 C29 1_555 1_555
H22 C29 1_555 1_555
H23 C29 1_555 1_555
H24 C28 1_555 1_555
H25 C28 1_555 1_555
O1A C17A 1_555 1_555
O2A C23A 1_555 1_555
C1A C6 1_555 1_555
C2A C1A 1_555 1_555
C3A C2A 1_555 1_555
C4A C3A 1_555 1_555
C5A C6 1_555 1_555
C6A C1 1_555 1_555
C7A C1A 1_555 1_555
C8A C7A 1_555 1_555
C9A C8A 1_555 1_555
C10A C9A 1_555 1_555
C11A C10A 1_555 1_555
C12A C11A 1_555 1_555
C13A C8A 1_555 1_555
C14A C12A 1_555 1_555
C15A C14A 1_555 1_555
C16A C15A 1_555 1_555
C17A C16A 1_555 1_555
C18A C17A 1_555 1_555
C19A C14A 1_555 1_555
C20A C10A 1_555 1_555
C21A C20A 1_555 1_555
C22A C21A 1_555 1_555
C23A C22A 1_555 1_555
C24A C23A 1_555 1_555
C25A C20A 1_555 1_555
H1A C2A 1_555 1_555
H2A C3A 1_555 1_555
H3A C4A 1_555 1_555
H4A C5A 1_555 1_555
H5A C13A 1_555 1_555
H6A C11A 1_555 1_555
H7A C9A 1_555 1_555
H8A C15A 1_555 1_555
H9A C16A 1_555 1_555
H10A O1A 1_555 1_555
H11A C18A 1_555 1_555
H12A C19A 1_555 1_555
H13A C21A 1_555 1_555
H14A C22A 1_555 1_555
H15A O2A 1_555 1_555
H16A C24A 1_555 1_555
H17A C25A 1_555 1_555
C5 C6A 1_555 1_555
C12 C13 1_555 1_555
C18 C19 1_555 1_555
C24 C25 1_555 1_555
C4A C5A 1_555 1_555
C6A C7A 1_555 1_555
C12A C13A 1_555 1_555
C18A C19A 1_555 1_555
C24A C25A 1_555 1_555

#END
