
#######################################################################
#
#                 Cambridge Crystallographic Data Centre
#                                CCDC 
#
#######################################################################
#
# If this CIF has been generated from an entry in the Cambridge 
# Structural Database, then it will include bibliographic, chemical, 
# crystal, experimental, refinement or atomic coordinate data resulting 
# from the CCDC's data processing and validation procedures.
#
#######################################################################

data_TIFNII
_chemical_compound_source        
'Isolated from the culture broth and mycelia extracts of the mangrove-derived endophytic fungus Aspergillus nidulans MA-143 under 0.1% ethanol stress.'
_chemical_name_common            'Glulisine A'
_chemical_formula_moiety         'C11 H17 N3 O2'
_chemical_name_systematic        
3-[5-(2-methylpropyl)-3-oxo-3,4-dihydropyrazin-2-yl]propanamide
_chemical_properties_biological  
'activity against aquatic bacteria Ed. ictaluri'
_symmetry_cell_setting           triclinic
_symmetry_space_group_name_H-M   'P -1'
_symmetry_Int_Tables_number      2
_space_group_name_Hall           '-P 1'
loop_
_symmetry_equiv_pos_site_id
_symmetry_equiv_pos_as_xyz
1 x,y,z
2 -x,-y,-z
_cell_length_a                   4.9088(4)
_cell_length_b                   9.7425(8)
_cell_length_c                   12.0775(11)
_cell_angle_alpha                99.684(2)
_cell_angle_beta                 91.5510(10)
_cell_angle_gamma                98.113(2)
_cell_volume                     562.901
_chemical_melting_point          '469 K'
_cell_formula_units_Z            2
_exptl_crystal_recrystallization_method methanol
loop_
_atom_site_label
_atom_site_type_symbol
_atom_site_fract_x
_atom_site_fract_y
_atom_site_fract_z
N1 N -0.1974(8) 0.1277(5) 0.0562(3)
H1 H -0.2605 0.0850 -0.0096
H2 H -0.0225 0.1483 0.0706
N2 N 0.4064(7) 0.1763(4) 0.5314(3)
H3 H 0.5210 0.1290 0.5573
N3 N 0.0619(7) 0.3249(4) 0.4483(3)
O1 O -0.6146(7) 0.1343(4) 0.1176(3)
O2 O 0.2303(6) -0.0141(3) 0.4056(2)
C1 C -0.3660(11) 0.1610(5) 0.1336(4)
C2 C -0.2405(9) 0.2340(5) 0.2447(4)
H4 H -0.3795 0.2747 0.2896
H5 H -0.0972 0.3096 0.2347
C3 C -0.1212(9) 0.1323(4) 0.3037(3)
H6 H -0.2706 0.0682 0.3263
H7 H -0.0157 0.0770 0.2513
C4 C 0.2331(8) 0.1105(5) 0.4448(3)
C5 C 0.0586(9) 0.1981(5) 0.4039(3)
C6 C 0.2369(9) 0.3815(5) 0.5368(4)
H8 H 0.2354 0.4749 0.5695
C7 C 0.4126(9) 0.3094(5) 0.5794(3)
C8 C 0.6135(9) 0.3675(5) 0.6745(3)
H9 H 0.6887 0.4628 0.6670
H10 H 0.7642 0.3125 0.6684
C9 C 0.5075(10) 0.3709(6) 0.7890(4)
H11 H 0.3636 0.4316 0.7938
C10 C 0.3763(12) 0.2361(6) 0.8094(4)
H12 H 0.5048 0.1699 0.7991
H13 H 0.2197 0.2031 0.7576
H14 H 0.3170 0.2456 0.8850
C11 C 0.7238(12) 0.4401(7) 0.8780(4)
H15 H 0.6475 0.4433 0.9506
H16 H 0.7876 0.5341 0.8665
H17 H 0.8753 0.3872 0.8742
loop_
_geom_bond_atom_site_label_1
_geom_bond_atom_site_label_2
_geom_bond_site_symmetry_1
_geom_bond_site_symmetry_2
N1 H1 1_555 1_555
H2 N1 1_555 1_555
N2 H3 1_555 1_555
N3 C5 1_555 1_555
O1 C1 1_555 1_555
O2 C4 1_555 1_555
C1 N1 1_555 1_555
C2 C1 1_555 1_555
H4 C2 1_555 1_555
H5 C2 1_555 1_555
C3 C2 1_555 1_555
H6 C3 1_555 1_555
H7 C3 1_555 1_555
C4 N2 1_555 1_555
C5 C3 1_555 1_555
C6 N3 1_555 1_555
H8 C6 1_555 1_555
C7 N2 1_555 1_555
C8 C7 1_555 1_555
H9 C8 1_555 1_555
H10 C8 1_555 1_555
C9 C8 1_555 1_555
H11 C9 1_555 1_555
C10 C9 1_555 1_555
H12 C10 1_555 1_555
H13 C10 1_555 1_555
H14 C10 1_555 1_555
C11 C9 1_555 1_555
H15 C11 1_555 1_555
H16 C11 1_555 1_555
H17 C11 1_555 1_555
C4 C5 1_555 1_555
C6 C7 1_555 1_555

#END
