
#######################################################################
#
#                 Cambridge Crystallographic Data Centre
#                                CCDC 
#
#######################################################################
#
# If this CIF has been generated from an entry in the Cambridge 
# Structural Database, then it will include bibliographic, chemical, 
# crystal, experimental, refinement or atomic coordinate data resulting 
# from the CCDC's data processing and validation procedures.
#
#######################################################################

data_TIFNEE
_chemical_compound_source        
'Isolated from the culture broth and mycelia extracts of the mangrove-derived endophytic fungus Aspergillus nidulans MA-143 under 0.1% ethanol stress.'
_chemical_name_common            'isosecosterigmatocystin hydrate'
_chemical_formula_moiety         'C18 H18 O8,x(H2 O1)'
_chemical_name_systematic        
'3,8-dihydroxy-1-methoxy-4-(1,3,4-trihydroxybutan-2-yl)-9H-xanthen-9-one hydrate'
_chemical_properties_biological  
'activity against aquatic bacteria Ed. ictaluri'
_symmetry_cell_setting           monoclinic
_symmetry_space_group_name_H-M   'C 2'
_symmetry_Int_Tables_number      5
_space_group_name_Hall           'C 2y'
loop_
_symmetry_equiv_pos_site_id
_symmetry_equiv_pos_as_xyz
1 x,y,z
2 -x,y,-z
3 1/2+x,1/2+y,z
4 1/2-x,1/2+y,-z
_cell_length_a                   28.288(3)
_cell_length_b                   7.4028(8)
_cell_length_c                   21.1542(19)
_cell_angle_alpha                90
_cell_angle_beta                 106.285(2)
_cell_angle_gamma                90
_cell_volume                     4252.18
_cell_formula_units_Z            12
loop_
_atom_site_label
_atom_site_type_symbol
_atom_site_fract_x
_atom_site_fract_y
_atom_site_fract_z
O1 O 0.6194(3) 0.8459(15) 0.1076(4)
O2 O 0.6388(3) 0.8385(16) -0.1068(4)
H1 H 0.6088 0.8489 -0.1164
O3 O 0.7806(3) 0.8104(16) 0.0765(4)
O4 O 0.7674(3) 0.8067(19) 0.1949(4)
O5 O 0.7506(3) 0.791(2) 0.3081(4)
H2 H 0.7672 0.7842 0.2820
O6 O 0.5458(3) 0.8073(16) -0.1411(4)
H3 H 0.5350 0.7238 -0.1666
O7 O 0.5122(4) 0.4649(18) -0.1057(6)
H4 H 0.5128 0.4847 -0.1436
O8 O 0.5132(3) 1.1323(14) -0.0569(6)
H5 H 0.5044 1.1328 -0.0231
C1 C 0.6506(4) 0.839(2) 0.0680(5)
C2 C 0.6270(4) 0.842(2) 0.0010(6)
C3 C 0.6569(4) 0.832(2) -0.0420(6)
C4 C 0.7090(4) 0.823(2) -0.0151(5)
H6 H 0.7287 0.8210 -0.0436
C5 C 0.7302(4) 0.817(2) 0.0485(6)
C6 C 0.7014(4) 0.826(2) 0.0956(5)
C7 C 0.7226(4) 0.819(2) 0.1661(6)
C8 C 0.6879(4) 0.820(2) 0.2068(5)
C9 C 0.7011(5) 0.810(2) 0.2737(6)
C10 C 0.6664(5) 0.811(3) 0.3100(6)
H7 H 0.6761 0.8009 0.3557
C11 C 0.6195(5) 0.827(3) 0.2770(6)
H8 H 0.5968 0.8294 0.3014
C12 C 0.6009(5) 0.842(2) 0.2086(6)
H9 H 0.5674 0.8523 0.1878
C13 C 0.6363(5) 0.839(2) 0.1734(6)
C14 C 0.5720(5) 0.885(2) -0.0208(6)
H10 H 0.5600 0.8711 0.0181
C15 C 0.5398(5) 0.764(2) -0.0749(6)
H11 H 0.5054 0.7884 -0.0767
C16 C 0.5480(6) 0.571(2) -0.0621(9)
H12 H 0.5803 0.5392 -0.0661
H13 H 0.5476 0.5455 -0.0173
C17 C 0.5653(5) 1.087(2) -0.0409(8)
H14 H 0.5838 1.1627 -0.0049
H15 H 0.5774 1.1091 -0.0788
C18 C 0.8106(4) 0.820(3) 0.0348(6)
H16 H 0.7991 0.7357 -0.0007
H17 H 0.8438 0.7900 0.0589
H18 H 0.8097 0.9399 0.0175
O1A O 0.3806(3) 0.8459(15) -0.1076(4)
O2A O 0.3612(3) 0.8385(16) 0.1068(4)
H1A H 0.3912 0.8489 0.1164
O3A O 0.2194(3) 0.8104(16) -0.0765(4)
O4A O 0.2326(3) 0.8067(19) -0.1949(4)
O5A O 0.2494(3) 0.791(2) -0.3081(4)
H2A H 0.2328 0.7842 -0.2820
O6A O 0.4542(3) 0.8073(16) 0.1411(4)
H3A H 0.4650 0.7238 0.1666
O7A O 0.4878(4) 0.4649(18) 0.1057(6)
H4A H 0.4872 0.4847 0.1436
O8A O 0.4868(3) 1.1323(14) 0.0569(6)
H5A H 0.4956 1.1328 0.0231
C1A C 0.3494(4) 0.839(2) -0.0680(5)
C2A C 0.3730(4) 0.842(2) -0.0010(6)
C3A C 0.3431(4) 0.832(2) 0.0420(6)
C4A C 0.2910(4) 0.823(2) 0.0151(5)
H6A H 0.2713 0.8210 0.0436
C5A C 0.2698(4) 0.817(2) -0.0485(6)
C6A C 0.2986(4) 0.826(2) -0.0956(5)
C7A C 0.2774(4) 0.819(2) -0.1661(6)
C8A C 0.3121(4) 0.820(2) -0.2068(5)
C9A C 0.2989(5) 0.810(2) -0.2737(6)
C10A C 0.3336(5) 0.811(3) -0.3100(6)
H7A H 0.3239 0.8009 -0.3557
C11A C 0.3805(5) 0.827(3) -0.2770(6)
H8A H 0.4032 0.8294 -0.3014
C12A C 0.3991(5) 0.842(2) -0.2086(6)
H9A H 0.4326 0.8523 -0.1878
C13A C 0.3637(5) 0.839(2) -0.1734(6)
C14A C 0.4280(5) 0.885(2) 0.0208(6)
H10A H 0.4400 0.8711 -0.0181
C15A C 0.4602(5) 0.764(2) 0.0749(6)
H11A H 0.4946 0.7884 0.0767
C16A C 0.4520(6) 0.571(2) 0.0621(9)
H12A H 0.4197 0.5392 0.0661
H13A H 0.4524 0.5455 0.0173
C17A C 0.4347(5) 1.087(2) 0.0409(8)
H14A H 0.4162 1.1627 0.0049
H15A H 0.4226 1.1091 0.0788
C18A C 0.1894(4) 0.820(3) -0.0348(6)
H16A H 0.2009 0.7357 0.0007
H17A H 0.1562 0.7900 -0.0589
H18A H 0.1903 0.9399 -0.0175
O9 O 0.5075(5) 0.510(3) -0.2083(8)
H19 H 0.5062 0.5401 -0.2475
H20 H 0.4817 0.4505 -0.2093
O10 O 0.2524(3) 0.7909(16) 0.2751(4)
O11 O 0.3645(4) 0.7573(18) 0.4846(5)
H21 H 0.3841 0.7665 0.4627
O12 O 0.1951(4) 0.7489(17) 0.4685(4)
O13 O 0.1334(3) 0.7804(17) 0.3483(4)
O14 O 0.0766(3) 0.828(2) 0.2315(5)
H22 H 0.0834 0.8134 0.2714
O15 O 0.4275(4) 0.733(2) 0.4198(8)
H23 H 0.455(7) 0.68(4) 0.427(11)
O16 O 0.4259(6) 0.390(2) 0.3602(9)
H24 H 0.4185 0.2872 0.3464
O17 O 0.3977(4) 1.0541(19) 0.3144(6)
H25 H 0.3848 1.0530 0.2745
C19 C 0.2612(5) 0.777(2) 0.3424(6)
C20 C 0.3091(5) 0.766(3) 0.3761(7)
C21 C 0.3204(6) 0.763(3) 0.4465(7)
C22 C 0.2839(6) 0.755(2) 0.4756(7)
H26 H 0.2921 0.7478 0.5212
C23 C 0.2331(5) 0.756(2) 0.4392(7)
C24 C 0.2211(5) 0.773(2) 0.3706(6)
C25 C 0.1722(5) 0.784(3) 0.3283(6)
C26 C 0.1651(5) 0.817(3) 0.2573(6)
C27 C 0.1186(5) 0.830(3) 0.2125(6)
C28 C 0.1135(5) 0.857(3) 0.1464(6)
H27 H 0.0826 0.8763 0.1170
C29 C 0.1560(5) 0.856(3) 0.1248(7)
H28 H 0.1531 0.8721 0.0802
C30 C 0.2027(5) 0.830(3) 0.1689(6)
H29 H 0.2308 0.8298 0.1542
C31 C 0.2058(5) 0.806(2) 0.2331(6)
C32 C 0.3491(5) 0.810(3) 0.3406(8)
H30 H 0.3341 0.7883 0.2935
C33 C 0.3950(7) 0.690(3) 0.3617(10)
H31 H 0.4127 0.7158 0.3290
C34 C 0.3837(7) 0.490(3) 0.3532(10)
H32 H 0.3676 0.4511 0.3858
H33 H 0.3613 0.4685 0.3099
C35 C 0.3624(6) 0.996(3) 0.3479(9)
H34 H 0.3758 1.0214 0.3945
H35 H 0.3328 1.0675 0.3319
C36 C 0.2062(6) 0.753(3) 0.5374(6)
H36 H 0.2234 0.6443 0.5553
H37 H 0.1762 0.7610 0.5501
H38 H 0.2266 0.8557 0.5540
O18 O 0.6466(4) 0.1112(19) 0.8109(5)
H39 H 0.6475 0.0071 0.8281
H40 H 0.6669 0.1784 0.8380
O19 O 0.3477(5) 0.565(2) 0.1877(7)
H41 H 0.3443 0.6444 0.1578
H42 H 0.3208 0.5072 0.1815
O20 O 0.4077(5) 0.493(2) 0.5721(8)
H43 H 0.3897 0.5705 0.5466
H44 H 0.3904 0.4382 0.5930
O21 O 0.5973(6) 0.030(3) 0.4284(8)
H45 H 0.6155 -0.0489 0.4528
H46 H 0.6133 0.0757 0.4039
O22 O 0.5744(6) 0.371(3) 0.7889(8)
H47 H 0.5901 0.2718 0.7937
H48 H 0.5954 0.4564 0.7957
O23 O 0.5092(6) 0.098(3) 0.7728(9)
H49 H 0.5214 0.0121 0.7992
H50 H 0.5151 0.2025 0.7897
O24 O 0.5000 0.492(4) 0.5000
H51 H 0.4835 0.4256 0.4689
H51A H 0.5165 0.4256 0.5311
O25 O 0.4921(6) 0.561(4) 0.6717(13)
H52 H 0.4661 0.5404 0.6408
H53 H 0.5156 0.5436 0.6547
O26 O 0.5000 0.999(5) 0.5000
O27 O 0.4989(7) 0.976(4) 0.3537(12)
H54 H 0.5010 0.8654 0.3443
H55 H 0.4985 0.9833 0.3937
O28 O 0.5427(7) 0.258(4) 0.4661(11)
H56 H 0.5641 0.1988 0.4531
H57 H 0.5174 0.1913 0.4606
H58? H 0.5082 1.2360 -0.0748
H59? H 0.5158 0.9050 0.5174
H60? H 0.4702 0.9793 0.4785
loop_
_geom_bond_atom_site_label_1
_geom_bond_atom_site_label_2
_geom_bond_site_symmetry_1
_geom_bond_site_symmetry_2
O1 C1 1_555 1_555
O2 H1 1_555 1_555
O3 C5 1_555 1_555
O4 C7 1_555 1_555
O5 H2 1_555 1_555
O6 H3 1_555 1_555
O7 H4 1_555 1_555
O8 H5 1_555 1_555
C1 C2 1_555 1_555
C2 C3 1_555 1_555
C3 O2 1_555 1_555
C4 C3 1_555 1_555
H6 C4 1_555 1_555
C5 C4 1_555 1_555
C6 C1 1_555 1_555
C7 C6 1_555 1_555
C8 C7 1_555 1_555
C9 O5 1_555 1_555
C10 C9 1_555 1_555
H7 C10 1_555 1_555
C11 C10 1_555 1_555
H8 C11 1_555 1_555
C12 C11 1_555 1_555
H9 C12 1_555 1_555
C13 O1 1_555 1_555
C14 C2 1_555 1_555
H10 C14 1_555 1_555
C15 O6 1_555 1_555
H11 C15 1_555 1_555
C16 O7 1_555 1_555
H12 C16 1_555 1_555
H13 C16 1_555 1_555
C17 O8 1_555 1_555
H14 C17 1_555 1_555
H15 C17 1_555 1_555
C18 O3 1_555 1_555
H16 C18 1_555 1_555
H17 C18 1_555 1_555
H18 C18 1_555 1_555
O9 H19 1_555 1_555
H20 O9 1_555 1_555
O10 C19 1_555 1_555
O11 H21 1_555 1_555
O12 C23 1_555 1_555
O13 C25 1_555 1_555
O14 H22 1_555 1_555
O15 H23 1_555 1_555
O16 H24 1_555 1_555
O17 H25 1_555 1_555
C19 C20 1_555 1_555
C20 C21 1_555 1_555
C21 O11 1_555 1_555
C22 C21 1_555 1_555
H26 C22 1_555 1_555
C23 C22 1_555 1_555
C24 C19 1_555 1_555
C25 C24 1_555 1_555
C26 C25 1_555 1_555
C27 O14 1_555 1_555
C28 C27 1_555 1_555
H27 C28 1_555 1_555
C29 C28 1_555 1_555
H28 C29 1_555 1_555
C30 C29 1_555 1_555
H29 C30 1_555 1_555
C31 O10 1_555 1_555
C32 C20 1_555 1_555
H30 C32 1_555 1_555
C33 O15 1_555 1_555
H31 C33 1_555 1_555
C34 O16 1_555 1_555
H32 C34 1_555 1_555
H33 C34 1_555 1_555
C35 O17 1_555 1_555
H34 C35 1_555 1_555
H35 C35 1_555 1_555
C36 O12 1_555 1_555
H36 C36 1_555 1_555
H37 C36 1_555 1_555
H38 C36 1_555 1_555
O18 H39 1_555 1_555
H40 O18 1_555 1_555
O19 H41 1_555 1_555
H42 O19 1_555 1_555
O20 H43 1_555 1_555
H44 O20 1_555 1_555
O21 H45 1_555 1_555
H46 O21 1_555 1_555
O22 H47 1_555 1_555
H48 O22 1_555 1_555
O23 H49 1_555 1_555
H50 O23 1_555 1_555
O24 H51 1_555 1_555
O25 H52 1_555 1_555
H53 O25 1_555 1_555
O27 H54 1_555 1_555
H55 O27 1_555 1_555
O28 H56 1_555 1_555
H57 O28 1_555 1_555
O1A C1A 1_555 1_555
O2A H1A 1_555 1_555
O3A C5A 1_555 1_555
O4A C7A 1_555 1_555
O5A H2A 1_555 1_555
O6A H3A 1_555 1_555
O7A H4A 1_555 1_555
O8A H5A 1_555 1_555
C1A C2A 1_555 1_555
C2A C3A 1_555 1_555
C3A O2A 1_555 1_555
C4A C3A 1_555 1_555
H6A C4A 1_555 1_555
C5A C4A 1_555 1_555
C6A C1A 1_555 1_555
C7A C6A 1_555 1_555
C8A C7A 1_555 1_555
C9A O5A 1_555 1_555
C10A C9A 1_555 1_555
H7A C10A 1_555 1_555
C11A C10A 1_555 1_555
H8A C11A 1_555 1_555
C12A C11A 1_555 1_555
H9A C12A 1_555 1_555
C13A O1A 1_555 1_555
C14A C2A 1_555 1_555
H10A C14A 1_555 1_555
C15A O6A 1_555 1_555
H11A C15A 1_555 1_555
C16A O7A 1_555 1_555
H12A C16A 1_555 1_555
H13A C16A 1_555 1_555
C17A O8A 1_555 1_555
H14A C17A 1_555 1_555
H15A C17A 1_555 1_555
C18A O3A 1_555 1_555
H16A C18A 1_555 1_555
H17A C18A 1_555 1_555
H18A C18A 1_555 1_555
H51A O24 1_555 1_555
C5 C6 1_555 1_555
C8 C9 1_555 1_555
C8 C13 1_555 1_555
C12 C13 1_555 1_555
C14 C15 1_555 1_555
C14 C17 1_555 1_555
C15 C16 1_555 1_555
C23 C24 1_555 1_555
C26 C27 1_555 1_555
C26 C31 1_555 1_555
C30 C31 1_555 1_555
C32 C33 1_555 1_555
C32 C35 1_555 1_555
C33 C34 1_555 1_555
C5A C6A 1_555 1_555
C8A C9A 1_555 1_555
C8A C13A 1_555 1_555
C12A C13A 1_555 1_555
C14A C15A 1_555 1_555
C14A C17A 1_555 1_555
C15A C16A 1_555 1_555

#END
