
#######################################################################
#
#                 Cambridge Crystallographic Data Centre
#                                CCDC 
#
#######################################################################
#
# If this CIF has been generated from an entry in the Cambridge 
# Structural Database, then it will include bibliographic, chemical, 
# crystal, experimental, refinement or atomic coordinate data resulting 
# from the CCDC's data processing and validation procedures.
#
#######################################################################

data_TIFNAZ
_chemical_formula_moiety         'C21 H16 O4'
_chemical_name_systematic        
7,8-Dimethoxy-5-methylene-4-phenylindeno[1,2-b]pyran-2(5H)-one
_symmetry_cell_setting           triclinic
_symmetry_space_group_name_H-M   'P -1'
_symmetry_Int_Tables_number      2
_space_group_name_Hall           '-P 1'
loop_
_symmetry_equiv_pos_site_id
_symmetry_equiv_pos_as_xyz
1 x,y,z
2 -x,-y,-z
_cell_length_a                   8.0400(16)
_cell_length_b                   10.112(2)
_cell_length_c                   11.172(2)
_cell_angle_alpha                70.69(3)
_cell_angle_beta                 82.57(3)
_cell_angle_gamma                76.65(3)
_cell_volume                     832.64
_cell_formula_units_Z            2
loop_
_atom_site_label
_atom_site_type_symbol
_atom_site_fract_x
_atom_site_fract_y
_atom_site_fract_z
O1 O 0.3682(2) 0.39129(17) 0.92798(15)
C1 C 0.1790(3) 0.4169(3) 1.1107(2)
O2 O 0.5365(3) 0.3735(2) 0.75928(19)
C2 C 0.1736(3) 0.2768(3) 1.1827(2)
H1 H 0.2345 0.2007 1.1557
O3 O 0.0582(3) 0.1223(2) 1.37576(18)
C3 C 0.0755(3) 0.2535(3) 1.2953(2)
O4 O -0.1108(3) 0.3324(2) 1.44742(18)
C4 C -0.0198(3) 0.3700(3) 1.3342(2)
C5 C -0.0123(3) 0.5095(3) 1.2613(2)
H2 H -0.0732 0.5861 1.2877
C6 C 0.0879(3) 0.5327(3) 1.1481(2)
C7 C 0.1235(3) 0.6671(3) 1.0523(2)
C8 C 0.2475(3) 0.6201(3) 0.9566(2)
C9 C 0.2700(3) 0.4755(3) 0.9927(2)
C10 C 0.3372(3) 0.6904(3) 0.8427(2)
C11 C 0.4347(3) 0.6064(3) 0.7758(2)
H3 H 0.4925 0.6508 0.7009
C12 C 0.4538(3) 0.4545(3) 0.8133(2)
C13 C 0.0472(4) 0.7974(3) 1.0531(3)
H4 H 0.0692 0.8764 0.9861
H5 H -0.0285 0.8101 1.1206
C14 C 0.3388(3) 0.8459(3) 0.7972(2)
C15 C 0.3128(4) 0.9239(3) 0.6717(3)
H6 H 0.2864 0.8808 0.6168
C16 C 0.3260(5) 1.0659(4) 0.6273(3)
H7 H 0.3070 1.1182 0.5427
C17 C 0.3665(4) 1.1299(3) 0.7058(4)
H8 H 0.3756 1.2256 0.6748
C18 C 0.3941(4) 1.0537(3) 0.8311(3)
H9 H 0.4235 1.0973 0.8845
C19 C 0.3782(4) 0.9120(3) 0.8777(3)
H10 H 0.3939 0.8611 0.9629
C20 C 0.1424(5) 0.0021(3) 1.3374(3)
H11 H 0.1209 -0.0838 1.4013
H12 H 0.2634 -0.0003 1.3263
H13 H 0.1000 0.0091 1.2586
C21 C -0.2233(4) 0.4417(4) 1.4890(3)
H14 H -0.2782 0.3995 1.5698
H15 H -0.3085 0.4923 1.4281
H16 H -0.1591 0.5072 1.4971
loop_
_geom_bond_atom_site_label_1
_geom_bond_atom_site_label_2
_geom_bond_site_symmetry_1
_geom_bond_site_symmetry_2
O1 C9 1_555 1_555
C1 C2 1_555 1_555
O2 C12 1_555 1_555
C2 H1 1_555 1_555
O3 C3 1_555 1_555
C3 C2 1_555 1_555
O4 C4 1_555 1_555
C4 C3 1_555 1_555
C5 C4 1_555 1_555
H2 C5 1_555 1_555
C6 C1 1_555 1_555
C7 C6 1_555 1_555
C8 C7 1_555 1_555
C9 C1 1_555 1_555
C10 C8 1_555 1_555
C11 C10 1_555 1_555
H3 C11 1_555 1_555
C12 O1 1_555 1_555
C13 C7 1_555 1_555
H4 C13 1_555 1_555
H5 C13 1_555 1_555
C14 C10 1_555 1_555
C15 C14 1_555 1_555
H6 C15 1_555 1_555
C16 C15 1_555 1_555
H7 C16 1_555 1_555
C17 C16 1_555 1_555
H8 C17 1_555 1_555
C18 C17 1_555 1_555
H9 C18 1_555 1_555
C19 C14 1_555 1_555
H10 C19 1_555 1_555
C20 O3 1_555 1_555
H11 C20 1_555 1_555
H12 C20 1_555 1_555
H13 C20 1_555 1_555
C21 O4 1_555 1_555
H14 C21 1_555 1_555
H15 C21 1_555 1_555
H16 C21 1_555 1_555
C5 C6 1_555 1_555
C8 C9 1_555 1_555
C11 C12 1_555 1_555
C18 C19 1_555 1_555

#END
