
#######################################################################
#
#                 Cambridge Crystallographic Data Centre
#                                CCDC 
#
#######################################################################
#
# If this CIF has been generated from an entry in the Cambridge 
# Structural Database, then it will include bibliographic, chemical, 
# crystal, experimental, refinement or atomic coordinate data resulting 
# from the CCDC's data processing and validation procedures.
#
#######################################################################

data_TIFQOO03
_chemical_name_common            'Calix[4]hydroquinone tetrahydrate'
_chemical_formula_moiety         'C28 H24 O8,4(H2 O1)'
_chemical_name_systematic        
'5,11,17,23,25,26,27,28-Octahydroxycalix[4]arene tetrahydrate'
_symmetry_cell_setting           orthorhombic
_symmetry_space_group_name_H-M   'C m m m'
_symmetry_Int_Tables_number      65
_space_group_name_Hall           '-C 2 2'
loop_
_symmetry_equiv_pos_site_id
_symmetry_equiv_pos_as_xyz
1 x,y,z
2 -x,-y,z
3 x,-y,-z
4 -x,y,-z
5 1/2+x,1/2+y,z
6 1/2-x,1/2-y,z
7 1/2+x,1/2-y,-z
8 1/2-x,1/2+y,-z
9 -x,-y,-z
10 x,y,-z
11 -x,y,z
12 x,-y,z
13 1/2-x,1/2-y,-z
14 1/2+x,1/2+y,-z
15 1/2-x,1/2+y,z
16 1/2+x,1/2-y,z
_cell_length_a                   23.365(3)
_cell_length_b                   24.914(3)
_cell_length_c                   11.5852(16)
_cell_angle_alpha                90
_cell_angle_beta                 90
_cell_angle_gamma                90
_cell_volume                     6743.93
_cell_formula_units_Z            8
_exptl_crystal_recrystallization_method 
'Tetramethylammonium hexafluorophosphate'
loop_
_atom_site_label
_atom_site_type_symbol
_atom_site_fract_x
_atom_site_fract_y
_atom_site_fract_z
O1 O 0.0575(1) 0.1141(1) 0.3868(2)
O2 O 0.1477(2) 0.2973(2) 0.1911(3)
C1 C 0.0787(2) 0.1614(2) 0.3395(3)
C2 C 0.0536(2) 0.1824(2) 0.2406(3)
C3 C 0.0766(2) 0.2284(2) 0.1931(3)
C4 C 0.1239(2) 0.2525(2) 0.2413(3)
C5 C 0.1486(2) 0.2317(2) 0.3401(3)
C6 C 0.1263(2) 0.1856(2) 0.3912(3)
C7 C 0.0000 0.1579(2) 0.1891(4)
C8 C 0.1529(2) 0.1630(3) 0.5000
H1 H 0.0230 0.1121 0.3746
H2 H 0.1296 0.3052 0.1329
H3 H 0.0599 0.2433 0.1277
H4 H 0.1802 0.2486 0.3726
H5 H 0.0000 0.1195 0.2033
H6 H 0.0000 0.1635 0.1063
H7 H 0.1935 0.1708 0.5000
H8 H 0.1483 0.1243 0.5000
C6I C 0.1263(2) 0.1856(2) 0.6088(3)
C1I C 0.0787(2) 0.1614(2) 0.6605(3)
O1I O 0.0575(1) 0.1141(1) 0.6132(2)
H1I H 0.0230 0.1121 0.6254
C2I C 0.0536(2) 0.1824(2) 0.7594(3)
C3I C 0.0766(2) 0.2284(2) 0.8069(3)
C4I C 0.1239(2) 0.2525(2) 0.7587(3)
O2I O 0.1477(2) 0.2973(2) 0.8089(3)
H2I H 0.1296 0.3052 0.8671
C5I C 0.1486(2) 0.2317(2) 0.6599(3)
H4I H 0.1802 0.2486 0.6274
H3I H 0.0599 0.2433 0.8723
C7I C 0.0000 0.1579(2) 0.8109(4)
C2C C -0.0536(2) 0.1824(2) 0.7594(3)
C1C C -0.0787(2) 0.1614(2) 0.6605(3)
O1C O -0.0575(1) 0.1141(1) 0.6132(2)
H1C H -0.0230 0.1121 0.6254
C6C C -0.1263(2) 0.1856(2) 0.6088(3)
C5C C -0.1486(2) 0.2317(2) 0.6599(3)
C4C C -0.1239(2) 0.2525(2) 0.7587(3)
O2C O -0.1477(2) 0.2973(2) 0.8089(3)
H2C H -0.1296 0.3052 0.8671
C3C C -0.0766(2) 0.2284(2) 0.8069(3)
H3C H -0.0599 0.2433 0.8723
H4C H -0.1802 0.2486 0.6274
C8C C -0.1529(2) 0.1630(3) 0.5000
C6J C -0.1263(2) 0.1856(2) 0.3912(3)
C1J C -0.0787(2) 0.1614(2) 0.3395(3)
O1J O -0.0575(1) 0.1141(1) 0.3868(2)
H1J H -0.0230 0.1121 0.3746
C2J C -0.0536(2) 0.1824(2) 0.2406(3)
C3J C -0.0766(2) 0.2284(2) 0.1931(3)
C4J C -0.1239(2) 0.2525(2) 0.2413(3)
O2J O -0.1477(2) 0.2973(2) 0.1911(3)
H2J H -0.1296 0.3052 0.1329
C5J C -0.1486(2) 0.2317(2) 0.3401(3)
H4J H -0.1802 0.2486 0.3726
H3J H -0.0599 0.2433 0.1277
H7C H -0.1935 0.1708 0.5000
H8C H -0.1483 0.1243 0.5000
H5I H 0.0000 0.1195 0.7967
H6I H 0.0000 0.1635 0.8937
O3 O 0.2869(2) 0.1381(2) 0.3125(3)
O4 O 0.0923(1) 0.0544(1) 0.1135(2)
C9 C 0.1429(2) 0.0738(2) 0.1610(3)
C10 C 0.1650(2) 0.0499(2) 0.2603(3)
C11 C 0.2139(2) 0.0717(2) 0.3089(3)
C12 C 0.2397(2) 0.1162(2) 0.2593(4)
C13 C 0.2181(2) 0.1388(2) 0.1605(3)
C14 C 0.1686(2) 0.1183(2) 0.1098(3)
C15 C 0.1456(3) 0.1429(2) 0.0000
C16 C 0.1393(2) 0.0000 0.3113(5)
H9 H 0.3152 0.1336 0.2716
H10 H 0.0907 0.0218 0.1221
H11 H 0.2295 0.0564 0.3751
H12 H 0.2366 0.1680 0.1272
H13 H 0.1546 0.1809 0.0000
H14 H 0.1042 0.1395 0.0000
H15 H 0.1454 0.0000 0.3941
H16 H 0.0983 0.0000 0.2975
C14I C 0.1686(2) 0.1183(2) -0.1098(3)
C9I C 0.1429(2) 0.0738(2) -0.1610(3)
O4I O 0.0923(1) 0.0544(1) -0.1135(2)
H10I H 0.0907 0.0218 -0.1221
C10I C 0.1650(2) 0.0499(2) -0.2603(3)
C11I C 0.2139(2) 0.0717(2) -0.3089(3)
C12I C 0.2397(2) 0.1162(2) -0.2593(4)
O3I O 0.2869(2) 0.1381(2) -0.3125(3)
H9I H 0.3152 0.1336 -0.2716
C13I C 0.2181(2) 0.1388(2) -0.1605(3)
H12I H 0.2366 0.1680 -0.1272
H11I H 0.2295 0.0564 -0.3751
C16I C 0.1393(2) 0.0000 -0.3113(5)
C10B C 0.1650(2) -0.0499(2) -0.2603(3)
C9B C 0.1429(2) -0.0738(2) -0.1610(3)
O4B O 0.0923(1) -0.0544(1) -0.1135(2)
H10B H 0.0907 -0.0218 -0.1221
C14B C 0.1686(2) -0.1183(2) -0.1098(3)
C13B C 0.2181(2) -0.1388(2) -0.1605(3)
C12B C 0.2397(2) -0.1162(2) -0.2593(4)
O3B O 0.2869(2) -0.1381(2) -0.3125(3)
H9B H 0.3152 -0.1336 -0.2716
C11B C 0.2139(2) -0.0717(2) -0.3089(3)
H11B H 0.2295 -0.0564 -0.3751
H12B H 0.2366 -0.1680 -0.1272
C15B C 0.1456(3) -0.1429(2) 0.0000
C14K C 0.1686(2) -0.1183(2) 0.1098(3)
C9K C 0.1429(2) -0.0738(2) 0.1610(3)
O4K O 0.0923(1) -0.0544(1) 0.1135(2)
H10K H 0.0907 -0.0218 0.1221
C10K C 0.1650(2) -0.0499(2) 0.2603(3)
C11K C 0.2139(2) -0.0717(2) 0.3089(3)
C12K C 0.2397(2) -0.1162(2) 0.2593(4)
O3K O 0.2869(2) -0.1381(2) 0.3125(3)
H9K H 0.3152 -0.1336 0.2716
C13K C 0.2181(2) -0.1388(2) 0.1605(3)
H12K H 0.2366 -0.1680 0.1272
H11K H 0.2295 -0.0564 0.3751
H13B H 0.1546 -0.1809 0.0000
H14B H 0.1042 -0.1395 0.0000
H15I H 0.1454 0.0000 -0.3941
H16I H 0.0983 0.0000 -0.2975
O5 O 0.3349(3) 0.0950(3) 0.5000
O6 O 0.1014(3) 0.3413(2) 0.0000
O7 O 0.2687(8) 0.0000 0.0000
O8 O 0.0575(11) 0.3565(17) 0.5000
O9 O 0.4002(8) 0.0000 0.5000
O10 O 0.3580(20) 0.0440(15) 0.0000
O11 O 0.0000 0.4027(9) 0.0000
O12 O 0.0000 0.2754(9) 0.5000
O13? O 0.0000 0.3396(11) 0.442(10)
O14? O 0.3320(11) 0.0000 0.0530(60)
loop_
_geom_bond_atom_site_label_1
_geom_bond_atom_site_label_2
_geom_bond_site_symmetry_1
_geom_bond_site_symmetry_2
O1 C1 1_555 1_555
O2 C4 1_555 1_555
C1 C2 1_555 1_555
C2 C3 1_555 1_555
C3 C4 1_555 1_555
C4 C5 1_555 1_555
C5 C6 1_555 1_555
C6 C1 1_555 1_555
C7 C2 1_555 1_555
C8 C6 1_555 1_555
H1 O1 1_555 1_555
H2 O2 1_555 1_555
H3 C3 1_555 1_555
H4 C5 1_555 1_555
H5 C7 1_555 1_555
H6 C7 1_555 1_555
H7 C8 1_555 1_555
H8 C8 1_555 1_555
O3 C12 1_555 1_555
O4 C9 1_555 1_555
C9 C10 1_555 1_555
C10 C11 1_555 1_555
C11 C12 1_555 1_555
C12 C13 1_555 1_555
C13 C14 1_555 1_555
C14 C9 1_555 1_555
C15 C14 1_555 1_555
C16 C10 1_555 1_555
H9 O3 1_555 1_555
H10 O4 1_555 1_555
H11 C11 1_555 1_555
H12 C13 1_555 1_555
H13 C15 1_555 1_555
H14 C15 1_555 1_555
H15 C16 1_555 1_555
H16 C16 1_555 1_555
C6I C8 1_555 1_555
C1I C6I 1_555 1_555
O1I C1I 1_555 1_555
H1I O1I 1_555 1_555
C2I C1I 1_555 1_555
C3I C2I 1_555 1_555
C4I C3I 1_555 1_555
O2I C4I 1_555 1_555
H2I O2I 1_555 1_555
C5I C6I 1_555 1_555
H4I C5I 1_555 1_555
H3I C3I 1_555 1_555
C7I C2I 1_555 1_555
C2C C7I 1_555 1_555
C1C C2C 1_555 1_555
O1C C1C 1_555 1_555
H1C O1C 1_555 1_555
C6C C1C 1_555 1_555
C5C C6C 1_555 1_555
C4C C5C 1_555 1_555
O2C C4C 1_555 1_555
H2C O2C 1_555 1_555
C3C C2C 1_555 1_555
H3C C3C 1_555 1_555
H4C C5C 1_555 1_555
C8C C6C 1_555 1_555
C6J C8C 1_555 1_555
C1J C6J 1_555 1_555
O1J C1J 1_555 1_555
H1J O1J 1_555 1_555
C2J C7 1_555 1_555
C3J C2J 1_555 1_555
C4J C3J 1_555 1_555
O2J C4J 1_555 1_555
H2J O2J 1_555 1_555
C5J C6J 1_555 1_555
H4J C5J 1_555 1_555
H3J C3J 1_555 1_555
H7C C8C 1_555 1_555
H8C C8C 1_555 1_555
H5I C7I 1_555 1_555
H6I C7I 1_555 1_555
C14I C15 1_555 1_555
C9I C14I 1_555 1_555
O4I C9I 1_555 1_555
H10I O4I 1_555 1_555
C10I C9I 1_555 1_555
C11I C10I 1_555 1_555
C12I C11I 1_555 1_555
O3I C12I 1_555 1_555
H9I O3I 1_555 1_555
C13I C14I 1_555 1_555
H12I C13I 1_555 1_555
H11I C11I 1_555 1_555
C16I C10I 1_555 1_555
C10B C16I 1_555 1_555
C9B C10B 1_555 1_555
O4B C9B 1_555 1_555
H10B O4B 1_555 1_555
C14B C9B 1_555 1_555
C13B C14B 1_555 1_555
C12B C13B 1_555 1_555
O3B C12B 1_555 1_555
H9B O3B 1_555 1_555
C11B C10B 1_555 1_555
H11B C11B 1_555 1_555
H12B C13B 1_555 1_555
C15B C14B 1_555 1_555
C14K C15B 1_555 1_555
C9K C14K 1_555 1_555
O4K C9K 1_555 1_555
H10K O4K 1_555 1_555
C10K C16 1_555 1_555
C11K C10K 1_555 1_555
C12K C11K 1_555 1_555
O3K C12K 1_555 1_555
H9K O3K 1_555 1_555
C13K C14K 1_555 1_555
H12K C13K 1_555 1_555
H11K C11K 1_555 1_555
H13B C15B 1_555 1_555
H14B C15B 1_555 1_555
H15I C16I 1_555 1_555
H16I C16I 1_555 1_555
C4I C5I 1_555 1_555
C4C C3C 1_555 1_555
C1J C2J 1_555 1_555
C4J C5J 1_555 1_555
C12I C13I 1_555 1_555
C12B C11B 1_555 1_555
C9K C10K 1_555 1_555
C12K C13K 1_555 1_555

#END
