
#######################################################################
#
#                 Cambridge Crystallographic Data Centre
#                                CCDC 
#
#######################################################################
#
# If this CIF has been generated from an entry in the Cambridge 
# Structural Database, then it will include bibliographic, chemical, 
# crystal, experimental, refinement or atomic coordinate data resulting 
# from the CCDC's data processing and validation procedures.
#
#######################################################################

data_TIFSEH
_chemical_formula_moiety         'C15 H16 N4 S3'
_chemical_name_systematic        
'S-Benzyl 3-((2-methylthio-6-methyl-4-pyrimidyl)methylene)dithiocarbazate'
_symmetry_cell_setting           monoclinic
_symmetry_space_group_name_H-M   'P 21'
_symmetry_Int_Tables_number      4
_space_group_name_Hall           'P 2yb'
loop_
_symmetry_equiv_pos_site_id
_symmetry_equiv_pos_as_xyz
1 x,y,z
2 -x,1/2+y,-z
_cell_length_a                   8.5463(9)
_cell_length_b                   7.6046(8)
_cell_length_c                   13.2512(14)
_cell_angle_alpha                90
_cell_angle_beta                 104.208(2)
_cell_angle_gamma                90
_cell_volume                     834.868
_exptl_crystal_colour            colorless
_exptl_crystal_description       block
_chemical_melting_point          175deg.C
_cell_formula_units_Z            2
_exptl_crystal_recrystallization_method methanol
loop_
_atom_site_label
_atom_site_type_symbol
_atom_site_fract_x
_atom_site_fract_y
_atom_site_fract_z
S1 S -0.21632(8) -1.06441(9) -0.00467(5)
S2 S -0.62989(9) 0.06361(9) 0.16707(5)
S3 S -0.36079(8) -0.10699(9) 0.33134(5)
N1 N -0.0763(3) -0.9282(3) 0.18152(18)
N2 N -0.2843(3) -0.7623(3) 0.06624(18)
N3 N -0.3793(3) -0.3646(3) 0.17786(18)
N4 N -0.4868(3) -0.2319(3) 0.14516(19)
H1 H -0.5504 -0.2352 0.0819
C1 C -0.0634(4) -1.2225(4) 0.0524(2)
H2 H -0.0684 -1.3221 0.0049
H3 H -0.0818 -1.2642 0.1186
H4 H 0.0432 -1.1671 0.0650
C2 C -0.1875(3) -0.9034(3) 0.0928(2)
C3 C -0.0602(3) -0.7977(4) 0.2528(2)
C4 C 0.0641(4) -0.8274(5) 0.3533(2)
H5 H 0.1635 -0.8725 0.3384
H6 H 0.0230 -0.9131 0.3957
H7 H 0.0869 -0.7161 0.3913
C5 C -0.1547(3) -0.6485(4) 0.2347(2)
H8 H -0.1433 -0.5578 0.2853
C6 C -0.2680(3) -0.6360(4) 0.1389(2)
C7 C -0.3759(3) -0.4846(4) 0.1106(2)
H9 H -0.4436 -0.4755 0.0422
C8 C -0.4972(3) -0.0953(3) 0.2083(2)
C9 C -0.4085(4) 0.0973(4) 0.3883(2)
H10 H -0.3636 0.1978 0.3572
H11 H -0.5271 0.1120 0.3734
C10 C -0.3384(3) 0.0949(4) 0.5043(2)
C11 C -0.4138(4) -0.0027(4) 0.5679(2)
H12 H -0.5063 -0.0713 0.5376
C12 C -0.3540(4) -0.0001(4) 0.6754(2)
H13 H -0.4054 -0.0673 0.7185
C13 C -0.2190(4) 0.1009(4) 0.7199(2)
H14 H -0.1789 0.1031 0.7934
C14 C -0.1428(4) 0.1983(5) 0.6578(2)
H15 H -0.0509 0.2674 0.6886
C15 C -0.2013(4) 0.1947(4) 0.5494(2)
H16 H -0.1482 0.2599 0.5065
loop_
_geom_bond_atom_site_label_1
_geom_bond_atom_site_label_2
_geom_bond_site_symmetry_1
_geom_bond_site_symmetry_2
S1 C1 1_555 1_555
S2 C8 1_555 1_555
S3 C8 1_555 1_555
N1 C2 1_555 1_555
N2 C2 1_555 1_555
N3 N4 1_555 1_555
N4 H1 1_555 1_555
C1 H2 1_555 1_555
H3 C1 1_555 1_555
H4 C1 1_555 1_555
C2 S1 1_555 1_555
C3 N1 1_555 1_555
C4 C3 1_555 1_555
H5 C4 1_555 1_555
H6 C4 1_555 1_555
H7 C4 1_555 1_555
C5 C3 1_555 1_555
H8 C5 1_555 1_555
C6 N2 1_555 1_555
C7 N3 1_555 1_555
H9 C7 1_555 1_555
C8 N4 1_555 1_555
C9 S3 1_555 1_555
H10 C9 1_555 1_555
H11 C9 1_555 1_555
C10 C9 1_555 1_555
C11 C10 1_555 1_555
H12 C11 1_555 1_555
C12 C11 1_555 1_555
H13 C12 1_555 1_555
C13 C12 1_555 1_555
H14 C13 1_555 1_555
C14 C13 1_555 1_555
H15 C14 1_555 1_555
C15 C10 1_555 1_555
H16 C15 1_555 1_555
C5 C6 1_555 1_555
C6 C7 1_555 1_555
C14 C15 1_555 1_555

#END
