
#######################################################################
#
#                 Cambridge Crystallographic Data Centre
#                                CCDC 
#
#######################################################################
#
# If this CIF has been generated from an entry in the Cambridge 
# Structural Database, then it will include bibliographic, chemical, 
# crystal, experimental, refinement or atomic coordinate data resulting 
# from the CCDC's data processing and validation procedures.
#
#######################################################################

data_TIFYOY
_chemical_formula_moiety         'C14 H17 N1 O3'
_chemical_name_systematic        
'(1S,2R)-2-(Benzoylamino)cyclohexanecarboxylic acid'
_symmetry_cell_setting           orthorhombic
_symmetry_space_group_name_H-M   'P 21 21 21'
_symmetry_Int_Tables_number      19
_space_group_name_Hall           'P 2ac 2ab'
loop_
_symmetry_equiv_pos_site_id
_symmetry_equiv_pos_as_xyz
1 x,y,z
2 1/2-x,-y,1/2+z
3 1/2+x,1/2-y,-z
4 -x,1/2+y,1/2-z
_cell_length_a                   9.4088(8)
_cell_length_b                   11.6989(12)
_cell_length_c                   11.7463(12)
_cell_angle_alpha                90
_cell_angle_beta                 90
_cell_angle_gamma                90
_cell_volume                     1292.95
_exptl_crystal_colour            colorless
_exptl_crystal_description       rod
_cell_formula_units_Z            4
loop_
_atom_site_label
_atom_site_type_symbol
_atom_site_fract_x
_atom_site_fract_y
_atom_site_fract_z
O1 O 0.2259(2) 0.68679(12) 0.60350(12)
O2 O 0.37859(18) 0.54220(13) 0.59690(12)
O3 O 0.21046(19) 0.25286(11) 0.31132(9)
N1 N 0.3086(2) 0.37501(12) 0.43638(14)
C1 C 0.2152(2) 0.57109(13) 0.44016(14)
C2 C 0.2906(2) 0.47959(14) 0.37005(14)
C3 C 0.4309(3) 0.5204(2) 0.3220(2)
C4 C 0.4141(3) 0.6320(2) 0.2554(2)
C5 C 0.3396(3) 0.72198(17) 0.32476(19)
C6 C 0.1968(3) 0.67903(16) 0.36661(16)
C7 C 0.2847(2) 0.59786(14) 0.55332(14)
C8 C 0.2713(2) 0.27088(14) 0.40363(13)
C9 C 0.3002(2) 0.17436(14) 0.48341(13)
C10 C 0.2435(3) 0.06779(16) 0.45684(17)
C11 C 0.2656(3) -0.02428(17) 0.52738(19)
C12 C 0.3448(2) -0.01175(17) 0.62594(18)
C13 C 0.4030(3) 0.09263(19) 0.65273(17)
C14 C 0.3819(2) 0.18537(17) 0.58114(15)
H1 H 0.11970 0.54220 0.45680
H2 H 0.344(2) 0.3797(17) 0.5029(19)
H3 H 0.260(2) 0.6920(18) 0.6693(19)
H4 H 0.22900 0.46110 0.30540
H5 H 0.46960 0.46200 0.27220
H6 H 0.49770 0.53200 0.38390
H7 H 0.50720 0.65990 0.23330
H8 H 0.36020 0.61740 0.18650
H9 H 0.32580 0.78990 0.27870
H10 H 0.39830 0.74260 0.38950
H11 H 0.13650 0.66170 0.30190
H12 H 0.15070 0.73830 0.41110
H13 H 0.19010 0.05880 0.39080
H14 H 0.22730 -0.09520 0.50880
H15 H 0.35860 -0.07390 0.67400
H16 H 0.45650 0.10100 0.71880
H17 H 0.42290 0.25550 0.59880
loop_
_geom_bond_atom_site_label_1
_geom_bond_atom_site_label_2
_geom_bond_site_symmetry_1
_geom_bond_site_symmetry_2
O1 C7 1_555 1_555
O2 C7 1_555 1_555
O3 C8 1_555 1_555
N1 C2 1_555 1_555
C1 C2 1_555 1_555
C2 C3 1_555 1_555
C3 C4 1_555 1_555
C4 C5 1_555 1_555
C5 C6 1_555 1_555
C6 C1 1_555 1_555
C7 C1 1_555 1_555
C8 N1 1_555 1_555
C9 C8 1_555 1_555
C10 C9 1_555 1_555
C11 C10 1_555 1_555
C12 C11 1_555 1_555
C13 C12 1_555 1_555
C14 C9 1_555 1_555
H1 C1 1_555 1_555
H2 N1 1_555 1_555
H3 O1 1_555 1_555
H4 C2 1_555 1_555
H5 C3 1_555 1_555
H6 C3 1_555 1_555
H7 C4 1_555 1_555
H8 C4 1_555 1_555
H9 C5 1_555 1_555
H10 C5 1_555 1_555
H11 C6 1_555 1_555
H12 C6 1_555 1_555
H13 C10 1_555 1_555
H14 C11 1_555 1_555
H15 C12 1_555 1_555
H16 C13 1_555 1_555
H17 C14 1_555 1_555
C13 C14 1_555 1_555

#END
