
#######################################################################
#
#                 Cambridge Crystallographic Data Centre
#                                CCDC 
#
#######################################################################
#
# If this CIF has been generated from an entry in the Cambridge 
# Structural Database, then it will include bibliographic, chemical, 
# crystal, experimental, refinement or atomic coordinate data resulting 
# from the CCDC's data processing and validation procedures.
#
#######################################################################

data_TIFZUD
_chemical_formula_moiety         'C12 H16 O6'
_chemical_name_systematic        
anti-1,3,5,7-tetrakis(Hydroxymethyl)tricyclo-(5.1.0.0^3,5^)octane-2,6-dione
_symmetry_cell_setting           monoclinic
_symmetry_space_group_name_H-M   'P 21/n'
_symmetry_Int_Tables_number      14
_space_group_name_Hall           '-P 2yn'
loop_
_symmetry_equiv_pos_site_id
_symmetry_equiv_pos_as_xyz
1 x,y,z
2 1/2+x,1/2-y,1/2+z
3 -x,-y,-z
4 1/2-x,1/2+y,1/2-z
_cell_length_a                   7.3226(2)
_cell_length_b                   8.4959(2)
_cell_length_c                   9.2703(3)
_cell_angle_alpha                90
_cell_angle_beta                 92.97(2)
_cell_angle_gamma                90
_cell_volume                     575.95
_exptl_crystal_colour            colorless
_exptl_crystal_description       tetrahedron
_cell_formula_units_Z            2
loop_
_atom_site_label
_atom_site_type_symbol
_atom_site_fract_x
_atom_site_fract_y
_atom_site_fract_z
O1 O 1.01983(14) 0.73351(11) 0.33512(10)
O2 O 0.87060(13) 1.09106(11) 0.14545(10)
O3 O 1.14934(14) 0.66186(11) 0.67037(12)
C1 C 1.07142(16) 1.00786(13) 0.35066(12)
C2 C 1.00806(16) 0.85281(14) 0.40768(13)
C3 C 0.93369(16) 0.84393(13) 0.55488(13)
C4 C 1.24509(17) 1.06783(15) 0.43035(14)
C5 C 1.04712(17) 1.02804(15) 0.18758(13)
C6 C 0.96075(17) 0.68589(14) 0.62880(14)
H1 H 0.793(3) 1.021(3) 0.148(2)
H2 H 1.180(3) 0.736(3) 0.729(2)
H3 H 1.333(2) 1.1181(19) 0.3731(19)
H4 H 1.292(2) 1.0097(19) 0.5144(18)
H5 H 1.141(2) 1.099(2) 0.1533(17)
H6 H 1.065(2) 0.927(2) 0.1418(19)
H7 H 0.880(2) 0.6797(18) 0.7124(17)
H8 H 0.923(2) 0.6021(18) 0.5603(17)
C3B C 1.06631(16) 1.15607(13) 0.44512(13)
C2B C 0.99194(16) 1.14719(14) 0.59232(13)
O1B O 0.98017(14) 1.26649(11) 0.66488(10)
C1B C 0.92858(16) 0.99214(13) 0.64934(12)
C4B C 0.75491(17) 0.93217(15) 0.56965(14)
C5B C 0.95288(17) 0.97196(15) 0.81242(13)
O2B O 1.12940(13) 0.90894(11) 0.85455(10)
H1B H 1.207(3) 0.979(3) 0.852(2)
H5B H 0.859(2) 0.901(2) 0.8467(17)
H6B H 0.935(2) 1.073(2) 0.8582(19)
H3B H 0.667(2) 0.8819(19) 0.6269(19)
H4B H 0.708(2) 0.9903(19) 0.4856(18)
C6B C 1.03925(17) 1.31411(14) 0.37120(14)
O3B O 0.85066(14) 1.33814(11) 0.32963(12)
H2B H 0.820(3) 1.264(3) 0.271(2)
H7B H 1.120(2) 1.3203(18) 0.2876(17)
H8B H 1.077(2) 1.3979(18) 0.4397(17)
loop_
_geom_bond_atom_site_label_1
_geom_bond_atom_site_label_2
_geom_bond_site_symmetry_1
_geom_bond_site_symmetry_2
O1 C2 1_555 1_555
O2 C5 1_555 1_555
O3 C6 1_555 1_555
C1 C2 1_555 1_555
C2 C3 1_555 1_555
C3 C6 1_555 1_555
C4 C1 1_555 1_555
C5 C1 1_555 1_555
C6 H7 1_555 1_555
H1 O2 1_555 1_555
H2 O3 1_555 1_555
H3 C4 1_555 1_555
H4 C4 1_555 1_555
H5 C5 1_555 1_555
H6 C5 1_555 1_555
H8 C6 1_555 1_555
C3B C1 1_555 1_555
C2B C3B 1_555 1_555
O1B C2B 1_555 1_555
C1B C3 1_555 1_555
C4B C3 1_555 1_555
C5B C1B 1_555 1_555
O2B C5B 1_555 1_555
H1B O2B 1_555 1_555
H5B C5B 1_555 1_555
H6B C5B 1_555 1_555
H3B C4B 1_555 1_555
H4B C4B 1_555 1_555
C6B C3B 1_555 1_555
O3B C6B 1_555 1_555
H2B O3B 1_555 1_555
H7B C6B 1_555 1_555
H8B C6B 1_555 1_555
C4 C3B 1_555 1_555
C2B C1B 1_555 1_555
C1B C4B 1_555 1_555

#END
