
#######################################################################
#
#                 Cambridge Crystallographic Data Centre
#                                CCDC 
#
#######################################################################
#
# If this CIF has been generated from an entry in the Cambridge 
# Structural Database, then it will include bibliographic, chemical, 
# crystal, experimental, refinement or atomic coordinate data resulting 
# from the CCDC's data processing and validation procedures.
#
#######################################################################

data_TIFZOX
_chemical_formula_moiety         'C12 H12 Cl4 O2'
_chemical_name_systematic        
anti-1,3,5,7-tetrakis(Chloromethyl)tricyclo-(5.1.0.0^3,5^)octane-2,6-dione
_symmetry_cell_setting           monoclinic
_symmetry_space_group_name_H-M   'P 21/c'
_symmetry_Int_Tables_number      14
_space_group_name_Hall           '-P 2ybc'
loop_
_symmetry_equiv_pos_site_id
_symmetry_equiv_pos_as_xyz
1 x,y,z
2 x,1/2-y,1/2+z
3 -x,-y,-z
4 -x,1/2+y,1/2-z
_cell_length_a                   9.0855(5)
_cell_length_b                   6.1050(3)
_cell_length_c                   12.3553(6)
_cell_angle_alpha                90
_cell_angle_beta                 106.51(1)
_cell_angle_gamma                90
_cell_volume                     657.056
_exptl_crystal_colour            colorless
_exptl_crystal_description       plate
_cell_formula_units_Z            2
loop_
_atom_site_label
_atom_site_type_symbol
_atom_site_fract_x
_atom_site_fract_y
_atom_site_fract_z
Cl1 Cl 0.13566(7) -0.27133(11) 0.51052(5)
Cl2 Cl 0.14322(8) 0.04915(12) 0.26671(5)
O1 O 0.5117(2) -0.2759(3) 0.67657(13)
C1 C 0.5084(3) -0.1487(4) 0.60010(18)
C2 C 0.3788(3) 0.0118(4) 0.56212(18)
C3 C 0.3680(3) 0.1563(4) 0.45816(18)
C4 C 0.4261(3) 0.2517(4) 0.57675(19)
C5 C 0.2376(3) -0.0484(4) 0.5960(2)
C6 C 0.2153(3) 0.2338(4) 0.3840(2)
H1 H 0.357(3) 0.342(5) 0.5982(19)
H2 H 0.533(3) 0.281(5) 0.605(2)
H3 H 0.164(3) 0.072(5) 0.588(2)
H4 H 0.267(3) -0.106(5) 0.672(2)
H5 H 0.139(3) 0.239(4) 0.424(2)
H6 H 0.227(3) 0.368(5) 0.352(2)
C3B C 0.6320(3) -0.1563(4) 0.54184(18)
C2B C 0.6212(3) -0.0118(4) 0.43788(18)
C1B C 0.4916(3) 0.1487(4) 0.39990(18)
O1B O 0.4883(2) 0.2759(3) 0.32343(13)
C4B C 0.5739(3) -0.2517(4) 0.42325(19)
C6B C 0.7847(3) -0.2338(4) 0.6160(2)
Cl2B Cl 0.85678(8) -0.04915(12) 0.73329(5)
H5B H 0.861(3) -0.239(4) 0.576(2)
H6B H 0.773(3) -0.368(5) 0.648(2)
H1B H 0.643(3) -0.342(5) 0.4018(19)
H2B H 0.467(3) -0.281(5) 0.395(2)
C5B C 0.7624(3) 0.0484(4) 0.4040(2)
Cl1B Cl 0.86434(7) 0.27133(11) 0.48948(5)
H3B H 0.836(3) -0.072(5) 0.412(2)
H4B H 0.733(3) 0.106(5) 0.328(2)
loop_
_geom_bond_atom_site_label_1
_geom_bond_atom_site_label_2
_geom_bond_site_symmetry_1
_geom_bond_site_symmetry_2
Cl1 C5 1_555 1_555
Cl2 C6 1_555 1_555
O1 C1 1_555 1_555
C1 C2 1_555 1_555
C2 C3 1_555 1_555
C3 C4 1_555 1_555
C4 C2 1_555 1_555
C5 C2 1_555 1_555
C6 C3 1_555 1_555
H1 C4 1_555 1_555
H2 C4 1_555 1_555
H3 C5 1_555 1_555
H4 C5 1_555 1_555
H5 C6 1_555 1_555
H6 C6 1_555 1_555
C3B C1 1_555 1_555
C2B C3B 1_555 1_555
C1B C3 1_555 1_555
O1B C1B 1_555 1_555
C4B C3B 1_555 1_555
C6B C3B 1_555 1_555
Cl2B C6B 1_555 1_555
H5B C6B 1_555 1_555
H6B C6B 1_555 1_555
H1B C4B 1_555 1_555
H2B C4B 1_555 1_555
C5B C2B 1_555 1_555
Cl1B C5B 1_555 1_555
H3B C5B 1_555 1_555
H4B C5B 1_555 1_555
C2B C1B 1_555 1_555
C2B C4B 1_555 1_555

#END
