
#######################################################################
#
#                 Cambridge Crystallographic Data Centre
#                                CCDC 
#
#######################################################################
#
# If this CIF has been generated from an entry in the Cambridge 
# Structural Database, then it will include bibliographic, chemical, 
# crystal, experimental, refinement or atomic coordinate data resulting 
# from the CCDC's data processing and validation procedures.
#
#######################################################################

data_TIGBAM
_chemical_formula_moiety         'C12 H12 Cl4 O2,C6 H6'
_chemical_name_systematic        
'syn-1,3,5,7-tetrakis(Chloromethyl)tricyclo-(5.1.0.0^3,5^)octane-2,6-dione benzene solvate'
_symmetry_cell_setting           orthorhombic
_symmetry_space_group_name_H-M   'P n m a'
_symmetry_Int_Tables_number      62
_space_group_name_Hall           '-P 2ac 2n'
loop_
_symmetry_equiv_pos_site_id
_symmetry_equiv_pos_as_xyz
1 x,y,z
2 1/2+x,y,1/2-z
3 x,1/2-y,z
4 1/2-x,1/2+y,1/2+z
5 -x,-y,-z
6 1/2-x,-y,1/2+z
7 -x,1/2+y,-z
8 1/2+x,1/2-y,1/2-z
_cell_length_a                   12.0462(4)
_cell_length_b                   12.1220(3)
_cell_length_c                   12.8780(4)
_cell_angle_alpha                90
_cell_angle_beta                 90
_cell_angle_gamma                90
_cell_volume                     1880.5
_exptl_crystal_colour            colorless
_exptl_crystal_description       prism
_cell_formula_units_Z            4
loop_
_atom_site_label
_atom_site_type_symbol
_atom_site_fract_x
_atom_site_fract_y
_atom_site_fract_z
Cl1 Cl 0.65943(4) 0.06103(4) 0.55642(3)
Cl2 Cl 0.53430(3) 0.00488(4) 0.17746(4)
O1 O 0.49637(12) 0.2500 0.27078(13)
O2 O 0.85600(13) 0.2500 0.49730(13)
C1 C 0.59576(15) 0.2500 0.28901(15)
C2 C 0.65274(10) 0.14156(11) 0.30504(10)
C3 C 0.75272(10) 0.14102(11) 0.38112(10)
C4 C 0.79257(16) 0.2500 0.42408(14)
C5 C 0.76938(11) 0.11667(11) 0.26728(10)
C6 C 0.57307(12) 0.04527(12) 0.30686(12)
C7 C 0.76505(13) 0.04814(13) 0.45754(12)
H1 H 0.7818(15) 0.0412(16) 0.2514(14)
H2 H 0.8087(14) 0.1705(15) 0.2245(13)
H3 H 0.6046(16) -0.0178(16) 0.3354(14)
H4 H 0.5071(16) 0.0656(16) 0.3444(14)
H5 H 0.8335(15) 0.0532(16) 0.4923(15)
H6 H 0.7568(15) -0.0241(17) 0.4249(15)
C2B C 0.65274(10) 0.35844(11) 0.30504(10)
C3B C 0.75272(10) 0.35898(11) 0.38112(10)
C5B C 0.76938(11) 0.38333(11) 0.26728(10)
C6B C 0.57307(12) 0.45473(12) 0.30686(12)
Cl2B Cl 0.53430(3) 0.49512(4) 0.17746(4)
H3B H 0.6046(16) 0.5178(16) 0.3354(14)
H4B H 0.5071(16) 0.4344(16) 0.3444(14)
H1B H 0.7818(15) 0.4588(16) 0.2514(14)
H2B H 0.8087(14) 0.3295(15) 0.2245(13)
C7B C 0.76505(13) 0.45186(13) 0.45754(12)
Cl1B Cl 0.65943(4) 0.43897(4) 0.55642(3)
H5B H 0.8335(15) 0.4468(16) 0.4923(15)
H6B H 0.7568(15) 0.5241(17) 0.4249(15)
C8 C 0.1397(2) 0.2500 0.5915(2)
C9 C 0.2105(2) 0.2500 0.5076(2)
C10 C 0.3238(2) 0.2500 0.5221(2)
C11 C 0.3678(2) 0.2500 0.6219(3)
C12 C 0.2964(3) 0.2500 0.7071(2)
C13 C 0.1824(3) 0.2500 0.6909(2)
H7 H 0.060(3) 0.2500 0.585(3)
H8 H 0.185(3) 0.2500 0.441(3)
H9 H 0.371(3) 0.2500 0.470(3)
H10 H 0.448(3) 0.2500 0.631(3)
H11 H 0.326(3) 0.2500 0.777(3)
H12 H 0.137(3) 0.2500 0.745(3)
loop_
_geom_bond_atom_site_label_1
_geom_bond_atom_site_label_2
_geom_bond_site_symmetry_1
_geom_bond_site_symmetry_2
Cl1 C7 1_555 1_555
Cl2 C6 1_555 1_555
O1 C1 1_555 1_555
O2 C4 1_555 1_555
C1 C2 1_555 1_555
C2 C3 1_555 1_555
C3 C4 1_555 1_555
C4 C3B 1_555 1_555
C5 C2 1_555 1_555
C6 C2 1_555 1_555
C7 C3 1_555 1_555
C8 C9 1_555 1_555
C9 C10 1_555 1_555
C10 C11 1_555 1_555
C11 C12 1_555 1_555
C12 C13 1_555 1_555
C13 C8 1_555 1_555
H1 C5 1_555 1_555
H2 C5 1_555 1_555
H3 C6 1_555 1_555
H4 C6 1_555 1_555
H5 C7 1_555 1_555
H6 C7 1_555 1_555
H7 C8 1_555 1_555
H8 C9 1_555 1_555
H9 C10 1_555 1_555
H10 C11 1_555 1_555
H11 C12 1_555 1_555
H12 C13 1_555 1_555
C2B C1 1_555 1_555
C3B C2B 1_555 1_555
C5B C2B 1_555 1_555
C6B C2B 1_555 1_555
Cl2B C6B 1_555 1_555
H3B C6B 1_555 1_555
H4B C6B 1_555 1_555
H1B C5B 1_555 1_555
H2B C5B 1_555 1_555
C7B C3B 1_555 1_555
Cl1B C7B 1_555 1_555
H5B C7B 1_555 1_555
H6B C7B 1_555 1_555
C3 C5 1_555 1_555
C3B C5B 1_555 1_555

#END
