
#######################################################################
#
#                 Cambridge Crystallographic Data Centre
#                                CCDC 
#
#######################################################################
#
# If this CIF has been generated from an entry in the Cambridge 
# Structural Database, then it will include bibliographic, chemical, 
# crystal, experimental, refinement or atomic coordinate data resulting 
# from the CCDC's data processing and validation procedures.
#
#######################################################################

data_TIGBEQ
_chemical_formula_moiety         'C12 H12 O8 S2'
_chemical_name_systematic        
'syn-5,7,13,15-Tetraoxo-6,14-dithiopentacyclo (9.5.1.1^3,9^.0.0^3,9^)octadecane-2,6,10,14-tetraone'
_symmetry_cell_setting           orthorhombic
_symmetry_space_group_name_H-M   'P m n 21'
_symmetry_Int_Tables_number      31
_space_group_name_Hall           'P 2ac -2'
loop_
_symmetry_equiv_pos_site_id
_symmetry_equiv_pos_as_xyz
1 x,y,z
2 1/2-x,-y,1/2+z
3 1/2+x,-y,1/2+z
4 -x,y,z
_cell_length_a                   18.4528(7)
_cell_length_b                   6.0455(2)
_cell_length_c                   6.0486(2)
_cell_angle_alpha                90
_cell_angle_beta                 90
_cell_angle_gamma                90
_cell_volume                     674.76
_exptl_crystal_colour            colorless
_exptl_crystal_description       plate
_cell_formula_units_Z            2
loop_
_atom_site_label
_atom_site_type_symbol
_atom_site_fract_x
_atom_site_fract_y
_atom_site_fract_z
S1 S 0.32100(4) 0.14449(12) 0.15486(15)
O1 O 0.5000 0.6974(6) 0.0918(5)
O2 O 0.5000 0.0817(5) 0.7078(5)
O3 O 0.36596(12) 0.3601(3) 0.0758(4)
O4 O 0.36617(11) 0.0662(3) 0.3693(4)
O5 O 0.25098(12) 0.2235(4) 0.2361(5)
C1 C 0.5000 0.6073(7) 0.2719(7)
C2 C 0.42863(15) 0.5483(5) 0.3775(5)
C3 C 0.42877(15) 0.3685(5) 0.5582(5)
C4 C 0.5000 0.2617(7) 0.6169(6)
C5 C 0.41352(16) 0.6083(5) 0.6175(5)
C6 C 0.36560(18) 0.5565(5) 0.2187(5)
C7 C 0.36576(16) 0.2103(5) 0.5656(6)
H1 H 0.4459(17) 0.697(6) 0.692(6)
H2 H 0.3632(18) 0.636(6) 0.654(8)
H3 H 0.369(2) 0.673(7) 0.120(7)
H4 H 0.325(2) 0.555(7) 0.310(7)
H5 H 0.320(2) 0.288(6) 0.576(6)
H6 H 0.3705(16) 0.111(5) 0.686(6)
C2C C 0.57137(15) 0.5483(5) 0.3775(5)
C3C C 0.57123(15) 0.3685(5) 0.5582(5)
C5C C 0.58648(16) 0.6083(5) 0.6175(5)
C6C C 0.63440(18) 0.5565(5) 0.2187(5)
O3C O 0.63404(12) 0.3601(3) 0.0758(4)
S1C S 0.67900(4) 0.14449(12) 0.15486(15)
O4C O 0.63383(11) 0.0662(3) 0.3693(4)
C7C C 0.63424(16) 0.2103(5) 0.5656(6)
H5C H 0.680(2) 0.288(6) 0.576(6)
H6C H 0.6295(16) 0.111(5) 0.686(6)
O5C O 0.74902(12) 0.2235(4) 0.2361(5)
H3C H 0.631(2) 0.673(7) 0.120(7)
H4C H 0.675(2) 0.555(7) 0.310(7)
H1C H 0.5541(17) 0.697(6) 0.692(6)
H2C H 0.6368(18) 0.636(6) 0.654(8)
loop_
_geom_bond_atom_site_label_1
_geom_bond_atom_site_label_2
_geom_bond_site_symmetry_1
_geom_bond_site_symmetry_2
S1 O3 1_555 1_555
O1 C1 1_555 1_555
O2 C4 1_555 1_555
O3 C6 1_555 1_555
O4 S1 1_555 1_555
O5 S1 1_555 1_555
C1 C2 1_555 1_555
C2 C3 1_555 1_555
C3 C4 1_555 1_555
C4 C3C 1_555 1_555
C5 C2 1_555 1_555
C6 C2 1_555 1_555
C7 O4 1_555 1_555
H1 C5 1_555 1_555
H2 C5 1_555 1_555
H3 C6 1_555 1_555
H4 C6 1_555 1_555
H5 C7 1_555 1_555
H6 C7 1_555 1_555
C2C C1 1_555 1_555
C3C C2C 1_555 1_555
C5C C2C 1_555 1_555
C6C C2C 1_555 1_555
O3C C6C 1_555 1_555
S1C O3C 1_555 1_555
O4C S1C 1_555 1_555
C7C C3C 1_555 1_555
H5C C7C 1_555 1_555
H6C C7C 1_555 1_555
O5C S1C 1_555 1_555
H3C C6C 1_555 1_555
H4C C6C 1_555 1_555
H1C C5C 1_555 1_555
H2C C5C 1_555 1_555
C3 C7 1_555 1_555
C3 C5 1_555 1_555
C3C C5C 1_555 1_555
O4C C7C 1_555 1_555

#END
