
#######################################################################
#
#                 Cambridge Crystallographic Data Centre
#                                CCDC 
#
#######################################################################
#
# If this CIF has been generated from an entry in the Cambridge 
# Structural Database, then it will include bibliographic, chemical, 
# crystal, experimental, refinement or atomic coordinate data resulting 
# from the CCDC's data processing and validation procedures.
#
#######################################################################

data_TIGJEY
_chemical_formula_moiety         
'C122 H130 N10 O8,5(C1 H1 Cl3),0.5(C1 H2 Cl2),2(C4 H8 O2),C1 H4 O1,2.5(H2 O1)'
_chemical_name_systematic        
'3,17,23,35,41,55,61,73,78,80,83,85,88,90,93,95-Hexadecamethyl-20,20:38,38:58,58:76,76-tetrakis(pentamethylene)-5,15,25,33,43,53,63,71,84,94-decaazatridecacyclo[70.2.2.2^16,19^.2^21,24^.2^34,37^.2^39,42^.2^54,57^.2^59,62^.2^72,75^.1^7,11^.1^27,31^.1^45,49^.1^65,69^]hexanonaconta-1,3,7,9,11(79),12,16,18,21,23,27,29,31(84),34,36,39,41,45,47,49(89),50,54,56,59,61,65,67,69(94),72,74,77,80,82,85,87,90,92,95-octatriacontaen-6,14,26,32,44,52,64,70-octaone chloroform dichloromethane ethyl acetate methanol solvate hydrate'
_symmetry_cell_setting           triclinic
_symmetry_space_group_name_H-M   'P -1'
_symmetry_Int_Tables_number      2
_space_group_name_Hall           '-P 1'
loop_
_symmetry_equiv_pos_site_id
_symmetry_equiv_pos_as_xyz
1 x,y,z
2 -x,-y,-z
_cell_length_a                   18.8175(5)
_cell_length_b                   18.8329(6)
_cell_length_c                   24.8076(8)
_cell_angle_alpha                96.458(2)
_cell_angle_beta                 97.167(2)
_cell_angle_gamma                117.893(2)
_cell_volume                     7561.71
_exptl_crystal_colour            colorless
_exptl_crystal_description       plate
_cell_formula_units_Z            2
loop_
_atom_site_label
_atom_site_type_symbol
_atom_site_fract_x
_atom_site_fract_y
_atom_site_fract_z
C1 C -0.0502(6) -0.1656(5) 0.1733(4)
O1 O -0.0174(4) -0.1182(4) 0.2179(3)
N1 N -0.0737(5) -0.2469(4) 0.1678(3)
H1 H -0.1035 -0.2802 0.1362
C2 C -0.0507(6) -0.2798(5) 0.2130(3)
C3 C -0.0891(6) -0.2887(5) 0.2568(3)
C4 C -0.0630(5) -0.3182(6) 0.3006(3)
H2 H -0.0901 -0.3260 0.3310
C5 C 0.0001(5) -0.3361(5) 0.3012(3)
C6 C 0.0374(6) -0.3263(6) 0.2547(3)
H3 H 0.0797 -0.3400 0.2532
C7 C 0.0133(6) -0.2967(6) 0.2107(3)
C8 C 0.0335(5) -0.3599(5) 0.3522(3)
C9 C -0.0352(6) -0.4082(5) 0.3834(4)
H4 H -0.0623 -0.3757 0.3931
H5 H -0.0104 -0.4159 0.4182
C10 C -0.1008(6) -0.4931(5) 0.3485(4)
H6 H -0.1282 -0.4858 0.3145
H7 H -0.1429 -0.5219 0.3701
C11 C -0.0596(7) -0.5455(6) 0.3324(5)
H8 H -0.0382 -0.5586 0.3662
H9 H -0.1010 -0.5976 0.3075
C12 C 0.0079(6) -0.5006(5) 0.3045(4)
H10 H -0.0153 -0.4953 0.2681
H11 H 0.0359 -0.5331 0.2976
C13 C 0.0716(6) -0.4151(5) 0.3371(4)
H12 H 0.1135 -0.3882 0.3148
H13 H 0.0997 -0.4206 0.3716
C14 C 0.0983(5) -0.2773(5) 0.3900(3)
C15 C 0.1796(5) -0.2381(5) 0.3847(4)
H14 H 0.1951 -0.2640 0.3570
C16 C 0.2393(5) -0.1648(5) 0.4164(4)
C17 C 0.2153(5) -0.1277(5) 0.4565(3)
C18 C 0.1374(5) -0.1626(5) 0.4646(3)
C19 C 0.0788(6) -0.2375(5) 0.4313(3)
H15 H 0.0240 -0.2619 0.4370
N2 N 0.2757(4) -0.0466(4) 0.4904(3)
H16 H 0.2750 -0.0032 0.4810
C20 C 0.3303(5) -0.0353(5) 0.5334(3)
O2 O 0.3442(5) -0.0893(4) 0.5466(3)
C21 C 0.3777(5) 0.0503(4) 0.5673(3)
C22 C 0.4397(5) 0.0706(5) 0.6129(3)
H17 H 0.4565 0.0321 0.6214
C23 C 0.4759(5) 0.1476(5) 0.6454(4)
H18 H 0.5177 0.1627 0.6771
C24 C 0.4513(5) 0.2026(5) 0.6318(3)
H19 H 0.4754 0.2559 0.6539
C25 C 0.3904(5) 0.1786(4) 0.5849(3)
N3 N 0.3547(4) 0.1047(4) 0.5528(2)
C26 C 0.3607(5) 0.2368(5) 0.5688(3)
O3 O 0.3884(4) 0.3050(4) 0.5970(3)
N4 N 0.3059(4) 0.2074(4) 0.5211(3)
H20 H 0.2934 0.1587 0.5032
C27 C 0.2652(5) 0.2478(5) 0.4961(3)
C28 C 0.1809(5) 0.2122(5) 0.4905(3)
C29 C 0.1408(5) 0.2461(5) 0.4608(3)
H21 H 0.0829 0.2220 0.4569
C30 C 0.1814(4) 0.3134(5) 0.4365(3)
C31 C 0.2658(5) 0.3485(5) 0.4446(4)
H22 H 0.2955 0.3963 0.4301
C32 C 0.3092(5) 0.3161(5) 0.4736(4)
C33 C 0.1369(4) 0.3449(4) 0.3984(3)
C34 C 0.1826(6) 0.4403(5) 0.4103(3)
H23 H 0.2407 0.4607 0.4076
H24 H 0.1576 0.4593 0.3818
C35 C 0.1791(6) 0.4769(6) 0.4678(4)
H25 H 0.2069 0.4607 0.4966
H26 H 0.2088 0.5374 0.4732
C36 C 0.0924(6) 0.4481(6) 0.4741(4)
H27 H 0.0664 0.4695 0.4481
H28 H 0.0920 0.4698 0.5122
C37 C 0.0427(6) 0.3542(6) 0.4624(3)
H29 H 0.0640 0.3333 0.4916
H30 H -0.0154 0.3369 0.4637
C38 C 0.0475(5) 0.3170(5) 0.4061(3)
H31 H 0.0198 0.3325 0.3768
H32 H 0.0174 0.2566 0.4013
C39 C 0.1351(5) 0.3092(4) 0.3389(3)
C40 C 0.0890(5) 0.2251(4) 0.3182(3)
H33 H 0.0571 0.1907 0.3410
C41 C 0.0877(5) 0.1899(4) 0.2664(3)
C42 C 0.1367(5) 0.2409(5) 0.2337(3)
C43 C 0.1857(5) 0.3246(5) 0.2526(3)
C44 C 0.1829(5) 0.3582(5) 0.3052(3)
H34 H 0.2144 0.4157 0.3182
N5 N 0.1376(4) 0.2050(4) 0.1800(3)
H35 H 0.1596 0.1728 0.1780
C45 C 0.1070(6) 0.2175(6) 0.1326(3)
O4 O 0.0794(4) 0.2650(4) 0.1312(3)
C46 C 0.1094(7) 0.1686(6) 0.0802(3)
H36 H 0.1244 0.1272 0.0825
C47 C 0.0902(6) 0.1847(6) 0.0316(3)
H37 H 0.0765 0.2273 0.0323
C48 C 0.0879(7) 0.1452(6) -0.0221(3)
C49 C 0.0926(8) 0.0730(6) -0.0285(4)
H38 H 0.0998 0.0503 0.0027
C50 C 0.0863(10) 0.0343(7) -0.0829(4)
H39 H 0.0900 -0.0146 -0.0882
C51 C 0.0749(9) 0.0672(7) -0.1279(4)
H40 H 0.0709 0.0403 -0.1639
C52 C -0.0692(6) -0.1384(5) 0.1225(3)
C53 C 0.0743(6) 0.1764(6) -0.0704(4)
H41 H 0.0687 0.2241 -0.0662
C54 C -0.1616(7) -0.2748(8) 0.2571(5)
H42 H -0.1454 -0.2182 0.2536
H43 H -0.1806 -0.2847 0.2920
H44 H -0.2060 -0.3125 0.2260
C55 C 0.0608(8) -0.2815(7) 0.1646(4)
H45 H 0.0863 -0.2233 0.1626
H46 H 0.0234 -0.3143 0.1293
H47 H 0.1035 -0.2971 0.1719
C56 C 0.3268(6) -0.1238(7) 0.4065(5)
H48 H 0.3322 -0.1600 0.3778
H49 H 0.3652 -0.1128 0.4410
H50 H 0.3392 -0.0721 0.3945
C57 C 0.1116(7) -0.1230(7) 0.5089(4)
H51 H 0.1428 -0.1172 0.5453
H52 H 0.0528 -0.1572 0.5076
H53 H 0.1225 -0.0688 0.5023
C58 C 0.1343(6) 0.1409(6) 0.5169(5)
H54 H 0.0758 0.1245 0.5086
H55 H 0.1546 0.1566 0.5571
H56 H 0.1420 0.0950 0.5022
C59 C 0.4017(6) 0.3577(9) 0.4795(6)
H57 H 0.4272 0.4083 0.5075
H58 H 0.4161 0.3708 0.4438
H59 H 0.4216 0.3209 0.4909
C60 C 0.0348(6) 0.0985(5) 0.2455(4)
H60 H -0.0054 0.0882 0.2122
H61 H 0.0059 0.0733 0.2742
H62 H 0.0694 0.0749 0.2364
C61 C 0.2413(6) 0.3794(6) 0.2179(4)
H63 H 0.2688 0.3524 0.2006
H64 H 0.2827 0.4316 0.2418
H65 H 0.2084 0.3895 0.1891
C52A C 0.0692(6) 0.1384(5) -0.1225(3)
C1A C 0.0502(6) 0.1656(5) -0.1733(4)
O1A O 0.0174(4) 0.1182(4) -0.2179(3)
N1A N 0.0737(5) 0.2469(4) -0.1678(3)
H1A H 0.1035 0.2802 -0.1362
C2A C 0.0507(6) 0.2798(5) -0.2130(3)
C3A C 0.0891(6) 0.2887(5) -0.2568(3)
C4A C 0.0630(5) 0.3182(6) -0.3006(3)
H2A H 0.0901 0.3260 -0.3310
C5A C -0.0001(5) 0.3361(5) -0.3012(3)
C6A C -0.0374(6) 0.3263(6) -0.2547(3)
H3A H -0.0797 0.3400 -0.2532
C7A C -0.0133(6) 0.2967(6) -0.2107(3)
C55A C -0.0608(8) 0.2815(7) -0.1646(4)
H45A H -0.0863 0.2233 -0.1626
H46A H -0.0234 0.3143 -0.1293
H47A H -0.1035 0.2971 -0.1719
C8A C -0.0335(5) 0.3599(5) -0.3522(3)
C9A C 0.0352(6) 0.4082(5) -0.3834(4)
H4A H 0.0623 0.3757 -0.3931
H5A H 0.0104 0.4159 -0.4182
C10A C 0.1008(6) 0.4931(5) -0.3485(4)
H6A H 0.1282 0.4858 -0.3145
H7A H 0.1429 0.5219 -0.3701
C11A C 0.0596(7) 0.5455(6) -0.3324(5)
H8A H 0.0382 0.5586 -0.3662
H9A H 0.1010 0.5976 -0.3075
C12A C -0.0079(6) 0.5006(5) -0.3045(4)
H10A H 0.0153 0.4953 -0.2681
H11A H -0.0359 0.5331 -0.2976
C13A C -0.0716(6) 0.4151(5) -0.3371(4)
C14A C -0.0983(5) 0.2773(5) -0.3900(3)
C15A C -0.1796(5) 0.2381(5) -0.3847(4)
H14A H -0.1951 0.2640 -0.3570
C16A C -0.2393(5) 0.1648(5) -0.4164(4)
C17A C -0.2153(5) 0.1277(5) -0.4565(3)
C18A C -0.1374(5) 0.1626(5) -0.4646(3)
C19A C -0.0788(6) 0.2375(5) -0.4313(3)
H15A H -0.0240 0.2619 -0.4370
C57A C -0.1116(7) 0.1230(7) -0.5089(4)
H51A H -0.1428 0.1172 -0.5453
H52A H -0.0528 0.1572 -0.5076
H53A H -0.1225 0.0688 -0.5023
N2A N -0.2757(4) 0.0466(4) -0.4904(3)
H16A H -0.2750 0.0032 -0.4810
C20A C -0.3303(5) 0.0353(5) -0.5334(3)
O2A O -0.3442(5) 0.0893(4) -0.5466(3)
C21A C -0.3777(5) -0.0503(4) -0.5673(3)
C22A C -0.4397(5) -0.0706(5) -0.6129(3)
H17A H -0.4565 -0.0321 -0.6214
C23A C -0.4759(5) -0.1476(5) -0.6454(4)
H18A H -0.5177 -0.1627 -0.6771
C24A C -0.4513(5) -0.2026(5) -0.6318(3)
H19A H -0.4754 -0.2559 -0.6539
C25A C -0.3904(5) -0.1786(4) -0.5849(3)
N3A N -0.3547(4) -0.1047(4) -0.5528(2)
C26A C -0.3607(5) -0.2368(5) -0.5688(3)
O3A O -0.3884(4) -0.3050(4) -0.5970(3)
N4A N -0.3059(4) -0.2074(4) -0.5211(3)
H20A H -0.2934 -0.1587 -0.5032
C27A C -0.2652(5) -0.2478(5) -0.4961(3)
C28A C -0.1809(5) -0.2122(5) -0.4905(3)
C29A C -0.1408(5) -0.2461(5) -0.4608(3)
H21A H -0.0829 -0.2220 -0.4569
C30A C -0.1814(4) -0.3134(5) -0.4365(3)
C31A C -0.2658(5) -0.3485(5) -0.4446(4)
H22A H -0.2955 -0.3963 -0.4301
C32A C -0.3092(5) -0.3161(5) -0.4736(4)
C59A C -0.4017(6) -0.3577(9) -0.4795(6)
H57A H -0.4272 -0.4083 -0.5075
H58A H -0.4161 -0.3708 -0.4438
H59A H -0.4216 -0.3209 -0.4909
C33A C -0.1369(4) -0.3449(4) -0.3984(3)
C34A C -0.1826(6) -0.4403(5) -0.4103(3)
H23A H -0.2407 -0.4607 -0.4076
H24A H -0.1576 -0.4593 -0.3818
C35A C -0.1791(6) -0.4769(6) -0.4678(4)
H25A H -0.2069 -0.4607 -0.4966
H26A H -0.2088 -0.5374 -0.4732
C36A C -0.0924(6) -0.4481(6) -0.4741(4)
H27A H -0.0664 -0.4695 -0.4481
H28A H -0.0920 -0.4698 -0.5122
C37A C -0.0427(6) -0.3542(6) -0.4624(3)
H29A H -0.0640 -0.3333 -0.4916
H30A H 0.0154 -0.3369 -0.4637
C38A C -0.0475(5) -0.3170(5) -0.4061(3)
C39A C -0.1351(5) -0.3092(4) -0.3389(3)
C40A C -0.0890(5) -0.2251(4) -0.3182(3)
H33A H -0.0571 -0.1907 -0.3410
C41A C -0.0877(5) -0.1899(4) -0.2664(3)
C42A C -0.1367(5) -0.2409(5) -0.2337(3)
C43A C -0.1857(5) -0.3246(5) -0.2526(3)
C44A C -0.1829(5) -0.3582(5) -0.3052(3)
H34A H -0.2144 -0.4157 -0.3182
C61A C -0.2413(6) -0.3794(6) -0.2179(4)
H63A H -0.2688 -0.3524 -0.2006
H64A H -0.2827 -0.4316 -0.2418
H65A H -0.2084 -0.3895 -0.1891
N5A N -0.1376(4) -0.2050(4) -0.1800(3)
H35A H -0.1596 -0.1728 -0.1780
C45A C -0.1070(6) -0.2175(6) -0.1326(3)
O4A O -0.0794(4) -0.2650(4) -0.1312(3)
C46A C -0.1094(7) -0.1686(6) -0.0802(3)
H36A H -0.1244 -0.1272 -0.0825
C47A C -0.0902(6) -0.1847(6) -0.0316(3)
H37A H -0.0765 -0.2273 -0.0323
C48A C -0.0879(7) -0.1452(6) 0.0221(3)
C49A C -0.0926(8) -0.0730(6) 0.0285(4)
H38A H -0.0998 -0.0503 -0.0027
C50A C -0.0863(10) -0.0343(7) 0.0829(4)
H39A H -0.0900 0.0146 0.0882
C51A C -0.0749(9) -0.0672(7) 0.1279(4)
H40A H -0.0709 -0.0403 0.1639
C53A C -0.0743(6) -0.1764(6) 0.0704(4)
H41A H -0.0687 -0.2241 0.0662
C60A C -0.0348(6) -0.0985(5) -0.2455(4)
H60A H 0.0054 -0.0882 -0.2122
H61A H -0.0059 -0.0733 -0.2742
H62A H -0.0694 -0.0749 -0.2364
H31A H -0.0198 -0.3325 -0.3768
H32A H -0.0174 -0.2566 -0.4013
C58A C -0.1343(6) -0.1409(6) -0.5169(5)
H54A H -0.0758 -0.1245 -0.5086
H55A H -0.1546 -0.1566 -0.5571
H56A H -0.1420 -0.0950 -0.5022
C56A C -0.3268(6) 0.1238(7) -0.4065(5)
H48A H -0.3322 0.1600 -0.3778
H49A H -0.3652 0.1128 -0.4410
H50A H -0.3392 0.0721 -0.3945
H12A H -0.1135 0.3882 -0.3148
H13A H -0.0997 0.4206 -0.3716
C54A C 0.1616(7) 0.2748(8) -0.2571(5)
H42A H 0.1454 0.2182 -0.2536
H43A H 0.1806 0.2847 -0.2920
H44A H 0.2060 0.3125 -0.2260
C62 C 0.8229(7) 0.5556(6) 0.0702(7)
O5 O 0.8217(4) 0.6202(4) 0.0714(3)
N6 N 0.7604(5) 0.4890(5) 0.0832(5)
H66 H 0.7600 0.4419 0.0772
C63 C 0.6944(5) 0.4920(6) 0.1067(4)
C64 C 0.6317(6) 0.4928(6) 0.0733(4)
C65 C 0.5662(6) 0.4895(6) 0.0968(4)
H67 H 0.5218 0.4890 0.0736
C66 C 0.5633(5) 0.4870(5) 0.1515(4)
C67 C 0.6313(5) 0.4900(6) 0.1852(4)
H68 H 0.6325 0.4904 0.2237
C68 C 0.6968(5) 0.4923(6) 0.1629(4)
C69 C 0.4900(5) 0.4788(5) 0.1769(4)
C70 C 0.4314(6) 0.4982(5) 0.1402(5)
H69 H 0.3807 0.4813 0.1551
H70 H 0.4159 0.4652 0.1024
C71 C 0.4685(7) 0.5897(6) 0.1364(5)
H71 H 0.4257 0.5987 0.1160
H72 H 0.5132 0.6045 0.1154
C72 C 0.5030(8) 0.6460(6) 0.1948(6)
H73 H 0.5326 0.7040 0.1909
H74 H 0.4569 0.6385 0.2132
C73 C 0.5591(8) 0.6273(6) 0.2294(5)
H75 H 0.5769 0.6617 0.2669
H76 H 0.6085 0.6418 0.2133
C74 C 0.5200(7) 0.5367(5) 0.2345(4)
H77 H 0.4730 0.5230 0.2531
H78 H 0.5608 0.5279 0.2578
C75 C 0.4435(6) 0.3876(5) 0.1823(4)
C76 C 0.4056(8) 0.3245(5) 0.1368(4)
H79 H 0.4037 0.3382 0.1011
C77 C 0.3704(8) 0.2432(5) 0.1398(4)
C78 C 0.3705(6) 0.2240(5) 0.1918(4)
C79 C 0.4005(10) 0.2823(6) 0.2380(4)
C80 C 0.4380(9) 0.3646(6) 0.2330(4)
H80 H 0.4604 0.4059 0.2656
N7 N 0.3385(4) 0.1375(4) 0.1966(4)
H81 H 0.3706 0.1159 0.1928
C81 C 0.2652(5) 0.0905(5) 0.2061(4)
O6 O 0.2090(4) 0.1065(4) 0.2005(4)
C82 C 0.2528(4) 0.0128(4) 0.2247(3)
C83 C 0.1801(4) -0.0368(5) 0.2412(4)
H82 H 0.1366 -0.0242 0.2386
C84 C 0.1730(5) -0.1045(5) 0.2613(4)
H83 H 0.1241 -0.1397 0.2728
C85 C 0.2370(5) -0.1206(5) 0.2646(4)
H84 H 0.2333 -0.1670 0.2785
C86 C 0.3077(4) -0.0682(4) 0.2473(3)
N8 N 0.3164(3) -0.0023(3) 0.2275(3)
C87 C 0.3798(4) -0.0835(4) 0.2522(4)
O7 O 0.3779(4) -0.1407(3) 0.2726(3)
N9 N 0.4441(3) -0.0310(4) 0.2333(3)
H85 H 0.4383 0.0046 0.2156
C88 C 0.5221(4) -0.0290(4) 0.2401(3)
C89 C 0.5879(4) 0.0347(5) 0.2776(3)
C90 C 0.6639(4) 0.0374(4) 0.2827(3)
H86 H 0.7093 0.0805 0.3087
C91 C 0.6758(4) -0.0208(4) 0.2511(3)
C92 C 0.6078(4) -0.0845(5) 0.2152(3)
H87 H 0.6138 -0.1262 0.1944
C93 C 0.5301(4) -0.0897(5) 0.2082(3)
C94 C 0.7618(4) -0.0105(4) 0.2546(3)
C95 C 0.8103(4) 0.0173(5) 0.3156(3)
H88 H 0.8678 0.0304 0.3157
H89 H 0.8112 0.0679 0.3326
C96 C 0.7730(6) -0.0481(5) 0.3505(3)
H90 H 0.8056 -0.0271 0.3889
H91 H 0.7164 -0.0594 0.3520
C97 C 0.7711(6) -0.1260(6) 0.3274(3)
H92 H 0.7440 -0.1679 0.3496
H93 H 0.8279 -0.1163 0.3292
C98 C 0.7240(5) -0.1570(5) 0.2668(3)
H94 H 0.7259 -0.2066 0.2510
H95 H 0.6658 -0.1724 0.2657
C99 C 0.7604(5) -0.0920(4) 0.2318(3)
H96 H 0.7279 -0.1138 0.1935
H97 H 0.8172 -0.0802 0.2306
C100 C 0.8029(4) 0.0525(4) 0.2186(3)
C101 C 0.7819(5) 0.0309(5) 0.1608(3)
H98 H 0.7427 -0.0242 0.1444
C102 C 0.8151(6) 0.0851(5) 0.1265(3)
C103 C 0.8731(5) 0.1662(5) 0.1503(4)
C104 C 0.8955(5) 0.1914(4) 0.2075(4)
C105 C 0.8601(5) 0.1341(4) 0.2410(4)
H99 H 0.8757 0.1513 0.2801
N10 N 0.9143(5) 0.2236(5) 0.1162(4)
H100 H 0.9682 0.2466 0.1238
C106 C 0.8835(7) 0.2475(8) 0.0747(5)
O8 O 0.8099(6) 0.2257(6) 0.0630(4)
C107 C 0.9439(8) 0.3020(8) 0.0415(5)
H101 H 0.9986 0.3108 0.0478
C108 C 0.9218(8) 0.3368(8) 0.0043(5)
H102 H 0.8663 0.3251 -0.0006
C109 C 0.9705(7) 0.3901(7) -0.0296(4)
C110 C 0.9413(8) 0.4319(8) -0.0606(5)
H103 H 0.8888 0.4262 -0.0592
C111 C 0.9908(7) 0.4833(7) -0.0946(5)
H104 H 0.9724 0.5139 -0.1144
C112 C 1.0652(8) 0.4881(8) -0.0983(6)
H105 H 1.0971 0.5215 -0.1215
C113 C 0.9048(6) 0.5544(7) 0.0691(5)
C114 C 1.0474(7) 0.3949(7) -0.0370(5)
H106 H 1.0655 0.3624 -0.0192
C115 C 0.6291(9) 0.4899(10) 0.0123(5)
H107 H 0.6455 0.4504 -0.0023
H108 H 0.6670 0.5443 0.0061
H109 H 0.5732 0.4731 -0.0068
C116 C 0.7654(7) 0.4930(10) 0.2023(7)
H110 H 0.8154 0.5460 0.2072
H111 H 0.7757 0.4491 0.1870
H112 H 0.7497 0.4844 0.2382
C117 C 0.3312(14) 0.1756(7) 0.0882(5)
H113 H 0.2815 0.1741 0.0692
H114 H 0.3169 0.1228 0.0989
H115 H 0.3701 0.1865 0.0633
C118 C 0.3966(19) 0.2640(9) 0.2953(5)
H116 H 0.3418 0.2192 0.2954
H117 H 0.4076 0.3129 0.3212
H118 H 0.4378 0.2477 0.3067
C119 C 0.5796(6) 0.1004(6) 0.3119(4)
H119 H 0.5422 0.1137 0.2896
H120 H 0.6336 0.1496 0.3241
H121 H 0.5577 0.0810 0.3443
C120 C 0.4594(5) -0.1577(6) 0.1656(4)
H122 H 0.4240 -0.2007 0.1840
H123 H 0.4808 -0.1808 0.1387
H124 H 0.4276 -0.1359 0.1463
C121 C 0.7884(9) 0.0573(7) 0.0642(4)
H125 H 0.7460 0.0710 0.0508
H126 H 0.7662 -0.0021 0.0546
H127 H 0.8357 0.0850 0.0469
C122 C 0.9562(7) 0.2802(5) 0.2332(6)
H128 H 0.9394 0.3158 0.2160
H129 H 1.0110 0.2928 0.2273
H130 H 0.9573 0.2895 0.2731
C113A C 1.0952(6) 0.4456(7) -0.0691(5)
C62A C 1.1771(7) 0.4444(6) -0.0702(7)
O5A O 1.1783(4) 0.3798(4) -0.0714(3)
N6A N 1.2396(5) 0.5110(5) -0.0832(5)
H66A H 1.2400 0.5581 -0.0772
C63A C 1.3056(5) 0.5080(6) -0.1067(4)
C64A C 1.3683(6) 0.5072(6) -0.0733(4)
C65A C 1.4338(6) 0.5105(6) -0.0968(4)
H67A H 1.4782 0.5110 -0.0736
C66A C 1.4367(5) 0.5130(5) -0.1515(4)
C67A C 1.3687(5) 0.5100(6) -0.1852(4)
H68A H 1.3675 0.5096 -0.2237
C68A C 1.3032(5) 0.5077(6) -0.1629(4)
C116A C 1.2346(7) 0.5070(10) -0.2023(7)
H110A H 1.1846 0.4540 -0.2072
H111A H 1.2243 0.5509 -0.1870
H112A H 1.2503 0.5156 -0.2382
C69A C 1.5100(5) 0.5212(5) -0.1769(4)
C70A C 1.5686(6) 0.5018(5) -0.1402(5)
H69A H 1.6193 0.5187 -0.1551
H70A H 1.5841 0.5348 -0.1024
C71A C 1.5315(7) 0.4103(6) -0.1364(5)
H71A H 1.5743 0.4013 -0.1160
H72A H 1.4868 0.3955 -0.1154
C72A C 1.4970(8) 0.3540(6) -0.1948(6)
H73A H 1.4674 0.2960 -0.1909
H74A H 1.5431 0.3615 -0.2132
C73A C 1.4409(8) 0.3727(6) -0.2294(5)
H75A H 1.4231 0.3383 -0.2669
H76A H 1.3915 0.3582 -0.2133
C74A C 1.4800(7) 0.4633(5) -0.2345(4)
C75A C 1.5565(6) 0.6124(5) -0.1823(4)
C76A C 1.5944(8) 0.6755(5) -0.1368(4)
H79A H 1.5963 0.6618 -0.1011
C77A C 1.6296(8) 0.7568(5) -0.1398(4)
C78A C 1.6295(6) 0.7760(5) -0.1918(4)
C79A C 1.5995(10) 0.7177(6) -0.2380(4)
C80A C 1.5620(9) 0.6354(6) -0.2330(4)
H80A H 1.5396 0.5941 -0.2656
C118A C 1.6034(19) 0.7360(9) -0.2953(5)
H116A H 1.6582 0.7808 -0.2954
H117A H 1.5924 0.6871 -0.3212
H118A H 1.5622 0.7523 -0.3067
N7A N 1.6615(4) 0.8625(4) -0.1966(4)
H81A H 1.6294 0.8841 -0.1928
C81A C 1.7348(5) 0.9095(5) -0.2061(4)
O6A O 1.7910(4) 0.8935(4) -0.2005(4)
C82A C 1.7472(4) 0.9872(4) -0.2247(3)
C83A C 1.8199(4) 1.0368(5) -0.2412(4)
H82A H 1.8634 1.0242 -0.2386
C84A C 1.8270(5) 1.1045(5) -0.2613(4)
H83A H 1.8759 1.1397 -0.2728
C85A C 1.7630(5) 1.1206(5) -0.2646(4)
H84A H 1.7667 1.1670 -0.2785
C86A C 1.6923(4) 1.0682(4) -0.2473(3)
N8A N 1.6836(3) 1.0023(3) -0.2275(3)
C87A C 1.6202(4) 1.0835(4) -0.2522(4)
O7A O 1.6221(4) 1.1407(3) -0.2726(3)
N9A N 1.5559(3) 1.0310(4) -0.2333(3)
H85A H 1.5617 0.9954 -0.2156
C88A C 1.4779(4) 1.0290(4) -0.2401(3)
C89A C 1.4121(4) 0.9653(5) -0.2776(3)
C90A C 1.3361(4) 0.9626(4) -0.2827(3)
H86A H 1.2907 0.9195 -0.3087
C91A C 1.3242(4) 1.0208(4) -0.2511(3)
C92A C 1.3922(4) 1.0845(5) -0.2152(3)
H87A H 1.3862 1.1262 -0.1944
C93A C 1.4699(4) 1.0897(5) -0.2082(3)
C120A C 1.5406(5) 1.1577(6) -0.1656(4)
H122A H 1.5760 1.2007 -0.1840
H123A H 1.5192 1.1808 -0.1387
H124A H 1.5724 1.1359 -0.1463
C94A C 1.2382(4) 1.0105(4) -0.2546(3)
C95A C 1.1897(4) 0.9827(5) -0.3156(3)
H88A H 1.1322 0.9696 -0.3157
H89A H 1.1888 0.9321 -0.3326
C96A C 1.2270(6) 1.0481(5) -0.3505(3)
H90A H 1.1944 1.0271 -0.3889
H91A H 1.2836 1.0594 -0.3520
C97A C 1.2289(6) 1.1260(6) -0.3274(3)
H92A H 1.2560 1.1679 -0.3496
H93A H 1.1721 1.1163 -0.3292
C98A C 1.2760(5) 1.1570(5) -0.2668(3)
H94A H 1.2741 1.2066 -0.2510
H95A H 1.3342 1.1724 -0.2657
C99A C 1.2396(5) 1.0920(4) -0.2318(3)
C100A C 1.1971(4) 0.9475(4) -0.2186(3)
C101A C 1.2181(5) 0.9691(5) -0.1608(3)
H98A H 1.2573 1.0242 -0.1444
C102A C 1.1849(6) 0.9149(5) -0.1265(3)
C103A C 1.1269(5) 0.8338(5) -0.1503(4)
C104A C 1.1045(5) 0.8086(4) -0.2075(4)
C105A C 1.1399(5) 0.8659(4) -0.2410(4)
H99A H 1.1243 0.8487 -0.2801
C122A C 1.0438(7) 0.7198(5) -0.2332(6)
H128A H 1.0606 0.6842 -0.2160
H129A H 0.9890 0.7072 -0.2273
H130A H 1.0427 0.7105 -0.2731
N10A N 1.0857(5) 0.7764(5) -0.1162(4)
H100A H 1.0318 0.7534 -0.1238
C106A C 1.1165(7) 0.7525(8) -0.0747(5)
O8A O 1.1901(6) 0.7743(6) -0.0630(4)
C107A C 1.0561(8) 0.6980(8) -0.0415(5)
H101A H 1.0014 0.6892 -0.0478
C108A C 1.0782(8) 0.6632(8) -0.0043(5)
H102A H 1.1337 0.6749 0.0006
C109A C 1.0295(7) 0.6099(7) 0.0296(4)
C110A C 1.0587(8) 0.5681(8) 0.0606(5)
H103A H 1.1112 0.5738 0.0592
C111A C 1.0092(7) 0.5167(7) 0.0946(5)
H104A H 1.0276 0.4861 0.1144
C112A C 0.9348(8) 0.5119(8) 0.0983(6)
H105A H 0.9029 0.4785 0.1215
C114A C 0.9526(7) 0.6051(7) 0.0370(5)
H106A H 0.9345 0.6376 0.0192
C121A C 1.2116(9) 0.9427(7) -0.0642(4)
H125A H 1.2540 0.9290 -0.0508
H126A H 1.2338 1.0021 -0.0546
H127A H 1.1643 0.9150 -0.0469
H96A H 1.2721 1.1138 -0.1935
H97A H 1.1828 1.0802 -0.2306
C119A C 1.4204(6) 0.8996(6) -0.3119(4)
H119A H 1.4578 0.8863 -0.2896
H120A H 1.3664 0.8504 -0.3241
H121A H 1.4423 0.9190 -0.3443
C117A C 1.6688(14) 0.8244(7) -0.0882(5)
H113A H 1.7185 0.8259 -0.0692
H114A H 1.6831 0.8772 -0.0989
H115A H 1.6299 0.8135 -0.0633
H77A H 1.5270 0.4770 -0.2531
H78A H 1.4392 0.4721 -0.2578
C115A C 1.3709(9) 0.5101(10) -0.0123(5)
H107A H 1.3545 0.5496 0.0023
H108A H 1.3330 0.4557 -0.0061
H109A H 1.4268 0.5269 0.0068
C123 C 0.7648(6) 0.2678(6) 0.4314(3)
H131 H 0.7248 0.2154 0.4410
Cl1 Cl 0.8163(2) 0.2466(2) 0.38314(16)
Cl2 Cl 0.8350(3) 0.3326(3) 0.49131(14)
Cl3 Cl 0.7115(2) 0.3161(3) 0.40407(17)
C124 C 0.4329(6) 0.1297(6) 0.4249(4)
H132 H 0.3898 0.1161 0.4478
Cl4 Cl 0.5022(3) 0.1004(3) 0.45238(18)
Cl5 Cl 0.4837(4) 0.2361(3) 0.4277(3)
Cl6 Cl 0.3858(3) 0.0802(3) 0.35718(16)
C125 C 0.2464(7) 0.5781(6) 0.2093(4)
H133 H 0.2862 0.5655 0.2308
Cl7 Cl 0.2770(4) 0.6804(3) 0.2324(2)
Cl8 Cl 0.2467(3) 0.5550(3) 0.1394(2)
Cl9 Cl 0.1498(3) 0.5152(3) 0.2222(2)
C126 C 0.7570(6) 0.1268(6) -0.0706(5)
H134 H 0.7676 0.1532 -0.0310
Cl10 Cl 0.7522(3) 0.1939(3) -0.11188(17)
Cl11 Cl 0.8368(4) 0.1072(4) -0.0793(2)
Cl12 Cl 0.6631(4) 0.0351(4) -0.0844(2)
C127 C 0.1929(9) 0.0728(8) 0.3867(5)
O9 O 0.2168(7) 0.0550(6) 0.4285(3)
C128 C 0.2289(9) 0.1430(9) 0.3636(6)
H135 H 0.1918 0.1367 0.3298
H136 H 0.2809 0.1504 0.3546
H137 H 0.2393 0.1910 0.3902
O10 O 0.1218(7) 0.0197(7) 0.3544(4)
C129 C 0.0850(12) -0.0603(11) 0.3704(9)
H138 H 0.0887 -0.1005 0.3432
H139 H 0.1151 -0.0566 0.4072
C130 C 0.0022(12) -0.0861(15) 0.3722(10)
H140 H -0.0229 -0.1406 0.3817
H141 H -0.0270 -0.0884 0.3360
H142 H -0.0010 -0.0473 0.4003
C131 C 0.3942(10) 0.5657(9) 0.3544(6)
O11 O 0.3690(8) 0.5731(7) 0.3087(5)
C132 C 0.4245(8) 0.5127(9) 0.3661(5)
H143 H 0.4417 0.5208 0.4063
H144 H 0.4716 0.5244 0.3485
H145 H 0.3814 0.4559 0.3518
O12 O 0.3857(7) 0.6056(6) 0.3976(5)
C133 C 0.3410(10) 0.6506(10) 0.3902(7)
H146 H 0.3617 0.6857 0.3627
H147 H 0.2820 0.6115 0.3757
C134 C 0.3508(12) 0.7002(11) 0.4414(8)
H148 H 0.3211 0.7306 0.4354
H149 H 0.4092 0.7389 0.4556
H150 H 0.3288 0.6653 0.4682
C135 C 0.3022(14) 0.2554(17) -0.0591(8)
H151 H 0.2959 0.1997 -0.0624
H152 H 0.2582 0.2561 -0.0415
Cl13 Cl 0.2950(7) 0.2797(7) -0.1241(4)
Cl14 Cl 0.3981(10) 0.3271(11) -0.0187(6)
C136 C 0.3313(9) 0.4499(10) 0.6130(6)
H153 H 0.3561 0.4134 0.6158
Cl15 Cl 0.2256(6) 0.3918(6) 0.5899(4)
Cl16 Cl 0.3777(7) 0.5193(7) 0.5704(5)
Cl17 Cl 0.3505(12) 0.5103(12) 0.6786(6)
O13 O 0.7277(12) 0.3180(12) 0.0573(8)
H154 H 0.7093 0.2676 0.0466
C137 C 0.7604(18) 0.3397(17) 0.1145(10)
H155 H 0.7159 0.3267 0.1349
H156 H 0.7995 0.3986 0.1244
H157 H 0.7887 0.3090 0.1239
O14 O 0.5008(8) 0.1390(8) 0.1906(5)
O15 O 0.6032(12) 0.1589(12) -0.0074(8)
O16 O 0.3715(14) 0.1926(14) -0.0755(9)
loop_
_geom_bond_atom_site_label_1
_geom_bond_atom_site_label_2
_geom_bond_site_symmetry_1
_geom_bond_site_symmetry_2
C1 O1 1_555 1_555
N1 C1 1_555 1_555
H1 N1 1_555 1_555
C2 N1 1_555 1_555
C3 C2 1_555 1_555
C4 C3 1_555 1_555
H2 C4 1_555 1_555
C5 C4 1_555 1_555
C6 C5 1_555 1_555
H3 C6 1_555 1_555
C7 C2 1_555 1_555
C8 C5 1_555 1_555
C9 C8 1_555 1_555
H4 C9 1_555 1_555
H5 C9 1_555 1_555
C10 C9 1_555 1_555
H6 C10 1_555 1_555
H7 C10 1_555 1_555
C11 C10 1_555 1_555
H8 C11 1_555 1_555
H9 C11 1_555 1_555
C12 C11 1_555 1_555
H10 C12 1_555 1_555
H11 C12 1_555 1_555
C13 C8 1_555 1_555
H12 C13 1_555 1_555
H13 C13 1_555 1_555
C14 C8 1_555 1_555
C15 C14 1_555 1_555
H14 C15 1_555 1_555
C16 C15 1_555 1_555
C17 C16 1_555 1_555
C18 C17 1_555 1_555
C19 C14 1_555 1_555
H15 C19 1_555 1_555
N2 C17 1_555 1_555
H16 N2 1_555 1_555
C20 N2 1_555 1_555
O2 C20 1_555 1_555
C21 C20 1_555 1_555
C22 C21 1_555 1_555
H17 C22 1_555 1_555
C23 C22 1_555 1_555
H18 C23 1_555 1_555
C24 C23 1_555 1_555
H19 C24 1_555 1_555
C25 C24 1_555 1_555
N3 C21 1_555 1_555
C26 C25 1_555 1_555
O3 C26 1_555 1_555
N4 C26 1_555 1_555
H20 N4 1_555 1_555
C27 N4 1_555 1_555
C28 C27 1_555 1_555
C29 C28 1_555 1_555
H21 C29 1_555 1_555
C30 C29 1_555 1_555
C31 C30 1_555 1_555
H22 C31 1_555 1_555
C32 C27 1_555 1_555
C33 C30 1_555 1_555
C34 C33 1_555 1_555
H23 C34 1_555 1_555
H24 C34 1_555 1_555
C35 C34 1_555 1_555
H25 C35 1_555 1_555
H26 C35 1_555 1_555
C36 C35 1_555 1_555
H27 C36 1_555 1_555
H28 C36 1_555 1_555
C37 C36 1_555 1_555
H29 C37 1_555 1_555
H30 C37 1_555 1_555
C38 C33 1_555 1_555
H31 C38 1_555 1_555
H32 C38 1_555 1_555
C39 C33 1_555 1_555
C40 C39 1_555 1_555
H33 C40 1_555 1_555
C41 C40 1_555 1_555
C42 C41 1_555 1_555
C43 C42 1_555 1_555
C44 C39 1_555 1_555
H34 C44 1_555 1_555
N5 C42 1_555 1_555
H35 N5 1_555 1_555
C45 N5 1_555 1_555
O4 C45 1_555 1_555
C46 C45 1_555 1_555
H36 C46 1_555 1_555
C47 C46 1_555 1_555
H37 C47 1_555 1_555
C48 C47 1_555 1_555
C49 C48 1_555 1_555
H38 C49 1_555 1_555
C50 C49 1_555 1_555
H39 C50 1_555 1_555
C51 C50 1_555 1_555
H40 C51 1_555 1_555
C52 C1 1_555 1_555
C53 C48 1_555 1_555
H41 C53 1_555 1_555
C54 C3 1_555 1_555
H42 C54 1_555 1_555
H43 C54 1_555 1_555
H44 C54 1_555 1_555
C55 C7 1_555 1_555
H45 C55 1_555 1_555
H46 C55 1_555 1_555
H47 C55 1_555 1_555
C56 C16 1_555 1_555
H48 C56 1_555 1_555
H49 C56 1_555 1_555
H50 C56 1_555 1_555
C57 C18 1_555 1_555
H51 C57 1_555 1_555
H52 C57 1_555 1_555
H53 C57 1_555 1_555
C58 C28 1_555 1_555
H54 C58 1_555 1_555
H55 C58 1_555 1_555
H56 C58 1_555 1_555
C59 C32 1_555 1_555
H57 C59 1_555 1_555
H58 C59 1_555 1_555
H59 C59 1_555 1_555
C60 C41 1_555 1_555
H60 C60 1_555 1_555
H61 C60 1_555 1_555
H62 C60 1_555 1_555
C61 C43 1_555 1_555
H63 C61 1_555 1_555
H64 C61 1_555 1_555
H65 C61 1_555 1_555
C62 O5 1_555 1_555
N6 C62 1_555 1_555
H66 N6 1_555 1_555
C63 N6 1_555 1_555
C64 C63 1_555 1_555
C65 C64 1_555 1_555
H67 C65 1_555 1_555
C66 C65 1_555 1_555
C67 C66 1_555 1_555
H68 C67 1_555 1_555
C68 C63 1_555 1_555
C69 C66 1_555 1_555
C70 C69 1_555 1_555
H69 C70 1_555 1_555
H70 C70 1_555 1_555
C71 C70 1_555 1_555
H71 C71 1_555 1_555
H72 C71 1_555 1_555
C72 C71 1_555 1_555
H73 C72 1_555 1_555
H74 C72 1_555 1_555
C73 C72 1_555 1_555
H75 C73 1_555 1_555
H76 C73 1_555 1_555
C74 C69 1_555 1_555
H77 C74 1_555 1_555
H78 C74 1_555 1_555
C75 C69 1_555 1_555
C76 C75 1_555 1_555
H79 C76 1_555 1_555
C77 C76 1_555 1_555
C78 C77 1_555 1_555
C79 C78 1_555 1_555
C80 C75 1_555 1_555
H80 C80 1_555 1_555
N7 C78 1_555 1_555
H81 N7 1_555 1_555
C81 N7 1_555 1_555
O6 C81 1_555 1_555
C82 C81 1_555 1_555
C83 C82 1_555 1_555
H82 C83 1_555 1_555
C84 C83 1_555 1_555
H83 C84 1_555 1_555
C85 C84 1_555 1_555
H84 C85 1_555 1_555
C86 C85 1_555 1_555
N8 C82 1_555 1_555
C87 C86 1_555 1_555
O7 C87 1_555 1_555
N9 C87 1_555 1_555
H85 N9 1_555 1_555
C88 N9 1_555 1_555
C89 C88 1_555 1_555
C90 C89 1_555 1_555
H86 C90 1_555 1_555
C91 C90 1_555 1_555
C92 C91 1_555 1_555
H87 C92 1_555 1_555
C93 C88 1_555 1_555
C94 C91 1_555 1_555
C95 C94 1_555 1_555
H88 C95 1_555 1_555
H89 C95 1_555 1_555
C96 C95 1_555 1_555
H90 C96 1_555 1_555
H91 C96 1_555 1_555
C97 C96 1_555 1_555
H92 C97 1_555 1_555
H93 C97 1_555 1_555
C98 C97 1_555 1_555
H94 C98 1_555 1_555
H95 C98 1_555 1_555
C99 C94 1_555 1_555
H96 C99 1_555 1_555
H97 C99 1_555 1_555
C100 C94 1_555 1_555
C101 C100 1_555 1_555
H98 C101 1_555 1_555
C102 C101 1_555 1_555
C103 C102 1_555 1_555
C104 C103 1_555 1_555
C105 C100 1_555 1_555
H99 C105 1_555 1_555
N10 C103 1_555 1_555
H100 N10 1_555 1_555
C106 N10 1_555 1_555
O8 C106 1_555 1_555
C107 C106 1_555 1_555
H101 C107 1_555 1_555
C108 C107 1_555 1_555
H102 C108 1_555 1_555
C109 C108 1_555 1_555
C110 C109 1_555 1_555
H103 C110 1_555 1_555
C111 C110 1_555 1_555
H104 C111 1_555 1_555
C112 C111 1_555 1_555
H105 C112 1_555 1_555
C113 C62 1_555 1_555
C114 C109 1_555 1_555
H106 C114 1_555 1_555
C115 C64 1_555 1_555
H107 C115 1_555 1_555
H108 C115 1_555 1_555
H109 C115 1_555 1_555
C116 C68 1_555 1_555
H110 C116 1_555 1_555
H111 C116 1_555 1_555
H112 C116 1_555 1_555
C117 C77 1_555 1_555
H113 C117 1_555 1_555
H114 C117 1_555 1_555
H115 C117 1_555 1_555
C118 C79 1_555 1_555
H116 C118 1_555 1_555
H117 C118 1_555 1_555
H118 C118 1_555 1_555
C119 C89 1_555 1_555
H119 C119 1_555 1_555
H120 C119 1_555 1_555
H121 C119 1_555 1_555
C120 C93 1_555 1_555
H122 C120 1_555 1_555
H123 C120 1_555 1_555
H124 C120 1_555 1_555
C121 C102 1_555 1_555
H125 C121 1_555 1_555
H126 C121 1_555 1_555
H127 C121 1_555 1_555
C122 C104 1_555 1_555
H128 C122 1_555 1_555
H129 C122 1_555 1_555
H130 C122 1_555 1_555
C123 H131 1_555 1_555
Cl1 C123 1_555 1_555
Cl2 C123 1_555 1_555
Cl3 C123 1_555 1_555
C124 H132 1_555 1_555
Cl4 C124 1_555 1_555
Cl5 C124 1_555 1_555
Cl6 C124 1_555 1_555
C125 H133 1_555 1_555
Cl7 C125 1_555 1_555
Cl8 C125 1_555 1_555
Cl9 C125 1_555 1_555
C126 H134 1_555 1_555
Cl10 C126 1_555 1_555
Cl11 C126 1_555 1_555
Cl12 C126 1_555 1_555
C127 O9 1_555 1_555
C128 C127 1_555 1_555
H135 C128 1_555 1_555
H136 C128 1_555 1_555
H137 C128 1_555 1_555
O10 C127 1_555 1_555
C129 O10 1_555 1_555
H138 C129 1_555 1_555
H139 C129 1_555 1_555
C130 C129 1_555 1_555
H140 C130 1_555 1_555
H141 C130 1_555 1_555
H142 C130 1_555 1_555
C131 O11 1_555 1_555
C132 C131 1_555 1_555
H143 C132 1_555 1_555
H144 C132 1_555 1_555
H145 C132 1_555 1_555
O12 C131 1_555 1_555
C133 O12 1_555 1_555
H146 C133 1_555 1_555
H147 C133 1_555 1_555
C134 C133 1_555 1_555
H148 C134 1_555 1_555
H149 C134 1_555 1_555
H150 C134 1_555 1_555
C135 H151 1_555 1_555
H152 C135 1_555 1_555
Cl13 C135 1_555 1_555
Cl14 C135 1_555 1_555
C136 H153 1_555 1_555
Cl15 C136 1_555 1_555
Cl16 C136 1_555 1_555
Cl17 C136 1_555 1_555
O13 H154 1_555 1_555
C137 O13 1_555 1_555
H155 C137 1_555 1_555
H156 C137 1_555 1_555
H157 C137 1_555 1_555
C52A C51 1_555 1_555
C1A C52A 1_555 1_555
O1A C1A 1_555 1_555
N1A C1A 1_555 1_555
H1A N1A 1_555 1_555
C2A N1A 1_555 1_555
C3A C2A 1_555 1_555
C4A C3A 1_555 1_555
H2A C4A 1_555 1_555
C5A C4A 1_555 1_555
C6A C5A 1_555 1_555
H3A C6A 1_555 1_555
C7A C2A 1_555 1_555
C55A C7A 1_555 1_555
H45A C55A 1_555 1_555
H46A C55A 1_555 1_555
H47A C55A 1_555 1_555
C8A C5A 1_555 1_555
C9A C8A 1_555 1_555
H4A C9A 1_555 1_555
H5A C9A 1_555 1_555
C10A C9A 1_555 1_555
H6A C10A 1_555 1_555
H7A C10A 1_555 1_555
C11A C10A 1_555 1_555
H8A C11A 1_555 1_555
H9A C11A 1_555 1_555
C12A C11A 1_555 1_555
H10A C12A 1_555 1_555
H11A C12A 1_555 1_555
C13A C8A 1_555 1_555
C14A C8A 1_555 1_555
C15A C14A 1_555 1_555
H14A C15A 1_555 1_555
C16A C15A 1_555 1_555
C17A C16A 1_555 1_555
C18A C17A 1_555 1_555
C19A C14A 1_555 1_555
H15A C19A 1_555 1_555
C57A C18A 1_555 1_555
H51A C57A 1_555 1_555
H52A C57A 1_555 1_555
H53A C57A 1_555 1_555
N2A C17A 1_555 1_555
H16A N2A 1_555 1_555
C20A N2A 1_555 1_555
O2A C20A 1_555 1_555
C21A C20A 1_555 1_555
C22A C21A 1_555 1_555
H17A C22A 1_555 1_555
C23A C22A 1_555 1_555
H18A C23A 1_555 1_555
C24A C23A 1_555 1_555
H19A C24A 1_555 1_555
C25A C24A 1_555 1_555
N3A C21A 1_555 1_555
C26A C25A 1_555 1_555
O3A C26A 1_555 1_555
N4A C26A 1_555 1_555
H20A N4A 1_555 1_555
C27A N4A 1_555 1_555
C28A C27A 1_555 1_555
C29A C28A 1_555 1_555
H21A C29A 1_555 1_555
C30A C29A 1_555 1_555
C31A C30A 1_555 1_555
H22A C31A 1_555 1_555
C32A C27A 1_555 1_555
C59A C32A 1_555 1_555
H57A C59A 1_555 1_555
H58A C59A 1_555 1_555
H59A C59A 1_555 1_555
C33A C30A 1_555 1_555
C34A C33A 1_555 1_555
H23A C34A 1_555 1_555
H24A C34A 1_555 1_555
C35A C34A 1_555 1_555
H25A C35A 1_555 1_555
H26A C35A 1_555 1_555
C36A C35A 1_555 1_555
H27A C36A 1_555 1_555
H28A C36A 1_555 1_555
C37A C36A 1_555 1_555
H29A C37A 1_555 1_555
H30A C37A 1_555 1_555
C38A C33A 1_555 1_555
C39A C33A 1_555 1_555
C40A C39A 1_555 1_555
H33A C40A 1_555 1_555
C41A C40A 1_555 1_555
C42A C41A 1_555 1_555
C43A C42A 1_555 1_555
C44A C39A 1_555 1_555
H34A C44A 1_555 1_555
C61A C43A 1_555 1_555
H63A C61A 1_555 1_555
H64A C61A 1_555 1_555
H65A C61A 1_555 1_555
N5A C42A 1_555 1_555
H35A N5A 1_555 1_555
C45A N5A 1_555 1_555
O4A C45A 1_555 1_555
C46A C45A 1_555 1_555
H36A C46A 1_555 1_555
C47A C46A 1_555 1_555
H37A C47A 1_555 1_555
C48A C47A 1_555 1_555
C49A C48A 1_555 1_555
H38A C49A 1_555 1_555
C50A C49A 1_555 1_555
H39A C50A 1_555 1_555
C51A C52 1_555 1_555
H40A C51A 1_555 1_555
C53A C52 1_555 1_555
H41A C53A 1_555 1_555
C60A C41A 1_555 1_555
H60A C60A 1_555 1_555
H61A C60A 1_555 1_555
H62A C60A 1_555 1_555
H31A C38A 1_555 1_555
H32A C38A 1_555 1_555
C58A C28A 1_555 1_555
H54A C58A 1_555 1_555
H55A C58A 1_555 1_555
H56A C58A 1_555 1_555
C56A C16A 1_555 1_555
H48A C56A 1_555 1_555
H49A C56A 1_555 1_555
H50A C56A 1_555 1_555
H12A C13A 1_555 1_555
H13A C13A 1_555 1_555
C54A C3A 1_555 1_555
H42A C54A 1_555 1_555
H43A C54A 1_555 1_555
H44A C54A 1_555 1_555
C113A C112 1_555 1_555
C62A C113A 1_555 1_555
O5A C62A 1_555 1_555
N6A C62A 1_555 1_555
H66A N6A 1_555 1_555
C63A N6A 1_555 1_555
C64A C63A 1_555 1_555
C65A C64A 1_555 1_555
H67A C65A 1_555 1_555
C66A C65A 1_555 1_555
C67A C66A 1_555 1_555
H68A C67A 1_555 1_555
C68A C63A 1_555 1_555
C116A C68A 1_555 1_555
H110A C116A 1_555 1_555
H111A C116A 1_555 1_555
H112A C116A 1_555 1_555
C69A C66A 1_555 1_555
C70A C69A 1_555 1_555
H69A C70A 1_555 1_555
H70A C70A 1_555 1_555
C71A C70A 1_555 1_555
H71A C71A 1_555 1_555
H72A C71A 1_555 1_555
C72A C71A 1_555 1_555
H73A C72A 1_555 1_555
H74A C72A 1_555 1_555
C73A C72A 1_555 1_555
H75A C73A 1_555 1_555
H76A C73A 1_555 1_555
C74A C69A 1_555 1_555
C75A C69A 1_555 1_555
C76A C75A 1_555 1_555
H79A C76A 1_555 1_555
C77A C76A 1_555 1_555
C78A C77A 1_555 1_555
C79A C78A 1_555 1_555
C80A C75A 1_555 1_555
H80A C80A 1_555 1_555
C118A C79A 1_555 1_555
H116A C118A 1_555 1_555
H117A C118A 1_555 1_555
H118A C118A 1_555 1_555
N7A C78A 1_555 1_555
H81A N7A 1_555 1_555
C81A N7A 1_555 1_555
O6A C81A 1_555 1_555
C82A C81A 1_555 1_555
C83A C82A 1_555 1_555
H82A C83A 1_555 1_555
C84A C83A 1_555 1_555
H83A C84A 1_555 1_555
C85A C84A 1_555 1_555
H84A C85A 1_555 1_555
C86A C85A 1_555 1_555
N8A C82A 1_555 1_555
C87A C86A 1_555 1_555
O7A C87A 1_555 1_555
N9A C87A 1_555 1_555
H85A N9A 1_555 1_555
C88A N9A 1_555 1_555
C89A C88A 1_555 1_555
C90A C89A 1_555 1_555
H86A C90A 1_555 1_555
C91A C90A 1_555 1_555
C92A C91A 1_555 1_555
H87A C92A 1_555 1_555
C93A C88A 1_555 1_555
C120A C93A 1_555 1_555
H122A C120A 1_555 1_555
H123A C120A 1_555 1_555
H124A C120A 1_555 1_555
C94A C91A 1_555 1_555
C95A C94A 1_555 1_555
H88A C95A 1_555 1_555
H89A C95A 1_555 1_555
C96A C95A 1_555 1_555
H90A C96A 1_555 1_555
H91A C96A 1_555 1_555
C97A C96A 1_555 1_555
H92A C97A 1_555 1_555
H93A C97A 1_555 1_555
C98A C97A 1_555 1_555
H94A C98A 1_555 1_555
H95A C98A 1_555 1_555
C99A C94A 1_555 1_555
C100A C94A 1_555 1_555
C101A C100A 1_555 1_555
H98A C101A 1_555 1_555
C102A C101A 1_555 1_555
C103A C102A 1_555 1_555
C104A C103A 1_555 1_555
C105A C100A 1_555 1_555
H99A C105A 1_555 1_555
C122A C104A 1_555 1_555
H128A C122A 1_555 1_555
H129A C122A 1_555 1_555
H130A C122A 1_555 1_555
N10A C103A 1_555 1_555
H100A N10A 1_555 1_555
C106A N10A 1_555 1_555
O8A C106A 1_555 1_555
C107A C106A 1_555 1_555
H101A C107A 1_555 1_555
C108A C107A 1_555 1_555
H102A C108A 1_555 1_555
C109A C108A 1_555 1_555
C110A C109A 1_555 1_555
H103A C110A 1_555 1_555
C111A C110A 1_555 1_555
H104A C111A 1_555 1_555
C112A C113 1_555 1_555
H105A C112A 1_555 1_555
C114A C113 1_555 1_555
H106A C114A 1_555 1_555
C121A C102A 1_555 1_555
H125A C121A 1_555 1_555
H126A C121A 1_555 1_555
H127A C121A 1_555 1_555
H96A C99A 1_555 1_555
H97A C99A 1_555 1_555
C119A C89A 1_555 1_555
H119A C119A 1_555 1_555
H120A C119A 1_555 1_555
H121A C119A 1_555 1_555
C117A C77A 1_555 1_555
H113A C117A 1_555 1_555
H114A C117A 1_555 1_555
H115A C117A 1_555 1_555
H77A C74A 1_555 1_555
H78A C74A 1_555 1_555
C115A C64A 1_555 1_555
H107A C115A 1_555 1_555
H108A C115A 1_555 1_555
H109A C115A 1_555 1_555
C6 C7 1_555 1_555
C12 C13 1_555 1_555
C18 C19 1_555 1_555
C25 N3 1_555 1_555
C31 C32 1_555 1_555
C37 C38 1_555 1_555
C43 C44 1_555 1_555
C53 C52A 1_555 1_555
C67 C68 1_555 1_555
C73 C74 1_555 1_555
C79 C80 1_555 1_555
C86 N8 1_555 1_555
C92 C93 1_555 1_555
C98 C99 1_555 1_555
C104 C105 1_555 1_555
C114 C113A 1_555 1_555
C6A C7A 1_555 1_555
C12A C13A 1_555 1_555
C18A C19A 1_555 1_555
C25A N3A 1_555 1_555
C31A C32A 1_555 1_555
C37A C38A 1_555 1_555
C43A C44A 1_555 1_555
C48A C53A 1_555 1_555
C50A C51A 1_555 1_555
C67A C68A 1_555 1_555
C73A C74A 1_555 1_555
C79A C80A 1_555 1_555
C86A N8A 1_555 1_555
C92A C93A 1_555 1_555
C98A C99A 1_555 1_555
C104A C105A 1_555 1_555
C109A C114A 1_555 1_555
C111A C112A 1_555 1_555

#END
