
#######################################################################
#
#                 Cambridge Crystallographic Data Centre
#                                CCDC 
#
#######################################################################
#
# If this CIF has been generated from an entry in the Cambridge 
# Structural Database, then it will include bibliographic, chemical, 
# crystal, experimental, refinement or atomic coordinate data resulting 
# from the CCDC's data processing and validation procedures.
#
#######################################################################

data_TIGJIC
_chemical_formula_moiety         
'C122 H130 N10 O8,2(C1 H1 Cl3),2.5(C1 H2 Cl2),0.5(C2 H4 O2),C2 H6 O1,0.5(C1 H4 O1),C3 H6 O2,3(H2 O1)'
_chemical_name_systematic        
'3,17,23,35,41,55,61,73,78,80,83,85,88,90,93,95-Hexadecamethyl-20,20:38,38:58,58:76,76-tetrakis(pentamethylene)-5,15,25,33,43,53,63,71,84,94-decaazatridecacyclo[70.2.2.2^16,19^.2^21,24^.2^34,37^.2^39,42^.2^54,57^.2^59,62^.2^72,75^.1^7,11^.1^27,31^.1^45,49^.1^65,69^]hexanonaconta-1,3,7,9,11(79),12,16,18,21,23,27,29,31(84),34,36,39,41,45,47,49(89),50,54,56,59,61,65,67,69(94),72,74,77,80,82,85,87,90,92,95-octatriacontaen-6,14,26,32,44,52,64,70-octaone chloroform dichloromethane acetic acid propanoic acid ethanol methanol solvate trihydrate'
_symmetry_cell_setting           triclinic
_symmetry_space_group_name_H-M   'P -1'
_symmetry_Int_Tables_number      2
_space_group_name_Hall           '-P 1'
loop_
_symmetry_equiv_pos_site_id
_symmetry_equiv_pos_as_xyz
1 x,y,z
2 -x,-y,-z
_cell_length_a                   18.5740(7)
_cell_length_b                   19.0969(7)
_cell_length_c                   24.5382(9)
_cell_angle_alpha                97.962(3)
_cell_angle_beta                 97.430(3)
_cell_angle_gamma                118.277(3)
_cell_volume                     7399.26
_exptl_crystal_colour            colorless
_exptl_crystal_description       plate
_cell_formula_units_Z            2
loop_
_atom_site_label
_atom_site_type_symbol
_atom_site_fract_x
_atom_site_fract_y
_atom_site_fract_z
C1 C 0.1206(8) 0.2171(8) 0.3797(7)
O1 O 0.1901(7) 0.2319(7) 0.3725(6)
N1 N 0.0865(5) 0.2681(6) 0.3716(5)
H1 H 0.0422 0.2617 0.3846
C2 C 0.1262(5) 0.3310(5) 0.3415(4)
C3 C 0.1057(5) 0.3080(5) 0.2827(4)
C4 C 0.1413(5) 0.3680(5) 0.2529(4)
H2 H 0.1271 0.3531 0.2128
C5 C 0.1969(4) 0.4488(4) 0.2797(3)
C6 C 0.2176(6) 0.4702(5) 0.3392(4)
H3 H 0.2565 0.5254 0.3580
C7 C 0.1832(7) 0.4135(6) 0.3707(4)
C8 C 0.2403(4) 0.5153(4) 0.2468(3)
C9 C 0.2424(5) 0.5939(5) 0.2720(3)
H4 H 0.1844 0.5811 0.2731
H5 H 0.2755 0.6147 0.3114
C10 C 0.2791(5) 0.6609(5) 0.2403(4)
H6 H 0.3390 0.6784 0.2425
H7 H 0.2758 0.7087 0.2584
C11 C 0.2327(6) 0.6324(5) 0.1781(4)
H8 H 0.1749 0.6227 0.1754
H9 H 0.2618 0.6754 0.1577
C12 C 0.2296(6) 0.5542(5) 0.1511(4)
H10 H 0.2871 0.5659 0.1493
H11 H 0.1954 0.5337 0.1120
C13 C 0.1919(5) 0.4882(5) 0.1847(3)
H12 H 0.1916 0.4386 0.1662
H13 H 0.1330 0.4737 0.1838
C14 C 0.3287(4) 0.5256(4) 0.2507(3)
C15 C 0.3992(5) 0.5898(5) 0.2885(4)
H14 H 0.3935 0.6308 0.3109
C16 C 0.4785(5) 0.5965(5) 0.2949(4)
C17 C 0.4849(5) 0.5344(5) 0.2619(3)
C18 C 0.4164(5) 0.4702(5) 0.2229(3)
C19 C 0.3384(5) 0.4660(5) 0.2183(4)
H15 H 0.2909 0.4214 0.1924
N2 N 0.5634(4) 0.5362(5) 0.2689(3)
H16 H 0.5690 0.5017 0.2869
C20 C 0.6299(5) 0.5877(5) 0.2497(4)
O2 O 0.6329(4) 0.6450(4) 0.2310(3)
C21 C 0.7007(5) 0.5710(5) 0.2535(4)
C22 C 0.7748(5) 0.6229(6) 0.2371(5)
H17 H 0.7800 0.6690 0.2236
C23 C 0.8382(6) 0.6064(6) 0.2410(6)
H18 H 0.8887 0.6411 0.2307
C24 C 0.8283(5) 0.5379(5) 0.2601(5)
H19 H 0.8720 0.5252 0.2635
C25 C 0.7528(5) 0.4885(5) 0.2743(4)
N3 N 0.6899(4) 0.5040(4) 0.2713(3)
C26 C 0.7375(5) 0.4099(5) 0.2902(4)
O3 O 0.7938(4) 0.3934(4) 0.2953(4)
N4 N 0.6607(4) 0.3619(4) 0.2968(3)
H20 H 0.6273 0.3826 0.2978
C27 C 0.6277(5) 0.2790(5) 0.3026(3)
C28 C 0.6304(7) 0.2626(5) 0.3559(4)
C29 C 0.5920(7) 0.1804(5) 0.3590(4)
H21 H 0.5940 0.1677 0.3951
C30 C 0.5512(5) 0.1166(5) 0.3110(3)
C31 C 0.5545(7) 0.1358(6) 0.2591(4)
H22 H 0.5299 0.0931 0.2260
C32 C 0.5932(8) 0.2171(6) 0.2541(4)
C33 C 0.5040(5) 0.0271(5) 0.3168(3)
C34 C 0.4680(6) -0.0346(5) 0.2587(4)
H23 H 0.4254 -0.0268 0.2359
H24 H 0.5136 -0.0231 0.2384
C35 C 0.4282(6) -0.1227(5) 0.2642(4)
H25 H 0.4051 -0.1597 0.2262
H26 H 0.3814 -0.1351 0.2836
C36 C 0.4941(6) -0.1373(6) 0.2982(4)
H27 H 0.4673 -0.1944 0.3026
H28 H 0.5391 -0.1284 0.2777
C37 C 0.5305(5) -0.0801(5) 0.3548(4)
H29 H 0.5751 -0.0876 0.3752
H30 H 0.4863 -0.0942 0.3767
C38 C 0.5679(5) 0.0104(5) 0.3521(4)
H31 H 0.6176 0.0269 0.3353
H32 H 0.5869 0.0445 0.3909
C39 C 0.4325(5) 0.0198(5) 0.3467(3)
C40 C 0.3628(5) 0.0181(5) 0.3170(4)
H33 H 0.3585 0.0183 0.2780
C41 C 0.2987(5) 0.0160(5) 0.3418(4)
C42 C 0.3061(5) 0.0168(5) 0.3998(4)
C43 C 0.3758(5) 0.0178(6) 0.4307(4)
C44 C 0.4369(5) 0.0195(6) 0.4035(3)
H34 H 0.4842 0.0205 0.4246
N5 N 0.2458(5) 0.0206(5) 0.4281(4)
H35 H 0.2434 0.0659 0.4330
C45 C 0.1918(7) -0.0420(6) 0.4481(6)
O4 O 0.1834(4) -0.1107(4) 0.4355(3)
C46 C 0.1443(8) -0.0232(7) 0.4877(5)
H36 H 0.1506 0.0298 0.4964
C47 C 0.0927(7) -0.0830(7) 0.5106(5)
H37 H 0.0902 -0.1343 0.5020
C48 C 0.0402(8) -0.0745(7) 0.5480(5)
C49 C 0.0420(9) -0.0030(8) 0.5655(6)
H38 H 0.0772 0.0438 0.5526
C50 C -0.0057(12) 0.0023(10) 0.6011(8)
H39 H -0.0028 0.0528 0.6147
C51 C -0.0633(11) -0.0734(10) 0.6186(8)
H40 H -0.0975 -0.0705 0.6435
C52 C 0.0679(9) 0.1464(9) 0.4002(7)
C53 C -0.0140(8) -0.1478(8) 0.5666(5)
H41 H -0.0120 -0.1964 0.5558
C54 C 0.0471(7) 0.2208(6) 0.2528(6)
H42 H -0.0054 0.2006 0.2658
H43 H 0.0730 0.1879 0.2609
H44 H 0.0355 0.2168 0.2120
C55 C 0.2059(11) 0.4389(9) 0.4366(5)
H45 H 0.2413 0.4177 0.4515
H46 H 0.1543 0.4163 0.4508
H47 H 0.2363 0.4986 0.4489
C56 C 0.5510(6) 0.6642(7) 0.3385(5)
H48 H 0.5856 0.6437 0.3557
H49 H 0.5302 0.6853 0.3676
H50 H 0.5847 0.7082 0.3207
C57 C 0.4245(6) 0.4057(6) 0.1867(4)
H51 H 0.4697 0.4315 0.1670
H52 H 0.3716 0.3693 0.1590
H53 H 0.4375 0.3741 0.2104
C58 C 0.6801(14) 0.3293(8) 0.4088(5)
H54 H 0.7376 0.3634 0.4048
H55 H 0.6811 0.3048 0.4412
H56 H 0.6539 0.3630 0.4147
C59 C 0.6000(19) 0.2371(10) 0.1972(6)
H57 H 0.5688 0.2654 0.1893
H58 H 0.5764 0.1865 0.1682
H59 H 0.6591 0.2724 0.1971
C60 C 0.2261(6) 0.0195(8) 0.3106(6)
H60 H 0.2323 0.0733 0.3239
H61 H 0.1737 -0.0228 0.3173
H62 H 0.2246 0.0103 0.2700
C61 C 0.3849(8) 0.0194(9) 0.4926(4)
H63 H 0.3487 -0.0355 0.4978
H64 H 0.3685 0.0571 0.5107
H65 H 0.4434 0.0378 0.5097
C52A C -0.0679(9) -0.1464(9) 0.5998(7)
C1A C -0.1206(8) -0.2171(8) 0.6203(7)
O1A O -0.1901(7) -0.2319(7) 0.6275(6)
N1A N -0.0865(5) -0.2681(6) 0.6284(5)
H1A H -0.0422 -0.2617 0.6154
C2A C -0.1262(5) -0.3310(5) 0.6585(4)
C3A C -0.1057(5) -0.3080(5) 0.7173(4)
C4A C -0.1413(5) -0.3680(5) 0.7471(4)
H2A H -0.1271 -0.3531 0.7872
C5A C -0.1969(4) -0.4488(4) 0.7203(3)
C6A C -0.2176(6) -0.4702(5) 0.6608(4)
H3A H -0.2565 -0.5254 0.6420
C7A C -0.1832(7) -0.4135(6) 0.6293(4)
C55A C -0.2059(11) -0.4389(9) 0.5634(5)
H45A H -0.2413 -0.4177 0.5485
H46A H -0.1543 -0.4163 0.5492
H47A H -0.2363 -0.4986 0.5511
C8A C -0.2403(4) -0.5153(4) 0.7532(3)
C9A C -0.2424(5) -0.5939(5) 0.7280(3)
H4A H -0.1844 -0.5811 0.7269
H5A H -0.2755 -0.6147 0.6886
C10A C -0.2791(5) -0.6609(5) 0.7597(4)
H6A H -0.3390 -0.6784 0.7575
H7A H -0.2758 -0.7087 0.7416
C11A C -0.2327(6) -0.6324(5) 0.8219(4)
H8A H -0.1749 -0.6227 0.8246
H9A H -0.2618 -0.6754 0.8423
C12A C -0.2296(6) -0.5542(5) 0.8489(4)
H10A H -0.2871 -0.5659 0.8507
H11A H -0.1954 -0.5337 0.8880
C13A C -0.1919(5) -0.4882(5) 0.8153(3)
C14A C -0.3287(4) -0.5256(4) 0.7493(3)
C15A C -0.3992(5) -0.5898(5) 0.7115(4)
H14A H -0.3935 -0.6308 0.6891
C16A C -0.4785(5) -0.5965(5) 0.7051(4)
C17A C -0.4849(5) -0.5344(5) 0.7381(3)
C18A C -0.4164(5) -0.4702(5) 0.7771(3)
C19A C -0.3384(5) -0.4660(5) 0.7817(4)
H15A H -0.2909 -0.4214 0.8076
C57A C -0.4245(6) -0.4057(6) 0.8133(4)
H51A H -0.4697 -0.4315 0.8330
H52A H -0.3716 -0.3693 0.8410
H53A H -0.4375 -0.3741 0.7896
N2A N -0.5634(4) -0.5362(5) 0.7311(3)
H16A H -0.5690 -0.5017 0.7131
C20A C -0.6299(5) -0.5877(5) 0.7503(4)
O2A O -0.6329(4) -0.6450(4) 0.7690(3)
C21A C -0.7007(5) -0.5710(5) 0.7465(4)
C22A C -0.7748(5) -0.6229(6) 0.7629(5)
H17A H -0.7800 -0.6690 0.7764
C23A C -0.8382(6) -0.6064(6) 0.7590(6)
H18A H -0.8887 -0.6411 0.7693
C24A C -0.8283(5) -0.5379(5) 0.7399(5)
H19A H -0.8720 -0.5252 0.7365
C25A C -0.7528(5) -0.4885(5) 0.7257(4)
N3A N -0.6899(4) -0.5040(4) 0.7287(3)
C26A C -0.7375(5) -0.4099(5) 0.7098(4)
O3A O -0.7938(4) -0.3934(4) 0.7047(4)
N4A N -0.6607(4) -0.3619(4) 0.7032(3)
H20A H -0.6273 -0.3826 0.7022
C27A C -0.6277(5) -0.2790(5) 0.6974(3)
C28A C -0.6304(7) -0.2626(5) 0.6441(4)
C29A C -0.5920(7) -0.1804(5) 0.6410(4)
H21A H -0.5940 -0.1677 0.6049
C30A C -0.5512(5) -0.1166(5) 0.6890(3)
C31A C -0.5545(7) -0.1358(6) 0.7409(4)
H22A H -0.5299 -0.0931 0.7740
C32A C -0.5932(8) -0.2171(6) 0.7459(4)
C59A C -0.6000(19) -0.2371(10) 0.8028(6)
H57A H -0.5688 -0.2654 0.8107
H58A H -0.5764 -0.1865 0.8318
H59A H -0.6591 -0.2724 0.8029
C33A C -0.5040(5) -0.0271(5) 0.6832(3)
C34A C -0.4680(6) 0.0346(5) 0.7413(4)
H23A H -0.4254 0.0268 0.7641
H24A H -0.5136 0.0231 0.7616
C35A C -0.4282(6) 0.1227(5) 0.7358(4)
H25A H -0.4051 0.1597 0.7738
H26A H -0.3814 0.1351 0.7164
C36A C -0.4941(6) 0.1373(6) 0.7018(4)
H27A H -0.4673 0.1944 0.6974
H28A H -0.5391 0.1284 0.7223
C37A C -0.5305(5) 0.0801(5) 0.6452(4)
H29A H -0.5751 0.0876 0.6248
H30A H -0.4863 0.0942 0.6233
C38A C -0.5679(5) -0.0104(5) 0.6479(4)
C39A C -0.4325(5) -0.0198(5) 0.6533(3)
C40A C -0.3628(5) -0.0181(5) 0.6830(4)
H33A H -0.3585 -0.0183 0.7220
C41A C -0.2987(5) -0.0160(5) 0.6582(4)
C42A C -0.3061(5) -0.0168(5) 0.6002(4)
C43A C -0.3758(5) -0.0178(6) 0.5693(4)
C44A C -0.4369(5) -0.0195(6) 0.5965(3)
H34A H -0.4842 -0.0205 0.5754
C61A C -0.3849(8) -0.0194(9) 0.5074(4)
H63A H -0.3487 0.0355 0.5022
H64A H -0.3685 -0.0571 0.4893
H65A H -0.4434 -0.0378 0.4903
N5A N -0.2458(5) -0.0206(5) 0.5719(4)
H35A H -0.2434 -0.0659 0.5670
C45A C -0.1918(7) 0.0420(6) 0.5519(6)
O4A O -0.1834(4) 0.1107(4) 0.5645(3)
C46A C -0.1443(8) 0.0232(7) 0.5123(5)
H36A H -0.1506 -0.0298 0.5036
C47A C -0.0927(7) 0.0830(7) 0.4894(5)
H37A H -0.0902 0.1343 0.4980
C48A C -0.0402(8) 0.0745(7) 0.4520(5)
C49A C -0.0420(9) 0.0030(8) 0.4345(6)
H38A H -0.0772 -0.0438 0.4474
C50A C 0.0057(12) -0.0023(10) 0.3989(8)
H39A H 0.0028 -0.0528 0.3853
C51A C 0.0633(11) 0.0734(10) 0.3814(8)
H40A H 0.0975 0.0705 0.3565
C53A C 0.0140(8) 0.1478(8) 0.4334(5)
H41A H 0.0120 0.1964 0.4442
C60A C -0.2261(6) -0.0195(8) 0.6894(6)
H60A H -0.2323 -0.0733 0.6761
H61A H -0.1737 0.0228 0.6827
H62A H -0.2246 -0.0103 0.7300
H31A H -0.6176 -0.0269 0.6647
H32A H -0.5869 -0.0445 0.6091
C58A C -0.6801(14) -0.3293(8) 0.5912(5)
H54A H -0.7376 -0.3634 0.5952
H55A H -0.6811 -0.3048 0.5588
H56A H -0.6539 -0.3630 0.5853
C56A C -0.5510(6) -0.6642(7) 0.6615(5)
H48A H -0.5856 -0.6437 0.6443
H49A H -0.5302 -0.6853 0.6324
H50A H -0.5847 -0.7082 0.6793
H12A H -0.1916 -0.4386 0.8338
H13A H -0.1330 -0.4737 0.8162
C54A C -0.0471(7) -0.2208(6) 0.7472(6)
H42A H 0.0054 -0.2006 0.7342
H43A H -0.0730 -0.1879 0.7391
H44A H -0.0355 -0.2168 0.7880
C62 C 1.0599(6) 0.6762(6) 0.3243(4)
O5 O 1.0295(5) 0.6295(4) 0.2783(3)
N6 N 1.0839(6) 0.7605(5) 0.3337(3)
H66 H 1.1141 0.7938 0.3666
C63 C 1.0581(6) 0.7900(6) 0.2891(4)
C64 C 1.0957(5) 0.8005(5) 0.2435(4)
C65 C 1.0659(5) 0.8260(5) 0.1999(3)
H67 H 1.0917 0.8333 0.1686
C66 C 1.0003(5) 0.8413(5) 0.2003(3)
C67 C 0.9654(6) 0.8331(6) 0.2481(4)
H68 H 0.9224 0.8462 0.2504
C68 C 0.9919(7) 0.8065(7) 0.2915(4)
C69 C 0.9621(5) 0.8612(5) 0.1487(3)
C70 C 0.9236(6) 0.9143(5) 0.1645(4)
H69 H 0.8930 0.9172 0.1296
H70 H 0.8825 0.8879 0.1874
C71 C 0.9879(6) 1.0005(6) 0.1974(5)
H71 H 0.9587 1.0314 0.2051
H72 H 1.0144 0.9978 0.2341
C72 C 1.0561(7) 1.0465(6) 0.1670(5)
H73 H 1.0992 1.0998 0.1920
H74 H 1.0318 1.0568 0.1328
C73 C 1.0960(6) 0.9949(5) 0.1507(4)
H75 H 1.1371 1.0220 0.1279
H76 H 1.1264 0.9910 0.1853
C74 C 1.0301(6) 0.9092(5) 0.1169(4)
H77 H 1.0585 0.8781 0.1071
H78 H 1.0025 0.9135 0.0812
C75 C 0.8947(5) 0.7775(5) 0.1101(3)
C76 C 0.9147(6) 0.7355(6) 0.0694(4)
H79 H 0.9707 0.7603 0.0645
C77 C 0.8565(5) 0.6589(6) 0.0355(4)
C78 C 0.7737(5) 0.6224(5) 0.0430(3)
C79 C 0.7506(6) 0.6624(5) 0.0829(4)
C80 C 0.8117(6) 0.7386(5) 0.1150(4)
H80 H 0.7959 0.7661 0.1420
N7 N 0.7154(4) 0.5435(4) 0.0088(3)
H81 H 0.7188 0.5018 0.0175
C81 C 0.6550(5) 0.5277(5) -0.0360(3)
O6 O 0.6384(5) 0.5799(4) -0.0474(3)
C82 C 0.6105(5) 0.4431(5) -0.0716(3)
C83 C 0.5476(5) 0.4190(5) -0.1198(4)
H82 H 0.5289 0.4556 -0.1283
C84 C 0.5129(5) 0.3437(5) -0.1548(4)
H83 H 0.4707 0.3273 -0.1879
C85 C 0.5413(5) 0.2917(5) -0.1406(4)
H84 H 0.5193 0.2389 -0.1641
C86 C 0.6022(5) 0.3178(5) -0.0915(3)
N8 N 0.6360(4) 0.3918(4) -0.0575(3)
C87 C 0.6327(5) 0.2616(5) -0.0745(3)
O7 O 0.6058(4) 0.1931(4) -0.1037(3)
N9 N 0.6889(4) 0.2925(4) -0.0263(3)
H85 H 0.7035 0.3421 -0.0084
C88 C 0.7286(5) 0.2534(5) -0.0005(3)
C89 C 0.8130(5) 0.2820(5) 0.0014(4)
C90 C 0.8525(5) 0.2465(6) 0.0299(4)
H86 H 0.9099 0.2646 0.0302
C91 C 0.8098(5) 0.1853(5) 0.0578(3)
C92 C 0.7244(5) 0.1569(5) 0.0538(3)
H87 H 0.6937 0.1135 0.0710
C93 C 0.6828(5) 0.1903(5) 0.0255(3)
C94 C 0.8541(5) 0.1513(5) 0.0945(3)
C95 C 0.9444(5) 0.1769(6) 0.0869(3)
H88 H 0.9769 0.2371 0.0928
H89 H 0.9720 0.1613 0.1163
C96 C 0.9469(6) 0.1382(7) 0.0291(4)
H90 H 1.0056 0.1543 0.0278
H91 H 0.9254 0.1586 -0.0003
C97 C 0.8933(7) 0.0441(7) 0.0167(4)
H92 H 0.8926 0.0206 -0.0221
H93 H 0.9189 0.0233 0.0432
C98 C 0.8058(6) 0.0175(6) 0.0223(4)
H94 H 0.7742 -0.0427 0.0165
H95 H 0.7781 0.0326 -0.0073
C99 C 0.8031(6) 0.0562(5) 0.0802(3)
H96 H 0.8255 0.0363 0.1094
H97 H 0.7439 0.0383 0.0815
C100 C 0.8585(5) 0.1884(5) 0.1562(3)
C101 C 0.9067(5) 0.2719(5) 0.1772(3)
H98 H 0.9368 0.3051 0.1536
C102 C 0.9125(4) 0.3093(5) 0.2323(3)
C103 C 0.8638(5) 0.2597(5) 0.2652(3)
C104 C 0.8131(5) 0.1757(5) 0.2440(3)
C105 C 0.8127(5) 0.1414(5) 0.1907(3)
H99 H 0.7800 0.0838 0.1772
N10 N 0.8653(4) 0.2980(4) 0.3194(3)
H100 H 0.8452 0.3315 0.3217
C106 C 0.8959(5) 0.2856(6) 0.3676(3)
O8 O 0.9237(4) 0.2380(4) 0.3687(3)
C107 C 0.8928(6) 0.3320(7) 0.4206(3)
H101 H 0.8820 0.3757 0.4198
C108 C 0.9056(6) 0.3109(7) 0.4690(4)
H102 H 0.9142 0.2654 0.4671
C109 C 0.9075(7) 0.3516(7) 0.5247(4)
C110 C 0.9021(9) 0.4199(8) 0.5317(5)
H103 H 0.8943 0.4419 0.5004
C111 C 0.9083(13) 0.4561(9) 0.5849(6)
H104 H 0.9065 0.5054 0.5914
C112 C 0.9178(10) 0.4209(8) 0.6327(5)
H105 H 0.9222 0.4477 0.6696
C113 C 1.0795(7) 0.6488(7) 0.3748(4)
C114 C 0.9169(7) 0.3154(6) 0.5725(4)
H106 H 0.9205 0.2670 0.5664
C115 C 1.1697(6) 0.7883(7) 0.2423(5)
H107 H 1.2128 0.8212 0.2770
H108 H 1.1927 0.8054 0.2096
H109 H 1.1518 0.7305 0.2394
C116 C 0.9484(10) 0.7907(11) 0.3416(5)
H110 H 0.9834 0.8356 0.3747
H111 H 0.9403 0.7393 0.3503
H112 H 0.8938 0.7872 0.3315
C117 C 0.8810(7) 0.6150(8) -0.0075(5)
H113 H 0.9420 0.6455 -0.0034
H114 H 0.8532 0.6109 -0.0456
H115 H 0.8639 0.5601 -0.0016
C118 C 0.6620(8) 0.6238(8) 0.0910(7)
H116 H 0.6510 0.5786 0.1096
H117 H 0.6229 0.6029 0.0541
H118 H 0.6545 0.6646 0.1144
C119 C 0.8623(7) 0.3516(7) -0.0254(5)
H119 H 0.8350 0.3379 -0.0653
H120 H 0.9194 0.3607 -0.0223
H121 H 0.8646 0.4012 -0.0059
C120 C 0.5914(5) 0.1602(6) 0.0248(5)
H122 H 0.5858 0.2034 0.0470
H123 H 0.5690 0.1121 0.0411
H124 H 0.5600 0.1455 -0.0142
C121 C 0.9667(5) 0.3996(5) 0.2539(4)
H125 H 0.9963 0.4235 0.2252
H126 H 1.0076 0.4112 0.2883
H127 H 0.9317 0.4234 0.2625
C122 C 0.7592(6) 0.1234(6) 0.2797(4)
H128 H 0.7171 0.0697 0.2558
H129 H 0.7310 0.1499 0.2970
H130 H 0.7945 0.1166 0.3094
C113A C 0.9205(7) 0.3512(7) 0.6252(4)
C62A C 0.9401(6) 0.3238(6) 0.6757(4)
O5A O 0.9705(5) 0.3705(4) 0.7217(3)
N6A N 0.9161(6) 0.2395(5) 0.6663(3)
H66A H 0.8859 0.2062 0.6334
C63A C 0.9419(6) 0.2100(6) 0.7109(4)
C64A C 0.9043(5) 0.1995(5) 0.7565(4)
C65A C 0.9341(5) 0.1740(5) 0.8001(3)
H67A H 0.9083 0.1667 0.8314
C66A C 0.9997(5) 0.1587(5) 0.7997(3)
C67A C 1.0346(6) 0.1669(6) 0.7519(4)
H68A H 1.0776 0.1538 0.7496
C68A C 1.0081(7) 0.1935(7) 0.7085(4)
C116A C 1.0516(10) 0.2093(11) 0.6584(5)
H110A H 1.0166 0.1644 0.6253
H111A H 1.0597 0.2607 0.6497
H112A H 1.1062 0.2128 0.6685
C69A C 1.0379(5) 0.1388(5) 0.8513(3)
C70A C 1.0764(6) 0.0857(5) 0.8355(4)
H69A H 1.1070 0.0828 0.8704
H70A H 1.1175 0.1121 0.8126
C71A C 1.0121(6) -0.0005(6) 0.8026(5)
H71A H 1.0413 -0.0314 0.7949
H72A H 0.9856 0.0022 0.7659
C72A C 0.9439(7) -0.0465(6) 0.8330(5)
H73A H 0.9008 -0.0998 0.8080
H74A H 0.9682 -0.0568 0.8672
C73A C 0.9040(6) 0.0051(5) 0.8493(4)
H75A H 0.8629 -0.0220 0.8721
H76A H 0.8736 0.0090 0.8147
C74A C 0.9699(6) 0.0908(5) 0.8831(4)
C75A C 1.1053(5) 0.2225(5) 0.8899(3)
C76A C 1.0853(6) 0.2645(6) 0.9306(4)
H79A H 1.0293 0.2397 0.9355
C77A C 1.1435(5) 0.3411(6) 0.9645(4)
C78A C 1.2263(5) 0.3776(5) 0.9570(3)
C79A C 1.2494(6) 0.3376(5) 0.9171(4)
C80A C 1.1883(6) 0.2614(5) 0.8850(4)
H80A H 1.2041 0.2339 0.8580
C118A C 1.3380(8) 0.3762(8) 0.9090(7)
H116A H 1.3490 0.4214 0.8904
H117A H 1.3771 0.3971 0.9459
H118A H 1.3455 0.3354 0.8856
N7A N 1.2846(4) 0.4565(4) 0.9912(3)
H81A H 1.2812 0.4982 0.9825
C81A C 1.3450(5) 0.4723(5) 1.0360(3)
O6A O 1.3616(5) 0.4201(4) 1.0474(3)
C82A C 1.3895(5) 0.5569(5) 1.0716(3)
C83A C 1.4524(5) 0.5810(5) 1.1198(4)
H82A H 1.4711 0.5444 1.1283
C84A C 1.4871(5) 0.6563(5) 1.1548(4)
H83A H 1.5293 0.6727 1.1879
C85A C 1.4587(5) 0.7083(5) 1.1406(4)
H84A H 1.4807 0.7611 1.1641
C86A C 1.3978(5) 0.6822(5) 1.0915(3)
N8A N 1.3640(4) 0.6082(4) 1.0575(3)
C87A C 1.3673(5) 0.7384(5) 1.0745(3)
O7A O 1.3942(4) 0.8069(4) 1.1037(3)
N9A N 1.3111(4) 0.7075(4) 1.0263(3)
H85A H 1.2965 0.6579 1.0084
C88A C 1.2714(5) 0.7466(5) 1.0005(3)
C89A C 1.1870(5) 0.7180(5) 0.9986(4)
C90A C 1.1475(5) 0.7535(6) 0.9701(4)
H86A H 1.0901 0.7354 0.9698
C91A C 1.1902(5) 0.8147(5) 0.9422(3)
C92A C 1.2756(5) 0.8431(5) 0.9462(3)
H87A H 1.3063 0.8865 0.9290
C93A C 1.3172(5) 0.8097(5) 0.9745(3)
C120A C 1.4086(5) 0.8398(6) 0.9752(5)
H122A H 1.4142 0.7966 0.9530
H123A H 1.4310 0.8879 0.9589
H124A H 1.4400 0.8545 1.0142
C94A C 1.1459(5) 0.8487(5) 0.9055(3)
C95A C 1.0556(5) 0.8231(6) 0.9131(3)
H88A H 1.0231 0.7629 0.9072
H89A H 1.0280 0.8387 0.8837
C96A C 1.0531(6) 0.8618(7) 0.9709(4)
H90A H 0.9944 0.8457 0.9722
H91A H 1.0746 0.8414 1.0003
C97A C 1.1067(7) 0.9559(7) 0.9833(4)
H92A H 1.1074 0.9794 1.0221
H93A H 1.0811 0.9767 0.9568
C98A C 1.1942(6) 0.9825(6) 0.9777(4)
H94A H 1.2258 1.0427 0.9835
H95A H 1.2219 0.9674 1.0073
C99A C 1.1969(6) 0.9438(5) 0.9198(3)
C100A C 1.1415(5) 0.8116(5) 0.8438(3)
C101A C 1.0933(5) 0.7281(5) 0.8228(3)
H98A H 1.0632 0.6949 0.8464
C102A C 1.0875(4) 0.6907(5) 0.7677(3)
C103A C 1.1362(5) 0.7403(5) 0.7348(3)
C104A C 1.1869(5) 0.8243(5) 0.7560(3)
C105A C 1.1873(5) 0.8586(5) 0.8093(3)
H99A H 1.2200 0.9162 0.8228
C122A C 1.2408(6) 0.8766(6) 0.7203(4)
H128A H 1.2829 0.9303 0.7442
H129A H 1.2690 0.8501 0.7030
H130A H 1.2055 0.8834 0.6906
N10A N 1.1347(4) 0.7020(4) 0.6806(3)
H100A H 1.1548 0.6685 0.6783
C106A C 1.1041(5) 0.7144(6) 0.6324(3)
O8A O 1.0763(4) 0.7620(4) 0.6313(3)
C107A C 1.1072(6) 0.6680(7) 0.5794(3)
H101A H 1.1180 0.6243 0.5802
C108A C 1.0944(6) 0.6891(7) 0.5310(4)
H102A H 1.0858 0.7346 0.5329
C109A C 1.0925(7) 0.6484(7) 0.4753(4)
C110A C 1.0979(9) 0.5801(8) 0.4683(5)
H103A H 1.1057 0.5581 0.4996
C111A C 1.0917(13) 0.5439(9) 0.4151(6)
H104A H 1.0935 0.4946 0.4086
C112A C 1.0822(10) 0.5791(8) 0.3673(5)
H105A H 1.0778 0.5523 0.3304
C114A C 1.0831(7) 0.6846(6) 0.4275(4)
H106A H 1.0795 0.7330 0.4336
C121A C 1.0333(5) 0.6004(5) 0.7461(4)
H125A H 1.0037 0.5765 0.7748
H126A H 0.9924 0.5888 0.7117
H127A H 1.0683 0.5766 0.7375
H96A H 1.1745 0.9637 0.8906
H97A H 1.2561 0.9617 0.9185
C119A C 1.1377(7) 0.6484(7) 1.0254(5)
H119A H 1.1650 0.6621 1.0653
H120A H 1.0806 0.6393 1.0223
H121A H 1.1354 0.5988 1.0059
C117A C 1.1190(7) 0.3850(8) 1.0075(5)
H113A H 1.0580 0.3545 1.0034
H114A H 1.1468 0.3891 1.0456
H115A H 1.1361 0.4399 1.0016
H77A H 0.9415 0.1219 0.8929
H78A H 0.9975 0.0865 0.9188
C115A C 0.8303(6) 0.2117(7) 0.7577(5)
H107A H 0.7872 0.1788 0.7230
H108A H 0.8073 0.1946 0.7904
H109A H 0.8482 0.2695 0.7606
C123 C 1.3244(6) 0.9317(6) 0.0972(4)
H131 H 1.3523 0.9042 0.1141
H132 H 1.2875 0.8958 0.0603
Cl1 Cl 1.2637(3) 0.9457(3) 0.14142(16)
Cl2 Cl 1.3998(2) 1.0235(3) 0.0864(2)
C124 C 0.7560(7) -0.0724(5) 0.2905(4)
H133 H 0.7162 -0.0624 0.2658
Cl3 Cl 0.7457(3) -0.0518(3) 0.35982(17)
Cl4 Cl 0.7287(3) -0.1737(2) 0.2675(2)
Cl5 Cl 0.8560(3) -0.0066(3) 0.2837(2)
C125 C 1.2380(7) 0.2411(7) 0.0697(5)
H134 H 1.2736 0.2902 0.0563
Cl6 Cl 1.1783(2) 0.2619(3) 0.1123(2)
Cl7 Cl 1.1712(4) 0.1617(5) 0.0130(4)
Cl8 Cl 1.2857(5) 0.1868(4) 0.0955(4)
C126 C 0.7630(10) 0.6293(11) 0.4297(10)
H135 H 0.7761 0.6563 0.4704
Cl9 Cl 0.8437(7) 0.6106(8) 0.4212(6)
Cl10 Cl 0.7564(9) 0.6968(8) 0.3918(7)
Cl11 Cl 0.6668(9) 0.5394(10) 0.4177(9)
C127 C 0.3941(10) 0.0685(10) -0.1379(7)
O9 O 0.4231(6) 0.0140(6) -0.1274(4)
O10 O 0.3617(9) 0.0767(9) -0.1849(7)
C128 C 0.3908(7) 0.1151(7) -0.0916(5)
C129 C 0.3411(13) 0.1564(12) -0.1028(9)
C130 C 0.5071(12) 0.4036(13) 0.0530(8)
C131 C 0.5626(10) 0.3746(10) 0.0741(6)
O11 O 0.6050(8) 0.4165(8) 0.1293(5)
O12 O 0.3135(11) 0.8025(11) 0.5046(8)
C132 C 0.3879(13) 0.8357(15) 0.4859(11)
O13 O 0.3029(8) 0.7737(8) 0.3805(5)
O14 O 0.2747(10) 0.1825(10) 0.4396(7)
O15 O 1.4339(10) 0.2499(10) 0.0886(7)
O16 O 0.4999(8) 0.3721(8) 0.3091(5)
O17 O 0.7963(8) 0.4518(8) 0.0680(5)
O18 O 0.7797(8) 0.3702(8) 0.1355(6)
C133 C 0.8214(13) 0.4343(12) 0.1096(8)
C134 C 0.9097(11) 0.4630(11) 0.1254(8)
H136? H 1.2750 0.2262 0.0919
H137? H 1.2826 0.2936 0.0648
H138? H 1.2012 0.2092 0.0320
Cl12? Cl 0.9835(7) 0.6148(6) 0.1315(5)
Cl13? Cl 1.0025(5) 0.4760(5) 0.1016(4)
C135? C 0.951(5) 0.527(3) 0.0798(19)
loop_
_geom_bond_atom_site_label_1
_geom_bond_atom_site_label_2
_geom_bond_site_symmetry_1
_geom_bond_site_symmetry_2
C1 O1 1_555 1_555
N1 C1 1_555 1_555
H1 N1 1_555 1_555
C2 N1 1_555 1_555
C3 C2 1_555 1_555
C4 C3 1_555 1_555
H2 C4 1_555 1_555
C5 C4 1_555 1_555
C6 C5 1_555 1_555
H3 C6 1_555 1_555
C7 C2 1_555 1_555
C8 C5 1_555 1_555
C9 C8 1_555 1_555
H4 C9 1_555 1_555
H5 C9 1_555 1_555
C10 C9 1_555 1_555
H6 C10 1_555 1_555
H7 C10 1_555 1_555
C11 C10 1_555 1_555
H8 C11 1_555 1_555
H9 C11 1_555 1_555
C12 C11 1_555 1_555
H10 C12 1_555 1_555
H11 C12 1_555 1_555
C13 C8 1_555 1_555
H12 C13 1_555 1_555
H13 C13 1_555 1_555
C14 C8 1_555 1_555
C15 C14 1_555 1_555
H14 C15 1_555 1_555
C16 C15 1_555 1_555
C17 C16 1_555 1_555
C18 C17 1_555 1_555
C19 C14 1_555 1_555
H15 C19 1_555 1_555
N2 C17 1_555 1_555
H16 N2 1_555 1_555
C20 N2 1_555 1_555
O2 C20 1_555 1_555
C21 C20 1_555 1_555
C22 C21 1_555 1_555
H17 C22 1_555 1_555
C23 C22 1_555 1_555
H18 C23 1_555 1_555
C24 C23 1_555 1_555
H19 C24 1_555 1_555
C25 C24 1_555 1_555
N3 C21 1_555 1_555
C26 C25 1_555 1_555
O3 C26 1_555 1_555
N4 C26 1_555 1_555
H20 N4 1_555 1_555
C27 N4 1_555 1_555
C28 C27 1_555 1_555
C29 C28 1_555 1_555
H21 C29 1_555 1_555
C30 C29 1_555 1_555
C31 C30 1_555 1_555
H22 C31 1_555 1_555
C32 C27 1_555 1_555
C33 C30 1_555 1_555
C34 C33 1_555 1_555
H23 C34 1_555 1_555
H24 C34 1_555 1_555
C35 C34 1_555 1_555
H25 C35 1_555 1_555
H26 C35 1_555 1_555
C36 C35 1_555 1_555
H27 C36 1_555 1_555
H28 C36 1_555 1_555
C37 C36 1_555 1_555
H29 C37 1_555 1_555
H30 C37 1_555 1_555
C38 C33 1_555 1_555
H31 C38 1_555 1_555
H32 C38 1_555 1_555
C39 C33 1_555 1_555
C40 C39 1_555 1_555
H33 C40 1_555 1_555
C41 C40 1_555 1_555
C42 C41 1_555 1_555
C43 C42 1_555 1_555
C44 C39 1_555 1_555
H34 C44 1_555 1_555
N5 C42 1_555 1_555
H35 N5 1_555 1_555
C45 N5 1_555 1_555
O4 C45 1_555 1_555
C46 C45 1_555 1_555
H36 C46 1_555 1_555
C47 C46 1_555 1_555
H37 C47 1_555 1_555
C48 C47 1_555 1_555
C49 C48 1_555 1_555
H38 C49 1_555 1_555
C50 C49 1_555 1_555
H39 C50 1_555 1_555
C51 C50 1_555 1_555
H40 C51 1_555 1_555
C52 C1 1_555 1_555
C53 C48 1_555 1_555
H41 C53 1_555 1_555
C54 C3 1_555 1_555
H42 C54 1_555 1_555
H43 C54 1_555 1_555
H44 C54 1_555 1_555
C55 C7 1_555 1_555
H45 C55 1_555 1_555
H46 C55 1_555 1_555
H47 C55 1_555 1_555
C56 C16 1_555 1_555
H48 C56 1_555 1_555
H49 C56 1_555 1_555
H50 C56 1_555 1_555
C57 C18 1_555 1_555
H51 C57 1_555 1_555
H52 C57 1_555 1_555
H53 C57 1_555 1_555
C58 C28 1_555 1_555
H54 C58 1_555 1_555
H55 C58 1_555 1_555
H56 C58 1_555 1_555
C59 C32 1_555 1_555
H57 C59 1_555 1_555
H58 C59 1_555 1_555
H59 C59 1_555 1_555
C60 C41 1_555 1_555
H60 C60 1_555 1_555
H61 C60 1_555 1_555
H62 C60 1_555 1_555
C61 C43 1_555 1_555
H63 C61 1_555 1_555
H64 C61 1_555 1_555
H65 C61 1_555 1_555
C62 O5 1_555 1_555
N6 C62 1_555 1_555
H66 N6 1_555 1_555
C63 N6 1_555 1_555
C64 C63 1_555 1_555
C65 C64 1_555 1_555
H67 C65 1_555 1_555
C66 C65 1_555 1_555
C67 C66 1_555 1_555
H68 C67 1_555 1_555
C68 C63 1_555 1_555
C69 C66 1_555 1_555
C70 C69 1_555 1_555
H69 C70 1_555 1_555
H70 C70 1_555 1_555
C71 C70 1_555 1_555
H71 C71 1_555 1_555
H72 C71 1_555 1_555
C72 C71 1_555 1_555
H73 C72 1_555 1_555
H74 C72 1_555 1_555
C73 C72 1_555 1_555
H75 C73 1_555 1_555
H76 C73 1_555 1_555
C74 C69 1_555 1_555
H77 C74 1_555 1_555
H78 C74 1_555 1_555
C75 C69 1_555 1_555
C76 C75 1_555 1_555
H79 C76 1_555 1_555
C77 C76 1_555 1_555
C78 C77 1_555 1_555
C79 C78 1_555 1_555
C80 C75 1_555 1_555
H80 C80 1_555 1_555
N7 C78 1_555 1_555
H81 N7 1_555 1_555
C81 N7 1_555 1_555
O6 C81 1_555 1_555
C82 C81 1_555 1_555
C83 C82 1_555 1_555
H82 C83 1_555 1_555
C84 C83 1_555 1_555
H83 C84 1_555 1_555
C85 C84 1_555 1_555
H84 C85 1_555 1_555
C86 C85 1_555 1_555
N8 C82 1_555 1_555
C87 C86 1_555 1_555
O7 C87 1_555 1_555
N9 C87 1_555 1_555
H85 N9 1_555 1_555
C88 N9 1_555 1_555
C89 C88 1_555 1_555
C90 C89 1_555 1_555
H86 C90 1_555 1_555
C91 C90 1_555 1_555
C92 C91 1_555 1_555
H87 C92 1_555 1_555
C93 C88 1_555 1_555
C94 C91 1_555 1_555
C95 C94 1_555 1_555
H88 C95 1_555 1_555
H89 C95 1_555 1_555
C96 C95 1_555 1_555
H90 C96 1_555 1_555
H91 C96 1_555 1_555
C97 C96 1_555 1_555
H92 C97 1_555 1_555
H93 C97 1_555 1_555
C98 C97 1_555 1_555
H94 C98 1_555 1_555
H95 C98 1_555 1_555
C99 C94 1_555 1_555
H96 C99 1_555 1_555
H97 C99 1_555 1_555
C100 C94 1_555 1_555
C101 C100 1_555 1_555
H98 C101 1_555 1_555
C102 C101 1_555 1_555
C103 C102 1_555 1_555
C104 C103 1_555 1_555
C105 C100 1_555 1_555
H99 C105 1_555 1_555
N10 C103 1_555 1_555
H100 N10 1_555 1_555
C106 N10 1_555 1_555
O8 C106 1_555 1_555
C107 C106 1_555 1_555
H101 C107 1_555 1_555
C108 C107 1_555 1_555
H102 C108 1_555 1_555
C109 C108 1_555 1_555
C110 C109 1_555 1_555
H103 C110 1_555 1_555
C111 C110 1_555 1_555
H104 C111 1_555 1_555
C112 C111 1_555 1_555
H105 C112 1_555 1_555
C113 C62 1_555 1_555
C114 C109 1_555 1_555
H106 C114 1_555 1_555
C115 C64 1_555 1_555
H107 C115 1_555 1_555
H108 C115 1_555 1_555
H109 C115 1_555 1_555
C116 C68 1_555 1_555
H110 C116 1_555 1_555
H111 C116 1_555 1_555
H112 C116 1_555 1_555
C117 C77 1_555 1_555
H113 C117 1_555 1_555
H114 C117 1_555 1_555
H115 C117 1_555 1_555
C118 C79 1_555 1_555
H116 C118 1_555 1_555
H117 C118 1_555 1_555
H118 C118 1_555 1_555
C119 C89 1_555 1_555
H119 C119 1_555 1_555
H120 C119 1_555 1_555
H121 C119 1_555 1_555
C120 C93 1_555 1_555
H122 C120 1_555 1_555
H123 C120 1_555 1_555
H124 C120 1_555 1_555
C121 C102 1_555 1_555
H125 C121 1_555 1_555
H126 C121 1_555 1_555
H127 C121 1_555 1_555
C122 C104 1_555 1_555
H128 C122 1_555 1_555
H129 C122 1_555 1_555
H130 C122 1_555 1_555
C123 H131 1_555 1_555
H132 C123 1_555 1_555
Cl1 C123 1_555 1_555
Cl2 C123 1_555 1_555
C124 H133 1_555 1_555
Cl3 C124 1_555 1_555
Cl4 C124 1_555 1_555
Cl5 C124 1_555 1_555
C125 H134 1_555 1_555
Cl6 C125 1_555 1_555
Cl7 C125 1_555 1_555
Cl8 C125 1_555 1_555
C126 H135 1_555 1_555
Cl9 C126 1_555 1_555
Cl10 C126 1_555 1_555
Cl11 C126 1_555 1_555
C127 O9 1_555 1_555
O10 C127 1_555 1_555
C128 C127 1_555 1_555
C129 C128 1_555 1_555
C130 C131 1_555 1_555
C131 O11 1_555 1_555
O12 C132 1_555 1_555
O17 C133 1_555 1_555
O18 C133 1_555 1_555
C133 C134 1_555 1_555
C52A C51 1_555 1_555
C1A C52A 1_555 1_555
O1A C1A 1_555 1_555
N1A C1A 1_555 1_555
H1A N1A 1_555 1_555
C2A N1A 1_555 1_555
C3A C2A 1_555 1_555
C4A C3A 1_555 1_555
H2A C4A 1_555 1_555
C5A C4A 1_555 1_555
C6A C5A 1_555 1_555
H3A C6A 1_555 1_555
C7A C2A 1_555 1_555
C55A C7A 1_555 1_555
H45A C55A 1_555 1_555
H46A C55A 1_555 1_555
H47A C55A 1_555 1_555
C8A C5A 1_555 1_555
C9A C8A 1_555 1_555
H4A C9A 1_555 1_555
H5A C9A 1_555 1_555
C10A C9A 1_555 1_555
H6A C10A 1_555 1_555
H7A C10A 1_555 1_555
C11A C10A 1_555 1_555
H8A C11A 1_555 1_555
H9A C11A 1_555 1_555
C12A C11A 1_555 1_555
H10A C12A 1_555 1_555
H11A C12A 1_555 1_555
C13A C8A 1_555 1_555
C14A C8A 1_555 1_555
C15A C14A 1_555 1_555
H14A C15A 1_555 1_555
C16A C15A 1_555 1_555
C17A C16A 1_555 1_555
C18A C17A 1_555 1_555
C19A C14A 1_555 1_555
H15A C19A 1_555 1_555
C57A C18A 1_555 1_555
H51A C57A 1_555 1_555
H52A C57A 1_555 1_555
H53A C57A 1_555 1_555
N2A C17A 1_555 1_555
H16A N2A 1_555 1_555
C20A N2A 1_555 1_555
O2A C20A 1_555 1_555
C21A C20A 1_555 1_555
C22A C21A 1_555 1_555
H17A C22A 1_555 1_555
C23A C22A 1_555 1_555
H18A C23A 1_555 1_555
C24A C23A 1_555 1_555
H19A C24A 1_555 1_555
C25A C24A 1_555 1_555
N3A C21A 1_555 1_555
C26A C25A 1_555 1_555
O3A C26A 1_555 1_555
N4A C26A 1_555 1_555
H20A N4A 1_555 1_555
C27A N4A 1_555 1_555
C28A C27A 1_555 1_555
C29A C28A 1_555 1_555
H21A C29A 1_555 1_555
C30A C29A 1_555 1_555
C31A C30A 1_555 1_555
H22A C31A 1_555 1_555
C32A C27A 1_555 1_555
C59A C32A 1_555 1_555
H57A C59A 1_555 1_555
H58A C59A 1_555 1_555
H59A C59A 1_555 1_555
C33A C30A 1_555 1_555
C34A C33A 1_555 1_555
H23A C34A 1_555 1_555
H24A C34A 1_555 1_555
C35A C34A 1_555 1_555
H25A C35A 1_555 1_555
H26A C35A 1_555 1_555
C36A C35A 1_555 1_555
H27A C36A 1_555 1_555
H28A C36A 1_555 1_555
C37A C36A 1_555 1_555
H29A C37A 1_555 1_555
H30A C37A 1_555 1_555
C38A C33A 1_555 1_555
C39A C33A 1_555 1_555
C40A C39A 1_555 1_555
H33A C40A 1_555 1_555
C41A C40A 1_555 1_555
C42A C41A 1_555 1_555
C43A C42A 1_555 1_555
C44A C39A 1_555 1_555
H34A C44A 1_555 1_555
C61A C43A 1_555 1_555
H63A C61A 1_555 1_555
H64A C61A 1_555 1_555
H65A C61A 1_555 1_555
N5A C42A 1_555 1_555
H35A N5A 1_555 1_555
C45A N5A 1_555 1_555
O4A C45A 1_555 1_555
C46A C45A 1_555 1_555
H36A C46A 1_555 1_555
C47A C46A 1_555 1_555
H37A C47A 1_555 1_555
C48A C47A 1_555 1_555
C49A C48A 1_555 1_555
H38A C49A 1_555 1_555
C50A C49A 1_555 1_555
H39A C50A 1_555 1_555
C51A C52 1_555 1_555
H40A C51A 1_555 1_555
C53A C52 1_555 1_555
H41A C53A 1_555 1_555
C60A C41A 1_555 1_555
H60A C60A 1_555 1_555
H61A C60A 1_555 1_555
H62A C60A 1_555 1_555
H31A C38A 1_555 1_555
H32A C38A 1_555 1_555
C58A C28A 1_555 1_555
H54A C58A 1_555 1_555
H55A C58A 1_555 1_555
H56A C58A 1_555 1_555
C56A C16A 1_555 1_555
H48A C56A 1_555 1_555
H49A C56A 1_555 1_555
H50A C56A 1_555 1_555
H12A C13A 1_555 1_555
H13A C13A 1_555 1_555
C54A C3A 1_555 1_555
H42A C54A 1_555 1_555
H43A C54A 1_555 1_555
H44A C54A 1_555 1_555
C113A C112 1_555 1_555
C62A C113A 1_555 1_555
O5A C62A 1_555 1_555
N6A C62A 1_555 1_555
H66A N6A 1_555 1_555
C63A N6A 1_555 1_555
C64A C63A 1_555 1_555
C65A C64A 1_555 1_555
H67A C65A 1_555 1_555
C66A C65A 1_555 1_555
C67A C66A 1_555 1_555
H68A C67A 1_555 1_555
C68A C63A 1_555 1_555
C116A C68A 1_555 1_555
H110A C116A 1_555 1_555
H111A C116A 1_555 1_555
H112A C116A 1_555 1_555
C69A C66A 1_555 1_555
C70A C69A 1_555 1_555
H69A C70A 1_555 1_555
H70A C70A 1_555 1_555
C71A C70A 1_555 1_555
H71A C71A 1_555 1_555
H72A C71A 1_555 1_555
C72A C71A 1_555 1_555
H73A C72A 1_555 1_555
H74A C72A 1_555 1_555
C73A C72A 1_555 1_555
H75A C73A 1_555 1_555
H76A C73A 1_555 1_555
C74A C69A 1_555 1_555
C75A C69A 1_555 1_555
C76A C75A 1_555 1_555
H79A C76A 1_555 1_555
C77A C76A 1_555 1_555
C78A C77A 1_555 1_555
C79A C78A 1_555 1_555
C80A C75A 1_555 1_555
H80A C80A 1_555 1_555
C118A C79A 1_555 1_555
H116A C118A 1_555 1_555
H117A C118A 1_555 1_555
H118A C118A 1_555 1_555
N7A C78A 1_555 1_555
H81A N7A 1_555 1_555
C81A N7A 1_555 1_555
O6A C81A 1_555 1_555
C82A C81A 1_555 1_555
C83A C82A 1_555 1_555
H82A C83A 1_555 1_555
C84A C83A 1_555 1_555
H83A C84A 1_555 1_555
C85A C84A 1_555 1_555
H84A C85A 1_555 1_555
C86A C85A 1_555 1_555
N8A C82A 1_555 1_555
C87A C86A 1_555 1_555
O7A C87A 1_555 1_555
N9A C87A 1_555 1_555
H85A N9A 1_555 1_555
C88A N9A 1_555 1_555
C89A C88A 1_555 1_555
C90A C89A 1_555 1_555
H86A C90A 1_555 1_555
C91A C90A 1_555 1_555
C92A C91A 1_555 1_555
H87A C92A 1_555 1_555
C93A C88A 1_555 1_555
C120A C93A 1_555 1_555
H122A C120A 1_555 1_555
H123A C120A 1_555 1_555
H124A C120A 1_555 1_555
C94A C91A 1_555 1_555
C95A C94A 1_555 1_555
H88A C95A 1_555 1_555
H89A C95A 1_555 1_555
C96A C95A 1_555 1_555
H90A C96A 1_555 1_555
H91A C96A 1_555 1_555
C97A C96A 1_555 1_555
H92A C97A 1_555 1_555
H93A C97A 1_555 1_555
C98A C97A 1_555 1_555
H94A C98A 1_555 1_555
H95A C98A 1_555 1_555
C99A C94A 1_555 1_555
C100A C94A 1_555 1_555
C101A C100A 1_555 1_555
H98A C101A 1_555 1_555
C102A C101A 1_555 1_555
C103A C102A 1_555 1_555
C104A C103A 1_555 1_555
C105A C100A 1_555 1_555
H99A C105A 1_555 1_555
C122A C104A 1_555 1_555
H128A C122A 1_555 1_555
H129A C122A 1_555 1_555
H130A C122A 1_555 1_555
N10A C103A 1_555 1_555
H100A N10A 1_555 1_555
C106A N10A 1_555 1_555
O8A C106A 1_555 1_555
C107A C106A 1_555 1_555
H101A C107A 1_555 1_555
C108A C107A 1_555 1_555
H102A C108A 1_555 1_555
C109A C108A 1_555 1_555
C110A C109A 1_555 1_555
H103A C110A 1_555 1_555
C111A C110A 1_555 1_555
H104A C111A 1_555 1_555
C112A C113 1_555 1_555
H105A C112A 1_555 1_555
C114A C113 1_555 1_555
H106A C114A 1_555 1_555
C121A C102A 1_555 1_555
H125A C121A 1_555 1_555
H126A C121A 1_555 1_555
H127A C121A 1_555 1_555
H96A C99A 1_555 1_555
H97A C99A 1_555 1_555
C119A C89A 1_555 1_555
H119A C119A 1_555 1_555
H120A C119A 1_555 1_555
H121A C119A 1_555 1_555
C117A C77A 1_555 1_555
H113A C117A 1_555 1_555
H114A C117A 1_555 1_555
H115A C117A 1_555 1_555
H77A C74A 1_555 1_555
H78A C74A 1_555 1_555
C115A C64A 1_555 1_555
H107A C115A 1_555 1_555
H108A C115A 1_555 1_555
H109A C115A 1_555 1_555
C6 C7 1_555 1_555
C12 C13 1_555 1_555
C18 C19 1_555 1_555
C25 N3 1_555 1_555
C31 C32 1_555 1_555
C37 C38 1_555 1_555
C43 C44 1_555 1_555
C53 C52A 1_555 1_555
C67 C68 1_555 1_555
C73 C74 1_555 1_555
C79 C80 1_555 1_555
C86 N8 1_555 1_555
C92 C93 1_555 1_555
C98 C99 1_555 1_555
C104 C105 1_555 1_555
C114 C113A 1_555 1_555
C6A C7A 1_555 1_555
C12A C13A 1_555 1_555
C18A C19A 1_555 1_555
C25A N3A 1_555 1_555
C31A C32A 1_555 1_555
C37A C38A 1_555 1_555
C43A C44A 1_555 1_555
C48A C53A 1_555 1_555
C50A C51A 1_555 1_555
C67A C68A 1_555 1_555
C73A C74A 1_555 1_555
C79A C80A 1_555 1_555
C86A N8A 1_555 1_555
C92A C93A 1_555 1_555
C98A C99A 1_555 1_555
C104A C105A 1_555 1_555
C109A C114A 1_555 1_555
C111A C112A 1_555 1_555

#END
