
#######################################################################
#
#                 Cambridge Crystallographic Data Centre
#                                CCDC 
#
#######################################################################
#
# If this CIF has been generated from an entry in the Cambridge 
# Structural Database, then it will include bibliographic, chemical, 
# crystal, experimental, refinement or atomic coordinate data resulting 
# from the CCDC's data processing and validation procedures.
#
#######################################################################

data_TIGMUU
_chemical_formula_moiety         'C14 H14 N8 O1'
_chemical_name_systematic        
4-({2-[6-(3,5-dimethyl-1H-pyrazol-1-yl)-1,2,4,5-tetrazin-3-yl]hydrazinylidene}methyl)phenol
_symmetry_cell_setting           monoclinic
_symmetry_space_group_name_H-M   'P 21/c'
_symmetry_Int_Tables_number      14
_space_group_name_Hall           '-P 2ybc'
loop_
_symmetry_equiv_pos_site_id
_symmetry_equiv_pos_as_xyz
1 x,y,z
2 -x,1/2+y,1/2-z
3 -x,-y,-z
4 x,1/2-y,1/2+z
_cell_length_a                   5.8043(16)
_cell_length_b                   31.562(9)
_cell_length_c                   7.898(2)
_cell_angle_alpha                90
_cell_angle_beta                 95.860(6)
_cell_angle_gamma                90
_cell_volume                     1439.32
_exptl_crystal_colour            red
_exptl_crystal_description       block
_cell_formula_units_Z            4
loop_
_atom_site_label
_atom_site_type_symbol
_atom_site_fract_x
_atom_site_fract_y
_atom_site_fract_z
N1 N 0.4725(4) 0.17854(8) 0.9759(4)
N2 N 0.6592(4) 0.15510(8) 1.0433(3)
N3 N 0.4779(4) 0.09682(8) 0.9071(3)
N4 N 0.4834(4) 0.05731(8) 0.8544(3)
N5 N 0.8530(4) 0.08987(8) 1.0552(3)
N6 N 0.8598(4) 0.04984(8) 1.0057(3)
N7 N 0.7035(4) -0.00418(8) 0.8395(4)
H1 H 0.8273 -0.0184 0.8694
N8 N 0.5285(4) -0.02186(8) 0.7307(3)
O1 O -0.0617(4) -0.15167(8) 0.2356(3)
H2 H -0.1797 -0.1384 0.2040
C1 C 0.3394(7) 0.25160(11) 0.9954(5)
H3 H 0.3935 0.2772 1.0518
H4 H 0.3227 0.2561 0.8745
H5 H 0.1922 0.2439 1.0318
C2 C 0.5100(5) 0.21682(10) 1.0389(4)
C3 C 0.7182(6) 0.21879(10) 1.1458(5)
H6 H 0.7801 0.2425 1.2040
C4 C 0.8124(5) 0.17896(9) 1.1475(4)
C5 C 1.0308(6) 0.16287(11) 1.2399(5)
H7 H 1.0485 0.1334 1.2147
H8 H 1.1597 0.1784 1.2046
H9 H 1.0254 0.1664 1.3602
C6 C 0.6658(5) 0.11239(9) 0.9989(4)
C7 C 0.6805(5) 0.03535(9) 0.8988(4)
C8 C 0.5669(5) -0.05909(10) 0.6790(4)
H10 H 0.7065 -0.0722 0.7158
C9 C 0.3971(5) -0.08178(9) 0.5631(4)
C10 C 0.4444(5) -0.12280(10) 0.5134(4)
H11 H 0.5838 -0.1353 0.5550
C11 C 0.2902(6) -0.14537(10) 0.4042(4)
H12 H 0.3260 -0.1728 0.3723
C12 C 0.0809(5) -0.12707(11) 0.3418(4)
C13 C 0.0292(5) -0.08607(10) 0.3881(4)
H13 H -0.1101 -0.0737 0.3454
C14 C 0.1856(5) -0.06362(10) 0.4980(4)
H14 H 0.1500 -0.0362 0.5291
loop_
_geom_bond_atom_site_label_1
_geom_bond_atom_site_label_2
_geom_bond_site_symmetry_1
_geom_bond_site_symmetry_2
N1 N2 1_555 1_555
N2 C4 1_555 1_555
N3 N4 1_555 1_555
N4 C7 1_555 1_555
N5 N6 1_555 1_555
N6 C7 1_555 1_555
N7 H1 1_555 1_555
N8 N7 1_555 1_555
O1 H2 1_555 1_555
C1 H3 1_555 1_555
H4 C1 1_555 1_555
H5 C1 1_555 1_555
C2 N1 1_555 1_555
C3 C2 1_555 1_555
H6 C3 1_555 1_555
C4 C3 1_555 1_555
C5 C4 1_555 1_555
H7 C5 1_555 1_555
H8 C5 1_555 1_555
H9 C5 1_555 1_555
C6 N2 1_555 1_555
C7 N7 1_555 1_555
C8 N8 1_555 1_555
H10 C8 1_555 1_555
C9 C8 1_555 1_555
C10 C9 1_555 1_555
H11 C10 1_555 1_555
C11 C10 1_555 1_555
H12 C11 1_555 1_555
C12 O1 1_555 1_555
C13 C12 1_555 1_555
H13 C13 1_555 1_555
C14 C9 1_555 1_555
H14 C14 1_555 1_555
N3 C6 1_555 1_555
N5 C6 1_555 1_555
C1 C2 1_555 1_555
C11 C12 1_555 1_555
C13 C14 1_555 1_555

#END
