
#######################################################################
#
#                 Cambridge Crystallographic Data Centre
#                                CCDC 
#
#######################################################################
#
# If this CIF has been generated from an entry in the Cambridge 
# Structural Database, then it will include bibliographic, chemical, 
# crystal, experimental, refinement or atomic coordinate data resulting 
# from the CCDC's data processing and validation procedures.
#
#######################################################################

data_TIGNOP
_chemical_formula_moiety         'C21 H24 N2 O4'
_chemical_name_systematic        
4-[5-(hydroxymethyl)-2-methyl-5H-pyrazolo[1,5-a][3,1]benzoxazin-5-yl]-6-methyl-2-oxabicyclo[3.3.1]non-6-en-1-ol
_symmetry_cell_setting           triclinic
_symmetry_space_group_name_H-M   'P -1'
_symmetry_Int_Tables_number      2
_space_group_name_Hall           '-P 1'
loop_
_symmetry_equiv_pos_site_id
_symmetry_equiv_pos_as_xyz
1 x,y,z
2 -x,-y,-z
_cell_length_a                   7.050(3)
_cell_length_b                   8.422(3)
_cell_length_c                   15.464(5)
_cell_angle_alpha                82.512(8)
_cell_angle_beta                 79.368(8)
_cell_angle_gamma                79.556(8)
_cell_volume                     882.994
_exptl_crystal_colour            colorless
_exptl_crystal_description       needle
_cell_formula_units_Z            2
loop_
_atom_site_label
_atom_site_type_symbol
_atom_site_fract_x
_atom_site_fract_y
_atom_site_fract_z
O1 O 0.7566(4) 0.3022(3) 0.69325(17)
O2 O 0.8221(4) 0.4896(3) 0.92688(18)
O3 O 0.8427(4) 0.3789(4) 1.06687(18)
H1 H 0.9516 0.4049 1.0680
O4 O 0.3801(5) 0.2910(4) 0.65437(19)
H2 H 0.3342 0.3780 0.6269
N1 N 0.7216(5) 0.4673(4) 0.5614(2)
N2 N 0.7767(5) 0.4644(4) 0.4706(2)
C1 C 0.5825(6) 0.3998(5) 0.7407(2)
C2 C 0.6242(6) 0.3945(5) 0.8352(3)
H3 H 0.5090 0.4629 0.8678
C3 C 0.8396(6) 0.3358(5) 0.9820(3)
C4 C 0.8289(6) 0.1043(5) 0.8601(3)
C5 C 0.6593(6) 0.2616(5) 0.9851(3)
H4 H 0.5414 0.3375 1.0078
H5 H 0.6648 0.1599 1.0254
C6 C 0.6482(6) 0.2259(5) 0.8918(3)
H6 H 0.5290 0.1757 0.8942
C7 C 0.6234(6) 0.6031(5) 0.6043(3)
C8 C 0.4598(6) 0.7061(5) 0.7398(3)
H7 H 0.4084 0.6899 0.8009
C9 C 0.5562(6) 0.5730(5) 0.6952(3)
C10 C 0.8010(6) 0.4748(5) 0.8369(3)
H8 H 0.9207 0.4094 0.8073
H9 H 0.7852 0.5839 0.8038
C11 C 0.4378(6) 0.8603(5) 0.6969(3)
H10 H 0.3739 0.9493 0.7289
C12 C 0.8767(6) 0.3171(5) 0.4615(3)
C13 C 0.7877(6) 0.3229(5) 0.6037(3)
C14 C 0.9957(7) 0.1091(5) 0.8860(3)
H11 H 1.1055 0.0334 0.8639
C15 C 0.5995(6) 0.7564(5) 0.5602(3)
H12 H 0.6447 0.7731 0.4984
C16 C 0.8909(6) 0.2228(5) 0.5424(3)
H13 H 0.9567 0.1149 0.5522
C17 C 1.0289(6) 0.2235(5) 0.9474(3)
H14 H 1.1267 0.2906 0.9155
H15 H 1.0829 0.1593 0.9982
C18 C 0.5076(7) 0.8865(5) 0.6078(3)
H16 H 0.4932 0.9936 0.5789
C19 C 0.4038(6) 0.3218(5) 0.7394(3)
H17 H 0.4133 0.2180 0.7778
H18 H 0.2853 0.3939 0.7651
C20 C 0.9560(7) 0.2657(6) 0.3710(3)
H19 H 0.8845 0.3355 0.3278
H20 H 0.9406 0.1527 0.3699
H21 H 1.0951 0.2752 0.3561
C21 C 0.8042(8) -0.0268(6) 0.8087(3)
H22 H 0.6996 -0.0839 0.8416
H23 H 0.9267 -0.1035 0.7996
H24 H 0.7700 0.0211 0.7513
loop_
_geom_bond_atom_site_label_1
_geom_bond_atom_site_label_2
_geom_bond_site_symmetry_1
_geom_bond_site_symmetry_2
O1 C1 1_555 1_555
O2 C3 1_555 1_555
O3 H1 1_555 1_555
O4 H2 1_555 1_555
N1 N2 1_555 1_555
N2 C12 1_555 1_555
C1 C2 1_555 1_555
C2 H3 1_555 1_555
C3 O3 1_555 1_555
C4 C6 1_555 1_555
C5 C3 1_555 1_555
H4 C5 1_555 1_555
H5 C5 1_555 1_555
C6 C2 1_555 1_555
H6 C6 1_555 1_555
C7 N1 1_555 1_555
C8 H7 1_555 1_555
C9 C1 1_555 1_555
C10 O2 1_555 1_555
H8 C10 1_555 1_555
H9 C10 1_555 1_555
C11 C8 1_555 1_555
H10 C11 1_555 1_555
C12 C16 1_555 1_555
C13 O1 1_555 1_555
C14 C4 1_555 1_555
H11 C14 1_555 1_555
C15 C7 1_555 1_555
H12 C15 1_555 1_555
C16 C13 1_555 1_555
H13 C16 1_555 1_555
C17 C3 1_555 1_555
H14 C17 1_555 1_555
H15 C17 1_555 1_555
C18 C11 1_555 1_555
H16 C18 1_555 1_555
C19 O4 1_555 1_555
H17 C19 1_555 1_555
H18 C19 1_555 1_555
C20 C12 1_555 1_555
H19 C20 1_555 1_555
H20 C20 1_555 1_555
H21 C20 1_555 1_555
C21 C4 1_555 1_555
H22 C21 1_555 1_555
H23 C21 1_555 1_555
H24 C21 1_555 1_555
N1 C13 1_555 1_555
C1 C19 1_555 1_555
C2 C10 1_555 1_555
C5 C6 1_555 1_555
C7 C9 1_555 1_555
C8 C9 1_555 1_555
C14 C17 1_555 1_555
C15 C18 1_555 1_555

#END
