
#######################################################################
#
#                 Cambridge Crystallographic Data Centre
#                                CCDC 
#
#######################################################################
#
# If this CIF has been generated from an entry in the Cambridge 
# Structural Database, then it will include bibliographic, chemical, 
# crystal, experimental, refinement or atomic coordinate data resulting 
# from the CCDC's data processing and validation procedures.
#
#######################################################################

data_TIGNAB
_chemical_formula_moiety         'C21 H22 N2 O3'
_chemical_name_systematic        
3-(2,5-dimethyl-5H-pyrazolo[1,5-a][3,1]benzoxazin-5-yl)-7a-methyl-2,3,3a,7a-tetrahydro-1-benzofuran-5(4H)-one
_symmetry_cell_setting           orthorhombic
_symmetry_space_group_name_H-M   'P c a 21'
_symmetry_Int_Tables_number      29
_space_group_name_Hall           'P 2c -2ac'
loop_
_symmetry_equiv_pos_site_id
_symmetry_equiv_pos_as_xyz
1 x,y,z
2 -x,-y,1/2+z
3 1/2+x,-y,z
4 1/2-x,y,1/2+z
_cell_length_a                   23.7406(11)
_cell_length_b                   7.0862(4)
_cell_length_c                   20.4335(11)
_cell_angle_alpha                90
_cell_angle_beta                 90
_cell_angle_gamma                90
_cell_volume                     3437.54
_exptl_crystal_colour            colorless
_exptl_crystal_description       block
_cell_formula_units_Z            8
loop_
_atom_site_label
_atom_site_type_symbol
_atom_site_fract_x
_atom_site_fract_y
_atom_site_fract_z
O1 O 0.68597(10) 0.5440(4) 0.26423(12)
O2 O 0.77355(10) 0.2200(4) 0.34629(14)
N1 N 0.58896(12) 0.6036(4) 0.25716(16)
O3 O 0.86152(14) 0.8307(5) 0.45921(18)
N2 N 0.54618(12) 0.6230(5) 0.21151(15)
C1 C 0.63178(15) 0.5814(5) 0.16152(19)
H1 H 0.6593 0.5680 0.1281
C2 C 0.62927(15) 0.5891(5) 0.36299(18)
C3 C 0.63944(14) 0.5782(5) 0.22782(18)
C4 C 0.69511(16) 0.8378(5) 0.3228(2)
H2 H 0.7300 0.8597 0.2984
H3 H 0.6981 0.8960 0.3662
H4 H 0.6634 0.8937 0.2991
C5 C 0.54059(17) 0.6203(6) 0.0916(2)
H5 H 0.5381 0.4942 0.0722
H6 H 0.5600 0.7055 0.0613
H7 H 0.5026 0.6682 0.1002
C6 C 0.84055(16) 0.3466(6) 0.4213(2)
H8 H 0.8451 0.2269 0.4415
C7 C 0.57277(15) 0.6097(5) 0.15449(19)
C8 C 0.79273(14) 0.5423(5) 0.33457(17)
H9 H 0.7884 0.5508 0.2860
C9 C 0.58039(15) 0.5888(5) 0.32466(19)
C10 C 0.52199(17) 0.5523(6) 0.4184(2)
H10 H 0.4857 0.5419 0.4376
C11 C 0.81962(15) 0.3515(5) 0.35191(19)
C12 C 0.56943(16) 0.5483(6) 0.4580(2)
H11 H 0.5656 0.5322 0.5039
C13 C 0.84838(15) 0.6906(6) 0.4282(2)
C14 C 0.52711(16) 0.5713(6) 0.3517(2)
H12 H 0.4946 0.5723 0.3245
C15 C 0.68556(14) 0.6265(5) 0.33034(17)
C16 C 0.82963(15) 0.7067(6) 0.3581(2)
H13 H 0.8634 0.7143 0.3298
H14 H 0.8083 0.8258 0.3528
C17 C 0.62266(16) 0.5678(5) 0.43036(19)
H15 H 0.6550 0.5666 0.4578
C18 C 0.73391(14) 0.5260(5) 0.36579(17)
H16 H 0.7362 0.5781 0.4112
C19 C 0.72433(16) 0.3119(5) 0.37105(19)
H17 H 0.7179 0.2758 0.4173
H18 H 0.6909 0.2746 0.3452
C20 C 0.86532(16) 0.2863(6) 0.3058(2)
H19 H 0.8770 0.1582 0.3177
H20 H 0.8977 0.3718 0.3089
H21 H 0.8509 0.2867 0.2608
C21 C 0.85305(16) 0.4993(7) 0.4561(2)
H22 H 0.8653 0.4849 0.5001
O4 O 0.66150(10) 1.2446(4) 0.63906(14)
O5 O 0.57513(10) 0.9349(4) 0.72979(12)
N3 N 0.43602(12) 0.8889(4) 0.78830(16)
N4 N 0.47768(12) 0.8883(5) 0.74128(15)
O6 O 0.73999(13) 0.6154(5) 0.53221(15)
C22 C 0.46769(15) 0.8884(5) 0.67362(18)
C23 C 0.52908(15) 0.9157(5) 0.76794(18)
C24 C 0.41407(16) 0.9031(6) 0.6478(2)
H23 H 0.3823 0.9120 0.6759
C25 C 0.46377(15) 0.9143(5) 0.84376(19)
C26 C 0.71597(15) 0.7552(6) 0.6341(2)
H24 H 0.7508 0.7511 0.6607
H25 H 0.6947 0.6377 0.6427
C27 C 0.50700(15) 0.8813(5) 0.56653(18)
H26 H 0.5385 0.8750 0.5380
C28 C 0.40703(16) 0.9046(6) 0.5811(2)
H27 H 0.3702 0.9120 0.5630
C29 C 0.73760(17) 0.9466(6) 0.5322(2)
H28 H 0.7497 0.9541 0.4879
C30 C 0.57313(14) 0.8438(5) 0.66527(17)
C31 C 0.68038(14) 0.9243(5) 0.65590(18)
H29 H 0.6772 0.9227 0.7047
C32 C 0.73183(15) 0.7616(6) 0.5625(2)
C33 C 0.70700(15) 1.1120(6) 0.6347(2)
C34 C 0.62038(14) 0.9374(5) 0.62609(18)
H30 H 0.6214 0.8782 0.5817
C35 C 0.51546(14) 0.8763(5) 0.63383(18)
C36 C 0.52281(15) 0.9303(5) 0.83420(19)
H31 H 0.5513 0.9472 0.8663
C37 C 0.58232(15) 0.6334(5) 0.6760(2)
H32 H 0.6164 0.6142 0.7022
H33 H 0.5867 0.5705 0.6336
H34 H 0.5498 0.5802 0.6990
C38 C 0.61145(15) 1.1509(5) 0.6173(2)
H35 H 0.6042 1.1805 0.5707
H36 H 0.5786 1.1934 0.6433
C39 C 0.43299(16) 0.9259(6) 0.90736(19)
H37 H 0.4259 1.0585 0.9182
H38 H 0.4558 0.8682 0.9419
H39 H 0.3970 0.8587 0.9037
C40 C 0.45313(16) 0.8956(6) 0.5403(2)
H40 H 0.4481 0.8990 0.4942
C41 C 0.75414(17) 1.1809(7) 0.6782(2)
H41 H 0.7674 1.3039 0.6626
H42 H 0.7853 1.0902 0.6770
H43 H 0.7403 1.1932 0.7232
C42 C 0.72657(16) 1.1051(6) 0.5643(2)
H44 H 0.7312 1.2212 0.5417
loop_
_geom_bond_atom_site_label_1
_geom_bond_atom_site_label_2
_geom_bond_site_symmetry_1
_geom_bond_site_symmetry_2
O1 C3 1_555 1_555
O2 C11 1_555 1_555
N1 N2 1_555 1_555
O3 C13 1_555 1_555
N2 C7 1_555 1_555
C1 H1 1_555 1_555
C2 C9 1_555 1_555
C3 N1 1_555 1_555
C4 H2 1_555 1_555
H3 C4 1_555 1_555
H4 C4 1_555 1_555
C5 H5 1_555 1_555
H6 C5 1_555 1_555
H7 C5 1_555 1_555
C6 H8 1_555 1_555
C7 C1 1_555 1_555
C8 H9 1_555 1_555
C9 N1 1_555 1_555
C10 H10 1_555 1_555
C11 C6 1_555 1_555
C12 C10 1_555 1_555
H11 C12 1_555 1_555
C13 C16 1_555 1_555
C14 C9 1_555 1_555
H12 C14 1_555 1_555
C15 O1 1_555 1_555
C16 C8 1_555 1_555
H13 C16 1_555 1_555
H14 C16 1_555 1_555
C17 C2 1_555 1_555
H15 C17 1_555 1_555
C18 C8 1_555 1_555
H16 C18 1_555 1_555
C19 O2 1_555 1_555
H17 C19 1_555 1_555
H18 C19 1_555 1_555
C20 C11 1_555 1_555
H19 C20 1_555 1_555
H20 C20 1_555 1_555
H21 C20 1_555 1_555
C21 C6 1_555 1_555
H22 C21 1_555 1_555
O4 C33 1_555 1_555
O5 C23 1_555 1_555
N3 N4 1_555 1_555
N4 C22 1_555 1_555
O6 C32 1_555 1_555
C22 C24 1_555 1_555
C23 N4 1_555 1_555
C24 H23 1_555 1_555
C25 N3 1_555 1_555
C26 H24 1_555 1_555
H25 C26 1_555 1_555
C27 H26 1_555 1_555
C28 C24 1_555 1_555
H27 C28 1_555 1_555
C29 H28 1_555 1_555
C30 O5 1_555 1_555
C31 C26 1_555 1_555
H29 C31 1_555 1_555
C32 C26 1_555 1_555
C33 C31 1_555 1_555
C34 C30 1_555 1_555
H30 C34 1_555 1_555
C35 C22 1_555 1_555
C36 C23 1_555 1_555
H31 C36 1_555 1_555
C37 C30 1_555 1_555
H32 C37 1_555 1_555
H33 C37 1_555 1_555
H34 C37 1_555 1_555
C38 O4 1_555 1_555
H35 C38 1_555 1_555
H36 C38 1_555 1_555
C39 C25 1_555 1_555
H37 C39 1_555 1_555
H38 C39 1_555 1_555
H39 C39 1_555 1_555
C40 C27 1_555 1_555
H40 C40 1_555 1_555
C41 C33 1_555 1_555
H41 C41 1_555 1_555
H42 C41 1_555 1_555
H43 C41 1_555 1_555
C42 C29 1_555 1_555
H44 C42 1_555 1_555
C1 C3 1_555 1_555
C2 C15 1_555 1_555
C4 C15 1_555 1_555
C5 C7 1_555 1_555
C8 C11 1_555 1_555
C10 C14 1_555 1_555
C12 C17 1_555 1_555
C13 C21 1_555 1_555
C15 C18 1_555 1_555
C18 C19 1_555 1_555
C25 C36 1_555 1_555
C27 C35 1_555 1_555
C28 C40 1_555 1_555
C29 C32 1_555 1_555
C30 C35 1_555 1_555
C31 C34 1_555 1_555
C33 C42 1_555 1_555
C34 C38 1_555 1_555

#END
