
#######################################################################
#
#                 Cambridge Crystallographic Data Centre
#                                CCDC 
#
#######################################################################
#
# If this CIF has been generated from an entry in the Cambridge 
# Structural Database, then it will include bibliographic, chemical, 
# crystal, experimental, refinement or atomic coordinate data resulting 
# from the CCDC's data processing and validation procedures.
#
#######################################################################

data_TIGQUW
_chemical_formula_moiety         'H4 N1 1+,C6 H5 O4 S1 1-'
_chemical_name_systematic        'Ammonium 4-hydroxybenzenesulfonate'
_symmetry_cell_setting           monoclinic
_symmetry_space_group_name_H-M   'P 21/c'
_symmetry_Int_Tables_number      14
_space_group_name_Hall           '-P 2ybc'
loop_
_symmetry_equiv_pos_site_id
_symmetry_equiv_pos_as_xyz
1 x,y,z
2 -x,1/2+y,1/2-z
3 -x,-y,-z
4 x,1/2-y,1/2+z
_cell_length_a                   10.227(2)
_cell_length_b                   7.1414(13)
_cell_length_c                   11.461(2)
_cell_angle_alpha                90
_cell_angle_beta                 100.163(4)
_cell_angle_gamma                90
_cell_volume                     823.922
_exptl_crystal_colour            colorless
_exptl_crystal_description       block
_cell_formula_units_Z            4
_exptl_crystal_recrystallization_method acetone
loop_
_atom_site_label
_atom_site_type_symbol
_atom_site_fract_x
_atom_site_fract_y
_atom_site_fract_z
S1 S 0.81650(4) 0.20307(6) 0.62303(3)
O1 O 0.25361(12) 0.3946(2) 0.60586(11)
H1 H 0.2415 0.4491 0.6660
O2 O 0.82941(12) 0.1392(2) 0.50524(11)
O3 O 0.83397(12) 0.04653(17) 0.70710(11)
O4 O 0.90302(12) 0.35765(19) 0.66613(12)
C1 C 0.38589(16) 0.3607(2) 0.61239(14)
C2 C 0.42366(17) 0.2668(2) 0.51755(15)
H2 H 0.3600 0.2316 0.4530
C3 C 0.55608(16) 0.2257(2) 0.51934(14)
H3 H 0.5815 0.1626 0.4560
C4 C 0.65111(16) 0.2784(2) 0.61549(14)
C5 C 0.61402(17) 0.3763(2) 0.70918(14)
H4 H 0.6780 0.4140 0.7729
C6 C 0.48144(17) 0.4175(2) 0.70732(14)
H5 H 0.4563 0.4833 0.7698
N1 N 0.95300(15) 0.7327(2) 0.59472(14)
H6 H 1.0222(13) 0.765(3) 0.5683(17)
H7 H 0.8939(15) 0.717(3) 0.5336(12)
H8 H 0.959(2) 0.6279(17) 0.6300(15)
H9 H 0.9321(19) 0.817(2) 0.6380(14)
loop_
_geom_bond_atom_site_label_1
_geom_bond_atom_site_label_2
_geom_bond_site_symmetry_1
_geom_bond_site_symmetry_2
S1 O2 1_555 1_555
O1 H1 1_555 1_555
O3 S1 1_555 1_555
O4 S1 1_555 1_555
C1 O1 1_555 1_555
C2 C1 1_555 1_555
H2 C2 1_555 1_555
C3 C2 1_555 1_555
H3 C3 1_555 1_555
C4 S1 1_555 1_555
C5 C4 1_555 1_555
H4 C5 1_555 1_555
C6 C1 1_555 1_555
H5 C6 1_555 1_555
N1 H6 1_555 1_555
H7 N1 1_555 1_555
H8 N1 1_555 1_555
H9 N1 1_555 1_555
C3 C4 1_555 1_555
C5 C6 1_555 1_555

#END
