
#######################################################################
#
#                 Cambridge Crystallographic Data Centre
#                                CCDC 
#
#######################################################################
#
# If this CIF has been generated from an entry in the Cambridge 
# Structural Database, then it will include bibliographic, chemical, 
# crystal, experimental, refinement or atomic coordinate data resulting 
# from the CCDC's data processing and validation procedures.
#
#######################################################################

data_TIGTOU
_chemical_formula_moiety         'C10 H15 O4 S1 1-,C6 H4 Br1 N2 1+'
_chemical_name_systematic        
'4-Bromobenzenediazonium (7,7-dimethyl-2-oxobicyclo[2.2.1]hept-1-yl)methanesulfonate'
_symmetry_cell_setting           monoclinic
_symmetry_space_group_name_H-M   'P 21'
_symmetry_Int_Tables_number      4
_space_group_name_Hall           'P 2yb'
loop_
_symmetry_equiv_pos_site_id
_symmetry_equiv_pos_as_xyz
1 x,y,z
2 -x,1/2+y,-z
_cell_length_a                   10.569(2)
_cell_length_b                   7.8620(16)
_cell_length_c                   11.470(2)
_cell_angle_alpha                90
_cell_angle_beta                 108.66(3)
_cell_angle_gamma                90
_cell_volume                     902.982
_exptl_crystal_colour            colorless
_exptl_crystal_description       Rhombohedral
_cell_formula_units_Z            2
loop_
_atom_site_label
_atom_site_type_symbol
_atom_site_fract_x
_atom_site_fract_y
_atom_site_fract_z
Br1 Br 0.34473(7) 0.0700(3) 0.41001(6)
N1 N 0.5903(6) 0.0704(19) 0.9590(6)
N2 N 0.6383(6) 0.071(2) 1.0581(6)
C1 C 0.4155(7) 0.071(2) 0.5837(6)
C2 C 0.4366(15) 0.2290(17) 0.6474(12)
H1 H 0.4100 0.3329 0.6042
C3 C 0.4495(14) -0.0809(17) 0.6433(12)
H2 H 0.4330 -0.1841 0.5978
C4 C 0.5072(16) -0.0847(16) 0.7684(14)
H3 H 0.5318 -0.1885 0.8123
C5 C 0.4967(15) 0.2280(18) 0.7741(11)
H4 H 0.5144 0.3312 0.8196
C6 C 0.5288(7) 0.079(2) 0.8301(6)
S1 S 0.29190(16) 0.0692(6) 0.01882(14)
O1 O 0.3296(11) 0.2242(13) -0.0301(9)
O2 O 0.3300(5) 0.0723(17) 0.1553(5)
O3 O 0.3404(11) -0.0828(11) -0.0241(10)
O4 O -0.1644(6) 0.0957(19) -0.0884(6)
C7 C 0.1140(7) 0.058(2) -0.0274(6)
H5 H 0.0907 -0.0560 -0.0037
H6 H 0.0843 0.1416 0.0229
C8 C 0.0292(8) 0.0871(18) -0.1616(7)
C9 C 0.0419(11) 0.2645(15) -0.2189(9)
H7 H -0.0015 0.3544 -0.1846
H8 H 0.1368 0.2951 -0.2028
C10 C 0.0272(9) -0.0379(15) -0.2669(8)
C11 C -0.0058(11) -0.2209(16) -0.2416(10)
H9 H -0.0881 -0.2221 -0.2196
H10 H 0.0677 -0.2677 -0.1735
H11 H -0.0182 -0.2901 -0.3155
C12 C 0.1568(10) -0.0427(18) -0.3008(8)
H12 H 0.1807 0.0730 -0.3177
H13 H 0.1433 -0.1135 -0.3741
H14 H 0.2290 -0.0908 -0.2321
C13 C -0.0308(12) 0.2421(18) -0.3596(9)
H15 H 0.0322 0.2513 -0.4072
H16 H -0.1033 0.3265 -0.3908
C14 C -0.0874(8) 0.058(3) -0.3644(7)
H17 H -0.1148 0.0048 -0.4481
C15 C -0.1192(8) 0.075(3) -0.1712(8)
C16 C -0.1991(7) 0.068(3) -0.3065(8)
H18 H -0.2545 0.1708 -0.3334
H19 H -0.2571 -0.0344 -0.3261
loop_
_geom_bond_atom_site_label_1
_geom_bond_atom_site_label_2
_geom_bond_site_symmetry_1
_geom_bond_site_symmetry_2
Br1 C1 1_555 1_555
N1 N2 1_555 1_555
C1 C2 1_555 1_555
C2 H1 1_555 1_555
C3 C1 1_555 1_555
H2 C3 1_555 1_555
C4 C3 1_555 1_555
H3 C4 1_555 1_555
C5 C2 1_555 1_555
H4 C5 1_555 1_555
C6 N1 1_555 1_555
S1 O1 1_555 1_555
O2 S1 1_555 1_555
O3 S1 1_555 1_555
O4 C15 1_555 1_555
C7 S1 1_555 1_555
H5 C7 1_555 1_555
H6 C7 1_555 1_555
C8 C7 1_555 1_555
C9 C8 1_555 1_555
H7 C9 1_555 1_555
H8 C9 1_555 1_555
C10 C8 1_555 1_555
C11 C10 1_555 1_555
H9 C11 1_555 1_555
H10 C11 1_555 1_555
H11 C11 1_555 1_555
C12 C10 1_555 1_555
H12 C12 1_555 1_555
H13 C12 1_555 1_555
H14 C12 1_555 1_555
C13 C9 1_555 1_555
H15 C13 1_555 1_555
H16 C13 1_555 1_555
C14 C10 1_555 1_555
H17 C14 1_555 1_555
C15 C8 1_555 1_555
C16 C14 1_555 1_555
H18 C16 1_555 1_555
H19 C16 1_555 1_555
C4 C6 1_555 1_555
C5 C6 1_555 1_555
C13 C14 1_555 1_555
C15 C16 1_555 1_555

#END
