
#######################################################################
#
#                 Cambridge Crystallographic Data Centre
#                                CCDC 
#
#######################################################################
#
# If this CIF has been generated from an entry in the Cambridge 
# Structural Database, then it will include bibliographic, chemical, 
# crystal, experimental, refinement or atomic coordinate data resulting 
# from the CCDC's data processing and validation procedures.
#
#######################################################################

data_TIGVOX
_chemical_formula_moiety         'C23 H22 N2 O6'
_chemical_name_systematic        
'dimethyl (1-benzyl-4-nitro-1,3,4,5-tetrahydrobenzo[cd]indol-5-yl)propanedioate'
_symmetry_cell_setting           orthorhombic
_symmetry_space_group_name_H-M   'P 21 21 21'
_symmetry_Int_Tables_number      19
_space_group_name_Hall           'P 2ac 2ab'
loop_
_symmetry_equiv_pos_site_id
_symmetry_equiv_pos_as_xyz
1 x,y,z
2 1/2-x,-y,1/2+z
3 1/2+x,1/2-y,-z
4 -x,1/2+y,1/2-z
_cell_length_a                   9.6235(6)
_cell_length_b                   13.3554(9)
_cell_length_c                   16.7938(9)
_cell_angle_alpha                90
_cell_angle_beta                 90
_cell_angle_gamma                90
_cell_volume                     2158.43
_exptl_crystal_colour            colorless
_exptl_crystal_description       block
_cell_formula_units_Z            4
loop_
_atom_site_label
_atom_site_type_symbol
_atom_site_fract_x
_atom_site_fract_y
_atom_site_fract_z
O1 O 0.1945(5) -0.3646(4) -0.2298(3)
O2 O 0.2142(5) -0.2103(4) -0.2079(3)
O3 O -0.3262(4) -0.0952(4) -0.0438(3)
O4 O -0.1273(4) -0.0141(3) -0.0605(3)
O5 O -0.0792(4) -0.1881(6) 0.0860(2)
O6 O 0.1080(4) -0.1638(3) 0.0144(2)
N1 N -0.2781(5) -0.3937(4) -0.3110(3)
N2 N 0.1599(5) -0.2902(5) -0.1957(3)
C1 C -0.1999(7) -0.4463(5) -0.2560(3)
H1 H -0.1954 -0.5157 -0.2530
C2 C -0.1311(6) -0.3828(4) -0.2073(3)
C3 C -0.1671(5) -0.2851(4) -0.2333(3)
C4 C -0.1252(5) -0.1935(4) -0.2026(3)
C5 C -0.1729(6) -0.1082(4) -0.2396(3)
H2 H -0.1451 -0.0455 -0.2216
C6 C -0.2642(7) -0.1165(5) -0.3048(3)
H3 H -0.2958 -0.0582 -0.3291
C7 C -0.3087(7) -0.2077(6) -0.3341(3)
H4 H -0.3703 -0.2115 -0.3767
C8 C -0.2580(6) -0.2931(5) -0.2978(3)
C9 C -0.3682(7) -0.4358(6) -0.3717(4)
H5 H -0.4622 -0.4117 -0.3633
H6 H -0.3693 -0.5081 -0.3664
C10 C -0.3228(6) -0.4088(5) -0.4549(3)
C11 C -0.1899(8) -0.4256(6) -0.4782(4)
H7 H -0.1274 -0.4543 -0.4427
C12 C -0.1475(11) -0.4014(7) -0.5520(5)
H8 H -0.0557 -0.4141 -0.5660
C13 C -0.2293(13) -0.3609(7) -0.6046(5)
H9 H -0.1945 -0.3442 -0.6545
C14 C -0.3648(11) -0.3427(6) -0.5874(5)
H10 H -0.4244 -0.3159 -0.6255
C15 C -0.4128(8) -0.3658(6) -0.5100(5)
H11 H -0.5044 -0.3522 -0.4959
C16 C -0.0306(5) -0.1980(4) -0.1296(3)
H12 H 0.0359 -0.1426 -0.1328
C17 C 0.0506(5) -0.2963(4) -0.1298(3)
H13 H 0.1003 -0.3007 -0.0790
C18 C -0.0338(6) -0.3930(4) -0.1392(3)
H14 H 0.0285 -0.4489 -0.1484
H15 H -0.0856 -0.4060 -0.0908
C19 C -0.1118(5) -0.1883(4) -0.0510(3)
H16 H -0.1699 -0.2478 -0.0437
C20 C -0.2039(6) -0.0958(5) -0.0513(3)
C21 C -0.2016(8) 0.0815(5) -0.0626(5)
H17 H -0.2637 0.0854 -0.0179
H18 H -0.2540 0.0861 -0.1111
H19 H -0.1360 0.1355 -0.0601
C22 C -0.0135(6) -0.1788(5) 0.0188(3)
C23 C 0.0079(7) -0.1837(11) 0.1576(4)
H20 H -0.0498 -0.1731 0.2035
H21 H 0.0729 -0.1295 0.1528
H22 H 0.0576 -0.2456 0.1635
loop_
_geom_bond_atom_site_label_1
_geom_bond_atom_site_label_2
_geom_bond_site_symmetry_1
_geom_bond_site_symmetry_2
O1 N2 1_555 1_555
O2 N2 1_555 1_555
O3 C20 1_555 1_555
O4 C20 1_555 1_555
O5 C22 1_555 1_555
O6 C22 1_555 1_555
N1 C1 1_555 1_555
N2 C17 1_555 1_555
C1 H1 1_555 1_555
C2 C1 1_555 1_555
C3 C2 1_555 1_555
C4 C3 1_555 1_555
C5 C4 1_555 1_555
H2 C5 1_555 1_555
C6 C5 1_555 1_555
H3 C6 1_555 1_555
C7 C6 1_555 1_555
H4 C7 1_555 1_555
C8 N1 1_555 1_555
C9 N1 1_555 1_555
H5 C9 1_555 1_555
H6 C9 1_555 1_555
C10 C9 1_555 1_555
C11 C10 1_555 1_555
H7 C11 1_555 1_555
C12 C11 1_555 1_555
H8 C12 1_555 1_555
C13 C12 1_555 1_555
H9 C13 1_555 1_555
C14 C13 1_555 1_555
H10 C14 1_555 1_555
C15 C10 1_555 1_555
H11 C15 1_555 1_555
C16 C4 1_555 1_555
H12 C16 1_555 1_555
C17 C16 1_555 1_555
H13 C17 1_555 1_555
C18 C2 1_555 1_555
H14 C18 1_555 1_555
H15 C18 1_555 1_555
C19 C16 1_555 1_555
H16 C19 1_555 1_555
C20 C19 1_555 1_555
C21 O4 1_555 1_555
H17 C21 1_555 1_555
H18 C21 1_555 1_555
H19 C21 1_555 1_555
C22 C19 1_555 1_555
C23 O5 1_555 1_555
H20 C23 1_555 1_555
H21 C23 1_555 1_555
H22 C23 1_555 1_555
C3 C8 1_555 1_555
C7 C8 1_555 1_555
C14 C15 1_555 1_555
C17 C18 1_555 1_555

#END
