
#######################################################################
#
#                 Cambridge Crystallographic Data Centre
#                                CCDC 
#
#######################################################################
#
# If this CIF has been generated from an entry in the Cambridge 
# Structural Database, then it will include bibliographic, chemical, 
# crystal, experimental, refinement or atomic coordinate data resulting 
# from the CCDC's data processing and validation procedures.
#
#######################################################################

data_TIGWOW
_chemical_formula_moiety         'C12 H11 Cl2 N5 O2'
_chemical_name_systematic        
'1-(3,4-Dichlorophenyl)-2-(1H-1,2,4-triazol-1-yl)ethyleneamino N-methylcarbamate'
_symmetry_cell_setting           triclinic
_symmetry_space_group_name_H-M   'P -1'
_symmetry_Int_Tables_number      2
_space_group_name_Hall           '-P 1'
loop_
_symmetry_equiv_pos_site_id
_symmetry_equiv_pos_as_xyz
1 x,y,z
2 -x,-y,-z
_cell_length_a                   6.016(2)
_cell_length_b                   8.430(2)
_cell_length_c                   14.721(4)
_cell_angle_alpha                101.501(4)
_cell_angle_beta                 100.057(4)
_cell_angle_gamma                93.977(4)
_cell_volume                     716.131
_exptl_crystal_colour            white
_exptl_crystal_description       block
_chemical_melting_point          '421-423 K'
_cell_formula_units_Z            2
loop_
_atom_site_label
_atom_site_type_symbol
_atom_site_fract_x
_atom_site_fract_y
_atom_site_fract_z
Cl1 Cl 1.29314(11) -0.19171(9) 0.01383(5)
Cl2 Cl 0.87282(14) -0.36122(8) 0.07119(6)
O1 O 0.5256(3) 0.19831(19) 0.37808(11)
O2 O 0.2410(3) 0.2024(2) 0.45331(12)
N1 N 0.6867(3) 0.4563(2) 0.29428(14)
N2 N 0.5955(4) 0.4215(2) 0.20095(15)
N3 N 0.4610(5) 0.6417(3) 0.27541(19)
N4 N 0.6348(3) 0.0963(2) 0.31413(13)
N5 N 0.3195(3) -0.0440(2) 0.37867(14)
H1 H 0.4090 -0.0934 0.3457
C1 C 1.1004(4) 0.1653(3) 0.19469(17)
H2 H 1.1468 0.2754 0.2195
C2 C 1.2155(4) 0.0786(3) 0.13105(17)
H3 H 1.3387 0.1304 0.1141
C3 C 1.1487(4) -0.0836(3) 0.09290(16)
C4 C 0.9628(4) -0.1587(3) 0.11822(17)
C5 C 0.8491(4) -0.0720(3) 0.18221(17)
H4 H 0.7253 -0.1238 0.1988
C6 C 0.9175(4) 0.0918(3) 0.22214(15)
C7 C 0.7949(4) 0.1808(3) 0.29180(15)
C8 C 0.8565(4) 0.3608(3) 0.33421(19)
H5 H 0.8673 0.3800 0.4021
H6 H 1.0037 0.3952 0.3220
C9 C 0.6048(5) 0.5866(3) 0.3364(2)
H7 H 0.6438 0.6330 0.4006
C10 C 0.4608(5) 0.5358(3) 0.1939(2)
H8 H 0.3718 0.5433 0.1368
C11 C 0.3497(4) 0.1160(3) 0.40575(16)
C12 C 0.1374(5) -0.1376(3) 0.4038(2)
H9 H 0.1642 -0.1271 0.4710
H10 H 0.1316 -0.2501 0.3734
H11 H -0.0044 -0.0975 0.3835
loop_
_geom_bond_atom_site_label_1
_geom_bond_atom_site_label_2
_geom_bond_site_symmetry_1
_geom_bond_site_symmetry_2
Cl1 C3 1_555 1_555
Cl2 C4 1_555 1_555
O1 N4 1_555 1_555
O2 C11 1_555 1_555
N1 N2 1_555 1_555
N2 C10 1_555 1_555
N3 C9 1_555 1_555
N4 C7 1_555 1_555
N5 H1 1_555 1_555
C1 H2 1_555 1_555
C2 C1 1_555 1_555
H3 C2 1_555 1_555
C3 C2 1_555 1_555
C4 C3 1_555 1_555
C5 C4 1_555 1_555
H4 C5 1_555 1_555
C6 C1 1_555 1_555
C7 C6 1_555 1_555
C8 N1 1_555 1_555
H5 C8 1_555 1_555
H6 C8 1_555 1_555
C9 N1 1_555 1_555
H7 C9 1_555 1_555
C10 N3 1_555 1_555
H8 C10 1_555 1_555
C11 O1 1_555 1_555
C12 N5 1_555 1_555
H9 C12 1_555 1_555
H10 C12 1_555 1_555
H11 C12 1_555 1_555
N5 C11 1_555 1_555
C5 C6 1_555 1_555
C7 C8 1_555 1_555

#END
