
#######################################################################
#
#                 Cambridge Crystallographic Data Centre
#                                CCDC 
#
#######################################################################
#
# If this CIF has been generated from an entry in the Cambridge 
# Structural Database, then it will include bibliographic, chemical, 
# crystal, experimental, refinement or atomic coordinate data resulting 
# from the CCDC's data processing and validation procedures.
#
#######################################################################

data_TIGWEM
_chemical_formula_moiety         'C18 H15 N5 O1 S1'
_chemical_name_systematic        
5-(3-Methyl-5-phenoxy-1-phenylpyrazol-4-yl)-1,3,4-thiadiazol-2-amine
_symmetry_cell_setting           monoclinic
_symmetry_space_group_name_H-M   'P 21/c'
_symmetry_Int_Tables_number      14
_space_group_name_Hall           '-P 2ybc'
loop_
_symmetry_equiv_pos_site_id
_symmetry_equiv_pos_as_xyz
1 x,y,z
2 -x,1/2+y,1/2-z
3 -x,-y,-z
4 x,1/2-y,1/2+z
_cell_length_a                   20.2987(5)
_cell_length_b                   9.6934(3)
_cell_length_c                   19.0726(6)
_cell_angle_alpha                90
_cell_angle_beta                 114.8460(10)
_cell_angle_gamma                90
_cell_volume                     3405.43
_exptl_crystal_colour            colorless
_exptl_crystal_description       block
_chemical_melting_point          '498 K'
_cell_formula_units_Z            8
_exptl_crystal_recrystallization_method ethanol
loop_
_atom_site_label
_atom_site_type_symbol
_atom_site_fract_x
_atom_site_fract_y
_atom_site_fract_z
S1 S 0.430303(16) 0.79622(3) 0.268570(16)
O1 O 0.52710(4) 0.88205(9) 0.18168(5)
N1 N 0.33984(6) 0.79945(13) 0.34137(6)
H1 H 0.2967 0.7916 0.3416
H2 H 0.3779 0.8193 0.3844
N2 N 0.29285(6) 0.75129(12) 0.20940(6)
N3 N 0.31332(5) 0.73761(11) 0.14935(6)
N4 N 0.43532(5) 0.68631(11) 0.01202(6)
N5 N 0.49192(5) 0.76583(11) 0.06123(6)
C1 C 0.58095(6) 0.93578(13) 0.06074(7)
H5 H 0.5691 0.9941 0.0938
C2 C 0.63228(7) 0.97676(15) 0.03447(8)
H6 H 0.6565 1.0627 0.0506
C3 C 0.64825(8) 0.89297(16) -0.01502(9)
H7 H 0.6829 0.9219 -0.0333
C4 C 0.61364(9) 0.76660(17) -0.03796(10)
H8 H 0.6242 0.7099 -0.0726
C5 C 0.56374(8) 0.72254(15) -0.01070(8)
H9 H 0.5412 0.6348 -0.0251
C6 C 0.54718(6) 0.80857(13) 0.03806(7)
C7 C 0.32015(7) 0.59679(14) 0.00612(7)
H10 H 0.3224 0.5393 -0.0351
H11 H 0.2798 0.6622 -0.0161
H12 H 0.3126 0.5380 0.0439
C8 C 0.38972(6) 0.67421(12) 0.04516(6)
C9 C 0.41636(6) 0.74462(12) 0.11713(6)
C10 C 0.48134(6) 0.80017(12) 0.12464(6)
C11 C 0.59244(6) 0.82460(12) 0.23525(6)
C12 C 0.60255(7) 0.68515(13) 0.25028(8)
H13 H 0.5653 0.6208 0.2227
C13 C 0.66881(8) 0.64136(15) 0.30706(8)
H14 H 0.6770 0.5457 0.3182
C14 C 0.72283(7) 0.73517(15) 0.34745(8)
H15 H 0.7677 0.7042 0.3864
C15 C 0.71116(7) 0.87414(15) 0.33085(8)
H16 H 0.7482 0.9389 0.3583
C16 C 0.64566(7) 0.91945(13) 0.27442(7)
H17 H 0.6376 1.0150 0.2629
C17 C 0.38236(6) 0.75766(12) 0.17010(6)
C18 C 0.34753(7) 0.78104(12) 0.27530(7)
S2 S 0.053694(17) 0.72302(4) 0.263009(18)
O2 O -0.04172(5) 0.82952(9) 0.34655(5)
N6 N 0.14095(6) 0.71887(15) 0.18704(7)
H3 H 0.1835 0.7101 0.1857
H4 H 0.1017 0.7308 0.1439
N7 N 0.19232(6) 0.69641(13) 0.32166(6)
N8 N 0.17298(6) 0.68692(12) 0.38289(6)
N9 N 0.05654(5) 0.67127(12) 0.52749(6)
N10 N -0.00125(5) 0.74338(12) 0.47454(6)
C19 C -0.08683(7) 0.92639(14) 0.46842(8)
H18 H -0.0778 0.9722 0.4293
C20 C -0.13382(7) 0.98335(16) 0.49647(8)
H19 H -0.1574 1.0683 0.4760
C21 C -0.14653(8) 0.9176(2) 0.55371(9)
H20 H -0.1782 0.9578 0.5731
C22 C -0.11300(8) 0.7928(2) 0.58291(9)
H21 H -0.1219 0.7475 0.6223
C23 C -0.06649(7) 0.73330(17) 0.55515(8)
H22 H -0.0440 0.6471 0.5747
C24 C -0.05322(6) 0.80151(14) 0.49835(7)
C25 C 0.16923(7) 0.56799(15) 0.53478(8)
H23 H 0.1701 0.5290 0.5826
H24 H 0.2101 0.6317 0.5473
H25 H 0.1731 0.4934 0.5020
C26 C 0.09973(6) 0.64382(13) 0.49282(7)
C27 C 0.07052(6) 0.69711(13) 0.41642(7)
C28 C 0.00615(6) 0.75820(13) 0.40755(7)
C29 C -0.10629(6) 0.76360(14) 0.29741(7)
C30 C -0.11821(7) 0.62435(15) 0.29970(9)
H26 H -0.0826 0.5666 0.3365
C31 C -0.18401(9) 0.57004(19) 0.24642(10)
H27 H -0.1932 0.4741 0.2471
C32 C -0.23534(8) 0.6529(2) 0.19326(9)
H28 H -0.2797 0.6145 0.1571
C33 C -0.22249(8) 0.7914(2) 0.19243(9)
H29 H -0.2583 0.8489 0.1557
C34 C -0.15764(8) 0.84882(17) 0.24470(8)
H30 H -0.1489 0.9450 0.2441
C35 C 0.10357(6) 0.69930(13) 0.36219(7)
C36 C 0.13585(7) 0.71394(14) 0.25529(7)
loop_
_geom_bond_atom_site_label_1
_geom_bond_atom_site_label_2
_geom_bond_site_symmetry_1
_geom_bond_site_symmetry_2
S1 C17 1_555 1_555
S2 C35 1_555 1_555
O1 C10 1_555 1_555
O2 C28 1_555 1_555
N1 H1 1_555 1_555
H2 N1 1_555 1_555
N2 N3 1_555 1_555
N3 C17 1_555 1_555
N4 N5 1_555 1_555
N5 C6 1_555 1_555
N6 H3 1_555 1_555
H4 N6 1_555 1_555
N7 N8 1_555 1_555
N8 C35 1_555 1_555
N9 N10 1_555 1_555
N10 C24 1_555 1_555
C1 H5 1_555 1_555
C2 C1 1_555 1_555
H6 C2 1_555 1_555
C3 C2 1_555 1_555
H7 C3 1_555 1_555
C4 C3 1_555 1_555
H8 C4 1_555 1_555
C5 C4 1_555 1_555
H9 C5 1_555 1_555
C6 C1 1_555 1_555
C7 H10 1_555 1_555
H11 C7 1_555 1_555
H12 C7 1_555 1_555
C8 N4 1_555 1_555
C9 C8 1_555 1_555
C10 N5 1_555 1_555
C11 O1 1_555 1_555
C12 C11 1_555 1_555
H13 C12 1_555 1_555
C13 C12 1_555 1_555
H14 C13 1_555 1_555
C14 C13 1_555 1_555
H15 C14 1_555 1_555
C15 C14 1_555 1_555
H16 C15 1_555 1_555
C16 C11 1_555 1_555
H17 C16 1_555 1_555
C17 C9 1_555 1_555
C18 S1 1_555 1_555
C19 H18 1_555 1_555
C20 C19 1_555 1_555
H19 C20 1_555 1_555
C21 C20 1_555 1_555
H20 C21 1_555 1_555
C22 C21 1_555 1_555
H21 C22 1_555 1_555
C23 C22 1_555 1_555
H22 C23 1_555 1_555
C24 C19 1_555 1_555
C25 H23 1_555 1_555
H24 C25 1_555 1_555
H25 C25 1_555 1_555
C26 N9 1_555 1_555
C27 C26 1_555 1_555
C28 N10 1_555 1_555
C29 O2 1_555 1_555
C30 C29 1_555 1_555
H26 C30 1_555 1_555
C31 C30 1_555 1_555
H27 C31 1_555 1_555
C32 C31 1_555 1_555
H28 C32 1_555 1_555
C33 C32 1_555 1_555
H29 C33 1_555 1_555
C34 C29 1_555 1_555
H30 C34 1_555 1_555
C35 C27 1_555 1_555
C36 S2 1_555 1_555
N1 C18 1_555 1_555
N2 C18 1_555 1_555
N6 C36 1_555 1_555
N7 C36 1_555 1_555
C5 C6 1_555 1_555
C7 C8 1_555 1_555
C9 C10 1_555 1_555
C15 C16 1_555 1_555
C23 C24 1_555 1_555
C25 C26 1_555 1_555
C27 C28 1_555 1_555
C33 C34 1_555 1_555

#END
