
#######################################################################
#
#                 Cambridge Crystallographic Data Centre
#                                CCDC 
#
#######################################################################
#
# If this CIF has been generated from an entry in the Cambridge 
# Structural Database, then it will include bibliographic, chemical, 
# crystal, experimental, refinement or atomic coordinate data resulting 
# from the CCDC's data processing and validation procedures.
#
#######################################################################

data_TIGZUF
_chemical_formula_moiety         'C19 H21 N3 O2'
_chemical_name_systematic        
4-((Z)-(n-Butylamino)(2-furyl)methylene)-3-methyl-1-phenyl-1H-pyrazol-5(4H)-one
_symmetry_cell_setting           orthorhombic
_symmetry_space_group_name_H-M   'P b c a'
_symmetry_Int_Tables_number      61
_space_group_name_Hall           '-P 2ac 2ab'
loop_
_symmetry_equiv_pos_site_id
_symmetry_equiv_pos_as_xyz
1 x,y,z
2 1/2-x,-y,1/2+z
3 -x,1/2+y,1/2-z
4 1/2+x,1/2-y,-z
5 -x,-y,-z
6 1/2+x,y,1/2-z
7 x,1/2-y,1/2+z
8 1/2-x,1/2+y,z
_cell_length_a                   15.1910(6)
_cell_length_b                   14.5509(6)
_cell_length_c                   15.4249(6)
_cell_angle_alpha                90
_cell_angle_beta                 90
_cell_angle_gamma                90
_cell_volume                     3409.56
_exptl_crystal_colour            green
_exptl_crystal_description       block
_cell_formula_units_Z            8
_exptl_crystal_recrystallization_method ethanol
loop_
_atom_site_label
_atom_site_type_symbol
_atom_site_fract_x
_atom_site_fract_y
_atom_site_fract_z
O1 O 0.06704(8) 0.13250(9) 0.41864(8)
N1 N 0.25340(9) 0.11806(10) 0.55284(9)
C1 C 0.10515(10) 0.11395(11) 0.57046(11)
O2 O 0.03838(8) 0.17852(8) 0.74500(8)
N2 N 0.21209(9) 0.13090(9) 0.47231(9)
N3 N -0.04887(9) 0.10498(10) 0.55306(11)
C2 C 0.00469(10) 0.10627(11) 0.69884(11)
C3 C -0.20167(11) 0.12292(12) 0.50373(11)
H1 H -0.1901 0.0783 0.4584
H2 H -0.1898 0.1836 0.4805
C4 C 0.02069(10) 0.10832(11) 0.60525(11)
C5 C 0.26506(11) 0.14257(11) 0.39802(11)
C6 C -0.29717(11) 0.11681(13) 0.53097(12)
H3 H -0.3089 0.1644 0.5735
H4 H -0.3070 0.0579 0.5588
C7 C 0.19055(10) 0.10845(11) 0.61015(11)
C8 C 0.12121(11) 0.12670(11) 0.47977(11)
C9 C 0.35621(12) 0.13823(13) 0.40621(13)
H5 H 0.3816 0.1276 0.4602
C10 C -0.14156(10) 0.10485(12) 0.57981(11)
H6 H -0.1507 0.1518 0.6236
H7 H -0.1560 0.0458 0.6053
C11 C 0.22899(13) 0.15950(13) 0.31758(12)
H8 H 0.1682 0.1632 0.3112
C12 C 0.01642(12) 0.16258(14) 0.82933(12)
H9 H 0.0306 0.2012 0.8753
C13 C -0.03612(12) 0.04813(14) 0.75253(13)
H10 H -0.0646 -0.0061 0.7372
C14 C 0.21496(12) 0.08888(14) 0.70213(11)
H11 H 0.2771 0.0776 0.7058
H12 H 0.1834 0.0357 0.7220
H13 H 0.2000 0.1408 0.7376
C15 C -0.36167(13) 0.12711(15) 0.45664(14)
H14 H -0.3558 0.1872 0.4316
H15 H -0.4206 0.1192 0.4778
H16 H -0.3495 0.0814 0.4133
C16 C 0.40876(14) 0.14969(15) 0.33424(14)
H17 H 0.4696 0.1466 0.3402
C17 C -0.02789(14) 0.08449(15) 0.83679(13)
H18 H -0.0494 0.0587 0.8877
C18 C 0.37335(14) 0.16551(14) 0.25431(14)
H19 H 0.4095 0.1724 0.2061
C19 C 0.28342(15) 0.17102(15) 0.24630(13)
H20 H 0.2587 0.1827 0.1922
H21 H -0.0361(12) 0.1030(12) 0.4967(13)
loop_
_geom_bond_atom_site_label_1
_geom_bond_atom_site_label_2
_geom_bond_site_symmetry_1
_geom_bond_site_symmetry_2
O1 C8 1_555 1_555
N1 N2 1_555 1_555
C1 C4 1_555 1_555
O2 C2 1_555 1_555
N2 C5 1_555 1_555
N3 C4 1_555 1_555
C2 C4 1_555 1_555
C3 H1 1_555 1_555
H2 C3 1_555 1_555
C5 C9 1_555 1_555
C6 C3 1_555 1_555
H3 C6 1_555 1_555
H4 C6 1_555 1_555
C7 N1 1_555 1_555
C8 C1 1_555 1_555
C9 H5 1_555 1_555
C10 N3 1_555 1_555
H6 C10 1_555 1_555
H7 C10 1_555 1_555
C11 C5 1_555 1_555
H8 C11 1_555 1_555
C12 O2 1_555 1_555
H9 C12 1_555 1_555
C13 C2 1_555 1_555
H10 C13 1_555 1_555
C14 C7 1_555 1_555
H11 C14 1_555 1_555
H12 C14 1_555 1_555
H13 C14 1_555 1_555
C15 C6 1_555 1_555
H14 C15 1_555 1_555
H15 C15 1_555 1_555
H16 C15 1_555 1_555
C16 C9 1_555 1_555
H17 C16 1_555 1_555
C17 C12 1_555 1_555
H18 C17 1_555 1_555
C18 C16 1_555 1_555
H19 C18 1_555 1_555
C19 C11 1_555 1_555
H20 C19 1_555 1_555
H21 N3 1_555 1_555
C1 C7 1_555 1_555
N2 C8 1_555 1_555
C3 C10 1_555 1_555
C13 C17 1_555 1_555
C18 C19 1_555 1_555

#END
