
#######################################################################
#
#                 Cambridge Crystallographic Data Centre
#                                CCDC 
#
#######################################################################
#
# If this CIF has been generated from an entry in the Cambridge 
# Structural Database, then it will include bibliographic, chemical, 
# crystal, experimental, refinement or atomic coordinate data resulting 
# from the CCDC's data processing and validation procedures.
#
#######################################################################

data_TIHDUM
_chemical_formula_moiety         'C66 H66 N2 O10,3(C3 H4 N2)'
_chemical_name_systematic        
'10,16,36,42-tetrabutoxy-28,50,54,56-tetraoxa-13,39-diazatridecacyclo[43.7.1.1^3,51^.1^23,27^.1^25,29^.0^2,7^.0^6,11^.0^15,20^.0^19,24^.0^32,37^.0^33,55^.0^41,46^.0^49,53^]hexapentaconta-2,4,6,8,10,15,17,19,21,23,29(55),30,32,34,36,41,43,45(53),46,48-icosaene-12,40-dione tris(1H-imidazole) unknown solvate'
_symmetry_cell_setting           monoclinic
_symmetry_space_group_name_H-M   'P 21/c'
_symmetry_Int_Tables_number      14
_space_group_name_Hall           '-P 2ybc'
loop_
_symmetry_equiv_pos_site_id
_symmetry_equiv_pos_as_xyz
1 x,y,z
2 -x,1/2+y,1/2-z
3 -x,-y,-z
4 x,1/2-y,1/2+z
_cell_length_a                   17.8845(7)
_cell_length_b                   15.4597(6)
_cell_length_c                   25.0685(9)
_cell_angle_alpha                90
_cell_angle_beta                 97.972(3)
_cell_angle_gamma                90
_cell_volume                     6864.18
_exptl_crystal_colour            yellow
_exptl_crystal_description       block
_cell_formula_units_Z            4
loop_
_atom_site_label
_atom_site_type_symbol
_atom_site_fract_x
_atom_site_fract_y
_atom_site_fract_z
C1 C 0.9121(4) 0.5809(4) 0.0284(2)
H1 H 0.9227 0.5805 -0.0097
C2 C 0.9851(4) 0.5815(4) 0.0637(2)
H2 H 1.0147 0.6331 0.0561
H3 H 1.0145 0.5292 0.0572
C3 C 0.9694(3) 0.5831(3) 0.1223(2)
H4 H 1.0176 0.5835 0.1478
C4 C 0.8735(3) 0.6916(3) 0.08575(19)
C5 C 0.9230(3) 0.6643(3) 0.12900(19)
C6 C 0.9239(3) 0.7110(3) 0.17881(19)
C7 C 0.9783(3) 0.6951(3) 0.2243(2)
H5 H 1.0175 0.6548 0.2213
C8 C 0.9764(3) 0.7357(3) 0.2726(2)
H6 H 1.0141 0.7240 0.3023
C9 C 0.9182(3) 0.7949(3) 0.27781(19)
C10 C 0.8654(3) 0.8141(3) 0.23416(18)
C11 C 0.8688(3) 0.7742(3) 0.18402(18)
C12 C 0.8175(3) 0.7973(3) 0.1377(2)
H7 H 0.7806 0.8407 0.1404
C13 C 0.8208(3) 0.7579(3) 0.0899(2)
H8 H 0.7873 0.7752 0.0590
C14 C 0.9530(3) 0.8120(4) 0.3747(2)
H9 H 0.9555 0.8601 0.4010
H10 H 1.0053 0.7971 0.3694
C15 C 0.9172(4) 0.7354(4) 0.3971(2)
H11 H 0.9480 0.7183 0.4313
H12 H 0.9175 0.6865 0.3716
C16 C 0.8368(4) 0.7511(4) 0.4073(2)
H13 H 0.8359 0.8033 0.4301
H14 H 0.8051 0.7631 0.3725
C17 C 0.8029(5) 0.6777(5) 0.4340(3)
H15 H 0.7989 0.6272 0.4102
H16 H 0.7525 0.6941 0.4417
H17 H 0.8350 0.6635 0.4678
C18 C 0.9227(3) 0.5036(3) 0.13056(19)
C19 C 0.9225(3) 0.4599(3) 0.1815(2)
C20 C 0.9768(3) 0.4790(3) 0.22708(19)
H18 H 1.0163 0.5188 0.2236
C21 C 0.9729(3) 0.4406(3) 0.2761(2)
H19 H 1.0103 0.4524 0.3059
C22 C 0.9129(3) 0.3833(3) 0.2815(2)
C23 C 0.8622(3) 0.3608(3) 0.2387(2)
C24 C 0.8673(3) 0.3962(3) 0.1868(2)
C25 C 0.8180(3) 0.3701(4) 0.1411(2)
H20 H 0.7808 0.3274 0.1445
C26 C 0.8232(4) 0.4052(4) 0.0926(2)
H21 H 0.7921 0.3842 0.0615
C27 C 0.8739(3) 0.4720(4) 0.0878(2)
C28 C 0.9538(4) 0.3754(4) 0.3777(2)
H22 H 0.9510 0.4391 0.3806
H23 H 1.0067 0.3591 0.3753
C29 C 0.9280(6) 0.3339(6) 0.4254(3)
H24 H 0.9313 0.2704 0.4215
H25 H 0.9628 0.3508 0.4579
C30 C 0.8517(8) 0.3563(7) 0.4334(5)
H26 H 0.8427 0.3308 0.4682
H27 H 0.8170 0.3269 0.4049
C31 C 0.8284(8) 0.4497(7) 0.4337(4)
H28 H 0.8409 0.4783 0.4012
H29 H 0.8552 0.4783 0.4657
H30 H 0.7738 0.4534 0.4345
C32 C 0.8020(3) 0.8727(3) 0.24197(18)
C33 C 0.6790(3) 0.8811(3) 0.2770(2)
H31 H 0.6622 0.9237 0.2483
H32 H 0.6895 0.9124 0.3117
C34 C 0.6178(3) 0.8148(3) 0.27992(18)
C35 C 0.5822(3) 0.7755(3) 0.23163(18)
C36 C 0.6012(3) 0.7976(3) 0.18069(19)
H33 H 0.6387 0.8403 0.1782
C37 C 0.5670(3) 0.7593(3) 0.13520(19)
H34 H 0.5795 0.7766 0.1012
C38 C 0.5134(3) 0.6942(3) 0.13826(18)
C39 C 0.4937(3) 0.6654(3) 0.18664(18)
C40 C 0.5261(3) 0.7103(3) 0.23456(17)
C41 C 0.5052(3) 0.6935(3) 0.28574(18)
H35 H 0.4657 0.6533 0.2883
C42 C 0.5389(3) 0.7319(3) 0.33164(18)
H36 H 0.5230 0.7182 0.3653
C43 C 0.5970(3) 0.7917(3) 0.32921(18)
C44 C 0.6125(3) 0.8156(3) 0.42445(18)
H37 H 0.6195 0.7536 0.4337
H38 H 0.5584 0.8301 0.4233
C45 C 0.6597(3) 0.8706(3) 0.46615(19)
H39 H 0.7134 0.8535 0.4683
H40 H 0.6554 0.9321 0.4550
C46 C 0.6349(4) 0.8609(4) 0.5204(2)
H41 H 0.6444 0.8007 0.5330
H42 H 0.5798 0.8713 0.5171
C47 C 0.6751(4) 0.9226(4) 0.5622(2)
H43 H 0.6656 0.9824 0.5502
H44 H 0.7295 0.9111 0.5668
H45 H 0.6560 0.9140 0.5967
C48 C 0.4399(3) 0.5842(3) 0.08875(19)
H46 H 0.4055 0.5822 0.0537
C49 C 0.3911(3) 0.5835(3) 0.13348(18)
H47 H 0.3596 0.5306 0.1313
H48 H 0.3574 0.6345 0.1306
C50 C 0.4441(3) 0.5856(3) 0.18647(18)
H49 H 0.4151 0.5861 0.2178
C51 C 0.5157(3) 0.4781(3) 0.14110(19)
C52 C 0.4950(3) 0.5068(3) 0.18831(18)
C53 C 0.5262(3) 0.4640(3) 0.23705(18)
C54 C 0.5029(3) 0.4812(3) 0.28724(18)
H50 H 0.4627 0.5210 0.2887
C55 C 0.5352(3) 0.4436(3) 0.3338(2)
H51 H 0.5179 0.4576 0.3670
C56 C 0.5942(3) 0.3841(3) 0.3328(2)
C57 C 0.6169(3) 0.3594(3) 0.2850(2)
C58 C 0.5829(3) 0.3995(3) 0.23605(19)
C59 C 0.6043(3) 0.3760(3) 0.1854(2)
H52 H 0.6427 0.3338 0.1840
C60 C 0.5703(3) 0.4133(3) 0.13864(19)
H53 H 0.5836 0.3956 0.1049
C61 C 0.6039(4) 0.3617(4) 0.4287(2)
H54 H 0.5496 0.3467 0.4255
H55 H 0.6098 0.4237 0.4383
C62 C 0.6491(4) 0.3062(4) 0.4718(2)
H56 H 0.7006 0.3304 0.4805
H57 H 0.6536 0.2469 0.4578
C63 C 0.6115(4) 0.3026(5) 0.5232(2)
H58 H 0.5963 0.3617 0.5324
H59 H 0.5653 0.2668 0.5163
C64 C 0.6618(5) 0.2661(5) 0.5695(3)
H60 H 0.6685 0.2041 0.5638
H61 H 0.6392 0.2750 0.6025
H62 H 0.7109 0.2951 0.5728
C65 C 0.6779(3) 0.2934(3) 0.2838(2)
H63 H 0.6858 0.2615 0.3183
H64 H 0.6627 0.2514 0.2545
C66 C 0.7970(3) 0.3022(4) 0.2464(2)
N1 N 0.7477(2) 0.3362(3) 0.27491(16)
H65 H 0.7576 0.3875 0.2894
N2 N 0.7483(2) 0.8372(3) 0.26516(15)
H66 H 0.7539 0.7825 0.2745
O1 O 0.8678(2) 0.6549(2) 0.03516(13)
O2 O 0.8697(3) 0.5061(3) 0.03616(14)
O3 O 0.91223(19) 0.8404(2) 0.32436(12)
O4 O 0.9051(2) 0.3461(2) 0.33054(13)
O5 O 0.7979(2) 0.9490(2) 0.22665(15)
O6 O 0.7879(2) 0.2295(2) 0.22485(16)
O7 O 0.48772(19) 0.5115(2) 0.09066(12)
O8 O 0.48320(19) 0.6597(2) 0.08901(12)
O9 O 0.6318(2) 0.3456(2) 0.37849(14)
O10 O 0.63602(19) 0.8322(2) 0.37337(12)
N3 N 0.6672(6) 0.5620(5) 0.5210(4)
H67 H 0.6869 0.5847 0.4940
N4 N 0.5864(5) 0.5203(5) 0.5754(3)
C67 C 0.7051(6) 0.5193(6) 0.5676(4)
H68 H 0.7578 0.5083 0.5752
C68 C 0.6548(5) 0.4982(4) 0.5977(3)
H69 H 0.6657 0.4703 0.6316
C69 C 0.5913(6) 0.5591(6) 0.5286(4)
H70 H 0.5501 0.5812 0.5044
C70 C 0.6954(5) 0.5781(5) 0.2800(3)
H71 H 0.6525 0.5766 0.2985
C71 C 0.7658(7) 0.5687(7) 0.3029(3)
H72 H 0.7832 0.5557 0.3396
C72 C 0.7650(4) 0.5923(4) 0.2162(3)
H73 H 0.7806 0.5999 0.1818
N5 N 0.6932(4) 0.5899(4) 0.2280(3)
N6 N 0.8082(4) 0.5818(4) 0.2626(4)
H74 H 0.8578 0.5831 0.2670
C73 C 0.8248(5) 1.0823(6) 0.3300(4)
H75 H 0.8227 1.0953 0.2927
C74 C 0.8366(4) 1.0097(5) 0.3505(3)
H76 H 0.8499 0.9611 0.3306
C75 C 0.8145(4) 1.0836(10) 0.4190(3)
H77 H 0.8059 1.0984 0.4544
N7 N 0.8297(5) 1.0058(5) 0.3979(4)
N8 N 0.8154(4) 1.1403(5) 0.3693(5)
H78 H 0.8110 1.1969 0.3667
loop_
_geom_bond_atom_site_label_1
_geom_bond_atom_site_label_2
_geom_bond_site_symmetry_1
_geom_bond_site_symmetry_2
C1 H1 1_555 1_555
C2 C1 1_555 1_555
H2 C2 1_555 1_555
H3 C2 1_555 1_555
C3 C2 1_555 1_555
H4 C3 1_555 1_555
C4 C5 1_555 1_555
C5 C3 1_555 1_555
C6 C5 1_555 1_555
C7 C6 1_555 1_555
H5 C7 1_555 1_555
C8 C7 1_555 1_555
H6 C8 1_555 1_555
C9 C8 1_555 1_555
C10 C9 1_555 1_555
C11 C6 1_555 1_555
C12 C11 1_555 1_555
H7 C12 1_555 1_555
C13 C4 1_555 1_555
H8 C13 1_555 1_555
C14 H9 1_555 1_555
H10 C14 1_555 1_555
C15 C14 1_555 1_555
H11 C15 1_555 1_555
H12 C15 1_555 1_555
C16 C15 1_555 1_555
H13 C16 1_555 1_555
H14 C16 1_555 1_555
C17 C16 1_555 1_555
H15 C17 1_555 1_555
H16 C17 1_555 1_555
H17 C17 1_555 1_555
C18 C3 1_555 1_555
C19 C18 1_555 1_555
C20 C19 1_555 1_555
H18 C20 1_555 1_555
C21 C20 1_555 1_555
H19 C21 1_555 1_555
C22 C21 1_555 1_555
C23 C22 1_555 1_555
C24 C19 1_555 1_555
C25 C24 1_555 1_555
H20 C25 1_555 1_555
C26 C25 1_555 1_555
H21 C26 1_555 1_555
C27 C18 1_555 1_555
C28 H22 1_555 1_555
H23 C28 1_555 1_555
C29 C28 1_555 1_555
H24 C29 1_555 1_555
H25 C29 1_555 1_555
C30 C29 1_555 1_555
H26 C30 1_555 1_555
H27 C30 1_555 1_555
C31 C30 1_555 1_555
H28 C31 1_555 1_555
H29 C31 1_555 1_555
H30 C31 1_555 1_555
C32 C10 1_555 1_555
C33 H31 1_555 1_555
H32 C33 1_555 1_555
C34 C33 1_555 1_555
C35 C34 1_555 1_555
C36 C35 1_555 1_555
H33 C36 1_555 1_555
C37 C36 1_555 1_555
H34 C37 1_555 1_555
C38 C37 1_555 1_555
C39 C38 1_555 1_555
C40 C35 1_555 1_555
C41 C40 1_555 1_555
H35 C41 1_555 1_555
C42 C41 1_555 1_555
H36 C42 1_555 1_555
C43 C34 1_555 1_555
C44 H37 1_555 1_555
H38 C44 1_555 1_555
C45 C44 1_555 1_555
H39 C45 1_555 1_555
H40 C45 1_555 1_555
C46 C45 1_555 1_555
H41 C46 1_555 1_555
H42 C46 1_555 1_555
C47 C46 1_555 1_555
H43 C47 1_555 1_555
H44 C47 1_555 1_555
H45 C47 1_555 1_555
C48 H46 1_555 1_555
C49 C48 1_555 1_555
H47 C49 1_555 1_555
H48 C49 1_555 1_555
C50 C39 1_555 1_555
H49 C50 1_555 1_555
C51 C52 1_555 1_555
C52 C50 1_555 1_555
C53 C52 1_555 1_555
C54 C53 1_555 1_555
H50 C54 1_555 1_555
C55 C54 1_555 1_555
H51 C55 1_555 1_555
C56 C55 1_555 1_555
C57 C56 1_555 1_555
C58 C53 1_555 1_555
C59 C58 1_555 1_555
H52 C59 1_555 1_555
C60 C51 1_555 1_555
H53 C60 1_555 1_555
C61 H54 1_555 1_555
H55 C61 1_555 1_555
C62 C61 1_555 1_555
H56 C62 1_555 1_555
H57 C62 1_555 1_555
C63 C62 1_555 1_555
H58 C63 1_555 1_555
H59 C63 1_555 1_555
C64 C63 1_555 1_555
H60 C64 1_555 1_555
H61 C64 1_555 1_555
H62 C64 1_555 1_555
C65 C57 1_555 1_555
H63 C65 1_555 1_555
H64 C65 1_555 1_555
C66 C23 1_555 1_555
N1 C65 1_555 1_555
H65 N1 1_555 1_555
N2 C32 1_555 1_555
H66 N2 1_555 1_555
O1 C1 1_555 1_555
O2 C1 1_555 1_555
O3 C9 1_555 1_555
O4 C22 1_555 1_555
O5 C32 1_555 1_555
O6 C66 1_555 1_555
O7 C48 1_555 1_555
O8 C38 1_555 1_555
O9 C56 1_555 1_555
O10 C43 1_555 1_555
N3 H67 1_555 1_555
N4 C68 1_555 1_555
C67 N3 1_555 1_555
H68 C67 1_555 1_555
C68 C67 1_555 1_555
H69 C68 1_555 1_555
C69 N3 1_555 1_555
H70 C69 1_555 1_555
C70 H71 1_555 1_555
C71 C70 1_555 1_555
H72 C71 1_555 1_555
C72 H73 1_555 1_555
N5 C70 1_555 1_555
N6 C71 1_555 1_555
H74 N6 1_555 1_555
C73 H75 1_555 1_555
C74 C73 1_555 1_555
H76 C74 1_555 1_555
C75 H77 1_555 1_555
N7 C74 1_555 1_555
N8 C73 1_555 1_555
H78 N8 1_555 1_555
C4 O1 1_555 1_555
C10 C11 1_555 1_555
C12 C13 1_555 1_555
C14 O3 1_555 1_555
C23 C24 1_555 1_555
C26 C27 1_555 1_555
C27 O2 1_555 1_555
C28 O4 1_555 1_555
C33 N2 1_555 1_555
C39 C40 1_555 1_555
C42 C43 1_555 1_555
C44 O10 1_555 1_555
C48 O8 1_555 1_555
C49 C50 1_555 1_555
C51 O7 1_555 1_555
C57 C58 1_555 1_555
C59 C60 1_555 1_555
C61 O9 1_555 1_555
C66 N1 1_555 1_555
N4 C69 1_555 1_555
C72 N5 1_555 1_555
C72 N6 1_555 1_555
C75 N7 1_555 1_555
C75 N8 1_555 1_555

#END
