
#######################################################################
#
#                 Cambridge Crystallographic Data Centre
#                                CCDC 
#
#######################################################################
#
# If this CIF has been generated from an entry in the Cambridge 
# Structural Database, then it will include bibliographic, chemical, 
# crystal, experimental, refinement or atomic coordinate data resulting 
# from the CCDC's data processing and validation procedures.
#
#######################################################################

data_TIHDEW
_chemical_formula_moiety         'C66 H66 N2 O10,C3 H6 O3'
_chemical_name_systematic        
'10,16,36,42-tetrabutoxy-28,50,54,56-tetraoxa-13,39-diazatridecacyclo[43.7.1.1^3,51^.1^23,27^.1^25,29^.0^2,7^.0^6,11^.0^15,20^.0^19,24^.0^32,37^.0^33,55^.0^41,46^.0^49,53^]hexapentaconta-2,4,6,8,10,15,17,19,21,23,29(55),30,32,34,36,41,43,45,47,49(53)-icosaene-12,40-dione dimethyl carbonate unknown solvate'
_symmetry_cell_setting           triclinic
_symmetry_space_group_name_H-M   'P -1'
_symmetry_Int_Tables_number      2
_space_group_name_Hall           '-P 1'
loop_
_symmetry_equiv_pos_site_id
_symmetry_equiv_pos_as_xyz
1 x,y,z
2 -x,-y,-z
_cell_length_a                   11.6154(5)
_cell_length_b                   12.7648(5)
_cell_length_c                   13.8417(6)
_cell_angle_alpha                112.660(3)
_cell_angle_beta                 111.734(3)
_cell_angle_gamma                96.511(2)
_cell_volume                     1678.92
_exptl_crystal_colour            colorless
_exptl_crystal_description       block
_cell_formula_units_Z            1
loop_
_atom_site_label
_atom_site_type_symbol
_atom_site_fract_x
_atom_site_fract_y
_atom_site_fract_z
C34 C 0.5806(14) 0.5792(12) 0.6738(9)
H34 H 0.6246 0.5212 0.6865
H35 H 0.4897 0.5517 0.6567
H36 H 0.6238 0.6563 0.7445
C35 C 0.4911(16) 0.4953(10) 0.4675(8)
C36 C 0.4247(14) 0.4492(12) 0.2620(10)
H37 H 0.4291 0.3691 0.2496
H38 H 0.4625 0.4736 0.2186
H39 H 0.3338 0.4490 0.2340
O6 O 0.5857(9) 0.5907(8) 0.5815(8)
O7 O 0.4379(9) 0.4167(7) 0.4774(9)
O8 O 0.4940(9) 0.5289(8) 0.3816(7)
C34A C 0.4194(14) 0.4208(12) 0.3262(9)
H34A H 0.3754 0.4788 0.3135
H35A H 0.5103 0.4483 0.3433
H36A H 0.3762 0.3437 0.2555
C35A C 0.5089(16) 0.5047(10) 0.5325(8)
C36A C 0.5753(14) 0.5508(12) 0.7380(10)
H37A H 0.5709 0.6309 0.7504
H38A H 0.5375 0.5264 0.7814
H39A H 0.6662 0.5510 0.7660
O6A O 0.4143(9) 0.4093(8) 0.4185(8)
O7A O 0.5621(9) 0.5833(7) 0.5226(9)
O8A O 0.5060(9) 0.4711(8) 0.6184(7)
C1 C 0.6347(4) 0.1563(4) 0.0847(3)
H1 H 0.6284 0.1053 0.0060
C2 C 0.7305(4) 0.1278(4) 0.1740(3)
H2 H 0.7027 0.0419 0.1507
H3 H 0.8181 0.1485 0.1794
C3 C 0.7324(3) 0.2005(3) 0.2901(3)
H4 H 0.7978 0.1893 0.3538
C4 C 0.4939(4) 0.1313(3) 0.1715(3)
C5 C 0.3648(3) 0.1021(4) 0.1511(3)
H5 H 0.2967 0.0817 0.0764
C6 C 0.3365(3) 0.1030(3) 0.2383(3)
H6 H 0.2487 0.0881 0.2254
C7 C 0.4361(3) 0.1259(3) 0.3483(3)
C8 C 0.4090(3) 0.1283(3) 0.4408(3)
C9 C 0.5068(3) 0.1466(3) 0.5441(3)
C10 C 0.6331(4) 0.1566(3) 0.5563(3)
H7 H 0.6997 0.1630 0.6257
C11 C 0.6613(3) 0.1574(3) 0.4702(3)
H8 H 0.7480 0.1643 0.4808
C12 C 0.5664(3) 0.1482(3) 0.3645(3)
C13 C 0.5960(3) 0.1594(3) 0.2759(3)
C14 C 0.2726(3) 0.1154(3) 0.4258(3)
H9 H 0.2116 0.0474 0.3488
C15 C 0.1168(3) 0.2328(3) 0.4111(3)
C16 C 0.5725(6) 0.1870(5) 0.7446(4)
H10 H 0.6165 0.1247 0.7429
H11 H 0.6379 0.2623 0.7725
C17 C 0.5134(6) 0.2023(5) 0.8206(4)
H12 H 0.5753 0.2076 0.8955
H13 H 0.4361 0.1331 0.7839
C18 C 0.4731(9) 0.3170(8) 0.8438(7)
H14 H 0.4172 0.3171 0.7698
H15 H 0.5496 0.3887 0.8913
C19 C 0.3869(7) 0.3075(7) 0.9221(8)
H16 H 0.4429 0.3013 0.9915
H17 H 0.3105 0.2370 0.8719
H18 H 0.3590 0.3789 0.9467
C20 C 0.7272(4) 0.3598(4) 0.2274(3)
C21 C 0.7627(3) 0.3320(3) 0.3177(3)
C22 C 0.8194(3) 0.4280(3) 0.4335(3)
C23 C 0.8688(3) 0.4096(3) 0.5345(3)
H19 H 0.8670 0.3314 0.5246
C24 C 0.9184(3) 0.5011(3) 0.6445(3)
H20 H 0.9508 0.4857 0.7100
C25 C 0.9227(3) 0.6176(3) 0.6634(3)
C26 C 0.8819(3) 0.6417(3) 0.5702(3)
C27 C 0.8298(3) 0.5472(3) 0.4522(3)
C28 C 0.7877(4) 0.5691(3) 0.3543(3)
H21 H 0.7923 0.6480 0.3655
C29 C 0.7407(4) 0.4788(4) 0.2449(4)
H22 H 0.7168 0.4947 0.1796
C30 C 1.0177(5) 0.6870(4) 0.8727(3)
H23 H 1.0980 0.6644 0.8794
H24 H 0.9533 0.6204 0.8619
C31 C 1.0468(4) 0.7993(4) 0.9834(4)
H25 H 1.1019 0.7910 1.0527
H26 H 1.0972 0.8679 0.9843
C32 C 0.9327(4) 0.8244(4) 0.9938(4)
H27 H 0.8814 0.7547 0.9908
H28 H 0.8787 0.8340 0.9250
C33 C 0.9585(5) 0.9332(4) 1.1034(4)
H29 H 1.0130 0.9256 1.1724
H30 H 0.8759 0.9409 1.1045
H31 H 1.0032 1.0038 1.1046
N1 N 0.2414(3) 0.2203(2) 0.4327(3)
H32 H 0.3033 0.2817 0.4515
O1 O 0.5085(3) 0.1327(3) 0.0772(2)
O2 O 0.4725(3) 0.1528(3) 0.6301(2)
O3 O 0.6745(3) 0.2764(3) 0.1099(2)
O4 O 0.9665(2) 0.7114(2) 0.7730(2)
O5 O 0.0363(5) 0.1631(4) 0.4005(5)
H33 H 0.2645 0.0993 0.4879
C1A C 0.3653(4) 0.8437(4) 0.9153(3)
H1A H 0.3716 0.8947 0.9940
C2A C 0.2695(4) 0.8722(4) 0.8260(3)
H2A H 0.2973 0.9581 0.8493
H3A H 0.1819 0.8515 0.8206
C3A C 0.2676(3) 0.7995(3) 0.7099(3)
H4A H 0.2022 0.8107 0.6462
C4A C 0.5061(4) 0.8687(3) 0.8285(3)
C5A C 0.6352(3) 0.8979(4) 0.8489(3)
H5A H 0.7033 0.9183 0.9236
C6A C 0.6635(3) 0.8970(3) 0.7617(3)
H6A H 0.7513 0.9119 0.7746
C7A C 0.5639(3) 0.8741(3) 0.6517(3)
C8A C 0.5910(3) 0.8717(3) 0.5592(3)
C9A C 0.4932(3) 0.8534(3) 0.4559(3)
C10A C 0.3669(4) 0.8434(3) 0.4437(3)
H7A H 0.3003 0.8370 0.3743
C11A C 0.3387(3) 0.8426(3) 0.5298(3)
H8A H 0.2520 0.8357 0.5192
C12A C 0.4336(3) 0.8518(3) 0.6355(3)
C13A C 0.4040(3) 0.8406(3) 0.7241(3)
C14A C 0.7274(3) 0.8846(3) 0.5742(3)
H9A H 0.7884 0.9526 0.6512
C15A C 0.8832(3) 0.7672(3) 0.5889(3)
C16A C 0.4275(6) 0.8130(5) 0.2554(4)
H10A H 0.3835 0.8753 0.2571
H11A H 0.3621 0.7377 0.2275
C17A C 0.4866(6) 0.7977(5) 0.1794(4)
H12A H 0.4247 0.7924 0.1045
H13A H 0.5639 0.8669 0.2161
C18A C 0.5269(9) 0.6830(8) 0.1562(7)
H14A H 0.5828 0.6829 0.2302
H15A H 0.4504 0.6113 0.1087
C19A C 0.6131(7) 0.6925(7) 0.0779(8)
H16A H 0.5571 0.6987 0.0085
H17A H 0.6895 0.7630 0.1281
H18A H 0.6410 0.6211 0.0533
C20A C 0.2728(4) 0.6402(4) 0.7726(3)
C21A C 0.2373(3) 0.6680(3) 0.6823(3)
C22A C 0.1806(3) 0.5720(3) 0.5665(3)
C23A C 0.1312(3) 0.5904(3) 0.4655(3)
H19A H 0.1330 0.6686 0.4754
C24A C 0.0816(3) 0.4989(3) 0.3555(3)
H20A H 0.0492 0.5143 0.2900
C25A C 0.0773(3) 0.3824(3) 0.3366(3)
C26A C 0.1181(3) 0.3583(3) 0.4298(3)
C27A C 0.1702(3) 0.4528(3) 0.5478(3)
C28A C 0.2123(4) 0.4309(3) 0.6457(3)
H21A H 0.2077 0.3520 0.6345
C29A C 0.2593(4) 0.5212(4) 0.7551(4)
H22A H 0.2832 0.5053 0.8204
C30A C -0.0177(5) 0.3130(4) 0.1273(3)
H23A H -0.0980 0.3356 0.1206
H24A H 0.0467 0.3796 0.1381
C31A C -0.0468(4) 0.2007(4) 0.0166(4)
H25A H -0.1019 0.2090 -0.0527
H26A H -0.0972 0.1321 0.0157
C32A C 0.0673(4) 0.1756(4) 0.0062(4)
H27A H 0.1186 0.2453 0.0092
H28A H 0.1213 0.1660 0.0750
C33A C 0.0415(5) 0.0668(4) -0.1034(4)
H29A H -0.0130 0.0744 -0.1724
H30A H 0.1241 0.0591 -0.1045
H31A H -0.0032 -0.0038 -0.1046
N1A N 0.7586(3) 0.7797(2) 0.5673(3)
H32A H 0.6967 0.7183 0.5485
O1A O 0.4915(3) 0.8673(3) 0.9228(2)
O2A O 0.5275(3) 0.8472(3) 0.3699(2)
O3A O 0.3255(3) 0.7236(3) 0.8901(2)
O4A O 0.0335(2) 0.2886(2) 0.2270(2)
O5A O 0.9637(5) 0.8369(4) 0.5995(5)
H33A H 0.7355 0.9007 0.5121
H40? H 0.0537 0.1749 0.3295
O9? O 0.1945(5) 0.0295(4) 0.3941(5)
H41? H 0.0894 0.2162 0.4648
loop_
_geom_bond_atom_site_label_1
_geom_bond_atom_site_label_2
_geom_bond_site_symmetry_1
_geom_bond_site_symmetry_2
C1 H1 1_555 1_555
C2 C1 1_555 1_555
H2 C2 1_555 1_555
H3 C2 1_555 1_555
C3 C2 1_555 1_555
H4 C3 1_555 1_555
C4 C5 1_555 1_555
C5 H5 1_555 1_555
C6 C5 1_555 1_555
H6 C6 1_555 1_555
C7 C6 1_555 1_555
C8 C7 1_555 1_555
C9 C8 1_555 1_555
C10 C9 1_555 1_555
H7 C10 1_555 1_555
C11 C10 1_555 1_555
H8 C11 1_555 1_555
C12 C7 1_555 1_555
C13 C3 1_555 1_555
C14 C8 1_555 1_555
H9 C14 1_555 1_555
C15 N1 1_555 1_555
C16 H10 1_555 1_555
H11 C16 1_555 1_555
C17 C16 1_555 1_555
H12 C17 1_555 1_555
H13 C17 1_555 1_555
C18 C17 1_555 1_555
H14 C18 1_555 1_555
H15 C18 1_555 1_555
C19 C18 1_555 1_555
H16 C19 1_555 1_555
H17 C19 1_555 1_555
H18 C19 1_555 1_555
C20 C21 1_555 1_555
C21 C3 1_555 1_555
C22 C21 1_555 1_555
C23 C22 1_555 1_555
H19 C23 1_555 1_555
C24 C23 1_555 1_555
H20 C24 1_555 1_555
C25 C24 1_555 1_555
C26 C25 1_555 1_555
C27 C22 1_555 1_555
C28 C27 1_555 1_555
H21 C28 1_555 1_555
C29 C20 1_555 1_555
H22 C29 1_555 1_555
C30 H23 1_555 1_555
H24 C30 1_555 1_555
C31 C30 1_555 1_555
H25 C31 1_555 1_555
H26 C31 1_555 1_555
C32 C31 1_555 1_555
H27 C32 1_555 1_555
H28 C32 1_555 1_555
C33 C32 1_555 1_555
H29 C33 1_555 1_555
H30 C33 1_555 1_555
H31 C33 1_555 1_555
N1 C14 1_555 1_555
H32 N1 1_555 1_555
O1 C1 1_555 1_555
O2 C9 1_555 1_555
O3 C1 1_555 1_555
O4 C25 1_555 1_555
O5 C15 1_555 1_555
H33 C14 1_555 1_555
C34 H34 1_555 1_555
H35 C34 1_555 1_555
H36 C34 1_555 1_555
C35 O6 1_555 1_555
C36 H37 1_555 1_555
H38 C36 1_555 1_555
H39 C36 1_555 1_555
O6 C34 1_555 1_555
O7 C35 1_555 1_555
O8 C35 1_555 1_555
C1A H1A 1_555 1_555
C2A C1A 1_555 1_555
H2A C2A 1_555 1_555
H3A C2A 1_555 1_555
C3A C2A 1_555 1_555
H4A C3A 1_555 1_555
C4A C5A 1_555 1_555
C5A H5A 1_555 1_555
C6A C5A 1_555 1_555
H6A C6A 1_555 1_555
C7A C6A 1_555 1_555
C8A C7A 1_555 1_555
C9A C8A 1_555 1_555
C10A C9A 1_555 1_555
H7A C10A 1_555 1_555
C11A C10A 1_555 1_555
H8A C11A 1_555 1_555
C12A C7A 1_555 1_555
C13A C3A 1_555 1_555
C14A C8A 1_555 1_555
H9A C14A 1_555 1_555
C15A C26 1_555 1_555
C16A H10A 1_555 1_555
H11A C16A 1_555 1_555
C17A C16A 1_555 1_555
H12A C17A 1_555 1_555
H13A C17A 1_555 1_555
C18A C17A 1_555 1_555
H14A C18A 1_555 1_555
H15A C18A 1_555 1_555
C19A C18A 1_555 1_555
H16A C19A 1_555 1_555
H17A C19A 1_555 1_555
H18A C19A 1_555 1_555
C20A C21A 1_555 1_555
C21A C3A 1_555 1_555
C22A C21A 1_555 1_555
C23A C22A 1_555 1_555
H19A C23A 1_555 1_555
C24A C23A 1_555 1_555
H20A C24A 1_555 1_555
C25A C24A 1_555 1_555
C26A C15 1_555 1_555
C27A C22A 1_555 1_555
C28A C27A 1_555 1_555
H21A C28A 1_555 1_555
C29A C20A 1_555 1_555
H22A C29A 1_555 1_555
C30A H23A 1_555 1_555
H24A C30A 1_555 1_555
C31A C30A 1_555 1_555
H25A C31A 1_555 1_555
H26A C31A 1_555 1_555
C32A C31A 1_555 1_555
H27A C32A 1_555 1_555
H28A C32A 1_555 1_555
C33A C32A 1_555 1_555
H29A C33A 1_555 1_555
H30A C33A 1_555 1_555
H31A C33A 1_555 1_555
N1A C14A 1_555 1_555
H32A N1A 1_555 1_555
O1A C1A 1_555 1_555
O2A C9A 1_555 1_555
O3A C1A 1_555 1_555
O4A C25A 1_555 1_555
O5A C15A 1_555 1_555
H33A C14A 1_555 1_555
C34A H34A 1_555 1_555
H35A C34A 1_555 1_555
H36A C34A 1_555 1_555
C35A O6A 1_555 1_555
C36A H37A 1_555 1_555
H38A C36A 1_555 1_555
H39A C36A 1_555 1_555
O6A C34A 1_555 1_555
O7A C35A 1_555 1_555
O8A C35A 1_555 1_555
C4 C13 1_555 1_555
C4 O1 1_555 1_555
C11 C12 1_555 1_555
C12 C13 1_555 1_555
C16 O2 1_555 1_555
C20 O3 1_555 1_555
C26 C27 1_555 1_555
C28 C29 1_555 1_555
C30 O4 1_555 1_555
C36 O8 1_555 1_555
C4A C13A 1_555 1_555
C4A O1A 1_555 1_555
C11A C12A 1_555 1_555
C12A C13A 1_555 1_555
C15A N1A 1_555 1_555
C16A O2A 1_555 1_555
C20A O3A 1_555 1_555
C25A C26A 1_555 1_555
C26A C27A 1_555 1_555
C28A C29A 1_555 1_555
C30A O4A 1_555 1_555
C36A O8A 1_555 1_555

#END
