
#######################################################################
#
#                 Cambridge Crystallographic Data Centre
#                                CCDC 
#
#######################################################################
#
# If this CIF has been generated from an entry in the Cambridge 
# Structural Database, then it will include bibliographic, chemical, 
# crystal, experimental, refinement or atomic coordinate data resulting 
# from the CCDC's data processing and validation procedures.
#
#######################################################################

data_TIHFUO
_chemical_formula_moiety         'C66 H66 N2 O10,2(C3 H3 N1 S1)'
_chemical_name_systematic        
'10,16,36,42-tetrabutoxy-28,50,54,56-tetraoxa-13,39-diazatridecacyclo[43.7.1.1^3,51^.1^23,27^.1^25,29^.0^2,7^.0^6,11^.0^15,20^.0^19,24^.0^32,37^.0^33,55^.0^41,46^.0^49,53^]hexapentaconta-2,4,6,8,10,15,17,19,21,23,29(55),30,32,34,36,41,43,45,47,49(53)-icosaene-12,40-dione bis(1,3-thiazole) unknown solvate'
_symmetry_cell_setting           monoclinic
_symmetry_space_group_name_H-M   'P 21/c'
_symmetry_Int_Tables_number      14
_space_group_name_Hall           '-P 2ybc'
loop_
_symmetry_equiv_pos_site_id
_symmetry_equiv_pos_as_xyz
1 x,y,z
2 -x,1/2+y,1/2-z
3 -x,-y,-z
4 x,1/2-y,1/2+z
_cell_length_a                   17.7640(6)
_cell_length_b                   15.6487(6)
_cell_length_c                   24.7929(9)
_cell_angle_alpha                90
_cell_angle_beta                 92.274(2)
_cell_angle_gamma                90
_cell_volume                     6886.59
_exptl_crystal_colour            colorless
_exptl_crystal_description       block
_cell_formula_units_Z            4
loop_
_atom_site_label
_atom_site_type_symbol
_atom_site_fract_x
_atom_site_fract_y
_atom_site_fract_z
C1 C 0.5403(3) 0.5881(3) 0.91114(17)
H1 H 0.5706 0.5921 0.9459
C2 C 0.5942(2) 0.5841(3) 0.86625(16)
H2 H 0.6268 0.5330 0.8704
H3 H 0.6267 0.6355 0.8668
C3 C 0.5475(2) 0.5794(2) 0.81317(15)
H4 H 0.5808 0.5753 0.7817
C4 C 0.4718(2) 0.6913(3) 0.85645(15)
C5 C 0.4190(2) 0.7581(3) 0.85635(17)
H5 H 0.4014 0.7789 0.8895
C6 C 0.3930(2) 0.7932(2) 0.80879(16)
H6 H 0.3554 0.8363 0.8092
C7 C 0.42104(19) 0.7666(2) 0.75917(15)
C8 C 0.3951(2) 0.8028(2) 0.70890(16)
C9 C 0.4248(2) 0.7760(2) 0.66157(15)
C10 C 0.4842(2) 0.7166(2) 0.66272(16)
H7 H 0.5072 0.7013 0.6301
C11 C 0.5090(2) 0.6808(2) 0.71010(15)
H8 H 0.5494 0.6411 0.7098
C12 C 0.47686(19) 0.7006(2) 0.75990(14)
C13 C 0.4994(2) 0.6597(2) 0.80955(15)
C14 C 0.4219(3) 0.7819(4) 0.56380(17)
H9 H 0.4266 0.7189 0.5635
H10 H 0.4723 0.8069 0.5584
C15 C 0.3663(4) 0.8112(4) 0.5189(2)
H11 H 0.3811 0.7855 0.4844
H12 H 0.3156 0.7893 0.5267
C16 C 0.3621(4) 0.9034(4) 0.5124(2)
H13 H 0.4131 0.9265 0.5070
H14 H 0.3428 0.9294 0.5456
C17 C 0.3092(3) 0.9270(4) 0.4633(2)
H15 H 0.3317 0.9075 0.4300
H16 H 0.3024 0.9891 0.4619
H17 H 0.2602 0.8993 0.4670
C18 C 0.4707(2) 0.4775(3) 0.86502(16)
C19 C 0.4166(3) 0.4136(3) 0.87068(19)
H18 H 0.4010 0.3983 0.9056
C20 C 0.3862(2) 0.3732(3) 0.82635(18)
H19 H 0.3477 0.3318 0.8305
C21 C 0.4109(2) 0.3919(2) 0.77438(16)
C22 C 0.3805(2) 0.3499(2) 0.72768(18)
C23 C 0.4056(2) 0.3703(2) 0.67764(17)
C24 C 0.4638(2) 0.4297(3) 0.67248(17)
H20 H 0.4821 0.4419 0.6378
C25 C 0.4946(2) 0.4705(2) 0.71726(15)
H21 H 0.5351 0.5093 0.7131
C26 C 0.4675(2) 0.4561(2) 0.76913(15)
C27 C 0.4957(2) 0.5019(2) 0.81568(15)
C28 C 0.3960(3) 0.3461(3) 0.5826(2)
H22 H 0.4484 0.3255 0.5804
H23 H 0.3951 0.4082 0.5748
C29 C 0.3449(3) 0.2990(4) 0.5420(2)
H24 H 0.3399 0.2388 0.5535
H25 H 0.2941 0.3252 0.5414
C30 C 0.3733(4) 0.3015(4) 0.4894(2)
H26 H 0.4216 0.2701 0.4892
H27 H 0.3831 0.3616 0.4793
C31 C 0.3163(4) 0.2607(5) 0.4467(3)
H28 H 0.3344 0.2700 0.4103
H29 H 0.2667 0.2874 0.4496
H30 H 0.3122 0.1992 0.4535
C32 C 0.3202(2) 0.2836(3) 0.7327(2)
H31 H 0.3171 0.2484 0.6995
H32 H 0.3333 0.2455 0.7635
C33 C 0.1946(3) 0.2910(3) 0.76965(18)
C34 C 0.1277(2) 0.3492(3) 0.77582(18)
C35 C 0.1165(2) 0.3899(3) 0.82635(18)
C36 C 0.1596(2) 0.3685(3) 0.87380(18)
H33 H 0.1959 0.3240 0.8727
C37 C 0.1495(3) 0.4106(3) 0.92040(19)
H34 H 0.1763 0.3931 0.9524
C38 C 0.0994(2) 0.4803(3) 0.92198(17)
C39 C 0.0570(2) 0.5059(2) 0.87730(16)
C40 C 0.0613(2) 0.4565(3) 0.82916(17)
C41 C 0.0125(2) 0.4694(3) 0.78379(17)
H35 H -0.0278 0.5090 0.7860
C42 C 0.0218(3) 0.4260(3) 0.73654(19)
H36 H -0.0128 0.4345 0.7068
C43 C 0.0820(2) 0.3693(3) 0.73201(18)
C44 C 0.0606(3) 0.3614(4) 0.6365(2)
H37 H 0.0623 0.4247 0.6363
H38 H 0.0072 0.3433 0.6347
C45 C 0.0996(4) 0.3275(4) 0.5896(2)
H39 H 0.1055 0.2649 0.5940
H40 H 0.1506 0.3528 0.5893
C46 C 0.0590(4) 0.3451(5) 0.5356(3)
H41 H 0.0544 0.4074 0.5295
H42 H 0.0079 0.3200 0.5348
C47 C 0.1063(6) 0.3042(7) 0.4922(4)
H43 H 0.0840 0.3176 0.4564
H44 H 0.1073 0.2421 0.4973
H45 H 0.1578 0.3266 0.4952
C48 C 0.0558(3) 0.5968(3) 0.97529(17)
H46 H 0.0387 0.6005 1.0132
C49 C -0.0129(2) 0.5969(3) 0.93851(17)
H47 H -0.0416 0.6505 0.9430
H48 H -0.0459 0.5482 0.9470
C50 C 0.0129(2) 0.5896(3) 0.88092(17)
H49 H -0.0312 0.5900 0.8545
C51 C 0.1091(2) 0.6952(3) 0.91384(16)
C52 C 0.0653(2) 0.6649(3) 0.87125(16)
C53 C 0.0744(2) 0.7034(2) 0.81925(16)
C54 C 0.0266(2) 0.6834(3) 0.77416(16)
H50 H -0.0142 0.6452 0.7787
C55 C 0.0372(2) 0.7174(3) 0.72410(17)
H51 H 0.0042 0.7025 0.6945
C56 C 0.0972(2) 0.7746(3) 0.71666(16)
C57 C 0.1439(2) 0.7982(2) 0.75957(15)
C58 C 0.1323(2) 0.7654(2) 0.81218(16)
C59 C 0.1766(2) 0.7911(3) 0.85801(16)
H52 H 0.2156 0.8319 0.8542
C60 C 0.1640(2) 0.7581(3) 0.90712(17)
H53 H 0.1929 0.7779 0.9377
C61 C 0.0671(3) 0.7862(4) 0.6214(2)
H54 H 0.0706 0.8312 0.5935
H55 H 0.0137 0.7819 0.6310
C62 C 0.0908(4) 0.7036(5) 0.5983(2)
H56 H 0.0565 0.6901 0.5671
H57 H 0.0841 0.6586 0.6258
C63 C 0.1704(5) 0.6988(7) 0.5801(3)
H58 H 0.2057 0.7070 0.6116
H59 H 0.1791 0.7455 0.5541
C64 C 0.1866(8) 0.6133(9) 0.5535(5)
H60 H 0.1423 0.5950 0.5317
H61 H 0.1983 0.5704 0.5815
H62 H 0.2297 0.6194 0.5303
C65 C 0.2093(2) 0.8574(2) 0.75093(15)
C66 C 0.3327(2) 0.8676(3) 0.70801(17)
H63 H 0.3444 0.9126 0.7351
H64 H 0.3284 0.8949 0.6720
N1 N 0.26115(17) 0.8260(2) 0.72000(13)
H65 H 0.2521 0.7757 0.7052
N2 N 0.24799(19) 0.3235(2) 0.74081(16)
H66 H 0.2392 0.3733 0.7253
O1 O 0.49290(17) 0.66117(18) 0.90730(11)
O2 O 0.49497(17) 0.51446(19) 0.91350(11)
O3 O 0.39396(16) 0.8099(2) 0.61403(11)
O4 O 0.36967(18) 0.3308(2) 0.63455(12)
O5 O 0.21538(18) 0.92783(19) 0.77301(13)
O6 O 0.2028(2) 0.2211(2) 0.79327(17)
O7 O 0.10321(18) 0.6676(2) 0.96667(11)
O8 O 0.09824(17) 0.5210(2) 0.97118(11)
O9 O 0.11123(17) 0.8110(2) 0.66805(11)
O10 O 0.09712(18) 0.3295(2) 0.68441(13)
C67 C 0.2036(9) 0.5423(9) 0.7438(8)
H67 H 0.1623 0.5297 0.7657
C68 C 0.2105(6) 0.5102(7) 0.6940(5)
H68 H 0.1735 0.4761 0.6756
C69 C 0.3231(9) 0.5871(10) 0.7021(7)
H69 H 0.3700 0.6093 0.6915
N3 N 0.2754(5) 0.5322(7) 0.6742(5)
S1 S 0.2752(2) 0.6069(2) 0.76360(17)
C73 C 0.1930(2) -0.0041(3) 0.6329(2)
H73 H 0.1861 -0.0627 0.6414
C74 C 0.2088(3) 0.1457(4) 0.6277(3)
H74 H 0.2135 0.2055 0.6337
C75 C 0.2121(3) 0.1154(4) 0.5812(3)
H75 H 0.2201 0.1476 0.5494
N5 N 0.2025(3) 0.0286(4) 0.5833(2)
S3 S 0.19585(8) 0.07976(10) 0.67855(7)
O11? O 0.3224(18) 0.944(2) 0.7370(15)
O12? O 0.315(2) 0.219(2) 0.7418(16)
C70? C 0.1912(7) 0.5690(8) 0.7429(7)
H70? H 0.1391 0.5601 0.7350
C71? C 0.2374(7) 0.5788(8) 0.7073(6)
H71? H 0.2227 0.5837 0.6702
C72? C 0.3148(6) 0.5825(7) 0.7914(6)
H72? H 0.3579 0.5874 0.8151
N4? N 0.3105(7) 0.5820(8) 0.7253(6)
S2? S 0.2282(2) 0.5726(3) 0.8063(2)
loop_
_geom_bond_atom_site_label_1
_geom_bond_atom_site_label_2
_geom_bond_site_symmetry_1
_geom_bond_site_symmetry_2
C1 H1 1_555 1_555
C2 C1 1_555 1_555
H2 C2 1_555 1_555
H3 C2 1_555 1_555
C3 C2 1_555 1_555
H4 C3 1_555 1_555
C4 C5 1_555 1_555
C5 H5 1_555 1_555
C6 C5 1_555 1_555
H6 C6 1_555 1_555
C7 C6 1_555 1_555
C8 C7 1_555 1_555
C9 C8 1_555 1_555
C10 C9 1_555 1_555
H7 C10 1_555 1_555
C11 C10 1_555 1_555
H8 C11 1_555 1_555
C12 C7 1_555 1_555
C13 C3 1_555 1_555
C14 H9 1_555 1_555
H10 C14 1_555 1_555
C15 C14 1_555 1_555
H11 C15 1_555 1_555
H12 C15 1_555 1_555
C16 C15 1_555 1_555
H13 C16 1_555 1_555
H14 C16 1_555 1_555
C17 C16 1_555 1_555
H15 C17 1_555 1_555
H16 C17 1_555 1_555
H17 C17 1_555 1_555
C18 C19 1_555 1_555
C19 H18 1_555 1_555
C20 C19 1_555 1_555
H19 C20 1_555 1_555
C21 C20 1_555 1_555
C22 C21 1_555 1_555
C23 C22 1_555 1_555
C24 C23 1_555 1_555
H20 C24 1_555 1_555
C25 C24 1_555 1_555
H21 C25 1_555 1_555
C26 C21 1_555 1_555
C27 C3 1_555 1_555
C28 H22 1_555 1_555
H23 C28 1_555 1_555
C29 C28 1_555 1_555
H24 C29 1_555 1_555
H25 C29 1_555 1_555
C30 C29 1_555 1_555
H26 C30 1_555 1_555
H27 C30 1_555 1_555
C31 C30 1_555 1_555
H28 C31 1_555 1_555
H29 C31 1_555 1_555
H30 C31 1_555 1_555
C32 C22 1_555 1_555
H31 C32 1_555 1_555
H32 C32 1_555 1_555
C33 C34 1_555 1_555
C34 C35 1_555 1_555
C35 C36 1_555 1_555
C36 H33 1_555 1_555
C37 C36 1_555 1_555
H34 C37 1_555 1_555
C38 C37 1_555 1_555
C39 C38 1_555 1_555
C40 C35 1_555 1_555
C41 C40 1_555 1_555
H35 C41 1_555 1_555
C42 C41 1_555 1_555
H36 C42 1_555 1_555
C43 C34 1_555 1_555
C44 H37 1_555 1_555
H38 C44 1_555 1_555
C45 C44 1_555 1_555
H39 C45 1_555 1_555
H40 C45 1_555 1_555
C46 C45 1_555 1_555
H41 C46 1_555 1_555
H42 C46 1_555 1_555
C47 C46 1_555 1_555
H43 C47 1_555 1_555
H44 C47 1_555 1_555
H45 C47 1_555 1_555
C48 H46 1_555 1_555
C49 C48 1_555 1_555
H47 C49 1_555 1_555
H48 C49 1_555 1_555
C50 C39 1_555 1_555
H49 C50 1_555 1_555
C51 C52 1_555 1_555
C52 C50 1_555 1_555
C53 C52 1_555 1_555
C54 C53 1_555 1_555
H50 C54 1_555 1_555
C55 C54 1_555 1_555
H51 C55 1_555 1_555
C56 C55 1_555 1_555
C57 C56 1_555 1_555
C58 C53 1_555 1_555
C59 C58 1_555 1_555
H52 C59 1_555 1_555
C60 C51 1_555 1_555
H53 C60 1_555 1_555
C61 H54 1_555 1_555
H55 C61 1_555 1_555
C62 C61 1_555 1_555
H56 C62 1_555 1_555
H57 C62 1_555 1_555
C63 C62 1_555 1_555
H58 C63 1_555 1_555
H59 C63 1_555 1_555
C64 C63 1_555 1_555
H60 C64 1_555 1_555
H61 C64 1_555 1_555
H62 C64 1_555 1_555
C65 C57 1_555 1_555
C66 C8 1_555 1_555
H63 C66 1_555 1_555
H64 C66 1_555 1_555
N1 C65 1_555 1_555
H65 N1 1_555 1_555
N2 C32 1_555 1_555
H66 N2 1_555 1_555
O1 C1 1_555 1_555
O2 C1 1_555 1_555
O3 C9 1_555 1_555
O4 C23 1_555 1_555
O5 C65 1_555 1_555
O6 C33 1_555 1_555
O7 C48 1_555 1_555
O8 C38 1_555 1_555
O9 C56 1_555 1_555
O10 C43 1_555 1_555
C67 H67 1_555 1_555
C68 C67 1_555 1_555
H68 C68 1_555 1_555
C69 H69 1_555 1_555
N3 C68 1_555 1_555
S1 C67 1_555 1_555
C73 H73 1_555 1_555
C74 H74 1_555 1_555
C75 C74 1_555 1_555
H75 C75 1_555 1_555
N5 C73 1_555 1_555
S3 C73 1_555 1_555
C4 C13 1_555 1_555
C4 O1 1_555 1_555
C11 C12 1_555 1_555
C12 C13 1_555 1_555
C14 O3 1_555 1_555
C18 C27 1_555 1_555
C18 O2 1_555 1_555
C25 C26 1_555 1_555
C26 C27 1_555 1_555
C28 O4 1_555 1_555
C33 N2 1_555 1_555
C39 C40 1_555 1_555
C42 C43 1_555 1_555
C44 O10 1_555 1_555
C48 O8 1_555 1_555
C49 C50 1_555 1_555
C51 O7 1_555 1_555
C57 C58 1_555 1_555
C59 C60 1_555 1_555
C61 O9 1_555 1_555
C66 N1 1_555 1_555
C69 N3 1_555 1_555
C69 S1 1_555 1_555
C74 S3 1_555 1_555
C75 N5 1_555 1_555

#END
