
#######################################################################
#
#                 Cambridge Crystallographic Data Centre
#                                CCDC 
#
#######################################################################
#
# If this CIF has been generated from an entry in the Cambridge 
# Structural Database, then it will include bibliographic, chemical, 
# crystal, experimental, refinement or atomic coordinate data resulting 
# from the CCDC's data processing and validation procedures.
#
#######################################################################

data_TIHGIC
_chemical_formula_moiety         'C26 H23 N1'
_chemical_name_systematic        2',4'-diphenyl-N,6'-dimethylbiphenyl-2-amine
_symmetry_cell_setting           monoclinic
_symmetry_space_group_name_H-M   'P 21/c'
_symmetry_Int_Tables_number      14
_space_group_name_Hall           '-P 2ybc'
loop_
_symmetry_equiv_pos_site_id
_symmetry_equiv_pos_as_xyz
1 x,y,z
2 -x,1/2+y,1/2-z
3 -x,-y,-z
4 x,1/2-y,1/2+z
_cell_length_a                   12.2313(8)
_cell_length_b                   15.1198(8)
_cell_length_c                   10.5013(6)
_cell_angle_alpha                90
_cell_angle_beta                 96.380(6)
_cell_angle_gamma                90
_cell_volume                     1930.03
_exptl_crystal_colour            red
_exptl_crystal_description       block
_cell_formula_units_Z            4
loop_
_atom_site_label
_atom_site_type_symbol
_atom_site_fract_x
_atom_site_fract_y
_atom_site_fract_z
N1 N 0.08924(12) 0.10826(11) 0.88693(15)
H1 H 0.0957(15) 0.1649(13) 0.8875(18)
C1 C -0.02369(15) 0.07935(14) 0.8554(2)
H2 H -0.0374 0.0687 0.7649
H3 H -0.0728 0.1244 0.8795
H4 H -0.0356 0.0258 0.9011
C2 C 0.17573(14) 0.06176(10) 0.84563(16)
C3 C 0.17182(18) -0.03028(12) 0.83780(19)
H5 H 0.1086 -0.0598 0.8556
C4 C 0.2594(2) -0.07792(13) 0.8043(2)
H6 H 0.2548 -0.1393 0.8000
C5 C 0.3535(2) -0.03668(14) 0.7773(2)
H7 H 0.4133 -0.0694 0.7561
C6 C 0.35815(16) 0.05461(12) 0.7819(2)
H8 H 0.4217 0.0831 0.7626
C7 C 0.27051(13) 0.10504(11) 0.81450(16)
C8 C 0.27921(12) 0.20382(10) 0.81219(16)
C9 C 0.21081(12) 0.25448(10) 0.72346(16)
C10 C 0.22494(13) 0.34560(10) 0.71840(16)
H9 H 0.1793 0.3784 0.6593
C11 C 0.30503(13) 0.38896(11) 0.79887(16)
C12 C 0.37000(14) 0.33807(11) 0.88797(17)
H10 H 0.4235 0.3661 0.9436
C13 C 0.35821(13) 0.24724(11) 0.89720(17)
C14 C 0.42835(15) 0.19810(12) 1.00125(19)
H11 H 0.3890 0.1473 1.0266
H12 H 0.4454 0.2363 1.0737
H13 H 0.4953 0.1794 0.9697
C15 C 0.11947(14) 0.21500(10) 0.63523(16)
C16 C 0.13572(16) 0.14537(11) 0.55375(17)
H14 H 0.2055 0.1211 0.5531
C17 C 0.0483(2) 0.11184(14) 0.47335(19)
H15 H 0.0601 0.0655 0.4182
C18 C -0.0549(2) 0.14587(16) 0.4739(2)
H16 H -0.1134 0.1220 0.4207
C19 C -0.07192(17) 0.21521(15) 0.5530(2)
H17 H -0.1420 0.2391 0.5527
C20 C 0.01442(15) 0.24978(12) 0.63302(19)
H18 H 0.0021 0.2971 0.6862
C21 C 0.31963(13) 0.48618(11) 0.79115(19)
C22 C 0.31075(14) 0.52900(12) 0.6740(2)
H19 H 0.2956 0.4964 0.5990
C23 C 0.32418(15) 0.61960(13) 0.6670(2)
H20 H 0.3179 0.6476 0.5877
C24 C 0.34670(17) 0.66811(13) 0.7767(3)
H21 H 0.3570 0.7289 0.7718
C25 C 0.35412(17) 0.62733(14) 0.8937(3)
H22 H 0.3679 0.6607 0.9682
C26 C 0.34119(15) 0.53691(13) 0.9015(2)
H23 H 0.3469 0.5096 0.9814
loop_
_geom_bond_atom_site_label_1
_geom_bond_atom_site_label_2
_geom_bond_site_symmetry_1
_geom_bond_site_symmetry_2
N1 H1 1_555 1_555
C1 N1 1_555 1_555
H2 C1 1_555 1_555
H3 C1 1_555 1_555
H4 C1 1_555 1_555
C2 N1 1_555 1_555
C3 C2 1_555 1_555
H5 C3 1_555 1_555
C4 C3 1_555 1_555
H6 C4 1_555 1_555
C5 C4 1_555 1_555
H7 C5 1_555 1_555
C6 C5 1_555 1_555
H8 C6 1_555 1_555
C7 C2 1_555 1_555
C8 C7 1_555 1_555
C9 C8 1_555 1_555
C10 C9 1_555 1_555
H9 C10 1_555 1_555
C11 C10 1_555 1_555
C12 C11 1_555 1_555
H10 C12 1_555 1_555
C13 C8 1_555 1_555
C14 C13 1_555 1_555
H11 C14 1_555 1_555
H12 C14 1_555 1_555
H13 C14 1_555 1_555
C15 C9 1_555 1_555
C16 C15 1_555 1_555
H14 C16 1_555 1_555
C17 C16 1_555 1_555
H15 C17 1_555 1_555
C18 C17 1_555 1_555
H16 C18 1_555 1_555
C19 C18 1_555 1_555
H17 C19 1_555 1_555
C20 C15 1_555 1_555
H18 C20 1_555 1_555
C21 C11 1_555 1_555
C22 C21 1_555 1_555
H19 C22 1_555 1_555
C23 C22 1_555 1_555
H20 C23 1_555 1_555
C24 C23 1_555 1_555
H21 C24 1_555 1_555
C25 C24 1_555 1_555
H22 C25 1_555 1_555
C26 C21 1_555 1_555
H23 C26 1_555 1_555
C6 C7 1_555 1_555
C12 C13 1_555 1_555
C19 C20 1_555 1_555
C25 C26 1_555 1_555

#END
