
#######################################################################
#
#                 Cambridge Crystallographic Data Centre
#                                CCDC 
#
#######################################################################
#
# If this CIF has been generated from an entry in the Cambridge 
# Structural Database, then it will include bibliographic, chemical, 
# crystal, experimental, refinement or atomic coordinate data resulting 
# from the CCDC's data processing and validation procedures.
#
#######################################################################

data_TIHGUO
_chemical_formula_moiety         'C37 H27 N1'
_chemical_name_systematic        
1-Ethyl-2-phenyl-3-(9-(phenylethynyl)-9H-fluoren-9-yl)-1H-indole
_symmetry_cell_setting           monoclinic
_symmetry_space_group_name_H-M   'P 21/c'
_symmetry_Int_Tables_number      14
_space_group_name_Hall           '-P 2ybc'
loop_
_symmetry_equiv_pos_site_id
_symmetry_equiv_pos_as_xyz
1 x,y,z
2 -x,1/2+y,1/2-z
3 -x,-y,-z
4 x,1/2-y,1/2+z
_cell_length_a                   17.6833(10)
_cell_length_b                   8.4181(4)
_cell_length_c                   18.4664(9)
_cell_angle_alpha                90
_cell_angle_beta                 101.609(5)
_cell_angle_gamma                90
_cell_volume                     2692.67
_exptl_crystal_colour            colorless
_exptl_crystal_description       block
_cell_formula_units_Z            4
loop_
_atom_site_label
_atom_site_type_symbol
_atom_site_fract_x
_atom_site_fract_y
_atom_site_fract_z
N1 N 0.25642(9) 0.65125(17) 0.58614(7)
C1 C 0.37580(10) 0.5792(2) 0.39108(9)
C2 C 0.40274(12) 0.4332(2) 0.41796(11)
H1 H 0.3736 0.3690 0.4429
C3 C 0.47432(14) 0.3839(3) 0.40701(13)
H2 H 0.4937 0.2860 0.4253
C4 C 0.51705(14) 0.4775(3) 0.36952(13)
H3 H 0.5649 0.4420 0.3626
C5 C 0.49017(12) 0.6228(3) 0.34215(11)
H4 H 0.5192 0.6855 0.3165
C6 C 0.41883(10) 0.6749(2) 0.35341(9)
C7 C 0.37736(11) 0.8244(2) 0.33410(9)
C8 C 0.39785(13) 0.9627(3) 0.30227(11)
H5 H 0.4437 0.9684 0.2851
C9 C 0.34898(16) 1.0918(3) 0.29645(12)
H6 H 0.3626 1.1854 0.2755
C10 C 0.28041(15) 1.0852(3) 0.32095(11)
H7 H 0.2485 1.1740 0.3169
C11 C 0.25892(12) 0.9464(2) 0.35161(9)
H8 H 0.2122 0.9401 0.3672
C12 C 0.30785(10) 0.8184(2) 0.35855(8)
C13 C 0.29912(9) 0.6590(2) 0.39588(8)
C14 C 0.23495(11) 0.5733(2) 0.34777(9)
C15 C 0.18532(11) 0.5148(2) 0.30261(10)
C16 C 0.12264(11) 0.4487(2) 0.24944(9)
C17 C 0.13638(14) 0.3499(2) 0.19396(11)
H9 H 0.1868 0.3222 0.1917
C18 C 0.07561(19) 0.2921(3) 0.14181(12)
H10 H 0.0851 0.2241 0.1050
C19 C 0.00181(18) 0.3340(3) 0.14406(14)
H11 H -0.0389 0.2958 0.1084
C20 C -0.01265(15) 0.4323(3) 0.19880(15)
H12 H -0.0631 0.4608 0.2004
C21 C 0.04774(13) 0.4886(3) 0.25137(12)
H13 H 0.0378 0.5546 0.2887
C22 C 0.28861(9) 0.68195(19) 0.47491(8)
C23 C 0.32716(10) 0.8033(2) 0.52420(9)
C24 C 0.37859(11) 0.9271(2) 0.51853(10)
H14 H 0.3956 0.9439 0.4747
C25 C 0.40351(12) 1.0231(2) 0.57865(10)
H15 H 0.4380 1.1049 0.5753
C26 C 0.37812(13) 1.0007(3) 0.64474(11)
H16 H 0.3954 1.0688 0.6842
C27 C 0.32842(12) 0.8807(2) 0.65264(10)
H17 H 0.3116 0.8660 0.6967
C28 C 0.30390(10) 0.7812(2) 0.59216(9)
C29 C 0.24685(10) 0.5920(2) 0.51449(9)
C30 C 0.21337(13) 0.6037(3) 0.64159(10)
H18 H 0.2443 0.6242 0.6903
H19 H 0.2036 0.4903 0.6375
C31 C 0.13806(17) 0.6898(4) 0.63388(17)
H20 H 0.1054 0.6624 0.5875
H21 H 0.1472 0.8022 0.6356
H22 H 0.1133 0.6598 0.6736
C32 C 0.20217(11) 0.4439(2) 0.49605(9)
C33 C 0.12721(13) 0.4434(3) 0.45782(11)
H23 H 0.1023 0.5387 0.4427
C34 C 0.08799(15) 0.2978(4) 0.44151(13)
H24 H 0.0375 0.2960 0.4146
C35 C 0.12483(19) 0.1603(3) 0.46560(14)
H25 H 0.0989 0.0644 0.4548
C36 C 0.19790(17) 0.1591(3) 0.50468(15)
H26 H 0.2217 0.0639 0.5217
C37 C 0.23641(13) 0.2997(2) 0.51896(12)
H27 H 0.2873 0.2986 0.5449
loop_
_geom_bond_atom_site_label_1
_geom_bond_atom_site_label_2
_geom_bond_site_symmetry_1
_geom_bond_site_symmetry_2
N1 C28 1_555 1_555
C1 C2 1_555 1_555
C2 H1 1_555 1_555
C3 C2 1_555 1_555
H2 C3 1_555 1_555
C4 C3 1_555 1_555
H3 C4 1_555 1_555
C5 C4 1_555 1_555
H4 C5 1_555 1_555
C6 C1 1_555 1_555
C7 C6 1_555 1_555
C8 C7 1_555 1_555
H5 C8 1_555 1_555
C9 C8 1_555 1_555
H6 C9 1_555 1_555
C10 C9 1_555 1_555
H7 C10 1_555 1_555
C11 C10 1_555 1_555
H8 C11 1_555 1_555
C12 C7 1_555 1_555
C13 C1 1_555 1_555
C14 C13 1_555 1_555
C15 C14 1_555 1_555
C16 C15 1_555 1_555
C17 C16 1_555 1_555
H9 C17 1_555 1_555
C18 C17 1_555 1_555
H10 C18 1_555 1_555
C19 C18 1_555 1_555
H11 C19 1_555 1_555
C20 C19 1_555 1_555
H12 C20 1_555 1_555
C21 C16 1_555 1_555
H13 C21 1_555 1_555
C22 C13 1_555 1_555
C23 C22 1_555 1_555
C24 C23 1_555 1_555
H14 C24 1_555 1_555
C25 C24 1_555 1_555
H15 C25 1_555 1_555
C26 C25 1_555 1_555
H16 C26 1_555 1_555
C27 C26 1_555 1_555
H17 C27 1_555 1_555
C28 C23 1_555 1_555
C29 N1 1_555 1_555
C30 N1 1_555 1_555
H18 C30 1_555 1_555
H19 C30 1_555 1_555
C31 C30 1_555 1_555
H20 C31 1_555 1_555
H21 C31 1_555 1_555
H22 C31 1_555 1_555
C32 C29 1_555 1_555
C33 C32 1_555 1_555
H23 C33 1_555 1_555
C34 C33 1_555 1_555
H24 C34 1_555 1_555
C35 C34 1_555 1_555
H25 C35 1_555 1_555
C36 C35 1_555 1_555
H26 C36 1_555 1_555
C37 C32 1_555 1_555
H27 C37 1_555 1_555
C5 C6 1_555 1_555
C11 C12 1_555 1_555
C12 C13 1_555 1_555
C20 C21 1_555 1_555
C22 C29 1_555 1_555
C27 C28 1_555 1_555
C36 C37 1_555 1_555

#END
