
#######################################################################
#
#                 Cambridge Crystallographic Data Centre
#                                CCDC 
#
#######################################################################
#
# If this CIF has been generated from an entry in the Cambridge 
# Structural Database, then it will include bibliographic, chemical, 
# crystal, experimental, refinement or atomic coordinate data resulting 
# from the CCDC's data processing and validation procedures.
#
#######################################################################

data_TIHGAV
_chemical_formula_moiety         'C66 H66 N2 O10,C4 H9 N1 O1'
_chemical_name_systematic        
'10,16,36,42-tetrabutoxy-28,50,54,56-tetraoxa-13,39-diazatridecacyclo[43.7.1.1^3,51^.1^23,27^.1^25,29^.0^2,7^.0^6,11^.0^15,20^.0^19,24^.0^32,37^.0^33,55^.0^41,46^.0^49,53^]hexapentaconta-2,4,6,8,10,15,17,19,21,23,29(55),30,32,34,36,41,43,45,47,49(53)-icosaene-12,40-dione N-ethylacetamide unknown solvate'
_symmetry_cell_setting           triclinic
_symmetry_space_group_name_H-M   'P -1'
_symmetry_Int_Tables_number      2
_space_group_name_Hall           '-P 1'
loop_
_symmetry_equiv_pos_site_id
_symmetry_equiv_pos_as_xyz
1 x,y,z
2 -x,-y,-z
_cell_length_a                   11.8762(5)
_cell_length_b                   12.1010(5)
_cell_length_c                   12.2447(5)
_cell_angle_alpha                90.8850(10)
_cell_angle_beta                 92.499(2)
_cell_angle_gamma                103.131(2)
_cell_volume                     1711.51
_exptl_crystal_colour            colorless
_exptl_crystal_description       block
_cell_formula_units_Z            1
loop_
_atom_site_label
_atom_site_type_symbol
_atom_site_fract_x
_atom_site_fract_y
_atom_site_fract_z
O6 O 0.5501(10) 0.4726(14) 0.5528(11)
N2 N 0.4713(6) 0.5779(5) 0.4641(6)
H34 H 0.4707 0.5801 0.3923
C34 C 0.4077(12) 0.3470(9) 0.5029(11)
H35 H 0.3944 0.3430 0.4232
H36 H 0.3363 0.3101 0.5372
H37 H 0.4692 0.3082 0.5233
C35 C 0.4454(11) 0.4767(10) 0.5433(11)
C36 C 0.4940(12) 0.6578(10) 0.5392(11)
H38 H 0.5758 0.6981 0.5327
H39 H 0.4895 0.6202 0.6106
C37 C 0.4240(11) 0.7473(11) 0.5453(11)
H40 H 0.3960 0.7616 0.4716
H41 H 0.4728 0.8176 0.5775
H42 H 0.3579 0.7207 0.5909
O6A O 0.4499(10) 0.5274(14) 0.4472(11)
N2A N 0.5287(6) 0.4221(5) 0.5359(6)
H34A H 0.5293 0.4199 0.6077
C34A C 0.5923(12) 0.6530(9) 0.4971(11)
H35A H 0.6056 0.6570 0.5768
H36A H 0.6637 0.6899 0.4628
H37A H 0.5308 0.6918 0.4767
C35A C 0.5546(11) 0.5233(10) 0.4567(11)
C36A C 0.5060(12) 0.3422(10) 0.4608(11)
H38A H 0.4242 0.3019 0.4673
H39A H 0.5105 0.3798 0.3894
C37A C 0.5760(11) 0.2527(11) 0.4547(11)
H40A H 0.6040 0.2384 0.5284
H41A H 0.5272 0.1824 0.4225
H42A H 0.6421 0.2793 0.4091
O1 O 0.0675(2) 0.12418(16) 0.54413(17)
O2 O 0.16084(18) 0.06721(16) 0.69483(18)
O3 O 0.2011(2) 0.77054(16) 0.44809(18)
O4 O 0.61533(19) 0.60684(18) 0.89259(19)
O5 O 0.8759(4) 0.3910(4) 0.7725(4)
N1 N 0.6960(2) 0.4093(2) 0.72860(19)
H1 H 0.6484 0.4200 0.6748
C1 C 0.0552(3) 0.0907(3) 0.6539(3)
H2 H -0.0063 0.0189 0.6549
C2 C 0.0196(3) 0.1786(2) 0.7260(2)
H3 H 0.0153 0.1537 0.8026
H4 H -0.0574 0.1895 0.7007
C3 C 0.1108(3) 0.2886(2) 0.7181(2)
H5 H 0.0932 0.3490 0.7668
C4 C 0.0935(2) 0.2382(2) 0.5208(2)
C5 C 0.1101(2) 0.3239(2) 0.5996(2)
C6 C 0.1302(2) 0.4384(2) 0.5632(2)
C7 C 0.1443(2) 0.4611(2) 0.4501(2)
C8 C 0.1316(3) 0.3688(2) 0.3744(2)
H6 H 0.1420 0.3830 0.2990
C9 C 0.1047(3) 0.2608(2) 0.4090(2)
H7 H 0.0932 0.1995 0.3572
C10 C 0.1330(2) 0.5323(2) 0.6347(2)
H8 H 0.1187 0.5190 0.7097
C11 C 0.1555(3) 0.6405(2) 0.5995(2)
H9 H 0.1569 0.7015 0.6497
C12 C 0.1768(2) 0.6628(2) 0.4885(2)
C13 C 0.1695(2) 0.5759(2) 0.4148(2)
C14 C 0.2374(3) 0.8657(2) 0.5233(3)
H10 H 0.2995 0.8533 0.5750
H11 H 0.1715 0.8768 0.5657
C15 C 0.2814(3) 0.9680(3) 0.4546(3)
H12 H 0.2160 0.9822 0.4083
H13 H 0.3096 1.0352 0.5038
C16 C 0.3775(3) 0.9556(3) 0.3820(3)
H14 H 0.4415 0.9377 0.4277
H15 H 0.3482 0.8909 0.3300
C17 C 0.4240(4) 1.0603(4) 0.3184(4)
H16 H 0.4832 1.0459 0.2704
H17 H 0.4582 1.1235 0.3693
H18 H 0.3608 1.0797 0.2742
C18 C 0.2287(2) 0.2668(2) 0.7498(2)
C19 C 0.2474(3) 0.1596(2) 0.7316(2)
C20 C 0.3561(3) 0.1354(3) 0.7481(3)
H19 H 0.3648 0.0599 0.7370
C21 C 0.4496(3) 0.2188(3) 0.7797(2)
H20 H 0.5238 0.2019 0.7868
C22 C 0.4381(3) 0.3309(2) 0.8024(2)
C23 C 0.3248(2) 0.3533(2) 0.7919(2)
C24 C 0.3141(3) 0.4617(2) 0.8264(2)
H21 H 0.2393 0.4775 0.8247
C25 C 0.4060(3) 0.5444(3) 0.8619(2)
H22 H 0.3943 0.6157 0.8861
C26 C 0.5190(3) 0.5254(3) 0.8632(2)
C27 C 0.5350(2) 0.4201(2) 0.8355(2)
C28 C 0.6025(3) 0.7204(3) 0.9142(3)
H23 H 0.5477 0.7205 0.9728
H24 H 0.5720 0.7511 0.8475
C29 C 0.7202(4) 0.7920(3) 0.9491(3)
H25 H 0.7122 0.8696 0.9679
H26 H 0.7486 0.7601 1.0161
C30 C 0.8081(4) 0.7996(4) 0.8651(3)
H27 H 0.7778 0.8266 0.7963
H28 H 0.8210 0.7229 0.8502
C31 C 0.9232(4) 0.8791(4) 0.8997(4)
H29 H 0.9796 0.8761 0.8442
H30 H 0.9516 0.8555 0.9699
H31 H 0.9127 0.9568 0.9071
C32 C 0.6554(3) 0.4007(3) 0.8334(2)
H32 H 0.7080 0.4573 0.8825
H33 H 0.6556 0.3243 0.8611
C33 C 0.8063(3) 0.4020(2) 0.7034(2)
O1A O 0.9325(2) 0.87582(16) 0.45587(17)
O2A O 0.83916(18) 0.93279(16) 0.30517(18)
O3A O 0.7989(2) 0.22946(16) 0.55191(18)
O4A O 0.38467(19) 0.39316(18) 0.10741(19)
O5A O 0.1241(4) 0.6090(4) 0.2275(4)
N1A N 0.3040(2) 0.5907(2) 0.27140(19)
H1A H 0.3516 0.5800 0.3252
C1A C 0.9448(3) 0.9093(3) 0.3461(3)
H2A H 1.0063 0.9811 0.3451
C2A C 0.9804(3) 0.8214(2) 0.2740(2)
H3A H 0.9847 0.8463 0.1974
H4A H 1.0574 0.8105 0.2993
C3A C 0.8892(3) 0.7114(2) 0.2819(2)
H5A H 0.9068 0.6510 0.2332
C4A C 0.9065(2) 0.7618(2) 0.4792(2)
C5A C 0.8899(2) 0.6761(2) 0.4004(2)
C6A C 0.8698(2) 0.5616(2) 0.4368(2)
C7A C 0.8557(2) 0.5389(2) 0.5499(2)
C8A C 0.8684(3) 0.6312(2) 0.6256(2)
H6A H 0.8580 0.6170 0.7010
C9A C 0.8953(3) 0.7392(2) 0.5910(2)
H7A H 0.9068 0.8005 0.6428
C10A C 0.8670(2) 0.4677(2) 0.3653(2)
H8A H 0.8813 0.4810 0.2903
C11A C 0.8445(3) 0.3595(2) 0.4005(2)
H9A H 0.8431 0.2985 0.3503
C12A C 0.8232(2) 0.3372(2) 0.5115(2)
C13A C 0.8305(2) 0.4241(2) 0.5852(2)
C14A C 0.7626(3) 0.1343(2) 0.4767(3)
H10A H 0.7005 0.1467 0.4250
H11A H 0.8285 0.1232 0.4343
C15A C 0.7186(3) 0.0320(3) 0.5454(3)
H12A H 0.7840 0.0178 0.5917
H13A H 0.6904 -0.0352 0.4962
C16A C 0.6225(3) 0.0444(3) 0.6180(3)
H14A H 0.5585 0.0623 0.5723
H15A H 0.6518 0.1091 0.6700
C17A C 0.5760(4) -0.0603(4) 0.6816(4)
H16A H 0.5168 -0.0459 0.7296
H17A H 0.5418 -0.1235 0.6307
H18A H 0.6392 -0.0797 0.7258
C18A C 0.7713(2) 0.7332(2) 0.2502(2)
C19A C 0.7526(3) 0.8404(2) 0.2684(2)
C20A C 0.6439(3) 0.8646(3) 0.2519(3)
H19A H 0.6352 0.9401 0.2630
C21A C 0.5504(3) 0.7812(3) 0.2203(2)
H20A H 0.4762 0.7981 0.2132
C22A C 0.5619(3) 0.6691(2) 0.1976(2)
C23A C 0.6752(2) 0.6467(2) 0.2081(2)
C24A C 0.6859(3) 0.5383(2) 0.1736(2)
H21A H 0.7607 0.5225 0.1753
C25A C 0.5940(3) 0.4556(3) 0.1381(2)
H22A H 0.6057 0.3843 0.1139
C26A C 0.4810(3) 0.4746(3) 0.1368(2)
C27A C 0.4650(2) 0.5799(2) 0.1645(2)
C28A C 0.3975(3) 0.2796(3) 0.0858(3)
H23A H 0.4523 0.2795 0.0272
H24A H 0.4280 0.2489 0.1525
C29A C 0.2798(4) 0.2080(3) 0.0509(3)
H25A H 0.2878 0.1304 0.0321
H26A H 0.2514 0.2399 -0.0161
C30A C 0.1919(4) 0.2004(4) 0.1349(3)
H27A H 0.2222 0.1734 0.2037
H28A H 0.1790 0.2771 0.1498
C31A C 0.0768(4) 0.1209(4) 0.1003(4)
H29A H 0.0204 0.1239 0.1558
H30A H 0.0484 0.1445 0.0301
H31A H 0.0873 0.0432 0.0929
C32A C 0.3446(3) 0.5993(3) 0.1666(2)
H32A H 0.2920 0.5427 0.1175
H33A H 0.3444 0.6757 0.1389
C33A C 0.1937(3) 0.5980(2) 0.2966(2)
O7? O 0.7094(4) 0.3754(4) 0.9048(4)
H43? H 0.8169 0.3253 0.7208
H44? H 0.8632 0.4576 0.7498
loop_
_geom_bond_atom_site_label_1
_geom_bond_atom_site_label_2
_geom_bond_site_symmetry_1
_geom_bond_site_symmetry_2
O1 C1 1_555 1_555
O2 C1 1_555 1_555
O3 C12 1_555 1_555
O4 C26 1_555 1_555
O5 C33 1_555 1_555
N1 H1 1_555 1_555
C1 H2 1_555 1_555
C2 C1 1_555 1_555
H3 C2 1_555 1_555
H4 C2 1_555 1_555
C3 C2 1_555 1_555
H5 C3 1_555 1_555
C4 O1 1_555 1_555
C5 C3 1_555 1_555
C6 C5 1_555 1_555
C7 C6 1_555 1_555
C8 C7 1_555 1_555
H6 C8 1_555 1_555
C9 C4 1_555 1_555
H7 C9 1_555 1_555
C10 C6 1_555 1_555
H8 C10 1_555 1_555
C11 C10 1_555 1_555
H9 C11 1_555 1_555
C12 C11 1_555 1_555
C13 C7 1_555 1_555
C14 O3 1_555 1_555
H10 C14 1_555 1_555
H11 C14 1_555 1_555
C15 C14 1_555 1_555
H12 C15 1_555 1_555
H13 C15 1_555 1_555
C16 C15 1_555 1_555
H14 C16 1_555 1_555
H15 C16 1_555 1_555
C17 C16 1_555 1_555
H16 C17 1_555 1_555
H17 C17 1_555 1_555
H18 C17 1_555 1_555
C18 C3 1_555 1_555
C19 O2 1_555 1_555
C20 C19 1_555 1_555
H19 C20 1_555 1_555
C21 C20 1_555 1_555
H20 C21 1_555 1_555
C22 C21 1_555 1_555
C23 C18 1_555 1_555
C24 C23 1_555 1_555
H21 C24 1_555 1_555
C25 C24 1_555 1_555
H22 C25 1_555 1_555
C26 C25 1_555 1_555
C27 C22 1_555 1_555
C28 O4 1_555 1_555
H23 C28 1_555 1_555
H24 C28 1_555 1_555
C29 C28 1_555 1_555
H25 C29 1_555 1_555
H26 C29 1_555 1_555
C30 C29 1_555 1_555
H27 C30 1_555 1_555
H28 C30 1_555 1_555
C31 C30 1_555 1_555
H29 C31 1_555 1_555
H30 C31 1_555 1_555
H31 C31 1_555 1_555
C32 N1 1_555 1_555
H32 C32 1_555 1_555
H33 C32 1_555 1_555
C33 N1 1_555 1_555
O6 C35 1_555 1_555
N2 H34 1_555 1_555
C34 H35 1_555 1_555
H36 C34 1_555 1_555
H37 C34 1_555 1_555
C35 N2 1_555 1_555
C36 N2 1_555 1_555
H38 C36 1_555 1_555
H39 C36 1_555 1_555
C37 C36 1_555 1_555
H40 C37 1_555 1_555
H41 C37 1_555 1_555
H42 C37 1_555 1_555
O1A C1A 1_555 1_555
O2A C1A 1_555 1_555
O3A C12A 1_555 1_555
O4A C26A 1_555 1_555
O5A C33A 1_555 1_555
N1A H1A 1_555 1_555
C1A H2A 1_555 1_555
C2A C1A 1_555 1_555
H3A C2A 1_555 1_555
H4A C2A 1_555 1_555
C3A C2A 1_555 1_555
H5A C3A 1_555 1_555
C4A O1A 1_555 1_555
C5A C3A 1_555 1_555
C6A C5A 1_555 1_555
C7A C6A 1_555 1_555
C8A C7A 1_555 1_555
H6A C8A 1_555 1_555
C9A C4A 1_555 1_555
H7A C9A 1_555 1_555
C10A C6A 1_555 1_555
H8A C10A 1_555 1_555
C11A C10A 1_555 1_555
H9A C11A 1_555 1_555
C12A C11A 1_555 1_555
C13A C33 1_555 1_555
C14A O3A 1_555 1_555
H10A C14A 1_555 1_555
H11A C14A 1_555 1_555
C15A C14A 1_555 1_555
H12A C15A 1_555 1_555
H13A C15A 1_555 1_555
C16A C15A 1_555 1_555
H14A C16A 1_555 1_555
H15A C16A 1_555 1_555
C17A C16A 1_555 1_555
H16A C17A 1_555 1_555
H17A C17A 1_555 1_555
H18A C17A 1_555 1_555
C18A C3A 1_555 1_555
C19A O2A 1_555 1_555
C20A C19A 1_555 1_555
H19A C20A 1_555 1_555
C21A C20A 1_555 1_555
H20A C21A 1_555 1_555
C22A C21A 1_555 1_555
C23A C18A 1_555 1_555
C24A C23A 1_555 1_555
H21A C24A 1_555 1_555
C25A C24A 1_555 1_555
H22A C25A 1_555 1_555
C26A C25A 1_555 1_555
C27A C22A 1_555 1_555
C28A O4A 1_555 1_555
H23A C28A 1_555 1_555
H24A C28A 1_555 1_555
C29A C28A 1_555 1_555
H25A C29A 1_555 1_555
H26A C29A 1_555 1_555
C30A C29A 1_555 1_555
H27A C30A 1_555 1_555
H28A C30A 1_555 1_555
C31A C30A 1_555 1_555
H29A C31A 1_555 1_555
H30A C31A 1_555 1_555
H31A C31A 1_555 1_555
C32A N1A 1_555 1_555
H32A C32A 1_555 1_555
H33A C32A 1_555 1_555
C33A C13 1_555 1_555
O6A C35A 1_555 1_555
N2A H34A 1_555 1_555
C34A H35A 1_555 1_555
H36A C34A 1_555 1_555
H37A C34A 1_555 1_555
C35A N2A 1_555 1_555
C36A N2A 1_555 1_555
H38A C36A 1_555 1_555
H39A C36A 1_555 1_555
C37A C36A 1_555 1_555
H40A C37A 1_555 1_555
H41A C37A 1_555 1_555
H42A C37A 1_555 1_555
C4 C5 1_555 1_555
C8 C9 1_555 1_555
C12 C13 1_555 1_555
C18 C19 1_555 1_555
C22 C23 1_555 1_555
C26 C27 1_555 1_555
C27 C32 1_555 1_555
C34 C35 1_555 1_555
N1A C33A 1_555 1_555
C4A C5A 1_555 1_555
C7A C13A 1_555 1_555
C8A C9A 1_555 1_555
C12A C13A 1_555 1_555
C18A C19A 1_555 1_555
C22A C23A 1_555 1_555
C26A C27A 1_555 1_555
C27A C32A 1_555 1_555
C34A C35A 1_555 1_555

#END
