
#######################################################################
#
#                 Cambridge Crystallographic Data Centre
#                                CCDC 
#
#######################################################################
#
# If this CIF has been generated from an entry in the Cambridge 
# Structural Database, then it will include bibliographic, chemical, 
# crystal, experimental, refinement or atomic coordinate data resulting 
# from the CCDC's data processing and validation procedures.
#
#######################################################################

data_TIHGEY
_chemical_formula_moiety         'C31 H23 N1'
_chemical_name_systematic        
1,2-Dimethyl-3-(spiro[fluorene-9,1'-inden]-3'-yl)-1H-indole
_symmetry_cell_setting           monoclinic
_symmetry_space_group_name_H-M   'P 21/c'
_symmetry_Int_Tables_number      14
_space_group_name_Hall           '-P 2ybc'
loop_
_symmetry_equiv_pos_site_id
_symmetry_equiv_pos_as_xyz
1 x,y,z
2 -x,1/2+y,1/2-z
3 -x,-y,-z
4 x,1/2-y,1/2+z
_cell_length_a                   16.0637(6)
_cell_length_b                   9.4505(3)
_cell_length_c                   14.8945(5)
_cell_angle_alpha                90
_cell_angle_beta                 100.187(3)
_cell_angle_gamma                90
_cell_volume                     2225.49
_exptl_crystal_colour            colorless
_exptl_crystal_description       block
_cell_formula_units_Z            4
loop_
_atom_site_label
_atom_site_type_symbol
_atom_site_fract_x
_atom_site_fract_y
_atom_site_fract_z
N1 N 0.43094(9) -0.19923(14) 0.49310(10)
C1 C 0.09388(9) 0.22445(16) 0.36104(10)
C2 C 0.05078(11) 0.10284(19) 0.37522(12)
H1 H 0.0761 0.0146 0.3739
C3 C -0.03123(12) 0.1150(2) 0.39149(14)
H2 H -0.0611 0.0341 0.4018
C4 C -0.06883(13) 0.2456(3) 0.39246(16)
H3 H -0.1241 0.2518 0.4029
C5 C -0.02611(11) 0.3666(2) 0.37821(14)
H4 H -0.0521 0.4545 0.3786
C6 C 0.05602(10) 0.35642(17) 0.36332(10)
C7 C 0.11813(10) 0.46597(16) 0.35260(10)
C8 C 0.11294(13) 0.61262(19) 0.35051(13)
H5 H 0.0626 0.6581 0.3555
C9 C 0.18362(15) 0.6896(2) 0.34098(14)
H6 H 0.1805 0.7878 0.3388
C10 C 0.25855(14) 0.6238(2) 0.33470(14)
H7 H 0.3057 0.6777 0.3287
C11 C 0.26443(12) 0.47825(19) 0.33719(12)
H8 H 0.3153 0.4335 0.3335
C12 C 0.19390(10) 0.40033(16) 0.34526(10)
C13 C 0.18421(9) 0.24018(16) 0.34385(10)
C14 C 0.25032(9) 0.15870(16) 0.40762(10)
H9 H 0.2616 0.1723 0.4704
C15 C 0.29120(9) 0.06447(15) 0.36412(10)
C16 C 0.25669(9) 0.07423(15) 0.26510(9)
C17 C 0.19502(9) 0.17881(15) 0.25217(9)
C18 C 0.15355(10) 0.21496(16) 0.16644(10)
H10 H 0.1128 0.2860 0.1585
C19 C 0.17380(11) 0.14318(18) 0.09229(10)
H11 H 0.1471 0.1673 0.0337
C20 C 0.23306(11) 0.03625(18) 0.10429(11)
H12 H 0.2452 -0.0120 0.0537
C21 C 0.27471(10) -0.00015(17) 0.19057(10)
H13 H 0.3141 -0.0732 0.1985
C22 C 0.35800(9) -0.03380(15) 0.40394(10)
C23 C 0.35832(10) -0.11785(16) 0.47907(11)
C24 C 0.29375(12) -0.1330(2) 0.53854(12)
H14 H 0.3158 -0.0963 0.5981
H15 H 0.2799 -0.2312 0.5434
H16 H 0.2438 -0.0814 0.5126
C25 C 0.45490(15) -0.3017(2) 0.56573(15)
H17 H 0.4350 -0.2705 0.6195
H18 H 0.5154 -0.3106 0.5787
H19 H 0.4301 -0.3918 0.5470
C26 C 0.47815(10) -0.16728(17) 0.42758(12)
C27 C 0.43472(9) -0.06259(15) 0.37051(10)
C28 C 0.47231(10) -0.00696(19) 0.30075(11)
H20 H 0.4456 0.0642 0.2631
C29 C 0.54929(11) -0.0587(2) 0.28838(13)
H21 H 0.5746 -0.0220 0.2418
C30 C 0.59027(12) -0.1647(2) 0.34404(16)
H22 H 0.6419 -0.1989 0.3334
C31 C 0.55608(12) -0.2195(2) 0.41398(15)
H23 H 0.5839 -0.2897 0.4515
loop_
_geom_bond_atom_site_label_1
_geom_bond_atom_site_label_2
_geom_bond_site_symmetry_1
_geom_bond_site_symmetry_2
N1 C23 1_555 1_555
C1 C2 1_555 1_555
C2 H1 1_555 1_555
C3 C2 1_555 1_555
H2 C3 1_555 1_555
C4 C3 1_555 1_555
H3 C4 1_555 1_555
C5 C4 1_555 1_555
H4 C5 1_555 1_555
C6 C1 1_555 1_555
C7 C6 1_555 1_555
C8 C7 1_555 1_555
H5 C8 1_555 1_555
C9 C8 1_555 1_555
H6 C9 1_555 1_555
C10 C9 1_555 1_555
H7 C10 1_555 1_555
C11 C10 1_555 1_555
H8 C11 1_555 1_555
C12 C7 1_555 1_555
C13 C1 1_555 1_555
C14 C13 1_555 1_555
H9 C14 1_555 1_555
C15 C14 1_555 1_555
C16 C15 1_555 1_555
C17 C13 1_555 1_555
C18 C17 1_555 1_555
H10 C18 1_555 1_555
C19 C18 1_555 1_555
H11 C19 1_555 1_555
C20 C19 1_555 1_555
H12 C20 1_555 1_555
C21 C16 1_555 1_555
H13 C21 1_555 1_555
C22 C15 1_555 1_555
C23 C22 1_555 1_555
C24 C23 1_555 1_555
H14 C24 1_555 1_555
H15 C24 1_555 1_555
H16 C24 1_555 1_555
C25 N1 1_555 1_555
H17 C25 1_555 1_555
H18 C25 1_555 1_555
H19 C25 1_555 1_555
C26 N1 1_555 1_555
C27 C22 1_555 1_555
C28 C27 1_555 1_555
H20 C28 1_555 1_555
C29 C28 1_555 1_555
H21 C29 1_555 1_555
C30 C29 1_555 1_555
H22 C30 1_555 1_555
C31 C26 1_555 1_555
H23 C31 1_555 1_555
C5 C6 1_555 1_555
C11 C12 1_555 1_555
C12 C13 1_555 1_555
C16 C17 1_555 1_555
C20 C21 1_555 1_555
C26 C27 1_555 1_555
C30 C31 1_555 1_555

#END
