
#######################################################################
#
#                 Cambridge Crystallographic Data Centre
#                                CCDC 
#
#######################################################################
#
# If this CIF has been generated from an entry in the Cambridge 
# Structural Database, then it will include bibliographic, chemical, 
# crystal, experimental, refinement or atomic coordinate data resulting 
# from the CCDC's data processing and validation procedures.
#
#######################################################################

data_TIHGOI
_chemical_formula_moiety         'C24 H15 I1 N2 O2'
_chemical_name_systematic        
2-Iodo-4-methyl-7-nitro-4H-spiro[cyclopenta[b]indole-1,9'-fluorene]
_symmetry_cell_setting           triclinic
_symmetry_space_group_name_H-M   'P -1'
_symmetry_Int_Tables_number      2
_space_group_name_Hall           '-P 1'
loop_
_symmetry_equiv_pos_site_id
_symmetry_equiv_pos_as_xyz
1 x,y,z
2 -x,-y,-z
_cell_length_a                   8.7794(3)
_cell_length_b                   14.9065(6)
_cell_length_c                   16.4959(7)
_cell_angle_alpha                75.161(3)
_cell_angle_beta                 75.409(3)
_cell_angle_gamma                88.174(3)
_cell_volume                     2018.29
_exptl_crystal_colour            yellow
_exptl_crystal_description       block
_cell_formula_units_Z            4
loop_
_atom_site_label
_atom_site_type_symbol
_atom_site_fract_x
_atom_site_fract_y
_atom_site_fract_z
I1 I 0.14309(4) 0.11409(2) 0.36478(2)
O1 O 0.4592(7) 0.4118(3) 0.7168(3)
O2 O 0.4188(6) 0.5548(3) 0.6994(3)
N1 N 0.4114(6) 0.4832(3) 0.6795(3)
N2 N 0.1620(4) 0.4754(2) 0.4045(2)
C1 C 0.1509(5) 0.1704(3) 0.5614(3)
C2 C -0.0084(5) 0.1676(3) 0.6010(3)
H1 H -0.0751 0.2088 0.5755
C3 C -0.0670(6) 0.1032(4) 0.6786(4)
H2 H -0.1739 0.1008 0.7058
C4 C 0.0329(7) 0.0418(3) 0.7166(3)
H3 H -0.0077 -0.0009 0.7694
C5 C 0.1911(6) 0.0433(3) 0.6769(3)
H4 H 0.2571 0.0014 0.7022
C6 C 0.2506(5) 0.1079(3) 0.5992(3)
C7 C 0.4100(5) 0.1243(3) 0.5413(3)
C8 C 0.5498(6) 0.0809(4) 0.5493(4)
H5 H 0.5536 0.0344 0.5985
C9 C 0.6827(6) 0.1084(4) 0.4823(5)
H6 H 0.7772 0.0798 0.4863
C10 C 0.6778(6) 0.1773(4) 0.4099(4)
H7 H 0.7690 0.1945 0.3655
C11 C 0.5393(6) 0.2220(3) 0.4016(3)
H8 H 0.5365 0.2686 0.3523
C12 C 0.4068(5) 0.1954(3) 0.4680(3)
C13 C 0.2410(5) 0.2338(3) 0.4769(3)
C14 C 0.1721(5) 0.2351(3) 0.3994(3)
C15 C 0.1298(5) 0.3200(3) 0.3618(3)
H9 H 0.0831 0.3357 0.3156
C16 C 0.1715(5) 0.3821(3) 0.4080(3)
C17 C 0.2336(5) 0.3367(3) 0.4741(3)
C18 C 0.2683(5) 0.4021(3) 0.5164(3)
C19 C 0.3312(5) 0.4005(3) 0.5860(3)
H10 H 0.3641 0.3455 0.6172
C20 C 0.3433(5) 0.4829(3) 0.6073(3)
C21 C 0.2956(6) 0.5674(3) 0.5636(3)
H11 H 0.3043 0.6208 0.5817
C22 C 0.2354(6) 0.5713(3) 0.4934(3)
H12 H 0.2049 0.6274 0.4626
C23 C 0.2211(5) 0.4893(3) 0.4695(3)
C24 C 0.1087(6) 0.5481(3) 0.3412(3)
H13 H 0.1969 0.5877 0.3048
H14 H 0.0324 0.5841 0.3708
H15 H 0.0617 0.5206 0.3063
I2 I 0.58891(4) 0.96161(2) -0.12374(3)
O3 O 0.9144(8) 0.3311(3) 0.2003(3)
O4 O 0.9598(6) 0.4668(3) 0.2104(3)
N3 N 0.9107(6) 0.4151(3) 0.1761(3)
N4 N 0.6541(4) 0.5819(3) -0.0987(2)
C25 C 0.6039(6) 0.7863(3) 0.0729(3)
C26 C 0.4474(7) 0.7663(3) 0.1109(4)
H16 H 0.3834 0.7456 0.0818
C27 C 0.3864(8) 0.7773(4) 0.1932(4)
H17 H 0.2800 0.7640 0.2199
C28 C 0.4813(10) 0.8077(4) 0.2363(4)
H18 H 0.4386 0.8142 0.2921
C29 C 0.6385(9) 0.8287(4) 0.1979(4)
H19 H 0.7022 0.8491 0.2274
C30 C 0.7012(7) 0.8189(3) 0.1147(4)
C31 C 0.8602(7) 0.8391(3) 0.0568(4)
C32 C 0.9957(8) 0.8739(4) 0.0674(5)
H20 H 0.9961 0.8879 0.1191
C33 C 1.1296(8) 0.8875(5) 0.0010(6)
H21 H 1.2214 0.9104 0.0082
C34 C 1.1301(7) 0.8677(4) -0.0761(5)
H22 H 1.2212 0.8790 -0.1211
C35 C 0.9945(6) 0.8307(4) -0.0874(4)
H23 H 0.9951 0.8155 -0.1388
C36 C 0.8605(6) 0.8177(3) -0.0204(4)
C37 C 0.7011(5) 0.7766(3) -0.0159(3)
C38 C 0.6281(5) 0.8216(3) -0.0922(3)
C39 C 0.6009(6) 0.7606(4) -0.1341(3)
H24 H 0.5588 0.7731 -0.1821
C40 C 0.6496(5) 0.6708(3) -0.0906(3)
C41 C 0.7070(5) 0.6773(3) -0.0227(3)
C42 C 0.7517(5) 0.5881(3) 0.0158(3)
C43 C 0.7150(5) 0.5288(3) -0.0332(3)
C44 C 0.7430(6) 0.4346(3) -0.0132(3)
H25 H 0.7202 0.3971 -0.0461
C45 C 0.8047(6) 0.3985(4) 0.0558(3)
H26 H 0.8226 0.3353 0.0712
C46 C 0.8409(6) 0.4557(3) 0.1029(3)
C47 C 0.8172(5) 0.5500(3) 0.0848(3)
H27 H 0.8441 0.5865 0.1175
C48 C 0.6017(6) 0.5484(4) -0.1628(3)
H28 H 0.6914 0.5402 -0.2073
H29 H 0.5340 0.5927 -0.1881
H30 H 0.5450 0.4900 -0.1354
loop_
_geom_bond_atom_site_label_1
_geom_bond_atom_site_label_2
_geom_bond_site_symmetry_1
_geom_bond_site_symmetry_2
I1 C14 1_555 1_555
O1 N1 1_555 1_555
O2 N1 1_555 1_555
N1 C20 1_555 1_555
N2 C16 1_555 1_555
C1 C2 1_555 1_555
C2 H1 1_555 1_555
C3 C2 1_555 1_555
H2 C3 1_555 1_555
C4 C3 1_555 1_555
H3 C4 1_555 1_555
C5 C4 1_555 1_555
H4 C5 1_555 1_555
C6 C1 1_555 1_555
C7 C6 1_555 1_555
C8 C7 1_555 1_555
H5 C8 1_555 1_555
C9 C8 1_555 1_555
H6 C9 1_555 1_555
C10 C9 1_555 1_555
H7 C10 1_555 1_555
C11 C10 1_555 1_555
H8 C11 1_555 1_555
C12 C7 1_555 1_555
C13 C1 1_555 1_555
C14 C13 1_555 1_555
C15 C14 1_555 1_555
H9 C15 1_555 1_555
C16 C15 1_555 1_555
C17 C13 1_555 1_555
C18 C17 1_555 1_555
C19 C18 1_555 1_555
H10 C19 1_555 1_555
C20 C19 1_555 1_555
C21 C20 1_555 1_555
H11 C21 1_555 1_555
C22 C21 1_555 1_555
H12 C22 1_555 1_555
C23 N2 1_555 1_555
C24 N2 1_555 1_555
H13 C24 1_555 1_555
H14 C24 1_555 1_555
H15 C24 1_555 1_555
I2 C38 1_555 1_555
O3 N3 1_555 1_555
O4 N3 1_555 1_555
N3 C46 1_555 1_555
N4 C40 1_555 1_555
C25 C26 1_555 1_555
C26 H16 1_555 1_555
C27 C26 1_555 1_555
H17 C27 1_555 1_555
C28 C27 1_555 1_555
H18 C28 1_555 1_555
C29 C28 1_555 1_555
H19 C29 1_555 1_555
C30 C25 1_555 1_555
C31 C30 1_555 1_555
C32 C31 1_555 1_555
H20 C32 1_555 1_555
C33 C32 1_555 1_555
H21 C33 1_555 1_555
C34 C33 1_555 1_555
H22 C34 1_555 1_555
C35 C34 1_555 1_555
H23 C35 1_555 1_555
C36 C31 1_555 1_555
C37 C25 1_555 1_555
C38 C37 1_555 1_555
C39 C38 1_555 1_555
H24 C39 1_555 1_555
C40 C39 1_555 1_555
C41 C37 1_555 1_555
C42 C41 1_555 1_555
C43 N4 1_555 1_555
C44 C43 1_555 1_555
H25 C44 1_555 1_555
C45 C44 1_555 1_555
H26 C45 1_555 1_555
C46 C45 1_555 1_555
C47 C42 1_555 1_555
H27 C47 1_555 1_555
C48 N4 1_555 1_555
H28 C48 1_555 1_555
H29 C48 1_555 1_555
H30 C48 1_555 1_555
C5 C6 1_555 1_555
C11 C12 1_555 1_555
C12 C13 1_555 1_555
C16 C17 1_555 1_555
C18 C23 1_555 1_555
C22 C23 1_555 1_555
C29 C30 1_555 1_555
C35 C36 1_555 1_555
C36 C37 1_555 1_555
C40 C41 1_555 1_555
C42 C43 1_555 1_555
C46 C47 1_555 1_555

#END
