
#######################################################################
#
#                 Cambridge Crystallographic Data Centre
#                                CCDC 
#
#######################################################################
#
# If this CIF has been generated from an entry in the Cambridge 
# Structural Database, then it will include bibliographic, chemical, 
# crystal, experimental, refinement or atomic coordinate data resulting 
# from the CCDC's data processing and validation procedures.
#
#######################################################################

data_TIHHAV
_chemical_formula_moiety         'C30 H23 N1'
_chemical_name_systematic        
4-Methyl-1,3,3-triphenyl-3,4-dihydrocyclopenta[b]indole
_symmetry_cell_setting           monoclinic
_symmetry_space_group_name_H-M   'P 21'
_symmetry_Int_Tables_number      4
_space_group_name_Hall           'P 2yb'
loop_
_symmetry_equiv_pos_site_id
_symmetry_equiv_pos_as_xyz
1 x,y,z
2 -x,1/2+y,-z
_cell_length_a                   6.8494(3)
_cell_length_b                   12.5402(4)
_cell_length_c                   12.5449(5)
_cell_angle_alpha                90
_cell_angle_beta                 96.212(4)
_cell_angle_gamma                90
_cell_volume                     1071.19
_exptl_crystal_colour            colorless
_exptl_crystal_description       block
_cell_formula_units_Z            2
loop_
_atom_site_label
_atom_site_type_symbol
_atom_site_fract_x
_atom_site_fract_y
_atom_site_fract_z
N1 N 0.5006(2) -0.09826(14) 0.66346(13)
C1 C 0.4147(3) 0.15142(17) 0.72123(17)
C2 C 0.5372(4) 0.1481(2) 0.81688(19)
H1 H 0.5262 0.0916 0.8639
C3 C 0.6743(4) 0.2262(2) 0.8438(2)
H2 H 0.7561 0.2216 0.9079
C4 C 0.6904(4) 0.3108(2) 0.7767(2)
H3 H 0.7808 0.3647 0.7956
C5 C 0.5731(4) 0.3156(2) 0.6817(2)
H4 H 0.5844 0.3728 0.6356
C6 C 0.4371(4) 0.23586(19) 0.6535(2)
H5 H 0.3600 0.2395 0.5879
C7 C 0.0035(3) 0.16306(18) 0.5761(2)
H6 H 0.0037 0.2145 0.6295
C8 C -0.1219(4) 0.1742(2) 0.4830(2)
H7 H -0.2030 0.2337 0.4737
C9 C -0.1282(4) 0.0984(2) 0.4041(2)
H8 H -0.2139 0.1058 0.3418
C10 C -0.0077(4) 0.0124(2) 0.4180(2)
H9 H -0.0116 -0.0394 0.3648
C11 C 0.1212(3) 0.00094(18) 0.51065(18)
H10 H 0.2031 -0.0583 0.5184
C12 C 0.1296(3) 0.07622(16) 0.59147(17)
C13 C 0.2616(3) 0.06240(16) 0.69672(16)
C14 C 0.1295(3) 0.05470(17) 0.78791(16)
H11 H 0.0508 0.1103 0.8074
C15 C 0.1399(3) -0.04145(17) 0.83679(16)
C16 C 0.2836(3) -0.10700(16) 0.78652(15)
C17 C 0.3547(3) -0.04648(17) 0.70904(15)
C18 C 0.0280(3) -0.07233(16) 0.92593(16)
C19 C -0.0611(3) -0.17149(18) 0.92873(17)
H12 H -0.0439 -0.2213 0.8756
C20 C -0.1755(3) -0.1972(2) 1.00967(19)
H13 H -0.2371 -0.2634 1.0097
C21 C -0.1981(3) -0.1250(2) 1.0899(2)
H14 H -0.2748 -0.1423 1.1443
C22 C -0.1071(3) -0.0273(2) 1.08985(19)
H15 H -0.1210 0.0211 1.1447
C23 C 0.0050(3) -0.00067(17) 1.00836(18)
H16 H 0.0656 0.0657 1.0087
C24 C 0.3901(3) -0.20534(17) 0.79213(15)
C25 C 0.3914(3) -0.29839(18) 0.85285(17)
H17 H 0.3061 -0.3060 0.9052
C26 C 0.5202(3) -0.37908(19) 0.83479(19)
H18 H 0.5214 -0.4411 0.8755
C27 C 0.6487(3) -0.3692(2) 0.7565(2)
H19 H 0.7338 -0.4251 0.7457
C28 C 0.6523(3) -0.27905(18) 0.69494(18)
H20 H 0.7381 -0.2730 0.6426
C29 C 0.5241(3) -0.19721(18) 0.71317(16)
C30 C 0.6328(3) -0.0537(2) 0.59303(18)
H21 H 0.7510 -0.0303 0.6346
H22 H 0.5710 0.0058 0.5549
H23 H 0.6643 -0.1071 0.5427
loop_
_geom_bond_atom_site_label_1
_geom_bond_atom_site_label_2
_geom_bond_site_symmetry_1
_geom_bond_site_symmetry_2
N1 C17 1_555 1_555
C1 C2 1_555 1_555
C2 H1 1_555 1_555
C3 C2 1_555 1_555
H2 C3 1_555 1_555
C4 C3 1_555 1_555
H3 C4 1_555 1_555
C5 C4 1_555 1_555
H4 C5 1_555 1_555
C6 C1 1_555 1_555
H5 C6 1_555 1_555
C7 H6 1_555 1_555
C8 C7 1_555 1_555
H7 C8 1_555 1_555
C9 C8 1_555 1_555
H8 C9 1_555 1_555
C10 C9 1_555 1_555
H9 C10 1_555 1_555
C11 C10 1_555 1_555
H10 C11 1_555 1_555
C12 C7 1_555 1_555
C13 C1 1_555 1_555
C14 C13 1_555 1_555
H11 C14 1_555 1_555
C15 C14 1_555 1_555
C16 C15 1_555 1_555
C17 C13 1_555 1_555
C18 C15 1_555 1_555
C19 C18 1_555 1_555
H12 C19 1_555 1_555
C20 C19 1_555 1_555
H13 C20 1_555 1_555
C21 C20 1_555 1_555
H14 C21 1_555 1_555
C22 C21 1_555 1_555
H15 C22 1_555 1_555
C23 C18 1_555 1_555
H16 C23 1_555 1_555
C24 C16 1_555 1_555
C25 C24 1_555 1_555
H17 C25 1_555 1_555
C26 C25 1_555 1_555
H18 C26 1_555 1_555
C27 C26 1_555 1_555
H19 C27 1_555 1_555
C28 C27 1_555 1_555
H20 C28 1_555 1_555
C29 N1 1_555 1_555
C30 N1 1_555 1_555
H21 C30 1_555 1_555
H22 C30 1_555 1_555
H23 C30 1_555 1_555
C5 C6 1_555 1_555
C11 C12 1_555 1_555
C12 C13 1_555 1_555
C16 C17 1_555 1_555
C22 C23 1_555 1_555
C24 C29 1_555 1_555
C28 C29 1_555 1_555

#END
