
#######################################################################
#
#                 Cambridge Crystallographic Data Centre
#                                CCDC 
#
#######################################################################
#
# If this CIF has been generated from an entry in the Cambridge 
# Structural Database, then it will include bibliographic, chemical, 
# crystal, experimental, refinement or atomic coordinate data resulting 
# from the CCDC's data processing and validation procedures.
#
#######################################################################

data_TIHHUO
_chemical_formula_moiety         'C21 H20 Cl2 N2 O2 S1'
_chemical_name_systematic        
6-(2,6-Dichlorobenzyl)-5-ethyl-2-(4-methoxybenzylsulfanyl)pyrimidin-4(3H)-one
_symmetry_cell_setting           monoclinic
_symmetry_space_group_name_H-M   'P 21/c'
_symmetry_Int_Tables_number      14
_space_group_name_Hall           '-P 2ybc'
loop_
_symmetry_equiv_pos_site_id
_symmetry_equiv_pos_as_xyz
1 x,y,z
2 -x,1/2+y,1/2-z
3 -x,-y,-z
4 x,1/2-y,1/2+z
_cell_length_a                   10.037(3)
_cell_length_b                   17.264(5)
_cell_length_c                   13.006(4)
_cell_angle_alpha                90
_cell_angle_beta                 105.901(5)
_cell_angle_gamma                90
_cell_volume                     2167.43
_exptl_crystal_colour            colorless
_exptl_crystal_description       block
_chemical_melting_point          '504.2-504.5 K'
_cell_formula_units_Z            4
_exptl_crystal_recrystallization_method dimethylformamide
loop_
_atom_site_label
_atom_site_type_symbol
_atom_site_fract_x
_atom_site_fract_y
_atom_site_fract_z
Cl1 Cl 0.4124(2) 0.63842(15) -0.0284(2)
Cl2 Cl 0.1444(2) 0.68614(13) 0.26805(15)
N1 N 0.1198(3) 0.92035(15) 0.0294(2)
N2 N 0.2527(3) 0.80811(15) 0.0714(2)
O1 O 1.0343(3) 1.00550(19) 0.3657(2)
O2 O -0.1101(2) 0.92001(13) -0.05248(19)
S1 S 0.38515(10) 0.94244(5) 0.11803(10)
C1 C 1.1372(5) 1.0113(4) 0.3105(4)
H1 H 1.1553 0.9609 0.2861
H2 H 1.2207 1.0318 0.3576
H3 H 1.1055 1.0452 0.2502
C2 C 0.9086(4) 0.9743(2) 0.3126(3)
C3 C 0.8719(4) 0.9551(3) 0.2074(3)
H4 H 0.9330 0.9639 0.1662
C4 C 0.7439(4) 0.9227(3) 0.1616(3)
H5 H 0.7197 0.9098 0.0894
C5 C 0.6523(4) 0.9091(2) 0.2194(3)
C6 C 0.6893(4) 0.9330(2) 0.3243(3)
H6 H 0.6264 0.9274 0.3646
C7 C 0.8158(4) 0.9646(2) 0.3704(3)
H7 H 0.8387 0.9796 0.4418
C8 C 0.5162(4) 0.8701(2) 0.1694(4)
H8 H 0.4898 0.8385 0.2222
H9 H 0.5250 0.8366 0.1117
C9 C 0.2405(3) 0.88306(18) 0.0689(3)
C10 C -0.0018(3) 0.88240(18) -0.0153(3)
C11 C 0.0061(3) 0.79882(18) -0.0140(3)
C12 C 0.1330(4) 0.76667(18) 0.0313(3)
C13 C -0.1228(4) 0.7540(2) -0.0637(4)
H10 H -0.1796 0.7836 -0.1230
H11 H -0.0974 0.7061 -0.0925
C14 C -0.2057(6) 0.7353(4) 0.0102(6)
H12 H -0.1524 0.7031 0.0669
H13 H -0.2881 0.7082 -0.0277
H14 H -0.2307 0.7823 0.0397
C15 C 0.1547(4) 0.67980(19) 0.0402(3)
H15 H 0.0758 0.6558 0.0569
H16 H 0.1605 0.6595 -0.0280
C16 C 0.2846(4) 0.65926(18) 0.1253(4)
C17 C 0.4062(5) 0.6412(3) 0.1025(6)
C18 C 0.5284(9) 0.6259(5) 0.1810(11)
H17 H 0.6096 0.6135 0.1633
C19 C 0.5249(13) 0.6295(5) 0.2816(12)
H18 H 0.6067 0.6211 0.3350
C20 C 0.4118(10) 0.6443(4) 0.3100(7)
H19 H 0.4137 0.6429 0.3818
C21 C 0.2899(6) 0.6619(3) 0.2338(5)
H20 H 0.112(3) 0.9696(6) 0.034(2)
loop_
_geom_bond_atom_site_label_1
_geom_bond_atom_site_label_2
_geom_bond_site_symmetry_1
_geom_bond_site_symmetry_2
Cl1 C17 1_555 1_555
Cl2 C21 1_555 1_555
N1 C9 1_555 1_555
N2 C9 1_555 1_555
O1 C1 1_555 1_555
O2 C10 1_555 1_555
S1 C8 1_555 1_555
C1 H1 1_555 1_555
H2 C1 1_555 1_555
H3 C1 1_555 1_555
C2 O1 1_555 1_555
C3 C2 1_555 1_555
H4 C3 1_555 1_555
C4 C3 1_555 1_555
H5 C4 1_555 1_555
C5 C4 1_555 1_555
C6 C5 1_555 1_555
H6 C6 1_555 1_555
C7 C2 1_555 1_555
H7 C7 1_555 1_555
C8 C5 1_555 1_555
H8 C8 1_555 1_555
H9 C8 1_555 1_555
C9 S1 1_555 1_555
C10 N1 1_555 1_555
C11 C10 1_555 1_555
C12 N2 1_555 1_555
C13 C11 1_555 1_555
H10 C13 1_555 1_555
H11 C13 1_555 1_555
C14 C13 1_555 1_555
H12 C14 1_555 1_555
H13 C14 1_555 1_555
H14 C14 1_555 1_555
C15 C12 1_555 1_555
H15 C15 1_555 1_555
H16 C15 1_555 1_555
C16 C15 1_555 1_555
C17 C16 1_555 1_555
C18 C17 1_555 1_555
H17 C18 1_555 1_555
C19 C18 1_555 1_555
H18 C19 1_555 1_555
C20 C19 1_555 1_555
H19 C20 1_555 1_555
C21 C16 1_555 1_555
H20 N1 1_555 1_555
C6 C7 1_555 1_555
C11 C12 1_555 1_555
C20 C21 1_555 1_555

#END
