
#######################################################################
#
#                 Cambridge Crystallographic Data Centre
#                                CCDC 
#
#######################################################################
#
# If this CIF has been generated from an entry in the Cambridge 
# Structural Database, then it will include bibliographic, chemical, 
# crystal, experimental, refinement or atomic coordinate data resulting 
# from the CCDC's data processing and validation procedures.
#
#######################################################################

data_TIHHEZ
_chemical_formula_moiety         'C30 H21 N1'
_chemical_name_systematic        
4-Methyl-1-phenyl-4H-spiro[cyclopenta[b]indole-3,9'-fluorene]
_symmetry_cell_setting           monoclinic
_symmetry_space_group_name_H-M   'P 21/n'
_symmetry_Int_Tables_number      14
_space_group_name_Hall           '-P 2yn'
loop_
_symmetry_equiv_pos_site_id
_symmetry_equiv_pos_as_xyz
1 x,y,z
2 1/2-x,1/2+y,1/2-z
3 -x,-y,-z
4 1/2+x,1/2-y,1/2+z
_cell_length_a                   12.0996(5)
_cell_length_b                   13.4499(4)
_cell_length_c                   14.1270(6)
_cell_angle_alpha                90
_cell_angle_beta                 110.834(5)
_cell_angle_gamma                90
_cell_volume                     2148.68
_exptl_crystal_colour            yellow
_exptl_crystal_description       block
_cell_formula_units_Z            4
loop_
_atom_site_label
_atom_site_type_symbol
_atom_site_fract_x
_atom_site_fract_y
_atom_site_fract_z
N1 N 0.52328(12) 0.21428(9) 1.01300(10)
C1 C 0.59169(15) 0.13387(12) 0.81385(12)
C2 C 0.48974(17) 0.08185(14) 0.76211(14)
H1 H 0.4161 0.1065 0.7573
C3 C 0.4994(2) -0.00795(15) 0.71746(14)
H2 H 0.4315 -0.0443 0.6832
C4 C 0.6077(2) -0.04402(14) 0.72309(15)
H3 H 0.6121 -0.1037 0.6913
C5 C 0.70963(19) 0.00705(13) 0.77516(14)
H4 H 0.7829 -0.0179 0.7793
C6 C 0.70177(15) 0.09617(12) 0.82143(11)
C7 C 0.79363(15) 0.16381(12) 0.88350(12)
C8 C 0.91566(17) 0.15908(15) 0.91379(15)
H5 H 0.9519 0.1073 0.8922
C9 C 0.98252(18) 0.23227(16) 0.97640(15)
H6 H 1.0645 0.2299 0.9969
C10 C 0.92986(19) 0.30852(16) 1.00889(15)
H7 H 0.9766 0.3563 1.0526
C11 C 0.80804(19) 0.31527(13) 0.97747(13)
H8 H 0.7725 0.3675 0.9990
C12 C 0.74019(15) 0.24313(11) 0.91365(12)
C13 C 0.60616(15) 0.23586(12) 0.86388(12)
C14 C 0.55736(15) 0.31872(12) 0.78553(12)
H9 H 0.5803 0.3279 0.7299
C15 C 0.47817(14) 0.37651(11) 0.80570(12)
C16 C 0.46450(14) 0.33841(11) 0.89878(11)
C17 C 0.53571(14) 0.25784(12) 0.93030(12)
C18 C 0.41523(14) 0.46246(11) 0.74638(12)
C19 C 0.39281(16) 0.54584(12) 0.79389(14)
H10 H 0.4178 0.5477 0.8642
C20 C 0.33375(17) 0.62643(14) 0.73805(18)
H11 H 0.3193 0.6821 0.7710
C21 C 0.29635(17) 0.62494(16) 0.63435(17)
H12 H 0.2561 0.6791 0.5969
C22 C 0.31850(17) 0.54347(16) 0.58632(15)
H13 H 0.2935 0.5425 0.5160
C23 C 0.37763(16) 0.46250(13) 0.64116(13)
H14 H 0.3925 0.4075 0.6075
C24 C 0.39956(13) 0.34836(11) 0.96564(11)
C25 C 0.31230(15) 0.41165(13) 0.97522(13)
H15 H 0.2843 0.4643 0.9304
C26 C 0.26857(17) 0.39558(15) 1.05076(15)
H16 H 0.2107 0.4379 1.0569
C27 C 0.30873(18) 0.31755(15) 1.11849(14)
H17 H 0.2768 0.3083 1.1688
C28 C 0.39475(16) 0.25351(14) 1.11281(13)
H18 H 0.4221 0.2016 1.1587
C29 C 0.43926(13) 0.26916(11) 1.03597(11)
C30 C 0.58366(19) 0.12674(13) 1.06605(15)
H19 H 0.6409 0.1459 1.1303
H20 H 0.6230 0.0941 1.0264
H21 H 0.5272 0.0821 1.0767
loop_
_geom_bond_atom_site_label_1
_geom_bond_atom_site_label_2
_geom_bond_site_symmetry_1
_geom_bond_site_symmetry_2
N1 C17 1_555 1_555
C1 C2 1_555 1_555
C2 H1 1_555 1_555
C3 C2 1_555 1_555
H2 C3 1_555 1_555
C4 C3 1_555 1_555
H3 C4 1_555 1_555
C5 C4 1_555 1_555
H4 C5 1_555 1_555
C6 C1 1_555 1_555
C7 C6 1_555 1_555
C8 C7 1_555 1_555
H5 C8 1_555 1_555
C9 C8 1_555 1_555
H6 C9 1_555 1_555
C10 C9 1_555 1_555
H7 C10 1_555 1_555
C11 C10 1_555 1_555
H8 C11 1_555 1_555
C12 C7 1_555 1_555
C13 C1 1_555 1_555
C14 C13 1_555 1_555
H9 C14 1_555 1_555
C15 C14 1_555 1_555
C16 C15 1_555 1_555
C17 C13 1_555 1_555
C18 C15 1_555 1_555
C19 C18 1_555 1_555
H10 C19 1_555 1_555
C20 C19 1_555 1_555
H11 C20 1_555 1_555
C21 C20 1_555 1_555
H12 C21 1_555 1_555
C22 C21 1_555 1_555
H13 C22 1_555 1_555
C23 C18 1_555 1_555
H14 C23 1_555 1_555
C24 C16 1_555 1_555
C25 C24 1_555 1_555
H15 C25 1_555 1_555
C26 C25 1_555 1_555
H16 C26 1_555 1_555
C27 C26 1_555 1_555
H17 C27 1_555 1_555
C28 C27 1_555 1_555
H18 C28 1_555 1_555
C29 N1 1_555 1_555
C30 N1 1_555 1_555
H19 C30 1_555 1_555
H20 C30 1_555 1_555
H21 C30 1_555 1_555
C5 C6 1_555 1_555
C11 C12 1_555 1_555
C12 C13 1_555 1_555
C16 C17 1_555 1_555
C22 C23 1_555 1_555
C24 C29 1_555 1_555
C28 C29 1_555 1_555

#END
