
#######################################################################
#
#                 Cambridge Crystallographic Data Centre
#                                CCDC 
#
#######################################################################
#
# If this CIF has been generated from an entry in the Cambridge 
# Structural Database, then it will include bibliographic, chemical, 
# crystal, experimental, refinement or atomic coordinate data resulting 
# from the CCDC's data processing and validation procedures.
#
#######################################################################

data_TIHJUR
_chemical_formula_moiety         'C25 H28 I1 N1 O3 S1'
_chemical_name_systematic        
8-Iodo-6-(4-methoxyphenyl)-3-((4-methylphenyl)sulfonyl)-3-azatricyclo[5.4.1.0^1,5^]dodec-5-ene
_symmetry_cell_setting           monoclinic
_symmetry_space_group_name_H-M   'P 21'
_symmetry_Int_Tables_number      4
_space_group_name_Hall           'P 2yb'
loop_
_symmetry_equiv_pos_site_id
_symmetry_equiv_pos_as_xyz
1 x,y,z
2 -x,1/2+y,-z
_cell_length_a                   12.813(4)
_cell_length_b                   6.246(2)
_cell_length_c                   15.497(5)
_cell_angle_alpha                90
_cell_angle_beta                 110.299(4)
_cell_angle_gamma                90
_cell_volume                     1163.2
_exptl_crystal_colour            colorless
_exptl_crystal_description       prism
_cell_formula_units_Z            2
loop_
_atom_site_label
_atom_site_type_symbol
_atom_site_fract_x
_atom_site_fract_y
_atom_site_fract_z
C1 C 0.1593(7) 0.7205(15) 0.4210(5)
C2 C 0.0568(7) 0.6429(15) 0.3607(5)
H1 H 0.0528 0.5045 0.3343
C3 C -0.0357(7) 0.7637(16) 0.3403(6)
H2 H -0.1040 0.7099 0.2988
C4 C -0.0332(6) 0.966(3) 0.3787(5)
C5 C -0.1352(9) 1.108(2) 0.3531(8)
H3 H -0.1166 1.2420 0.3880
H4 H -0.1946 1.0346 0.3676
H5 H -0.1604 1.1396 0.2870
C6 C 0.0682(8) 1.0407(15) 0.4386(6)
H6 H 0.0710 1.1775 0.4661
C7 C 0.1628(7) 0.9256(15) 0.4590(5)
H7 H 0.2312 0.9828 0.4988
C8 C 0.4179(7) 0.8332(13) 0.3854(6)
H8 H 0.4790 0.8276 0.4457
H9 H 0.3781 0.9713 0.3792
C9 C 0.4606(7) 0.7953(13) 0.3051(5)
C10 C 0.3536(6) 0.7226(12) 0.2311(5)
C11 C 0.2862(7) 0.5929(14) 0.2731(5)
H10 H 0.2071 0.6369 0.2498
H11 H 0.2914 0.4381 0.2615
C12 C 0.3371(7) 0.8129(13) 0.1482(5)
C13 C 0.2413(6) 0.7892(13) 0.0614(5)
C14 C 0.1655(7) 0.6200(13) 0.0439(5)
H12 H 0.1774 0.5111 0.0891
C15 C 0.0736(7) 0.6033(14) -0.0361(5)
H13 H 0.0238 0.4859 -0.0452
C16 C 0.0555(7) 0.7611(14) -0.1030(5)
C17 C -0.1052(7) 0.5864(16) -0.2071(6)
H14 H -0.1622 0.6069 -0.2678
H15 H -0.1408 0.5754 -0.1606
H16 H -0.0637 0.4547 -0.2071
C18 C 0.1282(6) 0.9349(16) -0.0889(5)
H17 H 0.1158 1.0431 -0.1345
C19 C 0.2192(6) 0.948(2) -0.0073(4)
H18 H 0.2679 1.0672 0.0023
C20 C 0.4430(5) 0.9377(15) 0.1549(5)
H19 H 0.4226 1.0730 0.1184
C21 C 0.4935(6) 0.992(2) 0.2598(5)
H20 H 0.5754 1.0076 0.2800
H21 H 0.4610 1.1249 0.2742
C22 C 0.5535(7) 0.6194(13) 0.3333(5)
H22 H 0.6071 0.6569 0.3948
H23 H 0.5184 0.4819 0.3397
C23 C 0.6192(7) 0.5836(15) 0.2683(6)
H24 H 0.6594 0.4458 0.2848
H25 H 0.6759 0.6980 0.2798
C24 C 0.5517(8) 0.5800(15) 0.1646(6)
H26 H 0.5967 0.5051 0.1334
H27 H 0.4843 0.4924 0.1554
C25 C 0.5144(7) 0.7955(14) 0.1157(6)
H28 H 0.4666 0.7605 0.0510
N1 N 0.3399(5) 0.6449(13) 0.3719(4)
O1 O 0.2547(6) 0.3527(11) 0.4265(5)
O2 O 0.3590(5) 0.6365(11) 0.5358(4)
O3 O -0.0316(5) 0.7622(10) -0.1864(4)
S1 S 0.2837(2) 0.5729(4) 0.44580(18)
I1 I 0.65767(4) 0.96755(13) 0.10664(3)
loop_
_geom_bond_atom_site_label_1
_geom_bond_atom_site_label_2
_geom_bond_site_symmetry_1
_geom_bond_site_symmetry_2
C1 C2 1_555 1_555
C2 H1 1_555 1_555
C3 C2 1_555 1_555
H2 C3 1_555 1_555
C4 C3 1_555 1_555
C5 C4 1_555 1_555
H3 C5 1_555 1_555
H4 C5 1_555 1_555
H5 C5 1_555 1_555
C6 C4 1_555 1_555
H6 C6 1_555 1_555
C7 C1 1_555 1_555
H7 C7 1_555 1_555
C8 H8 1_555 1_555
H9 C8 1_555 1_555
C9 C8 1_555 1_555
C10 C9 1_555 1_555
C11 C10 1_555 1_555
H10 C11 1_555 1_555
H11 C11 1_555 1_555
C12 C10 1_555 1_555
C13 C12 1_555 1_555
C14 C13 1_555 1_555
H12 C14 1_555 1_555
C15 C14 1_555 1_555
H13 C15 1_555 1_555
C16 C15 1_555 1_555
C17 H14 1_555 1_555
H15 C17 1_555 1_555
H16 C17 1_555 1_555
C18 C16 1_555 1_555
H17 C18 1_555 1_555
C19 C13 1_555 1_555
H18 C19 1_555 1_555
C20 C12 1_555 1_555
H19 C20 1_555 1_555
C21 C9 1_555 1_555
H20 C21 1_555 1_555
H21 C21 1_555 1_555
C22 C9 1_555 1_555
H22 C22 1_555 1_555
H23 C22 1_555 1_555
C23 C22 1_555 1_555
H24 C23 1_555 1_555
H25 C23 1_555 1_555
C24 C23 1_555 1_555
H26 C24 1_555 1_555
H27 C24 1_555 1_555
C25 C20 1_555 1_555
H28 C25 1_555 1_555
N1 C8 1_555 1_555
O1 S1 1_555 1_555
O2 S1 1_555 1_555
O3 C16 1_555 1_555
S1 C1 1_555 1_555
I1 C25 1_555 1_555
C6 C7 1_555 1_555
C11 N1 1_555 1_555
C17 O3 1_555 1_555
C18 C19 1_555 1_555
C20 C21 1_555 1_555
C24 C25 1_555 1_555
N1 S1 1_555 1_555

#END
