
#######################################################################
#
#                 Cambridge Crystallographic Data Centre
#                                CCDC 
#
#######################################################################
#
# If this CIF has been generated from an entry in the Cambridge 
# Structural Database, then it will include bibliographic, chemical, 
# crystal, experimental, refinement or atomic coordinate data resulting 
# from the CCDC's data processing and validation procedures.
#
#######################################################################

data_TIHJAW01
_chemical_formula_moiety         'C11 H12 N2 O3 S1'
_chemical_name_systematic        
N-[(4-methylbenzene-1-carbonyl)carbamothioyl]glycine
_symmetry_cell_setting           monoclinic
_symmetry_space_group_name_H-M   'P 21/n'
_symmetry_Int_Tables_number      14
_space_group_name_Hall           '-P 2yn'
loop_
_symmetry_equiv_pos_site_id
_symmetry_equiv_pos_as_xyz
1 x,y,z
2 1/2-x,1/2+y,1/2-z
3 -x,-y,-z
4 1/2+x,1/2-y,1/2+z
_cell_length_a                   11.6804(7)
_cell_length_b                   8.5970(3)
_cell_length_c                   12.9692(6)
_cell_angle_alpha                90
_cell_angle_beta                 113.850(6)
_cell_angle_gamma                90
_cell_volume                     1191.11
_exptl_crystal_colour            yellow
_exptl_crystal_description       prism
_cell_formula_units_Z            4
loop_
_atom_site_label
_atom_site_type_symbol
_atom_site_fract_x
_atom_site_fract_y
_atom_site_fract_z
C1 C 0.21832(18) 0.0904(2) 0.11620(16)
C2 C 0.32188(19) -0.0011(2) 0.20387(16)
H1 H 0.3036 -0.1112 0.1914
H2 H 0.3996 0.0189 0.1959
C3 C 0.40517(18) 0.1566(2) 0.37463(16)
C4 C 0.34180(19) 0.1074(3) 0.53261(17)
C5 C 0.36812(19) 0.1564(3) 0.65013(17)
C6 C 0.4335(2) 0.2906(2) 0.70017(18)
H3 H 0.4586 0.3590 0.6578
C7 C 0.4616(2) 0.3233(3) 0.8117(2)
H4 H 0.5061 0.4132 0.8437
C8 C 0.4246(2) 0.2242(3) 0.87752(19)
C9 C 0.3558(2) 0.0940(3) 0.8264(2)
H5 H 0.3275 0.0284 0.8681
C10 C 0.3278(2) 0.0588(3) 0.7146(2)
H6 H 0.2820 -0.0302 0.6824
C11 C 0.4605(3) 0.2592(4) 1.0007(2)
H7 H 0.4653 0.1639 1.0408
H8 H 0.3987 0.3259 1.0086
H9 H 0.5405 0.3102 1.0311
N1 N 0.33740(17) 0.0384(2) 0.31685(14)
H10 H 0.299(2) -0.018(3) 0.348(2)
N2 N 0.41289(17) 0.1781(2) 0.48297(14)
H11 H 0.472(3) 0.236(3) 0.522(2)
O1 O 0.15827(14) 0.19021(18) 0.13581(12)
O2 O 0.20097(17) 0.0452(2) 0.01380(12)
H12 H 0.1475 0.1000 -0.0328
O3 O 0.26381(18) 0.0092(2) 0.48336(14)
S1 S 0.48085(6) 0.27861(7) 0.32200(4)
loop_
_geom_bond_atom_site_label_1
_geom_bond_atom_site_label_2
_geom_bond_site_symmetry_1
_geom_bond_site_symmetry_2
C1 C2 1_555 1_555
C2 H1 1_555 1_555
H2 C2 1_555 1_555
C3 N1 1_555 1_555
C4 C5 1_555 1_555
C5 C6 1_555 1_555
C6 H3 1_555 1_555
C7 C6 1_555 1_555
H4 C7 1_555 1_555
C8 C7 1_555 1_555
C9 C8 1_555 1_555
H5 C9 1_555 1_555
C10 C5 1_555 1_555
H6 C10 1_555 1_555
C11 C8 1_555 1_555
H7 C11 1_555 1_555
H8 C11 1_555 1_555
H9 C11 1_555 1_555
N1 C2 1_555 1_555
H10 N1 1_555 1_555
N2 C3 1_555 1_555
H11 N2 1_555 1_555
O1 C1 1_555 1_555
O2 C1 1_555 1_555
H12 O2 1_555 1_555
O3 C4 1_555 1_555
S1 C3 1_555 1_555
C4 N2 1_555 1_555
C9 C10 1_555 1_555

#END
