
#######################################################################
#
#                 Cambridge Crystallographic Data Centre
#                                CCDC 
#
#######################################################################
#
# If this CIF has been generated from an entry in the Cambridge 
# Structural Database, then it will include bibliographic, chemical, 
# crystal, experimental, refinement or atomic coordinate data resulting 
# from the CCDC's data processing and validation procedures.
#
#######################################################################

data_TIHKIG
_chemical_formula_moiety         'C18 H21 Cl1 O1'
_chemical_name_systematic        
1-(Chloro(phenyl)methylene)spiro[4.6]undecan-8-one
_symmetry_cell_setting           triclinic
_symmetry_space_group_name_H-M   'P -1'
_symmetry_Int_Tables_number      2
_space_group_name_Hall           '-P 1'
loop_
_symmetry_equiv_pos_site_id
_symmetry_equiv_pos_as_xyz
1 x,y,z
2 -x,-y,-z
_cell_length_a                   8.6695(2)
_cell_length_b                   12.6691(4)
_cell_length_c                   14.0890(4)
_cell_angle_alpha                97.4090(10)
_cell_angle_beta                 97.2790(10)
_cell_angle_gamma                91.6110(10)
_cell_volume                     1520.62
_exptl_crystal_colour            colorless
_exptl_crystal_description       prism
_cell_formula_units_Z            4
loop_
_atom_site_label
_atom_site_type_symbol
_atom_site_fract_x
_atom_site_fract_y
_atom_site_fract_z
C1 C 1.0634(2) 0.48515(17) 0.17765(15)
C2 C 1.1387(2) 0.56756(18) 0.25538(16)
C3 C 1.2547(3) 0.7444(2) 0.3035(2)
H1 H 1.2928 0.8096 0.2868
C4 C 1.1975(3) 0.66302(19) 0.23180(18)
H2 H 1.1983 0.6721 0.1660
C5 C 1.2566(3) 0.7314(2) 0.3992(2)
H3 H 1.2941 0.7880 0.4485
C6 C 1.2036(3) 0.6353(3) 0.42349(19)
H4 H 1.2065 0.6259 0.4895
C7 C 1.1464(3) 0.5531(2) 0.35225(18)
H5 H 1.1125 0.4870 0.3693
C8 C 0.9134(2) 0.46044(16) 0.14936(14)
C9 C 0.8544(3) 0.37770(17) 0.06375(16)
H6 H 0.8851 0.3992 0.0034
H7 H 0.8974 0.3076 0.0729
C10 C 0.6778(3) 0.37195(19) 0.05924(18)
H8 H 0.6432 0.3147 0.0944
H9 H 0.6270 0.3590 -0.0085
C11 C 0.6410(3) 0.48130(18) 0.10804(16)
H10 H 0.5389 0.4783 0.1323
H11 H 0.6385 0.5343 0.0621
C12 C 0.7736(2) 0.51114(16) 0.19283(14)
C13 C 0.7445(2) 0.45449(17) 0.28029(15)
H12 H 0.8407 0.4633 0.3272
H13 H 0.7267 0.3773 0.2576
C14 C 0.6080(3) 0.49201(18) 0.33401(16)
H14 H 0.5169 0.4996 0.2858
H15 H 0.5798 0.4362 0.3727
C15 C 0.6404(3) 0.59698(19) 0.40070(17)
H16 H 0.5600 0.6031 0.4449
H17 H 0.7419 0.5930 0.4408
C16 C 0.6444(2) 0.69792(17) 0.35489(16)
C17 C 0.6512(3) 0.69076(17) 0.24838(16)
H18 H 0.6539 0.7635 0.2300
H19 H 0.5557 0.6523 0.2131
C18 C 0.7951(2) 0.63263(16) 0.21796(16)
H20 H 0.8262 0.6622 0.1611
H21 H 0.8821 0.6488 0.2711
O1 O 0.6429(3) 0.78502(16) 0.40302(15)
Cl1 Cl 1.20073(7) 0.41467(5) 0.11348(5)
C19 C 0.5881(3) -0.03439(17) 0.15644(15)
C20 C 0.5265(2) 0.04340(17) 0.22907(15)
C21 C 0.5237(2) 0.02276(18) 0.32339(16)
H22 H 0.5552 -0.0438 0.3415
C22 C 0.4747(3) 0.1000(2) 0.39116(17)
H23 H 0.4733 0.0859 0.4557
C23 C 0.4281(3) 0.1968(2) 0.36552(18)
H24 H 0.3976 0.2499 0.4127
C24 C 0.4259(3) 0.21646(19) 0.27115(19)
H25 H 0.3917 0.2825 0.2531
C25 C 0.4734(3) 0.13981(18) 0.20261(17)
H26 H 0.4698 0.1530 0.1375
C26 C 0.7348(3) -0.05097(16) 0.14229(15)
C27 C 0.7819(3) -0.13062(18) 0.06235(17)
H27 H 0.7536 -0.1066 -0.0014
H28 H 0.7305 -0.2015 0.0620
C28 C 0.9573(3) -0.13509(19) 0.08553(18)
H29 H 1.0062 -0.1525 0.0259
H30 H 0.9851 -0.1888 0.1293
C29 C 1.0076(3) -0.02324(19) 0.13465(17)
H31 H 1.0124 0.0265 0.0862
H32 H 1.1113 -0.0228 0.1733
C30 C 0.8815(2) 0.00902(16) 0.20069(15)
C31 C 0.9185(3) -0.03659(17) 0.29744(16)
H33 H 0.8269 -0.0280 0.3327
H34 H 0.9327 -0.1140 0.2828
C32 C 1.0614(3) 0.0129(2) 0.36454(18)
H35 H 1.1483 0.0187 0.3259
H36 H 1.0922 -0.0361 0.4123
C33 C 1.0396(3) 0.1233(2) 0.41923(18)
H37 H 0.9402 0.1201 0.4468
H38 H 1.1241 0.1373 0.4741
C34 C 1.0378(3) 0.21630(19) 0.36428(18)
C35 C 1.0128(3) 0.19805(18) 0.25615(17)
H39 H 1.1037 0.1624 0.2329
H40 H 1.0067 0.2679 0.2317
C36 C 0.8647(3) 0.12995(16) 0.21425(16)
H41 H 0.7843 0.1466 0.2573
H42 H 0.8259 0.1516 0.1508
O2 O 1.0592(3) 0.30702(17) 0.40679(17)
Cl2 Cl 0.43674(7) -0.11063(5) 0.07902(4)
loop_
_geom_bond_atom_site_label_1
_geom_bond_atom_site_label_2
_geom_bond_site_symmetry_1
_geom_bond_site_symmetry_2
C1 C2 1_555 1_555
C2 C4 1_555 1_555
C3 H1 1_555 1_555
C4 C3 1_555 1_555
H2 C4 1_555 1_555
C5 C3 1_555 1_555
H3 C5 1_555 1_555
C6 C5 1_555 1_555
H4 C6 1_555 1_555
C7 C2 1_555 1_555
H5 C7 1_555 1_555
C8 C1 1_555 1_555
C9 C8 1_555 1_555
H6 C9 1_555 1_555
H7 C9 1_555 1_555
C10 C9 1_555 1_555
H8 C10 1_555 1_555
H9 C10 1_555 1_555
C11 C10 1_555 1_555
H10 C11 1_555 1_555
H11 C11 1_555 1_555
C12 C8 1_555 1_555
C13 C12 1_555 1_555
H12 C13 1_555 1_555
H13 C13 1_555 1_555
C14 C13 1_555 1_555
H14 C14 1_555 1_555
H15 C14 1_555 1_555
C15 C14 1_555 1_555
H16 C15 1_555 1_555
H17 C15 1_555 1_555
C16 C15 1_555 1_555
C17 C16 1_555 1_555
H18 C17 1_555 1_555
H19 C17 1_555 1_555
C18 C12 1_555 1_555
H20 C18 1_555 1_555
H21 C18 1_555 1_555
O1 C16 1_555 1_555
Cl1 C1 1_555 1_555
C19 C20 1_555 1_555
C20 C21 1_555 1_555
C21 H22 1_555 1_555
C22 C21 1_555 1_555
H23 C22 1_555 1_555
C23 C22 1_555 1_555
H24 C23 1_555 1_555
C24 C23 1_555 1_555
H25 C24 1_555 1_555
C25 C20 1_555 1_555
H26 C25 1_555 1_555
C26 C19 1_555 1_555
C27 C26 1_555 1_555
H27 C27 1_555 1_555
H28 C27 1_555 1_555
C28 C27 1_555 1_555
H29 C28 1_555 1_555
H30 C28 1_555 1_555
C29 C28 1_555 1_555
H31 C29 1_555 1_555
H32 C29 1_555 1_555
C30 C26 1_555 1_555
C31 C30 1_555 1_555
H33 C31 1_555 1_555
H34 C31 1_555 1_555
C32 C31 1_555 1_555
H35 C32 1_555 1_555
H36 C32 1_555 1_555
C33 C32 1_555 1_555
H37 C33 1_555 1_555
H38 C33 1_555 1_555
C34 C33 1_555 1_555
C35 C34 1_555 1_555
H39 C35 1_555 1_555
H40 C35 1_555 1_555
C36 C30 1_555 1_555
H41 C36 1_555 1_555
H42 C36 1_555 1_555
O2 C34 1_555 1_555
Cl2 C19 1_555 1_555
C6 C7 1_555 1_555
C11 C12 1_555 1_555
C17 C18 1_555 1_555
C24 C25 1_555 1_555
C29 C30 1_555 1_555
C35 C36 1_555 1_555

#END
