
#######################################################################
#
#                 Cambridge Crystallographic Data Centre
#                                CCDC 
#
#######################################################################
#
# If this CIF has been generated from an entry in the Cambridge 
# Structural Database, then it will include bibliographic, chemical, 
# crystal, experimental, refinement or atomic coordinate data resulting 
# from the CCDC's data processing and validation procedures.
#
#######################################################################

data_TIHKOM
_chemical_formula_moiety         'C25 H28 Cl1 N1 O3 S1'
_chemical_name_systematic        
8-Chloro-6-(4-methoxyphenyl)-3-((4-methylphenyl)sulfonyl)-3-azatricyclo[5.4.1.0^1,5^]dodec-5-ene
_symmetry_cell_setting           monoclinic
_symmetry_space_group_name_H-M   'P 21'
_symmetry_Int_Tables_number      4
_space_group_name_Hall           'P 2yb'
loop_
_symmetry_equiv_pos_site_id
_symmetry_equiv_pos_as_xyz
1 x,y,z
2 -x,1/2+y,-z
_cell_length_a                   12.578(5)
_cell_length_b                   6.194(2)
_cell_length_c                   14.866(6)
_cell_angle_alpha                90
_cell_angle_beta                 108.503(10)
_cell_angle_gamma                90
_cell_volume                     1098.31
_exptl_crystal_colour            colorless
_exptl_crystal_description       prism
_cell_formula_units_Z            2
loop_
_atom_site_label
_atom_site_type_symbol
_atom_site_fract_x
_atom_site_fract_y
_atom_site_fract_z
C1 C 0.3464(4) 0.9589(10) 0.5775(4)
C2 C 0.4441(4) 0.8752(11) 0.6413(4)
H1 H 0.4446 0.7343 0.6667
C3 C 0.5403(4) 0.9996(11) 0.6672(4)
H2 H 0.6068 0.9426 0.7110
C4 C 0.5424(4) 1.2052(12) 0.6310(3)
C5 C 0.6463(4) 1.3420(12) 0.6657(4)
H3 H 0.6333 1.4809 0.6324
H4 H 0.7090 1.2676 0.6534
H5 H 0.6643 1.3668 0.7341
C6 C 0.4450(4) 1.2826(10) 0.5662(4)
H6 H 0.4456 1.4217 0.5394
C7 C 0.3471(4) 1.1646(11) 0.5391(4)
H7 H 0.2810 1.2223 0.4950
C8 C 0.2109(4) 0.8249(11) 0.7286(3)
H8 H 0.2910 0.8663 0.7522
H9 H 0.2038 0.6684 0.7388
C9 C 0.1421(4) 0.9563(9) 0.7751(4)
C10 C 0.1585(4) 1.0409(10) 0.8596(4)
C11 C 0.2561(4) 1.0172(10) 0.9471(4)
C12 C 0.3279(4) 0.8414(11) 0.9613(4)
H10 H 0.3117 0.7289 0.9155
C13 C 0.4232(4) 0.8249(11) 1.0409(3)
H11 H 0.4713 0.7031 1.0494
C14 C 0.4461(4) 0.9888(11) 1.1067(4)
C15 C 0.6134(4) 0.8158(12) 1.2049(4)
H12 H 0.6751 0.8400 1.2638
H13 H 0.6436 0.8012 1.1520
H14 H 0.5734 0.6834 1.2106
C16 C 0.3764(4) 1.1678(12) 1.0938(4)
H15 H 0.3937 1.2820 1.1388
C17 C 0.2814(4) 1.1786(12) 1.0147(4)
H16 H 0.2328 1.2994 1.0069
C18 C 0.0532(4) 1.1724(11) 0.8556(3)
H17 H 0.0745 1.3077 0.8939
C19 C -0.0202(4) 1.0300(11) 0.8956(4)
H18 H 0.0246 0.9953 0.9626
C20 C -0.0607(4) 0.8142(12) 0.8454(4)
H19 H -0.1092 0.7430 0.8776
H20 H 0.0055 0.7203 0.8540
C21 C -0.1253(4) 0.8258(12) 0.7395(4)
H21 H -0.1689 0.6906 0.7213
H22 H -0.1798 0.9457 0.7293
C22 C -0.0568(4) 0.8580(11) 0.6718(4)
H23 H -0.1093 0.8960 0.6086
H24 H -0.0221 0.7180 0.6652
C23 C 0.0364(4) 1.0300(10) 0.6993(4)
C24 C 0.0057(4) 1.2264(10) 0.7493(3)
H25 H -0.0766 1.2461 0.7298
H26 H 0.0402 1.3597 0.7344
C25 C 0.0825(4) 1.0708(10) 0.6163(4)
H27 H 0.0221 1.0686 0.5545
H28 H 0.1234 1.2096 0.6237
N1 N 0.1590(3) 0.8841(8) 0.6270(3)
O1 O 0.1467(3) 0.8874(7) 0.4585(2)
O2 O 0.2473(3) 0.5901(6) 0.5665(3)
O3 O 0.5378(3) 0.9950(7) 1.1877(3)
S1 S 0.21861(11) 0.8157(3) 0.54958(10)
Cl1 Cl -0.14205(12) 1.1824(3) 0.89980(11)
loop_
_geom_bond_atom_site_label_1
_geom_bond_atom_site_label_2
_geom_bond_site_symmetry_1
_geom_bond_site_symmetry_2
C1 C2 1_555 1_555
C2 H1 1_555 1_555
C3 C2 1_555 1_555
H2 C3 1_555 1_555
C4 C3 1_555 1_555
C5 C4 1_555 1_555
H3 C5 1_555 1_555
H4 C5 1_555 1_555
H5 C5 1_555 1_555
C6 C4 1_555 1_555
H6 C6 1_555 1_555
C7 C1 1_555 1_555
H7 C7 1_555 1_555
C8 H8 1_555 1_555
H9 C8 1_555 1_555
C9 C8 1_555 1_555
C10 C9 1_555 1_555
C11 C10 1_555 1_555
C12 C11 1_555 1_555
H10 C12 1_555 1_555
C13 C12 1_555 1_555
H11 C13 1_555 1_555
C14 C13 1_555 1_555
C15 H12 1_555 1_555
H13 C15 1_555 1_555
H14 C15 1_555 1_555
C16 C14 1_555 1_555
H15 C16 1_555 1_555
C17 C11 1_555 1_555
H16 C17 1_555 1_555
C18 C10 1_555 1_555
H17 C18 1_555 1_555
C19 C18 1_555 1_555
H18 C19 1_555 1_555
C20 C19 1_555 1_555
H19 C20 1_555 1_555
H20 C20 1_555 1_555
C21 C20 1_555 1_555
H21 C21 1_555 1_555
H22 C21 1_555 1_555
C22 C21 1_555 1_555
H23 C22 1_555 1_555
H24 C22 1_555 1_555
C23 C9 1_555 1_555
C24 C18 1_555 1_555
H25 C24 1_555 1_555
H26 C24 1_555 1_555
C25 C23 1_555 1_555
H27 C25 1_555 1_555
H28 C25 1_555 1_555
N1 C8 1_555 1_555
O1 S1 1_555 1_555
O2 S1 1_555 1_555
O3 C14 1_555 1_555
S1 C1 1_555 1_555
Cl1 C19 1_555 1_555
C6 C7 1_555 1_555
C15 O3 1_555 1_555
C16 C17 1_555 1_555
C22 C23 1_555 1_555
C23 C24 1_555 1_555
C25 N1 1_555 1_555
N1 S1 1_555 1_555

#END
