
#######################################################################
#
#                 Cambridge Crystallographic Data Centre
#                                CCDC 
#
#######################################################################
#
# If this CIF has been generated from an entry in the Cambridge 
# Structural Database, then it will include bibliographic, chemical, 
# crystal, experimental, refinement or atomic coordinate data resulting 
# from the CCDC's data processing and validation procedures.
#
#######################################################################

data_TIHKUS
_chemical_formula_moiety         'C24 H25 Cl1 N2 O4 S1'
_chemical_name_systematic        
N-((3-(Chloromethyl)cyclohex-1-en-1-yl)methyl)-4-methyl-N-(3-(4-nitrophenyl)prop-2-yn-1-yl)benzenesulfonamide
_symmetry_cell_setting           monoclinic
_symmetry_space_group_name_H-M   'P 21/n'
_symmetry_Int_Tables_number      14
_space_group_name_Hall           '-P 2yn'
loop_
_symmetry_equiv_pos_site_id
_symmetry_equiv_pos_as_xyz
1 x,y,z
2 1/2-x,1/2+y,1/2-z
3 -x,-y,-z
4 1/2+x,1/2-y,1/2+z
_cell_length_a                   11.0271(13)
_cell_length_b                   18.617(2)
_cell_length_c                   12.3609(16)
_cell_angle_alpha                90
_cell_angle_beta                 113.634(2)
_cell_angle_gamma                90
_cell_volume                     2324.75
_exptl_crystal_colour            colorless
_exptl_crystal_description       prism
_cell_formula_units_Z            4
loop_
_atom_site_label
_atom_site_type_symbol
_atom_site_fract_x
_atom_site_fract_y
_atom_site_fract_z
C1 C 0.6418(3) 0.24507(15) 0.1752(2)
C2 C 0.5440(3) 0.29658(16) 0.1480(3)
H1 H 0.5117 0.3198 0.0733
C3 C 0.4937(3) 0.31395(17) 0.2305(3)
H2 H 0.4263 0.3494 0.2117
C4 C 0.5393(3) 0.28078(17) 0.3403(3)
C5 C 0.4821(4) 0.3004(2) 0.4291(3)
H3 H 0.4149 0.3379 0.3959
H4 H 0.5529 0.3182 0.5015
H5 H 0.4414 0.2578 0.4473
C6 C 0.6363(3) 0.22919(17) 0.3652(3)
H6 H 0.6679 0.2057 0.4396
C7 C 0.6888(3) 0.21082(16) 0.2840(2)
H7 H 0.7559 0.1753 0.3026
C8 C 0.4790(3) 0.18496(16) -0.1152(2)
H8 H 0.4862 0.2362 -0.1330
H9 H 0.4037 0.1797 -0.0914
C9 C 0.4551(3) 0.14034(17) -0.2226(3)
C10 C 0.5513(4) 0.1512(2) -0.2806(3)
H10 H 0.5314 0.1980 -0.3221
H11 H 0.6417 0.1544 -0.2177
C11 C 0.5519(7) 0.0966(4) -0.3641(7)
H12 H 0.6019 0.0541 -0.3208
H13 H 0.5964 0.1155 -0.4136
C12 C 0.4134(6) 0.0749(4) -0.4413(5)
H14 H 0.4137 0.0410 -0.5028
H15 H 0.3607 0.1177 -0.4806
C13 C 0.3475(9) 0.0354(5) -0.3546(7)
H16 H 0.3899 -0.0112 -0.3193
C14 C 0.3585(4) 0.0946(2) -0.2625(3)
H17 H 0.2906 0.0975 -0.2338
C15 C 0.2073(7) 0.0304(4) -0.4270(6)
H18 H 0.1548 0.0706 -0.4759
H19 H 0.1714 0.0192 -0.3672
C16 C 0.5940(3) 0.09150(15) 0.0351(3)
H20 H 0.6799 0.0811 0.1010
H21 H 0.5775 0.0534 -0.0249
C17 C 0.4887(3) 0.08898(15) 0.0800(2)
C18 C 0.4001(3) 0.08610(15) 0.1115(2)
C19 C 0.2929(3) 0.08038(15) 0.1494(2)
C20 C 0.2770(3) 0.13087(17) 0.2255(3)
H22 H 0.3371 0.1700 0.2521
C21 C 0.1755(3) 0.12512(17) 0.2630(3)
H23 H 0.1651 0.1594 0.3156
C22 C 0.0897(3) 0.06832(16) 0.2222(2)
C23 C 0.1022(3) 0.01710(17) 0.1476(3)
H24 H 0.0418 -0.0219 0.1216
C24 C 0.2044(3) 0.02368(17) 0.1113(3)
H25 H 0.2145 -0.0112 0.0594
N1 N 0.6031(2) 0.16109(12) -0.01762(19)
N2 N -0.0201(3) 0.06142(15) 0.2599(2)
O1 O 0.82786(19) 0.18468(12) 0.13025(18)
O2 O 0.6978(2) 0.28101(11) -0.00277(17)
O3 O -0.0190(2) 0.09937(14) 0.3408(2)
O4 O -0.1075(2) 0.01786(14) 0.2071(2)
S1 S 0.70445(7) 0.22031(4) 0.06957(6)
Cl1 Cl 0.18511(13) -0.04993(6) -0.52496(9)
C25? C 0.4890(11) 0.1146(4) -0.4087(8)
H26? H 0.4102 0.1421 -0.4603
H27? H 0.5546 0.1156 -0.4447
C26? C 0.4501(9) 0.0381(5) -0.3989(10)
H28? H 0.5095 0.0139 -0.3253
H29? H 0.4385 0.0084 -0.4688
C27? C 0.3077(6) 0.0655(4) -0.3955(6)
H30? H 0.2420 0.0932 -0.4626
C28? C 0.2842(9) -0.0120(4) -0.3762(7)
H31? H 0.2304 -0.0131 -0.3286
H32? H 0.3617 -0.0436 -0.3366
loop_
_geom_bond_atom_site_label_1
_geom_bond_atom_site_label_2
_geom_bond_site_symmetry_1
_geom_bond_site_symmetry_2
C1 C2 1_555 1_555
C2 H1 1_555 1_555
C3 C2 1_555 1_555
H2 C3 1_555 1_555
C4 C3 1_555 1_555
C5 C4 1_555 1_555
H3 C5 1_555 1_555
H4 C5 1_555 1_555
H5 C5 1_555 1_555
C6 C4 1_555 1_555
H6 C6 1_555 1_555
C7 C1 1_555 1_555
H7 C7 1_555 1_555
C8 H8 1_555 1_555
H9 C8 1_555 1_555
C9 C8 1_555 1_555
C10 C9 1_555 1_555
H10 C10 1_555 1_555
H11 C10 1_555 1_555
C11 C10 1_555 1_555
H12 C11 1_555 1_555
H13 C11 1_555 1_555
C12 C11 1_555 1_555
H14 C12 1_555 1_555
H15 C12 1_555 1_555
C13 C12 1_555 1_555
H16 C13 1_555 1_555
C14 C9 1_555 1_555
H17 C14 1_555 1_555
C15 C13 1_555 1_555
H18 C15 1_555 1_555
H19 C15 1_555 1_555
C16 H20 1_555 1_555
H21 C16 1_555 1_555
C17 C16 1_555 1_555
C18 C17 1_555 1_555
C19 C18 1_555 1_555
C20 C19 1_555 1_555
H22 C20 1_555 1_555
C21 C20 1_555 1_555
H23 C21 1_555 1_555
C22 C21 1_555 1_555
C23 C22 1_555 1_555
H24 C23 1_555 1_555
C24 C19 1_555 1_555
H25 C24 1_555 1_555
N1 C8 1_555 1_555
N2 C22 1_555 1_555
O1 S1 1_555 1_555
O2 S1 1_555 1_555
O3 N2 1_555 1_555
O4 N2 1_555 1_555
S1 C1 1_555 1_555
Cl1 C15 1_555 1_555
C6 C7 1_555 1_555
C13 C14 1_555 1_555
C16 N1 1_555 1_555
C23 C24 1_555 1_555
N1 S1 1_555 1_555

#END
