
#######################################################################
#
#                 Cambridge Crystallographic Data Centre
#                                CCDC 
#
#######################################################################
#
# If this CIF has been generated from an entry in the Cambridge 
# Structural Database, then it will include bibliographic, chemical, 
# crystal, experimental, refinement or atomic coordinate data resulting 
# from the CCDC's data processing and validation procedures.
#
#######################################################################

data_TIHLIH
_chemical_formula_moiety         'C24 H25 Br1 Cl1 N1 O2 S1'
_chemical_name_systematic        
4-((4-Bromophenyl)(chloro)methylene)-2-((4-methylphenyl)sulfonyl)-2-azaspiro[4.6]undec-7-ene
_symmetry_cell_setting           monoclinic
_symmetry_space_group_name_H-M   'P 21/n'
_symmetry_Int_Tables_number      14
_space_group_name_Hall           '-P 2yn'
loop_
_symmetry_equiv_pos_site_id
_symmetry_equiv_pos_as_xyz
1 x,y,z
2 1/2-x,1/2+y,1/2-z
3 -x,-y,-z
4 1/2+x,1/2-y,1/2+z
_cell_length_a                   6.4264(2)
_cell_length_b                   9.0320(3)
_cell_length_c                   39.7647(15)
_cell_angle_alpha                90
_cell_angle_beta                 92.1390(10)
_cell_angle_gamma                90
_cell_volume                     2306.46
_exptl_crystal_colour            colorless
_exptl_crystal_description       prism
_cell_formula_units_Z            4
loop_
_atom_site_label
_atom_site_type_symbol
_atom_site_fract_x
_atom_site_fract_y
_atom_site_fract_z
Br1 Br -0.0442(4) -0.2192(3) 0.49247(7)
Cl1 Cl 0.6462(8) -0.1778(6) 0.35864(15)
S1 S 0.8944(8) 0.3938(6) 0.31997(15)
O1 O 0.931(2) 0.5453(15) 0.3324(4)
O2 O 1.065(2) 0.3059(19) 0.3089(4)
N1 N 0.783(2) 0.3035(18) 0.3497(4)
C1 C 0.709(3) 0.408(2) 0.2866(5)
C2 C 0.712(4) 0.310(2) 0.2589(6)
H1 H 0.8153 0.2378 0.2579
C3 C 0.559(5) 0.321(3) 0.2327(6)
H2 H 0.5625 0.2581 0.2143
C4 C 0.404(3) 0.425(3) 0.2342(6)
C5 C 0.244(4) 0.432(4) 0.2064(7)
H3 H 0.1474 0.5099 0.2107
H4 H 0.1708 0.3390 0.2050
H5 H 0.3099 0.4503 0.1856
C6 C 0.395(4) 0.520(3) 0.2628(6)
H6 H 0.2846 0.5860 0.2646
C7 C 0.547(3) 0.514(2) 0.2872(6)
H7 H 0.5454 0.5806 0.3050
C8 C 0.595(3) 0.366(2) 0.3643(5)
H8 H 0.4829 0.3755 0.3475
H9 H 0.6239 0.4627 0.3742
C9 C 0.541(2) 0.2518(19) 0.3917(5)
C10 C 0.311(3) 0.265(2) 0.3991(6)
H10 H 0.2304 0.2336 0.3793
H11 H 0.2816 0.1957 0.4170
C11 C 0.237(3) 0.415(2) 0.4092(7)
H12 H 0.2738 0.4845 0.3918
H13 H 0.0861 0.4122 0.4095
C12 C 0.312(5) 0.471(3) 0.4401(11)
H14 H 0.2560 0.5702 0.4411
H15 H 0.2396 0.4140 0.4568
C13 C 0.504(6) 0.481(4) 0.4520(8)
H16 H 0.5196 0.5369 0.4716
C14 C 0.684(4) 0.425(2) 0.4405(7)
H17 H 0.8067 0.4792 0.4431
C15 C 0.687(3) 0.274(2) 0.4232(5)
H18 H 0.6512 0.1994 0.4397
H19 H 0.8282 0.2539 0.4168
C16 C 0.602(3) 0.103(2) 0.3756(5)
C17 C 0.549(3) -0.032(2) 0.3820(5)
C18 C 0.402(3) -0.080(2) 0.4086(6)
C19 C 0.470(3) -0.083(2) 0.4418(6)
H20 H 0.6080 -0.0585 0.4471
C20 C 0.341(3) -0.121(2) 0.4674(6)
H21 H 0.3879 -0.1189 0.4898
C21 C 0.140(3) -0.162(2) 0.4583(6)
C22 C 0.067(3) -0.161(2) 0.4253(6)
H22 H -0.0707 -0.1840 0.4194
C23 C 0.212(3) -0.124(3) 0.4010(5)
H23 H 0.1700 -0.1301 0.3784
C24 C 0.749(3) 0.143(2) 0.3471(5)
H24 H 0.8798 0.0905 0.3498
H25 H 0.6852 0.1182 0.3253
loop_
_geom_bond_atom_site_label_1
_geom_bond_atom_site_label_2
_geom_bond_site_symmetry_1
_geom_bond_site_symmetry_2
Br1 C21 1_555 1_555
Cl1 C17 1_555 1_555
S1 O1 1_555 1_555
O2 S1 1_555 1_555
N1 S1 1_555 1_555
C1 S1 1_555 1_555
C2 C1 1_555 1_555
H1 C2 1_555 1_555
C3 C2 1_555 1_555
H2 C3 1_555 1_555
C4 C3 1_555 1_555
C5 C4 1_555 1_555
H3 C5 1_555 1_555
H4 C5 1_555 1_555
H5 C5 1_555 1_555
C6 C4 1_555 1_555
H6 C6 1_555 1_555
C7 C1 1_555 1_555
H7 C7 1_555 1_555
C8 N1 1_555 1_555
H8 C8 1_555 1_555
H9 C8 1_555 1_555
C9 C8 1_555 1_555
C10 C9 1_555 1_555
H10 C10 1_555 1_555
H11 C10 1_555 1_555
C11 C10 1_555 1_555
H12 C11 1_555 1_555
H13 C11 1_555 1_555
C12 C11 1_555 1_555
H14 C12 1_555 1_555
H15 C12 1_555 1_555
C13 C12 1_555 1_555
H16 C13 1_555 1_555
C14 C13 1_555 1_555
H17 C14 1_555 1_555
C15 C9 1_555 1_555
H18 C15 1_555 1_555
H19 C15 1_555 1_555
C16 C9 1_555 1_555
C17 C16 1_555 1_555
C18 C17 1_555 1_555
C19 C18 1_555 1_555
H20 C19 1_555 1_555
C20 C19 1_555 1_555
H21 C20 1_555 1_555
C21 C20 1_555 1_555
C22 C21 1_555 1_555
H22 C22 1_555 1_555
C23 C18 1_555 1_555
H23 C23 1_555 1_555
C24 N1 1_555 1_555
H24 C24 1_555 1_555
H25 C24 1_555 1_555
C6 C7 1_555 1_555
C14 C15 1_555 1_555
C16 C24 1_555 1_555
C22 C23 1_555 1_555

#END
