
#######################################################################
#
#                 Cambridge Crystallographic Data Centre
#                                CCDC 
#
#######################################################################
#
# If this CIF has been generated from an entry in the Cambridge 
# Structural Database, then it will include bibliographic, chemical, 
# crystal, experimental, refinement or atomic coordinate data resulting 
# from the CCDC's data processing and validation procedures.
#
#######################################################################

data_TIHLAY
_chemical_name_common            6-aminophthalide
_chemical_formula_moiety         'C8 H7 N1 O2'
_chemical_name_systematic        6-Amino-3H-isobenzofuran-1-one
_symmetry_cell_setting           monoclinic
_symmetry_space_group_name_H-M   'P 21/n'
_symmetry_Int_Tables_number      14
_space_group_name_Hall           '-P 2yn'
loop_
_symmetry_equiv_pos_site_id
_symmetry_equiv_pos_as_xyz
1 x,y,z
2 1/2-x,1/2+y,1/2-z
3 -x,-y,-z
4 1/2+x,1/2-y,1/2+z
_cell_length_a                   8.396(2)
_cell_length_b                   5.990(2)
_cell_length_c                   14.012(4)
_cell_angle_alpha                90
_cell_angle_beta                 99.242(7)
_cell_angle_gamma                90
_cell_volume                     695.544
_exptl_crystal_colour            'light yellow'
_exptl_crystal_description       prism
_cell_formula_units_Z            4
_exptl_crystal_recrystallization_method methanol
loop_
_atom_site_label
_atom_site_type_symbol
_atom_site_fract_x
_atom_site_fract_y
_atom_site_fract_z
O1 O 0.74553(11) 0.30158(17) 0.91253(7)
O2 O 0.71640(11) -0.03455(17) 0.84229(7)
N1 N 0.10635(15) 0.3245(3) 0.94360(11)
H1 H 0.0067 0.2770 0.9418
H2 H 0.1367 0.4437 0.9785
C1 C 0.65841(15) 0.1465(2) 0.88321(9)
C2 C 0.58839(16) -0.1970(2) 0.81381(11)
H3 H 0.6135 -0.3405 0.8479
H4 H 0.5726 -0.2240 0.7432
C3 C 0.44184(15) -0.0911(2) 0.84286(9)
C4 C 0.28242(16) -0.1620(2) 0.83663(9)
H5 H 0.2494 -0.3028 0.8091
C5 C 0.17340(15) -0.0233(2) 0.87133(9)
H6 H 0.0648 -0.0714 0.8677
C6 C 0.21809(15) 0.1874(2) 0.91198(9)
C7 C 0.37826(15) 0.2566(2) 0.91822(9)
H7 H 0.4125 0.3972 0.9455
C8 C 0.48546(14) 0.1144(2) 0.88350(9)
loop_
_geom_bond_atom_site_label_1
_geom_bond_atom_site_label_2
_geom_bond_site_symmetry_1
_geom_bond_site_symmetry_2
O1 C1 1_555 1_555
O2 C1 1_555 1_555
N1 H1 1_555 1_555
H2 N1 1_555 1_555
C1 C8 1_555 1_555
C2 O2 1_555 1_555
H3 C2 1_555 1_555
H4 C2 1_555 1_555
C3 C2 1_555 1_555
C4 C3 1_555 1_555
H5 C4 1_555 1_555
C5 C4 1_555 1_555
H6 C5 1_555 1_555
C6 N1 1_555 1_555
C7 C6 1_555 1_555
H7 C7 1_555 1_555
C8 C3 1_555 1_555
C5 C6 1_555 1_555
C7 C8 1_555 1_555

#END
