
#######################################################################
#
#                 Cambridge Crystallographic Data Centre
#                                CCDC 
#
#######################################################################
#
# If this CIF has been generated from an entry in the Cambridge 
# Structural Database, then it will include bibliographic, chemical, 
# crystal, experimental, refinement or atomic coordinate data resulting 
# from the CCDC's data processing and validation procedures.
#
#######################################################################

data_TIHLON
_chemical_formula_moiety         'C27 H32 Cl1 N1 O2 S1'
_chemical_name_systematic        
4-(Chloro(4-methylphenyl)methylene)-10,10-dimethyl-2-((4-methylphenyl)sulfonyl)-2-azaspiro[4.6]undec-7-ene
_symmetry_cell_setting           triclinic
_symmetry_space_group_name_H-M   'P -1'
_symmetry_Int_Tables_number      2
_space_group_name_Hall           '-P 1'
loop_
_symmetry_equiv_pos_site_id
_symmetry_equiv_pos_as_xyz
1 x,y,z
2 -x,-y,-z
_cell_length_a                   10.1390(14)
_cell_length_b                   10.6335(16)
_cell_length_c                   12.1689(18)
_cell_angle_alpha                85.808(3)
_cell_angle_beta                 71.051(2)
_cell_angle_gamma                86.101(3)
_cell_volume                     1236.19
_exptl_crystal_colour            colorless
_exptl_crystal_description       prism
_cell_formula_units_Z            2
loop_
_atom_site_label
_atom_site_type_symbol
_atom_site_fract_x
_atom_site_fract_y
_atom_site_fract_z
C1 C 0.2963(2) 0.3910(2) 0.4569(2)
C2 C 0.4395(2) 0.3688(2) 0.4283(2)
H1 H 0.4842 0.3746 0.4852
C3 C 0.5164(2) 0.3384(2) 0.3167(2)
H2 H 0.6147 0.3249 0.2971
C4 C 0.4538(3) 0.3272(2) 0.2329(2)
C5 C 0.5371(3) 0.2934(3) 0.1118(2)
H3 H 0.6362 0.2830 0.1051
H4 H 0.5243 0.3609 0.0563
H5 H 0.5054 0.2143 0.0947
C6 C 0.3098(3) 0.3483(2) 0.2638(2)
H6 H 0.2651 0.3397 0.2074
C7 C 0.2309(2) 0.3811(2) 0.3730(2)
H7 H 0.1329 0.3970 0.3917
C8 C 0.1836(2) 0.1966(2) 0.6907(2)
H8 H 0.2259 0.2132 0.7507
H9 H 0.2577 0.1666 0.6209
C9 C 0.0698(2) 0.1019(2) 0.73700(19)
C10 C 0.0974(2) -0.0116(2) 0.7804(2)
C11 C 0.0086(2) -0.1169(2) 0.8402(2)
C12 C 0.0424(3) -0.2399(2) 0.8039(2)
H10 H 0.1190 -0.2553 0.7357
C13 C -0.0347(3) -0.3398(2) 0.8663(2)
H11 H -0.0094 -0.4229 0.8406
C14 C -0.1481(3) -0.3205(2) 0.9656(2)
C15 C -0.2306(3) -0.4299(3) 1.0332(3)
H12 H -0.3072 -0.3986 1.0995
H13 H -0.1694 -0.4895 1.0616
H14 H -0.2690 -0.4727 0.9825
C16 C -0.1827(3) -0.1974(2) 1.0001(2)
H15 H -0.2614 -0.1817 1.0667
C17 C -0.1052(3) -0.0973(2) 0.9395(2)
H16 H -0.1300 -0.0144 0.9660
C18 C -0.0651(2) 0.1598(2) 0.71794(19)
C19 C -0.1600(3) 0.2217(2) 0.8301(2)
H17 H -0.2093 0.1546 0.8862
H18 H -0.1003 0.2626 0.8659
C20 C -0.2662(3) 0.3182(3) 0.8100(2)
H19 H -0.2602 0.4031 0.8267
C21 C -0.3671(3) 0.2919(3) 0.7706(3)
H20 H -0.4279 0.3593 0.7579
C22 C -0.3916(3) 0.1611(3) 0.7447(3)
H21 H -0.4800 0.1638 0.7263
H22 H -0.4041 0.1056 0.8160
C23 C -0.2754(2) 0.1011(2) 0.6442(2)
C24 C -0.3304(3) -0.0225(3) 0.6241(3)
H23 H -0.3494 -0.0780 0.6948
H24 H -0.2604 -0.0640 0.5596
H25 H -0.4167 -0.0047 0.6048
C25 C -0.2470(3) 0.1843(3) 0.5329(2)
H26 H -0.1715 0.1449 0.4708
H27 H -0.2197 0.2672 0.5458
H28 H -0.3317 0.1945 0.5103
C26 C -0.1414(2) 0.0629(2) 0.6760(2)
H29 H -0.1655 -0.0061 0.7372
H30 H -0.0729 0.0262 0.6065
C27 C -0.0043(2) 0.2648(2) 0.6238(2)
H31 H 0.0336 0.2308 0.5455
H32 H -0.0753 0.3332 0.6231
N1 N 0.10718(19) 0.30911(18) 0.66184(16)
O1 O 0.09503(18) 0.52930(15) 0.58779(17)
O2 O 0.28815(19) 0.45015(18) 0.66081(16)
S1 S 0.19538(6) 0.43143(5) 0.59734(5)
Cl1 Cl 0.27356(6) -0.04577(6) 0.77267(6)
loop_
_geom_bond_atom_site_label_1
_geom_bond_atom_site_label_2
_geom_bond_site_symmetry_1
_geom_bond_site_symmetry_2
C1 C2 1_555 1_555
C2 H1 1_555 1_555
C3 C2 1_555 1_555
H2 C3 1_555 1_555
C4 C3 1_555 1_555
C5 C4 1_555 1_555
H3 C5 1_555 1_555
H4 C5 1_555 1_555
H5 C5 1_555 1_555
C6 C4 1_555 1_555
H6 C6 1_555 1_555
C7 C1 1_555 1_555
H7 C7 1_555 1_555
C8 H8 1_555 1_555
H9 C8 1_555 1_555
C9 C8 1_555 1_555
C10 C9 1_555 1_555
C11 C10 1_555 1_555
C12 C11 1_555 1_555
H10 C12 1_555 1_555
C13 C12 1_555 1_555
H11 C13 1_555 1_555
C14 C13 1_555 1_555
C15 C14 1_555 1_555
H12 C15 1_555 1_555
H13 C15 1_555 1_555
H14 C15 1_555 1_555
C16 C14 1_555 1_555
H15 C16 1_555 1_555
C17 C11 1_555 1_555
H16 C17 1_555 1_555
C18 C9 1_555 1_555
C19 C18 1_555 1_555
H17 C19 1_555 1_555
H18 C19 1_555 1_555
C20 C19 1_555 1_555
H19 C20 1_555 1_555
C21 C20 1_555 1_555
H20 C21 1_555 1_555
C22 C21 1_555 1_555
H21 C22 1_555 1_555
H22 C22 1_555 1_555
C23 C22 1_555 1_555
C24 C23 1_555 1_555
H23 C24 1_555 1_555
H24 C24 1_555 1_555
H25 C24 1_555 1_555
C25 C23 1_555 1_555
H26 C25 1_555 1_555
H27 C25 1_555 1_555
H28 C25 1_555 1_555
C26 C18 1_555 1_555
H29 C26 1_555 1_555
H30 C26 1_555 1_555
C27 C18 1_555 1_555
H31 C27 1_555 1_555
H32 C27 1_555 1_555
N1 C8 1_555 1_555
O1 S1 1_555 1_555
O2 S1 1_555 1_555
S1 C1 1_555 1_555
Cl1 C10 1_555 1_555
C6 C7 1_555 1_555
C16 C17 1_555 1_555
C23 C26 1_555 1_555
C27 N1 1_555 1_555
N1 S1 1_555 1_555

#END
