
#######################################################################
#
#                 Cambridge Crystallographic Data Centre
#                                CCDC 
#
#######################################################################
#
# If this CIF has been generated from an entry in the Cambridge 
# Structural Database, then it will include bibliographic, chemical, 
# crystal, experimental, refinement or atomic coordinate data resulting 
# from the CCDC's data processing and validation procedures.
#
#######################################################################

data_TIHLUT
_chemical_formula_moiety         'C26 H30 Cl1 N1 O2 S1'
_chemical_name_systematic        
4-(Chloro(phenyl)methylene)-10,10-dimethyl-2-((4-methylphenyl)sulfonyl)-2-azaspiro[4.6]undec-7-ene
_symmetry_cell_setting           monoclinic
_symmetry_space_group_name_H-M   'C 2/c'
_symmetry_Int_Tables_number      15
_space_group_name_Hall           '-C 2yn'
loop_
_symmetry_equiv_pos_site_id
_symmetry_equiv_pos_as_xyz
1 x,y,z
2 -x,y,1/2-z
3 1/2+x,1/2+y,z
4 1/2-x,1/2+y,1/2-z
5 -x,-y,-z
6 x,-y,1/2+z
7 1/2-x,1/2-y,-z
8 1/2+x,1/2-y,1/2+z
_cell_length_a                   23.5879(10)
_cell_length_b                   10.0828(5)
_cell_length_c                   20.9187(10)
_cell_angle_alpha                90
_cell_angle_beta                 102.153(3)
_cell_angle_gamma                90
_cell_volume                     4863.64
_exptl_crystal_colour            colorless
_exptl_crystal_description       prism
_cell_formula_units_Z            8
loop_
_atom_site_label
_atom_site_type_symbol
_atom_site_fract_x
_atom_site_fract_y
_atom_site_fract_z
C1 C 0.19710(11) 0.4226(3) 0.24150(19)
C2 C 0.21987(13) 0.5330(3) 0.2775(2)
H1 H 0.2291 0.6104 0.2559
C3 C 0.22889(14) 0.5297(4) 0.3443(3)
H2 H 0.2442 0.6062 0.3684
C4 C 0.21651(13) 0.4190(4) 0.3779(2)
C5 C 0.2263(2) 0.4177(5) 0.4515(2)
H3 H 0.2422 0.5033 0.4687
H4 H 0.2536 0.3469 0.4689
H5 H 0.1893 0.4019 0.4646
C6 C 0.19469(14) 0.3089(4) 0.3414(2)
H6 H 0.1866 0.2307 0.3632
C7 C 0.18458(14) 0.3104(3) 0.2745(2)
H7 H 0.1689 0.2341 0.2505
C8 C 0.06972(13) 0.4539(3) 0.14485(17)
H8 H 0.0748 0.4295 0.1916
H9 H 0.0568 0.3748 0.1176
C9 C 0.02736(12) 0.5666(3) 0.12754(14)
C10 C -0.02864(13) 0.5532(3) 0.12706(15)
C11 C -0.07716(12) 0.6480(3) 0.10970(14)
C12 C -0.10468(13) 0.6673(3) 0.04519(15)
H10 H -0.0919 0.6200 0.0116
C13 C -0.15118(14) 0.7556(3) 0.02900(17)
H11 H -0.1697 0.7684 -0.0155
C14 C -0.17009(15) 0.8234(4) 0.0770(2)
H12 H -0.2016 0.8836 0.0660
C15 C -0.14343(16) 0.8040(4) 0.1407(2)
H13 H -0.1566 0.8512 0.1741
C16 C -0.09780(14) 0.7171(4) 0.15739(16)
H14 H -0.0802 0.7043 0.2022
C17 C 0.06001(11) 0.6917(3) 0.11273(14)
C18 C 0.04111(11) 0.8155(3) 0.14485(14)
H15 H 0.0453 0.7954 0.1919
H16 H -0.0008 0.8276 0.1267
C19 C 0.07059(12) 0.9514(3) 0.14011(15)
C20 C 0.13377(14) 0.9564(3) 0.17462(18)
H17 H 0.1379 0.9229 0.2193
H18 H 0.1476 1.0482 0.1759
H19 H 0.1567 0.9013 0.1509
C21 C 0.03810(17) 1.0506(4) 0.1764(2)
H20 H 0.0424 1.0230 0.2221
H21 H -0.0031 1.0519 0.1553
H22 H 0.0545 1.1396 0.1748
C22 C 0.06254(16) 1.0004(3) 0.07041(18)
H23 H 0.0208 0.9956 0.0499
H24 H 0.0741 1.0949 0.0715
C23 C 0.09473(18) 0.9289(4) 0.0291(2)
H25 H 0.1227 0.9774 0.0119
C24 C 0.08826(15) 0.8050(4) 0.01398(16)
H26 H 0.1108 0.7723 -0.0153
C25 C 0.04994(16) 0.7077(3) 0.03680(16)
H27 H 0.0555 0.6202 0.0175
H28 H 0.0092 0.7346 0.0200
C26 C 0.12281(12) 0.6517(3) 0.14254(16)
H29 H 0.1504 0.6985 0.1207
H30 H 0.1328 0.6715 0.1899
N1 N 0.12366(11) 0.5082(2) 0.13078(13)
O1 O 0.17273(12) 0.2933(2) 0.13359(13)
O2 O 0.22847(11) 0.5027(2) 0.13705(16)
S1 S 0.18378(4) 0.42625(8) 0.15641(5)
Cl1 Cl -0.05182(4) 0.39670(9) 0.14984(5)
loop_
_geom_bond_atom_site_label_1
_geom_bond_atom_site_label_2
_geom_bond_site_symmetry_1
_geom_bond_site_symmetry_2
C1 C2 1_555 1_555
C2 H1 1_555 1_555
C3 C2 1_555 1_555
H2 C3 1_555 1_555
C4 C3 1_555 1_555
C5 C4 1_555 1_555
H3 C5 1_555 1_555
H4 C5 1_555 1_555
H5 C5 1_555 1_555
C6 C4 1_555 1_555
H6 C6 1_555 1_555
C7 C1 1_555 1_555
H7 C7 1_555 1_555
C8 H8 1_555 1_555
H9 C8 1_555 1_555
C9 C8 1_555 1_555
C10 C9 1_555 1_555
C11 C10 1_555 1_555
C12 C11 1_555 1_555
H10 C12 1_555 1_555
C13 C12 1_555 1_555
H11 C13 1_555 1_555
C14 C13 1_555 1_555
H12 C14 1_555 1_555
C15 C14 1_555 1_555
H13 C15 1_555 1_555
C16 C11 1_555 1_555
H14 C16 1_555 1_555
C17 C9 1_555 1_555
C18 C17 1_555 1_555
H15 C18 1_555 1_555
H16 C18 1_555 1_555
C19 C18 1_555 1_555
C20 C19 1_555 1_555
H17 C20 1_555 1_555
H18 C20 1_555 1_555
H19 C20 1_555 1_555
C21 C19 1_555 1_555
H20 C21 1_555 1_555
H21 C21 1_555 1_555
H22 C21 1_555 1_555
C22 C19 1_555 1_555
H23 C22 1_555 1_555
H24 C22 1_555 1_555
C23 C22 1_555 1_555
H25 C23 1_555 1_555
C24 C23 1_555 1_555
H26 C24 1_555 1_555
C25 C17 1_555 1_555
H27 C25 1_555 1_555
H28 C25 1_555 1_555
C26 C17 1_555 1_555
H29 C26 1_555 1_555
H30 C26 1_555 1_555
N1 C8 1_555 1_555
O1 S1 1_555 1_555
O2 S1 1_555 1_555
S1 C1 1_555 1_555
Cl1 C10 1_555 1_555
C6 C7 1_555 1_555
C15 C16 1_555 1_555
C24 C25 1_555 1_555
C26 N1 1_555 1_555
N1 S1 1_555 1_555

#END
