
#######################################################################
#
#                 Cambridge Crystallographic Data Centre
#                                CCDC 
#
#######################################################################
#
# If this CIF has been generated from an entry in the Cambridge 
# Structural Database, then it will include bibliographic, chemical, 
# crystal, experimental, refinement or atomic coordinate data resulting 
# from the CCDC's data processing and validation procedures.
#
#######################################################################

data_TIHMAA
_chemical_formula_moiety         'C24 H26 Cl1 N1 O2 S1,C1 H2 Cl2'
_chemical_name_systematic        
'4-(Chloro(phenyl)methylene)-2-((4-methylphenyl)sulfonyl)-2-azaspiro[4.6]undec-7-ene dichloromethane solvate'
_symmetry_cell_setting           monoclinic
_symmetry_space_group_name_H-M   'P 21/n'
_symmetry_Int_Tables_number      14
_space_group_name_Hall           '-P 2yn'
loop_
_symmetry_equiv_pos_site_id
_symmetry_equiv_pos_as_xyz
1 x,y,z
2 1/2-x,1/2+y,1/2-z
3 -x,-y,-z
4 1/2+x,1/2-y,1/2+z
_cell_length_a                   10.0468(5)
_cell_length_b                   23.7447(11)
_cell_length_c                   10.5822(5)
_cell_angle_alpha                90
_cell_angle_beta                 92.383(3)
_cell_angle_gamma                90
_cell_volume                     2522.29
_exptl_crystal_colour            colorless
_exptl_crystal_description       prism
_cell_formula_units_Z            4
loop_
_atom_site_label
_atom_site_type_symbol
_atom_site_fract_x
_atom_site_fract_y
_atom_site_fract_z
C1 C 0.0906(3) 0.08031(11) 0.3986(3)
C2 C -0.0022(3) 0.09038(13) 0.2998(3)
H1 H 0.0259 0.0952 0.2159
C3 C -0.1356(3) 0.09320(14) 0.3256(4)
H2 H -0.1990 0.1004 0.2584
C4 C -0.1796(4) 0.08576(13) 0.4475(4)
C5 C -0.3261(4) 0.08684(16) 0.4739(5)
H3 H -0.3780 0.0943 0.3952
H4 H -0.3431 0.1166 0.5354
H5 H -0.3523 0.0504 0.5083
C6 C -0.0846(4) 0.07600(14) 0.5441(4)
H6 H -0.1126 0.0709 0.6280
C7 C 0.0490(4) 0.07351(13) 0.5213(3)
H7 H 0.1125 0.0672 0.5889
C8 C 0.2689(3) 0.17741(12) 0.2487(3)
H8 H 0.1724 0.1852 0.2522
H9 H 0.2871 0.1600 0.1662
C9 C 0.3520(3) 0.23142(11) 0.2709(3)
C10 C 0.2809(3) 0.28238(12) 0.2072(3)
H10 H 0.2004 0.2913 0.2542
H11 H 0.3409 0.3154 0.2138
C11 C 0.2404(4) 0.27325(14) 0.0701(3)
H12 H 0.1479 0.2742 0.0475
C12 C 0.3219(4) 0.26421(18) -0.0195(4)
H13 H 0.2844 0.2610 -0.1031
C13 C 0.4618(4) 0.2587(2) -0.0038(4)
H14 H 0.4985 0.2950 0.0279
H15 H 0.4984 0.2519 -0.0879
C14 C 0.5122(4) 0.21099(19) 0.0874(4)
H16 H 0.4633 0.1759 0.0654
H17 H 0.6077 0.2042 0.0738
C15 C 0.4955(3) 0.22363(14) 0.2277(3)
H18 H 0.5461 0.2583 0.2492
H19 H 0.5370 0.1925 0.2776
C16 C 0.3580(3) 0.23435(11) 0.4162(3)
C17 C 0.3850(3) 0.27884(12) 0.4890(3)
C18 C 0.4181(3) 0.33760(12) 0.4535(3)
C19 C 0.3221(4) 0.37973(13) 0.4513(3)
H20 H 0.2335 0.3712 0.4728
C20 C 0.3556(4) 0.43441(14) 0.4177(3)
H21 H 0.2894 0.4630 0.4152
C21 C 0.4831(4) 0.44718(15) 0.3884(3)
H22 H 0.5052 0.4845 0.3648
C22 C 0.5790(4) 0.40624(17) 0.3931(4)
H23 H 0.6679 0.4153 0.3735
C23 C 0.5470(3) 0.35142(15) 0.4265(3)
H24 H 0.6144 0.3233 0.4306
C24 C 0.3282(3) 0.17667(12) 0.4689(3)
H25 H 0.4018 0.1634 0.5266
H26 H 0.2444 0.1769 0.5148
N1 N 0.3158(2) 0.14143(10) 0.3545(2)
S1 S 0.26049(8) 0.07702(3) 0.36609(8)
Cl1 Cl 0.38580(9) 0.26892(3) 0.65446(7)
O1 O 0.2712(2) 0.05208(9) 0.2435(3)
O2 O 0.3299(2) 0.05309(9) 0.4739(3)
C25 C -0.0250(5) 0.4630(2) 0.2580(5)
H27 H 0.0686 0.4756 0.2702
H28 H -0.0518 0.4685 0.1677
Cl2 Cl -0.03475(15) 0.39084(6) 0.29476(15)
Cl3 Cl -0.12443(19) 0.50419(7) 0.3493(2)
loop_
_geom_bond_atom_site_label_1
_geom_bond_atom_site_label_2
_geom_bond_site_symmetry_1
_geom_bond_site_symmetry_2
C1 C2 1_555 1_555
C2 H1 1_555 1_555
C3 C2 1_555 1_555
H2 C3 1_555 1_555
C4 C3 1_555 1_555
C5 C4 1_555 1_555
H3 C5 1_555 1_555
H4 C5 1_555 1_555
H5 C5 1_555 1_555
C6 C4 1_555 1_555
H6 C6 1_555 1_555
C7 C1 1_555 1_555
H7 C7 1_555 1_555
C8 H8 1_555 1_555
H9 C8 1_555 1_555
C9 C8 1_555 1_555
C10 C9 1_555 1_555
H10 C10 1_555 1_555
H11 C10 1_555 1_555
C11 C10 1_555 1_555
H12 C11 1_555 1_555
C12 C11 1_555 1_555
H13 C12 1_555 1_555
C13 C12 1_555 1_555
H14 C13 1_555 1_555
H15 C13 1_555 1_555
C14 C13 1_555 1_555
H16 C14 1_555 1_555
H17 C14 1_555 1_555
C15 C9 1_555 1_555
H18 C15 1_555 1_555
H19 C15 1_555 1_555
C16 C9 1_555 1_555
C17 C16 1_555 1_555
C18 C17 1_555 1_555
C19 C18 1_555 1_555
H20 C19 1_555 1_555
C20 C19 1_555 1_555
H21 C20 1_555 1_555
C21 C20 1_555 1_555
H22 C21 1_555 1_555
C22 C21 1_555 1_555
H23 C22 1_555 1_555
C23 C18 1_555 1_555
H24 C23 1_555 1_555
C24 C16 1_555 1_555
H25 C24 1_555 1_555
H26 C24 1_555 1_555
N1 C8 1_555 1_555
S1 C1 1_555 1_555
Cl1 C17 1_555 1_555
O1 S1 1_555 1_555
O2 S1 1_555 1_555
C25 H27 1_555 1_555
H28 C25 1_555 1_555
Cl2 C25 1_555 1_555
Cl3 C25 1_555 1_555
C6 C7 1_555 1_555
C14 C15 1_555 1_555
C22 C23 1_555 1_555
C24 N1 1_555 1_555
N1 S1 1_555 1_555

#END
