
#######################################################################
#
#                 Cambridge Crystallographic Data Centre
#                                CCDC 
#
#######################################################################
#
# If this CIF has been generated from an entry in the Cambridge 
# Structural Database, then it will include bibliographic, chemical, 
# crystal, experimental, refinement or atomic coordinate data resulting 
# from the CCDC's data processing and validation procedures.
#
#######################################################################

data_TIHNIH
_chemical_formula_moiety         'C228 H252,C6 H14'
_chemical_name_systematic        
'5,10,15,20,25,30-hexakis(3-(3,5-Di-t-butylphenyl)-1-(2-(3,5-di-t-butylphenyl)ethynyl)prop-2-ynylidene)cyclotriaconta-1,3,6,811,13,16,18,21,23,26,28-dodecayne hexane solvate'
_symmetry_cell_setting           triclinic
_symmetry_space_group_name_H-M   'P -1'
_symmetry_Int_Tables_number      2
_space_group_name_Hall           '-P 1'
loop_
_symmetry_equiv_pos_site_id
_symmetry_equiv_pos_as_xyz
1 x,y,z
2 -x,-y,-z
_cell_length_a                   15.833(4)
_cell_length_b                   20.110(5)
_cell_length_c                   21.655(6)
_cell_angle_alpha                73.33(2)
_cell_angle_beta                 75.43(2)
_cell_angle_gamma                84.04(2)
_cell_volume                     6389.06
_exptl_crystal_colour            orange
_chemical_melting_point          'above 250deg.C'
_cell_formula_units_Z            1
_exptl_crystal_recrystallization_method hexane/deuterochloroform
loop_
_atom_site_label
_atom_site_type_symbol
_atom_site_fract_x
_atom_site_fract_y
_atom_site_fract_z
C1 C 0.1239(4) 0.2566(3) -0.1696(3)
C2 C 0.1013(4) 0.2345(3) -0.2090(3)
C3 C 0.0736(4) 0.2095(3) -0.2524(3)
C4 C 0.0494(4) 0.1864(3) -0.2905(3)
C5 C 0.0164(3) 0.1557(3) -0.3305(3)
C6 C -0.0474(4) 0.1051(3) -0.2963(3)
C7 C -0.1011(4) 0.0639(3) -0.2616(3)
C8 C -0.1633(4) 0.0197(3) -0.2178(3)
C9 C -0.2186(4) -0.0143(3) -0.1762(3)
C10 C -0.2840(4) -0.0524(3) -0.1230(3)
C11 C -0.2541(4) -0.1016(3) -0.0696(3)
C12 C -0.2306(4) -0.1433(3) -0.0244(3)
C13 C -0.2051(4) -0.1904(3) 0.0268(3)
C14 C -0.1827(4) -0.2317(3) 0.0719(3)
C15 C 0.1522(4) 0.2822(3) -0.1240(2)
C16 C 0.1483(4) 0.3518(3) -0.1282(3)
C17 C 0.1110(4) 0.3988(3) -0.1785(3)
C18 C 0.0756(4) 0.4324(3) -0.2205(3)
C19 C 0.0302(4) 0.4694(3) -0.2712(2)
C20 C 0.0282(4) 0.5411(3) -0.2916(3)
H1 H 0.0576 0.5659 -0.2731
C21 C -0.0160(4) 0.5768(3) -0.3397(3)
C22 C -0.0561(4) 0.5375(3) -0.3667(2)
H2 H -0.0861 0.5610 -0.3995
C23 C -0.0559(3) 0.4658(3) -0.3474(2)
C24 C -0.0114(3) 0.4322(3) -0.2988(2)
H3 H -0.0091 0.3834 -0.2847
C25 C -0.1038(4) 0.4237(3) -0.3760(3)
C26 C -0.1807(8) 0.3888(7) -0.3206(5)
C27 C -0.0406(7) 0.3688(6) -0.4011(6)
C28 C -0.1403(8) 0.4703(5) -0.4360(5)
C32 C -0.0178(4) 0.6559(3) -0.3633(3)
C33 C 0.0180(16) 0.6885(7) -0.3204(10)
C34 C -0.1143(8) 0.6826(6) -0.3634(10)
C35 C 0.0345(13) 0.6782(6) -0.4357(7)
C39 C -0.3700(4) -0.0414(3) -0.1222(3)
C40 C -0.4330(4) -0.0793(3) -0.0676(3)
C41 C -0.4804(4) -0.1134(4) -0.0195(4)
C42 C -0.5321(5) -0.1583(3) 0.0396(3)
C43 C -0.6212(5) -0.1557(4) 0.0531(4)
H4 H -0.6499 -0.1228 0.0240
C44 C -0.6695(5) -0.2001(4) 0.1082(4)
C45 C -0.6250(7) -0.2473(4) 0.1500(4)
H5 H -0.6584 -0.2784 0.1872
C46 C -0.5356(6) -0.2513(4) 0.1397(3)
C47 C -0.4889(5) -0.2060(4) 0.0833(3)
H6 H -0.4276 -0.2073 0.0741
C48 C -0.7664(6) -0.1986(5) 0.1262(7)
C49 C -0.8060(6) -0.1337(6) 0.0936(6)
H7 H -0.7749 -0.0958 0.0960
H8 H -0.8671 -0.1298 0.1154
H9 H -0.8010 -0.1317 0.0475
C50 C -0.7945(8) -0.1964(7) 0.2031(7)
H10 H -0.7727 -0.2384 0.2307
H11 H -0.8575 -0.1927 0.2178
H12 H -0.7688 -0.1563 0.2067
C51 C -0.8017(8) -0.2641(6) 0.1324(7)
H13 H -0.7676 -0.3010 0.1560
H14 H -0.7964 -0.2691 0.0883
H15 H -0.8625 -0.2671 0.1561
C52 C -0.4876(8) -0.3027(4) 0.1878(4)
C53 C -0.5267(15) -0.2943(13) 0.2597(10)
C54 C -0.3893(11) -0.2981(10) 0.1746(10)
C55 C -0.5150(14) -0.3766(10) 0.1901(12)
C59 C 0.1766(5) 0.3739(3) -0.0819(4)
C60 C 0.1968(6) 0.3833(4) -0.0365(4)
C61 C 0.2206(6) 0.3884(5) 0.0237(4)
C62 C 0.2443(6) 0.3237(5) 0.0667(4)
H16 H 0.2434 0.2817 0.0561
C63 C 0.2670(6) 0.3253(5) 0.1241(4)
C64 C 0.2632(6) 0.3903(5) 0.1378(5)
H17 H 0.2777 0.3924 0.1767
C65 C 0.2377(6) 0.4528(5) 0.0962(4)
C66 C 0.2164(5) 0.4498(4) 0.0394(4)
H18 H 0.1986 0.4905 0.0108
C67 C 0.2941(8) 0.2548(6) 0.1692(5)
C68 C 0.3734(8) 0.2259(6) 0.1271(6)
H19 H 0.3915 0.1824 0.1547
H20 H 0.3576 0.2175 0.0895
H21 H 0.4210 0.2578 0.1112
C69 C 0.2092(10) 0.2077(6) 0.1980(6)
H22 H 0.1627 0.2316 0.2229
H23 H 0.1904 0.2000 0.1613
H24 H 0.2231 0.1634 0.2268
C70 C 0.3213(9) 0.2689(7) 0.2283(5)
H25 H 0.2716 0.2890 0.2543
H26 H 0.3397 0.2253 0.2557
H27 H 0.3690 0.3007 0.2122
C71 C 0.2303(6) 0.5194(5) 0.1152(4)
C72 C 0.190(2) 0.5766(17) 0.0656(15)
C73 C 0.1886(18) 0.5088(14) 0.1869(10)
C74 C 0.3263(15) 0.5436(19) 0.1083(18)
C78 C -0.3966(4) 0.0060(3) -0.1769(3)
C79 C -0.4140(4) 0.0464(3) -0.2249(3)
C80 C -0.4315(4) 0.0953(3) -0.2837(3)
C81 C -0.3647(4) 0.1359(3) -0.3278(3)
H28 H -0.3091 0.1310 -0.3185
C82 C -0.3785(4) 0.1829(3) -0.3848(3)
C83 C -0.4611(4) 0.1875(3) -0.3964(3)
H29 H -0.4709 0.2190 -0.4356
C84 C -0.5301(4) 0.1474(3) -0.3543(3)
C85 C -0.5136(4) 0.1013(3) -0.2965(3)
H30 H -0.5581 0.0729 -0.2666
C86 C -0.6229(5) 0.1559(3) -0.3661(4)
C87 C -0.6815(7) 0.1942(9) -0.3226(7)
C88 C -0.6538(9) 0.0836(6) -0.3589(8)
C89 C -0.6148(8) 0.1957(8) -0.4436(5)
C93 C -0.3051(4) 0.2275(3) -0.4347(3)
C94 C -0.2219(5) 0.2187(4) -0.4101(4)
H31 H -0.1780 0.2482 -0.4434
H32 H -0.2011 0.1706 -0.4028
H33 H -0.2329 0.2319 -0.3690
C95 C -0.3368(6) 0.3046(4) -0.4475(5)
H34 H -0.2904 0.3329 -0.4790
H35 H -0.3508 0.3182 -0.4064
H36 H -0.3882 0.3114 -0.4656
C96 C -0.2833(6) 0.2060(5) -0.4999(4)
H37 H -0.2371 0.2340 -0.5319
H38 H -0.3348 0.2119 -0.5178
H39 H -0.2641 0.1575 -0.4905
C97 C 0.0441(3) 0.1748(3) -0.3990(3)
C98 C 0.0093(3) 0.1425(3) -0.4363(3)
C99 C -0.0257(4) 0.1131(3) -0.4636(3)
C100 C -0.0743(3) 0.0782(3) -0.4918(3)
C101 C -0.1327(4) 0.0282(3) -0.4500(3)
H40 H -0.1372 0.0165 -0.4041
C102 C -0.1828(4) -0.0050(3) -0.4748(3)
C103 C -0.1732(4) 0.0136(3) -0.5431(3)
H41 H -0.2066 -0.0088 -0.5609
C104 C -0.1157(4) 0.0631(3) -0.5869(3)
C105 C -0.0664(4) 0.0954(3) -0.5606(3)
H42 H -0.0266 0.1289 -0.5890
C106 C -0.1090(5) 0.0849(3) -0.6619(3)
C107 C -0.1575(6) 0.1548(4) -0.6796(4)
H43 H -0.1535 0.1694 -0.7270
H44 H -0.1314 0.1890 -0.6671
H45 H -0.2184 0.1503 -0.6561
C108 C -0.0135(5) 0.0925(5) -0.6986(4)
H46 H -0.0098 0.1061 -0.7459
H47 H 0.0184 0.0487 -0.6867
H48 H 0.0117 0.1279 -0.6870
C109 C -0.1503(6) 0.0330(4) -0.6838(4)
H49 H -0.1439 0.0487 -0.7314
H50 H -0.2118 0.0303 -0.6619
H51 H -0.1220 -0.0125 -0.6721
C110 C -0.2462(5) -0.0598(4) -0.4277(4)
C111 C -0.1853(9) -0.1226(7) -0.3901(8)
C112 C -0.3075(11) -0.0344(8) -0.3771(10)
C113 C -0.2841(12) -0.1001(8) -0.4660(8)
C117 C 0.1057(4) 0.2268(3) -0.4304(2)
C118 C 0.1577(4) 0.2722(3) -0.4540(3)
C119 C 0.2226(3) 0.3244(3) -0.4783(3)
C120 C 0.2326(4) 0.3642(3) -0.4383(3)
H52 H 0.1933 0.3599 -0.3970
C121 C 0.2986(4) 0.4107(3) -0.4584(3)
C122 C 0.3538(4) 0.4168(3) -0.5200(3)
H53 H 0.3994 0.4482 -0.5338
C123 C 0.3452(4) 0.3788(3) -0.5620(3)
C124 C 0.2790(3) 0.3323(3) -0.5406(3)
H54 H 0.2717 0.3056 -0.5680
C125 C 0.4111(5) 0.3856(4) -0.6289(3)
C126 C 0.3898(11) 0.3413(11) -0.6686(6)
C127 C 0.5033(7) 0.3554(8) -0.6107(6)
C128 C 0.4268(10) 0.4627(6) -0.6641(6)
C132 C 0.3088(5) 0.4536(4) -0.4131(3)
C133 C 0.2856(8) 0.4151(5) -0.3410(4)
H55 H 0.2398 0.3830 -0.3326
H56 H 0.2666 0.4469 -0.3136
H57 H 0.3378 0.3893 -0.3304
C134 C 0.3712(11) 0.5069(7) -0.4424(6)
H58 H 0.3723 0.5257 -0.4891
H59 H 0.4280 0.4862 -0.4373
H60 H 0.3569 0.5438 -0.4205
C135 C 0.2233(9) 0.5116(6) -0.4125(7)
H61 H 0.1684 0.4881 -0.3939
H62 H 0.2251 0.5387 -0.4577
H63 H 0.2285 0.5421 -0.3862
C15A C -0.1522(4) -0.2822(3) 0.1240(2)
C1A C -0.1239(4) -0.2566(3) 0.1696(3)
C2A C -0.1013(4) -0.2345(3) 0.2090(3)
C3A C -0.0736(4) -0.2095(3) 0.2524(3)
C4A C -0.0494(4) -0.1864(3) 0.2905(3)
C5A C -0.0164(3) -0.1557(3) 0.3305(3)
C6A C 0.0474(4) -0.1051(3) 0.2963(3)
C7A C 0.1011(4) -0.0639(3) 0.2616(3)
C8A C 0.1633(4) -0.0197(3) 0.2178(3)
C9A C 0.2186(4) 0.0143(3) 0.1762(3)
C10A C 0.2840(4) 0.0524(3) 0.1230(3)
C11A C 0.2541(4) 0.1016(3) 0.0696(3)
C12A C 0.2306(4) 0.1433(3) 0.0244(3)
C13A C 0.2051(4) 0.1904(3) -0.0268(3)
C14A C 0.1827(4) 0.2317(3) -0.0719(3)
C39A C 0.3700(4) 0.0414(3) 0.1222(3)
C40A C 0.4330(4) 0.0793(3) 0.0676(3)
C41A C 0.4804(4) 0.1134(4) 0.0195(4)
C42A C 0.5321(5) 0.1583(3) -0.0396(3)
C43A C 0.6212(5) 0.1557(4) -0.0531(4)
H4A H 0.6499 0.1228 -0.0240
C44A C 0.6695(5) 0.2001(4) -0.1082(4)
C45A C 0.6250(7) 0.2473(4) -0.1500(4)
H5A H 0.6584 0.2784 -0.1872
C46A C 0.5356(6) 0.2513(4) -0.1397(3)
C47A C 0.4889(5) 0.2060(4) -0.0833(3)
H6A H 0.4276 0.2073 -0.0741
C52A C 0.4876(8) 0.3027(4) -0.1878(4)
C53A C 0.5267(15) 0.2943(13) -0.2597(10)
C54A C 0.3893(11) 0.2981(10) -0.1746(10)
C55A C 0.5150(14) 0.3766(10) -0.1901(12)
C48A C 0.7664(6) 0.1986(5) -0.1262(7)
C49A C 0.8060(6) 0.1337(6) -0.0936(6)
H7A H 0.7749 0.0958 -0.0960
H8A H 0.8671 0.1298 -0.1154
H9A H 0.8010 0.1317 -0.0475
C50A C 0.7945(8) 0.1964(7) -0.2031(7)
H10A H 0.7727 0.2384 -0.2307
H11A H 0.8575 0.1927 -0.2178
H12A H 0.7688 0.1563 -0.2067
C51A C 0.8017(8) 0.2641(6) -0.1324(7)
H13A H 0.7676 0.3010 -0.1560
H14A H 0.7964 0.2691 -0.0883
H15A H 0.8625 0.2671 -0.1561
C78A C 0.3966(4) -0.0060(3) 0.1769(3)
C79A C 0.4140(4) -0.0464(3) 0.2249(3)
C80A C 0.4315(4) -0.0953(3) 0.2837(3)
C81A C 0.3647(4) -0.1359(3) 0.3278(3)
H28A H 0.3091 -0.1310 0.3185
C82A C 0.3785(4) -0.1829(3) 0.3848(3)
C83A C 0.4611(4) -0.1875(3) 0.3964(3)
H29A H 0.4709 -0.2190 0.4356
C84A C 0.5301(4) -0.1474(3) 0.3543(3)
C85A C 0.5136(4) -0.1013(3) 0.2965(3)
H30A H 0.5581 -0.0729 0.2666
C86A C 0.6229(5) -0.1559(3) 0.3661(4)
C87A C 0.6815(7) -0.1942(9) 0.3226(7)
C88A C 0.6538(9) -0.0836(6) 0.3589(8)
C89A C 0.6148(8) -0.1957(8) 0.4436(5)
C93A C 0.3051(4) -0.2275(3) 0.4347(3)
C94A C 0.2219(5) -0.2187(4) 0.4101(4)
H31A H 0.1780 -0.2482 0.4434
H32A H 0.2011 -0.1706 0.4028
H33A H 0.2329 -0.2319 0.3690
C95A C 0.3368(6) -0.3046(4) 0.4475(5)
H34A H 0.2904 -0.3329 0.4790
H35A H 0.3508 -0.3182 0.4064
H36A H 0.3882 -0.3114 0.4656
C96A C 0.2833(6) -0.2060(5) 0.4999(4)
H37A H 0.2371 -0.2340 0.5319
H38A H 0.3348 -0.2119 0.5178
H39A H 0.2641 -0.1575 0.4905
C97A C -0.0441(3) -0.1748(3) 0.3990(3)
C98A C -0.0093(3) -0.1425(3) 0.4363(3)
C99A C 0.0257(4) -0.1131(3) 0.4636(3)
C100A C 0.0743(3) -0.0782(3) 0.4918(3)
C101A C 0.1327(4) -0.0282(3) 0.4500(3)
H40A H 0.1372 -0.0165 0.4041
C102A C 0.1828(4) 0.0050(3) 0.4748(3)
C103A C 0.1732(4) -0.0136(3) 0.5431(3)
H41A H 0.2066 0.0088 0.5609
C104A C 0.1157(4) -0.0631(3) 0.5869(3)
C105A C 0.0664(4) -0.0954(3) 0.5606(3)
H42A H 0.0266 -0.1289 0.5890
C106A C 0.1090(5) -0.0849(3) 0.6619(3)
C107A C 0.1575(6) -0.1548(4) 0.6796(4)
H43A H 0.1535 -0.1694 0.7270
H44A H 0.1314 -0.1890 0.6671
H45A H 0.2184 -0.1503 0.6561
C108A C 0.0135(5) -0.0925(5) 0.6986(4)
H46A H 0.0098 -0.1061 0.7459
H47A H -0.0184 -0.0487 0.6867
H48A H -0.0117 -0.1279 0.6870
C109A C 0.1503(6) -0.0330(4) 0.6838(4)
H49A H 0.1439 -0.0487 0.7314
H50A H 0.2118 -0.0303 0.6619
H51A H 0.1220 0.0125 0.6721
C110A C 0.2462(5) 0.0598(4) 0.4277(4)
C111A C 0.1853(9) 0.1226(7) 0.3901(8)
C112A C 0.3075(11) 0.0344(8) 0.3771(10)
C113A C 0.2841(12) 0.1001(8) 0.4660(8)
C117A C -0.1057(4) -0.2268(3) 0.4304(2)
C118A C -0.1577(4) -0.2722(3) 0.4540(3)
C119A C -0.2226(3) -0.3244(3) 0.4783(3)
C120A C -0.2326(4) -0.3642(3) 0.4383(3)
H52A H -0.1933 -0.3599 0.3970
C121A C -0.2986(4) -0.4107(3) 0.4584(3)
C122A C -0.3538(4) -0.4168(3) 0.5200(3)
H53A H -0.3994 -0.4482 0.5338
C123A C -0.3452(4) -0.3788(3) 0.5620(3)
C124A C -0.2790(3) -0.3323(3) 0.5406(3)
H54A H -0.2717 -0.3056 0.5680
C125A C -0.4111(5) -0.3856(4) 0.6289(3)
C126A C -0.3898(11) -0.3413(11) 0.6686(6)
C127A C -0.5033(7) -0.3554(8) 0.6107(6)
C128A C -0.4268(10) -0.4627(6) 0.6641(6)
C132A C -0.3088(5) -0.4536(4) 0.4131(3)
C133A C -0.2856(8) -0.4151(5) 0.3410(4)
H55A H -0.2398 -0.3830 0.3326
H56A H -0.2666 -0.4469 0.3136
H57A H -0.3378 -0.3893 0.3304
C134A C -0.3712(11) -0.5069(7) 0.4424(6)
H58A H -0.3723 -0.5257 0.4891
H59A H -0.4280 -0.4862 0.4373
H60A H -0.3569 -0.5438 0.4205
C135A C -0.2233(9) -0.5116(6) 0.4125(7)
H61A H -0.1684 -0.4881 0.3939
H62A H -0.2251 -0.5387 0.4577
H63A H -0.2285 -0.5421 0.3862
C16A C -0.1483(4) -0.3518(3) 0.1282(3)
C17A C -0.1110(4) -0.3988(3) 0.1785(3)
C18A C -0.0756(4) -0.4324(3) 0.2205(3)
C19A C -0.0302(4) -0.4694(3) 0.2712(2)
C20A C -0.0282(4) -0.5411(3) 0.2916(3)
H1A H -0.0576 -0.5659 0.2731
C21A C 0.0160(4) -0.5768(3) 0.3397(3)
C22A C 0.0561(4) -0.5375(3) 0.3667(2)
H2A H 0.0861 -0.5610 0.3995
C23A C 0.0559(3) -0.4658(3) 0.3474(2)
C24A C 0.0114(3) -0.4322(3) 0.2988(2)
H3A H 0.0091 -0.3834 0.2847
C25A C 0.1038(4) -0.4237(3) 0.3760(3)
C26A C 0.1807(8) -0.3888(7) 0.3206(5)
C27A C 0.0406(7) -0.3688(6) 0.4011(6)
C28A C 0.1403(8) -0.4703(5) 0.4360(5)
C32A C 0.0178(4) -0.6559(3) 0.3633(3)
C33A C -0.0180(16) -0.6885(7) 0.3204(10)
C34A C 0.1143(8) -0.6826(6) 0.3634(10)
C35A C -0.0345(13) -0.6782(6) 0.4357(7)
C59A C -0.1766(5) -0.3739(3) 0.0819(4)
C60A C -0.1968(6) -0.3833(4) 0.0365(4)
C61A C -0.2206(6) -0.3884(5) -0.0237(4)
C62A C -0.2443(6) -0.3237(5) -0.0667(4)
H16A H -0.2434 -0.2817 -0.0561
C63A C -0.2670(6) -0.3253(5) -0.1241(4)
C64A C -0.2632(6) -0.3903(5) -0.1378(5)
H17A H -0.2777 -0.3924 -0.1767
C65A C -0.2377(6) -0.4528(5) -0.0962(4)
C66A C -0.2164(5) -0.4498(4) -0.0394(4)
H18A H -0.1986 -0.4905 -0.0108
C71A C -0.2303(6) -0.5194(5) -0.1152(4)
C72A C -0.190(2) -0.5766(17) -0.0656(15)
C73A C -0.1886(18) -0.5088(14) -0.1869(10)
C74A C -0.3263(15) -0.5436(19) -0.1083(18)
C67A C -0.2941(8) -0.2548(6) -0.1692(5)
C68A C -0.3734(8) -0.2259(6) -0.1271(6)
H19A H -0.3915 -0.1824 -0.1547
H20A H -0.3576 -0.2175 -0.0895
H21A H -0.4210 -0.2578 -0.1112
C69A C -0.2092(10) -0.2077(6) -0.1980(6)
H22A H -0.1627 -0.2316 -0.2229
H23A H -0.1904 -0.2000 -0.1613
H24A H -0.2231 -0.1634 -0.2268
C70A C -0.3213(9) -0.2689(7) -0.2283(5)
H25A H -0.2716 -0.2890 -0.2543
H26A H -0.3397 -0.2253 -0.2557
H27A H -0.3690 -0.3007 -0.2122
C136 C -0.3625 -0.0514 0.0972
C137 C -0.2829 -0.0255 0.0999
C138 C -0.2093 -0.0344 0.1013
C139 C -0.1453 -0.0106 0.1215
C140 C -0.0630 -0.0273 0.1136
C141 C 0.0143 0.0213 0.1042
C29? C 0.2026(15) -0.4389(19) 0.3551(18)
C30? C 0.0832(19) -0.3442(11) 0.3547(15)
C31? C 0.073(2) -0.4491(16) 0.4529(11)
C36? C 0.0416(14) -0.6831(14) 0.3026(10)
C37? C 0.0745(17) -0.6842(14) 0.4109(12)
C38? C -0.0786(12) -0.6775(13) 0.4005(12)
C56? C -0.4389(19) -0.2579(13) 0.2150(14)
C57? C -0.4060(14) -0.3385(12) 0.1487(11)
C58? C -0.5340(16) -0.3624(13) 0.2390(13)
C75? C -0.1392(9) -0.5514(8) -0.1157(8)
C76? C -0.2534(12) -0.5100(9) -0.1827(7)
C77? C -0.2972(11) -0.5708(9) -0.0610(8)
C90? C -0.692(2) 0.1042(15) -0.3117(14)
C91? C -0.635(3) 0.162(2) -0.4344(13)
C92? C -0.663(2) 0.2264(12) -0.3490(15)
C114? C -0.2394(16) -0.1248(10) -0.4447(11)
C115? C -0.2550(16) -0.0619(12) -0.3548(10)
C116? C -0.3430(12) -0.0211(10) -0.4404(11)
C129? C 0.449(2) 0.3186(12) -0.6434(17)
C130? C 0.4767(19) 0.4420(14) -0.6522(17)
C131? C 0.3474(15) 0.4149(13) -0.6832(12)
loop_
_geom_bond_atom_site_label_1
_geom_bond_atom_site_label_2
_geom_bond_site_symmetry_1
_geom_bond_site_symmetry_2
C1 C2 1_555 1_555
C2 C3 1_555 1_555
C3 C4 1_555 1_555
C4 C5 1_555 1_555
C5 C6 1_555 1_555
C6 C7 1_555 1_555
C7 C8 1_555 1_555
C8 C9 1_555 1_555
C9 C10 1_555 1_555
C10 C11 1_555 1_555
C11 C12 1_555 1_555
C12 C13 1_555 1_555
C13 C14 1_555 1_555
C14 C15A 1_555 1_555
C15 C1 1_555 1_555
C16 C15 1_555 1_555
C17 C16 1_555 1_555
C18 C17 1_555 1_555
C19 C18 1_555 1_555
C20 C19 1_555 1_555
H1 C20 1_555 1_555
C21 C20 1_555 1_555
C22 C21 1_555 1_555
H2 C22 1_555 1_555
C23 C22 1_555 1_555
C24 C19 1_555 1_555
H3 C24 1_555 1_555
C25 C23 1_555 1_555
C26 C25 1_555 1_555
C27 C25 1_555 1_555
C28 C25 1_555 1_555
C32 C21 1_555 1_555
C33 C32 1_555 1_555
C34 C32 1_555 1_555
C35 C32 1_555 1_555
C39 C10 1_555 1_555
C40 C39 1_555 1_555
C41 C40 1_555 1_555
C42 C41 1_555 1_555
C43 C42 1_555 1_555
H4 C43 1_555 1_555
C44 C43 1_555 1_555
C45 C44 1_555 1_555
H5 C45 1_555 1_555
C46 C45 1_555 1_555
C47 C42 1_555 1_555
H6 C47 1_555 1_555
C48 C44 1_555 1_555
C49 C48 1_555 1_555
H7 C49 1_555 1_555
H8 C49 1_555 1_555
H9 C49 1_555 1_555
C50 C48 1_555 1_555
H10 C50 1_555 1_555
H11 C50 1_555 1_555
H12 C50 1_555 1_555
C51 C48 1_555 1_555
H13 C51 1_555 1_555
H14 C51 1_555 1_555
H15 C51 1_555 1_555
C52 C46 1_555 1_555
C53 C52 1_555 1_555
C54 C52 1_555 1_555
C55 C52 1_555 1_555
C59 C16 1_555 1_555
C60 C59 1_555 1_555
C61 C60 1_555 1_555
C62 C61 1_555 1_555
H16 C62 1_555 1_555
C63 C62 1_555 1_555
C64 C63 1_555 1_555
H17 C64 1_555 1_555
C65 C64 1_555 1_555
C66 C61 1_555 1_555
H18 C66 1_555 1_555
C67 C63 1_555 1_555
C68 C67 1_555 1_555
H19 C68 1_555 1_555
H20 C68 1_555 1_555
H21 C68 1_555 1_555
C69 C67 1_555 1_555
H22 C69 1_555 1_555
H23 C69 1_555 1_555
H24 C69 1_555 1_555
C70 C67 1_555 1_555
H25 C70 1_555 1_555
H26 C70 1_555 1_555
H27 C70 1_555 1_555
C71 C65 1_555 1_555
C72 C71 1_555 1_555
C73 C71 1_555 1_555
C74 C71 1_555 1_555
C78 C39 1_555 1_555
C79 C78 1_555 1_555
C80 C79 1_555 1_555
C81 C80 1_555 1_555
H28 C81 1_555 1_555
C82 C81 1_555 1_555
C83 C82 1_555 1_555
H29 C83 1_555 1_555
C84 C83 1_555 1_555
C85 C80 1_555 1_555
H30 C85 1_555 1_555
C86 C84 1_555 1_555
C87 C86 1_555 1_555
C88 C86 1_555 1_555
C89 C86 1_555 1_555
C93 C82 1_555 1_555
C94 C93 1_555 1_555
H31 C94 1_555 1_555
H32 C94 1_555 1_555
H33 C94 1_555 1_555
C95 C93 1_555 1_555
H34 C95 1_555 1_555
H35 C95 1_555 1_555
H36 C95 1_555 1_555
C96 C93 1_555 1_555
H37 C96 1_555 1_555
H38 C96 1_555 1_555
H39 C96 1_555 1_555
C97 C5 1_555 1_555
C98 C97 1_555 1_555
C99 C98 1_555 1_555
C100 C99 1_555 1_555
C101 C100 1_555 1_555
H40 C101 1_555 1_555
C102 C101 1_555 1_555
C103 C102 1_555 1_555
H41 C103 1_555 1_555
C104 C103 1_555 1_555
C105 C100 1_555 1_555
H42 C105 1_555 1_555
C106 C104 1_555 1_555
C107 C106 1_555 1_555
H43 C107 1_555 1_555
H44 C107 1_555 1_555
H45 C107 1_555 1_555
C108 C106 1_555 1_555
H46 C108 1_555 1_555
H47 C108 1_555 1_555
H48 C108 1_555 1_555
C109 C106 1_555 1_555
H49 C109 1_555 1_555
H50 C109 1_555 1_555
H51 C109 1_555 1_555
C110 C102 1_555 1_555
C111 C110 1_555 1_555
C112 C110 1_555 1_555
C113 C110 1_555 1_555
C117 C97 1_555 1_555
C118 C117 1_555 1_555
C119 C118 1_555 1_555
C120 C119 1_555 1_555
H52 C120 1_555 1_555
C121 C120 1_555 1_555
C122 C121 1_555 1_555
H53 C122 1_555 1_555
C123 C122 1_555 1_555
C124 C119 1_555 1_555
H54 C124 1_555 1_555
C125 C123 1_555 1_555
C126 C125 1_555 1_555
C127 C125 1_555 1_555
C128 C125 1_555 1_555
C132 C121 1_555 1_555
C133 C132 1_555 1_555
H55 C133 1_555 1_555
H56 C133 1_555 1_555
H57 C133 1_555 1_555
C134 C132 1_555 1_555
H58 C134 1_555 1_555
H59 C134 1_555 1_555
H60 C134 1_555 1_555
C135 C132 1_555 1_555
H61 C135 1_555 1_555
H62 C135 1_555 1_555
H63 C135 1_555 1_555
C136 C137 1_555 1_555
C137 C138 1_555 1_555
C138 C139 1_555 1_555
C139 C140 1_555 1_555
C140 C141 1_555 1_555
C15A C1A 1_555 1_555
C1A C2A 1_555 1_555
C2A C3A 1_555 1_555
C3A C4A 1_555 1_555
C4A C5A 1_555 1_555
C5A C6A 1_555 1_555
C6A C7A 1_555 1_555
C7A C8A 1_555 1_555
C8A C9A 1_555 1_555
C9A C10A 1_555 1_555
C10A C11A 1_555 1_555
C11A C12A 1_555 1_555
C12A C13A 1_555 1_555
C13A C14A 1_555 1_555
C14A C15 1_555 1_555
C39A C10A 1_555 1_555
C40A C39A 1_555 1_555
C41A C40A 1_555 1_555
C42A C41A 1_555 1_555
C43A C42A 1_555 1_555
H4A C43A 1_555 1_555
C44A C43A 1_555 1_555
C45A C44A 1_555 1_555
H5A C45A 1_555 1_555
C46A C45A 1_555 1_555
C47A C42A 1_555 1_555
H6A C47A 1_555 1_555
C52A C46A 1_555 1_555
C53A C52A 1_555 1_555
C54A C52A 1_555 1_555
C55A C52A 1_555 1_555
C48A C44A 1_555 1_555
C49A C48A 1_555 1_555
H7A C49A 1_555 1_555
H8A C49A 1_555 1_555
H9A C49A 1_555 1_555
C50A C48A 1_555 1_555
H10A C50A 1_555 1_555
H11A C50A 1_555 1_555
H12A C50A 1_555 1_555
C51A C48A 1_555 1_555
H13A C51A 1_555 1_555
H14A C51A 1_555 1_555
H15A C51A 1_555 1_555
C78A C39A 1_555 1_555
C79A C78A 1_555 1_555
C80A C79A 1_555 1_555
C81A C80A 1_555 1_555
H28A C81A 1_555 1_555
C82A C81A 1_555 1_555
C83A C82A 1_555 1_555
H29A C83A 1_555 1_555
C84A C83A 1_555 1_555
C85A C80A 1_555 1_555
H30A C85A 1_555 1_555
C86A C84A 1_555 1_555
C87A C86A 1_555 1_555
C88A C86A 1_555 1_555
C89A C86A 1_555 1_555
C93A C82A 1_555 1_555
C94A C93A 1_555 1_555
H31A C94A 1_555 1_555
H32A C94A 1_555 1_555
H33A C94A 1_555 1_555
C95A C93A 1_555 1_555
H34A C95A 1_555 1_555
H35A C95A 1_555 1_555
H36A C95A 1_555 1_555
C96A C93A 1_555 1_555
H37A C96A 1_555 1_555
H38A C96A 1_555 1_555
H39A C96A 1_555 1_555
C97A C5A 1_555 1_555
C98A C97A 1_555 1_555
C99A C98A 1_555 1_555
C100A C99A 1_555 1_555
C101A C100A 1_555 1_555
H40A C101A 1_555 1_555
C102A C101A 1_555 1_555
C103A C102A 1_555 1_555
H41A C103A 1_555 1_555
C104A C103A 1_555 1_555
C105A C100A 1_555 1_555
H42A C105A 1_555 1_555
C106A C104A 1_555 1_555
C107A C106A 1_555 1_555
H43A C107A 1_555 1_555
H44A C107A 1_555 1_555
H45A C107A 1_555 1_555
C108A C106A 1_555 1_555
H46A C108A 1_555 1_555
H47A C108A 1_555 1_555
H48A C108A 1_555 1_555
C109A C106A 1_555 1_555
H49A C109A 1_555 1_555
H50A C109A 1_555 1_555
H51A C109A 1_555 1_555
C110A C102A 1_555 1_555
C111A C110A 1_555 1_555
C112A C110A 1_555 1_555
C113A C110A 1_555 1_555
C117A C97A 1_555 1_555
C118A C117A 1_555 1_555
C119A C118A 1_555 1_555
C120A C119A 1_555 1_555
H52A C120A 1_555 1_555
C121A C120A 1_555 1_555
C122A C121A 1_555 1_555
H53A C122A 1_555 1_555
C123A C122A 1_555 1_555
C124A C119A 1_555 1_555
H54A C124A 1_555 1_555
C125A C123A 1_555 1_555
C126A C125A 1_555 1_555
C127A C125A 1_555 1_555
C128A C125A 1_555 1_555
C132A C121A 1_555 1_555
C133A C132A 1_555 1_555
H55A C133A 1_555 1_555
H56A C133A 1_555 1_555
H57A C133A 1_555 1_555
C134A C132A 1_555 1_555
H58A C134A 1_555 1_555
H59A C134A 1_555 1_555
H60A C134A 1_555 1_555
C135A C132A 1_555 1_555
H61A C135A 1_555 1_555
H62A C135A 1_555 1_555
H63A C135A 1_555 1_555
C16A C15A 1_555 1_555
C17A C16A 1_555 1_555
C18A C17A 1_555 1_555
C19A C18A 1_555 1_555
C20A C19A 1_555 1_555
H1A C20A 1_555 1_555
C21A C20A 1_555 1_555
C22A C21A 1_555 1_555
H2A C22A 1_555 1_555
C23A C22A 1_555 1_555
C24A C19A 1_555 1_555
H3A C24A 1_555 1_555
C25A C23A 1_555 1_555
C26A C25A 1_555 1_555
C27A C25A 1_555 1_555
C28A C25A 1_555 1_555
C32A C21A 1_555 1_555
C33A C32A 1_555 1_555
C34A C32A 1_555 1_555
C35A C32A 1_555 1_555
C59A C16A 1_555 1_555
C60A C59A 1_555 1_555
C61A C60A 1_555 1_555
C62A C61A 1_555 1_555
H16A C62A 1_555 1_555
C63A C62A 1_555 1_555
C64A C63A 1_555 1_555
H17A C64A 1_555 1_555
C65A C64A 1_555 1_555
C66A C61A 1_555 1_555
H18A C66A 1_555 1_555
C71A C65A 1_555 1_555
C72A C71A 1_555 1_555
C73A C71A 1_555 1_555
C74A C71A 1_555 1_555
C67A C63A 1_555 1_555
C68A C67A 1_555 1_555
H19A C68A 1_555 1_555
H20A C68A 1_555 1_555
H21A C68A 1_555 1_555
C69A C67A 1_555 1_555
H22A C69A 1_555 1_555
H23A C69A 1_555 1_555
H24A C69A 1_555 1_555
C70A C67A 1_555 1_555
H25A C70A 1_555 1_555
H26A C70A 1_555 1_555
H27A C70A 1_555 1_555
C23 C24 1_555 1_555
C46 C47 1_555 1_555
C65 C66 1_555 1_555
C84 C85 1_555 1_555
C104 C105 1_555 1_555
C123 C124 1_555 1_555
C46A C47A 1_555 1_555
C84A C85A 1_555 1_555
C104A C105A 1_555 1_555
C123A C124A 1_555 1_555
C23A C24A 1_555 1_555
C65A C66A 1_555 1_555

#END
