
#######################################################################
#
#                 Cambridge Crystallographic Data Centre
#                                CCDC 
#
#######################################################################
#
# If this CIF has been generated from an entry in the Cambridge 
# Structural Database, then it will include bibliographic, chemical, 
# crystal, experimental, refinement or atomic coordinate data resulting 
# from the CCDC's data processing and validation procedures.
#
#######################################################################

data_TIHPAD
_chemical_formula_moiety         'C20 H20 O5'
_chemical_name_systematic        
6,7-Dimethoxy-3a,4,10,10a-tetrahydro-1H,3H,4'H-spiro[benzo[4,5]cyclohepta[1,2-c]furan-9,1'-cyclohexa[2,5]diene]-1,4'-dione
_symmetry_cell_setting           monoclinic
_symmetry_space_group_name_H-M   'P 21/n'
_symmetry_Int_Tables_number      14
_space_group_name_Hall           '-P 2yn'
loop_
_symmetry_equiv_pos_site_id
_symmetry_equiv_pos_as_xyz
1 x,y,z
2 1/2-x,1/2+y,1/2-z
3 -x,-y,-z
4 1/2+x,1/2-y,1/2+z
_cell_length_a                   9.700
_cell_length_b                   10.470
_cell_length_c                   16.580
_cell_angle_alpha                90
_cell_angle_beta                 92.55
_cell_angle_gamma                90
_cell_volume                     1682.18
_cell_formula_units_Z            4
loop_
_atom_site_label
_atom_site_type_symbol
_atom_site_fract_x
_atom_site_fract_y
_atom_site_fract_z
O1 O 0.1493(6) 0.0914(5) 0.3531(3)
O2 O 0.2610(5) 0.2163(5) 0.2679(3)
O3 O 0.9625(5) -0.2545(5) 0.4807(3)
O4 O 0.7699(5) -0.3813(4) 0.5640(3)
O5 O 0.8141(5) -0.1111(5) 0.0834(3)
C1 C 0.2584(8) 0.1209(7) 0.3096(5)
C2 C 0.1764(7) -0.0282(6) 0.3971(5)
H1 H 0.1327 -0.0998 0.3691
H2 H 0.1427 -0.0235 0.4512
C3 C 0.3332(6) -0.0414(6) 0.3995(4)
H3 H 0.3723 0.0116 0.4436
C4 C 0.3670(7) 0.0195(5) 0.3196(4)
H4 H 0.3457 -0.0447 0.2779
C5 C 0.5124(7) 0.0606(5) 0.3087(4)
H5 H 0.5421 0.1125 0.3547
H6 H 0.5139 0.1144 0.2611
C6 C 0.6191(7) -0.0500(6) 0.2994(4)
C7 C 0.6450(7) -0.1324(5) 0.3771(4)
C8 C 0.5437(7) -0.1890(5) 0.4228(4)
C9 C 0.3880(6) -0.1758(5) 0.4097(4)
H7 H 0.3595 -0.2245 0.3621
H8 H 0.3446 -0.2143 0.4554
C10 C 0.7831(7) -0.1580(6) 0.3982(4)
H9 H 0.8513 -0.1188 0.3693
C11 C 0.8220(7) -0.2399(7) 0.4608(4)
C12 C 0.7229(7) -0.2994(6) 0.5050(4)
C13 C 0.5858(6) -0.2724(5) 0.4858(4)
H10 H 0.5186 -0.3110 0.5157
C14 C 1.0180(4) -0.3501(5) 0.4399(3)
H11 H 0.9689 -0.4278 0.4498
H12 H 1.1131 -0.3601 0.4574
H13 H 1.0120 -0.3312 0.3832
C15 C 0.6694(6) -0.4520(5) 0.6026(2)
H14 H 0.6098 -0.3949 0.6300
H15 H 0.7135 -0.5090 0.6411
H16 H 0.6161 -0.5005 0.5632
C16 C 0.5684(3) -0.1436(3) 0.2362(2)
H17 H 0.4925 -0.1936 0.2477
C17 C 0.6252(4) -0.1605(3) 0.16385(19)
H18 H 0.5852 -0.2168 0.1262
C18 C 0.7468(4) -0.0917(3) 0.14565(18)
C19 C 0.8116(3) -0.0003(3) 0.2053(2)
H19 H 0.8940 0.0409 0.1952
C20 C 0.7465(4) 0.0203(2) 0.2743(2)
H20 H 0.7827 0.0826 0.3091
loop_
_geom_bond_atom_site_label_1
_geom_bond_atom_site_label_2
_geom_bond_site_symmetry_1
_geom_bond_site_symmetry_2
O1 C1 1_555 1_555
O2 C1 1_555 1_555
O3 C11 1_555 1_555
O4 C12 1_555 1_555
O5 C18 1_555 1_555
C1 C4 1_555 1_555
C2 O1 1_555 1_555
H1 C2 1_555 1_555
H2 C2 1_555 1_555
C3 C2 1_555 1_555
H3 C3 1_555 1_555
C4 C3 1_555 1_555
H4 C4 1_555 1_555
C5 C4 1_555 1_555
H5 C5 1_555 1_555
H6 C5 1_555 1_555
C6 C5 1_555 1_555
C7 C6 1_555 1_555
C8 C7 1_555 1_555
C9 C3 1_555 1_555
H7 C9 1_555 1_555
H8 C9 1_555 1_555
C10 C7 1_555 1_555
H9 C10 1_555 1_555
C11 C10 1_555 1_555
C12 C11 1_555 1_555
C13 C8 1_555 1_555
H10 C13 1_555 1_555
C14 O3 1_555 1_555
H11 C14 1_555 1_555
H12 C14 1_555 1_555
H13 C14 1_555 1_555
C15 O4 1_555 1_555
H14 C15 1_555 1_555
H15 C15 1_555 1_555
H16 C15 1_555 1_555
C16 C6 1_555 1_555
H17 C16 1_555 1_555
C17 C16 1_555 1_555
H18 C17 1_555 1_555
C18 C17 1_555 1_555
C19 C18 1_555 1_555
H19 C19 1_555 1_555
C20 C6 1_555 1_555
H20 C20 1_555 1_555
C8 C9 1_555 1_555
C12 C13 1_555 1_555
C19 C20 1_555 1_555

#END
