
#######################################################################
#
#                 Cambridge Crystallographic Data Centre
#                                CCDC 
#
#######################################################################
#
# If this CIF has been generated from an entry in the Cambridge 
# Structural Database, then it will include bibliographic, chemical, 
# crystal, experimental, refinement or atomic coordinate data resulting 
# from the CCDC's data processing and validation procedures.
#
#######################################################################

data_TIHPUW
_chemical_formula_moiety         'C21 H26 O2'
_chemical_name_systematic        Pregna-1,4,16-triene-3,20-dione
_symmetry_cell_setting           orthorhombic
_symmetry_space_group_name_H-M   'P 21 21 21'
_symmetry_Int_Tables_number      19
_space_group_name_Hall           'P 2ac 2ab'
loop_
_symmetry_equiv_pos_site_id
_symmetry_equiv_pos_as_xyz
1 x,y,z
2 1/2-x,-y,1/2+z
3 -x,1/2+y,1/2-z
4 1/2+x,1/2-y,-z
_cell_length_a                   6.3625(12)
_cell_length_b                   11.745(2)
_cell_length_c                   23.007(4)
_cell_angle_alpha                90
_cell_angle_beta                 90
_cell_angle_gamma                90
_cell_volume                     1719.26
_exptl_crystal_colour            'pale yellow'
_exptl_crystal_description       block
_cell_formula_units_Z            4
_exptl_crystal_recrystallization_method tetrahydrofuran/acetone/water
loop_
_atom_site_label
_atom_site_type_symbol
_atom_site_fract_x
_atom_site_fract_y
_atom_site_fract_z
O1 O 0.9371(4) 0.57024(18) 0.48495(8)
O2 O 1.2908(3) 0.79394(18) 0.91843(8)
C1 C 1.0192(4) 0.7610(2) 0.60194(9)
H1 H 1.1142 0.8176 0.6123
C2 C 1.0551(4) 0.7048(3) 0.55291(10)
H2 H 1.1738 0.7224 0.5311
C3 C 0.9126(5) 0.6160(2) 0.53236(10)
C4 C 0.7407(4) 0.5879(2) 0.57074(9)
H3 H 0.6524 0.5281 0.5603
C5 C 0.7016(3) 0.64276(17) 0.62024(9)
C6 C 0.5246(4) 0.6074(2) 0.65934(9)
H4 H 0.4533 0.5420 0.6427
H5 H 0.4237 0.6690 0.6625
C7 C 0.6068(4) 0.57713(18) 0.71942(9)
H6 H 0.6922 0.5089 0.7168
H7 H 0.4891 0.5609 0.7449
C8 C 0.7380(3) 0.67328(16) 0.74551(8)
H8 H 0.6477 0.7398 0.7515
C9 C 0.9196(3) 0.70629(16) 0.70402(8)
H9 H 1.0036 0.6371 0.6987
C10 C 0.8374(3) 0.74005(16) 0.64175(8)
C11 C 1.0676(3) 0.79469(18) 0.73120(8)
H10 H 0.9940 0.8668 0.7341
H11 H 1.1869 0.8057 0.7055
C12 C 1.1488(3) 0.76146(18) 0.79171(9)
H12 H 1.2393 0.6953 0.7886
H13 H 1.2309 0.8235 0.8078
C13 C 0.9649(3) 0.73475(15) 0.83207(8)
C14 C 0.8354(3) 0.63945(16) 0.80305(8)
H14 H 0.9376 0.5799 0.7934
C15 C 0.7042(4) 0.5901(2) 0.85305(9)
H15 H 0.5775 0.6341 0.8598
H16 H 0.6674 0.5111 0.8462
C16 C 0.8584(4) 0.60245(19) 0.90194(9)
H17 H 0.8498 0.5619 0.9366
C17 C 1.0091(4) 0.67786(17) 0.89034(8)
C18 C 1.1800(4) 0.7120(2) 0.92989(9)
C19 C 1.2148(5) 0.6444(3) 0.98430(10)
H18 H 1.3263 0.6782 1.0065
H19 H 1.2521 0.5677 0.9743
H20 H 1.0882 0.6439 1.0070
C20 C 0.8361(4) 0.84353(17) 0.84474(9)
H21 H 0.9170 0.8938 0.8689
H22 H 0.7084 0.8233 0.8644
H23 H 0.8031 0.8811 0.8088
C21 C 0.7052(4) 0.85114(18) 0.64361(10)
H24 H 0.6380 0.8624 0.6067
H25 H 0.7956 0.9146 0.6518
H26 H 0.6004 0.8451 0.6735
loop_
_geom_bond_atom_site_label_1
_geom_bond_atom_site_label_2
_geom_bond_site_symmetry_1
_geom_bond_site_symmetry_2
O1 C3 1_555 1_555
O2 C18 1_555 1_555
C1 H1 1_555 1_555
C2 C1 1_555 1_555
H2 C2 1_555 1_555
C3 C2 1_555 1_555
C4 C3 1_555 1_555
H3 C4 1_555 1_555
C5 C4 1_555 1_555
C6 C5 1_555 1_555
H4 C6 1_555 1_555
H5 C6 1_555 1_555
C7 C6 1_555 1_555
H6 C7 1_555 1_555
H7 C7 1_555 1_555
C8 C7 1_555 1_555
H8 C8 1_555 1_555
C9 C8 1_555 1_555
H9 C9 1_555 1_555
C10 C1 1_555 1_555
C11 C9 1_555 1_555
H10 C11 1_555 1_555
H11 C11 1_555 1_555
C12 C11 1_555 1_555
H12 C12 1_555 1_555
H13 C12 1_555 1_555
C13 C12 1_555 1_555
C14 C8 1_555 1_555
H14 C14 1_555 1_555
C15 C14 1_555 1_555
H15 C15 1_555 1_555
H16 C15 1_555 1_555
C16 C15 1_555 1_555
H17 C16 1_555 1_555
C17 C13 1_555 1_555
C18 C17 1_555 1_555
C19 C18 1_555 1_555
H18 C19 1_555 1_555
H19 C19 1_555 1_555
H20 C19 1_555 1_555
C20 C13 1_555 1_555
H21 C20 1_555 1_555
H22 C20 1_555 1_555
H23 C20 1_555 1_555
C21 C10 1_555 1_555
H24 C21 1_555 1_555
H25 C21 1_555 1_555
H26 C21 1_555 1_555
C5 C10 1_555 1_555
C9 C10 1_555 1_555
C13 C14 1_555 1_555
C16 C17 1_555 1_555

#END
