
#######################################################################
#
#                 Cambridge Crystallographic Data Centre
#                                CCDC 
#
#######################################################################
#
# If this CIF has been generated from an entry in the Cambridge 
# Structural Database, then it will include bibliographic, chemical, 
# crystal, experimental, refinement or atomic coordinate data resulting 
# from the CCDC's data processing and validation procedures.
#
#######################################################################

data_TIHQUX
_chemical_name_common            
N,N'-(2-Hydroxy-3-methoxybenzyl)benzene-1,3-diamine
_chemical_formula_moiety         'C22 H24 N2 O4'
_chemical_name_systematic        
6,6'-Dimethoxy-2,2'-(m-phenylenedi(iminomethylene))diphenol
_symmetry_cell_setting           orthorhombic
_symmetry_space_group_name_H-M   'P n c 2'
_symmetry_Int_Tables_number      30
_space_group_name_Hall           'P 2 -2bc'
loop_
_symmetry_equiv_pos_site_id
_symmetry_equiv_pos_as_xyz
1 x,y,z
2 -x,-y,z
3 x,1/2-y,1/2+z
4 -x,1/2+y,1/2+z
_cell_length_a                   13.2402(18)
_cell_length_b                   7.7416(14)
_cell_length_c                   9.7770(12)
_cell_angle_alpha                90
_cell_angle_beta                 90
_cell_angle_gamma                90
_cell_volume                     1002.15
_exptl_crystal_colour            red
_exptl_crystal_description       acerate
_cell_formula_units_Z            2
loop_
_atom_site_label
_atom_site_type_symbol
_atom_site_fract_x
_atom_site_fract_y
_atom_site_fract_z
N1 N 0.6614(3) 0.6391(5) 0.8827(4)
H1 H 0.6551 0.6488 0.9699
O1 O 0.9095(2) 0.8177(4) 0.6588(4)
H2 H 0.9520 0.8633 0.6097
O2 O 0.9070(2) 1.1194(4) 0.5231(4)
C1 C 0.7547(3) 0.6954(6) 0.8189(6)
H3 H 0.7747 0.6104 0.7513
H4 H 0.8072 0.6998 0.8880
C2 C 0.7477(3) 0.8702(6) 0.7503(5)
C3 C 0.8274(3) 0.9240(6) 0.6701(5)
C4 C 0.8230(3) 1.0816(6) 0.6010(5)
C5 C 0.7399(4) 1.1859(6) 0.6149(5)
H5 H 0.7370 1.2918 0.5701
C6 C 0.6608(4) 1.1320(6) 0.6958(6)
H6 H 0.6042 1.2022 0.7054
C7 C 0.6643(3) 0.9769(6) 0.7621(5)
H7 H 0.6099 0.9426 0.8158
C8 C 0.9002(4) 1.2617(13) 0.4308(8)
H8 H 0.8922 1.3668 0.4817
H9 H 0.8431 1.2460 0.3716
H10 H 0.9607 1.2680 0.3769
C9 C 0.5000 0.5000 0.8780(6)
H11 H 0.5000 0.5000 0.9731
C10 C 0.5824(3) 0.5705(5) 0.8084(5)
C11 C 0.5805(3) 0.5714(5) 0.6655(5)
H12 H 0.6336 0.6202 0.6167
C12 C 0.5000 0.5000 0.5972(7)
H13 H 0.5000 0.5000 0.5021
N1A N 0.3386(3) 0.3609(5) 0.8827(4)
H1A H 0.3449 0.3512 0.9699
O1A O 0.0905(2) 0.1823(4) 0.6588(4)
H2A H 0.0480 0.1367 0.6097
O2A O 0.0930(2) -0.1194(4) 0.5231(4)
C1A C 0.2453(3) 0.3046(6) 0.8189(6)
H3A H 0.2253 0.3896 0.7513
H4A H 0.1928 0.3002 0.8880
C2A C 0.2523(3) 0.1298(6) 0.7503(5)
C3A C 0.1726(3) 0.0760(6) 0.6701(5)
C4A C 0.1770(3) -0.0816(6) 0.6010(5)
C5A C 0.2601(4) -0.1859(6) 0.6149(5)
H5A H 0.2630 -0.2918 0.5701
C6A C 0.3392(4) -0.1320(6) 0.6958(6)
H6A H 0.3958 -0.2022 0.7054
C7A C 0.3357(3) 0.0231(6) 0.7621(5)
H7A H 0.3901 0.0574 0.8158
C8A C 0.0998(4) -0.2617(13) 0.4308(8)
H8A H 0.1078 -0.3668 0.4817
H9A H 0.1569 -0.2460 0.3716
H10A H 0.0393 -0.2680 0.3769
C10A C 0.4176(3) 0.4295(5) 0.8084(5)
C11A C 0.4195(3) 0.4286(5) 0.6655(5)
H12A H 0.3664 0.3798 0.6167
loop_
_geom_bond_atom_site_label_1
_geom_bond_atom_site_label_2
_geom_bond_site_symmetry_1
_geom_bond_site_symmetry_2
N1 H1 1_555 1_555
O1 H2 1_555 1_555
O2 C4 1_555 1_555
C1 N1 1_555 1_555
H3 C1 1_555 1_555
H4 C1 1_555 1_555
C2 C1 1_555 1_555
C3 O1 1_555 1_555
C4 C3 1_555 1_555
C5 C4 1_555 1_555
H5 C5 1_555 1_555
C6 C5 1_555 1_555
H6 C6 1_555 1_555
C7 C2 1_555 1_555
H7 C7 1_555 1_555
C8 O2 1_555 1_555
H8 C8 1_555 1_555
H9 C8 1_555 1_555
H10 C8 1_555 1_555
C9 H11 1_555 1_555
C10 N1 1_555 1_555
C11 C10 1_555 1_555
H12 C11 1_555 1_555
C12 C11 1_555 1_555
H13 C12 1_555 1_555
N1A H1A 1_555 1_555
O1A H2A 1_555 1_555
O2A C4A 1_555 1_555
C1A N1A 1_555 1_555
H3A C1A 1_555 1_555
H4A C1A 1_555 1_555
C2A C1A 1_555 1_555
C3A O1A 1_555 1_555
C4A C3A 1_555 1_555
C5A C4A 1_555 1_555
H5A C5A 1_555 1_555
C6A C5A 1_555 1_555
H6A C6A 1_555 1_555
C7A C2A 1_555 1_555
H7A C7A 1_555 1_555
C8A O2A 1_555 1_555
H8A C8A 1_555 1_555
H9A C8A 1_555 1_555
H10A C8A 1_555 1_555
C10A C9 1_555 1_555
C11A C12 1_555 1_555
H12A C11A 1_555 1_555
C2 C3 1_555 1_555
C6 C7 1_555 1_555
C9 C10 1_555 1_555
N1A C10A 1_555 1_555
C2A C3A 1_555 1_555
C6A C7A 1_555 1_555
C10A C11A 1_555 1_555

#END
