
#######################################################################
#
#                 Cambridge Crystallographic Data Centre
#                                CCDC 
#
#######################################################################
#
# If this CIF has been generated from an entry in the Cambridge 
# Structural Database, then it will include bibliographic, chemical, 
# crystal, experimental, refinement or atomic coordinate data resulting 
# from the CCDC's data processing and validation procedures.
#
#######################################################################

data_TIHSOT
_chemical_name_common            
4,10-bis(2-(Phthalimido)ethyl)-1,7-dioxa-4,10-diazacyclododecane
_chemical_formula_moiety         'C28 H32 N4 O6'
_chemical_name_systematic        
N,N'-((1,7-Dioxa-4,10-diazacyclododecane-2,10-diyl)diethylene)diphthalimide
_symmetry_cell_setting           monoclinic
_symmetry_space_group_name_H-M   'P 21/c'
_symmetry_Int_Tables_number      14
_space_group_name_Hall           '-P 2ybc'
loop_
_symmetry_equiv_pos_site_id
_symmetry_equiv_pos_as_xyz
1 x,y,z
2 -x,1/2+y,1/2-z
3 -x,-y,-z
4 x,1/2-y,1/2+z
_cell_length_a                   11.014(13)
_cell_length_b                   8.986(11)
_cell_length_c                   13.688(16)
_cell_angle_alpha                90
_cell_angle_beta                 109.746(18)
_cell_angle_gamma                90
_cell_volume                     1275.07
_exptl_crystal_colour            colorless
_exptl_crystal_description       block
_chemical_melting_point          '481-482 K'
_cell_formula_units_Z            2
_exptl_crystal_recrystallization_method ethanol
loop_
_atom_site_label
_atom_site_type_symbol
_atom_site_fract_x
_atom_site_fract_y
_atom_site_fract_z
C1 C 0.81133(17) 0.6171(2) -0.02553(16)
C2 C 0.82852(16) 0.4587(2) -0.04563(16)
C3 C 0.8035(2) 0.3817(3) -0.13666(17)
H1 H 0.7731 0.4304 -0.2003
C4 C 0.8245(2) 0.2308(3) -0.1318(2)
H2 H 0.8078 0.1767 -0.1929
C5 C 0.8703(2) 0.1582(3) -0.0370(2)
H3 H 0.8822 0.0556 -0.0355
C6 C 0.89907(18) 0.2366(2) 0.05674(18)
H4 H 0.9327 0.1889 0.1205
C7 C 0.87551(15) 0.3861(2) 0.04999(15)
C8 C 0.88977(15) 0.4992(2) 0.13198(16)
C9 C 0.82979(18) 0.7656(2) 0.13443(18)
H5 H 0.8859 0.8432 0.1248
H6 H 0.8560 0.7442 0.2081
C10 C 0.69116(18) 0.8226(2) 0.09738(17)
H7 H 0.6815 0.8929 0.1481
H8 H 0.6754 0.8759 0.0326
C11 C 0.5977(2) 0.6286(2) 0.17576(16)
H9 H 0.5523 0.6869 0.2121
H10 H 0.6867 0.6185 0.2210
C12 C 0.5374(2) 0.4770(2) 0.15272(18)
H11 H 0.5228 0.4371 0.2137
H12 H 0.4551 0.4829 0.0968
C13 C 0.4254(2) 0.7587(2) -0.08825(17)
H13 H 0.4986 0.7799 -0.1102
H14 H 0.3593 0.8325 -0.1194
C14 C 0.46618(18) 0.7706(2) 0.02717(17)
H15 H 0.4030 0.7202 0.0505
H16 H 0.4669 0.8747 0.0460
N1 N 0.59403(14) 0.70666(16) 0.08141(12)
N2 N 0.84659(13) 0.63336(18) 0.08047(13)
O1 O 0.77458(15) 0.71729(19) -0.08768(13)
O2 O 0.93177(13) 0.48408(17) 0.22508(11)
O3 O 0.62317(12) 0.38433(15) 0.12362(12)
C1B C 0.18867(17) 0.3829(2) 0.02553(16)
C2B C 0.17148(16) 0.5413(2) 0.04563(16)
C3B C 0.1965(2) 0.6183(3) 0.13666(17)
H1B H 0.2269 0.5696 0.2003
C4B C 0.1755(2) 0.7692(3) 0.1318(2)
H2B H 0.1922 0.8233 0.1929
C5B C 0.1297(2) 0.8418(3) 0.0370(2)
H3B H 0.1178 0.9444 0.0355
C6B C 0.10093(18) 0.7634(2) -0.05674(18)
H4B H 0.0673 0.8111 -0.1205
C7B C 0.12449(15) 0.6139(2) -0.04999(15)
C8B C 0.11023(15) 0.5008(2) -0.13198(16)
C9B C 0.17021(18) 0.2344(2) -0.13443(18)
H5B H 0.1141 0.1568 -0.1248
H6B H 0.1440 0.2558 -0.2081
C10B C 0.30884(18) 0.1774(2) -0.09738(17)
H7B H 0.3185 0.1071 -0.1481
H8B H 0.3246 0.1241 -0.0326
C11B C 0.4023(2) 0.3714(2) -0.17576(16)
H9B H 0.4477 0.3131 -0.2121
H10B H 0.3133 0.3815 -0.2210
C12B C 0.4626(2) 0.5230(2) -0.15272(18)
H11B H 0.4772 0.5629 -0.2137
H12B H 0.5449 0.5171 -0.0968
C13B C 0.5746(2) 0.2413(2) 0.08825(17)
H13B H 0.5014 0.2201 0.1102
H14B H 0.6407 0.1675 0.1194
C14B C 0.53382(18) 0.2294(2) -0.02717(17)
H15B H 0.5970 0.2798 -0.0505
H16B H 0.5331 0.1253 -0.0460
N1B N 0.40597(14) 0.29334(16) -0.08141(12)
N2B N 0.15341(13) 0.36664(18) -0.08047(13)
O1B O 0.22542(15) 0.28271(19) 0.08768(13)
O2B O 0.06823(13) 0.51592(17) -0.22508(11)
O3B O 0.37683(12) 0.61567(15) -0.12362(12)
loop_
_geom_bond_atom_site_label_1
_geom_bond_atom_site_label_2
_geom_bond_site_symmetry_1
_geom_bond_site_symmetry_2
C1 C2 1_555 1_555
C2 C3 1_555 1_555
C3 H1 1_555 1_555
C4 C3 1_555 1_555
H2 C4 1_555 1_555
C5 C4 1_555 1_555
H3 C5 1_555 1_555
C6 C5 1_555 1_555
H4 C6 1_555 1_555
C7 C2 1_555 1_555
C8 C7 1_555 1_555
C9 H5 1_555 1_555
H6 C9 1_555 1_555
C10 C9 1_555 1_555
H7 C10 1_555 1_555
H8 C10 1_555 1_555
C11 H9 1_555 1_555
H10 C11 1_555 1_555
C12 C11 1_555 1_555
H11 C12 1_555 1_555
H12 C12 1_555 1_555
C13 H13 1_555 1_555
H14 C13 1_555 1_555
C14 C13 1_555 1_555
H15 C14 1_555 1_555
H16 C14 1_555 1_555
N1 C10 1_555 1_555
N2 C1 1_555 1_555
O1 C1 1_555 1_555
O2 C8 1_555 1_555
O3 C12 1_555 1_555
C1B C2B 1_555 1_555
C2B C3B 1_555 1_555
C3B H1B 1_555 1_555
C4B C3B 1_555 1_555
H2B C4B 1_555 1_555
C5B C4B 1_555 1_555
H3B C5B 1_555 1_555
C6B C5B 1_555 1_555
H4B C6B 1_555 1_555
C7B C2B 1_555 1_555
C8B C7B 1_555 1_555
C9B H5B 1_555 1_555
H6B C9B 1_555 1_555
C10B C9B 1_555 1_555
H7B C10B 1_555 1_555
H8B C10B 1_555 1_555
C11B H9B 1_555 1_555
H10B C11B 1_555 1_555
C12B C11B 1_555 1_555
H11B C12B 1_555 1_555
H12B C12B 1_555 1_555
C13B O3 1_555 1_555
H13B C13B 1_555 1_555
H14B C13B 1_555 1_555
C14B C13B 1_555 1_555
H15B C14B 1_555 1_555
H16B C14B 1_555 1_555
N1B C10B 1_555 1_555
N2B C1B 1_555 1_555
O1B C1B 1_555 1_555
O2B C8B 1_555 1_555
O3B C13 1_555 1_555
C6 C7 1_555 1_555
C8 N2 1_555 1_555
C9 N2 1_555 1_555
C11 N1 1_555 1_555
C14 N1 1_555 1_555
C6B C7B 1_555 1_555
C8B N2B 1_555 1_555
C9B N2B 1_555 1_555
C11B N1B 1_555 1_555
C12B O3B 1_555 1_555
C14B N1B 1_555 1_555

#END
