
#######################################################################
#
#                 Cambridge Crystallographic Data Centre
#                                CCDC 
#
#######################################################################
#
# If this CIF has been generated from an entry in the Cambridge 
# Structural Database, then it will include bibliographic, chemical, 
# crystal, experimental, refinement or atomic coordinate data resulting 
# from the CCDC's data processing and validation procedures.
#
#######################################################################

data_TIHSEJ
_chemical_formula_moiety         'C13 H16 Cl1 N5 O1'
_chemical_name_systematic        
2-Chloro-N-cyclopropyl-9-(3,4,5,6-tetrahydro-2H-pyran-2-yl)-9H-purin-6-amine
_symmetry_cell_setting           triclinic
_symmetry_space_group_name_H-M   'P -1'
_symmetry_Int_Tables_number      2
_space_group_name_Hall           '-P 1'
loop_
_symmetry_equiv_pos_site_id
_symmetry_equiv_pos_as_xyz
1 x,y,z
2 -x,-y,-z
_cell_length_a                   11.385(4)
_cell_length_b                   11.686(4)
_cell_length_c                   11.692(4)
_cell_angle_alpha                111.380(5)
_cell_angle_beta                 96.954(4)
_cell_angle_gamma                94.531(5)
_cell_volume                     1425.04
_exptl_crystal_colour            colorless
_exptl_crystal_description       prism
_cell_formula_units_Z            4
_exptl_crystal_recrystallization_method acetone/water
loop_
_atom_site_label
_atom_site_type_symbol
_atom_site_fract_x
_atom_site_fract_y
_atom_site_fract_z
Cl1 Cl 0.82375(8) 1.22208(8) 0.49371(7)
N1 N 0.6765(2) 1.0223(2) 0.3754(2)
C1 C 0.7559(2) 1.1004(3) 0.3569(3)
N2 N 0.7924(2) 1.1026(2) 0.2554(2)
C2 C 0.7344(2) 1.0042(3) 0.1565(3)
C3 C 0.6513(2) 0.9123(3) 0.1579(2)
C4 C 0.6234(2) 0.9227(3) 0.2749(3)
N3 N 0.6115(2) 0.8259(2) 0.0393(2)
C5 C 0.6701(3) 0.8670(3) -0.0301(3)
H1 H 0.6613 0.8266 -0.1160
N4 N 0.7458(2) 0.9747(2) 0.0342(2)
N5 N 0.5473(2) 0.8376(2) 0.2888(2)
H2 H 0.5159 0.7747 0.2229
C6 C 0.5135(3) 0.8424(3) 0.4043(3)
H3 H 0.4422 0.8819 0.4258
C7 C 0.5288(3) 0.7332(3) 0.4394(3)
H4 H 0.5655 0.6664 0.3852
H5 H 0.4676 0.7074 0.4793
C8 C 0.6053(3) 0.8556(3) 0.5106(3)
H6 H 0.5906 0.9033 0.5936
H7 H 0.6883 0.8623 0.4995
C9 C 0.8143(3) 1.0476(3) -0.0185(3)
H8 H 0.8763 1.1050 0.0476
O1 O 0.8690(2) 0.9658(2) -0.1059(2)
C10 C 0.9436(3) 1.0287(4) -0.1627(4)
H9 H 0.9815 0.9682 -0.2230
H10 H 1.0060 1.0862 -0.0992
C11 C 0.8755(4) 1.0963(5) -0.2247(4)
H11 H 0.8176 1.0385 -0.2933
H12 H 0.9288 1.1405 -0.2579
C12 C 0.8136(5) 1.1846(6) -0.1353(6)
H13 H 0.7613 1.2225 -0.1788
H14 H 0.8719 1.2498 -0.0741
C13 C 0.7405(4) 1.1203(5) -0.0695(6)
H15 H 0.7101 1.1819 -0.0028
H16 H 0.6728 1.0662 -0.1280
Cl2 Cl 0.13063(8) 0.24465(10) -0.34039(8)
N6 N 0.2902(2) 0.4357(2) -0.2234(2)
C14 C 0.2118(3) 0.3567(3) -0.2043(3)
N7 N 0.1835(2) 0.3502(2) -0.1010(2)
C15 C 0.2502(2) 0.4397(3) -0.0029(3)
C16 C 0.3371(2) 0.5292(3) -0.0051(3)
C17 C 0.3549(2) 0.5259(3) -0.1223(3)
N8 N 0.3872(2) 0.6087(2) 0.1140(2)
C18 C 0.3303(3) 0.5663(3) 0.1848(3)
H17 H 0.3454 0.6022 0.2712
N9 N 0.2472(2) 0.4654(2) 0.1207(2)
N10 N 0.4314(2) 0.6108(2) -0.1362(2)
H18 H 0.4699 0.6686 -0.0698
C19 C 0.4541(3) 0.6129(3) -0.2525(3)
H19 H 0.5140 0.5618 -0.2903
C20 C 0.4517(3) 0.7314(3) -0.2715(3)
H20 H 0.4313 0.8018 -0.2051
H21 H 0.5097 0.7520 -0.3176
C21 C 0.3567(3) 0.6261(4) -0.3404(4)
H22 H 0.2782 0.6322 -0.3162
H23 H 0.3566 0.5825 -0.4286
C22 C 0.1686(3) 0.4008(3) 0.1736(3)
H24 H 0.1401 0.3167 0.1127
O2 O 0.24039(19) 0.3944(2) 0.2761(2)
C23 C 0.1765(4) 0.3320(4) 0.3394(4)
H25 H 0.2301 0.3297 0.4095
H26 H 0.1482 0.2472 0.2833
C24 C 0.0730(4) 0.3954(4) 0.3849(4)
H27 H 0.0286 0.3482 0.4225
H28 H 0.1018 0.4771 0.4480
C25 C -0.0070(3) 0.4075(4) 0.2807(4)
H29 H -0.0683 0.4576 0.3134
H30 H -0.0460 0.3262 0.2244
C26 C 0.0643(3) 0.4678(4) 0.2101(4)
H31 H 0.0135 0.4654 0.1362
H32 H 0.0922 0.5539 0.2623
loop_
_geom_bond_atom_site_label_1
_geom_bond_atom_site_label_2
_geom_bond_site_symmetry_1
_geom_bond_site_symmetry_2
Cl1 C1 1_555 1_555
N1 C1 1_555 1_555
C1 N2 1_555 1_555
N2 C2 1_555 1_555
C2 C3 1_555 1_555
C3 C4 1_555 1_555
C4 N1 1_555 1_555
N3 C3 1_555 1_555
C5 N3 1_555 1_555
H1 C5 1_555 1_555
N4 C2 1_555 1_555
N5 C4 1_555 1_555
H2 N5 1_555 1_555
C6 N5 1_555 1_555
H3 C6 1_555 1_555
C7 C6 1_555 1_555
H4 C7 1_555 1_555
H5 C7 1_555 1_555
C8 C6 1_555 1_555
H6 C8 1_555 1_555
H7 C8 1_555 1_555
C9 N4 1_555 1_555
H8 C9 1_555 1_555
O1 C9 1_555 1_555
C10 O1 1_555 1_555
H9 C10 1_555 1_555
H10 C10 1_555 1_555
C11 C10 1_555 1_555
H11 C11 1_555 1_555
H12 C11 1_555 1_555
C12 C11 1_555 1_555
H13 C12 1_555 1_555
H14 C12 1_555 1_555
C13 C9 1_555 1_555
H15 C13 1_555 1_555
H16 C13 1_555 1_555
Cl2 C14 1_555 1_555
N6 C14 1_555 1_555
C14 N7 1_555 1_555
N7 C15 1_555 1_555
C15 C16 1_555 1_555
C16 C17 1_555 1_555
C17 N6 1_555 1_555
N8 C16 1_555 1_555
C18 N8 1_555 1_555
H17 C18 1_555 1_555
N9 C15 1_555 1_555
N10 C17 1_555 1_555
H18 N10 1_555 1_555
C19 N10 1_555 1_555
H19 C19 1_555 1_555
C20 C19 1_555 1_555
H20 C20 1_555 1_555
H21 C20 1_555 1_555
C21 C19 1_555 1_555
H22 C21 1_555 1_555
H23 C21 1_555 1_555
C22 N9 1_555 1_555
H24 C22 1_555 1_555
O2 C22 1_555 1_555
C23 O2 1_555 1_555
H25 C23 1_555 1_555
H26 C23 1_555 1_555
C24 C23 1_555 1_555
H27 C24 1_555 1_555
H28 C24 1_555 1_555
C25 C24 1_555 1_555
H29 C25 1_555 1_555
H30 C25 1_555 1_555
C26 C22 1_555 1_555
H31 C26 1_555 1_555
H32 C26 1_555 1_555
C5 N4 1_555 1_555
C7 C8 1_555 1_555
C12 C13 1_555 1_555
C18 N9 1_555 1_555
C20 C21 1_555 1_555
C25 C26 1_555 1_555

#END
