
#######################################################################
#
#                 Cambridge Crystallographic Data Centre
#                                CCDC 
#
#######################################################################
#
# If this CIF has been generated from an entry in the Cambridge 
# Structural Database, then it will include bibliographic, chemical, 
# crystal, experimental, refinement or atomic coordinate data resulting 
# from the CCDC's data processing and validation procedures.
#
#######################################################################

data_TIHWIQ
_chemical_formula_moiety         'C10 H12'
_chemical_name_systematic        (E)-1,1'-Bi(spiro(2.2)pentylidene)
_symmetry_cell_setting           triclinic
_symmetry_space_group_name_H-M   'P -1'
_symmetry_Int_Tables_number      2
_space_group_name_Hall           '-P 1'
loop_
_symmetry_equiv_pos_site_id
_symmetry_equiv_pos_as_xyz
1 x,y,z
2 -x,-y,-z
_cell_length_a                   5.0981(4)
_cell_length_b                   6.0900(6)
_cell_length_c                   6.7959(6)
_cell_angle_alpha                71.890(4)
_cell_angle_beta                 77.336(4)
_cell_angle_gamma                72.645(4)
_cell_volume                     189.543
_exptl_crystal_colour            colorless
_exptl_crystal_description       plate
_chemical_melting_point          '43-45 deg.C'
_cell_formula_units_Z            1
_exptl_crystal_recrystallization_method pentane
loop_
_atom_site_label
_atom_site_type_symbol
_atom_site_fract_x
_atom_site_fract_y
_atom_site_fract_z
C1 C 0.4073(2) 1.03262(17) 0.57562(16)
C2 C 0.1646(2) 0.98346(19) 0.73666(17)
C3 C 0.2854(2) 1.19155(18) 0.71016(16)
C4 C 0.3742(2) 1.29532(19) 0.84969(17)
C5 C 0.1749(2) 1.4514(2) 0.69418(18)
H1 H 0.195(3) 0.844(2) 0.859(2)
H2 H -0.016(3) 1.017(2) 0.6902(19)
H3 H 0.565(3) 1.316(2) 0.8159(19)
H4 H 0.299(3) 1.255(2) 1.001(2)
H5 H -0.021(3) 1.506(2) 0.748(2)
H6 H 0.249(3) 1.567(2) 0.572(2)
C1A C 0.5927(2) 0.96738(17) 0.42438(16)
C2A C 0.8354(2) 1.01654(19) 0.26334(17)
C3A C 0.7146(2) 0.80845(18) 0.28984(16)
C4A C 0.6258(2) 0.70468(19) 0.15031(17)
C5A C 0.8251(2) 0.5486(2) 0.30582(18)
H5A H 1.021(3) 0.494(2) 0.252(2)
H6A H 0.751(3) 0.433(2) 0.428(2)
H3A H 0.435(3) 0.684(2) 0.1841(19)
H4A H 0.701(3) 0.745(2) -0.001(2)
H1A H 0.805(3) 1.156(2) 0.141(2)
H2A H 1.016(3) 0.983(2) 0.3098(19)
loop_
_geom_bond_atom_site_label_1
_geom_bond_atom_site_label_2
_geom_bond_site_symmetry_1
_geom_bond_site_symmetry_2
C1 C2 1_555 1_555
C2 C3 1_555 1_555
C3 C1 1_555 1_555
C4 C3 1_555 1_555
C5 C3 1_555 1_555
H1 C2 1_555 1_555
H2 C2 1_555 1_555
H3 C4 1_555 1_555
H4 C4 1_555 1_555
H5 C5 1_555 1_555
H6 C5 1_555 1_555
C1A C1 1_555 1_555
C2A C1A 1_555 1_555
C3A C1A 1_555 1_555
C4A C3A 1_555 1_555
C5A C3A 1_555 1_555
H5A C5A 1_555 1_555
H6A C5A 1_555 1_555
H3A C4A 1_555 1_555
H4A C4A 1_555 1_555
H1A C2A 1_555 1_555
H2A C2A 1_555 1_555
C4 C5 1_555 1_555
C2A C3A 1_555 1_555
C4A C5A 1_555 1_555

#END
