
#######################################################################
#
#                 Cambridge Crystallographic Data Centre
#                                CCDC 
#
#######################################################################
#
# If this CIF has been generated from an entry in the Cambridge 
# Structural Database, then it will include bibliographic, chemical, 
# crystal, experimental, refinement or atomic coordinate data resulting 
# from the CCDC's data processing and validation procedures.
#
#######################################################################

data_TIHWAK
_chemical_formula_moiety         'C41 H48 N6 O6'
_chemical_name_systematic        
3-(4-((3-Acetylphenyl)amino)-5-azido-2-(benzyloxy)-1-(1-(benzyloxy)ethyl)-3-((benzyloxy)methyl)-3-hydroxy-2-methylcyclopentyl)-1,1-dimethylurea
_symmetry_cell_setting           triclinic
_symmetry_space_group_name_H-M   'P 1'
_symmetry_Int_Tables_number      1
_space_group_name_Hall           'P 1'
loop_
_symmetry_equiv_pos_site_id
_symmetry_equiv_pos_as_xyz
1 x,y,z
_cell_length_a                   6.2487(2)
_cell_length_b                   12.2923(4)
_cell_length_c                   13.6193(5)
_cell_angle_alpha                113.238(2)
_cell_angle_beta                 90.230(2)
_cell_angle_gamma                101.336(2)
_cell_volume                     938.621
_exptl_crystal_colour            colorless
_exptl_crystal_description       plate
_cell_formula_units_Z            1
loop_
_atom_site_label
_atom_site_type_symbol
_atom_site_fract_x
_atom_site_fract_y
_atom_site_fract_z
O1 O 0.5568(4) 0.42044(15) 0.07876(18)
O2 O 0.4376(4) 0.40083(15) 0.25971(17)
H1 H 0.4506 0.4058 0.2002
O3 O 0.7534(4) 0.18223(14) 0.26744(17)
N1 N 0.5366(4) 0.21850(17) 0.03165(19)
H2 H 0.4452 0.1500 -0.0075
N2 N 0.9943(11) 0.3500(3) 0.0685(4)
N3 N 1.0334(11) 0.4589(3) 0.0890(5)
N4 N 1.0807(13) 0.5551(3) 0.0957(6)
N5 N 0.4315(4) 0.2889(2) -0.0912(2)
C1 C 0.6890(4) 0.20951(18) 0.1089(2)
C2 C 0.8949(4) 0.31433(19) 0.1528(2)
H3 H 1.0066 0.2825 0.1803
C3 C 0.8365(4) 0.41689(18) 0.2506(2)
H4 H 0.8007 0.4778 0.2252
C4 C 0.6186(4) 0.35859(18) 0.2854(2)
C5 C 0.5915(4) 0.21912(18) 0.2186(2)
C6 C 0.7519(4) 0.0851(2) 0.0487(2)
H5 H 0.8171 0.0607 0.1020
C7 C 0.9077(5) 0.0808(2) -0.0373(2)
H6 H 0.9197 -0.0032 -0.0784
H7 H 1.0525 0.1303 -0.0035
H8 H 0.8514 0.1124 -0.0855
C8 C 0.6339(4) 0.3984(2) 0.4059(2)
H9 H 0.7538 0.3689 0.4285
H10 H 0.6680 0.4881 0.4414
C9 C 0.3603(4) 0.1463(2) 0.2062(2)
H11 H 0.3621 0.0598 0.1788
H12 H 0.2693 0.1607 0.1557
H13 H 0.2998 0.1712 0.2760
C10 C 0.5127(4) 0.3149(2) 0.0104(2)
C11 C 0.3858(5) 0.1684(3) -0.1762(2)
H14 H 0.5152 0.1331 -0.1819
H15 H 0.3494 0.1731 -0.2443
H16 H 0.2619 0.1174 -0.1600
C12 C 0.3637(6) 0.3834(3) -0.1143(3)
H17 H 0.4140 0.4616 -0.0535
H18 H 0.2035 0.3655 -0.1261
H19 H 0.4278 0.3868 -0.1788
O4 O 1.5793(6) 0.9528(2) 0.6380(3)
N6 N 1.0201(6) 0.4782(3) 0.3314(3)
H20 H 1.1057 0.4348 0.3429
C13 C 1.0672(6) 0.6017(3) 0.3913(3)
C14 C 0.9283(7) 0.6767(3) 0.3859(4)
H21 H 0.7939 0.6420 0.3416
C15 C 0.9869(7) 0.8015(3) 0.4451(4)
H22 H 0.8937 0.8514 0.4389
C16 C 1.1764(6) 0.8539(3) 0.5122(3)
H23 H 1.2148 0.9392 0.5517
C17 C 1.3127(5) 0.7802(2) 0.5217(3)
C18 C 1.2578(5) 0.6561(2) 0.4616(3)
H24 H 1.3518 0.6068 0.4683
C19 C 1.5158(6) 0.8412(3) 0.5981(3)
C20 C 1.6297(7) 0.7600(4) 0.6270(3)
H25 H 1.7513 0.8093 0.6818
H26 H 1.6865 0.7065 0.5630
H27 H 1.5256 0.7110 0.6550
O5 O 0.4313(9) 0.3513(10) 0.4381(4)
C21 C 0.4412(7) 0.3940(3) 0.5515(3)
H28 H 0.4549 0.4829 0.5834
H29 H 0.5720 0.3761 0.5783
C22 C 0.2381(8) 0.3341(3) 0.5853(4)
C23 C 0.1034(8) 0.4023(3) 0.6508(6)
H30 H 0.1362 0.4878 0.6731
C24 C -0.0789(7) 0.3471(4) 0.6841(4)
H31 H -0.1699 0.3950 0.7296
C25 C -0.1296(11) 0.2237(4) 0.6521(8)
H32 H -0.2546 0.1862 0.6757
C26 C 0.0026(12) 0.1543(4) 0.5855(8)
H33 H -0.0347 0.0685 0.5606
C27 C 0.1897(10) 0.2098(3) 0.5549(5)
H34 H 0.2853 0.1623 0.5128
C28 C 0.6953(5) 0.1341(2) 0.3462(2)
H35 H 0.5569 0.1558 0.3745
H36 H 0.8111 0.1710 0.4067
C29 C 0.6671(5) -0.0020(2) 0.2999(2)
C30 C 0.4753(5) -0.0769(2) 0.3051(2)
H37 H 0.3585 -0.0420 0.3394
C31 C 0.4499(5) -0.2009(2) 0.2617(3)
H38 H 0.3173 -0.2506 0.2672
C32 C 0.6165(6) -0.2535(2) 0.2100(3)
H39 H 0.5974 -0.3392 0.1778
C33 C 0.8122(5) -0.1795(2) 0.2058(3)
H40 H 0.9291 -0.2148 0.1720
C34 C 0.8375(5) -0.0555(2) 0.2503(2)
H41 H 0.9722 -0.0057 0.2474
O6 O 0.5456(10) 0.0015(3) -0.0004(8)
C35 C 0.5375(9) -0.1192(4) -0.0122(6)
H42 H 0.5465 -0.1228 0.0590
H43 H 0.6613 -0.1496 -0.0511
C36 C 0.3227(8) -0.1944(5) -0.0747(5)
C37 C 0.1772(7) -0.2636(4) -0.0348(4)
H44 H 0.2150 -0.2658 0.0320
C38 C -0.0219(7) -0.3292(4) -0.0908(4)
H45 H -0.1216 -0.3751 -0.0618
C39 C -0.0771(7) -0.3288(4) -0.1877(3)
H46 H -0.2149 -0.3738 -0.2261
C40 C 0.0681(8) -0.2628(4) -0.2289(3)
H47 H 0.0317 -0.2633 -0.2969
C41 C 0.2671(8) -0.1954(4) -0.1725(3)
H48 H 0.3660 -0.1493 -0.2017
N7? N 0.995(5) 0.3495(8) 0.0686(16)
N8? N 1.039(4) 0.4585(10) 0.090(2)
N9? N 1.053(6) 0.5585(12) 0.112(4)
O7? O 1.638(3) 0.9079(9) 0.6458(13)
N10? N 1.016(3) 0.4681(14) 0.3317(15)
H49? H 1.0902 0.4193 0.3426
C42? C 1.078(2) 0.5912(13) 0.3939(12)
C43? C 0.954(3) 0.6732(18) 0.393(2)
H50? H 0.8190 0.6453 0.3497
C44? C 1.028(3) 0.7962(16) 0.456(2)
H51? H 0.9431 0.8523 0.4557
C45? C 1.225(3) 0.8371(11) 0.5198(15)
H52? H 1.2758 0.9211 0.5628
C46? C 1.349(2) 0.7550(10) 0.5204(13)
C47? C 1.276(2) 0.6320(10) 0.4575(13)
H53? H 1.3603 0.5760 0.4580
C48? C 1.549(3) 0.7984(10) 0.5984(15)
C49? C 1.634(3) 0.7003(13) 0.6132(18)
H54? H 1.7807 0.6993 0.5878
H55? H 1.5356 0.6220 0.5720
H56? H 1.6426 0.7152 0.6894
O8? O 0.430(4) 0.356(6) 0.4391(19)
C50? C 0.457(3) 0.3688(19) 0.5470(16)
H57? H 0.5015 0.4559 0.5951
H58? H 0.5741 0.3283 0.5549
C51? C 0.246(4) 0.3136(15) 0.578(2)
C52? C 0.124(5) 0.3849(17) 0.650(3)
H59? H 0.1595 0.4703 0.6718
C53? C -0.049(4) 0.333(2) 0.692(3)
H60? H -0.1187 0.3829 0.7486
C54? C -0.120(6) 0.209(2) 0.651(4)
H61? H -0.2553 0.1736 0.6681
C55? C 0.010(6) 0.1374(18) 0.584(4)
H62? H -0.0149 0.0536 0.5702
C56? C 0.176(6) 0.1888(15) 0.539(3)
H63? H 0.2418 0.1384 0.4800
O9? O 0.549(5) -0.0003(16) 0.002(4)
C57? C 0.554(5) -0.124(2) -0.027(4)
H64? H 0.6055 -0.1361 0.0358
H65? H 0.6554 -0.1492 -0.0835
C58? C 0.325(3) -0.199(2) -0.069(2)
C59? C 0.217(4) -0.279(2) -0.027(2)
H66? H 0.2863 -0.2866 0.0316
C60? C 0.008(3) -0.3476(19) -0.070(2)
H67? H -0.0652 -0.4022 -0.0416
C61? C -0.093(3) -0.336(2) -0.1559(18)
H68? H -0.2356 -0.3834 -0.1857
C62? C 0.015(4) -0.257(2) -0.1980(14)
H69? H -0.0545 -0.2489 -0.2565
C63? C 0.223(4) -0.188(2) -0.155(2)
H70? H 0.2970 -0.1333 -0.1833
loop_
_geom_bond_atom_site_label_1
_geom_bond_atom_site_label_2
_geom_bond_site_symmetry_1
_geom_bond_site_symmetry_2
O1 C10 1_555 1_555
O2 H1 1_555 1_555
O3 C5 1_555 1_555
N1 H2 1_555 1_555
N2 N3 1_555 1_555
N3 N4 1_555 1_555
N5 C10 1_555 1_555
C1 N1 1_555 1_555
C2 N2 1_555 1_555
H3 C2 1_555 1_555
C3 C2 1_555 1_555
H4 C3 1_555 1_555
C4 O2 1_555 1_555
C5 C1 1_555 1_555
C6 C1 1_555 1_555
H5 C6 1_555 1_555
C7 C6 1_555 1_555
H6 C7 1_555 1_555
H7 C7 1_555 1_555
H8 C7 1_555 1_555
C8 C4 1_555 1_555
H9 C8 1_555 1_555
H10 C8 1_555 1_555
C9 C5 1_555 1_555
H11 C9 1_555 1_555
H12 C9 1_555 1_555
H13 C9 1_555 1_555
C10 N1 1_555 1_555
C11 N5 1_555 1_555
H14 C11 1_555 1_555
H15 C11 1_555 1_555
H16 C11 1_555 1_555
C12 N5 1_555 1_555
H17 C12 1_555 1_555
H18 C12 1_555 1_555
H19 C12 1_555 1_555
O4 C19 1_555 1_555
N6 C3 1_555 1_555
H20 N6 1_555 1_555
C13 N6 1_555 1_555
C14 C13 1_555 1_555
H21 C14 1_555 1_555
C15 C14 1_555 1_555
H22 C15 1_555 1_555
C16 C15 1_555 1_555
H23 C16 1_555 1_555
C17 C16 1_555 1_555
C18 C13 1_555 1_555
H24 C18 1_555 1_555
C19 C17 1_555 1_555
C20 C19 1_555 1_555
H25 C20 1_555 1_555
H26 C20 1_555 1_555
H27 C20 1_555 1_555
O5 C8 1_555 1_555
C21 O5 1_555 1_555
H28 C21 1_555 1_555
H29 C21 1_555 1_555
C22 C21 1_555 1_555
C23 C22 1_555 1_555
H30 C23 1_555 1_555
C24 C23 1_555 1_555
H31 C24 1_555 1_555
C25 C24 1_555 1_555
H32 C25 1_555 1_555
C26 C25 1_555 1_555
H33 C26 1_555 1_555
C27 C22 1_555 1_555
H34 C27 1_555 1_555
C28 O3 1_555 1_555
H35 C28 1_555 1_555
H36 C28 1_555 1_555
C29 C28 1_555 1_555
C30 C29 1_555 1_555
H37 C30 1_555 1_555
C31 C30 1_555 1_555
H38 C31 1_555 1_555
C32 C31 1_555 1_555
H39 C32 1_555 1_555
C33 C32 1_555 1_555
H40 C33 1_555 1_555
C34 C29 1_555 1_555
H41 C34 1_555 1_555
O6 C6 1_555 1_555
C35 O6 1_555 1_555
H42 C35 1_555 1_555
H43 C35 1_555 1_555
C36 C35 1_555 1_555
C37 C36 1_555 1_555
H44 C37 1_555 1_555
C38 C37 1_555 1_555
H45 C38 1_555 1_555
C39 C38 1_555 1_555
H46 C39 1_555 1_555
C40 C39 1_555 1_555
H47 C40 1_555 1_555
C41 C36 1_555 1_555
H48 C41 1_555 1_555
C1 C2 1_555 1_555
C3 C4 1_555 1_555
C4 C5 1_555 1_555
C17 C18 1_555 1_555
C26 C27 1_555 1_555
C33 C34 1_555 1_555
C40 C41 1_555 1_555

#END
