
#######################################################################
#
#                 Cambridge Crystallographic Data Centre
#                                CCDC 
#
#######################################################################
#
# If this CIF has been generated from an entry in the Cambridge 
# Structural Database, then it will include bibliographic, chemical, 
# crystal, experimental, refinement or atomic coordinate data resulting 
# from the CCDC's data processing and validation procedures.
#
#######################################################################

data_TIHXAJ
_chemical_formula_moiety         'C39 H50'
_chemical_name_systematic        
cis-1,4-Di-n-butyl-2-(hexaspiro(2.0.2.0.0.0.2.0.2.0.1.0)pentadec-15''''-ylidene)-trispiro(bis(cyclopropane)-1'',5:1''',6-(bicyclo(2.2.0)hexane)-3,7'-(dispiro(2.0.2.1)heptane))
_symmetry_cell_setting           monoclinic
_symmetry_space_group_name_H-M   'P 21/c'
_symmetry_Int_Tables_number      14
_space_group_name_Hall           '-P 2ybc'
loop_
_symmetry_equiv_pos_site_id
_symmetry_equiv_pos_as_xyz
1 x,y,z
2 x,1/2-y,1/2+z
3 -x,-y,-z
4 -x,1/2+y,1/2-z
_cell_length_a                   7.5471(2)
_cell_length_b                   40.871(1)
_cell_length_c                   10.8826(4)
_cell_angle_alpha                90
_cell_angle_beta                 108.79(1)
_cell_angle_gamma                90
_cell_volume                     3177.92
_exptl_crystal_colour            colorless
_exptl_crystal_description       prism
_chemical_melting_point          '91-92 deg.C'
_cell_formula_units_Z            4
loop_
_atom_site_label
_atom_site_type_symbol
_atom_site_fract_x
_atom_site_fract_y
_atom_site_fract_z
C1 C 0.9186(4) 0.09604(8) 0.2761(3)
C2 C 0.8688(4) 0.12984(8) 0.2206(3)
C3 C 0.8420(4) 0.11742(8) 0.0857(3)
C4 C 0.8496(4) 0.08117(8) 0.1317(3)
C5 C 1.0407(4) 0.06422(8) 0.1607(3)
C6 C 1.1204(4) 0.08602(8) 0.2786(3)
C7 C 1.2806(5) 0.10972(10) 0.2977(4)
C8 C 1.2942(5) 0.08205(10) 0.3924(4)
C9 C 1.0692(6) 0.02785(9) 0.1678(4)
C10 C 1.1396(6) 0.04859(9) 0.0776(4)
C11 C 0.8538(5) 0.08442(9) 0.3872(3)
C12 C 0.9008(6) 0.04896(9) 0.4284(3)
C13 C 0.8225(6) 0.03712(10) 0.5342(3)
C14 C 0.8963(7) 0.05632(12) 0.6601(4)
C15 C 0.6688(5) 0.06200(9) 0.0744(3)
C16 C 0.6460(5) 0.04851(10) -0.0614(3)
C17 C 0.4470(5) 0.03706(10) -0.1350(3)
C18 C 0.4272(7) 0.02490(13) -0.2718(4)
C19 C 1.0255(6) 0.24909(11) 0.2931(4)
C20 C 0.9911(6) 0.23551(11) 0.1568(4)
C21 C 0.8781(5) 0.22419(9) 0.2374(3)
C22 C 0.6799(5) 0.21965(9) 0.2236(3)
C23 C 0.5332(6) 0.23844(11) 0.2575(4)
C24 C 0.4961(6) 0.22468(11) 0.1198(4)
C25 C 0.8172(5) 0.19303(8) 0.2807(3)
C26 C 0.8714(4) 0.17322(8) 0.4020(3)
C27 C 1.0153(5) 0.17249(9) 0.5333(3)
C28 C 1.1886(5) 0.15377(10) 0.5954(4)
C29 C 1.1846(5) 0.19037(11) 0.6120(4)
C30 C 0.8144(5) 0.16906(9) 0.5207(3)
C31 C 0.6752(6) 0.18364(11) 0.5757(4)
C32 C 0.6948(6) 0.14679(10) 0.5664(4)
C33 C 0.8450(4) 0.15752(8) 0.2755(3)
C34 C 1.0668(6) 0.12440(11) -0.0732(4)
C35 C 1.0752(6) 0.15652(10) -0.0029(4)
C36 C 0.9262(5) 0.13282(9) -0.0098(3)
C37 C 0.7216(5) 0.13355(9) -0.0383(3)
C38 C 0.5747(6) 0.15886(11) -0.0695(4)
C39 C 0.5463(5) 0.12715(11) -0.1461(4)
H1 H 1.352(5) 0.1061(8) 0.245(3)
H2 H 1.266(6) 0.1301(11) 0.330(4)
H3 H 1.365(5) 0.0640(9) 0.388(3)
H4 H 1.291(5) 0.0866(8) 0.478(4)
H5 H 1.156(5) 0.0182(9) 0.241(4)
H6 H 0.957(5) 0.0117(9) 0.135(3)
H7 H 1.085(5) 0.0453(8) -0.018(3)
H8 H 1.275(6) 0.0528(9) 0.097(3)
H9 H 0.909(4) 0.0998(7) 0.460(3)
H10 H 0.725(6) 0.0888(9) 0.362(4)
H11 H 1.046(6) 0.0455(10) 0.457(4)
H12 H 0.857(5) 0.0345(9) 0.358(4)
H13 H 0.843(4) 0.0115(8) 0.548(3)
H14 H 0.694(6) 0.0392(9) 0.499(4)
H15 H 1.022(7) 0.0557(10) 0.685(4)
H16 H 0.861(6) 0.0474(11) 0.731(5)
H17 H 0.843(8) 0.0809(14) 0.642(5)
H18 H 0.660(5) 0.0429(8) 0.129(3)
H19 H 0.555(5) 0.0783(8) 0.072(3)
H20 H 0.730(5) 0.0283(9) -0.057(3)
H21 H 0.676(5) 0.0661(9) -0.115(4)
H22 H 0.401(5) 0.0188(9) -0.094(3)
H23 H 0.347(6) 0.0583(11) -0.138(4)
H24 H 0.512(6) 0.0071(10) -0.271(4)
H25 H 0.468(6) 0.0436(11) -0.323(4)
H26 H 0.297(6) 0.0188(9) -0.320(4)
H27 H 0.988(5) 0.2729(9) 0.303(3)
H28 H 1.138(6) 0.2421(9) 0.358(4)
H29 H 1.083(6) 0.2196(10) 0.143(4)
H30 H 0.924(5) 0.2485(9) 0.082(4)
H31 H 0.550(5) 0.2629(9) 0.276(3)
H32 H 0.469(5) 0.2287(8) 0.309(3)
H33 H 0.492(5) 0.2413(9) 0.053(4)
H34 H 0.415(6) 0.2063(10) 0.097(4)
H35 H 1.263(4) 0.1453(7) 0.544(3)
H36 H 1.193(6) 0.1403(11) 0.669(5)
H37 H 1.184(6) 0.1983(9) 0.702(4)
H38 H 1.252(6) 0.2057(10) 0.572(4)
H39 H 0.576(6) 0.1949(9) 0.512(4)
H40 H 0.732(6) 0.1951(10) 0.663(5)
H41 H 0.763(6) 0.1353(10) 0.651(4)
H42 H 0.596(7) 0.1345(11) 0.505(5)
H43 H 0.502(5) 0.1620(8) -0.011(3)
H44 H 0.595(6) 0.1799(11) -0.113(4)
H45 H 0.462(5) 0.1105(9) -0.123(3)
H46 H 0.552(5) 0.1287(9) -0.241(4)
H47 H 1.053(5) 0.1778(8) -0.043(3)
H48 H 1.176(6) 0.1596(9) 0.083(4)
H49 H 1.155(5) 0.1073(8) -0.038(3)
H50 H 1.035(6) 0.1243(10) -0.174(4)
loop_
_geom_bond_atom_site_label_1
_geom_bond_atom_site_label_2
_geom_bond_site_symmetry_1
_geom_bond_site_symmetry_2
C1 C2 1_555 1_555
C2 C3 1_555 1_555
C3 C4 1_555 1_555
C4 C1 1_555 1_555
C5 C4 1_555 1_555
C6 C1 1_555 1_555
C7 C6 1_555 1_555
C8 C6 1_555 1_555
C9 C5 1_555 1_555
C10 C5 1_555 1_555
C11 C1 1_555 1_555
C12 C11 1_555 1_555
C13 C12 1_555 1_555
C14 C13 1_555 1_555
C15 C4 1_555 1_555
C16 C15 1_555 1_555
C17 C16 1_555 1_555
C18 C17 1_555 1_555
C19 C20 1_555 1_555
C20 C21 1_555 1_555
C21 C19 1_555 1_555
C22 C21 1_555 1_555
C23 C22 1_555 1_555
C24 C22 1_555 1_555
C25 C21 1_555 1_555
C26 C25 1_555 1_555
C27 C26 1_555 1_555
C28 C27 1_555 1_555
C29 C27 1_555 1_555
C30 C26 1_555 1_555
C31 C30 1_555 1_555
C32 C30 1_555 1_555
C33 C2 1_555 1_555
C34 C35 1_555 1_555
C35 C36 1_555 1_555
C36 C3 1_555 1_555
C37 C3 1_555 1_555
C38 C37 1_555 1_555
C39 C37 1_555 1_555
H1 C7 1_555 1_555
H2 C7 1_555 1_555
H3 C8 1_555 1_555
H4 C8 1_555 1_555
H5 C9 1_555 1_555
H6 C9 1_555 1_555
H7 C10 1_555 1_555
H8 C10 1_555 1_555
H9 C11 1_555 1_555
H10 C11 1_555 1_555
H11 C12 1_555 1_555
H12 C12 1_555 1_555
H13 C13 1_555 1_555
H14 C13 1_555 1_555
H15 C14 1_555 1_555
H16 C14 1_555 1_555
H17 C14 1_555 1_555
H18 C15 1_555 1_555
H19 C15 1_555 1_555
H20 C16 1_555 1_555
H21 C16 1_555 1_555
H22 C17 1_555 1_555
H23 C17 1_555 1_555
H24 C18 1_555 1_555
H25 C18 1_555 1_555
H26 C18 1_555 1_555
H27 C19 1_555 1_555
H28 C19 1_555 1_555
H29 C20 1_555 1_555
H30 C20 1_555 1_555
H31 C23 1_555 1_555
H32 C23 1_555 1_555
H33 C24 1_555 1_555
H34 C24 1_555 1_555
H35 C28 1_555 1_555
H36 C28 1_555 1_555
H37 C29 1_555 1_555
H38 C29 1_555 1_555
H39 C31 1_555 1_555
H40 C31 1_555 1_555
H41 C32 1_555 1_555
H42 C32 1_555 1_555
H43 C38 1_555 1_555
H44 C38 1_555 1_555
H45 C39 1_555 1_555
H46 C39 1_555 1_555
H47 C35 1_555 1_555
H48 C35 1_555 1_555
H49 C34 1_555 1_555
H50 C34 1_555 1_555
C5 C6 1_555 1_555
C7 C8 1_555 1_555
C9 C10 1_555 1_555
C22 C25 1_555 1_555
C23 C24 1_555 1_555
C25 C33 1_555 1_555
C26 C33 1_555 1_555
C27 C30 1_555 1_555
C28 C29 1_555 1_555
C31 C32 1_555 1_555
C34 C36 1_555 1_555
C36 C37 1_555 1_555
C38 C39 1_555 1_555

#END
