
#######################################################################
#
#                 Cambridge Crystallographic Data Centre
#                                CCDC 
#
#######################################################################
#
# If this CIF has been generated from an entry in the Cambridge 
# Structural Database, then it will include bibliographic, chemical, 
# crystal, experimental, refinement or atomic coordinate data resulting 
# from the CCDC's data processing and validation procedures.
#
#######################################################################

data_TIHXOZ
_chemical_formula_moiety         'C31 H33 N3 O9'
_chemical_name_systematic        
'7-Anilino-8-hydroxy-8-(hydroxymethyl)-9-(methoxymethoxy)-4,9-dimethyl-2-phenyl-3-oxa-1-azaspiro[4.4]non-1-en-6-yl 4-nitrobenzoate'
_symmetry_cell_setting           monoclinic
_symmetry_space_group_name_H-M   'C 2'
_symmetry_Int_Tables_number      5
_space_group_name_Hall           'C 2y'
loop_
_symmetry_equiv_pos_site_id
_symmetry_equiv_pos_as_xyz
1 x,y,z
2 -x,y,-z
3 1/2+x,1/2+y,z
4 1/2-x,1/2+y,-z
_cell_length_a                   29.813(4)
_cell_length_b                   9.5757(16)
_cell_length_c                   11.6715(18)
_cell_angle_alpha                90
_cell_angle_beta                 111.443(8)
_cell_angle_gamma                90
_cell_volume                     3101.35
_exptl_crystal_colour            colorless
_exptl_crystal_description       plate
_cell_formula_units_Z            4
loop_
_atom_site_label
_atom_site_type_symbol
_atom_site_fract_x
_atom_site_fract_y
_atom_site_fract_z
O1 O 0.55355(15) 0.7692(8) 0.4217(4)
O2 O 0.63373(16) 1.1253(7) 0.2631(4)
H1 H 0.6064 1.0984 0.2590
O3 O 0.70645(16) 1.2571(7) 0.4550(5)
H2 H 0.7319 1.3047 0.4771
O4 O 0.69252(13) 0.9204(6) 0.5450(4)
O5 O 0.69947(15) 0.9686(6) 0.7464(4)
N1 N 0.5764(2) 0.8982(8) 0.2911(5)
N2 N 0.72664(17) 0.8718(7) 0.2963(5)
H3 H 0.7430 0.8139 0.3553
C1 C 0.6224(2) 0.8521(10) 0.3892(6)
C2 C 0.6545(2) 0.7879(9) 0.3280(6)
H4 H 0.6797 0.7290 0.3892
C3 C 0.6788(2) 0.9084(10) 0.2859(6)
H5 H 0.6600 0.9220 0.1962
C4 C 0.6705(2) 1.0398(9) 0.3514(6)
C5 C 0.6522(2) 0.9841(9) 0.4495(6)
C6 C 0.6240(2) 1.0854(10) 0.4986(7)
H6 H 0.6437 1.1682 0.5323
H7 H 0.6159 1.0397 0.5636
H8 H 0.5943 1.1133 0.4315
C7 C 0.7133(2) 1.1325(10) 0.3978(6)
H9 H 0.7402 1.0795 0.4577
H10 H 0.7230 1.1579 0.3280
C8 C 0.7169(2) 0.9923(9) 0.6545(7)
H11 H 0.7513 0.9650 0.6846
H12 H 0.7151 1.0936 0.6367
C9 C 0.7138(3) 0.8321(9) 0.8023(7)
H13 H 0.7488 0.8218 0.8279
H14 H 0.6977 0.7592 0.7424
H15 H 0.7045 0.8234 0.8743
C10 C 0.6059(2) 0.7644(10) 0.4790(6)
H16 H 0.6159 0.8140 0.5599
C11 C 0.6219(3) 0.6192(12) 0.5012(8)
H17 H 0.6103 0.5676 0.4233
H18 H 0.6089 0.5765 0.5590
H19 H 0.6572 0.6162 0.5362
C12 C 0.5424(2) 0.8477(10) 0.3192(7)
C13 C 0.4899(3) 0.8500(13) 0.2442(11)
C14 C 0.4561(3) 0.7781(16) 0.2853(10)
H20 H 0.4664 0.7254 0.3594
C15 C 0.4088(4) 0.7890(18) 0.2135(11)
H21 H 0.3858 0.7426 0.2388
C16 C 0.3926(4) 0.8645(19) 0.1053(11)
H22 H 0.3591 0.8684 0.0572
C17 C 0.4261(3) 0.936(3) 0.0664(13)
H23 H 0.4152 0.9910 -0.0064
C18 C 0.4738(4) 0.926(3) 0.1340(14)
H24 H 0.4965 0.9704 0.1064
C19 C 0.7489(2) 0.9222(10) 0.2190(6)
C20 C 0.7262(3) 1.0123(10) 0.1208(7)
H25 H 0.6948 1.0468 0.1081
C21 C 0.7493(3) 1.0519(12) 0.0411(7)
H26 H 0.7324 1.1052 -0.0303
C22 C 0.7954(4) 1.0149(13) 0.0649(9)
H27 H 0.8119 1.0477 0.0141
C23 C 0.8189(3) 0.9275(14) 0.1654(11)
H28 H 0.8511 0.8988 0.1810
C24 C 0.7966(3) 0.8842(11) 0.2396(8)
H29 H 0.8135 0.8262 0.3079
O6 O 0.6246(7) 0.700(3) 0.227(2)
O7 O 0.6648(7) 0.492(4) 0.287(2)
O8 O 0.4730(6) 0.431(2) -0.3220(16)
O9 O 0.5104(6) 0.231(2) -0.2672(17)
N3 N 0.5040(5) 0.348(2) -0.2521(14)
C25 C 0.6338(6) 0.564(3) 0.2134(18)
C26 C 0.5995(6) 0.509(2) 0.0912(17)
C27 C 0.5654(7) 0.586(3) 0.0088(19)
H30 H 0.5624 0.6813 0.0277
C28 C 0.5344(7) 0.535(3) -0.102(2)
H31 H 0.5105 0.5935 -0.1566
C29 C 0.5380(5) 0.409(2) -0.1295(13)
C30 C 0.5710(6) 0.321(2) -0.0540(16)
H32 H 0.5734 0.2263 -0.0756
C31 C 0.6018(6) 0.378(2) 0.0593(16)
H33 H 0.6254 0.3189 0.1151
H34? H 0.6792 0.7256 0.3869
H35? H 0.6797 0.7289 0.3891
H36? H 0.6794 0.7271 0.3879
C32? C 0.4933(6) 0.905(4) 0.254(3)
C33? C 0.4559(7) 0.887(3) 0.304(2)
H37? H 0.4631 0.8600 0.3869
C34? C 0.4101(7) 0.911(4) 0.226(2)
H38? H 0.3841 0.8987 0.2541
C35? C 0.4010(10) 0.954(4) 0.107(2)
H39? H 0.3688 0.9776 0.0566
C36? C 0.4373(12) 0.966(7) 0.057(3)
H40? H 0.4294 0.9868 -0.0277
C37? C 0.4839(11) 0.946(7) 0.132(3)
H41? H 0.5095 0.9592 0.1033
O10? O 0.6357(6) 0.725(2) 0.2039(13)
O11? O 0.6655(7) 0.511(4) 0.286(2)
O12? O 0.4515(7) 0.427(3) -0.2746(18)
O13? O 0.4763(9) 0.221(3) -0.205(2)
N4? N 0.4793(6) 0.344(3) -0.2000(15)
C38? C 0.6363(6) 0.583(2) 0.2076(16)
C39? C 0.5950(6) 0.522(2) 0.1006(16)
C40? C 0.5625(7) 0.599(3) 0.0132(18)
H42? H 0.5652 0.6978 0.0175
C41? C 0.5255(8) 0.539(3) -0.082(2)
H43? H 0.5032 0.5975 -0.1421
C42? C 0.5206(5) 0.407(2) -0.0925(13)
C43? C 0.5520(6) 0.321(3) -0.0095(16)
H44? H 0.5490 0.2220 -0.0165
C44? C 0.5896(6) 0.385(2) 0.0884(16)
H45? H 0.6121 0.3275 0.1483
O14? O 0.6202(10) 0.698(4) 0.236(4)
O15? O 0.6691(9) 0.505(5) 0.288(3)
O16? O 0.4997(8) 0.417(3) -0.337(3)
O17? O 0.5463(9) 0.230(3) -0.289(3)
N5? N 0.5335(8) 0.340(3) -0.2669(19)
C45? C 0.6360(9) 0.571(4) 0.215(3)
C46? C 0.6081(8) 0.515(3) 0.088(2)
C47? C 0.5715(10) 0.578(3) 0.000(3)
H46? H 0.5617 0.6671 0.0188
C48? C 0.5470(10) 0.523(3) -0.114(3)
H47? H 0.5211 0.5729 -0.1729
C49? C 0.5596(7) 0.405(3) -0.1408(18)
C50? C 0.5963(9) 0.331(3) -0.060(2)
H48? H 0.6054 0.2424 -0.0805
C51? C 0.6206(8) 0.391(3) 0.058(2)
H49? H 0.6465 0.3420 0.1163
O18? O 0.6255(7) 0.706(2) 0.2209(17)
O19? O 0.6562(7) 0.505(3) 0.3227(19)
O20? O 0.4458(8) 0.409(4) -0.248(2)
O21? O 0.4676(9) 0.202(3) -0.169(2)
N6? N 0.4720(6) 0.324(3) -0.1686(17)
C52? C 0.6270(6) 0.566(3) 0.2369(17)
C53? C 0.5864(6) 0.501(2) 0.1309(17)
C54? C 0.5560(7) 0.579(3) 0.0404(19)
H50? H 0.5602 0.6777 0.0434
C55? C 0.5190(8) 0.521(3) -0.056(2)
H51? H 0.4981 0.5798 -0.1189
C56? C 0.5127(6) 0.390(3) -0.0626(15)
C57? C 0.5416(7) 0.302(3) 0.0249(17)
H52? H 0.5366 0.2038 0.0200
C58? C 0.5795(7) 0.364(3) 0.1238(17)
H53? H 0.6005 0.3056 0.1866
loop_
_geom_bond_atom_site_label_1
_geom_bond_atom_site_label_2
_geom_bond_site_symmetry_1
_geom_bond_site_symmetry_2
O1 C10 1_555 1_555
O2 H1 1_555 1_555
O3 H2 1_555 1_555
O4 C5 1_555 1_555
O5 C8 1_555 1_555
N1 C1 1_555 1_555
N2 H3 1_555 1_555
C1 C2 1_555 1_555
C2 H4 1_555 1_555
C3 N2 1_555 1_555
H5 C3 1_555 1_555
C4 O2 1_555 1_555
C5 C1 1_555 1_555
C6 C5 1_555 1_555
H6 C6 1_555 1_555
H7 C6 1_555 1_555
H8 C6 1_555 1_555
C7 O3 1_555 1_555
H9 C7 1_555 1_555
H10 C7 1_555 1_555
C8 O4 1_555 1_555
H11 C8 1_555 1_555
H12 C8 1_555 1_555
C9 O5 1_555 1_555
H13 C9 1_555 1_555
H14 C9 1_555 1_555
H15 C9 1_555 1_555
C10 C1 1_555 1_555
H16 C10 1_555 1_555
C11 C10 1_555 1_555
H17 C11 1_555 1_555
H18 C11 1_555 1_555
H19 C11 1_555 1_555
C12 O1 1_555 1_555
C13 C12 1_555 1_555
C14 C13 1_555 1_555
H20 C14 1_555 1_555
C15 C14 1_555 1_555
H21 C15 1_555 1_555
C16 C15 1_555 1_555
H22 C16 1_555 1_555
C17 C16 1_555 1_555
H23 C17 1_555 1_555
C18 C13 1_555 1_555
H24 C18 1_555 1_555
C19 N2 1_555 1_555
C20 C19 1_555 1_555
H25 C20 1_555 1_555
C21 C20 1_555 1_555
H26 C21 1_555 1_555
C22 C21 1_555 1_555
H27 C22 1_555 1_555
C23 C22 1_555 1_555
H28 C23 1_555 1_555
C24 C19 1_555 1_555
H29 C24 1_555 1_555
O6 C2 1_555 1_555
O7 C25 1_555 1_555
O8 N3 1_555 1_555
O9 N3 1_555 1_555
N3 C29 1_555 1_555
C25 O6 1_555 1_555
C26 C25 1_555 1_555
C27 C26 1_555 1_555
H30 C27 1_555 1_555
C28 C27 1_555 1_555
H31 C28 1_555 1_555
C29 C28 1_555 1_555
C30 C29 1_555 1_555
H32 C30 1_555 1_555
C31 C26 1_555 1_555
H33 C31 1_555 1_555
N1 C12 1_555 1_555
C2 C3 1_555 1_555
C3 C4 1_555 1_555
C4 C5 1_555 1_555
C4 C7 1_555 1_555
C17 C18 1_555 1_555
C23 C24 1_555 1_555
C30 C31 1_555 1_555

#END
