
#######################################################################
#
#                 Cambridge Crystallographic Data Centre
#                                CCDC 
#
#######################################################################
#
# If this CIF has been generated from an entry in the Cambridge 
# Structural Database, then it will include bibliographic, chemical, 
# crystal, experimental, refinement or atomic coordinate data resulting 
# from the CCDC's data processing and validation procedures.
#
#######################################################################

data_TIHZUI
_chemical_name_common            '2-methoxybenzaldehyde oxime'
_chemical_formula_moiety         'C8 H9 N1 O2'
_chemical_name_systematic        N-hydroxy-1-(2-methoxyphenyl)methanimine
_symmetry_cell_setting           orthorhombic
_symmetry_space_group_name_H-M   'P n a 21'
_symmetry_Int_Tables_number      33
_space_group_name_Hall           'P 2c -2n'
loop_
_symmetry_equiv_pos_site_id
_symmetry_equiv_pos_as_xyz
1 x,y,z
2 -x,-y,1/2+z
3 1/2+x,1/2-y,z
4 1/2-x,1/2+y,1/2+z
_cell_length_a                   11.1719(2)
_cell_length_b                   16.4260(3)
_cell_length_c                   4.02490(10)
_cell_angle_alpha                90
_cell_angle_beta                 90
_cell_angle_gamma                90
_cell_volume                     738.608
_exptl_crystal_colour            colorless
_exptl_crystal_description       block
_cell_formula_units_Z            4
loop_
_atom_site_label
_atom_site_type_symbol
_atom_site_fract_x
_atom_site_fract_y
_atom_site_fract_z
O1 O 0.45979(12) 0.42019(8) -0.4095(4)
H1 H 0.443792 0.464123 -0.506595
O2 O 0.69333(12) 0.21322(8) 0.0350(4)
N1 N 0.56325(15) 0.43011(9) -0.2166(5)
C1 C 0.72029(18) 0.35490(12) 0.0488(5)
C2 C 0.76289(18) 0.27720(11) 0.1386(6)
C3 C 0.86797(18) 0.26830(12) 0.3172(6)
H2 H 0.895987 0.215571 0.375132
C4 C 0.93229(19) 0.33707(13) 0.4113(6)
H3 H 1.004194 0.331184 0.535045
C5 C 0.89200(18) 0.41434(12) 0.3255(6)
H4 H 0.936169 0.461141 0.390355
C6 C 0.78780(18) 0.42272(12) 0.1462(6)
H5 H 0.761062 0.475674 0.087081
C7 C 0.61087(18) 0.36135(11) -0.1461(6)
H6 H 0.573609 0.312951 -0.223553
C8 C 0.7290(2) 0.13337(11) 0.1388(7)
H7 H 0.668356 0.093725 0.069500
H8 H 0.736939 0.132217 0.381231
H9 H 0.805963 0.119570 0.036670
loop_
_geom_bond_atom_site_label_1
_geom_bond_atom_site_label_2
_geom_bond_site_symmetry_1
_geom_bond_site_symmetry_2
O1 H1 1_555 1_555
O2 C2 1_555 1_555
N1 O1 1_555 1_555
C1 C2 1_555 1_555
C2 C3 1_555 1_555
C3 H2 1_555 1_555
C4 C3 1_555 1_555
H3 C4 1_555 1_555
C5 C4 1_555 1_555
H4 C5 1_555 1_555
C6 C1 1_555 1_555
H5 C6 1_555 1_555
C7 N1 1_555 1_555
H6 C7 1_555 1_555
C8 O2 1_555 1_555
H7 C8 1_555 1_555
H8 C8 1_555 1_555
H9 C8 1_555 1_555
C1 C7 1_555 1_555
C5 C6 1_555 1_555

#END
