
#######################################################################
#
#                 Cambridge Crystallographic Data Centre
#                                CCDC 
#
#######################################################################
#
# If this CIF has been generated from an entry in the Cambridge 
# Structural Database, then it will include bibliographic, chemical, 
# crystal, experimental, refinement or atomic coordinate data resulting 
# from the CCDC's data processing and validation procedures.
#
#######################################################################

data_TIJBEW
_chemical_name_common            '2,4-dimethoxybenzaldehyde oxime'
_chemical_formula_moiety         'C9 H11 N1 O3'
_chemical_name_systematic        1-(2,4-dimethoxyphenyl)-N-hydroxymethanimine
_symmetry_cell_setting           triclinic
_symmetry_space_group_name_H-M   'P -1'
_symmetry_Int_Tables_number      2
_space_group_name_Hall           '-P 1'
loop_
_symmetry_equiv_pos_site_id
_symmetry_equiv_pos_as_xyz
1 x,y,z
2 -x,-y,-z
_cell_length_a                   4.9441(2)
_cell_length_b                   8.2188(4)
_cell_length_c                   12.1308(3)
_cell_angle_alpha                108.849(3)
_cell_angle_beta                 92.288(3)
_cell_angle_gamma                106.273(4)
_cell_volume                     443.166
_exptl_crystal_colour            colorless
_exptl_crystal_description       block
_cell_formula_units_Z            2
loop_
_atom_site_label
_atom_site_type_symbol
_atom_site_fract_x
_atom_site_fract_y
_atom_site_fract_z
O1 O -0.22417(16) 0.06653(12) 0.08642(7)
O2 O 0.29524(16) 0.56560(10) 0.41358(7)
O3 O 1.14895(16) 0.88605(11) 0.31075(7)
N1 N 0.05891(19) 0.17759(13) 0.09919(8)
C1 C 0.3951(2) 0.45758(15) 0.22073(10)
C2 C 0.4791(2) 0.58860(15) 0.33490(9)
C3 C 0.7331(2) 0.72870(15) 0.36234(9)
H1 H 0.789071 0.815115 0.439846
C4 C 0.9063(2) 0.74213(15) 0.27541(10)
C5 C 0.8276(2) 0.61490(15) 0.16177(10)
H2 H 0.945380 0.624026 0.102665
C6 C 0.5741(2) 0.47475(15) 0.13657(10)
H3 H 0.520758 0.387495 0.059294
C7 C 0.1194(2) 0.31641(15) 0.19252(10)
H4 H -0.017316 0.328624 0.244952
C8 C 0.3513(2) 0.70704(15) 0.52560(9)
H5 H 0.196509 0.679099 0.571095
H6 H 0.364539 0.821605 0.514202
H7 H 0.531398 0.717369 0.568289
C9 C 1.3260(2) 0.90933(16) 0.22272(10)
H8 H 1.490351 1.018155 0.257704
H9 H 1.216391 0.922054 0.158580
H10 H 1.392155 0.803696 0.191690
H11 H -0.235(4) -0.031(2) 0.0244(16)
loop_
_geom_bond_atom_site_label_1
_geom_bond_atom_site_label_2
_geom_bond_site_symmetry_1
_geom_bond_site_symmetry_2
O1 N1 1_555 1_555
O2 C2 1_555 1_555
O3 C4 1_555 1_555
N1 C7 1_555 1_555
C1 C2 1_555 1_555
C2 C3 1_555 1_555
C3 H1 1_555 1_555
C4 C3 1_555 1_555
C5 C4 1_555 1_555
H2 C5 1_555 1_555
C6 C1 1_555 1_555
H3 C6 1_555 1_555
C7 C1 1_555 1_555
H4 C7 1_555 1_555
C8 O2 1_555 1_555
H5 C8 1_555 1_555
H6 C8 1_555 1_555
H7 C8 1_555 1_555
C9 O3 1_555 1_555
H8 C9 1_555 1_555
H9 C9 1_555 1_555
H10 C9 1_555 1_555
H11 O1 1_555 1_555
C5 C6 1_555 1_555

#END
