
#######################################################################
#
#                 Cambridge Crystallographic Data Centre
#                                CCDC 
#
#######################################################################
#
# If this CIF has been generated from an entry in the Cambridge 
# Structural Database, then it will include bibliographic, chemical, 
# crystal, experimental, refinement or atomic coordinate data resulting 
# from the CCDC's data processing and validation procedures.
#
#######################################################################

data_TIJCOG
_chemical_formula_moiety         'C10 H9 Br1 O2'
_chemical_name_systematic        4-Bromo-5-phenyldihydrofuran-2(3H)-one
_symmetry_cell_setting           orthorhombic
_symmetry_space_group_name_H-M   'P b c a'
_symmetry_Int_Tables_number      61
_space_group_name_Hall           '-P 2ac 2ab'
loop_
_symmetry_equiv_pos_site_id
_symmetry_equiv_pos_as_xyz
1 x,y,z
2 1/2+x,1/2-y,-z
3 -x,1/2+y,1/2-z
4 1/2-x,-y,1/2+z
5 -x,-y,-z
6 1/2-x,1/2+y,z
7 x,1/2-y,1/2+z
8 1/2+x,y,1/2-z
_cell_length_a                   9.0384(3)
_cell_length_b                   7.8830(3)
_cell_length_c                   27.4231(11)
_cell_angle_alpha                90
_cell_angle_beta                 90
_cell_angle_gamma                90
_cell_volume                     1953.89
_cell_formula_units_Z            8
loop_
_atom_site_label
_atom_site_type_symbol
_atom_site_fract_x
_atom_site_fract_y
_atom_site_fract_z
Br1 Br 0.53603(5) 0.48310(4) 0.390429(15)
O1 O 0.3338(2) 0.0602(3) 0.52178(9)
O2 O 0.3310(2) 0.0598(2) 0.44096(8)
C1 C 0.3705(3) 0.1260(4) 0.48431(13)
C2 C 0.3774(3) 0.1720(3) 0.40118(10)
H1 H 0.2970 0.2514 0.3939
C3 C 0.4102(3) 0.0701(3) 0.35669(12)
C4 C 0.5243(4) -0.0473(4) 0.35579(15)
H2 H 0.5805 -0.0666 0.3836
C5 C 0.5543(4) -0.1355(5) 0.31351(16)
H3 H 0.6311 -0.2140 0.3131
C6 C 0.4728(5) -0.1092(5) 0.27241(15)
H4 H 0.4948 -0.1684 0.2440
C7 C 0.5050(3) 0.2690(3) 0.42380(11)
H5 H 0.5953 0.2005 0.4216
C8 C 0.4599(3) 0.2847(3) 0.47656(12)
H6 H 0.5455 0.2876 0.4979
H7 H 0.4006 0.3855 0.4820
C9 C 0.3590(5) 0.0042(4) 0.27310(14)
H8 H 0.3029 0.0218 0.2451
C10 C 0.3269(4) 0.0932(4) 0.31531(12)
H9 H 0.2482 0.1692 0.3157
loop_
_geom_bond_atom_site_label_1
_geom_bond_atom_site_label_2
_geom_bond_site_symmetry_1
_geom_bond_site_symmetry_2
Br1 C7 1_555 1_555
O1 C1 1_555 1_555
O2 C1 1_555 1_555
C1 C8 1_555 1_555
C2 O2 1_555 1_555
H1 C2 1_555 1_555
C3 C2 1_555 1_555
C4 C3 1_555 1_555
H2 C4 1_555 1_555
C5 C4 1_555 1_555
H3 C5 1_555 1_555
C6 C5 1_555 1_555
H4 C6 1_555 1_555
C7 C2 1_555 1_555
H5 C7 1_555 1_555
C8 C7 1_555 1_555
H6 C8 1_555 1_555
H7 C8 1_555 1_555
C9 C6 1_555 1_555
H8 C9 1_555 1_555
C10 C3 1_555 1_555
H9 C10 1_555 1_555
C9 C10 1_555 1_555

#END
