
#######################################################################
#
#                 Cambridge Crystallographic Data Centre
#                                CCDC 
#
#######################################################################
#
# If this CIF has been generated from an entry in the Cambridge 
# Structural Database, then it will include bibliographic, chemical, 
# crystal, experimental, refinement or atomic coordinate data resulting 
# from the CCDC's data processing and validation procedures.
#
#######################################################################

data_TIJCUM
_chemical_formula_moiety         'C15 H11 F2 N1 O1 Se1'
_chemical_name_systematic        
5,6-Difluoro-2-(1-phenylethyl)-1,2-benzoselenazol-3(2H)-one
_symmetry_cell_setting           orthorhombic
_symmetry_space_group_name_H-M   'P 21 21 21'
_symmetry_Int_Tables_number      19
_space_group_name_Hall           'P 2ac 2ab'
loop_
_symmetry_equiv_pos_site_id
_symmetry_equiv_pos_as_xyz
1 x,y,z
2 1/2+x,1/2-y,-z
3 -x,1/2+y,1/2-z
4 1/2-x,-y,1/2+z
_cell_length_a                   10.4087(4)
_cell_length_b                   11.7630(3)
_cell_length_c                   22.0902(7)
_cell_angle_alpha                90
_cell_angle_beta                 90
_cell_angle_gamma                90
_cell_volume                     2704.67
_cell_formula_units_Z            8
loop_
_atom_site_label
_atom_site_type_symbol
_atom_site_fract_x
_atom_site_fract_y
_atom_site_fract_z
Se1 Se 0.25518(3) 0.88986(2) 0.928132(11)
O1 O 0.13463(19) 0.57750(14) 0.89475(8)
F1 F 0.4952(2) 0.61979(17) 0.73066(8)
N1 N 0.1624(2) 0.75409(16) 0.93649(9)
C1 C 0.1876(3) 0.6715(2) 0.89510(12)
C2 C 0.2884(3) 0.7088(2) 0.85303(11)
C3 C 0.3405(3) 0.6408(2) 0.80758(13)
H1 H 0.3083 0.5684 0.7999
C4 C 0.4395(4) 0.6835(3) 0.77488(13)
C5 C 0.4875(3) 0.7914(3) 0.78471(13)
C6 C 0.4373(3) 0.8604(2) 0.82855(11)
H2 H 0.4690 0.9333 0.8351
C7 C 0.3373(3) 0.8168(2) 0.86276(11)
F2 F 0.58616(19) 0.82717(16) 0.75071(8)
C8 C 0.0785(3) 0.7340(2) 0.98921(12)
H3 H 0.0136 0.6784 0.9768
C9 C 0.0075(3) 0.8420(2) 1.00633(14)
H4 H 0.0682 0.8987 1.0190
H5 H -0.0510 0.8263 1.0389
H6 H -0.0396 0.8695 0.9720
C10 C 0.1531(3) 0.6817(2) 1.04061(13)
C11 C 0.1494(3) 0.5655(3) 1.05037(14)
H7 H 0.1000 0.5202 1.0250
C12 C 0.2170(4) 0.5158(3) 1.09655(16)
H8 H 0.2128 0.4376 1.1024
C13 C 0.2913(4) 0.5824(4) 1.13435(16)
H9 H 0.3381 0.5492 1.1656
C14 C 0.2955(4) 0.6982(3) 1.12555(16)
H10 H 0.3446 0.7437 1.1510
C15 C 0.2271(4) 0.7462(3) 1.07912(13)
H11 H 0.2309 0.8245 1.0735
Se2 Se 0.28882(3) 0.40360(2) 0.916188(12)
O2 O 0.39481(18) 0.08168(14) 0.90111(8)
F3 F 0.01946(18) 0.09897(18) 0.74323(8)
N2 N 0.3845(2) 0.26999(16) 0.92738(10)
C16 C 0.5008(3) 0.2726(2) 0.96439(13)
H12 H 0.5294 0.1940 0.9702
C17 C 0.4694(3) 0.3225(3) 1.02723(12)
H13 H 0.4491 0.4017 1.0232
H14 H 0.5424 0.3138 1.0534
H15 H 0.3972 0.2830 1.0442
C18 C 0.6073(3) 0.3362(2) 0.93203(14)
C19 C 0.7082(4) 0.3840(3) 0.96253(16)
H16 H 0.7112 0.3773 1.0045
C20 C 0.8042(4) 0.4411(3) 0.9338(2)
H17 H 0.8715 0.4716 0.9562
C21 C 0.6077(4) 0.3486(4) 0.87060(17)
H18 H 0.5415 0.3167 0.8480
C22 C 0.3444(3) 0.1767(2) 0.89622(11)
C23 C 0.2378(3) 0.20611(18) 0.85631(10)
C24 C 0.1975(3) 0.3185(2) 0.85794(11)
C25 C 0.1007(3) 0.3584(2) 0.82107(12)
H19 H 0.0751 0.4341 0.8221
C26 C 0.0444(3) 0.2821(3) 0.78315(13)
C27 C 0.0815(3) 0.1686(3) 0.78160(13)
C28 C 0.1779(3) 0.1301(2) 0.81725(12)
H20 H 0.2035 0.0544 0.8156
F4 F -0.05051(19) 0.31522(17) 0.74521(9)
C29 C 0.7034(5) 0.4072(5) 0.84157(19)
H21 H 0.7005 0.4150 0.7997
C30 C 0.8027(4) 0.4540(3) 0.8729(2)
H22 H 0.8676 0.4937 0.8530
loop_
_geom_bond_atom_site_label_1
_geom_bond_atom_site_label_2
_geom_bond_site_symmetry_1
_geom_bond_site_symmetry_2
Se1 N1 1_555 1_555
O1 C1 1_555 1_555
F1 C4 1_555 1_555
N1 C1 1_555 1_555
C1 C2 1_555 1_555
C2 C3 1_555 1_555
C3 H1 1_555 1_555
C4 C3 1_555 1_555
C5 C4 1_555 1_555
C6 C5 1_555 1_555
H2 C6 1_555 1_555
C7 Se1 1_555 1_555
F2 C5 1_555 1_555
C8 N1 1_555 1_555
H3 C8 1_555 1_555
C9 C8 1_555 1_555
H4 C9 1_555 1_555
H5 C9 1_555 1_555
H6 C9 1_555 1_555
C10 C8 1_555 1_555
C11 C10 1_555 1_555
H7 C11 1_555 1_555
C12 C11 1_555 1_555
H8 C12 1_555 1_555
C13 C12 1_555 1_555
H9 C13 1_555 1_555
C14 C13 1_555 1_555
H10 C14 1_555 1_555
C15 C10 1_555 1_555
H11 C15 1_555 1_555
Se2 N2 1_555 1_555
O2 C22 1_555 1_555
F3 C27 1_555 1_555
N2 C16 1_555 1_555
C16 H12 1_555 1_555
C17 C16 1_555 1_555
H13 C17 1_555 1_555
H14 C17 1_555 1_555
H15 C17 1_555 1_555
C18 C16 1_555 1_555
C19 C18 1_555 1_555
H16 C19 1_555 1_555
C20 C19 1_555 1_555
H17 C20 1_555 1_555
C21 C18 1_555 1_555
H18 C21 1_555 1_555
C22 N2 1_555 1_555
C23 C22 1_555 1_555
C24 Se2 1_555 1_555
C25 C24 1_555 1_555
H19 C25 1_555 1_555
C26 C25 1_555 1_555
C27 C26 1_555 1_555
C28 C23 1_555 1_555
H20 C28 1_555 1_555
F4 C26 1_555 1_555
C29 C21 1_555 1_555
H21 C29 1_555 1_555
C30 C20 1_555 1_555
H22 C30 1_555 1_555
C2 C7 1_555 1_555
C6 C7 1_555 1_555
C14 C15 1_555 1_555
C23 C24 1_555 1_555
C27 C28 1_555 1_555
C29 C30 1_555 1_555

#END
