
#######################################################################
#
#                 Cambridge Crystallographic Data Centre
#                                CCDC 
#
#######################################################################
#
# If this CIF has been generated from an entry in the Cambridge 
# Structural Database, then it will include bibliographic, chemical, 
# crystal, experimental, refinement or atomic coordinate data resulting 
# from the CCDC's data processing and validation procedures.
#
#######################################################################

data_TIJDEX
_chemical_formula_moiety         'C19 H16 N2 O2'
_chemical_name_systematic        'Ethyl 3,6-diphenylpyridazine-4-carboxylate'
_symmetry_cell_setting           triclinic
_symmetry_space_group_name_H-M   'P -1'
_symmetry_Int_Tables_number      2
_space_group_name_Hall           '-P 1'
loop_
_symmetry_equiv_pos_site_id
_symmetry_equiv_pos_as_xyz
1 x,y,z
2 -x,-y,-z
_cell_length_a                   9.1808(18)
_cell_length_b                   9.5375(19)
_cell_length_c                   9.6144(19)
_cell_angle_alpha                92.649(3)
_cell_angle_beta                 99.211(3)
_cell_angle_gamma                105.921(3)
_cell_volume                     795.513
_exptl_crystal_description       block
_cell_formula_units_Z            2
loop_
_atom_site_label
_atom_site_type_symbol
_atom_site_fract_x
_atom_site_fract_y
_atom_site_fract_z
C1 C 0.66289(19) 0.56622(19) 0.67615(18)
C2 C 0.6587(2) 0.6998(2) 0.6273(2)
H1 H 0.6774 0.7185 0.5368
C3 C 0.6271(2) 0.8056(2) 0.7110(3)
H2 H 0.6255 0.8949 0.6768
C4 C 0.5981(3) 0.7790(3) 0.8443(3)
H3 H 0.5760 0.8497 0.9006
C5 C 0.6019(4) 0.6476(3) 0.8941(3)
H4 H 0.5828 0.6298 0.9847
C6 C 0.6337(3) 0.5409(2) 0.8116(2)
H5 H 0.6356 0.4521 0.8468
C7 C 0.69799(18) 0.45198(18) 0.58784(17)
C8 C 0.76613(19) 0.48179(18) 0.46869(18)
H6 H 0.7929 0.5764 0.4414
C9 C 0.79296(18) 0.36944(18) 0.39252(17)
C10 C 0.75649(19) 0.22980(18) 0.44304(18)
C11 C 0.7884(2) 0.09975(18) 0.37850(18)
C12 C 0.6738(2) -0.03153(19) 0.3448(2)
H7 H 0.5759 -0.0390 0.3637
C13 C 0.7040(3) -0.1516(2) 0.2831(2)
H8 H 0.6255 -0.2387 0.2589
C14 C 0.8481(3) -0.1438(2) 0.2573(3)
H9 H 0.8681 -0.2252 0.2163
C15 C 0.9635(3) -0.0136(3) 0.2929(3)
H10 H 1.0622 -0.0078 0.2771
C16 C 0.9341(2) 0.1075(2) 0.3512(2)
H11 H 1.0123 0.1952 0.3727
C17 C 0.8585(2) 0.40390(18) 0.26023(19)
C18 C 0.8701(3) 0.3103(3) 0.0320(2)
H12 H 0.8543 0.3943 -0.0147
H13 H 0.9799 0.3232 0.0567
C19 C 0.7965(5) 0.1771(3) -0.0602(3)
H14 H 0.8251 0.0968 -0.0186
H15 H 0.8287 0.1878 -0.1503
H16 H 0.6867 0.1583 -0.0731
N1 N 0.65998(19) 0.31625(16) 0.62806(16)
N2 N 0.69091(19) 0.20696(16) 0.55794(16)
O1 O 0.9507(2) 0.51751(15) 0.25029(17)
O2 O 0.80028(17) 0.29631(15) 0.15905(14)
loop_
_geom_bond_atom_site_label_1
_geom_bond_atom_site_label_2
_geom_bond_site_symmetry_1
_geom_bond_site_symmetry_2
C1 C2 1_555 1_555
C2 H1 1_555 1_555
C3 C2 1_555 1_555
H2 C3 1_555 1_555
C4 C3 1_555 1_555
H3 C4 1_555 1_555
C5 C4 1_555 1_555
H4 C5 1_555 1_555
C6 C1 1_555 1_555
H5 C6 1_555 1_555
C7 C1 1_555 1_555
C8 C7 1_555 1_555
H6 C8 1_555 1_555
C9 C8 1_555 1_555
C10 C9 1_555 1_555
C11 C10 1_555 1_555
C12 C11 1_555 1_555
H7 C12 1_555 1_555
C13 C12 1_555 1_555
H8 C13 1_555 1_555
C14 C13 1_555 1_555
H9 C14 1_555 1_555
C15 C14 1_555 1_555
H10 C15 1_555 1_555
C16 C11 1_555 1_555
H11 C16 1_555 1_555
C17 C9 1_555 1_555
C18 H12 1_555 1_555
H13 C18 1_555 1_555
C19 C18 1_555 1_555
H14 C19 1_555 1_555
H15 C19 1_555 1_555
H16 C19 1_555 1_555
N1 C7 1_555 1_555
N2 C10 1_555 1_555
O1 C17 1_555 1_555
O2 C17 1_555 1_555
C5 C6 1_555 1_555
C15 C16 1_555 1_555
C18 O2 1_555 1_555
N1 N2 1_555 1_555

#END
