
#######################################################################
#
#                 Cambridge Crystallographic Data Centre
#                                CCDC 
#
#######################################################################
#
# If this CIF has been generated from an entry in the Cambridge 
# Structural Database, then it will include bibliographic, chemical, 
# crystal, experimental, refinement or atomic coordinate data resulting 
# from the CCDC's data processing and validation procedures.
#
#######################################################################

data_TIJKIG
_chemical_name_common            'bis(2,2-bipyridyl) hexahydroxybenzene'
_chemical_formula_moiety         'C6 H6 O6,2(C10 H8 N2)'
_chemical_name_systematic        "Hexahydroxybenzene bis(2,2'-bipyridine)"
_symmetry_cell_setting           triclinic
_symmetry_space_group_name_H-M   'P -1'
_symmetry_Int_Tables_number      2
_space_group_name_Hall           '-P 1'
loop_
_symmetry_equiv_pos_site_id
_symmetry_equiv_pos_as_xyz
1 x,y,z
2 -x,-y,-z
_cell_length_a                   7.2913(5)
_cell_length_b                   7.9434(5)
_cell_length_c                   9.9197(7)
_cell_angle_alpha                76.584(4)
_cell_angle_beta                 80.959(4)
_cell_angle_gamma                86.321(4)
_cell_volume                     551.675
_exptl_crystal_colour            'pale yellow'
_exptl_crystal_description       plate
_cell_formula_units_Z            1
loop_
_atom_site_label
_atom_site_type_symbol
_atom_site_fract_x
_atom_site_fract_y
_atom_site_fract_z
C1 C 0.16996(15) 0.52804(13) -0.08938(11)
O1 O 0.33398(11) 0.55394(11) -0.18105(8)
H1 H 0.427(3) 0.537(3) -0.136(2)
C2 C 0.16557(15) 0.44537(13) 0.05206(11)
O2 O 0.33287(11) 0.39335(10) 0.09993(8)
H2 H 0.315(3) 0.295(3) 0.163(2)
C3 C 0.00342(15) 0.58201(13) -0.14194(10)
O3 O -0.00197(12) 0.65226(10) -0.28181(8)
H3 H 0.077(3) 0.739(3) -0.315(2)
C3A C -0.00342(15) 0.41799(13) 0.14194(10)
C1A C -0.16996(15) 0.47196(13) 0.08938(11)
O1A O -0.33398(11) 0.44606(11) 0.18105(8)
H1A H -0.427(3) 0.463(3) 0.136(2)
C2A C -0.16557(15) 0.55463(13) -0.05206(11)
O2A O -0.33287(11) 0.60665(10) -0.09993(8)
H2A H -0.315(3) 0.705(3) -0.163(2)
O3A O 0.00197(12) 0.34774(10) 0.28181(8)
H3A H -0.077(3) 0.261(3) 0.315(2)
C4 C 0.26616(15) -0.04066(14) 0.37534(11)
N1 N 0.30727(13) 0.06018(12) 0.24539(10)
C5 C 0.31299(17) -0.01257(15) 0.13510(12)
H4 H 0.342(2) 0.067(2) 0.0444(17)
C6 C 0.27951(18) -0.18639(15) 0.14682(13)
H5 H 0.287(2) -0.231(2) 0.0611(17)
C7 C 0.23513(18) -0.28999(15) 0.28074(12)
H6 H 0.204(2) -0.413(2) 0.2928(18)
C8 C 0.22906(17) -0.21697(14) 0.39622(12)
H7 H 0.198(2) -0.289(2) 0.4884(18)
C9 C 0.26165(15) 0.04352(13) 0.49592(11)
N2 N 0.19573(14) -0.05152(12) 0.62402(10)
C10 C 0.18863(18) 0.01969(15) 0.73523(12)
H8 H 0.141(2) -0.054(2) 0.8248(18)
C11 C 0.24377(18) 0.18730(16) 0.72545(12)
H9 H 0.232(2) 0.231(2) 0.8112(18)
C12 C 0.31240(17) 0.28460(15) 0.59350(13)
H10 H 0.356(2) 0.402(2) 0.5849(17)
C13 C 0.32362(17) 0.21210(14) 0.47730(12)
H11 H 0.376(2) 0.275(2) 0.3857(17)
loop_
_geom_bond_atom_site_label_1
_geom_bond_atom_site_label_2
_geom_bond_site_symmetry_1
_geom_bond_site_symmetry_2
C1 O1 1_555 1_555
O1 H1 1_555 1_555
C2 C1 1_555 1_555
O2 C2 1_555 1_555
H2 O2 1_555 1_555
C3 C1 1_555 1_555
O3 C3 1_555 1_555
H3 O3 1_555 1_555
C4 N1 1_555 1_555
N1 C5 1_555 1_555
C5 H4 1_555 1_555
C6 C5 1_555 1_555
H5 C6 1_555 1_555
C7 C6 1_555 1_555
H6 C7 1_555 1_555
C8 C4 1_555 1_555
H7 C8 1_555 1_555
C9 C4 1_555 1_555
N2 C9 1_555 1_555
C10 N2 1_555 1_555
H8 C10 1_555 1_555
C11 C10 1_555 1_555
H9 C11 1_555 1_555
C12 C11 1_555 1_555
H10 C12 1_555 1_555
C13 C9 1_555 1_555
H11 C13 1_555 1_555
C3A C2 1_555 1_555
C1A C3A 1_555 1_555
O1A C1A 1_555 1_555
H1A O1A 1_555 1_555
C2A C3 1_555 1_555
O2A C2A 1_555 1_555
H2A O2A 1_555 1_555
O3A C3A 1_555 1_555
H3A O3A 1_555 1_555
C7 C8 1_555 1_555
C12 C13 1_555 1_555
C1A C2A 1_555 1_555

#END
