
#######################################################################
#
#                 Cambridge Crystallographic Data Centre
#                                CCDC 
#
#######################################################################
#
# If this CIF has been generated from an entry in the Cambridge 
# Structural Database, then it will include bibliographic, chemical, 
# crystal, experimental, refinement or atomic coordinate data resulting 
# from the CCDC's data processing and validation procedures.
#
#######################################################################

data_TIJKUS
_chemical_name_common            'Cinnamoyl shikonin'
_chemical_formula_moiety         'C25 H22 O6'
_chemical_name_systematic        
'1-(5,8-dihydro-1,4-dihydroxy-5,8-dioxo-2-naphthyl)-4-methylpent-3-en-1-yl cinnamate'
_chemical_properties_biological  
'growth inhibitory effect on prostate cancer cells'
_symmetry_cell_setting           monoclinic
_symmetry_space_group_name_H-M   'P 21'
_symmetry_Int_Tables_number      4
_space_group_name_Hall           'P 2yb'
loop_
_symmetry_equiv_pos_site_id
_symmetry_equiv_pos_as_xyz
1 x,y,z
2 -x,1/2+y,-z
_cell_length_a                   6.16770(10)
_cell_length_b                   15.7416(3)
_cell_length_c                   10.5141(2)
_cell_angle_alpha                90
_cell_angle_beta                 90.7630(10)
_cell_angle_gamma                90
_cell_volume                     1020.72
_exptl_crystal_colour            red
_exptl_crystal_description       block
_chemical_melting_point          93-94deg.C
_cell_formula_units_Z            2
_exptl_crystal_recrystallization_method hexane/dichloromethane
loop_
_atom_site_label
_atom_site_type_symbol
_atom_site_fract_x
_atom_site_fract_y
_atom_site_fract_z
C1 C 0.6313(4) 0.08045(14) 0.4190(2)
O1 O 0.4586(3) 0.04035(11) 0.40111(15)
C2 C 0.7810(4) 0.09387(14) 0.3125(2)
H1 H 0.7436 0.0729 0.2324
C3 C 0.9693(4) 0.13538(14) 0.3278(2)
H2 H 1.0606 0.1411 0.2586
C4 C 1.0356(3) 0.17213(14) 0.4512(2)
O2 O 1.2094(3) 0.21283(10) 0.46141(15)
C5 C 0.9503(3) 0.19095(13) 0.67999(19)
O3 O 1.1341(3) 0.23606(10) 0.70031(15)
H3 H 1.201(5) 0.240(2) 0.629(3)
C6 C 0.8138(3) 0.17673(14) 0.78492(19)
H4 H 0.8546 0.1974 0.8645
C7 C 0.6217(3) 0.13288(13) 0.7716(2)
C8 C 0.5603(3) 0.10094(13) 0.6490(2)
O4 O 0.3717(3) 0.05787(10) 0.63994(16)
H5 H 0.366(5) 0.038(2) 0.562(3)
C9 C 0.6946(3) 0.11375(13) 0.5441(2)
C10 C 0.8928(4) 0.15915(13) 0.5599(2)
C11 C 0.4692(3) 0.11656(13) 0.88009(19)
H6 H 0.3215 0.1316 0.8532
O5 O 0.5373(2) 0.17241(10) 0.98345(14)
C12 C 0.4713(4) 0.02440(14) 0.9277(2)
H7 H 0.3679 0.0191 0.9960
H8 H 0.4230 -0.0124 0.8590
C13 C 0.6898(4) -0.00625(15) 0.9753(2)
H9 H 0.8110 0.0170 0.9367
C14 C 0.7272(4) -0.06321(14) 1.0671(2)
C15 C 0.9552(4) -0.08868(17) 1.1043(2)
H10 H 0.9738 -0.1485 1.0902
H11 H 0.9802 -0.0761 1.1926
H12 H 1.0566 -0.0576 1.0537
C16 C 0.5514(4) -0.10676(16) 1.1415(2)
H13 H 0.5406 -0.0808 1.2238
H14 H 0.5865 -0.1658 1.1514
H15 H 0.4155 -0.1013 1.0967
C17 C 0.3800(3) 0.20142(15) 1.06159(19)
O6 O 0.1894(3) 0.18486(13) 1.04712(15)
C18 C 0.4685(4) 0.25339(15) 1.1664(2)
H16 H 0.3771 0.2668 1.2331
C19 C 0.6715(4) 0.28248(14) 1.1718(2)
H17 H 0.7571 0.2718 1.1014
C20 C 0.7746(4) 0.32971(14) 1.2774(2)
C21 C 0.6812(4) 0.33297(14) 1.3995(2)
H18 H 0.5473 0.3078 1.4137
C22 C 0.7910(4) 0.37412(15) 1.4982(2)
H19 H 0.7304 0.3759 1.5786
C23 C 0.9904(4) 0.41266(15) 1.4776(2)
H20 H 1.0625 0.4398 1.5444
C24 C 1.0823(4) 0.41081(15) 1.3576(2)
H21 H 1.2146 0.4373 1.3437
C25 C 0.9745(4) 0.36890(15) 1.2580(2)
H22 H 1.0367 0.3671 1.1780
loop_
_geom_bond_atom_site_label_1
_geom_bond_atom_site_label_2
_geom_bond_site_symmetry_1
_geom_bond_site_symmetry_2
C1 O1 1_555 1_555
C2 C1 1_555 1_555
H1 C2 1_555 1_555
C3 C2 1_555 1_555
H2 C3 1_555 1_555
C4 C3 1_555 1_555
O2 C4 1_555 1_555
C5 O3 1_555 1_555
O3 H3 1_555 1_555
C6 C5 1_555 1_555
H4 C6 1_555 1_555
C7 C6 1_555 1_555
C8 C7 1_555 1_555
O4 C8 1_555 1_555
H5 O4 1_555 1_555
C9 C1 1_555 1_555
C10 C4 1_555 1_555
C11 C7 1_555 1_555
H6 C11 1_555 1_555
O5 C11 1_555 1_555
C12 C11 1_555 1_555
H7 C12 1_555 1_555
H8 C12 1_555 1_555
C13 C12 1_555 1_555
H9 C13 1_555 1_555
C14 C13 1_555 1_555
C15 C14 1_555 1_555
H10 C15 1_555 1_555
H11 C15 1_555 1_555
H12 C15 1_555 1_555
C16 C14 1_555 1_555
H13 C16 1_555 1_555
H14 C16 1_555 1_555
H15 C16 1_555 1_555
C17 O5 1_555 1_555
O6 C17 1_555 1_555
C18 C17 1_555 1_555
H16 C18 1_555 1_555
C19 C18 1_555 1_555
H17 C19 1_555 1_555
C20 C19 1_555 1_555
C21 C20 1_555 1_555
H18 C21 1_555 1_555
C22 C21 1_555 1_555
H19 C22 1_555 1_555
C23 C22 1_555 1_555
H20 C23 1_555 1_555
C24 C23 1_555 1_555
H21 C24 1_555 1_555
C25 C20 1_555 1_555
H22 C25 1_555 1_555
C5 C10 1_555 1_555
C8 C9 1_555 1_555
C9 C10 1_555 1_555
C24 C25 1_555 1_555

#END
