
#######################################################################
#
#                 Cambridge Crystallographic Data Centre
#                                CCDC 
#
#######################################################################
#
# If this CIF has been generated from an entry in the Cambridge 
# Structural Database, then it will include bibliographic, chemical, 
# crystal, experimental, refinement or atomic coordinate data resulting 
# from the CCDC's data processing and validation procedures.
#
#######################################################################

data_TIJMAA
_chemical_formula_moiety         'C7 H7 I1 N2 O2'
_chemical_name_systematic        4-Iodo-2-methyl-5-nitroaniline
_symmetry_cell_setting           monoclinic
_symmetry_space_group_name_H-M   'P 21/n'
_symmetry_Int_Tables_number      14
_space_group_name_Hall           '-P 2yn'
loop_
_symmetry_equiv_pos_site_id
_symmetry_equiv_pos_as_xyz
1 x,y,z
2 1/2+x,1/2-y,1/2+z
3 -x,-y,-z
4 1/2-x,1/2+y,1/2-z
_cell_length_a                   13.5264(7)
_cell_length_b                   4.2773(2)
_cell_length_c                   16.3725(8)
_cell_angle_alpha                90
_cell_angle_beta                 109.8350(10)
_cell_angle_gamma                90
_cell_volume                     891.058
_exptl_crystal_colour            yellow
_exptl_crystal_description       needle
_chemical_melting_point          378K
_cell_formula_units_Z            4
loop_
_atom_site_label
_atom_site_type_symbol
_atom_site_fract_x
_atom_site_fract_y
_atom_site_fract_z
C1 C 0.2051(2) 0.3105(8) -0.13103(19)
C2 C 0.1255(2) 0.4752(8) -0.1124(2)
C3 C 0.1456(2) 0.5994(8) -0.0304(2)
C4 C 0.2426(2) 0.5756(7) 0.03505(19)
C5 C 0.3211(2) 0.4137(8) 0.01510(18)
C6 C 0.3035(3) 0.2823(8) -0.0657(2)
N1 N 0.1888(3) 0.1926(8) -0.2136(2)
C7 C 0.0187(3) 0.5155(12) -0.1811(3)
I1 I 0.253476(19) 0.78094(6) 0.153999(14)
N2 N 0.4275(2) 0.3717(9) 0.07844(18)
O1 O 0.4656(6) 0.570(3) 0.1318(5)
O2 O 0.4692(5) 0.1125(19) 0.0764(4)
H1 H 0.0917 0.7038 -0.0186
H2 H 0.3572 0.1743 -0.0768
H3 H 0.2393 0.1013 -0.2249
H4 H 0.1282 0.2109 -0.2534
H5 H -0.0155 0.3160 -0.1945
H6 H 0.0267 0.6024 -0.2326
H7 H -0.0231 0.6539 -0.1600
O3? O 0.4447(6) 0.437(3) 0.1538(5)
O4? O 0.4984(5) 0.299(2) 0.0523(6)
loop_
_geom_bond_atom_site_label_1
_geom_bond_atom_site_label_2
_geom_bond_site_symmetry_1
_geom_bond_site_symmetry_2
C1 C2 1_555 1_555
C2 C3 1_555 1_555
C3 C4 1_555 1_555
C4 C5 1_555 1_555
C5 C6 1_555 1_555
C6 C1 1_555 1_555
N1 C1 1_555 1_555
C7 C2 1_555 1_555
I1 C4 1_555 1_555
N2 C5 1_555 1_555
O1 N2 1_555 1_555
O2 N2 1_555 1_555
H1 C3 1_555 1_555
H2 C6 1_555 1_555
H3 N1 1_555 1_555
H4 N1 1_555 1_555
H5 C7 1_555 1_555
H6 C7 1_555 1_555
H7 C7 1_555 1_555

#END
