
#######################################################################
#
#                 Cambridge Crystallographic Data Centre
#                                CCDC 
#
#######################################################################
#
# If this CIF has been generated from an entry in the Cambridge 
# Structural Database, then it will include bibliographic, chemical, 
# crystal, experimental, refinement or atomic coordinate data resulting 
# from the CCDC's data processing and validation procedures.
#
#######################################################################

data_TIJTOV
_chemical_formula_moiety         'C13 H4 N4 O9,2(C6 H5 Cl1)'
_chemical_name_systematic        
'2,4,5,7-Tetranitrofluoren-9-one chlorobenzene solvate'
_symmetry_cell_setting           orthorhombic
_symmetry_space_group_name_H-M   'P 21 21 21'
_symmetry_Int_Tables_number      19
_space_group_name_Hall           'P 2ac 2ab'
loop_
_symmetry_equiv_pos_site_id
_symmetry_equiv_pos_as_xyz
1 x,y,z
2 1/2-x,-y,1/2+z
3 -x,1/2+y,1/2-z
4 1/2+x,1/2-y,-z
_cell_length_a                   6.9840(10)
_cell_length_b                   15.088(2)
_cell_length_c                   23.217(2)
_cell_angle_alpha                90
_cell_angle_beta                 90
_cell_angle_gamma                90
_cell_volume                     2446.48
_exptl_crystal_colour            'pale yellow'
_exptl_crystal_description       needle
_cell_formula_units_Z            4
loop_
_atom_site_label
_atom_site_type_symbol
_atom_site_fract_x
_atom_site_fract_y
_atom_site_fract_z
C1 C 0.7506(11) 0.2251(5) 0.3300(3)
H1 H 0.7288 0.1649 0.3397
C2 C 0.7577(10) 0.2529(5) 0.2732(3)
C3 C 0.7972(11) 0.3404(4) 0.2578(3)
H2 H 0.8044 0.3572 0.2184
C4 C 0.8250(10) 0.4025(5) 0.3019(3)
C5 C 0.8149(10) 0.5156(5) 0.4324(3)
C6 C 0.8476(10) 0.5404(5) 0.4892(3)
H3 H 0.8509 0.6011 0.5000
C7 C 0.8718(10) 0.4752(5) 0.5301(3)
C8 C 0.8553(10) 0.3858(5) 0.5172(3)
H4 H 0.8629 0.3416 0.5462
C9 C 0.7924(12) 0.2740(5) 0.4362(3)
C10 C 0.7765(10) 0.2879(5) 0.3715(3)
C11 C 0.8039(10) 0.3789(4) 0.3598(3)
C12 C 0.8165(10) 0.4269(5) 0.4164(3)
C13 C 0.8273(10) 0.3647(5) 0.4606(3)
O1 O 0.6679(8) 0.1145(3) 0.2402(2)
O2 O 0.7580(9) 0.2121(4) 0.1769(2)
O3 O 0.8291(9) 0.5189(3) 0.2371(2)
O4 O 1.0009(8) 0.5295(3) 0.3156(2)
O5 O 0.6383(7) 0.5686(3) 0.3554(2)
O6 O 0.8301(8) 0.6611(3) 0.3997(2)
O7 O 0.9267(8) 0.5818(4) 0.6005(2)
O8 O 0.9506(8) 0.4433(4) 0.6251(2)
O9 O 0.7786(9) 0.2042(3) 0.4615(2)
N1 N 0.7257(9) 0.1883(4) 0.2263(3)
N2 N 0.8889(9) 0.4909(4) 0.2837(3)
N3 N 0.7576(9) 0.5869(4) 0.3922(2)
N4 N 0.9196(9) 0.5024(5) 0.5893(3)
Cl1 Cl 0.2935(3) 0.32668(13) 0.40230(7)
C14 C 0.2965(10) 0.3233(5) 0.3260(3)
C15 C 0.2576(10) 0.2436(4) 0.2996(3)
H5 H 0.2327 0.1918 0.3216
C16 C 0.2578(10) 0.2407(5) 0.2393(3)
H6 H 0.2286 0.1870 0.2199
C17 C 0.2992(11) 0.3166(5) 0.2081(3)
H7 H 0.3005 0.3137 0.1672
C18 C 0.3393(11) 0.3962(5) 0.2353(3)
H8 H 0.3695 0.4476 0.2135
C19 C 0.3359(11) 0.3995(5) 0.2962(3)
H9 H 0.3600 0.4535 0.3159
Cl2 Cl 0.4537(3) 0.49893(17) 0.62038(9)
C20 C 0.4234(12) 0.5614(6) 0.5570(3)
C21 C 0.3507(11) 0.5185(6) 0.5092(4)
H10 H 0.3180 0.4575 0.5107
C22 C 0.3284(12) 0.5672(6) 0.4586(4)
H11 H 0.2761 0.5396 0.4253
C23 C 0.3838(12) 0.6560(6) 0.4575(3)
H12 H 0.3687 0.6895 0.4232
C24 C 0.4591(12) 0.6956(5) 0.5061(3)
H13 H 0.4966 0.7560 0.5048
C25 C 0.4817(12) 0.6483(6) 0.5567(3)
H14 H 0.5347 0.6752 0.5901
loop_
_geom_bond_atom_site_label_1
_geom_bond_atom_site_label_2
_geom_bond_site_symmetry_1
_geom_bond_site_symmetry_2
C1 H1 1_555 1_555
C2 C1 1_555 1_555
C3 C2 1_555 1_555
H2 C3 1_555 1_555
C4 C3 1_555 1_555
C5 C6 1_555 1_555
C6 H3 1_555 1_555
C7 C6 1_555 1_555
C8 C7 1_555 1_555
H4 C8 1_555 1_555
C9 C10 1_555 1_555
C10 C1 1_555 1_555
C11 C4 1_555 1_555
C12 C5 1_555 1_555
C13 C8 1_555 1_555
O1 N1 1_555 1_555
O2 N1 1_555 1_555
O3 N2 1_555 1_555
O4 N2 1_555 1_555
O5 N3 1_555 1_555
O6 N3 1_555 1_555
O7 N4 1_555 1_555
O8 N4 1_555 1_555
O9 C9 1_555 1_555
N1 C2 1_555 1_555
N2 C4 1_555 1_555
N3 C5 1_555 1_555
N4 C7 1_555 1_555
Cl1 C14 1_555 1_555
C14 C15 1_555 1_555
C15 H5 1_555 1_555
C16 C15 1_555 1_555
H6 C16 1_555 1_555
C17 C16 1_555 1_555
H7 C17 1_555 1_555
C18 C17 1_555 1_555
H8 C18 1_555 1_555
C19 C14 1_555 1_555
H9 C19 1_555 1_555
Cl2 C20 1_555 1_555
C20 C21 1_555 1_555
C21 H10 1_555 1_555
C22 C21 1_555 1_555
H11 C22 1_555 1_555
C23 C22 1_555 1_555
H12 C23 1_555 1_555
C24 C23 1_555 1_555
H13 C24 1_555 1_555
C25 C20 1_555 1_555
H14 C25 1_555 1_555
C9 C13 1_555 1_555
C10 C11 1_555 1_555
C11 C12 1_555 1_555
C12 C13 1_555 1_555
C18 C19 1_555 1_555
C24 C25 1_555 1_555

#END
