
#######################################################################
#
#                 Cambridge Crystallographic Data Centre
#                                CCDC 
#
#######################################################################
#
# If this CIF has been generated from an entry in the Cambridge 
# Structural Database, then it will include bibliographic, chemical, 
# crystal, experimental, refinement or atomic coordinate data resulting 
# from the CCDC's data processing and validation procedures.
#
#######################################################################

data_TIJVAJ
_chemical_formula_moiety         'C10 F8,C6 H4 S4'
_chemical_name_systematic        'Octafluoronaphthalene tetrathiafulvalene'
_symmetry_cell_setting           monoclinic
_symmetry_space_group_name_H-M   'P 21/c'
_symmetry_Int_Tables_number      14
_space_group_name_Hall           '-P 2ybc'
loop_
_symmetry_equiv_pos_site_id
_symmetry_equiv_pos_as_xyz
1 x,y,z
2 x,1/2-y,1/2+z
3 -x,-y,-z
4 -x,1/2+y,1/2-z
_cell_length_a                   8.581(3)
_cell_length_b                   6.321(2)
_cell_length_c                   15.355(2)
_cell_angle_alpha                90
_cell_angle_beta                 98.160(10)
_cell_angle_gamma                90
_cell_volume                     824.431
_exptl_crystal_colour            'light brown'
_exptl_crystal_description       plate
_chemical_melting_point          383-385K
_cell_formula_units_Z            2
loop_
_atom_site_label
_atom_site_type_symbol
_atom_site_fract_x
_atom_site_fract_y
_atom_site_fract_z
F1 F 0.19709(9) 0.14546(12) 0.43977(5)
F2 F 0.21917(9) 0.39832(14) 0.30206(5)
F3 F 0.08230(10) 0.78456(14) 0.28991(5)
F4 F -0.09014(9) 0.91991(12) 0.41203(5)
C1 C 0.12486(14) 0.33419(19) 0.43619(8)
C2 C 0.13760(14) 0.4619(2) 0.36604(8)
C3 C 0.06509(14) 0.6616(2) 0.35923(8)
C4 C -0.02138(14) 0.72853(19) 0.42206(8)
C5 C 0.03762(13) 0.39823(19) 0.50374(8)
C5B C -0.03762(13) 0.60177(19) 0.49626(8)
C1B C -0.12486(14) 0.66581(19) 0.56381(8)
F1B F -0.19709(9) 0.85454(12) 0.56023(5)
C2B C -0.13760(14) 0.5381(2) 0.63396(8)
F2B F -0.21917(9) 0.60168(14) 0.69794(5)
C3B C -0.06509(14) 0.3384(2) 0.64077(8)
F3B F -0.08230(10) 0.21544(14) 0.71009(5)
C4B C 0.02138(14) 0.27147(19) 0.57794(8)
F4B F 0.09014(9) 0.08009(12) 0.58797(5)
S1 S 0.45778(4) 0.33523(5) 0.621254(19)
S2 S 0.39284(4) 0.77437(5) 0.55687(2)
C6 C 0.46906(13) 0.52274(18) 0.53701(7)
C7 C 0.37310(16) 0.5111(2) 0.68906(8)
H1 H 0.351(2) 0.462(3) 0.7446(13)
C8 C 0.34297(16) 0.7066(2) 0.65972(8)
H2 H 0.297(2) 0.817(3) 0.6906(12)
C6B C 0.53094(13) 0.47726(18) 0.46299(7)
S1B S 0.54222(4) 0.66477(5) 0.378746(19)
C7B C 0.62690(16) 0.4889(2) 0.31094(8)
H1B H 0.649(2) 0.538(3) 0.2554(13)
C8B C 0.65703(16) 0.2934(2) 0.34028(8)
S2B S 0.60716(4) 0.22563(5) 0.44313(2)
H2B H 0.703(2) 0.183(3) 0.3094(12)
loop_
_geom_bond_atom_site_label_1
_geom_bond_atom_site_label_2
_geom_bond_site_symmetry_1
_geom_bond_site_symmetry_2
F1 C1 1_555 1_555
F2 C2 1_555 1_555
F3 C3 1_555 1_555
F4 C4 1_555 1_555
C1 C2 1_555 1_555
C2 C3 1_555 1_555
C3 C4 1_555 1_555
C4 C5B 1_555 1_555
C5 C1 1_555 1_555
S1 C6 1_555 1_555
S2 C6 1_555 1_555
C6 C6B 1_555 1_555
C7 S1 1_555 1_555
H1 C7 1_555 1_555
C8 S2 1_555 1_555
H2 C8 1_555 1_555
C5B C5 1_555 1_555
C1B C5B 1_555 1_555
F1B C1B 1_555 1_555
C2B C1B 1_555 1_555
F2B C2B 1_555 1_555
C3B C2B 1_555 1_555
F3B C3B 1_555 1_555
C4B C5 1_555 1_555
F4B C4B 1_555 1_555
C6B S1B 1_555 1_555
S1B C7B 1_555 1_555
C7B H1B 1_555 1_555
C8B C7B 1_555 1_555
S2B C6B 1_555 1_555
H2B C8B 1_555 1_555
C7 C8 1_555 1_555
C3B C4B 1_555 1_555
C8B S2B 1_555 1_555

#END
