
#######################################################################
#
#                 Cambridge Crystallographic Data Centre
#                                CCDC 
#
#######################################################################
#
# If this CIF has been generated from an entry in the Cambridge 
# Structural Database, then it will include bibliographic, chemical, 
# crystal, experimental, refinement or atomic coordinate data resulting 
# from the CCDC's data processing and validation procedures.
#
#######################################################################

data_TIJXAM
_chemical_formula_moiety         'C31 H30 N4 2+,2(C7 H7 O3 S1 1-),5(H2 O1)'
_chemical_name_systematic        
"4,4'-(6H,12H-5,11-Methanodibenzo(b,f)(1,5)diazocine-2,8-diyl-diethene-2,1-diyl)bis(N-methylpyridinium) bis(p-toluenesulfonate) pentahydrate"
_symmetry_cell_setting           monoclinic
_symmetry_space_group_name_H-M   'C 2/c'
_symmetry_Int_Tables_number      15
_space_group_name_Hall           '-C 2yn'
loop_
_symmetry_equiv_pos_site_id
_symmetry_equiv_pos_as_xyz
1 x,y,z
2 1/2+x,1/2+y,z
3 -x,y,1/2-z
4 1/2-x,1/2+y,1/2-z
5 -x,-y,-z
6 1/2-x,1/2-y,-z
7 x,-y,1/2+z
8 1/2+x,1/2-y,1/2+z
_cell_length_a                   34.527(5)
_cell_length_b                   10.543(5)
_cell_length_c                   29.876(5)
_cell_angle_alpha                90
_cell_angle_beta                 123.540(5)
_cell_angle_gamma                90
_cell_volume                     9064.65
_exptl_crystal_colour            yellow
_exptl_crystal_description       prism
_chemical_melting_point          '250 deg.C'
_cell_formula_units_Z            8
_exptl_crystal_preparation       luminescent
loop_
_atom_site_label
_atom_site_type_symbol
_atom_site_fract_x
_atom_site_fract_y
_atom_site_fract_z
C1 C 0.62826(19) 0.2750(4) 0.5628(2)
H1 H 0.6005 0.2434 0.5312
H2 H 0.6443 0.2064 0.5874
H3 H 0.6480 0.3119 0.5529
C2 C 0.5774(2) 0.4371(5) 0.5591(2)
H4 H 0.5579 0.4189 0.5227
C3 C 0.5649(3) 0.5286(6) 0.5795(3)
H5 H 0.5377 0.5731 0.5562
C4 C 0.6435(2) 0.3941(5) 0.6399(2)
H6 H 0.6710 0.3490 0.6617
C5 C 0.6288(3) 0.4950(6) 0.6619(2)
H7 H 0.6474 0.5150 0.6982
C6 C 0.5881(3) 0.5587(5) 0.6292(3)
C7 C 0.5699(2) 0.6664(6) 0.6493(3)
H8 H 0.5408 0.7005 0.6247
C8 C 0.5903(2) 0.7061(5) 0.6926(3)
H9 H 0.6193 0.6704 0.7164
C9 C 0.57563(15) 0.8065(3) 0.7142(2)
C10 C 0.60487(15) 0.8345(4) 0.7685(2)
H10 H 0.6332 0.7929 0.7891
C11 C 0.59245(13) 0.9223(4) 0.79184(17)
H11 H 0.6125 0.9389 0.8284
C12 C 0.55063(12) 0.9876(3) 0.76238(15)
C13 C 0.52005(12) 0.9609(3) 0.70745(14)
C14 C 0.53347(14) 0.8720(3) 0.68399(16)
H12 H 0.5139 0.8557 0.6474
C15 C 0.47249(13) 1.0217(4) 0.67580(15)
H13 H 0.4719 1.0864 0.6523
H14 H 0.4495 0.9581 0.6535
C16 C 0.5000 1.1572(5) 0.7500
H15 H 0.4909 1.2113 0.7689
H16 H 0.5091 1.2113 0.7311
N2 N 0.61608(15) 0.3712(3) 0.58821(15)
N3 N 0.53958(10) 1.0793(3) 0.78884(12)
C1B C 0.37174(19) 0.2750(4) 0.9372(2)
H1B H 0.3995 0.2434 0.9688
H2B H 0.3557 0.2064 0.9126
H3B H 0.3520 0.3119 0.9471
C2B C 0.4226(2) 0.4371(5) 0.9409(2)
H4B H 0.4421 0.4189 0.9773
C3B C 0.4351(3) 0.5286(6) 0.9205(3)
H5B H 0.4623 0.5731 0.9438
C4B C 0.3565(2) 0.3941(5) 0.8601(2)
H6B H 0.3290 0.3490 0.8383
C5B C 0.3712(3) 0.4950(6) 0.8381(2)
H7B H 0.3526 0.5150 0.8018
C6B C 0.4119(3) 0.5587(5) 0.8708(3)
C7B C 0.4301(2) 0.6664(6) 0.8507(3)
H8B H 0.4592 0.7005 0.8753
C8B C 0.4097(2) 0.7061(5) 0.8074(3)
H9B H 0.3807 0.6704 0.7836
C9B C 0.42437(15) 0.8065(3) 0.7858(2)
C10B C 0.39513(15) 0.8345(4) 0.7315(2)
H10B H 0.3668 0.7929 0.7109
C11B C 0.40755(13) 0.9223(4) 0.70816(17)
H11B H 0.3875 0.9389 0.6716
C12B C 0.44937(12) 0.9876(3) 0.73762(15)
C13B C 0.47995(12) 0.9609(3) 0.79255(14)
C14B C 0.46653(14) 0.8720(3) 0.81601(16)
H12B H 0.4861 0.8557 0.8526
C15B C 0.52751(13) 1.0217(4) 0.82420(15)
H13B H 0.5281 1.0864 0.8477
H14B H 0.5505 0.9581 0.8465
N2B N 0.38392(15) 0.3712(3) 0.91179(15)
N3B N 0.46042(10) 1.0793(3) 0.71116(12)
N1 N 0.67433(14) 1.1594(3) 0.16797(17)
C17 C 0.63396(18) 1.1330(4) 0.1230(2)
H17 H 0.6247 1.1793 0.0921
C18 C 0.60570(16) 1.0392(4) 0.12095(18)
H18 H 0.5773 1.0233 0.0891
C19 C 0.68862(16) 1.0940(4) 0.21319(19)
H19 H 0.7167 1.1144 0.2447
C20 C 0.66212(15) 0.9978(4) 0.21315(18)
H20 H 0.6726 0.9521 0.2445
C21 C 0.61940(15) 0.9674(3) 0.16644(17)
C22 C 0.58917(14) 0.8663(4) 0.16382(17)
H21 H 0.5608 0.8559 0.1313
C23 C 0.59814(15) 0.7885(4) 0.20302(17)
H22 H 0.6272 0.7965 0.2349
C24 C 0.56763(14) 0.6914(3) 0.20182(15)
C25 C 0.52429(14) 0.6644(4) 0.15535(16)
H23 H 0.5150 0.7070 0.1237
C26 C 0.49505(14) 0.5753(3) 0.15567(15)
H24 H 0.4666 0.5572 0.1242
C27 C 0.50820(12) 0.5126(3) 0.20325(14)
C28 C 0.55081(12) 0.5388(3) 0.25021(14)
C29 C 0.58019(13) 0.6262(3) 0.24833(15)
H25 H 0.6093 0.6414 0.2794
C30 C 0.56366(13) 0.4786(3) 0.30256(14)
H26 H 0.5874 0.4149 0.3127
H27 H 0.5766 0.5429 0.3304
C31 C 0.5000 0.3408(4) 0.2500
H28 H 0.4773 0.2867 0.2500
H29 H 0.5227 0.2867 0.2500
C46 C 0.70573(19) 1.2568(4) 0.1691(2)
H44 H 0.7320 1.2161 0.1721
H45 H 0.7163 1.3119 0.1993
H46 H 0.6893 1.3055 0.1365
N4 N 0.47662(10) 0.4192(3) 0.20118(11)
N1B N 0.32567(14) 1.1594(3) 0.33203(17)
C17B C 0.36604(18) 1.1330(4) 0.3770(2)
H17B H 0.3753 1.1793 0.4079
C18B C 0.39430(16) 1.0392(4) 0.37905(18)
H18B H 0.4227 1.0233 0.4109
C19B C 0.31138(16) 1.0940(4) 0.28681(19)
H19B H 0.2833 1.1144 0.2553
C20B C 0.33788(15) 0.9978(4) 0.28685(18)
H20B H 0.3274 0.9521 0.2555
C21B C 0.38060(15) 0.9674(3) 0.33356(17)
C22B C 0.41083(14) 0.8663(4) 0.33618(17)
H21B H 0.4392 0.8559 0.3687
C23B C 0.40186(15) 0.7885(4) 0.29698(17)
H22B H 0.3728 0.7965 0.2651
C24B C 0.43237(14) 0.6914(3) 0.29818(15)
C25B C 0.47571(14) 0.6644(4) 0.34465(16)
H23B H 0.4850 0.7070 0.3763
C26B C 0.50495(14) 0.5753(3) 0.34433(15)
H24B H 0.5334 0.5572 0.3758
C27B C 0.49180(12) 0.5126(3) 0.29675(14)
C28B C 0.44919(12) 0.5388(3) 0.24979(14)
C29B C 0.41981(13) 0.6262(3) 0.25167(15)
H25B H 0.3907 0.6414 0.2206
C30B C 0.43634(13) 0.4786(3) 0.19744(14)
H26B H 0.4126 0.4149 0.1873
H27B H 0.4234 0.5429 0.1696
C46B C 0.29427(19) 1.2568(4) 0.3309(2)
H44B H 0.2680 1.2161 0.3279
H45B H 0.2837 1.3119 0.3007
H46B H 0.3107 1.3055 0.3635
N4B N 0.52338(10) 0.4192(3) 0.29882(11)
C32 C 0.7073(2) 0.7728(6) 0.3695(3)
H30 H 0.6918 0.8487 0.3500
H31 H 0.7017 0.7061 0.3447
H32 H 0.7401 0.7883 0.3926
C33 C 0.68907(19) 0.7344(5) 0.4024(2)
C34 C 0.6467(2) 0.7735(4) 0.3911(2)
H33 H 0.6285 0.8255 0.3614
C35 C 0.62986(17) 0.7390(4) 0.4216(2)
H34 H 0.6013 0.7701 0.4131
C36 C 0.65501(16) 0.6585(4) 0.46479(17)
C37 C 0.6978(2) 0.6175(5) 0.4767(2)
H35 H 0.7157 0.5640 0.5059
C38 C 0.7140(2) 0.6547(6) 0.4459(2)
H36 H 0.7428 0.6253 0.4547
O1 O 0.67262(16) 0.5574(4) 0.55374(15)
O2 O 0.61720(18) 0.7198(3) 0.51526(18)
O3 O 0.59934(15) 0.5152(3) 0.47275(15)
S2 S 0.63371(5) 0.60894(11) 0.50357(5)
C39 C 0.77316(14) 0.1901(4) 0.63734(16)
C40 C 0.80000(17) 0.1239(4) 0.62439(19)
H37 H 0.8088 0.0411 0.6365
C41 C 0.81411(18) 0.1792(5) 0.5935(2)
H38 H 0.8319 0.1323 0.5849
C42 C 0.80234(17) 0.3019(5) 0.57555(19)
C43 C 0.77675(18) 0.3691(5) 0.5910(2)
H39 H 0.7694 0.4534 0.5805
C44 C 0.76188(17) 0.3159(5) 0.6211(2)
H40 H 0.7446 0.3632 0.6304
C45 C 0.8173(2) 0.3644(7) 0.5422(3)
H41 H 0.8483 0.3970 0.5653
H42 H 0.7965 0.4328 0.5220
H43 H 0.8168 0.3034 0.5180
O4 O 0.78942(16) 0.0440(6) 0.7139(2)
O5 O 0.73816(18) 0.2158(4) 0.69362(19)
O6 O 0.71398(13) 0.0418(4) 0.63524(14)
S1 S 0.75263(4) 0.11584(12) 0.67314(4)
O7 O 0.65587(15) 0.9691(3) 0.52935(14)
H47 H 0.6483 0.8919 0.5280
H48 H 0.6762 0.9884 0.5618
O8 O 0.57064(14) 0.2971(3) 0.40683(13)
H49 H 0.5812 0.3563 0.4299
H50 H 0.5603 0.3278 0.3761
O9 O 0.52904(16) 0.8536(4) 0.4610(2)
H51 H 0.5250 0.7905 0.4758
H52 H 0.5571 0.8538 0.4700
O10 O 0.57116(14) 0.0767(3) 0.45756(14)
H53 H 0.5642 0.0055 0.4648
H54 H 0.5719 0.1326 0.4377
O11 O 0.5074(2) 0.2097(6) 0.4772(3)
H55 H 0.5244 0.2032 0.5112
H56 H 0.4855 0.2617 0.4688
loop_
_geom_bond_atom_site_label_1
_geom_bond_atom_site_label_2
_geom_bond_site_symmetry_1
_geom_bond_site_symmetry_2
C1 H1 1_555 1_555
H2 C1 1_555 1_555
H3 C1 1_555 1_555
C2 H4 1_555 1_555
C3 C2 1_555 1_555
H5 C3 1_555 1_555
C4 H6 1_555 1_555
C5 C4 1_555 1_555
H7 C5 1_555 1_555
C6 C3 1_555 1_555
C7 C6 1_555 1_555
H8 C7 1_555 1_555
C8 C7 1_555 1_555
H9 C8 1_555 1_555
C9 C8 1_555 1_555
C10 C9 1_555 1_555
H10 C10 1_555 1_555
C11 C10 1_555 1_555
H11 C11 1_555 1_555
C12 C11 1_555 1_555
C13 C12 1_555 1_555
C14 C9 1_555 1_555
H12 C14 1_555 1_555
C15 C13 1_555 1_555
H13 C15 1_555 1_555
H14 C15 1_555 1_555
C16 H15 1_555 1_555
H16 C16 1_555 1_555
N1 C17 1_555 1_555
C17 H17 1_555 1_555
C18 C17 1_555 1_555
H18 C18 1_555 1_555
C19 N1 1_555 1_555
H19 C19 1_555 1_555
C20 C19 1_555 1_555
H20 C20 1_555 1_555
C21 C18 1_555 1_555
C22 C21 1_555 1_555
H21 C22 1_555 1_555
C23 C22 1_555 1_555
H22 C23 1_555 1_555
C24 C23 1_555 1_555
C25 C24 1_555 1_555
H23 C25 1_555 1_555
C26 C25 1_555 1_555
H24 C26 1_555 1_555
C27 C26 1_555 1_555
C28 C27 1_555 1_555
C29 C24 1_555 1_555
H25 C29 1_555 1_555
C30 C28 1_555 1_555
H26 C30 1_555 1_555
H27 C30 1_555 1_555
C31 H28 1_555 1_555
H29 C31 1_555 1_555
C32 H30 1_555 1_555
H31 C32 1_555 1_555
H32 C32 1_555 1_555
C33 C32 1_555 1_555
C34 C33 1_555 1_555
H33 C34 1_555 1_555
C35 C34 1_555 1_555
H34 C35 1_555 1_555
C36 C35 1_555 1_555
C37 C36 1_555 1_555
H35 C37 1_555 1_555
C38 C33 1_555 1_555
H36 C38 1_555 1_555
C39 C40 1_555 1_555
C40 H37 1_555 1_555
C41 C40 1_555 1_555
H38 C41 1_555 1_555
C42 C41 1_555 1_555
C43 C42 1_555 1_555
H39 C43 1_555 1_555
C44 C39 1_555 1_555
H40 C44 1_555 1_555
C45 C42 1_555 1_555
H41 C45 1_555 1_555
H42 C45 1_555 1_555
H43 C45 1_555 1_555
N2 C1 1_555 1_555
N3 C12 1_555 1_555
C46 N1 1_555 1_555
H44 C46 1_555 1_555
H45 C46 1_555 1_555
H46 C46 1_555 1_555
N4 C27 1_555 1_555
O1 S2 1_555 1_555
O2 S2 1_555 1_555
O3 S2 1_555 1_555
O4 S1 1_555 1_555
O5 S1 1_555 1_555
O6 S1 1_555 1_555
O7 H47 1_555 1_555
H48 O7 1_555 1_555
O8 H49 1_555 1_555
H50 O8 1_555 1_555
O9 H51 1_555 1_555
H52 O9 1_555 1_555
O10 H53 1_555 1_555
H54 O10 1_555 1_555
O11 H55 1_555 1_555
H56 O11 1_555 1_555
S1 C39 1_555 1_555
S2 C36 1_555 1_555
C1B H1B 1_555 1_555
H2B C1B 1_555 1_555
H3B C1B 1_555 1_555
C2B H4B 1_555 1_555
C3B C2B 1_555 1_555
H5B C3B 1_555 1_555
C4B H6B 1_555 1_555
C5B C4B 1_555 1_555
H7B C5B 1_555 1_555
C6B C3B 1_555 1_555
C7B C6B 1_555 1_555
H8B C7B 1_555 1_555
C8B C7B 1_555 1_555
H9B C8B 1_555 1_555
C9B C8B 1_555 1_555
C10B C9B 1_555 1_555
H10B C10B 1_555 1_555
C11B C10B 1_555 1_555
H11B C11B 1_555 1_555
C12B C11B 1_555 1_555
C13B C12B 1_555 1_555
C14B C9B 1_555 1_555
H12B C14B 1_555 1_555
C15B N3 1_555 1_555
H13B C15B 1_555 1_555
H14B C15B 1_555 1_555
N1B C17B 1_555 1_555
C17B H17B 1_555 1_555
C18B C17B 1_555 1_555
H18B C18B 1_555 1_555
C19B N1B 1_555 1_555
H19B C19B 1_555 1_555
C20B C19B 1_555 1_555
H20B C20B 1_555 1_555
C21B C18B 1_555 1_555
C22B C21B 1_555 1_555
H21B C22B 1_555 1_555
C23B C22B 1_555 1_555
H22B C23B 1_555 1_555
C24B C23B 1_555 1_555
C25B C24B 1_555 1_555
H23B C25B 1_555 1_555
C26B C25B 1_555 1_555
H24B C26B 1_555 1_555
C27B C26B 1_555 1_555
C28B C27B 1_555 1_555
C29B C24B 1_555 1_555
H25B C29B 1_555 1_555
C30B N4 1_555 1_555
H26B C30B 1_555 1_555
H27B C30B 1_555 1_555
N2B C1B 1_555 1_555
N3B C15 1_555 1_555
C46B N1B 1_555 1_555
H44B C46B 1_555 1_555
H45B C46B 1_555 1_555
H46B C46B 1_555 1_555
N4B C30 1_555 1_555
C2 N2 1_555 1_555
C4 N2 1_555 1_555
C5 C6 1_555 1_555
C13 C14 1_555 1_555
C16 N3 1_555 1_555
C16 N3B 1_555 1_555
C20 C21 1_555 1_555
C28 C29 1_555 1_555
C31 N4 1_555 1_555
C31 N4B 1_555 1_555
C37 C38 1_555 1_555
C43 C44 1_555 1_555
C2B N2B 1_555 1_555
C4B N2B 1_555 1_555
C5B C6B 1_555 1_555
C12B N3B 1_555 1_555
C13B C14B 1_555 1_555
C13B C15B 1_555 1_555
C20B C21B 1_555 1_555
C27B N4B 1_555 1_555
C28B C29B 1_555 1_555
C28B C30B 1_555 1_555

#END
