
#######################################################################
#
#                 Cambridge Crystallographic Data Centre
#                                CCDC 
#
#######################################################################
#
# If this CIF has been generated from an entry in the Cambridge 
# Structural Database, then it will include bibliographic, chemical, 
# crystal, experimental, refinement or atomic coordinate data resulting 
# from the CCDC's data processing and validation procedures.
#
#######################################################################

data_TIJYUI
_chemical_formula_moiety         'C12 H11 N1 O3'
_chemical_name_systematic        
'Methyl 2-methyl-5-phenyl-1,3-oxazole-4-carboxylate'
_symmetry_cell_setting           orthorhombic
_symmetry_space_group_name_H-M   'P b c a'
_symmetry_Int_Tables_number      61
_space_group_name_Hall           '-P 2ac 2ab'
loop_
_symmetry_equiv_pos_site_id
_symmetry_equiv_pos_as_xyz
1 x,y,z
2 1/2-x,-y,1/2+z
3 -x,1/2+y,1/2-z
4 1/2+x,1/2-y,-z
5 -x,-y,-z
6 1/2+x,y,1/2-z
7 x,1/2-y,1/2+z
8 1/2-x,1/2+y,z
_cell_length_a                   13.207(3)
_cell_length_b                   8.4523(18)
_cell_length_c                   18.886(4)
_cell_angle_alpha                90
_cell_angle_beta                 90
_cell_angle_gamma                90
_cell_volume                     2108.24
_exptl_crystal_colour            colorless
_exptl_crystal_description       Prism
_cell_formula_units_Z            8
loop_
_atom_site_label
_atom_site_type_symbol
_atom_site_fract_x
_atom_site_fract_y
_atom_site_fract_z
O1 O 0.36575(6) 1.03618(9) 0.53701(4)
O2 O 0.37647(6) 0.51505(10) 0.47886(4)
O3 O 0.39993(6) 0.56096(9) 0.59523(4)
N1 N 0.37083(6) 0.84782(11) 0.45463(5)
C1 C 0.42851(8) 1.02819(13) 0.68184(6)
H1 H 0.4658 1.0996 0.6531
C2 C 0.42872(9) 1.04619(15) 0.75488(6)
H2 H 0.4660 1.1301 0.7759
C3 C 0.37466(9) 0.94201(16) 0.79725(7)
H3 H 0.3741 0.9550 0.8472
C4 C 0.32159(9) 0.81908(15) 0.76628(6)
H4 H 0.2857 0.7464 0.7953
C5 C 0.32011(8) 0.80077(13) 0.69336(6)
H5 H 0.2826 0.7168 0.6727
C6 C 0.37360(8) 0.90540(13) 0.65041(6)
C7 C 0.37150(7) 0.89373(13) 0.57258(6)
C8 C 0.37489(7) 0.77914(13) 0.52208(6)
C9 C 0.38354(7) 0.60538(14) 0.52831(6)
C10 C 0.40520(9) 0.39192(13) 0.60661(6)
H6 H 0.3473 0.3407 0.5837
H7 H 0.4037 0.3698 0.6575
H8 H 0.4682 0.3508 0.5863
C11 C 0.36545(8) 0.99803(14) 0.46628(6)
C12 C 0.35643(9) 1.13071(14) 0.41558(6)
H9 H 0.3658 1.0911 0.3673
H10 H 0.4083 1.2102 0.4260
H11 H 0.2892 1.1787 0.4199
loop_
_geom_bond_atom_site_label_1
_geom_bond_atom_site_label_2
_geom_bond_site_symmetry_1
_geom_bond_site_symmetry_2
O1 C7 1_555 1_555
O2 C9 1_555 1_555
O3 C9 1_555 1_555
N1 C8 1_555 1_555
C1 H1 1_555 1_555
C2 C1 1_555 1_555
H2 C2 1_555 1_555
C3 C2 1_555 1_555
H3 C3 1_555 1_555
C4 C3 1_555 1_555
H4 C4 1_555 1_555
C5 C4 1_555 1_555
H5 C5 1_555 1_555
C6 C1 1_555 1_555
C7 C6 1_555 1_555
C8 C7 1_555 1_555
C9 C8 1_555 1_555
C10 O3 1_555 1_555
H6 C10 1_555 1_555
H7 C10 1_555 1_555
H8 C10 1_555 1_555
C11 O1 1_555 1_555
C12 C11 1_555 1_555
H9 C12 1_555 1_555
H10 C12 1_555 1_555
H11 C12 1_555 1_555
N1 C11 1_555 1_555
C5 C6 1_555 1_555

#END
