
#######################################################################
#
#                 Cambridge Crystallographic Data Centre
#                                CCDC 
#
#######################################################################
#
# If this CIF has been generated from an entry in the Cambridge 
# Structural Database, then it will include bibliographic, chemical, 
# crystal, experimental, refinement or atomic coordinate data resulting 
# from the CCDC's data processing and validation procedures.
#
#######################################################################

data_TIJZAP
_chemical_formula_moiety         'C36 H40 N4 O5'
_chemical_name_systematic        
'methyl 3-[17-acetyl-12-ethyl-4-methoxy-13,18,22,27-tetramethyl-3-oxo-8,24,25,26-tetraazahexacyclo[19.2.1.1^6,9^.1^11,14^.1^16,19^.0^2,7^]heptacosa-2(7),4,6(27),9,11(26),12,14,16,18,20,22-undecaen-23-yl]propanoate'
_symmetry_cell_setting           triclinic
_symmetry_space_group_name_H-M   'P 1'
_symmetry_Int_Tables_number      1
_space_group_name_Hall           'P 1'
loop_
_symmetry_equiv_pos_site_id
_symmetry_equiv_pos_as_xyz
1 x,y,z
_cell_length_a                   7.326(1)
_cell_length_b                   15.248(1)
_cell_length_c                   22.073(1)
_cell_angle_alpha                77.55(1)
_cell_angle_beta                 82.90(1)
_cell_angle_gamma                76.99(1)
_cell_volume                     2338.61
_exptl_crystal_colour            red
_exptl_crystal_description       'miniscule plate'
_cell_formula_units_Z            3
loop_
_atom_site_label
_atom_site_type_symbol
_atom_site_fract_x
_atom_site_fract_y
_atom_site_fract_z
O1 O 0.7469(6) 1.1824(4) -0.6525(2)
O2 O 1.5896(6) 0.8000(3) -1.1182(2)
O3 O 1.4758(6) 0.7333(4) -1.0068(2)
O4 O 1.5778(10) 0.6200(5) -0.7421(2)
O5 O 1.6799(8) 0.4797(4) -0.7647(2)
N1 N 1.0006(7) 1.0173(4) -0.7828(2)
H1 H 1.0494(7) 1.0251(4) -0.8216(2)
N2 N 1.0679(7) 1.1709(4) -0.8822(2)
N3 N 1.2512(7) 1.0396(4) -0.9642(2)
H2 H 1.1998(7) 1.0325(4) -0.9258(2)
N4 N 1.1881(6) 0.8865(4) -0.8721(2)
C1 C 0.9915(8) 0.9337(5) -0.7459(3)
C2 C 0.9005(8) 0.9505(5) -0.6872(3)
C3 C 0.8605(8) 1.0477(5) -0.6914(3)
C4 C 0.9243(8) 1.0874(5) -0.7518(3)
C5 C 0.9130(8) 1.1795(5) -0.7794(3)
H3 H 0.8538(8) 1.2219(5) -0.7536(3)
C6 C 0.9745(8) 1.2182(5) -0.8383(3)
C7 C 0.9349(9) 1.3201(5) -0.8630(3)
H4 H 0.9691(9) 1.3530(5) -0.8329(3)
C8 C 1.0654(9) 1.3302(5) -0.9230(3)
H5 H 0.9943(9) 1.3697(5) -0.9584(3)
C9 C 1.1188(8) 1.2308(5) -0.9317(3)
C10 C 1.2095(8) 1.2083(5) -0.9875(3)
H6 H 1.2353(8) 1.2587(5) -1.0185(3)
C11 C 1.2657(8) 1.1258(5) -1.0038(3)
C12 C 1.3569(8) 1.1049(5) -1.0620(3)
C13 C 1.3953(8) 1.0112(5) -1.0568(3)
C14 C 1.3294(8) 0.9696(5) -0.9951(3)
C15 C 1.3492(8) 0.8755(5) -0.9741(3)
C16 C 1.2849(8) 0.8345(5) -0.9124(3)
C17 C 1.3275(8) 0.7333(4) -0.8855(3)
H7 H 1.3025(8) 0.6973(4) -0.9153(3)
C18 C 1.1865(8) 0.7280(5) -0.8289(3)
H8 H 1.2455(8) 0.6854(5) -0.7922(3)
C19 C 1.1414(8) 0.8253(4) -0.8189(3)
C20 C 1.0530(8) 0.8480(4) -0.7635(3)
H9 H 1.0304(8) 0.7972(4) -0.7322(3)
C21 C 0.8589(9) 0.8741(5) -0.6340(3)
H10 H 0.9055(9) 0.8148(5) -0.6466(3)
H11 H 0.7230(9) 0.8828(5) -0.6234(3)
H12 H 0.9216(9) 0.8756(5) -0.5976(3)
C22 C 0.7707(8) 1.0988(5) -0.6434(3)
C23 C 0.7105(9) 1.0488(5) -0.5807(3)
H13 H 0.6529(9) 1.0932(5) -0.5542(3)
H14 H 0.8202(9) 1.0075(5) -0.5617(3)
H15 H 0.6190(9) 1.0131(5) -0.5852(3)
C24 C 0.7233(10) 1.3558(5) -0.8761(4)
H16 H 0.7002(10) 1.4222(5) -0.8921(4)
H17 H 0.6442(10) 1.3428(5) -0.8375(4)
H18 H 0.6929(10) 1.3249(5) -0.9071(4)
C25 C 1.2401(8) 1.3667(4) -0.9170(3)
H19 H 1.2990(8) 1.3320(4) -0.8785(3)
H20 H 1.3325(8) 1.3564(4) -0.9527(3)
C26 C 1.1928(10) 1.4690(5) -0.9148(3)
H21 H 1.3079(10) 1.4893(5) -0.9109(3)
H22 H 1.1034(10) 1.4794(5) -0.8789(3)
H23 H 1.1369(10) 1.5039(5) -0.9531(3)
C27 C 1.3982(9) 1.1733(5) -1.1168(3)
H24 H 1.3555(9) 1.2349(5) -1.1074(3)
H25 H 1.3328(9) 1.1683(5) -1.1517(3)
H26 H 1.5339(9) 1.1623(5) -1.1281(3)
C28 C 1.4853(8) 0.9543(5) -1.1003(3)
H27 H 1.5289(8) 0.9808(5) -1.1410(3)
C29 C 1.5070(8) 0.8633(5) -1.0827(3)
C30 C 1.4452(9) 0.8189(5) -1.0189(3)
C31 C 1.5363(8) 0.7050(4) -0.8701(3)
H28 H 1.6161(8) 0.7251(4) -0.9078(3)
H29 H 1.5539(8) 0.7375(4) -0.8376(3)
C32 C 1.6020(9) 0.6021(5) -0.8475(3)
H30 H 1.5151(9) 0.5704(5) -0.8611(3)
H31 H 1.7274(9) 0.5830(5) -0.8687(3)
C33 C 1.6155(10) 0.5689(6) -0.7794(3)
C34 C 1.6903(14) 0.4435(8) -0.6984(4)
H32 H 1.7391(14) 0.3771(8) -0.6915(4)
H33 H 1.5645(14) 0.4561(8) -0.6770(4)
H34 H 1.7742(14) 0.4729(8) -0.6820(4)
C35 C 1.0081(9) 0.6999(5) -0.8413(3)
H35 H 1.0394(9) 0.6364(5) -0.8478(3)
H36 H 0.9555(9) 0.7406(5) -0.8786(3)
H37 H 0.9154(9) 0.7047(5) -0.8055(3)
C36 C 1.6628(9) 0.8349(5) -1.1785(3)
H38 H 1.7185(9) 0.7841(5) -1.1999(3)
H39 H 1.7594(9) 0.8687(5) -1.1755(3)
H40 H 1.5614(9) 0.8763(5) -1.2019(3)
O6 O 0.4056(6) 1.2177(3) -0.7814(2)
O7 O -0.0132(7) 0.5741(4) -0.3223(2)
O8 O 0.1416(7) 0.5697(4) -0.4319(2)
O9 O 0.0916(11) 0.5954(5) -0.6957(3)
O10 O 0.1987(8) 0.4453(4) -0.6750(2)
N5 N 0.3330(7) 0.9773(4) -0.6512(2)
H41 H 0.2863(7) 0.9629(4) -0.6125(2)
C37 C 0.4102(8) 0.9152(5) -0.6885(2)
N6 N 0.1495(6) 1.0759(4) -0.5525(2)
C38 C 0.4719(8) 0.9669(5) -0.7472(2)
N7 N 0.0889(7) 0.8988(4) -0.4715(2)
H42 H 0.1345(7) 0.9139(4) -0.5102(2)
C39 C 0.4259(8) 1.0594(4) -0.7432(2)
N8 N 0.2760(7) 0.7986(4) -0.5646(2)
C40 C 0.3383(8) 1.0659(5) -0.6826(2)
C41 C 0.2756(8) 1.1428(5) -0.6547(3)
H43 H 0.2924(8) 1.1996(5) -0.6802(3)
C42 C 0.1934(8) 1.1479(5) -0.5960(3)
C43 C 0.1508(9) 1.2365(5) -0.5711(3)
H44 H 0.0835(9) 1.2886(5) -0.6015(3)
C44 C 0.0216(8) 1.2123(5) -0.5120(3)
H45 H 0.0632(8) 1.2311(5) -0.4762(3)
C45 C 0.0597(8) 1.1083(5) -0.5026(3)
C46 C -0.0022(8) 1.0541(5) -0.4474(3)
H46 H -0.0651(8) 1.0865(5) -0.4160(3)
C47 C 0.0161(8) 0.9602(5) -0.4327(3)
C48 C -0.0439(8) 0.9065(5) -0.3748(3)
C49 C -0.0051(8) 0.8187(6) -0.3813(3)
C50 C 0.0806(8) 0.8136(5) -0.4425(3)
C51 C 0.1398(8) 0.7284(5) -0.4644(3)
C52 C 0.2330(8) 0.7229(5) -0.5232(3)
C53 C 0.2871(8) 0.6379(5) -0.5496(3)
H47 H 0.3508(8) 0.5858(5) -0.5184(3)
C54 C 0.4280(9) 0.6640(5) -0.6047(3)
H48 H 0.4069(9) 0.6412(5) -0.6420(3)
C55 C 0.3778(8) 0.7668(5) -0.6156(2)
C56 C 0.4316(8) 0.8215(5) -0.6715(3)
H49 H 0.4928(8) 0.7886(5) -0.7028(3)
C57 C 0.5648(9) 0.9218(5) -0.8008(3)
H50 H 0.5774(9) 0.8551(5) -0.7882(3)
H51 H 0.6895(9) 0.9364(5) -0.8125(3)
H52 H 0.4877(9) 0.9445(5) -0.8364(3)
C58 C 0.4539(8) 1.1397(5) -0.7916(3)
C59 C 0.5450(9) 1.1274(5) -0.8545(3)
H53 H 0.5523(9) 1.1875(5) -0.8805(3)
H54 H 0.4705(9) 1.0967(5) -0.8739(3)
H55 H 0.6720(9) 1.0898(5) -0.8502(3)
C60 C 0.3313(9) 1.2576(5) -0.5554(3)
H56 H 0.3018(9) 1.3149(5) -0.5395(3)
H57 H 0.4176(9) 1.2642(5) -0.5930(3)
H58 H 0.3906(9) 1.2074(5) -0.5237(3)
C61 C -0.1872(9) 1.2530(5) -0.5188(3)
H59 H -0.2609(9) 1.2264(5) -0.4814(3)
H60 H -0.2253(9) 1.2355(5) -0.5553(3)
C62 C -0.2352(10) 1.3605(5) -0.5270(3)
H61 H -0.3702(10) 1.3829(5) -0.5311(3)
H62 H -0.1648(10) 1.3873(5) -0.5645(3)
H63 H -0.2004(10) 1.3782(5) -0.4906(3)
C63 C -0.1291(9) 0.9461(5) -0.3188(3)
H64 H -0.1396(9) 1.0128(5) -0.3286(3)
H65 H -0.0492(9) 0.9194(5) -0.2842(3)
H66 H -0.2544(9) 0.9322(5) -0.3069(3)
C64 C -0.0378(8) 0.7361(6) -0.3374(3)
H67 H -0.0923(8) 0.7393(6) -0.2963(3)
C65 C 0.0096(9) 0.6579(5) -0.3559(3)
C66 C 0.1012(9) 0.6485(5) -0.4203(3)
C67 C 0.1172(10) 0.6130(5) -0.5707(3)
H68 H 0.0177(10) 0.6124(5) -0.5360(3)
H69 H 0.0677(10) 0.6618(5) -0.6057(3)
C68 C 0.1551(11) 0.5228(5) -0.5910(3)
H70 H 0.0644(11) 0.4864(5) -0.5673(3)
H71 H 0.2825(11) 0.4892(5) -0.5800(3)
C69 C 0.1430(9) 0.5284(6) -0.6592(3)
C70 C 0.1984(15) 0.4394(8) -0.7393(4)
H72 H 0.2417(15) 0.3753(8) -0.7439(4)
H73 H 0.2827(15) 0.4767(8) -0.7651(4)
H74 H 0.0707(15) 0.4621(8) -0.7526(4)
C71 C 0.6323(8) 0.6305(5) -0.5884(3)
H75 H 0.6643(8) 0.5634(5) -0.5814(3)
H76 H 0.6484(8) 0.6510(5) -0.5506(3)
H77 H 0.7152(8) 0.6558(5) -0.6229(3)
C72 C -0.0974(10) 0.5742(6) -0.2590(3)
H78 H -0.1078(10) 0.5116(6) -0.2385(3)
H79 H -0.2227(10) 0.6141(6) -0.2601(3)
H80 H -0.0182(10) 0.5971(6) -0.2359(3)
O11 O -1.1625(15) 1.2452(5) -0.1034(3)
O12 O -0.4403(7) 0.5196(4) -0.3420(2)
O13 O -0.6332(8) 0.5440(4) -0.2400(2)
N9 N -0.9551(7) 0.9852(4) -0.1507(2)
H81 H -0.8997(7) 0.9624(4) -0.1833(2)
N10 N -0.7945(7) 1.0575(4) -0.2753(2)
N11 N -0.6589(7) 0.8689(4) -0.2987(2)
H82 H -0.7164(7) 0.8916(4) -0.2664(2)
N12 N -0.8102(7) 0.7917(4) -0.1761(2)
C73 C -1.0020(8) 0.9329(5) -0.0935(2)
C74 C -1.0943(8) 0.9970(5) -0.0548(2)
C75 C -1.0938(8) 1.0841(5) -0.0886(2)
C76 C -1.0074(8) 1.0779(5) -0.1495(3)
C77 C -0.9717(9) 1.1475(5) -0.1997(3)
H83 H -1.0223(9) 1.2086(5) -0.1941(3)
C78 C -0.8726(8) 1.1386(5) -0.2561(3)
C79 C -0.8384(9) 1.2228(5) -0.3054(3)
H84 H -0.7870(9) 1.2654(5) -0.2865(3)
C80 C -0.6899(9) 1.1784(5) -0.3514(3)
H85 H -0.7270(9) 1.2020(5) -0.3950(3)
C81 C -0.6996(8) 1.0772(5) -0.3312(3)
C82 C -0.6137(9) 1.0140(5) -0.3679(3)
H86 H -0.5585(9) 1.0383(5) -0.4074(3)
C83 C -0.5984(8) 0.9207(5) -0.3543(2)
C84 C -0.5142(8) 0.8563(5) -0.3949(3)
C85 C -0.5306(8) 0.7698(5) -0.3605(3)
C86 C -0.6172(8) 0.7789(5) -0.3014(2)
C87 C -0.6491(8) 0.7029(5) -0.2546(3)
C88 C -0.7290(8) 0.7121(5) -0.1920(3)
C89 C -0.7168(8) 0.6317(5) -0.1384(2)
H87 H -0.7680(8) 0.5820(5) -0.1492(2)
C90 C -0.8432(8) 0.6712(5) -0.0862(3)
H88 H -0.7757(8) 0.6563(5) -0.0474(3)
C91 C -0.8732(8) 0.7736(5) -0.1133(3)
C92 C -0.9600(8) 0.8383(5) -0.0790(3)
H89 H -0.9986(8) 0.8134(5) -0.0373(3)
C93 C -1.1698(8) 0.9642(5) 0.0113(2)
H90 H -1.1461(8) 0.8969(5) 0.0205(2)
H91 H -1.3053(8) 0.9887(5) 0.0158(2)
H92 H -1.1067(8) 0.9856(5) 0.0402(2)
C94 C -1.1654(10) 1.1732(5) -0.0684(3)
C95 C -1.2487(9) 1.1767(5) -0.0038(3)
H93 H -1.2881(9) 1.2408(5) 0.0010(3)
H94 H -1.1549(9) 1.1441(5) 0.0257(3)
H95 H -1.3579(9) 1.1476(5) 0.0044(3)
C96 C -1.0175(11) 1.2724(7) -0.3359(3)
H96 H -1.1087(11) 1.2998(7) -0.3054(3)
H97 H -1.0702(11) 1.2287(7) -0.3516(3)
H98 H -0.9892(11) 1.3209(7) -0.3706(3)
C97 C -0.4876(9) 1.1909(6) -0.3466(3)
H99 H -0.4826(9) 1.2566(6) -0.3604(3)
H100 H -0.3988(9) 1.1562(6) -0.3748(3)
C98 C -0.4242(12) 1.1573(7) -0.2786(4)
H101 H -0.2963(12) 1.1663(7) -0.2779(4)
H102 H -0.4268(12) 1.0920(7) -0.2649(4)
H103 H -0.5099(12) 1.1925(7) -0.2506(4)
C99 C -0.4342(10) 0.8813(6) -0.4595(3)
H104 H -0.4432(10) 0.9478(6) -0.4704(3)
H105 H -0.5044(10) 0.8626(6) -0.4878(3)
H106 H -0.3021(10) 0.8501(6) -0.4630(3)
C100 C -0.4656(9) 0.6825(5) -0.3780(3)
H107 H -0.4040(9) 0.6772(5) -0.4180(3)
C101 C -0.4954(9) 0.6071(5) -0.3352(3)
C102 C -0.5985(9) 0.6168(6) -0.2736(3)
C103 C -0.5073(8) 0.5945(5) -0.1223(3)
H108 H -0.4263(8) 0.5934(5) -0.1616(3)
H109 H -0.4705(8) 0.6378(5) -0.1008(3)
C104 C -1.0290(9) 0.6377(5) -0.0733(3)
H110 H -1.0042(9) 0.5718(5) -0.0560(3)
H111 H -1.0898(9) 0.6494(5) -0.1122(3)
H112 H -1.1119(9) 0.6706(5) -0.0434(3)
C105 C -0.3422(12) 0.5039(6) -0.4009(3)
H113 H -0.3092(12) 0.4378(6) -0.4005(3)
H114 H -0.2275(12) 0.5287(6) -0.4075(3)
H115 H -0.4235(12) 0.5344(6) -0.4346(3)
C106 C -0.4707(11) 0.5014(6) -0.0825(3)
H116 H -0.5279(11) 0.5081(6) -0.0403(3)
H117 H -0.5432(11) 0.4645(6) -0.0982(3)
C107 C -0.2922(18) 0.4483(9) -0.0752(5)
O14 O -0.2354(12) 0.4119(7) -0.0247(4)
O15 O -0.1818(10) 0.4513(6) -0.1286(4)
C108 C 0.0347(14) 0.4052(8) -0.1141(5)
H118 H 0.1142(14) 0.4077(8) -0.1533(5)
H119 H 0.0430(14) 0.3411(8) -0.0929(5)
H120 H 0.0774(14) 0.4390(8) -0.0874(5)
C109? C -0.4786(17) 0.4325(9) -0.1072(5)
O16? O -0.5776(12) 0.3775(7) -0.0833(4)
O17? O -0.3791(12) 0.4345(6) -0.1610(4)
C110? C -0.3938(21) 0.3576(12) -0.2094(7)
H121? H -0.3110(21) 0.3684(12) -0.2474(7)
H122? H -0.5237(21) 0.3677(12) -0.2202(7)
H123? H -0.3550(21) 0.2943(12) -0.1871(7)
loop_
_geom_bond_atom_site_label_1
_geom_bond_atom_site_label_2
_geom_bond_site_symmetry_1
_geom_bond_site_symmetry_2
O1 C22 1_555 1_555
O2 C29 1_555 1_555
O3 C30 1_555 1_555
O4 C33 1_555 1_555
O5 C33 1_555 1_555
N1 H1 1_555 1_555
N2 C6 1_555 1_555
N3 H2 1_555 1_555
N4 C16 1_555 1_555
C1 N1 1_555 1_555
C2 C1 1_555 1_555
C3 C2 1_555 1_555
C4 N1 1_555 1_555
C5 C4 1_555 1_555
H3 C5 1_555 1_555
C6 C5 1_555 1_555
C7 C6 1_555 1_555
H4 C7 1_555 1_555
C8 C7 1_555 1_555
H5 C8 1_555 1_555
C9 N2 1_555 1_555
C10 C9 1_555 1_555
H6 C10 1_555 1_555
C11 N3 1_555 1_555
C12 C11 1_555 1_555
C13 C12 1_555 1_555
C14 N3 1_555 1_555
C15 C14 1_555 1_555
C16 C15 1_555 1_555
C17 C16 1_555 1_555
H7 C17 1_555 1_555
C18 C17 1_555 1_555
H8 C18 1_555 1_555
C19 N4 1_555 1_555
C20 C1 1_555 1_555
H9 C20 1_555 1_555
C21 C2 1_555 1_555
H10 C21 1_555 1_555
H11 C21 1_555 1_555
H12 C21 1_555 1_555
C22 C3 1_555 1_555
C23 C22 1_555 1_555
H13 C23 1_555 1_555
H14 C23 1_555 1_555
H15 C23 1_555 1_555
C24 C7 1_555 1_555
H16 C24 1_555 1_555
H17 C24 1_555 1_555
H18 C24 1_555 1_555
C25 C8 1_555 1_555
H19 C25 1_555 1_555
H20 C25 1_555 1_555
C26 C25 1_555 1_555
H21 C26 1_555 1_555
H22 C26 1_555 1_555
H23 C26 1_555 1_555
C27 C12 1_555 1_555
H24 C27 1_555 1_555
H25 C27 1_555 1_555
H26 C27 1_555 1_555
C28 C13 1_555 1_555
H27 C28 1_555 1_555
C29 C28 1_555 1_555
C30 C15 1_555 1_555
C31 C17 1_555 1_555
H28 C31 1_555 1_555
H29 C31 1_555 1_555
C32 C31 1_555 1_555
H30 C32 1_555 1_555
H31 C32 1_555 1_555
C33 C32 1_555 1_555
C34 O5 1_555 1_555
H32 C34 1_555 1_555
H33 C34 1_555 1_555
H34 C34 1_555 1_555
C35 C18 1_555 1_555
H35 C35 1_555 1_555
H36 C35 1_555 1_555
H37 C35 1_555 1_555
C36 O2 1_555 1_555
H38 C36 1_555 1_555
H39 C36 1_555 1_555
H40 C36 1_555 1_555
O6 C58 1_555 1_555
O7 C65 1_555 1_555
O8 C66 1_555 1_555
O9 C69 1_555 1_555
O10 C69 1_555 1_555
N5 H41 1_555 1_555
C37 N5 1_555 1_555
N6 C42 1_555 1_555
C38 C37 1_555 1_555
N7 H42 1_555 1_555
C39 C38 1_555 1_555
N8 C52 1_555 1_555
C40 N5 1_555 1_555
C41 C40 1_555 1_555
H43 C41 1_555 1_555
C42 C41 1_555 1_555
C43 C42 1_555 1_555
H44 C43 1_555 1_555
C44 C43 1_555 1_555
H45 C44 1_555 1_555
C45 N6 1_555 1_555
C46 C45 1_555 1_555
H46 C46 1_555 1_555
C47 N7 1_555 1_555
C48 C47 1_555 1_555
C49 C48 1_555 1_555
C50 N7 1_555 1_555
C51 C50 1_555 1_555
C52 C51 1_555 1_555
C53 C52 1_555 1_555
H47 C53 1_555 1_555
C54 C53 1_555 1_555
H48 C54 1_555 1_555
C55 N8 1_555 1_555
C56 C37 1_555 1_555
H49 C56 1_555 1_555
C57 C38 1_555 1_555
H50 C57 1_555 1_555
H51 C57 1_555 1_555
H52 C57 1_555 1_555
C58 C39 1_555 1_555
C59 C58 1_555 1_555
H53 C59 1_555 1_555
H54 C59 1_555 1_555
H55 C59 1_555 1_555
C60 C43 1_555 1_555
H56 C60 1_555 1_555
H57 C60 1_555 1_555
H58 C60 1_555 1_555
C61 C44 1_555 1_555
H59 C61 1_555 1_555
H60 C61 1_555 1_555
C62 C61 1_555 1_555
H61 C62 1_555 1_555
H62 C62 1_555 1_555
H63 C62 1_555 1_555
C63 C48 1_555 1_555
H64 C63 1_555 1_555
H65 C63 1_555 1_555
H66 C63 1_555 1_555
C64 C49 1_555 1_555
H67 C64 1_555 1_555
C65 C64 1_555 1_555
C66 C51 1_555 1_555
C67 C53 1_555 1_555
H68 C67 1_555 1_555
H69 C67 1_555 1_555
C68 C67 1_555 1_555
H70 C68 1_555 1_555
H71 C68 1_555 1_555
C69 C68 1_555 1_555
C70 O10 1_555 1_555
H72 C70 1_555 1_555
H73 C70 1_555 1_555
H74 C70 1_555 1_555
C71 C54 1_555 1_555
H75 C71 1_555 1_555
H76 C71 1_555 1_555
H77 C71 1_555 1_555
C72 O7 1_555 1_555
H78 C72 1_555 1_555
H79 C72 1_555 1_555
H80 C72 1_555 1_555
O11 C94 1_555 1_555
O12 C101 1_555 1_555
O13 C102 1_555 1_555
N9 H81 1_555 1_555
N10 C78 1_555 1_555
N11 H82 1_555 1_555
N12 C88 1_555 1_555
C73 N9 1_555 1_555
C74 C73 1_555 1_555
C75 C74 1_555 1_555
C76 N9 1_555 1_555
C77 C76 1_555 1_555
H83 C77 1_555 1_555
C78 C77 1_555 1_555
C79 C78 1_555 1_555
H84 C79 1_555 1_555
C80 C79 1_555 1_555
H85 C80 1_555 1_555
C81 N10 1_555 1_555
C82 C81 1_555 1_555
H86 C82 1_555 1_555
C83 N11 1_555 1_555
C84 C83 1_555 1_555
C85 C84 1_555 1_555
C86 N11 1_555 1_555
C87 C86 1_555 1_555
C88 C87 1_555 1_555
C89 C88 1_555 1_555
H87 C89 1_555 1_555
C90 C89 1_555 1_555
H88 C90 1_555 1_555
C91 N12 1_555 1_555
C92 C73 1_555 1_555
H89 C92 1_555 1_555
C93 C74 1_555 1_555
H90 C93 1_555 1_555
H91 C93 1_555 1_555
H92 C93 1_555 1_555
C94 C75 1_555 1_555
C95 C94 1_555 1_555
H93 C95 1_555 1_555
H94 C95 1_555 1_555
H95 C95 1_555 1_555
C96 C79 1_555 1_555
H96 C96 1_555 1_555
H97 C96 1_555 1_555
H98 C96 1_555 1_555
C97 C80 1_555 1_555
H99 C97 1_555 1_555
H100 C97 1_555 1_555
C98 C97 1_555 1_555
H101 C98 1_555 1_555
H102 C98 1_555 1_555
H103 C98 1_555 1_555
C99 C84 1_555 1_555
H104 C99 1_555 1_555
H105 C99 1_555 1_555
H106 C99 1_555 1_555
C100 C85 1_555 1_555
H107 C100 1_555 1_555
C101 C100 1_555 1_555
C102 C87 1_555 1_555
C103 C89 1_555 1_555
H108 C103 1_555 1_555
H109 C103 1_555 1_555
C104 C90 1_555 1_555
H110 C104 1_555 1_555
H111 C104 1_555 1_555
H112 C104 1_555 1_555
C105 O12 1_555 1_555
H113 C105 1_555 1_555
H114 C105 1_555 1_555
H115 C105 1_555 1_555
C106 C103 1_555 1_555
H116 C106 1_555 1_555
H117 C106 1_555 1_555
C107 C106 1_555 1_555
O14 C107 1_555 1_555
O15 C107 1_555 1_555
C108 O15 1_555 1_555
H118 C108 1_555 1_555
H119 C108 1_555 1_555
H120 C108 1_555 1_555
C3 C4 1_555 1_555
C8 C9 1_555 1_555
C10 C11 1_555 1_555
C13 C14 1_555 1_555
C18 C19 1_555 1_555
C19 C20 1_555 1_555
C29 C30 1_555 1_555
C39 C40 1_555 1_555
C44 C45 1_555 1_555
C46 C47 1_555 1_555
C49 C50 1_555 1_555
C54 C55 1_555 1_555
C55 C56 1_555 1_555
C65 C66 1_555 1_555
C75 C76 1_555 1_555
C80 C81 1_555 1_555
C82 C83 1_555 1_555
C85 C86 1_555 1_555
C90 C91 1_555 1_555
C91 C92 1_555 1_555
C101 C102 1_555 1_555

#END
