
#######################################################################
#
#                 Cambridge Crystallographic Data Centre
#                                CCDC 
#
#######################################################################
#
# If this CIF has been generated from an entry in the Cambridge 
# Structural Database, then it will include bibliographic, chemical, 
# crystal, experimental, refinement or atomic coordinate data resulting 
# from the CCDC's data processing and validation procedures.
#
#######################################################################

data_TIKBEU01
_chemical_formula_moiety         'C16 H15 N2 1+,I1 1-'
_chemical_name_systematic        
'(E)-4-(3-Indolylvinyl)-N-methylpyridinium iodide'
_symmetry_cell_setting           triclinic
_symmetry_space_group_name_H-M   'P -1'
_symmetry_Int_Tables_number      2
_space_group_name_Hall           '-P 1'
loop_
_symmetry_equiv_pos_site_id
_symmetry_equiv_pos_as_xyz
1 x,y,z
2 -x,-y,-z
_cell_length_a                   8.097(3)
_cell_length_b                   9.223(4)
_cell_length_c                   10.906(4)
_cell_angle_alpha                76.71(3)
_cell_angle_beta                 73.12(3)
_cell_angle_gamma                75.25(3)
_cell_volume                     742.892
_exptl_crystal_colour            orange
_exptl_crystal_description       'square prism'
_chemical_melting_point          533K
_cell_formula_units_Z            2
loop_
_atom_site_label
_atom_site_type_symbol
_atom_site_fract_x
_atom_site_fract_y
_atom_site_fract_z
I1 I 0.23207(5) 0.38767(4) 0.73216(3)
N1 N 0.3374(5) 0.4479(5) 1.2612(4)
N2 N 1.0015(6) -0.2343(5) 0.7883(5)
H1 H 1.0852 -0.3127 0.7775
C1 C 0.2832(7) 0.4668(6) 1.1519(5)
H2 H 0.1880 0.5440 1.1376
C2 C 0.3668(7) 0.3734(6) 1.0618(4)
H3 H 0.3262 0.3873 0.9876
C3 C 0.5079(7) 0.2609(6) 1.0783(5)
C4 C 0.5595(7) 0.2399(6) 1.1952(6)
H4 H 0.6522 0.1615 1.2126
C5 C 0.4721(8) 0.3359(6) 1.2829(5)
H5 H 0.5076 0.3227 1.3592
C6 C 0.5943(7) 0.1685(6) 0.9758(5)
H6 H 0.5539 0.1970 0.9004
C7 C 0.7266(7) 0.0463(6) 0.9805(6)
H7 H 0.7672 0.0180 1.0558
C8 C 0.8110(7) -0.0443(6) 0.8802(5)
C9 C 0.9432(7) -0.1677(7) 0.8963(6)
H8 H 0.9868 -0.2012 0.9702
C10 C 0.9068(6) -0.1576(6) 0.6995(5)
C11 C 0.9193(8) -0.1870(7) 0.5775(6)
H9 H 1.0033 -0.2670 0.5439
C12 C 0.8042(10) -0.0947(7) 0.5085(6)
H10 H 0.8076 -0.1131 0.4274
C13 C 0.6794(9) 0.0292(7) 0.5600(6)
H11 H 0.6030 0.0920 0.5114
C14 C 0.6701(7) 0.0572(6) 0.6789(6)
H12 H 0.5864 0.1377 0.7119
C15 C 0.7849(6) -0.0338(5) 0.7512(5)
C16 C 0.2450(9) 0.5521(7) 1.3553(6)
H13 H 0.2265 0.4949 1.4419
H14 H 0.1333 0.6041 1.3378
H15 H 0.3150 0.6251 1.3474
loop_
_geom_bond_atom_site_label_1
_geom_bond_atom_site_label_2
_geom_bond_site_symmetry_1
_geom_bond_site_symmetry_2
N1 C1 1_555 1_555
N2 H1 1_555 1_555
C1 H2 1_555 1_555
C2 C1 1_555 1_555
H3 C2 1_555 1_555
C3 C2 1_555 1_555
C4 C3 1_555 1_555
H4 C4 1_555 1_555
C5 N1 1_555 1_555
H5 C5 1_555 1_555
C6 C3 1_555 1_555
H6 C6 1_555 1_555
C7 C6 1_555 1_555
H7 C7 1_555 1_555
C8 C7 1_555 1_555
C9 N2 1_555 1_555
H8 C9 1_555 1_555
C10 N2 1_555 1_555
C11 C10 1_555 1_555
H9 C11 1_555 1_555
C12 C11 1_555 1_555
H10 C12 1_555 1_555
C13 C12 1_555 1_555
H11 C13 1_555 1_555
C14 C13 1_555 1_555
H12 C14 1_555 1_555
C15 C8 1_555 1_555
C16 N1 1_555 1_555
H13 C16 1_555 1_555
H14 C16 1_555 1_555
H15 C16 1_555 1_555
C4 C5 1_555 1_555
C8 C9 1_555 1_555
C10 C15 1_555 1_555
C14 C15 1_555 1_555

#END
