
#######################################################################
#
#                 Cambridge Crystallographic Data Centre
#                                CCDC 
#
#######################################################################
#
# If this CIF has been generated from an entry in the Cambridge 
# Structural Database, then it will include bibliographic, chemical, 
# crystal, experimental, refinement or atomic coordinate data resulting 
# from the CCDC's data processing and validation procedures.
#
#######################################################################

data_TIKBEU
_chemical_formula_moiety         'C16 H15 N2 1+,I1 1-'
_chemical_name_systematic        
'(E)-4-(3-Indolylvinyl)-N-methylpyridinium iodide'
_symmetry_cell_setting           monoclinic
_symmetry_space_group_name_H-M   'P 21/c'
_symmetry_Int_Tables_number      14
_space_group_name_Hall           '-P 2ybc'
loop_
_symmetry_equiv_pos_site_id
_symmetry_equiv_pos_as_xyz
1 x,y,z
2 x,1/2-y,1/2+z
3 -x,-y,-z
4 -x,1/2+y,1/2-z
_cell_length_a                   7.3189(17)
_cell_length_b                   20.960(5)
_cell_length_c                   10.009(2)
_cell_angle_alpha                90
_cell_angle_beta                 102.597(6)
_cell_angle_gamma                90
_cell_volume                     1498.46
_exptl_crystal_colour            yellow
_exptl_crystal_description       needle
_chemical_melting_point          533K
_cell_formula_units_Z            4
_exptl_crystal_recrystallization_method dmso
loop_
_atom_site_label
_atom_site_type_symbol
_atom_site_fract_x
_atom_site_fract_y
_atom_site_fract_z
I1 I 0.02121(6) 0.126956(18) 0.17654(4)
N1 N -0.0366(6) -0.1550(2) 0.2561(5)
N2 N 0.6408(6) 0.0780(2) 0.9048(5)
H1 H 0.7110 0.0812 0.9879
C1 C -0.0308(8) -0.0942(3) 0.2200(6)
H2 H -0.0946 -0.0823 0.1304
C2 C 0.0593(9) -0.0488(3) 0.3021(7)
H3 H 0.0581 -0.0060 0.2706
C3 C 0.1511(8) -0.0636(3) 0.4287(7)
C4 C 0.1474(8) -0.1279(3) 0.4758(6)
H4 H 0.2081 -0.1398 0.5662
C5 C 0.0517(8) -0.1716(3) 0.3842(6)
H5 H 0.0476 -0.2148 0.4120
C6 C 0.2525(9) -0.0113(3) 0.5145(7)
H6 H 0.2392 0.0305 0.4772
C7 C 0.3556(9) -0.0179(4) 0.6335(7)
H7 H 0.3679 -0.0598 0.6709
C8 C 0.4594(9) 0.0344(3) 0.7200(7)
C9 C 0.5680(9) 0.0233(3) 0.8468(6)
H8 H 0.5893 -0.0175 0.8884
C10 C 0.5907(7) 0.1283(3) 0.8165(5)
C11 C 0.6386(8) 0.1920(3) 0.8342(6)
H9 H 0.7138 0.2076 0.9173
C12 C 0.5709(9) 0.2316(3) 0.7242(8)
H10 H 0.6027 0.2757 0.7290
C13 C 0.4546(8) 0.2065(4) 0.6048(7)
H11 H 0.4081 0.2347 0.5310
C14 C 0.4056(8) 0.1442(4) 0.5897(7)
H12 H 0.3260 0.1296 0.5074
C15 C 0.4724(7) 0.1020(3) 0.6952(5)
C16 C -0.1381(8) -0.2031(3) 0.1614(6)
H13 H -0.1446 -0.1894 0.0668
H14 H -0.2651 -0.2079 0.1767
H15 H -0.0722 -0.2440 0.1774
loop_
_geom_bond_atom_site_label_1
_geom_bond_atom_site_label_2
_geom_bond_site_symmetry_1
_geom_bond_site_symmetry_2
N1 C1 1_555 1_555
N2 H1 1_555 1_555
C1 H2 1_555 1_555
C2 C1 1_555 1_555
H3 C2 1_555 1_555
C3 C2 1_555 1_555
C4 C3 1_555 1_555
H4 C4 1_555 1_555
C5 N1 1_555 1_555
H5 C5 1_555 1_555
C6 C3 1_555 1_555
H6 C6 1_555 1_555
C7 C6 1_555 1_555
H7 C7 1_555 1_555
C8 C7 1_555 1_555
C9 N2 1_555 1_555
H8 C9 1_555 1_555
C10 N2 1_555 1_555
C11 C10 1_555 1_555
H9 C11 1_555 1_555
C12 C11 1_555 1_555
H10 C12 1_555 1_555
C13 C12 1_555 1_555
H11 C13 1_555 1_555
C14 C13 1_555 1_555
H12 C14 1_555 1_555
C15 C8 1_555 1_555
C16 N1 1_555 1_555
H13 C16 1_555 1_555
H14 C16 1_555 1_555
H15 C16 1_555 1_555
C4 C5 1_555 1_555
C8 C9 1_555 1_555
C10 C15 1_555 1_555
C14 C15 1_555 1_555

#END
