
#######################################################################
#
#                 Cambridge Crystallographic Data Centre
#                                CCDC 
#
#######################################################################
#
# If this CIF has been generated from an entry in the Cambridge 
# Structural Database, then it will include bibliographic, chemical, 
# crystal, experimental, refinement or atomic coordinate data resulting 
# from the CCDC's data processing and validation procedures.
#
#######################################################################

data_TIKDAS
_chemical_name_common            4,6-O-Benzylidene-alpha-D-glucopyranoside
_chemical_formula_moiety         'C18 H18 O8'
_chemical_name_systematic        
'Methyl 4-methoxy-2-oxo-8-phenyl-1,2,5a,6,9a,9b-hexa-hydro-4H,8H-7,9-dioxacyclopental(c)chromene-3-carboxylate'
_symmetry_cell_setting           orthorhombic
_symmetry_space_group_name_H-M   'P 21 21 21'
_symmetry_Int_Tables_number      19
_space_group_name_Hall           'P 2ac 2ab'
loop_
_symmetry_equiv_pos_site_id
_symmetry_equiv_pos_as_xyz
1 x,y,z
2 1/2-x,-y,1/2+z
3 -x,1/2+y,1/2-z
4 1/2+x,1/2-y,-z
_cell_length_a                   22.469(5)
_cell_length_b                   4.6467(9)
_cell_length_c                   16.501(3)
_cell_angle_alpha                90
_cell_angle_beta                 90
_cell_angle_gamma                90
_cell_volume                     1722.81
_exptl_crystal_colour            colorless
_exptl_crystal_description       prism
_chemical_melting_point          443-445K
_cell_formula_units_Z            4
_exptl_crystal_recrystallization_method methanol/acetone
loop_
_atom_site_label
_atom_site_type_symbol
_atom_site_fract_x
_atom_site_fract_y
_atom_site_fract_z
O1 O 0.15952(6) 0.4688(3) 0.32087(6)
O2 O 0.31517(7) 0.0894(5) 0.07470(8)
O3 O 0.23100(5) 0.3476(4) 0.07963(7)
O4 O 0.10271(5) 0.5107(3) 0.04932(5)
O5 O 0.10115(5) 0.1443(3) 0.24604(6)
O6 O 0.00484(5) 0.4733(3) 0.09490(6)
O7 O 0.31436(7) -0.3078(4) 0.22505(8)
O8 O 0.27567(6) -0.0519(4) 0.32712(7)
C1 C 0.15797(8) 0.2072(4) 0.27957(9)
H1 H 0.1699 0.0516 0.3162
C2 C 0.20214(8) 0.2292(4) 0.21037(8)
C3 C 0.18521(8) 0.4054(5) 0.13776(9)
H2 H 0.1858 0.6101 0.1521
C4 C 0.12355(7) 0.3216(4) 0.11118(8)
H3 H 0.1237 0.1230 0.0911
C5 C 0.08295(8) 0.3454(4) 0.18538(9)
H4 H 0.0850 0.5411 0.2073
C6 C 0.01979(8) 0.2799(5) 0.15934(9)
H5 H 0.0168 0.0822 0.1409
H6 H -0.0073 0.3061 0.2045
C7 C 0.13260(11) 0.4512(6) 0.39997(10)
H7 H 0.1373 0.6317 0.4275
H8 H 0.1515 0.3016 0.4307
H9 H 0.0910 0.4087 0.3944
C8 C 0.25321(8) 0.0942(4) 0.19680(9)
C9 C 0.28524(8) -0.1123(5) 0.24944(10)
C10 C 0.29887(11) -0.2571(6) 0.38519(13)
H10 H 0.2909 -0.1904 0.4392
H11 H 0.3411 -0.2767 0.3778
H12 H 0.2801 -0.4404 0.3771
C11 C 0.04338(7) 0.4382(4) 0.02755(9)
H13 H 0.0420 0.2377 0.0092
C12 C 0.02272(8) 0.6318(4) -0.03955(9)
C13 C -0.03775(9) 0.6585(6) -0.05419(10)
H14 H -0.0647 0.5584 -0.0221
C14 C -0.05827(10) 0.8321(7) -0.11589(11)
H15 H -0.0990 0.8502 -0.1249
C15 C -0.01877(10) 0.9780(6) -0.16404(10)
H16 H -0.0328 1.0975 -0.2050
C16 C 0.04172(10) 0.9485(6) -0.15192(10)
H17 H 0.0685 1.0444 -0.1854
C17 C 0.06238(9) 0.7749(5) -0.08959(9)
H18 H 0.1031 0.7544 -0.0813
C18 C 0.27312(9) 0.1657(6) 0.11221(11)
loop_
_geom_bond_atom_site_label_1
_geom_bond_atom_site_label_2
_geom_bond_site_symmetry_1
_geom_bond_site_symmetry_2
O1 C1 1_555 1_555
O2 C18 1_555 1_555
O3 C3 1_555 1_555
O4 C4 1_555 1_555
O5 C1 1_555 1_555
O6 C6 1_555 1_555
O7 C9 1_555 1_555
O8 C9 1_555 1_555
C1 H1 1_555 1_555
C2 C1 1_555 1_555
C3 C2 1_555 1_555
H2 C3 1_555 1_555
C4 C3 1_555 1_555
H3 C4 1_555 1_555
C5 O5 1_555 1_555
H4 C5 1_555 1_555
C6 C5 1_555 1_555
H5 C6 1_555 1_555
H6 C6 1_555 1_555
C7 O1 1_555 1_555
H7 C7 1_555 1_555
H8 C7 1_555 1_555
H9 C7 1_555 1_555
C8 C2 1_555 1_555
C9 C8 1_555 1_555
C10 O8 1_555 1_555
H10 C10 1_555 1_555
H11 C10 1_555 1_555
H12 C10 1_555 1_555
C11 O4 1_555 1_555
H13 C11 1_555 1_555
C12 C11 1_555 1_555
C13 C12 1_555 1_555
H14 C13 1_555 1_555
C14 C13 1_555 1_555
H15 C14 1_555 1_555
C15 C14 1_555 1_555
H16 C15 1_555 1_555
C16 C15 1_555 1_555
H17 C16 1_555 1_555
C17 C12 1_555 1_555
H18 C17 1_555 1_555
C18 O3 1_555 1_555
O6 C11 1_555 1_555
C4 C5 1_555 1_555
C8 C18 1_555 1_555
C16 C17 1_555 1_555

#END
