
#######################################################################
#
#                 Cambridge Crystallographic Data Centre
#                                CCDC 
#
#######################################################################
#
# If this CIF has been generated from an entry in the Cambridge 
# Structural Database, then it will include bibliographic, chemical, 
# crystal, experimental, refinement or atomic coordinate data resulting 
# from the CCDC's data processing and validation procedures.
#
#######################################################################

data_TIKFAW01
_chemical_formula_moiety         'C30 H20 Br2'
_chemical_name_systematic        
1,1',1'',1'''-(5-(Dibromomethylene)cyclopenta-1,3-diene-1,2,3,4-tetrayl)tetrabenzene
_symmetry_cell_setting           monoclinic
_symmetry_space_group_name_H-M   'P c'
_symmetry_Int_Tables_number      7
_space_group_name_Hall           'P -2yc'
loop_
_symmetry_equiv_pos_site_id
_symmetry_equiv_pos_as_xyz
1 x,y,z
2 x,-y,1/2+z
_cell_length_a                   6.4541(3)
_cell_length_b                   11.8259(6)
_cell_length_c                   14.8702(8)
_cell_angle_alpha                90
_cell_angle_beta                 91.197(2)
_cell_angle_gamma                90
_cell_volume                     1134.73
_exptl_crystal_colour            orange
_exptl_crystal_description       rod
_cell_formula_units_Z            2
_exptl_crystal_recrystallization_method dichloromethane/n-pentane
loop_
_atom_site_label
_atom_site_type_symbol
_atom_site_fract_x
_atom_site_fract_y
_atom_site_fract_z
Br1 Br 0.66600(6) 1.08262(3) 0.71116(3)
Br2 Br 0.33102(4) 0.93470(3) 0.79460(2)
C1 C 0.5347(6) 0.9406(3) 0.7063(3)
C2 C 0.5795(5) 0.8571(3) 0.6489(2)
C3 C 0.5782(5) 0.6818(3) 0.5817(2)
C4 C 0.8008(5) 0.7306(3) 0.4418(2)
C5 C 0.9473(6) 0.6862(3) 0.2699(3)
H1 H 0.9966 0.6715 0.2113
C6 C 0.7130(5) 0.7589(3) 0.5300(2)
C7 C 0.4930(5) 0.7407(3) 0.6501(2)
C8 C 0.4145(5) 0.6343(3) 0.7914(2)
H2 H 0.5584 0.6316 0.8059
C9 C 0.7197(5) 0.8609(3) 0.5713(2)
C10 C 0.3466(5) 0.6915(3) 0.7154(2)
C11 C 0.8363(5) 0.9601(3) 0.5375(2)
C12 C 1.0013(6) 0.7616(3) 0.4181(3)
H3 H 1.0892 0.7981 0.4611
C13 C 0.6770(6) 0.6753(3) 0.3774(2)
H4 H 0.5410 0.6522 0.3924
C14 C 0.5729(6) 0.3217(3) 0.5501(2)
H5 H 0.5741 0.2418 0.5438
C15 C 0.3939(6) 0.3769(3) 0.5739(2)
H6 H 0.2720 0.3345 0.5848
C16 C 0.7507(6) 0.3838(3) 0.5355(2)
H7 H 0.8744 0.3464 0.5188
C17 C 0.7488(6) 0.6537(3) 0.2923(3)
H8 H 0.6621 0.6165 0.2492
C18 C 0.7582(6) 1.0206(3) 0.4643(2)
H9 H 0.6275 1.0014 0.4379
C19 C 0.2752(6) 0.5810(3) 0.8467(3)
H10 H 0.3241 0.5410 0.8984
C20 C 0.1366(6) 0.6955(3) 0.6966(3)
H11 H 0.0873 0.7350 0.6448
C21 C 0.8736(7) 1.1095(3) 0.4299(3)
H12 H 0.8215 1.1502 0.3791
C22 C 1.0736(6) 0.7400(3) 0.3327(3)
H13 H 1.2099 0.7621 0.3174
C23 C 0.0673(6) 0.5856(3) 0.8273(3)
H14 H -0.0284 0.5494 0.8655
C24 C 1.0603(6) 1.1395(3) 0.4678(3)
H15 H 1.1356 1.2016 0.4444
C25 C 0.3899(5) 0.4937(3) 0.5821(2)
H16 H 0.2647 0.5306 0.5972
C26 C 1.1381(7) 1.0796(3) 0.5397(4)
H17 H 1.2691 1.0994 0.5654
C27 C 0.5704(5) 0.5579(3) 0.5682(2)
C28 C 1.0277(6) 0.9903(3) 0.5751(3)
H18 H 1.0827 0.9496 0.6253
C29 C -0.0029(6) 0.6431(4) 0.7518(3)
H19 H -0.1471 0.6465 0.7379
C30 C 0.7492(5) 0.4999(3) 0.5451(2)
H20 H 0.8731 0.5412 0.5358
loop_
_geom_bond_atom_site_label_1
_geom_bond_atom_site_label_2
_geom_bond_site_symmetry_1
_geom_bond_site_symmetry_2
Br1 C1 1_555 1_555
Br2 C1 1_555 1_555
C1 C2 1_555 1_555
C2 C7 1_555 1_555
C3 C6 1_555 1_555
C4 C6 1_555 1_555
C5 H1 1_555 1_555
C6 C9 1_555 1_555
C7 C3 1_555 1_555
C8 H2 1_555 1_555
C9 C2 1_555 1_555
C10 C7 1_555 1_555
C11 C9 1_555 1_555
C12 C4 1_555 1_555
H3 C12 1_555 1_555
C13 C4 1_555 1_555
H4 C13 1_555 1_555
C14 H5 1_555 1_555
C15 C14 1_555 1_555
H6 C15 1_555 1_555
C16 C14 1_555 1_555
H7 C16 1_555 1_555
C17 C5 1_555 1_555
H8 C17 1_555 1_555
C18 C11 1_555 1_555
H9 C18 1_555 1_555
C19 C8 1_555 1_555
H10 C19 1_555 1_555
C20 C10 1_555 1_555
H11 C20 1_555 1_555
C21 C18 1_555 1_555
H12 C21 1_555 1_555
C22 C5 1_555 1_555
H13 C22 1_555 1_555
C23 C19 1_555 1_555
H14 C23 1_555 1_555
C24 C21 1_555 1_555
H15 C24 1_555 1_555
C25 C15 1_555 1_555
H16 C25 1_555 1_555
C26 C24 1_555 1_555
H17 C26 1_555 1_555
C27 C3 1_555 1_555
C28 C11 1_555 1_555
H18 C28 1_555 1_555
C29 C20 1_555 1_555
H19 C29 1_555 1_555
C30 C16 1_555 1_555
H20 C30 1_555 1_555
C8 C10 1_555 1_555
C12 C22 1_555 1_555
C13 C17 1_555 1_555
C23 C29 1_555 1_555
C25 C27 1_555 1_555
C26 C28 1_555 1_555
C27 C30 1_555 1_555

#END
