
#######################################################################
#
#                 Cambridge Crystallographic Data Centre
#                                CCDC 
#
#######################################################################
#
# If this CIF has been generated from an entry in the Cambridge 
# Structural Database, then it will include bibliographic, chemical, 
# crystal, experimental, refinement or atomic coordinate data resulting 
# from the CCDC's data processing and validation procedures.
#
#######################################################################

data_TIKPIO
_chemical_formula_moiety         'C28 H16 O4'
_chemical_name_systematic        
'Dimethyl 5,6,11,12,17,18-hexadehydrotribenzo[a,e,i][12]annulene-2,3-dicarboxylate'
_symmetry_cell_setting           monoclinic
_symmetry_space_group_name_H-M   'C 2/c'
_symmetry_Int_Tables_number      15
_space_group_name_Hall           '-C 2yn'
loop_
_symmetry_equiv_pos_site_id
_symmetry_equiv_pos_as_xyz
1 x,y,z
2 -x,y,1/2-z
3 1/2+x,1/2+y,z
4 1/2-x,1/2+y,1/2-z
5 -x,-y,-z
6 x,-y,1/2+z
7 1/2-x,1/2-y,-z
8 1/2+x,1/2-y,1/2+z
_cell_length_a                   32.6125(8)
_cell_length_b                   7.51679(19)
_cell_length_c                   18.3878(4)
_cell_angle_alpha                90
_cell_angle_beta                 115.7470(13)
_cell_angle_gamma                90
_cell_volume                     4060.1
_exptl_crystal_colour            yellow
_exptl_crystal_description       chunk
_cell_formula_units_Z            8
loop_
_atom_site_label
_atom_site_type_symbol
_atom_site_fract_x
_atom_site_fract_y
_atom_site_fract_z
O1 O 0.28414(11) 0.6992(5) 0.4102(2)
O2 O 0.31222(10) 0.9660(4) 0.4655(2)
O3 O 0.31373(11) 0.5710(5) 0.2286(2)
O4 O 0.28509(11) 0.8106(4) 0.2634(2)
C1 C 0.44041(15) 0.7925(7) 0.4895(3)
C2 C 0.39844(15) 0.8296(6) 0.4899(2)
C3 C 0.35749(16) 0.7921(6) 0.4227(3)
C4 C 0.35882(16) 0.7171(6) 0.3537(2)
C5 C 0.39999(16) 0.6779(6) 0.3539(3)
C6 C 0.44111(16) 0.7125(6) 0.4210(2)
C7 C 0.48379(17) 0.6705(7) 0.4187(3)
C8 C 0.51784(18) 0.6329(7) 0.4153(3)
C9 C 0.56006(16) 0.5906(7) 0.4131(3)
C10 C 0.56101(17) 0.5038(7) 0.3467(3)
C11 C 0.60189(17) 0.4633(7) 0.3447(3)
C12 C 0.64278(17) 0.5094(7) 0.4079(3)
C13 C 0.64272(17) 0.5927(7) 0.4749(3)
C14 C 0.60220(17) 0.6329(6) 0.4790(3)
C15 C 0.60235(16) 0.7124(7) 0.5504(3)
C16 C 0.60184(16) 0.7763(7) 0.6098(3)
C17 C 0.60131(16) 0.8586(6) 0.6794(2)
C18 C 0.64280(17) 0.8934(7) 0.7467(3)
C19 C 0.64322(18) 0.9840(7) 0.8129(3)
C20 C 0.60243(18) 1.0387(7) 0.8121(3)
C21 C 0.56175(18) 0.9976(7) 0.7480(3)
C22 C 0.56018(16) 0.9092(7) 0.6809(3)
C23 C 0.51754(18) 0.8687(7) 0.6132(3)
C24 C 0.48209(17) 0.8364(7) 0.5579(3)
C25 C 0.31388(17) 0.8104(8) 0.4302(3)
C26 C 0.27069(16) 0.9938(8) 0.4745(3)
C27 C 0.31709(17) 0.6870(7) 0.2760(3)
C28 C 0.24312(16) 0.7879(8) 0.1908(3)
H1 H 0.3978 0.8812 0.5365
H2 H 0.4005 0.6259 0.3072
H3 H 0.5332 0.4721 0.3024
H4 H 0.6018 0.4030 0.2992
H5 H 0.6707 0.4842 0.4055
H6 H 0.6709 0.6231 0.5188
H7 H 0.6706 0.8551 0.7468
H8 H 0.6712 1.0082 0.8584
H9 H 0.6026 1.1051 0.8562
H10 H 0.5341 1.0306 0.7498
H11 H 0.2482 1.0539 0.4264
H12 H 0.2772 1.0675 0.5222
H13 H 0.2586 0.8787 0.4809
H14 H 0.2451 0.8525 0.1461
H15 H 0.2177 0.8348 0.1998
H16 H 0.2382 0.6612 0.1773
loop_
_geom_bond_atom_site_label_1
_geom_bond_atom_site_label_2
_geom_bond_site_symmetry_1
_geom_bond_site_symmetry_2
O1 C25 1_555 1_555
O2 C25 1_555 1_555
O3 C27 1_555 1_555
O4 C27 1_555 1_555
C1 C2 1_555 1_555
C2 C3 1_555 1_555
C3 C4 1_555 1_555
C4 C5 1_555 1_555
C5 C6 1_555 1_555
C6 C1 1_555 1_555
C7 C6 1_555 1_555
C8 C7 1_555 1_555
C9 C8 1_555 1_555
C10 C9 1_555 1_555
C11 C10 1_555 1_555
C12 C11 1_555 1_555
C13 C12 1_555 1_555
C14 C9 1_555 1_555
C15 C14 1_555 1_555
C16 C15 1_555 1_555
C17 C16 1_555 1_555
C18 C17 1_555 1_555
C19 C18 1_555 1_555
C20 C19 1_555 1_555
C21 C20 1_555 1_555
C22 C17 1_555 1_555
C23 C22 1_555 1_555
C24 C1 1_555 1_555
C25 C3 1_555 1_555
C26 O2 1_555 1_555
C27 C4 1_555 1_555
C28 O4 1_555 1_555
H1 C2 1_555 1_555
H2 C5 1_555 1_555
H3 C10 1_555 1_555
H4 C11 1_555 1_555
H5 C12 1_555 1_555
H6 C13 1_555 1_555
H7 C18 1_555 1_555
H8 C19 1_555 1_555
H9 C20 1_555 1_555
H10 C21 1_555 1_555
H11 C26 1_555 1_555
H12 C26 1_555 1_555
H13 C26 1_555 1_555
H14 C28 1_555 1_555
H15 C28 1_555 1_555
H16 C28 1_555 1_555
C13 C14 1_555 1_555
C21 C22 1_555 1_555
C23 C24 1_555 1_555

#END
