
#######################################################################
#
#                 Cambridge Crystallographic Data Centre
#                                CCDC 
#
#######################################################################
#
# If this CIF has been generated from an entry in the Cambridge 
# Structural Database, then it will include bibliographic, chemical, 
# crystal, experimental, refinement or atomic coordinate data resulting 
# from the CCDC's data processing and validation procedures.
#
#######################################################################

data_TIKRUB
_chemical_formula_moiety         'C22 H27 N3 O11 S1,H2 O1'
_chemical_name_systematic        
'N-(2,3,4,6-Tetra-O-acetyl-\b-D-glucopyranosyl) thiocarbamic 2,4-dihydroxybenzoyl hydrazine monohydrate'
_symmetry_cell_setting           tetragonal
_symmetry_space_group_name_H-M   'P 43 21 2'
_symmetry_Int_Tables_number      96
_space_group_name_Hall           'P 4nw 2abw'
loop_
_symmetry_equiv_pos_site_id
_symmetry_equiv_pos_as_xyz
1 x,y,z
2 1/2-y,1/2+x,3/4+z
3 1/2+x,1/2-y,1/4-z
4 -x,-y,1/2+z
5 y,x,-z
6 1/2+y,1/2-x,1/4+z
7 1/2-x,1/2+y,3/4-z
8 -y,-x,1/2-z
_cell_length_a                   12.0199(7)
_cell_length_b                   12.0199(7)
_cell_length_c                   38.877(3)
_cell_angle_alpha                90
_cell_angle_beta                 90
_cell_angle_gamma                90
_cell_volume                     5616.87
_exptl_crystal_colour            yellow
_exptl_crystal_description       needle
_cell_formula_units_Z            8
loop_
_atom_site_label
_atom_site_type_symbol
_atom_site_fract_x
_atom_site_fract_y
_atom_site_fract_z
O1 O 0.0190(5) 0.5111(6) 0.27580(1)
S1 S 0.2517(1) 0.6962(1) 0.27382(3)
O2 O 0.1422(3) 0.3612(3) 0.23792(9)
O3 O -0.0092(5) 0.2545(5) 0.28740(1)
O4 O 0.164(1) 0.2180(1) 0.29430(2)
O5 O 0.1274(4) 0.0873(4) 0.19930(1)
O6 O 0.0140(1) 0.1058(9) 0.15110(3)
O7 O 0.2767(4) 0.2123(3) 0.15433(9)
O8 O 0.4190(4) 0.0910(3) 0.16320(5)
O10 O 0.4075(4) 0.3620(4) 0.19360(1)
O11 O 0.3868(8) 0.5284(5) 0.16870(2)
O12 O 0.2345(5) 0.7146(3) 0.37040(1)
O13 O 0.1017(4) 0.6626(4) 0.48255(9)
N1 N 0.2724(4) 0.5016(4) 0.23880(1)
N2 N 0.2394(4) 0.4868(4) 0.29670(1)
N3 N 0.2226(4) 0.5474(4) 0.32710(1)
C1 C 0.1226(5) 0.2449(5) 0.23790(1)
C2 C 0.1426(5) 0.2058(5) 0.20070(2)
C3 C 0.2609(5) 0.2314(4) 0.19070(1)
C4 C 0.2911(5) 0.3511(5) 0.19760(1)
C5 C 0.2583(5) 0.3852(4) 0.23404(12)
C6 C 0.0055(6) 0.2260(7) 0.25200(2)
C7 C 0.0750(1) 0.2460(1) 0.30730(3)
C8 C 0.0620(1) 0.2790(1) 0.34210(2)
C9 C 0.0610(1) 0.0450(1) 0.17530(4)
C10 C 0.0510(1) -0.0761(8) 0.17760(3)
C11 C 0.3520(7) 0.1390(6) 0.14330(15)
C12 C 0.3614(3) 0.1363(6) 0.10518(15)
C13 C 0.4464(9) 0.4551(8) 0.17930(2)
C14 C 0.5681(11) 0.4560(12) 0.17770(3)
C15 C 0.2558(4) 0.5480(4) 0.27026(11)
C16 C 0.1928(4) 0.4874(4) 0.35228(11)
C17 C 0.1705(4) 0.5338(4) 0.38613(11)
C18 C 0.1918(5) 0.6451(4) 0.39421(13)
C19 C 0.1705(5) 0.6850(5) 0.42655(13)
C20 C 0.1244(5) 0.6167(5) 0.45131(12)
C21 C 0.1049(5) 0.5058(5) 0.44441(12)
C22 C 0.1287(5) 0.4650(5) 0.41152(12)
O9? O 0.3660(7) 0.0630(3) 0.16600(1)
loop_
_geom_bond_atom_site_label_1
_geom_bond_atom_site_label_2
_geom_bond_site_symmetry_1
_geom_bond_site_symmetry_2
S1 C15 1_555 1_555
O2 C1 1_555 1_555
O3 C6 1_555 1_555
O4 C7 1_555 1_555
O5 C2 1_555 1_555
O6 C9 1_555 1_555
O7 C3 1_555 1_555
O8 C11 1_555 1_555
O10 C4 1_555 1_555
O11 C13 1_555 1_555
O12 C18 1_555 1_555
O13 C20 1_555 1_555
N1 C5 1_555 1_555
N2 N3 1_555 1_555
N3 C16 1_555 1_555
C1 C2 1_555 1_555
C2 C3 1_555 1_555
C3 C4 1_555 1_555
C4 C5 1_555 1_555
C5 O2 1_555 1_555
C6 C1 1_555 1_555
C7 O3 1_555 1_555
C8 C7 1_555 1_555
C9 O5 1_555 1_555
C10 C9 1_555 1_555
C11 O7 1_555 1_555
C12 C11 1_555 1_555
C13 O10 1_555 1_555
C14 C13 1_555 1_555
C15 N1 1_555 1_555
C16 C17 1_555 1_555
C17 C18 1_555 1_555
C18 C19 1_555 1_555
C19 C20 1_555 1_555
C20 C21 1_555 1_555
C21 C22 1_555 1_555
C22 C17 1_555 1_555
N2 C15 1_555 1_555

#END
