
#######################################################################
#
#                 Cambridge Crystallographic Data Centre
#                                CCDC 
#
#######################################################################
#
# If this CIF has been generated from an entry in the Cambridge 
# Structural Database, then it will include bibliographic, chemical, 
# crystal, experimental, refinement or atomic coordinate data resulting 
# from the CCDC's data processing and validation procedures.
#
#######################################################################

data_TIKREN
_chemical_formula_moiety         'C95 H150 O10,1.65(C2 H3 N1),0.35(C1 H2 Cl2)'
_chemical_name_systematic        
'4,9,14,19,24,26,28,30,32,34-decakis(hexyloxy)hexacyclo[21.2.2.2^3,6^.2^8,11^.2^13,16^.2^18,21^]pentatriaconta-1(25),3,5,8,10,13,15,18,20,23,26,28,30,32,34-pentadecaene acetonitrile dichloromethane solvate'
_symmetry_cell_setting           triclinic
_symmetry_space_group_name_H-M   'P -1'
_symmetry_Int_Tables_number      2
_space_group_name_Hall           '-P 1'
loop_
_symmetry_equiv_pos_site_id
_symmetry_equiv_pos_as_xyz
1 x,y,z
2 -x,-y,-z
_cell_length_a                   12.18936(18)
_cell_length_b                   20.5151(3)
_cell_length_c                   20.9676(3)
_cell_angle_alpha                113.1244(12)
_cell_angle_beta                 96.6891(12)
_cell_angle_gamma                97.9850(11)
_cell_volume                     4690.29
_exptl_crystal_colour            colorless
_exptl_crystal_description       prism
_cell_formula_units_Z            2
loop_
_atom_site_label
_atom_site_type_symbol
_atom_site_fract_x
_atom_site_fract_y
_atom_site_fract_z
N1 N 0.1409(3) 0.69825(16) 0.35627(13)
C96 C 0.1541(2) 0.64137(17) 0.33082(12)
C97 C 0.1746(3) 0.56892(18) 0.29850(14)
H151 H 0.185151 0.558134 0.250018
H152 H 0.110022 0.534291 0.297895
H153 H 0.242679 0.565141 0.325649
N2 N 0.2739(6) 0.2859(4) 0.1328(4)
C99 C 0.2557(4) 0.3407(3) 0.1591(3)
C100 C 0.2274(4) 0.4107(2) 0.1976(2)
H156 H 0.146792 0.403928 0.199259
H157 H 0.245143 0.442286 0.173734
H158 H 0.271369 0.432837 0.245850
O1 O 0.48396(8) 0.68045(5) 0.31771(5)
O2 O 0.44828(8) 0.43611(5) 0.07061(5)
O3 O 0.16671(8) 0.61480(5) 0.11844(5)
O4 O 0.04235(8) 0.31581(5) -0.01218(5)
O5 O -0.19355(8) 0.49404(5) 0.15455(5)
O6 O -0.07924(8) 0.26150(5) 0.19963(5)
O7 O -0.05909(8) 0.51500(5) 0.39846(5)
O8 O 0.22918(8) 0.33342(5) 0.41455(5)
O9 O 0.36586(10) 0.62703(5) 0.52234(5)
O10 O 0.52535(8) 0.42913(5) 0.30564(5)
C1 C 0.58805(11) 0.57295(7) 0.32920(7)
H1 H 0.646686 0.543229 0.320391
H2 H 0.626586 0.624090 0.357024
C2 C 0.33131(11) 0.54045(7) 0.06134(7)
H3 H 0.329232 0.588220 0.060589
H4 H 0.363792 0.511789 0.020638
C3 C -0.12255(11) 0.39057(7) 0.04450(6)
H5 H -0.178322 0.418219 0.035544
H6 H -0.139856 0.341869 0.004971
C4 C -0.13759(11) 0.36835(7) 0.31299(6)
H7 H -0.192291 0.396146 0.336902
H8 H -0.163794 0.317108 0.304026
C5 C 0.30575(11) 0.48102(7) 0.49720(7)
H9 H 0.303037 0.521844 0.541925
H10 H 0.335291 0.443560 0.508674
C6 C 0.52514(11) 0.56526(7) 0.25904(7)
C7 C 0.47258(11) 0.62019(7) 0.25521(7)
C8 C 0.41316(11) 0.61252(7) 0.19088(7)
H11 H 0.377981 0.650392 0.188939
C9 C 0.40447(11) 0.55056(7) 0.12964(7)
C10 C 0.45889(11) 0.49592(7) 0.13294(7)
C11 C 0.51857(11) 0.50371(7) 0.19730(7)
H12 H 0.555380 0.466395 0.199055
C12 C 0.21287(11) 0.50178(7) 0.05534(6)
C13 C 0.13264(11) 0.54037(7) 0.08618(6)
C14 C 0.02518(11) 0.50408(7) 0.08188(6)
H13 H -0.028756 0.531013 0.102387
C15 C -0.00497(11) 0.42890(7) 0.04805(6)
C16 C 0.07581(11) 0.39024(7) 0.01896(6)
C17 C 0.18278(11) 0.42663(7) 0.02169(6)
H14 H 0.236108 0.399713 0.000240
C18 C -0.13146(10) 0.38357(7) 0.11304(6)
C19 C -0.16283(10) 0.43789(7) 0.16855(7)
C20 C -0.16456(10) 0.43270(7) 0.23276(6)
H15 H -0.185799 0.470072 0.270272
C21 C -0.13569(10) 0.37365(7) 0.24282(6)
C22 C -0.10484(11) 0.31928(7) 0.18709(7)
C23 C -0.10315(11) 0.32432(7) 0.12290(7)
H16 H -0.082384 0.286785 0.085297
C24 C -0.02320(11) 0.39678(7) 0.36147(6)
C25 C 0.01308(11) 0.47073(7) 0.40412(6)
C26 C 0.11728(11) 0.49631(7) 0.44935(6)
H17 H 0.140088 0.546528 0.479032
C27 C 0.18883(11) 0.44982(7) 0.45201(6)
C28 C 0.15385(11) 0.37643(7) 0.40887(7)
C29 C 0.04850(11) 0.35004(7) 0.36441(7)
H18 H 0.025112 0.299619 0.335727
C30 C 0.38141(11) 0.50703(7) 0.45601(7)
C31 C 0.40664(11) 0.57947(7) 0.46751(7)
C32 C 0.47243(11) 0.60059(7) 0.42610(7)
H19 H 0.490401 0.650293 0.434906
C33 C 0.51216(11) 0.55007(7) 0.37211(7)
C34 C 0.48457(11) 0.47709(7) 0.35989(7)
C35 C 0.42108(11) 0.45667(7) 0.40212(7)
H20 H 0.404320 0.407116 0.394018
C36 C 0.42645(13) 0.73588(7) 0.31600(7)
H21 H 0.345509 0.715074 0.295542
H22 H 0.458677 0.758073 0.286283
C37 C 0.43968(14) 0.79253(8) 0.39064(8)
H23 H 0.520591 0.814409 0.410091
H24 H 0.411049 0.769456 0.420625
C38 C 0.37490(14) 0.85149(8) 0.39210(8)
H25 H 0.408629 0.877049 0.365445
H26 H 0.295943 0.828452 0.367737
C39 C 0.37470(15) 0.90668(8) 0.46616(8)
H27 H 0.453504 0.930318 0.490471
H28 H 0.341434 0.881283 0.493076
C40 C 0.30860(16) 0.96451(9) 0.46620(9)
H29 H 0.343587 0.990999 0.440697
H30 H 0.230595 0.940677 0.440294
C41 C 0.30443(18) 1.01825(10) 0.53986(10)
H31 H 0.263833 1.055182 0.536624
H32 H 0.381417 1.041411 0.566173
H33 H 0.265354 0.992871 0.564370
C42 C 0.08935(11) 0.65566(7) 0.15383(7)
H34 H 0.071097 0.641950 0.192255
H35 H 0.018528 0.645874 0.120268
C43 C 0.14407(12) 0.73499(7) 0.18385(7)
H36 H 0.154434 0.749258 0.144651
H37 H 0.219455 0.742916 0.212233
C44 C 0.07277(12) 0.78234(7) 0.23013(7)
H38 H -0.004306 0.771222 0.202503
H39 H 0.066895 0.769886 0.270854
C45 C 0.11988(12) 0.86316(7) 0.25761(8)
H40 H 0.197526 0.874324 0.284497
H41 H 0.123991 0.876035 0.217006
C46 C 0.04894(14) 0.90920(8) 0.30487(8)
H42 H -0.029017 0.897296 0.278178
H43 H 0.045851 0.896747 0.345798
C47 C 0.09389(16) 0.98995(8) 0.33171(9)
H44 H 0.095167 1.003011 0.291551
H45 H 0.170534 1.002393 0.359040
H46 H 0.044988 1.016559 0.361876
C48 C -0.19013(11) 0.56070(7) 0.21301(7)
H47 H -0.112108 0.581138 0.240170
H48 H -0.239133 0.552549 0.244755
C49 C -0.23071(12) 0.61277(7) 0.18534(7)
H49 H -0.308101 0.591516 0.157355
H50 H -0.181034 0.620922 0.153914
C50 C -0.23023(12) 0.68483(7) 0.24617(7)
H51 H -0.151247 0.708387 0.270121
H52 H -0.270713 0.675282 0.280869
C51 C -0.28448(12) 0.73699(7) 0.22361(7)
H53 H -0.244690 0.746331 0.188552
H54 H -0.363913 0.713978 0.200382
C52 C -0.28139(13) 0.80871(8) 0.28517(8)
H55 H -0.201802 0.832320 0.307439
H56 H -0.318947 0.799137 0.320908
C53 C -0.33858(16) 0.86048(8) 0.26370(9)
H57 H -0.303713 0.868913 0.227076
H58 H -0.329806 0.906544 0.304927
H59 H -0.418988 0.839254 0.245309
C54 C -0.02181(11) 0.59071(7) 0.44175(7)
H60 H 0.049742 0.608971 0.430649
H61 H -0.008383 0.599449 0.492187
C55 C -0.11177(11) 0.62962(7) 0.42760(7)
H62 H -0.182595 0.611593 0.439580
H63 H -0.126586 0.619134 0.376741
C56 C -0.07576(12) 0.71110(7) 0.47086(7)
H64 H -0.054569 0.721000 0.521318
H65 H -0.008237 0.729399 0.456051
C57 C -0.16797(13) 0.75174(7) 0.46259(8)
H66 H -0.235476 0.733075 0.477160
H67 H -0.189002 0.741633 0.412070
C58 C -0.13409(15) 0.83376(8) 0.50566(8)
H68 H -0.202295 0.854905 0.505523
H69 H -0.103603 0.843731 0.555175
C59 C -0.04715(18) 0.87071(9) 0.47824(9)
H70 H -0.076879 0.861622 0.429377
H71 H 0.021881 0.851514 0.479944
H72 H -0.030125 0.922929 0.507633
C60 C 0.34679(12) 0.69280(7) 0.52004(7)
H73 H 0.305333 0.683530 0.472832
H74 H 0.419419 0.726516 0.529856
C61 C 0.27784(13) 0.72479(8) 0.57589(8)
H75 H 0.318843 0.730830 0.622110
H76 H 0.205423 0.690437 0.564710
C62 C 0.25351(13) 0.79742(8) 0.58187(8)
H77 H 0.324752 0.829272 0.585053
H78 H 0.201585 0.790050 0.538554
C63 C 0.20148(15) 0.83472(8) 0.64553(8)
H79 H 0.251822 0.839741 0.688510
H80 H 0.128682 0.803634 0.641118
C64 C 0.18115(14) 0.90906(9) 0.65467(9)
H81 H 0.249966 0.937044 0.649560
H82 H 0.119228 0.903240 0.616634
C65 C 0.15122(19) 0.95126(10) 0.72504(10)
H83 H 0.082561 0.924224 0.730274
H84 H 0.138369 0.998275 0.727644
H85 H 0.213275 0.958741 0.762993
C66 C 0.51703(12) 0.38467(8) 0.06917(8)
H86 H 0.494922 0.360758 0.099890
H87 H 0.597323 0.409210 0.086508
C67 C 0.50024(12) 0.32951(7) -0.00603(8)
H88 H 0.519813 0.354379 -0.036415
H89 H 0.419801 0.305123 -0.022520
C68 C 0.57300(13) 0.27267(8) -0.01335(9)
H90 H 0.650187 0.297365 0.013595
H91 H 0.541418 0.240265 0.007578
C69 C 0.57938(17) 0.22759(9) -0.08931(10)
H92 H 0.614333 0.260138 -0.109127
H93 H 0.501627 0.205634 -0.116504
C70 C 0.64582(18) 0.16714(10) -0.10031(12)
H94 H 0.660687 0.148746 -0.149082
H95 H 0.719511 0.187396 -0.067522
C71 C 0.5856(2) 0.10561(11) -0.08846(14)
H96 H 0.509641 0.088282 -0.117437
H97 H 0.580178 0.121905 -0.038507
H98 H 0.627374 0.066225 -0.101658
C72 C 0.12240(12) 0.27471(7) -0.04309(7)
H99 H 0.191221 0.286093 -0.007408
H100 H 0.143850 0.286133 -0.082208
C73 C 0.06737(13) 0.19586(7) -0.07049(8)
H101 H -0.005779 0.186799 -0.101687
H102 H 0.052000 0.184591 -0.030205
C74 C 0.14073(15) 0.14545(8) -0.11158(9)
H103 H 0.095363 0.095528 -0.134707
H104 H 0.160913 0.159774 -0.149298
C75 C 0.24853(14) 0.14513(8) -0.06749(9)
H105 H 0.295438 0.117529 -0.099561
H106 H 0.291351 0.195532 -0.041398
C76 C 0.22974(15) 0.11283(11) -0.01535(10)
H107 H 0.193769 0.061026 -0.041717
H108 H 0.176667 0.137196 0.013619
C77 C 0.33690(16) 0.11913(12) 0.03359(11)
H109 H 0.390810 0.096142 0.005437
H110 H 0.318794 0.094964 0.064241
H111 H 0.370163 0.170334 0.062628
C78 C -0.02780(13) 0.21152(7) 0.14957(8)
H112 H 0.043236 0.237011 0.144148
H113 H -0.078987 0.187770 0.102998
C79 C -0.00399(13) 0.15588(8) 0.17688(8)
H114 H -0.076418 0.125357 0.174050
H115 H 0.032957 0.181139 0.227213
C80 C 0.07100(14) 0.10730(8) 0.13620(8)
H116 H 0.040352 0.087789 0.084991
H117 H 0.147552 0.136498 0.145201
C81 C 0.07903(14) 0.04478(8) 0.15700(9)
H118 H 0.003112 0.013537 0.143854
H119 H 0.101609 0.064633 0.208983
C82 C 0.16136(16) -0.00206(9) 0.12375(9)
H120 H 0.236874 0.029184 0.135083
H121 H 0.167258 -0.037137 0.144990
C83 C 0.12753(17) -0.04294(9) 0.04476(10)
H122 H 0.128790 -0.008566 0.022897
H123 H 0.051271 -0.072224 0.032907
H124 H 0.180524 -0.074636 0.027103
C84 C 0.21354(12) 0.26239(7) 0.36095(7)
H125 H 0.205746 0.263541 0.313896
H126 H 0.144426 0.231742 0.362422
C85 C 0.31620(12) 0.23219(8) 0.37437(8)
H127 H 0.325041 0.233858 0.422557
H128 H 0.384293 0.262988 0.371942
C86 C 0.30724(13) 0.15478(8) 0.32133(8)
H129 H 0.303872 0.153969 0.273613
H130 H 0.235854 0.125036 0.321185
C87 C 0.40496(14) 0.12070(8) 0.33640(9)
H131 H 0.476389 0.150181 0.336223
H132 H 0.408630 0.121617 0.384166
C88 C 0.39473(15) 0.04316(9) 0.28321(11)
H133 H 0.322189 0.014056 0.282367
H134 H 0.393242 0.042488 0.235642
C89 C 0.48991(19) 0.00813(11) 0.29901(13)
H135 H 0.476447 -0.042285 0.264267
H136 H 0.493185 0.009540 0.346467
H137 H 0.561582 0.034495 0.296499
C90 C 0.50364(12) 0.35490(7) 0.29536(7)
H138 H 0.421326 0.336053 0.285513
H139 H 0.537283 0.350649 0.338513
C91 C 0.55476(12) 0.31186(7) 0.23388(8)
H140 H 0.636567 0.332161 0.243535
H141 H 0.519905 0.315947 0.190896
C92 C 0.53709(14) 0.23234(8) 0.22100(8)
H142 H 0.561429 0.229138 0.266222
H143 H 0.455529 0.210787 0.205002
C93 C 0.60062(14) 0.18825(8) 0.16675(9)
H144 H 0.682177 0.209862 0.182523
H145 H 0.575862 0.190984 0.121351
C94 C 0.58272(17) 0.10874(9) 0.15481(10)
H146 H 0.607561 0.105910 0.200153
H147 H 0.501206 0.087024 0.138957
C95 C 0.6467(2) 0.06516(11) 0.10042(12)
H148 H 0.618498 0.064694 0.054491
H149 H 0.635630 0.015428 0.096596
H150 H 0.727253 0.087232 0.115079
Cl1? Cl 0.0861(6) 0.5343(4) 0.2785(4)
Cl2? Cl 0.1740(11) 0.6852(10) 0.3510(8)
C98? C 0.202(3) 0.603(2) 0.3051(19)
H154? H 0.261951 0.593872 0.334871
H155? H 0.231364 0.603071 0.262975
Cl3? Cl 0.27840(19) 0.29975(15) 0.12618(10)
Cl4? Cl 0.18811(10) 0.38067(7) 0.25043(6)
C101? C 0.2514(8) 0.3806(7) 0.1771(5)
H159? H 0.200484 0.395564 0.147426
H160? H 0.322956 0.416925 0.195407
loop_
_geom_bond_atom_site_label_1
_geom_bond_atom_site_label_2
_geom_bond_site_symmetry_1
_geom_bond_site_symmetry_2
O1 C7 1_555 1_555
O2 C10 1_555 1_555
O3 C13 1_555 1_555
O4 C16 1_555 1_555
O5 C19 1_555 1_555
O6 C22 1_555 1_555
O7 C25 1_555 1_555
O8 C28 1_555 1_555
O9 C31 1_555 1_555
O10 C34 1_555 1_555
C1 H1 1_555 1_555
H2 C1 1_555 1_555
C2 H3 1_555 1_555
H4 C2 1_555 1_555
C3 H5 1_555 1_555
H6 C3 1_555 1_555
C4 H7 1_555 1_555
H8 C4 1_555 1_555
C5 H9 1_555 1_555
H10 C5 1_555 1_555
C6 C1 1_555 1_555
C7 C6 1_555 1_555
C8 C7 1_555 1_555
H11 C8 1_555 1_555
C9 C2 1_555 1_555
C10 C9 1_555 1_555
C11 C6 1_555 1_555
H12 C11 1_555 1_555
C12 C2 1_555 1_555
C13 C12 1_555 1_555
C14 C13 1_555 1_555
H13 C14 1_555 1_555
C15 C3 1_555 1_555
C16 C15 1_555 1_555
C17 C12 1_555 1_555
H14 C17 1_555 1_555
C18 C3 1_555 1_555
C19 C18 1_555 1_555
C20 C19 1_555 1_555
H15 C20 1_555 1_555
C21 C4 1_555 1_555
C22 C21 1_555 1_555
C23 C18 1_555 1_555
H16 C23 1_555 1_555
C24 C4 1_555 1_555
C25 C24 1_555 1_555
C26 C25 1_555 1_555
H17 C26 1_555 1_555
C27 C5 1_555 1_555
C28 C27 1_555 1_555
C29 C24 1_555 1_555
H18 C29 1_555 1_555
C30 C5 1_555 1_555
C31 C30 1_555 1_555
C32 C31 1_555 1_555
H19 C32 1_555 1_555
C33 C1 1_555 1_555
C34 C33 1_555 1_555
C35 C30 1_555 1_555
H20 C35 1_555 1_555
C36 O1 1_555 1_555
H21 C36 1_555 1_555
H22 C36 1_555 1_555
C37 C36 1_555 1_555
H23 C37 1_555 1_555
H24 C37 1_555 1_555
C38 C37 1_555 1_555
H25 C38 1_555 1_555
H26 C38 1_555 1_555
C39 C38 1_555 1_555
H27 C39 1_555 1_555
H28 C39 1_555 1_555
C40 C39 1_555 1_555
H29 C40 1_555 1_555
H30 C40 1_555 1_555
C41 C40 1_555 1_555
H31 C41 1_555 1_555
H32 C41 1_555 1_555
H33 C41 1_555 1_555
C42 O3 1_555 1_555
H34 C42 1_555 1_555
H35 C42 1_555 1_555
C43 C42 1_555 1_555
H36 C43 1_555 1_555
H37 C43 1_555 1_555
C44 C43 1_555 1_555
H38 C44 1_555 1_555
H39 C44 1_555 1_555
C45 C44 1_555 1_555
H40 C45 1_555 1_555
H41 C45 1_555 1_555
C46 C45 1_555 1_555
H42 C46 1_555 1_555
H43 C46 1_555 1_555
C47 C46 1_555 1_555
H44 C47 1_555 1_555
H45 C47 1_555 1_555
H46 C47 1_555 1_555
C48 O5 1_555 1_555
H47 C48 1_555 1_555
H48 C48 1_555 1_555
C49 C48 1_555 1_555
H49 C49 1_555 1_555
H50 C49 1_555 1_555
C50 C49 1_555 1_555
H51 C50 1_555 1_555
H52 C50 1_555 1_555
C51 C50 1_555 1_555
H53 C51 1_555 1_555
H54 C51 1_555 1_555
C52 C51 1_555 1_555
H55 C52 1_555 1_555
H56 C52 1_555 1_555
C53 C52 1_555 1_555
H57 C53 1_555 1_555
H58 C53 1_555 1_555
H59 C53 1_555 1_555
C54 O7 1_555 1_555
H60 C54 1_555 1_555
H61 C54 1_555 1_555
C55 C54 1_555 1_555
H62 C55 1_555 1_555
H63 C55 1_555 1_555
C56 C55 1_555 1_555
H64 C56 1_555 1_555
H65 C56 1_555 1_555
C57 C56 1_555 1_555
H66 C57 1_555 1_555
H67 C57 1_555 1_555
C58 C57 1_555 1_555
H68 C58 1_555 1_555
H69 C58 1_555 1_555
C59 C58 1_555 1_555
H70 C59 1_555 1_555
H71 C59 1_555 1_555
H72 C59 1_555 1_555
C60 O9 1_555 1_555
H73 C60 1_555 1_555
H74 C60 1_555 1_555
C61 C60 1_555 1_555
H75 C61 1_555 1_555
H76 C61 1_555 1_555
C62 C61 1_555 1_555
H77 C62 1_555 1_555
H78 C62 1_555 1_555
C63 C62 1_555 1_555
H79 C63 1_555 1_555
H80 C63 1_555 1_555
C64 C63 1_555 1_555
H81 C64 1_555 1_555
H82 C64 1_555 1_555
C65 C64 1_555 1_555
H83 C65 1_555 1_555
H84 C65 1_555 1_555
H85 C65 1_555 1_555
C66 O2 1_555 1_555
H86 C66 1_555 1_555
H87 C66 1_555 1_555
C67 C66 1_555 1_555
H88 C67 1_555 1_555
H89 C67 1_555 1_555
C68 C67 1_555 1_555
H90 C68 1_555 1_555
H91 C68 1_555 1_555
C69 C68 1_555 1_555
H92 C69 1_555 1_555
H93 C69 1_555 1_555
C70 C69 1_555 1_555
H94 C70 1_555 1_555
H95 C70 1_555 1_555
C71 C70 1_555 1_555
H96 C71 1_555 1_555
H97 C71 1_555 1_555
H98 C71 1_555 1_555
C72 O4 1_555 1_555
H99 C72 1_555 1_555
H100 C72 1_555 1_555
C73 C72 1_555 1_555
H101 C73 1_555 1_555
H102 C73 1_555 1_555
C74 C73 1_555 1_555
H103 C74 1_555 1_555
H104 C74 1_555 1_555
C75 C74 1_555 1_555
H105 C75 1_555 1_555
H106 C75 1_555 1_555
C76 C75 1_555 1_555
H107 C76 1_555 1_555
H108 C76 1_555 1_555
C77 C76 1_555 1_555
H109 C77 1_555 1_555
H110 C77 1_555 1_555
H111 C77 1_555 1_555
C78 O6 1_555 1_555
H112 C78 1_555 1_555
H113 C78 1_555 1_555
C79 C78 1_555 1_555
H114 C79 1_555 1_555
H115 C79 1_555 1_555
C80 C79 1_555 1_555
H116 C80 1_555 1_555
H117 C80 1_555 1_555
C81 C80 1_555 1_555
H118 C81 1_555 1_555
H119 C81 1_555 1_555
C82 C81 1_555 1_555
H120 C82 1_555 1_555
H121 C82 1_555 1_555
C83 C82 1_555 1_555
H122 C83 1_555 1_555
H123 C83 1_555 1_555
H124 C83 1_555 1_555
C84 O8 1_555 1_555
H125 C84 1_555 1_555
H126 C84 1_555 1_555
C85 C84 1_555 1_555
H127 C85 1_555 1_555
H128 C85 1_555 1_555
C86 C85 1_555 1_555
H129 C86 1_555 1_555
H130 C86 1_555 1_555
C87 C86 1_555 1_555
H131 C87 1_555 1_555
H132 C87 1_555 1_555
C88 C87 1_555 1_555
H133 C88 1_555 1_555
H134 C88 1_555 1_555
C89 C88 1_555 1_555
H135 C89 1_555 1_555
H136 C89 1_555 1_555
H137 C89 1_555 1_555
C90 O10 1_555 1_555
H138 C90 1_555 1_555
H139 C90 1_555 1_555
C91 C90 1_555 1_555
H140 C91 1_555 1_555
H141 C91 1_555 1_555
C92 C91 1_555 1_555
H142 C92 1_555 1_555
H143 C92 1_555 1_555
C93 C92 1_555 1_555
H144 C93 1_555 1_555
H145 C93 1_555 1_555
C94 C93 1_555 1_555
H146 C94 1_555 1_555
H147 C94 1_555 1_555
C95 C94 1_555 1_555
H148 C95 1_555 1_555
H149 C95 1_555 1_555
H150 C95 1_555 1_555
N1 C96 1_555 1_555
C96 C97 1_555 1_555
C97 H151 1_555 1_555
H152 C97 1_555 1_555
H153 C97 1_555 1_555
N2 C99 1_555 1_555
C99 C100 1_555 1_555
C100 H156 1_555 1_555
H157 C100 1_555 1_555
H158 C100 1_555 1_555
C8 C9 1_555 1_555
C10 C11 1_555 1_555
C14 C15 1_555 1_555
C16 C17 1_555 1_555
C20 C21 1_555 1_555
C22 C23 1_555 1_555
C26 C27 1_555 1_555
C28 C29 1_555 1_555
C32 C33 1_555 1_555
C34 C35 1_555 1_555

#END
