
#######################################################################
#
#                 Cambridge Crystallographic Data Centre
#                                CCDC 
#
#######################################################################
#
# If this CIF has been generated from an entry in the Cambridge 
# Structural Database, then it will include bibliographic, chemical, 
# crystal, experimental, refinement or atomic coordinate data resulting 
# from the CCDC's data processing and validation procedures.
#
#######################################################################

data_TIKSIR
_chemical_formula_moiety         'C43 H28 N2'
_chemical_name_systematic        
'9,11,12,14-Tetraphenyldibenzo[f,h]imidazo[1,2-b]isoquinoline unknown solvate'
_symmetry_cell_setting           orthorhombic
_symmetry_space_group_name_H-M   'P b c n'
_symmetry_Int_Tables_number      60
_space_group_name_Hall           '-P 2n 2ab'
loop_
_symmetry_equiv_pos_site_id
_symmetry_equiv_pos_as_xyz
1 x,y,z
2 1/2-x,1/2-y,1/2+z
3 1/2+x,1/2-y,-z
4 -x,y,1/2-z
5 -x,-y,-z
6 1/2+x,1/2+y,1/2-z
7 1/2-x,1/2+y,z
8 x,-y,1/2+z
_cell_length_a                   24.4976(8)
_cell_length_b                   17.1300(5)
_cell_length_c                   17.6705(6)
_cell_angle_alpha                90
_cell_angle_beta                 90
_cell_angle_gamma                90
_cell_volume                     7415.32
_exptl_crystal_colour            yellow
_exptl_crystal_description       needle
_cell_formula_units_Z            8
loop_
_atom_site_label
_atom_site_type_symbol
_atom_site_fract_x
_atom_site_fract_y
_atom_site_fract_z
N1 N 0.38231(7) 0.92672(11) 0.10131(11)
N2 N 0.33844(8) 0.82329(12) 0.05213(12)
C1 C 0.53832(11) 1.05088(18) 0.09252(13)
H1 H 0.5082 1.0777 0.0740
C2 C 0.58836(11) 1.0866(2) 0.09208(15)
H2 H 0.5914 1.1380 0.0756
C3 C 0.63375(12) 1.0474(2) 0.11562(18)
H3 H 0.6676 1.0719 0.1151
C4 C 0.62916(10) 0.9728(2) 0.13976(16)
H4 H 0.6605 0.9461 0.1544
C5 C 0.57850(9) 0.93450(17) 0.14337(13)
C6 C 0.53153(9) 0.97499(15) 0.12026(12)
C7 C 0.47849(9) 0.93229(15) 0.11921(12)
C8 C 0.48078(9) 0.84847(15) 0.11339(13)
C9 C 0.52899(9) 0.80847(16) 0.14599(13)
C10 C 0.57471(9) 0.85296(17) 0.16716(13)
C11 C 0.61611(11) 0.8180(2) 0.20969(16)
H5 H 0.6454 0.8482 0.2260
C12 C 0.61469(11) 0.7404(2) 0.22795(17)
H6 H 0.6428 0.7181 0.2559
C13 C 0.57096(12) 0.6954(2) 0.20441(18)
H7 H 0.5702 0.6422 0.2149
C14 C 0.52889(10) 0.72945(18) 0.16560(16)
H8 H 0.4991 0.6989 0.1518
C15 C 0.43621(8) 0.80944(14) 0.08359(13)
C16 C 0.43758(9) 0.72852(14) 0.05191(14)
C17 C 0.47737(11) 0.70942(18) 0.00002(16)
H9 H 0.5029 0.7466 -0.0148
C18 C 0.47945(13) 0.63503(19) -0.0301(2)
H10 H 0.5067 0.6221 -0.0646
C19 C 0.44143(15) 0.58001(19) -0.0093(2)
H11 H 0.4433 0.5297 -0.0289
C20 C 0.40085(13) 0.59964(16) 0.0402(2)
H12 H 0.3744 0.5630 0.0531
C21 C 0.39885(10) 0.67271(15) 0.07079(16)
H13 H 0.3712 0.6853 0.1047
C22 C 0.38621(9) 0.84961(14) 0.07673(13)
C23 C 0.42905(9) 0.97062(14) 0.11665(13)
C24 C 0.42181(9) 1.05550(14) 0.12804(13)
C25 C 0.43414(10) 1.08915(16) 0.19667(15)
H14 H 0.4459 1.0581 0.2366
C26 C 0.42916(12) 1.16822(18) 0.20651(19)
H15 H 0.4379 1.1907 0.2528
C27 C 0.41119(13) 1.21425(17) 0.1478(2)
H16 H 0.4076 1.2678 0.1548
C28 C 0.39850(12) 1.18186(18) 0.07905(19)
H17 H 0.3861 1.2132 0.0396
C29 C 0.40420(10) 1.10280(16) 0.06878(15)
H18 H 0.3963 1.0807 0.0220
C30 C 0.32713(9) 0.94788(14) 0.09296(14)
C31 C 0.30251(9) 0.88273(15) 0.06207(15)
C32 C 0.24508(10) 0.87380(15) 0.03839(18)
C33 C 0.20178(11) 0.90332(18) 0.0788(2)
H19 H 0.2080 0.9283 0.1247
C34 C 0.14874(12) 0.8960(2) 0.0514(3)
H20 H 0.1197 0.9161 0.0791
C35 C 0.13932(15) 0.8594(2) -0.0159(3)
H21 H 0.1040 0.8557 -0.0347
C36 C 0.18134(16) 0.8287(3) -0.0551(3)
H22 H 0.1745 0.8025 -0.1003
C37 C 0.23461(13) 0.8355(2) -0.0291(2)
H23 H 0.2632 0.8144 -0.0570
C38 C 0.30149(9) 1.02321(15) 0.11271(15)
C39 C 0.30070(11) 1.05219(18) 0.18486(17)
H24 H 0.3177 1.0245 0.2235
C40 C 0.27518(15) 1.1214(2) 0.2009(2)
H25 H 0.2744 1.1398 0.2504
C41 C 0.25060(13) 1.1640(2) 0.1440(3)
H26 H 0.2347 1.2121 0.1546
C42 C 0.24970(12) 1.13528(19) 0.0725(2)
H27 H 0.2319 1.1628 0.0344
C43 C 0.27486(11) 1.06611(17) 0.05593(18)
H28 H 0.2743 1.0473 0.0066
loop_
_geom_bond_atom_site_label_1
_geom_bond_atom_site_label_2
_geom_bond_site_symmetry_1
_geom_bond_site_symmetry_2
N1 C22 1_555 1_555
N2 C22 1_555 1_555
C1 H1 1_555 1_555
C2 C1 1_555 1_555
H2 C2 1_555 1_555
C3 C2 1_555 1_555
H3 C3 1_555 1_555
C4 C3 1_555 1_555
H4 C4 1_555 1_555
C5 C4 1_555 1_555
C6 C1 1_555 1_555
C7 C6 1_555 1_555
C8 C7 1_555 1_555
C9 C8 1_555 1_555
C10 C5 1_555 1_555
C11 C10 1_555 1_555
H5 C11 1_555 1_555
C12 C11 1_555 1_555
H6 C12 1_555 1_555
C13 C12 1_555 1_555
H7 C13 1_555 1_555
C14 C9 1_555 1_555
H8 C14 1_555 1_555
C15 C8 1_555 1_555
C16 C15 1_555 1_555
C17 C16 1_555 1_555
H9 C17 1_555 1_555
C18 C17 1_555 1_555
H10 C18 1_555 1_555
C19 C18 1_555 1_555
H11 C19 1_555 1_555
C20 C19 1_555 1_555
H12 C20 1_555 1_555
C21 C16 1_555 1_555
H13 C21 1_555 1_555
C22 C15 1_555 1_555
C23 N1 1_555 1_555
C24 C23 1_555 1_555
C25 C24 1_555 1_555
H14 C25 1_555 1_555
C26 C25 1_555 1_555
H15 C26 1_555 1_555
C27 C26 1_555 1_555
H16 C27 1_555 1_555
C28 C27 1_555 1_555
H17 C28 1_555 1_555
C29 C24 1_555 1_555
H18 C29 1_555 1_555
C30 N1 1_555 1_555
C31 N2 1_555 1_555
C32 C31 1_555 1_555
C33 C32 1_555 1_555
H19 C33 1_555 1_555
C34 C33 1_555 1_555
H20 C34 1_555 1_555
C35 C34 1_555 1_555
H21 C35 1_555 1_555
C36 C35 1_555 1_555
H22 C36 1_555 1_555
C37 C32 1_555 1_555
H23 C37 1_555 1_555
C38 C30 1_555 1_555
C39 C38 1_555 1_555
H24 C39 1_555 1_555
C40 C39 1_555 1_555
H25 C40 1_555 1_555
C41 C40 1_555 1_555
H26 C41 1_555 1_555
C42 C41 1_555 1_555
H27 C42 1_555 1_555
C43 C38 1_555 1_555
H28 C43 1_555 1_555
C5 C6 1_555 1_555
C7 C23 1_555 1_555
C9 C10 1_555 1_555
C13 C14 1_555 1_555
C20 C21 1_555 1_555
C28 C29 1_555 1_555
C30 C31 1_555 1_555
C36 C37 1_555 1_555
C42 C43 1_555 1_555

#END
