
#######################################################################
#
#                 Cambridge Crystallographic Data Centre
#                                CCDC 
#
#######################################################################
#
# If this CIF has been generated from an entry in the Cambridge 
# Structural Database, then it will include bibliographic, chemical, 
# crystal, experimental, refinement or atomic coordinate data resulting 
# from the CCDC's data processing and validation procedures.
#
#######################################################################

data_TIKTUE
_chemical_formula_moiety         'C28 H25 F3 I1 N1 O4 S1'
_chemical_name_systematic        
'(4-Methyl-1-((4-methylphenyl)sulfonyl)-4-(2,2,2-trifluoroethyl)pyrrolidin-3-ylidene)(phenyl)methyl 2-iodobenzoate unknown solvate'
_symmetry_cell_setting           monoclinic
_symmetry_space_group_name_H-M   'P 21/c'
_symmetry_Int_Tables_number      14
_space_group_name_Hall           '-P 2ybc'
loop_
_symmetry_equiv_pos_site_id
_symmetry_equiv_pos_as_xyz
1 x,y,z
2 -x,1/2+y,1/2-z
3 -x,-y,-z
4 x,1/2-y,1/2+z
_cell_length_a                   11.3250(4)
_cell_length_b                   29.3993(13)
_cell_length_c                   9.7380(4)
_cell_angle_alpha                90
_cell_angle_beta                 94.861(3)
_cell_angle_gamma                90
_cell_volume                     3230.58
_exptl_crystal_colour            'light colorless'
_exptl_crystal_description       block
_cell_formula_units_Z            4
loop_
_atom_site_label
_atom_site_type_symbol
_atom_site_fract_x
_atom_site_fract_y
_atom_site_fract_z
I1 I 1.12817(4) 0.52425(2) 0.37664(6)
S1 S 0.97817(12) 0.31300(5) 0.73124(12)
F1 F 0.4756(3) 0.28664(16) 0.3634(5)
F2 F 0.5472(3) 0.23424(14) 0.2484(3)
F3 F 0.5988(3) 0.24088(14) 0.4621(3)
O1 O 0.9451(3) 0.39433(11) 0.2249(3)
O2 O 0.8945(3) 0.46431(13) 0.2905(4)
O3 O 1.0440(4) 0.35239(15) 0.7734(4)
O4 O 0.9028(3) 0.29152(16) 0.8227(3)
N1 N 0.8904(3) 0.32825(15) 0.5971(3)
C1 C 0.7990(4) 0.29671(17) 0.5397(4)
H1 H 0.7477 0.2872 0.6092
H2 H 0.8340 0.2700 0.5008
C2 C 0.7306(4) 0.32535(17) 0.4270(4)
C3 C 0.8323(3) 0.35384(16) 0.3750(4)
C4 C 0.9394(4) 0.35073(18) 0.4802(4)
H3 H 1.0021 0.3327 0.4453
H4 H 0.9699 0.3807 0.5054
C5 C 0.6437(4) 0.3564(2) 0.4937(5)
H5 H 0.6868 0.3771 0.5556
H6 H 0.5915 0.3384 0.5441
H7 H 0.5981 0.3733 0.4235
C6 C 0.6735(4) 0.29535(18) 0.3113(4)
H8 H 0.6426 0.3150 0.2367
H9 H 0.7352 0.2768 0.2764
C7 C 0.5757(5) 0.2645(2) 0.3476(5)
C8 C 0.8337(4) 0.37688(16) 0.2592(4)
C9 C 0.7393(4) 0.38492(19) 0.1498(5)
C10 C 0.7471(6) 0.3657(2) 0.0203(5)
H10 H 0.8135 0.3486 0.0041
C11 C 0.5656(10) 0.3964(4) -0.0584(11)
H11 H 0.5052 0.3998 -0.1285
C12 C 0.6588(11) 0.3717(4) -0.0844(8)
H12 H 0.6645 0.3587 -0.1707
C13 C 0.5523(7) 0.4174(3) 0.0657(10)
H13 H 0.4852 0.4347 0.0782
C14 C 0.6423(5) 0.4122(2) 0.1731(7)
H14 H 0.6372 0.4266 0.2575
C15 C 0.9575(4) 0.44008(19) 0.2300(4)
C16 C 1.0562(4) 0.45476(18) 0.1478(5)
C17 C 1.0688(4) 0.43282(19) 0.0200(4)
H15 H 1.0178 0.4092 -0.0083
C18 C 1.1556(6) 0.4461(3) -0.0626(6)
H16 H 1.1634 0.4314 -0.1460
C19 C 1.2300(6) 0.4808(3) -0.0209(8)
H17 H 1.2888 0.4895 -0.0767
C20 C 1.2200(5) 0.5041(2) 0.1048(8)
H18 H 1.2715 0.5278 0.1313
C21 C 1.1321(5) 0.4910(2) 0.1879(6)
C22 C 1.0764(4) 0.2720(2) 0.6762(4)
C23 C 1.1823(5) 0.2861(2) 0.6291(6)
H19 H 1.2034 0.3166 0.6328
C24 C 1.2557(5) 0.2546(3) 0.5770(7)
H20 H 1.3264 0.2643 0.5446
C25 C 1.2274(5) 0.2090(3) 0.5712(6)
C26 C 1.1226(5) 0.1958(2) 0.6198(6)
H21 H 1.1028 0.1651 0.6183
C27 C 1.0455(5) 0.2267(2) 0.6710(5)
H22 H 0.9740 0.2170 0.7015
C28 C 1.3066(6) 0.1742(3) 0.5125(8)
H23 H 1.2858 0.1444 0.5430
H24 H 1.3877 0.1805 0.5435
H25 H 1.2969 0.1754 0.4137
loop_
_geom_bond_atom_site_label_1
_geom_bond_atom_site_label_2
_geom_bond_site_symmetry_1
_geom_bond_site_symmetry_2
I1 C21 1_555 1_555
S1 O3 1_555 1_555
F1 C7 1_555 1_555
F2 C7 1_555 1_555
F3 C7 1_555 1_555
O1 C8 1_555 1_555
O2 C15 1_555 1_555
O4 S1 1_555 1_555
N1 S1 1_555 1_555
C1 N1 1_555 1_555
H1 C1 1_555 1_555
H2 C1 1_555 1_555
C2 C1 1_555 1_555
C3 C2 1_555 1_555
C4 N1 1_555 1_555
H3 C4 1_555 1_555
H4 C4 1_555 1_555
C5 C2 1_555 1_555
H5 C5 1_555 1_555
H6 C5 1_555 1_555
H7 C5 1_555 1_555
C6 C2 1_555 1_555
H8 C6 1_555 1_555
H9 C6 1_555 1_555
C7 C6 1_555 1_555
C8 C3 1_555 1_555
C9 C8 1_555 1_555
C10 C9 1_555 1_555
H10 C10 1_555 1_555
C11 H11 1_555 1_555
C12 C10 1_555 1_555
H12 C12 1_555 1_555
C13 C11 1_555 1_555
H13 C13 1_555 1_555
C14 C9 1_555 1_555
H14 C14 1_555 1_555
C15 O1 1_555 1_555
C16 C15 1_555 1_555
C17 C16 1_555 1_555
H15 C17 1_555 1_555
C18 C17 1_555 1_555
H16 C18 1_555 1_555
C19 C18 1_555 1_555
H17 C19 1_555 1_555
C20 C19 1_555 1_555
H18 C20 1_555 1_555
C21 C16 1_555 1_555
C22 S1 1_555 1_555
C23 C22 1_555 1_555
H19 C23 1_555 1_555
C24 C23 1_555 1_555
H20 C24 1_555 1_555
C25 C24 1_555 1_555
C26 C25 1_555 1_555
H21 C26 1_555 1_555
C27 C22 1_555 1_555
H22 C27 1_555 1_555
C28 C25 1_555 1_555
H23 C28 1_555 1_555
H24 C28 1_555 1_555
H25 C28 1_555 1_555
C3 C4 1_555 1_555
C11 C12 1_555 1_555
C13 C14 1_555 1_555
C20 C21 1_555 1_555
C26 C27 1_555 1_555

#END
