
#######################################################################
#
#                 Cambridge Crystallographic Data Centre
#                                CCDC 
#
#######################################################################
#
# If this CIF has been generated from an entry in the Cambridge 
# Structural Database, then it will include bibliographic, chemical, 
# crystal, experimental, refinement or atomic coordinate data resulting 
# from the CCDC's data processing and validation procedures.
#
#######################################################################

data_TIKXIW
_chemical_formula_moiety         'C24 H20 N6 O2'
_chemical_name_systematic        
2,2'-((2-Phenylpyrimidine-4,6-diyl)bis(hydrazin-2-yl-1-ylidenemethylylidene))diphenol
_symmetry_cell_setting           monoclinic
_symmetry_space_group_name_H-M   'C 2/c'
_symmetry_Int_Tables_number      15
_space_group_name_Hall           '-C 2yn'
loop_
_symmetry_equiv_pos_site_id
_symmetry_equiv_pos_as_xyz
1 x,y,z
2 -x,y,1/2-z
3 1/2+x,1/2+y,z
4 1/2-x,1/2+y,1/2-z
5 -x,-y,-z
6 x,-y,1/2+z
7 1/2-x,1/2-y,-z
8 1/2+x,1/2-y,1/2+z
_cell_length_a                   24.152(5)
_cell_length_b                   8.2300(16)
_cell_length_c                   23.368(5)
_cell_angle_alpha                90
_cell_angle_beta                 115.92(3)
_cell_angle_gamma                90
_cell_volume                     4177.63
_exptl_crystal_colour            colorless
_exptl_crystal_description       prism
_cell_formula_units_Z            8
loop_
_atom_site_label
_atom_site_type_symbol
_atom_site_fract_x
_atom_site_fract_y
_atom_site_fract_z
C1 C -0.20076(14) 0.4460(4) 0.04630(14)
C2 C -0.25245(18) 0.5280(4) 0.00374(14)
H1 H -0.2496 0.6028 -0.0247
C3 C -0.30812(17) 0.4963(5) 0.00439(19)
H2 H -0.3431 0.5511 -0.0239
C4 C -0.31325(18) 0.3853(5) 0.0460(2)
H3 H -0.3514 0.3658 0.0455
C5 C -0.26204(15) 0.3033(4) 0.08825(16)
H4 H -0.2656 0.2285 0.1163
C6 C -0.20402(13) 0.3328(3) 0.08898(13)
C7 C -0.15107(14) 0.2412(3) 0.13249(13)
H5 H -0.1541 0.1797 0.1644
C8 C -0.00374(13) 0.1184(3) 0.15673(12)
C9 C -0.00347(13) 0.1604(3) 0.09960(12)
H6 H -0.0366 0.2126 0.0674
C10 C 0.04910(13) 0.1197(3) 0.09360(12)
C11 C 0.09003(12) -0.0027(3) 0.19041(12)
C12 C 0.14001(13) -0.1016(3) 0.23870(12)
C13 C 0.13533(15) -0.1584(3) 0.29220(13)
H7 H 0.1005 -0.1343 0.2979
C14 C 0.1818(2) -0.2502(4) 0.33703(15)
H8 H 0.1783 -0.2863 0.3731
C15 C 0.23274(19) -0.2882(4) 0.32869(17)
H9 H 0.2641 -0.3503 0.3589
C16 C 0.23753(16) -0.2339(4) 0.27498(18)
H10 H 0.2720 -0.2610 0.2689
C17 C 0.19203(14) -0.1408(3) 0.23085(14)
H11 H 0.1960 -0.1035 0.1953
C18 C 0.02349(14) 0.2869(4) -0.05496(13)
H12 H 0.0603 0.2574 -0.0557
C19 C -0.02168(13) 0.3776(3) -0.10771(12)
C20 C -0.01167(15) 0.4152(4) -0.16028(13)
H13 H 0.0250 0.3829 -0.1608
C21 C -0.05408(16) 0.4985(4) -0.21138(14)
H14 H -0.0463 0.5220 -0.2461
C22 C -0.10767(16) 0.5463(4) -0.21079(14)
H15 H -0.1367 0.6021 -0.2456
C23 C -0.11987(15) 0.5138(4) -0.15976(14)
H16 H -0.1565 0.5486 -0.1597
C24 C -0.07703(14) 0.4285(4) -0.10831(13)
N1 N -0.10025(11) 0.2434(3) 0.12779(10)
N2 N -0.05228(11) 0.1533(3) 0.17010(10)
H17 H -0.0526 0.1190 0.2047
N3 N 0.04284(10) 0.0381(3) 0.20296(9)
N4 N 0.09614(10) 0.0363(3) 0.13802(10)
N5 N 0.05779(12) 0.1605(3) 0.04119(10)
H18 H 0.0910 0.1320 0.0389
N6 N 0.01374(11) 0.2465(3) -0.00726(10)
O1 O -0.14747(12) 0.4833(3) 0.04500(11)
H19 H -0.1194 0.4323 0.0728
O2 O -0.09135(11) 0.4003(3) -0.05948(11)
H20 H -0.0647 0.3429 -0.0329
loop_
_geom_bond_atom_site_label_1
_geom_bond_atom_site_label_2
_geom_bond_site_symmetry_1
_geom_bond_site_symmetry_2
C1 C2 1_555 1_555
C2 H1 1_555 1_555
C3 C2 1_555 1_555
H2 C3 1_555 1_555
C4 C3 1_555 1_555
H3 C4 1_555 1_555
C5 C4 1_555 1_555
H4 C5 1_555 1_555
C6 C1 1_555 1_555
C7 C6 1_555 1_555
H5 C7 1_555 1_555
C8 C9 1_555 1_555
C9 H6 1_555 1_555
C10 C9 1_555 1_555
C11 C12 1_555 1_555
C12 C13 1_555 1_555
C13 H7 1_555 1_555
C14 C13 1_555 1_555
H8 C14 1_555 1_555
C15 C14 1_555 1_555
H9 C15 1_555 1_555
C16 C15 1_555 1_555
H10 C16 1_555 1_555
C17 C12 1_555 1_555
H11 C17 1_555 1_555
C18 H12 1_555 1_555
C19 C18 1_555 1_555
C20 C19 1_555 1_555
H13 C20 1_555 1_555
C21 C20 1_555 1_555
H14 C21 1_555 1_555
C22 C21 1_555 1_555
H15 C22 1_555 1_555
C23 C22 1_555 1_555
H16 C23 1_555 1_555
C24 C19 1_555 1_555
N1 C7 1_555 1_555
N2 C8 1_555 1_555
H17 N2 1_555 1_555
N3 C8 1_555 1_555
N4 C10 1_555 1_555
N5 C10 1_555 1_555
H18 N5 1_555 1_555
N6 C18 1_555 1_555
O1 C1 1_555 1_555
H19 O1 1_555 1_555
O2 C24 1_555 1_555
H20 O2 1_555 1_555
C5 C6 1_555 1_555
C11 N3 1_555 1_555
C11 N4 1_555 1_555
C16 C17 1_555 1_555
C23 C24 1_555 1_555
N1 N2 1_555 1_555
N5 N6 1_555 1_555

#END
