
#######################################################################
#
#                 Cambridge Crystallographic Data Centre
#                                CCDC 
#
#######################################################################
#
# If this CIF has been generated from an entry in the Cambridge 
# Structural Database, then it will include bibliographic, chemical, 
# crystal, experimental, refinement or atomic coordinate data resulting 
# from the CCDC's data processing and validation procedures.
#
#######################################################################

data_TILDUP
_chemical_formula_moiety         'C49 H30 B1 N3,2(C1 H2 Cl2)'
_chemical_name_systematic        
'3,6,9-triphenyl-9c-(pyren-1-yl)-9cH-8b,9b,9d-triaza-9c-boratricyclopenta[cd,gh,kl]phenalene dichloromethane solvate'
_symmetry_cell_setting           monoclinic
_symmetry_space_group_name_H-M   'P 21/n'
_symmetry_Int_Tables_number      14
_space_group_name_Hall           '-P 2yn'
loop_
_symmetry_equiv_pos_site_id
_symmetry_equiv_pos_as_xyz
1 x,y,z
2 1/2-x,1/2+y,1/2-z
3 -x,-y,-z
4 1/2+x,1/2-y,1/2+z
_cell_length_a                   15.6136(3)
_cell_length_b                   12.1864(3)
_cell_length_c                   21.1699(5)
_cell_angle_alpha                90
_cell_angle_beta                 91.0355(13)
_cell_angle_gamma                90
_cell_volume                     4027.41
_exptl_crystal_colour            orange
_exptl_crystal_description       prism
_cell_formula_units_Z            4
loop_
_atom_site_label
_atom_site_type_symbol
_atom_site_fract_x
_atom_site_fract_y
_atom_site_fract_z
N1 N -0.0189(2) -0.6101(3) 0.16574(16)
N2 N -0.1685(2) -0.6233(3) 0.18156(15)
N3 N -0.1105(2) -0.4579(3) 0.14199(16)
C1 C 0.0424(3) -0.5680(4) 0.1271(2)
C2 C 0.0975(3) -0.6587(5) 0.1116(2)
H1 H 0.1480 -0.6544 0.0874
C3 C 0.0645(3) -0.7525(5) 0.1380(2)
H2 H 0.0883 -0.8240 0.1354
C4 C -0.0125(3) -0.7225(4) 0.1702(2)
C5 C -0.0831(3) -0.7859(4) 0.1886(2)
C6 C -0.1646(3) -0.7350(4) 0.19128(19)
C7 C -0.2516(3) -0.7715(4) 0.1925(2)
H3 H -0.2699 -0.8444 0.2007
C8 C -0.3043(3) -0.6837(4) 0.1800(2)
H4 H -0.3651 -0.6853 0.1781
C9 C -0.2513(3) -0.5886(4) 0.17028(19)
C10 C -0.2643(3) -0.4805(4) 0.14579(19)
C11 C -0.1920(3) -0.4209(4) 0.1266(2)
C12 C -0.1808(3) -0.3361(4) 0.0808(2)
H5 H -0.2249 -0.2915 0.0631
C13 C -0.0958(3) -0.3304(4) 0.0670(2)
H6 H -0.0708 -0.2804 0.0382
C14 C -0.0500(3) -0.4127(4) 0.1032(2)
C15 C 0.0316(3) -0.4630(4) 0.0990(2)
C16 C -0.0741(3) -0.9077(4) 0.1921(2)
C17 C -0.1323(3) -0.9748(4) 0.1601(2)
H7 H -0.1782 -0.9431 0.1364
C18 C -0.1234(4) -1.0875(5) 0.1628(2)
H8 H -0.1633 -1.1329 0.1408
C19 C -0.0574(4) -1.1347(5) 0.1972(3)
H9 H -0.0520 -1.2123 0.1988
C20 C 0.0010(4) -1.0691(5) 0.2292(2)
H10 H 0.0467 -1.1017 0.2528
C21 C -0.0071(3) -0.9552(5) 0.2269(2)
H11 H 0.0330 -0.9100 0.2490
C22 C -0.3515(3) -0.4388(4) 0.1327(2)
C23 C -0.3711(3) -0.3322(4) 0.1519(2)
H12 H -0.3279 -0.2876 0.1709
C24 C -0.4532(3) -0.2912(4) 0.1433(2)
H13 H -0.4661 -0.2188 0.1568
C25 C -0.5164(3) -0.3549(5) 0.1151(2)
H14 H -0.5728 -0.3267 0.1097
C26 C -0.4971(3) -0.4600(5) 0.0947(2)
H15 H -0.5402 -0.5037 0.0748
C27 C -0.4160(3) -0.5009(4) 0.1032(2)
H16 H -0.4033 -0.5728 0.0887
C28 C 0.1016(3) -0.4159(4) 0.0638(2)
C29 C 0.0918(3) -0.3653(4) 0.0050(2)
H17 H 0.0363 -0.3611 -0.0139
C30 C 0.1611(4) -0.3207(4) -0.0267(2)
H18 H 0.1518 -0.2847 -0.0661
C31 C 0.2414(4) -0.3283(5) -0.0021(3)
H19 H 0.2886 -0.2979 -0.0237
C32 C 0.2535(4) -0.3808(6) 0.0551(4)
H20 H 0.3100 -0.3882 0.0721
C33 C 0.1854(4) -0.4233(5) 0.0885(3)
H21 H 0.1955 -0.4575 0.1282
C34 C -0.0871(3) -0.5064(3) 0.2651(2)
C35 C -0.0240(3) -0.4346(4) 0.2910(2)
C36 C 0.0425(3) -0.3868(4) 0.2544(2)
H22 H 0.0440 -0.4041 0.2107
C37 C 0.1034(3) -0.3183(4) 0.2783(2)
H23 H 0.1463 -0.2902 0.2514
C38 C 0.1036(3) -0.2881(4) 0.3437(2)
C39 C 0.1652(3) -0.2160(4) 0.3699(2)
H24 H 0.2082 -0.1857 0.3440
C40 C 0.1628(3) -0.1892(4) 0.4339(2)
H25 H 0.2049 -0.1411 0.4513
C41 C 0.1011(3) -0.2310(4) 0.4722(2)
H26 H 0.1005 -0.2114 0.5156
C42 C 0.0382(3) -0.3031(4) 0.4474(2)
C43 C -0.0266(3) -0.3490(4) 0.4862(2)
H27 H -0.0276 -0.3295 0.5296
C44 C -0.0861(3) -0.4187(4) 0.4632(2)
H28 H -0.1281 -0.4479 0.4905
C45 C -0.0865(3) -0.4493(4) 0.3976(2)
C46 C -0.1474(3) -0.5217(4) 0.3719(2)
H29 H -0.1893 -0.5536 0.3982
C47 C -0.1467(3) -0.5472(4) 0.3078(2)
H30 H -0.1897 -0.5956 0.2920
C48 C -0.0244(3) -0.4050(4) 0.3570(2)
C49 C 0.0394(3) -0.3318(4) 0.3826(2)
B1 B -0.0946(3) -0.5461(5) 0.1915(2)
C50 C 0.2787(16) -0.0625(16) 0.1568(9)
Cl1 Cl 0.2232(2) -0.0003(3) 0.2308(2)
Cl2 Cl 0.3389(2) -0.1665(3) 0.21662(17)
C53 C 0.1395(7) -0.0354(10) 0.0091(5)
Cl7 Cl 0.20386(15) 0.07886(18) 0.02629(10)
Cl8 Cl 0.07121(14) -0.06527(17) 0.07259(10)
Cl3? Cl 0.2113(19) -0.008(4) 0.082(3)
C51? C 0.175(4) -0.138(8) 0.025(3)
Cl4? Cl 0.081(3) -0.022(3) 0.0091(19)
Cl5? Cl 0.2883(4) -0.1733(6) 0.1456(4)
Cl6? Cl 0.2585(18) -0.041(2) 0.2332(13)
C52? C 0.3036(11) -0.0600(13) 0.1781(7)
loop_
_geom_bond_atom_site_label_1
_geom_bond_atom_site_label_2
_geom_bond_site_symmetry_1
_geom_bond_site_symmetry_2
N1 C1 1_555 1_555
N2 C6 1_555 1_555
N3 C11 1_555 1_555
C1 C2 1_555 1_555
C2 H1 1_555 1_555
C3 C2 1_555 1_555
H2 C3 1_555 1_555
C4 N1 1_555 1_555
C5 C4 1_555 1_555
C6 C5 1_555 1_555
C7 C6 1_555 1_555
H3 C7 1_555 1_555
C8 C7 1_555 1_555
H4 C8 1_555 1_555
C9 N2 1_555 1_555
C10 C9 1_555 1_555
C11 C10 1_555 1_555
C12 C11 1_555 1_555
H5 C12 1_555 1_555
C13 C12 1_555 1_555
H6 C13 1_555 1_555
C14 N3 1_555 1_555
C15 C1 1_555 1_555
C16 C5 1_555 1_555
C17 C16 1_555 1_555
H7 C17 1_555 1_555
C18 C17 1_555 1_555
H8 C18 1_555 1_555
C19 C18 1_555 1_555
H9 C19 1_555 1_555
C20 C19 1_555 1_555
H10 C20 1_555 1_555
C21 C16 1_555 1_555
H11 C21 1_555 1_555
C22 C10 1_555 1_555
C23 C22 1_555 1_555
H12 C23 1_555 1_555
C24 C23 1_555 1_555
H13 C24 1_555 1_555
C25 C24 1_555 1_555
H14 C25 1_555 1_555
C26 C25 1_555 1_555
H15 C26 1_555 1_555
C27 C22 1_555 1_555
H16 C27 1_555 1_555
C28 C15 1_555 1_555
C29 C28 1_555 1_555
H17 C29 1_555 1_555
C30 C29 1_555 1_555
H18 C30 1_555 1_555
C31 C30 1_555 1_555
H19 C31 1_555 1_555
C32 C31 1_555 1_555
H20 C32 1_555 1_555
C33 C28 1_555 1_555
H21 C33 1_555 1_555
C34 C35 1_555 1_555
C35 C36 1_555 1_555
C36 H22 1_555 1_555
C37 C36 1_555 1_555
H23 C37 1_555 1_555
C38 C37 1_555 1_555
C39 C38 1_555 1_555
H24 C39 1_555 1_555
C40 C39 1_555 1_555
H25 C40 1_555 1_555
C41 C40 1_555 1_555
H26 C41 1_555 1_555
C42 C41 1_555 1_555
C43 C42 1_555 1_555
H27 C43 1_555 1_555
C44 C43 1_555 1_555
H28 C44 1_555 1_555
C45 C44 1_555 1_555
C46 C45 1_555 1_555
H29 C46 1_555 1_555
C47 C34 1_555 1_555
H30 C47 1_555 1_555
C48 C35 1_555 1_555
C49 C38 1_555 1_555
B1 N1 1_555 1_555
C50 Cl1 1_555 1_555
Cl2 C50 1_555 1_555
C53 Cl7 1_555 1_555
Cl8 C53 1_555 1_555
N2 B1 1_555 1_555
N3 B1 1_555 1_555
C3 C4 1_555 1_555
C8 C9 1_555 1_555
C13 C14 1_555 1_555
C14 C15 1_555 1_555
C20 C21 1_555 1_555
C26 C27 1_555 1_555
C32 C33 1_555 1_555
C34 B1 1_555 1_555
C42 C49 1_555 1_555
C45 C48 1_555 1_555
C46 C47 1_555 1_555
C48 C49 1_555 1_555

#END
