
#######################################################################
#
#                 Cambridge Crystallographic Data Centre
#                                CCDC 
#
#######################################################################
#
# If this CIF has been generated from an entry in the Cambridge 
# Structural Database, then it will include bibliographic, chemical, 
# crystal, experimental, refinement or atomic coordinate data resulting 
# from the CCDC's data processing and validation procedures.
#
#######################################################################

data_TILFOL
_chemical_formula_moiety         'C43 H28 B1 N3'
_chemical_name_systematic        
9c-(1-Naphthyl)-3,6,9-triphenyl-9cH-8b,9b,9d-triaza-9c-boratricyclopenta[cd,gh,kl]phenalene
_symmetry_cell_setting           monoclinic
_symmetry_space_group_name_H-M   'P 21/n'
_symmetry_Int_Tables_number      14
_space_group_name_Hall           '-P 2yn'
loop_
_symmetry_equiv_pos_site_id
_symmetry_equiv_pos_as_xyz
1 x,y,z
2 1/2-x,1/2+y,1/2-z
3 -x,-y,-z
4 1/2+x,1/2-y,1/2+z
_cell_length_a                   13.7238(3)
_cell_length_b                   14.5967(3)
_cell_length_c                   15.4977(3)
_cell_angle_alpha                90
_cell_angle_beta                 108.3054(7)
_cell_angle_gamma                90
_cell_volume                     2947.43
_exptl_crystal_colour            orange
_exptl_crystal_description       prism
_cell_formula_units_Z            4
loop_
_atom_site_label
_atom_site_type_symbol
_atom_site_fract_x
_atom_site_fract_y
_atom_site_fract_z
C1 C 0.68857(13) 0.57286(14) 0.29468(12)
C2 C 0.63036(13) 0.48942(14) 0.27173(12)
H1 H 0.5944 0.4601 0.3074
C3 C 0.63576(13) 0.45972(14) 0.19009(12)
H2 H 0.6043 0.4060 0.1590
C4 C 0.69689(13) 0.52308(14) 0.15916(12)
C5 C 0.75027(14) 0.51525(14) 0.09441(12)
C6 C 0.84171(14) 0.56704(14) 0.10900(12)
C7 C 0.92840(14) 0.56324(14) 0.07679(13)
H3 H 0.9334 0.5272 0.0273
C8 C 1.00276(14) 0.61996(15) 0.12891(12)
H4 H 1.0683 0.6301 0.1221
C9 C 0.96452(14) 0.66167(14) 0.19587(13)
C10 C 1.00760(14) 0.71384(14) 0.27676(12)
C11 C 0.95075(13) 0.72081(13) 0.33835(12)
C12 C 0.98119(14) 0.73470(14) 0.43475(12)
H5 H 1.0452 0.7586 0.4714
C13 C 0.90228(13) 0.70765(14) 0.46476(13)
H6 H 0.9018 0.7099 0.5259
C14 C 0.81984(14) 0.67510(14) 0.38797(13)
C15 C 0.73111(13) 0.62111(14) 0.37827(12)
C16 C 0.71727(14) 0.44811(14) 0.01953(12)
C17 C 0.61606(14) 0.44888(15) -0.03801(12)
H7 H 0.5682 0.4905 -0.0267
C18 C 0.58439(16) 0.38932(15) -0.11183(13)
H8 H 0.5152 0.3902 -0.1503
C19 C 0.65331(15) 0.32925(15) -0.12903(13)
H9 H 0.6321 0.2893 -0.1799
C20 C 0.75401(15) 0.32733(15) -0.07171(14)
H10 H 0.8016 0.2857 -0.0834
C21 C 0.78528(14) 0.38529(14) 0.00182(13)
H11 H 0.8541 0.3825 0.0411
C22 C 1.11388(14) 0.74907(16) 0.30354(12)
C23 C 1.19606(14) 0.69384(17) 0.30121(13)
H12 H 1.1837 0.6330 0.2788
C24 C 1.29541(15) 0.7271(2) 0.33132(13)
H13 H 1.3507 0.6888 0.3296
C25 C 1.31495(16) 0.8150(2) 0.36360(14)
H14 H 1.3835 0.8371 0.3848
C26 C 1.23460(16) 0.87145(18) 0.36518(14)
H15 H 1.2477 0.9326 0.3866
C27 C 1.13440(15) 0.83830(16) 0.33524(13)
H16 H 1.0794 0.8772 0.3365
C28 C 0.68510(14) 0.61022(13) 0.45249(12)
C29 C 0.57882(14) 0.62000(14) 0.43245(13)
H17 H 0.5374 0.6297 0.3713
C30 C 0.53321(16) 0.61572(15) 0.50017(14)
H18 H 0.4610 0.6227 0.4853
C31 C 0.59250(16) 0.60130(15) 0.59009(14)
H19 H 0.5613 0.5992 0.6368
C32 C 0.69709(15) 0.59010(14) 0.61060(13)
H20 H 0.7378 0.5787 0.6716
C33 C 0.74324(15) 0.59522(14) 0.54337(13)
H21 H 0.8156 0.5885 0.5590
C34 C 0.73379(13) 0.76180(14) 0.15633(12)
C35 C 0.76624(14) 0.78940(14) 0.08408(12)
H22 H 0.8159 0.7531 0.0689
C36 C 0.72921(14) 0.86854(14) 0.03207(13)
H23 H 0.7538 0.8843 -0.0169
C37 C 0.65867(14) 0.92215(15) 0.05191(13)
H24 H 0.6343 0.9755 0.0167
C38 C 0.62076(14) 0.89999(14) 0.12410(13)
C39 C 0.54816(14) 0.95693(14) 0.14513(13)
H25 H 0.5271 1.0121 0.1121
C40 C 0.50765(14) 0.93380(15) 0.21245(13)
H26 H 0.4581 0.9722 0.2254
C41 C 0.54008(14) 0.85270(15) 0.26215(13)
H27 H 0.5112 0.8356 0.3080
C42 C 0.61324(14) 0.79807(15) 0.24485(13)
H28 H 0.6352 0.7446 0.2806
C43 C 0.65711(13) 0.81835(14) 0.17599(12)
N1 N 0.72095(11) 0.59293(11) 0.22187(10)
N2 N 0.86598(11) 0.63057(11) 0.17733(10)
N3 N 0.85100(11) 0.69117(11) 0.31359(10)
B1 B 0.78813(16) 0.67286(17) 0.21567(14)
loop_
_geom_bond_atom_site_label_1
_geom_bond_atom_site_label_2
_geom_bond_site_symmetry_1
_geom_bond_site_symmetry_2
C1 C2 1_555 1_555
C2 H1 1_555 1_555
C3 C2 1_555 1_555
H2 C3 1_555 1_555
C4 C3 1_555 1_555
C5 C4 1_555 1_555
C6 C5 1_555 1_555
C7 C6 1_555 1_555
H3 C7 1_555 1_555
C8 C7 1_555 1_555
H4 C8 1_555 1_555
C9 C8 1_555 1_555
C10 C9 1_555 1_555
C11 C10 1_555 1_555
C12 C11 1_555 1_555
H5 C12 1_555 1_555
C13 C12 1_555 1_555
H6 C13 1_555 1_555
C14 C13 1_555 1_555
C15 C1 1_555 1_555
C16 C5 1_555 1_555
C17 C16 1_555 1_555
H7 C17 1_555 1_555
C18 C17 1_555 1_555
H8 C18 1_555 1_555
C19 C18 1_555 1_555
H9 C19 1_555 1_555
C20 C19 1_555 1_555
H10 C20 1_555 1_555
C21 C16 1_555 1_555
H11 C21 1_555 1_555
C22 C10 1_555 1_555
C23 C22 1_555 1_555
H12 C23 1_555 1_555
C24 C23 1_555 1_555
H13 C24 1_555 1_555
C25 C24 1_555 1_555
H14 C25 1_555 1_555
C26 C25 1_555 1_555
H15 C26 1_555 1_555
C27 C22 1_555 1_555
H16 C27 1_555 1_555
C28 C15 1_555 1_555
C29 C28 1_555 1_555
H17 C29 1_555 1_555
C30 C29 1_555 1_555
H18 C30 1_555 1_555
C31 C30 1_555 1_555
H19 C31 1_555 1_555
C32 C31 1_555 1_555
H20 C32 1_555 1_555
C33 C28 1_555 1_555
H21 C33 1_555 1_555
C34 C35 1_555 1_555
C35 H22 1_555 1_555
C36 C35 1_555 1_555
H23 C36 1_555 1_555
C37 C36 1_555 1_555
H24 C37 1_555 1_555
C38 C37 1_555 1_555
C39 C38 1_555 1_555
H25 C39 1_555 1_555
C40 C39 1_555 1_555
H26 C40 1_555 1_555
C41 C40 1_555 1_555
H27 C41 1_555 1_555
C42 C41 1_555 1_555
H28 C42 1_555 1_555
C43 C34 1_555 1_555
N1 C1 1_555 1_555
N2 C6 1_555 1_555
N3 C11 1_555 1_555
B1 C34 1_555 1_555
C4 N1 1_555 1_555
C9 N2 1_555 1_555
C14 C15 1_555 1_555
C14 N3 1_555 1_555
C20 C21 1_555 1_555
C26 C27 1_555 1_555
C32 C33 1_555 1_555
C38 C43 1_555 1_555
C42 C43 1_555 1_555
N1 B1 1_555 1_555
N2 B1 1_555 1_555
N3 B1 1_555 1_555

#END
