
#######################################################################
#
#                 Cambridge Crystallographic Data Centre
#                                CCDC 
#
#######################################################################
#
# If this CIF has been generated from an entry in the Cambridge 
# Structural Database, then it will include bibliographic, chemical, 
# crystal, experimental, refinement or atomic coordinate data resulting 
# from the CCDC's data processing and validation procedures.
#
#######################################################################

data_TILHIH
_chemical_formula_moiety         'C18 H14 N2 O3,C2 H4 O2'
_chemical_name_systematic        
'6-Methoxy-3-methyl-1-phenylchromeno[4,3-c]pyrazol-4(1H)-one acetic acid solvate'
_symmetry_cell_setting           monoclinic
_symmetry_space_group_name_H-M   'P 21/c'
_symmetry_Int_Tables_number      14
_space_group_name_Hall           '-P 2ybc'
loop_
_symmetry_equiv_pos_site_id
_symmetry_equiv_pos_as_xyz
1 x,y,z
2 -x,1/2+y,1/2-z
3 -x,-y,-z
4 x,1/2-y,1/2+z
_cell_length_a                   20.3573(13)
_cell_length_b                   7.1099(5)
_cell_length_c                   25.7968(16)
_cell_angle_alpha                90
_cell_angle_beta                 107.251(7)
_cell_angle_gamma                90
_cell_volume                     3565.82
_cell_formula_units_Z            8
loop_
_atom_site_label
_atom_site_type_symbol
_atom_site_fract_x
_atom_site_fract_y
_atom_site_fract_z
C1 C 0.39422(18) 0.7707(5) 0.98854(14)
C2 C 0.38424(18) 0.8021(6) 0.85983(14)
C3 C 0.55158(19) 0.7621(5) 0.94929(15)
C4 C 0.51566(17) 0.7502(5) 0.98846(14)
C5 C 0.41964(19) 0.7460(5) 1.04420(15)
C6 C 0.44619(17) 0.7699(5) 0.96044(14)
C7 C 0.32276(18) 0.7951(5) 0.96488(16)
H1 H 0.3049 0.8143 0.9277
C8 C 0.3772(2) 0.9584(6) 0.82769(15)
H2 H 0.4083 1.0573 0.8376
C9 C 0.3058(2) 0.7601(6) 1.05255(17)
H3 H 0.2758 0.7529 1.0736
C10 C 0.2841(2) 0.6679(7) 0.80000(17)
H4 H 0.2517 0.5717 0.7908
C11 C 0.2795(2) 0.7903(6) 0.99729(17)
H5 H 0.2324 0.8075 0.9818
C12 C 0.5398(2) 0.7279(5) 1.04613(15)
C13 C 0.3758(2) 0.7402(5) 1.07721(15)
C14 C 0.33846(19) 0.6534(6) 0.84642(16)
H6 H 0.3444 0.5468 0.8682
C15 C 0.3231(2) 0.9674(7) 0.78037(17)
H7 H 0.3181 1.0714 0.7577
C16 C 0.2769(2) 0.8218(7) 0.76710(16)
H8 H 0.2403 0.8280 0.7354
C17 C 0.62696(19) 0.7491(6) 0.95710(18)
H9 H 0.6352 0.7476 0.9223
H10 H 0.6446 0.6356 0.9764
H11 H 0.6496 0.8557 0.9776
C18 C 0.3642(3) 0.6942(7) 1.16552(18)
H12 H 0.3355 0.8033 1.1624
H13 H 0.3928 0.6816 1.2024
H14 H 0.3359 0.5843 1.1553
N1 N 0.50728(15) 0.7856(4) 0.90056(12)
N2 N 0.44216(14) 0.7891(4) 0.90758(12)
O1 O 0.48894(13) 0.7244(4) 1.07182(10)
O2 O 0.59846(14) 0.7111(4) 1.07443(11)
O3 O 0.40647(16) 0.7140(5) 1.13059(11)
C19 C 0.89584(19) 0.7319(5) 0.46178(14)
C20 C 0.92402(18) 0.7500(5) 0.41894(15)
C21 C 0.88044(18) 0.7088(5) 0.58422(14)
C22 C 1.01540(17) 0.7495(5) 0.52068(14)
C23 C 1.04961(18) 0.7421(5) 0.57709(15)
C24 C 1.04223(19) 0.7634(5) 0.47523(15)
C25 C 0.82411(19) 0.7121(6) 0.45009(16)
H15 H 0.8046 0.6970 0.4782
C26 C 0.8115(2) 0.7356(6) 0.35459(16)
H16 H 0.7828 0.7378 0.3190
C27 C 0.8819(2) 0.7529(5) 0.36441(15)
C28 C 0.94605(17) 0.7351(5) 0.51463(14)
C29 C 0.83371(19) 0.8545(6) 0.57359(15)
H17 H 0.8401 0.9596 0.5542
C30 C 0.7827(2) 0.7151(6) 0.39698(16)
H18 H 0.7353 0.7033 0.3894
C31 C 0.8168(2) 0.5468(7) 0.63408(16)
H19 H 0.8118 0.4449 0.6552
C32 C 0.7692(2) 0.6867(7) 0.62304(16)
H20 H 0.7313 0.6790 0.6361
C33 C 0.7768(2) 0.8403(7) 0.59258(17)
H21 H 0.7437 0.9347 0.5848
C34 C 0.8728(2) 0.5551(6) 0.61404(15)
H22 H 0.9047 0.4577 0.6207
C35 C 1.1244(2) 0.7530(6) 0.60590(17)
H23 H 1.1315 0.7479 0.6444
H24 H 1.1425 0.8689 0.5968
H25 H 1.1475 0.6491 0.5951
C36 C 0.8740(3) 0.7968(7) 0.27160(17)
H26 H 0.8469 0.6859 0.2596
H27 H 0.9037 0.8169 0.2493
H28 H 0.8442 0.9033 0.2688
N3 N 1.00370(15) 0.7237(4) 0.60413(12)
N4 N 0.94011(14) 0.7205(4) 0.56526(12)
O4 O 0.99315(13) 0.7657(4) 0.42528(10)
O5 O 1.10258(14) 0.7733(4) 0.47632(12)
O6 O 0.91439(15) 0.7734(4) 0.32637(11)
C37 C 0.0695(2) 0.8439(7) 0.25025(19)
C38 C 0.0669(3) 0.8966(8) 0.30525(18)
H29 H 0.0378 0.8101 0.3167
H30 H 0.0489 1.0216 0.3044
H31 H 0.1125 0.8921 0.3302
O7 O 0.1179(2) 0.7890(7) 0.24024(17)
O8 O 0.01059(15) 0.8661(6) 0.21265(12)
H32 H 0.0149 0.8375 0.1830
C39 C 0.4292(2) 0.1483(6) 0.21815(18)
C40 C 0.4376(3) 0.0947(8) 0.27539(19)
H33 H 0.4702 0.1773 0.2992
H34 H 0.4539 -0.0325 0.2813
H35 H 0.3941 0.1046 0.2826
O9 O 0.37680(18) 0.2042(6) 0.18693(15)
O10 O 0.48640(15) 0.1257(6) 0.20489(12)
H36 H 0.4798 0.1558 0.1731
loop_
_geom_bond_atom_site_label_1
_geom_bond_atom_site_label_2
_geom_bond_site_symmetry_1
_geom_bond_site_symmetry_2
C1 C5 1_555 1_555
C2 C8 1_555 1_555
C3 C4 1_555 1_555
C4 C6 1_555 1_555
C5 C13 1_555 1_555
C6 C1 1_555 1_555
C7 C1 1_555 1_555
H1 C7 1_555 1_555
C8 H2 1_555 1_555
C9 H3 1_555 1_555
C10 H4 1_555 1_555
C11 C7 1_555 1_555
H5 C11 1_555 1_555
C12 C4 1_555 1_555
C13 C9 1_555 1_555
C14 C2 1_555 1_555
H6 C14 1_555 1_555
C15 C8 1_555 1_555
H7 C15 1_555 1_555
C16 C10 1_555 1_555
H8 C16 1_555 1_555
C17 C3 1_555 1_555
H9 C17 1_555 1_555
H10 C17 1_555 1_555
H11 C17 1_555 1_555
C18 H12 1_555 1_555
H13 C18 1_555 1_555
H14 C18 1_555 1_555
N1 C3 1_555 1_555
N2 C2 1_555 1_555
O1 C5 1_555 1_555
O2 C12 1_555 1_555
O3 C13 1_555 1_555
C19 C20 1_555 1_555
C20 C27 1_555 1_555
C21 C29 1_555 1_555
C22 C23 1_555 1_555
C23 C35 1_555 1_555
C24 C22 1_555 1_555
C25 C19 1_555 1_555
H15 C25 1_555 1_555
C26 H16 1_555 1_555
C27 C26 1_555 1_555
C28 C19 1_555 1_555
C29 H17 1_555 1_555
C30 C25 1_555 1_555
H18 C30 1_555 1_555
C31 H19 1_555 1_555
C32 C31 1_555 1_555
H20 C32 1_555 1_555
C33 C29 1_555 1_555
H21 C33 1_555 1_555
C34 C21 1_555 1_555
H22 C34 1_555 1_555
C35 H23 1_555 1_555
H24 C35 1_555 1_555
H25 C35 1_555 1_555
C36 H26 1_555 1_555
H27 C36 1_555 1_555
H28 C36 1_555 1_555
N3 C23 1_555 1_555
N4 C21 1_555 1_555
O4 C20 1_555 1_555
O5 C24 1_555 1_555
O6 C27 1_555 1_555
C37 C38 1_555 1_555
C38 H29 1_555 1_555
H30 C38 1_555 1_555
H31 C38 1_555 1_555
O7 C37 1_555 1_555
O8 C37 1_555 1_555
H32 O8 1_555 1_555
C39 C40 1_555 1_555
C40 H33 1_555 1_555
H34 C40 1_555 1_555
H35 C40 1_555 1_555
O9 C39 1_555 1_555
O10 C39 1_555 1_555
H36 O10 1_555 1_555
C6 N2 1_555 1_555
C9 C11 1_555 1_555
C10 C14 1_555 1_555
C12 O1 1_555 1_555
C15 C16 1_555 1_555
C18 O3 1_555 1_555
N1 N2 1_555 1_555
C22 C28 1_555 1_555
C24 O4 1_555 1_555
C26 C30 1_555 1_555
C28 N4 1_555 1_555
C31 C34 1_555 1_555
C32 C33 1_555 1_555
C36 O6 1_555 1_555
N3 N4 1_555 1_555

#END
