
#######################################################################
#
#                 Cambridge Crystallographic Data Centre
#                                CCDC 
#
#######################################################################
#
# If this CIF has been generated from an entry in the Cambridge 
# Structural Database, then it will include bibliographic, chemical, 
# crystal, experimental, refinement or atomic coordinate data resulting 
# from the CCDC's data processing and validation procedures.
#
#######################################################################

data_TILMUZ
_chemical_formula_moiety         'C24 H19 F2 N1 O1'
_chemical_name_systematic        
4-(7,9-difluoro-2-methylphenanthridin-6-yl)-1-phenylbutan-2-one
_symmetry_cell_setting           triclinic
_symmetry_space_group_name_H-M   'P -1'
_symmetry_Int_Tables_number      2
_space_group_name_Hall           '-P 1'
loop_
_symmetry_equiv_pos_site_id
_symmetry_equiv_pos_as_xyz
1 x,y,z
2 -x,-y,-z
_cell_length_a                   5.0642(2)
_cell_length_b                   10.8972(7)
_cell_length_c                   17.6773(13)
_cell_angle_alpha                76.515(6)
_cell_angle_beta                 82.081(5)
_cell_angle_gamma                83.140(5)
_cell_volume                     935.723
_exptl_crystal_colour            colorless
_exptl_crystal_description       block
_cell_formula_units_Z            2
loop_
_atom_site_label
_atom_site_type_symbol
_atom_site_fract_x
_atom_site_fract_y
_atom_site_fract_z
F1 F 0.7127(2) 0.38393(12) 0.53169(6)
F2 F 0.0543(2) 0.10343(12) 0.59136(7)
O1 O 0.7871(3) 0.63970(15) 0.26343(8)
N1 N 0.8899(3) 0.32267(14) 0.30333(8)
C1 C 0.4979(3) 0.19202(15) 0.41245(10)
C2 C 0.6408(3) 0.28163(15) 0.43197(10)
C3 C 0.8362(3) 0.34764(16) 0.37261(10)
C4 C 0.5781(4) 0.30212(17) 0.50848(10)
C5 C 0.5646(3) 0.16337(16) 0.33577(10)
C6 C 0.3876(4) 0.24387(18) 0.56251(11)
H1 H 0.3525 0.2598 0.6126
C7 C 0.7629(4) 0.22968(17) 0.28471(10)
C8 C 0.9835(4) 0.45064(17) 0.38740(10)
H2 H 1.0919 0.4149 0.4298
H3 H 0.8541 0.5151 0.4039
C9 C 1.0069(4) 0.58675(18) 0.25083(11)
C10 C 0.4488(4) 0.07058(18) 0.31105(12)
H4 H 0.3146 0.0276 0.3443
C11 C 0.2490(4) 0.15988(17) 0.53904(11)
C12 C 1.1624(4) 0.51208(19) 0.31598(11)
H5 H 1.2708 0.5681 0.3310
H6 H 1.2823 0.4468 0.2969
C13 C 0.2980(4) 0.13208(17) 0.46743(11)
H7 H 0.2009 0.0741 0.4546
C14 C 0.5274(4) 0.04128(19) 0.23930(12)
C15 C 0.8404(4) 0.2010(2) 0.21081(12)
H8 H 0.9700 0.2452 0.1762
C16 C 0.9830(4) 0.6612(2) 0.10469(11)
C17 C 0.7267(4) 0.1086(2) 0.18961(12)
H9 H 0.7829 0.0898 0.1409
C18 C 0.4044(5) -0.0615(2) 0.21575(15)
H10 H 0.5342 -0.1332 0.2152
H11 H 0.3485 -0.0302 0.1645
H12 H 0.2523 -0.0865 0.2526
C19 C 1.1465(5) 0.5941(3) 0.16928(12)
H13 H 1.3074 0.6370 0.1641
H14 H 1.2015 0.5086 0.1625
C20 C 0.8471(6) 0.5952(3) 0.06806(16)
H15 H 0.8571 0.5073 0.0832
C21 C 0.9610(6) 0.7903(3) 0.08098(15)
H16 H 1.0508 0.8376 0.1050
C22 C 0.6780(6) 0.7847(4) -0.01340(17)
H17 H 0.5761 0.8264 -0.0533
C23 C 0.6944(6) 0.6574(4) 0.00857(18)
H18 H 0.6038 0.6112 -0.0160
C24 C 0.8082(7) 0.8518(3) 0.02213(18)
H19 H 0.7952 0.9398 0.0070
loop_
_geom_bond_atom_site_label_1
_geom_bond_atom_site_label_2
_geom_bond_site_symmetry_1
_geom_bond_site_symmetry_2
F1 C4 1_555 1_555
F2 C11 1_555 1_555
O1 C9 1_555 1_555
N1 C3 1_555 1_555
C1 C2 1_555 1_555
C2 C3 1_555 1_555
C3 C8 1_555 1_555
C4 C2 1_555 1_555
C5 C1 1_555 1_555
C6 C4 1_555 1_555
H1 C6 1_555 1_555
C7 N1 1_555 1_555
C8 H2 1_555 1_555
H3 C8 1_555 1_555
C9 C12 1_555 1_555
C10 C5 1_555 1_555
H4 C10 1_555 1_555
C11 C6 1_555 1_555
C12 C8 1_555 1_555
H5 C12 1_555 1_555
H6 C12 1_555 1_555
C13 C1 1_555 1_555
H7 C13 1_555 1_555
C14 C10 1_555 1_555
C15 C7 1_555 1_555
H8 C15 1_555 1_555
C16 C19 1_555 1_555
C17 C14 1_555 1_555
H9 C17 1_555 1_555
C18 C14 1_555 1_555
H10 C18 1_555 1_555
H11 C18 1_555 1_555
H12 C18 1_555 1_555
C19 C9 1_555 1_555
H13 C19 1_555 1_555
H14 C19 1_555 1_555
C20 C16 1_555 1_555
H15 C20 1_555 1_555
C21 C16 1_555 1_555
H16 C21 1_555 1_555
C22 H17 1_555 1_555
C23 C20 1_555 1_555
H18 C23 1_555 1_555
C24 C21 1_555 1_555
H19 C24 1_555 1_555
C5 C7 1_555 1_555
C11 C13 1_555 1_555
C15 C17 1_555 1_555
C22 C23 1_555 1_555
C22 C24 1_555 1_555

#END
