
#######################################################################
#
#                 Cambridge Crystallographic Data Centre
#                                CCDC 
#
#######################################################################
#
# If this CIF has been generated from an entry in the Cambridge 
# Structural Database, then it will include bibliographic, chemical, 
# crystal, experimental, refinement or atomic coordinate data resulting 
# from the CCDC's data processing and validation procedures.
#
#######################################################################

data_TILXOD
_chemical_formula_moiety         'C29 H29 Br1 O8'
_chemical_name_systematic        
'Ethyl 2-(10-bromo-2,3,6,7-tetramethoxy-9-anthryl)-4,5-dimethoxybenzoate'
_symmetry_cell_setting           triclinic
_symmetry_space_group_name_H-M   'P -1'
_symmetry_Int_Tables_number      2
_space_group_name_Hall           '-P 1'
loop_
_symmetry_equiv_pos_site_id
_symmetry_equiv_pos_as_xyz
1 x,y,z
2 -x,-y,-z
_cell_length_a                   8.802(2)
_cell_length_b                   12.636(3)
_cell_length_c                   13.191(3)
_cell_angle_alpha                111.156(3)
_cell_angle_beta                 93.692(4)
_cell_angle_gamma                104.707(3)
_cell_volume                     1303.47
_exptl_crystal_colour            brown
_exptl_crystal_description       plate
_cell_formula_units_Z            2
loop_
_atom_site_label
_atom_site_type_symbol
_atom_site_fract_x
_atom_site_fract_y
_atom_site_fract_z
Br1 Br 1.28568(4) 0.54306(2) 1.09204(3)
C1 C 1.1635(3) 0.4294(2) 0.9542(2)
C2 C 1.2109(3) 0.4379(2) 0.8576(2)
C3 C 1.3462(3) 0.5297(2) 0.8576(3)
H1 H 1.4062 0.5886 0.9261
C4 C 1.3904(3) 0.5342(2) 0.7623(3)
C5 C 1.3016(3) 0.4477(2) 0.6584(3)
C6 C 1.1712(3) 0.3582(2) 0.6539(2)
H2 H 1.1139 0.3003 0.5842
C7 C 1.1201(3) 0.3506(2) 0.7525(2)
C8 C 0.9861(3) 0.2590(2) 0.7506(2)
C9 C 0.9392(3) 0.2551(2) 0.8496(2)
C10 C 0.8020(3) 0.1650(2) 0.8490(2)
H3 H 0.7392 0.1087 0.7804
C11 C 0.7589(3) 0.1578(2) 0.9445(2)
C12 C 0.8517(3) 0.2435(2) 1.0492(2)
C13 C 0.9817(3) 0.3318(2) 1.0533(2)
H4 H 1.0409 0.3886 1.1229
C14 C 1.0303(3) 0.3404(2) 0.9541(2)
C15 C 1.6058(4) 0.7096(3) 0.8573(3)
H5 H 1.5360 0.7540 0.8959
H6 H 1.6948 0.7638 0.8428
H7 H 1.6473 0.6737 0.9032
C16 C 1.2646(4) 0.3914(3) 0.4633(3)
H8 H 1.2569 0.3080 0.4469
H9 H 1.3147 0.4154 0.4077
H10 H 1.1575 0.4009 0.4622
C17 C 0.5489(3) -0.0204(2) 0.8492(2)
H11 H 0.4999 0.0121 0.8032
H12 H 0.4657 -0.0784 0.8640
H13 H 0.6236 -0.0594 0.8107
C18 C 0.8937(4) 0.3028(3) 1.2437(2)
H14 H 1.0018 0.2952 1.2438
H15 H 0.8473 0.2802 1.3011
H16 H 0.8981 0.3854 1.2582
C19 C 0.8888(3) 0.1687(2) 0.6428(2)
C20 C 0.7978(3) 0.2081(2) 0.5806(2)
H17 H 0.8057 0.2902 0.6070
C21 C 0.6975(3) 0.1317(2) 0.4824(2)
C22 C 0.6821(3) 0.0087(2) 0.4437(2)
C23 C 0.7711(3) -0.0310(2) 0.5030(2)
H18 H 0.7619 -0.1133 0.4766
C24 C 0.8753(3) 0.0470(2) 0.6017(2)
C25 C 0.9612(3) -0.0112(2) 0.6571(2)
C26 C 0.6212(4) 0.2876(3) 0.4524(3)
H19 H 0.5801 0.3142 0.5216
H20 H 0.5593 0.3001 0.3955
H21 H 0.7335 0.3332 0.4638
C27 C 0.5636(4) -0.1855(2) 0.3045(2)
H22 H 0.6674 -0.1964 0.2893
H23 H 0.4853 -0.2265 0.2360
H24 H 0.5287 -0.2187 0.3587
C28 C 1.1461(5) 0.0103(4) 0.8063(3)
H25 H 1.0633 -0.0524 0.8140
H26 H 1.2224 -0.0252 0.7678
C29 C 1.2214(7) 0.0938(5) 0.9093(4)
H27 H 1.1436 0.1278 0.9489
H28 H 1.3052 0.1570 0.9016
H29 H 1.2690 0.0560 0.9506
O1 O 1.5177(3) 0.6189(2) 0.7558(2)
O2 O 1.3584(3) 0.46392(19) 0.5696(2)
O3 O 0.6331(2) 0.07416(17) 0.95161(15)
O4 O 0.7975(3) 0.22668(19) 1.13859(15)
O5 O 0.6077(2) 0.16413(17) 0.41762(16)
O6 O 0.5775(2) -0.06130(16) 0.34744(16)
O7 O 0.9292(3) -0.1179(2) 0.6271(2)
O8 O 1.0754(2) 0.06334(18) 0.74167(16)
H30? H 1.1329 -0.0738 0.7592
H31? H 1.2618 0.0521 0.8290
C30? C 1.0763(10) 0.0152(8) 0.9042(7)
H32? H 1.1475 0.0015 0.9552
H33? H 0.9729 -0.0461 0.8829
H34? H 1.0613 0.0937 0.9405
loop_
_geom_bond_atom_site_label_1
_geom_bond_atom_site_label_2
_geom_bond_site_symmetry_1
_geom_bond_site_symmetry_2
Br1 C1 1_555 1_555
C1 C2 1_555 1_555
C2 C3 1_555 1_555
C3 H1 1_555 1_555
C4 C3 1_555 1_555
C5 C4 1_555 1_555
C6 C5 1_555 1_555
H2 C6 1_555 1_555
C7 C2 1_555 1_555
C8 C7 1_555 1_555
C9 C8 1_555 1_555
C10 C9 1_555 1_555
H3 C10 1_555 1_555
C11 C10 1_555 1_555
C12 C11 1_555 1_555
C13 C12 1_555 1_555
H4 C13 1_555 1_555
C14 C1 1_555 1_555
C15 H5 1_555 1_555
H6 C15 1_555 1_555
H7 C15 1_555 1_555
C16 H8 1_555 1_555
H9 C16 1_555 1_555
H10 C16 1_555 1_555
C17 H11 1_555 1_555
H12 C17 1_555 1_555
H13 C17 1_555 1_555
C18 H14 1_555 1_555
H15 C18 1_555 1_555
H16 C18 1_555 1_555
C19 C8 1_555 1_555
C20 C19 1_555 1_555
H17 C20 1_555 1_555
C21 C20 1_555 1_555
C22 C21 1_555 1_555
C23 C22 1_555 1_555
H18 C23 1_555 1_555
C24 C19 1_555 1_555
C25 C24 1_555 1_555
C26 H19 1_555 1_555
H20 C26 1_555 1_555
H21 C26 1_555 1_555
C27 H22 1_555 1_555
H23 C27 1_555 1_555
H24 C27 1_555 1_555
C28 H25 1_555 1_555
H26 C28 1_555 1_555
C29 C28 1_555 1_555
H27 C29 1_555 1_555
H28 C29 1_555 1_555
H29 C29 1_555 1_555
O1 C4 1_555 1_555
O2 C5 1_555 1_555
O3 C11 1_555 1_555
O4 C12 1_555 1_555
O5 C21 1_555 1_555
O6 C22 1_555 1_555
O7 C25 1_555 1_555
O8 C25 1_555 1_555
C6 C7 1_555 1_555
C9 C14 1_555 1_555
C13 C14 1_555 1_555
C15 O1 1_555 1_555
C16 O2 1_555 1_555
C17 O3 1_555 1_555
C18 O4 1_555 1_555
C23 C24 1_555 1_555
C26 O5 1_555 1_555
C27 O6 1_555 1_555
C28 O8 1_555 1_555

#END
