
#######################################################################
#
#                 Cambridge Crystallographic Data Centre
#                                CCDC 
#
#######################################################################
#
# If this CIF has been generated from an entry in the Cambridge 
# Structural Database, then it will include bibliographic, chemical, 
# crystal, experimental, refinement or atomic coordinate data resulting 
# from the CCDC's data processing and validation procedures.
#
#######################################################################

data_TILXUJ
_chemical_formula_moiety         'C27 H25 Br1 O8,C1 H2 Cl2'
_chemical_name_systematic        
'2-(10-Bromo-2,3,6,7-tetramethoxy-9-anthryl)-4,5-dimethoxybenzoic acid dichloromethane solvate'
_symmetry_cell_setting           triclinic
_symmetry_space_group_name_H-M   'P -1'
_symmetry_Int_Tables_number      2
_space_group_name_Hall           '-P 1'
loop_
_symmetry_equiv_pos_site_id
_symmetry_equiv_pos_as_xyz
1 x,y,z
2 -x,-y,-z
_cell_length_a                   9.2842(19)
_cell_length_b                   12.395(3)
_cell_length_c                   12.941(3)
_cell_angle_alpha                86.217(3)
_cell_angle_beta                 70.284(3)
_cell_angle_gamma                86.070(3)
_cell_volume                     1397.16
_exptl_crystal_colour            yellow
_exptl_crystal_description       block
_cell_formula_units_Z            2
loop_
_atom_site_label
_atom_site_type_symbol
_atom_site_fract_x
_atom_site_fract_y
_atom_site_fract_z
Br1 Br 0.35756(4) 0.06283(3) 0.32946(3)
C1 C 0.5203(4) 0.1402(3) 0.3431(3)
C2 C 0.5127(4) 0.1692(2) 0.4478(3)
C3 C 0.3897(4) 0.1412(3) 0.5463(3)
H1 H 0.3051 0.1055 0.5412
C4 C 0.3924(4) 0.1653(3) 0.6477(3)
C5 C 0.5180(4) 0.2224(3) 0.6562(3)
C6 C 0.6326(4) 0.2548(3) 0.5637(3)
H2 H 0.7114 0.2961 0.5702
C7 C 0.6361(4) 0.2276(2) 0.4570(3)
C8 C 0.7602(4) 0.2540(3) 0.3618(3)
C9 C 0.7680(4) 0.2197(3) 0.2587(3)
C10 C 0.9019(4) 0.2345(3) 0.1642(3)
H3 H 0.9824 0.2745 0.1699
C11 C 0.9167(4) 0.1926(3) 0.0665(3)
C12 C 0.7931(4) 0.1362(3) 0.0549(3)
C13 C 0.6625(4) 0.1220(3) 0.1417(3)
H4 H 0.5813 0.0856 0.1323
C14 C 0.6452(4) 0.1613(3) 0.2479(3)
C15 C 0.1584(4) 0.0822(3) 0.7424(3)
H5 H 0.1007 0.1277 0.7035
H6 H 0.0917 0.0651 0.8176
H7 H 0.1956 0.0150 0.7039
C16 C 0.6446(5) 0.2757(3) 0.7747(3)
H8 H 0.7331 0.2272 0.7392
H9 H 0.6303 0.2775 0.8531
H10 H 0.6624 0.3488 0.7407
C17 C 1.1668(4) 0.2565(3) -0.0179(3)
H11 H 1.1318 0.3317 -0.0009
H12 H 1.2521 0.2550 -0.0877
H13 H 1.2011 0.2224 0.0408
C18 C 0.7133(5) 0.0309(4) -0.0614(4)
H14 H 0.6963 -0.0299 -0.0070
H15 H 0.7519 0.0031 -0.1355
H16 H 0.6165 0.0728 -0.0514
C19 C 0.9887(3) 0.1505(2) 0.4587(3)
C20 C 0.9932(4) 0.2659(2) 0.4202(3)
C21 C 1.1093(4) 0.3260(3) 0.4325(3)
H17 H 1.1754 0.2936 0.4692
C22 C 1.1275(4) 0.4318(3) 0.3914(3)
C23 C 1.0270(4) 0.4803(3) 0.3385(3)
C24 C 0.9076(4) 0.4217(3) 0.3313(3)
H18 H 0.8371 0.4555 0.2990
C25 C 0.8904(4) 0.3137(3) 0.3710(3)
C26 C 1.3572(4) 0.4444(3) 0.4328(4)
H19 H 1.3120 0.4189 0.5096
H20 H 1.4348 0.4965 0.4268
H21 H 1.4051 0.3828 0.3876
C27 C 0.9679(5) 0.6314(3) 0.2335(4)
H22 H 0.9769 0.5844 0.1734
H23 H 1.0064 0.7024 0.2030
H24 H 0.8601 0.6401 0.2797
O1 O 0.2860(3) 0.1390(2) 0.7454(2)
O2 O 0.5104(3) 0.2371(2) 0.7615(2)
O3 O 1.0433(3) 0.1986(2) -0.0266(2)
O4 O 0.8225(3) 0.0984(2) -0.0475(2)
O5 O 0.9612(3) 0.08249(18) 0.3961(2)
H25 H 0.9683 0.0191 0.4217
O6 O 1.0154(3) 0.12234(19) 0.5448(2)
O7 O 1.2398(3) 0.49583(19) 0.3951(2)
O8 O 1.0556(3) 0.58383(19) 0.2982(2)
C28 C 0.4050(6) 0.5990(4) 0.9166(5)
H26 H 0.3432 0.6639 0.9046
H27 H 0.3737 0.5817 0.9967
Cl1 Cl 0.59931(16) 0.62776(13) 0.86708(13)
Cl2 Cl 0.36706(17) 0.48963(11) 0.85119(13)
loop_
_geom_bond_atom_site_label_1
_geom_bond_atom_site_label_2
_geom_bond_site_symmetry_1
_geom_bond_site_symmetry_2
Br1 C1 1_555 1_555
C1 C2 1_555 1_555
C2 C3 1_555 1_555
C3 H1 1_555 1_555
C4 C3 1_555 1_555
C5 C4 1_555 1_555
C6 C5 1_555 1_555
H2 C6 1_555 1_555
C7 C2 1_555 1_555
C8 C7 1_555 1_555
C9 C8 1_555 1_555
C10 C9 1_555 1_555
H3 C10 1_555 1_555
C11 C10 1_555 1_555
C12 C11 1_555 1_555
C13 C12 1_555 1_555
H4 C13 1_555 1_555
C14 C1 1_555 1_555
C15 H5 1_555 1_555
H6 C15 1_555 1_555
H7 C15 1_555 1_555
C16 H8 1_555 1_555
H9 C16 1_555 1_555
H10 C16 1_555 1_555
C17 H11 1_555 1_555
H12 C17 1_555 1_555
H13 C17 1_555 1_555
C18 H14 1_555 1_555
H15 C18 1_555 1_555
H16 C18 1_555 1_555
C19 C20 1_555 1_555
C20 C21 1_555 1_555
C21 H17 1_555 1_555
C22 C21 1_555 1_555
C23 C22 1_555 1_555
C24 C23 1_555 1_555
H18 C24 1_555 1_555
C25 C8 1_555 1_555
C26 H19 1_555 1_555
H20 C26 1_555 1_555
H21 C26 1_555 1_555
C27 H22 1_555 1_555
H23 C27 1_555 1_555
H24 C27 1_555 1_555
O1 C4 1_555 1_555
O2 C5 1_555 1_555
O3 C11 1_555 1_555
O4 C12 1_555 1_555
O5 C19 1_555 1_555
H25 O5 1_555 1_555
O6 C19 1_555 1_555
O7 C22 1_555 1_555
O8 C23 1_555 1_555
C28 H26 1_555 1_555
H27 C28 1_555 1_555
Cl1 C28 1_555 1_555
Cl2 C28 1_555 1_555
C6 C7 1_555 1_555
C9 C14 1_555 1_555
C13 C14 1_555 1_555
C15 O1 1_555 1_555
C16 O2 1_555 1_555
C17 O3 1_555 1_555
C18 O4 1_555 1_555
C20 C25 1_555 1_555
C24 C25 1_555 1_555
C26 O7 1_555 1_555
C27 O8 1_555 1_555

#END
