
#######################################################################
#
#                 Cambridge Crystallographic Data Centre
#                                CCDC 
#
#######################################################################
#
# If this CIF has been generated from an entry in the Cambridge 
# Structural Database, then it will include bibliographic, chemical, 
# crystal, experimental, refinement or atomic coordinate data resulting 
# from the CCDC's data processing and validation procedures.
#
#######################################################################

data_TIMBIC
_chemical_formula_moiety         'C11 H14 O2'
_chemical_name_systematic        
3a,6-Dimethyl-2,3,3a,7a-tetrahydro-1H-indene-1,5(4H)-dione
_symmetry_cell_setting           monoclinic
_symmetry_space_group_name_H-M   'C 2/c'
_symmetry_Int_Tables_number      15
_space_group_name_Hall           '-C 2yn'
loop_
_symmetry_equiv_pos_site_id
_symmetry_equiv_pos_as_xyz
1 x,y,z
2 -x,y,1/2-z
3 1/2+x,1/2+y,z
4 1/2-x,1/2+y,1/2-z
5 -x,-y,-z
6 x,-y,1/2+z
7 1/2-x,1/2-y,-z
8 1/2+x,1/2-y,1/2+z
_cell_length_a                   22.527(3)
_cell_length_b                   7.0801(10)
_cell_length_c                   13.7523(18)
_cell_angle_alpha                90
_cell_angle_beta                 115.348(4)
_cell_angle_gamma                90
_cell_volume                     1982.23
_exptl_crystal_colour            colorless
_exptl_crystal_description       block
_cell_formula_units_Z            8
loop_
_atom_site_label
_atom_site_type_symbol
_atom_site_fract_x
_atom_site_fract_y
_atom_site_fract_z
O1 O 0.21259(11) 0.3960(3) 0.26340(13)
O2 O 0.09597(14) 1.0756(2) 0.02013(17)
C1 C 0.12751(9) 0.5867(3) -0.00070(13)
C2 C 0.15072(11) 0.7916(3) 0.01469(16)
H1 H 0.1968 0.7952 0.0648
H2 H 0.1468 0.8406 -0.0536
C3 C 0.11329(13) 0.9172(3) 0.05578(17)
C4 C 0.09892(11) 0.8432(3) 0.14316(17)
C5 C 0.10340(10) 0.6587(3) 0.16157(16)
H3 H 0.0923 0.6139 0.2152
C6 C 0.12489(9) 0.5180(2) 0.10291(14)
H4 H 0.0937 0.4127 0.0835
C7 C 0.19243(11) 0.4378(3) 0.17048(16)
C8 C 0.22921(12) 0.4189(4) 0.10255(19)
H5 H 0.2477 0.2932 0.1091
H6 H 0.2645 0.5107 0.1237
C9 C 0.17853(10) 0.4552(3) -0.01167(16)
H7 H 0.1582 0.3379 -0.0465
H8 H 0.1987 0.5150 -0.0536
C10 C 0.06113(11) 0.5726(3) -0.09744(17)
H9 H 0.0306 0.6567 -0.0879
H10 H 0.0451 0.4453 -0.1040
H11 H 0.0658 0.6067 -0.1614
C11 C 0.07431(15) 0.9802(4) 0.2011(2)
H12 H 0.0667 0.9146 0.2558
H13 H 0.0340 1.0361 0.1507
H14 H 0.1065 1.0773 0.2337
loop_
_geom_bond_atom_site_label_1
_geom_bond_atom_site_label_2
_geom_bond_site_symmetry_1
_geom_bond_site_symmetry_2
O1 C7 1_555 1_555
O2 C3 1_555 1_555
C1 C2 1_555 1_555
C2 H1 1_555 1_555
H2 C2 1_555 1_555
C3 C2 1_555 1_555
C4 C3 1_555 1_555
C5 C4 1_555 1_555
H3 C5 1_555 1_555
C6 C1 1_555 1_555
H4 C6 1_555 1_555
C7 C6 1_555 1_555
C8 C7 1_555 1_555
H5 C8 1_555 1_555
H6 C8 1_555 1_555
C9 C1 1_555 1_555
H7 C9 1_555 1_555
H8 C9 1_555 1_555
C10 C1 1_555 1_555
H9 C10 1_555 1_555
H10 C10 1_555 1_555
H11 C10 1_555 1_555
C11 C4 1_555 1_555
H12 C11 1_555 1_555
H13 C11 1_555 1_555
H14 C11 1_555 1_555
C5 C6 1_555 1_555
C8 C9 1_555 1_555

#END
