
#######################################################################
#
#                 Cambridge Crystallographic Data Centre
#                                CCDC 
#
#######################################################################
#
# If this CIF has been generated from an entry in the Cambridge 
# Structural Database, then it will include bibliographic, chemical, 
# crystal, experimental, refinement or atomic coordinate data resulting 
# from the CCDC's data processing and validation procedures.
#
#######################################################################

data_TIMBAS
_chemical_formula_moiety         'C34 H28'
_chemical_name_systematic        
2,3-Diphenyl-pentacyclo(13.7.0.0^4,12^.0^5,9^.0^18.22^)docosa-1(22),2,4,9,11,13,15,17-octaene
_symmetry_cell_setting           triclinic
_symmetry_space_group_name_H-M   'P -1'
_symmetry_Int_Tables_number      2
_space_group_name_Hall           '-P 1'
loop_
_symmetry_equiv_pos_site_id
_symmetry_equiv_pos_as_xyz
1 x,y,z
2 -x,-y,-z
_cell_length_a                   9.723(1)
_cell_length_b                   9.877(1)
_cell_length_c                   13.967(1)
_cell_angle_alpha                104.58(1)
_cell_angle_beta                 105.68(1)
_cell_angle_gamma                100.46(1)
_cell_volume                     1204.14
_exptl_crystal_colour            colorless
_cell_formula_units_Z            2
loop_
_atom_site_label
_atom_site_type_symbol
_atom_site_fract_x
_atom_site_fract_y
_atom_site_fract_z
C1 C 0.2794(3) 0.5169(3) 0.2527(2)
C2 C 0.2696(3) 0.6526(3) 0.2889(2)
C3 C 0.3699(4) 0.7784(3) 0.2772(3)
C4 C 0.5130(4) 0.8417(4) 0.3531(3)
C5 C 0.5780(4) 0.7638(4) 0.4228(3)
C6 C 0.5949(4) 0.6302(4) 0.3905(3)
C7 C 0.5490(4) 0.5372(4) 0.2801(3)
C8 C 0.4020(4) 0.4889(3) 0.2119(3)
C9 C 0.1793(4) 0.3855(3) 0.2563(2)
C10 C 0.2371(4) 0.2816(4) 0.2902(3)
C11 C 0.1457(5) 0.1595(4) 0.2937(3)
C12 C -0.0058(5) 0.1398(4) 0.2621(3)
C13 C -0.0653(4) 0.2411(4) 0.2277(3)
C14 C 0.0269(4) 0.3640(4) 0.2248(2)
C15 C 0.1737(4) 0.6933(3) 0.3527(3)
C16 C 0.1759(4) 0.6452(4) 0.4379(3)
C17 C 0.0898(5) 0.6828(4) 0.4985(3)
C18 C -0.0004(4) 0.7699(4) 0.4753(3)
C19 C -0.0031(4) 0.8208(4) 0.3932(3)
C20 C 0.0839(4) 0.7835(4) 0.3327(3)
C21 C 0.3240(4) 0.8403(3) 0.2000(3)
C22 C 0.1873(4) 0.7840(4) 0.1040(3)
C23 C 0.1800(6) 0.9112(5) 0.0637(3)
C24 C 0.3391(5) 1.0107(5) 0.1070(3)
C25 C 0.4116(5) 0.9687(4) 0.2008(3)
C26 C 0.5458(5) 1.0372(4) 0.2799(4)
C27 C 0.5964(4) 0.9724(4) 0.3546(3)
C28 C 0.6586(4) 0.4921(4) 0.2420(3)
C29 C 0.6264(4) 0.4089(4) 0.1397(4)
C30 C 0.4823(4) 0.3643(4) 0.0720(3)
C31 C 0.4201(5) 0.2735(4) -0.0421(3)
C32 C 0.2547(5) 0.2525(5) -0.0702(3)
C33 C 0.2236(4) 0.3419(4) 0.0228(3)
C34 C 0.3715(4) 0.4024(3) 0.1087(3)
H1 H 0.6098(4) 0.8109(4) 0.4947(3)
H2 H 0.6394(4) 0.5927(4) 0.4419(3)
H3 H 0.3390(4) 0.2938(4) 0.3109(3)
H4 H 0.1862(5) 0.0908(4) 0.3174(3)
H5 H -0.0674(5) 0.0575(4) 0.2641(3)
H6 H -0.1674(4) 0.2277(4) 0.2064(3)
H7 H -0.0141(4) 0.4326(4) 0.2013(2)
H8 H 0.2369(4) 0.5862(4) 0.4546(3)
H9 H 0.0929(5) 0.6490(4) 0.5553(3)
H10 H -0.0597(4) 0.7942(4) 0.5157(3)
H11 H -0.0636(4) 0.8807(4) 0.3777(3)
H12 H 0.0820(4) 0.8199(4) 0.2773(3)
H13 H 0.0997(4) 0.7531(4) 0.1219(3)
H14 H 0.1959(4) 0.7027(4) 0.0521(3)
H15 H 0.1135(6) 0.9622(5) 0.0881(3)
H16 H 0.1449(6) 0.8787(5) -0.0124(3)
H17 H 0.3892(5) 0.9934(5) 0.0555(3)
H18 H 0.3393(5) 1.1121(5) 0.1274(3)
H19 H 0.6017(5) 1.1261(4) 0.2829(4)
H20 H 0.6881(4) 1.0173(4) 0.4067(3)
H21 H 0.7558(4) 0.5194(4) 0.2873(3)
H22 H 0.7016(4) 0.3827(4) 0.1162(4)
H23 H 0.4440(5) 0.1808(4) -0.0522(3)
H24 H 0.4591(5) 0.3234(4) -0.0847(3)
H25 H 0.2050(5) 0.1507(5) -0.0875(3)
H26 H 0.2178(5) 0.2832(5) -0.1307(3)
H27 H 0.1834(4) 0.4195(4) 0.0064(3)
H28 H 0.1536(4) 0.2817(4) 0.0433(3)
loop_
_geom_bond_atom_site_label_1
_geom_bond_atom_site_label_2
_geom_bond_site_symmetry_1
_geom_bond_site_symmetry_2
C1 C2 1_555 1_555
C2 C3 1_555 1_555
C3 C4 1_555 1_555
C4 C5 1_555 1_555
C5 C6 1_555 1_555
C6 C7 1_555 1_555
C7 C8 1_555 1_555
C8 C1 1_555 1_555
C9 C1 1_555 1_555
C10 C9 1_555 1_555
C11 C10 1_555 1_555
C12 C11 1_555 1_555
C13 C12 1_555 1_555
C14 C9 1_555 1_555
C15 C2 1_555 1_555
C16 C15 1_555 1_555
C17 C16 1_555 1_555
C18 C17 1_555 1_555
C19 C18 1_555 1_555
C20 C15 1_555 1_555
C21 C3 1_555 1_555
C22 C21 1_555 1_555
C23 C22 1_555 1_555
C24 C23 1_555 1_555
C25 C21 1_555 1_555
C26 C25 1_555 1_555
C27 C4 1_555 1_555
C28 C7 1_555 1_555
C29 C28 1_555 1_555
C30 C29 1_555 1_555
C31 C30 1_555 1_555
C32 C31 1_555 1_555
C33 C32 1_555 1_555
C34 C8 1_555 1_555
H1 C5 1_555 1_555
H2 C6 1_555 1_555
H3 C10 1_555 1_555
H4 C11 1_555 1_555
H5 C12 1_555 1_555
H6 C13 1_555 1_555
H7 C14 1_555 1_555
H8 C16 1_555 1_555
H9 C17 1_555 1_555
H10 C18 1_555 1_555
H11 C19 1_555 1_555
H12 C20 1_555 1_555
H13 C22 1_555 1_555
H14 C22 1_555 1_555
H15 C23 1_555 1_555
H16 C23 1_555 1_555
H17 C24 1_555 1_555
H18 C24 1_555 1_555
H19 C26 1_555 1_555
H20 C27 1_555 1_555
H21 C28 1_555 1_555
H22 C29 1_555 1_555
H23 C31 1_555 1_555
H24 C31 1_555 1_555
H25 C32 1_555 1_555
H26 C32 1_555 1_555
H27 C33 1_555 1_555
H28 C33 1_555 1_555
C13 C14 1_555 1_555
C19 C20 1_555 1_555
C24 C25 1_555 1_555
C26 C27 1_555 1_555
C30 C34 1_555 1_555
C33 C34 1_555 1_555

#END
