
#######################################################################
#
#                 Cambridge Crystallographic Data Centre
#                                CCDC 
#
#######################################################################
#
# If this CIF has been generated from an entry in the Cambridge 
# Structural Database, then it will include bibliographic, chemical, 
# crystal, experimental, refinement or atomic coordinate data resulting 
# from the CCDC's data processing and validation procedures.
#
#######################################################################

data_TIMCAV
_chemical_formula_moiety         'C20 H6 F8 N6 O6'
_chemical_name_systematic        
4,5,6,7,17,18,19,20-Octafluoro-12,25-dimethoxy-2,9,15,22-tetraoxa-11,13,24,26,27,28-hexaazapentacyclo[21.3.1.1^10,14^.0^3,8^.0^16,21^]octacosa-1(27),3,5,7,10(28),11,13,16,18,20,23,25-dodecaene
_symmetry_cell_setting           triclinic
_symmetry_space_group_name_H-M   'P -1'
_symmetry_Int_Tables_number      2
_space_group_name_Hall           '-P 1'
loop_
_symmetry_equiv_pos_site_id
_symmetry_equiv_pos_as_xyz
1 x,y,z
2 -x,-y,-z
_cell_length_a                   8.3306(17)
_cell_length_b                   13.589(3)
_cell_length_c                   19.417(4)
_cell_angle_alpha                92.70(3)
_cell_angle_beta                 94.67(3)
_cell_angle_gamma                97.19(3)
_cell_volume                     2169.92
_exptl_crystal_colour            colorless
_exptl_crystal_description       plate
_cell_formula_units_Z            4
loop_
_atom_site_label
_atom_site_type_symbol
_atom_site_fract_x
_atom_site_fract_y
_atom_site_fract_z
F1 F 0.28067(14) 0.18462(8) 0.18539(6)
F2 F 0.41276(14) 0.37667(8) 0.17806(6)
F3 F 0.57631(14) 0.43166(7) 0.06855(6)
F4 F 0.30549(12) 0.05014(7) 0.08160(6)
F5 F 0.04666(14) 0.42023(8) 0.10843(6)
F6 F -0.09877(14) 0.23315(8) 0.12172(6)
F7 F 0.15321(13) 0.47294(7) -0.01444(6)
F8 F -0.13192(13) 0.09835(7) 0.01281(6)
O1 O 0.53449(18) 0.41435(10) -0.25207(7)
O2 O 0.23365(16) -0.08629(9) -0.21441(7)
O3 O 0.10752(15) 0.34294(9) -0.12862(7)
O4 O -0.03166(14) 0.14591(9) -0.11230(6)
O5 O 0.61315(14) 0.29880(9) -0.03687(7)
O6 O 0.47975(14) 0.09922(8) -0.02907(6)
N1 N 0.3206(2) 0.38129(11) -0.19195(8)
N2 N 0.58747(18) 0.35944(11) -0.14333(8)
N3 N 0.36037(17) 0.32834(10) -0.07754(8)
N4 N 0.08740(17) 0.02467(10) -0.16376(8)
N5 N 0.35602(18) -0.00040(10) -0.11943(8)
N6 N 0.21813(16) 0.12009(10) -0.06474(7)
C1 C 0.7083(3) 0.42601(17) -0.25907(12)
H1 H 0.7655 0.4666 -0.2193
H2 H 0.7304 0.4588 -0.3018
H3 H 0.7460 0.3605 -0.2608
C2 C 0.0958(3) -0.10731(15) -0.26510(10)
H4 H 0.0004 -0.1347 -0.2425
H5 H 0.1190 -0.1557 -0.3008
H6 H 0.0741 -0.0459 -0.2865
C3 C 0.4826(3) 0.38424(13) -0.19292(10)
C4 C 0.5145(2) 0.33146(12) -0.08857(10)
C5 C -0.0687(2) 0.19242(13) 0.00451(10)
C6 C -0.0489(2) 0.26000(14) 0.06038(10)
C7 C 0.0243(2) 0.35521(14) 0.05352(10)
C8 C -0.0173(2) 0.21867(13) -0.05830(10)
C9 C 0.4320(2) 0.30920(14) 0.12792(10)
C10 C 0.3641(2) 0.21168(14) 0.13181(10)
C11 C 0.0755(2) 0.38139(13) -0.00921(11)
C12 C 0.2721(2) 0.35195(13) -0.13269(10)
C13 C 0.5163(2) 0.33568(13) 0.07274(10)
C14 C 0.0982(2) 0.09385(12) -0.11283(9)
C15 C 0.3800(2) 0.14275(12) 0.07956(9)
C16 C 0.4644(2) 0.16992(12) 0.02370(9)
C17 C 0.0546(2) 0.31438(13) -0.06578(10)
C18 C 0.3435(2) 0.07071(12) -0.07281(9)
C19 C 0.2223(2) -0.01892(12) -0.16390(9)
C20 C 0.5322(2) 0.26729(13) 0.02020(9)
F9 F 0.41838(13) 0.07250(8) 0.45296(6)
F10 F 0.26945(15) 0.11525(8) 0.33054(6)
F11 F -0.27500(13) 0.22665(9) 0.39841(6)
F12 F -0.23122(13) 0.04160(8) 0.43565(6)
F13 F -0.08323(13) 0.01627(8) 0.56305(6)
F14 F -0.18752(14) 0.38464(8) 0.48988(6)
F15 F 0.18952(14) 0.30129(8) 0.31304(6)
F16 F 0.26073(12) 0.44343(8) 0.41686(5)
O7 O 0.47525(16) 0.14039(11) 0.78235(7)
O8 O 0.32548(17) 0.61549(9) 0.70693(7)
O9 O 0.01535(14) 0.17364(10) 0.65562(6)
O10 O -0.05708(15) 0.36251(9) 0.62094(7)
O11 O 0.50103(14) 0.21343(10) 0.55802(6)
O12 O 0.43952(14) 0.40819(10) 0.53692(6)
N7 N 0.38491(18) 0.51505(11) 0.62146(8)
N8 N 0.24573(19) 0.15780(12) 0.72053(8)
N9 N 0.12455(19) 0.49067(11) 0.66592(8)
N10 N 0.18161(17) 0.38760(10) 0.57101(7)
N11 N 0.25153(16) 0.18690(10) 0.60058(7)
N12 N 0.49851(18) 0.17500(11) 0.66900(8)
C21 C 0.6453(2) 0.12578(17) 0.78783(12)
H7 H 0.6619 0.0725 0.7544
H8 H 0.6770 0.1076 0.8348
H9 H 0.7117 0.1874 0.7780
C22 C 0.2158(3) 0.64026(17) 0.75760(11)
H10 H 0.1113 0.6502 0.7338
H11 H 0.2628 0.7014 0.7845
H12 H 0.1993 0.5859 0.7888
C23 C 0.1797(2) 0.17227(13) 0.65876(10)
C24 C 0.3044(2) 0.18578(14) 0.38208(10)
C25 C -0.1104(2) 0.10712(14) 0.54540(11)
C26 C -0.0930(2) 0.28169(14) 0.57344(10)
C27 C -0.2072(2) 0.21371(15) 0.46198(10)
C28 C 0.0906(2) 0.41651(13) 0.61862(10)
C29 C 0.2736(2) 0.53754(13) 0.66347(10)
C30 C 0.3047(2) 0.35289(13) 0.42585(10)
C31 C 0.2650(2) 0.27990(14) 0.37295(10)
C32 C 0.4184(2) 0.23725(15) 0.49694(10)
C33 C 0.4067(2) 0.15784(13) 0.72103(10)
C34 C 0.3794(2) 0.16466(14) 0.44389(10)
C35 C -0.1833(2) 0.11938(14) 0.48080(10)
C36 C -0.0610(2) 0.18804(14) 0.59147(10)
C37 C 0.3292(2) 0.43907(13) 0.57828(9)
C38 C 0.4101(2) 0.19012(13) 0.61141(10)
C39 C -0.1631(2) 0.29361(14) 0.50871(10)
C40 C 0.3841(2) 0.33247(14) 0.48699(9)
loop_
_geom_bond_atom_site_label_1
_geom_bond_atom_site_label_2
_geom_bond_site_symmetry_1
_geom_bond_site_symmetry_2
F1 C10 1_555 1_555
F2 C9 1_555 1_555
F3 C13 1_555 1_555
F4 C15 1_555 1_555
F5 C7 1_555 1_555
F6 C6 1_555 1_555
F7 C11 1_555 1_555
F8 C5 1_555 1_555
O1 C1 1_555 1_555
O2 C2 1_555 1_555
O3 C12 1_555 1_555
O4 C8 1_555 1_555
O5 C4 1_555 1_555
O6 C16 1_555 1_555
N1 C3 1_555 1_555
N2 C3 1_555 1_555
N3 C4 1_555 1_555
N4 C14 1_555 1_555
N5 C18 1_555 1_555
N6 C14 1_555 1_555
C1 H1 1_555 1_555
H2 C1 1_555 1_555
H3 C1 1_555 1_555
C2 H4 1_555 1_555
H5 C2 1_555 1_555
H6 C2 1_555 1_555
C3 O1 1_555 1_555
C4 N2 1_555 1_555
C5 C6 1_555 1_555
C6 C7 1_555 1_555
C7 C11 1_555 1_555
C8 C5 1_555 1_555
C9 C10 1_555 1_555
C10 C15 1_555 1_555
C11 C17 1_555 1_555
C12 N1 1_555 1_555
C13 C9 1_555 1_555
C14 O4 1_555 1_555
C15 C16 1_555 1_555
C16 C20 1_555 1_555
C17 O3 1_555 1_555
C18 O6 1_555 1_555
C19 O2 1_555 1_555
C20 O5 1_555 1_555
F9 C34 1_555 1_555
F10 C24 1_555 1_555
F11 C27 1_555 1_555
F12 C35 1_555 1_555
F13 C25 1_555 1_555
F14 C39 1_555 1_555
F15 C31 1_555 1_555
F16 C30 1_555 1_555
O7 C21 1_555 1_555
O8 C22 1_555 1_555
O9 C23 1_555 1_555
O10 C26 1_555 1_555
O11 C32 1_555 1_555
O12 C37 1_555 1_555
N7 C29 1_555 1_555
N8 C23 1_555 1_555
N9 C28 1_555 1_555
N10 C28 1_555 1_555
N11 C23 1_555 1_555
N12 C33 1_555 1_555
C21 H7 1_555 1_555
H8 C21 1_555 1_555
H9 C21 1_555 1_555
C22 H10 1_555 1_555
H11 C22 1_555 1_555
H12 C22 1_555 1_555
C24 C31 1_555 1_555
C25 C35 1_555 1_555
C26 C36 1_555 1_555
C27 C35 1_555 1_555
C28 O10 1_555 1_555
C29 O8 1_555 1_555
C30 C31 1_555 1_555
C32 C34 1_555 1_555
C33 O7 1_555 1_555
C34 C24 1_555 1_555
C36 O9 1_555 1_555
C37 N7 1_555 1_555
C38 O11 1_555 1_555
C39 C26 1_555 1_555
C40 O12 1_555 1_555
N3 C12 1_555 1_555
N4 C19 1_555 1_555
N5 C19 1_555 1_555
N6 C18 1_555 1_555
C8 C17 1_555 1_555
C13 C20 1_555 1_555
N8 C33 1_555 1_555
N9 C29 1_555 1_555
N10 C37 1_555 1_555
N11 C38 1_555 1_555
N12 C38 1_555 1_555
C25 C36 1_555 1_555
C27 C39 1_555 1_555
C30 C40 1_555 1_555
C32 C40 1_555 1_555

#END
