
#######################################################################
#
#                 Cambridge Crystallographic Data Centre
#                                CCDC 
#
#######################################################################
#
# If this CIF has been generated from an entry in the Cambridge 
# Structural Database, then it will include bibliographic, chemical, 
# crystal, experimental, refinement or atomic coordinate data resulting 
# from the CCDC's data processing and validation procedures.
#
#######################################################################

data_TIMDAW
_chemical_formula_moiety         'C20 H32 O3,C1 H4 O1'
_chemical_name_systematic        
'5-Hydroxy-3-methyl-5-(1,2,4a-trimethyl-5-methylenedecahydronaphthalen-1-yl)pent-2-enoic acid methanol solvate'
_symmetry_cell_setting           monoclinic
_symmetry_space_group_name_H-M   'P 21'
_symmetry_Int_Tables_number      4
_space_group_name_Hall           'P 2yb'
loop_
_symmetry_equiv_pos_site_id
_symmetry_equiv_pos_as_xyz
1 x,y,z
2 -x,1/2+y,-z
_cell_length_a                   6.819(3)
_cell_length_b                   7.317(5)
_cell_length_c                   19.999(10)
_cell_angle_alpha                90
_cell_angle_beta                 99.0959(10)
_cell_angle_gamma                90
_cell_volume                     985.295
_exptl_crystal_colour            colorless
_exptl_crystal_description       Prism
_cell_formula_units_Z            2
loop_
_atom_site_label
_atom_site_type_symbol
_atom_site_fract_x
_atom_site_fract_y
_atom_site_fract_z
O1 O 0.1377(3) 0.1622(3) 0.34810(8)
H1 H 0.1970 0.1755 0.3868
O2 O 0.6981(3) 0.5800(3) 0.51923(9)
O3 O 0.9146(2) 0.3804(3) 0.48676(9)
H2 H 0.9707 0.3934 0.5259
C1 C 0.2119(4) 0.0054(4) 0.21693(12)
H3 H 0.2635 0.0076 0.2650
H4 H 0.0931 -0.0695 0.2104
C2 C 0.3663(4) -0.0808(4) 0.17914(13)
H5 H 0.3868 -0.2072 0.1932
H6 H 0.4917 -0.0169 0.1910
C3 C 0.3023(4) -0.0734(4) 0.10243(13)
H7 H 0.4107 -0.1143 0.0801
H8 H 0.1906 -0.1550 0.0895
C4 C 0.2441(4) 0.1176(4) 0.08008(12)
C5 C 0.0806(4) 0.2047(4) 0.11443(11)
C6 C 0.0422(4) 0.4022(4) 0.09239(12)
H9 H -0.0119 0.4051 0.0445
H10 H 0.1672 0.4682 0.0987
C7 C -0.1014(4) 0.4981(4) 0.13199(13)
H11 H -0.2285 0.4356 0.1240
H12 H -0.1223 0.6224 0.1156
C8 C -0.0247(4) 0.5019(4) 0.20830(12)
H13 H 0.1000 0.5710 0.2146
C9 C 0.0252(3) 0.3075(4) 0.23802(11)
C10 C 0.1571(3) 0.2011(4) 0.19282(11)
H14 H 0.2835 0.2674 0.1987
C11 C 0.1361(4) 0.3327(4) 0.31203(12)
H15 H 0.0589 0.4198 0.3345
C12 C 0.3481(3) 0.4081(4) 0.31820(11)
H16 H 0.4325 0.3139 0.3039
H17 H 0.3474 0.5100 0.2871
C13 C 0.4390(4) 0.4717(4) 0.38806(11)
C14 C 0.6254(3) 0.4225(4) 0.41253(12)
H18 H 0.6874 0.3476 0.3846
C15 C 0.7456(3) 0.4715(4) 0.47800(13)
C16 C 0.3129(4) 0.5931(5) 0.42445(13)
H19 H 0.3850 0.6247 0.4681
H20 H 0.1932 0.5298 0.4300
H21 H 0.2800 0.7023 0.3985
C17 C -0.1711(4) 0.6105(4) 0.24328(14)
H22 H -0.1936 0.7280 0.2221
H23 H -0.1170 0.6265 0.2902
H24 H -0.2945 0.5453 0.2395
C18 C 0.3335(4) 0.2034(5) 0.03417(13)
H25 H 0.4152 0.1348 0.0214
H26 H 0.3074 0.3397 0.0158
C19 C -0.1096(4) 0.0931(4) 0.09169(13)
H27 H -0.1461 0.1020 0.0434
H28 H -0.2151 0.1402 0.1133
H29 H -0.0861 -0.0326 0.1042
C20 C -0.1690(3) 0.2048(4) 0.24320(12)
H30 H -0.2452 0.2734 0.2710
H31 H -0.1383 0.0868 0.2631
H32 H -0.2445 0.1901 0.1988
O4 O 1.1136(2) 0.4102(3) 0.61056(9)
H33 H 1.0683 0.5085 0.6206
C21 C 1.3241(4) 0.4199(5) 0.62046(15)
H34 H 1.3748 0.4123 0.6680
H35 H 1.3643 0.5336 0.6029
H36 H 1.3755 0.3203 0.5972
loop_
_geom_bond_atom_site_label_1
_geom_bond_atom_site_label_2
_geom_bond_site_symmetry_1
_geom_bond_site_symmetry_2
O1 H1 1_555 1_555
O2 C15 1_555 1_555
O3 H2 1_555 1_555
C1 H3 1_555 1_555
H4 C1 1_555 1_555
C2 C1 1_555 1_555
H5 C2 1_555 1_555
H6 C2 1_555 1_555
C3 C2 1_555 1_555
H7 C3 1_555 1_555
H8 C3 1_555 1_555
C4 C3 1_555 1_555
C5 C4 1_555 1_555
C6 C5 1_555 1_555
H9 C6 1_555 1_555
H10 C6 1_555 1_555
C7 C6 1_555 1_555
H11 C7 1_555 1_555
H12 C7 1_555 1_555
C8 C7 1_555 1_555
H13 C8 1_555 1_555
C9 C8 1_555 1_555
C10 C1 1_555 1_555
H14 C10 1_555 1_555
C11 O1 1_555 1_555
H15 C11 1_555 1_555
C12 C11 1_555 1_555
H16 C12 1_555 1_555
H17 C12 1_555 1_555
C13 C12 1_555 1_555
C14 C13 1_555 1_555
H18 C14 1_555 1_555
C15 O3 1_555 1_555
C16 C13 1_555 1_555
H19 C16 1_555 1_555
H20 C16 1_555 1_555
H21 C16 1_555 1_555
C17 C8 1_555 1_555
H22 C17 1_555 1_555
H23 C17 1_555 1_555
H24 C17 1_555 1_555
C18 C4 1_555 1_555
H25 C18 1_555 1_555
H26 C18 1_555 1_555
C19 C5 1_555 1_555
H27 C19 1_555 1_555
H28 C19 1_555 1_555
H29 C19 1_555 1_555
C20 C9 1_555 1_555
H30 C20 1_555 1_555
H31 C20 1_555 1_555
H32 C20 1_555 1_555
O4 H33 1_555 1_555
C21 O4 1_555 1_555
H34 C21 1_555 1_555
H35 C21 1_555 1_555
H36 C21 1_555 1_555
C5 C10 1_555 1_555
C9 C10 1_555 1_555
C9 C11 1_555 1_555
C14 C15 1_555 1_555

#END
