
#######################################################################
#
#                 Cambridge Crystallographic Data Centre
#                                CCDC 
#
#######################################################################
#
# If this CIF has been generated from an entry in the Cambridge 
# Structural Database, then it will include bibliographic, chemical, 
# crystal, experimental, refinement or atomic coordinate data resulting 
# from the CCDC's data processing and validation procedures.
#
#######################################################################

data_TIMHIH
_chemical_name_common            
'4,4a,6-trimethyl-2,3,4,4a,5,9-hexahydro-1aH-oxireno[8,8a]naphtho[2,3-b]furan-5-yl 2-(hydroxymethyl)but-2-enoate'
_chemical_formula_moiety         'C20 H26 O5'
_chemical_name_systematic        
6\b-sarracinoyloxy-1\b,10\b-epoxyfuranoeremophilane
_chemical_properties_biological  
'Weak cytotoxicity against lung carcinoma (A-549) and human breast adenocarcinoma (MCF-7)'
_symmetry_cell_setting           orthorhombic
_symmetry_space_group_name_H-M   'P 21 21 21'
_symmetry_Int_Tables_number      19
_space_group_name_Hall           'P 2ac 2ab'
loop_
_symmetry_equiv_pos_site_id
_symmetry_equiv_pos_as_xyz
1 x,y,z
2 1/2-x,-y,1/2+z
3 -x,1/2+y,1/2-z
4 1/2+x,1/2-y,-z
_cell_length_a                   7.687(2)
_cell_length_b                   14.383(4)
_cell_length_c                   16.341(5)
_cell_angle_alpha                90
_cell_angle_beta                 90
_cell_angle_gamma                90
_cell_volume                     1806.7
_exptl_crystal_colour            colorless
_exptl_crystal_description       prismatic
_chemical_melting_point          '93-94 deg.C'
_cell_formula_units_Z            4
loop_
_atom_site_label
_atom_site_type_symbol
_atom_site_fract_x
_atom_site_fract_y
_atom_site_fract_z
O1 O 1.21477(18) 0.98957(9) 1.11616(7)
O2 O 0.8333(3) 1.08959(16) 0.79838(13)
O3 O 0.78207(16) 0.98270(8) 0.89295(7)
O4 O 0.2987(2) 1.12153(12) 0.75867(9)
H1 H 0.2768 1.0924 0.7168
O5 O 1.11997(19) 0.73339(9) 0.92691(8)
C1 C 1.3224(2) 0.99935(14) 1.04315(11)
H2 H 1.4241 0.9584 1.0401
C2 C 1.3506(3) 1.09742(15) 1.01568(12)
H3 H 1.4531 1.0996 0.9811
H4 H 1.3732 1.1359 1.0633
C3 C 1.1969(3) 1.13807(14) 0.96871(12)
H5 H 1.2025 1.1169 0.9124
H6 H 1.2071 1.2053 0.9684
C4 C 1.0195(3) 1.11160(12) 1.00430(10)
H7 H 0.9320 1.1372 0.9670
C5 C 0.9931(2) 1.00447(11) 1.00416(9)
C6 C 0.9670(2) 0.97329(11) 0.91325(10)
H8 H 1.0359 1.0134 0.8772
C7 C 1.0144(2) 0.87368(12) 0.89838(10)
C8 C 1.0874(2) 0.82031(12) 0.95570(12)
C9 C 1.1426(3) 0.84888(12) 1.03855(11)
H9 H 1.2555 0.8225 1.0514
H10 H 1.0594 0.8274 1.0790
C10 C 1.1519(2) 0.95302(12) 1.03886(10)
C11 C 1.0019(3) 0.81744(14) 0.82572(11)
C12 C 1.0647(3) 0.73468(16) 0.84715(13)
H11 H 1.0703 0.6838 0.8122
C13 C 0.9372(3) 0.84506(18) 0.74259(12)
H12 H 0.8169 0.8624 0.7461
H13 H 0.9497 0.7936 0.7056
H14 H 1.0039 0.8969 0.7228
C14 C 0.8350(3) 0.97644(14) 1.05517(11)
H15 H 0.8626 0.9818 1.1123
H16 H 0.8039 0.9133 1.0429
H17 H 0.7390 1.0166 1.0424
C15 C 0.9905(4) 1.15904(14) 1.08695(12)
H18 H 1.0079 1.2248 1.0812
H19 H 1.0715 1.1348 1.1262
H20 H 0.8739 1.1473 1.1053
C16 C 0.7338(3) 1.03838(14) 0.83202(12)
C17 C 0.5470(3) 1.03184(13) 0.81077(11)
C18 C 0.4495(3) 0.95697(14) 0.81938(12)
H21 H 0.3345 0.9641 0.8029
C19 C 0.4941(3) 0.86261(14) 0.85142(14)
H22 H 0.4624 0.8587 0.9081
H23 H 0.6169 0.8522 0.8458
H24 H 0.4318 0.8163 0.8209
C20 C 0.4798(3) 1.12120(14) 0.77236(12)
H25 H 0.5092 1.1729 0.8079
H26 H 0.5387 1.1308 0.7206
loop_
_geom_bond_atom_site_label_1
_geom_bond_atom_site_label_2
_geom_bond_site_symmetry_1
_geom_bond_site_symmetry_2
O1 C1 1_555 1_555
O2 C16 1_555 1_555
O3 C6 1_555 1_555
O4 H1 1_555 1_555
O5 C8 1_555 1_555
C1 H2 1_555 1_555
C2 C1 1_555 1_555
H3 C2 1_555 1_555
H4 C2 1_555 1_555
C3 C2 1_555 1_555
H5 C3 1_555 1_555
H6 C3 1_555 1_555
C4 C3 1_555 1_555
H7 C4 1_555 1_555
C5 C4 1_555 1_555
C6 C5 1_555 1_555
H8 C6 1_555 1_555
C7 C6 1_555 1_555
C8 C7 1_555 1_555
C9 C8 1_555 1_555
H9 C9 1_555 1_555
H10 C9 1_555 1_555
C10 O1 1_555 1_555
C11 C7 1_555 1_555
C12 O5 1_555 1_555
H11 C12 1_555 1_555
C13 C11 1_555 1_555
H12 C13 1_555 1_555
H13 C13 1_555 1_555
H14 C13 1_555 1_555
C14 C5 1_555 1_555
H15 C14 1_555 1_555
H16 C14 1_555 1_555
H17 C14 1_555 1_555
C15 C4 1_555 1_555
H18 C15 1_555 1_555
H19 C15 1_555 1_555
H20 C15 1_555 1_555
C16 O3 1_555 1_555
C17 C16 1_555 1_555
C18 C17 1_555 1_555
H21 C18 1_555 1_555
C19 C18 1_555 1_555
H22 C19 1_555 1_555
H23 C19 1_555 1_555
H24 C19 1_555 1_555
C20 O4 1_555 1_555
H25 C20 1_555 1_555
H26 C20 1_555 1_555
C1 C10 1_555 1_555
C5 C10 1_555 1_555
C9 C10 1_555 1_555
C11 C12 1_555 1_555
C17 C20 1_555 1_555

#END
