
#######################################################################
#
#                 Cambridge Crystallographic Data Centre
#                                CCDC 
#
#######################################################################
#
# If this CIF has been generated from an entry in the Cambridge 
# Structural Database, then it will include bibliographic, chemical, 
# crystal, experimental, refinement or atomic coordinate data resulting 
# from the CCDC's data processing and validation procedures.
#
#######################################################################

data_TIMJEG
_chemical_formula_moiety         'C22 H17 O1 P1'
_chemical_name_systematic        
'1-Phenyl-2-(2-phenylvinyl)-1H-phosphindole 1-oxide'
_symmetry_cell_setting           monoclinic
_symmetry_space_group_name_H-M   'P 21/c'
_symmetry_Int_Tables_number      14
_space_group_name_Hall           '-P 2ybc'
loop_
_symmetry_equiv_pos_site_id
_symmetry_equiv_pos_as_xyz
1 x,y,z
2 -x,1/2+y,1/2-z
3 -x,-y,-z
4 x,1/2-y,1/2+z
_cell_length_a                   9.308(2)
_cell_length_b                   11.131(2)
_cell_length_c                   17.312(4)
_cell_angle_alpha                90
_cell_angle_beta                 103.927(3)
_cell_angle_gamma                90
_cell_volume                     1740.92
_exptl_crystal_colour            yellow
_exptl_crystal_description       prism
_cell_formula_units_Z            4
loop_
_atom_site_label
_atom_site_type_symbol
_atom_site_fract_x
_atom_site_fract_y
_atom_site_fract_z
P1 P 0.61145(4) 0.24016(3) 0.87276(2)
O1 O 0.58368(13) 0.11977(9) 0.83505(6)
C1 C 0.54381(14) 0.36946(11) 0.81091(7)
C2 C 0.65817(16) 0.44397(12) 0.81046(8)
H1 H 0.6458 0.5159 0.7800
C3 C 0.80203(16) 0.40729(14) 0.85967(8)
C4 C 0.79818(15) 0.29699(14) 0.89797(8)
C5 C 0.92409(18) 0.24911(17) 0.94741(10)
H2 H 0.9207 0.1748 0.9739
C6 C 1.05689(19) 0.3131(2) 0.95749(12)
H3 H 1.1452 0.2814 0.9907
C7 C 1.06075(19) 0.4211(2) 0.91992(12)
H4 H 1.1520 0.4630 0.9276
C8 C 0.93496(18) 0.47009(17) 0.87109(10)
H5 H 0.9390 0.5453 0.8457
C9 C 0.39224(15) 0.39006(12) 0.76891(7)
H6 H 0.3721 0.4598 0.7365
C10 C 0.27726(15) 0.31890(12) 0.77182(8)
H7 H 0.2975 0.2501 0.8051
C11 C 0.12330(15) 0.33797(12) 0.72818(8)
C12 C 0.07867(16) 0.43579(13) 0.67735(9)
H8 H 0.1498 0.4930 0.6698
C13 C -0.06870(18) 0.44971(15) 0.63792(10)
H9 H -0.0980 0.5168 0.6039
C14 C -0.17359(18) 0.36670(16) 0.64769(9)
H10 H -0.2743 0.3765 0.6201
C15 C -0.13157(18) 0.26960(15) 0.69762(10)
H11 H -0.2033 0.2125 0.7046
C16 C 0.01513(17) 0.25556(13) 0.73748(9)
H12 H 0.0431 0.1886 0.7719
C17 C 0.54314(14) 0.25072(11) 0.96158(7)
C18 C 0.46157(16) 0.15658(13) 0.98223(9)
H13 H 0.4387 0.0882 0.9487
C19 C 0.41351(18) 0.16299(16) 1.05234(10)
H14 H 0.3593 0.0982 1.0672
C20 C 0.44437(19) 0.26287(16) 1.10004(10)
H15 H 0.4104 0.2671 1.1475
C21 C 0.52416(19) 0.35685(15) 1.07972(9)
H16 H 0.5449 0.4256 1.1130
C22 C 0.57422(16) 0.35102(12) 1.01046(8)
H17 H 0.6297 0.4156 0.9965
loop_
_geom_bond_atom_site_label_1
_geom_bond_atom_site_label_2
_geom_bond_site_symmetry_1
_geom_bond_site_symmetry_2
P1 O1 1_555 1_555
C1 P1 1_555 1_555
C2 C1 1_555 1_555
H1 C2 1_555 1_555
C3 C2 1_555 1_555
C4 P1 1_555 1_555
C5 C4 1_555 1_555
H2 C5 1_555 1_555
C6 C5 1_555 1_555
H3 C6 1_555 1_555
C7 C6 1_555 1_555
H4 C7 1_555 1_555
C8 C3 1_555 1_555
H5 C8 1_555 1_555
C9 C1 1_555 1_555
H6 C9 1_555 1_555
C10 C9 1_555 1_555
H7 C10 1_555 1_555
C11 C10 1_555 1_555
C12 C11 1_555 1_555
H8 C12 1_555 1_555
C13 C12 1_555 1_555
H9 C13 1_555 1_555
C14 C13 1_555 1_555
H10 C14 1_555 1_555
C15 C14 1_555 1_555
H11 C15 1_555 1_555
C16 C11 1_555 1_555
H12 C16 1_555 1_555
C17 P1 1_555 1_555
C18 C17 1_555 1_555
H13 C18 1_555 1_555
C19 C18 1_555 1_555
H14 C19 1_555 1_555
C20 C19 1_555 1_555
H15 C20 1_555 1_555
C21 C20 1_555 1_555
H16 C21 1_555 1_555
C22 C17 1_555 1_555
H17 C22 1_555 1_555
C3 C4 1_555 1_555
C7 C8 1_555 1_555
C15 C16 1_555 1_555
C21 C22 1_555 1_555

#END
