
#######################################################################
#
#                 Cambridge Crystallographic Data Centre
#                                CCDC 
#
#######################################################################
#
# If this CIF has been generated from an entry in the Cambridge 
# Structural Database, then it will include bibliographic, chemical, 
# crystal, experimental, refinement or atomic coordinate data resulting 
# from the CCDC's data processing and validation procedures.
#
#######################################################################

data_TIMJOQ
_chemical_formula_moiety         'C26 H19 O1 P1'
_chemical_name_systematic        
'2-(2-(1-Naphthyl)vinyl)-1-phenyl-1H-phosphindole 1-oxide'
_symmetry_cell_setting           monoclinic
_symmetry_space_group_name_H-M   'P 21/c'
_symmetry_Int_Tables_number      14
_space_group_name_Hall           '-P 2ybc'
loop_
_symmetry_equiv_pos_site_id
_symmetry_equiv_pos_as_xyz
1 x,y,z
2 -x,1/2+y,1/2-z
3 -x,-y,-z
4 x,1/2-y,1/2+z
_cell_length_a                   8.3951(13)
_cell_length_b                   8.9874(13)
_cell_length_c                   25.691(4)
_cell_angle_alpha                90
_cell_angle_beta                 94.065(3)
_cell_angle_gamma                90
_cell_volume                     1933.51
_exptl_crystal_colour            yellow
_exptl_crystal_description       prism
_cell_formula_units_Z            4
loop_
_atom_site_label
_atom_site_type_symbol
_atom_site_fract_x
_atom_site_fract_y
_atom_site_fract_z
P1 P 0.60873(3) 0.16520(3) 0.649654(11)
O1 O 0.49406(10) 0.27544(10) 0.66853(3)
C1 C 0.62447(13) 0.14447(14) 0.57959(4)
C2 C 0.60576(14) -0.00073(14) 0.56661(4)
H1 H 0.6142 -0.0352 0.5320
C3 C 0.57167(13) -0.10157(13) 0.60921(5)
C4 C 0.56472(13) -0.02957(13) 0.65766(5)
C5 C 0.52875(15) -0.10827(14) 0.70153(5)
H2 H 0.5230 -0.0592 0.7341
C6 C 0.50095(16) -0.26143(15) 0.69719(5)
H3 H 0.4753 -0.3165 0.7270
C7 C 0.51044(16) -0.33344(14) 0.64994(6)
H4 H 0.4924 -0.4377 0.6477
C8 C 0.54626(15) -0.25434(14) 0.60569(5)
H5 H 0.5533 -0.3042 0.5733
C9 C 0.66808(14) 0.26383(14) 0.54568(5)
H6 H 0.6611 0.2463 0.5091
C10 C 0.71789(14) 0.39793(14) 0.56295(5)
H7 H 0.7158 0.4166 0.5993
C11 C 0.77531(14) 0.51820(14) 0.53066(5)
C12 C 0.71612(15) 0.53650(14) 0.47954(5)
H8 H 0.6366 0.4700 0.4653
C13 C 0.77090(17) 0.65151(15) 0.44796(5)
H9 H 0.7288 0.6615 0.4128
C14 C 0.88441(16) 0.74827(15) 0.46802(5)
H10 H 0.9213 0.8252 0.4465
C15 C 0.94813(15) 0.73586(14) 0.52041(5)
C16 C 0.89420(14) 0.61985(14) 0.55242(5)
C17 C 0.96298(16) 0.60831(17) 0.60431(5)
H11 H 0.9291 0.5310 0.6262
C18 C 1.07751(17) 0.70660(19) 0.62345(6)
H12 H 1.1212 0.6975 0.6584
C19 C 1.13060(17) 0.82085(17) 0.59155(7)
H13 H 1.2108 0.8880 0.6049
C20 C 1.06731(16) 0.83537(15) 0.54153(6)
H14 H 1.1035 0.9134 0.5204
C21 C 0.81074(14) 0.19929(14) 0.67573(4)
C22 C 0.83954(17) 0.31680(17) 0.71043(5)
H15 H 0.7530 0.3724 0.7223
C23 C 0.99618(19) 0.3525(2) 0.72766(6)
H16 H 1.0161 0.4315 0.7518
C24 C 1.12238(17) 0.2734(2) 0.70978(6)
H17 H 1.2289 0.2996 0.7211
C25 C 1.09408(16) 0.15660(18) 0.67558(6)
H18 H 1.1812 0.1021 0.6635
C26 C 0.93887(15) 0.11826(15) 0.65868(5)
H19 H 0.9198 0.0368 0.6355
loop_
_geom_bond_atom_site_label_1
_geom_bond_atom_site_label_2
_geom_bond_site_symmetry_1
_geom_bond_site_symmetry_2
P1 O1 1_555 1_555
C1 P1 1_555 1_555
C2 C1 1_555 1_555
H1 C2 1_555 1_555
C3 C2 1_555 1_555
C4 P1 1_555 1_555
C5 C4 1_555 1_555
H2 C5 1_555 1_555
C6 C5 1_555 1_555
H3 C6 1_555 1_555
C7 C6 1_555 1_555
H4 C7 1_555 1_555
C8 C3 1_555 1_555
H5 C8 1_555 1_555
C9 C1 1_555 1_555
H6 C9 1_555 1_555
C10 C9 1_555 1_555
H7 C10 1_555 1_555
C11 C10 1_555 1_555
C12 C11 1_555 1_555
H8 C12 1_555 1_555
C13 C12 1_555 1_555
H9 C13 1_555 1_555
C14 C13 1_555 1_555
H10 C14 1_555 1_555
C15 C14 1_555 1_555
C16 C11 1_555 1_555
C17 C16 1_555 1_555
H11 C17 1_555 1_555
C18 C17 1_555 1_555
H12 C18 1_555 1_555
C19 C18 1_555 1_555
H13 C19 1_555 1_555
C20 C15 1_555 1_555
H14 C20 1_555 1_555
C21 P1 1_555 1_555
C22 C21 1_555 1_555
H15 C22 1_555 1_555
C23 C22 1_555 1_555
H16 C23 1_555 1_555
C24 C23 1_555 1_555
H17 C24 1_555 1_555
C25 C24 1_555 1_555
H18 C25 1_555 1_555
C26 C21 1_555 1_555
H19 C26 1_555 1_555
C3 C4 1_555 1_555
C7 C8 1_555 1_555
C15 C16 1_555 1_555
C19 C20 1_555 1_555
C25 C26 1_555 1_555

#END
