
#######################################################################
#
#                 Cambridge Crystallographic Data Centre
#                                CCDC 
#
#######################################################################
#
# If this CIF has been generated from an entry in the Cambridge 
# Structural Database, then it will include bibliographic, chemical, 
# crystal, experimental, refinement or atomic coordinate data resulting 
# from the CCDC's data processing and validation procedures.
#
#######################################################################

data_TIMJUW
_chemical_formula_moiety         'C22 H15 O1 P1'
_chemical_name_systematic        
'1-Phenyl-2-(phenylethynyl)-1H-phosphindole 1-oxide'
_symmetry_cell_setting           monoclinic
_symmetry_space_group_name_H-M   'P 21/c'
_symmetry_Int_Tables_number      14
_space_group_name_Hall           '-P 2ybc'
loop_
_symmetry_equiv_pos_site_id
_symmetry_equiv_pos_as_xyz
1 x,y,z
2 -x,1/2+y,1/2-z
3 -x,-y,-z
4 x,1/2-y,1/2+z
_cell_length_a                   7.9918(8)
_cell_length_b                   18.1517(17)
_cell_length_c                   11.7749(12)
_cell_angle_alpha                90
_cell_angle_beta                 96.3610(10)
_cell_angle_gamma                90
_cell_volume                     1697.61
_exptl_crystal_colour            yellow
_exptl_crystal_description       prism
_cell_formula_units_Z            4
loop_
_atom_site_label
_atom_site_type_symbol
_atom_site_fract_x
_atom_site_fract_y
_atom_site_fract_z
P1 P 0.10186(3) 1.076817(15) 0.24258(2)
O1 O 0.19115(11) 1.06753(5) 0.13965(7)
C1 C 0.20418(14) 1.03968(6) 0.37696(9)
C2 C 0.22892(15) 1.09388(7) 0.45552(10)
H1 H 0.2809 1.0852 0.5309
C3 C 0.16984(14) 1.16711(7) 0.41633(10)
C4 C 0.09351(14) 1.16798(6) 0.30282(9)
C5 C 0.02890(15) 1.23262(7) 0.25369(11)
H2 H -0.0247 1.2328 0.1775
C6 C 0.04357(18) 1.29767(7) 0.31771(12)
H3 H 0.0005 1.3425 0.2846
C7 C 0.12046(18) 1.29721(7) 0.42918(12)
H4 H 0.1307 1.3418 0.4716
C8 C 0.18296(16) 1.23177(7) 0.47955(11)
H5 H 0.2340 1.2315 0.5564
C9 C 0.24888(14) 0.96421(7) 0.38992(9)
C10 C 0.28796(15) 0.90028(7) 0.39377(10)
C11 C 0.33838(15) 0.82424(7) 0.39546(10)
C12 C 0.30243(18) 0.77690(7) 0.48310(11)
H6 H 0.2466 0.7950 0.5445
C13 C 0.3484(2) 0.70342(8) 0.48012(12)
H7 H 0.3233 0.6713 0.5396
C14 C 0.4304(2) 0.67643(8) 0.39170(13)
H8 H 0.4616 0.6259 0.3906
C15 C 0.46743(19) 0.72283(8) 0.30450(13)
H9 H 0.5238 0.7042 0.2436
C16 C 0.42194(17) 0.79647(7) 0.30624(11)
H10 H 0.4476 0.8283 0.2465
C17 C -0.10753(13) 1.03935(6) 0.22531(9)
C18 C -0.16520(15) 1.00335(7) 0.12425(10)
H11 H -0.0936 0.9980 0.0655
C19 C -0.32837(16) 0.97511(7) 0.10929(11)
H12 H -0.3678 0.9502 0.0405
C20 C -0.43283(15) 0.98335(7) 0.19445(11)
H13 H -0.5446 0.9647 0.1837
C21 C -0.37471(15) 1.01885(7) 0.29584(11)
H14 H -0.4465 1.0240 0.3545
C22 C -0.21245(15) 1.04666(7) 0.31149(10)
H15 H -0.1728 1.0707 0.3810
loop_
_geom_bond_atom_site_label_1
_geom_bond_atom_site_label_2
_geom_bond_site_symmetry_1
_geom_bond_site_symmetry_2
P1 O1 1_555 1_555
C1 P1 1_555 1_555
C2 C1 1_555 1_555
H1 C2 1_555 1_555
C3 C2 1_555 1_555
C4 P1 1_555 1_555
C5 C4 1_555 1_555
H2 C5 1_555 1_555
C6 C5 1_555 1_555
H3 C6 1_555 1_555
C7 C6 1_555 1_555
H4 C7 1_555 1_555
C8 C3 1_555 1_555
H5 C8 1_555 1_555
C9 C1 1_555 1_555
C10 C9 1_555 1_555
C11 C10 1_555 1_555
C12 C11 1_555 1_555
H6 C12 1_555 1_555
C13 C12 1_555 1_555
H7 C13 1_555 1_555
C14 C13 1_555 1_555
H8 C14 1_555 1_555
C15 C14 1_555 1_555
H9 C15 1_555 1_555
C16 C11 1_555 1_555
H10 C16 1_555 1_555
C17 P1 1_555 1_555
C18 C17 1_555 1_555
H11 C18 1_555 1_555
C19 C18 1_555 1_555
H12 C19 1_555 1_555
C20 C19 1_555 1_555
H13 C20 1_555 1_555
C21 C20 1_555 1_555
H14 C21 1_555 1_555
C22 C17 1_555 1_555
H15 C22 1_555 1_555
C3 C4 1_555 1_555
C7 C8 1_555 1_555
C15 C16 1_555 1_555
C21 C22 1_555 1_555

#END
