
#######################################################################
#
#                 Cambridge Crystallographic Data Centre
#                                CCDC 
#
#######################################################################
#
# If this CIF has been generated from an entry in the Cambridge 
# Structural Database, then it will include bibliographic, chemical, 
# crystal, experimental, refinement or atomic coordinate data resulting 
# from the CCDC's data processing and validation procedures.
#
#######################################################################

data_TIMKUX
_chemical_formula_moiety         'C22 H27 N5 O3 S1,C1 H1 Cl3'
_chemical_name_systematic        
'Ethyl 5-(carbamothioylhydrazono)-2-((4-methoxyphenyl)hydrazono)-3-phenylhexanoate chloroform solvate'
_symmetry_cell_setting           triclinic
_symmetry_space_group_name_H-M   'P -1'
_symmetry_Int_Tables_number      2
_space_group_name_Hall           '-P 1'
loop_
_symmetry_equiv_pos_site_id
_symmetry_equiv_pos_as_xyz
1 x,y,z
2 -x,-y,-z
_cell_length_a                   7.9542(8)
_cell_length_b                   9.0517(9)
_cell_length_c                   20.6317(19)
_cell_angle_alpha                97.089(2)
_cell_angle_beta                 93.196(2)
_cell_angle_gamma                111.877(2)
_cell_volume                     1359.58
_exptl_crystal_colour            green
_exptl_crystal_description       prismatic
_cell_formula_units_Z            2
loop_
_atom_site_label
_atom_site_type_symbol
_atom_site_fract_x
_atom_site_fract_y
_atom_site_fract_z
S1 S 0.71409(14) 0.79996(16) 0.48295(4)
O1 O 1.2116(3) 1.1571(2) 0.76934(12)
O2 O 1.2635(3) 0.9427(2) 0.72463(11)
O3 O 0.3873(3) 1.2661(3) 0.94099(12)
N1 N 0.9732(4) 0.8896(4) 0.58187(14)
H1 H 1.0141 0.8833 0.6205
H2 H 1.0422 0.9566 0.5592
N2 N 0.7058(4) 0.6954(3) 0.59584(12)
N3 N 0.7842(3) 0.6965(3) 0.65727(10)
N4 N 0.8905(3) 0.9331(2) 0.81184(11)
N5 N 0.9047(3) 1.0854(3) 0.82466(12)
C1 C 0.8051(4) 0.7968(4) 0.55757(14)
C2 C 0.6883(4) 0.6047(3) 0.69433(13)
C3 C 0.7813(3) 0.6060(3) 0.75968(12)
H3 H 0.7706 0.4971 0.7632
H4 H 0.7179 0.6386 0.7940
C4 C 0.9825(3) 0.7170(3) 0.77189(12)
H5 H 1.0384 0.6978 0.7322
C5 C 1.0099(3) 0.8937(3) 0.78246(12)
C6 C 1.0791(3) 0.6757(3) 0.82830(12)
C7 C 1.2007(4) 0.6027(3) 0.81606(14)
H6 H 1.2273 0.5838 0.7733
C8 C 1.2837(4) 0.5571(4) 0.86616(17)
H7 H 1.3631 0.5056 0.8567
C9 C 1.2494(4) 0.5873(4) 0.92965(16)
H8 H 1.3074 0.5589 0.9635
C10 C 1.1285(4) 0.6600(3) 0.94295(14)
H9 H 1.1034 0.6793 0.9859
C11 C 1.0442(4) 0.7047(3) 0.89294(12)
H10 H 0.9634 0.7546 0.9026
C12 C 0.7692(4) 1.1209(3) 0.85405(13)
C13 C 0.7855(4) 1.2814(3) 0.86353(14)
H11 H 0.8854 1.3601 0.8503
C14 C 0.6557(4) 1.3235(3) 0.89212(15)
H12 H 0.6680 1.4307 0.8978
C15 C 0.5070(4) 1.2098(3) 0.91268(14)
C16 C 0.4894(4) 1.0505(4) 0.90429(16)
H13 H 0.3901 0.9727 0.9183
C17 C 0.6206(4) 1.0075(3) 0.87489(17)
H14 H 0.6080 0.9002 0.8692
C18 C 0.4924(4) 0.4944(4) 0.67787(16)
H15 H 0.4202 0.5564 0.6703
H16 H 0.4517 0.4367 0.7138
H17 H 0.4797 0.4192 0.6390
C19 C 1.1701(4) 1.0123(3) 0.75933(13)
C20 C 1.4294(5) 1.0491(4) 0.7017(2)
H18 H 1.5122 1.1223 0.7384
H19 H 1.4011 1.1119 0.6711
C21 C 1.5124(7) 0.9407(6) 0.6686(4)
H20 H 1.5658 0.8992 0.7011
H21 H 1.6049 1.0003 0.6433
H22 H 1.4198 0.8528 0.6400
C22 C 0.2357(6) 1.1546(5) 0.9651(2)
H23 H 0.1615 1.0738 0.9295
H24 H 0.1650 1.2101 0.9850
H25 H 0.2778 1.1044 0.9973
H26 H 0.602(3) 0.632(4) 0.5811(18)
H27 H 0.988(4) 1.157(3) 0.8130(17)
Cl1 Cl 0.26531(18) 0.7149(2) 0.44201(7)
Cl2 Cl -0.08611(18) 0.45713(17) 0.40939(8)
Cl3 Cl 0.0218(2) 0.7099(2) 0.33273(8)
C23 C 0.0377(6) 0.6630(6) 0.4112(2)
H28 H -0.0157 0.7237 0.4402
loop_
_geom_bond_atom_site_label_1
_geom_bond_atom_site_label_2
_geom_bond_site_symmetry_1
_geom_bond_site_symmetry_2
S1 C1 1_555 1_555
O1 C19 1_555 1_555
O2 C19 1_555 1_555
O3 C15 1_555 1_555
N1 H1 1_555 1_555
H2 N1 1_555 1_555
N2 N3 1_555 1_555
N3 C2 1_555 1_555
N4 N5 1_555 1_555
N5 C12 1_555 1_555
C1 N1 1_555 1_555
C2 C3 1_555 1_555
C3 H3 1_555 1_555
H4 C3 1_555 1_555
C4 C3 1_555 1_555
H5 C4 1_555 1_555
C5 N4 1_555 1_555
C6 C4 1_555 1_555
C7 C6 1_555 1_555
H6 C7 1_555 1_555
C8 C7 1_555 1_555
H7 C8 1_555 1_555
C9 C8 1_555 1_555
H8 C9 1_555 1_555
C10 C9 1_555 1_555
H9 C10 1_555 1_555
C11 C6 1_555 1_555
H10 C11 1_555 1_555
C12 C13 1_555 1_555
C13 H11 1_555 1_555
C14 C13 1_555 1_555
H12 C14 1_555 1_555
C15 C14 1_555 1_555
C16 C15 1_555 1_555
H13 C16 1_555 1_555
C17 C12 1_555 1_555
H14 C17 1_555 1_555
C18 C2 1_555 1_555
H15 C18 1_555 1_555
H16 C18 1_555 1_555
H17 C18 1_555 1_555
C19 C5 1_555 1_555
C20 O2 1_555 1_555
H18 C20 1_555 1_555
H19 C20 1_555 1_555
C21 C20 1_555 1_555
H20 C21 1_555 1_555
H21 C21 1_555 1_555
H22 C21 1_555 1_555
C22 O3 1_555 1_555
H23 C22 1_555 1_555
H24 C22 1_555 1_555
H25 C22 1_555 1_555
H26 N2 1_555 1_555
H27 N5 1_555 1_555
Cl1 C23 1_555 1_555
Cl2 C23 1_555 1_555
Cl3 C23 1_555 1_555
C23 H28 1_555 1_555
N2 C1 1_555 1_555
C4 C5 1_555 1_555
C10 C11 1_555 1_555
C16 C17 1_555 1_555

#END
