
#######################################################################
#
#                 Cambridge Crystallographic Data Centre
#                                CCDC 
#
#######################################################################
#
# If this CIF has been generated from an entry in the Cambridge 
# Structural Database, then it will include bibliographic, chemical, 
# crystal, experimental, refinement or atomic coordinate data resulting 
# from the CCDC's data processing and validation procedures.
#
#######################################################################

data_TIMNAG
_chemical_formula_moiety         'C20 H19 Br1 N2 O1'
_chemical_name_systematic        
1-Benzyl-4-(3-bromophenyl)-5-methyl-2-oxopiperidine-3-carbonitrile
_symmetry_cell_setting           monoclinic
_symmetry_space_group_name_H-M   'P 21'
_symmetry_Int_Tables_number      4
_space_group_name_Hall           'P 2yb'
loop_
_symmetry_equiv_pos_site_id
_symmetry_equiv_pos_as_xyz
1 x,y,z
2 -x,1/2+y,-z
_cell_length_a                   9.6209(9)
_cell_length_b                   7.1606(5)
_cell_length_c                   13.1936(6)
_cell_angle_alpha                90
_cell_angle_beta                 94.002(6)
_cell_angle_gamma                90
_cell_volume                     906.709
_cell_formula_units_Z            2
loop_
_atom_site_label
_atom_site_type_symbol
_atom_site_fract_x
_atom_site_fract_y
_atom_site_fract_z
Br1 Br 0.87530(5) -0.08069(7) 0.52687(2)
O1 O 1.0213(3) 0.2134(4) 1.13583(18)
C1 C 0.7596(4) 0.4174(7) 1.2986(2)
H1 H 0.8438 0.4495 1.2727
C2 C 0.9058(4) 0.2362(4) 0.9698(2)
H2 H 0.8863 0.3699 0.9619
N1 N 0.7922(4) 0.1405(4) 1.12180(19)
C3 C 0.9115(5) 0.1934(5) 1.0843(3)
C4 C 0.7920(4) 0.1325(4) 0.9054(2)
H3 H 0.8113 -0.0017 0.9109
C5 C 0.6556(4) 0.1707(5) 0.9532(2)
H4 H 0.6427 0.3063 0.9559
C6 C 0.8036(5) 0.2832(6) 0.5902(3)
H5 H 0.8049 0.3141 0.5218
C7 C 0.7954(4) 0.1881(4) 0.7942(2)
C8 C 0.7097(4) 0.2380(5) 1.2868(2)
C9 C 1.0471(5) 0.2042(5) 0.9352(3)
C10 C 0.8258(4) 0.0537(5) 0.7232(2)
H6 H 0.8428 -0.0692 0.7432
C11 C 0.8305(4) 0.1049(5) 0.6224(2)
N2 N 1.1550(5) 0.1798(5) 0.9079(3)
C12 C 0.6634(4) 0.0973(5) 1.0611(2)
H7 H 0.5858 0.1484 1.0952
H8 H 0.6520 -0.0372 1.0588
C13 C 0.7746(4) 0.4152(7) 0.6604(3)
H9 H 0.7578 0.5377 0.6396
C14 C 0.7697(5) 0.3692(5) 0.7627(3)
H10 H 0.7491 0.4603 0.8096
C15 C 0.7893(4) 0.0951(5) 1.2307(2)
H11 H 0.8841 0.0882 1.2608
H12 H 0.7466 -0.0265 1.2378
C16 C 0.5307(4) 0.0880(7) 0.8928(3)
H13 H 0.5192 0.1481 0.8277
H14 H 0.4486 0.1069 0.9289
H15 H 0.5452 -0.0434 0.8834
C17 C 0.5134(7) 0.3269(9) 1.3782(3)
H16 H 0.4294 0.2958 1.4047
C18 C 0.5864(5) 0.1934(6) 1.3280(3)
H17 H 0.5518 0.0723 1.3220
C19 C 0.6855(7) 0.5509(6) 1.3488(3)
H18 H 0.7187 0.6726 1.3551
C20 C 0.5638(7) 0.5026(9) 1.3890(3)
H19 H 0.5151 0.5911 1.4240
loop_
_geom_bond_atom_site_label_1
_geom_bond_atom_site_label_2
_geom_bond_site_symmetry_1
_geom_bond_site_symmetry_2
Br1 C11 1_555 1_555
O1 C3 1_555 1_555
C1 H1 1_555 1_555
C2 H2 1_555 1_555
N1 C3 1_555 1_555
C3 C2 1_555 1_555
C4 C2 1_555 1_555
H3 C4 1_555 1_555
C5 C4 1_555 1_555
H4 C5 1_555 1_555
C6 H5 1_555 1_555
C7 C4 1_555 1_555
C8 C1 1_555 1_555
C9 C2 1_555 1_555
C10 C7 1_555 1_555
H6 C10 1_555 1_555
C11 C6 1_555 1_555
N2 C9 1_555 1_555
C12 N1 1_555 1_555
H7 C12 1_555 1_555
H8 C12 1_555 1_555
C13 C6 1_555 1_555
H9 C13 1_555 1_555
C14 C7 1_555 1_555
H10 C14 1_555 1_555
C15 N1 1_555 1_555
H11 C15 1_555 1_555
H12 C15 1_555 1_555
C16 C5 1_555 1_555
H13 C16 1_555 1_555
H14 C16 1_555 1_555
H15 C16 1_555 1_555
C17 H16 1_555 1_555
C18 C8 1_555 1_555
H17 C18 1_555 1_555
C19 C1 1_555 1_555
H18 C19 1_555 1_555
C20 C17 1_555 1_555
H19 C20 1_555 1_555
C5 C12 1_555 1_555
C8 C15 1_555 1_555
C10 C11 1_555 1_555
C13 C14 1_555 1_555
C17 C18 1_555 1_555
C19 C20 1_555 1_555

#END
