
#######################################################################
#
#                 Cambridge Crystallographic Data Centre
#                                CCDC 
#
#######################################################################
#
# If this CIF has been generated from an entry in the Cambridge 
# Structural Database, then it will include bibliographic, chemical, 
# crystal, experimental, refinement or atomic coordinate data resulting 
# from the CCDC's data processing and validation procedures.
#
#######################################################################

data_TIMPAI
_chemical_formula_moiety         'C15 H12 O3'
_chemical_name_systematic        '2-Formylphenyl 4-methylbenzoate'
_symmetry_cell_setting           orthorhombic
_symmetry_space_group_name_H-M   'P n a 21'
_symmetry_Int_Tables_number      33
_space_group_name_Hall           'P 2c -2n'
loop_
_symmetry_equiv_pos_site_id
_symmetry_equiv_pos_as_xyz
1 x,y,z
2 -x,-y,1/2+z
3 1/2+x,1/2-y,z
4 1/2-x,1/2+y,1/2+z
_cell_length_a                   22.827(2)
_cell_length_b                   4.0137(4)
_cell_length_c                   13.1725(12)
_cell_angle_alpha                90
_cell_angle_beta                 90
_cell_angle_gamma                90
_cell_volume                     1206.87
_exptl_crystal_colour            colorless
_exptl_crystal_description       block
_cell_formula_units_Z            4
loop_
_atom_site_label
_atom_site_type_symbol
_atom_site_fract_x
_atom_site_fract_y
_atom_site_fract_z
O1 O 0.14163(7) 0.8071(5) 0.19428(12)
O2 O 0.05344(8) 1.0546(5) 0.20280(13)
O3 O 0.27810(10) 1.4165(7) 0.15188(19)
C1 C 0.08775(10) 0.7509(6) 0.34615(17)
C2 C 0.15107(10) 0.9191(6) 0.09524(16)
C3 C 0.13418(10) 0.5763(6) 0.38949(17)
H1 H 0.1675 0.5307 0.3513
C4 C 0.08995(9) 0.8877(6) 0.24237(19)
C5 C 0.13089(12) 0.4713(6) 0.48862(19)
H2 H 0.1621 0.3550 0.5170
C6 C 0.03789(10) 0.8123(6) 0.40365(19)
H3 H 0.0064 0.9256 0.3751
C7 C 0.03501(11) 0.7059(7) 0.50265(19)
H4 H 0.0014 0.7482 0.5403
C8 C 0.08114(10) 0.5372(6) 0.54747(18)
C9 C 0.21358(12) 1.2018(7) -0.02155(19)
H5 H 0.2465 1.3314 -0.0348
C10 C 0.07918(14) 0.4250(8) 0.6564(2)
H6 H 0.0435 0.5012 0.6872
H7 H 0.1121 0.5161 0.6923
H8 H 0.0807 0.1862 0.6591
C11 C 0.20064(10) 1.1088(6) 0.07839(18)
C12 C 0.17832(14) 1.1036(9) -0.0997(2)
H9 H 0.1876 1.1636 -0.1660
C13 C 0.12922(14) 0.9168(9) -0.0806(2)
H10 H 0.1053 0.8526 -0.1344
C14 C 0.23857(11) 1.2204(7) 0.1617(2)
H11 H 0.2316 1.1342 0.2261
C15 C 0.11461(13) 0.8220(8) 0.0171(2)
H12 H 0.0812 0.6964 0.0298
loop_
_geom_bond_atom_site_label_1
_geom_bond_atom_site_label_2
_geom_bond_site_symmetry_1
_geom_bond_site_symmetry_2
O1 C2 1_555 1_555
O2 C4 1_555 1_555
O3 C14 1_555 1_555
C1 C3 1_555 1_555
C2 C11 1_555 1_555
C3 H1 1_555 1_555
C4 O1 1_555 1_555
C5 C3 1_555 1_555
H2 C5 1_555 1_555
C6 C1 1_555 1_555
H3 C6 1_555 1_555
C7 C6 1_555 1_555
H4 C7 1_555 1_555
C8 C5 1_555 1_555
C9 H5 1_555 1_555
C10 C8 1_555 1_555
H6 C10 1_555 1_555
H7 C10 1_555 1_555
H8 C10 1_555 1_555
C11 C9 1_555 1_555
C12 C9 1_555 1_555
H9 C12 1_555 1_555
C13 C12 1_555 1_555
H10 C13 1_555 1_555
C14 C11 1_555 1_555
H11 C14 1_555 1_555
C15 C2 1_555 1_555
H12 C15 1_555 1_555
C1 C4 1_555 1_555
C7 C8 1_555 1_555
C13 C15 1_555 1_555

#END
