
#######################################################################
#
#                 Cambridge Crystallographic Data Centre
#                                CCDC 
#
#######################################################################
#
# If this CIF has been generated from an entry in the Cambridge 
# Structural Database, then it will include bibliographic, chemical, 
# crystal, experimental, refinement or atomic coordinate data resulting 
# from the CCDC's data processing and validation procedures.
#
#######################################################################

data_TIMQOX
_chemical_formula_moiety         'C46 H38 N4'
_chemical_name_systematic        
1,1'-(Cyclohex-1-ene-1,2-diylbis(phenylmethylylidene))bis((diphenylmethylene)hydrazine)
_symmetry_cell_setting           triclinic
_symmetry_space_group_name_H-M   'P -1'
_symmetry_Int_Tables_number      2
_space_group_name_Hall           '-P 1'
loop_
_symmetry_equiv_pos_site_id
_symmetry_equiv_pos_as_xyz
1 x,y,z
2 -x,-y,-z
_cell_length_a                   9.0547(18)
_cell_length_b                   14.315(3)
_cell_length_c                   14.612(3)
_cell_angle_alpha                104.88(3)
_cell_angle_beta                 95.42(3)
_cell_angle_gamma                90.83(3)
_cell_volume                     1820.8
_cell_formula_units_Z            2
loop_
_atom_site_label
_atom_site_type_symbol
_atom_site_fract_x
_atom_site_fract_y
_atom_site_fract_z
C1 C 0.8283(3) 0.80692(16) 0.26817(17)
C2 C 0.8634(3) 0.70482(16) 0.21925(15)
C3 C 0.7599(3) 0.63397(17) 0.18980(15)
C4 C 0.6010(3) 0.65026(16) 0.20563(17)
C5 C 1.0252(3) 0.69148(17) 0.20438(17)
H1 H 1.0816 0.6951 0.2651
H2 H 1.0615 0.7436 0.1802
C6 C 1.0504(3) 0.5958(2) 0.13561(19)
H3 H 1.0233 0.6001 0.0710
H4 H 1.1550 0.5822 0.1415
C7 C 0.9609(3) 0.51439(19) 0.15402(19)
H5 H 0.9899 0.5089 0.2180
H6 H 0.9817 0.4541 0.1097
C8 C 0.7955(3) 0.53098(16) 0.14308(16)
H7 H 0.7605 0.5159 0.0759
H8 H 0.7432 0.4875 0.1712
C9 C 0.7790(3) 0.87341(17) 0.20884(16)
C10 C 0.7733(3) 0.84442(17) 0.11034(17)
H9 H 0.7966 0.7816 0.0805
C11 C 0.7329(3) 0.9087(2) 0.05547(18)
H10 H 0.7320 0.8894 -0.0104
C12 C 0.6943(3) 1.0010(2) 0.0999(2)
H11 H 0.6660 1.0438 0.0637
C13 C 0.6977(3) 1.02999(19) 0.1978(2)
H12 H 0.6712 1.0922 0.2274
C14 C 0.7400(3) 0.96722(18) 0.25150(18)
H13 H 0.7428 0.9877 0.3174
C15 C 0.8948(3) 0.80838(18) 0.49857(18)
C16 C 0.9693(3) 0.7508(2) 0.55882(18)
C17 C 1.0225(3) 0.6605(2) 0.52052(19)
H14 H 1.0067 0.6340 0.4551
C18 C 1.0982(3) 0.6084(2) 0.5761(2)
H15 H 1.1315 0.5475 0.5483
C19 C 1.1236(4) 0.6467(3) 0.6712(3)
H16 H 1.1766 0.6131 0.7093
C20 C 1.0703(5) 0.7353(3) 0.7108(2)
H17 H 1.0861 0.7611 0.7763
C21 C 0.9928(4) 0.7878(2) 0.6551(2)
H18 H 0.9572 0.8479 0.6834
C22 C 0.8031(3) 0.88981(19) 0.54270(16)
C23 C 0.8604(3) 0.9820(2) 0.58001(19)
H19 H 0.9606 0.9954 0.5775
C24 C 0.7720(4) 1.0556(2) 0.6214(2)
H20 H 0.8130 1.1178 0.6472
C25 C 0.6256(4) 1.0374(2) 0.6246(2)
H21 H 0.5659 1.0871 0.6520
C26 C 0.5659(4) 0.9456(3) 0.5873(2)
H22 H 0.4657 0.9325 0.5897
C27 C 0.6556(4) 0.8724(2) 0.54593(19)
H23 H 0.6145 0.8102 0.5199
C28 C 0.5482(3) 0.64961(17) 0.29857(17)
C29 C 0.6324(3) 0.60940(17) 0.36124(17)
H24 H 0.7258 0.5873 0.3471
C30 C 0.5796(3) 0.60163(19) 0.44480(18)
H25 H 0.6360 0.5727 0.4857
C31 C 0.4444(4) 0.6364(2) 0.46727(19)
H26 H 0.4084 0.6305 0.5232
C32 C 0.3608(3) 0.68040(19) 0.40715(19)
H27 H 0.2703 0.7061 0.4236
C33 C 0.4120(3) 0.68594(18) 0.32313(18)
H28 H 0.3547 0.7144 0.2822
C34 C 0.4797(3) 0.69476(17) -0.00467(17)
C35 C 0.5309(3) 0.68002(18) -0.10093(17)
C36 C 0.5127(3) 0.7494(2) -0.15216(19)
H29 H 0.4615 0.8045 -0.1273
C37 C 0.5679(4) 0.7387(3) -0.2383(2)
H30 H 0.5543 0.7865 -0.2706
C38 C 0.6423(4) 0.6588(3) -0.2768(2)
H31 H 0.6808 0.6523 -0.3348
C39 C 0.6602(4) 0.5879(2) -0.2299(2)
H32 H 0.7084 0.5322 -0.2571
C40 C 0.6070(3) 0.5983(2) -0.1418(2)
H33 H 0.6223 0.5503 -0.1099
C41 C 0.3577(3) 0.76246(18) 0.02364(18)
C42 C 0.3766(3) 0.84112(19) 0.10271(18)
H34 H 0.4656 0.8504 0.1418
C43 C 0.2652(3) 0.90625(19) 0.12453(19)
H35 H 0.2810 0.9600 0.1765
C44 C 0.1318(3) 0.8911(2) 0.0693(2)
H36 H 0.0565 0.9342 0.0841
C45 C 0.1093(3) 0.8121(2) -0.0080(2)
H37 H 0.0179 0.8015 -0.0447
C46 C 0.2214(3) 0.74831(19) -0.03187(18)
H38 H 0.2057 0.6959 -0.0851
N1 N 0.8488(2) 0.84426(14) 0.35865(14)
N2 N 0.9131(2) 0.78118(14) 0.40963(14)
N3 N 0.4984(2) 0.65816(14) 0.13961(14)
N4 N 0.5517(2) 0.64936(14) 0.05075(14)
loop_
_geom_bond_atom_site_label_1
_geom_bond_atom_site_label_2
_geom_bond_site_symmetry_1
_geom_bond_site_symmetry_2
C1 C2 1_555 1_555
C2 C3 1_555 1_555
C3 C4 1_555 1_555
C4 C28 1_555 1_555
C5 C2 1_555 1_555
H1 C5 1_555 1_555
H2 C5 1_555 1_555
C6 C5 1_555 1_555
H3 C6 1_555 1_555
H4 C6 1_555 1_555
C7 C6 1_555 1_555
H5 C7 1_555 1_555
H6 C7 1_555 1_555
C8 C3 1_555 1_555
H7 C8 1_555 1_555
H8 C8 1_555 1_555
C9 C1 1_555 1_555
C10 C9 1_555 1_555
H9 C10 1_555 1_555
C11 C10 1_555 1_555
H10 C11 1_555 1_555
C12 C11 1_555 1_555
H11 C12 1_555 1_555
C13 C12 1_555 1_555
H12 C13 1_555 1_555
C14 C9 1_555 1_555
H13 C14 1_555 1_555
C15 C16 1_555 1_555
C16 C17 1_555 1_555
C17 H14 1_555 1_555
C18 C17 1_555 1_555
H15 C18 1_555 1_555
C19 C18 1_555 1_555
H16 C19 1_555 1_555
C20 C19 1_555 1_555
H17 C20 1_555 1_555
C21 C16 1_555 1_555
H18 C21 1_555 1_555
C22 C15 1_555 1_555
C23 C22 1_555 1_555
H19 C23 1_555 1_555
C24 C23 1_555 1_555
H20 C24 1_555 1_555
C25 C24 1_555 1_555
H21 C25 1_555 1_555
C26 C25 1_555 1_555
H22 C26 1_555 1_555
C27 C22 1_555 1_555
H23 C27 1_555 1_555
C28 C29 1_555 1_555
C29 H24 1_555 1_555
C30 C29 1_555 1_555
H25 C30 1_555 1_555
C31 C30 1_555 1_555
H26 C31 1_555 1_555
C32 C31 1_555 1_555
H27 C32 1_555 1_555
C33 C28 1_555 1_555
H28 C33 1_555 1_555
C34 C35 1_555 1_555
C35 C36 1_555 1_555
C36 H29 1_555 1_555
C37 C36 1_555 1_555
H30 C37 1_555 1_555
C38 C37 1_555 1_555
H31 C38 1_555 1_555
C39 C38 1_555 1_555
H32 C39 1_555 1_555
C40 C35 1_555 1_555
H33 C40 1_555 1_555
C41 C34 1_555 1_555
C42 C41 1_555 1_555
H34 C42 1_555 1_555
C43 C42 1_555 1_555
H35 C43 1_555 1_555
C44 C43 1_555 1_555
H36 C44 1_555 1_555
C45 C44 1_555 1_555
H37 C45 1_555 1_555
C46 C41 1_555 1_555
H38 C46 1_555 1_555
N1 C1 1_555 1_555
N2 C15 1_555 1_555
N3 C4 1_555 1_555
N4 C34 1_555 1_555
C7 C8 1_555 1_555
C13 C14 1_555 1_555
C20 C21 1_555 1_555
C26 C27 1_555 1_555
C32 C33 1_555 1_555
C39 C40 1_555 1_555
C45 C46 1_555 1_555
N1 N2 1_555 1_555
N3 N4 1_555 1_555

#END
