
#######################################################################
#
#                 Cambridge Crystallographic Data Centre
#                                CCDC 
#
#######################################################################
#
# If this CIF has been generated from an entry in the Cambridge 
# Structural Database, then it will include bibliographic, chemical, 
# crystal, experimental, refinement or atomic coordinate data resulting 
# from the CCDC's data processing and validation procedures.
#
#######################################################################

data_TIMSUG
_chemical_formula_moiety         'C32 H36 O3,C1 H4 O1'
_chemical_name_systematic        
'12d-methyl-4b,8b,12b-tripropyl-4b,8b,12b,12d-tetrahydrodibenzo[2,3:4,5]pentaleno[1,6-ab]indene-2,6,10-triol methanol solvate'
_symmetry_cell_setting           triclinic
_symmetry_space_group_name_H-M   'P -1'
_symmetry_Int_Tables_number      2
_space_group_name_Hall           '-P 1'
loop_
_symmetry_equiv_pos_site_id
_symmetry_equiv_pos_as_xyz
1 x,y,z
2 -x,-y,-z
_cell_length_a                   9.3872(7)
_cell_length_b                   9.5329(7)
_cell_length_c                   16.2496(12)
_cell_angle_alpha                90.6950(10)
_cell_angle_beta                 102.9430(10)
_cell_angle_gamma                109.6400(10)
_cell_volume                     1328.67
_exptl_crystal_colour            colorless
_exptl_crystal_description       stick
_cell_formula_units_Z            2
loop_
_atom_site_label
_atom_site_type_symbol
_atom_site_fract_x
_atom_site_fract_y
_atom_site_fract_z
O1 O 1.03273(16) 0.07386(16) 0.41721(9)
H1 H 1.108(3) 0.120(3) 0.4606(18)
O2 O 0.10861(16) -0.14318(16) 0.33741(10)
H2 H 0.080(3) -0.071(3) 0.3599(18)
O3 O 0.69480(17) 0.77781(16) 0.46545(9)
H3 H 0.617(4) 0.802(4) 0.485(2)
C1 C 0.7232(2) 0.4375(2) 0.23901(12)
C2 C 0.6161(2) 0.15456(19) 0.19594(11)
C3 C 0.4312(2) 0.29196(19) 0.21129(11)
C4 C 0.5824(2) 0.3064(2) 0.17777(11)
C5 C 0.5578(2) 0.3314(2) 0.08341(12)
H4 H 0.469089 0.247724 0.050462
H5 H 0.651852 0.337728 0.064680
H6 H 0.536833 0.424859 0.074742
C6 C 0.8205(2) 0.3545(2) 0.29058(11)
C7 C 0.7620(2) 0.2020(2) 0.26828(11)
C8 C 0.8346(2) 0.1084(2) 0.31055(12)
H7 H 0.794794 0.003804 0.294353
C9 C 0.9656(2) 0.1704(2) 0.37640(12)
C10 C 1.0255(2) 0.3240(2) 0.40006(12)
H8 H 1.115401 0.365398 0.445483
C11 C 0.9533(2) 0.4160(2) 0.35693(12)
H9 H 0.994054 0.520823 0.372487
C12 C 0.4770(2) 0.0578(2) 0.22648(11)
C13 C 0.3805(2) 0.13484(19) 0.23870(11)
C14 C 0.2543(2) 0.0688(2) 0.27413(12)
H10 H 0.187713 0.121730 0.281343
C15 C 0.2268(2) -0.0750(2) 0.29879(12)
C16 C 0.3195(2) -0.1553(2) 0.28398(13)
H11 H 0.297511 -0.255295 0.298513
C17 C 0.4437(2) -0.0892(2) 0.24805(13)
H12 H 0.506743 -0.144313 0.238001
C18 C 0.4899(2) 0.4110(2) 0.28560(11)
C19 C 0.6461(2) 0.49692(19) 0.29688(11)
C20 C 0.7161(2) 0.6197(2) 0.35811(12)
H13 H 0.823030 0.678868 0.365821
C21 C 0.6271(2) 0.6538(2) 0.40739(12)
C22 C 0.4714(2) 0.5643(2) 0.39812(12)
H14 H 0.412552 0.586062 0.433844
C23 C 0.4028(2) 0.4438(2) 0.33681(12)
H15 H 0.296315 0.383713 0.329726
C24 C 0.8284(2) 0.5609(2) 0.19665(13)
H16 H 0.929327 0.608225 0.238479
H17 H 0.849535 0.511818 0.149018
C25 C 0.7705(3) 0.6856(2) 0.16236(15)
H18 H 0.664168 0.641333 0.125223
H19 H 0.765592 0.747850 0.210138
C26 C 0.8781(3) 0.7824(3) 0.11274(16)
H20 H 0.984891 0.820089 0.148270
H21 H 0.844789 0.866875 0.095564
H22 H 0.874594 0.723021 0.062177
C27 C 0.6439(2) 0.0735(2) 0.12124(12)
H23 H 0.634707 -0.029579 0.134948
H24 H 0.559813 0.065839 0.070321
C28 C 0.8007(2) 0.1470(2) 0.09895(13)
H25 H 0.832629 0.256972 0.109550
H26 H 0.880469 0.115044 0.136595
C29 C 0.7952(3) 0.1072(3) 0.00704(14)
H27 H 0.753638 -0.001783 -0.005473
H28 H 0.900708 0.146584 -0.002102
H29 H 0.727887 0.151306 -0.030494
C30 C 0.2899(2) 0.3144(2) 0.14876(12)
H30 H 0.265102 0.249047 0.095887
H31 H 0.198868 0.278422 0.174032
C31 C 0.3074(2) 0.4736(2) 0.12449(15)
H32 H 0.382201 0.546485 0.171578
H33 H 0.351232 0.490123 0.073928
C32 C 0.1572(3) 0.5018(3) 0.1058(2)
H34 H 0.081752 0.428592 0.060081
H35 H 0.174338 0.602967 0.088350
H36 H 0.116573 0.492256 0.156851
O4 O 0.4869(5) 0.8719(5) 0.5036(3)
C33 C 0.3428(4) 0.7910(4) 0.5317(2)
H37 H 0.305396 0.690483 0.550254
H38 H 0.300100 0.787135 0.470519
H39 H 0.308653 0.858556 0.561917
O5? O 0.4918(5) 0.8390(5) 0.5478(2)
loop_
_geom_bond_atom_site_label_1
_geom_bond_atom_site_label_2
_geom_bond_site_symmetry_1
_geom_bond_site_symmetry_2
O1 H1 1_555 1_555
O2 H2 1_555 1_555
O3 H3 1_555 1_555
C1 C4 1_555 1_555
C2 C4 1_555 1_555
C3 C4 1_555 1_555
C4 C5 1_555 1_555
C5 H4 1_555 1_555
H5 C5 1_555 1_555
H6 C5 1_555 1_555
C6 C1 1_555 1_555
C7 C2 1_555 1_555
C8 C7 1_555 1_555
H7 C8 1_555 1_555
C9 O1 1_555 1_555
C10 C9 1_555 1_555
H8 C10 1_555 1_555
C11 C6 1_555 1_555
H9 C11 1_555 1_555
C12 C2 1_555 1_555
C13 C3 1_555 1_555
C14 C13 1_555 1_555
H10 C14 1_555 1_555
C15 O2 1_555 1_555
C16 C15 1_555 1_555
H11 C16 1_555 1_555
C17 C12 1_555 1_555
H12 C17 1_555 1_555
C18 C3 1_555 1_555
C19 C1 1_555 1_555
C20 C19 1_555 1_555
H13 C20 1_555 1_555
C21 O3 1_555 1_555
C22 C21 1_555 1_555
H14 C22 1_555 1_555
C23 C18 1_555 1_555
H15 C23 1_555 1_555
C24 C1 1_555 1_555
H16 C24 1_555 1_555
H17 C24 1_555 1_555
C25 C24 1_555 1_555
H18 C25 1_555 1_555
H19 C25 1_555 1_555
C26 C25 1_555 1_555
H20 C26 1_555 1_555
H21 C26 1_555 1_555
H22 C26 1_555 1_555
C27 C2 1_555 1_555
H23 C27 1_555 1_555
H24 C27 1_555 1_555
C28 C27 1_555 1_555
H25 C28 1_555 1_555
H26 C28 1_555 1_555
C29 C28 1_555 1_555
H27 C29 1_555 1_555
H28 C29 1_555 1_555
H29 C29 1_555 1_555
C30 C3 1_555 1_555
H30 C30 1_555 1_555
H31 C30 1_555 1_555
C31 C30 1_555 1_555
H32 C31 1_555 1_555
H33 C31 1_555 1_555
C32 C31 1_555 1_555
H34 C32 1_555 1_555
H35 C32 1_555 1_555
H36 C32 1_555 1_555
O4 C33 1_555 1_555
C33 H37 1_555 1_555
H38 C33 1_555 1_555
H39 C33 1_555 1_555
C6 C7 1_555 1_555
C8 C9 1_555 1_555
C10 C11 1_555 1_555
C12 C13 1_555 1_555
C14 C15 1_555 1_555
C16 C17 1_555 1_555
C18 C19 1_555 1_555
C20 C21 1_555 1_555
C22 C23 1_555 1_555

#END
