
#######################################################################
#
#                 Cambridge Crystallographic Data Centre
#                                CCDC 
#
#######################################################################
#
# If this CIF has been generated from an entry in the Cambridge 
# Structural Database, then it will include bibliographic, chemical, 
# crystal, experimental, refinement or atomic coordinate data resulting 
# from the CCDC's data processing and validation procedures.
#
#######################################################################

data_TIMSEQ
_chemical_formula_moiety         'C32 H33 I3'
_chemical_name_systematic        
2,6,11-triiodo-12d-methyl-4b,8b,12b-tripropyl-4b,8b,12b,12d-tetrahydrodibenzo[2,3:4,5]pentaleno[1,6-ab]indene
_symmetry_cell_setting           monoclinic
_symmetry_space_group_name_H-M   'P 21/n'
_symmetry_Int_Tables_number      14
_space_group_name_Hall           '-P 2yn'
loop_
_symmetry_equiv_pos_site_id
_symmetry_equiv_pos_as_xyz
1 x,y,z
2 1/2-x,1/2+y,1/2-z
3 -x,-y,-z
4 1/2+x,1/2-y,1/2+z
_cell_length_a                   11.7853(16)
_cell_length_b                   14.849(2)
_cell_length_c                   33.646(4)
_cell_angle_alpha                90
_cell_angle_beta                 93.953(2)
_cell_angle_gamma                90
_cell_volume                     5874.04
_exptl_crystal_colour            colorless
_exptl_crystal_description       plate
_cell_formula_units_Z            8
loop_
_atom_site_label
_atom_site_type_symbol
_atom_site_fract_x
_atom_site_fract_y
_atom_site_fract_z
I1 I 0.3359(2) 0.23771(19) 0.59959(7)
I2 I 0.33174(19) 0.58944(14) 0.45712(6)
I3 I 1.11303(19) 0.41129(18) 0.48294(7)
C1 C 0.681(2) 0.1552(15) 0.4679(7)
C2 C 0.4991(19) 0.2367(15) 0.4461(7)
C3 C 0.687(2) 0.2873(15) 0.4182(7)
C4 C 0.611(2) 0.1991(14) 0.4307(6)
C5 C 0.597(2) 0.1297(16) 0.3955(7)
H1 H 0.535842 0.149820 0.376224
H2 H 0.577232 0.070486 0.405985
H3 H 0.668155 0.125449 0.382404
C6 C 0.5986(19) 0.1650(15) 0.5008(6)
C7 C 0.5082(18) 0.2086(14) 0.4900(6)
C8 C 0.452(2) 0.2071(18) 0.5566(8)
C9 C 0.427(2) 0.2292(15) 0.5190(7)
H4 H 0.356687 0.257909 0.511143
C10 C 0.622(2) 0.1377(17) 0.5403(7)
H5 H 0.689467 0.104605 0.547764
C11 C 0.544(2) 0.1605(17) 0.5690(8)
H6 H 0.557623 0.143133 0.596068
C12 C 0.5067(19) 0.3371(14) 0.4411(6)
C13 C 0.610(2) 0.3608(15) 0.4279(7)
C14 C 0.637(2) 0.4553(15) 0.4261(7)
H7 H 0.710597 0.473994 0.419692
C15 C 0.558(2) 0.5163(16) 0.4334(7)
H8 H 0.573807 0.578288 0.429488
C16 C 0.455(2) 0.4923(15) 0.4465(6)
C17 C 0.425(2) 0.4004(15) 0.4497(6)
C18 C 0.792(2) 0.2807(17) 0.4481(8)
C19 C 0.789(2) 0.2126(16) 0.4753(7)
C20 C 0.872(2) 0.203(2) 0.5031(9)
H9 H 0.868657 0.152301 0.520269
C21 C 0.962(3) 0.260(2) 0.5091(9)
H10 H 1.015167 0.255496 0.531535
C22 C 0.969(2) 0.325(2) 0.4796(9)
C23 C 0.885(2) 0.3432(19) 0.4520(9)
H11 H 0.887421 0.395237 0.435619
C24 C 0.719(2) 0.0545(16) 0.4663(8)
H12 H 0.746595 0.037143 0.493707
H13 H 0.649689 0.018346 0.459479
C25 C 0.808(3) 0.025(2) 0.4387(10)
H14 H 0.769255 0.004065 0.413321
H15 H 0.855191 0.077599 0.432572
C26 C 0.881(3) -0.044(3) 0.4532(12)
H16 H 0.838338 -0.100241 0.455038
H17 H 0.914944 -0.027601 0.479647
H18 H 0.942074 -0.052652 0.435022
C27 C 0.384(2) 0.2010(15) 0.4263(7)
H19 H 0.323662 0.241210 0.434804
H20 H 0.387367 0.209011 0.397169
C28 C 0.346(2) 0.1047(17) 0.4331(8)
H21 H 0.393221 0.063503 0.418065
H22 H 0.360210 0.090244 0.461786
C29 C 0.228(3) 0.088(2) 0.4217(12)
H23 H 0.195417 0.050646 0.442053
H24 H 0.222314 0.055637 0.396128
H25 H 0.187365 0.144904 0.418970
C30 C 0.725(2) 0.2916(17) 0.3756(7)
H26 H 0.783557 0.339435 0.374350
H27 H 0.762034 0.233671 0.369459
C31 C 0.632(2) 0.310(2) 0.3443(8)
H28 H 0.602171 0.371132 0.347751
H29 H 0.569486 0.266322 0.347076
C32 C 0.677(3) 0.301(2) 0.3026(8)
H30 H 0.621615 0.326974 0.282831
H31 H 0.687775 0.236862 0.296519
H32 H 0.749554 0.332473 0.301974
I4 I 0.61682(15) 0.66874(11) 0.87296(5)
I5 I 0.37386(12) 0.42138(12) 0.71124(5)
I6 I 1.02982(14) 0.89618(10) 0.65911(5)
C33 C 0.9867(15) 0.5822(12) 0.7502(6)
C34 C 0.8359(16) 0.4624(13) 0.7616(6)
C35 C 0.8992(17) 0.4911(14) 0.6901(6)
C36 C 0.9473(16) 0.4828(13) 0.7372(6)
C37 C 1.0403(17) 0.4100(14) 0.7437(7)
H33 H 1.014143 0.353985 0.730644
H34 H 1.055650 0.399294 0.772293
H35 H 1.109987 0.430491 0.732225
C38 C 0.9075(15) 0.6103(12) 0.7803(5)
C39 C 0.8272(16) 0.5485(13) 0.7875(6)
C40 C 0.7445(16) 0.5614(13) 0.8145(5)
H36 H 0.689665 0.516416 0.819182
C41 C 0.7466(18) 0.6448(14) 0.8345(6)
C42 C 0.8271(18) 0.7078(14) 0.8277(6)
H37 H 0.826124 0.763232 0.841704
C43 C 0.9074(18) 0.6950(13) 0.8021(6)
H38 H 0.962882 0.739935 0.798256
C44 C 0.7398(16) 0.4602(13) 0.7305(6)
C45 C 0.7735(17) 0.4751(13) 0.6927(6)
C46 C 0.6965(18) 0.4803(15) 0.6594(6)
H39 H 0.720668 0.494987 0.633863
C47 C 0.5812(17) 0.4628(13) 0.6654(6)
H40 H 0.526482 0.461876 0.643295
C48 C 0.5470(17) 0.4467(12) 0.7041(6)
C49 C 0.6260(16) 0.4437(14) 0.7356(6)
H41 H 0.602709 0.430200 0.761437
C50 C 0.9256(16) 0.5863(14) 0.6798(6)
C51 C 0.9694(14) 0.6347(12) 0.7115(6)
C52 C 0.9961(16) 0.7256(13) 0.7060(6)
H42 H 1.025941 0.761709 0.727516
C53 C 0.9776(16) 0.7607(14) 0.6684(6)
C54 C 0.937(2) 0.7109(16) 0.6365(7)
H43 H 0.925568 0.736066 0.610578
C55 C 0.913(2) 0.6205(16) 0.6442(7)
H44 H 0.885880 0.582934 0.622756
C56 C 1.1121(16) 0.5914(14) 0.7660(6)
H45 H 1.133090 0.655653 0.763645
H46 H 1.158408 0.557374 0.747673
C57 C 1.149(2) 0.5612(14) 0.8087(7)
H47 H 1.146052 0.494787 0.810857
H48 H 1.098825 0.587605 0.827926
C58 C 1.277(2) 0.5957(18) 0.8181(8)
H49 H 1.307486 0.571241 0.843795
H50 H 1.278264 0.661621 0.819278
H51 H 1.324795 0.575237 0.797068
C59 C 0.8397(17) 0.3769(12) 0.7879(6)
H52 H 0.913839 0.375578 0.803588
H53 H 0.779798 0.382327 0.806997
C60 C 0.824(2) 0.2880(13) 0.7665(7)
H54 H 0.748125 0.287376 0.751919
H55 H 0.881747 0.282965 0.746610
C61 C 0.834(2) 0.2079(14) 0.7935(7)
H56 H 0.850747 0.154268 0.777977
H57 H 0.761839 0.199039 0.805942
H58 H 0.895092 0.217835 0.814193
C62 C 0.9436(17) 0.4234(15) 0.6615(7)
H59 H 0.892531 0.423838 0.636908
H60 H 0.938568 0.362879 0.673577
C63 C 1.072(2) 0.4380(19) 0.6492(8)
H61 H 1.091185 0.502900 0.649536
H62 H 1.126162 0.406402 0.668196
C64 C 1.080(3) 0.399(3) 0.6062(11)
H63 H 1.157791 0.404134 0.598354
H64 H 1.028381 0.432513 0.587449
H65 H 1.057158 0.335226 0.605967
I7? I 1.0951(14) 0.2912(12) 0.5333(5)
H66? H 0.403917 0.389615 0.477246
H67? H 0.356664 0.389484 0.431692
loop_
_geom_bond_atom_site_label_1
_geom_bond_atom_site_label_2
_geom_bond_site_symmetry_1
_geom_bond_site_symmetry_2
I1 C8 1_555 1_555
I2 C16 1_555 1_555
I3 C22 1_555 1_555
C1 C4 1_555 1_555
C2 C4 1_555 1_555
C3 C4 1_555 1_555
C4 C5 1_555 1_555
C5 H1 1_555 1_555
H2 C5 1_555 1_555
H3 C5 1_555 1_555
C6 C1 1_555 1_555
C7 C2 1_555 1_555
C8 C9 1_555 1_555
C9 C7 1_555 1_555
H4 C9 1_555 1_555
C10 C6 1_555 1_555
H5 C10 1_555 1_555
C11 C8 1_555 1_555
H6 C11 1_555 1_555
C12 C2 1_555 1_555
C13 C3 1_555 1_555
C14 C13 1_555 1_555
H7 C14 1_555 1_555
C15 C14 1_555 1_555
H8 C15 1_555 1_555
C16 C15 1_555 1_555
C17 C12 1_555 1_555
C18 C3 1_555 1_555
C19 C1 1_555 1_555
C20 C19 1_555 1_555
H9 C20 1_555 1_555
C21 C20 1_555 1_555
H10 C21 1_555 1_555
C22 C21 1_555 1_555
C23 C18 1_555 1_555
H11 C23 1_555 1_555
C24 C1 1_555 1_555
H12 C24 1_555 1_555
H13 C24 1_555 1_555
C25 C24 1_555 1_555
H14 C25 1_555 1_555
H15 C25 1_555 1_555
C26 C25 1_555 1_555
H16 C26 1_555 1_555
H17 C26 1_555 1_555
H18 C26 1_555 1_555
C27 C2 1_555 1_555
H19 C27 1_555 1_555
H20 C27 1_555 1_555
C28 C27 1_555 1_555
H21 C28 1_555 1_555
H22 C28 1_555 1_555
C29 C28 1_555 1_555
H23 C29 1_555 1_555
H24 C29 1_555 1_555
H25 C29 1_555 1_555
C30 C3 1_555 1_555
H26 C30 1_555 1_555
H27 C30 1_555 1_555
C31 C30 1_555 1_555
H28 C31 1_555 1_555
H29 C31 1_555 1_555
C32 C31 1_555 1_555
H30 C32 1_555 1_555
H31 C32 1_555 1_555
H32 C32 1_555 1_555
I4 C41 1_555 1_555
I5 C48 1_555 1_555
I6 C53 1_555 1_555
C33 C36 1_555 1_555
C34 C36 1_555 1_555
C35 C36 1_555 1_555
C36 C37 1_555 1_555
C37 H33 1_555 1_555
H34 C37 1_555 1_555
H35 C37 1_555 1_555
C38 C33 1_555 1_555
C39 C34 1_555 1_555
C40 C39 1_555 1_555
H36 C40 1_555 1_555
C41 C40 1_555 1_555
C42 C41 1_555 1_555
H37 C42 1_555 1_555
C43 C38 1_555 1_555
H38 C43 1_555 1_555
C44 C34 1_555 1_555
C45 C35 1_555 1_555
C46 C45 1_555 1_555
H39 C46 1_555 1_555
C47 C46 1_555 1_555
H40 C47 1_555 1_555
C48 C47 1_555 1_555
C49 C44 1_555 1_555
H41 C49 1_555 1_555
C50 C35 1_555 1_555
C51 C33 1_555 1_555
C52 C51 1_555 1_555
H42 C52 1_555 1_555
C53 C52 1_555 1_555
C54 C53 1_555 1_555
H43 C54 1_555 1_555
C55 C50 1_555 1_555
H44 C55 1_555 1_555
C56 C33 1_555 1_555
H45 C56 1_555 1_555
H46 C56 1_555 1_555
C57 C56 1_555 1_555
H47 C57 1_555 1_555
H48 C57 1_555 1_555
C58 C57 1_555 1_555
H49 C58 1_555 1_555
H50 C58 1_555 1_555
H51 C58 1_555 1_555
C59 C34 1_555 1_555
H52 C59 1_555 1_555
H53 C59 1_555 1_555
C60 C59 1_555 1_555
H54 C60 1_555 1_555
H55 C60 1_555 1_555
C61 C60 1_555 1_555
H56 C61 1_555 1_555
H57 C61 1_555 1_555
H58 C61 1_555 1_555
C62 C35 1_555 1_555
H59 C62 1_555 1_555
H60 C62 1_555 1_555
C63 C62 1_555 1_555
H61 C63 1_555 1_555
H62 C63 1_555 1_555
C64 C63 1_555 1_555
H63 C64 1_555 1_555
H64 C64 1_555 1_555
H65 C64 1_555 1_555
C6 C7 1_555 1_555
C10 C11 1_555 1_555
C12 C13 1_555 1_555
C16 C17 1_555 1_555
C18 C19 1_555 1_555
C22 C23 1_555 1_555
C38 C39 1_555 1_555
C42 C43 1_555 1_555
C44 C45 1_555 1_555
C48 C49 1_555 1_555
C50 C51 1_555 1_555
C54 C55 1_555 1_555

#END
