
#######################################################################
#
#                 Cambridge Crystallographic Data Centre
#                                CCDC 
#
#######################################################################
#
# If this CIF has been generated from an entry in the Cambridge 
# Structural Database, then it will include bibliographic, chemical, 
# crystal, experimental, refinement or atomic coordinate data resulting 
# from the CCDC's data processing and validation procedures.
#
#######################################################################

data_TIMTAM
_chemical_formula_moiety         'C32 H26 Cl1 N1 O7'
_chemical_name_systematic        
'Diethyl 1-(3-chloro-4-methylphenyl)-4-(4-hydroxy-2-oxo-2H-chromen-3-yl)-5-phenyl-1H-pyrrole-2,3-dicarboxylate'
_symmetry_cell_setting           monoclinic
_symmetry_space_group_name_H-M   'C 2/c'
_symmetry_Int_Tables_number      15
_space_group_name_Hall           '-C 2yn'
loop_
_symmetry_equiv_pos_site_id
_symmetry_equiv_pos_as_xyz
1 x,y,z
2 -x,y,1/2-z
3 1/2+x,1/2+y,z
4 1/2-x,1/2+y,1/2-z
5 -x,-y,-z
6 x,-y,1/2+z
7 1/2-x,1/2-y,-z
8 1/2+x,1/2-y,1/2+z
_cell_length_a                   29.861(3)
_cell_length_b                   10.2141(11)
_cell_length_c                   21.675(2)
_cell_angle_alpha                90
_cell_angle_beta                 117.4550(10)
_cell_angle_gamma                90
_cell_volume                     5866.38
_exptl_crystal_colour            colorless
_exptl_crystal_description       block
_cell_formula_units_Z            8
loop_
_atom_site_label
_atom_site_type_symbol
_atom_site_fract_x
_atom_site_fract_y
_atom_site_fract_z
N1 N 0.34759(5) 0.66584(15) 0.30361(8)
C1 C 0.33572(6) 0.69001(18) 0.35668(9)
C2 C 0.28422(6) 0.68292(18) 0.33040(9)
C3 C 0.26388(6) 0.65679(17) 0.25803(9)
C4 C 0.30347(6) 0.64695(17) 0.24257(9)
C5 C 0.39823(6) 0.6539(2) 0.31214(10)
C6 C 0.42647(8) 0.7633(3) 0.31988(14)
H1 H 0.4128 0.8461 0.3172
C7 C 0.47582(9) 0.7489(4) 0.33182(16)
C8 C 0.49789(8) 0.6310(4) 0.33626(13)
C9 C 0.46795(10) 0.5230(3) 0.32718(13)
H2 H 0.4816 0.4403 0.3292
C10 C 0.41824(8) 0.5328(2) 0.31510(11)
H3 H 0.3989 0.4580 0.3091
C11 C 0.30190(6) 0.62878(18) 0.17430(9)
C12 C 0.32330(8) 0.7173(2) 0.14754(11)
H4 H 0.3409 0.7890 0.1741
C13 C 0.31893(9) 0.7006(3) 0.08194(13)
H5 H 0.3336 0.7612 0.0647
C14 C 0.29332(9) 0.5965(3) 0.04205(13)
H6 H 0.2909 0.5853 -0.0020
C15 C 0.27135(10) 0.5090(3) 0.06694(13)
H7 H 0.2536 0.4382 0.0397
C16 C 0.27531(8) 0.5249(2) 0.13272(11)
H8 H 0.2599 0.4649 0.1491
C17 C 0.21003(6) 0.65196(17) 0.20633(9)
C18 C 0.18765(6) 0.75143(18) 0.16126(9)
C19 C 0.13436(6) 0.74643(19) 0.11294(9)
C20 C 0.10886(8) 0.8452(2) 0.06538(10)
H9 H 0.1265 0.9176 0.0619
C21 C 0.05762(9) 0.8358(3) 0.02347(12)
H10 H 0.0406 0.9024 -0.0079
C22 C 0.03157(8) 0.7280(3) 0.02787(13)
H11 H -0.0030 0.7222 -0.0011
C23 C 0.05568(7) 0.6290(3) 0.07423(12)
H12 H 0.0379 0.5566 0.0772
C24 C 0.10719(6) 0.6400(2) 0.11645(10)
C25 C 0.18084(6) 0.54154(19) 0.20815(10)
C26 C 0.25787(7) 0.6849(2) 0.37333(11)
C27 C 0.17649(9) 0.6858(3) 0.36775(14)
H13 H 0.1870 0.7449 0.4070
H14 H 0.1786 0.5967 0.3844
C28 C 0.12488(11) 0.7157(6) 0.3154(2)
H15 H 0.1024 0.7067 0.3356
H16 H 0.1150 0.6562 0.2770
H17 H 0.1234 0.8039 0.2992
C29 C 0.37472(7) 0.7221(2) 0.42790(10)
C30 C 0.39494(11) 0.8687(3) 0.52103(12)
H18 H 0.4299 0.8745 0.5305
H19 H 0.3923 0.8033 0.5517
C31 C 0.37730(13) 0.9972(3) 0.53284(16)
H20 H 0.3977 1.0235 0.5802
H21 H 0.3427 0.9902 0.5236
H22 H 0.3801 1.0611 0.5023
C32 C 0.55275(9) 0.6163(5) 0.35144(16)
H23 H 0.5677 0.7014 0.3564
H24 H 0.5543 0.5706 0.3138
H25 H 0.5708 0.5677 0.3937
O1 O 0.27747(6) 0.67084(19) 0.43505(8)
O2 O 0.20826(5) 0.70204(15) 0.33406(7)
O3 O 0.41205(5) 0.66006(17) 0.46123(8)
O4 O 0.36351(6) 0.83260(15) 0.44921(7)
O5 O 0.19611(5) 0.44753(13) 0.24640(8)
O6 O 0.21066(5) 0.86038(14) 0.15742(8)
H26 H 0.2410(5) 0.870(2) 0.1912(9)
O7 O 0.12995(4) 0.54031(13) 0.16299(7)
Cl1 Cl 0.50680(8) 0.8922(3) 0.33003(15)
H27? H 0.4949 0.8240 0.3371
Cl2? Cl 0.49117(7) 0.3641(2) 0.32563(12)
loop_
_geom_bond_atom_site_label_1
_geom_bond_atom_site_label_2
_geom_bond_site_symmetry_1
_geom_bond_site_symmetry_2
N1 C1 1_555 1_555
C1 C2 1_555 1_555
C2 C3 1_555 1_555
C3 C4 1_555 1_555
C4 N1 1_555 1_555
C5 N1 1_555 1_555
C6 C5 1_555 1_555
H1 C6 1_555 1_555
C7 C6 1_555 1_555
C8 C7 1_555 1_555
C9 C8 1_555 1_555
H2 C9 1_555 1_555
C10 C5 1_555 1_555
H3 C10 1_555 1_555
C11 C4 1_555 1_555
C12 C11 1_555 1_555
H4 C12 1_555 1_555
C13 C12 1_555 1_555
H5 C13 1_555 1_555
C14 C13 1_555 1_555
H6 C14 1_555 1_555
C15 C14 1_555 1_555
H7 C15 1_555 1_555
C16 C11 1_555 1_555
H8 C16 1_555 1_555
C17 C3 1_555 1_555
C18 C17 1_555 1_555
C19 C18 1_555 1_555
C20 C19 1_555 1_555
H9 C20 1_555 1_555
C21 C20 1_555 1_555
H10 C21 1_555 1_555
C22 C21 1_555 1_555
H11 C22 1_555 1_555
C23 C22 1_555 1_555
H12 C23 1_555 1_555
C24 C19 1_555 1_555
C25 C17 1_555 1_555
C26 C2 1_555 1_555
C27 H13 1_555 1_555
H14 C27 1_555 1_555
C28 C27 1_555 1_555
H15 C28 1_555 1_555
H16 C28 1_555 1_555
H17 C28 1_555 1_555
C29 C1 1_555 1_555
C30 H18 1_555 1_555
H19 C30 1_555 1_555
C31 C30 1_555 1_555
H20 C31 1_555 1_555
H21 C31 1_555 1_555
H22 C31 1_555 1_555
C32 C8 1_555 1_555
H23 C32 1_555 1_555
H24 C32 1_555 1_555
H25 C32 1_555 1_555
O1 C26 1_555 1_555
O2 C26 1_555 1_555
O3 C29 1_555 1_555
O4 C29 1_555 1_555
O5 C25 1_555 1_555
O6 C18 1_555 1_555
H26 O6 1_555 1_555
O7 C24 1_555 1_555
Cl1 C7 1_555 1_555
C9 C10 1_555 1_555
C15 C16 1_555 1_555
C23 C24 1_555 1_555
C25 O7 1_555 1_555
C27 O2 1_555 1_555
C30 O4 1_555 1_555

#END
