
#######################################################################
#
#                 Cambridge Crystallographic Data Centre
#                                CCDC 
#
#######################################################################
#
# If this CIF has been generated from an entry in the Cambridge 
# Structural Database, then it will include bibliographic, chemical, 
# crystal, experimental, refinement or atomic coordinate data resulting 
# from the CCDC's data processing and validation procedures.
#
#######################################################################

data_TIMTAN
_chemical_formula_moiety         'C35 H42 O3'
_chemical_name_systematic        
2,6,10-trimethoxy-12d-methyl-4b,8b,12b-tripropyl-4b,8b,12b,12d-tetrahydrodibenzo[2,3:4,5]pentaleno[1,6-ab]indene
_symmetry_cell_setting           triclinic
_symmetry_space_group_name_H-M   'P -1'
_symmetry_Int_Tables_number      2
_space_group_name_Hall           '-P 1'
loop_
_symmetry_equiv_pos_site_id
_symmetry_equiv_pos_as_xyz
1 x,y,z
2 -x,-y,-z
_cell_length_a                   11.3669(7)
_cell_length_b                   17.4652(11)
_cell_length_c                   31.083(2)
_cell_angle_alpha                102.7652(16)
_cell_angle_beta                 98.9594(16)
_cell_angle_gamma                101.9926(16)
_cell_volume                     5753.88
_exptl_crystal_colour            colorless
_exptl_crystal_description       'plate brick'
_cell_formula_units_Z            8
loop_
_atom_site_label
_atom_site_type_symbol
_atom_site_fract_x
_atom_site_fract_y
_atom_site_fract_z
C1 C 0.2461(6) 0.4545(4) 0.9064(2)
C2 C 0.0162(6) 0.4367(4) 0.8752(2)
C3 C 0.1622(5) 0.5784(3) 0.90271(18)
C4 C 0.1301(6) 0.4916(4) 0.91323(19)
C5 C 0.1087(6) 0.4987(4) 0.9619(2)
H1 H 0.043100 0.526320 0.966245
H2 H 0.184783 0.529916 0.983600
H3 H 0.084877 0.444353 0.966485
C6 C 0.1960(6) 0.3845(4) 0.8649(2)
C7 C 0.0735(6) 0.3742(3) 0.8485(2)
C8 C 0.0073(7) 0.3133(4) 0.8099(2)
H4 H -0.078420 0.305741 0.799241
C9 C 0.0750(8) 0.2637(4) 0.7875(2)
C10 C 0.1992(8) 0.2740(4) 0.8038(3)
H5 H 0.242951 0.240025 0.788284
C11 C 0.2592(7) 0.3337(4) 0.8426(2)
H6 H 0.344137 0.340219 0.854165
O1 O 0.0007(6) 0.2056(3) 0.74945(18)
C12 C 0.0578(12) 0.1566(5) 0.7208(3)
H7 H -0.003659 0.122592 0.694027
H8 H 0.093452 0.121956 0.737081
H9 H 0.122939 0.191463 0.711466
C13 C -0.0137(6) 0.4934(3) 0.84647(18)
C14 C 0.0689(5) 0.5689(3) 0.86032(18)
C15 C 0.0606(6) 0.6259(4) 0.83633(19)
H10 H 0.116860 0.677945 0.846320
C16 C -0.0307(6) 0.6068(4) 0.79738(19)
C17 C -0.1138(6) 0.5313(4) 0.7834(2)
H11 H -0.176885 0.518362 0.757132
C18 C -0.1047(6) 0.4750(4) 0.8078(2)
H12 H -0.161233 0.423081 0.797965
O2 O -0.0335(4) 0.6674(3) 0.77610(15)
C19 C -0.1082(8) 0.6471(5) 0.7321(2)
H13 H -0.098675 0.695276 0.720397
H14 H -0.194578 0.627522 0.733333
H15 H -0.082964 0.604541 0.712112
C20 C 0.2933(6) 0.5877(4) 0.89412(18)
C21 C 0.3362(6) 0.5203(4) 0.89602(19)
C22 C 0.4543(6) 0.5176(4) 0.8885(2)
H16 H 0.484019 0.470923 0.889677
C23 C 0.5262(6) 0.5831(4) 0.8793(2)
C24 C 0.4856(6) 0.6511(4) 0.87747(19)
H17 H 0.536044 0.696149 0.871177
C25 C 0.3676(6) 0.6525(4) 0.88515(19)
H18 H 0.338349 0.699389 0.884140
O3 O 0.6402(4) 0.5734(3) 0.87247(16)
C26 C 0.7229(6) 0.6389(4) 0.8649(3)
H19 H 0.799129 0.623522 0.860321
H20 H 0.741511 0.685971 0.891028
H21 H 0.685658 0.652794 0.837929
C27 C 0.3152(6) 0.4297(4) 0.9492(3)
H22 H 0.396781 0.423198 0.944023
H23 H 0.329423 0.474962 0.976528
C28 C 0.2489(7) 0.3550(4) 0.9581(2)
H24 H 0.265764 0.307038 0.938792
H25 H 0.159193 0.349972 0.951477
C29 C 0.2938(8) 0.3599(5) 1.0083(2)
H26 H 0.257594 0.308454 1.014424
H27 H 0.268714 0.403979 1.027129
H28 H 0.383734 0.370480 1.015240
C30 C -0.0974(6) 0.3914(4) 0.8895(2)
H29 H -0.145314 0.346633 0.863191
H30 H -0.067133 0.366395 0.913261
C31 C -0.1852(6) 0.4388(4) 0.9069(2)
H31 H -0.215909 0.465339 0.884002
H32 H -0.140922 0.481700 0.934624
C32 C -0.2950(6) 0.3830(4) 0.9174(2)
H33 H -0.345543 0.415901 0.931668
H34 H -0.264409 0.352894 0.937997
H35 H -0.344781 0.344714 0.889355
C33 C 0.1616(6) 0.6533(4) 0.94047(19)
H36 H 0.205958 0.648326 0.969371
H37 H 0.209579 0.702252 0.934167
C34 C 0.0374(6) 0.6676(4) 0.9471(2)
H38 H -0.019443 0.615517 0.945918
H39 H 0.001966 0.688698 0.922397
C35 C 0.0498(7) 0.7281(4) 0.9924(2)
H40 H -0.031124 0.736739 0.995689
H41 H 0.105924 0.779740 0.993628
H42 H 0.082682 0.706536 1.016985
C36 C 0.6867(6) 0.9335(4) 0.8951(2)
C37 C 0.4615(6) 0.9229(4) 0.8644(2)
C38 C 0.6147(6) 1.0632(3) 0.89891(18)
C39 C 0.5752(6) 0.9724(4) 0.9044(2)
C40 C 0.5487(7) 0.9705(5) 0.9511(2)
H43 H 0.472544 0.987227 0.954017
H44 H 0.617066 1.007810 0.974508
H45 H 0.539645 0.915383 0.954697
C41 C 0.6328(7) 0.8694(3) 0.8510(2)
C42 C 0.5105(7) 0.8601(4) 0.8355(2)
C43 C 0.4465(7) 0.8016(4) 0.7960(2)
H46 H 0.360801 0.794849 0.785896
C44 C 0.5093(7) 0.7531(4) 0.7715(2)
C45 C 0.6320(7) 0.7631(4) 0.7861(2)
H47 H 0.674521 0.730686 0.768785
C46 C 0.6961(7) 0.8200(4) 0.8260(2)
H48 H 0.781459 0.825717 0.836368
O4 O 0.4384(5) 0.6985(3) 0.73233(16)
C47 C 0.4995(8) 0.6468(5) 0.7071(3)
H49 H 0.439073 0.606230 0.682219
H50 H 0.540955 0.619420 0.726777
H51 H 0.560358 0.679250 0.694786
C48 C 0.4397(6) 0.9848(3) 0.8386(2)
C49 C 0.5241(6) 1.0601(3) 0.85643(18)
C50 C 0.5212(6) 1.1212(3) 0.83484(19)
H52 H 0.577708 1.172908 0.846994
C51 C 0.4349(6) 1.1060(3) 0.79526(19)
C52 C 0.3507(6) 1.0319(4) 0.7773(2)
H53 H 0.291502 1.022685 0.750299
C53 C 0.3537(6) 0.9714(4) 0.7992(2)
H54 H 0.296197 0.920048 0.787173
O5 O 0.4364(4) 1.1698(3) 0.77587(14)
C54 C 0.4085(9) 1.1514(5) 0.7286(2)
H55 H 0.429555 1.201390 0.718974
H56 H 0.320383 1.125726 0.717451
H57 H 0.455981 1.114148 0.716322
C55 C 0.7441(6) 1.0732(4) 0.89125(18)
C56 C 0.7824(6) 1.0025(4) 0.88930(18)
C57 C 0.8996(6) 1.0004(4) 0.8817(2)
H58 H 0.926540 0.952103 0.880001
C58 C 0.9768(6) 1.0694(4) 0.8766(2)
C59 C 0.9396(6) 1.1401(4) 0.8785(2)
H59 H 0.992577 1.186866 0.874795
C60 C 0.8225(6) 1.1413(4) 0.8861(2)
H60 H 0.795809 1.189709 0.887856
O6 O 1.0899(4) 1.0597(3) 0.86920(16)
C61 C 1.1720(7) 1.1260(5) 0.8628(3)
H61 H 1.246140 1.110091 0.855938
H62 H 1.194478 1.170663 0.890336
H63 H 1.132750 1.143643 0.837637
C62 C 0.7386(6) 0.8915(4) 0.9299(2)
H64 H 0.668150 0.856737 0.937321
H65 H 0.785382 0.855289 0.915213
C63 C 0.8194(7) 0.9443(4) 0.9729(2)
H66 H 0.776936 0.984283 0.986839
H67 H 0.895630 0.974508 0.966508
C64 C 0.8528(10) 0.8960(6) 1.0059(3)
H68 H 0.884774 0.932657 1.036272
H69 H 0.915783 0.869006 0.996787
H70 H 0.779404 0.855158 1.006120
C65 C 0.3429(6) 0.8786(4) 0.8767(2)
H71 H 0.294823 0.835461 0.849607
H72 H 0.368081 0.851504 0.900133
C66 C 0.2575(7) 0.9294(4) 0.8937(3)
H73 H 0.220575 0.950189 0.869018
H74 H 0.305486 0.976588 0.918731
C67 C 0.1556(7) 0.8794(5) 0.9100(3)
H75 H 0.103486 0.913705 0.921685
H76 H 0.192187 0.858048 0.934057
H77 H 0.105647 0.834189 0.884837
C68 C 0.6135(6) 1.1354(4) 0.9388(2)
H78 H 0.658771 1.128052 0.966848
H79 H 0.660599 1.185925 0.933763
C69 C 0.4897(7) 1.1483(4) 0.9469(2)
H80 H 0.442449 1.155801 0.919278
H81 H 0.442268 1.099475 0.953541
C70 C 0.5049(7) 1.2215(4) 0.9859(3)
H82 H 0.424087 1.224679 0.992356
H83 H 0.542447 1.270763 0.977838
H84 H 0.557854 1.216500 1.012628
C71 C -0.2108(6) 0.3330(4) 0.6334(2)
C72 C -0.1134(5) 0.4499(4) 0.60162(19)
C73 C -0.3410(5) 0.4222(4) 0.6051(2)
C74 C -0.2348(6) 0.3781(4) 0.5946(2)
C75 C -0.2697(6) 0.3208(4) 0.5468(2)
H85 H -0.275505 0.352447 0.524569
H86 H -0.349292 0.282412 0.543004
H87 H -0.206638 0.290827 0.542503
C76 C -0.0824(5) 0.3784(4) 0.6594(2)
C77 C -0.0316(5) 0.4438(4) 0.64352(18)
C78 C 0.0821(5) 0.4955(4) 0.66603(19)
H88 H 0.117445 0.539923 0.655260
C79 C 0.1432(5) 0.4810(4) 0.70461(19)
C80 C 0.0927(6) 0.4155(4) 0.7205(2)
H89 H 0.135299 0.406595 0.747022
C81 C -0.0188(6) 0.3640(4) 0.6976(2)
H90 H -0.052599 0.318567 0.707823
O7 O 0.2555(4) 0.5340(3) 0.72484(14)
C82 C 0.3018(7) 0.5400(5) 0.7702(2)
H91 H 0.373690 0.586405 0.782026
H92 H 0.325808 0.490163 0.772707
H93 H 0.238215 0.547525 0.787543
C83 C -0.1585(5) 0.5264(4) 0.60977(19)
C84 C -0.2833(5) 0.5108(4) 0.61031(19)
C85 C -0.3411(6) 0.5747(4) 0.6171(2)
H94 H -0.426065 0.564193 0.617911
C86 C -0.2732(6) 0.6537(4) 0.6226(2)
C87 C -0.1487(6) 0.6696(4) 0.6217(2)
H95 H -0.102654 0.723503 0.625407
C88 C -0.0929(6) 0.6065(4) 0.6154(2)
H96 H -0.007827 0.617525 0.614828
O8 O -0.3390(4) 0.7118(3) 0.62866(15)
C89 C -0.2781(7) 0.7931(4) 0.6339(3)
H97 H -0.335565 0.827332 0.638706
H98 H -0.247351 0.798142 0.606592
H99 H -0.208848 0.810509 0.659906
C90 C -0.3610(6) 0.4056(4) 0.6499(2)
C91 C -0.2976(6) 0.3549(4) 0.6642(2)
C92 C -0.3109(6) 0.3319(4) 0.7036(2)
H100 H -0.267611 0.295207 0.712681
C93 C -0.3884(7) 0.3631(4) 0.7297(2)
C94 C -0.4482(6) 0.4156(4) 0.7163(2)
H101 H -0.497969 0.438281 0.734847
C95 C -0.4396(6) 0.4380(4) 0.6762(2)
H102 H -0.484780 0.473664 0.666879
O9 O -0.3920(5) 0.3391(3) 0.76876(16)
C96 C -0.4726(8) 0.3696(5) 0.7955(3)
H103 H -0.478305 0.342557 0.819892
H104 H -0.554601 0.358864 0.776492
H105 H -0.440030 0.428173 0.808525
C97 C -0.2339(6) 0.2395(4) 0.6201(2)
H106 H -0.244132 0.220194 0.647260
H107 H -0.312838 0.216693 0.597799
C98 C -0.1355(6) 0.2045(4) 0.6004(3)
H108 H -0.121829 0.224166 0.573563
H109 H -0.057016 0.222933 0.622986
C99 C -0.1765(7) 0.1121(4) 0.5869(3)
H110 H -0.114617 0.090092 0.573110
H111 H -0.255459 0.094171 0.565211
H112 H -0.185674 0.092778 0.613790
C100 C -0.0443(6) 0.4494(5) 0.5621(2)
H113 H -0.106101 0.440390 0.534089
H114 H 0.010821 0.504128 0.567758
C101 C 0.0322(7) 0.3880(5) 0.5533(2)
H115 H 0.102923 0.401099 0.579010
H116 H -0.018577 0.333119 0.550816
C102 C 0.0791(8) 0.3882(5) 0.5102(3)
H117 H 0.130300 0.349599 0.505794
H118 H 0.128057 0.442747 0.512361
H119 H 0.009052 0.372522 0.484472
C103 C -0.4668(6) 0.3899(4) 0.5717(2)
H120 H -0.487973 0.329935 0.564052
H121 H -0.529852 0.408054 0.587141
C104 C -0.4741(7) 0.4149(5) 0.5296(3)
H122 H -0.399464 0.410273 0.517615
H123 H -0.477899 0.472281 0.535596
C105 C -0.5903(10) 0.3607(8) 0.4940(3)
H124 H -0.578521 0.362824 0.463711
H125 H -0.662385 0.380679 0.499729
H126 H -0.603139 0.304618 0.496275
C106 C 0.2717(6) 0.8467(4) 0.6251(2)
C107 C 0.3849(5) 0.9598(4) 0.59607(19)
C108 C 0.1546(5) 0.9399(4) 0.5938(2)
C109 C 0.2596(5) 0.8918(4) 0.5864(2)
C110 C 0.2306(6) 0.8350(5) 0.5387(2)
H127 H 0.213615 0.865358 0.516430
H128 H 0.158429 0.790502 0.535327
H129 H 0.301329 0.812794 0.533825
C111 C 0.4003(5) 0.8886(4) 0.65412(19)
C112 C 0.4609(5) 0.9511(4) 0.63915(19)
C113 C 0.5760(5) 0.9983(4) 0.6624(2)
H130 H 0.617617 1.040750 0.651563
C114 C 0.6302(5) 0.9831(4) 0.7018(2)
C115 C 0.5700(6) 0.9211(4) 0.7173(2)
H131 H 0.607044 0.910836 0.744311
C116 C 0.4561(6) 0.8741(4) 0.6935(2)
H132 H 0.415033 0.831187 0.704127
O10 O 0.7462(4) 1.0324(3) 0.72240(15)
C117 C 0.7820(7) 1.0489(6) 0.7689(2)
H133 H 0.859048 1.091488 0.779471
H134 H 0.794408 0.999605 0.777084
H135 H 0.717876 1.067111 0.783042
C118 C 0.3474(5) 1.0396(4) 0.60483(19)
C119 C 0.2226(5) 1.0279(4) 0.6044(2)
C120 C 0.1713(6) 1.0945(4) 0.6127(2)
H136 H 0.085844 1.086379 0.612364
C121 C 0.2443(6) 1.1710(4) 0.6214(2)
C122 C 0.3693(6) 1.1839(4) 0.6215(2)
H137 H 0.419505 1.237198 0.626894
C123 C 0.4194(6) 1.1171(4) 0.6137(2)
H138 H 0.505047 1.125378 0.614440
O11 O 0.1836(4) 1.2318(3) 0.62940(16)
C124 C 0.2516(7) 1.3133(5) 0.6367(3)
H139 H 0.197473 1.349742 0.642027
H140 H 0.284965 1.319106 0.609991
H141 H 0.319423 1.327165 0.662994
C125 C 0.1140(6) 0.9212(4) 0.6349(2)
C126 C 0.1743(6) 0.8705(4) 0.6521(2)
C127 C 0.1522(7) 0.8456(4) 0.6903(2)
H142 H 0.193639 0.809377 0.701129
C128 C 0.0659(7) 0.8763(5) 0.7123(3)
C129 C 0.0057(8) 0.9282(5) 0.6959(3)
H143 H -0.051814 0.948960 0.711097
C130 C 0.0287(6) 0.9500(4) 0.6573(3)
H144 H -0.014138 0.985031 0.645923
O12 O 0.0522(6) 0.8489(3) 0.7501(2)
C131 C -0.0255(10) 0.8788(7) 0.7775(3)
H145 H -0.021191 0.856667 0.803914
H146 H -0.110397 0.862354 0.760142
H147 H 0.001522 0.938173 0.787529
C132 C 0.2468(6) 0.7529(4) 0.6125(3)
H148 H 0.229984 0.734365 0.639286
H149 H 0.170766 0.730521 0.588649
C133 C 0.3480(7) 0.7153(4) 0.5958(3)
H150 H 0.367444 0.733617 0.569199
H151 H 0.423632 0.733974 0.619864
C134 C 0.3057(7) 0.6221(4) 0.5831(3)
H152 H 0.372882 0.599266 0.574214
H153 H 0.234324 0.603493 0.557797
H154 H 0.283124 0.604145 0.609062
C135 C 0.4606(6) 0.9555(5) 0.5582(2)
H155 H 0.402818 0.945657 0.529077
H156 H 0.518007 1.009424 0.563724
C136 C 0.5352(7) 0.8921(5) 0.5529(2)
H157 H 0.605192 0.907556 0.579081
H158 H 0.482750 0.839003 0.552533
C137 C 0.5836(7) 0.8843(5) 0.5099(3)
H159 H 0.627373 0.841262 0.506740
H160 H 0.640207 0.935806 0.511100
H161 H 0.514749 0.870874 0.483994
C138 C 0.0428(6) 0.9231(4) 0.5501(3)
H162 H 0.002318 0.968392 0.554718
H163 H 0.078384 0.922972 0.523008
C139 C -0.0498(7) 0.8473(5) 0.5418(3)
H164 H -0.108326 0.853295 0.562031
H165 H -0.010710 0.803556 0.546970
C140 C -0.1176(7) 0.8271(6) 0.4916(3)
H166 H -0.193108 0.784084 0.486160
H167 H -0.063941 0.808838 0.471933
H168 H -0.138471 0.875736 0.485252
loop_
_geom_bond_atom_site_label_1
_geom_bond_atom_site_label_2
_geom_bond_site_symmetry_1
_geom_bond_site_symmetry_2
C1 C4 1_555 1_555
C2 C4 1_555 1_555
C3 C4 1_555 1_555
C4 C5 1_555 1_555
C5 H1 1_555 1_555
H2 C5 1_555 1_555
H3 C5 1_555 1_555
C6 C1 1_555 1_555
C7 C2 1_555 1_555
C8 C7 1_555 1_555
H4 C8 1_555 1_555
C9 C8 1_555 1_555
C10 C9 1_555 1_555
H5 C10 1_555 1_555
C11 C6 1_555 1_555
H6 C11 1_555 1_555
O1 C9 1_555 1_555
C12 O1 1_555 1_555
H7 C12 1_555 1_555
H8 C12 1_555 1_555
H9 C12 1_555 1_555
C13 C2 1_555 1_555
C14 C3 1_555 1_555
C15 C14 1_555 1_555
H10 C15 1_555 1_555
C16 C15 1_555 1_555
C17 C16 1_555 1_555
H11 C17 1_555 1_555
C18 C13 1_555 1_555
H12 C18 1_555 1_555
O2 C16 1_555 1_555
C19 O2 1_555 1_555
H13 C19 1_555 1_555
H14 C19 1_555 1_555
H15 C19 1_555 1_555
C20 C3 1_555 1_555
C21 C1 1_555 1_555
C22 C21 1_555 1_555
H16 C22 1_555 1_555
C23 C22 1_555 1_555
C24 C23 1_555 1_555
H17 C24 1_555 1_555
C25 C20 1_555 1_555
H18 C25 1_555 1_555
O3 C23 1_555 1_555
C26 O3 1_555 1_555
H19 C26 1_555 1_555
H20 C26 1_555 1_555
H21 C26 1_555 1_555
C27 C1 1_555 1_555
H22 C27 1_555 1_555
H23 C27 1_555 1_555
C28 C27 1_555 1_555
H24 C28 1_555 1_555
H25 C28 1_555 1_555
C29 C28 1_555 1_555
H26 C29 1_555 1_555
H27 C29 1_555 1_555
H28 C29 1_555 1_555
C30 C2 1_555 1_555
H29 C30 1_555 1_555
H30 C30 1_555 1_555
C31 C30 1_555 1_555
H31 C31 1_555 1_555
H32 C31 1_555 1_555
C32 C31 1_555 1_555
H33 C32 1_555 1_555
H34 C32 1_555 1_555
H35 C32 1_555 1_555
C33 C3 1_555 1_555
H36 C33 1_555 1_555
H37 C33 1_555 1_555
C34 C33 1_555 1_555
H38 C34 1_555 1_555
H39 C34 1_555 1_555
C35 C34 1_555 1_555
H40 C35 1_555 1_555
H41 C35 1_555 1_555
H42 C35 1_555 1_555
C36 C39 1_555 1_555
C37 C39 1_555 1_555
C38 C39 1_555 1_555
C39 C40 1_555 1_555
C40 H43 1_555 1_555
H44 C40 1_555 1_555
H45 C40 1_555 1_555
C41 C36 1_555 1_555
C42 C37 1_555 1_555
C43 C42 1_555 1_555
H46 C43 1_555 1_555
C44 C43 1_555 1_555
C45 C44 1_555 1_555
H47 C45 1_555 1_555
C46 C41 1_555 1_555
H48 C46 1_555 1_555
O4 C44 1_555 1_555
C47 O4 1_555 1_555
H49 C47 1_555 1_555
H50 C47 1_555 1_555
H51 C47 1_555 1_555
C48 C37 1_555 1_555
C49 C38 1_555 1_555
C50 C49 1_555 1_555
H52 C50 1_555 1_555
C51 C50 1_555 1_555
C52 C51 1_555 1_555
H53 C52 1_555 1_555
C53 C48 1_555 1_555
H54 C53 1_555 1_555
O5 C51 1_555 1_555
C54 O5 1_555 1_555
H55 C54 1_555 1_555
H56 C54 1_555 1_555
H57 C54 1_555 1_555
C55 C38 1_555 1_555
C56 C36 1_555 1_555
C57 C56 1_555 1_555
H58 C57 1_555 1_555
C58 C57 1_555 1_555
C59 C58 1_555 1_555
H59 C59 1_555 1_555
C60 C55 1_555 1_555
H60 C60 1_555 1_555
O6 C58 1_555 1_555
C61 O6 1_555 1_555
H61 C61 1_555 1_555
H62 C61 1_555 1_555
H63 C61 1_555 1_555
C62 C36 1_555 1_555
H64 C62 1_555 1_555
H65 C62 1_555 1_555
C63 C62 1_555 1_555
H66 C63 1_555 1_555
H67 C63 1_555 1_555
C64 C63 1_555 1_555
H68 C64 1_555 1_555
H69 C64 1_555 1_555
H70 C64 1_555 1_555
C65 C37 1_555 1_555
H71 C65 1_555 1_555
H72 C65 1_555 1_555
C66 C65 1_555 1_555
H73 C66 1_555 1_555
H74 C66 1_555 1_555
C67 C66 1_555 1_555
H75 C67 1_555 1_555
H76 C67 1_555 1_555
H77 C67 1_555 1_555
C68 C38 1_555 1_555
H78 C68 1_555 1_555
H79 C68 1_555 1_555
C69 C68 1_555 1_555
H80 C69 1_555 1_555
H81 C69 1_555 1_555
C70 C69 1_555 1_555
H82 C70 1_555 1_555
H83 C70 1_555 1_555
H84 C70 1_555 1_555
C71 C74 1_555 1_555
C72 C74 1_555 1_555
C73 C74 1_555 1_555
C74 C75 1_555 1_555
C75 H85 1_555 1_555
H86 C75 1_555 1_555
H87 C75 1_555 1_555
C76 C71 1_555 1_555
C77 C72 1_555 1_555
C78 C77 1_555 1_555
H88 C78 1_555 1_555
C79 C78 1_555 1_555
C80 C79 1_555 1_555
H89 C80 1_555 1_555
C81 C76 1_555 1_555
H90 C81 1_555 1_555
O7 C79 1_555 1_555
C82 O7 1_555 1_555
H91 C82 1_555 1_555
H92 C82 1_555 1_555
H93 C82 1_555 1_555
C83 C72 1_555 1_555
C84 C73 1_555 1_555
C85 C84 1_555 1_555
H94 C85 1_555 1_555
C86 C85 1_555 1_555
C87 C86 1_555 1_555
H95 C87 1_555 1_555
C88 C83 1_555 1_555
H96 C88 1_555 1_555
O8 C86 1_555 1_555
C89 O8 1_555 1_555
H97 C89 1_555 1_555
H98 C89 1_555 1_555
H99 C89 1_555 1_555
C90 C73 1_555 1_555
C91 C71 1_555 1_555
C92 C91 1_555 1_555
H100 C92 1_555 1_555
C93 C92 1_555 1_555
C94 C93 1_555 1_555
H101 C94 1_555 1_555
C95 C90 1_555 1_555
H102 C95 1_555 1_555
O9 C93 1_555 1_555
C96 O9 1_555 1_555
H103 C96 1_555 1_555
H104 C96 1_555 1_555
H105 C96 1_555 1_555
C97 C71 1_555 1_555
H106 C97 1_555 1_555
H107 C97 1_555 1_555
C98 C97 1_555 1_555
H108 C98 1_555 1_555
H109 C98 1_555 1_555
C99 C98 1_555 1_555
H110 C99 1_555 1_555
H111 C99 1_555 1_555
H112 C99 1_555 1_555
C100 C72 1_555 1_555
H113 C100 1_555 1_555
H114 C100 1_555 1_555
C101 C100 1_555 1_555
H115 C101 1_555 1_555
H116 C101 1_555 1_555
C102 C101 1_555 1_555
H117 C102 1_555 1_555
H118 C102 1_555 1_555
H119 C102 1_555 1_555
C103 C73 1_555 1_555
H120 C103 1_555 1_555
H121 C103 1_555 1_555
C104 C103 1_555 1_555
H122 C104 1_555 1_555
H123 C104 1_555 1_555
C105 C104 1_555 1_555
H124 C105 1_555 1_555
H125 C105 1_555 1_555
H126 C105 1_555 1_555
C106 C109 1_555 1_555
C107 C109 1_555 1_555
C108 C109 1_555 1_555
C109 C110 1_555 1_555
C110 H127 1_555 1_555
H128 C110 1_555 1_555
H129 C110 1_555 1_555
C111 C106 1_555 1_555
C112 C107 1_555 1_555
C113 C112 1_555 1_555
H130 C113 1_555 1_555
C114 C113 1_555 1_555
C115 C114 1_555 1_555
H131 C115 1_555 1_555
C116 C111 1_555 1_555
H132 C116 1_555 1_555
O10 C114 1_555 1_555
C117 O10 1_555 1_555
H133 C117 1_555 1_555
H134 C117 1_555 1_555
H135 C117 1_555 1_555
C118 C107 1_555 1_555
C119 C108 1_555 1_555
C120 C119 1_555 1_555
H136 C120 1_555 1_555
C121 C120 1_555 1_555
C122 C121 1_555 1_555
H137 C122 1_555 1_555
C123 C118 1_555 1_555
H138 C123 1_555 1_555
O11 C121 1_555 1_555
C124 O11 1_555 1_555
H139 C124 1_555 1_555
H140 C124 1_555 1_555
H141 C124 1_555 1_555
C125 C108 1_555 1_555
C126 C106 1_555 1_555
C127 C126 1_555 1_555
H142 C127 1_555 1_555
C128 C127 1_555 1_555
C129 C128 1_555 1_555
H143 C129 1_555 1_555
C130 C125 1_555 1_555
H144 C130 1_555 1_555
O12 C128 1_555 1_555
C131 O12 1_555 1_555
H145 C131 1_555 1_555
H146 C131 1_555 1_555
H147 C131 1_555 1_555
C132 C106 1_555 1_555
H148 C132 1_555 1_555
H149 C132 1_555 1_555
C133 C132 1_555 1_555
H150 C133 1_555 1_555
H151 C133 1_555 1_555
C134 C133 1_555 1_555
H152 C134 1_555 1_555
H153 C134 1_555 1_555
H154 C134 1_555 1_555
C135 C107 1_555 1_555
H155 C135 1_555 1_555
H156 C135 1_555 1_555
C136 C135 1_555 1_555
H157 C136 1_555 1_555
H158 C136 1_555 1_555
C137 C136 1_555 1_555
H159 C137 1_555 1_555
H160 C137 1_555 1_555
H161 C137 1_555 1_555
C138 C108 1_555 1_555
H162 C138 1_555 1_555
H163 C138 1_555 1_555
C139 C138 1_555 1_555
H164 C139 1_555 1_555
H165 C139 1_555 1_555
C140 C139 1_555 1_555
H166 C140 1_555 1_555
H167 C140 1_555 1_555
H168 C140 1_555 1_555
C6 C7 1_555 1_555
C10 C11 1_555 1_555
C13 C14 1_555 1_555
C17 C18 1_555 1_555
C20 C21 1_555 1_555
C24 C25 1_555 1_555
C41 C42 1_555 1_555
C45 C46 1_555 1_555
C48 C49 1_555 1_555
C52 C53 1_555 1_555
C55 C56 1_555 1_555
C59 C60 1_555 1_555
C76 C77 1_555 1_555
C80 C81 1_555 1_555
C83 C84 1_555 1_555
C87 C88 1_555 1_555
C90 C91 1_555 1_555
C94 C95 1_555 1_555
C111 C112 1_555 1_555
C115 C116 1_555 1_555
C118 C119 1_555 1_555
C122 C123 1_555 1_555
C125 C126 1_555 1_555
C129 C130 1_555 1_555

#END
