
#######################################################################
#
#                 Cambridge Crystallographic Data Centre
#                                CCDC 
#
#######################################################################
#
# If this CIF has been generated from an entry in the Cambridge 
# Structural Database, then it will include bibliographic, chemical, 
# crystal, experimental, refinement or atomic coordinate data resulting 
# from the CCDC's data processing and validation procedures.
#
#######################################################################

data_TIMXEU
_chemical_formula_moiety         'C24 H18 Br1 N1 O2'
_chemical_name_systematic        
5-(4-Bromophenyl)-2-phenyl-4a,5,6,10b-tetrahydro-4H-pyrano[3,4-c]quinolin-4-one
_symmetry_cell_setting           monoclinic
_symmetry_space_group_name_H-M   'P 21'
_symmetry_Int_Tables_number      4
_space_group_name_Hall           'P 2yb'
loop_
_symmetry_equiv_pos_site_id
_symmetry_equiv_pos_as_xyz
1 x,y,z
2 -x,1/2+y,-z
_cell_length_a                   5.2930(3)
_cell_length_b                   8.7810(6)
_cell_length_c                   20.7367(10)
_cell_angle_alpha                90
_cell_angle_beta                 91.303(5)
_cell_angle_gamma                90
_cell_volume                     963.548
_exptl_crystal_colour            'light colorless'
_exptl_crystal_description       block
_cell_formula_units_Z            2
loop_
_atom_site_label
_atom_site_type_symbol
_atom_site_fract_x
_atom_site_fract_y
_atom_site_fract_z
Br1 Br 0.05702(14) 0.43888(10) -0.02632(3)
O1 O 1.1822(7) 0.4986(4) 0.29322(18)
O2 O 0.9741(7) 0.3834(5) 0.36893(16)
N1 N 1.0431(8) 0.2667(6) 0.1850(2)
H1 H 1.1828 0.2783 0.1652
C1 C 0.7904(10) 0.1092(6) 0.2535(2)
C2 C 0.7401(11) -0.0345(7) 0.2769(3)
H2 H 0.6099 -0.0464 0.3058
C3 C 0.8748(15) -0.1598(8) 0.2591(3)
H3 H 0.8350 -0.2556 0.2751
C4 C 1.0725(14) -0.1417(8) 0.2166(4)
H4 H 1.1669 -0.2258 0.2044
C5 C 1.1286(12) -0.0008(7) 0.1928(3)
H5 H 1.2626 0.0108 0.1650
C6 C 0.9856(9) 0.1259(6) 0.2101(2)
C7 C 0.8742(9) 0.3959(6) 0.1911(2)
H6 H 0.9763 0.4882 0.1863
C8 C 0.7742(8) 0.3960(6) 0.2608(2)
H7 H 0.6503 0.4784 0.2641
C9 C 0.6422(9) 0.2475(6) 0.2765(2)
H8 H 0.4767 0.2473 0.2543
C10 C 0.6006(9) 0.2426(6) 0.3478(2)
H9 H 0.4591 0.1924 0.3630
C11 C 0.7580(10) 0.3071(6) 0.3895(2)
C12 C 0.7509(11) 0.3064(7) 0.4607(3)
C13 C 0.5808(14) 0.2127(11) 0.4921(3)
H10 H 0.4712 0.1506 0.4682
C14 C 0.5750(17) 0.2121(11) 0.5583(3)
H11 H 0.4574 0.1517 0.5790
C15 C 0.7374(16) 0.2979(10) 0.5937(3)
H12 H 0.7358 0.2927 0.6385
C16 C 0.9027(15) 0.3914(12) 0.5646(3)
H13 H 1.0102 0.4537 0.5890
C17 C 0.9094(13) 0.3929(10) 0.4976(3)
H14 H 1.0260 0.4551 0.4775
C18 C 0.9941(8) 0.4318(8) 0.3070(2)
C19 C 0.6648(9) 0.4024(6) 0.1402(2)
C20 C 0.5301(11) 0.5381(7) 0.1304(2)
H15 H 0.5627 0.6222 0.1566
C21 C 0.3471(12) 0.5461(8) 0.0813(3)
H16 H 0.2576 0.6361 0.0746
C22 C 0.2974(9) 0.4215(9) 0.0424(2)
C23 C 0.4274(11) 0.2885(8) 0.0518(3)
H17 H 0.3924 0.2045 0.0257
C24 C 0.6109(10) 0.2792(7) 0.1001(2)
H18 H 0.7001 0.1888 0.1059
loop_
_geom_bond_atom_site_label_1
_geom_bond_atom_site_label_2
_geom_bond_site_symmetry_1
_geom_bond_site_symmetry_2
Br1 C22 1_555 1_555
O1 C18 1_555 1_555
O2 C11 1_555 1_555
N1 H1 1_555 1_555
C1 C2 1_555 1_555
C2 H2 1_555 1_555
C3 C2 1_555 1_555
H3 C3 1_555 1_555
C4 C3 1_555 1_555
H4 C4 1_555 1_555
C5 C4 1_555 1_555
H5 C5 1_555 1_555
C6 N1 1_555 1_555
C7 N1 1_555 1_555
H6 C7 1_555 1_555
C8 C7 1_555 1_555
H7 C8 1_555 1_555
C9 C1 1_555 1_555
H8 C9 1_555 1_555
C10 C9 1_555 1_555
H9 C10 1_555 1_555
C11 C10 1_555 1_555
C12 C11 1_555 1_555
C13 C12 1_555 1_555
H10 C13 1_555 1_555
C14 C13 1_555 1_555
H11 C14 1_555 1_555
C15 C14 1_555 1_555
H12 C15 1_555 1_555
C16 C15 1_555 1_555
H13 C16 1_555 1_555
C17 C12 1_555 1_555
H14 C17 1_555 1_555
C18 O2 1_555 1_555
C19 C7 1_555 1_555
C20 C19 1_555 1_555
H15 C20 1_555 1_555
C21 C20 1_555 1_555
H16 C21 1_555 1_555
C22 C21 1_555 1_555
C23 C22 1_555 1_555
H17 C23 1_555 1_555
C24 C19 1_555 1_555
H18 C24 1_555 1_555
C1 C6 1_555 1_555
C5 C6 1_555 1_555
C8 C9 1_555 1_555
C8 C18 1_555 1_555
C16 C17 1_555 1_555
C23 C24 1_555 1_555

#END
