
#######################################################################
#
#                 Cambridge Crystallographic Data Centre
#                                CCDC 
#
#######################################################################
#
# If this CIF has been generated from an entry in the Cambridge 
# Structural Database, then it will include bibliographic, chemical, 
# crystal, experimental, refinement or atomic coordinate data resulting 
# from the CCDC's data processing and validation procedures.
#
#######################################################################

data_TIMXOF
_chemical_formula_moiety         'C19 H20 Cl1 N1 O7'
_chemical_name_systematic        
"diethyl (7-chloro-1-methyl-2,5'-dioxo-1,2-dihydrospiro[indole-3,3'-oxolan]-4'-yl)propanedioate"
_symmetry_cell_setting           monoclinic
_symmetry_space_group_name_H-M   'P 21/c'
_symmetry_Int_Tables_number      14
_space_group_name_Hall           '-P 2ybc'
loop_
_symmetry_equiv_pos_site_id
_symmetry_equiv_pos_as_xyz
1 x,y,z
2 -x,1/2+y,1/2-z
3 -x,-y,-z
4 x,1/2-y,1/2+z
_cell_length_a                   9.2903(4)
_cell_length_b                   23.6129(12)
_cell_length_c                   9.1943(5)
_cell_angle_alpha                90
_cell_angle_beta                 100.657(5)
_cell_angle_gamma                90
_cell_volume                     1982.17
_exptl_crystal_colour            colorless
_exptl_crystal_description       prism
_cell_formula_units_Z            4
loop_
_atom_site_label
_atom_site_type_symbol
_atom_site_fract_x
_atom_site_fract_y
_atom_site_fract_z
Cl1 Cl 1.08466(8) 0.38496(4) 0.67187(10)
O1 O 0.49193(15) 0.41989(7) 0.44833(17)
O2 O 0.44299(16) 0.50554(7) 0.17971(18)
O3 O 0.30909(16) 0.43750(8) 0.05369(18)
O4 O 0.4871(2) 0.36004(8) -0.11994(18)
O5 O 0.41529(19) 0.28747(7) 0.00585(18)
O6 O 0.7210(3) 0.30200(10) 0.3136(2)
O7 O 0.77915(19) 0.33183(9) 0.1015(2)
N1 N 0.74212(19) 0.41184(8) 0.51818(19)
C1 C 0.6157(2) 0.42635(9) 0.4251(2)
C2 C 0.65385(19) 0.45197(8) 0.2851(2)
C3 C 0.8185(2) 0.44844(8) 0.3142(2)
C4 C 0.9151(2) 0.46563(11) 0.2260(3)
H1 H 0.882185 0.482229 0.134116
C5 C 1.0638(3) 0.45727(12) 0.2793(3)
H2 H 1.131733 0.468668 0.222460
C6 C 1.1114(2) 0.43253(11) 0.4140(3)
H3 H 1.211182 0.427005 0.446947
C7 C 1.0134(2) 0.41552(10) 0.5025(3)
C8 C 0.8646(2) 0.42391(9) 0.4531(2)
C9 C 0.5914(2) 0.51241(9) 0.2615(2)
H4 H 0.591075 0.530819 0.355729
H5 H 0.649286 0.534980 0.205457
C10 C 0.4255(2) 0.45353(9) 0.1196(2)
C11 C 0.5705(2) 0.42249(8) 0.1449(2)
H6 H 0.620379 0.431566 0.062744
C12 C 0.5489(2) 0.35836(9) 0.1472(2)
H7 H 0.482051 0.349627 0.215077
C13 C 0.4806(2) 0.33720(9) -0.0067(2)
C14 C 0.2963(3) 0.20411(12) -0.0941(4)
H8 H 0.256284 0.183942 -0.183080
H9 H 0.220562 0.210657 -0.037748
H10 H 0.373139 0.182101 -0.036405
C15 C 0.3562(3) 0.25919(11) -0.1329(3)
H11 H 0.432628 0.253205 -0.190211
H12 H 0.279489 0.281955 -0.190916
C16 C 0.6920(3) 0.32684(9) 0.1990(3)
C17 C 0.9226(4) 0.30482(19) 0.1388(4)
H13 H 0.976476 0.320082 0.230909
H14 H 0.911281 0.264342 0.150791
C18 C 1.0007(4) 0.3158(3) 0.0199(5)
H15 H 0.948654 0.299185 -0.069839
H16 H 1.096998 0.299639 0.043735
H17 H 1.008478 0.355966 0.006742
C19 C 0.7378(3) 0.38337(14) 0.6582(3)
H18 H 0.638758 0.382440 0.674707
H19 H 0.798113 0.403563 0.737480
H20 H 0.773663 0.345362 0.654547
loop_
_geom_bond_atom_site_label_1
_geom_bond_atom_site_label_2
_geom_bond_site_symmetry_1
_geom_bond_site_symmetry_2
Cl1 C7 1_555 1_555
O1 C1 1_555 1_555
O2 C9 1_555 1_555
O3 C10 1_555 1_555
O4 C13 1_555 1_555
O5 C13 1_555 1_555
O6 C16 1_555 1_555
O7 C16 1_555 1_555
N1 C1 1_555 1_555
C1 C2 1_555 1_555
C2 C3 1_555 1_555
C3 C4 1_555 1_555
C4 H1 1_555 1_555
C5 C4 1_555 1_555
H2 C5 1_555 1_555
C6 C5 1_555 1_555
H3 C6 1_555 1_555
C7 C6 1_555 1_555
C8 N1 1_555 1_555
C9 C2 1_555 1_555
H4 C9 1_555 1_555
H5 C9 1_555 1_555
C10 O2 1_555 1_555
C11 C2 1_555 1_555
H6 C11 1_555 1_555
C12 C11 1_555 1_555
H7 C12 1_555 1_555
C13 C12 1_555 1_555
C14 H8 1_555 1_555
H9 C14 1_555 1_555
H10 C14 1_555 1_555
C15 O5 1_555 1_555
H11 C15 1_555 1_555
H12 C15 1_555 1_555
C16 C12 1_555 1_555
C17 O7 1_555 1_555
H13 C17 1_555 1_555
H14 C17 1_555 1_555
C18 C17 1_555 1_555
H15 C18 1_555 1_555
H16 C18 1_555 1_555
H17 C18 1_555 1_555
C19 N1 1_555 1_555
H18 C19 1_555 1_555
H19 C19 1_555 1_555
H20 C19 1_555 1_555
C3 C8 1_555 1_555
C7 C8 1_555 1_555
C10 C11 1_555 1_555
C14 C15 1_555 1_555

#END
