
#######################################################################
#
#                 Cambridge Crystallographic Data Centre
#                                CCDC 
#
#######################################################################
#
# If this CIF has been generated from an entry in the Cambridge 
# Structural Database, then it will include bibliographic, chemical, 
# crystal, experimental, refinement or atomic coordinate data resulting 
# from the CCDC's data processing and validation procedures.
#
#######################################################################

data_TIMYOF
_chemical_formula_moiety         'C20 H19 N3 O3'
_chemical_name_systematic        
2,5-Dimethyl-3-oxo-N,N'-diphenyl-2,3-dihydro-1H-pyrrole-2,4-dicarboxamide
_symmetry_cell_setting           triclinic
_symmetry_space_group_name_H-M   'P -1'
_symmetry_Int_Tables_number      2
_space_group_name_Hall           '-P 1'
loop_
_symmetry_equiv_pos_site_id
_symmetry_equiv_pos_as_xyz
1 x,y,z
2 -x,-y,-z
_cell_length_a                   8.050(5)
_cell_length_b                   9.761(7)
_cell_length_c                   11.482(7)
_cell_angle_alpha                76.232(11)
_cell_angle_beta                 86.614(12)
_cell_angle_gamma                78.203(12)
_cell_volume                     857.727
_cell_formula_units_Z            2
loop_
_atom_site_label
_atom_site_type_symbol
_atom_site_fract_x
_atom_site_fract_y
_atom_site_fract_z
N1 N 0.4292(3) 0.2893(3) 0.0566(2)
H1 H 0.3276 0.2785 0.0480
N2 N -0.1162(3) 0.2356(3) 0.3270(2)
H2 H -0.0981 0.2434 0.2513
N3 N 0.1205(3) 0.5045(3) 0.3349(2)
H3 H 0.0889 0.5492 0.3911
O1 O 0.5806(3) 0.3924(3) 0.1570(2)
O2 O 0.0835(3) 0.3106(2) 0.12232(18)
O3 O -0.0972(3) 0.3511(2) 0.47215(19)
C1 C 0.4992(4) 0.1521(3) -0.0898(3)
H4 H 0.3845 0.1504 -0.0935
C2 C 0.6157(5) 0.0801(4) -0.1587(3)
H5 H 0.5789 0.0289 -0.2075
C3 C 0.7809(5) 0.0832(4) -0.1561(3)
H6 H 0.8589 0.0341 -0.2023
C4 C 0.8336(5) 0.1594(4) -0.0847(3)
H7 H 0.9484 0.1619 -0.0834
C5 C 0.7222(4) 0.2322(4) -0.0148(3)
H8 H 0.7604 0.2846 0.0324
C6 C 0.5519(4) 0.2264(3) -0.0156(2)
C7 C 0.4462(4) 0.3648(3) 0.1380(2)
C8 C 0.2906(4) 0.4070(3) 0.2032(2)
C9 C 0.2775(4) 0.4828(3) 0.2919(2)
C10 C 0.4092(4) 0.5358(4) 0.3400(3)
H9 H 0.3608 0.5858 0.4003
H10 H 0.4568 0.6003 0.2765
H11 H 0.4968 0.4562 0.3748
C11 C 0.1305(4) 0.3767(3) 0.1899(2)
C12 C 0.0087(4) 0.4446(3) 0.2766(3)
C13 C -0.1295(4) 0.5609(3) 0.2076(3)
H12 H -0.2000 0.6082 0.2625
H13 H -0.1974 0.5181 0.1659
H14 H -0.0783 0.6299 0.1507
C14 C -0.0725(4) 0.3375(3) 0.3701(3)
C15 C -0.1873(4) 0.1167(3) 0.3852(3)
C16 C -0.2220(4) 0.0305(3) 0.3156(3)
H15 H -0.2072 0.0565 0.2328
C17 C -0.2785(5) -0.0935(4) 0.3666(3)
H16 H -0.3002 -0.1522 0.3186
C18 C -0.3030(5) -0.1314(4) 0.4880(3)
H17 H -0.3420 -0.2154 0.5231
C19 C -0.2698(4) -0.0453(4) 0.5562(3)
H18 H -0.2881 -0.0704 0.6386
C20 C -0.2098(4) 0.0784(3) 0.5073(3)
H19 H -0.1848 0.1351 0.5560
loop_
_geom_bond_atom_site_label_1
_geom_bond_atom_site_label_2
_geom_bond_site_symmetry_1
_geom_bond_site_symmetry_2
N1 H1 1_555 1_555
N2 H2 1_555 1_555
N3 H3 1_555 1_555
O1 C7 1_555 1_555
O2 C11 1_555 1_555
O3 C14 1_555 1_555
C1 H4 1_555 1_555
C2 C1 1_555 1_555
H5 C2 1_555 1_555
C3 C2 1_555 1_555
H6 C3 1_555 1_555
C4 C3 1_555 1_555
H7 C4 1_555 1_555
C5 C4 1_555 1_555
H8 C5 1_555 1_555
C6 N1 1_555 1_555
C7 N1 1_555 1_555
C8 C7 1_555 1_555
C9 N3 1_555 1_555
C10 C9 1_555 1_555
H9 C10 1_555 1_555
H10 C10 1_555 1_555
H11 C10 1_555 1_555
C11 C8 1_555 1_555
C12 N3 1_555 1_555
C13 C12 1_555 1_555
H12 C13 1_555 1_555
H13 C13 1_555 1_555
H14 C13 1_555 1_555
C14 N2 1_555 1_555
C15 N2 1_555 1_555
C16 C15 1_555 1_555
H15 C16 1_555 1_555
C17 C16 1_555 1_555
H16 C17 1_555 1_555
C18 C17 1_555 1_555
H17 C18 1_555 1_555
C19 C18 1_555 1_555
H18 C19 1_555 1_555
C20 C15 1_555 1_555
H19 C20 1_555 1_555
C1 C6 1_555 1_555
C5 C6 1_555 1_555
C8 C9 1_555 1_555
C11 C12 1_555 1_555
C12 C14 1_555 1_555
C19 C20 1_555 1_555

#END
