
#######################################################################
#
#                 Cambridge Crystallographic Data Centre
#                                CCDC 
#
#######################################################################
#
# If this CIF has been generated from an entry in the Cambridge 
# Structural Database, then it will include bibliographic, chemical, 
# crystal, experimental, refinement or atomic coordinate data resulting 
# from the CCDC's data processing and validation procedures.
#
#######################################################################

data_TINHIH
_chemical_formula_moiety         'C24 H20 F1 N3 O5 P2 S1'
_chemical_name_systematic        
1-Fluoro-3,3,5,5-tetrakis(phenoxy)-1-oxo-1,3,5,2,4,6-cyclothiadiphosphatriazene
_symmetry_cell_setting           triclinic
_symmetry_space_group_name_H-M   'P -1'
_symmetry_Int_Tables_number      2
_space_group_name_Hall           '-P 1'
loop_
_symmetry_equiv_pos_site_id
_symmetry_equiv_pos_as_xyz
1 x,y,z
2 -x,-y,-z
_cell_length_a                   9.789(3)
_cell_length_b                   11.393(4)
_cell_length_c                   12.079(5)
_cell_angle_alpha                107.40(3)
_cell_angle_beta                 91.23(3)
_cell_angle_gamma                93.18(3)
_cell_volume                     1282.48
_exptl_crystal_colour            colorless
_cell_formula_units_Z            2
loop_
_atom_site_label
_atom_site_type_symbol
_atom_site_fract_x
_atom_site_fract_y
_atom_site_fract_z
S1 S 0.2240(2) 0.1870(1) 0.2706(1)
P1 P 0.1131(1) 0.4077(1) 0.2878(1)
P2 P 0.2936(1) 0.3149(1) 0.1178(1)
N1 N 0.1292(5) 0.2875(4) 0.3268(4)
N2 N 0.2018(4) 0.4185(4) 0.1855(3)
N3 N 0.3098(5) 0.2056(4) 0.1736(4)
F1 F 0.1274(6) 0.0764(4) 0.2156(5)
O1 O 0.3050(7) 0.1566(7) 0.3525(5)
O2 O -0.0416(4) 0.4204(4) 0.2607(3)
O3 O 0.1431(4) 0.5148(3) 0.4013(3)
O4 O 0.2390(4) 0.2640(3) -0.0097(3)
O5 O 0.4393(3) 0.3698(4) 0.1017(3)
C1 C -0.1387(5) 0.2341(4) 0.1277(4)
C2 C -0.1995 0.1704 0.0193
C3 C -0.2228 0.2323 -0.0623
C4 C -0.1854 0.3579 -0.0356
C5 C -0.1246 0.4216 0.0728
C6 C -0.1013 0.3597 0.1545
C7 C 0.0269(4) 0.6961(5) 0.4134(4)
C8 C 0.0308 0.8195 0.4162
C9 C 0.1552 0.8815 0.4081
C10 C 0.2758 0.8201 0.3971
C11 C 0.2719 0.6966 0.3943
C12 C 0.1474 0.6346 0.4024
C13 C 0.1774(4) 0.1018(4) -0.1789(3)
C14 C 0.2107 0.0010 -0.2705
C15 C 0.3423 -0.0405 -0.2751
C16 C 0.4406 0.0187 -0.1882
C17 C 0.4073 0.1195 -0.0967
C18 C 0.2757 0.1611 -0.0920
C19 C 0.5352(4) 0.5733(4) 0.1874(4)
C20 C 0.6084 0.6611 0.2780
C21 C 0.6586 0.6285 0.3729
C22 C 0.6356 0.5080 0.3772
C23 C 0.5624 0.4202 0.2866
C24 C 0.5121 0.4528 0.1917
H1 H -0.1227 0.1915 0.1839
H2 H -0.2252 0.0840 0.0009
H3 H -0.2646 0.1885 -0.1369
H4 H -0.2015 0.4005 -0.0917
H5 H -0.0989 0.5080 0.0913
H6 H -0.0587 0.6534 0.4190
H7 H -0.0522 0.8618 0.4238
H8 H 0.1579 0.9665 0.4101
H9 H 0.3614 0.8627 0.3915
H10 H 0.3548 0.6543 0.3867
H11 H 0.0868 0.1304 -0.1757
H12 H 0.1430 -0.0398 -0.3303
H13 H 0.3653 -0.1099 -0.3381
H14 H 0.5313 -0.0099 -0.1914
H15 H 0.4750 0.1603 -0.0369
H16 H 0.5006 0.5958 0.1220
H17 H 0.6242 0.7440 0.2750
H18 H 0.7091 0.6890 0.4353
H19 H 0.6702 0.4856 0.4425
H20 H 0.5466 0.3373 0.2896
loop_
_geom_bond_atom_site_label_1
_geom_bond_atom_site_label_2
_geom_bond_site_symmetry_1
_geom_bond_site_symmetry_2
S1 N1 1_555 1_555
P1 N1 1_555 1_555
P2 N2 1_555 1_555
N2 P1 1_555 1_555
N3 S1 1_555 1_555
F1 S1 1_555 1_555
O1 S1 1_555 1_555
O2 P1 1_555 1_555
O3 P1 1_555 1_555
O4 P2 1_555 1_555
O5 P2 1_555 1_555
C1 C2 1_555 1_555
C2 C3 1_555 1_555
C3 C4 1_555 1_555
C4 C5 1_555 1_555
C5 C6 1_555 1_555
C6 O2 1_555 1_555
C7 C8 1_555 1_555
C8 C9 1_555 1_555
C9 C10 1_555 1_555
C10 C11 1_555 1_555
C11 C12 1_555 1_555
C12 O3 1_555 1_555
C13 C14 1_555 1_555
C14 C15 1_555 1_555
C15 C16 1_555 1_555
C16 C17 1_555 1_555
C17 C18 1_555 1_555
C18 O4 1_555 1_555
C19 C20 1_555 1_555
C20 C21 1_555 1_555
C21 C22 1_555 1_555
C22 C23 1_555 1_555
C23 C24 1_555 1_555
C24 O5 1_555 1_555
H1 C1 1_555 1_555
H2 C2 1_555 1_555
H3 C3 1_555 1_555
H4 C4 1_555 1_555
H5 C5 1_555 1_555
H6 C7 1_555 1_555
H7 C8 1_555 1_555
H8 C9 1_555 1_555
H9 C10 1_555 1_555
H10 C11 1_555 1_555
H11 C13 1_555 1_555
H12 C14 1_555 1_555
H13 C15 1_555 1_555
H14 C16 1_555 1_555
H15 C17 1_555 1_555
H16 C19 1_555 1_555
H17 C20 1_555 1_555
H18 C21 1_555 1_555
H19 C22 1_555 1_555
H20 C23 1_555 1_555
P2 N3 1_555 1_555
C1 C6 1_555 1_555
C7 C12 1_555 1_555
C13 C18 1_555 1_555
C19 C24 1_555 1_555

#END
