
#######################################################################
#
#                 Cambridge Crystallographic Data Centre
#                                CCDC 
#
#######################################################################
#
# If this CIF has been generated from an entry in the Cambridge 
# Structural Database, then it will include bibliographic, chemical, 
# crystal, experimental, refinement or atomic coordinate data resulting 
# from the CCDC's data processing and validation procedures.
#
#######################################################################

data_TINHED
_chemical_formula_moiety         'C30 H25 N3 O6 P2 S1'
_chemical_name_systematic        
1,3,3,5,5-pentakis(Phenoxy)-1-oxo-1,3,5,2,4,6-cyclothiadiphosphatriazene
_symmetry_cell_setting           monoclinic
_symmetry_space_group_name_H-M   'C 2/c'
_symmetry_Int_Tables_number      15
_space_group_name_Hall           '-C 2yn'
loop_
_symmetry_equiv_pos_site_id
_symmetry_equiv_pos_as_xyz
1 x,y,z
2 -x,y,1/2-z
3 1/2+x,1/2+y,z
4 1/2-x,1/2+y,1/2-z
5 -x,-y,-z
6 x,-y,1/2+z
7 1/2-x,1/2-y,-z
8 1/2+x,1/2-y,1/2+z
_cell_length_a                   32.457(3)
_cell_length_b                   10.747(1)
_cell_length_c                   18.294(2)
_cell_angle_alpha                90
_cell_angle_beta                 110.37(1)
_cell_angle_gamma                90
_cell_volume                     5982.17
_exptl_crystal_colour            colorless
_cell_formula_units_Z            8
loop_
_atom_site_label
_atom_site_type_symbol
_atom_site_fract_x
_atom_site_fract_y
_atom_site_fract_z
S1 S 0.07933(2) 0.98297(7) 0.47268(4)
P1 P 0.15587(2) 0.94233(7) 0.4411(4)
P2 P 0.10606(1) 0.74414(7) 0.45447(4)
O1 O 0.07355(7) 1.0361(2) 0.5395(1)
O2 O 0.03984(6) 1.0294(2) 0.3983(1)
O3 O 0.1564(6) 0.9707(2) 0.3571(1)
O4 O 0.20376(6) 0.9824(2) 0.4919(1)
O5 O 0.11505(6) 0.6538(2) 0.5260(1)
O6 O 0.08305(6) 0.6532(2) 0.3850(1)
N1 N 0.12228(7) 1.0300(2) 0.4625(1)
N2 N 0.14933(7) 0.7986(2) 0.4471(1)
N3 N 0.07187(7) 0.8410(2) 0.4651(1)
C1 C 0.0467(1) 1.2335(3) 0.3501(2)
C2 C 0.0351(1) 1.3572(4) 0.3424(2)
C3 C 0.0068(1) 1.4030(3) 0.3757(3)
C4 C -0.0095(1) 1.3261(4) 0.4179(3)
C5 C 0.0015(1) 1.2022(3) 0.4274(2)
C6 C 0.0296(1) 1.1587(3) 0.3923(2)
C7 C 0.1292(1) 1.0876(3) 0.2429(2)
C8 C 0.1261(2) 1.1972(4) 0.2015(2)
C9 C 0.1477(2) 1.3015(4) 0.2397(3)
C10 C 0.1710(1) 1.2977(3) 0.3169(2)
C11 C 0.1738(1) 1.1893(3) 0.3586(2)
C12 C 0.1530(1) 1.0867(3) 0.3203(2)
C13 C 0.2097(1) 0.9716(4) 0.6264(2)
C14 C 0.2325(1) 0.9293(5) 0.7002(2)
C15 C 0.2689(1) 0.8563(4) 0.7161(2)
C16 C 0.2835(1) 0.8262(3) 0.6563(2)
C17 C 0.2614(1) 0.8674(3) 0.5826(2)
C18 C 0.2249(1) 0.9393(3) 0.5682(2)
C19 C 0.1270(1) 0.4361(3) 0.5167(2)
C20 C 0.1553(2) 0.3359(3) 0.5312(2)
C21 C 0.1989(1) 0.3530(4) 0.5654(2)
C22 C 0.2158(1) 0.4703(4) 0.5871(2)
C23 C 0.1881(1) 0.5705(3) 0.5742(2)
C24 C 0.1439(1) 0.5519(3) 0.5382(2)
C25 C 0.0998(1) 0.6054(3) 0.2722(2)
C26 C 0.0960(1) 0.6291(3) 0.1963(2)
C27 C 0.0722(1) 0.7268(3) 0.1563(2)
C28 C 0.0522(1) 0.8022(4) 0.1927(2)
C29 C 0.0555(1) 0.7813(3) 0.2686(2)
C30 C 0.0793(1) 0.6824(3) 0.3074(2)
H1 H 0.0657(1) 1.2017(3) 0.3269(2)
H2 H 0.0468(1) 1.4099(4) 0.3142(2)
H3 H -0.0013(1) 1.4864(3) 0.3696(3)
H4 H -0.0286(1) 1.3582(4) 0.4410(3)
H5 H -0.0097(1) 1.1500(3) 0.4565(2)
H6 H 0.1151(1) 1.0158(3) 0.2181(2)
H7 H 0.1096(2) 1.2004(4) 0.1486(2)
H8 H 0.1463(2) 1.3751(4) 0.2122(3)
H9 H 0.1853(1) 1.3689(3) 0.3421(2)
H10 H 0.1896(1) 1.1868(3) 0.4119(2)
H11 H 0.1848(1) 1.0206(4) 0.6163(2)
H12 H 0.2228(1) 0.9511(5) 0.7407(2)
H13 H 0.2836(1) 0.8276(4) 0.7665(2)
H14 H 0.3085(1) 0.7775(3) 0.6661(2)
H15 H 0.2712(1) 0.8464(3) 0.5422(2)
H16 H 0.0969(1) 0.4248(3) 0.4928(2)
H17 H 0.1442(2) 0.2562(3) 0.5172(2)
H18 H 0.2178(1) 0.2851(4) 0.5744(2)
H19 H 0.2460(1) 0.4814(4) 0.6106(2)
H20 H 0.1992(1) 0.6498(3) 0.5895(2)
H21 H 0.1160(1) 0.5379(3) 0.2989(2)
H22 H 0.1101(1) 0.5770(3) 0.1718(2)
H23 H 0.0698(1) 0.7416(3) 0.1048(2)
H24 H 0.0359(1) 0.8696(4) 0.1659(2)
H25 H 0.0417(1) 0.8342(3) 0.2931(2)
loop_
_geom_bond_atom_site_label_1
_geom_bond_atom_site_label_2
_geom_bond_site_symmetry_1
_geom_bond_site_symmetry_2
S1 O1 1_555 1_555
P1 O3 1_555 1_555
P2 O5 1_555 1_555
O2 S1 1_555 1_555
O3 C12 1_555 1_555
O4 P1 1_555 1_555
O5 C24 1_555 1_555
O6 P2 1_555 1_555
N1 S1 1_555 1_555
N2 P1 1_555 1_555
N3 S1 1_555 1_555
C1 C2 1_555 1_555
C2 C3 1_555 1_555
C3 C4 1_555 1_555
C4 C5 1_555 1_555
C5 C6 1_555 1_555
C6 O2 1_555 1_555
C7 C8 1_555 1_555
C8 C9 1_555 1_555
C9 C10 1_555 1_555
C10 C11 1_555 1_555
C11 C12 1_555 1_555
C12 C7 1_555 1_555
C13 C14 1_555 1_555
C14 C15 1_555 1_555
C15 C16 1_555 1_555
C16 C17 1_555 1_555
C17 C18 1_555 1_555
C18 O4 1_555 1_555
C19 C20 1_555 1_555
C20 C21 1_555 1_555
C21 C22 1_555 1_555
C22 C23 1_555 1_555
C23 C24 1_555 1_555
C24 C19 1_555 1_555
C25 C26 1_555 1_555
C26 C27 1_555 1_555
C27 C28 1_555 1_555
C28 C29 1_555 1_555
C29 C30 1_555 1_555
C30 O6 1_555 1_555
H1 C1 1_555 1_555
H2 C2 1_555 1_555
H3 C3 1_555 1_555
H4 C4 1_555 1_555
H5 C5 1_555 1_555
H6 C7 1_555 1_555
H7 C8 1_555 1_555
H8 C9 1_555 1_555
H9 C10 1_555 1_555
H10 C11 1_555 1_555
H11 C13 1_555 1_555
H12 C14 1_555 1_555
H13 C15 1_555 1_555
H14 C16 1_555 1_555
H15 C17 1_555 1_555
H16 C19 1_555 1_555
H17 C20 1_555 1_555
H18 C21 1_555 1_555
H19 C22 1_555 1_555
H20 C23 1_555 1_555
H21 C25 1_555 1_555
H22 C26 1_555 1_555
H23 C27 1_555 1_555
H24 C28 1_555 1_555
H25 C29 1_555 1_555
P1 N1 1_555 1_555
P2 N2 1_555 1_555
P2 N3 1_555 1_555
C1 C6 1_555 1_555
C13 C18 1_555 1_555
C25 C30 1_555 1_555

#END
