
#######################################################################
#
#                 Cambridge Crystallographic Data Centre
#                                CCDC 
#
#######################################################################
#
# If this CIF has been generated from an entry in the Cambridge 
# Structural Database, then it will include bibliographic, chemical, 
# crystal, experimental, refinement or atomic coordinate data resulting 
# from the CCDC's data processing and validation procedures.
#
#######################################################################

data_TINLOT
_chemical_formula_moiety         'C14 H11 N3 O3 S1'
_chemical_name_systematic        
2-(3-Nitrophenyl)-3-(pyridin-2-yl)-1,3-thiazolidin-4-one
_symmetry_cell_setting           monoclinic
_symmetry_space_group_name_H-M   'P 21/c'
_symmetry_Int_Tables_number      14
_space_group_name_Hall           '-P 2ybc'
loop_
_symmetry_equiv_pos_site_id
_symmetry_equiv_pos_as_xyz
1 x,y,z
2 -x,1/2+y,1/2-z
3 -x,-y,-z
4 x,1/2-y,1/2+z
_cell_length_a                   14.742(4)
_cell_length_b                   7.1019(16)
_cell_length_c                   12.755(4)
_cell_angle_alpha                90
_cell_angle_beta                 103.318(4)
_cell_angle_gamma                90
_cell_volume                     1299.49
_exptl_crystal_colour            colorless
_exptl_crystal_description       Block
_cell_formula_units_Z            4
loop_
_atom_site_label
_atom_site_type_symbol
_atom_site_fract_x
_atom_site_fract_y
_atom_site_fract_z
S1 S 0.27200(2) 0.61686(4) 0.39521(3)
O1 O 0.59305(6) 1.26576(14) 0.37375(9)
N1 N 0.19218(7) 0.85960(13) 0.24555(8)
O2 O 0.16625(7) 0.67846(13) 0.09171(8)
N2 N 0.10401(7) 1.11897(14) 0.26957(9)
O3 O 0.51982(7) 1.08187(16) 0.24676(9)
C1 C 0.30697(9) 1.10854(17) 0.49062(10)
H1 H 0.2572 1.0968 0.5261
C2 C 0.13984(7) 1.02003(16) 0.20000(10)
C3 C 0.45327(8) 1.25156(17) 0.48038(11)
H2 H 0.5044 1.3325 0.5085
C4 C 0.37753(8) 1.02326(16) 0.34477(10)
H3 H 0.3772 0.9543 0.2809
C5 C 0.38012(9) 1.23239(17) 0.53119(11)
H4 H 0.3798 1.3040 0.5940
N3 N 0.52592(7) 1.16702(15) 0.33203(9)
C6 C 0.30612(8) 1.00187(16) 0.39874(9)
C7 C 0.25550(8) 0.54691(17) 0.25677(10)
H5 H 0.3166 0.5306 0.2381
H6 H 0.2215 0.4257 0.2446
C8 C 0.22959(8) 0.85765(16) 0.36231(10)
H7 H 0.1778 0.8841 0.3989
C9 C 0.44923(8) 1.14815(16) 0.38687(10)
C10 C 0.03102(9) 1.32196(18) 0.12317(12)
H8 H -0.0093 1.4249 0.0981
C11 C 0.19999(8) 0.69892(16) 0.18753(10)
C12 C 0.12864(10) 1.06760(18) 0.09131(11)
C13 C 0.07235(10) 1.22133(19) 0.05386(11)
H9 H 0.0622 1.2575 -0.0196
C14 C 0.05034(9) 1.26789(18) 0.23017(12)
H10 H 0.0242 1.3399 0.2787
loop_
_geom_bond_atom_site_label_1
_geom_bond_atom_site_label_2
_geom_bond_site_symmetry_1
_geom_bond_site_symmetry_2
S1 C7 1_555 1_555
O1 N3 1_555 1_555
N1 C2 1_555 1_555
O2 C11 1_555 1_555
N2 C2 1_555 1_555
O3 N3 1_555 1_555
C1 H1 1_555 1_555
C2 C12 1_555 1_555
C3 H2 1_555 1_555
C4 H3 1_555 1_555
C5 C1 1_555 1_555
H4 C5 1_555 1_555
N3 C9 1_555 1_555
C6 C1 1_555 1_555
C7 H5 1_555 1_555
H6 C7 1_555 1_555
C8 S1 1_555 1_555
H7 C8 1_555 1_555
C9 C3 1_555 1_555
C10 H8 1_555 1_555
C11 N1 1_555 1_555
C12 C13 1_555 1_555
C13 C10 1_555 1_555
H9 C13 1_555 1_555
C14 N2 1_555 1_555
H10 C14 1_555 1_555
N1 C8 1_555 1_555
C3 C5 1_555 1_555
C4 C6 1_555 1_555
C4 C9 1_555 1_555
C6 C8 1_555 1_555
C7 C11 1_555 1_555
C10 C14 1_555 1_555

#END
