
#######################################################################
#
#                 Cambridge Crystallographic Data Centre
#                                CCDC 
#
#######################################################################
#
# If this CIF has been generated from an entry in the Cambridge 
# Structural Database, then it will include bibliographic, chemical, 
# crystal, experimental, refinement or atomic coordinate data resulting 
# from the CCDC's data processing and validation procedures.
#
#######################################################################

data_TINLIN
_chemical_formula_moiety         'C21 H31 I1 O4 Si1'
_chemical_name_systematic        
'Methyl 11-iodo-3,7,7-trimethyl-9-oxo-3-(2-(trimethylsilyl)vinyl)-10-oxatricyclo[6.2.2.0^1,6^]dodec-11-ene-2-carboxylate'
_symmetry_cell_setting           orthorhombic
_symmetry_space_group_name_H-M   'P 21 21 21'
_symmetry_Int_Tables_number      19
_space_group_name_Hall           'P 2ac 2ab'
loop_
_symmetry_equiv_pos_site_id
_symmetry_equiv_pos_as_xyz
1 x,y,z
2 1/2-x,-y,1/2+z
3 -x,1/2+y,1/2-z
4 1/2+x,1/2-y,-z
_cell_length_a                   7.8106(6)
_cell_length_b                   9.9557(9)
_cell_length_c                   29.925(3)
_cell_angle_alpha                90
_cell_angle_beta                 90
_cell_angle_gamma                90
_cell_volume                     2326.97
_exptl_crystal_colour            colorless
_exptl_crystal_description       block
_chemical_melting_point          '125-130 deg.C'
_cell_formula_units_Z            4
_exptl_crystal_recrystallization_method hexanes/pentane
loop_
_atom_site_label
_atom_site_type_symbol
_atom_site_fract_x
_atom_site_fract_y
_atom_site_fract_z
I1 I 0.322928(6) 0.327304(6) 0.100668(2)
Si1 Si 0.82862(4) 0.95984(3) 0.029620(8)
O1 O 0.58671(8) 0.50718(6) 0.211752(18)
O2 O 0.55923(10) 0.44874(7) 0.28289(2)
O3 O 0.32054(9) 0.62419(7) 0.16581(2)
O4 O 0.43680(8) 0.76393(7) 0.11544(2)
C1 C 0.60460(9) 0.45266(8) 0.16640(2)
C2 C 0.60035(9) 0.57275(8) 0.13410(2)
H1 H 0.5850(17) 0.5322(14) 0.1032(5)
C3 C 0.76469(9) 0.66162(9) 0.13264(2)
C4 C 0.92087(11) 0.56728(10) 0.12979(3)
H2 H 0.9170(17) 0.5173(14) 0.1005(5)
H3 H 1.014(2) 0.6162(17) 0.1315(5)
C5 C 0.92865(10) 0.46653(10) 0.16800(3)
H4 H 0.9372(18) 0.5168(15) 0.1988(5)
H5 H 1.0303(18) 0.4141(14) 0.1636(4)
C6 C 0.77587(10) 0.37245(9) 0.16625(3)
H6 H 0.7794(15) 0.3209(14) 0.1364(4)
C7 C 0.77008(10) 0.26363(9) 0.20437(3)
C8 C 0.58952(11) 0.27264(8) 0.22722(3)
H7 H 0.581(2) 0.2076(16) 0.2527(5)
C9 C 0.45506(10) 0.25541(8) 0.19164(3)
H8 H 0.3835(19) 0.1808(16) 0.1924(5)
C10 C 0.46377(9) 0.34829(8) 0.15976(2)
C11 C 0.57510(10) 0.41383(8) 0.24451(3)
C12 C 0.43633(9) 0.65418(8) 0.14115(2)
C13 C 0.29172(12) 0.85236(10) 0.11962(4)
H9 H 0.197(2) 0.8113(16) 0.1049(5)
H10 H 0.3163(17) 0.9401(14) 0.1052(4)
H11 H 0.273(2) 0.8724(19) 0.1487(6)
C14 C 0.76824(10) 0.74233(9) 0.08931(3)
H12 H 0.7349(18) 0.6931(15) 0.0645(5)
C15 C 0.82188(14) 0.86823(9) 0.08395(3)
H13 H 0.848(2) 0.9226(19) 0.1111(5)
C16 C 0.76329(17) 0.84551(13) -0.01683(4)
H14 H 0.657(2) 0.8120(17) -0.0106(5)
H15 H 0.845(2) 0.763(2) -0.0189(6)
H16 H 0.768(2) 0.889(2) -0.0477(6)
C17 C 0.6799(3) 1.10473(19) 0.03275(6)
H17 H 0.587(4) 1.072(3) 0.0334(9)
H18 H 0.680(3) 1.156(2) 0.0037(8)
H19 H 0.731(3) 1.162(2) 0.0563(7)
C18 C 1.04972(18) 1.02441(15) 0.01954(4)
H20 H 1.056(2) 1.0771(19) -0.0096(6)
H21 H 1.127(3) 0.953(2) 0.0187(7)
H22 H 1.068(3) 1.080(2) 0.0417(7)
C19 C 0.77764(11) 0.75335(9) 0.17361(3)
H23 H 0.875(2) 0.8019(16) 0.1742(5)
H24 H 0.7774(19) 0.7049(16) 0.2010(5)
H25 H 0.694(2) 0.8136(16) 0.1732(5)
C20 C 0.90531(12) 0.28388(11) 0.24106(3)
H26 H 0.885(2) 0.2200(16) 0.2627(5)
H27 H 0.892(2) 0.3695(17) 0.2546(5)
H28 H 1.014(2) 0.2754(16) 0.2294(5)
C21 C 0.79534(13) 0.12340(10) 0.18456(4)
H29 H 0.9105(18) 0.1211(15) 0.1698(5)
H30 H 0.714(2) 0.0977(19) 0.1656(6)
H31 H 0.788(2) 0.0504(16) 0.2068(5)
loop_
_geom_bond_atom_site_label_1
_geom_bond_atom_site_label_2
_geom_bond_site_symmetry_1
_geom_bond_site_symmetry_2
I1 C10 1_555 1_555
Si1 C15 1_555 1_555
O1 C1 1_555 1_555
O2 C11 1_555 1_555
O3 C12 1_555 1_555
O4 C12 1_555 1_555
C1 C2 1_555 1_555
C2 H1 1_555 1_555
C3 C2 1_555 1_555
C4 C3 1_555 1_555
H2 C4 1_555 1_555
H3 C4 1_555 1_555
C5 C4 1_555 1_555
H4 C5 1_555 1_555
H5 C5 1_555 1_555
C6 C1 1_555 1_555
H6 C6 1_555 1_555
C7 C6 1_555 1_555
C8 C7 1_555 1_555
H7 C8 1_555 1_555
C9 C8 1_555 1_555
H8 C9 1_555 1_555
C10 C1 1_555 1_555
C11 O1 1_555 1_555
C12 C2 1_555 1_555
C13 O4 1_555 1_555
H9 C13 1_555 1_555
H10 C13 1_555 1_555
H11 C13 1_555 1_555
C14 C3 1_555 1_555
H12 C14 1_555 1_555
C15 C14 1_555 1_555
H13 C15 1_555 1_555
C16 Si1 1_555 1_555
H14 C16 1_555 1_555
H15 C16 1_555 1_555
H16 C16 1_555 1_555
C17 Si1 1_555 1_555
H17 C17 1_555 1_555
H18 C17 1_555 1_555
H19 C17 1_555 1_555
C18 Si1 1_555 1_555
H20 C18 1_555 1_555
H21 C18 1_555 1_555
H22 C18 1_555 1_555
C19 C3 1_555 1_555
H23 C19 1_555 1_555
H24 C19 1_555 1_555
H25 C19 1_555 1_555
C20 C7 1_555 1_555
H26 C20 1_555 1_555
H27 C20 1_555 1_555
H28 C20 1_555 1_555
C21 C7 1_555 1_555
H29 C21 1_555 1_555
H30 C21 1_555 1_555
H31 C21 1_555 1_555
C5 C6 1_555 1_555
C8 C11 1_555 1_555
C9 C10 1_555 1_555

#END
