
#######################################################################
#
#                 Cambridge Crystallographic Data Centre
#                                CCDC 
#
#######################################################################
#
# If this CIF has been generated from an entry in the Cambridge 
# Structural Database, then it will include bibliographic, chemical, 
# crystal, experimental, refinement or atomic coordinate data resulting 
# from the CCDC's data processing and validation procedures.
#
#######################################################################

data_TINMAG
_chemical_formula_moiety         'C14 H11 F1 N2 O1 S1'
_chemical_name_systematic        
2-(2-fluorophenyl)-3-(pyridin-2-yl)-1,3-thiazolidin-4-one
_symmetry_cell_setting           orthorhombic
_symmetry_space_group_name_H-M   'P n a 21'
_symmetry_Int_Tables_number      33
_space_group_name_Hall           'P 2c -2n'
loop_
_symmetry_equiv_pos_site_id
_symmetry_equiv_pos_as_xyz
1 x,y,z
2 -x,-y,1/2+z
3 1/2-x,1/2+y,1/2+z
4 1/2+x,1/2-y,z
_cell_length_a                   12.299(6)
_cell_length_b                   7.109(3)
_cell_length_c                   14.124(6)
_cell_angle_alpha                90
_cell_angle_beta                 90
_cell_angle_gamma                90
_cell_volume                     1234.91
_exptl_crystal_colour            colorless
_exptl_crystal_description       Block
_cell_formula_units_Z            4
loop_
_atom_site_label
_atom_site_type_symbol
_atom_site_fract_x
_atom_site_fract_y
_atom_site_fract_z
S1 S 0.25023(5) 0.15492(7) 0.28200(7)
F1 F 0.04822(15) 0.4427(3) 0.37403(15)
N1 N 0.17053(14) 0.6467(2) 0.09903(14)
C1 C 0.22464(17) 0.3963(3) 0.24091(17)
H1 H 0.2835 0.4329 0.1957
C2 C 0.13407(17) 0.5577(3) 0.38134(17)
O1 O -0.03195(12) 0.2079(2) 0.16695(14)
C3 C 0.05719(17) 0.2316(3) 0.20319(17)
C4 C 0.22218(16) 0.5371(3) 0.32109(16)
N2 N 0.12185(13) 0.3872(2) 0.18955(13)
C5 C 0.03957(18) 0.8644(3) 0.03669(18)
H2 H 0.0246 0.9723 -0.0008
C6 C 0.31179(18) 0.6519(3) 0.3380(2)
C7 C 0.14508(17) 0.8013(3) 0.04897(18)
H3 H 0.2024 0.8708 0.0206
C8 C 0.31313(19) 0.7793(3) 0.4125(2)
H4 H 0.3754 0.8556 0.4230
C9 C -0.01985(16) 0.6056(3) 0.13222(17)
H5 H -0.0755 0.5356 0.1628
C10 C -0.04387(17) 0.7658(3) 0.08049(18)
H6 H -0.1169 0.8080 0.0750
C11 C 0.1332(2) 0.6825(3) 0.45602(19)
H7 H 0.0717 0.6912 0.4964
C12 C 0.10909(18) 0.0907(3) 0.26908(19)
H8 H 0.1029 -0.0377 0.2424
H9 H 0.0723 0.0928 0.3314
C13 C 0.08890(16) 0.5505(3) 0.13793(15)
C14 C 0.2237(2) 0.7951(3) 0.4713(2)
H10 H 0.2241 0.8829 0.5220
H11 H 0.373(4) 0.644(7) 0.275(4)
F2? F 0.4018(4) 0.6379(8) 0.3034(4)
H12? H 0.057(10) 0.501(16) 0.345(9)
loop_
_geom_bond_atom_site_label_1
_geom_bond_atom_site_label_2
_geom_bond_site_symmetry_1
_geom_bond_site_symmetry_2
S1 C1 1_555 1_555
F1 C2 1_555 1_555
N1 C7 1_555 1_555
C1 H1 1_555 1_555
C2 C4 1_555 1_555
O1 C3 1_555 1_555
C3 N2 1_555 1_555
C4 C1 1_555 1_555
N2 C1 1_555 1_555
C5 H2 1_555 1_555
C6 C4 1_555 1_555
C7 C5 1_555 1_555
H3 C7 1_555 1_555
C8 C6 1_555 1_555
H4 C8 1_555 1_555
C9 H5 1_555 1_555
C10 C5 1_555 1_555
H6 C10 1_555 1_555
C11 C2 1_555 1_555
H7 C11 1_555 1_555
C12 S1 1_555 1_555
H8 C12 1_555 1_555
H9 C12 1_555 1_555
C13 N1 1_555 1_555
C14 C8 1_555 1_555
H10 C14 1_555 1_555
H11 C6 1_555 1_555
C3 C12 1_555 1_555
N2 C13 1_555 1_555
C9 C10 1_555 1_555
C9 C13 1_555 1_555
C11 C14 1_555 1_555

#END
