
#######################################################################
#
#                 Cambridge Crystallographic Data Centre
#                                CCDC 
#
#######################################################################
#
# If this CIF has been generated from an entry in the Cambridge 
# Structural Database, then it will include bibliographic, chemical, 
# crystal, experimental, refinement or atomic coordinate data resulting 
# from the CCDC's data processing and validation procedures.
#
#######################################################################

data_TINNOV
_chemical_formula_moiety         'C30 H33 N3 O2'
_chemical_name_systematic        
N-t-Butyl-3-ethyl-4-(4-methylbenzoyl)-2-phenyl-4,5-dihydro-3H-1,4-benzodiazepine-5-carboxamide
_symmetry_cell_setting           triclinic
_symmetry_space_group_name_H-M   'P -1'
_symmetry_Int_Tables_number      2
_space_group_name_Hall           '-P 1'
loop_
_symmetry_equiv_pos_site_id
_symmetry_equiv_pos_as_xyz
1 x,y,z
2 -x,-y,-z
_cell_length_a                   10.323(2)
_cell_length_b                   12.260(3)
_cell_length_c                   12.331(3)
_cell_angle_alpha                105.404(4)
_cell_angle_beta                 102.235(4)
_cell_angle_gamma                110.466(3)
_cell_volume                     1326.9
_exptl_crystal_colour            colorless
_exptl_crystal_description       block
_cell_formula_units_Z            2
loop_
_atom_site_label
_atom_site_type_symbol
_atom_site_fract_x
_atom_site_fract_y
_atom_site_fract_z
C1 C 0.37636(17) 0.18730(16) 0.47975(15)
C2 C 0.35803(19) 0.19532(19) 0.58918(16)
H1 H 0.3641 0.1354 0.6205
C3 C 0.3307(2) 0.2918(2) 0.65279(18)
H2 H 0.3163 0.2955 0.7254
C4 C 0.3250(2) 0.3819(2) 0.60792(19)
H3 H 0.3058 0.4460 0.6502
C5 C 0.3475(2) 0.37828(18) 0.50062(18)
H4 H 0.3473 0.4416 0.4727
C6 C 0.37036(18) 0.27982(16) 0.43450(16)
C7 C 0.40148(18) 0.07998(16) 0.40848(15)
H5 H 0.4073 0.0294 0.4574
C8 C 0.21504(17) 0.05624(16) 0.22312(15)
H6 H 0.1798 -0.0014 0.1400
C9 C 0.33436(18) 0.17948(16) 0.23276(16)
C10 C 0.54554(18) 0.11972(16) 0.37943(16)
C11 C 0.8161(2) 0.25795(19) 0.4684(2)
C12 C 0.8695(2) 0.1563(2) 0.4541(3)
H7 H 0.8632 0.1258 0.5178
H8 H 0.9696 0.1900 0.4566
H9 H 0.8094 0.0886 0.3788
C13 C 0.8191(3) 0.3060(3) 0.3665(3)
H10 H 0.7546 0.2386 0.2921
H11 H 0.9173 0.3379 0.3643
H12 H 0.7873 0.3717 0.3789
C14 C 0.9088(3) 0.3647(2) 0.5888(3)
H13 H 0.8765 0.4300 0.5962
H14 H 1.0101 0.3973 0.5943
H15 H 0.8981 0.3339 0.6519
C15 C 0.25486(18) -0.12391(16) 0.25299(16)
C16 C 0.12621(19) -0.21309(16) 0.14232(16)
C17 C 0.1469(2) -0.27146(18) 0.03902(18)
H16 H 0.2413 -0.2488 0.0353
C18 C 0.0278(3) -0.3634(2) -0.05878(19)
H17 H 0.0438 -0.3999 -0.1280
C19 C -0.1137(2) -0.40241(18) -0.05662(19)
C20 C -0.1319(2) -0.3446(2) 0.0470(2)
H18 H -0.2262 -0.3694 0.0511
C21 C -0.0160(2) -0.2512(2) 0.14507(19)
H19 H -0.0331 -0.2136 0.2133
C22 C -0.2433(3) -0.5044(2) -0.1628(2)
H20 H -0.3215 -0.5438 -0.1359
H21 H -0.2143 -0.5658 -0.2029
H22 H -0.2762 -0.4685 -0.2170
C23 C 0.08196(19) 0.07339(18) 0.24761(18)
H23 H 0.0037 -0.0082 0.2291
H24 H 0.1096 0.1216 0.3319
C24 C 0.0258(3) 0.1393(3) 0.1749(3)
H25 H 0.0987 0.2238 0.1998
H26 H -0.0627 0.1403 0.1869
H27 H 0.0058 0.0956 0.0917
C25 C 0.37741(19) 0.18731(18) 0.12618(16)
C26 C 0.3570(3) 0.0833(2) 0.0343(2)
H28 H 0.3135 0.0043 0.0375
C27 C 0.3997(3) 0.0941(3) -0.0623(2)
H29 H 0.3840 0.0224 -0.1235
C28 C 0.4645(3) 0.2081(3) -0.0693(2)
H30 H 0.4924 0.2150 -0.1349
C29 C 0.4877(3) 0.3116(3) 0.0213(3)
H31 H 0.5327 0.3902 0.0177
C30 C 0.4455(3) 0.3023(2) 0.1189(2)
H32 H 0.4634 0.3747 0.1804
N1 N 0.39617(16) 0.27997(14) 0.32674(13)
N2 N 0.27731(14) -0.00216(13) 0.29776(12)
N3 N 0.66415(15) 0.20832(14) 0.47090(14)
H33 H 0.6512 0.2392 0.5368
O1 O 0.54679(15) 0.07008(14) 0.27996(12)
O2 O 0.33253(15) -0.16393(12) 0.30484(12)
loop_
_geom_bond_atom_site_label_1
_geom_bond_atom_site_label_2
_geom_bond_site_symmetry_1
_geom_bond_site_symmetry_2
C1 C2 1_555 1_555
C2 H1 1_555 1_555
C3 C2 1_555 1_555
H2 C3 1_555 1_555
C4 C3 1_555 1_555
H3 C4 1_555 1_555
C5 C4 1_555 1_555
H4 C5 1_555 1_555
C6 C1 1_555 1_555
C7 C1 1_555 1_555
H5 C7 1_555 1_555
C8 H6 1_555 1_555
C9 C8 1_555 1_555
C10 C7 1_555 1_555
C11 C12 1_555 1_555
C12 H7 1_555 1_555
H8 C12 1_555 1_555
H9 C12 1_555 1_555
C13 C11 1_555 1_555
H10 C13 1_555 1_555
H11 C13 1_555 1_555
H12 C13 1_555 1_555
C14 C11 1_555 1_555
H13 C14 1_555 1_555
H14 C14 1_555 1_555
H15 C14 1_555 1_555
C15 C16 1_555 1_555
C16 C17 1_555 1_555
C17 H16 1_555 1_555
C18 C17 1_555 1_555
H17 C18 1_555 1_555
C19 C18 1_555 1_555
C20 C19 1_555 1_555
H18 C20 1_555 1_555
C21 C16 1_555 1_555
H19 C21 1_555 1_555
C22 C19 1_555 1_555
H20 C22 1_555 1_555
H21 C22 1_555 1_555
H22 C22 1_555 1_555
C23 C8 1_555 1_555
H23 C23 1_555 1_555
H24 C23 1_555 1_555
C24 C23 1_555 1_555
H25 C24 1_555 1_555
H26 C24 1_555 1_555
H27 C24 1_555 1_555
C25 C9 1_555 1_555
C26 C25 1_555 1_555
H28 C26 1_555 1_555
C27 C26 1_555 1_555
H29 C27 1_555 1_555
C28 C27 1_555 1_555
H30 C28 1_555 1_555
C29 C28 1_555 1_555
H31 C29 1_555 1_555
C30 C25 1_555 1_555
H32 C30 1_555 1_555
N1 C6 1_555 1_555
N2 C7 1_555 1_555
N3 C10 1_555 1_555
H33 N3 1_555 1_555
O1 C10 1_555 1_555
O2 C15 1_555 1_555
C5 C6 1_555 1_555
C8 N2 1_555 1_555
C9 N1 1_555 1_555
C11 N3 1_555 1_555
C15 N2 1_555 1_555
C20 C21 1_555 1_555
C29 C30 1_555 1_555

#END
