
#######################################################################
#
#                 Cambridge Crystallographic Data Centre
#                                CCDC 
#
#######################################################################
#
# If this CIF has been generated from an entry in the Cambridge 
# Structural Database, then it will include bibliographic, chemical, 
# crystal, experimental, refinement or atomic coordinate data resulting 
# from the CCDC's data processing and validation procedures.
#
#######################################################################

data_TINPAJ
_chemical_formula_moiety         'C25 H18 N2 O2'
_chemical_name_systematic        
2-(2,6-Dimethylphenyl)-4-phenyl-1H-pyrrolo[3,4-c]quinoline-1,3(2H)-dione
_symmetry_cell_setting           monoclinic
_symmetry_space_group_name_H-M   'P 21/c'
_symmetry_Int_Tables_number      14
_space_group_name_Hall           '-P 2ybc'
loop_
_symmetry_equiv_pos_site_id
_symmetry_equiv_pos_as_xyz
1 x,y,z
2 -x,1/2+y,1/2-z
3 -x,-y,-z
4 x,1/2-y,1/2+z
_cell_length_a                   13.5501(17)
_cell_length_b                   13.4406(17)
_cell_length_c                   10.7332(13)
_cell_angle_alpha                90
_cell_angle_beta                 98.124(2)
_cell_angle_gamma                90
_cell_volume                     1935.13
_cell_formula_units_Z            4
loop_
_atom_site_label
_atom_site_type_symbol
_atom_site_fract_x
_atom_site_fract_y
_atom_site_fract_z
C1 C 0.2349(2) 0.60270(19) 0.4114(3)
C2 C 0.1711(2) 0.6624(2) 0.4695(3)
C3 C 0.1698(3) 0.7633(3) 0.4438(4)
H1 H 0.1288 0.8054 0.4824
C4 C 0.2287(3) 0.8014(3) 0.3618(4)
H2 H 0.2276 0.8694 0.3457
C5 C 0.2898(3) 0.7407(2) 0.3025(3)
H3 H 0.3275 0.7679 0.2449
C6 C 0.2955(2) 0.6393(2) 0.3283(3)
C7 C 0.3642(3) 0.5729(3) 0.2682(4)
H4 H 0.4172 0.5505 0.3308
H5 H 0.3918 0.6093 0.2042
H6 H 0.3278 0.5166 0.2310
C8 C 0.1041(3) 0.6196(3) 0.5559(4)
H7 H 0.0762 0.6725 0.5999
H8 H 0.1419 0.5761 0.6156
H9 H 0.0513 0.5827 0.5076
C9 C 0.2961(2) 0.4573(2) 0.5468(3)
C10 C 0.1702(2) 0.42858(19) 0.3814(3)
C11 C 0.26119(19) 0.35271(19) 0.5556(3)
C12 C 0.2907(2) 0.2748(2) 0.6433(3)
C13 C 0.1843(2) 0.16633(19) 0.5189(3)
C14 C 0.1466(2) 0.0685(2) 0.5001(3)
H10 H 0.1675 0.0191 0.5585
C15 C 0.0800(2) 0.0465(2) 0.3970(3)
H11 H 0.0559 -0.0182 0.3856
C16 C 0.0472(2) 0.1193(2) 0.3079(3)
H12 H 0.0016 0.1024 0.2380
C17 C 0.0807(2) 0.2146(2) 0.3216(3)
H13 H 0.0585 0.2626 0.2617
C18 C 0.1498(2) 0.23955(19) 0.4283(3)
C19 C 0.19186(19) 0.33442(19) 0.4533(2)
C20 C 0.3618(2) 0.2885(2) 0.7606(3)
C21 C 0.3602(2) 0.3733(2) 0.8339(3)
H14 H 0.3157 0.4244 0.8079
C22 C 0.4246(3) 0.3821(3) 0.9454(3)
H15 H 0.4227 0.4387 0.9950
C23 C 0.4912(3) 0.3075(3) 0.9830(3)
H16 H 0.5356 0.3146 1.0569
C24 C 0.4929(3) 0.2228(3) 0.9130(3)
H17 H 0.5376 0.1721 0.9400
C25 C 0.4282(2) 0.2127(2) 0.8021(3)
H18 H 0.4292 0.1548 0.7548
N1 N 0.23745(17) 0.49774(15) 0.4408(2)
N2 N 0.25215(17) 0.18504(16) 0.6239(2)
O1 O 0.35947(18) 0.50395(15) 0.6122(2)
O2 O 0.10748(15) 0.44569(14) 0.29357(19)
loop_
_geom_bond_atom_site_label_1
_geom_bond_atom_site_label_2
_geom_bond_site_symmetry_1
_geom_bond_site_symmetry_2
C1 C2 1_555 1_555
C2 C3 1_555 1_555
C3 H1 1_555 1_555
C4 C3 1_555 1_555
H2 C4 1_555 1_555
C5 C4 1_555 1_555
H3 C5 1_555 1_555
C6 C1 1_555 1_555
C7 C6 1_555 1_555
H4 C7 1_555 1_555
H5 C7 1_555 1_555
H6 C7 1_555 1_555
C8 C2 1_555 1_555
H7 C8 1_555 1_555
H8 C8 1_555 1_555
H9 C8 1_555 1_555
C9 C11 1_555 1_555
C10 C19 1_555 1_555
C11 C12 1_555 1_555
C12 C20 1_555 1_555
C13 C14 1_555 1_555
C14 H10 1_555 1_555
C15 C14 1_555 1_555
H11 C15 1_555 1_555
C16 C15 1_555 1_555
H12 C16 1_555 1_555
C17 C16 1_555 1_555
H13 C17 1_555 1_555
C18 C13 1_555 1_555
C19 C11 1_555 1_555
C20 C21 1_555 1_555
C21 H14 1_555 1_555
C22 C21 1_555 1_555
H15 C22 1_555 1_555
C23 C22 1_555 1_555
H16 C23 1_555 1_555
C24 C23 1_555 1_555
H17 C24 1_555 1_555
C25 C20 1_555 1_555
H18 C25 1_555 1_555
N1 C1 1_555 1_555
N2 C12 1_555 1_555
O1 C9 1_555 1_555
O2 C10 1_555 1_555
C5 C6 1_555 1_555
C9 N1 1_555 1_555
C10 N1 1_555 1_555
C13 N2 1_555 1_555
C17 C18 1_555 1_555
C18 C19 1_555 1_555
C24 C25 1_555 1_555

#END
