
#######################################################################
#
#                 Cambridge Crystallographic Data Centre
#                                CCDC 
#
#######################################################################
#
# If this CIF has been generated from an entry in the Cambridge 
# Structural Database, then it will include bibliographic, chemical, 
# crystal, experimental, refinement or atomic coordinate data resulting 
# from the CCDC's data processing and validation procedures.
#
#######################################################################

data_TINYIA
_chemical_formula_moiety         'C16 H14 O3'
_chemical_name_systematic        '3-(4-Methoxyphenyl)-3-phenylacrylic acid'
_symmetry_cell_setting           monoclinic
_symmetry_space_group_name_H-M   'P 21/n'
_symmetry_Int_Tables_number      14
_space_group_name_Hall           '-P 2yn'
loop_
_symmetry_equiv_pos_site_id
_symmetry_equiv_pos_as_xyz
1 x,y,z
2 1/2-x,1/2+y,1/2-z
3 -x,-y,-z
4 1/2+x,1/2-y,1/2+z
_cell_length_a                   5.5142(6)
_cell_length_b                   8.3961(10)
_cell_length_c                   28.752(3)
_cell_angle_alpha                90
_cell_angle_beta                 93.113(2)
_cell_angle_gamma                90
_cell_volume                     1329.19
_exptl_crystal_colour            colorless
_exptl_crystal_description       prismatic
_cell_formula_units_Z            4
loop_
_atom_site_label
_atom_site_type_symbol
_atom_site_fract_x
_atom_site_fract_y
_atom_site_fract_z
O1 O 0.3070(3) 0.38677(17) 0.02842(5)
O2 O 0.4983(4) 0.60399(18) 0.05410(6)
O3 O -0.0726(3) 0.3544(2) 0.31441(5)
C1 C 0.3541(4) 0.4840(2) 0.05958(7)
C2 C 0.2644(4) 0.4762(2) 0.10646(7)
H1 H 0.2912 0.5652 0.1253
C3 C 0.1475(3) 0.3537(2) 0.12495(6)
C4 C 0.0859(3) 0.35506(19) 0.17457(6)
C5 C -0.1051(4) 0.2643(2) 0.18955(6)
H2 H -0.1944 0.2022 0.1680
C6 C -0.1671(4) 0.2631(2) 0.23572(7)
H3 H -0.2988 0.2034 0.2446
C7 C -0.0328(4) 0.3507(2) 0.26807(6)
C8 C 0.1595(4) 0.4413(3) 0.25404(7)
H4 H 0.2508 0.5011 0.2759
C9 C 0.2167(4) 0.4437(2) 0.20829(7)
H5 H 0.3460 0.5060 0.1995
C10 C 0.0738(3) 0.2083(2) 0.09836(6)
C11 C -0.1344(5) 0.2065(4) 0.07046(8)
H6 H -0.2264 0.2987 0.0662
C12 C -0.2070(7) 0.0676(6) 0.04875(11)
H7 H -0.3526 0.0653 0.0309
C13 C -0.0715(10) -0.0653(5) 0.05283(13)
H8 H -0.1198 -0.1574 0.0369
C14 C 0.1391(8) -0.0640(3) 0.08074(11)
H9 H 0.2331 -0.1558 0.0839
C15 C 0.2106(4) 0.0721(2) 0.10384(7)
H10 H 0.3513 0.0724 0.1232
C16 C -0.2678(5) 0.2641(3) 0.33065(8)
H11 H -0.4182 0.3032 0.3166
H12 H -0.2698 0.2736 0.3639
H13 H -0.2478 0.1542 0.3224
H14 H 0.569(6) 0.601(4) 0.0284(8)
loop_
_geom_bond_atom_site_label_1
_geom_bond_atom_site_label_2
_geom_bond_site_symmetry_1
_geom_bond_site_symmetry_2
O1 C1 1_555 1_555
O2 C1 1_555 1_555
O3 C7 1_555 1_555
C1 C2 1_555 1_555
C2 H1 1_555 1_555
C3 C2 1_555 1_555
C4 C3 1_555 1_555
C5 C4 1_555 1_555
H2 C5 1_555 1_555
C6 C5 1_555 1_555
H3 C6 1_555 1_555
C7 C6 1_555 1_555
C8 C7 1_555 1_555
H4 C8 1_555 1_555
C9 C4 1_555 1_555
H5 C9 1_555 1_555
C10 C3 1_555 1_555
C11 C10 1_555 1_555
H6 C11 1_555 1_555
C12 C11 1_555 1_555
H7 C12 1_555 1_555
C13 C12 1_555 1_555
H8 C13 1_555 1_555
C14 C13 1_555 1_555
H9 C14 1_555 1_555
C15 C10 1_555 1_555
H10 C15 1_555 1_555
C16 O3 1_555 1_555
H11 C16 1_555 1_555
H12 C16 1_555 1_555
H13 C16 1_555 1_555
H14 O2 1_555 1_555
C8 C9 1_555 1_555
C14 C15 1_555 1_555

#END
