
#######################################################################
#
#                 Cambridge Crystallographic Data Centre
#                                CCDC 
#
#######################################################################
#
# If this CIF has been generated from an entry in the Cambridge 
# Structural Database, then it will include bibliographic, chemical, 
# crystal, experimental, refinement or atomic coordinate data resulting 
# from the CCDC's data processing and validation procedures.
#
#######################################################################

data_TINZEX
_chemical_formula_moiety         'C24 H20 F6 N2 O2'
_chemical_name_systematic        
4-(1-(2,8-bis(Trifluoromethyl)quinolin-4-yl)hexahydro[1,3]oxazolo[3,4-a]pyridin-3-yl)phenol
_symmetry_cell_setting           monoclinic
_symmetry_space_group_name_H-M   'P 21/n'
_symmetry_Int_Tables_number      14
_space_group_name_Hall           '-P 2yn'
loop_
_symmetry_equiv_pos_site_id
_symmetry_equiv_pos_as_xyz
1 x,y,z
2 1/2-x,1/2+y,1/2-z
3 -x,-y,-z
4 1/2+x,1/2-y,1/2+z
_cell_length_a                   13.1233(10)
_cell_length_b                   11.3161(8)
_cell_length_c                   14.3091(9)
_cell_angle_alpha                90
_cell_angle_beta                 95.788(4)
_cell_angle_gamma                90
_cell_volume                     2114.13
_exptl_crystal_colour            colorless
_cell_formula_units_Z            4
loop_
_atom_site_label
_atom_site_type_symbol
_atom_site_fract_x
_atom_site_fract_y
_atom_site_fract_z
F1 F 0.62881(16) -0.27393(16) 0.99492(12)
F2 F 0.31548(17) -0.2816(2) 0.78522(15)
F3 F 0.50673(17) -0.1848(2) 1.05363(14)
F4 F 0.65560(19) -0.11040(17) 1.06702(13)
O1 O 0.75255(17) 0.16916(18) 0.84433(15)
F5 F 0.25782(17) -0.1442(2) 0.86884(15)
O2 O 1.15174(18) 0.14612(19) 1.13201(15)
H1 H 1.1422 0.0851 1.1635
N1 N 0.4739(2) -0.1252(2) 0.87229(18)
N2 N 0.8559(2) 0.0608(2) 0.76146(17)
C1 C 0.9766(3) 0.1199(3) 1.0678(2)
H2 H 0.9583 0.0915 1.1262
C2 C 1.0758(3) 0.1557(3) 1.0598(2)
F6 F 0.18732(17) -0.1762(2) 0.72960(16)
C3 C 0.5882(3) -0.1675(3) 1.0082(2)
C4 C 0.7617(3) 0.0757(3) 0.6992(2)
H3 H 0.7733 0.1403 0.6537
C5 C 0.6130(3) 0.0340(3) 0.8022(2)
C6 C 0.6362(3) -0.0231(3) 0.8856(2)
H4 H 0.6999 -0.0100 0.9218
C7 C 0.5636(3) -0.1022(3) 0.9172(2)
C8 C 0.6870(3) 0.1224(3) 0.7668(2)
H5 H 0.6466 0.1889 0.7354
C9 C 0.8280(3) -0.0613(3) 0.5854(2)
H6 H 0.8289 -0.0002 0.5360
H7 H 0.8181 -0.1390 0.5541
C10 C 0.9043(3) 0.1252(3) 0.9917(2)
H8 H 0.8365 0.0984 0.9973
C11 C 0.8539(3) 0.1681(3) 0.8196(2)
H9 H 0.8652 0.2391 0.7803
C12 C 0.5159(3) 0.0136(3) 0.7518(2)
C13 C 0.9294(3) 0.1695(3) 0.9063(2)
C14 C 0.4476(3) -0.0665(3) 0.7898(2)
C15 C 1.0268(3) 0.2129(3) 0.9015(2)
H10 H 1.0433 0.2489 0.8449
C16 C 0.7392(3) -0.0376(3) 0.6430(2)
H11 H 0.7309 -0.1046 0.6861
H12 H 0.6749 -0.0288 0.6010
C17 C 0.3186(3) -0.0263(3) 0.6616(3)
H13 H 0.2521 -0.0389 0.6306
C18 C 0.9447(3) 0.0505(3) 0.7057(2)
H14 H 1.0090 0.0453 0.7480
H15 H 0.9485 0.1207 0.6649
C19 C 1.1009(3) 0.2056(3) 0.9765(2)
H16 H 1.1682 0.2341 0.9714
C20 C 0.4809(3) 0.0720(3) 0.6664(2)
H17 H 0.5255 0.1251 0.6390
C21 C 0.9303(3) -0.0606(3) 0.6461(2)
H18 H 0.9343 -0.1307 0.6877
H19 H 0.9865 -0.0663 0.6050
C22 C 0.3487(3) -0.0852(3) 0.7425(2)
C23 C 0.2779(3) -0.1705(4) 0.7817(3)
C24 C 0.3861(3) 0.0537(3) 0.6236(3)
H20 H 0.3643 0.0949 0.5673
loop_
_geom_bond_atom_site_label_1
_geom_bond_atom_site_label_2
_geom_bond_site_symmetry_1
_geom_bond_site_symmetry_2
F1 C3 1_555 1_555
F2 C23 1_555 1_555
F3 C3 1_555 1_555
F4 C3 1_555 1_555
O1 C8 1_555 1_555
F5 C23 1_555 1_555
O2 H1 1_555 1_555
N1 C7 1_555 1_555
N2 C4 1_555 1_555
C1 H2 1_555 1_555
C2 O2 1_555 1_555
F6 C23 1_555 1_555
C3 C7 1_555 1_555
C4 H3 1_555 1_555
C5 C6 1_555 1_555
C6 H4 1_555 1_555
C7 C6 1_555 1_555
C8 C4 1_555 1_555
H5 C8 1_555 1_555
C9 H6 1_555 1_555
H7 C9 1_555 1_555
C10 C1 1_555 1_555
H8 C10 1_555 1_555
C11 O1 1_555 1_555
H9 C11 1_555 1_555
C12 C5 1_555 1_555
C13 C10 1_555 1_555
C14 N1 1_555 1_555
C15 C13 1_555 1_555
H10 C15 1_555 1_555
C16 C4 1_555 1_555
H11 C16 1_555 1_555
H12 C16 1_555 1_555
C17 H13 1_555 1_555
C18 N2 1_555 1_555
H14 C18 1_555 1_555
H15 C18 1_555 1_555
C19 C2 1_555 1_555
H16 C19 1_555 1_555
C20 C12 1_555 1_555
H17 C20 1_555 1_555
C21 C9 1_555 1_555
H18 C21 1_555 1_555
H19 C21 1_555 1_555
C22 C14 1_555 1_555
C23 C22 1_555 1_555
C24 C17 1_555 1_555
H20 C24 1_555 1_555
N2 C11 1_555 1_555
C1 C2 1_555 1_555
C5 C8 1_555 1_555
C9 C16 1_555 1_555
C11 C13 1_555 1_555
C12 C14 1_555 1_555
C15 C19 1_555 1_555
C17 C22 1_555 1_555
C18 C21 1_555 1_555
C20 C24 1_555 1_555

#END
