
#######################################################################
#
#                 Cambridge Crystallographic Data Centre
#                                CCDC 
#
#######################################################################
#
# If this CIF has been generated from an entry in the Cambridge 
# Structural Database, then it will include bibliographic, chemical, 
# crystal, experimental, refinement or atomic coordinate data resulting 
# from the CCDC's data processing and validation procedures.
#
#######################################################################

data_TIPFOP
_chemical_formula_moiety         'C20 H16 N2 O2,2(H2 O1)'
_chemical_name_systematic        
'4-((4-(2-(Pyridin-4-yl)vinyl)pyridinium-1-yl)methyl)benzoate dihydrate'
_symmetry_cell_setting           monoclinic
_symmetry_space_group_name_H-M   'P 21/c'
_symmetry_Int_Tables_number      14
_space_group_name_Hall           '-P 2ybc'
loop_
_symmetry_equiv_pos_site_id
_symmetry_equiv_pos_as_xyz
1 x,y,z
2 -x,1/2+y,1/2-z
3 -x,-y,-z
4 x,1/2-y,1/2+z
_cell_length_a                   7.1164(3)
_cell_length_b                   27.993(4)
_cell_length_c                   9.6322(6)
_cell_angle_alpha                90
_cell_angle_beta                 111.458(12)
_cell_angle_gamma                90
_cell_volume                     1785.82
_exptl_crystal_colour            red
_exptl_crystal_description       needle
_cell_formula_units_Z            4
loop_
_atom_site_label
_atom_site_type_symbol
_atom_site_fract_x
_atom_site_fract_y
_atom_site_fract_z
O1 O 0.4424(3) 0.40029(8) 0.3540(3)
O2 O 0.6849(3) 0.34885(8) 0.3623(3)
N1 N 0.0085(4) 0.15767(8) 0.2609(3)
N2 N 0.4327(5) -0.14351(11) 0.6803(4)
C1 C 0.5077(4) 0.35883(11) 0.3459(3)
C2 C 0.3545(4) 0.31850(10) 0.3081(3)
C3 C 0.1654(5) 0.32390(11) 0.3167(3)
H1 H 0.1298 0.3536 0.3483
C4 C 0.4004(5) 0.27495(11) 0.2599(4)
H2 H 0.5297 0.2703 0.2543
C5 C 0.2611(5) 0.23794(12) 0.2196(5)
H3 H 0.2944 0.2086 0.1845
C6 C 0.0732(5) 0.24363(11) 0.2303(4)
C7 C 0.0267(5) 0.28643(11) 0.2795(4)
H4 H -0.100(6) 0.2909(14) 0.292(4)
C8 C -0.0805(5) 0.20335(12) 0.1864(5)
H5 H -0.130(7) 0.1974(16) 0.075(6)
H6 H -0.200(7) 0.2097(15) 0.217(4)
C9 C 0.0220(5) 0.11953(12) 0.1802(4)
H7 H -0.0203 0.1220 0.0748
C10 C 0.0969(5) 0.07698(12) 0.2501(4)
H8 H 0.1095 0.0504 0.1927
C11 C 0.1541(5) 0.07256(13) 0.4028(4)
C12 C 0.1399(5) 0.11274(13) 0.4824(4)
H9 H 0.1803 0.1112 0.5879
C13 C 0.0687(5) 0.15402(12) 0.4104(4)
H10 H 0.0608 0.1813 0.4666
C14 C 0.2336(7) 0.0269(2) 0.5033(6)
H11 H 0.2727 0.0284 0.6086
C15 C 0.2428(7) -0.0096(3) 0.4424(6)
H12 H 0.2092 -0.0106 0.3375
C16 C 0.3120(5) -0.05593(15) 0.5398(5)
C17 C 0.3187(6) -0.09594(16) 0.4614(5)
H13 H 0.2799 -0.0946 0.3560
C18 C 0.3805(6) -0.13717(15) 0.5340(5)
H14 H 0.3878 -0.1642 0.4764
C19 C 0.4289(6) -0.10465(16) 0.7588(4)
H15 H 0.4685 -0.1074 0.8639
C20 C 0.3694(6) -0.05994(13) 0.6932(5)
H16 H 0.3682 -0.0329 0.7523
O3 O 0.1381(4) 0.04554(11) 0.8976(3)
H17 H 0.2284 0.0630 0.8851
H18 H 0.2001 0.0217 0.9486
O4 O 0.7477(4) 0.03211(9) 0.9106(3)
H19 H 0.8499 0.0471 0.9072
H20 H 0.6558 0.0532 0.8919
loop_
_geom_bond_atom_site_label_1
_geom_bond_atom_site_label_2
_geom_bond_site_symmetry_1
_geom_bond_site_symmetry_2
O1 C1 1_555 1_555
O2 C1 1_555 1_555
N1 C8 1_555 1_555
N2 C18 1_555 1_555
C1 C2 1_555 1_555
C2 C3 1_555 1_555
C3 H1 1_555 1_555
C4 C2 1_555 1_555
H2 C4 1_555 1_555
C5 C4 1_555 1_555
H3 C5 1_555 1_555
C6 C5 1_555 1_555
C7 C3 1_555 1_555
H4 C7 1_555 1_555
C8 C6 1_555 1_555
H5 C8 1_555 1_555
H6 C8 1_555 1_555
C9 N1 1_555 1_555
H7 C9 1_555 1_555
C10 C9 1_555 1_555
H8 C10 1_555 1_555
C11 C10 1_555 1_555
C12 C11 1_555 1_555
H9 C12 1_555 1_555
C13 N1 1_555 1_555
H10 C13 1_555 1_555
C14 C11 1_555 1_555
H11 C14 1_555 1_555
C15 C14 1_555 1_555
H12 C15 1_555 1_555
C16 C15 1_555 1_555
C17 C16 1_555 1_555
H13 C17 1_555 1_555
C18 C17 1_555 1_555
H14 C18 1_555 1_555
C19 N2 1_555 1_555
H15 C19 1_555 1_555
C20 C16 1_555 1_555
H16 C20 1_555 1_555
O3 H17 1_555 1_555
H18 O3 1_555 1_555
O4 H19 1_555 1_555
H20 O4 1_555 1_555
C6 C7 1_555 1_555
C12 C13 1_555 1_555
C19 C20 1_555 1_555

#END
