
#######################################################################
#
#                 Cambridge Crystallographic Data Centre
#                                CCDC 
#
#######################################################################
#
# If this CIF has been generated from an entry in the Cambridge 
# Structural Database, then it will include bibliographic, chemical, 
# crystal, experimental, refinement or atomic coordinate data resulting 
# from the CCDC's data processing and validation procedures.
#
#######################################################################

data_TIPGIL
_chemical_formula_moiety         'C24 H20 O1'
_chemical_name_systematic        
1-(3,4-diphenylcyclopenta-1,3-dien-1-yl)-4-methoxybenzene
_symmetry_cell_setting           orthorhombic
_symmetry_space_group_name_H-M   'P b c a'
_symmetry_Int_Tables_number      61
_space_group_name_Hall           '-P 2ac 2ab'
loop_
_symmetry_equiv_pos_site_id
_symmetry_equiv_pos_as_xyz
1 x,y,z
2 1/2-x,-y,1/2+z
3 -x,1/2+y,1/2-z
4 1/2+x,1/2-y,-z
5 -x,-y,-z
6 1/2+x,y,1/2-z
7 x,1/2-y,1/2+z
8 1/2-x,1/2+y,z
_cell_length_a                   7.3962(15)
_cell_length_b                   20.723(4)
_cell_length_c                   23.358(5)
_cell_angle_alpha                90
_cell_angle_beta                 90
_cell_angle_gamma                90
_cell_volume                     3580.11
_exptl_crystal_colour            colorless
_exptl_crystal_description       block
_cell_formula_units_Z            8
loop_
_atom_site_label
_atom_site_type_symbol
_atom_site_fract_x
_atom_site_fract_y
_atom_site_fract_z
C1 C 0.2137(4) 0.13355(16) 0.31540(13)
C2 C 0.2203(4) 0.17320(16) 0.26350(13)
C3 C 0.2108(4) 0.15150(16) 0.20645(13)
H1 H 0.1936 0.1090 0.1947
C4 C 0.2269(4) 0.20166(15) 0.10534(13)
C5 C 0.2532(4) 0.26119(15) 0.20140(14)
C6 C 0.2164(5) 0.05632(17) 0.41390(14)
O1 O 0.2119(4) 0.01522(14) 0.45971(11)
C7 C 0.2924(4) 0.32888(15) 0.18591(13)
C8 C 0.2947(5) 0.14646(17) 0.07930(15)
H2 H 0.3459 0.1143 0.1018
C9 C 0.2457(5) 0.24148(17) 0.26244(15)
C10 C 0.1428(5) 0.2400(2) 0.01156(15)
H3 H 0.0898 0.2715 -0.0113
C11 C 0.2328(4) 0.20814(15) 0.16836(13)
C12 C 0.2794(5) 0.11887(18) 0.41622(15)
H4 H 0.3238 0.1356 0.4504
C13 C 0.2875(5) 0.13853(19) 0.02086(15)
H5 H 0.3337 0.1012 0.0043
C14 C 0.2083(5) 0.37951(17) 0.21405(16)
H6 H 0.1195 0.3708 0.2412
C15 C 0.1519(5) 0.07012(16) 0.31443(14)
H7 H 0.1095 0.0529 0.2802
C16 C 0.1505(4) 0.24855(17) 0.06994(15)
H8 H 0.1042 0.2861 0.0860
C17 C 0.1519(5) 0.03217(17) 0.36269(15)
H9 H 0.1084 -0.0099 0.3609
C18 C 0.4236(5) 0.34403(16) 0.14543(13)
H10 H 0.4808 0.3111 0.1254
C19 C 0.2760(4) 0.15641(18) 0.36739(14)
H11 H 0.3172 0.1987 0.3696
C20 C 0.2125(5) 0.1853(2) -0.01320(16)
H12 H 0.2090 0.1801 -0.0527
C21 C 0.2541(6) 0.44249(18) 0.20246(17)
H13 H 0.1953 0.4758 0.2216
C22 C 0.4698(5) 0.40713(17) 0.13471(15)
H14 H 0.5592 0.4163 0.1079
C23 C 0.3858(6) 0.45668(18) 0.16296(16)
H15 H 0.4175 0.4993 0.1555
C24 C 0.2657(8) 0.0403(2) 0.51383(17)
H16 H 0.3896 0.0540 0.5119
H17 H 0.2534 0.0073 0.5425
H18 H 0.1905 0.0764 0.5236
H19 H 0.332(8) 0.262(3) 0.288(2)
H20 H 0.164(8) 0.265(3) 0.287(2)
loop_
_geom_bond_atom_site_label_1
_geom_bond_atom_site_label_2
_geom_bond_site_symmetry_1
_geom_bond_site_symmetry_2
C1 C2 1_555 1_555
C2 C3 1_555 1_555
C3 H1 1_555 1_555
C4 C8 1_555 1_555
C5 C7 1_555 1_555
C6 O1 1_555 1_555
O1 C24 1_555 1_555
C7 C14 1_555 1_555
C8 H2 1_555 1_555
C9 C2 1_555 1_555
C10 H3 1_555 1_555
C11 C3 1_555 1_555
C12 C6 1_555 1_555
H4 C12 1_555 1_555
C13 C8 1_555 1_555
H5 C13 1_555 1_555
C14 H6 1_555 1_555
C15 C1 1_555 1_555
H7 C15 1_555 1_555
C16 C4 1_555 1_555
H8 C16 1_555 1_555
C17 C6 1_555 1_555
H9 C17 1_555 1_555
C18 C7 1_555 1_555
H10 C18 1_555 1_555
C19 C1 1_555 1_555
H11 C19 1_555 1_555
C20 C10 1_555 1_555
H12 C20 1_555 1_555
C21 C14 1_555 1_555
H13 C21 1_555 1_555
C22 C18 1_555 1_555
H14 C22 1_555 1_555
C23 C21 1_555 1_555
H15 C23 1_555 1_555
C24 H16 1_555 1_555
H17 C24 1_555 1_555
H18 C24 1_555 1_555
H19 C9 1_555 1_555
H20 C9 1_555 1_555
C4 C11 1_555 1_555
C5 C9 1_555 1_555
C5 C11 1_555 1_555
C10 C16 1_555 1_555
C12 C19 1_555 1_555
C13 C20 1_555 1_555
C15 C17 1_555 1_555
C22 C23 1_555 1_555

#END
