
#######################################################################
#
#                 Cambridge Crystallographic Data Centre
#                                CCDC 
#
#######################################################################
#
# If this CIF has been generated from an entry in the Cambridge 
# Structural Database, then it will include bibliographic, chemical, 
# crystal, experimental, refinement or atomic coordinate data resulting 
# from the CCDC's data processing and validation procedures.
#
#######################################################################

data_TIPJIO
_chemical_formula_moiety         'C16 H15 Br1 N4 O2'
_chemical_name_systematic        
1,1'-[2-(2-bromo-4,5-dimethoxyphenyl)ethene-1,1-diyl]bis(1H-pyrazole)
_symmetry_cell_setting           monoclinic
_symmetry_space_group_name_H-M   'P 21/n'
_symmetry_Int_Tables_number      14
_space_group_name_Hall           '-P 2yn'
loop_
_symmetry_equiv_pos_site_id
_symmetry_equiv_pos_as_xyz
1 x,y,z
2 1/2-x,1/2+y,1/2-z
3 -x,-y,-z
4 1/2+x,1/2-y,1/2+z
_cell_length_a                   9.0450(6)
_cell_length_b                   9.5660(5)
_cell_length_c                   18.9448(12)
_cell_angle_alpha                90
_cell_angle_beta                 90.971(2)
_cell_angle_gamma                90
_cell_volume                     1638.95
_exptl_crystal_colour            colorless
_exptl_crystal_description       chunk
_cell_formula_units_Z            4
loop_
_atom_site_label
_atom_site_type_symbol
_atom_site_fract_x
_atom_site_fract_y
_atom_site_fract_z
C1 C 0.9419(5) 0.3878(4) 0.3239(2)
H1 H 1.0362 0.3615 0.3103
C2 C 0.9073(5) 0.3730(4) 0.3989(2)
C3 C 0.8139(5) 0.4699(5) 0.4320(2)
H2 H 0.7715 0.5411 0.4051
C4 C 0.7831(5) 0.4627(4) 0.5027(2)
C5 C 0.8469(5) 0.3567(5) 0.5444(2)
C6 C 0.9374(5) 0.2593(5) 0.5133(2)
H3 H 0.9789 0.1874 0.5400
C7 C 0.9664(5) 0.2693(4) 0.4412(2)
C8 C 0.6217(6) 0.6576(5) 0.4973(3)
H4 H 0.6932 0.7180 0.4761
H5 H 0.5589 0.7115 0.5273
H6 H 0.5628 0.6137 0.4609
C9 C 0.8903(7) 0.2694(6) 0.6615(2)
H7 H 0.8622 0.1747 0.6512
H8 H 0.8648 0.2918 0.7091
H9 H 0.9951 0.2797 0.6559
C10 C 0.8526(5) 0.4346(4) 0.2745(2)
C11 C 1.0319(8) 0.4797(8) 0.1163(3)
H10 H 1.1156 0.4827 0.0884
C12 C 0.8923(7) 0.5005(7) 0.0903(3)
H11 H 0.8639 0.5202 0.0439
C13 C 0.8043(6) 0.4862(6) 0.1467(3)
H12 H 0.7017 0.4934 0.1467
C14 C 0.5102(7) 0.5836(7) 0.3007(3)
H13 H 0.4457 0.6588 0.3046
C15 C 0.4705(6) 0.4460(7) 0.3120(3)
H14 H 0.3778 0.4127 0.3243
C16 C 0.5952(5) 0.3692(5) 0.3014(2)
H15 H 0.6051 0.2727 0.3051
N1 N 0.8937(4) 0.4593(4) 0.20346(19)
N2 N 1.0370(5) 0.4546(6) 0.1855(2)
N3 N 0.7011(4) 0.4616(4) 0.28448(18)
N4 N 0.6501(5) 0.5957(4) 0.2837(2)
O1 O 0.6954(4) 0.5540(3) 0.53784(16)
O2 O 0.8145(4) 0.3614(4) 0.61419(16)
Br1 Br 1.09121(7) 0.13120(6) 0.40174(3)
loop_
_geom_bond_atom_site_label_1
_geom_bond_atom_site_label_2
_geom_bond_site_symmetry_1
_geom_bond_site_symmetry_2
C1 H1 1_555 1_555
C2 C1 1_555 1_555
C3 C2 1_555 1_555
H2 C3 1_555 1_555
C4 C3 1_555 1_555
C5 C4 1_555 1_555
C6 C5 1_555 1_555
H3 C6 1_555 1_555
C7 C2 1_555 1_555
C8 H4 1_555 1_555
H5 C8 1_555 1_555
H6 C8 1_555 1_555
C9 H7 1_555 1_555
H8 C9 1_555 1_555
H9 C9 1_555 1_555
C10 C1 1_555 1_555
C11 H10 1_555 1_555
C12 C11 1_555 1_555
H11 C12 1_555 1_555
C13 C12 1_555 1_555
H12 C13 1_555 1_555
C14 H13 1_555 1_555
C15 C14 1_555 1_555
H14 C15 1_555 1_555
C16 C15 1_555 1_555
H15 C16 1_555 1_555
N1 C10 1_555 1_555
N2 C11 1_555 1_555
N3 C10 1_555 1_555
N4 C14 1_555 1_555
O1 C4 1_555 1_555
O2 C5 1_555 1_555
Br1 C7 1_555 1_555
C6 C7 1_555 1_555
C8 O1 1_555 1_555
C9 O2 1_555 1_555
C13 N1 1_555 1_555
C16 N3 1_555 1_555
N1 N2 1_555 1_555
N3 N4 1_555 1_555

#END
