
#######################################################################
#
#                 Cambridge Crystallographic Data Centre
#                                CCDC 
#
#######################################################################
#
# If this CIF has been generated from an entry in the Cambridge 
# Structural Database, then it will include bibliographic, chemical, 
# crystal, experimental, refinement or atomic coordinate data resulting 
# from the CCDC's data processing and validation procedures.
#
#######################################################################

data_TIPJOT
_chemical_formula_moiety         'C25 H19 F1 O4'
_chemical_name_systematic        
'Methyl 6-fluoro-1-hydroxy-8-methoxy-3,4-diphenyl-2-naphthoate'
_symmetry_cell_setting           monoclinic
_symmetry_space_group_name_H-M   'P 21/c'
_symmetry_Int_Tables_number      14
_space_group_name_Hall           '-P 2ybc'
loop_
_symmetry_equiv_pos_site_id
_symmetry_equiv_pos_as_xyz
1 x,y,z
2 -x,1/2+y,1/2-z
3 -x,-y,-z
4 x,1/2-y,1/2+z
_cell_length_a                   6.1889(8)
_cell_length_b                   20.382(3)
_cell_length_c                   14.951(2)
_cell_angle_alpha                90
_cell_angle_beta                 98.036(3)
_cell_angle_gamma                90
_cell_volume                     1867.43
_exptl_crystal_colour            colorless
_exptl_crystal_description       Block
_cell_formula_units_Z            4
loop_
_atom_site_label
_atom_site_type_symbol
_atom_site_fract_x
_atom_site_fract_y
_atom_site_fract_z
F1 F 0.16009(13) 0.59012(4) 0.47295(6)
O1 O 0.82763(17) 0.44630(5) 0.77628(7)
H1 H 0.686(4) 0.4261(11) 0.7514(16)
O2 O 1.10160(16) 0.56002(5) 0.92801(6)
O3 O 1.27750(16) 0.48742(5) 0.85062(7)
O4 O 0.46920(16) 0.42432(4) 0.67327(7)
C1 C 0.8199(2) 0.50725(6) 0.73876(9)
C2 C 0.9796(2) 0.55101(6) 0.77350(9)
C3 C 0.9855(2) 0.61610(6) 0.73970(9)
C4 C 0.8282(2) 0.63611(6) 0.66952(9)
C5 C 0.6579(2) 0.59177(6) 0.63389(8)
C6 C 0.6505(2) 0.52688(6) 0.66924(8)
C7 C 0.4676(2) 0.48602(6) 0.63731(9)
C8 C 0.3015(2) 0.50798(7) 0.57412(9)
H2 H 0.1771 0.4815 0.5552
C9 C 0.3219(2) 0.57052(7) 0.53866(9)
C10 C 0.4906(2) 0.61216(6) 0.56460(9)
H3 H 0.4965 0.6540 0.5370
C11 C 1.1389(2) 0.52831(6) 0.85296(9)
C12 C 1.2599(2) 0.54718(7) 1.00705(9)
H4 H 1.2666 0.4999 1.0190
H5 H 1.2163 0.5701 1.0593
H6 H 1.4038 0.5628 0.9963
C13 C 0.8272(2) 0.70464(6) 0.63289(9)
C14 C 0.6597(2) 0.74826(7) 0.64527(9)
H7 H 0.5411 0.7337 0.6742
C15 C 0.6656(2) 0.81271(7) 0.61560(9)
H8 H 0.5517 0.8421 0.6247
C16 C 0.8375(2) 0.83428(7) 0.57268(10)
H9 H 0.8422 0.8786 0.5532
C17 C 1.0028(2) 0.79094(7) 0.55824(10)
H10 H 1.1189 0.8053 0.5277
C18 C 0.9979(2) 0.72660(7) 0.58848(9)
H11 H 1.1117 0.6972 0.5789
C19 C 1.1599(2) 0.66078(6) 0.78488(8)
C20 C 1.1112(2) 0.72276(7) 0.81634(9)
H12 H 0.9667 0.7393 0.8036
C21 C 1.2722(2) 0.76055(7) 0.86612(10)
H13 H 1.2375 0.8029 0.8866
C22 C 1.4835(2) 0.73662(7) 0.88605(10)
H14 H 1.5920 0.7619 0.9218
C23 C 1.5356(2) 0.67587(7) 0.85372(9)
H15 H 1.6806 0.6597 0.8666
C24 C 1.3759(2) 0.63852(6) 0.80241(9)
H16 H 1.4136 0.5974 0.7790
C25 C 0.2676(2) 0.38819(7) 0.66154(10)
H17 H 0.1529 0.4147 0.6827
H18 H 0.2864 0.3474 0.6965
H19 H 0.2263 0.3778 0.5974
loop_
_geom_bond_atom_site_label_1
_geom_bond_atom_site_label_2
_geom_bond_site_symmetry_1
_geom_bond_site_symmetry_2
F1 C9 1_555 1_555
O1 H1 1_555 1_555
O2 C11 1_555 1_555
O3 C11 1_555 1_555
O4 C7 1_555 1_555
C1 O1 1_555 1_555
C2 C1 1_555 1_555
C3 C2 1_555 1_555
C4 C3 1_555 1_555
C5 C4 1_555 1_555
C6 C1 1_555 1_555
C7 C6 1_555 1_555
C8 C7 1_555 1_555
H2 C8 1_555 1_555
C9 C8 1_555 1_555
C10 C5 1_555 1_555
H3 C10 1_555 1_555
C11 C2 1_555 1_555
C12 O2 1_555 1_555
H4 C12 1_555 1_555
H5 C12 1_555 1_555
H6 C12 1_555 1_555
C13 C4 1_555 1_555
C14 C13 1_555 1_555
H7 C14 1_555 1_555
C15 C14 1_555 1_555
H8 C15 1_555 1_555
C16 C15 1_555 1_555
H9 C16 1_555 1_555
C17 C16 1_555 1_555
H10 C17 1_555 1_555
C18 C13 1_555 1_555
H11 C18 1_555 1_555
C19 C3 1_555 1_555
C20 C19 1_555 1_555
H12 C20 1_555 1_555
C21 C20 1_555 1_555
H13 C21 1_555 1_555
C22 C21 1_555 1_555
H14 C22 1_555 1_555
C23 C22 1_555 1_555
H15 C23 1_555 1_555
C24 C19 1_555 1_555
H16 C24 1_555 1_555
C25 O4 1_555 1_555
H17 C25 1_555 1_555
H18 C25 1_555 1_555
H19 C25 1_555 1_555
C5 C6 1_555 1_555
C9 C10 1_555 1_555
C17 C18 1_555 1_555
C23 C24 1_555 1_555

#END
