
#######################################################################
#
#                 Cambridge Crystallographic Data Centre
#                                CCDC 
#
#######################################################################
#
# If this CIF has been generated from an entry in the Cambridge 
# Structural Database, then it will include bibliographic, chemical, 
# crystal, experimental, refinement or atomic coordinate data resulting 
# from the CCDC's data processing and validation procedures.
#
#######################################################################

data_TIPQOA
_chemical_formula_moiety         'C21 H19 N5'
_chemical_name_systematic        
(5,5-Dimethyl-3-(2-(4-(1H-1,2,4-triazol-1-yl)phenyl)vinyl)cyclohex-2-en-1-ylidene)malononitrile
_symmetry_cell_setting           monoclinic
_symmetry_space_group_name_H-M   'P 21/c'
_symmetry_Int_Tables_number      14
_space_group_name_Hall           '-P 2ybc'
loop_
_symmetry_equiv_pos_site_id
_symmetry_equiv_pos_as_xyz
1 x,y,z
2 -x,1/2+y,1/2-z
3 -x,-y,-z
4 x,1/2-y,1/2+z
_cell_length_a                   6.439(5)
_cell_length_b                   7.222(5)
_cell_length_c                   39.313(5)
_cell_angle_alpha                90
_cell_angle_beta                 90.207(5)
_cell_angle_gamma                90
_cell_volume                     1828.14
_cell_formula_units_Z            4
loop_
_atom_site_label
_atom_site_type_symbol
_atom_site_fract_x
_atom_site_fract_y
_atom_site_fract_z
N1 N -0.3694(4) 0.1074(4) 0.77301(7)
C1 C -0.2471(5) 0.1073(4) 0.74286(8)
C2 C -0.0051(5) 0.1190(5) 0.68418(8)
N2 N -0.4815(5) 0.0875(5) 0.82571(7)
C3 C -0.0513(5) 0.0275(5) 0.74288(8)
H1 H -0.0002 -0.0299 0.7624
C4 C 0.4052(5) 0.0454(5) 0.61472(8)
C5 C 0.6909(5) -0.0774(5) 0.58004(8)
C6 C 0.0667(5) 0.0339(5) 0.71383(8)
H2 H 0.1978 -0.0201 0.7139
C7 C 0.3426(6) 0.1773(5) 0.58691(9)
H3 H 0.3036 0.2944 0.5971
H4 H 0.2209 0.1280 0.5754
C8 C 0.5109(6) 0.2132(5) 0.56045(9)
C9 C 0.5700(6) -0.0708(5) 0.61053(9)
H5 H 0.6057 -0.1495 0.6283
C10 C -0.2031(5) 0.1978(5) 0.68517(9)
H6 H -0.2550 0.2563 0.6659
C11 C -0.3230(5) 0.1911(5) 0.71391(8)
H7 H -0.4551 0.2430 0.7138
N3 N -0.5667(5) 0.1754(5) 0.77230(8)
C12 C 0.1170(5) 0.1314(5) 0.65298(8)
H8 H 0.0707 0.2143 0.6365
C13 C 0.6112(6) 0.0295(5) 0.54996(9)
H9 H 0.5098 -0.0451 0.5379
H10 H 0.7254 0.0543 0.5346
C14 C 0.2887(6) 0.0354(5) 0.64582(9)
H11 H 0.3373 -0.0454 0.6625
C15 C -0.3234(6) 0.0571(5) 0.80523(9)
H12 H -0.1967 0.0076 0.8121
C16 C 0.8662(5) -0.1824(5) 0.57850(9)
C17 C 0.9388(6) -0.2916(6) 0.60688(10)
C18 C 0.9921(6) -0.1954(6) 0.54865(10)
N4 N 0.9920(6) -0.3793(6) 0.62954(10)
N5 N 1.0953(6) -0.2058(7) 0.52535(10)
C19 C -0.6228(6) 0.1575(6) 0.80424(10)
H13 H -0.7545 0.1918 0.8116
C20 C 0.4104(8) 0.3024(7) 0.52912(11)
H14 H 0.5127 0.3170 0.5116
H15 H 0.3554 0.4214 0.5351
H16 H 0.3001 0.2246 0.5209
C21 C 0.6766(8) 0.3438(6) 0.57512(13)
H17 H 0.7340 0.2908 0.5955
H18 H 0.6144 0.4612 0.5804
H19 H 0.7849 0.3612 0.5587
loop_
_geom_bond_atom_site_label_1
_geom_bond_atom_site_label_2
_geom_bond_site_symmetry_1
_geom_bond_site_symmetry_2
N1 C1 1_555 1_555
C1 C3 1_555 1_555
C2 C6 1_555 1_555
N2 C15 1_555 1_555
C3 H1 1_555 1_555
C4 C7 1_555 1_555
C5 C9 1_555 1_555
C6 C3 1_555 1_555
H2 C6 1_555 1_555
C7 H3 1_555 1_555
H4 C7 1_555 1_555
C8 C7 1_555 1_555
C9 C4 1_555 1_555
H5 C9 1_555 1_555
C10 C2 1_555 1_555
H6 C10 1_555 1_555
C11 C1 1_555 1_555
H7 C11 1_555 1_555
N3 N1 1_555 1_555
C12 C2 1_555 1_555
H8 C12 1_555 1_555
C13 C5 1_555 1_555
H9 C13 1_555 1_555
H10 C13 1_555 1_555
C14 C4 1_555 1_555
H11 C14 1_555 1_555
C15 N1 1_555 1_555
H12 C15 1_555 1_555
C16 C5 1_555 1_555
C17 C16 1_555 1_555
C18 C16 1_555 1_555
N4 C17 1_555 1_555
N5 C18 1_555 1_555
C19 N2 1_555 1_555
H13 C19 1_555 1_555
C20 C8 1_555 1_555
H14 C20 1_555 1_555
H15 C20 1_555 1_555
H16 C20 1_555 1_555
C21 C8 1_555 1_555
H17 C21 1_555 1_555
H18 C21 1_555 1_555
H19 C21 1_555 1_555
C8 C13 1_555 1_555
C10 C11 1_555 1_555
N3 C19 1_555 1_555
C12 C14 1_555 1_555

#END
