
#######################################################################
#
#                 Cambridge Crystallographic Data Centre
#                                CCDC 
#
#######################################################################
#
# If this CIF has been generated from an entry in the Cambridge 
# Structural Database, then it will include bibliographic, chemical, 
# crystal, experimental, refinement or atomic coordinate data resulting 
# from the CCDC's data processing and validation procedures.
#
#######################################################################

data_TIPREQ01
_chemical_name_common            
(S,S)-2,6-Diphenylbicyclo[3.3.0]octa-2,6-diene
_chemical_formula_moiety         'C20 H18'
_chemical_name_systematic        
(S,S)-3,6-Diphenyl-1,3a,4,6a-tetrahydropentalene
_symmetry_cell_setting           orthorhombic
_symmetry_space_group_name_H-M   'P 21 21 21'
_symmetry_Int_Tables_number      19
_space_group_name_Hall           'P 2ac 2ab'
loop_
_symmetry_equiv_pos_site_id
_symmetry_equiv_pos_as_xyz
1 x,y,z
2 1/2-x,-y,1/2+z
3 -x,1/2+y,1/2-z
4 1/2+x,1/2-y,-z
_cell_length_a                   5.3180(6)
_cell_length_b                   13.1826(14)
_cell_length_c                   20.997(2)
_cell_angle_alpha                90
_cell_angle_beta                 90
_cell_angle_gamma                90
_cell_volume                     1472
_exptl_crystal_colour            colorless
_cell_formula_units_Z            4
loop_
_atom_site_label
_atom_site_type_symbol
_atom_site_fract_x
_atom_site_fract_y
_atom_site_fract_z
C1 C 0.8376(4) 0.23624(14) 0.73352(11)
C2 C 0.6810(6) 0.31612(17) 0.69755(13)
C3 C 0.6489(5) 0.27068(16) 0.63367(12)
C4 C 0.7863(4) 0.18861(13) 0.62362(10)
C5 C 0.9377(5) 0.16171(15) 0.68162(10)
C6 C 0.8864(6) 0.05538(15) 0.70774(12)
C7 C 0.7122(5) 0.07349(16) 0.76119(10)
C8 C 0.6825(4) 0.16932(14) 0.77668(9)
C9 C 0.5266(4) 0.21048(14) 0.82858(9)
C10 C 0.5810(5) 0.30192(16) 0.85737(12)
C11 C 0.4380(6) 0.3385(2) 0.90809(12)
C12 C 0.2420(6) 0.2842(2) 0.93007(14)
C13 C 0.1813(5) 0.1943(2) 0.90206(13)
C14 C 0.3212(5) 0.15823(18) 0.85173(12)
C15 C 0.8000(4) 0.13026(13) 0.56389(10)
C16 C 0.6195(5) 0.13990(19) 0.51604(13)
C17 C 0.6336(6) 0.0846(2) 0.46052(13)
C18 C 0.8282(6) 0.01839(19) 0.45116(12)
C19 C 1.0095(5) 0.00872(18) 0.49673(12)
C20 C 0.9952(5) 0.06375(16) 0.55238(12)
H1 H 0.970(4) 0.2667(13) 0.7598(9)
H2 H 0.520(5) 0.3284(14) 0.7200(8)
H3 H 0.779(4) 0.3799(16) 0.6967(8)
H4 H 0.545(4) 0.2991(12) 0.6027(8)
H5 H 1.116(4) 0.1695(12) 0.6726(7)
H6 H 0.817(3) 0.0064(12) 0.6739(7)
H7 H 1.028(4) 0.0175(15) 0.7176(8)
H8 H 0.633(3) 0.0210(13) 0.7838(7)
H9 H 0.725(3) 0.3380(13) 0.8426(7)
H10 H 0.504(4) 0.3987(15) 0.9242(9)
H11 H 0.132(4) 0.3082(16) 0.9648(10)
H12 H 0.037(5) 0.1555(15) 0.9186(9)
H13 H 0.282(3) 0.1002(13) 0.8312(7)
H14 H 0.484(4) 0.1822(14) 0.5263(8)
H15 H 0.498(4) 0.0947(13) 0.4290(9)
H16 H 0.833(4) -0.0221(13) 0.4117(9)
H17 H 1.154(4) -0.0386(15) 0.4901(8)
H18 H 1.123(4) 0.0562(13) 0.5832(8)
loop_
_geom_bond_atom_site_label_1
_geom_bond_atom_site_label_2
_geom_bond_site_symmetry_1
_geom_bond_site_symmetry_2
C1 C2 1_555 1_555
C2 C3 1_555 1_555
C3 C4 1_555 1_555
C4 C5 1_555 1_555
C5 C1 1_555 1_555
C6 C5 1_555 1_555
C7 C6 1_555 1_555
C8 C1 1_555 1_555
C9 C8 1_555 1_555
C10 C9 1_555 1_555
C11 C10 1_555 1_555
C12 C11 1_555 1_555
C13 C12 1_555 1_555
C14 C9 1_555 1_555
C15 C4 1_555 1_555
C16 C15 1_555 1_555
C17 C16 1_555 1_555
C18 C17 1_555 1_555
C19 C18 1_555 1_555
C20 C15 1_555 1_555
H1 C1 1_555 1_555
H2 C2 1_555 1_555
H3 C2 1_555 1_555
H4 C3 1_555 1_555
H5 C5 1_555 1_555
H6 C6 1_555 1_555
H7 C6 1_555 1_555
H8 C7 1_555 1_555
H9 C10 1_555 1_555
H10 C11 1_555 1_555
H11 C12 1_555 1_555
H12 C13 1_555 1_555
H13 C14 1_555 1_555
H14 C16 1_555 1_555
H15 C17 1_555 1_555
H16 C18 1_555 1_555
H17 C19 1_555 1_555
H18 C20 1_555 1_555
C7 C8 1_555 1_555
C13 C14 1_555 1_555
C19 C20 1_555 1_555

#END
