
#######################################################################
#
#                 Cambridge Crystallographic Data Centre
#                                CCDC 
#
#######################################################################
#
# If this CIF has been generated from an entry in the Cambridge 
# Structural Database, then it will include bibliographic, chemical, 
# crystal, experimental, refinement or atomic coordinate data resulting 
# from the CCDC's data processing and validation procedures.
#
#######################################################################

data_TIPROB
_chemical_formula_moiety         'C12 H11 N1 O2 S2'
_chemical_name_systematic        
(R)-2-((1,3-Benzothiazol-2-ylsulfanyl)methyl)but-3-yne-1,2-diol
_symmetry_cell_setting           monoclinic
_symmetry_space_group_name_H-M   'P 21'
_symmetry_Int_Tables_number      4
_space_group_name_Hall           'P 2yb'
loop_
_symmetry_equiv_pos_site_id
_symmetry_equiv_pos_as_xyz
1 x,y,z
2 -x,1/2+y,-z
_cell_length_a                   5.09590(10)
_cell_length_b                   13.5245(3)
_cell_length_c                   8.6912(2)
_cell_angle_alpha                90
_cell_angle_beta                 90.884(2)
_cell_angle_gamma                90
_cell_volume                     598.922
_exptl_crystal_colour            colorless
_exptl_crystal_description       block
_cell_formula_units_Z            2
loop_
_atom_site_label
_atom_site_type_symbol
_atom_site_fract_x
_atom_site_fract_y
_atom_site_fract_z
S1 S 0.62668(11) 0.23349(5) -0.11441(7)
S2 S 0.27956(11) 0.34284(5) 0.10062(7)
O1 O 0.5137(4) 0.26074(16) 0.4548(2)
H1 H 0.5340 0.2298 0.3720
O2 O 0.0089(4) 0.23638(18) 0.5835(2)
H2 H -0.1484 0.2424 0.5548
C1 C 0.5030(5) 0.2476(2) 0.0692(3)
N1 N 0.5969(4) 0.18763(19) 0.1747(3)
C2 C 0.7842(5) 0.1258(2) 0.1124(3)
C3 C 0.8319(5) 0.1408(2) -0.0445(3)
C4 C 1.0235(5) 0.0869(2) -0.1212(4)
H3 H 1.0506 0.0958 -0.2282
C5 C 1.1721(5) 0.0206(2) -0.0370(4)
H4 H 1.3071 -0.0155 -0.0861
C6 C 1.1269(6) 0.0055(2) 0.1208(4)
H5 H 1.2315 -0.0408 0.1763
C7 C 0.9331(6) 0.0569(2) 0.1960(4)
H6 H 0.9017 0.0458 0.3021
C8 C 0.1483(5) 0.3145(2) 0.2875(3)
H7 H -0.0169 0.3522 0.2980
H8 H 0.1009 0.2435 0.2876
C9 C 0.3182(4) 0.3343(2) 0.4336(3)
C10 C 0.1358(5) 0.3285(2) 0.5740(3)
H9 H 0.2406 0.3398 0.6692
H10 H 0.0023 0.3815 0.5660
C11 C 0.4351(5) 0.4340(2) 0.4319(4)
C12 C 0.5264(7) 0.5159(3) 0.4375(4)
H11 H 0.5985 0.5806 0.4419
loop_
_geom_bond_atom_site_label_1
_geom_bond_atom_site_label_2
_geom_bond_site_symmetry_1
_geom_bond_site_symmetry_2
S1 C1 1_555 1_555
S2 C1 1_555 1_555
O1 H1 1_555 1_555
O2 H2 1_555 1_555
C1 N1 1_555 1_555
N1 C2 1_555 1_555
C2 C3 1_555 1_555
C3 S1 1_555 1_555
C4 C3 1_555 1_555
H3 C4 1_555 1_555
C5 C4 1_555 1_555
H4 C5 1_555 1_555
C6 C5 1_555 1_555
H5 C6 1_555 1_555
C7 C2 1_555 1_555
H6 C7 1_555 1_555
C8 S2 1_555 1_555
H7 C8 1_555 1_555
H8 C8 1_555 1_555
C9 O1 1_555 1_555
C10 O2 1_555 1_555
H9 C10 1_555 1_555
H10 C10 1_555 1_555
C11 C9 1_555 1_555
C12 C11 1_555 1_555
H11 C12 1_555 1_555
C6 C7 1_555 1_555
C8 C9 1_555 1_555
C9 C10 1_555 1_555

#END
