
#######################################################################
#
#                 Cambridge Crystallographic Data Centre
#                                CCDC 
#
#######################################################################
#
# If this CIF has been generated from an entry in the Cambridge 
# Structural Database, then it will include bibliographic, chemical, 
# crystal, experimental, refinement or atomic coordinate data resulting 
# from the CCDC's data processing and validation procedures.
#
#######################################################################

data_TIPSAP
_chemical_formula_moiety         'C12 H16 O2'
_chemical_name_systematic        
(pentacyclo[4.4.0.0^2,5^.0^3,8^.0^4,7^]decane-9,10-diyl)dimethanol
_symmetry_cell_setting           monoclinic
_symmetry_space_group_name_H-M   'P 21/c'
_symmetry_Int_Tables_number      14
_space_group_name_Hall           '-P 2ybc'
loop_
_symmetry_equiv_pos_site_id
_symmetry_equiv_pos_as_xyz
1 x,y,z
2 -x,1/2+y,1/2-z
3 -x,-y,-z
4 x,1/2-y,1/2+z
_cell_length_a                   6.3157(11)
_cell_length_b                   31.086(4)
_cell_length_c                   10.009(2)
_cell_angle_alpha                90
_cell_angle_beta                 105.132(6)
_cell_angle_gamma                90
_cell_volume                     1896.93
_exptl_crystal_colour            colorless
_exptl_crystal_description       block
_cell_formula_units_Z            8
loop_
_atom_site_label
_atom_site_type_symbol
_atom_site_fract_x
_atom_site_fract_y
_atom_site_fract_z
O1 O 0.49817(14) 0.33534(3) 0.82444(10)
H1 H 0.4700 0.3173 0.7627
O2 O -0.08999(15) 0.34573(3) 0.98038(10)
H2 H -0.2166 0.3416 0.9351
C1 C 0.3009(2) 0.34729(4) 0.85990(13)
H3 H 0.3365 0.3555 0.9567
H4 H 0.2039 0.3226 0.8480
C2 C -0.02162(19) 0.40120(4) 0.81814(13)
H5 H -0.1538 0.3898 0.7534
C3 C 0.1817(2) 0.38447(4) 0.77179(12)
H6 H 0.1259 0.3733 0.6776
C4 C -0.0314(2) 0.38941(4) 0.96503(13)
H7 H 0.1109 0.3950 1.0283
H8 H -0.1371 0.4080 0.9914
C5 C -0.0308(2) 0.45031(4) 0.80837(14)
H9 H -0.1683 0.4608 0.8245
C6 C 0.3841(2) 0.45765(4) 0.87464(15)
H10 H 0.5172 0.4560 0.9512
C7 C 0.3344(2) 0.42192(4) 0.76273(14)
H11 H 0.4712 0.4111 0.7464
C8 C 0.1658(2) 0.47491(4) 0.90143(14)
H12 H 0.1622 0.4840 0.9946
C9 C 0.0173(2) 0.47413(4) 0.68404(15)
H13 H -0.1042 0.4827 0.6057
C10 C 0.1488(2) 0.50914(4) 0.78467(16)
H14 H 0.1068 0.5394 0.7886
C11 C 0.3660(2) 0.49240(4) 0.75887(16)
H15 H 0.4862 0.5102 0.7443
C12 C 0.2367(2) 0.45744(4) 0.65751(15)
H16 H 0.2522 0.4557 0.5628
O3 O 1.03966(15) 0.23661(3) 0.53485(9)
H17 H 1.0245 0.2105 0.5250
O4 O 0.42988(15) 0.27515(3) 0.62881(10)
H18 H 0.3169 0.2610 0.6038
C13 C 0.7066(2) 0.30834(4) 0.53719(13)
H19 H 0.7919 0.3129 0.6330
C14 C 0.9208(2) 0.25791(4) 0.41022(13)
H20 H 0.7856 0.2426 0.3697
H21 H 1.0082 0.2582 0.3436
C15 C 0.5616(2) 0.26882(4) 0.53366(13)
H22 H 0.4681 0.2647 0.4409
H23 H 0.6521 0.2434 0.5593
C16 C 0.8695(2) 0.30375(4) 0.44474(13)
H24 H 1.0086 0.3162 0.4978
C17 C 0.4088(2) 0.34612(4) 0.34291(14)
H25 H 0.2594 0.3348 0.3271
C18 C 0.5470(2) 0.33566(4) 0.23820(13)
H26 H 0.4841 0.3177 0.1570
C19 C 0.5809(2) 0.38521(4) 0.21990(14)
H27 H 0.5699 0.4002 0.1321
C20 C 0.7930(2) 0.33136(4) 0.31474(13)
H28 H 0.8791 0.3247 0.2489
C21 C 0.5608(2) 0.34781(4) 0.49068(14)
H29 H 0.4758 0.3541 0.5574
C22 C 0.6572(3) 0.38994(4) 0.44711(14)
H30 H 0.7031 0.4132 0.5144
C23 C 0.4461(2) 0.39532(4) 0.32470(15)
H31 H 0.3356 0.4180 0.3157
C24 C 0.7928(2) 0.38005(4) 0.34065(14)
H32 H 0.9233 0.3972 0.3412
loop_
_geom_bond_atom_site_label_1
_geom_bond_atom_site_label_2
_geom_bond_site_symmetry_1
_geom_bond_site_symmetry_2
O1 H1 1_555 1_555
O2 H2 1_555 1_555
C1 O1 1_555 1_555
H3 C1 1_555 1_555
H4 C1 1_555 1_555
C2 H5 1_555 1_555
C3 C1 1_555 1_555
H6 C3 1_555 1_555
C4 O2 1_555 1_555
H7 C4 1_555 1_555
H8 C4 1_555 1_555
C5 C2 1_555 1_555
H9 C5 1_555 1_555
C6 H10 1_555 1_555
C7 C3 1_555 1_555
H11 C7 1_555 1_555
C8 C5 1_555 1_555
H12 C8 1_555 1_555
C9 C5 1_555 1_555
H13 C9 1_555 1_555
C10 C8 1_555 1_555
H14 C10 1_555 1_555
C11 C6 1_555 1_555
H15 C11 1_555 1_555
C12 C7 1_555 1_555
H16 C12 1_555 1_555
O3 H17 1_555 1_555
O4 H18 1_555 1_555
C13 H19 1_555 1_555
C14 O3 1_555 1_555
H20 C14 1_555 1_555
H21 C14 1_555 1_555
C15 O4 1_555 1_555
H22 C15 1_555 1_555
H23 C15 1_555 1_555
C16 C13 1_555 1_555
H24 C16 1_555 1_555
C17 H25 1_555 1_555
C18 C17 1_555 1_555
H26 C18 1_555 1_555
C19 C18 1_555 1_555
H27 C19 1_555 1_555
C20 C16 1_555 1_555
H28 C20 1_555 1_555
C21 C13 1_555 1_555
H29 C21 1_555 1_555
C22 C21 1_555 1_555
H30 C22 1_555 1_555
C23 C17 1_555 1_555
H31 C23 1_555 1_555
C24 C19 1_555 1_555
H32 C24 1_555 1_555
C2 C3 1_555 1_555
C2 C4 1_555 1_555
C6 C7 1_555 1_555
C6 C8 1_555 1_555
C9 C10 1_555 1_555
C9 C12 1_555 1_555
C10 C11 1_555 1_555
C11 C12 1_555 1_555
C13 C15 1_555 1_555
C14 C16 1_555 1_555
C17 C21 1_555 1_555
C18 C20 1_555 1_555
C19 C23 1_555 1_555
C20 C24 1_555 1_555
C22 C23 1_555 1_555
C22 C24 1_555 1_555

#END
