
#######################################################################
#
#                 Cambridge Crystallographic Data Centre
#                                CCDC 
#
#######################################################################
#
# If this CIF has been generated from an entry in the Cambridge 
# Structural Database, then it will include bibliographic, chemical, 
# crystal, experimental, refinement or atomic coordinate data resulting 
# from the CCDC's data processing and validation procedures.
#
#######################################################################

data_TIPSIW
_chemical_formula_moiety         'C13 H16 B1 F2 N3'
_chemical_name_systematic        
(N-(bis(1H-pyrrol-2-yl)methylene)-2-methylpropan-1-aminiumato)-difluoro-boron
_symmetry_cell_setting           triclinic
_symmetry_space_group_name_H-M   'P -1'
_symmetry_Int_Tables_number      2
_space_group_name_Hall           '-P 1'
loop_
_symmetry_equiv_pos_site_id
_symmetry_equiv_pos_as_xyz
1 x,y,z
2 -x,-y,-z
_cell_length_a                   9.524(4)
_cell_length_b                   11.707(5)
_cell_length_c                   12.978(5)
_cell_angle_alpha                88.450(6)
_cell_angle_beta                 85.147(6)
_cell_angle_gamma                71.671(6)
_cell_volume                     1368.68
_exptl_crystal_colour            brown
_exptl_crystal_description       rectangular
_cell_formula_units_Z            4
loop_
_atom_site_label
_atom_site_type_symbol
_atom_site_fract_x
_atom_site_fract_y
_atom_site_fract_z
B1 B -0.1567(12) 0.5905(10) 0.2498(8)
F1 F -0.2392(5) 0.5177(4) 0.2335(3)
F2 F -0.1297(4) 0.6452(3) 0.1555(3)
N1 N -0.2366(8) 0.6879(6) 0.3286(5)
N2 N -0.0102(7) 0.5220(6) 0.2937(5)
N3 N 0.0335(8) 0.7026(6) 0.5027(5)
H1 H -0.024(6) 0.751(5) 0.545(4)
C1 C -0.3763(10) 0.7630(8) 0.3274(6)
H2 H -0.4438 0.7591 0.2810
C2 C -0.4044(9) 0.8475(7) 0.4061(6)
H3 H -0.4926 0.9089 0.4224
C3 C -0.2740(9) 0.8217(7) 0.4556(5)
H4 H -0.2577 0.8633 0.5111
C4 C -0.1750(9) 0.7241(7) 0.4074(6)
C5 C -0.0243(9) 0.6605(7) 0.4288(5)
C6 C 0.0576(10) 0.5564(7) 0.3705(6)
C7 C 0.1939(9) 0.4677(8) 0.3798(6)
H5 H 0.2620 0.4674 0.4272
C8 C 0.2099(10) 0.3800(7) 0.3057(7)
H6 H 0.2906 0.3111 0.2931
C9 C 0.0817(11) 0.4159(8) 0.2545(6)
H7 H 0.0613 0.3737 0.2011
C10 C 0.1879(8) 0.6583(6) 0.5350(6)
H8 H 0.2008 0.5850 0.5749
H9 H 0.2572 0.6394 0.4740
C11 C 0.2219(8) 0.7488(8) 0.5981(6)
H10 H 0.1513 0.7667 0.6595
C12 C 0.2091(7) 0.8645(6) 0.5410(5)
H11 H 0.2691 0.8477 0.4765
H12 H 0.2427 0.9162 0.5821
H13 H 0.1074 0.9035 0.5278
C13 C 0.3786(8) 0.6915(6) 0.6338(6)
H14 H 0.3781 0.6280 0.6820
H15 H 0.4089 0.7515 0.6666
H16 H 0.4466 0.6594 0.5750
B2 B 1.1985(11) 0.0210(9) 0.2548(8)
F3 F 1.2916(4) -0.0909(4) 0.2791(3)
F4 F 1.1610(4) 0.0930(3) 0.3418(3)
N4 N 1.2697(7) 0.0764(5) 0.1660(5)
N5 N 1.0569(7) 0.0081(5) 0.2136(4)
N6 N 0.9770(8) 0.2243(6) 0.0034(5)
H17 H 1.031(6) 0.238(5) -0.045(4)
C14 C 1.4074(9) 0.0859(7) 0.1588(6)
H18 H 1.4791 0.0513 0.2047
C15 C 1.4270(8) 0.1537(7) 0.0744(7)
H19 H 1.5134 0.1712 0.0521
C16 C 1.2949(9) 0.1911(6) 0.0287(6)
H20 H 1.2750 0.2387 -0.0302
C17 C 1.1981(9) 0.1448(6) 0.0865(6)
C18 C 1.0469(8) 0.1470(6) 0.0754(5)
C19 C 0.9778(9) 0.0741(6) 0.1356(5)
C20 C 0.8508(8) 0.0405(6) 0.1296(5)
H21 H 0.7788 0.0697 0.0830
C21 C 0.8518(8) -0.0437(7) 0.2053(6)
H22 H 0.7796 -0.0810 0.2206
C22 C 0.9804(9) -0.0626(6) 0.2546(5)
H23 H 1.0095 -0.1167 0.3085
C23 C 0.8256(7) 0.2454(5) -0.0267(5)
H24 H 0.7582 0.2527 0.0349
H25 H 0.8224 0.1772 -0.0661
C24 C 0.7754(8) 0.3595(6) -0.0914(5)
H26 H 0.8485 0.3534 -0.1505
C25 C 0.7632(7) 0.4696(5) -0.0306(5)
H27 H 0.6931 0.4759 0.0283
H28 H 0.7301 0.5396 -0.0735
H29 H 0.8584 0.4640 -0.0078
C26 C 0.6260(7) 0.3641(6) -0.1325(5)
H30 H 0.6373 0.2902 -0.1677
H31 H 0.5962 0.4303 -0.1796
H32 H 0.5518 0.3745 -0.0756
loop_
_geom_bond_atom_site_label_1
_geom_bond_atom_site_label_2
_geom_bond_site_symmetry_1
_geom_bond_site_symmetry_2
B1 F1 1_555 1_555
F2 B1 1_555 1_555
N1 B1 1_555 1_555
N2 B1 1_555 1_555
N3 H1 1_555 1_555
C1 N1 1_555 1_555
H2 C1 1_555 1_555
C2 C1 1_555 1_555
H3 C2 1_555 1_555
C3 C2 1_555 1_555
H4 C3 1_555 1_555
C4 N1 1_555 1_555
C5 N3 1_555 1_555
C6 N2 1_555 1_555
C7 C6 1_555 1_555
H5 C7 1_555 1_555
C8 C7 1_555 1_555
H6 C8 1_555 1_555
C9 N2 1_555 1_555
H7 C9 1_555 1_555
C10 N3 1_555 1_555
H8 C10 1_555 1_555
H9 C10 1_555 1_555
C11 C10 1_555 1_555
H10 C11 1_555 1_555
C12 C11 1_555 1_555
H11 C12 1_555 1_555
H12 C12 1_555 1_555
H13 C12 1_555 1_555
C13 C11 1_555 1_555
H14 C13 1_555 1_555
H15 C13 1_555 1_555
H16 C13 1_555 1_555
B2 F3 1_555 1_555
F4 B2 1_555 1_555
N4 B2 1_555 1_555
N5 B2 1_555 1_555
N6 H17 1_555 1_555
C14 N4 1_555 1_555
H18 C14 1_555 1_555
C15 C14 1_555 1_555
H19 C15 1_555 1_555
C16 C15 1_555 1_555
H20 C16 1_555 1_555
C17 N4 1_555 1_555
C18 N6 1_555 1_555
C19 N5 1_555 1_555
C20 C19 1_555 1_555
H21 C20 1_555 1_555
C21 C20 1_555 1_555
H22 C21 1_555 1_555
C22 N5 1_555 1_555
H23 C22 1_555 1_555
C23 N6 1_555 1_555
H24 C23 1_555 1_555
H25 C23 1_555 1_555
C24 C23 1_555 1_555
H26 C24 1_555 1_555
C25 C24 1_555 1_555
H27 C25 1_555 1_555
H28 C25 1_555 1_555
H29 C25 1_555 1_555
C26 C24 1_555 1_555
H30 C26 1_555 1_555
H31 C26 1_555 1_555
H32 C26 1_555 1_555
C3 C4 1_555 1_555
C4 C5 1_555 1_555
C5 C6 1_555 1_555
C8 C9 1_555 1_555
C16 C17 1_555 1_555
C17 C18 1_555 1_555
C18 C19 1_555 1_555
C21 C22 1_555 1_555

#END
