
#######################################################################
#
#                 Cambridge Crystallographic Data Centre
#                                CCDC 
#
#######################################################################
#
# If this CIF has been generated from an entry in the Cambridge 
# Structural Database, then it will include bibliographic, chemical, 
# crystal, experimental, refinement or atomic coordinate data resulting 
# from the CCDC's data processing and validation procedures.
#
#######################################################################

data_TIPSOC
_chemical_formula_moiety         'C13 H16 B1 F2 N3'
_chemical_name_systematic        
(N-(bis(1H-pyrrol-2-yl)methylene)-N-ethylethanaminiumato)-difluoro-boron
_symmetry_cell_setting           monoclinic
_symmetry_space_group_name_H-M   'P 21/c'
_symmetry_Int_Tables_number      14
_space_group_name_Hall           '-P 2ybc'
loop_
_symmetry_equiv_pos_site_id
_symmetry_equiv_pos_as_xyz
1 x,y,z
2 -x,1/2+y,1/2-z
3 -x,-y,-z
4 x,1/2-y,1/2+z
_cell_length_a                   8.259(11)
_cell_length_b                   9.659(13)
_cell_length_c                   16.43(2)
_cell_angle_alpha                90
_cell_angle_beta                 96.114(18)
_cell_angle_gamma                90
_cell_volume                     1303.23
_exptl_crystal_colour            colorless
_exptl_crystal_description       chunk
_cell_formula_units_Z            4
loop_
_atom_site_label
_atom_site_type_symbol
_atom_site_fract_x
_atom_site_fract_y
_atom_site_fract_z
B1 B 0.7092(6) 0.7148(4) 0.1049(3)
F1 F 0.8633(3) 0.7797(2) 0.11735(13)
F2 F 0.5901(3) 0.8155(2) 0.09694(13)
N1 N 0.7003(3) 0.6217(3) 0.02937(16)
N2 N 0.6873(3) 0.6165(3) 0.17593(16)
N3 N 0.8856(3) 0.3009(3) 0.11378(16)
C1 C 0.6593(5) 0.6612(4) -0.0489(2)
H1 H 0.6222 0.7489 -0.0649
C2 C 0.6802(5) 0.5536(4) -0.1015(2)
H2 H 0.6584 0.5550 -0.1582
C3 C 0.7401(5) 0.4424(4) -0.0538(2)
H3 H 0.7664 0.3556 -0.0730
C4 C 0.7540(4) 0.4845(4) 0.02921(19)
C5 C 0.7964(4) 0.4167(3) 0.1070(2)
C6 C 0.7372(4) 0.4789(3) 0.17892(19)
C7 C 0.6962(4) 0.4252(4) 0.2534(2)
H4 H 0.7152 0.3353 0.2722
C8 C 0.6225(5) 0.5297(4) 0.2942(2)
H5 H 0.5824 0.5224 0.3448
C9 C 0.6198(4) 0.6463(4) 0.2457(2)
H6 H 0.5782 0.7320 0.2588
C10 C 0.9543(5) 0.2420(4) 0.1937(2)
H7 H 0.9463 0.3110 0.2359
H8 H 1.0690 0.2226 0.1913
C11 C 0.9345(5) 0.2256(4) 0.0421(2)
H9 H 1.0354 0.1765 0.0582
H10 H 0.9555 0.2922 0.0003
C12 C 0.8074(6) 0.1224(4) 0.0057(3)
H11 H 0.7997 0.0471 0.0432
H12 H 0.8387 0.0874 -0.0450
H13 H 0.7036 0.1676 -0.0040
C13 C 0.8713(6) 0.1105(4) 0.2181(3)
H14 H 0.7557 0.1250 0.2139
H15 H 0.9105 0.0868 0.2734
H16 H 0.8952 0.0365 0.1822
loop_
_geom_bond_atom_site_label_1
_geom_bond_atom_site_label_2
_geom_bond_site_symmetry_1
_geom_bond_site_symmetry_2
B1 F1 1_555 1_555
F2 B1 1_555 1_555
N1 B1 1_555 1_555
N2 B1 1_555 1_555
N3 C5 1_555 1_555
C1 N1 1_555 1_555
H1 C1 1_555 1_555
C2 C1 1_555 1_555
H2 C2 1_555 1_555
C3 C2 1_555 1_555
H3 C3 1_555 1_555
C4 N1 1_555 1_555
C5 C4 1_555 1_555
C6 N2 1_555 1_555
C7 C6 1_555 1_555
H4 C7 1_555 1_555
C8 C7 1_555 1_555
H5 C8 1_555 1_555
C9 N2 1_555 1_555
H6 C9 1_555 1_555
C10 N3 1_555 1_555
H7 C10 1_555 1_555
H8 C10 1_555 1_555
C11 N3 1_555 1_555
H9 C11 1_555 1_555
H10 C11 1_555 1_555
C12 C11 1_555 1_555
H11 C12 1_555 1_555
H12 C12 1_555 1_555
H13 C12 1_555 1_555
C13 C10 1_555 1_555
H14 C13 1_555 1_555
H15 C13 1_555 1_555
H16 C13 1_555 1_555
C3 C4 1_555 1_555
C5 C6 1_555 1_555
C8 C9 1_555 1_555

#END
