
#######################################################################
#
#                 Cambridge Crystallographic Data Centre
#                                CCDC 
#
#######################################################################
#
# If this CIF has been generated from an entry in the Cambridge 
# Structural Database, then it will include bibliographic, chemical, 
# crystal, experimental, refinement or atomic coordinate data resulting 
# from the CCDC's data processing and validation procedures.
#
#######################################################################

data_TIPTOE
_chemical_formula_moiety         'C12 H16 O2'
_chemical_name_systematic        
(octahydro-1,2-ethanodicyclopropa[cd,gh]pentalene-3,4-diyl)dimethanol
_symmetry_cell_setting           orthorhombic
_symmetry_space_group_name_H-M   'P n m a'
_symmetry_Int_Tables_number      62
_space_group_name_Hall           '-P 2ac 2n'
loop_
_symmetry_equiv_pos_site_id
_symmetry_equiv_pos_as_xyz
1 x,y,z
2 1/2-x,-y,1/2+z
3 -x,1/2+y,-z
4 1/2+x,1/2-y,1/2-z
5 -x,-y,-z
6 1/2+x,y,1/2-z
7 x,1/2-y,z
8 1/2-x,1/2+y,1/2+z
_cell_length_a                   13.436(6)
_cell_length_b                   9.509(4)
_cell_length_c                   7.388(3)
_cell_angle_alpha                90
_cell_angle_beta                 90
_cell_angle_gamma                90
_cell_volume                     943.912
_exptl_crystal_colour            colorless
_exptl_crystal_description       Block
_cell_formula_units_Z            4
loop_
_atom_site_label
_atom_site_type_symbol
_atom_site_fract_x
_atom_site_fract_y
_atom_site_fract_z
O1 O 0.49450(7) 0.39147(12) 0.12876(14)
H1 H 0.4928 0.4493 0.0465
C1 C 0.40715(9) 0.40558(13) 0.23834(19)
H2 H 0.3508 0.3661 0.1739
H3 H 0.3939 0.5047 0.2579
C2 C 0.41693(8) 0.33295(11) 0.42045(18)
H4 H 0.4800 0.3637 0.4742
C3 C 0.33199(9) 0.38671(12) 0.54475(17)
H5 H 0.3310 0.4897 0.5466
C4 C 0.34458(9) 0.32945(13) 0.73489(18)
H6 H 0.3837 0.3815 0.8246
C5 C 0.25183(13) 0.2500 0.7918(3)
H7 H 0.2278 0.2500 0.9170
C6 C 0.18217(13) 0.2500 0.6332(3)
H8 H 0.1097 0.2500 0.6488
C7 C 0.23212(9) 0.17027(12) 0.48144(18)
H9 H 0.1923 0.1181 0.3930
O1F O 0.49450(7) 0.10853(12) 0.12876(14)
H1F H 0.4928 0.0507 0.0465
C1F C 0.40715(9) 0.09442(13) 0.23834(19)
H2F H 0.3508 0.1339 0.1739
H3F H 0.3939 -0.0047 0.2579
C2F C 0.41693(8) 0.16705(11) 0.42045(18)
H4F H 0.4800 0.1363 0.4742
C3F C 0.33199(9) 0.11329(12) 0.54475(17)
H5F H 0.3310 0.0103 0.5466
C4F C 0.34458(9) 0.17055(13) 0.73489(18)
H6F H 0.3837 0.1185 0.8246
C7F C 0.23212(9) 0.32973(12) 0.48144(18)
H9F H 0.1923 0.3819 0.3930
H10? H 0.502(2) 0.311(4) 0.096(5)
loop_
_geom_bond_atom_site_label_1
_geom_bond_atom_site_label_2
_geom_bond_site_symmetry_1
_geom_bond_site_symmetry_2
O1 H1 1_555 1_555
C1 O1 1_555 1_555
H2 C1 1_555 1_555
H3 C1 1_555 1_555
C2 C1 1_555 1_555
H4 C2 1_555 1_555
C3 C2 1_555 1_555
H5 C3 1_555 1_555
C4 C3 1_555 1_555
H6 C4 1_555 1_555
C5 C4 1_555 1_555
H7 C5 1_555 1_555
C6 C5 1_555 1_555
H8 C6 1_555 1_555
C7 C6 1_555 1_555
H9 C7 1_555 1_555
O1F H1F 1_555 1_555
C1F O1F 1_555 1_555
H2F C1F 1_555 1_555
H3F C1F 1_555 1_555
C2F C2 1_555 1_555
H4F C2F 1_555 1_555
C3F C7 1_555 1_555
H5F C3F 1_555 1_555
C4F C4 1_555 1_555
H6F C4F 1_555 1_555
C7F C3 1_555 1_555
H9F C7F 1_555 1_555
C5 C4F 1_555 1_555
C6 C7F 1_555 1_555
C7 C7F 1_555 1_555
C1F C2F 1_555 1_555
C2F C3F 1_555 1_555
C3F C4F 1_555 1_555

#END
