
#######################################################################
#
#                 Cambridge Crystallographic Data Centre
#                                CCDC 
#
#######################################################################
#
# If this CIF has been generated from an entry in the Cambridge 
# Structural Database, then it will include bibliographic, chemical, 
# crystal, experimental, refinement or atomic coordinate data resulting 
# from the CCDC's data processing and validation procedures.
#
#######################################################################

data_TIQDEF
_chemical_formula_moiety         'C27 H22 Br1 N2 O3 1+,Br1 1-'
_chemical_name_systematic        
'2-[(2-bromophenyl)methyl]-6-methoxy-1-[4-(methoxycarbonyl)phenyl]-9H-\b-carbolin-2-ium bromide unknown solvate'
_chemical_properties_biological  
'antibacterial activity (including against MRSA)'
_symmetry_cell_setting           triclinic
_symmetry_space_group_name_H-M   'P -1'
_symmetry_Int_Tables_number      2
_space_group_name_Hall           '-P 1'
loop_
_symmetry_equiv_pos_site_id
_symmetry_equiv_pos_as_xyz
1 x,y,z
2 -x,-y,-z
_cell_length_a                   8.8844(3)
_cell_length_b                   10.2559(4)
_cell_length_c                   14.4777(6)
_cell_angle_alpha                97.739(3)
_cell_angle_beta                 99.483(3)
_cell_angle_gamma                107.000(3)
_cell_volume                     1220.69
_exptl_crystal_colour            yellow
_exptl_crystal_description       block
_cell_formula_units_Z            2
loop_
_atom_site_label
_atom_site_type_symbol
_atom_site_fract_x
_atom_site_fract_y
_atom_site_fract_z
Br1 Br -0.01776(4) 0.69015(3) 0.64469(2)
O1 O 1.4248(2) 1.1761(2) 0.98413(17)
O2 O 0.1033(3) 0.1993(2) 0.66906(17)
N1 N 0.5087(3) 0.9358(3) 0.75825(18)
N2 N 0.8264(3) 0.7886(3) 0.83391(18)
H1 H 0.792471 0.699315 0.824453
O3 O 0.2497(3) 0.1854(3) 0.5579(2)
C1 C 0.7356(3) 0.8712(3) 0.8113(2)
C2 C 0.5727(4) 0.8316(3) 0.7686(2)
C3 C 0.7623(4) 1.1149(3) 0.8230(2)
H2 H 0.823205 1.208632 0.838897
C4 C 0.2936(4) 0.8301(3) 0.6103(2)
C5 C 0.4040(4) 0.8564(3) 0.5520(2)
H3 H 0.506152 0.920432 0.577038
C6 C 0.6010(4) 1.0739(3) 0.7845(2)
H4 H 0.551973 1.141232 0.775819
C7 C 0.9934(3) 1.0137(3) 0.8768(2)
C8 C 0.8337(3) 1.0132(3) 0.8380(2)
C9 C 0.2720(4) 0.4730(3) 0.7413(2)
H5 H 0.190292 0.426778 0.769364
C10 C 0.3549(4) 0.6129(3) 0.7759(2)
H6 H 0.329806 0.660291 0.827488
C11 C 0.9828(3) 0.8735(3) 0.8747(2)
C12 C 1.2601(4) 0.9427(3) 0.9468(2)
H7 H 1.351320 0.921270 0.971762
C13 C 1.2723(3) 1.0836(3) 0.9470(2)
C14 C 1.1169(4) 0.8368(3) 0.9106(2)
H8 H 1.109821 0.744456 0.910032
C15 C 0.3655(4) 0.7892(3) 0.4572(2)
H9 H 0.441163 0.808385 0.419337
C16 C 0.1007(4) 0.6659(3) 0.4754(2)
H10 H -0.001585 0.602370 0.449987
C17 C 0.4759(3) 0.6823(3) 0.7331(2)
C18 C 0.3351(3) 0.9015(3) 0.7138(2)
H11 H 0.307084 0.986375 0.718272
H12 H 0.270894 0.841501 0.749137
C19 C 0.2136(4) 0.6933(3) 0.4193(2)
H13 H 0.187743 0.647358 0.355991
C20 C 0.3101(4) 0.4014(3) 0.6649(2)
C21 C 1.1400(3) 1.1213(3) 0.9129(2)
H14 H 1.147629 1.213863 0.913712
C22 C 0.1415(4) 0.7340(3) 0.5699(2)
C23 C 0.2216(4) 0.2513(3) 0.6248(3)
C24 C 0.4318(4) 0.4705(3) 0.6229(2)
H15 H 0.457195 0.422527 0.571713
C25 C 0.5157(4) 0.6101(3) 0.6566(2)
H16 H 0.597888 0.655662 0.628635
C26 C -0.0024(5) 0.0597(3) 0.6266(3)
H17 H -0.064347 0.059949 0.565719
H18 H -0.073717 0.027258 0.667720
H19 H 0.060945 -0.000783 0.618151
C27 C 1.4456(4) 1.3194(3) 0.9809(3)
H20 H 1.408290 1.327912 0.916536
H21 H 1.557701 1.372907 1.002173
H22 H 1.384786 1.353305 1.021661
Br2 Br 0.75861(4) 0.46089(3) 0.83308(2)
loop_
_geom_bond_atom_site_label_1
_geom_bond_atom_site_label_2
_geom_bond_site_symmetry_1
_geom_bond_site_symmetry_2
Br1 C22 1_555 1_555
O1 C13 1_555 1_555
O2 C23 1_555 1_555
N1 C2 1_555 1_555
N2 H1 1_555 1_555
O3 C23 1_555 1_555
C1 N2 1_555 1_555
C2 C1 1_555 1_555
C3 H2 1_555 1_555
C4 C5 1_555 1_555
C5 H3 1_555 1_555
C6 N1 1_555 1_555
H4 C6 1_555 1_555
C7 C8 1_555 1_555
C8 C1 1_555 1_555
C9 H5 1_555 1_555
C10 C9 1_555 1_555
H6 C10 1_555 1_555
C11 N2 1_555 1_555
C12 H7 1_555 1_555
C13 C12 1_555 1_555
C14 C11 1_555 1_555
H8 C14 1_555 1_555
C15 C5 1_555 1_555
H9 C15 1_555 1_555
C16 H10 1_555 1_555
C17 C2 1_555 1_555
C18 N1 1_555 1_555
H11 C18 1_555 1_555
H12 C18 1_555 1_555
C19 C15 1_555 1_555
H13 C19 1_555 1_555
C20 C9 1_555 1_555
C21 C7 1_555 1_555
H14 C21 1_555 1_555
C22 C4 1_555 1_555
C23 C20 1_555 1_555
C24 C20 1_555 1_555
H15 C24 1_555 1_555
C25 C17 1_555 1_555
H16 C25 1_555 1_555
C26 O2 1_555 1_555
H17 C26 1_555 1_555
H18 C26 1_555 1_555
H19 C26 1_555 1_555
C27 O1 1_555 1_555
H20 C27 1_555 1_555
H21 C27 1_555 1_555
H22 C27 1_555 1_555
C3 C6 1_555 1_555
C3 C8 1_555 1_555
C4 C18 1_555 1_555
C7 C11 1_555 1_555
C10 C17 1_555 1_555
C12 C14 1_555 1_555
C13 C21 1_555 1_555
C16 C19 1_555 1_555
C16 C22 1_555 1_555
C24 C25 1_555 1_555

#END
