
#######################################################################
#
#                 Cambridge Crystallographic Data Centre
#                                CCDC 
#
#######################################################################
#
# If this CIF has been generated from an entry in the Cambridge 
# Structural Database, then it will include bibliographic, chemical, 
# crystal, experimental, refinement or atomic coordinate data resulting 
# from the CCDC's data processing and validation procedures.
#
#######################################################################

data_TIQGOR
_chemical_formula_moiety         'C20 H18 Cl1 N1 O3'
_chemical_name_systematic        
1-(2-Chlorophenyl)-3-(1-hydroxyethylidene)-6-(4-methoxyphenyl)-3,6-dihydropyridin-2(1H)-one
_symmetry_cell_setting           monoclinic
_symmetry_space_group_name_H-M   'P 21/c'
_symmetry_Int_Tables_number      14
_space_group_name_Hall           '-P 2ybc'
loop_
_symmetry_equiv_pos_site_id
_symmetry_equiv_pos_as_xyz
1 x,y,z
2 -x,1/2+y,1/2-z
3 -x,-y,-z
4 x,1/2-y,1/2+z
_cell_length_a                   12.269(4)
_cell_length_b                   12.814(4)
_cell_length_c                   11.380(3)
_cell_angle_alpha                90
_cell_angle_beta                 98.462(5)
_cell_angle_gamma                90
_cell_volume                     1769.63
_exptl_crystal_colour            'light blue'
_exptl_crystal_description       Block
_chemical_melting_point          '117-120 deg.C'
_cell_formula_units_Z            4
loop_
_atom_site_label
_atom_site_type_symbol
_atom_site_fract_x
_atom_site_fract_y
_atom_site_fract_z
Cl1 Cl 0.16280(19) 0.07377(17) 0.68167(19)
O1 O 0.4280(4) 0.0508(3) 0.7054(4)
O2 O 0.5693(4) 0.1154(3) 0.8683(4)
H1 H 0.5278 0.0731 0.8307
O3 O -0.1333(5) 0.3578(4) 0.4785(5)
N1 N 0.3451(5) 0.1590(4) 0.5641(5)
C1 C 0.4684(7) 0.3270(5) 0.6567(8)
H2 H 0.5128 0.3824 0.6873
C2 C 0.1622(7) 0.3446(5) 0.5919(5)
H3 H 0.2124 0.3650 0.6572
C3 C 0.4170(6) 0.1403(4) 0.6646(6)
C4 C 0.4819(5) 0.2265(5) 0.7172(7)
C5 C 0.0528(7) 0.3694(5) 0.5890(6)
H4 H 0.0295 0.4055 0.6516
C6 C -0.0225(8) 0.3397(5) 0.4913(7)
C7 C 0.5551(6) 0.2095(5) 0.8164(8)
C8 C 0.2864(6) 0.0727(5) 0.5049(7)
C9 C 0.2000(7) 0.2903(4) 0.5011(6)
C10 C 0.1990(8) 0.0307(5) 0.5512(6)
C11 C 0.3379(9) 0.0364(5) 0.3936(6)
H5 H 0.4023 0.0589 0.3675
C12 C 0.3967(7) 0.3429(5) 0.5611(8)
H6 H 0.3924 0.4091 0.5271
C13 C 0.3225(7) 0.2607(5) 0.5048(6)
H7 H 0.3363 0.2532 0.4226
C14 C 0.1222(9) 0.2619(5) 0.4039(6)
H8 H 0.1452 0.2260 0.3409
C15 C -0.1760(7) 0.4100(6) 0.5711(8)
H9 H -0.2544 0.4175 0.5505
H10 H -0.1427 0.4777 0.5826
H11 H -0.1599 0.3703 0.6430
C16 C 0.6282(6) 0.2895(6) 0.8871(9)
H12 H 0.6714 0.2561 0.9538
H13 H 0.5832 0.3427 0.9150
H14 H 0.6762 0.3204 0.8375
C17 C 0.0129(9) 0.2858(6) 0.3994(6)
H15 H -0.0374 0.2655 0.3342
C18 C 0.1697(9) -0.0853(6) 0.3864(9)
H16 H 0.1310 -0.1385 0.3428
C19 C 0.1360(8) -0.0539(6) 0.4912(9)
H17 H 0.0772 -0.0849 0.5209
C20 C 0.2606(11) -0.0399(9) 0.3427(9)
H18 H 0.2719 -0.0637 0.2682
loop_
_geom_bond_atom_site_label_1
_geom_bond_atom_site_label_2
_geom_bond_site_symmetry_1
_geom_bond_site_symmetry_2
Cl1 C10 1_555 1_555
O1 C3 1_555 1_555
O2 H1 1_555 1_555
O3 C6 1_555 1_555
N1 C3 1_555 1_555
C1 H2 1_555 1_555
C2 H3 1_555 1_555
C3 C4 1_555 1_555
C4 C1 1_555 1_555
C5 C2 1_555 1_555
H4 C5 1_555 1_555
C6 C5 1_555 1_555
C7 O2 1_555 1_555
C8 N1 1_555 1_555
C9 C2 1_555 1_555
C10 C8 1_555 1_555
C11 C8 1_555 1_555
H5 C11 1_555 1_555
C12 C1 1_555 1_555
H6 C12 1_555 1_555
C13 N1 1_555 1_555
H7 C13 1_555 1_555
C14 C9 1_555 1_555
H8 C14 1_555 1_555
C15 O3 1_555 1_555
H9 C15 1_555 1_555
H10 C15 1_555 1_555
H11 C15 1_555 1_555
C16 C7 1_555 1_555
H12 C16 1_555 1_555
H13 C16 1_555 1_555
H14 C16 1_555 1_555
C17 C6 1_555 1_555
H15 C17 1_555 1_555
C18 H16 1_555 1_555
C19 C10 1_555 1_555
H17 C19 1_555 1_555
C20 C11 1_555 1_555
H18 C20 1_555 1_555
C4 C7 1_555 1_555
C9 C13 1_555 1_555
C12 C13 1_555 1_555
C14 C17 1_555 1_555
C18 C19 1_555 1_555
C18 C20 1_555 1_555

#END
