
#######################################################################
#
#                 Cambridge Crystallographic Data Centre
#                                CCDC 
#
#######################################################################
#
# If this CIF has been generated from an entry in the Cambridge 
# Structural Database, then it will include bibliographic, chemical, 
# crystal, experimental, refinement or atomic coordinate data resulting 
# from the CCDC's data processing and validation procedures.
#
#######################################################################

data_TIQKIP
_chemical_formula_moiety         'C20 H10 Cl2 N2'
_chemical_name_systematic        2,5-Dichlorodibenzo[a,k][3,8]phenanthroline
_symmetry_cell_setting           triclinic
_symmetry_space_group_name_H-M   'P -1'
_symmetry_Int_Tables_number      2
_space_group_name_Hall           '-P 1'
loop_
_symmetry_equiv_pos_site_id
_symmetry_equiv_pos_as_xyz
1 x,y,z
2 -x,-y,-z
_cell_length_a                   7.5929(3)
_cell_length_b                   9.3350(2)
_cell_length_c                   21.6474(7)
_cell_angle_alpha                96.007(2)
_cell_angle_beta                 90.540(3)
_cell_angle_gamma                90.553(3)
_cell_volume                     1525.78
_cell_formula_units_Z            4
loop_
_atom_site_label
_atom_site_type_symbol
_atom_site_fract_x
_atom_site_fract_y
_atom_site_fract_z
C1 C 0.22847(19) 0.59101(16) -0.08225(7)
C2 C 0.2025(2) 0.72234(17) -0.04522(7)
C3 C 0.2090(2) 0.85515(18) -0.07110(8)
H1 H 0.191(3) 0.949(2) -0.0415(10)
C4 C 0.2426(2) 0.85822(19) -0.13229(8)
H2 H 0.256(2) 0.949(2) -0.1527(9)
C5 C 0.2452(2) 0.72816(17) -0.17229(7)
C6 C 0.22190(19) 0.59353(16) -0.14908(7)
C7 C 0.2637(2) 0.72632(18) -0.23831(8)
C8 C 0.2022(2) 0.48670(17) -0.25773(7)
C9 C 0.18035(19) 0.47112(16) -0.19408(7)
C10 C 0.1659(2) 0.37146(19) -0.30339(8)
H3 H 0.188(3) 0.388(2) -0.3476(10)
C11 C 0.0996(2) 0.2447(2) -0.28681(8)
H4 H 0.071(3) 0.160(2) -0.3204(10)
C12 C 0.0638(2) 0.23124(19) -0.22446(8)
H5 H 0.008(3) 0.140(2) -0.2140(9)
C13 C 0.1016(2) 0.34151(17) -0.17915(8)
H6 H 0.068(2) 0.3352(19) -0.1340(9)
C14 C 0.1751(2) 0.71400(18) 0.01979(7)
C15 C 0.2367(2) 0.47557(18) 0.01467(7)
C16 C 0.26896(19) 0.46664(16) -0.04995(7)
C17 C 0.2682(2) 0.3570(2) 0.04827(8)
H7 H 0.243(2) 0.369(2) 0.0952(9)
C18 C 0.3421(3) 0.2350(2) 0.01951(9)
H8 H 0.362(3) 0.153(2) 0.0448(9)
C19 C 0.3896(2) 0.2293(2) -0.04303(9)
H9 H 0.446(3) 0.143(2) -0.0648(9)
C20 C 0.3537(2) 0.34202(18) -0.07677(8)
H10 H 0.381(2) 0.337(2) -0.1212(9)
Cl1 Cl 0.12453(7) 0.87521(5) 0.066736(19)
Cl2 Cl 0.30596(7) 0.89182(5) -0.26909(2)
N1 N 0.18126(18) 0.60081(16) 0.04832(6)
N2 N 0.25201(19) 0.61588(15) -0.27866(6)
C21 C -0.27722(19) 0.58485(16) -0.34325(7)
C22 C -0.2534(2) 0.71871(17) -0.30728(7)
C23 C -0.2516(3) 0.84902(18) -0.33503(8)
H11 H -0.233(3) 0.942(2) -0.3060(9)
C24 C -0.2813(2) 0.84765(19) -0.39705(8)
H12 H -0.288(3) 0.940(2) -0.4176(10)
C25 C -0.2889(2) 0.71515(17) -0.43535(7)
C26 C -0.26831(19) 0.58328(16) -0.41011(7)
C27 C -0.3131(2) 0.70818(17) -0.50149(7)
C28 C -0.2619(2) 0.46751(17) -0.51746(7)
C29 C -0.23103(19) 0.45779(16) -0.45363(7)
C30 C -0.2361(3) 0.3484(2) -0.56169(8)
H13 H -0.265(3) 0.360(2) -0.6075(10)
C31 C -0.1692(3) 0.2242(2) -0.54365(9)
H14 H -0.146(3) 0.139(2) -0.5750(10)
C32 C -0.1227(2) 0.2172(2) -0.48151(9)
H15 H -0.068(3) 0.129(2) -0.4682(9)
C33 C -0.1518(2) 0.33084(18) -0.43758(8)
H16 H -0.115(2) 0.3257(18) -0.3928(8)
C34 C -0.2384(2) 0.71598(18) -0.24114(7)
C35 C -0.3002(2) 0.47655(17) -0.24487(7)
C36 C -0.32209(19) 0.46193(16) -0.31013(7)
C37 C -0.3378(2) 0.3607(2) -0.21020(8)
H17 H -0.317(2) 0.378(2) -0.1637(9)
C38 C -0.4065(2) 0.2351(2) -0.23903(8)
H18 H -0.438(3) 0.151(2) -0.2143(9)
C39 C -0.4430(2) 0.22339(19) -0.30287(8)
H19 H -0.497(2) 0.133(2) -0.3233(9)
C40 C -0.4025(2) 0.33370(17) -0.33756(8)
H20 H -0.431(2) 0.3257(17) -0.3826(8)
Cl3 Cl -0.19995(7) 0.88031(5) -0.19421(2)
Cl4 Cl -0.35329(7) 0.87047(5) -0.53429(2)
N3 N -0.25135(19) 0.60524(16) -0.21120(6)
N4 N -0.31097(18) 0.59472(15) -0.54030(6)
loop_
_geom_bond_atom_site_label_1
_geom_bond_atom_site_label_2
_geom_bond_site_symmetry_1
_geom_bond_site_symmetry_2
C1 C2 1_555 1_555
C2 C3 1_555 1_555
C3 H1 1_555 1_555
C4 C3 1_555 1_555
H2 C4 1_555 1_555
C5 C4 1_555 1_555
C6 C1 1_555 1_555
C7 C5 1_555 1_555
C8 C9 1_555 1_555
C9 C6 1_555 1_555
C10 C8 1_555 1_555
H3 C10 1_555 1_555
C11 C10 1_555 1_555
H4 C11 1_555 1_555
C12 C11 1_555 1_555
H5 C12 1_555 1_555
C13 C9 1_555 1_555
H6 C13 1_555 1_555
C14 C2 1_555 1_555
C15 C16 1_555 1_555
C16 C1 1_555 1_555
C17 C15 1_555 1_555
H7 C17 1_555 1_555
C18 C17 1_555 1_555
H8 C18 1_555 1_555
C19 C18 1_555 1_555
H9 C19 1_555 1_555
C20 C16 1_555 1_555
H10 C20 1_555 1_555
Cl1 C14 1_555 1_555
Cl2 C7 1_555 1_555
N1 C14 1_555 1_555
N2 C7 1_555 1_555
C21 C22 1_555 1_555
C22 C23 1_555 1_555
C23 H11 1_555 1_555
C24 C23 1_555 1_555
H12 C24 1_555 1_555
C25 C24 1_555 1_555
C26 C21 1_555 1_555
C27 C25 1_555 1_555
C28 C29 1_555 1_555
C29 C26 1_555 1_555
C30 C28 1_555 1_555
H13 C30 1_555 1_555
C31 C30 1_555 1_555
H14 C31 1_555 1_555
C32 C31 1_555 1_555
H15 C32 1_555 1_555
C33 C29 1_555 1_555
H16 C33 1_555 1_555
C34 C22 1_555 1_555
C35 C36 1_555 1_555
C36 C21 1_555 1_555
C37 C35 1_555 1_555
H17 C37 1_555 1_555
C38 C37 1_555 1_555
H18 C38 1_555 1_555
C39 C38 1_555 1_555
H19 C39 1_555 1_555
C40 C36 1_555 1_555
H20 C40 1_555 1_555
Cl3 C34 1_555 1_555
Cl4 C27 1_555 1_555
N3 C34 1_555 1_555
N4 C27 1_555 1_555
C5 C6 1_555 1_555
C8 N2 1_555 1_555
C12 C13 1_555 1_555
C15 N1 1_555 1_555
C19 C20 1_555 1_555
C25 C26 1_555 1_555
C28 N4 1_555 1_555
C32 C33 1_555 1_555
C35 N3 1_555 1_555
C39 C40 1_555 1_555

#END
