
#######################################################################
#
#                 Cambridge Crystallographic Data Centre
#                                CCDC 
#
#######################################################################
#
# If this CIF has been generated from an entry in the Cambridge 
# Structural Database, then it will include bibliographic, chemical, 
# crystal, experimental, refinement or atomic coordinate data resulting 
# from the CCDC's data processing and validation procedures.
#
#######################################################################

data_TIQKEK
_chemical_formula_moiety         'C48 H72 N6'
_chemical_name_systematic        
2,6,8,12,14,18-Hexaaza-1,7,13(1,2)-tricyclohexana-4,10,16(1,4)-tris(bicyclo(2.2.2)octana)cyclooctadecaphane-2,5,8,11,14,17-hexaene
_symmetry_cell_setting           orthorhombic
_symmetry_space_group_name_H-M   'P 21 21 21'
_symmetry_Int_Tables_number      19
_space_group_name_Hall           'P 2ac 2ab'
loop_
_symmetry_equiv_pos_site_id
_symmetry_equiv_pos_as_xyz
1 x,y,z
2 1/2-x,-y,1/2+z
3 -x,1/2+y,1/2-z
4 1/2+x,1/2-y,-z
_cell_length_a                   9.611(2)
_cell_length_b                   17.498(3)
_cell_length_c                   26.508(5)
_cell_angle_alpha                90
_cell_angle_beta                 90
_cell_angle_gamma                90
_cell_volume                     4457.94
_exptl_crystal_colour            colorless
_exptl_crystal_description       planar
_cell_formula_units_Z            4
_exptl_crystal_recrystallization_method 'ethyl acetate/methanol/dichloromethane'
loop_
_atom_site_label
_atom_site_type_symbol
_atom_site_fract_x
_atom_site_fract_y
_atom_site_fract_z
N1 N 0.7196(3) 0.68573(15) 0.30213(9)
C1 C 0.6713(3) 0.74975(17) 0.27123(10)
H1 H 0.5716 0.7523 0.2725
C2 C 0.7307(3) 0.82399(17) 0.29055(10)
H2 H 0.8303 0.8203 0.2914
C3 C 0.6884(5) 0.89006(19) 0.25602(12)
H3 H 0.5895 0.8972 0.2578
H4 H 0.7326 0.9361 0.2674
C4 C 0.7305(5) 0.8754(2) 0.20165(13)
H5 H 0.7003 0.9167 0.1804
H6 H 0.8301 0.8728 0.1997
C5 C 0.6704(6) 0.8018(3) 0.18291(13)
H7 H 0.7018 0.7927 0.1491
H8 H 0.5708 0.8055 0.1824
C6 C 0.7118(5) 0.7350(2) 0.21678(12)
H9 H 0.8111 0.7292 0.2156
H10 H 0.6703 0.6884 0.2050
N2 N 0.6795(3) 0.83824(14) 0.34148(9)
C7 C 0.7636(3) 0.83061(15) 0.37699(10)
H11 H 0.8594 0.8214 0.3688
C8 C 0.7242(3) 0.83412(15) 0.43169(10)
C9 C 0.5837(3) 0.87042(18) 0.44146(11)
H12 H 0.5823 0.9211 0.4276
H13 H 0.5130 0.8409 0.4249
C10 C 0.5537(3) 0.87335(18) 0.49835(10)
H14 H 0.4646 0.8508 0.5052
H15 H 0.5508 0.9257 0.5091
C11 C 0.6662(3) 0.83112(15) 0.52819(9)
C12 C 0.6791(4) 0.75117(18) 0.50696(12)
H16 H 0.7478 0.7229 0.5255
H17 H 0.5916 0.7253 0.5106
C13 C 0.7196(4) 0.75282(16) 0.45133(10)
H18 H 0.6525 0.7244 0.4322
H19 H 0.8086 0.7288 0.4471
C14 C 0.8319(3) 0.8787(2) 0.46233(12)
H20 H 0.8288 0.9314 0.4524
H21 H 0.9234 0.8597 0.4551
C15 C 0.8032(3) 0.8723(2) 0.51910(11)
H22 H 0.8781 0.8453 0.5351
H23 H 0.7980 0.9226 0.5335
C16 C 0.6264(3) 0.82541(17) 0.58276(11)
H24 H 0.5294 0.8187 0.5902
N3 N 0.7061(3) 0.82830(16) 0.61829(9)
C17 C 0.6501(3) 0.82032(15) 0.66943(10)
H25 H 0.5516 0.8114 0.6675
C18 C 0.7176(3) 0.75290(16) 0.69619(10)
H26 H 0.8169 0.7579 0.6943
C19 C 0.6732(5) 0.75137(19) 0.75127(12)
H27 H 0.5761 0.7388 0.7530
H28 H 0.7242 0.7118 0.7682
C20 C 0.6988(5) 0.8268(2) 0.77829(12)
H29 H 0.7970 0.8368 0.7800
H30 H 0.6638 0.8238 0.8121
C21 C 0.6274(4) 0.89072(19) 0.75123(13)
H31 H 0.6469 0.9381 0.7681
H32 H 0.5286 0.8828 0.7518
C22 C 0.6762(4) 0.89450(16) 0.69740(11)
H33 H 0.7738 0.9059 0.6969
H34 H 0.6281 0.9352 0.6805
N4 N 0.6750(3) 0.68110(14) 0.67302(10)
C23 C 0.7637(3) 0.63252(15) 0.66187(10)
H35 H 0.8592 0.6430 0.6700
C24 C 0.7303(3) 0.55748(15) 0.63815(10)
C25 C 0.5961(3) 0.52201(17) 0.65835(13)
H36 H 0.5997 0.5185 0.6945
H37 H 0.5191 0.5542 0.6494
C26 C 0.5741(4) 0.44257(18) 0.63497(13)
H38 H 0.4797 0.4371 0.6237
H39 H 0.5914 0.4045 0.6603
C27 C 0.6742(3) 0.42923(14) 0.59104(11)
C28 C 0.6621(4) 0.49759(14) 0.55523(11)
H40 H 0.7178 0.4888 0.5257
H41 H 0.5671 0.5032 0.5447
C29 C 0.7100(3) 0.57068(15) 0.58135(10)
H42 H 0.6417 0.6101 0.5766
H43 H 0.7958 0.5877 0.5665
C30 C 0.8470(3) 0.49910(15) 0.64482(10)
H44 H 0.9341 0.5224 0.6361
H45 H 0.8515 0.4838 0.6796
C31 C 0.8214(3) 0.42900(16) 0.61095(12)
H46 H 0.8353 0.3833 0.6303
H47 H 0.8864 0.4288 0.5834
C32 C 0.6343(3) 0.35907(16) 0.56264(12)
H48 H 0.5374 0.3525 0.5551
N5 N 0.7154(3) 0.30839(13) 0.54778(10)
C33 C 0.6568(3) 0.24673(15) 0.51741(11)
H49 H 0.5573 0.2514 0.5171
C34 C 0.7085(3) 0.25259(15) 0.46339(11)
H50 H 0.8083 0.2504 0.4632
C35 C 0.6510(4) 0.18693(17) 0.43180(13)
H51 H 0.5515 0.1914 0.4306
H52 H 0.6856 0.1904 0.3979
C36 C 0.6874(4) 0.11008(18) 0.45467(16)
H53 H 0.6458 0.0701 0.4350
H54 H 0.7866 0.1036 0.4536
C37 C 0.6385(5) 0.10454(18) 0.50845(16)
H55 H 0.6679 0.0568 0.5228
H56 H 0.5387 0.1059 0.5091
C38 C 0.6965(5) 0.16955(17) 0.54003(14)
H57 H 0.7960 0.1654 0.5419
H58 H 0.6604 0.1662 0.5737
N6 N 0.6637(3) 0.32496(13) 0.44140(10)
C39 C 0.7489(3) 0.36305(16) 0.41656(12)
H59 H 0.8422 0.3440 0.4139
C40 C 0.7156(3) 0.43621(15) 0.39037(11)
C41 C 0.7134(4) 0.42389(18) 0.33327(12)
H60 H 0.8052 0.4105 0.3221
H61 H 0.6518 0.3824 0.3252
C42 C 0.6686(5) 0.49708(19) 0.30643(12)
H62 H 0.7292 0.5078 0.2785
H63 H 0.5763 0.4898 0.2935
C43 C 0.6664(3) 0.56372(16) 0.34205(11)
C44 C 0.5562(4) 0.5489(2) 0.38197(14)
H64 H 0.5651 0.5868 0.4079
H65 H 0.4649 0.5531 0.3676
C45 C 0.5757(3) 0.46942(18) 0.40577(12)
H66 H 0.5020 0.4366 0.3945
H67 H 0.5707 0.4727 0.4419
C46 C 0.8060(3) 0.56741(17) 0.36834(14)
H68 H 0.8783 0.5716 0.3435
H69 H 0.8089 0.6121 0.3893
C47 C 0.8282(4) 0.49577(16) 0.40112(14)
H70 H 0.8272 0.5093 0.4362
H71 H 0.9175 0.4740 0.3935
C48 C 0.6344(3) 0.63610(18) 0.31390(11)
H72 H 0.5394 0.6445 0.3041
loop_
_geom_bond_atom_site_label_1
_geom_bond_atom_site_label_2
_geom_bond_site_symmetry_1
_geom_bond_site_symmetry_2
N1 C1 1_555 1_555
C1 H1 1_555 1_555
C2 C1 1_555 1_555
H2 C2 1_555 1_555
C3 C2 1_555 1_555
H3 C3 1_555 1_555
H4 C3 1_555 1_555
C4 C3 1_555 1_555
H5 C4 1_555 1_555
H6 C4 1_555 1_555
C5 C4 1_555 1_555
H7 C5 1_555 1_555
H8 C5 1_555 1_555
C6 C1 1_555 1_555
H9 C6 1_555 1_555
H10 C6 1_555 1_555
N2 C2 1_555 1_555
C7 N2 1_555 1_555
H11 C7 1_555 1_555
C8 C7 1_555 1_555
C9 C8 1_555 1_555
H12 C9 1_555 1_555
H13 C9 1_555 1_555
C10 C9 1_555 1_555
H14 C10 1_555 1_555
H15 C10 1_555 1_555
C11 C10 1_555 1_555
C12 C11 1_555 1_555
H16 C12 1_555 1_555
H17 C12 1_555 1_555
C13 C8 1_555 1_555
H18 C13 1_555 1_555
H19 C13 1_555 1_555
C14 C8 1_555 1_555
H20 C14 1_555 1_555
H21 C14 1_555 1_555
C15 C11 1_555 1_555
H22 C15 1_555 1_555
H23 C15 1_555 1_555
C16 C11 1_555 1_555
H24 C16 1_555 1_555
N3 C16 1_555 1_555
C17 N3 1_555 1_555
H25 C17 1_555 1_555
C18 C17 1_555 1_555
H26 C18 1_555 1_555
C19 C18 1_555 1_555
H27 C19 1_555 1_555
H28 C19 1_555 1_555
C20 C19 1_555 1_555
H29 C20 1_555 1_555
H30 C20 1_555 1_555
C21 C20 1_555 1_555
H31 C21 1_555 1_555
H32 C21 1_555 1_555
C22 C17 1_555 1_555
H33 C22 1_555 1_555
H34 C22 1_555 1_555
N4 C18 1_555 1_555
C23 N4 1_555 1_555
H35 C23 1_555 1_555
C24 C23 1_555 1_555
C25 C24 1_555 1_555
H36 C25 1_555 1_555
H37 C25 1_555 1_555
C26 C25 1_555 1_555
H38 C26 1_555 1_555
H39 C26 1_555 1_555
C27 C26 1_555 1_555
C28 C27 1_555 1_555
H40 C28 1_555 1_555
H41 C28 1_555 1_555
C29 C24 1_555 1_555
H42 C29 1_555 1_555
H43 C29 1_555 1_555
C30 C24 1_555 1_555
H44 C30 1_555 1_555
H45 C30 1_555 1_555
C31 C27 1_555 1_555
H46 C31 1_555 1_555
H47 C31 1_555 1_555
C32 C27 1_555 1_555
H48 C32 1_555 1_555
N5 C32 1_555 1_555
C33 N5 1_555 1_555
H49 C33 1_555 1_555
C34 C33 1_555 1_555
H50 C34 1_555 1_555
C35 C34 1_555 1_555
H51 C35 1_555 1_555
H52 C35 1_555 1_555
C36 C35 1_555 1_555
H53 C36 1_555 1_555
H54 C36 1_555 1_555
C37 C36 1_555 1_555
H55 C37 1_555 1_555
H56 C37 1_555 1_555
C38 C33 1_555 1_555
H57 C38 1_555 1_555
H58 C38 1_555 1_555
N6 C34 1_555 1_555
C39 N6 1_555 1_555
H59 C39 1_555 1_555
C40 C39 1_555 1_555
C41 C40 1_555 1_555
H60 C41 1_555 1_555
H61 C41 1_555 1_555
C42 C41 1_555 1_555
H62 C42 1_555 1_555
H63 C42 1_555 1_555
C43 C42 1_555 1_555
C44 C43 1_555 1_555
H64 C44 1_555 1_555
H65 C44 1_555 1_555
C45 C40 1_555 1_555
H66 C45 1_555 1_555
H67 C45 1_555 1_555
C46 C43 1_555 1_555
H68 C46 1_555 1_555
H69 C46 1_555 1_555
C47 C40 1_555 1_555
H70 C47 1_555 1_555
H71 C47 1_555 1_555
C48 N1 1_555 1_555
H72 C48 1_555 1_555
C5 C6 1_555 1_555
C12 C13 1_555 1_555
C14 C15 1_555 1_555
C21 C22 1_555 1_555
C28 C29 1_555 1_555
C30 C31 1_555 1_555
C37 C38 1_555 1_555
C43 C48 1_555 1_555
C44 C45 1_555 1_555
C46 C47 1_555 1_555

#END
