
#######################################################################
#
#                 Cambridge Crystallographic Data Centre
#                                CCDC 
#
#######################################################################
#
# If this CIF has been generated from an entry in the Cambridge 
# Structural Database, then it will include bibliographic, chemical, 
# crystal, experimental, refinement or atomic coordinate data resulting 
# from the CCDC's data processing and validation procedures.
#
#######################################################################

data_TIQKAH
_chemical_formula_moiety         'C44 H78 N10 O11,3(H2 O1)'
_chemical_name_systematic        
'N-Acetyl-2-methylalanyl-2-methylalanyl-N-(2-((2-(hydroxymethyl)pyrrolidin-1-yl)carbonyl)-14-isopropyl-2,5,8,8,11,11,17-heptamethyl-4,7,10,13,16-pentaoxo-3,6,9,12,15-pentaazaoctadecan-17-yl)valinamide trihydrate'
_symmetry_cell_setting           orthorhombic
_symmetry_space_group_name_H-M   'P 21 21 21'
_symmetry_Int_Tables_number      19
_space_group_name_Hall           'P 2ac 2ab'
loop_
_symmetry_equiv_pos_site_id
_symmetry_equiv_pos_as_xyz
1 x,y,z
2 1/2-x,-y,1/2+z
3 -x,1/2+y,1/2-z
4 1/2+x,1/2-y,-z
_cell_length_a                   10.297(2)
_cell_length_b                   16.785(3)
_cell_length_c                   30.395(6)
_cell_angle_alpha                90
_cell_angle_beta                 90
_cell_angle_gamma                90
_cell_volume                     5253.32
_exptl_crystal_colour            colorless
_exptl_crystal_description       block
_cell_formula_units_Z            4
loop_
_atom_site_label
_atom_site_type_symbol
_atom_site_fract_x
_atom_site_fract_y
_atom_site_fract_z
C1 C 0.1776(2) 0.10841(14) 0.72499(8)
H1 H 0.1536 0.0577 0.7129
H2 H 0.1075 0.1455 0.7211
H3 H 0.1958 0.1025 0.7558
C2 C 0.2970(2) 0.13916(12) 0.70173(7)
C3 C 0.5366(2) 0.13669(12) 0.69846(7)
C4 C 0.6452(2) 0.11586(13) 0.73081(8)
H4 H 0.6453 0.0595 0.7361
H5 H 0.6312 0.1435 0.7580
H6 H 0.7273 0.1315 0.7186
C5 C 0.5537(2) 0.08833(13) 0.65632(7)
H7 H 0.4800 0.0965 0.6375
H8 H 0.5607 0.0328 0.6635
H9 H 0.6311 0.1053 0.6414
C6 C 0.5445(2) 0.22686(11) 0.68792(6)
C7 C 0.55786(19) 0.36176(11) 0.71850(6)
C8 C 0.7000(2) 0.37642(12) 0.70641(7)
H10 H 0.7192 0.3506 0.6790
H11 H 0.7550 0.3553 0.7291
H12 H 0.7149 0.4326 0.7036
C9 C 0.5284(2) 0.40141(12) 0.76304(6)
H13 H 0.5856 0.3802 0.7851
H14 H 0.4400 0.3909 0.7712
H15 H 0.5414 0.4579 0.7607
C10 C 0.4654(2) 0.39769(11) 0.68443(6)
C11 C 0.24264(19) 0.41236(12) 0.65871(6)
H16 H 0.2629 0.4694 0.6586
C12 C 0.1047(2) 0.40510(13) 0.67719(7)
H17 H 0.0460 0.4284 0.6553
C13 C 0.0615(2) 0.31897(13) 0.68408(7)
H18 H -0.0277 0.3181 0.6932
H19 H 0.1145 0.2947 0.7063
H20 H 0.0705 0.2900 0.6570
C14 C 0.0902(2) 0.45426(13) 0.71928(7)
H21 H 0.1447 0.4322 0.7419
H22 H 0.0014 0.4531 0.7288
H23 H 0.1156 0.5083 0.7136
C15 C 0.25251(18) 0.38509(12) 0.61080(6)
C16 C 0.3108(2) 0.28036(11) 0.55788(6)
C17 C 0.3651(2) 0.19528(12) 0.56076(7)
H24 H 0.3019 0.1611 0.5742
H25 H 0.4430 0.1954 0.5781
H26 H 0.3845 0.1762 0.5317
C18 C 0.1847(2) 0.28162(13) 0.53148(7)
H27 H 0.1481 0.3342 0.5323
H28 H 0.1243 0.2444 0.5440
H29 H 0.2024 0.2670 0.5015
C19 C 0.41624(19) 0.33345(11) 0.53639(6)
C20 C 0.63044(18) 0.39413(11) 0.54454(6)
H30 H 0.6603 0.3704 0.5169
C21 C 0.74529(19) 0.39391(12) 0.57710(7)
H31 H 0.7127 0.4100 0.6061
C22 C 0.8051(2) 0.31063(13) 0.58134(7)
H32 H 0.8419 0.2950 0.5536
H33 H 0.7390 0.2732 0.5897
H34 H 0.8720 0.3115 0.6034
C23 C 0.8488(2) 0.45370(15) 0.56287(8)
H35 H 0.8144 0.5067 0.5649
H36 H 0.8739 0.4431 0.5330
H37 H 0.9232 0.4489 0.5817
C24 C 0.58464(19) 0.47884(12) 0.53482(6)
C25 C 0.46834(19) 0.59715(11) 0.56286(6)
C26 C 0.5828(2) 0.65465(12) 0.56567(7)
H38 H 0.6436 0.6429 0.5426
H39 H 0.6247 0.6489 0.5937
H40 H 0.5521 0.7083 0.5624
C27 C 0.3723(2) 0.61240(12) 0.60018(6)
H41 H 0.4159 0.6065 0.6279
H42 H 0.3023 0.5748 0.5984
H43 H 0.3385 0.6655 0.5977
C28 C 0.39585(18) 0.60737(11) 0.51876(6)
C29 C 0.21260(18) 0.55816(12) 0.47386(6)
C30 C 0.1236(2) 0.48482(14) 0.47553(7)
H44 H 0.0738 0.4858 0.5022
H45 H 0.1755 0.4373 0.4747
H46 H 0.0659 0.4855 0.4507
C31 C 0.1332(2) 0.63467(14) 0.47589(7)
H47 H 0.1906 0.6797 0.4755
H48 H 0.0829 0.6353 0.5025
H49 H 0.0761 0.6372 0.4510
C32 C 0.28733(19) 0.55350(12) 0.43018(6)
C33 C 0.4555(2) 0.48371(12) 0.38875(6)
H50 H 0.3927 0.4817 0.3646
C34 C 0.5200(3) 0.40203(13) 0.39274(8)
H51 H 0.4545 0.3620 0.3967
H52 H 0.5776 0.4019 0.4176
H53 H 0.5684 0.3910 0.3664
C35 C 0.55833(19) 0.54604(12) 0.37761(6)
C36 C 0.73976(19) 0.62661(12) 0.40663(6)
C37 C 0.7761(2) 0.66255(13) 0.45132(6)
H54 H 0.7955 0.6205 0.4717
H55 H 0.7047 0.6935 0.4623
H56 H 0.8509 0.6961 0.4480
C38 C 0.8477(2) 0.57036(13) 0.39118(7)
H57 H 0.8241 0.5474 0.3634
H58 H 0.8594 0.5287 0.4125
H59 H 0.9272 0.5997 0.3880
C39 C 0.72402(18) 0.69424(11) 0.37273(6)
C40 C 0.5976(2) 0.79955(12) 0.33759(6)
H60 H 0.6699 0.8375 0.3383
C41 C 0.5907(2) 0.76051(13) 0.29244(7)
H61 H 0.5622 0.7997 0.2711
H62 H 0.6769 0.7429 0.2840
C42 C 0.4716(2) 0.84209(14) 0.35081(7)
H63 H 0.4780 0.8989 0.3455
H64 H 0.3982 0.8211 0.3345
C43 C 0.4575(2) 0.82492(14) 0.39986(7)
H65 H 0.5112 0.8604 0.4173
H66 H 0.3679 0.8298 0.4093
C44 C 0.5045(2) 0.73938(13) 0.40316(7)
H67 H 0.5316 0.7265 0.4329
H68 H 0.4379 0.7021 0.3939
N1 N 0.41136(18) 0.11893(10) 0.71958(6)
N2 N 0.53043(17) 0.27612(9) 0.72255(6)
N3 N 0.33982(17) 0.37507(10) 0.68676(6)
N4 N 0.28868(16) 0.30932(10) 0.60311(5)
N5 N 0.52329(16) 0.34584(10) 0.56125(6)
N6 N 0.51472(16) 0.51451(10) 0.56645(5)
N7 N 0.30262(16) 0.55242(10) 0.51111(5)
N8 N 0.38621(16) 0.50075(10) 0.42896(5)
N9 N 0.61940(16) 0.58034(10) 0.41165(5)
N10 N 0.61567(16) 0.73919(10) 0.37253(5)
O1 O 0.28950(15) 0.17918(9) 0.66788(5)
O2 O 0.56635(14) 0.25213(8) 0.65054(5)
O3 O 0.50094(14) 0.44836(8) 0.65750(5)
O4 O 0.23005(14) 0.43342(8) 0.58141(4)
O5 O 0.40588(14) 0.35989(8) 0.49892(4)
O6 O 0.61408(13) 0.51189(8) 0.50000(4)
O7 O 0.41739(15) 0.66313(8) 0.49399(5)
O8 O 0.25388(15) 0.59158(9) 0.39773(5)
O9 O 0.58625(14) 0.56032(8) 0.33870(4)
O10 O 0.81355(14) 0.70820(9) 0.34682(5)
O11 O 0.50505(16) 0.69453(10) 0.29143(5)
H69 H 0.5371 0.6574 0.3052
H70 H 0.406(3) 0.0975(16) 0.7454(9)
H71 H 0.516(3) 0.2559(15) 0.7484(9)
H72 H 0.319(3) 0.3379(17) 0.7023(9)
H73 H 0.305(2) 0.2771(14) 0.6268(8)
H74 H 0.530(3) 0.3255(16) 0.5864(9)
H75 H 0.486(2) 0.4890(14) 0.5901(8)
H76 H 0.289(2) 0.5136(15) 0.5313(8)
H77 H 0.407(3) 0.4747(17) 0.4515(9)
H78 H 0.596(2) 0.5635(12) 0.4388(7)
O12 O 0.63675(19) 0.57915(10) 0.68929(6)
H79 H 0.593(4) 0.541(2) 0.6756(13)
H80 H 0.595(3) 0.6234(14) 0.6819(11)
O13 O 0.24620(18) 0.66547(12) 1.31582(6)
H81 H 0.250(4) 0.637(2) 1.3428(12)
H82 H 0.328(4) 0.678(2) 1.3075(11)
O14 O 0.04130(17) 0.76921(10) 1.31379(5)
H83 H -0.028(4) 0.752(2) 1.3282(12)
H84 H 0.108(3) 0.7378(19) 1.3209(12)
loop_
_geom_bond_atom_site_label_1
_geom_bond_atom_site_label_2
_geom_bond_site_symmetry_1
_geom_bond_site_symmetry_2
C1 H1 1_555 1_555
H2 C1 1_555 1_555
H3 C1 1_555 1_555
C2 C1 1_555 1_555
C3 C4 1_555 1_555
C4 H4 1_555 1_555
H5 C4 1_555 1_555
H6 C4 1_555 1_555
C5 C3 1_555 1_555
H7 C5 1_555 1_555
H8 C5 1_555 1_555
H9 C5 1_555 1_555
C6 C3 1_555 1_555
C7 C8 1_555 1_555
C8 H10 1_555 1_555
H11 C8 1_555 1_555
H12 C8 1_555 1_555
C9 C7 1_555 1_555
H13 C9 1_555 1_555
H14 C9 1_555 1_555
H15 C9 1_555 1_555
C10 C7 1_555 1_555
C11 H16 1_555 1_555
C12 C11 1_555 1_555
H17 C12 1_555 1_555
C13 C12 1_555 1_555
H18 C13 1_555 1_555
H19 C13 1_555 1_555
H20 C13 1_555 1_555
C14 C12 1_555 1_555
H21 C14 1_555 1_555
H22 C14 1_555 1_555
H23 C14 1_555 1_555
C15 C11 1_555 1_555
C16 C17 1_555 1_555
C17 H24 1_555 1_555
H25 C17 1_555 1_555
H26 C17 1_555 1_555
C18 C16 1_555 1_555
H27 C18 1_555 1_555
H28 C18 1_555 1_555
H29 C18 1_555 1_555
C19 C16 1_555 1_555
C20 H30 1_555 1_555
C21 C20 1_555 1_555
H31 C21 1_555 1_555
C22 C21 1_555 1_555
H32 C22 1_555 1_555
H33 C22 1_555 1_555
H34 C22 1_555 1_555
C23 C21 1_555 1_555
H35 C23 1_555 1_555
H36 C23 1_555 1_555
H37 C23 1_555 1_555
C24 C20 1_555 1_555
C25 C26 1_555 1_555
C26 H38 1_555 1_555
H39 C26 1_555 1_555
H40 C26 1_555 1_555
C27 C25 1_555 1_555
H41 C27 1_555 1_555
H42 C27 1_555 1_555
H43 C27 1_555 1_555
C28 C25 1_555 1_555
C29 C30 1_555 1_555
C30 H44 1_555 1_555
H45 C30 1_555 1_555
H46 C30 1_555 1_555
C31 C29 1_555 1_555
H47 C31 1_555 1_555
H48 C31 1_555 1_555
H49 C31 1_555 1_555
C32 C29 1_555 1_555
C33 H50 1_555 1_555
C34 C33 1_555 1_555
H51 C34 1_555 1_555
H52 C34 1_555 1_555
H53 C34 1_555 1_555
C35 C33 1_555 1_555
C36 C37 1_555 1_555
C37 H54 1_555 1_555
H55 C37 1_555 1_555
H56 C37 1_555 1_555
C38 C36 1_555 1_555
H57 C38 1_555 1_555
H58 C38 1_555 1_555
H59 C38 1_555 1_555
C39 C36 1_555 1_555
C40 H60 1_555 1_555
C41 C40 1_555 1_555
H61 C41 1_555 1_555
H62 C41 1_555 1_555
C42 C40 1_555 1_555
H63 C42 1_555 1_555
H64 C42 1_555 1_555
C43 C42 1_555 1_555
H65 C43 1_555 1_555
H66 C43 1_555 1_555
C44 C43 1_555 1_555
H67 C44 1_555 1_555
H68 C44 1_555 1_555
N1 C2 1_555 1_555
N2 C6 1_555 1_555
N3 C10 1_555 1_555
N4 C15 1_555 1_555
N5 C19 1_555 1_555
N6 C24 1_555 1_555
N7 C28 1_555 1_555
N8 C32 1_555 1_555
N9 C35 1_555 1_555
N10 C39 1_555 1_555
O1 C2 1_555 1_555
O2 C6 1_555 1_555
O3 C10 1_555 1_555
O4 C15 1_555 1_555
O5 C19 1_555 1_555
O6 C24 1_555 1_555
O7 C28 1_555 1_555
O8 C32 1_555 1_555
O9 C35 1_555 1_555
O10 C39 1_555 1_555
O11 C41 1_555 1_555
H69 O11 1_555 1_555
H70 N1 1_555 1_555
H71 N2 1_555 1_555
H72 N3 1_555 1_555
H73 N4 1_555 1_555
H74 N5 1_555 1_555
H75 N6 1_555 1_555
H76 N7 1_555 1_555
H77 N8 1_555 1_555
H78 N9 1_555 1_555
O12 H79 1_555 1_555
H80 O12 1_555 1_555
O13 H81 1_555 1_555
H82 O13 1_555 1_555
O14 H83 1_555 1_555
H84 O14 1_555 1_555
C3 N1 1_555 1_555
C7 N2 1_555 1_555
C11 N3 1_555 1_555
C16 N4 1_555 1_555
C20 N5 1_555 1_555
C25 N6 1_555 1_555
C29 N7 1_555 1_555
C33 N8 1_555 1_555
C36 N9 1_555 1_555
C40 N10 1_555 1_555
C44 N10 1_555 1_555

#END
