
#######################################################################
#
#                 Cambridge Crystallographic Data Centre
#                                CCDC 
#
#######################################################################
#
# If this CIF has been generated from an entry in the Cambridge 
# Structural Database, then it will include bibliographic, chemical, 
# crystal, experimental, refinement or atomic coordinate data resulting 
# from the CCDC's data processing and validation procedures.
#
#######################################################################

data_TIQKOU
_chemical_formula_moiety         'C46 H56 N4,1.2(C1 H2 Cl2)'
_chemical_name_systematic        
'2,6,8,12-Tetraaza-1,7(1,2)-dicyclohexana-4,10(1,9)-di-(7)triangulanacyclododecaphane-2,5,8,11-tetraene dichloromethane solvate'
_symmetry_cell_setting           trigonal
_symmetry_space_group_name_H-M   'P 31 2 1'
_symmetry_Int_Tables_number      152
_space_group_name_Hall           'P 31 2"'
loop_
_symmetry_equiv_pos_site_id
_symmetry_equiv_pos_as_xyz
1 x,y,z
2 -y,x-y,1/3+z
3 -x+y,-x,2/3+z
4 y,x,-z
5 x-y,-y,2/3-z
6 -x,-x+y,1/3-z
_cell_length_a                   14.724(2)
_cell_length_b                   14.724(2)
_cell_length_c                   35.376(7)
_cell_angle_alpha                90
_cell_angle_beta                 90
_cell_angle_gamma                120
_cell_volume                     6641.88
_exptl_crystal_colour            colorless
_exptl_crystal_description       prismatic
_cell_formula_units_Z            6
_exptl_crystal_recrystallization_method dichloromethane/cyclohexane
loop_
_atom_site_label
_atom_site_type_symbol
_atom_site_fract_x
_atom_site_fract_y
_atom_site_fract_z
C1 C 0.5753(2) 0.5233(2) 0.21102(8)
H1 H 0.6362 0.5894 0.2052
C2 C 0.4827(2) 0.5398(2) 0.21912(8)
H2 H 0.4206 0.4728 0.2224
C3 C 0.5025(2) 0.6054(2) 0.25484(8)
H3 H 0.4429 0.6134 0.2602
H4 H 0.5614 0.6740 0.2504
C4 C 0.5249(2) 0.5571(3) 0.28892(8)
H5 H 0.4638 0.4915 0.2951
H6 H 0.5414 0.6031 0.3102
C5 C 0.6163(3) 0.5394(3) 0.28124(8)
H7 H 0.6266 0.5045 0.3023
H8 H 0.6791 0.6058 0.2779
C6 C 0.5963(2) 0.4744(2) 0.24578(8)
H9 H 0.6556 0.4656 0.2410
H10 H 0.5365 0.4062 0.2500
N1 N 0.55280(18) 0.44974(19) 0.17963(6)
C7 C 0.6170(2) 0.4776(2) 0.15267(8)
H11 H 0.6730 0.5491 0.1517
C8 C 0.6097(2) 0.4057(2) 0.12259(8)
H12 H 0.5524 0.3350 0.1245
C9 C 0.7127(2) 0.4187(2) 0.10617(9)
H13 H 0.7150 0.3566 0.0996
H14 H 0.7773 0.4756 0.1156
C10 C 0.6455(2) 0.4447(2) 0.08343(8)
C11 C 0.6514(2) 0.5326(2) 0.05976(8)
H15 H 0.7168 0.5787 0.0476
H16 H 0.6115 0.5647 0.0674
C12 C 0.5926(2) 0.4197(2) 0.04686(8)
C13 C 0.4870(2) 0.3402(2) 0.03283(8)
H17 H 0.4445 0.3644 0.0209
H18 H 0.4492 0.2763 0.0469
C14 C 0.5847(2) 0.3610(2) 0.01272(8)
N2 N 0.46478(19) 0.59593(18) 0.18838(6)
C15 C 0.3851(2) 0.5444(2) 0.16721(8)
H19 H 0.3404 0.4705 0.1713
C16 C 0.3599(2) 0.5944(2) 0.13645(8)
H20 H 0.3907 0.6691 0.1380
C17 C 0.2509(2) 0.5346(3) 0.11780(8)
H21 H 0.2182 0.5734 0.1094
H22 H 0.2036 0.4659 0.1275
C18 C 0.3446(2) 0.5483(2) 0.09754(8)
C19 C 0.3828(2) 0.4828(2) 0.07876(8)
H23 H 0.3316 0.4186 0.0670
H24 H 0.4417 0.4813 0.0896
C20 C 0.4004(2) 0.5842(2) 0.06193(8)
C21 C 0.4878(2) 0.6855(2) 0.04708(8)
H25 H 0.5489 0.6856 0.0375
H26 H 0.5011 0.7492 0.0592
C22 C 0.6237(2) 0.3875(2) -0.02559(8)
C23 C 0.6359(3) 0.3050(3) -0.00475(8)
H27 H 0.7047 0.3231 0.0038
H28 H 0.5921 0.2331 -0.0121
C1C C 0.5233(2) 0.5753(2) -0.21102(8)
H1C H 0.5894 0.6362 -0.2052
C2C C 0.5398(2) 0.4827(2) -0.21912(8)
H2C H 0.4728 0.4206 -0.2224
C3C C 0.6054(2) 0.5025(2) -0.25484(8)
H3C H 0.6134 0.4429 -0.2602
H4C H 0.6740 0.5614 -0.2504
C4C C 0.5571(3) 0.5249(2) -0.28892(8)
H5C H 0.4915 0.4638 -0.2951
H6C H 0.6031 0.5414 -0.3102
C5C C 0.5394(3) 0.6163(3) -0.28124(8)
H7C H 0.5045 0.6266 -0.3023
H8C H 0.6058 0.6791 -0.2779
C6C C 0.4744(2) 0.5963(2) -0.24578(8)
H9C H 0.4656 0.6556 -0.2410
H10C H 0.4062 0.5365 -0.2500
N1C N 0.44974(19) 0.55280(18) -0.17963(6)
C7C C 0.4776(2) 0.6170(2) -0.15267(8)
H11C H 0.5491 0.6730 -0.1517
C8C C 0.4057(2) 0.6097(2) -0.12259(8)
H12C H 0.3350 0.5524 -0.1245
C9C C 0.4187(2) 0.7127(2) -0.10617(9)
H13C H 0.3566 0.7150 -0.0996
H14C H 0.4756 0.7773 -0.1156
C10C C 0.4447(2) 0.6455(2) -0.08343(8)
C11C C 0.5326(2) 0.6514(2) -0.05976(8)
H15C H 0.5787 0.7168 -0.0476
H16C H 0.5647 0.6115 -0.0674
C12C C 0.4197(2) 0.5926(2) -0.04686(8)
C13C C 0.3402(2) 0.4870(2) -0.03283(8)
H17C H 0.3644 0.4445 -0.0209
H18C H 0.2763 0.4492 -0.0469
C14C C 0.3610(2) 0.5847(2) -0.01272(8)
N2C N 0.59593(18) 0.46478(19) -0.18838(6)
C15C C 0.5444(2) 0.3851(2) -0.16721(8)
H19C H 0.4705 0.3404 -0.1713
C16C C 0.5944(2) 0.3599(2) -0.13645(8)
H20C H 0.6691 0.3907 -0.1380
C17C C 0.5346(3) 0.2509(2) -0.11780(8)
H21C H 0.5734 0.2182 -0.1094
H22C H 0.4659 0.2036 -0.1275
C18C C 0.5483(2) 0.3446(2) -0.09754(8)
C19C C 0.4828(2) 0.3828(2) -0.07876(8)
H23C H 0.4186 0.3316 -0.0670
H24C H 0.4813 0.4417 -0.0896
C20C C 0.5842(2) 0.4004(2) -0.06193(8)
C21C C 0.6855(2) 0.4878(2) -0.04708(8)
H25C H 0.6856 0.5489 -0.0375
H26C H 0.7492 0.5011 -0.0592
C22C C 0.3875(2) 0.6237(2) 0.02559(8)
C23C C 0.3050(3) 0.6359(3) 0.00475(8)
H27C H 0.3231 0.7047 -0.0038
H28C H 0.2331 0.5921 0.0121
C24 C 0.7783(2) 0.7375(2) 0.36629(8)
H29 H 0.7119 0.6899 0.3550
C25 C 0.8382(2) 0.6794(2) 0.37396(8)
H30 H 0.9087 0.7289 0.3814
C26 C 0.7845(3) 0.5965(2) 0.40491(8)
H31 H 0.8258 0.5642 0.4102
H32 H 0.7174 0.5430 0.3958
C27 C 0.7687(3) 0.6409(3) 0.44116(8)
H33 H 0.8357 0.6901 0.4517
H34 H 0.7320 0.5858 0.4593
C28 C 0.7071(3) 0.6961(3) 0.43390(9)
H35 H 0.7006 0.7276 0.4567
H36 H 0.6378 0.6454 0.4256
C29 C 0.7591(2) 0.7798(2) 0.40343(9)
H37 H 0.7172 0.8118 0.3987
H38 H 0.8258 0.8331 0.4128
N3 N 0.8376(2) 0.82592(19) 0.34085(7)
C30 C 0.7944(2) 0.8312(2) 0.31079(9)
H39 H 0.7250 0.7758 0.3047
C31 C 0.8461(2) 0.9210(2) 0.28488(9)
H40 H 0.9052 0.9823 0.2952
C32 C 0.7800(3) 0.9408(2) 0.25583(9)
H41 H 0.7993 1.0119 0.2502
H42 H 0.7061 0.8917 0.2553
C33 C 0.8520(2) 0.9043(2) 0.24357(9)
C34 C 0.8477(2) 0.8181(2) 0.21991(9)
H43 H 0.7980 0.7918 0.1995
H44 H 0.8603 0.7670 0.2320
C35 C 0.9365(2) 0.9296(2) 0.21666(9)
C36 C 1.0544(2) 0.9883(3) 0.21846(10)
H45 H 1.0906 0.9509 0.2128
H46 H 1.0871 1.0422 0.2373
C37 C 0.9970(2) 1.0052(2) 0.18708(8)
C38 C 1.0000 1.0964(3) 0.1667
H47 H 1.0635 1.1631 0.1676
N4 N 0.8392(2) 0.62335(19) 0.33997(7)
C39 C 0.9259(3) 0.6441(2) 0.32582(8)
H48 H 0.9899 0.7009 0.3357
C40 C 0.9292(3) 0.5836(3) 0.29303(9)
H49 H 0.8644 0.5207 0.2875
C41 C 1.0285(4) 0.5781(3) 0.28529(10)
H50 H 1.0210 0.5132 0.2762
H51 H 1.0880 0.6179 0.3014
C42 C 0.9973(3) 0.6362(2) 0.26010(9)
C43 C 1.0441(2) 0.7424(2) 0.24237(8)
H52 H 1.1176 0.7801 0.2366
H53 H 1.0149 0.7853 0.2498
C44 C 0.9746(2) 0.6435(2) 0.22058(8)
C45 C 0.8755(3) 0.5980(3) 0.19790(9)
H54 H 0.8589 0.6460 0.1856
H55 H 0.8161 0.5340 0.2065
C46 C 0.9703(3) 0.5949(2) 0.18412(8)
C47 C 1.0000 0.5206(3) 0.1667
H56 H 0.9457 0.4585 0.1547
C24E C 1.2217(2) 0.9592(3) -0.03296(8)
H29E H 1.2881 0.9780 -0.0217
C25E C 1.1618(2) 0.8412(3) -0.04063(8)
H30E H 1.0913 0.8202 -0.0481
C26E C 1.2155(3) 0.8120(4) -0.07158(8)
H31E H 1.1742 0.7384 -0.0769
H32E H 1.2826 0.8256 -0.0625
C27E C 1.2313(3) 0.8722(4) -0.10783(8)
H33E H 1.1643 0.8544 -0.1184
H34E H 1.2680 0.8538 -0.1260
C28E C 1.2929(3) 0.9890(4) -0.10057(9)
H35E H 1.2994 1.0270 -0.1234
H36E H 1.3622 1.0076 -0.0923
C29E C 1.2409(2) 1.0207(3) -0.07010(9)
H37E H 1.2828 1.0946 -0.0654
H38E H 1.1742 1.0073 -0.0795
N3E N 1.1624(2) 0.98832(28) -0.00752(7)
C30E C 1.2056(2) 1.0368(3) 0.02254(9)
H39E H 1.2750 1.0508 0.0286
C31E C 1.1539(2) 1.0749(3) 0.04845(9)
H40E H 1.0948 1.0771 0.0381
C32E C 1.2200(3) 1.1608(4) 0.07750(9)
H41E H 1.2007 1.2126 0.0831
H42E H 1.2939 1.1856 0.0780
C33E C 1.1480(2) 1.0523(3) 0.08976(9)
C34E C 1.1523(2) 0.9704(3) 0.11342(9)
H43E H 1.2020 0.9938 0.1338
H44E H 1.1397 0.9067 0.1013
C35E C 1.0635(2) 0.9931(3) 0.11667(9)
C36E C 0.9456(2) 0.9339(4) 0.11487(10)
H45E H 0.9094 0.8603 0.1205
H46E H 0.9129 0.9551 0.0960
C37E C 1.0030(2) 1.0082(3) 0.14625(8)
H47E H 0.9365 1.0996 0.1657
N4E N 1.1608(2) 0.78415(28) -0.00664(7)
C39E C 1.0741(3) 0.7182(4) 0.00751(8)
H48E H 1.0101 0.7110 -0.0024
C40E C 1.0708(3) 0.6544(4) 0.04030(9)
H49E H 1.1356 0.6563 0.0458
C41E C 0.9715(4) 0.5496(5) 0.04804(10)
H50E H 0.9790 0.4922 0.0571
H51E H 0.9120 0.5299 0.0319
C42E C 1.0027(3) 0.6389(4) 0.07323(9)
C43E C 0.9559(2) 0.6983(3) 0.09096(8)
H52E H 0.8824 0.6625 0.0967
H53E H 0.9851 0.7704 0.0835
C44E C 1.0254(2) 0.6689(3) 0.11275(8)
C45E C 1.1245(3) 0.7225(4) 0.13543(9)
H54E H 1.1411 0.7871 0.1477
H55E H 1.1839 0.7179 0.1268
C46E C 1.0297(3) 0.6246(4) 0.14921(8)
H56E H 1.0543 0.5128 0.1786
Cl1 Cl 0.33513(8) 0.07933(9) 0.20968(3)
C48 C 0.3688(3) 0.1946(3) 0.18297(12)
H57 H 0.3798 0.1759 0.1581
H58 H 0.4319 0.2551 0.1915
Cl2 Cl 0.27574(17) 0.22508(18) 0.17498(8)
Cl4 Cl 0.2240(8) 0.0782(8) 0.3045(3)
C49 C 0.1174(3) 0.0000 0.3333
H60 H 0.0588 -0.0407 0.3170
Cl4D Cl 0.1458(11) -0.0782(8) 0.3622(3)
H60D H 0.0995 0.0407 0.3497
Cl3? Cl 0.2927(4) 0.2378(3) 0.2112(3)
H59? H 0.0531 -0.0524 0.3220
Cl5? Cl 0.2192(7) 0.0646(8) 0.3003(2)
loop_
_geom_bond_atom_site_label_1
_geom_bond_atom_site_label_2
_geom_bond_site_symmetry_1
_geom_bond_site_symmetry_2
C1 H1 1_555 1_555
C2 C1 1_555 1_555
H2 C2 1_555 1_555
C3 C2 1_555 1_555
H3 C3 1_555 1_555
H4 C3 1_555 1_555
C4 C3 1_555 1_555
H5 C4 1_555 1_555
H6 C4 1_555 1_555
C5 C4 1_555 1_555
H7 C5 1_555 1_555
H8 C5 1_555 1_555
C6 C1 1_555 1_555
H9 C6 1_555 1_555
H10 C6 1_555 1_555
N1 C1 1_555 1_555
C7 N1 1_555 1_555
H11 C7 1_555 1_555
C8 C7 1_555 1_555
H12 C8 1_555 1_555
C9 C8 1_555 1_555
H13 C9 1_555 1_555
H14 C9 1_555 1_555
C10 C8 1_555 1_555
C11 C10 1_555 1_555
H15 C11 1_555 1_555
H16 C11 1_555 1_555
C12 C10 1_555 1_555
C13 C12 1_555 1_555
H17 C13 1_555 1_555
H18 C13 1_555 1_555
C14 C12 1_555 1_555
N2 C2 1_555 1_555
C15 N2 1_555 1_555
H19 C15 1_555 1_555
C16 C15 1_555 1_555
H20 C16 1_555 1_555
C17 C16 1_555 1_555
H21 C17 1_555 1_555
H22 C17 1_555 1_555
C18 C16 1_555 1_555
C19 C18 1_555 1_555
H23 C19 1_555 1_555
H24 C19 1_555 1_555
C20 C18 1_555 1_555
C21 C20 1_555 1_555
H25 C21 1_555 1_555
H26 C21 1_555 1_555
C22 C14 1_555 1_555
C23 C14 1_555 1_555
H27 C23 1_555 1_555
H28 C23 1_555 1_555
C24 H29 1_555 1_555
C25 C24 1_555 1_555
H30 C25 1_555 1_555
C26 C25 1_555 1_555
H31 C26 1_555 1_555
H32 C26 1_555 1_555
C27 C26 1_555 1_555
H33 C27 1_555 1_555
H34 C27 1_555 1_555
C28 C27 1_555 1_555
H35 C28 1_555 1_555
H36 C28 1_555 1_555
C29 C24 1_555 1_555
H37 C29 1_555 1_555
H38 C29 1_555 1_555
N3 C24 1_555 1_555
C30 N3 1_555 1_555
H39 C30 1_555 1_555
C31 C30 1_555 1_555
H40 C31 1_555 1_555
C32 C31 1_555 1_555
H41 C32 1_555 1_555
H42 C32 1_555 1_555
C33 C31 1_555 1_555
C34 C33 1_555 1_555
H43 C34 1_555 1_555
H44 C34 1_555 1_555
C35 C33 1_555 1_555
C36 C35 1_555 1_555
H45 C36 1_555 1_555
H46 C36 1_555 1_555
C37 C35 1_555 1_555
C38 C37 1_555 1_555
H47 C38 1_555 1_555
N4 C25 1_555 1_555
C39 N4 1_555 1_555
H48 C39 1_555 1_555
C40 C39 1_555 1_555
H49 C40 1_555 1_555
C41 C40 1_555 1_555
H50 C41 1_555 1_555
H51 C41 1_555 1_555
C42 C40 1_555 1_555
C43 C42 1_555 1_555
H52 C43 1_555 1_555
H53 C43 1_555 1_555
C44 C42 1_555 1_555
C45 C44 1_555 1_555
H54 C45 1_555 1_555
H55 C45 1_555 1_555
C46 C44 1_555 1_555
C47 C46 1_555 1_555
H56 C47 1_555 1_555
Cl1 C48 1_555 1_555
C48 H57 1_555 1_555
H58 C48 1_555 1_555
Cl2 C48 1_555 1_555
Cl4 C49 1_555 1_555
C49 H60 1_555 1_555
C1C H1C 1_555 1_555
C2C C1C 1_555 1_555
H2C C2C 1_555 1_555
C3C C2C 1_555 1_555
H3C C3C 1_555 1_555
H4C C3C 1_555 1_555
C4C C3C 1_555 1_555
H5C C4C 1_555 1_555
H6C C4C 1_555 1_555
C5C C4C 1_555 1_555
H7C C5C 1_555 1_555
H8C C5C 1_555 1_555
C6C C1C 1_555 1_555
H9C C6C 1_555 1_555
H10C C6C 1_555 1_555
N1C C1C 1_555 1_555
C7C N1C 1_555 1_555
H11C C7C 1_555 1_555
C8C C7C 1_555 1_555
H12C C8C 1_555 1_555
C9C C8C 1_555 1_555
H13C C9C 1_555 1_555
H14C C9C 1_555 1_555
C10C C8C 1_555 1_555
C11C C10C 1_555 1_555
H15C C11C 1_555 1_555
H16C C11C 1_555 1_555
C12C C10C 1_555 1_555
C13C C12C 1_555 1_555
H17C C13C 1_555 1_555
H18C C13C 1_555 1_555
C14C C12C 1_555 1_555
N2C C2C 1_555 1_555
C15C N2C 1_555 1_555
H19C C15C 1_555 1_555
C16C C15C 1_555 1_555
H20C C16C 1_555 1_555
C17C C16C 1_555 1_555
H21C C17C 1_555 1_555
H22C C17C 1_555 1_555
C18C C16C 1_555 1_555
C19C C18C 1_555 1_555
H23C C19C 1_555 1_555
H24C C19C 1_555 1_555
C20C C22 1_555 1_555
C21C C22 1_555 1_555
H25C C21C 1_555 1_555
H26C C21C 1_555 1_555
C22C C20 1_555 1_555
C23C C14C 1_555 1_555
H27C C23C 1_555 1_555
H28C C23C 1_555 1_555
C24E H29E 1_555 1_555
C25E C24E 1_555 1_555
H30E C25E 1_555 1_555
C26E C25E 1_555 1_555
H31E C26E 1_555 1_555
H32E C26E 1_555 1_555
C27E C26E 1_555 1_555
H33E C27E 1_555 1_555
H34E C27E 1_555 1_555
C28E C27E 1_555 1_555
H35E C28E 1_555 1_555
H36E C28E 1_555 1_555
C29E C24E 1_555 1_555
H37E C29E 1_555 1_555
H38E C29E 1_555 1_555
N3E C24E 1_555 1_555
C30E N3E 1_555 1_555
H39E C30E 1_555 1_555
C31E C30E 1_555 1_555
H40E C31E 1_555 1_555
C32E C31E 1_555 1_555
H41E C32E 1_555 1_555
H42E C32E 1_555 1_555
C33E C31E 1_555 1_555
C34E C33E 1_555 1_555
H43E C34E 1_555 1_555
H44E C34E 1_555 1_555
C35E C33E 1_555 1_555
C36E C35E 1_555 1_555
H45E C36E 1_555 1_555
H46E C36E 1_555 1_555
C37E C37 1_555 1_555
H47E C38 1_555 1_555
N4E C25E 1_555 1_555
C39E N4E 1_555 1_555
H48E C39E 1_555 1_555
C40E C39E 1_555 1_555
H49E C40E 1_555 1_555
C41E C40E 1_555 1_555
H50E C41E 1_555 1_555
H51E C41E 1_555 1_555
C42E C40E 1_555 1_555
C43E C42E 1_555 1_555
H52E C43E 1_555 1_555
H53E C43E 1_555 1_555
C44E C42E 1_555 1_555
C45E C44E 1_555 1_555
H54E C45E 1_555 1_555
H55E C45E 1_555 1_555
C46E C46 1_555 1_555
H56E C47 1_555 1_555
Cl4D C49 1_555 1_555
H60D C49 1_555 1_555
C5 C6 1_555 1_555
C9 C10 1_555 1_555
C11 C12 1_555 1_555
C13 C14 1_555 1_555
C17 C18 1_555 1_555
C19 C20 1_555 1_555
C21 C22C 1_555 1_555
C22 C23 1_555 1_555
C28 C29 1_555 1_555
C32 C33 1_555 1_555
C34 C35 1_555 1_555
C36 C37 1_555 1_555
C38 C37E 1_555 1_555
C41 C42 1_555 1_555
C43 C44 1_555 1_555
C45 C46 1_555 1_555
C47 C46E 1_555 1_555
C5C C6C 1_555 1_555
C9C C10C 1_555 1_555
C11C C12C 1_555 1_555
C13C C14C 1_555 1_555
C14C C22C 1_555 1_555
C17C C18C 1_555 1_555
C18C C20C 1_555 1_555
C19C C20C 1_555 1_555
C20C C21C 1_555 1_555
C22C C23C 1_555 1_555
C28E C29E 1_555 1_555
C32E C33E 1_555 1_555
C34E C35E 1_555 1_555
C35E C37E 1_555 1_555
C36E C37E 1_555 1_555
C41E C42E 1_555 1_555
C43E C44E 1_555 1_555
C44E C46E 1_555 1_555
C45E C46E 1_555 1_555

#END
