
#######################################################################
#
#                 Cambridge Crystallographic Data Centre
#                                CCDC 
#
#######################################################################
#
# If this CIF has been generated from an entry in the Cambridge 
# Structural Database, then it will include bibliographic, chemical, 
# crystal, experimental, refinement or atomic coordinate data resulting 
# from the CCDC's data processing and validation procedures.
#
#######################################################################

data_TIQLAG
_chemical_formula_moiety         'C12 H28 N2 2+,2(F6 P1 1-)'
_chemical_name_systematic        
'E-Tetraethyl-1,4-diammoniumbut-2-ene bis(hexafluorophosphate)'
_symmetry_cell_setting           monoclinic
_symmetry_space_group_name_H-M   'P 21/c'
_symmetry_Int_Tables_number      14
_space_group_name_Hall           '-P 2ybc'
loop_
_symmetry_equiv_pos_site_id
_symmetry_equiv_pos_as_xyz
1 x,y,z
2 -x,1/2+y,1/2-z
3 -x,-y,-z
4 x,1/2-y,1/2+z
_cell_length_a                   6.282(1)
_cell_length_b                   13.252(1)
_cell_length_c                   13.112(1)
_cell_angle_alpha                90
_cell_angle_beta                 98.08(9)
_cell_angle_gamma                90
_cell_volume                     1080.73
_exptl_crystal_colour            colorless
_chemical_melting_point          462-462.5K
_cell_formula_units_Z            2
loop_
_atom_site_label
_atom_site_type_symbol
_atom_site_fract_x
_atom_site_fract_y
_atom_site_fract_z
P1 P -0.54040(2) 0.32589(1) 0.81703(1)
F1 F -0.5598(4) 0.4123(3) 0.7306(2)
F2 F -0.28358(19) 0.32999(14) 0.82658(14)
F3 F -0.5454(3) 0.2391(2) 0.7293(2)
F4 F -0.80117(19) 0.31994(14) 0.80455(13)
F5 F -0.5399(3) 0.4124(2) 0.9030(2)
F6 F -0.5249(4) 0.2415(2) 0.9055(3)
N1 N 0.03394(14) 0.15113(7) 0.66671(7)
C1 C 0.02006(13) 0.00150(7) 0.55129(6)
C2 C 0.16022(12) 0.08027(6) 0.60768(7)
C3 C -0.07967(15) 0.09909(7) 0.74585(8)
C4 C 0.0703(2) 0.0368(1) 0.8213(1)
C5 C -0.12225(14) 0.21602(7) 0.59781(7)
C6 C -0.01186(18) 0.28627(8) 0.53094(8)
H1 H 0.14435 0.20155 0.70358
H2 H -0.05209 -0.05110 0.59754
H3 H 0.23463 0.12926 0.55878
H4 H 0.28646 0.04835 0.66073
H5 H -0.15134 0.16106 0.78016
H6 H -0.20143 0.05363 0.70350
H7 H 0.20279 0.08011 0.85740
H8 H 0.13769 -0.02473 0.78432
H9 H -0.01908 0.01506 0.88103
H10 H -0.20150 0.25920 0.64985
H11 H -0.23562 0.16643 0.55539
H12 H 0.11609 0.32818 0.57311
H13 H 0.05942 0.24735 0.47317
H14 H -0.14250 0.33166 0.49627
C1B C -0.02006(13) -0.00150(7) 0.44871(6)
C2B C -0.16022(12) -0.08027(6) 0.39232(7)
N1B N -0.03394(14) -0.15113(7) 0.33329(7)
C3B C 0.07967(15) -0.09909(7) 0.25415(8)
C4B C -0.0703(2) -0.0368(1) 0.1787(1)
H7B H -0.20279 -0.08011 0.14260
H8B H -0.13769 0.02473 0.21568
H9B H 0.01908 -0.01506 0.11897
H5B H 0.15134 -0.16106 0.21984
H6B H 0.20143 -0.05363 0.29650
C5B C 0.12225(14) -0.21602(7) 0.40219(7)
C6B C 0.01186(18) -0.28627(8) 0.46906(8)
H12B H -0.11609 -0.32818 0.42689
H13B H -0.05942 -0.24735 0.52683
H14B H 0.14250 -0.33166 0.50373
H10B H 0.20150 -0.25920 0.35015
H11B H 0.23562 -0.16643 0.44461
H1B H -0.14435 -0.20155 0.29642
H3B H -0.23463 -0.12926 0.44122
H4B H -0.28646 -0.04835 0.33927
H2B H 0.05209 0.05110 0.40246
loop_
_geom_bond_atom_site_label_1
_geom_bond_atom_site_label_2
_geom_bond_site_symmetry_1
_geom_bond_site_symmetry_2
P1 F1 1_555 1_555
F2 P1 1_555 1_555
F3 P1 1_555 1_555
F4 P1 1_555 1_555
F5 P1 1_555 1_555
F6 P1 1_555 1_555
N1 C2 1_555 1_555
C1 C2 1_555 1_555
C2 H3 1_555 1_555
C3 N1 1_555 1_555
C4 C3 1_555 1_555
C5 N1 1_555 1_555
C6 C5 1_555 1_555
H1 N1 1_555 1_555
H2 C1 1_555 1_555
H4 C2 1_555 1_555
H5 C3 1_555 1_555
H6 C3 1_555 1_555
H7 C4 1_555 1_555
H8 C4 1_555 1_555
H9 C4 1_555 1_555
H10 C5 1_555 1_555
H11 C5 1_555 1_555
H12 C6 1_555 1_555
H13 C6 1_555 1_555
H14 C6 1_555 1_555
C1B C1 1_555 1_555
C2B C1B 1_555 1_555
N1B C2B 1_555 1_555
C3B N1B 1_555 1_555
C4B C3B 1_555 1_555
H7B C4B 1_555 1_555
H8B C4B 1_555 1_555
H9B C4B 1_555 1_555
H5B C3B 1_555 1_555
H6B C3B 1_555 1_555
C5B N1B 1_555 1_555
C6B C5B 1_555 1_555
H12B C6B 1_555 1_555
H13B C6B 1_555 1_555
H14B C6B 1_555 1_555
H10B C5B 1_555 1_555
H11B C5B 1_555 1_555
H1B N1B 1_555 1_555
H3B C2B 1_555 1_555
H4B C2B 1_555 1_555
H2B C1B 1_555 1_555

#END
