
#######################################################################
#
#                 Cambridge Crystallographic Data Centre
#                                CCDC 
#
#######################################################################
#
# If this CIF has been generated from an entry in the Cambridge 
# Structural Database, then it will include bibliographic, chemical, 
# crystal, experimental, refinement or atomic coordinate data resulting 
# from the CCDC's data processing and validation procedures.
#
#######################################################################

data_TIQXIC
_chemical_formula_moiety         'C44 H68 P2'
_chemical_name_systematic        
(3,3,9,9-Tetramethyl-3,4,5,7,8,9-hexahydrocyclohepta[4,5]benzo[1,2][7]annulene-1,11-diyl)bis(dicyclohexylphosphine)
_symmetry_cell_setting           monoclinic
_symmetry_space_group_name_H-M   'C 2/c'
_symmetry_Int_Tables_number      15
_space_group_name_Hall           '-C 2yn'
loop_
_symmetry_equiv_pos_site_id
_symmetry_equiv_pos_as_xyz
1 x,y,z
2 -x,y,1/2-z
3 1/2+x,1/2+y,z
4 1/2-x,1/2+y,1/2-z
5 -x,-y,-z
6 x,-y,1/2+z
7 1/2-x,1/2-y,-z
8 1/2+x,1/2-y,1/2+z
_cell_length_a                   10.928(2)
_cell_length_b                   18.734(3)
_cell_length_c                   21.519(4)
_cell_angle_alpha                90
_cell_angle_beta                 118.093(8)
_cell_angle_gamma                90
_cell_volume                     3886.45
_exptl_crystal_colour            colorless
_exptl_crystal_description       plate
_cell_formula_units_Z            4
loop_
_atom_site_label
_atom_site_type_symbol
_atom_site_fract_x
_atom_site_fract_y
_atom_site_fract_z
C1 C 1.0000 -0.1397(3) 0.7500
H1 H 1.0000 -0.0889 0.7500
C2 C 0.9241(3) -0.17606(18) 0.68660(19)
C3 C 0.9288(4) -0.25110(19) 0.6862(2)
C4 C 1.0000 -0.2865(3) 0.7500
H2 H 1.0000 -0.3373 0.7500
C5 C 0.8330(4) -0.13798(19) 0.61943(19)
C6 C 0.7035(4) -0.16125(19) 0.57775(19)
H3 H 0.6529 -0.1364 0.5345
C7 C 0.6281(4) -0.2224(2) 0.5913(2)
C8 C 0.6952(4) -0.2949(2) 0.5906(2)
H4 H 0.6746 -0.3295 0.6192
H5 H 0.6517 -0.3131 0.5416
C9 C 0.8526(4) -0.2918(2) 0.6187(2)
H6 H 0.8891 -0.3412 0.6262
H7 H 0.8719 -0.2696 0.5825
C10 C 0.6262(4) -0.2123(2) 0.6624(2)
H8 H 0.7213 -0.2143 0.7011
H9 H 0.5709 -0.2504 0.6682
H10 H 0.5852 -0.1659 0.6627
C11 C 0.4769(4) -0.2231(2) 0.5330(2)
H11 H 0.4310 -0.1788 0.5349
H12 H 0.4286 -0.2640 0.5398
H13 H 0.4745 -0.2269 0.4870
C12 C 0.8573(4) 0.01733(19) 0.6391(2)
H14 H 0.9441 0.0223 0.6849
C13 C 0.7355(4) 0.0056(2) 0.6547(2)
H15 H 0.6505 -0.0038 0.6099
H16 H 0.7544 -0.0371 0.6849
C14 C 0.7106(5) 0.0692(2) 0.6911(3)
H17 H 0.7900 0.0742 0.7389
H18 H 0.6264 0.0605 0.6961
C15 C 0.6926(5) 0.1388(2) 0.6503(3)
H19 H 0.6051 0.1369 0.6054
H20 H 0.6861 0.1793 0.6782
C16 C 0.8134(5) 0.1509(2) 0.6352(3)
H21 H 0.7958 0.1941 0.6057
H22 H 0.8992 0.1590 0.6800
C17 C 0.8332(4) 0.0874(2) 0.5976(2)
H23 H 0.9137 0.0964 0.5893
H24 H 0.7501 0.0821 0.5511
C18 C 1.0743(4) -0.06429(19) 0.6299(2)
H25 H 1.1113 -0.0716 0.6817
C19 C 1.1393(4) 0.0034(2) 0.6180(2)
H26 H 1.0985 0.0128 0.5669
H27 H 1.1176 0.0446 0.6400
C20 C 1.2962(4) -0.0039(2) 0.6494(3)
H28 H 1.3344 0.0397 0.6389
H29 H 1.3379 -0.0086 0.7012
C21 C 1.3350(5) -0.0685(2) 0.6198(3)
H30 H 1.3035 -0.0611 0.5690
H31 H 1.4372 -0.0738 0.6437
C22 C 1.2701(5) -0.1357(2) 0.6299(3)
H32 H 1.3115 -0.1465 0.6808
H33 H 1.2911 -0.1760 0.6067
C23 C 1.1134(5) -0.1288(2) 0.5994(3)
H34 H 1.0762 -0.1727 0.6100
H35 H 1.0706 -0.1239 0.5476
P1 P 0.88198(10) -0.05706(5) 0.58803(5)
C2A C 1.0759(3) -0.17606(18) 0.81340(19)
C3A C 1.0712(4) -0.25110(19) 0.8138(2)
C5A C 1.1670(4) -0.13798(19) 0.88057(19)
C6A C 1.2965(4) -0.16125(19) 0.92225(19)
H3A H 1.3471 -0.1364 0.9655
C7A C 1.3719(4) -0.2224(2) 0.9087(2)
C8A C 1.3048(4) -0.2949(2) 0.9094(2)
H4A H 1.3254 -0.3295 0.8808
H5A H 1.3483 -0.3131 0.9584
C9A C 1.1474(4) -0.2918(2) 0.8813(2)
H6A H 1.1109 -0.3412 0.8738
H7A H 1.1281 -0.2696 0.9175
C10A C 1.3738(4) -0.2123(2) 0.8376(2)
H8A H 1.2787 -0.2143 0.7989
H9A H 1.4291 -0.2504 0.8318
H10A H 1.4148 -0.1659 0.8373
C11A C 1.5231(4) -0.2231(2) 0.9670(2)
H11A H 1.5690 -0.1788 0.9651
H12A H 1.5714 -0.2640 0.9602
H13A H 1.5255 -0.2269 1.0130
C12A C 1.1427(4) 0.01733(19) 0.8609(2)
H14A H 1.0559 0.0223 0.8151
C13A C 1.2645(4) 0.0056(2) 0.8453(2)
H15A H 1.3495 -0.0038 0.8901
H16A H 1.2456 -0.0371 0.8151
C14A C 1.2894(5) 0.0692(2) 0.8089(3)
H17A H 1.2100 0.0742 0.7611
H18A H 1.3736 0.0605 0.8039
C15A C 1.3074(5) 0.1388(2) 0.8497(3)
H19A H 1.3949 0.1369 0.8946
H20A H 1.3139 0.1793 0.8218
C16A C 1.1866(5) 0.1509(2) 0.8648(3)
H21A H 1.2042 0.1941 0.8943
H22A H 1.1008 0.1590 0.8200
C17A C 1.1668(4) 0.0874(2) 0.9024(2)
H23A H 1.0863 0.0964 0.9107
H24A H 1.2499 0.0821 0.9489
C18A C 0.9257(4) -0.06429(19) 0.8701(2)
H25A H 0.8887 -0.0716 0.8183
C19A C 0.8607(4) 0.0034(2) 0.8820(2)
H26A H 0.9015 0.0128 0.9331
H27A H 0.8824 0.0446 0.8600
C20A C 0.7038(4) -0.0039(2) 0.8506(3)
H28A H 0.6656 0.0397 0.8611
H29A H 0.6621 -0.0086 0.7988
C21A C 0.6650(5) -0.0685(2) 0.8802(3)
H30A H 0.6965 -0.0611 0.9310
H31A H 0.5628 -0.0738 0.8563
C22A C 0.7299(5) -0.1357(2) 0.8701(3)
H32A H 0.6885 -0.1465 0.8192
H33A H 0.7089 -0.1760 0.8933
C23A C 0.8866(5) -0.1288(2) 0.9006(3)
H34A H 0.9238 -0.1727 0.8900
H35A H 0.9294 -0.1239 0.9524
P1A P 1.11802(10) -0.05706(5) 0.91197(5)
loop_
_geom_bond_atom_site_label_1
_geom_bond_atom_site_label_2
_geom_bond_site_symmetry_1
_geom_bond_site_symmetry_2
C1 H1 1_555 1_555
C2 C1 1_555 1_555
C3 C2 1_555 1_555
C4 C3 1_555 1_555
H2 C4 1_555 1_555
C5 C2 1_555 1_555
C6 C5 1_555 1_555
H3 C6 1_555 1_555
C7 C6 1_555 1_555
C8 C7 1_555 1_555
H4 C8 1_555 1_555
H5 C8 1_555 1_555
C9 C3 1_555 1_555
H6 C9 1_555 1_555
H7 C9 1_555 1_555
C10 C7 1_555 1_555
H8 C10 1_555 1_555
H9 C10 1_555 1_555
H10 C10 1_555 1_555
C11 C7 1_555 1_555
H11 C11 1_555 1_555
H12 C11 1_555 1_555
H13 C11 1_555 1_555
C12 H14 1_555 1_555
C13 C12 1_555 1_555
H15 C13 1_555 1_555
H16 C13 1_555 1_555
C14 C13 1_555 1_555
H17 C14 1_555 1_555
H18 C14 1_555 1_555
C15 C14 1_555 1_555
H19 C15 1_555 1_555
H20 C15 1_555 1_555
C16 C15 1_555 1_555
H21 C16 1_555 1_555
H22 C16 1_555 1_555
C17 C12 1_555 1_555
H23 C17 1_555 1_555
H24 C17 1_555 1_555
C18 H25 1_555 1_555
C19 C18 1_555 1_555
H26 C19 1_555 1_555
H27 C19 1_555 1_555
C20 C19 1_555 1_555
H28 C20 1_555 1_555
H29 C20 1_555 1_555
C21 C20 1_555 1_555
H30 C21 1_555 1_555
H31 C21 1_555 1_555
C22 C21 1_555 1_555
H32 C22 1_555 1_555
H33 C22 1_555 1_555
C23 C18 1_555 1_555
H34 C23 1_555 1_555
H35 C23 1_555 1_555
P1 C5 1_555 1_555
C2A C1 1_555 1_555
C3A C4 1_555 1_555
C5A C2A 1_555 1_555
C6A C5A 1_555 1_555
H3A C6A 1_555 1_555
C7A C6A 1_555 1_555
C8A C7A 1_555 1_555
H4A C8A 1_555 1_555
H5A C8A 1_555 1_555
C9A C3A 1_555 1_555
H6A C9A 1_555 1_555
H7A C9A 1_555 1_555
C10A C7A 1_555 1_555
H8A C10A 1_555 1_555
H9A C10A 1_555 1_555
H10A C10A 1_555 1_555
C11A C7A 1_555 1_555
H11A C11A 1_555 1_555
H12A C11A 1_555 1_555
H13A C11A 1_555 1_555
C12A H14A 1_555 1_555
C13A C12A 1_555 1_555
H15A C13A 1_555 1_555
H16A C13A 1_555 1_555
C14A C13A 1_555 1_555
H17A C14A 1_555 1_555
H18A C14A 1_555 1_555
C15A C14A 1_555 1_555
H19A C15A 1_555 1_555
H20A C15A 1_555 1_555
C16A C15A 1_555 1_555
H21A C16A 1_555 1_555
H22A C16A 1_555 1_555
C17A C12A 1_555 1_555
H23A C17A 1_555 1_555
H24A C17A 1_555 1_555
C18A H25A 1_555 1_555
C19A C18A 1_555 1_555
H26A C19A 1_555 1_555
H27A C19A 1_555 1_555
C20A C19A 1_555 1_555
H28A C20A 1_555 1_555
H29A C20A 1_555 1_555
C21A C20A 1_555 1_555
H30A C21A 1_555 1_555
H31A C21A 1_555 1_555
C22A C21A 1_555 1_555
H32A C22A 1_555 1_555
H33A C22A 1_555 1_555
C23A C18A 1_555 1_555
H34A C23A 1_555 1_555
H35A C23A 1_555 1_555
P1A C5A 1_555 1_555
C8 C9 1_555 1_555
C12 P1 1_555 1_555
C16 C17 1_555 1_555
C18 P1 1_555 1_555
C22 C23 1_555 1_555
C2A C3A 1_555 1_555
C8A C9A 1_555 1_555
C12A P1A 1_555 1_555
C16A C17A 1_555 1_555
C18A P1A 1_555 1_555
C22A C23A 1_555 1_555

#END
