
#######################################################################
#
#                 Cambridge Crystallographic Data Centre
#                                CCDC 
#
#######################################################################
#
# If this CIF has been generated from an entry in the Cambridge 
# Structural Database, then it will include bibliographic, chemical, 
# crystal, experimental, refinement or atomic coordinate data resulting 
# from the CCDC's data processing and validation procedures.
#
#######################################################################

data_TIRDEF
_chemical_formula_moiety         'C8 H18 P1 S4 1-,C5 H12 N1 O1 1+'
_chemical_name_systematic        
'4-Methylmorpholin-4-ium di-isobutyl phosphorotetrathioate'
_symmetry_cell_setting           triclinic
_symmetry_space_group_name_H-M   'P -1'
_symmetry_Int_Tables_number      2
_space_group_name_Hall           '-P 1'
loop_
_symmetry_equiv_pos_site_id
_symmetry_equiv_pos_as_xyz
1 x,y,z
2 -x,-y,-z
_cell_length_a                   7.1632(12)
_cell_length_b                   7.7164(13)
_cell_length_c                   19.114(3)
_cell_angle_alpha                96.031(2)
_cell_angle_beta                 98.684(2)
_cell_angle_gamma                97.681(2)
_cell_volume                     1026.53
_exptl_crystal_colour            colorless
_exptl_crystal_description       prism
_cell_formula_units_Z            2
loop_
_atom_site_label
_atom_site_type_symbol
_atom_site_fract_x
_atom_site_fract_y
_atom_site_fract_z
C1 C 0.2905(2) 0.2708(2) 0.01902(9)
H1 H 0.2749 0.3743 -0.0047
H2 H 0.2088 0.1702 -0.0099
C2 C 0.4949(2) 0.2410(3) 0.02629(10)
H3 H 0.5086 0.1340 0.0478
H4 H 0.5309 0.2258 -0.0206
C3 C 0.5745(2) 0.4003(3) 0.13917(10)
H5 H 0.6629 0.4956 0.1688
H6 H 0.5904 0.2920 0.1594
C4 C 0.3725(2) 0.4360(2) 0.13938(9)
H7 H 0.3444 0.4393 0.1875
H8 H 0.3598 0.5500 0.1237
C5 C 0.0337(2) 0.3332(3) 0.08649(11)
H9 H 0.0244 0.4433 0.0680
H10 H -0.0011 0.3399 0.1332
H11 H -0.0511 0.2404 0.0553
N1 N 0.23363(17) 0.29597(18) 0.09108(7)
O1 O 0.61805(16) 0.38509(17) 0.06899(7)
H12 H 0.241(3) 0.203(3) 0.1073(10)
C6 C -0.0914(4) 0.6924(4) 0.30982(12)
H13 H -0.1941 0.7555 0.2927
H14 H -0.1479 0.5714 0.3109
C7 C -0.0106(6) 0.7697(5) 0.38300(15)
H15 H 0.0316 0.8955 0.3823
C8 C -0.1684(9) 0.7538(6) 0.4294(2)
H16 H -0.2740 0.8067 0.4086
H17 H -0.1190 0.8133 0.4765
H18 H -0.2108 0.6316 0.4319
C9 C 0.1549(7) 0.6946(9) 0.4160(2)
H19 H 0.1753 0.7263 0.4668
H20 H 0.2666 0.7401 0.3977
H21 H 0.1306 0.5685 0.4051
C10 C 0.3809(4) 1.0961(4) 0.2898(2)
H22 H 0.3791 0.9847 0.3091
H23 H 0.4425 1.0874 0.2480
C11 C 0.4956(4) 1.2423(4) 0.34505(14)
H24 H 0.4904 1.3554 0.3264
C12 C 0.4117(6) 1.2481(8) 0.41519(19)
H25 H 0.4859 1.3409 0.4496
H26 H 0.4152 1.1373 0.4336
H27 H 0.2818 1.2696 0.4059
C13 C 0.7002(5) 1.2124(6) 0.3593(3)
H28 H 0.7724 1.3043 0.3946
H29 H 0.7526 1.2135 0.3159
H30 H 0.7062 1.1004 0.3764
P1 P 0.02122(5) 0.90851(5) 0.19057(2)
S1 S -0.25099(6) 0.92548(7) 0.16694(2)
S2 S 0.18169(6) 0.88277(5) 0.11480(2)
S3 S 0.07014(7) 0.69190(6) 0.24542(2)
S4 S 0.13481(6) 1.13520(6) 0.26332(2)
C14? C 0.391(2) 1.173(5) 0.2810(12)
H31? H 0.4399 1.0989 0.2459
H32? H 0.4375 1.2948 0.2777
C15? C 0.460(2) 1.129(3) 0.3549(7)
H33? H 0.3849 1.0264 0.3688
C16? C 0.427(6) 1.309(4) 0.3903(17)
H34? H 0.4604 1.3150 0.4412
H35? H 0.2949 1.3213 0.3781
H36? H 0.5051 1.4015 0.3737
C17? C 0.676(3) 1.130(4) 0.3665(18)
H37? H 0.7045 1.0337 0.3359
H38? H 0.7197 1.1170 0.4154
H39? H 0.7380 1.2392 0.3554
loop_
_geom_bond_atom_site_label_1
_geom_bond_atom_site_label_2
_geom_bond_site_symmetry_1
_geom_bond_site_symmetry_2
C1 H1 1_555 1_555
H2 C1 1_555 1_555
C2 C1 1_555 1_555
H3 C2 1_555 1_555
H4 C2 1_555 1_555
C3 H5 1_555 1_555
H6 C3 1_555 1_555
C4 C3 1_555 1_555
H7 C4 1_555 1_555
H8 C4 1_555 1_555
C5 H9 1_555 1_555
H10 C5 1_555 1_555
H11 C5 1_555 1_555
N1 C1 1_555 1_555
O1 C2 1_555 1_555
H12 N1 1_555 1_555
C6 H13 1_555 1_555
H14 C6 1_555 1_555
C7 C6 1_555 1_555
H15 C7 1_555 1_555
C8 C7 1_555 1_555
H16 C8 1_555 1_555
H17 C8 1_555 1_555
H18 C8 1_555 1_555
C9 C7 1_555 1_555
H19 C9 1_555 1_555
H20 C9 1_555 1_555
H21 C9 1_555 1_555
C10 H22 1_555 1_555
H23 C10 1_555 1_555
C11 C10 1_555 1_555
H24 C11 1_555 1_555
C12 C11 1_555 1_555
H25 C12 1_555 1_555
H26 C12 1_555 1_555
H27 C12 1_555 1_555
C13 C11 1_555 1_555
H28 C13 1_555 1_555
H29 C13 1_555 1_555
H30 C13 1_555 1_555
P1 S1 1_555 1_555
S2 P1 1_555 1_555
S3 C6 1_555 1_555
S4 C10 1_555 1_555
C3 O1 1_555 1_555
C4 N1 1_555 1_555
C5 N1 1_555 1_555
P1 S3 1_555 1_555
P1 S4 1_555 1_555

#END
