
#######################################################################
#
#                 Cambridge Crystallographic Data Centre
#                                CCDC 
#
#######################################################################
#
# If this CIF has been generated from an entry in the Cambridge 
# Structural Database, then it will include bibliographic, chemical, 
# crystal, experimental, refinement or atomic coordinate data resulting 
# from the CCDC's data processing and validation procedures.
#
#######################################################################

data_TIRDAB
_chemical_formula_moiety         'C22 H24 N2 O2 S1'
_chemical_name_systematic        
2-((4-Methylphenyl)sulfonyl)-1-(2-methylprop-1-en-1-yl)-2,3,4,9-tetrahydro-1H-\b-carboline
_symmetry_cell_setting           orthorhombic
_symmetry_space_group_name_H-M   'P 21 21 21'
_symmetry_Int_Tables_number      19
_space_group_name_Hall           'P 2ac 2ab'
loop_
_symmetry_equiv_pos_site_id
_symmetry_equiv_pos_as_xyz
1 x,y,z
2 1/2-x,-y,1/2+z
3 -x,1/2+y,1/2-z
4 1/2+x,1/2-y,-z
_cell_length_a                   8.3759(8)
_cell_length_b                   9.9777(9)
_cell_length_c                   23.464(2)
_cell_angle_alpha                90
_cell_angle_beta                 90
_cell_angle_gamma                90
_cell_volume                     1960.94
_exptl_crystal_colour            colorless
_exptl_crystal_description       prismatic
_cell_formula_units_Z            4
loop_
_atom_site_label
_atom_site_type_symbol
_atom_site_fract_x
_atom_site_fract_y
_atom_site_fract_z
S1 S 0.11173(6) 0.39245(6) 0.23593(2)
N1 N 0.6503(2) 0.49026(19) 0.32359(8)
N2 N 0.23249(19) 0.47912(17) 0.27566(7)
O1 O 0.17984(17) 0.26211(15) 0.22996(7)
O2 O -0.04254(16) 0.40584(17) 0.26121(7)
C1 C 0.5478(2) 0.5776(2) 0.40415(9)
C2 C 0.5554(3) 0.6245(3) 0.46000(10)
H1 H 0.4646 0.6575 0.4780
C3 C 0.6996(3) 0.6211(3) 0.48811(11)
H2 H 0.7053 0.6507 0.5256
C4 C 0.8367(3) 0.5744(3) 0.46143(12)
H3 H 0.9330 0.5747 0.4812
C5 C 0.8324(3) 0.5278(3) 0.40660(11)
H4 H 0.9242 0.4956 0.3890
C6 C 0.6877(2) 0.5298(2) 0.37809(9)
C7 C 0.4898(2) 0.5119(2) 0.31532(9)
C8 C 0.4230(2) 0.5638(2) 0.36283(9)
C9 C 0.2479(2) 0.5929(3) 0.36695(9)
H5 H 0.2315 0.6781 0.3859
H6 H 0.1958 0.5237 0.3893
C10 C 0.1758(2) 0.5975(2) 0.30768(8)
H7 H 0.0602 0.5965 0.3101
H8 H 0.2083 0.6790 0.2884
C11 C 0.4051(2) 0.4797(2) 0.26046(8)
H9 H 0.4361 0.3896 0.2481
C12 C 0.4472(2) 0.5778(2) 0.21426(8)
H10 H 0.4045 0.6634 0.2180
C13 C 0.5372(3) 0.5573(2) 0.16908(9)
C14 C 0.5693(4) 0.6671(3) 0.12713(11)
H11 H 0.5117 0.7461 0.1381
H12 H 0.5353 0.6392 0.0899
H13 H 0.6816 0.6863 0.1264
C15 C 0.6126(3) 0.4263(3) 0.15493(11)
H14 H 0.5749 0.3590 0.1809
H15 H 0.7265 0.4340 0.1581
H16 H 0.5849 0.4014 0.1167
C16 C 0.1089(3) 0.4676(2) 0.16833(9)
C17 C 0.0377(3) 0.5903(3) 0.16156(10)
H17 H -0.0195 0.6293 0.1912
C18 C 0.0529(4) 0.6550(3) 0.10967(11)
H18 H 0.0042 0.7380 0.1049
C19 C 0.1374(4) 0.6010(3) 0.06498(11)
C20 C 0.2050(3) 0.4773(3) 0.07275(11)
H19 H 0.2615 0.4382 0.0429
C21 C 0.1914(3) 0.4090(3) 0.12392(10)
H20 H 0.2373 0.3248 0.1283
C22 C 0.1542(5) 0.6755(4) 0.00932(14)
H21 H 0.0605 0.6612 -0.0135
H22 H 0.2463 0.6430 -0.0107
H23 H 0.1664 0.7695 0.0168
H24 H 0.720(3) 0.474(2) 0.2993(9)
loop_
_geom_bond_atom_site_label_1
_geom_bond_atom_site_label_2
_geom_bond_site_symmetry_1
_geom_bond_site_symmetry_2
S1 N2 1_555 1_555
N1 C6 1_555 1_555
N2 C10 1_555 1_555
O1 S1 1_555 1_555
O2 S1 1_555 1_555
C1 C2 1_555 1_555
C2 H1 1_555 1_555
C3 C2 1_555 1_555
H2 C3 1_555 1_555
C4 C3 1_555 1_555
H3 C4 1_555 1_555
C5 C4 1_555 1_555
H4 C5 1_555 1_555
C6 C1 1_555 1_555
C7 N1 1_555 1_555
C8 C1 1_555 1_555
C9 C8 1_555 1_555
H5 C9 1_555 1_555
H6 C9 1_555 1_555
C10 C9 1_555 1_555
H7 C10 1_555 1_555
H8 C10 1_555 1_555
C11 N2 1_555 1_555
H9 C11 1_555 1_555
C12 C11 1_555 1_555
H10 C12 1_555 1_555
C13 C12 1_555 1_555
C14 C13 1_555 1_555
H11 C14 1_555 1_555
H12 C14 1_555 1_555
H13 C14 1_555 1_555
C15 C13 1_555 1_555
H14 C15 1_555 1_555
H15 C15 1_555 1_555
H16 C15 1_555 1_555
C16 S1 1_555 1_555
C17 C16 1_555 1_555
H17 C17 1_555 1_555
C18 C17 1_555 1_555
H18 C18 1_555 1_555
C19 C18 1_555 1_555
C20 C19 1_555 1_555
H19 C20 1_555 1_555
C21 C16 1_555 1_555
H20 C21 1_555 1_555
C22 C19 1_555 1_555
H21 C22 1_555 1_555
H22 C22 1_555 1_555
H23 C22 1_555 1_555
H24 N1 1_555 1_555
C5 C6 1_555 1_555
C7 C8 1_555 1_555
C7 C11 1_555 1_555
C20 C21 1_555 1_555

#END
