
#######################################################################
#
#                 Cambridge Crystallographic Data Centre
#                                CCDC 
#
#######################################################################
#
# If this CIF has been generated from an entry in the Cambridge 
# Structural Database, then it will include bibliographic, chemical, 
# crystal, experimental, refinement or atomic coordinate data resulting 
# from the CCDC's data processing and validation procedures.
#
#######################################################################

data_TIRQIX
_chemical_formula_moiety         'C60 H36 N18 O18,4(C2 H3 N1)'
_chemical_name_systematic        
'cyclotris(2,8,14,20-tetraoxa-4,6,16,18,26,28-hexaazapentacyclo[19.3.1.13,7.19,13.115,19]octacosa-1(25),3(28),4,6,9(27),10,12,15(26),16,18,21,23-dodecaene-5-oxy-17-oxyethyl) acetonitrile solvate'
_symmetry_cell_setting           monoclinic
_symmetry_space_group_name_H-M   'C c'
_symmetry_Int_Tables_number      9
_space_group_name_Hall           'C -2yc'
loop_
_symmetry_equiv_pos_site_id
_symmetry_equiv_pos_as_xyz
1 x,y,z
2 x,-y,1/2+z
3 1/2+x,1/2+y,z
4 1/2+x,1/2-y,1/2+z
_cell_length_a                   30.434(8)
_cell_length_b                   13.772(3)
_cell_length_c                   18.321(5)
_cell_angle_alpha                90
_cell_angle_beta                 119.518(3)
_cell_angle_gamma                90
_cell_volume                     6682.28
_exptl_crystal_colour            colorless
_exptl_crystal_description       block
_cell_formula_units_Z            4
loop_
_atom_site_label
_atom_site_type_symbol
_atom_site_fract_x
_atom_site_fract_y
_atom_site_fract_z
O1 O 0.5375(2) -0.0277(4) 0.6356(4)
O2 O 0.3899(2) 0.1047(5) 0.6295(4)
O3 O 0.3544(2) 0.2752(4) 0.3908(3)
O4 O 0.5131(2) 0.1716(4) 0.4176(4)
O5 O 0.3059(2) 0.3845(4) 0.5740(4)
O6 O 0.3044(2) 0.5374(4) 0.4240(4)
O7 O 0.3543(2) 0.4510(5) 0.2427(3)
O8 O 0.4720(2) 0.5960(4) 0.1745(4)
O9 O 0.5931(2) 0.6150(4) 0.4531(3)
O10 O 0.4710(2) 0.4835(5) 0.5214(3)
O11 O 0.5769(2) 0.8498(4) 0.2676(3)
O12 O 0.5684(2) 0.9301(4) 0.4068(4)
O13 O 0.7124(2) 0.8154(4) 0.6260(4)
O14 O 0.7486(2) 0.4824(5) 0.7229(5)
O15 O 0.6156(2) 0.4656(4) 0.7742(4)
O16 O 0.5572(2) 0.7497(4) 0.5986(3)
O17 O 0.6934(2) 0.1961(4) 0.7671(4)
O18 O 0.6696(2) 0.0985(5) 0.6179(4)
N1 N 0.5915(2) 0.1361(5) 0.5183(5)
N2 N 0.6035(2) 0.0319(5) 0.6300(4)
N3 N 0.5204(2) 0.0725(5) 0.5243(4)
N4 N 0.3751(3) 0.1852(5) 0.5099(5)
N5 N 0.3502(3) 0.2473(6) 0.6039(4)
N6 N 0.3270(2) 0.3300(5) 0.4765(4)
N7 N 0.3294(2) 0.4990(5) 0.3330(4)
N8 N 0.3897(3) 0.5112(5) 0.4776(4)
N9 N 0.4164(2) 0.4663(5) 0.3804(4)
N10 N 0.5299(2) 0.5989(5) 0.3157(4)
N11 N 0.5246(3) 0.7221(5) 0.2200(4)
N12 N 0.5878(2) 0.7315(5) 0.3646(4)
N13 N 0.5627(3) 0.8378(5) 0.5024(4)
N14 N 0.6434(3) 0.8774(5) 0.5191(4)
N15 N 0.6371(3) 0.7768(5) 0.6197(4)
N16 N 0.6824(3) 0.4847(5) 0.7505(4)
N17 N 0.6537(2) 0.3301(5) 0.7690(4)
N18 N 0.7225(3) 0.3397(5) 0.7431(5)
C1 C 0.6200(3) 0.0870(6) 0.5892(6)
C2 C 0.5537(3) 0.0283(6) 0.5947(6)
C3 C 0.5428(3) 0.1233(6) 0.4904(5)
C4 C 0.4852(3) -0.0326(6) 0.6077(5)
C5 C 0.4594(3) -0.1159(6) 0.5688(5)
H1 H 0.4751 -0.1660 0.5563
C6 C 0.4092(3) -0.1232(7) 0.5485(6)
H2 H 0.3909 -0.1785 0.5213
C7 C 0.3860(3) -0.0499(7) 0.5681(6)
H3 H 0.3527 -0.0559 0.5561
C8 C 0.4133(3) 0.0324(6) 0.6057(6)
C9 C 0.4631(3) 0.0432(7) 0.6270(6)
H4 H 0.4811 0.0991 0.6533
C10 C 0.3711(3) 0.1810(7) 0.5777(6)
C11 C 0.3283(3) 0.3207(7) 0.5482(6)
C12 C 0.3531(3) 0.2618(6) 0.4618(5)
C13 C 0.3827(3) 0.2110(6) 0.3689(5)
C14 C 0.4347(3) 0.2182(6) 0.4113(5)
H5 H 0.4517 0.2586 0.4576
C15 C 0.4600(3) 0.1626(6) 0.3815(5)
C16 C 0.4358(3) 0.1038(7) 0.3126(6)
H6 H 0.4539 0.0675 0.2936
C17 C 0.3829(3) 0.0999(7) 0.2714(6)
H7 H 0.3654 0.0615 0.2238
C18 C 0.3567(3) 0.1531(6) 0.3013(5)
H8 H 0.3217 0.1493 0.2754
C19 C 0.2782(3) 0.4660(7) 0.5174(6)
H9 H 0.2586 0.4986 0.5388
H10 H 0.2547 0.4400 0.4626
C20 C 0.3116(3) 0.5404(7) 0.5074(5)
H11 H 0.3035 0.6048 0.5187
H12 H 0.3467 0.5272 0.5475
C21 C 0.3432(3) 0.5148(6) 0.4122(5)
C22 C 0.4235(3) 0.4888(6) 0.4550(6)
C23 C 0.3674(3) 0.4734(6) 0.3220(5)
C24 C 0.3941(3) 0.4397(6) 0.2238(5)
C25 C 0.4065(3) 0.3485(6) 0.2105(5)
H13 H 0.3905 0.2937 0.2159
C26 C 0.4434(3) 0.3417(7) 0.1889(6)
H14 H 0.4533 0.2804 0.1813
C27 C 0.4670(3) 0.4223(6) 0.1780(5)
H15 H 0.4916 0.4160 0.1623
C28 C 0.4522(3) 0.5128(6) 0.1917(5)
C29 C 0.4162(3) 0.5224(6) 0.2143(5)
H16 H 0.4067 0.5835 0.2232
C30 C 0.5110(3) 0.6401(6) 0.2402(5)
C31 C 0.5639(3) 0.7641(6) 0.2871(5)
C32 C 0.5682(3) 0.6491(6) 0.3733(5)
C33 C 0.5732(3) 0.5381(6) 0.4780(5)
C34 C 0.6056(3) 0.4614(6) 0.5180(5)
H17 H 0.6372 0.4586 0.5220
C35 C 0.5896(3) 0.3888(6) 0.5519(5)
H18 H 0.6102 0.3350 0.5764
C36 C 0.5439(3) 0.3946(6) 0.5501(5)
H19 H 0.5341 0.3469 0.5750
C37 C 0.5130(3) 0.4729(6) 0.5104(5)
C38 C 0.5271(3) 0.5455(6) 0.4735(5)
H20 H 0.5058 0.5976 0.4464
C39 C 0.6178(3) 0.9036(6) 0.3334(6)
H21 H 0.6360 0.9382 0.3105
H22 H 0.6411 0.8589 0.3758
C40 C 0.5982(3) 0.9755(6) 0.3734(6)
H23 H 0.6266 1.0091 0.4185
H24 H 0.5775 1.0235 0.3318
C41 C 0.5932(3) 0.8795(6) 0.4789(5)
C42 C 0.6615(3) 0.8222(6) 0.5875(5)
C43 C 0.5873(3) 0.7887(6) 0.5739(5)
C44 C 0.7384(3) 0.7444(7) 0.6881(6)
C45 C 0.7799(4) 0.7770(8) 0.7588(7)
H25 H 0.7876 0.8429 0.7668
C46 C 0.8103(4) 0.7094(9) 0.8181(8)
H26 H 0.8398 0.7299 0.8652
C47 C 0.7980(4) 0.6131(9) 0.8091(8)
H27 H 0.8174 0.5686 0.8509
C48 C 0.7566(3) 0.5843(7) 0.7370(7)
C49 C 0.7257(3) 0.6477(6) 0.6749(6)
H28 H 0.6975 0.6263 0.6263
C50 C 0.7166(3) 0.4355(6) 0.7410(6)
C51 C 0.6902(3) 0.2930(6) 0.7598(5)
C52 C 0.6524(3) 0.4271(6) 0.7637(5)
C53 C 0.6039(3) 0.5654(6) 0.7622(5)
C54 C 0.5994(3) 0.6121(6) 0.8243(5)
H29 H 0.6065 0.5795 0.8734
C55 C 0.5842(4) 0.7079(7) 0.8130(5)
H30 H 0.5815 0.7405 0.8551
C56 C 0.5729(3) 0.7552(6) 0.7400(6)
H31 H 0.5630 0.8200 0.7324
C57 C 0.5766(3) 0.7053(6) 0.6777(5)
C58 C 0.5925(3) 0.6103(6) 0.6876(5)
H32 H 0.5955 0.5777 0.6458
C59 C 0.7314(3) 0.1426(7) 0.7578(6)
H33 H 0.7573 0.1186 0.8118
H34 H 0.7472 0.1843 0.7347
C60 C 0.7051(3) 0.0598(6) 0.6997(6)
H35 H 0.7296 0.0187 0.6953
H36 H 0.6874 0.0210 0.7212
N19 N 0.4277(4) 0.6979(8) 0.4003(8)
C61 C 0.4414(6) 0.8547(13) 0.3376(10)
H37 H 0.4140 0.8630 0.2814
H38 H 0.4727 0.8521 0.3370
H39 H 0.4420 0.9084 0.3715
C62 C 0.4344(4) 0.7652(9) 0.3721(8)
N20 N 0.8008(9) 0.2823(14) 0.5607(15)
C63 C 0.7096(10) 0.287(2) 0.5470(18)
H40 H 0.6881 0.2459 0.5007
H41 H 0.6979 0.3528 0.5343
H42 H 0.7088 0.2661 0.5963
C64 C 0.7595(11) 0.281(3) 0.5613(17)
N21 N 0.6892(4) 0.9002(9) 0.8750(11)
C65 C 0.7095(6) 0.7254(10) 0.8538(10)
H43 H 0.6976 0.7145 0.7952
H44 H 0.6932 0.6810 0.8731
H45 H 0.7454 0.7152 0.8848
C66 C 0.6983(4) 0.8232(10) 0.8660(9)
N22 N 0.7202(9) 0.5054(16) 0.4762(13)
C67 C 0.7212(5) 0.6872(10) 0.4776(7)
H46 H 0.7328 0.7176 0.4431
H47 H 0.7408 0.7102 0.5342
H48 H 0.6863 0.7030 0.4568
C68 C 0.7263(10) 0.5902(13) 0.4760(11)
H49? H 0.3506 0.2440 0.6511
loop_
_geom_bond_atom_site_label_1
_geom_bond_atom_site_label_2
_geom_bond_site_symmetry_1
_geom_bond_site_symmetry_2
O1 C2 1_555 1_555
O2 C8 1_555 1_555
O3 C12 1_555 1_555
O4 C3 1_555 1_555
O5 C11 1_555 1_555
O6 C20 1_555 1_555
O7 C23 1_555 1_555
O8 C28 1_555 1_555
O9 C32 1_555 1_555
O10 C22 1_555 1_555
O11 C31 1_555 1_555
O12 C40 1_555 1_555
O13 C42 1_555 1_555
O14 C48 1_555 1_555
O15 C52 1_555 1_555
O16 C43 1_555 1_555
O17 C51 1_555 1_555
O18 C1 1_555 1_555
N1 C1 1_555 1_555
N2 C1 1_555 1_555
N3 C2 1_555 1_555
N4 C10 1_555 1_555
N5 C10 1_555 1_555
N6 C11 1_555 1_555
N7 C21 1_555 1_555
N8 C21 1_555 1_555
N9 C22 1_555 1_555
N10 C30 1_555 1_555
N11 C30 1_555 1_555
N12 C31 1_555 1_555
N13 C41 1_555 1_555
N14 C41 1_555 1_555
N15 C42 1_555 1_555
N16 C50 1_555 1_555
N17 C51 1_555 1_555
N18 C50 1_555 1_555
C2 N2 1_555 1_555
C3 N1 1_555 1_555
C4 O1 1_555 1_555
C5 C4 1_555 1_555
H1 C5 1_555 1_555
C6 C5 1_555 1_555
H2 C6 1_555 1_555
C7 C6 1_555 1_555
H3 C7 1_555 1_555
C8 C7 1_555 1_555
C9 C4 1_555 1_555
H4 C9 1_555 1_555
C10 O2 1_555 1_555
C11 N5 1_555 1_555
C12 N4 1_555 1_555
C13 O3 1_555 1_555
C14 C13 1_555 1_555
H5 C14 1_555 1_555
C15 O4 1_555 1_555
C16 C15 1_555 1_555
H6 C16 1_555 1_555
C17 C16 1_555 1_555
H7 C17 1_555 1_555
C18 C13 1_555 1_555
H8 C18 1_555 1_555
C19 O5 1_555 1_555
H9 C19 1_555 1_555
H10 C19 1_555 1_555
C20 C19 1_555 1_555
H11 C20 1_555 1_555
H12 C20 1_555 1_555
C21 O6 1_555 1_555
C22 N8 1_555 1_555
C23 N7 1_555 1_555
C24 O7 1_555 1_555
C25 C24 1_555 1_555
H13 C25 1_555 1_555
C26 C25 1_555 1_555
H14 C26 1_555 1_555
C27 C26 1_555 1_555
H15 C27 1_555 1_555
C28 C27 1_555 1_555
C29 C24 1_555 1_555
H16 C29 1_555 1_555
C30 O8 1_555 1_555
C31 N11 1_555 1_555
C32 N10 1_555 1_555
C33 O9 1_555 1_555
C34 C33 1_555 1_555
H17 C34 1_555 1_555
C35 C34 1_555 1_555
H18 C35 1_555 1_555
C36 C35 1_555 1_555
H19 C36 1_555 1_555
C37 O10 1_555 1_555
C38 C33 1_555 1_555
H20 C38 1_555 1_555
C39 O11 1_555 1_555
H21 C39 1_555 1_555
H22 C39 1_555 1_555
C40 C39 1_555 1_555
H23 C40 1_555 1_555
H24 C40 1_555 1_555
C41 O12 1_555 1_555
C42 N14 1_555 1_555
C43 N13 1_555 1_555
C44 O13 1_555 1_555
C45 C44 1_555 1_555
H25 C45 1_555 1_555
C46 C45 1_555 1_555
H26 C46 1_555 1_555
C47 C46 1_555 1_555
H27 C47 1_555 1_555
C48 C47 1_555 1_555
C49 C44 1_555 1_555
H28 C49 1_555 1_555
C50 O14 1_555 1_555
C51 N18 1_555 1_555
C52 N16 1_555 1_555
C53 O15 1_555 1_555
C54 C53 1_555 1_555
H29 C54 1_555 1_555
C55 C54 1_555 1_555
H30 C55 1_555 1_555
C56 C55 1_555 1_555
H31 C56 1_555 1_555
C57 O16 1_555 1_555
C58 C53 1_555 1_555
H32 C58 1_555 1_555
C59 O17 1_555 1_555
H33 C59 1_555 1_555
H34 C59 1_555 1_555
C60 O18 1_555 1_555
H35 C60 1_555 1_555
H36 C60 1_555 1_555
N19 C62 1_555 1_555
C61 H37 1_555 1_555
H38 C61 1_555 1_555
H39 C61 1_555 1_555
C62 C61 1_555 1_555
N20 C64 1_555 1_555
C63 H40 1_555 1_555
H41 C63 1_555 1_555
H42 C63 1_555 1_555
C64 C63 1_555 1_555
N21 C66 1_555 1_555
C65 H43 1_555 1_555
H44 C65 1_555 1_555
H45 C65 1_555 1_555
C66 C65 1_555 1_555
N22 C68 1_555 1_555
C67 H46 1_555 1_555
H47 C67 1_555 1_555
H48 C67 1_555 1_555
C68 C67 1_555 1_555
N3 C3 1_555 1_555
N6 C12 1_555 1_555
N9 C23 1_555 1_555
N12 C32 1_555 1_555
N15 C43 1_555 1_555
N17 C52 1_555 1_555
C8 C9 1_555 1_555
C14 C15 1_555 1_555
C17 C18 1_555 1_555
C28 C29 1_555 1_555
C36 C37 1_555 1_555
C37 C38 1_555 1_555
C48 C49 1_555 1_555
C56 C57 1_555 1_555
C57 C58 1_555 1_555
C59 C60 1_555 1_555

#END
