
#######################################################################
#
#                 Cambridge Crystallographic Data Centre
#                                CCDC 
#
#######################################################################
#
# If this CIF has been generated from an entry in the Cambridge 
# Structural Database, then it will include bibliographic, chemical, 
# crystal, experimental, refinement or atomic coordinate data resulting 
# from the CCDC's data processing and validation procedures.
#
#######################################################################

data_TIRQAP
_chemical_formula_moiety         
'C40 H24 N12 O12,C16 H36 N1 1+,C3 H3 O4 1-,C1 H2 Cl2'
_chemical_name_systematic        
'tetra-n-butylammonium carboxyacetate 4,10,16,22,28,34,40,46,49,52,58,61-dodecaoxa-2,12,14,24,26,36,38,48,53,55,57,63-dodecaazaundecacyclo[35.11.4.4^13,25^.1^3,47^.1^5,9^.1^11,15^.1^17,21^.1^23,27^.1^29,33^.1^35,39^.1^41,45^]tetrahexaconta-1,3(53),5(64),6,8,11(63),12,14,17(62),18,20,23(57),24,26,29(56),30,32,35(55),36,38,41(54),42,44,47-tetracosaene dichloromethane unknown solvate'
_symmetry_cell_setting           monoclinic
_symmetry_space_group_name_H-M   'P 21/n'
_symmetry_Int_Tables_number      14
_space_group_name_Hall           '-P 2yn'
loop_
_symmetry_equiv_pos_site_id
_symmetry_equiv_pos_as_xyz
1 x,y,z
2 1/2-x,1/2+y,1/2-z
3 -x,-y,-z
4 1/2+x,1/2-y,1/2+z
_cell_length_a                   16.316(3)
_cell_length_b                   19.527(4)
_cell_length_c                   22.158(4)
_cell_angle_alpha                90
_cell_angle_beta                 100.71(3)
_cell_angle_gamma                90
_cell_volume                     6936.62
_exptl_crystal_colour            colorless
_exptl_crystal_description       block
_cell_formula_units_Z            4
loop_
_atom_site_label
_atom_site_type_symbol
_atom_site_fract_x
_atom_site_fract_y
_atom_site_fract_z
O1 O 0.3596(2) 0.37320(16) 0.47843(14)
O2 O 0.37250(19) 0.58494(15) 0.55072(14)
O3 O 0.50152(19) 0.70046(15) 0.74025(13)
O4 O 0.71986(17) 0.56082(15) 0.71201(13)
O5 O 0.58714(18) 0.43402(14) 0.61945(14)
O6 O 0.7033(2) 0.65025(14) 0.89855(13)
O7 O 0.7443(2) 0.42672(15) 0.99009(13)
O8 O 0.6377(2) 0.21914(16) 0.94865(13)
O9 O 0.47953(19) 0.09974(16) 0.77277(13)
O10 O 0.65379(17) 0.22369(15) 0.67252(12)
O11 O 0.69356(19) 0.35508(14) 0.79160(12)
O12 O 0.4004(2) 0.15039(16) 0.57393(13)
N1 N 0.4782(2) 0.40061(18) 0.54839(16)
N2 N 0.3663(2) 0.47847(19) 0.51596(17)
N3 N 0.4858(2) 0.51490(18) 0.58775(15)
N4 N 0.6091(2) 0.63097(18) 0.72000(15)
N5 N 0.6026(2) 0.67604(19) 0.81904(16)
N6 N 0.7148(2) 0.60133(17) 0.80597(15)
N7 N 0.7217(2) 0.39419(18) 0.88799(15)
N8 N 0.6894(2) 0.32393(18) 0.96886(16)
N9 N 0.6646(2) 0.28199(18) 0.86583(15)
N10 N 0.5719(2) 0.16150(18) 0.72670(16)
N11 N 0.4384(2) 0.12570(18) 0.67326(16)
N12 N 0.5305(2) 0.18836(17) 0.62053(15)
C1 C 0.4043(3) 0.4185(2) 0.51653(18)
C2 C 0.4113(3) 0.5241(2) 0.55214(18)
C3 C 0.5142(3) 0.4511(2) 0.58408(18)
C4 C 0.4035(3) 0.6420(2) 0.5863(2)
C5 C 0.3827(3) 0.7043(2) 0.5577(2)
H1 H 0.355801 0.705947 0.515857
C6 C 0.4017(3) 0.7642(2) 0.5908(2)
H2 H 0.385962 0.807059 0.571984
C7 C 0.4431(3) 0.7620(2) 0.6509(2)
H3 H 0.457153 0.802989 0.673520
C8 C 0.4638(3) 0.6990(2) 0.67734(19)
C9 C 0.4424(3) 0.6371(2) 0.64702(19)
H4 H 0.453876 0.594112 0.666954
C10 C 0.5739(3) 0.6674(2) 0.75935(19)
C11 C 0.6735(3) 0.6412(2) 0.83848(19)
C12 C 0.6782(3) 0.5990(2) 0.74714(19)
C13 C 0.6743(3) 0.5350(2) 0.65400(18)
H5 H 0.713273 0.517175 0.628422
H6 H 0.640018 0.571674 0.631006
C14 C 0.6192(3) 0.4779(2) 0.67047(19)
H7 H 0.651765 0.449940 0.703811
H8 H 0.571831 0.498369 0.686255
C15 C 0.7563(3) 0.6003(2) 0.93060(18)
C16 C 0.8351(3) 0.6203(2) 0.95938(19)
H9 H 0.855744 0.664741 0.953022
C17 C 0.8830(3) 0.5739(2) 0.9977(2)
H10 H 0.937303 0.586693 1.018061
C18 C 0.8537(3) 0.5093(2) 1.00700(19)
H11 H 0.886567 0.477998 1.034141
C19 C 0.7752(3) 0.4912(2) 0.97585(18)
C20 C 0.7253(3) 0.5361(2) 0.93719(18)
H12 H 0.671565 0.523054 0.915980
C21 C 0.7177(3) 0.3805(2) 0.94594(18)
C22 C 0.6651(3) 0.2766(2) 0.92573(19)
C23 C 0.6922(3) 0.3425(2) 0.85031(18)
C24 C 0.6155(3) 0.1605(2) 0.91143(19)
C25 C 0.6532(3) 0.1004(2) 0.9356(2)
H13 H 0.693833 0.100877 0.972348
C26 C 0.6302(3) 0.0392(2) 0.9046(2)
H14 H 0.653613 -0.002915 0.920965
C27 C 0.5733(3) 0.0398(2) 0.8501(2)
H15 H 0.557857 -0.001449 0.828242
C28 C 0.5391(3) 0.1020(2) 0.82778(19)
C29 C 0.5570(3) 0.1627(2) 0.85791(19)
H16 H 0.530525 0.204217 0.842775
C30 C 0.4982(3) 0.1308(2) 0.72234(18)
C31 C 0.4598(3) 0.1559(2) 0.62478(19)
C32 C 0.5823(3) 0.1896(2) 0.67403(18)
C33 C 0.6986(3) 0.2497(2) 0.73077(19)
H17 H 0.755303 0.264969 0.726975
H18 H 0.703477 0.213995 0.762970
C34 C 0.6467(3) 0.3098(2) 0.74620(19)
H19 H 0.625868 0.336091 0.708260
H20 H 0.597793 0.292034 0.761819
C35 C 0.4023(3) 0.1945(2) 0.52380(18)
C36 C 0.4052(3) 0.1648(2) 0.4679(2)
H21 H 0.413482 0.116860 0.464852
C37 C 0.3956(3) 0.2063(2) 0.4161(2)
H22 H 0.397336 0.186750 0.377058
C38 C 0.3836(3) 0.2762(2) 0.42127(19)
H23 H 0.376562 0.304850 0.386024
C39 C 0.3821(3) 0.3030(2) 0.4775(2)
C40 C 0.3907(3) 0.2639(2) 0.53064(19)
H24 H 0.388728 0.283801 0.569477
N13 N 0.3179(3) 0.6390(3) 0.8386(2)
C41 C 0.4101(3) 0.6281(5) 0.8634(3)
H25 H 0.441387 0.667993 0.852083
H26 H 0.428897 0.587211 0.843290
C42 C 0.4318(4) 0.6183(7) 0.9330(3)
H27 H 0.415564 0.659526 0.953918
H28 H 0.400738 0.578630 0.945192
C43 C 0.5248(4) 0.6061(8) 0.9520(3)
H29 H 0.555614 0.644035 0.936671
H30 H 0.540046 0.562982 0.933355
C44 C 0.5497(6) 0.6016(11) 1.0218(4)
H31 H 0.597817 0.631458 1.035834
H32 H 0.564510 0.554252 1.033778
H33 H 0.502870 0.616314 1.040705
C45 C 0.2837(4) 0.7022(4) 0.8669(3)
H34 H 0.223582 0.706284 0.849165
H35 H 0.288420 0.693922 0.911525
C46 C 0.3252(6) 0.7705(5) 0.8586(4)
H36 H 0.385398 0.767437 0.876329
H37 H 0.319628 0.780258 0.814136
C47 C 0.2869(6) 0.8285(5) 0.8890(4)
H38 H 0.292239 0.817919 0.933224
H39 H 0.226574 0.830652 0.871216
C48 C 0.3262(9) 0.9009(6) 0.8824(5)
H40 H 0.312477 0.915776 0.839416
H41 H 0.386926 0.898236 0.895169
H42 H 0.303738 0.933932 0.908363
C49 C 0.3100(4) 0.6489(4) 0.7692(2)
H43 H 0.346867 0.687053 0.761937
H44 H 0.330369 0.606898 0.751722
C50 C 0.2233(4) 0.6637(4) 0.7355(3)
H45 H 0.205370 0.708939 0.748417
H46 H 0.184616 0.628729 0.746416
C51 C 0.2185(5) 0.6636(5) 0.6659(3)
H47 H 0.267177 0.688282 0.655745
H48 H 0.167304 0.687690 0.645729
C52 C 0.2175(8) 0.5887(6) 0.6415(5)
H49 H 0.208146 0.589257 0.596491
H50 H 0.172510 0.563109 0.655019
H51 H 0.271078 0.566765 0.657548
C53 C 0.2671(4) 0.5794(4) 0.8534(3)
H52 H 0.207775 0.589173 0.836277
H53 H 0.272724 0.576927 0.898561
C54 C 0.2880(4) 0.5091(5) 0.8304(3)
H54 H 0.281699 0.510384 0.785064
H55 H 0.346994 0.498125 0.847569
C55 C 0.2334(5) 0.4541(5) 0.8480(4)
H56 H 0.174601 0.467096 0.832423
H57 H 0.241481 0.452726 0.893360
C56 C 0.2469(8) 0.3835(7) 0.8255(6)
H58 H 0.237455 0.383505 0.780490
H59 H 0.207798 0.351729 0.839450
H60 H 0.304225 0.368963 0.841766
O13 O 0.4100(5) 0.2850(4) 0.7004(5)
O14 O 0.4578(4) 0.3122(3) 0.7960(3)
H61 H 0.476913 0.347353 0.815541
O15 O 0.4957(5) 0.4309(5) 0.8256(3)
O16 O 0.4709(4) 0.5165(3) 0.7561(2)
C57 C 0.4305(5) 0.3279(6) 0.7396(5)
C58 C 0.4260(6) 0.4019(4) 0.7222(5)
H62 H 0.366455 0.414628 0.710293
H63 H 0.451740 0.407531 0.685459
C59 C 0.4708(5) 0.4566(6) 0.7749(4)
Cl1 Cl 0.87996(12) 0.40168(9) 0.75753(7)
Cl2 Cl 0.94998(12) 0.48329(10) 0.86340(8)
C60 C 0.8625(3) 0.4692(3) 0.8062(3)
H64 H 0.849318 0.511463 0.781632
H65 H 0.814050 0.458048 0.825390
loop_
_geom_bond_atom_site_label_1
_geom_bond_atom_site_label_2
_geom_bond_site_symmetry_1
_geom_bond_site_symmetry_2
O1 C1 1_555 1_555
O2 C2 1_555 1_555
O3 C8 1_555 1_555
O4 C12 1_555 1_555
O5 C3 1_555 1_555
O6 C11 1_555 1_555
O7 C19 1_555 1_555
O8 C22 1_555 1_555
O9 C28 1_555 1_555
O10 C32 1_555 1_555
O11 C23 1_555 1_555
O12 C31 1_555 1_555
N1 C1 1_555 1_555
N2 C1 1_555 1_555
N3 C2 1_555 1_555
N4 C10 1_555 1_555
N5 C10 1_555 1_555
N6 C11 1_555 1_555
N7 C21 1_555 1_555
N8 C21 1_555 1_555
N9 C22 1_555 1_555
N10 C30 1_555 1_555
N11 C30 1_555 1_555
N12 C31 1_555 1_555
C2 N2 1_555 1_555
C3 N1 1_555 1_555
C4 O2 1_555 1_555
C5 C4 1_555 1_555
H1 C5 1_555 1_555
C6 C5 1_555 1_555
H2 C6 1_555 1_555
C7 C6 1_555 1_555
H3 C7 1_555 1_555
C8 C7 1_555 1_555
C9 C4 1_555 1_555
H4 C9 1_555 1_555
C10 O3 1_555 1_555
C11 N5 1_555 1_555
C12 N4 1_555 1_555
C13 O4 1_555 1_555
H5 C13 1_555 1_555
H6 C13 1_555 1_555
C14 O5 1_555 1_555
H7 C14 1_555 1_555
H8 C14 1_555 1_555
C15 O6 1_555 1_555
C16 C15 1_555 1_555
H9 C16 1_555 1_555
C17 C16 1_555 1_555
H10 C17 1_555 1_555
C18 C17 1_555 1_555
H11 C18 1_555 1_555
C19 C18 1_555 1_555
C20 C15 1_555 1_555
H12 C20 1_555 1_555
C21 O7 1_555 1_555
C22 N8 1_555 1_555
C23 N7 1_555 1_555
C24 O8 1_555 1_555
C25 C24 1_555 1_555
H13 C25 1_555 1_555
C26 C25 1_555 1_555
H14 C26 1_555 1_555
C27 C26 1_555 1_555
H15 C27 1_555 1_555
C28 C27 1_555 1_555
C29 C24 1_555 1_555
H16 C29 1_555 1_555
C30 O9 1_555 1_555
C31 N11 1_555 1_555
C32 N10 1_555 1_555
C33 O10 1_555 1_555
H17 C33 1_555 1_555
H18 C33 1_555 1_555
C34 O11 1_555 1_555
H19 C34 1_555 1_555
H20 C34 1_555 1_555
C35 O12 1_555 1_555
C36 C35 1_555 1_555
H21 C36 1_555 1_555
C37 C36 1_555 1_555
H22 C37 1_555 1_555
C38 C37 1_555 1_555
H23 C38 1_555 1_555
C39 O1 1_555 1_555
C40 C35 1_555 1_555
H24 C40 1_555 1_555
N13 C41 1_555 1_555
C41 H25 1_555 1_555
H26 C41 1_555 1_555
C42 C41 1_555 1_555
H27 C42 1_555 1_555
H28 C42 1_555 1_555
C43 C42 1_555 1_555
H29 C43 1_555 1_555
H30 C43 1_555 1_555
C44 C43 1_555 1_555
H31 C44 1_555 1_555
H32 C44 1_555 1_555
H33 C44 1_555 1_555
C45 N13 1_555 1_555
H34 C45 1_555 1_555
H35 C45 1_555 1_555
C46 C45 1_555 1_555
H36 C46 1_555 1_555
H37 C46 1_555 1_555
C47 C46 1_555 1_555
H38 C47 1_555 1_555
H39 C47 1_555 1_555
C48 C47 1_555 1_555
H40 C48 1_555 1_555
H41 C48 1_555 1_555
H42 C48 1_555 1_555
C49 N13 1_555 1_555
H43 C49 1_555 1_555
H44 C49 1_555 1_555
C50 C49 1_555 1_555
H45 C50 1_555 1_555
H46 C50 1_555 1_555
C51 C50 1_555 1_555
H47 C51 1_555 1_555
H48 C51 1_555 1_555
C52 C51 1_555 1_555
H49 C52 1_555 1_555
H50 C52 1_555 1_555
H51 C52 1_555 1_555
C53 N13 1_555 1_555
H52 C53 1_555 1_555
H53 C53 1_555 1_555
C54 C53 1_555 1_555
H54 C54 1_555 1_555
H55 C54 1_555 1_555
C55 C54 1_555 1_555
H56 C55 1_555 1_555
H57 C55 1_555 1_555
C56 C55 1_555 1_555
H58 C56 1_555 1_555
H59 C56 1_555 1_555
H60 C56 1_555 1_555
O13 C57 1_555 1_555
O14 H61 1_555 1_555
O15 C59 1_555 1_555
O16 C59 1_555 1_555
C57 O14 1_555 1_555
C58 C57 1_555 1_555
H62 C58 1_555 1_555
H63 C58 1_555 1_555
C59 C58 1_555 1_555
Cl1 C60 1_555 1_555
Cl2 C60 1_555 1_555
C60 H64 1_555 1_555
H65 C60 1_555 1_555
N3 C3 1_555 1_555
N6 C12 1_555 1_555
N9 C23 1_555 1_555
N12 C32 1_555 1_555
C8 C9 1_555 1_555
C13 C14 1_555 1_555
C19 C20 1_555 1_555
C28 C29 1_555 1_555
C33 C34 1_555 1_555
C38 C39 1_555 1_555
C39 C40 1_555 1_555

#END
