
#######################################################################
#
#                 Cambridge Crystallographic Data Centre
#                                CCDC 
#
#######################################################################
#
# If this CIF has been generated from an entry in the Cambridge 
# Structural Database, then it will include bibliographic, chemical, 
# crystal, experimental, refinement or atomic coordinate data resulting 
# from the CCDC's data processing and validation procedures.
#
#######################################################################

data_TIRRIY
_chemical_formula_moiety         'C56 H56 N12 O20,3(C1 H2 Cl2)'
_chemical_name_systematic        
'4,10,16,19,22,25,28,31,37,43,49,52,55,58,61,64,67,73,79,85-icosaoxa-2,12,14,33,35,45,47,66,75,76,78,86-dodecaazaundecacyclo[44.20.7.7^13,34^.1^3,65^.1^5,9^.1^11,15^.1^32,36^.1^38,42^.1^44,48^.1^68,72^.1^80,84^]octaoctaconta-1,3(75),5(87),6,8,11(86),12,14,32(78),33,35,38(77),39,41,44(76),45,47,65,68(74),69,71,80(88),81,83-tetracosaene dichloromethane solvate'
_symmetry_cell_setting           triclinic
_symmetry_space_group_name_H-M   'P -1'
_symmetry_Int_Tables_number      2
_space_group_name_Hall           '-P 1'
loop_
_symmetry_equiv_pos_site_id
_symmetry_equiv_pos_as_xyz
1 x,y,z
2 -x,-y,-z
_cell_length_a                   14.118(3)
_cell_length_b                   14.625(3)
_cell_length_c                   17.993(4)
_cell_angle_alpha                73.422(13)
_cell_angle_beta                 72.757(9)
_cell_angle_gamma                80.920(13)
_cell_volume                     3389.76
_exptl_crystal_colour            colorless
_exptl_crystal_description       block
_cell_formula_units_Z            2
loop_
_atom_site_label
_atom_site_type_symbol
_atom_site_fract_x
_atom_site_fract_y
_atom_site_fract_z
O1 O 0.8036(3) 0.3502(2) 0.4060(2)
O2 O 0.7196(2) 0.6631(2) 0.3054(2)
O3 O 1.0082(3) 0.5087(2) 0.1822(2)
O4 O 1.1182(3) 0.8257(2) 0.1250(2)
O5 O 1.2864(3) 0.6744(2) 0.3115(2)
O6 O 1.1579(3) 0.9798(2) 0.2974(2)
O7 O 0.9961(3) 1.0848(2) 0.3867(2)
O8 O 0.7885(3) 1.1074(2) 0.4578(2)
O9 O 0.6820(4) 1.0151(4) 0.3898(3)
O10 O 0.6656(3) 0.8418(3) 0.3433(3)
N1 N 0.7581(3) 0.5106(3) 0.3590(2)
N2 N 0.9035(3) 0.4293(3) 0.2924(2)
N3 N 0.8647(3) 0.5950(3) 0.2378(2)
N4 N 1.2041(3) 0.7453(3) 0.2179(2)
N5 N 1.1369(3) 0.9070(3) 0.2066(3)
N6 N 1.2211(3) 0.8295(3) 0.3081(2)
C1 C 0.7289(4) 0.3444(3) 0.4776(3)
C2 C 0.7587(4) 0.3397(3) 0.5463(3)
H1 H 0.8246 0.3451 0.5432
C3 C 0.6868(4) 0.3266(3) 0.6185(3)
C4 C 0.5886(4) 0.3201(3) 0.6253(3)
H2 H 0.5419 0.3119 0.6751
C5 C 0.5600(4) 0.3262(4) 0.5561(3)
H3 H 0.4938 0.3218 0.5595
C6 C 0.6305(4) 0.3390(3) 0.4821(3)
H4 H 0.6115 0.3439 0.4358
C7 C 0.8214(4) 0.4347(3) 0.3503(3)
C8 C 0.9220(4) 0.5133(3) 0.2395(3)
C9 C 0.7836(4) 0.5882(3) 0.2990(3)
C10 C 1.0574(4) 0.5899(3) 0.1313(3)
C11 C 1.1089(4) 0.5810(4) 0.0551(3)
H5 H 1.1052 0.5271 0.0387
C12 C 1.1661(4) 0.6538(4) 0.0039(3)
H6 H 1.2016 0.6486 -0.0475
C13 C 1.1715(4) 0.7348(4) 0.0276(3)
H7 H 1.2097 0.7840 -0.0069
C14 C 1.1181(4) 0.7395(3) 0.1043(3)
C15 C 1.0606(4) 0.6691(3) 0.1565(3)
H8 H 1.0245 0.6748 0.2076
C16 C 1.1554(4) 0.8244(3) 0.1863(3)
C17 C 1.1720(4) 0.9045(3) 0.2683(3)
C18 C 1.2345(4) 0.7537(3) 0.2786(3)
C19 C 1.1009(4) 1.0639(3) 0.2625(3)
H9 H 1.0420 1.0458 0.2548
H10 H 1.1407 1.0976 0.2108
C20 C 1.0723(4) 1.1261(3) 0.3197(3)
H11 H 1.1295 1.1316 0.3371
H12 H 1.0489 1.1897 0.2935
C21 C 0.9521(4) 1.1449(4) 0.4405(4)
H13 H 0.9343 1.2086 0.4105
H14 H 0.9990 1.1500 0.4688
C22 C 0.8613(5) 1.1014(4) 0.4992(3)
H15 H 0.8778 1.0350 0.5241
H16 H 0.8356 1.1353 0.5411
C23 C 0.7118(6) 1.0489(5) 0.5060(4)
H17 H 0.6790 1.0698 0.5547
H18 H 0.7385 0.9830 0.5212
C24 C 0.6359(6) 1.0573(6) 0.4552(6)
H19 H 0.5772 1.0249 0.4888
H20 H 0.6155 1.1241 0.4349
C25 C 0.6149(5) 1.0010(5) 0.3493(5)
H21 H 0.6465 1.0152 0.2919
H22 H 0.5563 1.0452 0.3583
C26 C 0.5848(5) 0.9036(4) 0.3765(4)
H23 H 0.5676 0.8832 0.4348
H24 H 0.5268 0.9009 0.3590
C27 C 0.6624(4) 0.8285(3) 0.2683(3)
H25 H 0.6720 0.8883 0.2272
H26 H 0.5980 0.8082 0.2736
C28 C 0.7424(4) 0.7544(3) 0.2447(3)
H27 H 0.7446 0.7482 0.1920
H28 H 0.8065 0.7724 0.2427
O1A O 1.1964(3) 0.6498(2) 0.5940(2)
O2A O 1.2804(2) 0.3369(2) 0.6946(2)
O3A O 0.9918(3) 0.4913(2) 0.8178(2)
O4A O 0.8818(3) 0.1743(2) 0.8750(2)
O5A O 0.7136(3) 0.3256(2) 0.6885(2)
O6A O 0.8421(3) 0.0202(2) 0.7026(2)
O7A O 1.0039(3) -0.0848(2) 0.6133(2)
O8A O 1.2115(3) -0.1074(2) 0.5422(2)
O9A O 1.3180(4) -0.0151(4) 0.6102(3)
O10A O 1.3344(3) 0.1582(3) 0.6567(3)
N1A N 1.2419(3) 0.4894(3) 0.6410(2)
N2A N 1.0965(3) 0.5707(3) 0.7076(2)
N3A N 1.1353(3) 0.4050(3) 0.7622(2)
N4A N 0.7959(3) 0.2547(3) 0.7821(2)
N5A N 0.8631(3) 0.0930(3) 0.7934(3)
N6A N 0.7789(3) 0.1705(3) 0.6919(2)
C1A C 1.2711(4) 0.6556(3) 0.5224(3)
C2A C 1.2413(4) 0.6603(3) 0.4537(3)
H1A H 1.1754 0.6549 0.4568
C3A C 1.3132(4) 0.6734(3) 0.3815(3)
C4A C 1.4114(4) 0.6799(3) 0.3747(3)
H2A H 1.4581 0.6881 0.3249
C5A C 1.4400(4) 0.6738(4) 0.4439(3)
H3A H 1.5062 0.6782 0.4405
C6A C 1.3695(4) 0.6610(3) 0.5179(3)
H4A H 1.3885 0.6561 0.5642
C7A C 1.1786(4) 0.5653(3) 0.6497(3)
C8A C 1.0780(4) 0.4867(3) 0.7605(3)
C9A C 1.2164(4) 0.4118(3) 0.7010(3)
C10A C 0.9426(4) 0.4101(3) 0.8687(3)
C11A C 0.8911(4) 0.4190(4) 0.9449(3)
H5A H 0.8948 0.4729 0.9613
C12A C 0.8339(4) 0.3462(4) 0.9961(3)
H6A H 0.7984 0.3514 1.0475
C13A C 0.8285(4) 0.2652(4) 0.9724(3)
H7A H 0.7903 0.2160 1.0069
C14A C 0.8819(4) 0.2605(3) 0.8957(3)
C15A C 0.9394(4) 0.3309(3) 0.8435(3)
H8A H 0.9755 0.3252 0.7924
C16A C 0.8446(4) 0.1756(3) 0.8137(3)
C17A C 0.8280(4) 0.0955(3) 0.7317(3)
C18A C 0.7655(4) 0.2463(3) 0.7214(3)
C19A C 0.8991(4) -0.0639(3) 0.7375(3)
H9A H 0.9580 -0.0458 0.7452
H10A H 0.8593 -0.0976 0.7892
C20A C 0.9277(4) -0.1261(3) 0.6803(3)
H11A H 0.8705 -0.1316 0.6629
H12A H 0.9511 -0.1897 0.7065
C21A C 1.0479(4) -0.1449(4) 0.5595(4)
H13A H 1.0657 -0.2086 0.5895
H14A H 1.0010 -0.1500 0.5312
C22A C 1.1387(5) -0.1014(4) 0.5008(3)
H15A H 1.1222 -0.0350 0.4759
H16A H 1.1644 -0.1353 0.4589
C23A C 1.2882(6) -0.0489(5) 0.4940(4)
H17A H 1.3210 -0.0698 0.4453
H18A H 1.2615 0.0170 0.4788
C24A C 1.3641(6) -0.0573(6) 0.5448(6)
H19A H 1.4228 -0.0249 0.5112
H20A H 1.3845 -0.1241 0.5651
C25A C 1.3851(5) -0.0010(5) 0.6507(5)
H21A H 1.3535 -0.0152 0.7081
H22A H 1.4437 -0.0452 0.6417
C26A C 1.4152(5) 0.0964(4) 0.6235(4)
H23A H 1.4324 0.1168 0.5652
H24A H 1.4732 0.0991 0.6410
C27A C 1.3376(4) 0.1715(3) 0.7317(3)
H25A H 1.3280 0.1117 0.7728
H26A H 1.4020 0.1918 0.7264
C28A C 1.2576(4) 0.2456(3) 0.7553(3)
H27A H 1.2554 0.2518 0.8080
H28A H 1.1935 0.2276 0.7573
O11 O 0.3121(3) 0.3500(2) 0.8972(2)
O12 O 0.2278(3) 0.6633(2) 0.7983(2)
O13 O 0.5175(3) 0.5108(2) 0.6759(2)
O14 O 0.6169(3) 0.8301(2) 0.6270(2)
O15 O 0.7699(3) 0.6710(2) 0.8207(2)
O16 O 0.6273(3) 0.9702(2) 0.8177(2)
O17 O 0.4581(3) 1.0666(2) 0.9054(2)
O18 O 0.2526(3) 1.1064(2) 0.9526(2)
O19 O 0.1342(5) 1.0657(5) 0.8574(4)
O20 O 0.1094(6) 0.8452(4) 0.8091(4)
N7 N 0.2662(3) 0.5099(3) 0.8518(2)
N8 N 0.4134(3) 0.4303(3) 0.7838(2)
N9 N 0.3731(3) 0.5954(3) 0.7307(2)
N10 N 0.6945(3) 0.7457(3) 0.7238(2)
N11 N 0.6218(3) 0.9058(3) 0.7174(2)
N12 N 0.6964(3) 0.8224(3) 0.8236(2)
C29 C 0.2388(4) 0.3461(3) 0.9697(3)
C30 C 0.2715(4) 0.3435(3) 1.0362(3)
H29 H 0.3376 0.3512 1.0309
C31 C 0.2022(4) 0.3290(3) 1.1101(3)
C32 C 0.1025(4) 0.3203(3) 1.1193(3)
H30 H 0.0566 0.3122 1.1695
C33 C 0.0737(4) 0.3242(4) 1.0505(3)
H31 H 0.0076 0.3179 1.0551
C34 C 0.1412(4) 0.3371(3) 0.9765(3)
H32 H 0.1209 0.3397 0.9312
C35 C 0.3298(4) 0.4346(3) 0.8425(3)
C36 C 0.4303(4) 0.5137(3) 0.7321(3)
C37 C 0.2923(4) 0.5881(3) 0.7923(3)
C38 C 0.5660(4) 0.5936(3) 0.6274(3)
C39 C 0.6250(4) 0.5846(4) 0.5533(3)
H33 H 0.6256 0.5298 0.5366
C40 C 0.6826(4) 0.6569(4) 0.5043(3)
H34 H 0.7217 0.6514 0.4539
C41 C 0.6833(4) 0.7385(4) 0.5290(3)
H35 H 0.7237 0.7872 0.4967
C42 C 0.6218(4) 0.7443(3) 0.6032(3)
C43 C 0.5636(4) 0.6721(3) 0.6546(3)
H36 H 0.5248 0.6768 0.7053
C44 C 0.6463(4) 0.8248(3) 0.6922(3)
C45 C 0.6493(4) 0.8973(3) 0.7836(3)
C46 C 0.7171(4) 0.7507(3) 0.7890(3)
C47 C 0.5731(4) 1.0557(3) 0.7814(3)
H37 H 0.5175 1.0390 0.7679
H38 H 0.6163 1.0920 0.7328
C48 C 0.5366(4) 1.1128(3) 0.8430(3)
H39 H 0.5904 1.1173 0.8648
H40 H 0.5131 1.1771 0.8185
C49 C 0.4116(5) 1.1184(4) 0.9639(4)
H41 H 0.4053 1.1862 0.9380
H42 H 0.4519 1.1093 1.0011
C50 C 0.3112(5) 1.0841(4) 1.0085(3)
H43 H 0.3167 1.0156 1.0318
H44 H 0.2806 1.1155 1.0516
C51 C 0.1551(4) 1.0746(4) 0.9898(3)
H45 H 0.1208 1.1064 1.0321
H46 H 0.1593 1.0061 1.0136
C52 C 0.0994(4) 1.0980(4) 0.9263(4)
H47 H 0.0336 1.0756 0.9528
H48 H 0.0904 1.1673 0.9092
C53 C 0.0910(16) 0.9892(13) 0.8531(11)
H49 H 0.0323 1.0139 0.8338
H50 H 0.0690 0.9486 0.9070
C54 C 0.1541(7) 0.9308(7) 0.8021(6)
H51 H 0.2168 0.9127 0.8163
H52 H 0.1681 0.9682 0.7466
C55 C 0.1460(10) 0.8085(10) 0.7401(8)
H53 H 0.1510 0.8615 0.6925
H54 H 0.0981 0.7676 0.7401
C56 C 0.2470(4) 0.7515(3) 0.7343(3)
H55 H 0.2734 0.7375 0.6821
H56 H 0.2942 0.7868 0.7425
O11A O 0.6879(3) 0.6500(2) 1.1028(2)
O12A O 0.7722(3) 0.3367(2) 1.2017(2)
O13A O 0.4825(3) 0.4892(2) 1.3241(2)
O14A O 0.3831(3) 0.1699(2) 1.3730(2)
O15A O 0.2301(3) 0.3290(2) 1.1793(2)
O16A O 0.3727(3) 0.0298(2) 1.1823(2)
O17A O 0.5419(3) -0.0666(2) 1.0946(2)
O18A O 0.7474(3) -0.1064(2) 1.0474(2)
O19A O 0.8658(5) -0.0657(5) 1.1426(4)
O20A O 0.8906(6) 0.1548(4) 1.1909(4)
N7A N 0.7338(3) 0.4901(3) 1.1482(2)
N8A N 0.5866(3) 0.5697(3) 1.2162(2)
N9A N 0.6269(3) 0.4046(3) 1.2693(2)
N10A N 0.3055(3) 0.2543(3) 1.2762(2)
N11A N 0.3782(3) 0.0942(3) 1.2826(2)
N12A N 0.3036(3) 0.1776(3) 1.1764(2)
C29A C 0.7612(4) 0.6539(3) 1.0303(3)
C30A C 0.7285(4) 0.6565(3) 0.9638(3)
H29A H 0.6624 0.6488 0.9691
C31A C 0.7978(4) 0.6710(3) 0.8899(3)
C32A C 0.8975(4) 0.6797(3) 0.8807(3)
H30A H 0.9434 0.6878 0.8305
C33A C 0.9263(4) 0.6758(4) 0.9495(3)
H31A H 0.9924 0.6821 0.9449
C34A C 0.8588(4) 0.6629(3) 1.0235(3)
H32A H 0.8791 0.6603 1.0688
C35A C 0.6702(4) 0.5654(3) 1.1575(3)
C36A C 0.5697(4) 0.4863(3) 1.2679(3)
C37A C 0.7077(4) 0.4119(3) 1.2077(3)
C38A C 0.4340(4) 0.4064(3) 1.3726(3)
C39A C 0.3750(4) 0.4154(4) 1.4467(3)
H33A H 0.3744 0.4702 1.4634
C40A C 0.3174(4) 0.3431(4) 1.4957(3)
H34A H 0.2783 0.3486 1.5461
C41A C 0.3167(4) 0.2615(4) 1.4710(3)
H35A H 0.2763 0.2128 1.5033
C42A C 0.3782(4) 0.2557(3) 1.3968(3)
C43A C 0.4364(4) 0.3279(3) 1.3454(3)
H36A H 0.4752 0.3232 1.2947
C44A C 0.3537(4) 0.1752(3) 1.3078(3)
C45A C 0.3507(4) 0.1027(3) 1.2164(3)
C46A C 0.2829(4) 0.2493(3) 1.2110(3)
C47A C 0.4269(4) -0.0557(3) 1.2186(3)
H37A H 0.4825 -0.0390 1.2321
H38A H 0.3837 -0.0920 1.2672
C48A C 0.4634(4) -0.1128(3) 1.1570(3)
H39A H 0.4096 -0.1173 1.1352
H40A H 0.4869 -0.1771 1.1815
C49A C 0.5884(5) -0.1184(4) 1.0361(4)
H41A H 0.5947 -0.1862 1.0620
H42A H 0.5481 -0.1093 0.9989
C50A C 0.6888(5) -0.0841(4) 0.9915(3)
H43A H 0.6833 -0.0156 0.9682
H44A H 0.7194 -0.1155 0.9484
C51A C 0.8449(4) -0.0746(4) 1.0102(3)
H45A H 0.8792 -0.1064 0.9679
H46A H 0.8407 -0.0061 0.9864
C52A C 0.9006(4) -0.0980(4) 1.0737(4)
H47A H 0.9664 -0.0756 1.0472
H48A H 0.9096 -0.1673 1.0908
C53A C 0.9090(16) 0.0108(13) 1.1469(11)
H49A H 0.9677 -0.0139 1.1662
H50A H 0.9310 0.0514 1.0930
C54A C 0.8459(7) 0.0692(7) 1.1979(6)
H51A H 0.7832 0.0873 1.1837
H52A H 0.8319 0.0318 1.2534
C55A C 0.8540(10) 0.1915(10) 1.2599(8)
H53A H 0.8490 0.1385 1.3075
H54A H 0.9019 0.2324 1.2599
C56A C 0.7530(4) 0.2485(3) 1.2657(3)
H55A H 0.7266 0.2625 1.3179
H56A H 0.7058 0.2132 1.2575
Cl1 Cl 0.5709(2) 0.3184(2) 0.9290(2)
Cl2 Cl 0.5552(3) 0.5275(3) 0.8756(2)
C60 C 0.6220(8) 0.4191(7) 0.8580(7)
H67 H 0.6228 0.4152 0.8049
H68 H 0.6903 0.4195 0.8589
Cl3 Cl 1.0229(3) 0.4162(4) 0.44036(19)
Cl4 Cl 1.1716(3) 0.5063(2) 0.3053(2)
C61 C 1.1213(6) 0.4078(5) 0.3488(5)
H69 H 1.1718 0.3577 0.3625
H70 H 1.0934 0.3903 0.3120
Cl7 Cl 0.9534(2) 0.7040(2) 0.36369(17)
Cl8 Cl 0.9278(2) 0.8975(2) 0.38674(16)
C62 C 0.9209(8) 0.8110(6) 0.3281(6)
H73 H 0.8530 0.8150 0.3247
H74 H 0.9627 0.8315 0.2737
H57? H 0.1138 1.1593 0.8881
H58? H 0.0281 1.0949 0.9488
H59? H 0.2469 0.7414 0.6834
H60? H 0.3112 0.7724 0.7289
C57? C 0.1650(15) 0.8251(15) 0.7582(12)
H61? H 0.1712 0.8838 0.7156
H62? H 0.1009 0.8019 0.7669
O21? O 0.1715(7) 0.8435(7) 0.8310(6)
C58? C 0.0805(13) 0.8891(12) 0.8676(11)
H63? H 0.0329 0.8982 0.8362
H64? H 0.0522 0.8511 0.9214
O22? O 0.1528(9) 1.0069(10) 0.8888(8)
C59? C 0.101(2) 0.965(2) 0.8697(17)
H65? H 0.1101 0.9995 0.8136
H66? H 0.0356 0.9902 0.8964
H71? H 1.0966 0.4002 0.3062
H72? H 1.1926 0.3916 0.3351
Cl5? Cl 1.0698(8) 0.3320(9) 0.4333(7)
Cl6? Cl 1.0983(14) 0.5300(6) 0.3526(10)
loop_
_geom_bond_atom_site_label_1
_geom_bond_atom_site_label_2
_geom_bond_site_symmetry_1
_geom_bond_site_symmetry_2
O1 C1 1_555 1_555
O2 C9 1_555 1_555
O3 C8 1_555 1_555
O4 C14 1_555 1_555
O5 C18 1_555 1_555
O6 C17 1_555 1_555
O7 C20 1_555 1_555
O8 C22 1_555 1_555
O9 C24 1_555 1_555
O10 C26 1_555 1_555
N1 C7 1_555 1_555
N2 C7 1_555 1_555
N3 C8 1_555 1_555
N4 C16 1_555 1_555
N5 C16 1_555 1_555
N6 C17 1_555 1_555
C1 C2 1_555 1_555
C2 H1 1_555 1_555
C3 C2 1_555 1_555
C4 C3 1_555 1_555
H2 C4 1_555 1_555
C5 C4 1_555 1_555
H3 C5 1_555 1_555
C6 C1 1_555 1_555
H4 C6 1_555 1_555
C7 O1 1_555 1_555
C8 N2 1_555 1_555
C9 N1 1_555 1_555
C10 O3 1_555 1_555
C11 C10 1_555 1_555
H5 C11 1_555 1_555
C12 C11 1_555 1_555
H6 C12 1_555 1_555
C13 C12 1_555 1_555
H7 C13 1_555 1_555
C14 C13 1_555 1_555
C15 C10 1_555 1_555
H8 C15 1_555 1_555
C16 O4 1_555 1_555
C17 N5 1_555 1_555
C18 N4 1_555 1_555
C19 O6 1_555 1_555
H9 C19 1_555 1_555
H10 C19 1_555 1_555
C20 C19 1_555 1_555
H11 C20 1_555 1_555
H12 C20 1_555 1_555
C21 O7 1_555 1_555
H13 C21 1_555 1_555
H14 C21 1_555 1_555
C22 C21 1_555 1_555
H15 C22 1_555 1_555
H16 C22 1_555 1_555
C23 O8 1_555 1_555
H17 C23 1_555 1_555
H18 C23 1_555 1_555
C24 C23 1_555 1_555
H19 C24 1_555 1_555
H20 C24 1_555 1_555
C25 O9 1_555 1_555
H21 C25 1_555 1_555
H22 C25 1_555 1_555
C26 C25 1_555 1_555
H23 C26 1_555 1_555
H24 C26 1_555 1_555
C27 O10 1_555 1_555
H25 C27 1_555 1_555
H26 C27 1_555 1_555
C28 O2 1_555 1_555
H27 C28 1_555 1_555
H28 C28 1_555 1_555
O11 C29 1_555 1_555
O12 C37 1_555 1_555
O13 C36 1_555 1_555
O14 C42 1_555 1_555
O15 C46 1_555 1_555
O16 C45 1_555 1_555
O17 C48 1_555 1_555
O18 C50 1_555 1_555
O19 C52 1_555 1_555
O20 C54 1_555 1_555
N7 C35 1_555 1_555
N8 C35 1_555 1_555
N9 C36 1_555 1_555
N10 C44 1_555 1_555
N11 C44 1_555 1_555
N12 C45 1_555 1_555
C29 C30 1_555 1_555
C30 H29 1_555 1_555
C31 C30 1_555 1_555
C32 C31 1_555 1_555
H30 C32 1_555 1_555
C33 C32 1_555 1_555
H31 C33 1_555 1_555
C34 C29 1_555 1_555
H32 C34 1_555 1_555
C35 O11 1_555 1_555
C36 N8 1_555 1_555
C37 N7 1_555 1_555
C38 O13 1_555 1_555
C39 C38 1_555 1_555
H33 C39 1_555 1_555
C40 C39 1_555 1_555
H34 C40 1_555 1_555
C41 C40 1_555 1_555
H35 C41 1_555 1_555
C42 C41 1_555 1_555
C43 C38 1_555 1_555
H36 C43 1_555 1_555
C44 O14 1_555 1_555
C45 N11 1_555 1_555
C46 N10 1_555 1_555
C47 O16 1_555 1_555
H37 C47 1_555 1_555
H38 C47 1_555 1_555
C48 C47 1_555 1_555
H39 C48 1_555 1_555
H40 C48 1_555 1_555
C49 O17 1_555 1_555
H41 C49 1_555 1_555
H42 C49 1_555 1_555
C50 C49 1_555 1_555
H43 C50 1_555 1_555
H44 C50 1_555 1_555
C51 O18 1_555 1_555
H45 C51 1_555 1_555
H46 C51 1_555 1_555
C52 C51 1_555 1_555
H47 C52 1_555 1_555
H48 C52 1_555 1_555
C53 O19 1_555 1_555
H49 C53 1_555 1_555
H50 C53 1_555 1_555
C54 C53 1_555 1_555
H51 C54 1_555 1_555
H52 C54 1_555 1_555
C55 O20 1_555 1_555
H53 C55 1_555 1_555
H54 C55 1_555 1_555
C56 O12 1_555 1_555
H55 C56 1_555 1_555
H56 C56 1_555 1_555
Cl1 C60 1_555 1_555
Cl2 C60 1_555 1_555
C60 H67 1_555 1_555
H68 C60 1_555 1_555
Cl3 C61 1_555 1_555
Cl4 C61 1_555 1_555
C61 H69 1_555 1_555
H70 C61 1_555 1_555
Cl7 C62 1_555 1_555
Cl8 C62 1_555 1_555
C62 H73 1_555 1_555
H74 C62 1_555 1_555
O1A C1A 1_555 1_555
O2A C9A 1_555 1_555
O3A C8A 1_555 1_555
O4A C14A 1_555 1_555
O5A C3 1_555 1_555
O6A C17A 1_555 1_555
O7A C20A 1_555 1_555
O8A C22A 1_555 1_555
O9A C24A 1_555 1_555
O10A C26A 1_555 1_555
N1A C7A 1_555 1_555
N2A C7A 1_555 1_555
N3A C8A 1_555 1_555
N4A C16A 1_555 1_555
N5A C16A 1_555 1_555
N6A C17A 1_555 1_555
C1A C2A 1_555 1_555
C2A H1A 1_555 1_555
C3A O5 1_555 1_555
C4A C3A 1_555 1_555
H2A C4A 1_555 1_555
C5A C4A 1_555 1_555
H3A C5A 1_555 1_555
C6A C1A 1_555 1_555
H4A C6A 1_555 1_555
C7A O1A 1_555 1_555
C8A N2A 1_555 1_555
C9A N1A 1_555 1_555
C10A O3A 1_555 1_555
C11A C10A 1_555 1_555
H5A C11A 1_555 1_555
C12A C11A 1_555 1_555
H6A C12A 1_555 1_555
C13A C12A 1_555 1_555
H7A C13A 1_555 1_555
C14A C13A 1_555 1_555
C15A C10A 1_555 1_555
H8A C15A 1_555 1_555
C16A O4A 1_555 1_555
C17A N5A 1_555 1_555
C18A O5A 1_555 1_555
C19A O6A 1_555 1_555
H9A C19A 1_555 1_555
H10A C19A 1_555 1_555
C20A C19A 1_555 1_555
H11A C20A 1_555 1_555
H12A C20A 1_555 1_555
C21A O7A 1_555 1_555
H13A C21A 1_555 1_555
H14A C21A 1_555 1_555
C22A C21A 1_555 1_555
H15A C22A 1_555 1_555
H16A C22A 1_555 1_555
C23A O8A 1_555 1_555
H17A C23A 1_555 1_555
H18A C23A 1_555 1_555
C24A C23A 1_555 1_555
H19A C24A 1_555 1_555
H20A C24A 1_555 1_555
C25A O9A 1_555 1_555
H21A C25A 1_555 1_555
H22A C25A 1_555 1_555
C26A C25A 1_555 1_555
H23A C26A 1_555 1_555
H24A C26A 1_555 1_555
C27A O10A 1_555 1_555
H25A C27A 1_555 1_555
H26A C27A 1_555 1_555
C28A O2A 1_555 1_555
H27A C28A 1_555 1_555
H28A C28A 1_555 1_555
O11A C29A 1_555 1_555
O12A C37A 1_555 1_555
O13A C36A 1_555 1_555
O14A C42A 1_555 1_555
O15A C31 1_555 1_555
O16A C45A 1_555 1_555
O17A C48A 1_555 1_555
O18A C50A 1_555 1_555
O19A C52A 1_555 1_555
O20A C54A 1_555 1_555
N7A C35A 1_555 1_555
N8A C35A 1_555 1_555
N9A C36A 1_555 1_555
N10A C44A 1_555 1_555
N11A C44A 1_555 1_555
N12A C45A 1_555 1_555
C29A C30A 1_555 1_555
C30A H29A 1_555 1_555
C31A O15 1_555 1_555
C32A C31A 1_555 1_555
H30A C32A 1_555 1_555
C33A C32A 1_555 1_555
H31A C33A 1_555 1_555
C34A C29A 1_555 1_555
H32A C34A 1_555 1_555
C35A O11A 1_555 1_555
C36A N8A 1_555 1_555
C37A N7A 1_555 1_555
C38A O13A 1_555 1_555
C39A C38A 1_555 1_555
H33A C39A 1_555 1_555
C40A C39A 1_555 1_555
H34A C40A 1_555 1_555
C41A C40A 1_555 1_555
H35A C41A 1_555 1_555
C42A C41A 1_555 1_555
C43A C38A 1_555 1_555
H36A C43A 1_555 1_555
C44A O14A 1_555 1_555
C45A N11A 1_555 1_555
C46A O15A 1_555 1_555
C47A O16A 1_555 1_555
H37A C47A 1_555 1_555
H38A C47A 1_555 1_555
C48A C47A 1_555 1_555
H39A C48A 1_555 1_555
H40A C48A 1_555 1_555
C49A O17A 1_555 1_555
H41A C49A 1_555 1_555
H42A C49A 1_555 1_555
C50A C49A 1_555 1_555
H43A C50A 1_555 1_555
H44A C50A 1_555 1_555
C51A O18A 1_555 1_555
H45A C51A 1_555 1_555
H46A C51A 1_555 1_555
C52A C51A 1_555 1_555
H47A C52A 1_555 1_555
H48A C52A 1_555 1_555
C53A O19A 1_555 1_555
H49A C53A 1_555 1_555
H50A C53A 1_555 1_555
C54A C53A 1_555 1_555
H51A C54A 1_555 1_555
H52A C54A 1_555 1_555
C55A O20A 1_555 1_555
H53A C55A 1_555 1_555
H54A C55A 1_555 1_555
C56A O12A 1_555 1_555
H55A C56A 1_555 1_555
H56A C56A 1_555 1_555
N3 C9 1_555 1_555
N6 C18 1_555 1_555
C5 C6 1_555 1_555
C14 C15 1_555 1_555
C27 C28 1_555 1_555
N9 C37 1_555 1_555
N12 C46 1_555 1_555
C33 C34 1_555 1_555
C42 C43 1_555 1_555
C55 C56 1_555 1_555
N3A C9A 1_555 1_555
N4A C18A 1_555 1_555
N6A C18A 1_555 1_555
C2A C3A 1_555 1_555
C5A C6A 1_555 1_555
C14A C15A 1_555 1_555
C27A C28A 1_555 1_555
N9A C37A 1_555 1_555
N10A C46A 1_555 1_555
N12A C46A 1_555 1_555
C30A C31A 1_555 1_555
C33A C34A 1_555 1_555
C42A C43A 1_555 1_555
C55A C56A 1_555 1_555

#END
