
#######################################################################
#
#                 Cambridge Crystallographic Data Centre
#                                CCDC 
#
#######################################################################
#
# If this CIF has been generated from an entry in the Cambridge 
# Structural Database, then it will include bibliographic, chemical, 
# crystal, experimental, refinement or atomic coordinate data resulting 
# from the CCDC's data processing and validation procedures.
#
#######################################################################

data_TIRREU
_chemical_formula_moiety         'C44 H32 N12 O14,2.67(C1 H1 Cl3)'
_chemical_name_systematic        
'4,10,16,22,28,34,40,46,49,52,55,61,64,67-tetradecaoxa-2,12,14,24,26,36,38,48,56,58,60,69-dodecaazaundecacyclo[35.11.7.7^13,25^.1^3,47^.1^5,9^.1^11,15^.1^17,21^.1^23,27^.1^29,33^.1^35,39^.1^41,45^]heptaconta-1,3(56),5(70),6,8,11(69),12,14,17(68),18,20,23(60),24,26,29(59),30,32,35(58),36,38,41(57),42,44,47-tetracosaene chloroform solvate'
_symmetry_cell_setting           triclinic
_symmetry_space_group_name_H-M   'P -1'
_symmetry_Int_Tables_number      2
_space_group_name_Hall           '-P 1'
loop_
_symmetry_equiv_pos_site_id
_symmetry_equiv_pos_as_xyz
1 x,y,z
2 -x,-y,-z
_cell_length_a                   12.8753(16)
_cell_length_b                   15.0342(19)
_cell_length_c                   22.438(3)
_cell_angle_alpha                72.372(4)
_cell_angle_beta                 76.923(5)
_cell_angle_gamma                83.446(6)
_cell_volume                     4027.15
_exptl_crystal_colour            colorless
_exptl_crystal_description       plate
_cell_formula_units_Z            3
loop_
_atom_site_label
_atom_site_type_symbol
_atom_site_fract_x
_atom_site_fract_y
_atom_site_fract_z
O1 O 0.6660(2) 0.1763(2) 0.51751(13)
O2 O 0.3611(2) 0.1558(2) 0.45401(14)
O3 O 0.1418(2) 0.43843(17) 0.40453(11)
O4 O 0.1351(2) 0.69425(18) 0.47335(12)
O5 O 0.3124(2) 0.87874(17) 0.26788(13)
O6 O 0.6174(2) 0.82967(17) 0.13657(13)
O7 O 0.87571(19) 0.56741(18) 0.14985(12)
O8 O 0.8876(2) 0.31048(18) 0.31465(12)
O9 O 0.3545(2) 0.2138(2) 0.64481(13)
O10 O 0.1934(2) 0.31753(19) 0.72364(12)
O11 O 0.1051(2) 0.40525(18) 0.61414(12)
O12 O 0.3933(2) 0.59366(17) 0.23033(13)
O13 O 0.37400(19) 0.40851(17) 0.30050(12)
O14 O 0.58124(19) 0.39541(17) 0.23599(12)
N1 N 0.5142(3) 0.1640(2) 0.48286(15)
N2 N 0.5105(3) 0.1969(2) 0.58096(15)
N3 N 0.3473(3) 0.1887(2) 0.54944(16)
N4 N 0.1252(3) 0.4183(2) 0.51127(14)
N5 N 0.1231(3) 0.5539(2) 0.54524(14)
N6 N 0.1369(2) 0.5682(2) 0.43477(14)
N7 N 0.3450(2) 0.7325(2) 0.25337(14)
N8 N 0.4654(3) 0.8553(2) 0.20207(16)
N9 N 0.5064(2) 0.7067(2) 0.18246(15)
N10 N 0.7221(2) 0.4843(2) 0.19156(14)
N11 N 0.8826(2) 0.4400(2) 0.23239(13)
N12 N 0.7296(2) 0.3480(2) 0.27956(13)
C1 C 0.5591(3) 0.1788(3) 0.52686(18)
C2 C 0.4036(3) 0.2000(3) 0.58965(18)
C3 C 0.4084(3) 0.1713(3) 0.49791(19)
C4 C 0.2621(3) 0.2015(3) 0.44442(18)
C5 C 0.1845(4) 0.1499(3) 0.4391(2)
H1 H 0.1947 0.0856 0.4461
C6 C 0.0915(4) 0.1959(3) 0.4232(2)
H2 H 0.0387 0.1618 0.4194
C7 C 0.0746(3) 0.2919(3) 0.41259(18)
H3 H 0.0116 0.3225 0.4018
C8 C 0.1548(3) 0.3399(2) 0.41866(16)
C9 C 0.2498(3) 0.2969(3) 0.43413(17)
H4 H 0.3031 0.3309 0.4375
C10 C 0.1346(3) 0.4749(2) 0.45309(16)
C11 C 0.1183(3) 0.4626(3) 0.55568(16)
C12 C 0.1318(3) 0.6016(2) 0.48376(17)
C13 C 0.1306(3) 0.7535(2) 0.41164(17)
C14 C 0.0323(3) 0.7823(3) 0.39647(19)
H5 H -0.0302 0.7612 0.4252
C15 C 0.0298(3) 0.8442(3) 0.3364(2)
H6 H -0.0358 0.8657 0.3253
C16 C 0.1221(3) 0.8745(3) 0.29305(19)
H7 H 0.1195 0.9147 0.2527
C17 C 0.2185(3) 0.8436(2) 0.31118(18)
C18 C 0.2249(3) 0.7839(2) 0.37057(18)
H8 H 0.2904 0.7649 0.3825
C19 C 0.3768(3) 0.8185(2) 0.24002(17)
C20 C 0.5272(3) 0.7943(2) 0.17514(17)
C21 C 0.4142(3) 0.6810(2) 0.22243(17)
C22 C 0.6939(3) 0.7715(2) 0.10843(17)
C23 C 0.7260(3) 0.8008(3) 0.04282(18)
H9 H 0.6935 0.8535 0.0186
C24 C 0.8072(3) 0.7505(3) 0.01387(17)
H10 H 0.8304 0.7703 -0.0302
C25 C 0.8552(3) 0.6708(3) 0.04931(17)
H11 H 0.9095 0.6367 0.0296
C26 C 0.8197(3) 0.6438(2) 0.11469(16)
C27 C 0.7399(3) 0.6931(2) 0.14587(16)
H12 H 0.7181 0.6744 0.1901
C28 C 0.8218(3) 0.4946(2) 0.19300(16)
C29 C 0.6812(3) 0.4088(2) 0.23618(16)
C30 C 0.8297(3) 0.3683(2) 0.27361(16)
C31 C 0.8362(3) 0.2323(3) 0.35928(17)
C32 C 0.8533(3) 0.1475(3) 0.3465(2)
H13 H 0.8962 0.1420 0.3083
C33 C 0.8053(4) 0.0703(3) 0.3915(2)
H14 H 0.8163 0.0123 0.3835
C34 C 0.7412(4) 0.0787(3) 0.4482(2)
H15 H 0.7090 0.0269 0.4784
C35 C 0.7259(3) 0.1654(3) 0.45934(18)
C36 C 0.7740(3) 0.2433(3) 0.41594(18)
H16 H 0.7651 0.3009 0.4244
C37 C 0.2405(3) 0.2023(3) 0.6635(2)
H17 H 0.2247 0.1393 0.6666
H18 H 0.2042 0.2459 0.6322
C38 C 0.2040(4) 0.2212(3) 0.72789(19)
H19 H 0.1358 0.1935 0.7485
H20 H 0.2550 0.1910 0.7546
C39 C 0.0887(3) 0.3597(3) 0.72513(17)
H21 H 0.0646 0.3787 0.7639
H22 H 0.0400 0.3150 0.7252
C40 C 0.0881(4) 0.4434(3) 0.66799(17)
H23 H 0.0203 0.4788 0.6719
H24 H 0.1448 0.4840 0.6631
C41 C 0.2914(3) 0.5595(2) 0.26989(17)
H25 H 0.2323 0.5960 0.2525
H26 H 0.2849 0.5624 0.3132
C42 C 0.2932(3) 0.4603(2) 0.26847(17)
H27 H 0.2243 0.4341 0.2896
H28 H 0.3082 0.4577 0.2247
C43 C 0.4153(3) 0.3272(2) 0.28129(18)
H29 H 0.4060 0.3347 0.2383
H30 H 0.3776 0.2730 0.3098
C44 C 0.5312(3) 0.3141(2) 0.28367(18)
H31 H 0.5414 0.3110 0.3258
H32 H 0.5614 0.2570 0.2736
O15 O 0.66681(18) 0.84341(16) -0.10053(11)
O16 O 0.38518(19) 0.74423(18) -0.14893(11)
O17 O 0.1271(2) 0.53343(17) -0.00231(11)
O18 O 0.1422(2) 0.38544(16) 0.20490(11)
O19 O 0.1275(2) 0.69555(16) 0.14125(11)
O20 O 0.2235(2) 0.86628(17) 0.13457(12)
O21 O 0.33038(19) 0.89491(17) 0.00285(12)
N13 N 0.5030(2) 0.87036(19) -0.04733(13)
N14 N 0.5274(2) 0.7894(2) -0.12629(14)
N15 N 0.3518(2) 0.8239(2) -0.07329(13)
N16 N 0.1285(2) 0.62207(19) 0.06490(14)
N17 N 0.1352(2) 0.45568(19) 0.09886(14)
N18 N 0.1342(2) 0.53970(19) 0.17356(13)
C45 C 0.3988(3) 0.8626(2) -0.04054(16)
C46 C 0.5606(3) 0.8333(2) -0.09165(16)
C47 C 0.4210(3) 0.7883(2) -0.11402(16)
C48 C 0.2790(3) 0.7153(2) -0.12789(16)
C49 C 0.2070(3) 0.7542(2) -0.16645(17)
H33 H 0.2259 0.8019 -0.2040
C50 C 0.1052(3) 0.7203(3) -0.14790(17)
H34 H 0.0552 0.7461 -0.1733
C51 C 0.0766(3) 0.6486(2) -0.09213(17)
H35 H 0.0084 0.6259 -0.0799
C52 C 0.1526(3) 0.6122(2) -0.05528(16)
C53 C 0.2548(3) 0.6435(2) -0.07233(16)
H36 H 0.3053 0.6173 -0.0474
C54 C 0.1309(3) 0.5388(2) 0.05603(16)
C55 C 0.1298(3) 0.6175(2) 0.12493(16)
C56 C 0.1367(3) 0.4628(2) 0.15604(16)
C57 C 0.1670(3) 0.2961(2) 0.19816(16)
C58 C 0.1200(3) 0.2265(2) 0.25028(18)
H37 H 0.0719 0.2415 0.2840
C59 C 0.1458(4) 0.1342(3) 0.2514(2)
H38 H 0.1140 0.0868 0.2860
C60 C 0.2182(3) 0.1115(3) 0.20170(19)
H39 H 0.2352 0.0494 0.2025
C61 C 0.2643(3) 0.1824(2) 0.15117(16)
C62 C 0.2398(3) 0.2758(2) 0.14748(16)
H40 H 0.2708 0.3229 0.1125
C63 C 0.1206(3) 0.7827(2) 0.09144(18)
H41 H 0.0550 0.7876 0.0761
H42 H 0.1804 0.7857 0.0558
C64 C 0.1227(3) 0.8605(2) 0.12024(19)
H43 H 0.1048 0.9193 0.0908
H44 H 0.0685 0.8512 0.1592
C65 C 0.2815(3) 0.9463(2) 0.09624(18)
H45 H 0.3081 0.9733 0.1237
H46 H 0.2335 0.9927 0.0743
C66 C 0.3738(3) 0.9239(3) 0.04773(18)
H47 H 0.4154 0.9785 0.0257
H48 H 0.4198 0.8742 0.0685
O15A O 0.33319(18) 0.15659(16) 0.10053(11)
O16A O 0.61482(19) 0.25577(18) 0.14893(11)
O17A O 0.8729(2) 0.46657(17) 0.00231(11)
O18A O 0.8578(2) 0.61456(16) -0.20490(11)
O19A O 0.8725(2) 0.30445(16) -0.14125(11)
O20A O 0.7765(2) 0.13372(17) -0.13457(12)
O21A O 0.66962(19) 0.10509(17) -0.00285(12)
N13A N 0.4970(2) 0.12964(19) 0.04733(13)
N14A N 0.4726(2) 0.2106(2) 0.12629(14)
N15A N 0.6482(2) 0.1761(2) 0.07329(13)
N16A N 0.8715(2) 0.37793(19) -0.06490(14)
N17A N 0.8648(2) 0.54432(19) -0.09886(14)
N18A N 0.8658(2) 0.46030(19) -0.17356(13)
C45A C 0.6012(3) 0.1374(2) 0.04054(16)
C46A C 0.4394(3) 0.1667(2) 0.09165(16)
C47A C 0.5790(3) 0.2117(2) 0.11402(16)
C48A C 0.7210(3) 0.2847(2) 0.12789(16)
C49A C 0.7930(3) 0.2458(2) 0.16645(17)
H33A H 0.7741 0.1981 0.2040
C50A C 0.8948(3) 0.2797(3) 0.14790(17)
H34A H 0.9448 0.2539 0.1733
C51A C 0.9234(3) 0.3514(2) 0.09213(17)
H35A H 0.9916 0.3741 0.0799
C52A C 0.8474(3) 0.3878(2) 0.05528(16)
C53A C 0.7452(3) 0.3565(2) 0.07233(16)
H36A H 0.6947 0.3827 0.0474
C54A C 0.8691(3) 0.4612(2) -0.05603(16)
C55A C 0.8702(3) 0.3825(2) -0.12493(16)
C56A C 0.8633(3) 0.5372(2) -0.15604(16)
C57A C 0.8330(3) 0.7039(2) -0.19816(16)
C58A C 0.8800(3) 0.7735(2) -0.25028(18)
H37A H 0.9281 0.7585 -0.2840
C59A C 0.8542(4) 0.8658(3) -0.2514(2)
H38A H 0.8860 0.9132 -0.2860
C60A C 0.7818(3) 0.8885(3) -0.20170(19)
H39A H 0.7648 0.9506 -0.2025
C61A C 0.7357(3) 0.8176(2) -0.15117(16)
C62A C 0.7602(3) 0.7242(2) -0.14748(16)
H40A H 0.7292 0.6771 -0.1125
C63A C 0.8794(3) 0.2173(2) -0.09144(18)
H41A H 0.9450 0.2124 -0.0761
H42A H 0.8196 0.2143 -0.0558
C64A C 0.8773(3) 0.1395(2) -0.12024(19)
H43A H 0.8952 0.0807 -0.0908
H44A H 0.9315 0.1488 -0.1592
C65A C 0.7185(3) 0.0537(2) -0.09624(18)
H45A H 0.6919 0.0267 -0.1237
H46A H 0.7665 0.0073 -0.0743
C66A C 0.6262(3) 0.0761(3) -0.04773(18)
H47A H 0.5846 0.0215 -0.0257
H48A H 0.5802 0.1258 -0.0685
Cl1 Cl 0.08176(10) 0.97905(8) -0.18874(5)
Cl2 Cl 0.15850(10) 1.04765(8) -0.10012(7)
Cl3 Cl 0.01719(10) 0.89441(8) -0.05326(6)
C67 C 0.1209(3) 0.9483(3) -0.1138(2)
H49 H 0.1827 0.9038 -0.1148
Cl4 Cl 0.39798(9) 0.65036(8) 0.06844(7)
Cl5 Cl 0.46414(9) 0.45477(7) 0.09817(5)
Cl6 Cl 0.62065(9) 0.59452(8) 0.03481(5)
C68 C 0.5010(3) 0.5676(3) 0.09077(19)
H50 H 0.5116 0.5692 0.1323
Cl7 Cl 0.40833(14) 0.07545(11) 0.28077(9)
Cl8 Cl 0.62063(16) 0.01393(13) 0.23408(12)
Cl9 Cl 0.5586(2) 0.03479(12) 0.36204(11)
C69 C 0.5177(5) 0.0044(4) 0.3014(3)
H51 H 0.4965 -0.0605 0.3179
Cl10 Cl 0.46580(15) 0.60146(11) 0.56901(9)
Cl11 Cl 0.59673(13) 0.43163(14) 0.58863(10)
Cl12 Cl 0.38450(13) 0.43462(12) 0.66235(8)
C70 C 0.4993(4) 0.4992(3) 0.6236(2)
H52 H 0.5268 0.5159 0.6559
loop_
_geom_bond_atom_site_label_1
_geom_bond_atom_site_label_2
_geom_bond_site_symmetry_1
_geom_bond_site_symmetry_2
O1 C1 1_555 1_555
O2 C3 1_555 1_555
O3 C8 1_555 1_555
O4 C12 1_555 1_555
O5 C17 1_555 1_555
O6 C20 1_555 1_555
O7 C26 1_555 1_555
O8 C30 1_555 1_555
O9 C2 1_555 1_555
O10 C38 1_555 1_555
O11 C11 1_555 1_555
O12 C21 1_555 1_555
O13 C42 1_555 1_555
O14 C29 1_555 1_555
N1 C1 1_555 1_555
N2 C1 1_555 1_555
N3 C2 1_555 1_555
N4 C10 1_555 1_555
N5 C11 1_555 1_555
N6 C10 1_555 1_555
N7 C19 1_555 1_555
N8 C19 1_555 1_555
N9 C20 1_555 1_555
N10 C28 1_555 1_555
N11 C28 1_555 1_555
N12 C29 1_555 1_555
C2 N2 1_555 1_555
C3 N1 1_555 1_555
C4 O2 1_555 1_555
C5 C4 1_555 1_555
H1 C5 1_555 1_555
C6 C5 1_555 1_555
H2 C6 1_555 1_555
C7 C6 1_555 1_555
H3 C7 1_555 1_555
C8 C7 1_555 1_555
C9 C4 1_555 1_555
H4 C9 1_555 1_555
C10 O3 1_555 1_555
C11 N4 1_555 1_555
C12 N5 1_555 1_555
C13 O4 1_555 1_555
C14 C13 1_555 1_555
H5 C14 1_555 1_555
C15 C14 1_555 1_555
H6 C15 1_555 1_555
C16 C15 1_555 1_555
H7 C16 1_555 1_555
C17 C16 1_555 1_555
C18 C13 1_555 1_555
H8 C18 1_555 1_555
C19 O5 1_555 1_555
C20 N8 1_555 1_555
C21 N7 1_555 1_555
C22 O6 1_555 1_555
C23 C22 1_555 1_555
H9 C23 1_555 1_555
C24 C23 1_555 1_555
H10 C24 1_555 1_555
C25 C24 1_555 1_555
H11 C25 1_555 1_555
C26 C25 1_555 1_555
C27 C22 1_555 1_555
H12 C27 1_555 1_555
C28 O7 1_555 1_555
C29 N10 1_555 1_555
C30 N11 1_555 1_555
C31 O8 1_555 1_555
C32 C31 1_555 1_555
H13 C32 1_555 1_555
C33 C32 1_555 1_555
H14 C33 1_555 1_555
C34 C33 1_555 1_555
H15 C34 1_555 1_555
C35 O1 1_555 1_555
C36 C31 1_555 1_555
H16 C36 1_555 1_555
C37 O9 1_555 1_555
H17 C37 1_555 1_555
H18 C37 1_555 1_555
C38 C37 1_555 1_555
H19 C38 1_555 1_555
H20 C38 1_555 1_555
C39 O10 1_555 1_555
H21 C39 1_555 1_555
H22 C39 1_555 1_555
C40 O11 1_555 1_555
H23 C40 1_555 1_555
H24 C40 1_555 1_555
C41 O12 1_555 1_555
H25 C41 1_555 1_555
H26 C41 1_555 1_555
C42 C41 1_555 1_555
H27 C42 1_555 1_555
H28 C42 1_555 1_555
C43 O13 1_555 1_555
H29 C43 1_555 1_555
H30 C43 1_555 1_555
C44 O14 1_555 1_555
H31 C44 1_555 1_555
H32 C44 1_555 1_555
O15 C46 1_555 1_555
O16 C47 1_555 1_555
O17 C52 1_555 1_555
O18 C56 1_555 1_555
O19 C55 1_555 1_555
O20 C64 1_555 1_555
O21 C45 1_555 1_555
N13 C45 1_555 1_555
N14 C46 1_555 1_555
N15 C45 1_555 1_555
N16 C54 1_555 1_555
N17 C54 1_555 1_555
N18 C55 1_555 1_555
C46 N13 1_555 1_555
C47 N14 1_555 1_555
C48 O16 1_555 1_555
C49 C48 1_555 1_555
H33 C49 1_555 1_555
C50 C49 1_555 1_555
H34 C50 1_555 1_555
C51 C50 1_555 1_555
H35 C51 1_555 1_555
C52 C51 1_555 1_555
C53 C48 1_555 1_555
H36 C53 1_555 1_555
C54 O17 1_555 1_555
C55 N16 1_555 1_555
C56 N17 1_555 1_555
C57 O18 1_555 1_555
C58 C57 1_555 1_555
H37 C58 1_555 1_555
C59 C58 1_555 1_555
H38 C59 1_555 1_555
C60 C59 1_555 1_555
H39 C60 1_555 1_555
C61 C60 1_555 1_555
C62 C57 1_555 1_555
H40 C62 1_555 1_555
C63 O19 1_555 1_555
H41 C63 1_555 1_555
H42 C63 1_555 1_555
C64 C63 1_555 1_555
H43 C64 1_555 1_555
H44 C64 1_555 1_555
C65 O20 1_555 1_555
H45 C65 1_555 1_555
H46 C65 1_555 1_555
C66 O21 1_555 1_555
H47 C66 1_555 1_555
H48 C66 1_555 1_555
Cl1 C67 1_555 1_555
Cl2 C67 1_555 1_555
Cl3 C67 1_555 1_555
C67 H49 1_555 1_555
Cl4 C68 1_555 1_555
Cl5 C68 1_555 1_555
Cl6 C68 1_555 1_555
C68 H50 1_555 1_555
Cl7 C69 1_555 1_555
Cl8 C69 1_555 1_555
Cl9 C69 1_555 1_555
C69 H51 1_555 1_555
Cl10 C70 1_555 1_555
Cl11 C70 1_555 1_555
Cl12 C70 1_555 1_555
C70 H52 1_555 1_555
O15A C61 1_555 1_555
O16A C47A 1_555 1_555
O17A C52A 1_555 1_555
O18A C56A 1_555 1_555
O19A C55A 1_555 1_555
O20A C64A 1_555 1_555
O21A C45A 1_555 1_555
N13A C45A 1_555 1_555
N14A C46A 1_555 1_555
N15A C45A 1_555 1_555
N16A C54A 1_555 1_555
N17A C54A 1_555 1_555
N18A C55A 1_555 1_555
C46A O15A 1_555 1_555
C47A N14A 1_555 1_555
C48A O16A 1_555 1_555
C49A C48A 1_555 1_555
H33A C49A 1_555 1_555
C50A C49A 1_555 1_555
H34A C50A 1_555 1_555
C51A C50A 1_555 1_555
H35A C51A 1_555 1_555
C52A C51A 1_555 1_555
C53A C48A 1_555 1_555
H36A C53A 1_555 1_555
C54A O17A 1_555 1_555
C55A N16A 1_555 1_555
C56A N17A 1_555 1_555
C57A O18A 1_555 1_555
C58A C57A 1_555 1_555
H37A C58A 1_555 1_555
C59A C58A 1_555 1_555
H38A C59A 1_555 1_555
C60A C59A 1_555 1_555
H39A C60A 1_555 1_555
C61A O15 1_555 1_555
C62A C57A 1_555 1_555
H40A C62A 1_555 1_555
C63A O19A 1_555 1_555
H41A C63A 1_555 1_555
H42A C63A 1_555 1_555
C64A C63A 1_555 1_555
H43A C64A 1_555 1_555
H44A C64A 1_555 1_555
C65A O20A 1_555 1_555
H45A C65A 1_555 1_555
H46A C65A 1_555 1_555
C66A O21A 1_555 1_555
H47A C66A 1_555 1_555
H48A C66A 1_555 1_555
N3 C3 1_555 1_555
N6 C12 1_555 1_555
N9 C21 1_555 1_555
N12 C30 1_555 1_555
C8 C9 1_555 1_555
C17 C18 1_555 1_555
C26 C27 1_555 1_555
C34 C35 1_555 1_555
C35 C36 1_555 1_555
C39 C40 1_555 1_555
C43 C44 1_555 1_555
N15 C47 1_555 1_555
N18 C56 1_555 1_555
C52 C53 1_555 1_555
C61 C62 1_555 1_555
C65 C66 1_555 1_555
N13A C46A 1_555 1_555
N15A C47A 1_555 1_555
N18A C56A 1_555 1_555
C52A C53A 1_555 1_555
C60A C61A 1_555 1_555
C61A C62A 1_555 1_555
C65A C66A 1_555 1_555

#END
