
#######################################################################
#
#                 Cambridge Crystallographic Data Centre
#                                CCDC 
#
#######################################################################
#
# If this CIF has been generated from an entry in the Cambridge 
# Structural Database, then it will include bibliographic, chemical, 
# crystal, experimental, refinement or atomic coordinate data resulting 
# from the CCDC's data processing and validation procedures.
#
#######################################################################

data_TIRSOF
_chemical_formula_moiety         'C24 H21 F2 N1 O3'
_chemical_name_systematic        
N,6-bis(4-fluorophenyl)-2-(4-hydroxyphenyl)tetrahydro-2H-pyran-3-carboxamide
_symmetry_cell_setting           triclinic
_symmetry_space_group_name_H-M   'P 1'
_symmetry_Int_Tables_number      1
_space_group_name_Hall           'P 1'
loop_
_symmetry_equiv_pos_site_id
_symmetry_equiv_pos_as_xyz
1 x,y,z
_cell_length_a                   6.1407(4)
_cell_length_b                   7.6603(5)
_cell_length_c                   11.1455(7)
_cell_angle_alpha                72.497(5)
_cell_angle_beta                 89.972(5)
_cell_angle_gamma                85.538(5)
_cell_volume                     498.346
_cell_formula_units_Z            1
loop_
_atom_site_label
_atom_site_type_symbol
_atom_site_fract_x
_atom_site_fract_y
_atom_site_fract_z
C1 C 0.4183(5) 0.4518(4) 0.3876(3)
H1 H 0.5581 0.3957 0.3874
C2 C 0.2843(6) 0.4883(4) 0.2822(3)
H2 H 0.3315 0.4563 0.2118
C3 C 0.0812(5) 0.5725(4) 0.2839(3)
C4 C 0.0070(6) 0.6225(5) 0.3850(3)
H3 H -0.1318 0.6814 0.3830
C5 C 0.1418(5) 0.5841(5) 0.4903(3)
H4 H 0.0929 0.6172 0.5600
C6 C 0.3492(5) 0.4968(4) 0.4936(2)
C7 C 0.4929(5) 0.4385(4) 0.6101(2)
H5 H 0.6439 0.4622 0.5861
C8 C 0.4834(6) 0.2351(4) 0.6775(3)
H6 H 0.5378 0.1642 0.6233
H7 H 0.3332 0.2088 0.6969
C9 C 0.6208(6) 0.1805(4) 0.7983(3)
H8 H 0.7730 0.1982 0.7787
H9 H 0.6095 0.0517 0.8429
C10 C 0.5401(5) 0.2985(4) 0.8814(2)
H10 H 0.3887 0.2746 0.9041
C11 C 0.5479(5) 0.5050(4) 0.8054(2)
H11 H 0.6999 0.5299 0.7853
C12 C 0.4546(5) 0.6337(4) 0.8755(2)
C13 C 0.5751(5) 0.6653(4) 0.9716(3)
H12 H 0.7155 0.6086 0.9911
C14 C 0.4907(5) 0.7787(4) 1.0386(3)
H13 H 0.5732 0.7958 1.1035
C15 C 0.2837(5) 0.8671(4) 1.0095(3)
C16 C 0.1620(5) 0.8387(4) 0.9140(3)
H14 H 0.0230 0.8980 0.8935
C17 C 0.2465(5) 0.7221(4) 0.8488(3)
H15 H 0.1619 0.7025 0.7855
C18 C 0.6813(5) 0.2443(4) 1.0004(3)
C19 C 0.6606(5) 0.1143(4) 1.2340(2)
C20 C 0.8572(5) 0.1636(4) 1.2705(3)
H16 H 0.9430 0.2391 1.2113
C21 C 0.9247(5) 0.0992(5) 1.3961(3)
H17 H 1.0567 0.1303 1.4214
C22 C 0.7967(6) -0.0097(5) 1.4819(3)
C23 C 0.6005(6) -0.0587(4) 1.4496(3)
H18 H 0.5148 -0.1317 1.5103
C24 C 0.5326(5) 0.0030(4) 1.3241(3)
H19 H 0.4008 -0.0301 1.2999
F1 F -0.0523(3) 0.6094(3) 0.18085(19)
F2 F 0.8650(4) -0.0725(3) 1.60467(18)
N1 N 0.5751(4) 0.1816(3) 1.1089(2)
H20 H 0.4357 0.1825 1.1012
O1 O 0.4234(3) 0.5438(3) 0.69121(17)
O2 O 0.2087(3) 0.9791(3) 1.0786(2)
H21 H 0.0932 1.0353 1.0473
O3 O 0.8806(4) 0.2534(3) 0.99623(19)
loop_
_geom_bond_atom_site_label_1
_geom_bond_atom_site_label_2
_geom_bond_site_symmetry_1
_geom_bond_site_symmetry_2
C1 H1 1_555 1_555
C2 C1 1_555 1_555
H2 C2 1_555 1_555
C3 C2 1_555 1_555
C4 C3 1_555 1_555
H3 C4 1_555 1_555
C5 C4 1_555 1_555
H4 C5 1_555 1_555
C6 C1 1_555 1_555
C7 C6 1_555 1_555
H5 C7 1_555 1_555
C8 C7 1_555 1_555
H6 C8 1_555 1_555
H7 C8 1_555 1_555
C9 C8 1_555 1_555
H8 C9 1_555 1_555
H9 C9 1_555 1_555
C10 C9 1_555 1_555
H10 C10 1_555 1_555
C11 C10 1_555 1_555
H11 C11 1_555 1_555
C12 C11 1_555 1_555
C13 C12 1_555 1_555
H12 C13 1_555 1_555
C14 C13 1_555 1_555
H13 C14 1_555 1_555
C15 C14 1_555 1_555
C16 C15 1_555 1_555
H14 C16 1_555 1_555
C17 C12 1_555 1_555
H15 C17 1_555 1_555
C18 C10 1_555 1_555
C19 C20 1_555 1_555
C20 H16 1_555 1_555
C21 C20 1_555 1_555
H17 C21 1_555 1_555
C22 C21 1_555 1_555
C23 C22 1_555 1_555
H18 C23 1_555 1_555
C24 C19 1_555 1_555
H19 C24 1_555 1_555
F1 C3 1_555 1_555
F2 C22 1_555 1_555
N1 C18 1_555 1_555
H20 N1 1_555 1_555
O1 C7 1_555 1_555
O2 C15 1_555 1_555
H21 O2 1_555 1_555
O3 C18 1_555 1_555
C5 C6 1_555 1_555
C11 O1 1_555 1_555
C16 C17 1_555 1_555
C19 N1 1_555 1_555
C23 C24 1_555 1_555

#END
