
#######################################################################
#
#                 Cambridge Crystallographic Data Centre
#                                CCDC 
#
#######################################################################
#
# If this CIF has been generated from an entry in the Cambridge 
# Structural Database, then it will include bibliographic, chemical, 
# crystal, experimental, refinement or atomic coordinate data resulting 
# from the CCDC's data processing and validation procedures.
#
#######################################################################

data_TIRVIB
_chemical_formula_moiety         'C10 H10 N3 1+,C7 H3 N2 O6 1-,H2 O1'
_chemical_name_systematic        
'2-(pyridin-2-ylamino)pyridinium 3,4-dinitrobenzoate monohydrate'
_symmetry_cell_setting           triclinic
_symmetry_space_group_name_H-M   'P -1'
_symmetry_Int_Tables_number      2
_space_group_name_Hall           '-P 1'
loop_
_symmetry_equiv_pos_site_id
_symmetry_equiv_pos_as_xyz
1 x,y,z
2 -x,-y,-z
_cell_length_a                   7.322(8)
_cell_length_b                   11.223(12)
_cell_length_c                   12.265(13)
_cell_angle_alpha                92.998(14)
_cell_angle_beta                 107.030(13)
_cell_angle_gamma                104.631(14)
_cell_volume                     923.704
_exptl_crystal_colour            colorless
_exptl_crystal_description       rod
_cell_formula_units_Z            2
loop_
_atom_site_label
_atom_site_type_symbol
_atom_site_fract_x
_atom_site_fract_y
_atom_site_fract_z
N1 N 0.2146(6) -0.0530(4) 0.5574(5)
H1 H 0.1668 -0.1324 0.5500
C1 C 0.2517(7) 0.0074(5) 0.6695(5)
C2 C 0.2288(8) -0.0564(5) 0.7613(5)
H2 H 0.1848 -0.1428 0.7505
C3 C 0.2721(9) 0.0096(6) 0.8685(5)
H3 H 0.2592 -0.0306 0.9314
C4 C 0.3362(9) 0.1398(6) 0.8783(6)
H4 H 0.3658 0.1874 0.9489
C5 C 0.3553(8) 0.1965(5) 0.7863(6)
H5 H 0.4000 0.2829 0.7958
N2 N 0.3114(6) 0.1318(4) 0.6789(4)
H6 H 0.3217 0.1693 0.6207
C6 C 0.2395(7) -0.0103(5) 0.4593(5)
C7 C 0.2041(7) -0.0903(5) 0.3598(5)
H7 H 0.1584 -0.1759 0.3575
C8 C 0.2379(8) -0.0403(6) 0.2656(5)
H8 H 0.2158 -0.0920 0.1985
C9 C 0.3054(8) 0.0880(6) 0.2706(5)
H9 H 0.3270 0.1232 0.2069
C10 C 0.3396(8) 0.1622(5) 0.3722(5)
H10 H 0.3878 0.2479 0.3763
N3 N 0.3053(6) 0.1146(4) 0.4660(4)
C11 C 0.3709(7) 0.5017(4) 0.3051(4)
C12 C 0.2780(7) 0.4136(4) 0.2054(4)
H11 H 0.3519 0.3690 0.1794
C13 C 0.0773(7) 0.3925(4) 0.1453(4)
C14 C -0.0337(7) 0.4581(4) 0.1856(4)
C15 C 0.0532(7) 0.5445(4) 0.2832(4)
H12 H -0.0222 0.5875 0.3096
C16 C 0.2553(7) 0.5667(4) 0.3418(4)
H13 H 0.3147 0.6261 0.4068
C17 C 0.5871(7) 0.5212(5) 0.3734(4)
O1 O 0.6647(5) 0.4356(3) 0.3579(3)
O2 O 0.6743(5) 0.6215(3) 0.4416(3)
N4 N -0.0042(7) 0.3060(4) 0.0363(4)
O3 O 0.0517(6) 0.2120(4) 0.0322(3)
O4 O -0.1301(6) 0.3312(3) -0.0416(3)
N5 N -0.2495(7) 0.4287(5) 0.1305(4)
O5 O -0.3489(5) 0.3195(4) 0.1144(3)
O6 O -0.3217(6) 0.5159(4) 0.1092(3)
O7 O 0.0772(7) 0.6970(4) 0.5452(4)
H14 H 0.135(8) 0.649(4) 0.584(4)
H15 H -0.044(5) 0.670(4) 0.523(4)
loop_
_geom_bond_atom_site_label_1
_geom_bond_atom_site_label_2
_geom_bond_site_symmetry_1
_geom_bond_site_symmetry_2
N1 H1 1_555 1_555
C1 N1 1_555 1_555
C2 C1 1_555 1_555
H2 C2 1_555 1_555
C3 C2 1_555 1_555
H3 C3 1_555 1_555
C4 C3 1_555 1_555
H4 C4 1_555 1_555
C5 C4 1_555 1_555
H5 C5 1_555 1_555
N2 C1 1_555 1_555
H6 N2 1_555 1_555
C6 N1 1_555 1_555
C7 C6 1_555 1_555
H7 C7 1_555 1_555
C8 C7 1_555 1_555
H8 C8 1_555 1_555
C9 C8 1_555 1_555
H9 C9 1_555 1_555
C10 C9 1_555 1_555
H10 C10 1_555 1_555
N3 C6 1_555 1_555
C11 C12 1_555 1_555
C12 H11 1_555 1_555
C13 C12 1_555 1_555
C14 C13 1_555 1_555
C15 C14 1_555 1_555
H12 C15 1_555 1_555
C16 C11 1_555 1_555
H13 C16 1_555 1_555
C17 C11 1_555 1_555
O1 C17 1_555 1_555
O2 C17 1_555 1_555
N4 C13 1_555 1_555
O3 N4 1_555 1_555
O4 N4 1_555 1_555
N5 C14 1_555 1_555
O5 N5 1_555 1_555
O6 N5 1_555 1_555
O7 H14 1_555 1_555
H15 O7 1_555 1_555
C5 N2 1_555 1_555
C10 N3 1_555 1_555
C15 C16 1_555 1_555

#END
