
#######################################################################
#
#                 Cambridge Crystallographic Data Centre
#                                CCDC 
#
#######################################################################
#
# If this CIF has been generated from an entry in the Cambridge 
# Structural Database, then it will include bibliographic, chemical, 
# crystal, experimental, refinement or atomic coordinate data resulting 
# from the CCDC's data processing and validation procedures.
#
#######################################################################

data_TIRZEC
_chemical_formula_moiety         'C88 H84 N2 O4 S2'
_chemical_name_systematic        
"6,6'-[4,4,9,9-tetrakis(4-hexylphenyl)-4,9-dihydro-s-indaceno[1,2-b:5,6-b']bisthiophene 2,7-diyl]bis(1H-benzo[de]isoquinoline-1,3(2H)-dione)"
_symmetry_cell_setting           triclinic
_symmetry_space_group_name_H-M   'P -1'
_symmetry_Int_Tables_number      2
_space_group_name_Hall           '-P 1'
loop_
_symmetry_equiv_pos_site_id
_symmetry_equiv_pos_as_xyz
1 x,y,z
2 -x,-y,-z
_cell_length_a                   7.1299(11)
_cell_length_b                   14.6780(13)
_cell_length_c                   17.037(2)
_cell_angle_alpha                74.911(9)
_cell_angle_beta                 81.895(13)
_cell_angle_gamma                89.178(10)
_cell_volume                     1703.83
_exptl_crystal_colour            orange
_exptl_crystal_description       plate
_cell_formula_units_Z            1
loop_
_atom_site_label
_atom_site_type_symbol
_atom_site_fract_x
_atom_site_fract_y
_atom_site_fract_z
S1 S 0.4818(2) 0.32841(11) 1.03315(12)
O1 O 1.3694(6) 0.0840(3) 1.0296(3)
O2 O 1.2556(6) -0.0387(3) 0.8234(3)
N1 N 1.3010(7) 0.0224(4) 0.9280(4)
H1 H 1.400242 -0.011441 0.933522
C1 C 0.1104(8) 0.5019(4) 0.9235(4)
C2 C 0.1663(9) 0.4562(4) 0.9992(5)
C3 C 0.0658(8) 0.4540(4) 1.0743(5)
H2 H 0.112818 0.424207 1.122477
C4 C 0.8069(8) 0.1811(4) 0.9032(4)
C5 C 0.9749(8) 0.1275(4) 0.9120(4)
C6 C 0.2552(8) 0.4948(4) 0.8489(4)
C7 C 1.0924(8) 0.1366(4) 0.9692(4)
C8 C 1.0211(8) 0.0642(4) 0.8625(4)
C9 C 1.2651(9) 0.0807(4) 0.9790(4)
C10 C 0.7319(9) 0.0998(4) 0.8056(4)
H3 H 0.647969 0.088445 0.771902
C11 C 0.3642(8) 0.5900(4) 0.8128(4)
C12 C 1.0461(9) 0.1995(5) 1.0171(5)
H4 H 1.122071 0.204234 1.056090
C13 C 0.6875(9) 0.1637(4) 0.8505(4)
H5 H 0.575113 0.196254 0.845763
C14 C 0.3863(8) 0.4223(4) 0.8955(5)
C15 C 0.1664(8) 0.4646(4) 0.7838(4)
C16 C 0.9017(9) 0.0511(4) 0.8095(5)
H6 H 0.933708 0.010215 0.776428
C17 C 0.7693(8) 0.2481(4) 0.9511(4)
C18 C 0.6055(8) 0.3111(4) 0.9432(5)
C19 C 0.5390(8) 0.3657(4) 0.8759(4)
H7 H 0.588848 0.365880 0.822398
C20 C 0.3429(8) 0.4065(4) 0.9782(5)
C21 C 0.3756(9) 0.7615(4) 0.7764(4)
H8 H 0.311986 0.817840 0.773167
C22 C 0.1250(11) 0.5275(5) 0.7140(5)
H9 H 0.161135 0.590504 0.704431
C23 C 0.2768(8) 0.6769(4) 0.8061(4)
H10 H 0.146762 0.677628 0.822294
C24 C 1.1978(9) 0.0117(4) 0.8694(5)
C25 C 0.7421(9) 1.0607(5) 0.5201(5)
H11 H 0.610266 1.077981 0.520423
H12 H 0.771167 1.022527 0.481477
C26 C -0.0213(9) 0.4071(5) 0.6682(5)
C27 C -0.1319(10) 0.3783(5) 0.6097(5)
H13 H -0.144368 0.309980 0.624458
H14 H -0.062229 0.398235 0.554742
C28 C 0.7699(9) 1.0032(5) 0.6045(5)
H15 H 0.739095 1.041597 0.642822
H16 H 0.902763 0.987812 0.604055
C29 C 0.5595(9) 0.5936(5) 0.7841(4)
H17 H 0.623802 0.537511 0.786789
C30 C 0.6574(9) 0.6780(5) 0.7523(4)
H18 H 0.784812 0.677870 0.730875
C31 C 0.1167(9) 0.3697(5) 0.7944(5)
H19 H 0.144582 0.324050 0.840197
C32 C 0.8883(8) 0.2551(4) 1.0075(5)
H20 H 0.861330 0.297797 1.039231
C33 C 0.6787(9) 0.8564(5) 0.7208(5)
H21 H 0.639723 0.894728 0.758586
H22 H 0.812713 0.844630 0.721853
C34 C 0.6517(10) 0.9116(5) 0.6358(5)
H23 H 0.518834 0.926579 0.635358
H24 H 0.684487 0.872278 0.598329
C35 C 0.0259(9) 0.3443(5) 0.7364(5)
H25 H -0.004667 0.280882 0.744495
C36 C 0.5712(9) 0.7633(4) 0.7512(4)
C37 C 0.8379(11) 1.2096(6) 0.4072(5)
H26 H 0.856800 1.171669 0.368708
H27 H 0.927101 1.261726 0.390283
H28 H 0.711311 1.232932 0.409299
C38 C -0.5310(10) 0.2780(5) 0.6162(5)
H29 H -0.422216 0.238300 0.625859
H30 H -0.594509 0.282694 0.669192
C39 C -0.3303(11) 0.4204(5) 0.6096(6)
H31 H -0.388544 0.413082 0.665931
H32 H -0.317582 0.487517 0.583110
C40 C 0.8669(10) 1.1502(5) 0.4915(5)
H33 H 0.839312 1.187702 0.530791
H34 H 0.998734 1.132724 0.490495
C41 C -0.6635(11) 0.2311(6) 0.5775(6)
H35 H -0.598631 0.222639 0.525959
H36 H -0.770283 0.271486 0.565554
C42 C 0.0333(11) 0.5018(5) 0.6582(5)
H37 H 0.006080 0.547586 0.612382
C43 C -0.4615(11) 0.3755(6) 0.5659(6)
H38 H -0.569475 0.415470 0.555333
H39 H -0.394209 0.371174 0.513434
C44 C -0.7358(11) 0.1356(6) 0.6329(6)
H40 H -0.818217 0.107200 0.605554
H41 H -0.804273 0.144006 0.683104
H42 H -0.630397 0.095467 0.644861
S1A S -0.4818(2) 0.67159(11) 0.96685(12)
O1A O -1.3694(6) 0.9160(3) 0.9704(3)
O2A O -1.2556(6) 1.0387(3) 1.1766(3)
N1A N -1.3010(7) 0.9776(4) 1.0720(4)
H1A H -1.400242 1.011441 1.066478
C1A C -0.1104(8) 0.4981(4) 1.0765(4)
C2A C -0.1663(9) 0.5438(4) 1.0008(5)
C3A C -0.0658(8) 0.5460(4) 0.9257(5)
H2A H -0.112818 0.575793 0.877523
C4A C -0.8069(8) 0.8189(4) 1.0968(4)
C5A C -0.9749(8) 0.8725(4) 1.0880(4)
C6A C -0.2552(8) 0.5052(4) 1.1511(4)
C7A C -1.0924(8) 0.8634(4) 1.0308(4)
C8A C -1.0211(8) 0.9358(4) 1.1375(4)
C9A C -1.2651(9) 0.9193(4) 1.0210(4)
C10A C -0.7319(9) 0.9002(4) 1.1944(4)
H3A H -0.647969 0.911555 1.228098
C11A C -0.3642(8) 0.4100(4) 1.1872(4)
C12A C -1.0461(9) 0.8005(5) 0.9829(5)
H4A H -1.122071 0.795766 0.943910
C13A C -0.6875(9) 0.8363(4) 1.1495(4)
H5A H -0.575113 0.803746 1.154237
C14A C -0.3863(8) 0.5777(4) 1.1045(5)
C15A C -0.1664(8) 0.5354(4) 1.2162(4)
C16A C -0.9017(9) 0.9489(4) 1.1905(5)
H6A H -0.933708 0.989785 1.223572
C17A C -0.7693(8) 0.7519(4) 1.0489(4)
C18A C -0.6055(8) 0.6889(4) 1.0568(5)
C19A C -0.5390(8) 0.6343(4) 1.1241(4)
H7A H -0.588848 0.634120 1.177602
C20A C -0.3429(8) 0.5935(4) 1.0218(5)
C21A C -0.3756(9) 0.2385(4) 1.2236(4)
H8A H -0.311986 0.182160 1.226833
C22A C -0.1250(11) 0.4725(5) 1.2860(5)
H9A H -0.161135 0.409496 1.295569
C23A C -0.2768(8) 0.3231(4) 1.1939(4)
H10A H -0.146762 0.322372 1.177706
C24A C -1.1978(9) 0.9883(4) 1.1306(5)
C25A C -0.7421(9) -0.0607(5) 1.4799(5)
H11A H -0.610266 -0.077981 1.479577
H12A H -0.771167 -0.022527 1.518523
C26A C 0.0213(9) 0.5929(5) 1.3318(5)
C27A C 0.1319(10) 0.6217(5) 1.3903(5)
H13A H 0.144368 0.690020 1.375542
H14A H 0.062229 0.601765 1.445258
C28A C -0.7699(9) -0.0032(5) 1.3955(5)
H15A H -0.739095 -0.041597 1.357178
H16A H -0.902763 0.012188 1.395945
C29A C -0.5595(9) 0.4064(5) 1.2159(4)
H17A H -0.623802 0.462489 1.213211
C30A C -0.6574(9) 0.3220(5) 1.2477(4)
H18A H -0.784812 0.322130 1.269125
C31A C -0.1167(9) 0.6303(5) 1.2056(5)
H19A H -0.144582 0.675950 1.159803
C32A C -0.8883(8) 0.7449(4) 0.9925(5)
H20A H -0.861330 0.702203 0.960769
C33A C -0.6787(9) 0.1436(5) 1.2792(5)
H21A H -0.639723 0.105272 1.241414
H22A H -0.812713 0.155370 1.278147
C34A C -0.6517(10) 0.0884(5) 1.3642(5)
H23A H -0.518834 0.073421 1.364642
H24A H -0.684487 0.127722 1.401671
C35A C -0.0259(9) 0.6557(5) 1.2636(5)
H25A H 0.004667 0.719118 1.255505
C36A C -0.5712(9) 0.2367(4) 1.2488(4)
C37A C -0.8379(11) -0.2096(6) 1.5928(5)
H26A H -0.856800 -0.171669 1.631292
H27A H -0.927101 -0.261726 1.609717
H28A H -0.711311 -0.232932 1.590701
C38A C 0.5310(10) 0.7220(5) 1.3838(5)
H29A H 0.422216 0.761700 1.374141
H30A H 0.594509 0.717306 1.330808
C39A C 0.3303(11) 0.5796(5) 1.3904(6)
H31A H 0.388544 0.586918 1.334069
H32A H 0.317582 0.512483 1.416890
C40A C -0.8669(10) -0.1502(5) 1.5085(5)
H33A H -0.839312 -0.187702 1.469209
H34A H -0.998734 -0.132724 1.509505
C41A C 0.6635(11) 0.7689(6) 1.4225(6)
H35A H 0.598631 0.777361 1.474041
H36A H 0.770283 0.728514 1.434446
C42A C -0.0333(11) 0.4982(5) 1.3418(5)
H37A H -0.006080 0.452414 1.387618
C43A C 0.4615(11) 0.6245(6) 1.4341(6)
H38A H 0.569475 0.584530 1.444667
H39A H 0.394209 0.628826 1.486566
C44A C 0.7358(11) 0.8644(6) 1.3671(6)
H40A H 0.818217 0.892800 1.394446
H41A H 0.804273 0.855994 1.316896
H42A H 0.630397 0.904533 1.355139
loop_
_geom_bond_atom_site_label_1
_geom_bond_atom_site_label_2
_geom_bond_site_symmetry_1
_geom_bond_site_symmetry_2
S1 C18 1_555 1_555
O1 C9 1_555 1_555
O2 C24 1_555 1_555
N1 H1 1_555 1_555
C1 C2 1_555 1_555
C2 C3 1_555 1_555
C3 H2 1_555 1_555
C4 C5 1_555 1_555
C5 C7 1_555 1_555
C6 C1 1_555 1_555
C7 C9 1_555 1_555
C8 C5 1_555 1_555
C9 N1 1_555 1_555
C10 H3 1_555 1_555
C11 C6 1_555 1_555
C12 C7 1_555 1_555
H4 C12 1_555 1_555
C13 C4 1_555 1_555
H5 C13 1_555 1_555
C14 C6 1_555 1_555
C15 C6 1_555 1_555
C16 C8 1_555 1_555
H6 C16 1_555 1_555
C17 C4 1_555 1_555
C18 C17 1_555 1_555
C19 C14 1_555 1_555
H7 C19 1_555 1_555
C20 S1 1_555 1_555
C21 H8 1_555 1_555
C22 C15 1_555 1_555
H9 C22 1_555 1_555
C23 C11 1_555 1_555
H10 C23 1_555 1_555
C24 N1 1_555 1_555
C25 H11 1_555 1_555
H12 C25 1_555 1_555
C26 C27 1_555 1_555
C27 H13 1_555 1_555
H14 C27 1_555 1_555
C28 C25 1_555 1_555
H15 C28 1_555 1_555
H16 C28 1_555 1_555
C29 C11 1_555 1_555
H17 C29 1_555 1_555
C30 C29 1_555 1_555
H18 C30 1_555 1_555
C31 C15 1_555 1_555
H19 C31 1_555 1_555
C32 C12 1_555 1_555
H20 C32 1_555 1_555
C33 H21 1_555 1_555
H22 C33 1_555 1_555
C34 C28 1_555 1_555
H23 C34 1_555 1_555
H24 C34 1_555 1_555
C35 C26 1_555 1_555
H25 C35 1_555 1_555
C36 C21 1_555 1_555
C37 H26 1_555 1_555
H27 C37 1_555 1_555
H28 C37 1_555 1_555
C38 H29 1_555 1_555
H30 C38 1_555 1_555
C39 C27 1_555 1_555
H31 C39 1_555 1_555
H32 C39 1_555 1_555
C40 C25 1_555 1_555
H33 C40 1_555 1_555
H34 C40 1_555 1_555
C41 C38 1_555 1_555
H35 C41 1_555 1_555
H36 C41 1_555 1_555
C42 C22 1_555 1_555
H37 C42 1_555 1_555
C43 C38 1_555 1_555
H38 C43 1_555 1_555
H39 C43 1_555 1_555
C44 C41 1_555 1_555
H40 C44 1_555 1_555
H41 C44 1_555 1_555
H42 C44 1_555 1_555
S1A C18A 1_555 1_555
O1A C9A 1_555 1_555
O2A C24A 1_555 1_555
N1A H1A 1_555 1_555
C1A C3 1_555 1_555
C2A C1A 1_555 1_555
C3A C1 1_555 1_555
H2A C3A 1_555 1_555
C4A C5A 1_555 1_555
C5A C7A 1_555 1_555
C6A C1A 1_555 1_555
C7A C9A 1_555 1_555
C8A C5A 1_555 1_555
C9A N1A 1_555 1_555
C10A H3A 1_555 1_555
C11A C6A 1_555 1_555
C12A C7A 1_555 1_555
H4A C12A 1_555 1_555
C13A C4A 1_555 1_555
H5A C13A 1_555 1_555
C14A C6A 1_555 1_555
C15A C6A 1_555 1_555
C16A C8A 1_555 1_555
H6A C16A 1_555 1_555
C17A C4A 1_555 1_555
C18A C17A 1_555 1_555
C19A C14A 1_555 1_555
H7A C19A 1_555 1_555
C20A S1A 1_555 1_555
C21A H8A 1_555 1_555
C22A C15A 1_555 1_555
H9A C22A 1_555 1_555
C23A C11A 1_555 1_555
H10A C23A 1_555 1_555
C24A N1A 1_555 1_555
C25A H11A 1_555 1_555
H12A C25A 1_555 1_555
C26A C27A 1_555 1_555
C27A H13A 1_555 1_555
H14A C27A 1_555 1_555
C28A C25A 1_555 1_555
H15A C28A 1_555 1_555
H16A C28A 1_555 1_555
C29A C11A 1_555 1_555
H17A C29A 1_555 1_555
C30A C29A 1_555 1_555
H18A C30A 1_555 1_555
C31A C15A 1_555 1_555
H19A C31A 1_555 1_555
C32A C12A 1_555 1_555
H20A C32A 1_555 1_555
C33A H21A 1_555 1_555
H22A C33A 1_555 1_555
C34A C28A 1_555 1_555
H23A C34A 1_555 1_555
H24A C34A 1_555 1_555
C35A C26A 1_555 1_555
H25A C35A 1_555 1_555
C36A C21A 1_555 1_555
C37A H26A 1_555 1_555
H27A C37A 1_555 1_555
H28A C37A 1_555 1_555
C38A H29A 1_555 1_555
H30A C38A 1_555 1_555
C39A C27A 1_555 1_555
H31A C39A 1_555 1_555
H32A C39A 1_555 1_555
C40A C25A 1_555 1_555
H33A C40A 1_555 1_555
H34A C40A 1_555 1_555
C41A C38A 1_555 1_555
H35A C41A 1_555 1_555
H36A C41A 1_555 1_555
C42A C22A 1_555 1_555
H37A C42A 1_555 1_555
C43A C38A 1_555 1_555
H38A C43A 1_555 1_555
H39A C43A 1_555 1_555
C44A C41A 1_555 1_555
H40A C44A 1_555 1_555
H41A C44A 1_555 1_555
H42A C44A 1_555 1_555
C2 C20 1_555 1_555
C8 C24 1_555 1_555
C10 C13 1_555 1_555
C10 C16 1_555 1_555
C14 C20 1_555 1_555
C17 C32 1_555 1_555
C18 C19 1_555 1_555
C21 C23 1_555 1_555
C26 C42 1_555 1_555
C30 C36 1_555 1_555
C31 C35 1_555 1_555
C33 C34 1_555 1_555
C33 C36 1_555 1_555
C37 C40 1_555 1_555
C39 C43 1_555 1_555
C2A C3A 1_555 1_555
C2A C20A 1_555 1_555
C8A C24A 1_555 1_555
C10A C13A 1_555 1_555
C10A C16A 1_555 1_555
C14A C20A 1_555 1_555
C17A C32A 1_555 1_555
C18A C19A 1_555 1_555
C21A C23A 1_555 1_555
C26A C42A 1_555 1_555
C30A C36A 1_555 1_555
C31A C35A 1_555 1_555
C33A C34A 1_555 1_555
C33A C36A 1_555 1_555
C37A C40A 1_555 1_555
C39A C43A 1_555 1_555

#END
