
#######################################################################
#
#                 Cambridge Crystallographic Data Centre
#                                CCDC 
#
#######################################################################
#
# If this CIF has been generated from an entry in the Cambridge 
# Structural Database, then it will include bibliographic, chemical, 
# crystal, experimental, refinement or atomic coordinate data resulting 
# from the CCDC's data processing and validation procedures.
#
#######################################################################

data_TIRZAY
_chemical_formula_moiety         'C80 H80 N2 O4 S2'
_chemical_name_systematic        
"5,5'-[4,4,9,9-tetrakis(4-hexylphenyl)-4,9-dihydro-s-indaceno[1,2-b:5,6-b']bisthiophene 2,7-diyl]bis(1H-isoindole-1,3(2H)-dione)"
_symmetry_cell_setting           triclinic
_symmetry_space_group_name_H-M   'P -1'
_symmetry_Int_Tables_number      2
_space_group_name_Hall           '-P 1'
loop_
_symmetry_equiv_pos_site_id
_symmetry_equiv_pos_as_xyz
1 x,y,z
2 -x,-y,-z
_cell_length_a                   8.8009(8)
_cell_length_b                   12.3786(18)
_cell_length_c                   16.3465(19)
_cell_angle_alpha                102.889(12)
_cell_angle_beta                 95.068(9)
_cell_angle_gamma                108.260(11)
_cell_volume                     1624.29
_exptl_crystal_colour            yellow
_exptl_crystal_description       needle
_cell_formula_units_Z            1
loop_
_atom_site_label
_atom_site_type_symbol
_atom_site_fract_x
_atom_site_fract_y
_atom_site_fract_z
S1 S -0.20361(16) 0.64853(15) 0.32525(12)
O1 O -0.2791(5) 1.0048(4) 0.0018(3)
O2 O -0.6134(5) 0.8171(5) 0.1646(3)
N1 N -0.4753(6) 0.9217(5) 0.0770(4)
H1 H -0.5487 0.9484 0.0609
C1 C 0.3514(6) 0.7067(5) 0.4296(4)
C2 C 0.4655(7) 0.7587(6) 0.3818(5)
H2 H 0.4535 0.7244 0.3238
C3 C -0.0338(7) 0.8140(6) 0.1443(4)
H3 H 0.0690 0.8081 0.1440
C4 C 0.2065(6) 0.5944(5) 0.3845(4)
C5 C 0.1109(6) 0.5424(5) 0.4481(4)
C6 C 0.6173(6) 0.9153(6) 0.5068(5)
C7 C 0.2611(7) 0.5007(5) 0.3299(4)
C8 C 0.7641(7) 1.0228(6) 0.5501(5)
H4 H 0.7327 1.0749 0.5936
H5 H 0.8035 1.0650 0.5086
C9 C 0.0721(7) 0.6869(5) 0.2710(4)
H6 H 0.1563 0.7112 0.2413
C10 C 0.3703(6) 0.7638(6) 0.5144(4)
H7 H 0.2949 0.7326 0.5468
C11 C -0.3394(7) 0.8268(6) 0.1435(4)
C12 C -0.2367(7) 0.8831(6) 0.0939(4)
C13 C 0.1769(8) 0.4321(6) 0.2511(5)
H8 H 0.0877 0.4466 0.2273
C14 C 0.5945(7) 0.8601(6) 0.4207(5)
H9 H 0.6689 0.8927 0.3883
C15 C 0.4086(9) 0.2210(7) 0.1915(5)
H10 H 0.4586 0.1903 0.2319
H11 H 0.3138 0.1571 0.1574
C16 C -0.1331(6) 0.7588(5) 0.1974(4)
C17 C -0.0821(7) 0.8754(6) 0.0936(4)
H12 H -0.0136 0.9112 0.0599
C18 C 0.0798(6) 0.6304(5) 0.3368(4)
C19 C 0.9017(7) 0.9899(6) 0.5912(5)
H13 H 0.9270 0.9332 0.5482
H14 H 0.9980 1.0600 0.6107
C20 C 0.3959(6) 0.4784(6) 0.3638(4)
H15 H 0.4565 0.5250 0.4166
C21 C 0.4402(8) 0.3861(6) 0.3188(5)
H16 H 0.5291 0.3714 0.3427
C22 C -0.1566(6) 0.5098(5) 0.4914(4)
H17 H -0.2587 0.5173 0.4857
C23 C -0.3233(7) 0.9467(6) 0.0505(4)
C24 C 0.8613(8) 0.9378(7) 0.6662(5)
H18 H 0.8300 0.9925 0.7078
H19 H 0.7689 0.8652 0.6462
C25 C -0.4943(7) 0.8498(6) 0.1317(4)
C26 C 0.4989(7) 0.8665(6) 0.5520(5)
H20 H 0.5067 0.9041 0.6090
C27 C 0.7306(13) 0.4040(9) 0.0746(6)
H21 H 0.8416 0.4505 0.1020
H22 H 0.7323 0.3290 0.0417
C28 C 1.0004(8) 0.9124(6) 0.7092(5)
H23 H 0.9766 0.8990 0.7636
H24 H 1.0976 0.9814 0.7203
C29 C 1.0345(8) 0.8063(7) 0.6577(5)
H25 H 0.9367 0.7373 0.6448
H26 H 1.0633 0.8206 0.6042
C30 C 0.5258(13) 0.2602(8) 0.1346(7)
H27 H 0.5944 0.2122 0.1330
H28 H 0.4616 0.2358 0.0780
C31 C -0.2914(7) 0.7643(6) 0.1946(4)
H29 H -0.3620 0.7265 0.2267
C32 C -0.0474(6) 0.5507(5) 0.4395(4)
C33 C 0.3551(8) 0.3163(6) 0.2396(5)
C34 C 0.2225(8) 0.3411(7) 0.2062(5)
H30 H 0.1633 0.2960 0.1528
C35 C 1.1701(9) 0.7816(8) 0.7047(5)
H31 H 1.1733 0.7060 0.6757
H32 H 1.1516 0.7815 0.7617
H33 H 1.2718 0.8417 0.7066
C36 C -0.0598(6) 0.6043(5) 0.3711(4)
C37 C 0.6849(15) 0.4623(13) 0.0154(8)
H34 H 0.5782 0.4123 -0.0164
H35 H 0.6735 0.5343 0.0480
C38 C 0.783(2) 0.4917(15) -0.0424(10)
H36 H 0.8781 0.4709 -0.0324
H37 H 0.8150 0.5751 -0.0363
H38 H 0.7253 0.4499 -0.0990
C39 C -0.0766(6) 0.7014(6) 0.2566(4)
C40 C 0.635(2) 0.3793(11) 0.1441(10)
H39 H 0.7112 0.4021 0.1966
H40 H 0.5707 0.4309 0.1514
S1A S 0.20361(16) 0.35147(15) 0.67475(12)
O1A O 0.2791(5) -0.0048(4) 0.9982(3)
O2A O 0.6134(5) 0.1829(5) 0.8354(3)
N1A N 0.4753(6) 0.0783(5) 0.9230(4)
H1A H 0.5487 0.0516 0.9391
C1A C -0.3514(6) 0.2933(5) 0.5704(4)
C2A C -0.4655(7) 0.2413(6) 0.6182(5)
H2A H -0.4535 0.2756 0.6762
C3A C 0.0338(7) 0.1860(6) 0.8557(4)
H3A H -0.0690 0.1919 0.8560
C4A C -0.2065(6) 0.4056(5) 0.6155(4)
C5A C -0.1109(6) 0.4576(5) 0.5519(4)
C6A C -0.6173(6) 0.0847(6) 0.4932(5)
C7A C -0.2611(7) 0.4993(5) 0.6701(4)
C8A C -0.7641(7) -0.0228(6) 0.4499(5)
H4A H -0.7327 -0.0749 0.4064
H5A H -0.8035 -0.0650 0.4914
C9A C -0.0721(7) 0.3131(5) 0.7290(4)
H6A H -0.1563 0.2888 0.7587
C10A C -0.3703(6) 0.2362(6) 0.4856(4)
H7A H -0.2949 0.2674 0.4532
C11A C 0.3394(7) 0.1732(6) 0.8565(4)
C12A C 0.2367(7) 0.1169(6) 0.9061(4)
C13A C -0.1769(8) 0.5679(6) 0.7489(5)
H8A H -0.0877 0.5534 0.7727
C14A C -0.5945(7) 0.1399(6) 0.5793(5)
H9A H -0.6689 0.1073 0.6117
C15A C -0.4086(9) 0.7790(7) 0.8085(5)
H10A H -0.4586 0.8097 0.7681
H11A H -0.3138 0.8429 0.8426
C16A C 0.1331(6) 0.2412(5) 0.8026(4)
C17A C 0.0821(7) 0.1246(6) 0.9064(4)
H12A H 0.0136 0.0888 0.9401
C18A C -0.0798(6) 0.3696(5) 0.6632(4)
C19A C -0.9017(7) 0.0101(6) 0.4088(5)
H13A H -0.9270 0.0668 0.4518
H14A H -0.9980 -0.0600 0.3893
C20A C -0.3959(6) 0.5216(6) 0.6362(4)
H15A H -0.4565 0.4750 0.5834
C21A C -0.4402(8) 0.6139(6) 0.6812(5)
H16A H -0.5291 0.6286 0.6573
C22A C 0.1566(6) 0.4902(5) 0.5086(4)
H17A H 0.2587 0.4827 0.5143
C23A C 0.3233(7) 0.0533(6) 0.9495(4)
C24A C -0.8613(8) 0.0622(7) 0.3338(5)
H18A H -0.8300 0.0075 0.2922
H19A H -0.7689 0.1348 0.3538
C25A C 0.4943(7) 0.1502(6) 0.8683(4)
C26A C -0.4989(7) 0.1335(6) 0.4480(5)
H20A H -0.5067 0.0959 0.3910
C27A C -0.7306(13) 0.5960(9) 0.9254(6)
H21A H -0.8416 0.5495 0.8980
H22A H -0.7323 0.6710 0.9583
C28A C -1.0004(8) 0.0876(6) 0.2908(5)
H23A H -0.9766 0.1010 0.2364
H24A H -1.0976 0.0186 0.2797
C29A C -1.0345(8) 0.1937(7) 0.3423(5)
H25A H -0.9367 0.2627 0.3552
H26A H -1.0633 0.1794 0.3958
C30A C -0.5258(13) 0.7398(8) 0.8654(7)
H27A H -0.5944 0.7878 0.8670
H28A H -0.4616 0.7642 0.9220
C31A C 0.2914(7) 0.2357(6) 0.8054(4)
H29A H 0.3620 0.2735 0.7733
C32A C 0.0474(6) 0.4493(5) 0.5605(4)
C33A C -0.3551(8) 0.6837(6) 0.7604(5)
C34A C -0.2225(8) 0.6589(7) 0.7938(5)
H30A H -0.1633 0.7040 0.8472
C35A C -1.1701(9) 0.2184(8) 0.2953(5)
H31A H -1.1733 0.2940 0.3243
H32A H -1.1516 0.2185 0.2383
H33A H -1.2718 0.1583 0.2934
C36A C 0.0598(6) 0.3957(5) 0.6289(4)
C37A C -0.6849(15) 0.5377(13) 0.9846(8)
H34A H -0.5782 0.5877 1.0164
H35A H -0.6735 0.4657 0.9520
C38A C -0.783(2) 0.5083(15) 1.0424(10)
H36A H -0.8781 0.5291 1.0324
H37A H -0.8150 0.4249 1.0363
H38A H -0.7253 0.5501 1.0990
C39A C 0.0766(6) 0.2986(6) 0.7434(4)
C40A C -0.635(2) 0.6207(11) 0.8559(10)
H39A H -0.7112 0.5979 0.8034
H40A H -0.5707 0.5691 0.8486
loop_
_geom_bond_atom_site_label_1
_geom_bond_atom_site_label_2
_geom_bond_site_symmetry_1
_geom_bond_site_symmetry_2
S1 C36 1_555 1_555
O1 C23 1_555 1_555
O2 C25 1_555 1_555
N1 H1 1_555 1_555
C1 C2 1_555 1_555
C2 H2 1_555 1_555
C3 H3 1_555 1_555
C4 C1 1_555 1_555
C5 C4 1_555 1_555
C6 C8 1_555 1_555
C7 C4 1_555 1_555
C8 H4 1_555 1_555
H5 C8 1_555 1_555
C9 H6 1_555 1_555
C10 C1 1_555 1_555
H7 C10 1_555 1_555
C11 C12 1_555 1_555
C12 C17 1_555 1_555
C13 C7 1_555 1_555
H8 C13 1_555 1_555
C14 C2 1_555 1_555
H9 C14 1_555 1_555
C15 H10 1_555 1_555
H11 C15 1_555 1_555
C16 C3 1_555 1_555
C17 C3 1_555 1_555
H12 C17 1_555 1_555
C18 C4 1_555 1_555
C19 C8 1_555 1_555
H13 C19 1_555 1_555
H14 C19 1_555 1_555
C20 C7 1_555 1_555
H15 C20 1_555 1_555
C21 C20 1_555 1_555
H16 C21 1_555 1_555
C22 H17 1_555 1_555
C23 N1 1_555 1_555
C24 C19 1_555 1_555
H18 C24 1_555 1_555
H19 C24 1_555 1_555
C25 N1 1_555 1_555
C26 C6 1_555 1_555
H20 C26 1_555 1_555
C27 H21 1_555 1_555
H22 C27 1_555 1_555
C28 C24 1_555 1_555
H23 C28 1_555 1_555
H24 C28 1_555 1_555
C29 C28 1_555 1_555
H25 C29 1_555 1_555
H26 C29 1_555 1_555
C30 C15 1_555 1_555
H27 C30 1_555 1_555
H28 C30 1_555 1_555
C31 C11 1_555 1_555
H29 C31 1_555 1_555
C32 C5 1_555 1_555
C33 C15 1_555 1_555
C34 C13 1_555 1_555
H30 C34 1_555 1_555
C35 C29 1_555 1_555
H31 C35 1_555 1_555
H32 C35 1_555 1_555
H33 C35 1_555 1_555
C36 C18 1_555 1_555
C37 C27 1_555 1_555
H34 C37 1_555 1_555
H35 C37 1_555 1_555
C38 C37 1_555 1_555
H36 C38 1_555 1_555
H37 C38 1_555 1_555
H38 C38 1_555 1_555
C39 S1 1_555 1_555
C40 C27 1_555 1_555
H39 C40 1_555 1_555
H40 C40 1_555 1_555
S1A C36A 1_555 1_555
O1A C23A 1_555 1_555
O2A C25A 1_555 1_555
N1A H1A 1_555 1_555
C1A C2A 1_555 1_555
C2A H2A 1_555 1_555
C3A H3A 1_555 1_555
C4A C1A 1_555 1_555
C5A C22 1_555 1_555
C6A C8A 1_555 1_555
C7A C4A 1_555 1_555
C8A H4A 1_555 1_555
H5A C8A 1_555 1_555
C9A H6A 1_555 1_555
C10A C1A 1_555 1_555
H7A C10A 1_555 1_555
C11A C12A 1_555 1_555
C12A C17A 1_555 1_555
C13A C7A 1_555 1_555
H8A C13A 1_555 1_555
C14A C2A 1_555 1_555
H9A C14A 1_555 1_555
C15A H10A 1_555 1_555
H11A C15A 1_555 1_555
C16A C3A 1_555 1_555
C17A C3A 1_555 1_555
H12A C17A 1_555 1_555
C18A C4A 1_555 1_555
C19A C8A 1_555 1_555
H13A C19A 1_555 1_555
H14A C19A 1_555 1_555
C20A C7A 1_555 1_555
H15A C20A 1_555 1_555
C21A C20A 1_555 1_555
H16A C21A 1_555 1_555
C22A C5 1_555 1_555
H17A C22A 1_555 1_555
C23A N1A 1_555 1_555
C24A C19A 1_555 1_555
H18A C24A 1_555 1_555
H19A C24A 1_555 1_555
C25A N1A 1_555 1_555
C26A C6A 1_555 1_555
H20A C26A 1_555 1_555
C27A H21A 1_555 1_555
H22A C27A 1_555 1_555
C28A C24A 1_555 1_555
H23A C28A 1_555 1_555
H24A C28A 1_555 1_555
C29A C28A 1_555 1_555
H25A C29A 1_555 1_555
H26A C29A 1_555 1_555
C30A C15A 1_555 1_555
H27A C30A 1_555 1_555
H28A C30A 1_555 1_555
C31A C11A 1_555 1_555
H29A C31A 1_555 1_555
C32A C5A 1_555 1_555
C33A C15A 1_555 1_555
C34A C13A 1_555 1_555
H30A C34A 1_555 1_555
C35A C29A 1_555 1_555
H31A C35A 1_555 1_555
H32A C35A 1_555 1_555
H33A C35A 1_555 1_555
C36A C18A 1_555 1_555
C37A C27A 1_555 1_555
H34A C37A 1_555 1_555
H35A C37A 1_555 1_555
C38A C37A 1_555 1_555
H36A C38A 1_555 1_555
H37A C38A 1_555 1_555
H38A C38A 1_555 1_555
C39A S1A 1_555 1_555
C40A C27A 1_555 1_555
H39A C40A 1_555 1_555
H40A C40A 1_555 1_555
C6 C14 1_555 1_555
C9 C18 1_555 1_555
C9 C39 1_555 1_555
C10 C26 1_555 1_555
C11 C25 1_555 1_555
C12 C23 1_555 1_555
C16 C31 1_555 1_555
C16 C39 1_555 1_555
C21 C33 1_555 1_555
C22 C32 1_555 1_555
C30 C40 1_555 1_555
C32 C36 1_555 1_555
C33 C34 1_555 1_555
C4A C5A 1_555 1_555
C6A C14A 1_555 1_555
C9A C18A 1_555 1_555
C9A C39A 1_555 1_555
C10A C26A 1_555 1_555
C11A C25A 1_555 1_555
C12A C23A 1_555 1_555
C16A C31A 1_555 1_555
C16A C39A 1_555 1_555
C21A C33A 1_555 1_555
C22A C32A 1_555 1_555
C30A C40A 1_555 1_555
C32A C36A 1_555 1_555
C33A C34A 1_555 1_555

#END
