
#######################################################################
#
#                 Cambridge Crystallographic Data Centre
#                                CCDC 
#
#######################################################################
#
# If this CIF has been generated from an entry in the Cambridge 
# Structural Database, then it will include bibliographic, chemical, 
# crystal, experimental, refinement or atomic coordinate data resulting 
# from the CCDC's data processing and validation procedures.
#
#######################################################################

data_TIRZOM
_chemical_formula_moiety         'C92 H84 N2 O4 S4'
_chemical_name_systematic        
"6,6'-[6,6,12,12-tetrakis(4-hexylphenyl)-6,12-dihydrothieno[3,2-b]thieno[2'',3'':4',5']thieno[2',3':5,6]-s-indaceno[2,1-d]thiene-2,8-diyl]bis(1H-benzo[de]isoquinoline-1,3(2H)-dione) unknown solvate"
_symmetry_cell_setting           triclinic
_symmetry_space_group_name_H-M   'P -1'
_symmetry_Int_Tables_number      2
_space_group_name_Hall           '-P 1'
loop_
_symmetry_equiv_pos_site_id
_symmetry_equiv_pos_as_xyz
1 x,y,z
2 -x,-y,-z
_cell_length_a                   14.3142(10)
_cell_length_b                   16.7266(12)
_cell_length_c                   18.5616(11)
_cell_angle_alpha                105.723(6)
_cell_angle_beta                 109.469(6)
_cell_angle_gamma                90.336(6)
_cell_volume                     4010.56
_exptl_crystal_colour            yellow
_exptl_crystal_description       needle
_cell_formula_units_Z            2
loop_
_atom_site_label
_atom_site_type_symbol
_atom_site_fract_x
_atom_site_fract_y
_atom_site_fract_z
S1 S 0.22063(14) 0.79687(13) 0.34582(12)
S2 S 0.67319(14) 0.64118(13) 0.81527(12)
S3 S 0.78344(14) 0.70112(12) 0.65234(12)
S4 S 0.33123(14) 0.85706(13) 0.18369(12)
O1 O 0.0884(5) 1.1430(4) -0.1068(4)
O2 O 1.0470(5) 0.6261(4) 1.2087(4)
O3 O -0.0419(5) 0.8733(4) -0.2090(4)
O4 O 0.9057(5) 0.3587(4) 1.1121(4)
N1 N 0.0266(5) 1.0065(4) -0.1562(5)
H1 H -0.0018 1.0139 -0.2023
N2 N 0.9714(5) 0.4923(4) 1.1579(4)
H2 H 0.9980 0.4845 1.2040
C1 C 0.1699(5) 0.9678(5) 0.0697(5)
C2 C 0.5011(5) 0.7890(5) 0.3561(5)
C3 C 0.1596(5) 0.8463(5) 0.1969(5)
H3 H 0.0913 0.8454 0.1867
C4 C 0.5072(6) 0.7094(5) 0.2915(5)
C5 C 0.5951(6) 0.7520(5) 0.4881(5)
H4 H 0.6559 0.7536 0.4803
C6 C 0.5755(6) 0.8625(5) 0.3743(5)
C7 C 0.0945(6) 0.8255(5) 0.0127(5)
H5 H 0.0853 0.7727 0.0184
C8 C 0.4187(5) 0.7682(4) 0.4467(4)
C9 C 0.3930(5) 0.8053(5) 0.3310(5)
C10 C 0.6794(5) 0.6714(5) 0.7352(5)
C11 C 0.4992(6) 0.6317(5) 0.3022(5)
H6 H 0.4914 0.6265 0.3485
C12 C 0.2822(6) 0.5002(5) 0.5808(5)
C13 C 0.1536(6) 0.8855(5) 0.0764(5)
C14 C 0.7659(6) 0.4651(5) 0.8694(6)
H7 H 0.7348 0.4724 0.8192
C15 C 0.4918(6) 0.7304(4) 0.5656(4)
C16 C 0.5011(6) 0.7113(5) 0.6425(5)
C17 C 0.5056(6) 0.8698(5) 0.6982(5)
H8 H 0.5136 0.8761 0.6523
C18 C 0.3463(6) 0.7882(5) 0.3784(5)
C19 C 0.6091(6) 0.6924(5) 0.6699(4)
C20 C 0.8782(6) 0.5181(4) 1.0075(5)
C21 C 0.5857(6) 0.7315(5) 0.5547(5)
C22 C 0.2041(5) 0.8661(5) 0.1519(5)
C23 C 0.6564(6) 0.7083(4) 0.6215(4)
C24 C 0.3713(7) 0.4885(5) 0.5714(5)
H9 H 0.3845 0.4347 0.5497
C25 C 0.6697(7) 0.8537(6) 0.3662(6)
H10 H 0.6851 0.8008 0.3442
C26 C 0.1191(5) 0.9818(5) -0.0090(5)
C27 C 0.7392(6) 0.9211(6) 0.3899(6)
H11 H 0.8012 0.9129 0.3847
C28 C 0.5059(7) 0.9392(6) 0.7570(6)
H12 H 0.5134 0.9916 0.7500
C29 C 0.2309(7) 0.8259(5) 0.2657(5)
C30 C 0.2281(6) 1.0354(5) 0.1297(5)
H13 H 0.2586 1.0283 0.1799
C31 C 0.4450(6) 0.5558(5) 0.5935(5)
H14 H 0.5057 0.5465 0.5864
C32 C 0.0574(6) 0.9157(6) -0.0726(6)
C33 C 0.5094(6) 0.7698(5) 0.4351(5)
C34 C 0.4080(5) 0.7488(5) 0.5099(4)
H15 H 0.3462 0.7478 0.5162
C35 C 0.4255(5) 0.6356(4) 0.6259(4)
C36 C 0.3335(6) 0.6481(5) 0.6318(5)
H16 H 0.3176 0.7020 0.6494
C37 C 0.7775(5) 0.6768(4) 0.7349(5)
C38 C 0.5541(6) 0.9425(5) 0.4036(6)
H17 H 0.4912 0.9509 0.4066
C39 C 0.9443(6) 0.5834(5) 1.0713(5)
C40 C 0.2647(6) 0.5805(5) 0.6115(5)
H18 H 0.2041 0.5898 0.6189
C41 C 0.9932(6) 0.5717(6) 1.1519(6)
C42 C 0.1345(6) 1.0608(5) -0.0167(5)
C43 C 0.8608(6) 0.4391(5) 1.0193(5)
C44 C 0.8488(5) 0.6098(6) 0.9234(5)
C45 C 0.0828(6) 1.0743(6) -0.0971(5)
C46 C 0.0106(6) 0.9298(5) -0.1507(5)
C47 C 0.9616(7) 0.6598(5) 1.0598(5)
H19 H 1.0044 0.7028 1.1012
C48 C 0.7185(7) 1.0025(6) 0.4217(6)
C49 C 0.9106(7) 0.4246(6) 1.0966(6)
C50 C 0.4954(8) 0.9338(6) 0.8275(6)
C51 C 0.3275(7) 0.8269(5) 0.2631(5)
C52 C 0.8310(6) 0.5312(5) 0.9336(5)
C53 C 0.7502(6) 0.3904(5) 0.8836(6)
H20 H 0.7073 0.3471 0.8427
C54 C 0.7953(6) 1.0730(6) 0.4441(6)
H21 H 0.8601 1.0551 0.4674
H22 H 0.7848 1.1182 0.4852
C55 C 0.6247(7) 1.0107(6) 0.4286(6)
H23 H 0.6090 1.0635 0.4506
C56 C 0.4933(5) 0.7876(5) 0.7045(5)
C57 C 0.7982(7) 1.1070(6) 0.3767(5)
H24 H 0.7323 1.1217 0.3512
H25 H 0.8129 1.0628 0.3372
C58 C 0.8489(6) 0.6517(4) 0.7987(5)
H26 H 0.9164 0.6496 0.8064
C59 C 0.5029(7) 0.5618(6) 0.2440(5)
H27 H 0.4967 0.5098 0.2520
C60 C 0.8020(6) 0.6312(5) 0.8469(5)
C61 C 0.2442(7) 1.1119(5) 0.1206(6)
H28 H 0.2850 1.1548 0.1633
C62 C 0.0448(6) 0.8382(5) -0.0634(6)
H29 H 0.0047 0.7947 -0.1060
C63 C 0.4885(7) 0.7832(6) 0.7767(6)
H30 H 0.4853 0.7309 0.7847
C64 C 0.5217(8) 0.6440(7) 0.1654(6)
H31 H 0.5281 0.6491 0.1186
C65 C 0.5193(6) 0.7156(6) 0.2210(5)
H32 H 0.5255 0.7674 0.2125
C66 C 0.1979(7) 1.1248(6) 0.0450(6)
H33 H 0.2100 1.1758 0.0369
C67 C 0.8734(6) 1.1830(7) 0.4010(6)
H34 H 0.8565 1.2276 0.4389
H35 H 0.9385 1.1688 0.4290
C68 C 0.7980(6) 0.3784(6) 0.9589(6)
H36 H 0.7858 0.3274 0.9669
C69 C 0.8821(7) 1.2163(7) 0.3363(7)
H37 H 0.8184 1.2339 0.3098
H38 H 0.8968 1.1717 0.2970
C70 C 0.2038(7) 0.4240(6) 0.5540(6)
H39 H 0.2194 0.3783 0.5163
H40 H 0.1384 0.4387 0.5274
C71 C 0.1214(8) 0.3241(7) 0.5985(6)
H41 H 0.1336 0.2793 0.5579
H42 H 0.0577 0.3429 0.5740
C72 C 0.9139(7) 0.6709(6) 0.9855(6)
H43 H 0.9265 0.7218 0.9774
C73 C 0.9622(6) 1.2894(6) 0.3662(6)
H44 H 0.9506 1.3323 0.4085
H45 H 1.0267 1.2708 0.3885
C74 C 0.5156(8) 0.5655(6) 0.1727(6)
C75 C 0.3959(11) 1.0655(9) 0.8530(9)
H46 H 0.4026 1.0775 0.8066
H47 H 0.3327 1.0322 0.8365
C76 C 0.1155(7) 0.2897(6) 0.6661(6)
H48 H 0.1805 0.2745 0.6927
H49 H 0.0994 0.3338 0.7050
C77 C 0.2020(6) 0.3954(7) 0.6266(7)
H50 H 0.2661 0.3777 0.6518
H51 H 0.1893 0.4416 0.6656
C78 C 0.5231(10) 0.4859(8) 0.1149(7)
H52 H 0.5353 0.4997 0.0711
H53 H 0.4590 0.4526 0.0930
C79 C 0.4884(8) 0.8521(6) 0.8370(6)
H54 H 0.4838 0.8457 0.8840
C80 C 0.4894(12) 1.0131(7) 0.8919(7)
H55 H 0.5517 1.0489 0.9132
H56 H 0.4792 0.9972 0.9354
C81 C 0.0387(8) 0.1781(8) 0.7055(8)
H57 H -0.0078 0.1286 0.6829
H58 H 0.0188 0.2180 0.7441
H59 H 0.1040 0.1639 0.7310
C82 C 0.9637(8) 1.3262(7) 0.3010(7)
H60 H 0.9767 1.2843 0.2596
H61 H 1.0150 1.3721 0.3225
H62 H 0.9003 1.3456 0.2793
C83 C 0.0405(8) 0.2158(8) 0.6389(8)
H63 H 0.0542 0.1731 0.5976
H64 H -0.0250 0.2320 0.6151
C84 C 0.6044(7) 0.4309(7) 0.1478(7)
H65 H 0.6690 0.4635 0.1693
H66 H 0.5926 0.4163 0.1914
C85 C 0.6075(9) 0.3536(7) 0.0878(8)
H67 H 0.5406 0.3248 0.0621
H68 H 0.6262 0.3689 0.0473
C86 C 0.3146(14) 1.2812(11) 0.9307(11)
H69 H 0.3454 1.2943 0.9858
C87 C 0.6740(9) 0.2958(8) 0.1165(10)
H70 H 0.6576 0.2865 0.1605
H71 H 0.7401 0.3260 0.1398
C88 C 0.3263(10) 1.1990(10) 0.8833(11)
H72 H 0.2850 1.1801 0.8301
C89 C 0.6848(11) 0.2124(9) 0.0683(10)
H73 H 0.7250 0.2204 0.0373
H74 H 0.6192 0.1877 0.0308
C90 C 0.3993(16) 1.1443(11) 0.9144(11)
H75 H 0.4428 1.1578 0.9670
C91 C 0.2647(13) 1.3380(12) 0.9026(15)
H76 H 0.1983 1.3139 0.8685
H77 H 0.2974 1.3584 0.8726
H78 H 0.2617 1.3834 0.9461
C92 C 0.7315(12) 0.1480(10) 0.1129(12)
H79 H 0.7425 0.0999 0.0758
H80 H 0.6869 0.1315 0.1364
H81 H 0.7938 0.1729 0.1540
loop_
_geom_bond_atom_site_label_1
_geom_bond_atom_site_label_2
_geom_bond_site_symmetry_1
_geom_bond_site_symmetry_2
S1 C18 1_555 1_555
S2 C10 1_555 1_555
S3 C23 1_555 1_555
S4 C22 1_555 1_555
O1 C45 1_555 1_555
O2 C41 1_555 1_555
O3 C46 1_555 1_555
O4 C49 1_555 1_555
N1 H1 1_555 1_555
N2 H2 1_555 1_555
C1 C13 1_555 1_555
C2 C4 1_555 1_555
C3 H3 1_555 1_555
C4 C11 1_555 1_555
C5 H4 1_555 1_555
C6 C2 1_555 1_555
C7 H5 1_555 1_555
C8 C18 1_555 1_555
C9 C2 1_555 1_555
C10 C19 1_555 1_555
C11 H6 1_555 1_555
C12 C24 1_555 1_555
C13 C7 1_555 1_555
C14 H7 1_555 1_555
C15 C16 1_555 1_555
C16 C19 1_555 1_555
C17 H8 1_555 1_555
C18 C9 1_555 1_555
C19 C23 1_555 1_555
C20 C39 1_555 1_555
C21 C5 1_555 1_555
C22 C3 1_555 1_555
C23 C21 1_555 1_555
C24 H9 1_555 1_555
C25 C6 1_555 1_555
H10 C25 1_555 1_555
C26 C1 1_555 1_555
C27 C25 1_555 1_555
H11 C27 1_555 1_555
C28 C17 1_555 1_555
H12 C28 1_555 1_555
C29 S1 1_555 1_555
C30 C1 1_555 1_555
H13 C30 1_555 1_555
C31 C24 1_555 1_555
H14 C31 1_555 1_555
C32 C26 1_555 1_555
C33 C2 1_555 1_555
C34 C8 1_555 1_555
H15 C34 1_555 1_555
C35 C16 1_555 1_555
C36 C35 1_555 1_555
H16 C36 1_555 1_555
C37 S3 1_555 1_555
C38 C6 1_555 1_555
H17 C38 1_555 1_555
C39 C41 1_555 1_555
C40 C12 1_555 1_555
H18 C40 1_555 1_555
C41 N2 1_555 1_555
C42 C26 1_555 1_555
C43 C20 1_555 1_555
C44 C52 1_555 1_555
C45 N1 1_555 1_555
C46 N1 1_555 1_555
C47 C39 1_555 1_555
H19 C47 1_555 1_555
C48 C27 1_555 1_555
C49 N2 1_555 1_555
C50 C28 1_555 1_555
C51 S4 1_555 1_555
C52 C14 1_555 1_555
C53 C14 1_555 1_555
H20 C53 1_555 1_555
C54 C48 1_555 1_555
H21 C54 1_555 1_555
H22 C54 1_555 1_555
C55 C38 1_555 1_555
H23 C55 1_555 1_555
C56 C16 1_555 1_555
C57 C54 1_555 1_555
H24 C57 1_555 1_555
H25 C57 1_555 1_555
C58 C37 1_555 1_555
H26 C58 1_555 1_555
C59 C11 1_555 1_555
H27 C59 1_555 1_555
C60 S2 1_555 1_555
C61 C30 1_555 1_555
H28 C61 1_555 1_555
C62 C7 1_555 1_555
H29 C62 1_555 1_555
C63 C56 1_555 1_555
H30 C63 1_555 1_555
C64 H31 1_555 1_555
C65 C4 1_555 1_555
H32 C65 1_555 1_555
C66 C42 1_555 1_555
H33 C66 1_555 1_555
C67 C57 1_555 1_555
H34 C67 1_555 1_555
H35 C67 1_555 1_555
C68 C43 1_555 1_555
H36 C68 1_555 1_555
C69 C67 1_555 1_555
H37 C69 1_555 1_555
H38 C69 1_555 1_555
C70 C12 1_555 1_555
H39 C70 1_555 1_555
H40 C70 1_555 1_555
C71 H41 1_555 1_555
H42 C71 1_555 1_555
C72 C44 1_555 1_555
H43 C72 1_555 1_555
C73 C69 1_555 1_555
H44 C73 1_555 1_555
H45 C73 1_555 1_555
C74 C59 1_555 1_555
C75 H46 1_555 1_555
H47 C75 1_555 1_555
C76 C71 1_555 1_555
H48 C76 1_555 1_555
H49 C76 1_555 1_555
C77 C70 1_555 1_555
H50 C77 1_555 1_555
H51 C77 1_555 1_555
C78 C74 1_555 1_555
H52 C78 1_555 1_555
H53 C78 1_555 1_555
C79 C50 1_555 1_555
H54 C79 1_555 1_555
C80 C50 1_555 1_555
H55 C80 1_555 1_555
H56 C80 1_555 1_555
C81 H57 1_555 1_555
H58 C81 1_555 1_555
H59 C81 1_555 1_555
C82 C73 1_555 1_555
H60 C82 1_555 1_555
H61 C82 1_555 1_555
H62 C82 1_555 1_555
C83 C76 1_555 1_555
H63 C83 1_555 1_555
H64 C83 1_555 1_555
C84 C78 1_555 1_555
H65 C84 1_555 1_555
H66 C84 1_555 1_555
C85 C84 1_555 1_555
H67 C85 1_555 1_555
H68 C85 1_555 1_555
C86 H69 1_555 1_555
C87 C85 1_555 1_555
H70 C87 1_555 1_555
H71 C87 1_555 1_555
C88 C86 1_555 1_555
H72 C88 1_555 1_555
C89 C87 1_555 1_555
H73 C89 1_555 1_555
H74 C89 1_555 1_555
C90 C75 1_555 1_555
H75 C90 1_555 1_555
C91 C86 1_555 1_555
H76 C91 1_555 1_555
H77 C91 1_555 1_555
H78 C91 1_555 1_555
C92 C89 1_555 1_555
H79 C92 1_555 1_555
H80 C92 1_555 1_555
H81 C92 1_555 1_555
C3 C29 1_555 1_555
C5 C33 1_555 1_555
C8 C33 1_555 1_555
C9 C51 1_555 1_555
C10 C37 1_555 1_555
C13 C22 1_555 1_555
C15 C21 1_555 1_555
C15 C34 1_555 1_555
C17 C56 1_555 1_555
C20 C52 1_555 1_555
C29 C51 1_555 1_555
C31 C35 1_555 1_555
C32 C46 1_555 1_555
C32 C62 1_555 1_555
C36 C40 1_555 1_555
C42 C45 1_555 1_555
C43 C49 1_555 1_555
C44 C60 1_555 1_555
C47 C72 1_555 1_555
C48 C55 1_555 1_555
C53 C68 1_555 1_555
C58 C60 1_555 1_555
C61 C66 1_555 1_555
C63 C79 1_555 1_555
C64 C65 1_555 1_555
C64 C74 1_555 1_555
C71 C77 1_555 1_555
C75 C80 1_555 1_555
C81 C83 1_555 1_555
C88 C90 1_555 1_555

#END
