
#######################################################################
#
#                 Cambridge Crystallographic Data Centre
#                                CCDC 
#
#######################################################################
#
# If this CIF has been generated from an entry in the Cambridge 
# Structural Database, then it will include bibliographic, chemical, 
# crystal, experimental, refinement or atomic coordinate data resulting 
# from the CCDC's data processing and validation procedures.
#
#######################################################################

data_TISBOP01
_chemical_formula_moiety         'C22 H16 O3 S1'
_chemical_name_systematic        
3-[(4-methylphenyl)sulfonyl]-2-phenyl-1H-inden-1-one
_symmetry_cell_setting           orthorhombic
_symmetry_space_group_name_H-M   'P b c a'
_symmetry_Int_Tables_number      61
_space_group_name_Hall           '-P 2ac 2ab'
loop_
_symmetry_equiv_pos_site_id
_symmetry_equiv_pos_as_xyz
1 x,y,z
2 1/2-x,-y,1/2+z
3 -x,1/2+y,1/2-z
4 1/2+x,1/2-y,-z
5 -x,-y,-z
6 1/2+x,y,1/2-z
7 x,1/2-y,1/2+z
8 1/2-x,1/2+y,z
_cell_length_a                   9.10030(10)
_cell_length_b                   18.7035(2)
_cell_length_c                   20.7543(2)
_cell_angle_alpha                90
_cell_angle_beta                 90
_cell_angle_gamma                90
_cell_volume                     3532.54
_exptl_crystal_colour            colorless
_exptl_crystal_description       block
_cell_formula_units_Z            8
loop_
_atom_site_label
_atom_site_type_symbol
_atom_site_fract_x
_atom_site_fract_y
_atom_site_fract_z
S1 S 0.91660(4) 0.41385(2) 0.62158(2)
O1 O 0.50832(12) 0.37169(6) 0.45426(5)
O2 O 1.04028(11) 0.40092(7) 0.58033(5)
O3 O 0.91837(12) 0.47463(6) 0.66405(5)
C1 C 0.50386(15) 0.43472(7) 0.55666(6)
C2 C 0.61536(15) 0.44850(7) 0.60112(7)
C3 C 0.73344(15) 0.38880(7) 0.51613(6)
C4 C 0.56975(15) 0.39562(7) 0.50126(7)
C5 C 0.83343(16) 0.35026(7) 0.47275(6)
C6 C 0.88319(15) 0.33608(8) 0.66655(6)
C7 C 0.75514(15) 0.41931(7) 0.57442(6)
C8 C 0.81006(16) 0.34039(8) 0.72524(7)
H1 H 0.7823 0.3845 0.7419
C9 C 0.35965(16) 0.45323(8) 0.56835(7)
H2 H 0.2865 0.4437 0.5383
C10 C 0.92522(15) 0.27016(9) 0.64131(7)
H3 H 0.9729 0.2676 0.6017
C11 C 0.80106(18) 0.27975(8) 0.45615(7)
H4 H 0.7165 0.2580 0.4719
C12 C 0.89529(16) 0.20873(8) 0.67569(7)
H5 H 0.9249 0.1647 0.6594
C13 C 0.58261(17) 0.48194(8) 0.65886(7)
H6 H 0.6558 0.4917 0.6889
C14 C 0.77923(17) 0.27806(8) 0.75835(7)
H7 H 0.7294 0.2805 0.7974
C15 C 0.82128(17) 0.21171(8) 0.73440(7)
C16 C 0.43692(18) 0.50051(8) 0.67070(8)
H8 H 0.4131 0.5228 0.7094
C17 C 0.32691(17) 0.48673(8) 0.62660(7)
H9 H 0.2306 0.4998 0.6358
C18 C 0.95838(18) 0.38264(9) 0.44699(7)
H10 H 0.9794 0.4301 0.4567
C19 C 0.8956(2) 0.24208(9) 0.41592(8)
H11 H 0.8744 0.1949 0.4052
C20 C 1.0512(2) 0.34427(11) 0.40688(8)
H12 H 1.1347 0.3660 0.3901
C21 C 0.7848(2) 0.14411(9) 0.77010(9)
H13 H 0.7163 0.1164 0.7453
H14 H 0.7420 0.1559 0.8110
H15 H 0.8730 0.1169 0.7768
C22 C 1.0205(2) 0.27403(11) 0.39176(8)
H16 H 1.0838 0.2483 0.3653
loop_
_geom_bond_atom_site_label_1
_geom_bond_atom_site_label_2
_geom_bond_site_symmetry_1
_geom_bond_site_symmetry_2
S1 O2 1_555 1_555
O1 C4 1_555 1_555
O3 S1 1_555 1_555
C1 C2 1_555 1_555
C2 C7 1_555 1_555
C3 C4 1_555 1_555
C4 C1 1_555 1_555
C5 C3 1_555 1_555
C6 S1 1_555 1_555
C7 S1 1_555 1_555
C8 C6 1_555 1_555
H1 C8 1_555 1_555
C9 C1 1_555 1_555
H2 C9 1_555 1_555
C10 C6 1_555 1_555
H3 C10 1_555 1_555
C11 C5 1_555 1_555
H4 C11 1_555 1_555
C12 C10 1_555 1_555
H5 C12 1_555 1_555
C13 C2 1_555 1_555
H6 C13 1_555 1_555
C14 C8 1_555 1_555
H7 C14 1_555 1_555
C15 C12 1_555 1_555
C16 C13 1_555 1_555
H8 C16 1_555 1_555
C17 C9 1_555 1_555
H9 C17 1_555 1_555
C18 C5 1_555 1_555
H10 C18 1_555 1_555
C19 C11 1_555 1_555
H11 C19 1_555 1_555
C20 C18 1_555 1_555
H12 C20 1_555 1_555
C21 C15 1_555 1_555
H13 C21 1_555 1_555
H14 C21 1_555 1_555
H15 C21 1_555 1_555
C22 C19 1_555 1_555
H16 C22 1_555 1_555
C3 C7 1_555 1_555
C14 C15 1_555 1_555
C16 C17 1_555 1_555
C20 C22 1_555 1_555

#END
