
#######################################################################
#
#                 Cambridge Crystallographic Data Centre
#                                CCDC 
#
#######################################################################
#
# If this CIF has been generated from an entry in the Cambridge 
# Structural Database, then it will include bibliographic, chemical, 
# crystal, experimental, refinement or atomic coordinate data resulting 
# from the CCDC's data processing and validation procedures.
#
#######################################################################

data_TISBOP
_chemical_formula_moiety         'C22 H16 O3 S1'
_chemical_name_systematic        
3-[(4-methylphenyl)sulfonyl]-2-phenyl-1H-inden-1-one
_symmetry_cell_setting           orthorhombic
_symmetry_space_group_name_H-M   'P b c a'
_symmetry_Int_Tables_number      61
_space_group_name_Hall           '-P 2ac 2ab'
loop_
_symmetry_equiv_pos_site_id
_symmetry_equiv_pos_as_xyz
1 x,y,z
2 1/2-x,-y,1/2+z
3 1/2+x,1/2-y,-z
4 -x,1/2+y,1/2-z
5 -x,-y,-z
6 1/2+x,y,1/2-z
7 1/2-x,1/2+y,z
8 x,1/2-y,1/2+z
_cell_length_a                   9.1358(3)
_cell_length_b                   18.8753(7)
_cell_length_c                   20.9542(7)
_cell_angle_alpha                90
_cell_angle_beta                 90
_cell_angle_gamma                90
_cell_volume                     3613.36
_cell_formula_units_Z            8
loop_
_atom_site_label
_atom_site_type_symbol
_atom_site_fract_x
_atom_site_fract_y
_atom_site_fract_z
S1 S 0.58894(7) 0.58805(4) 0.62195(3)
O1 O 0.5877(2) 0.52840(10) 0.66416(9)
O2 O 0.46596(19) 0.60036(13) 0.58115(9)
O3 O 0.9941(2) 0.62702(10) 0.45528(8)
C1 C 0.7713(2) 0.61212(12) 0.51743(10)
C2 C 0.7497(2) 0.58252(12) 0.57514(10)
C3 C 0.8891(2) 0.55323(12) 0.60136(11)
C4 C 0.9217(3) 0.52063(14) 0.65842(12)
H1 H 0.849070 0.511442 0.688372
C5 C 1.0662(3) 0.50191(15) 0.66988(14)
H2 H 1.090141 0.480172 0.708315
C6 C 1.1749(3) 0.51459(14) 0.62605(14)
H3 H 1.270625 0.501117 0.634953
C7 C 1.1422(3) 0.54746(13) 0.56847(13)
H4 H 1.214914 0.556358 0.538453
C8 C 0.9991(2) 0.56647(12) 0.55714(11)
C9 C 0.9338(3) 0.60453(12) 0.50221(11)
C10 C 0.6716(3) 0.65027(13) 0.47406(10)
C11 C 0.7047(3) 0.71958(14) 0.45741(12)
H5 H 0.789058 0.741027 0.473036
C12 C 0.6114(4) 0.75668(17) 0.41735(15)
H6 H 0.632737 0.803338 0.406520
C13 C 0.4884(4) 0.7251(2) 0.39370(17)
H7 H 0.426148 0.750450 0.367026
C14 C 0.4562(4) 0.6565(2) 0.40899(15)
H8 H 0.372573 0.635180 0.392517
C15 C 0.5477(3) 0.61880(16) 0.44881(12)
H9 H 0.525968 0.571954 0.458767
C16 C 0.6214(2) 0.66529(14) 0.66606(11)
C17 C 0.5797(3) 0.73026(15) 0.64103(12)
H10 H 0.531962 0.732635 0.601881
C18 C 0.6094(3) 0.79103(16) 0.67465(13)
H11 H 0.580168 0.834505 0.658103
C19 C 0.6816(3) 0.78902(14) 0.73230(12)
C20 C 0.7230(3) 0.72377(15) 0.75627(12)
H12 H 0.772188 0.721686 0.795080
C21 C 0.6932(3) 0.66189(14) 0.72417(11)
H13 H 0.720833 0.618415 0.741238
C22 C 0.7178(4) 0.85601(17) 0.76758(16)
H14 H 0.755229 0.844456 0.809100
H15 H 0.631012 0.884273 0.771981
H16 H 0.790283 0.882139 0.744205
loop_
_geom_bond_atom_site_label_1
_geom_bond_atom_site_label_2
_geom_bond_site_symmetry_1
_geom_bond_site_symmetry_2
S1 O1 1_555 1_555
O2 S1 1_555 1_555
O3 C9 1_555 1_555
C1 C2 1_555 1_555
C2 S1 1_555 1_555
C3 C2 1_555 1_555
C4 C3 1_555 1_555
H1 C4 1_555 1_555
C5 C4 1_555 1_555
H2 C5 1_555 1_555
C6 C5 1_555 1_555
H3 C6 1_555 1_555
C7 C6 1_555 1_555
H4 C7 1_555 1_555
C8 C3 1_555 1_555
C9 C1 1_555 1_555
C10 C1 1_555 1_555
C11 C10 1_555 1_555
H5 C11 1_555 1_555
C12 C11 1_555 1_555
H6 C12 1_555 1_555
C13 C12 1_555 1_555
H7 C13 1_555 1_555
C14 C13 1_555 1_555
H8 C14 1_555 1_555
C15 C10 1_555 1_555
H9 C15 1_555 1_555
C16 S1 1_555 1_555
C17 C16 1_555 1_555
H10 C17 1_555 1_555
C18 C17 1_555 1_555
H11 C18 1_555 1_555
C19 C18 1_555 1_555
C20 C19 1_555 1_555
H12 C20 1_555 1_555
C21 C16 1_555 1_555
H13 C21 1_555 1_555
C22 C19 1_555 1_555
H14 C22 1_555 1_555
H15 C22 1_555 1_555
H16 C22 1_555 1_555
C7 C8 1_555 1_555
C8 C9 1_555 1_555
C14 C15 1_555 1_555
C20 C21 1_555 1_555

#END
