
#######################################################################
#
#                 Cambridge Crystallographic Data Centre
#                                CCDC 
#
#######################################################################
#
# If this CIF has been generated from an entry in the Cambridge 
# Structural Database, then it will include bibliographic, chemical, 
# crystal, experimental, refinement or atomic coordinate data resulting 
# from the CCDC's data processing and validation procedures.
#
#######################################################################

data_TISDOR
_chemical_formula_moiety         'C21 H20 Br1 N1 O5 S1'
_chemical_name_systematic        
'diethyl 1-(3-bromophenyl)-1H-[1,3]oxazolo[4,3-b][1,3]benzothiazole-3,3(3aH)-dicarboxylate'
_symmetry_cell_setting           monoclinic
_symmetry_space_group_name_H-M   'P 21/n'
_symmetry_Int_Tables_number      14
_space_group_name_Hall           '-P 2yn'
loop_
_symmetry_equiv_pos_site_id
_symmetry_equiv_pos_as_xyz
1 x,y,z
2 1/2-x,1/2+y,1/2-z
3 -x,-y,-z
4 1/2+x,1/2-y,1/2+z
_cell_length_a                   10.1759(2)
_cell_length_b                   7.35470(10)
_cell_length_c                   27.9979(5)
_cell_angle_alpha                90
_cell_angle_beta                 98.948(2)
_cell_angle_gamma                90
_cell_volume                     2069.88
_exptl_crystal_colour            'light colorless'
_exptl_crystal_description       'rectangular prism'
_cell_formula_units_Z            4
loop_
_atom_site_label
_atom_site_type_symbol
_atom_site_fract_x
_atom_site_fract_y
_atom_site_fract_z
Br1 Br 0.79040(6) 1.26328(7) 0.55226(2)
S1 S 0.59104(7) 0.30196(10) 0.34580(3)
O1 O 0.61446(18) 0.8259(3) 0.38098(6)
O2 O 0.3954(2) 0.9194(3) 0.32171(9)
O3 O 0.7670(2) 0.6896(4) 0.31861(8)
N1 N 0.6836(2) 0.5442(3) 0.41245(7)
O4 O 0.3335(2) 0.6277(4) 0.31610(11)
O5 O 0.5862(3) 0.6662(6) 0.26248(8)
C1 C 0.5611(2) 0.6963(4) 0.34621(9)
C2 C 0.7092(2) 0.7391(4) 0.41838(9)
H1 H 0.800437 0.766823 0.413534
C3 C 0.6844(2) 0.8114(4) 0.46670(9)
C4 C 0.7898(3) 0.4259(4) 0.40834(9)
C5 C 0.5681(2) 0.5162(4) 0.37538(9)
H2 H 0.488705 0.507241 0.391075
C6 C 0.4160(3) 0.7427(4) 0.32598(11)
C7 C 0.7432(3) 0.9737(4) 0.48420(10)
H3 H 0.800744 1.035866 0.467211
C8 C 0.7567(3) 0.2867(4) 0.37428(10)
C9 C 0.6385(3) 0.6846(4) 0.30345(10)
C10 C 0.7138(3) 1.0406(5) 0.52764(10)
C11 C 0.5997(3) 0.7211(4) 0.49278(11)
H4 H 0.561459 0.611534 0.481298
C12 C 0.9148(3) 0.4346(5) 0.43481(12)
H5 H 0.937074 0.526841 0.457349
C13 C 0.6288(3) 0.9536(5) 0.55330(10)
H6 H 0.610015 1.002383 0.582130
C14 C 0.8504(3) 0.1566(4) 0.36712(13)
H7 H 0.828883 0.064775 0.344397
C15 C 0.5713(4) 0.7920(5) 0.53571(12)
H8 H 0.513344 0.730972 0.552772
C16 C 0.9750(4) 0.1649(5) 0.39396(16)
H9 H 1.037876 0.077006 0.389677
C17 C 1.0083(3) 0.3026(6) 0.42733(17)
H10 H 1.093642 0.307306 0.444939
C18 C 0.2447(4) 1.1701(6) 0.31308(16)
H11 H 0.156118 1.208929 0.300364
H12 H 0.307376 1.234783 0.297088
H13 H 0.262538 1.194771 0.347142
C19 C 0.2572(4) 0.9752(6) 0.30492(17)
H14 H 0.233207 0.948284 0.270757
H15 H 0.197549 0.908647 0.322424
C20 C 0.8540(4) 0.6622(9) 0.28255(16)
H16 H 0.817008 0.569446 0.259711
H17 H 0.861328 0.774199 0.264875
C21 C 0.9839(5) 0.6065(12) 0.3065(2)
H18 H 1.040495 0.583653 0.282713
H19 H 0.975640 0.497700 0.324689
H20 H 1.021771 0.701303 0.327859
loop_
_geom_bond_atom_site_label_1
_geom_bond_atom_site_label_2
_geom_bond_site_symmetry_1
_geom_bond_site_symmetry_2
Br1 C10 1_555 1_555
S1 C5 1_555 1_555
O1 C1 1_555 1_555
O2 C6 1_555 1_555
O3 C9 1_555 1_555
N1 C2 1_555 1_555
O4 C6 1_555 1_555
O5 C9 1_555 1_555
C1 C5 1_555 1_555
C2 O1 1_555 1_555
H1 C2 1_555 1_555
C3 C2 1_555 1_555
C4 N1 1_555 1_555
C5 N1 1_555 1_555
H2 C5 1_555 1_555
C6 C1 1_555 1_555
C7 C3 1_555 1_555
H3 C7 1_555 1_555
C8 S1 1_555 1_555
C9 C1 1_555 1_555
C10 C7 1_555 1_555
C11 C3 1_555 1_555
H4 C11 1_555 1_555
C12 C4 1_555 1_555
H5 C12 1_555 1_555
C13 C10 1_555 1_555
H6 C13 1_555 1_555
C14 C8 1_555 1_555
H7 C14 1_555 1_555
C15 C11 1_555 1_555
H8 C15 1_555 1_555
C16 C14 1_555 1_555
H9 C16 1_555 1_555
C17 C12 1_555 1_555
H10 C17 1_555 1_555
C18 H11 1_555 1_555
H12 C18 1_555 1_555
H13 C18 1_555 1_555
C19 O2 1_555 1_555
H14 C19 1_555 1_555
H15 C19 1_555 1_555
C20 O3 1_555 1_555
H16 C20 1_555 1_555
H17 C20 1_555 1_555
C21 C20 1_555 1_555
H18 C21 1_555 1_555
H19 C21 1_555 1_555
H20 C21 1_555 1_555
C4 C8 1_555 1_555
C13 C15 1_555 1_555
C16 C17 1_555 1_555
C18 C19 1_555 1_555

#END
