
#######################################################################
#
#                 Cambridge Crystallographic Data Centre
#                                CCDC 
#
#######################################################################
#
# If this CIF has been generated from an entry in the Cambridge 
# Structural Database, then it will include bibliographic, chemical, 
# crystal, experimental, refinement or atomic coordinate data resulting 
# from the CCDC's data processing and validation procedures.
#
#######################################################################

data_TISDIL
_chemical_formula_moiety         'C28 H28 N2 O7 S1'
_chemical_name_systematic        
'diethyl 4-[(4-methylphenyl)sulfonyl]-1-phenyl-3a,4-dihydro-1H,3H-[1,3]oxazolo[3,4-a]benzimidazole-3,3-dicarboxylate'
_symmetry_cell_setting           monoclinic
_symmetry_space_group_name_H-M   'P 21/n'
_symmetry_Int_Tables_number      14
_space_group_name_Hall           '-P 2yn'
loop_
_symmetry_equiv_pos_site_id
_symmetry_equiv_pos_as_xyz
1 x,y,z
2 1/2-x,1/2+y,1/2-z
3 -x,-y,-z
4 1/2+x,1/2-y,1/2+z
_cell_length_a                   9.7030(3)
_cell_length_b                   21.4852(6)
_cell_length_c                   13.2621(3)
_cell_angle_alpha                90
_cell_angle_beta                 90.184(2)
_cell_angle_gamma                90
_cell_volume                     2764.75
_exptl_crystal_colour            'light colorless'
_exptl_crystal_description       prism
_cell_formula_units_Z            4
loop_
_atom_site_label
_atom_site_type_symbol
_atom_site_fract_x
_atom_site_fract_y
_atom_site_fract_z
S1 S 0.53787(10) 0.69221(4) 0.17685(7)
O1 O 0.5831(2) 0.50469(11) 0.39393(16)
N1 N 0.4144(3) 0.56398(13) 0.31802(18)
O2 O 0.6423(3) 0.66875(14) 0.1123(2)
N2 N 0.5512(3) 0.65148(13) 0.2831(2)
O3 O 0.8410(3) 0.61499(18) 0.3386(2)
O4 O 0.7370(3) 0.50722(16) 0.16787(19)
O5 O 0.5377(4) 0.75555(13) 0.2065(3)
O6 O 0.7364(4) 0.5917(2) 0.4841(2)
C1 C 0.5444(3) 0.58349(15) 0.2708(2)
H1 H 0.544977 0.572319 0.199196
C2 C 0.4400(3) 0.50284(15) 0.3588(2)
H2 H 0.378764 0.495452 0.416138
C3 C 0.3801(3) 0.61259(15) 0.3859(2)
C4 C 0.4206(3) 0.45232(16) 0.2820(2)
C5 C 0.6565(3) 0.54554(16) 0.3298(2)
O7 O 0.8347(4) 0.4736(2) 0.3103(2)
C6 C 0.4563(4) 0.66546(16) 0.3642(2)
C7 C 0.3768(4) 0.67220(18) 0.1273(2)
C8 C 0.3605(4) 0.46310(19) 0.1891(3)
H3 H 0.332805 0.503194 0.172011
C9 C 0.2840(4) 0.61340(19) 0.4621(3)
H4 H 0.232960 0.578106 0.477994
C10 C 0.7483(4) 0.5862(2) 0.3951(3)
C11 C 0.3664(4) 0.62390(19) 0.0581(3)
H5 H 0.445506 0.605364 0.032505
C12 C 0.7463(4) 0.5069(2) 0.2573(3)
C13 C 0.4388(5) 0.72009(19) 0.4161(3)
H6 H 0.490211 0.755319 0.400662
C14 C 0.4590(5) 0.39250(19) 0.3058(3)
H7 H 0.499371 0.384039 0.368004
C15 C 0.2660(4) 0.6688(2) 0.5145(3)
H8 H 0.200945 0.670537 0.565806
C16 C 0.1188(4) 0.6302(2) 0.0643(3)
C17 C 0.2384(4) 0.6036(2) 0.0277(3)
H9 H 0.232108 0.571205 -0.018520
C18 C 0.3407(5) 0.4148(2) 0.1208(3)
H10 H 0.301086 0.422646 0.058163
C19 C 0.3414(5) 0.7209(2) 0.4928(3)
H11 H 0.327308 0.757175 0.529615
C20 C 0.2584(5) 0.7006(2) 0.1626(3)
H12 H 0.264599 0.733804 0.207474
C21 C 0.3797(5) 0.3559(2) 0.1461(3)
H13 H 0.366610 0.323360 0.100765
C22 C 0.1318(5) 0.6795(3) 0.1311(4)
H14 H 0.052675 0.698800 0.155274
C23 C 0.4375(6) 0.3448(2) 0.2373(4)
H15 H 0.463244 0.304474 0.254349
C24 C -0.0205(5) 0.6071(3) 0.0316(5)
H16 H -0.048970 0.628827 -0.028190
H17 H -0.086041 0.614337 0.084356
H18 H -0.015417 0.563293 0.017701
C25 C 0.9270(7) 0.6608(5) 0.3889(5)
H19 H 1.011271 0.666493 0.350847
H20 H 0.951865 0.645614 0.455440
C26 C 0.9309(8) 0.4348(5) 0.2544(5)
H21 H 0.883012 0.398420 0.228642
H22 H 0.966619 0.457916 0.197448
C27 C 1.0394(7) 0.4159(4) 0.3159(7)
H23 H 1.106277 0.394045 0.276188
H24 H 1.005228 0.388980 0.367819
H25 H 1.081704 0.451812 0.346071
C28 C 0.8557(13) 0.7209(6) 0.3986(9)
H26 H 0.817892 0.732702 0.334389
H27 H 0.920016 0.752045 0.420701
H28 H 0.782771 0.717206 0.446923
loop_
_geom_bond_atom_site_label_1
_geom_bond_atom_site_label_2
_geom_bond_site_symmetry_1
_geom_bond_site_symmetry_2
S1 O2 1_555 1_555
O1 C2 1_555 1_555
N1 C1 1_555 1_555
N2 S1 1_555 1_555
O3 C10 1_555 1_555
O4 C12 1_555 1_555
O5 S1 1_555 1_555
O6 C10 1_555 1_555
C1 N2 1_555 1_555
H1 C1 1_555 1_555
C2 N1 1_555 1_555
H2 C2 1_555 1_555
C3 N1 1_555 1_555
C4 C2 1_555 1_555
C5 O1 1_555 1_555
O7 C12 1_555 1_555
C6 N2 1_555 1_555
C7 S1 1_555 1_555
C8 C4 1_555 1_555
H3 C8 1_555 1_555
C9 C3 1_555 1_555
H4 C9 1_555 1_555
C10 C5 1_555 1_555
C11 C7 1_555 1_555
H5 C11 1_555 1_555
C12 C5 1_555 1_555
C13 C6 1_555 1_555
H6 C13 1_555 1_555
C14 C4 1_555 1_555
H7 C14 1_555 1_555
C15 C9 1_555 1_555
H8 C15 1_555 1_555
C16 C17 1_555 1_555
C17 C11 1_555 1_555
H9 C17 1_555 1_555
C18 C8 1_555 1_555
H10 C18 1_555 1_555
C19 C13 1_555 1_555
H11 C19 1_555 1_555
C20 C7 1_555 1_555
H12 C20 1_555 1_555
C21 C18 1_555 1_555
H13 C21 1_555 1_555
C22 C16 1_555 1_555
H14 C22 1_555 1_555
C23 C14 1_555 1_555
H15 C23 1_555 1_555
C24 C16 1_555 1_555
H16 C24 1_555 1_555
H17 C24 1_555 1_555
H18 C24 1_555 1_555
C25 O3 1_555 1_555
H19 C25 1_555 1_555
H20 C25 1_555 1_555
C26 O7 1_555 1_555
H21 C26 1_555 1_555
H22 C26 1_555 1_555
C27 C26 1_555 1_555
H23 C27 1_555 1_555
H24 C27 1_555 1_555
H25 C27 1_555 1_555
C28 C25 1_555 1_555
H26 C28 1_555 1_555
H27 C28 1_555 1_555
H28 C28 1_555 1_555
C1 C5 1_555 1_555
C3 C6 1_555 1_555
C15 C19 1_555 1_555
C20 C22 1_555 1_555
C21 C23 1_555 1_555

#END
