
#######################################################################
#
#                 Cambridge Crystallographic Data Centre
#                                CCDC 
#
#######################################################################
#
# If this CIF has been generated from an entry in the Cambridge 
# Structural Database, then it will include bibliographic, chemical, 
# crystal, experimental, refinement or atomic coordinate data resulting 
# from the CCDC's data processing and validation procedures.
#
#######################################################################

data_TISDOQ
_chemical_formula_moiety         'C68 H100 Cl1 Li5 N8 O3 Si2,C4 H8 O1'
_chemical_name_systematic        
"bis(\m~4~-N,N'-(dimethylsilanediyl)bis(N'-cyclohexylbenzenecarboximidamide))-(\m~4~-chloro)-tris(tetrahydrofuran)-penta-lithium tetrahydrofuran solvate"
_symmetry_cell_setting           triclinic
_symmetry_space_group_name_H-M   'P -1'
_symmetry_Int_Tables_number      2
_space_group_name_Hall           '-P 1'
loop_
_symmetry_equiv_pos_site_id
_symmetry_equiv_pos_as_xyz
1 x,y,z
2 -x,-y,-z
_cell_length_a                   14.7172(8)
_cell_length_b                   15.9395(8)
_cell_length_c                   18.3343(10)
_cell_angle_alpha                115.1730(10)
_cell_angle_beta                 98.1710(10)
_cell_angle_gamma                99.4350(10)
_cell_volume                     3730.14
_exptl_crystal_colour            colorless
_exptl_crystal_description       Block
_cell_formula_units_Z            2
loop_
_atom_site_label
_atom_site_type_symbol
_atom_site_fract_x
_atom_site_fract_y
_atom_site_fract_z
Si1 Si 0.69728(5) 1.09585(5) 0.66123(5)
Si2 Si 0.70887(5) 0.69300(5) 0.68553(5)
Cl1 Cl 0.86821(5) 0.99452(5) 0.81000(5)
Li1 Li 0.8613(3) 1.1476(3) 0.8320(3)
Li2 Li 0.9143(3) 0.8627(3) 0.8138(3)
Li3 Li 0.6387(3) 0.8357(4) 0.6028(3)
Li4 Li 0.7113(3) 0.9998(3) 0.7526(3)
Li5 Li 0.8006(3) 0.8511(3) 0.6805(3)
N1 N 0.79711(18) 1.24403(17) 0.89991(15)
N2 N 0.72466(16) 1.13507(16) 0.76636(14)
N3 N 0.71147(16) 0.98038(16) 0.62951(14)
N4 N 0.77197(16) 0.85101(17) 0.56594(14)
N5 N 0.98783(16) 0.77847(17) 0.74697(15)
N6 N 0.82761(16) 0.74455(16) 0.70527(14)
N7 N 0.66383(15) 0.78912(16) 0.69185(14)
N8 N 0.60366(16) 0.91678(16) 0.76549(14)
C1 C 0.8103(2) 1.3325(2) 0.97548(19)
H1 H 0.7786 1.3769 0.9622
C2 C 0.9156(3) 1.3790(3) 1.0115(2)
H2 H 0.9423 1.3969 0.9719
H3 H 0.9478 1.3322 1.0186
C3 C 0.9356(3) 1.4680(3) 1.0947(2)
H4 H 1.0050 1.4938 1.1173
H5 H 0.9095 1.5177 1.0869
C4 C 0.8916(3) 1.4447(3) 1.1559(2)
H6 H 0.9223 1.3997 1.1680
H7 H 0.9025 1.5040 1.2085
C5 C 0.7864(3) 1.4002(3) 1.1214(2)
H8 H 0.7550 1.4473 1.1139
H9 H 0.7597 1.3831 1.1612
C6 C 0.7668(2) 1.3109(2) 1.0384(2)
H10 H 0.6975 1.2847 1.0161
H11 H 0.7934 1.2617 1.0469
C7 C 0.7380(2) 1.2227(2) 0.83013(17)
C8 C 0.6885(2) 1.2936(2) 0.81827(18)
C9 C 0.5902(2) 1.2747(2) 0.79874(19)
H12 H 0.5531 1.2175 0.7947
C10 C 0.5458(3) 1.3389(3) 0.7851(2)
H13 H 0.4785 1.3258 0.7726
C11 C 0.5988(3) 1.4218(3) 0.7895(2)
H14 H 0.5682 1.4651 0.7794
C12 C 0.6974(3) 1.4413(3) 0.8090(2)
H15 H 0.7343 1.4982 0.8124
C13 C 0.7414(3) 1.3776(2) 0.8234(2)
H16 H 0.8087 1.3915 0.8370
C14 C 0.7778(2) 1.1778(2) 0.63490(19)
H17 H 0.8438 1.1777 0.6527
H18 H 0.7698 1.2429 0.6635
H19 H 0.7617 1.1555 0.5748
C15 C 0.5727(2) 1.0882(2) 0.61391(19)
H20 H 0.5616 1.1524 0.6359
H21 H 0.5282 1.0473 0.6275
H22 H 0.5631 1.0608 0.5535
C16 C 0.75289(18) 0.93119(19) 0.57047(16)
C17 C 0.7728(2) 0.9657(2) 0.50793(17)
C18 C 0.6978(2) 0.9564(2) 0.44716(19)
H23 H 0.6351 0.9264 0.4441
C19 C 0.7144(3) 0.9907(3) 0.3912(2)
H24 H 0.6628 0.9836 0.3497
C20 C 0.8043(3) 1.0346(3) 0.3949(2)
H25 H 0.8148 1.0584 0.3565
C21 C 0.8799(3) 1.0443(3) 0.4549(2)
H26 H 0.9423 1.0752 0.4579
C22 C 0.8641(2) 1.0088(2) 0.51040(19)
H27 H 0.9162 1.0140 0.5505
C23 C 0.8070(2) 0.7909(2) 0.49517(18)
H28 H 0.8385 0.8323 0.4729
C24 C 0.8798(2) 0.7473(2) 0.5241(2)
H29 H 0.8512 0.7112 0.5511
H30 H 0.9343 0.7992 0.5656
C25 C 0.9150(3) 0.6802(3) 0.4517(2)
H31 H 0.9495 0.7176 0.4282
H32 H 0.9597 0.6506 0.4723
C26 C 0.8334(3) 0.6024(3) 0.3846(2)
H33 H 0.8030 0.5608 0.4064
H34 H 0.8578 0.5623 0.3373
C27 C 0.7603(3) 0.6449(3) 0.3546(2)
H35 H 0.7058 0.5926 0.3135
H36 H 0.7886 0.6801 0.3266
C28 C 0.7251(2) 0.7131(2) 0.4264(2)
H37 H 0.6818 0.7434 0.4053
H38 H 0.6889 0.6762 0.4494
C29 C 1.07874(19) 0.7532(2) 0.74863(18)
H39 H 1.0729 0.6933 0.7549
C30 C 1.1524(2) 0.8351(2) 0.8226(2)
H40 H 1.1347 0.8413 0.8744
H41 H 1.1516 0.8957 0.8198
C31 C 1.2532(2) 0.8212(3) 0.8262(2)
H42 H 1.2982 0.8790 0.8722
H43 H 1.2568 0.7662 0.8375
C32 C 1.2812(2) 0.8033(3) 0.7458(2)
H44 H 1.3443 0.7890 0.7482
H45 H 1.2860 0.8616 0.7382
C33 C 1.2096(2) 0.7204(3) 0.6729(2)
H46 H 1.2089 0.6609 0.6779
H47 H 1.2282 0.7119 0.6209
C34 C 1.1101(2) 0.7378(3) 0.6690(2)
H48 H 1.1098 0.7948 0.6601
H49 H 1.0646 0.6820 0.6213
C35 C 0.90690(19) 0.7134(2) 0.70987(17)
C36 C 0.90038(18) 0.6077(2) 0.67606(18)
C37 C 0.8981(2) 0.5644(2) 0.7273(2)
H50 H 0.9019 0.6021 0.7846
C38 C 0.8902(2) 0.4667(2) 0.6964(2)
H51 H 0.8880 0.4381 0.7325
C39 C 0.8857(2) 0.4110(2) 0.6137(2)
H52 H 0.8810 0.3443 0.5926
C40 C 0.8882(2) 0.4534(2) 0.5615(2)
H53 H 0.8852 0.4155 0.5044
C41 C 0.8951(2) 0.5505(2) 0.59225(19)
H54 H 0.8963 0.5786 0.5558
C42 C 0.6604(2) 0.5876(2) 0.5803(2)
H55 H 0.6943 0.5381 0.5750
H56 H 0.6689 0.6079 0.5376
H57 H 0.5928 0.5619 0.5731
C43 C 0.6884(2) 0.6475(2) 0.7622(2)
H58 H 0.7094 0.7008 0.8185
H59 H 0.7243 0.5995 0.7572
H60 H 0.6206 0.6183 0.7510
C44 C 0.60362(18) 0.82625(19) 0.73883(16)
C45 C 0.53423(18) 0.75733(19) 0.75357(17)
C46 C 0.47590(19) 0.6764(2) 0.68461(18)
H61 H 0.4775 0.6688 0.6306
C47 C 0.4154(2) 0.6068(2) 0.6937(2)
H62 H 0.3757 0.5522 0.6462
C48 C 0.4131(2) 0.6171(2) 0.7724(2)
H63 H 0.3726 0.5690 0.7788
C49 C 0.4698(2) 0.6978(2) 0.8417(2)
H64 H 0.4679 0.7052 0.8956
C50 C 0.5297(2) 0.7678(2) 0.83229(18)
H65 H 0.5678 0.8233 0.8800
C51 C 0.53945(19) 0.96062(19) 0.81611(17)
H66 H 0.4915 0.9095 0.8177
C52 C 0.4890(2) 1.0143(2) 0.77841(17)
H67 H 0.4482 0.9677 0.7231
H68 H 0.5370 1.0590 0.7705
C53 C 0.4281(2) 1.0707(2) 0.83208(19)
H69 H 0.4005 1.1072 0.8064
H70 H 0.3752 1.0256 0.8346
C54 C 0.4861(2) 1.1393(2) 0.91924(19)
H71 H 0.4442 1.1715 0.9537
H72 H 0.5345 1.1891 0.9175
C55 C 0.5346(2) 1.0853(2) 0.95790(19)
H73 H 0.5744 1.1313 1.0138
H74 H 0.4859 1.0397 0.9642
C56 C 0.5962(2) 1.0309(2) 0.90428(18)
H75 H 0.6254 0.9954 0.9301
H76 H 0.6480 1.0773 0.9020
C57 C 1.0106(3) 1.2827(3) 0.8160(2)
H77 H 1.0530 1.3198 0.8723
H78 H 0.9584 1.3138 0.8123
C58 C 1.0644(3) 1.2779(3) 0.7520(3)
H79 H 1.0253 1.2826 0.7059
H80 H 1.1231 1.3303 0.7764
C59 C 1.0869(3) 1.1843(3) 0.7227(3)
H81 H 1.0766 1.1530 0.6615
H82 H 1.1541 1.1922 0.7472
C60 C 1.0245(3) 1.1256(3) 0.7482(3)
H83 H 0.9798 1.0709 0.6990
H84 H 1.0623 1.1002 0.7794
C61 C 0.4825(2) 0.6847(2) 0.4494(2)
H85 H 0.4954 0.6315 0.4603
H86 H 0.5146 0.6868 0.4061
C62 C 0.3769(2) 0.6707(2) 0.4218(2)
H87 H 0.3627 0.7014 0.3860
H88 H 0.3433 0.6020 0.3919
C63 C 0.3511(2) 0.7203(3) 0.5038(2)
H89 H 0.2917 0.7405 0.4966
H90 H 0.3438 0.6783 0.5308
C64 C 0.4348(2) 0.8057(3) 0.5530(2)
H91 H 0.4255 0.8603 0.5428
H92 H 0.4437 0.8257 0.6131
O1 O 0.97358(17) 1.18611(16) 0.79969(16)
C65 C 0.8606(8) 0.9223(7) 0.9754(6)
H93 H 0.7956 0.9114 0.9441
H94 H 0.8899 0.9921 1.0042
C66 C 0.8565(9) 0.8859(7) 1.0370(7)
H95 H 0.7906 0.8685 1.0416
H96 H 0.8962 0.9339 1.0924
C67 C 0.8962(5) 0.7965(6) 1.0015(5)
H97 H 0.9276 0.7844 1.0462
H98 H 0.8455 0.7390 0.9619
C68 C 0.9674(7) 0.8243(6) 0.9578(5)
H99 H 0.9795 0.7675 0.9135
H100 H 1.0282 0.8667 0.9972
O2 O 0.9115(2) 0.87765(19) 0.92260(16)
O3 O 0.51583(15) 0.77449(15) 0.52448(13)
C73 C 0.6936(11) 0.7155(7) 0.0705(8)
H109 H 0.6715 0.7702 0.0688
H110 H 0.7633 0.7337 0.0913
C74 C 0.6410(10) 0.6731(10) 0.1185(9)
H111 H 0.6551 0.7182 0.1783
H112 H 0.5716 0.6516 0.0951
C75 C 0.6849(15) 0.5922(7) 0.1023(6)
H113 H 0.7520 0.6136 0.1333
H114 H 0.6493 0.5437 0.1149
C76 C 0.6763(15) 0.5592(8) 0.0178(6)
H115 H 0.6229 0.5013 -0.0127
H116 H 0.7349 0.5407 0.0037
O4 O 0.6603(11) 0.6285(6) -0.0086(6)
C69? C 0.8191(10) 0.9186(10) 0.9500(8)
H101? H 0.8365 0.9895 0.9796
H102? H 0.7666 0.8968 0.9007
C70? C 0.7906(9) 0.8770(9) 1.0071(7)
H103? H 0.7709 0.9240 1.0540
H104? H 0.7384 0.8181 0.9764
C71? C 0.8808(11) 0.8553(14) 1.0370(10)
H105? H 0.9212 0.9118 1.0875
H106? H 0.8662 0.8009 1.0498
C72? C 0.9285(12) 0.8310(11) 0.9684(9)
H107? H 0.9977 0.8469 0.9913
H108? H 0.9072 0.7611 0.9317
loop_
_geom_bond_atom_site_label_1
_geom_bond_atom_site_label_2
_geom_bond_site_symmetry_1
_geom_bond_site_symmetry_2
Si1 N2 1_555 1_555
Si2 N6 1_555 1_555
Cl1 Li1 1_555 1_555
Li1 N1 1_555 1_555
Li2 Cl1 1_555 1_555
Li3 N3 1_555 1_555
Li4 Cl1 1_555 1_555
Li5 Cl1 1_555 1_555
N1 C1 1_555 1_555
N2 Li1 1_555 1_555
N3 Si1 1_555 1_555
N4 Li3 1_555 1_555
N5 Li2 1_555 1_555
N6 Li2 1_555 1_555
N7 Si2 1_555 1_555
N8 Li4 1_555 1_555
C1 H1 1_555 1_555
C2 C1 1_555 1_555
H2 C2 1_555 1_555
H3 C2 1_555 1_555
C3 C2 1_555 1_555
H4 C3 1_555 1_555
H5 C3 1_555 1_555
C4 C3 1_555 1_555
H6 C4 1_555 1_555
H7 C4 1_555 1_555
C5 C4 1_555 1_555
H8 C5 1_555 1_555
H9 C5 1_555 1_555
C6 C1 1_555 1_555
H10 C6 1_555 1_555
H11 C6 1_555 1_555
C7 N1 1_555 1_555
C8 C7 1_555 1_555
C9 C8 1_555 1_555
H12 C9 1_555 1_555
C10 C9 1_555 1_555
H13 C10 1_555 1_555
C11 C10 1_555 1_555
H14 C11 1_555 1_555
C12 C11 1_555 1_555
H15 C12 1_555 1_555
C13 C8 1_555 1_555
H16 C13 1_555 1_555
C14 Si1 1_555 1_555
H17 C14 1_555 1_555
H18 C14 1_555 1_555
H19 C14 1_555 1_555
C15 Si1 1_555 1_555
H20 C15 1_555 1_555
H21 C15 1_555 1_555
H22 C15 1_555 1_555
C16 N3 1_555 1_555
C17 C16 1_555 1_555
C18 C17 1_555 1_555
H23 C18 1_555 1_555
C19 C18 1_555 1_555
H24 C19 1_555 1_555
C20 C19 1_555 1_555
H25 C20 1_555 1_555
C21 C20 1_555 1_555
H26 C21 1_555 1_555
C22 C17 1_555 1_555
H27 C22 1_555 1_555
C23 N4 1_555 1_555
H28 C23 1_555 1_555
C24 C23 1_555 1_555
H29 C24 1_555 1_555
H30 C24 1_555 1_555
C25 C24 1_555 1_555
H31 C25 1_555 1_555
H32 C25 1_555 1_555
C26 C25 1_555 1_555
H33 C26 1_555 1_555
H34 C26 1_555 1_555
C27 C26 1_555 1_555
H35 C27 1_555 1_555
H36 C27 1_555 1_555
C28 C23 1_555 1_555
H37 C28 1_555 1_555
H38 C28 1_555 1_555
C29 N5 1_555 1_555
H39 C29 1_555 1_555
C30 C29 1_555 1_555
H40 C30 1_555 1_555
H41 C30 1_555 1_555
C31 C30 1_555 1_555
H42 C31 1_555 1_555
H43 C31 1_555 1_555
C32 C31 1_555 1_555
H44 C32 1_555 1_555
H45 C32 1_555 1_555
C33 C32 1_555 1_555
H46 C33 1_555 1_555
H47 C33 1_555 1_555
C34 C29 1_555 1_555
H48 C34 1_555 1_555
H49 C34 1_555 1_555
C35 N5 1_555 1_555
C36 C35 1_555 1_555
C37 C36 1_555 1_555
H50 C37 1_555 1_555
C38 C37 1_555 1_555
H51 C38 1_555 1_555
C39 C38 1_555 1_555
H52 C39 1_555 1_555
C40 C39 1_555 1_555
H53 C40 1_555 1_555
C41 C36 1_555 1_555
H54 C41 1_555 1_555
C42 Si2 1_555 1_555
H55 C42 1_555 1_555
H56 C42 1_555 1_555
H57 C42 1_555 1_555
C43 Si2 1_555 1_555
H58 C43 1_555 1_555
H59 C43 1_555 1_555
H60 C43 1_555 1_555
C44 N7 1_555 1_555
C45 C44 1_555 1_555
C46 C45 1_555 1_555
H61 C46 1_555 1_555
C47 C46 1_555 1_555
H62 C47 1_555 1_555
C48 C47 1_555 1_555
H63 C48 1_555 1_555
C49 C48 1_555 1_555
H64 C49 1_555 1_555
C50 C45 1_555 1_555
H65 C50 1_555 1_555
C51 N8 1_555 1_555
H66 C51 1_555 1_555
C52 C51 1_555 1_555
H67 C52 1_555 1_555
H68 C52 1_555 1_555
C53 C52 1_555 1_555
H69 C53 1_555 1_555
H70 C53 1_555 1_555
C54 C53 1_555 1_555
H71 C54 1_555 1_555
H72 C54 1_555 1_555
C55 C54 1_555 1_555
H73 C55 1_555 1_555
H74 C55 1_555 1_555
C56 C51 1_555 1_555
H75 C56 1_555 1_555
H76 C56 1_555 1_555
C57 H77 1_555 1_555
H78 C57 1_555 1_555
C58 C57 1_555 1_555
H79 C58 1_555 1_555
H80 C58 1_555 1_555
C59 C58 1_555 1_555
H81 C59 1_555 1_555
H82 C59 1_555 1_555
C60 C59 1_555 1_555
H83 C60 1_555 1_555
H84 C60 1_555 1_555
C61 H85 1_555 1_555
H86 C61 1_555 1_555
C62 C61 1_555 1_555
H87 C62 1_555 1_555
H88 C62 1_555 1_555
C63 C62 1_555 1_555
H89 C63 1_555 1_555
H90 C63 1_555 1_555
C64 C63 1_555 1_555
H91 C64 1_555 1_555
H92 C64 1_555 1_555
O1 Li1 1_555 1_555
C65 H93 1_555 1_555
H94 C65 1_555 1_555
C66 C65 1_555 1_555
H95 C66 1_555 1_555
H96 C66 1_555 1_555
C67 C66 1_555 1_555
H97 C67 1_555 1_555
H98 C67 1_555 1_555
C68 C67 1_555 1_555
H99 C68 1_555 1_555
H100 C68 1_555 1_555
O2 Li2 1_555 1_555
O3 Li3 1_555 1_555
C73 H109 1_555 1_555
H110 C73 1_555 1_555
C74 C73 1_555 1_555
H111 C74 1_555 1_555
H112 C74 1_555 1_555
C75 C74 1_555 1_555
H113 C75 1_555 1_555
H114 C75 1_555 1_555
C76 C75 1_555 1_555
H115 C76 1_555 1_555
H116 C76 1_555 1_555
O4 C73 1_555 1_555
Li3 N7 1_555 1_555
Li4 N2 1_555 1_555
Li4 N3 1_555 1_555
Li5 N4 1_555 1_555
Li5 N6 1_555 1_555
Li5 N7 1_555 1_555
N2 C7 1_555 1_555
N4 C16 1_555 1_555
N6 C35 1_555 1_555
N8 C44 1_555 1_555
C5 C6 1_555 1_555
C12 C13 1_555 1_555
C21 C22 1_555 1_555
C27 C28 1_555 1_555
C33 C34 1_555 1_555
C40 C41 1_555 1_555
C49 C50 1_555 1_555
C55 C56 1_555 1_555
C57 O1 1_555 1_555
C60 O1 1_555 1_555
C61 O3 1_555 1_555
C64 O3 1_555 1_555
C65 O2 1_555 1_555
C68 O2 1_555 1_555
C76 O4 1_555 1_555

#END
