
#######################################################################
#
#                 Cambridge Crystallographic Data Centre
#                                CCDC 
#
#######################################################################
#
# If this CIF has been generated from an entry in the Cambridge 
# Structural Database, then it will include bibliographic, chemical, 
# crystal, experimental, refinement or atomic coordinate data resulting 
# from the CCDC's data processing and validation procedures.
#
#######################################################################

data_TISJUB01
_chemical_formula_moiety         'C6 H4 N2 O5'
_chemical_name_systematic        2-Carboxy-4-nitropyridine-1-oxide
_symmetry_cell_setting           orthorhombic
_symmetry_space_group_name_H-M   'P 21 21 21'
_symmetry_Int_Tables_number      19
_space_group_name_Hall           'P 2ac 2ab'
loop_
_symmetry_equiv_pos_site_id
_symmetry_equiv_pos_as_xyz
1 x,y,z
2 1/2-x,-y,1/2+z
3 -x,1/2+y,1/2-z
4 1/2+x,1/2-y,-z
_cell_length_a                   5.5509(3)
_cell_length_b                   9.8139(7)
_cell_length_c                   13.2554(3)
_cell_angle_alpha                90
_cell_angle_beta                 90
_cell_angle_gamma                90
_cell_volume                     722.101
_exptl_crystal_colour            colorless
_exptl_crystal_description       needle
_chemical_melting_point          '155.5-156.5 deg.C'
_cell_formula_units_Z            4
loop_
_atom_site_label
_atom_site_type_symbol
_atom_site_fract_x
_atom_site_fract_y
_atom_site_fract_z
C1 C 0.1347(6) 0.6230(3) 0.6408(2)
C2 C 0.3218(6) 0.6939(3) 0.6812(2)
H1 H 0.4364 0.7331 0.6391
C3 C 0.3422(6) 0.7077(3) 0.7838(2)
C4 C 0.1793(7) 0.6463(3) 0.8469(2)
H2 H 0.1947 0.6534 0.9166
C5 C -0.0055(7) 0.5748(3) 0.8051(3)
H3 H -0.1168 0.5320 0.8469
C6 C 0.1156(7) 0.6033(3) 0.5285(3)
N1 N -0.0299(5) 0.5649(2) 0.7039(2)
N2 N 0.5432(6) 0.7868(3) 0.8263(2)
O1 O -0.2174(5) 0.4985(3) 0.6678(2)
O2 O -0.0680(6) 0.5334(3) 0.4950(2)
H4 H -0.162(8) 0.509(5) 0.547(3)
O3 O 0.2680(6) 0.6505(3) 0.47389(19)
O4 O 0.6906(5) 0.8338(3) 0.7680(2)
O5 O 0.5494(7) 0.8019(3) 0.9177(2)
loop_
_geom_bond_atom_site_label_1
_geom_bond_atom_site_label_2
_geom_bond_site_symmetry_1
_geom_bond_site_symmetry_2
C1 C2 1_555 1_555
C2 H1 1_555 1_555
C3 C2 1_555 1_555
C4 C3 1_555 1_555
H2 C4 1_555 1_555
C5 C4 1_555 1_555
H3 C5 1_555 1_555
C6 C1 1_555 1_555
N1 C1 1_555 1_555
N2 C3 1_555 1_555
O1 N1 1_555 1_555
O2 C6 1_555 1_555
H4 O2 1_555 1_555
O3 C6 1_555 1_555
O4 N2 1_555 1_555
O5 N2 1_555 1_555
C5 N1 1_555 1_555

#END
