
#######################################################################
#
#                 Cambridge Crystallographic Data Centre
#                                CCDC 
#
#######################################################################
#
# If this CIF has been generated from an entry in the Cambridge 
# Structural Database, then it will include bibliographic, chemical, 
# crystal, experimental, refinement or atomic coordinate data resulting 
# from the CCDC's data processing and validation procedures.
#
#######################################################################

data_TISJUB
_chemical_formula_moiety         'C6 H4 N2 O5'
_chemical_name_systematic        2-Carboxy-4-nitropyridine-1-oxide
_symmetry_cell_setting           orthorhombic
_symmetry_space_group_name_H-M   'P 21 21 21'
_symmetry_Int_Tables_number      19
_space_group_name_Hall           'P 2ac 2ab'
loop_
_symmetry_equiv_pos_site_id
_symmetry_equiv_pos_as_xyz
1 x,y,z
2 1/2-x,-y,1/2+z
3 -x,1/2+y,1/2-z
4 1/2+x,1/2-y,-z
_cell_length_a                   13.2440(7)
_cell_length_b                   5.9984(3)
_cell_length_c                   9.0482(2)
_cell_angle_alpha                90
_cell_angle_beta                 90
_cell_angle_gamma                90
_cell_volume                     718.814
_exptl_crystal_colour            colorless
_exptl_crystal_description       prism
_chemical_melting_point          '147.5-148.5 deg.C'
_cell_formula_units_Z            4
_exptl_crystal_recrystallization_method methanol/dichloromethane
loop_
_atom_site_label
_atom_site_type_symbol
_atom_site_fract_x
_atom_site_fract_y
_atom_site_fract_z
C1 C 0.67701(13) 0.4309(3) 0.5312(2)
C2 C 0.65383(14) 0.6322(3) 0.5959(2)
H1 H 0.6981 0.6975 0.6629
C3 C 0.56478(15) 0.7350(3) 0.5606(2)
C4 C 0.49784(14) 0.6421(4) 0.4620(2)
H2 H 0.4370 0.7122 0.4400
C5 C 0.52314(14) 0.4439(4) 0.3972(2)
H3 H 0.4791 0.3783 0.3300
C6 C 0.77083(15) 0.3051(4) 0.5767(3)
N1 N 0.61150(11) 0.3423(3) 0.43006(18)
N2 N 0.53837(17) 0.9460(3) 0.6335(2)
O1 O 0.63216(12) 0.1513(2) 0.36342(17)
O2 O 0.78976(12) 0.1203(3) 0.5058(2)
H4 H 0.725(3) 0.101(3) 0.435(4)
O3 O 0.82282(13) 0.3772(4) 0.6747(2)
O4 O 0.45519(15) 1.0246(3) 0.6097(2)
O5 O 0.60158(15) 1.0319(3) 0.7134(2)
loop_
_geom_bond_atom_site_label_1
_geom_bond_atom_site_label_2
_geom_bond_site_symmetry_1
_geom_bond_site_symmetry_2
C1 C2 1_555 1_555
C2 H1 1_555 1_555
C3 C2 1_555 1_555
C4 C3 1_555 1_555
H2 C4 1_555 1_555
C5 C4 1_555 1_555
H3 C5 1_555 1_555
C6 C1 1_555 1_555
N1 C1 1_555 1_555
N2 C3 1_555 1_555
O1 N1 1_555 1_555
O2 C6 1_555 1_555
H4 O2 1_555 1_555
O3 C6 1_555 1_555
O4 N2 1_555 1_555
O5 N2 1_555 1_555
C5 N1 1_555 1_555

#END
