
#######################################################################
#
#                 Cambridge Crystallographic Data Centre
#                                CCDC 
#
#######################################################################
#
# If this CIF has been generated from an entry in the Cambridge 
# Structural Database, then it will include bibliographic, chemical, 
# crystal, experimental, refinement or atomic coordinate data resulting 
# from the CCDC's data processing and validation procedures.
#
#######################################################################

data_TISKUB
_chemical_formula_moiety         'C21 H54 N8 6+,6(C7 H7 O3 S1 1-),6.5(H2 O1)'
_chemical_name_systematic        
'4,8,14,18,23,27-Hexa-azonia-1,11-diazabicyclo(9.9.9)nonacosane hexakis(p-toluenesulfonate) hydrate'
_symmetry_cell_setting           triclinic
_symmetry_space_group_name_H-M   'P -1'
_symmetry_Int_Tables_number      2
_space_group_name_Hall           '-P 1'
loop_
_symmetry_equiv_pos_site_id
_symmetry_equiv_pos_as_xyz
1 x,y,z
2 -x,-y,-z
_cell_length_a                   16.258(7)
_cell_length_b                   17.396(8)
_cell_length_c                   18.309(9)
_cell_angle_alpha                94.65(5)
_cell_angle_beta                 116.97(9)
_cell_angle_gamma                113.84(8)
_cell_volume                     3993.14
_cell_formula_units_Z            2
loop_
_atom_site_label
_atom_site_type_symbol
_atom_site_fract_x
_atom_site_fract_y
_atom_site_fract_z
N1 N 0.2975(5) 0.0427(5) 0.0588(5)
C1 C 0.3276(7) 0.1335(6) 0.0986(6)
C2 C 0.3233(7) 0.1436(6) 0.1786(6)
N2 N 0.2138(5) 0.0875(5) 0.1599(5)
C3 C 0.2071(7) 0.0718(6) 0.2363(6)
C4 C 0.2358(7) -0.0003(6) 0.2578(6)
C5 C 0.2352(6) -0.0216(6) 0.3363(6)
N3 N 0.2640(5) -0.0918(5) 0.3512(4)
C6 C 0.1792(7) -0.1828(6) 0.2893(6)
C7 C 0.2270(7) -0.2429(6) 0.2925(6)
C8 C 0.3752(7) 0.0163(5) 0.1132(5)
C9 C 0.4924(7) 0.0805(6) 0.1443(6)
N4 N 0.5579(5) 0.0365(5) 0.1781(5)
C10 C 0.5608(6) 0.0071(6) 0.2527(6)
C11 C 0.6269(7) -0.0373(6) 0.2815(6)
C12 C 0.6440(7) -0.0553(6) 0.3658(6)
N5 N 0.5455(6) -0.1103(5) 0.3659(5)
C13 C 0.4759(7) -0.2019(6) 0.2998(6)
C14 C 0.3748(8) -0.2508(6) 0.2979(6)
C15 C 0.2739(7) 0.0272(6) -0.0319(6)
C16 C 0.2046(7) -0.0695(6) -0.0843(6)
N6 N 0.0971(5) -0.1055(5) -0.0953(4)
C17 C 0.0243(7) -0.2046(6) -0.1435(6)
C18 C 0.0762(7) -0.2591(5) -0.1055(5)
C19 C 0.1071(6) -0.2491(5) -0.0130(5)
N7 N 0.1633(5) -0.2995(4) 0.0235(4)
C20 C 0.1834(7) -0.3022(6) 0.1104(6)
C21 C 0.2643(6) -0.2108(5) 0.1796(6)
N8 N 0.3074(6) -0.2093(4) 0.2699(5)
H1 H 0.278 0.150 0.056
H2 H 0.402 0.175 0.114
H3 H 0.348 0.207 0.205
H4 H 0.372 0.126 0.221
H5 H 0.182 0.029 0.117
H6 H 0.172 0.117 0.133
H7 H 0.134 0.052 0.222
H8 H 0.258 0.128 0.287
H9 H 0.308 0.020 0.268
H10 H 0.183 -0.056 0.206
H11 H 0.162 -0.043 0.326
H12 H 0.287 0.033 0.388
H13 H 0.283 -0.093 0.411
H14 H 0.327 -0.076 0.346
H15 H 0.144 -0.180 0.230
H16 H 0.125 -0.208 0.306
H17 H 0.168 -0.304 0.251
H18 H 0.260 -0.247 0.353
H19 H 0.354 -0.043 0.079
H20 H 0.370 0.001 0.165
H21 H 0.520 0.135 0.192
H22 H 0.496 0.098 0.095
H23 H 0.632 0.079 0.197
H24 H 0.528 -0.018 0.130
H25 H 0.487 -0.036 0.236
H26 H 0.591 0.060 0.302
H27 H 0.698 0.002 0.291
H28 H 0.590 -0.095 0.236
H29 H 0.686 0.003 0.413
H30 H 0.686 -0.086 0.380
H31 H 0.504 -0.079 0.353
H32 H 0.567 -0.117 0.425
H33 H 0.515 -0.236 0.314
H34 H 0.459 -0.196 0.241
H35 H 0.393 -0.252 0.358
H36 H 0.333 -0.313 0.258
H37 H 0.342 0.050 -0.029
H38 H 0.237 0.060 -0.060
H39 H 0.239 -0.103 -0.054
H40 H 0.196 -0.076 -0.142
H41 H 0.062 -0.074 -0.128
H42 H 0.108 -0.094 -0.037
H43 H 0.003 -0.215 -0.206
H44 H -0.041 -0.224 -0.141
H45 H 0.142 -0.239 -0.109
H46 H 0.025 -0.323 -0.142
H47 H 0.042 -0.272 -0.010
H48 H 0.156 -0.185 0.023
H49 H 0.233 -0.271 0.028
H50 H 0.119 -0.362 -0.017
H51 H 0.210 -0.345 0.127
H52 H 0.114 -0.324 0.108
H53 H 0.230 -0.173 0.170
H54 H 0.325 -0.184 0.171
S1 S 0.4551(2) -0.0983(2) 0.5545(2)
C22 C 0.4365(7) -0.1956(6) 0.5851(5)
C23 C 0.3641(8) -0.2301(6) 0.6113(6)
C24 C 0.3542(10) -0.3041(7) 0.6375(7)
C25 C 0.4117(12) -0.3431(8) 0.6399(7)
C26 C 0.3978(14) -0.4266(9) 0.6692(9)
C27 C 0.4816(10) -0.3092(8) 0.6123(7)
C28 C 0.4944(7) -0.2357(7) 0.5840(6)
O1 O 0.5327(5) -0.0235(4) 0.6350(4)
O2 O 0.3519(5) -0.1023(4) 0.5153(4)
O3 O 0.4914(5) -0.1008(4) 0.4967(4)
H55 H 0.321 -0.202 0.610
H56 H 0.302 -0.331 0.655
H57 H 0.524 -0.337 0.612
H58 H 0.544 -0.212 0.563
S2 S -0.0389(2) -0.1188(2) 0.0317(2)
C29 C -0.0703(6) -0.1888(6) 0.0894(6)
C30 C -0.0977(7) -0.2764(6) 0.0630(6)
C31 C -0.1198(8) -0.3325(7) 0.1102(8)
C32 C -0.1215(7) -0.3025(7) 0.1799(8)
C33 C -0.1484(10) -0.3639(8) 0.2335(9)
C34 C -0.0958(8) -0.2141(7) 0.2089(6)
C35 C -0.0712(7) -0.1580(6) 0.1620(6)
O4 O 0.0689(4) -0.0978(4) 0.0545(4)
O5 O -0.0439(5) -0.0414(4) 0.0591(4)
O6 O -0.1159(5) -0.1706(4) -0.0593(4)
H59 H -0.102 -0.300 0.009
H60 H -0.133 -0.393 0.093
H61 H -0.095 -0.191 0.260
H62 H -0.054 -0.095 0.180
S3 S 0.1719(2) -0.5367(2) 0.1337(2)
C36 C 0.3053(7) -0.4754(5) 0.1624(6)
C37 C 0.3306(8) -0.4323(7) 0.1102(6)
C38 C 0.4347(10) -0.3837(7) 0.1350(7)
C39 C 0.5180(9) -0.3742(6) 0.2135(7)
C40 C 0.6361(9) -0.3168(8) 0.2435(9)
C41 C 0.4889(9) -0.4179(7) 0.2660(7)
C42 C 0.3837(8) -0.4674(6) 0.2404(7)
O7 O 0.1553(5) -0.4780(4) 0.1799(4)
O8 O 0.1619(5) -0.6140(4) 0.1610(5)
O9 O 0.1054(5) -0.5597(4) 0.0400(4)
H63 H 0.273 -0.436 0.054
H64 H 0.451 -0.355 0.095
H65 H 0.546 -0.412 0.323
H66 H 0.365 -0.497 0.279
S4 S 0.4077(3) -0.1859(2) 0.0113(2)
C43 C 0.4573(8) -0.2528(6) -0.0109(7)
C44 C 0.3931(9) -0.3286(9) -0.0812(8)
C45 C 0.4346(12) -0.3784(8) -0.0966(10)
C46 C 0.5389(14) -0.3548(11) -0.0395(12)
C47 C 0.5797(16) -0.4178(12) -0.0614(14)
C48 C 0.6020(9) -0.2808(9) 0.0301(9)
C49 C 0.5609(9) -0.2316(7) 0.0459(8)
O10 O 0.4926(7) -0.0936(5) 0.0414(5)
O11 O 0.3159(8) -0.2064(7) -0.0704(6)
O12 O 0.3852(7) -0.2061(6) 0.0757(6)
H67 H 0.317 -0.346 -0.124
H68 H 0.388 -0.435 -0.147
H69 H 0.619 -0.177 0.098
H70 H 0.676 -0.267 0.072
S6 S 0.7385(3) -0.1869(2) 0.5194(2)
C57 C 0.7318(8) -0.2831(7) 0.5449(7)
C58 C 0.6372(10) -0.3587(12) 0.5147(9)
C59 C 0.6364(12) -0.4361(10) 0.5377(12)
C60 C 0.7278(11) -0.4381(9) 0.5853(8)
C61 C 0.7223(11) -0.5234(8) 0.6048(8)
C62 C 0.8211(11) -0.3632(10) 0.6150(8)
C63 C 0.8242(9) -0.2866(9) 0.5943(9)
O16 O 0.8092(13) -0.1222(10) 0.6040(10)
O17 O 0.7843(14) -0.1686(12) 0.4676(12)
O18 O 0.6258(12) -0.2097(10) 0.4790(10)
H71 H 0.569 -0.359 0.478
H72 H 0.568 -0.489 0.518
H73 H 0.889 -0.362 0.652
H74 H 0.894 -0.234 0.614
S7 S 0.8521(6) 0.2038(3) 0.3358(3)
C64 C 0.9185(8) 0.3196(7) 0.3525(8)
C65 C 0.9971(11) 0.3786(10) 0.4340(8)
C66 C 1.0514(11) 0.4706(11) 0.4436(11)
C67 C 1.0250(13) 0.4999(11) 0.3731(14)
C68 C 1.0889(12) 0.6009(9) 0.3916(1)
C69 C 0.9463(12) 0.4391(12) 0.2942(10)
C70 C 0.8928(9) 0.3497(9) 0.2836(8)
O22 O 0.8270(9) 0.1911(7) 0.3988(7)
O23 O 0.7576(7) 0.1658(7) 0.2529(7)
O24 O 0.9189(8) 0.1732(6) 0.3362(9)
H75 H 1.016 0.357 0.486
H76 H 1.110 0.512 0.504
H77 H 0.928 0.459 0.243
H78 H 0.833 0.308 0.224
O25 O 0.0602(5) -0.4725(4) -0.0816(4)
H79 H 0.061 -0.492 -0.049
H80 H 0.063 -0.501 -0.112
O26 O 0.0112(6) -0.0610(5) -0.2473(4)
O27 O 0.2682(7) 0.2905(6) 0.2467(6)
O28 O 0.1146(8) -0.1637(8) 0.4326(6)
O29 O 0.1634(17) 0.0075(16) -0.2648(14)
O31 O 0.0449(16) -0.0396(13) 0.4211(13)
O33 O -0.0686(21) -0.2055(17) 0.4519(17)
S5? S 0.4125(13) -0.1832(11) 0.0168(11)
C50? C 0.4731(13) -0.2362(11) -0.0087(11)
C51? C 0.4132(13) -0.3036(11) -0.0860(11)
C52? C 0.4590(13) -0.3488(11) -0.1033(11)
C53? C 0.5632(13) -0.3274(11) -0.0462(11)
C54? C 0.6108(13) -0.3776(11) -0.0661(11)
C55? C 0.6215(13) -0.2590(11) 0.0300(11)
C56? C 0.5770(13) -0.2132(11) 0.0498(11)
O13? O 0.4507(19) -0.1033(16) 0.0042(15)
O14? O 0.4389(17) -0.1768(14) 0.1057(15)
O15? O 0.2941(18) -0.2386(15) -0.0426(15)
O19? O 0.6514(12) -0.1731(11) 0.5034(10)
O20? O 0.7404(13) -0.1997(11) 0.4408(11)
O21? O 0.8378(13) -0.1045(11) 0.5913(10)
O30? O 0.2038(22) 0.0784(20) -0.2381(17)
O32? O -0.1432(24) -0.0965(21) 0.3639(20)
loop_
_geom_bond_atom_site_label_1
_geom_bond_atom_site_label_2
_geom_bond_site_symmetry_1
_geom_bond_site_symmetry_2
N1 C1 1_555 1_555
C1 C2 1_555 1_555
C2 N2 1_555 1_555
N2 C3 1_555 1_555
C3 C4 1_555 1_555
C4 C5 1_555 1_555
C5 N3 1_555 1_555
N3 C6 1_555 1_555
C6 C7 1_555 1_555
C7 N8 1_555 1_555
C8 N1 1_555 1_555
C9 C8 1_555 1_555
N4 C9 1_555 1_555
C10 N4 1_555 1_555
C11 C10 1_555 1_555
C12 C11 1_555 1_555
N5 C12 1_555 1_555
C13 N5 1_555 1_555
C14 C13 1_555 1_555
C15 N1 1_555 1_555
C16 C15 1_555 1_555
N6 C16 1_555 1_555
C17 N6 1_555 1_555
C18 C17 1_555 1_555
C19 C18 1_555 1_555
N7 C19 1_555 1_555
C20 N7 1_555 1_555
C21 C20 1_555 1_555
N8 C14 1_555 1_555
S1 C22 1_555 1_555
C22 C23 1_555 1_555
C23 C24 1_555 1_555
C24 C25 1_555 1_555
C25 C26 1_555 1_555
C27 C25 1_555 1_555
C28 C22 1_555 1_555
O1 S1 1_555 1_555
O2 S1 1_555 1_555
O3 S1 1_555 1_555
S2 C29 1_555 1_555
C29 C30 1_555 1_555
C30 C31 1_555 1_555
C31 C32 1_555 1_555
C32 C33 1_555 1_555
C34 C32 1_555 1_555
C35 C29 1_555 1_555
O4 S2 1_555 1_555
O5 S2 1_555 1_555
O6 S2 1_555 1_555
S3 C36 1_555 1_555
C36 C37 1_555 1_555
C37 C38 1_555 1_555
C38 C39 1_555 1_555
C39 C40 1_555 1_555
C41 C39 1_555 1_555
C42 C36 1_555 1_555
O7 S3 1_555 1_555
O8 S3 1_555 1_555
O9 S3 1_555 1_555
S4 C43 1_555 1_555
C43 C44 1_555 1_555
C44 C45 1_555 1_555
C45 C46 1_555 1_555
C46 C47 1_555 1_555
C48 C46 1_555 1_555
C49 C43 1_555 1_555
O10 S4 1_555 1_555
O11 S4 1_555 1_555
O12 S4 1_555 1_555
S6 C57 1_555 1_555
C57 C58 1_555 1_555
C58 C59 1_555 1_555
C59 C60 1_555 1_555
C60 C61 1_555 1_555
C62 C60 1_555 1_555
C63 C57 1_555 1_555
O16 S6 1_555 1_555
O17 S6 1_555 1_555
O18 S6 1_555 1_555
S7 C64 1_555 1_555
C64 C65 1_555 1_555
C65 C66 1_555 1_555
C66 C67 1_555 1_555
C67 C68 1_555 1_555
C69 C67 1_555 1_555
C70 C64 1_555 1_555
O22 S7 1_555 1_555
O23 S7 1_555 1_555
O24 S7 1_555 1_555
O25 H79 1_555 1_555
H1 C1 1_555 1_555
H2 C1 1_555 1_555
H3 C2 1_555 1_555
H4 C2 1_555 1_555
H5 N2 1_555 1_555
H6 N2 1_555 1_555
H7 C3 1_555 1_555
H8 C3 1_555 1_555
H9 C4 1_555 1_555
H10 C4 1_555 1_555
H11 C5 1_555 1_555
H12 C5 1_555 1_555
H13 N3 1_555 1_555
H14 N3 1_555 1_555
H15 C6 1_555 1_555
H16 C6 1_555 1_555
H17 C7 1_555 1_555
H18 C7 1_555 1_555
H19 C8 1_555 1_555
H20 C8 1_555 1_555
H21 C9 1_555 1_555
H22 C9 1_555 1_555
H23 N4 1_555 1_555
H24 N4 1_555 1_555
H25 C10 1_555 1_555
H26 C10 1_555 1_555
H27 C11 1_555 1_555
H28 C11 1_555 1_555
H29 C12 1_555 1_555
H30 C12 1_555 1_555
H31 N5 1_555 1_555
H32 N5 1_555 1_555
H33 C13 1_555 1_555
H34 C13 1_555 1_555
H35 C14 1_555 1_555
H36 C14 1_555 1_555
H37 C15 1_555 1_555
H38 C15 1_555 1_555
H39 C16 1_555 1_555
H40 C16 1_555 1_555
H41 N6 1_555 1_555
H42 N6 1_555 1_555
H43 C17 1_555 1_555
H44 C17 1_555 1_555
H45 C18 1_555 1_555
H46 C18 1_555 1_555
H47 C19 1_555 1_555
H48 C19 1_555 1_555
H49 N7 1_555 1_555
H50 N7 1_555 1_555
H51 C20 1_555 1_555
H52 C20 1_555 1_555
H53 C21 1_555 1_555
H54 C21 1_555 1_555
H55 C23 1_555 1_555
H56 C24 1_555 1_555
H57 C27 1_555 1_555
H58 C28 1_555 1_555
H59 C30 1_555 1_555
H60 C31 1_555 1_555
H61 C34 1_555 1_555
H62 C35 1_555 1_555
H63 C37 1_555 1_555
H64 C38 1_555 1_555
H65 C41 1_555 1_555
H66 C42 1_555 1_555
H67 C44 1_555 1_555
H68 C45 1_555 1_555
H69 C49 1_555 1_555
H70 C48 1_555 1_555
H71 C58 1_555 1_555
H72 C59 1_555 1_555
H73 C62 1_555 1_555
H74 C63 1_555 1_555
H75 C65 1_555 1_555
H76 C66 1_555 1_555
H77 C69 1_555 1_555
H78 C70 1_555 1_555
H80 O25 1_555 1_555
C21 N8 1_555 1_555
C27 C28 1_555 1_555
C34 C35 1_555 1_555
C41 C42 1_555 1_555
C48 C49 1_555 1_555
C62 C63 1_555 1_555
C69 C70 1_555 1_555

#END
