
#######################################################################
#
#                 Cambridge Crystallographic Data Centre
#                                CCDC 
#
#######################################################################
#
# If this CIF has been generated from an entry in the Cambridge 
# Structural Database, then it will include bibliographic, chemical, 
# crystal, experimental, refinement or atomic coordinate data resulting 
# from the CCDC's data processing and validation procedures.
#
#######################################################################

data_TISLIQ
_chemical_formula_moiety         'C23 H36 O3 Si4'
_chemical_name_systematic        
4,4,5,5-tetrakis(Trimethylsilylethynyl)-1,3-dioxolan-2-one
_symmetry_cell_setting           monoclinic
_symmetry_space_group_name_H-M   'C 2/c'
_symmetry_Int_Tables_number      15
_space_group_name_Hall           '-C 2yn'
loop_
_symmetry_equiv_pos_site_id
_symmetry_equiv_pos_as_xyz
1 x,y,z
2 -x,y,1/2-z
3 1/2+x,1/2+y,z
4 1/2-x,1/2+y,1/2-z
5 -x,-y,-z
6 x,-y,1/2+z
7 1/2-x,1/2-y,-z
8 1/2+x,1/2-y,1/2+z
_cell_length_a                   46.468(9)
_cell_length_b                   11.102(2)
_cell_length_c                   19.076(4)
_cell_angle_alpha                90
_cell_angle_beta                 113.64(3)
_cell_angle_gamma                90
_cell_volume                     9015.24
_exptl_crystal_colour            colorless
_chemical_melting_point          66-68deg.C
_cell_formula_units_Z            12
loop_
_atom_site_label
_atom_site_type_symbol
_atom_site_fract_x
_atom_site_fract_y
_atom_site_fract_z
Si1 Si 0.2689(1) 0.1947(1) 0.1799(1)
Si2 Si 0.1930(1) -0.2034(1) -0.1512(1)
Si3 Si 0.0651(1) -0.1469(1) -0.1235(1)
Si4 Si 0.1546(1) 0.4420(1) -0.0043(1)
C1 C 0.1524(1) 0.0433(2) 0.0394(1)
O1 O 0.1519(1) 0.0296(1) 0.1155(1)
C2 C 0.1655(1) -0.0769(2) 0.1448(1)
O2 O 0.1640(1) -0.1237(1) 0.1995(1)
O3 O 0.1810(1) -0.1238(1) 0.1044(1)
C3 C 0.1830(1) -0.0314(1) 0.0516(1)
C4 C 0.2115(1) 0.0403(2) 0.0908(1)
C5 C 0.2347(1) 0.0982(2) 0.1246(1)
C6 C 0.2536(1) 0.3098(2) 0.2260(1)
C7 C 0.2988(1) 0.0982(2) 0.2527(2)
C8 C 0.2842(1) 0.2596(2) 0.1121(1)
C9 C 0.1830(1) -0.0900(2) -0.0169(1)
C10 C 0.1852(1) -0.1369(2) -0.0714(1)
C11 C 0.2139(1) -0.0864(2) -0.1813(1)
C12 C 0.2178(1) -0.3377(2) -0.1128(2)
C13 C 0.1549(1) -0.2402(3) -0.2319(1)
C14 C 0.1241(1) -0.0156(2) -0.0161(1)
C15 C 0.1011(1) -0.0682(2) -0.0584(1)
C16 C 0.0325(1) -0.0388(2) -0.1445(2)
C17 C 0.0606(1) -0.2808(2) -0.0709(1)
C18 C 0.0719(1) -0.1923(3) -0.2097(1)
C19 C 0.1542(1) 0.1712(2) 0.0242(1)
C20 C 0.1547(1) 0.2771(2) 0.0116(1)
C21 C 0.1356(1) 0.4711(2) -0.1086(1)
C22 C 0.1332(1) 0.5139(2) 0.0482(2)
C23 C 0.1963(1) 0.4957(2) 0.0363(1)
H1 H 0.2382 0.3586 0.1874
H2 H 0.2439 0.2709 0.2560
H3 H 0.2705 0.3598 0.2585
H4 H 0.2902 0.0661 0.2869
H5 H 0.3045 0.0332 0.2276
H6 H 0.3171 0.1453 0.2812
H7 H 0.2683 0.3089 0.0754
H8 H 0.3025 0.3078 0.1396
H9 H 0.2899 0.1958 0.0860
H10 H 0.2335 -0.0682 -0.1396
H11 H 0.2179 -0.1152 -0.2241
H12 H 0.2012 -0.0150 -0.1960
H13 H 0.2370 -0.3137 -0.0716
H14 H 0.2069 -0.3940 -0.0941
H15 H 0.2225 -0.3748 -0.1524
H16 H 0.1430 -0.1677 -0.2498
H17 H 0.1589 -0.2763 -0.2729
H18 H 0.1432 -0.2955 -0.2146
H19 H 0.0302 -0.0193 -0.0979
H20 H 0.0371 0.0332 -0.1660
H21 H 0.0134 -0.0737 -0.1803
H22 H 0.0571 -0.2555 -0.0269
H23 H 0.0431 -0.3278 -0.1038
H24 H 0.0794 -0.3287 -0.0548
H25 H 0.0742 -0.1215 -0.2360
H26 H 0.0908 -0.2397 -0.1942
H27 H 0.0544 -0.2389 -0.2432
H28 H 0.1143 0.4430 -0.1282
H29 H 0.1358 0.5560 -0.1180
H30 H 0.1469 0.4293 -0.1337
H31 H 0.1118 0.4863 0.0276
H32 H 0.1430 0.4928 0.1014
H33 H 0.1335 0.5998 0.0429
H34 H 0.2057 0.4801 0.0903
H35 H 0.2078 0.4539 0.0118
H36 H 0.1967 0.5806 0.0274
Si5 Si 0.0407(1) -0.2982(1) 0.5248(1)
Si6 Si 0.0891(1) -0.1962(1) 0.2127(1)
C24 C 0.0000 -0.5835(2) 0.2500
O4 O 0.0000 -0.6903(2) 0.2500
O5 O 0.0261(1) -0.5152(1) 0.2713(1)
C25 C 0.0182(1) -0.3891(2) 0.2770(1)
C26 C 0.0241(1) -0.3629(2) 0.3573(1)
C27 C 0.0304(1) -0.3409(2) 0.4238(1)
C28 C 0.0116(1) -0.1853(3) 0.5257(1)
C29 C 0.0806(1) -0.2316(3) 0.5619(2)
C30 C 0.0395(1) -0.4347(3) 0.5789(1)
C31 C 0.0379(1) -0.3153(2) 0.2512(1)
C32 C 0.0569(1) -0.2612(2) 0.2344(1)
C33 C 0.1184(1) -0.1307(2) 0.3023(1)
C34 C 0.1058(1) -0.3238(2) 0.1781(1)
C35 C 0.0729(1) -0.0799(2) 0.1373(1)
H37 H -0.0089 -0.2211 0.5063
H38 H 0.0170 -0.1581 0.5772
H39 H 0.0117 -0.1182 0.4941
H40 H 0.0866 -0.2085 0.6144
H41 H 0.0952 -0.2898 0.5585
H42 H 0.0806 -0.1619 0.5321
H43 H 0.0185 -0.4671 0.5584
H44 H 0.0538 -0.4936 0.5746
H45 H 0.0454 -0.4143 0.6318
H46 H 0.1090 -0.0652 0.3184
H47 H 0.1252 -0.1914 0.3414
H48 H 0.1361 -0.1016 0.2935
H49 H 0.1227 -0.2953 0.1658
H50 H 0.1135 -0.3841 0.2173
H51 H 0.0897 -0.3580 0.1332
H52 H 0.0644 -0.0148 0.1563
H53 H 0.0892 -0.0499 0.1234
H54 H 0.0565 -0.1146 0.0932
O5A O -0.0261(1) -0.5152(1) 0.2287(1)
C25A C -0.0182(1) -0.3891(2) 0.2230(1)
C26A C -0.0241(1) -0.3629(2) 0.1427(1)
C27A C -0.0304(1) -0.3409(2) 0.0762(1)
Si5A Si -0.0407(1) -0.2982(1) -0.0248(1)
C28A C -0.0116(1) -0.1853(3) -0.0257(1)
H37A H 0.0089 -0.2211 -0.0063
H38A H -0.0170 -0.1581 -0.0772
H39A H -0.0117 -0.1182 0.0059
C29A C -0.0806(1) -0.2316(3) -0.0619(2)
H40A H -0.0866 -0.2085 -0.1144
H41A H -0.0952 -0.2898 -0.0585
H42A H -0.0806 -0.1619 -0.0321
C30A C -0.0395(1) -0.4347(3) -0.0789(1)
H43A H -0.0185 -0.4671 -0.0584
H44A H -0.0538 -0.4936 -0.0746
H45A H -0.0454 -0.4143 -0.1318
C31A C -0.0379(1) -0.3153(2) 0.2488(1)
C32A C -0.0569(1) -0.2612(2) 0.2656(1)
Si6A Si -0.0891(1) -0.1962(1) 0.2873(1)
C33A C -0.1184(1) -0.1307(2) 0.1977(1)
H46A H -0.1090 -0.0652 0.1816
H47A H -0.1252 -0.1914 0.1586
H48A H -0.1361 -0.1016 0.2065
C34A C -0.1058(1) -0.3238(2) 0.3219(1)
H49A H -0.1227 -0.2953 0.3342
H50A H -0.1135 -0.3841 0.2827
H51A H -0.0897 -0.3580 0.3668
C35A C -0.0729(1) -0.0799(2) 0.3627(1)
H52A H -0.0644 -0.0148 0.3437
H53A H -0.0892 -0.0499 0.3766
H54A H -0.0565 -0.1146 0.4068
loop_
_geom_bond_atom_site_label_1
_geom_bond_atom_site_label_2
_geom_bond_site_symmetry_1
_geom_bond_site_symmetry_2
Si1 C5 1_555 1_555
Si2 C10 1_555 1_555
Si3 C15 1_555 1_555
Si4 C20 1_555 1_555
C1 O1 1_555 1_555
O1 C2 1_555 1_555
C2 O2 1_555 1_555
O3 C2 1_555 1_555
C3 C1 1_555 1_555
C4 C3 1_555 1_555
C5 C4 1_555 1_555
C6 Si1 1_555 1_555
C7 Si1 1_555 1_555
C8 Si1 1_555 1_555
C9 C3 1_555 1_555
C10 C9 1_555 1_555
C11 Si2 1_555 1_555
C12 Si2 1_555 1_555
C13 Si2 1_555 1_555
C14 C1 1_555 1_555
C15 C14 1_555 1_555
C16 Si3 1_555 1_555
C17 Si3 1_555 1_555
C18 Si3 1_555 1_555
C19 C1 1_555 1_555
C20 C19 1_555 1_555
C21 Si4 1_555 1_555
C22 Si4 1_555 1_555
C23 Si4 1_555 1_555
Si5 C27 1_555 1_555
Si6 C32 1_555 1_555
C24 O4 1_555 1_555
O5 C24 1_555 1_555
C25 O5 1_555 1_555
C26 C25 1_555 1_555
C27 C26 1_555 1_555
C28 Si5 1_555 1_555
C29 Si5 1_555 1_555
C30 Si5 1_555 1_555
C31 C25 1_555 1_555
C32 C31 1_555 1_555
C33 Si6 1_555 1_555
C34 Si6 1_555 1_555
C35 Si6 1_555 1_555
H1 C6 1_555 1_555
H2 C6 1_555 1_555
H3 C6 1_555 1_555
H4 C7 1_555 1_555
H5 C7 1_555 1_555
H6 C7 1_555 1_555
H7 C8 1_555 1_555
H8 C8 1_555 1_555
H9 C8 1_555 1_555
H10 C11 1_555 1_555
H11 C11 1_555 1_555
H12 C11 1_555 1_555
H13 C12 1_555 1_555
H14 C12 1_555 1_555
H15 C12 1_555 1_555
H16 C13 1_555 1_555
H17 C13 1_555 1_555
H18 C13 1_555 1_555
H19 C16 1_555 1_555
H20 C16 1_555 1_555
H21 C16 1_555 1_555
H22 C17 1_555 1_555
H23 C17 1_555 1_555
H24 C17 1_555 1_555
H25 C18 1_555 1_555
H26 C18 1_555 1_555
H27 C18 1_555 1_555
H28 C21 1_555 1_555
H29 C21 1_555 1_555
H30 C21 1_555 1_555
H31 C22 1_555 1_555
H32 C22 1_555 1_555
H33 C22 1_555 1_555
H34 C23 1_555 1_555
H35 C23 1_555 1_555
H36 C23 1_555 1_555
H37 C28 1_555 1_555
H38 C28 1_555 1_555
H39 C28 1_555 1_555
H40 C29 1_555 1_555
H41 C29 1_555 1_555
H42 C29 1_555 1_555
H43 C30 1_555 1_555
H44 C30 1_555 1_555
H45 C30 1_555 1_555
H46 C33 1_555 1_555
H47 C33 1_555 1_555
H48 C33 1_555 1_555
H49 C34 1_555 1_555
H50 C34 1_555 1_555
H51 C34 1_555 1_555
H52 C35 1_555 1_555
H53 C35 1_555 1_555
H54 C35 1_555 1_555
O5A C24 1_555 1_555
C25A C25 1_555 1_555
C26A C25A 1_555 1_555
C27A C26A 1_555 1_555
Si5A C27A 1_555 1_555
C28A Si5A 1_555 1_555
H37A C28A 1_555 1_555
H38A C28A 1_555 1_555
H39A C28A 1_555 1_555
C29A Si5A 1_555 1_555
H40A C29A 1_555 1_555
H41A C29A 1_555 1_555
H42A C29A 1_555 1_555
C30A Si5A 1_555 1_555
H43A C30A 1_555 1_555
H44A C30A 1_555 1_555
H45A C30A 1_555 1_555
C31A C25A 1_555 1_555
C32A C31A 1_555 1_555
Si6A C32A 1_555 1_555
C33A Si6A 1_555 1_555
H46A C33A 1_555 1_555
H47A C33A 1_555 1_555
H48A C33A 1_555 1_555
C34A Si6A 1_555 1_555
H49A C34A 1_555 1_555
H50A C34A 1_555 1_555
H51A C34A 1_555 1_555
C35A Si6A 1_555 1_555
H52A C35A 1_555 1_555
H53A C35A 1_555 1_555
H54A C35A 1_555 1_555
O3 C3 1_555 1_555
O5A C25A 1_555 1_555

#END
