
#######################################################################
#
#                 Cambridge Crystallographic Data Centre
#                                CCDC 
#
#######################################################################
#
# If this CIF has been generated from an entry in the Cambridge 
# Structural Database, then it will include bibliographic, chemical, 
# crystal, experimental, refinement or atomic coordinate data resulting 
# from the CCDC's data processing and validation procedures.
#
#######################################################################

data_TISRUJ
_chemical_compound_source        
'gorgonian coral Ellisella robusta (Ellisellidae)'
_chemical_formula_moiety         'C26 H33 Cl1 O10'
_chemical_name_systematic        'Robustolide G'
_symmetry_cell_setting           monoclinic
_symmetry_space_group_name_H-M   'P 21'
_symmetry_Int_Tables_number      4
_space_group_name_Hall           'P 2yb'
loop_
_symmetry_equiv_pos_site_id
_symmetry_equiv_pos_as_xyz
1 x,y,z
2 -x,1/2+y,-z
_cell_length_a                   8.375(3)
_cell_length_b                   18.830(6)
_cell_length_c                   8.641(3)
_cell_angle_alpha                90
_cell_angle_beta                 98.22(3)
_cell_angle_gamma                90
_cell_volume                     1348.7
_exptl_crystal_colour            colorless
_exptl_crystal_description       prism
_chemical_melting_point          '112-113 deg.C'
_cell_formula_units_Z            2
_exptl_crystal_recrystallization_method ethanol/acetone
loop_
_atom_site_label
_atom_site_type_symbol
_atom_site_fract_x
_atom_site_fract_y
_atom_site_fract_z
Cl1 Cl 0.53271(8) 0.67964(5) 0.36998(9)
O1 O 1.2491(2) 0.47735(11) 0.3997(2)
O2 O 1.1428(4) 0.4433(2) 0.6085(3)
O3 O 0.6960(2) 0.77510(10) 0.1687(2)
O4 O 0.5756(3) 0.83066(11) -0.0431(3)
O5 O 0.61312(19) 0.62403(9) 0.0685(2)
H1 H 0.6048 0.5921 0.0032
O6 O 1.04247(19) 0.65589(9) 0.0692(2)
O7 O 1.0895(3) 0.66663(17) -0.1795(3)
O8 O 0.6585(2) 0.51629(10) -0.1122(2)
O9 O 0.9252(2) 0.39649(10) 0.2118(2)
O10 O 1.0779(4) 0.31207(14) 0.3425(4)
C1 C 1.0719(3) 0.50337(14) 0.1603(3)
C2 C 1.1009(3) 0.51573(15) 0.3398(3)
H2 H 1.0111 0.4948 0.3853
C3 C 1.1246(3) 0.59072(16) 0.3967(3)
H3 H 1.2280 0.6092 0.4002
C4 C 1.0149(4) 0.63370(16) 0.4424(3)
H4 H 1.0535 0.6769 0.4843
C5 C 0.8401(3) 0.62211(16) 0.4358(3)
C6 C 0.7451(3) 0.68603(16) 0.3675(3)
H5 H 0.7806 0.7251 0.4390
C7 C 0.7869(3) 0.71005(13) 0.2082(3)
H6 H 0.9015 0.7228 0.2235
C8 C 0.7559(3) 0.66320(12) 0.0596(3)
C9 C 0.8980(3) 0.61476(12) 0.0232(3)
H7 H 0.8863 0.6092 -0.0906
C10 C 0.9032(3) 0.53844(12) 0.0953(3)
H8 H 0.8407 0.5403 0.1828
C11 C 0.8107(3) 0.48894(13) -0.0289(3)
C12 C 0.9115(4) 0.45221(17) -0.1338(3)
H9 H 0.9715 0.4870 -0.1849
H10 H 0.8425 0.4261 -0.2139
C13 C 1.0286(4) 0.40114(15) -0.0378(3)
H11 H 0.9847 0.3534 -0.0475
H12 H 1.1303 0.4010 -0.0792
C14 C 1.0585(3) 0.42207(15) 0.1347(3)
H13 H 1.1587 0.3997 0.1839
C15 C 1.2199(3) 0.52664(16) 0.0849(3)
H14 H 1.1888 0.5327 -0.0256
H15 H 1.3023 0.4909 0.1031
H16 H 1.2607 0.5707 0.1302
C16 C 0.7741(5) 0.56643(19) 0.4924(4)
H17 H 0.8389 0.5305 0.5413
H18 H 0.6624 0.5629 0.4837
C17 C 0.7254(3) 0.72111(14) -0.0682(3)
H19 H 0.8309 0.7370 -0.0913
C18 C 0.6264(4) 0.70026(18) -0.2215(3)
H20 H 0.6153 0.7404 -0.2907
H21 H 0.5216 0.6848 -0.2030
H22 H 0.6795 0.6623 -0.2682
C19 C 0.6542(3) 0.78089(14) 0.0130(3)
C20 C 0.6581(4) 0.45699(16) -0.0034(4)
H23 H 0.6203 0.4660 0.0957
H24 H 0.6326 0.4102 -0.0470
C21 C 1.2525(4) 0.44394(18) 0.5382(4)
C22 C 1.4124(5) 0.4097(3) 0.5858(5)
H25 H 1.4082 0.3810 0.6770
H26 H 1.4935 0.4456 0.6090
H27 H 1.4384 0.3803 0.5021
C23 C 1.1248(3) 0.68030(16) -0.0452(3)
C24 C 1.2615(3) 0.7257(2) 0.0230(5)
H28 H 1.2844 0.7599 -0.0532
H29 H 1.3551 0.6967 0.0531
H30 H 1.2338 0.7499 0.1132
C25 C 0.9512(4) 0.34271(15) 0.3158(4)
C26 C 0.8048(6) 0.3280(2) 0.3889(5)
H31 H 0.8224 0.3432 0.4961
H32 H 0.7825 0.2780 0.3844
H33 H 0.7148 0.3534 0.3336
loop_
_geom_bond_atom_site_label_1
_geom_bond_atom_site_label_2
_geom_bond_site_symmetry_1
_geom_bond_site_symmetry_2
Cl1 C6 1_555 1_555
O1 C2 1_555 1_555
O2 C21 1_555 1_555
O3 C7 1_555 1_555
O4 C19 1_555 1_555
O5 H1 1_555 1_555
O6 C9 1_555 1_555
O7 C23 1_555 1_555
O8 C11 1_555 1_555
O9 C14 1_555 1_555
O10 C25 1_555 1_555
C1 C2 1_555 1_555
C2 H2 1_555 1_555
C3 C2 1_555 1_555
H3 C3 1_555 1_555
C4 C3 1_555 1_555
H4 C4 1_555 1_555
C5 C4 1_555 1_555
C6 C5 1_555 1_555
H5 C6 1_555 1_555
C7 C6 1_555 1_555
H6 C7 1_555 1_555
C8 O5 1_555 1_555
C9 C8 1_555 1_555
H7 C9 1_555 1_555
C10 C1 1_555 1_555
H8 C10 1_555 1_555
C11 C10 1_555 1_555
C12 C11 1_555 1_555
H9 C12 1_555 1_555
H10 C12 1_555 1_555
C13 C12 1_555 1_555
H11 C13 1_555 1_555
H12 C13 1_555 1_555
C14 C1 1_555 1_555
H13 C14 1_555 1_555
C15 C1 1_555 1_555
H14 C15 1_555 1_555
H15 C15 1_555 1_555
H16 C15 1_555 1_555
C16 C5 1_555 1_555
H17 C16 1_555 1_555
H18 C16 1_555 1_555
C17 C8 1_555 1_555
H19 C17 1_555 1_555
C18 C17 1_555 1_555
H20 C18 1_555 1_555
H21 C18 1_555 1_555
H22 C18 1_555 1_555
C19 O3 1_555 1_555
C20 O8 1_555 1_555
H23 C20 1_555 1_555
H24 C20 1_555 1_555
C21 O1 1_555 1_555
C22 C21 1_555 1_555
H25 C22 1_555 1_555
H26 C22 1_555 1_555
H27 C22 1_555 1_555
C23 O6 1_555 1_555
C24 C23 1_555 1_555
H28 C24 1_555 1_555
H29 C24 1_555 1_555
H30 C24 1_555 1_555
C25 O9 1_555 1_555
C26 C25 1_555 1_555
H31 C26 1_555 1_555
H32 C26 1_555 1_555
H33 C26 1_555 1_555
C7 C8 1_555 1_555
C9 C10 1_555 1_555
C11 C20 1_555 1_555
C13 C14 1_555 1_555
C17 C19 1_555 1_555

#END
