
#######################################################################
#
#                 Cambridge Crystallographic Data Centre
#                                CCDC 
#
#######################################################################
#
# If this CIF has been generated from an entry in the Cambridge 
# Structural Database, then it will include bibliographic, chemical, 
# crystal, experimental, refinement or atomic coordinate data resulting 
# from the CCDC's data processing and validation procedures.
#
#######################################################################

data_TISROD
_chemical_compound_source        
'gorgonian coral Ellisella robusta (Ellisellidae)'
_chemical_formula_moiety         'C26 H35 Cl1 O10'
_chemical_name_systematic        'Robustolide F'
_symmetry_cell_setting           monoclinic
_symmetry_space_group_name_H-M   'P 21'
_symmetry_Int_Tables_number      4
_space_group_name_Hall           'P 2yb'
loop_
_symmetry_equiv_pos_site_id
_symmetry_equiv_pos_as_xyz
1 x,y,z
2 -x,1/2+y,-z
_cell_length_a                   11.429(2)
_cell_length_b                   8.525(2)
_cell_length_c                   14.079(4)
_cell_angle_alpha                90
_cell_angle_beta                 99.89(2)
_cell_angle_gamma                90
_cell_volume                     1351.36
_exptl_crystal_colour            colorless
_exptl_crystal_description       prism
_chemical_melting_point          '124-126 deg.C'
_cell_formula_units_Z            2
_exptl_crystal_recrystallization_method ethanol/acetone
loop_
_atom_site_label
_atom_site_type_symbol
_atom_site_fract_x
_atom_site_fract_y
_atom_site_fract_z
Cl1 Cl 0.7770(4) 0.5013(4) 0.9390(4)
O1 O 0.8998(4) 1.2225(5) 0.7533(4)
O2 O 1.0790(5) 1.1278(9) 0.8127(6)
O3 O 0.5665(7) 0.6768(8) 0.9741(4)
O4 O 0.3888(7) 0.5677(9) 0.9627(6)
O5 O 0.5959(5) 0.5879(5) 0.7774(3)
H1 H 0.6060 0.5951 0.7213
O6 O 0.5308(3) 1.0042(4) 0.7735(3)
O7 O 0.3741(4) 1.0220(8) 0.6541(4)
O8 O 0.6162(4) 0.6403(6) 0.5941(3)
O9 O 0.9002(3) 0.9272(5) 0.6076(3)
O10 O 1.0213(5) 1.0809(10) 0.5424(6)
C1 C 0.7458(4) 1.0465(7) 0.6822(4)
C2 C 0.8434(5) 1.0725(7) 0.7703(4)
H2 H 0.9025 0.9887 0.7723
C3 C 0.8017(5) 1.0786(8) 0.8678(4)
H3 H 0.7179 1.0524 0.8581
H4 H 0.8102 1.1853 0.8920
C4 C 0.8689(6) 0.9682(10) 0.9446(5)
H5 H 0.9516 1.0000 0.9579
H6 H 0.8369 0.9810 1.0036
C5 C 0.8634(7) 0.8016(11) 0.9185(5)
C6 C 0.7627(8) 0.7084(9) 0.9512(5)
H7 H 0.7733 0.7261 1.0209
C7 C 0.6365(7) 0.7601(8) 0.9136(4)
H8 H 0.6314 0.8721 0.9279
C8 C 0.5663(5) 0.7331(7) 0.8097(4)
C9 C 0.5697(5) 0.8622(7) 0.7338(4)
H9 H 0.5084 0.8351 0.6786
C10 C 0.6892(4) 0.8793(7) 0.6931(4)
H10 H 0.7489 0.8198 0.7370
C11 C 0.6722(5) 0.7921(8) 0.5965(4)
C12 C 0.6270(6) 0.8905(10) 0.5095(5)
H11 H 0.5540 0.9428 0.5177
H12 H 0.6107 0.8249 0.4525
C13 C 0.7227(6) 1.0120(11) 0.4984(5)
H13 H 0.7680 0.9748 0.4506
H14 H 0.6843 1.1093 0.4747
C14 C 0.8072(5) 1.0449(9) 0.5915(4)
H15 H 0.8441 1.1475 0.5861
C15 C 0.6612(6) 1.1904(8) 0.6656(6)
H16 H 0.6993 1.2739 0.6368
H17 H 0.6428 1.2249 0.7263
H18 H 0.5892 1.1613 0.6235
C16 C 0.9504(11) 0.7399(16) 0.8803(6)
H19 H 1.0141 0.8019 0.8703
H20 H 0.9481 0.6343 0.8634
C17 C 0.4390(6) 0.7231(9) 0.8323(5)
H21 H 0.4124 0.8306 0.8412
C18 C 0.3465(7) 0.6464(14) 0.7583(8)
H22 H 0.2859 0.6017 0.7895
H23 H 0.3827 0.5653 0.7260
H24 H 0.3116 0.7233 0.7121
C19 C 0.4570(10) 0.6458(10) 0.9273(7)
C20 C 0.7400(7) 0.6538(10) 0.5846(6)
H25 H 0.7993 0.6206 0.6386
H26 H 0.7607 0.6345 0.5216
C21 C 1.0187(7) 1.2327(12) 0.7760(6)
C22 C 1.0618(8) 1.3862(11) 0.7403(8)
H27 H 0.9962 1.4576 0.7255
H28 H 1.0953 1.3675 0.6833
H29 H 1.1211 1.4309 0.7894
C23 C 0.4279(6) 1.0724(9) 0.7289(6)
C24 C 0.3943(8) 1.2058(12) 0.7844(7)
H30 H 0.3138 1.2354 0.7597
H31 H 0.4461 1.2928 0.7788
H32 H 0.4011 1.1765 0.8510
C25 C 1.0049(6) 0.9639(13) 0.5836(6)
C26 C 1.0969(6) 0.8420(10) 0.6146(6)
H33 H 1.0675 0.7414 0.5908
H34 H 1.1152 0.8392 0.6837
H35 H 1.1675 0.8668 0.5891
loop_
_geom_bond_atom_site_label_1
_geom_bond_atom_site_label_2
_geom_bond_site_symmetry_1
_geom_bond_site_symmetry_2
Cl1 C6 1_555 1_555
O1 C2 1_555 1_555
O2 C21 1_555 1_555
O3 C7 1_555 1_555
O4 C19 1_555 1_555
O5 H1 1_555 1_555
O6 C9 1_555 1_555
O7 C23 1_555 1_555
O8 C11 1_555 1_555
O9 C14 1_555 1_555
O10 C25 1_555 1_555
C1 C2 1_555 1_555
C2 H2 1_555 1_555
C3 C2 1_555 1_555
H3 C3 1_555 1_555
H4 C3 1_555 1_555
C4 C3 1_555 1_555
H5 C4 1_555 1_555
H6 C4 1_555 1_555
C5 C4 1_555 1_555
C6 C5 1_555 1_555
H7 C6 1_555 1_555
C7 C6 1_555 1_555
H8 C7 1_555 1_555
C8 O5 1_555 1_555
C9 C8 1_555 1_555
H9 C9 1_555 1_555
C10 C1 1_555 1_555
H10 C10 1_555 1_555
C11 C10 1_555 1_555
C12 C11 1_555 1_555
H11 C12 1_555 1_555
H12 C12 1_555 1_555
C13 C12 1_555 1_555
H13 C13 1_555 1_555
H14 C13 1_555 1_555
C14 C1 1_555 1_555
H15 C14 1_555 1_555
C15 C1 1_555 1_555
H16 C15 1_555 1_555
H17 C15 1_555 1_555
H18 C15 1_555 1_555
C16 C5 1_555 1_555
H19 C16 1_555 1_555
H20 C16 1_555 1_555
C17 C8 1_555 1_555
H21 C17 1_555 1_555
C18 C17 1_555 1_555
H22 C18 1_555 1_555
H23 C18 1_555 1_555
H24 C18 1_555 1_555
C19 O3 1_555 1_555
C20 O8 1_555 1_555
H25 C20 1_555 1_555
H26 C20 1_555 1_555
C21 O1 1_555 1_555
C22 C21 1_555 1_555
H27 C22 1_555 1_555
H28 C22 1_555 1_555
H29 C22 1_555 1_555
C23 O6 1_555 1_555
C24 C23 1_555 1_555
H30 C24 1_555 1_555
H31 C24 1_555 1_555
H32 C24 1_555 1_555
C25 O9 1_555 1_555
C26 C25 1_555 1_555
H33 C26 1_555 1_555
H34 C26 1_555 1_555
H35 C26 1_555 1_555
C7 C8 1_555 1_555
C9 C10 1_555 1_555
C11 C20 1_555 1_555
C13 C14 1_555 1_555
C17 C19 1_555 1_555

#END
