
#######################################################################
#
#                 Cambridge Crystallographic Data Centre
#                                CCDC 
#
#######################################################################
#
# If this CIF has been generated from an entry in the Cambridge 
# Structural Database, then it will include bibliographic, chemical, 
# crystal, experimental, refinement or atomic coordinate data resulting 
# from the CCDC's data processing and validation procedures.
#
#######################################################################

data_TISRIX
_chemical_compound_source        
'gorgonian coral Ellisella robusta (Ellisellidae)'
_chemical_formula_moiety         'C26 H32 Cl2 O10'
_chemical_name_systematic        'Robustolide D'
_symmetry_cell_setting           monoclinic
_symmetry_space_group_name_H-M   'P 21'
_symmetry_Int_Tables_number      4
_space_group_name_Hall           'P 2yb'
loop_
_symmetry_equiv_pos_site_id
_symmetry_equiv_pos_as_xyz
1 x,y,z
2 -x,1/2+y,-z
_cell_length_a                   9.976(2)
_cell_length_b                   22.918(6)
_cell_length_c                   12.471(3)
_cell_angle_alpha                90
_cell_angle_beta                 95.314(17)
_cell_angle_gamma                90
_cell_volume                     2838.99
_exptl_crystal_colour            colorless
_exptl_crystal_description       prism
_chemical_melting_point          '171-172 deg.C'
_cell_formula_units_Z            4
_exptl_crystal_recrystallization_method ethanol/acetone
loop_
_atom_site_label
_atom_site_type_symbol
_atom_site_fract_x
_atom_site_fract_y
_atom_site_fract_z
Cl1 Cl 0.61172(15) 0.72702(7) 0.65475(12)
Cl2 Cl 0.46261(16) 0.36909(5) 0.54926(12)
O1 O 0.4916(4) 0.59083(16) 0.1631(2)
O2 O 0.6913(5) 0.63443(19) 0.1576(3)
O3 O 0.3284(3) 0.70251(15) 0.6832(3)
O4 O 0.2777(4) 0.67126(17) 0.8437(3)
O5 O 0.5160(3) 0.60416(14) 0.6554(2)
O6 O 0.2363(3) 0.59131(13) 0.4462(2)
O7 O 0.1019(4) 0.5167(2) 0.4857(4)
O8 O 0.5198(4) 0.49270(13) 0.6190(2)
O9 O 0.7469(3) 0.51381(14) 0.5276(3)
O10 O 0.8367(4) 0.44835(19) 0.6468(3)
C1 C 0.4557(4) 0.53973(18) 0.3267(3)
C2 C 0.4913(5) 0.6006(2) 0.2789(3)
H1 H 0.5820 0.6119 0.3085
C3 C 0.4000(6) 0.6492(2) 0.2900(4)
H2 H 0.3206 0.6492 0.2446
C4 C 0.4179(6) 0.6935(2) 0.3578(4)
H3 H 0.3529 0.7227 0.3507
C5 C 0.5286(6) 0.7022(2) 0.4436(4)
C6 C 0.4801(5) 0.7169(2) 0.5497(4)
H4 H 0.4384 0.7555 0.5392
C7 C 0.3675(5) 0.67749(19) 0.5830(4)
H5 H 0.2907 0.6818 0.5286
C8 C 0.3842(4) 0.61143(19) 0.6081(3)
C9 C 0.3482(4) 0.56675(19) 0.5143(3)
H6 H 0.3120 0.5323 0.5483
C10 C 0.4681(4) 0.54391(19) 0.4531(3)
H7 H 0.5425 0.5710 0.4719
C11 C 0.5138(4) 0.48449(18) 0.5059(3)
C12 C 0.6562(4) 0.4704(2) 0.4767(4)
H8 H 0.6827 0.4315 0.5033
C13 C 0.6594(5) 0.4725(2) 0.3572(4)
H9 H 0.7285 0.4534 0.3264
C14 C 0.5684(5) 0.5004(2) 0.2944(4)
H10 H 0.5732 0.4956 0.2209
C15 C 0.3210(5) 0.5181(2) 0.2720(4)
H11 H 0.2854 0.4883 0.3155
H12 H 0.3345 0.5023 0.2025
H13 H 0.2587 0.5500 0.2637
C16 C 0.6560(8) 0.7011(3) 0.4246(5)
H14 H 0.6793 0.6947 0.3550
H15 H 0.7229 0.7067 0.4806
C17 C 0.2825(5) 0.6043(2) 0.6934(4)
H16 H 0.1924 0.6033 0.6548
C18 C 0.2956(6) 0.5504(2) 0.7653(4)
H17 H 0.2366 0.5541 0.8215
H18 H 0.3869 0.5469 0.7966
H19 H 0.2717 0.5163 0.7231
C19 C 0.2954(5) 0.6604(2) 0.7513(5)
C20 C 0.4186(5) 0.43439(19) 0.4744(4)
H20 H 0.4202 0.4265 0.3981
H21 H 0.3276 0.4457 0.4868
C21 C 0.5966(7) 0.6102(2) 0.1134(4)
C22 C 0.5762(7) 0.5954(3) -0.0048(4)
H22 H 0.6523 0.6087 -0.0399
H23 H 0.4961 0.6142 -0.0365
H24 H 0.5672 0.5539 -0.0132
C23 C 0.1169(5) 0.5615(3) 0.4418(4)
C24 C 0.0098(6) 0.5945(4) 0.3738(5)
H25 H 0.0342 0.6350 0.3715
H26 H -0.0746 0.5907 0.4043
H27 H 0.0016 0.5789 0.3020
C25 C 0.8231(5) 0.4981(3) 0.6181(4)
C26 C 0.8830(6) 0.5496(3) 0.6739(5)
H28 H 0.9604 0.5380 0.7205
H29 H 0.8181 0.5674 0.7158
H30 H 0.9097 0.5771 0.6218
H31 H 0.533(7) 0.565(3) 0.665(6)
H32 H 0.491(7) 0.467(3) 0.648(6)
H33 H 1.208(7) 0.822(3) -0.033(6)
H34 H 1.208(7) 0.716(3) -0.043(6)
Cl3 Cl 1.20102(14) 0.97706(6) -0.10915(11)
Cl4 Cl 1.08708(15) 0.61864(5) 0.06024(11)
O11 O 0.5972(3) 0.82949(15) -0.0794(3)
O12 O 0.6151(4) 0.87303(17) -0.2379(3)
O13 O 1.2445(4) 0.96170(15) 0.1211(3)
O14 O 1.4530(4) 0.93735(18) 0.1883(3)
O15 O 1.1957(3) 0.85480(13) -0.0252(2)
O16 O 0.9674(3) 0.85061(13) 0.1853(2)
O17 O 1.0436(5) 0.7901(2) 0.3185(3)
O18 O 1.1666(3) 0.74047(13) -0.0082(2)
O19 O 1.0022(3) 0.75209(13) -0.1972(2)
O20 O 0.9956(4) 0.68518(19) -0.3278(3)
C27 C 0.7999(4) 0.78538(19) 0.0112(4)
C28 C 0.7407(4) 0.8400(2) -0.0500(4)
H35 H 0.7851 0.8443 -0.1164
C29 C 0.7489(5) 0.8967(2) 0.0077(4)
H36 H 0.6885 0.9024 0.0593
C30 C 0.8334(5) 0.9401(2) -0.0065(4)
H37 H 0.8224 0.9737 0.0337
C31 C 0.9433(5) 0.9417(2) -0.0787(4)
C32 C 1.0714(5) 0.9653(2) -0.0221(4)
H38 H 1.0480 1.0043 0.0022
C33 C 1.1206(5) 0.9323(2) 0.0812(4)
H39 H 1.0545 0.9381 0.1337
C34 C 1.1547(4) 0.86596(19) 0.0779(3)
C35 C 1.0449(4) 0.82146(19) 0.1085(3)
H40 H 1.0940 0.7900 0.1484
C36 C 0.9593(4) 0.79133(18) 0.0130(3)
H41 H 0.9740 0.8149 -0.0505
C37 C 1.0264(4) 0.73076(18) -0.0072(3)
C38 C 0.9683(4) 0.70787(19) -0.1188(3)
H42 H 1.0092 0.6703 -0.1344
C39 C 0.8207(5) 0.7020(2) -0.1211(4)
H43 H 0.7767 0.6742 -0.1657
C40 C 0.7505(5) 0.7350(2) -0.0618(4)
H44 H 0.6590 0.7268 -0.0645
C41 C 0.7401(5) 0.7776(2) 0.1195(4)
H45 H 0.7959 0.7516 0.1644
H46 H 0.6511 0.7617 0.1073
H47 H 0.7361 0.8148 0.1545
C42 C 0.9305(5) 0.9255(2) -0.1802(4)
H48 H 0.8480 0.9118 -0.2113
H49 H 1.0038 0.9276 -0.2210
C43 C 1.2762(5) 0.8637(2) 0.1641(4)
H50 H 1.2403 0.8598 0.2343
C44 C 1.3781(5) 0.8140(2) 0.1548(4)
H51 H 1.4495 0.8174 0.2116
H52 H 1.4148 0.8163 0.0864
H53 H 1.3337 0.7771 0.1606
C45 C 1.3381(6) 0.9225(2) 0.1606(4)
C46 C 1.0031(5) 0.68687(19) 0.0798(4)
H54 H 0.9073 0.6799 0.0800
H55 H 1.0356 0.7029 0.1494
C47 C 0.5486(5) 0.8482(2) -0.1778(4)
C48 C 0.4031(5) 0.8328(2) -0.2006(4)
H56 H 0.3795 0.8327 -0.2770
H57 H 0.3490 0.8609 -0.1674
H58 H 0.3873 0.7947 -0.1721
C49 C 0.9763(6) 0.8310(3) 0.2880(4)
C50 C 0.8896(7) 0.8664(3) 0.3548(5)
H59 H 0.9450 0.8854 0.4114
H60 H 0.8264 0.8413 0.3856
H61 H 0.8418 0.8952 0.3104
C51 C 1.0074(5) 0.7340(3) -0.2985(4)
C52 C 1.0310(7) 0.7854(3) -0.3703(4)
H62 H 1.0469 0.7717 -0.4408
H63 H 1.1079 0.8070 -0.3403
H64 H 0.9531 0.8103 -0.3756
loop_
_geom_bond_atom_site_label_1
_geom_bond_atom_site_label_2
_geom_bond_site_symmetry_1
_geom_bond_site_symmetry_2
Cl1 C6 1_555 1_555
Cl2 C20 1_555 1_555
O1 C2 1_555 1_555
O2 C21 1_555 1_555
O3 C7 1_555 1_555
O4 C19 1_555 1_555
O5 C8 1_555 1_555
O6 C9 1_555 1_555
O7 C23 1_555 1_555
O8 C11 1_555 1_555
O9 C12 1_555 1_555
O10 C25 1_555 1_555
C1 C2 1_555 1_555
C2 H1 1_555 1_555
C3 C2 1_555 1_555
H2 C3 1_555 1_555
C4 C3 1_555 1_555
H3 C4 1_555 1_555
C5 C4 1_555 1_555
C6 C5 1_555 1_555
H4 C6 1_555 1_555
C7 C6 1_555 1_555
H5 C7 1_555 1_555
C8 C7 1_555 1_555
C9 C8 1_555 1_555
H6 C9 1_555 1_555
C10 C1 1_555 1_555
H7 C10 1_555 1_555
C11 C10 1_555 1_555
C12 C11 1_555 1_555
H8 C12 1_555 1_555
C13 C12 1_555 1_555
H9 C13 1_555 1_555
C14 C1 1_555 1_555
H10 C14 1_555 1_555
C15 C1 1_555 1_555
H11 C15 1_555 1_555
H12 C15 1_555 1_555
H13 C15 1_555 1_555
C16 C5 1_555 1_555
H14 C16 1_555 1_555
H15 C16 1_555 1_555
C17 C8 1_555 1_555
H16 C17 1_555 1_555
C18 C17 1_555 1_555
H17 C18 1_555 1_555
H18 C18 1_555 1_555
H19 C18 1_555 1_555
C19 O3 1_555 1_555
C20 C11 1_555 1_555
H20 C20 1_555 1_555
H21 C20 1_555 1_555
C21 O1 1_555 1_555
C22 C21 1_555 1_555
H22 C22 1_555 1_555
H23 C22 1_555 1_555
H24 C22 1_555 1_555
C23 O6 1_555 1_555
C24 C23 1_555 1_555
H25 C24 1_555 1_555
H26 C24 1_555 1_555
H27 C24 1_555 1_555
C25 O9 1_555 1_555
C26 C25 1_555 1_555
H28 C26 1_555 1_555
H29 C26 1_555 1_555
H30 C26 1_555 1_555
H31 O5 1_555 1_555
H32 O8 1_555 1_555
H33 O15 1_555 1_555
H34 O18 1_555 1_555
Cl3 C32 1_555 1_555
Cl4 C46 1_555 1_555
O11 C28 1_555 1_555
O12 C47 1_555 1_555
O13 C33 1_555 1_555
O14 C45 1_555 1_555
O15 C34 1_555 1_555
O16 C35 1_555 1_555
O17 C49 1_555 1_555
O18 C37 1_555 1_555
O19 C38 1_555 1_555
O20 C51 1_555 1_555
C27 C28 1_555 1_555
C28 H35 1_555 1_555
C29 C28 1_555 1_555
H36 C29 1_555 1_555
C30 C29 1_555 1_555
H37 C30 1_555 1_555
C31 C30 1_555 1_555
C32 C31 1_555 1_555
H38 C32 1_555 1_555
C33 C32 1_555 1_555
H39 C33 1_555 1_555
C34 C33 1_555 1_555
C35 C34 1_555 1_555
H40 C35 1_555 1_555
C36 C27 1_555 1_555
H41 C36 1_555 1_555
C37 C36 1_555 1_555
C38 C37 1_555 1_555
H42 C38 1_555 1_555
C39 C38 1_555 1_555
H43 C39 1_555 1_555
C40 C27 1_555 1_555
H44 C40 1_555 1_555
C41 C27 1_555 1_555
H45 C41 1_555 1_555
H46 C41 1_555 1_555
H47 C41 1_555 1_555
C42 C31 1_555 1_555
H48 C42 1_555 1_555
H49 C42 1_555 1_555
C43 C34 1_555 1_555
H50 C43 1_555 1_555
C44 C43 1_555 1_555
H51 C44 1_555 1_555
H52 C44 1_555 1_555
H53 C44 1_555 1_555
C45 O13 1_555 1_555
C46 C37 1_555 1_555
H54 C46 1_555 1_555
H55 C46 1_555 1_555
C47 O11 1_555 1_555
C48 C47 1_555 1_555
H56 C48 1_555 1_555
H57 C48 1_555 1_555
H58 C48 1_555 1_555
C49 O16 1_555 1_555
C50 C49 1_555 1_555
H59 C50 1_555 1_555
H60 C50 1_555 1_555
H61 C50 1_555 1_555
C51 O19 1_555 1_555
C52 C51 1_555 1_555
H62 C52 1_555 1_555
H63 C52 1_555 1_555
H64 C52 1_555 1_555
C9 C10 1_555 1_555
C13 C14 1_555 1_555
C17 C19 1_555 1_555
C35 C36 1_555 1_555
C39 C40 1_555 1_555
C43 C45 1_555 1_555

#END
