
#######################################################################
#
#                 Cambridge Crystallographic Data Centre
#                                CCDC 
#
#######################################################################
#
# If this CIF has been generated from an entry in the Cambridge 
# Structural Database, then it will include bibliographic, chemical, 
# crystal, experimental, refinement or atomic coordinate data resulting 
# from the CCDC's data processing and validation procedures.
#
#######################################################################

data_TITMEO
_chemical_formula_moiety         'C36 H38 N2 O4 S2,C1 H1 Cl3'
_chemical_name_systematic        
'2,11-bis(4-Tolylsulfonyl)-2,11-diaza(3.3.3.3)(1,2,4,5)cyclophane chloroform clathrate'
_symmetry_cell_setting           monoclinic
_symmetry_space_group_name_H-M   'P 21/n'
_symmetry_Int_Tables_number      14
_space_group_name_Hall           '-P 2yn'
loop_
_symmetry_equiv_pos_site_id
_symmetry_equiv_pos_as_xyz
1 x,y,z
2 1/2-x,1/2+y,1/2-z
3 -x,-y,-z
4 1/2+x,1/2-y,1/2+z
_cell_length_a                   11.653(1)
_cell_length_b                   13.140(1)
_cell_length_c                   22.962(1)
_cell_angle_alpha                90
_cell_angle_beta                 91.97(1)
_cell_angle_gamma                90
_cell_volume                     3513.87
_exptl_crystal_colour            colorless
_cell_formula_units_Z            4
loop_
_atom_site_label
_atom_site_type_symbol
_atom_site_fract_x
_atom_site_fract_y
_atom_site_fract_z
C1 C 0.4002(4) -0.4431(4) 0.1781(2)
N1 N 0.4470(3) -0.4033(3) 0.1241(1)
C2 C 0.3950(4) -0.4405(4) 0.0682(2)
C3 C 0.2744(4) -0.3968(4) 0.0584(2)
C4 C 0.1748(4) -0.4554(4) 0.0594(2)
C5 C 0.0704(4) -0.4039(4) 0.0550(2)
C6 C 0.0598(4) -0.2995(4) 0.0576(2)
C7 C 0.1609(4) -0.2418(4) 0.0570(2)
C8 C 0.2653(4) -0.2920(4) 0.0548(2)
C9 C 0.1610(4) -0.1279(3) 0.0637(2)
N2 N 0.1125(3) -0.0953(3) 0.1203(1)
C10 C 0.1779(4) -0.1254(3) 0.1742(2)
C11 C 0.1743(4) -0.2382(3) 0.1859(2)
C12 C 0.0725(4) -0.2938(4) 0.1900(2)
C13 C 0.0804(4) -0.3980(4) 0.1958(2)
C14 C 0.1823(4) -0.4528(4) 0.1920(2)
C15 C 0.2834(3) -0.3965(4) 0.1882(2)
C16 C 0.2773(4) -0.2909(4) 0.1884(2)
C17 C 0.1722(5) -0.5690(4) 0.0704(2)
C18 C 0.1145(4) -0.5996(4) 0.1268(2)
C19 C 0.1744(4) -0.5669(4) 0.1843(2)
C20 C -0.0579(4) -0.2532(4) 0.0676(2)
C21 C -0.1079(4) -0.2812(4) 0.1260(2)
C22 C -0.0463(4) -0.2463(4) 0.1821(2)
S1 S 0.5816(1) -0.3698(1) 0.1268(1)
O1 O 0.6066(3) -0.3298(3) 0.0706(2)
O2 O 0.5980(3) -0.3065(3) 0.1773(2)
C23 C 0.6648(3) -0.4802(3) 0.1393(2)
C24 C 0.7117(4) -0.5287(4) 0.0920(2)
C25 C 0.7737(4) -0.6172(4) 0.1009(2)
C26 C 0.7877(4) -0.6595(4) 0.1555(3)
C27 C 0.7407(4) -0.6088(4) 0.2019(2)
C28 C 0.6799(4) -0.5208(4) 0.1941(2)
C29 C 0.8533(5) -0.7582(5) 0.1647(3)
S2 S 0.0614(1) 0.0218(1) 0.1199(1)
O3 O 0.0200(3) 0.0400(3) 0.1765(1)
O4 O -0.0160(3) 0.0301(3) 0.0703(1)
C30 C 0.1794(4) 0.1012(3) 0.1085(2)
C31 C 0.2470(5) 0.1357(4) 0.1560(2)
C32 C 0.3464(5) 0.1892(4) 0.1463(2)
C33 C 0.3811(4) 0.2099(4) 0.0910(2)
C34 C 0.3108(5) 0.1768(4) 0.0444(2)
C35 C 0.2124(4) 0.1228(4) 0.0527(2)
C36 C 0.4937(5) 0.2625(5) 0.0813(3)
H1 H 0.4522(4) -0.4271(4) 0.2108(2)
H2 H 0.3931(4) -0.5165(4) 0.1756(2)
H3 H 0.3910(4) -0.5143(4) 0.0689(2)
H4 H 0.4426(4) -0.4205(4) 0.0364(2)
H5 H 0.0037(4) -0.4423(4) 0.0500(2)
H6 H 0.3317(4) -0.2537(4) 0.0506(2)
H7 H 0.2390(4) -0.1029(3) 0.0616(2)
H8 H 0.1160(4) -0.0979(3) 0.0318(2)
H9 H 0.1468(4) -0.0896(3) 0.2070(2)
H10 H 0.2573(4) -0.1045(3) 0.1709(2)
H11 H 0.0136(4) -0.4340(4) 0.2027(2)
H12 H 0.3454(4) -0.2539(4) 0.1904(2)
H13 H 0.2504(5) -0.5944(4) 0.0718(2)
H14 H 0.1319(5) -0.6017(4) 0.0378(2)
H15 H 0.1071(4) -0.6731(4) 0.1272(2)
H16 H 0.0375(4) -0.5715(4) 0.1257(2)
H17 H 0.1329(4) -0.5952(4) 0.2164(2)
H18 H 0.2513(4) -0.5952(4) 0.1861(2)
H19 H -0.0519(4) -0.1797(4) 0.0652(2)
H20 H -0.1107(4) -0.2755(4) 0.0366(2)
H21 H -0.1856(4) -0.2547(4) 0.1261(2)
H22 H -0.1136(4) -0.3548(4) 0.1275(2)
H23 H -0.0390(4) -0.1728(4) 0.1816(2)
H24 H -0.0921(4) -0.2646(4) 0.2150(2)
H25 H 0.7015(4) -0.5019(4) 0.0547(2)
H26 H 0.8066(4) -0.6488(4) 0.0693(2)
H27 H 0.7509(4) -0.6354(4) 0.2393(2)
H28 H 0.6487(4) -0.4884(4) 0.2259(2)
H29 H 0.8862(34) -0.7786(19) 0.1288(6)
H30 H 0.8018(10) -0.8102(10) 0.1773(20)
H31 H 0.9133(26) -0.7483(11) 0.1938(15)
H32 H 0.2251(5) 0.1227(4) 0.1939(2)
H33 H 0.3911(5) 0.2118(4) 0.1781(2)
H34 H 0.3314(5) 0.1919(4) 0.0066(2)
H35 H 0.1679(4) 0.1006(4) 0.0208(2)
H36 H 0.5552(6) 0.2142(8) 0.0853(18)
H37 H 0.5049(18) 0.3158(21) 0.1095(12)
H38 H 0.4928(15) 0.2911(29) 0.0428(7)
C37 C 0.5976(5) -0.0693(5) 0.1271(3)
Cl1 Cl 0.7296(2) -0.0248(2) 0.1098(1)
Cl2 Cl 0.4978(2) -0.0535(2) 0.0702(1)
Cl3 Cl 0.5457(2) -0.0113(2) 0.1882(1)
H39 H 0.6046(5) -0.1423(5) 0.1352(3)
loop_
_geom_bond_atom_site_label_1
_geom_bond_atom_site_label_2
_geom_bond_site_symmetry_1
_geom_bond_site_symmetry_2
C1 N1 1_555 1_555
N1 C2 1_555 1_555
C2 C3 1_555 1_555
C3 C4 1_555 1_555
C4 C5 1_555 1_555
C5 C6 1_555 1_555
C6 C7 1_555 1_555
C7 C8 1_555 1_555
C8 C3 1_555 1_555
C9 C7 1_555 1_555
N2 C9 1_555 1_555
C10 N2 1_555 1_555
C11 C10 1_555 1_555
C12 C11 1_555 1_555
C13 C12 1_555 1_555
C14 C13 1_555 1_555
C15 C1 1_555 1_555
C16 C11 1_555 1_555
C17 C4 1_555 1_555
C18 C17 1_555 1_555
C19 C14 1_555 1_555
C20 C6 1_555 1_555
C21 C20 1_555 1_555
C22 C12 1_555 1_555
S1 N1 1_555 1_555
O1 S1 1_555 1_555
O2 S1 1_555 1_555
C23 S1 1_555 1_555
C24 C23 1_555 1_555
C25 C24 1_555 1_555
C26 C25 1_555 1_555
C27 C26 1_555 1_555
C28 C23 1_555 1_555
C29 C26 1_555 1_555
S2 N2 1_555 1_555
O3 S2 1_555 1_555
O4 S2 1_555 1_555
C30 S2 1_555 1_555
C31 C30 1_555 1_555
C32 C31 1_555 1_555
C33 C32 1_555 1_555
C34 C33 1_555 1_555
C35 C30 1_555 1_555
C36 C33 1_555 1_555
C37 Cl1 1_555 1_555
Cl2 C37 1_555 1_555
Cl3 C37 1_555 1_555
H1 C1 1_555 1_555
H2 C1 1_555 1_555
H3 C2 1_555 1_555
H4 C2 1_555 1_555
H5 C5 1_555 1_555
H6 C8 1_555 1_555
H7 C9 1_555 1_555
H8 C9 1_555 1_555
H9 C10 1_555 1_555
H10 C10 1_555 1_555
H11 C13 1_555 1_555
H12 C16 1_555 1_555
H13 C17 1_555 1_555
H14 C17 1_555 1_555
H15 C18 1_555 1_555
H16 C18 1_555 1_555
H17 C19 1_555 1_555
H18 C19 1_555 1_555
H19 C20 1_555 1_555
H20 C20 1_555 1_555
H21 C21 1_555 1_555
H22 C21 1_555 1_555
H23 C22 1_555 1_555
H24 C22 1_555 1_555
H25 C24 1_555 1_555
H26 C25 1_555 1_555
H27 C27 1_555 1_555
H28 C28 1_555 1_555
H29 C29 1_555 1_555
H30 C29 1_555 1_555
H31 C29 1_555 1_555
H32 C31 1_555 1_555
H33 C32 1_555 1_555
H34 C34 1_555 1_555
H35 C35 1_555 1_555
H36 C36 1_555 1_555
H37 C36 1_555 1_555
H38 C36 1_555 1_555
H39 C37 1_555 1_555
C14 C15 1_555 1_555
C15 C16 1_555 1_555
C18 C19 1_555 1_555
C21 C22 1_555 1_555
C27 C28 1_555 1_555
C34 C35 1_555 1_555

#END
