
#######################################################################
#
#                 Cambridge Crystallographic Data Centre
#                                CCDC 
#
#######################################################################
#
# If this CIF has been generated from an entry in the Cambridge 
# Structural Database, then it will include bibliographic, chemical, 
# crystal, experimental, refinement or atomic coordinate data resulting 
# from the CCDC's data processing and validation procedures.
#
#######################################################################

data_TITMIS
_chemical_formula_moiety         'C36 H38 N2 O4 S2,2(C7 H8)'
_chemical_name_systematic        
'2,11-bis(4-Tolylsulfonyl)-2,11-diaza(3.3.3.3)(1,2,4,5)cyclophane toluene clathrate'
_symmetry_cell_setting           triclinic
_symmetry_space_group_name_H-M   'P -1'
_symmetry_Int_Tables_number      2
_space_group_name_Hall           '-P 1'
loop_
_symmetry_equiv_pos_site_id
_symmetry_equiv_pos_as_xyz
1 x,y,z
2 -x,-y,-z
_cell_length_a                   11.928(3)
_cell_length_b                   13.018(2)
_cell_length_c                   15.814(3)
_cell_angle_alpha                78.91(2)
_cell_angle_beta                 70.69(2)
_cell_angle_gamma                68.06(2)
_cell_volume                     2142.95
_exptl_crystal_colour            colorless
_cell_formula_units_Z            2
loop_
_atom_site_label
_atom_site_type_symbol
_atom_site_fract_x
_atom_site_fract_y
_atom_site_fract_z
C1 C 0.0996(3) 0.2199(3) 0.3347(2)
N1 N 0.0832(2) 0.2406(2) 0.4276(2)
C2 C 0.0752(3) 0.3514(3) 0.4430(2)
C3 C -0.0429(3) 0.4415(3) 0.4297(2)
C4 C -0.1640(3) 0.4393(3) 0.4775(2)
C5 C -0.2657(3) 0.5229(3) 0.4548(2)
C6 C -0.2537(3) 0.6010(3) 0.3817(2)
C7 C -0.1335(3) 0.6028(3) 0.3352(2)
C8 C -0.0315(3) 0.5257(3) 0.3633(2)
C9 C -0.1055(3) 0.6776(3) 0.2507(2)
N2 N -0.1425(3) 0.6565(2) 0.1771(2)
C10 C -0.0730(3) 0.5466(3) 0.1392(2)
C11 C -0.0987(3) 0.4511(3) 0.2047(2)
C12 C -0.2190(3) 0.4453(3) 0.2464(2)
C13 C -0.2319(3) 0.3588(3) 0.3105(2)
C14 C -0.1332(3) 0.2844(3) 0.3432(2)
C15 C -0.0132(3) 0.2903(2) 0.3007(2)
C16 C 0.0020(3) 0.3699(3) 0.2304(2)
C17 C -0.1892(4) 0.3440(3) 0.5441(2)
C18 C -0.2446(4) 0.2744(3) 0.5107(3)
C19 C -0.1639(4) 0.2107(3) 0.4279(2)
C20 C -0.3696(3) 0.6698(3) 0.3502(3)
C21 C -0.4222(3) 0.5992(3) 0.3163(3)
C22 C -0.3392(3) 0.5362(3) 0.2326(3)
S1 S 0.1590(1) 0.1352(1) 0.4858(1)
O1 O 0.1323(3) 0.0411(2) 0.4753(2)
O2 O 0.1276(3) 0.1709(2) 0.5728(2)
C23 C 0.3208(3) 0.1103(3) 0.4345(2)
C24 C 0.3843(4) 0.0421(3) 0.3650(3)
C25 C 0.5108(4) 0.0246(3) 0.3240(3)
C26 C 0.5770(3) 0.0724(3) 0.3512(3)
C27 C 0.5106(4) 0.1400(4) 0.4224(3)
C28 C 0.3842(4) 0.1596(3) 0.4636(3)
C29 C 0.7137(4) 0.0528(4) 0.3073(3)
S2 S -0.1768(1) 0.7633(1) 0.1043(1)
O3 O -0.2622(2) 0.8549(2) 0.1550(2)
O4 O -0.2145(3) 0.7284(2) 0.0410(2)
C30 C -0.0375(3) 0.7925(3) 0.0481(2)
C31 C -0.0021(4) 0.8591(3) 0.0848(3)
C32 C 0.1105(4) 0.8763(4) 0.0447(3)
C33 C 0.1913(4) 0.8304(4) -0.0335(3)
C34 C 0.1544(5) 0.7659(4) -0.0708(3)
C35 C 0.0417(4) 0.7461(3) -0.0312(3)
C36 C 0.3164(5) 0.8487(5) -0.0744(4)
H1 H 0.1131(3) 0.1420(3) 0.3327(2)
H2 H 0.1741(3) 0.2354(3) 0.2950(2)
H3 H 0.1480(3) 0.3686(3) 0.4021(2)
H4 H 0.0779(3) 0.3502(3) 0.5038(2)
H5 H -0.3465(3) 0.5270(3) 0.4907(2)
H6 H 0.0480(3) 0.5316(3) 0.3357(2)
H7 H -0.1501(3) 0.7545(3) 0.2645(2)
H8 H -0.0159(3) 0.6665(3) 0.2308(2)
H9 H 0.0167(3) 0.5346(3) 0.1212(2)
H10 H -0.0964(3) 0.5473(3) 0.0859(2)
H11 H -0.3102(3) 0.3496(3) 0.3331(2)
H12 H 0.0833(3) 0.3691(3) 0.1987(2)
H13 H -0.2475(4) 0.3738(3) 0.6001(2)
H14 H -0.1109(4) 0.2956(3) 0.5565(2)
H15 H -0.2662(4) 0.2212(3) 0.5597(3)
H16 H -0.3226(4) 0.3240(3) 0.4987(3)
H17 H -0.0857(4) 0.1600(3) 0.4391(2)
H18 H -0.2079(4) 0.1665(3) 0.4182(2)
H19 H -0.3480(3) 0.7240(3) 0.3023(3)
H20 H -0.4348(3) 0.7100(3) 0.3997(3)
H21 H -0.4429(3) 0.5453(3) 0.3649(3)
H22 H -0.5006(3) 0.6478(3) 0.3041(3)
H23 H -0.3878(3) 0.5027(3) 0.2153(3)
H24 H -0.3161(3) 0.5888(3) 0.1836(3)
H25 H 0.3421(4) 0.0079(3) 0.3457(3)
H26 H 0.5526(4) -0.0209(3) 0.2765(3)
H27 H 0.5530(4) 0.1730(4) 0.4427(3)
H28 H 0.3418(4) 0.2056(3) 0.5106(3)
H29 H 0.7614(4) 0.0040(22) 0.3464(10)
H30 H 0.7290(6) 0.1222(5) 0.2952(19)
H31 H 0.7388(8) 0.0194(25) 0.2519(11)
H32 H -0.0553(4) 0.8925(3) 0.1373(3)
H33 H 0.1331(4) 0.9205(4) 0.0713(3)
H34 H 0.2068(5) 0.7347(4) -0.1243(3)
H35 H 0.0192(4) 0.7018(3) -0.0578(3)
H36 H 0.3051(8) 0.9253(9) -0.0725(27)
H37 H 0.3497(20) 0.8298(35) -0.1357(10)
H38 H 0.3741(14) 0.8027(28) -0.0410(19)
C37 C 0.3644(4) 0.3518(4) 0.1386(4)
C38 C 0.3780(4) 0.3475(4) 0.2233(4)
C39 C 0.3594(5) 0.4446(6) 0.2582(3)
C40 C 0.3273(5) 0.5461(5) 0.2085(5)
C41 C 0.3137(5) 0.5504(4) 0.1237(4)
C42 C 0.3323(4) 0.4533(5) 0.0888(3)
C43 C 0.3312(10) 0.4547(10) 0.0061(7)
H39 H 0.3769(4) 0.2868(4) 0.1152(4)
H40 H 0.3995(6) 0.2796(5) 0.2566(6)
H41 H 0.3685(7) 0.4418(9) 0.3149(4)
H42 H 0.3148(8) 0.6111(6) 0.2318(6)
H43 H 0.2921(7) 0.6183(5) 0.0904(6)
H44 H 0.346(10) 0.3808(18) -0.0069(25)
H45 H 0.3961(69) 0.4816(88) -0.0346(8)
H46 H 0.2507(37) 0.5026(73) -0.0010(21)
C44 C 0.2066(4) 0.0500(3) 0.1622(3)
C45 C 0.3259(5) 0.0519(3) 0.1116(2)
C46 C 0.4319(3) -0.0388(4) 0.1187(3)
C47 C 0.4186(4) -0.1313(3) 0.1764(3)
C48 C 0.2993(5) -0.1331(3) 0.2270(2)
C49 C 0.1933(3) -0.0425(4) 0.2199(2)
C50 C 0.0731(6) -0.0467(7) 0.2730(4)
H47 H 0.1356(4) 0.1107(3) 0.1574(3)
H48 H 0.3348(7) 0.1138(4) 0.0730(3)
H49 H 0.5118(4) -0.0375(6) 0.0848(4)
H50 H 0.4896(5) -0.1919(4) 0.1811(4)
H51 H 0.2904(6) -0.1950(4) 0.2656(3)
H52 H 0.0090(7) 0.0097(34) 0.2497(25)
H53 H 0.0603(25) -0.0341(52) 0.3339(10)
H54 H 0.0687(21) -0.1184(18) 0.2715(33)
loop_
_geom_bond_atom_site_label_1
_geom_bond_atom_site_label_2
_geom_bond_site_symmetry_1
_geom_bond_site_symmetry_2
C1 N1 1_555 1_555
N1 C2 1_555 1_555
C2 C3 1_555 1_555
C3 C4 1_555 1_555
C4 C5 1_555 1_555
C5 C6 1_555 1_555
C6 C7 1_555 1_555
C7 C8 1_555 1_555
C8 C3 1_555 1_555
C9 C7 1_555 1_555
N2 C9 1_555 1_555
C10 N2 1_555 1_555
C11 C10 1_555 1_555
C12 C11 1_555 1_555
C13 C12 1_555 1_555
C14 C13 1_555 1_555
C15 C1 1_555 1_555
C16 C11 1_555 1_555
C17 C4 1_555 1_555
C18 C17 1_555 1_555
C19 C14 1_555 1_555
C20 C6 1_555 1_555
C21 C20 1_555 1_555
C22 C12 1_555 1_555
S1 N1 1_555 1_555
O1 S1 1_555 1_555
O2 S1 1_555 1_555
C23 S1 1_555 1_555
C24 C23 1_555 1_555
C25 C24 1_555 1_555
C26 C25 1_555 1_555
C27 C26 1_555 1_555
C28 C23 1_555 1_555
C29 C26 1_555 1_555
S2 N2 1_555 1_555
O3 S2 1_555 1_555
O4 S2 1_555 1_555
C30 S2 1_555 1_555
C31 C30 1_555 1_555
C32 C31 1_555 1_555
C33 C32 1_555 1_555
C34 C33 1_555 1_555
C35 C30 1_555 1_555
C36 C33 1_555 1_555
C37 C38 1_555 1_555
C38 C39 1_555 1_555
C39 C40 1_555 1_555
C40 C41 1_555 1_555
C41 C42 1_555 1_555
C42 C37 1_555 1_555
C43 C42 1_555 1_555
C44 C45 1_555 1_555
C45 C46 1_555 1_555
C46 C47 1_555 1_555
C47 C48 1_555 1_555
C48 C49 1_555 1_555
C49 C44 1_555 1_555
C50 C49 1_555 1_555
H1 C1 1_555 1_555
H2 C1 1_555 1_555
H3 C2 1_555 1_555
H4 C2 1_555 1_555
H5 C5 1_555 1_555
H6 C8 1_555 1_555
H7 C9 1_555 1_555
H8 C9 1_555 1_555
H9 C10 1_555 1_555
H10 C10 1_555 1_555
H11 C13 1_555 1_555
H12 C16 1_555 1_555
H13 C17 1_555 1_555
H14 C17 1_555 1_555
H15 C18 1_555 1_555
H16 C18 1_555 1_555
H17 C19 1_555 1_555
H18 C19 1_555 1_555
H19 C20 1_555 1_555
H20 C20 1_555 1_555
H21 C21 1_555 1_555
H22 C21 1_555 1_555
H23 C22 1_555 1_555
H24 C22 1_555 1_555
H25 C24 1_555 1_555
H26 C25 1_555 1_555
H27 C27 1_555 1_555
H28 C28 1_555 1_555
H29 C29 1_555 1_555
H30 C29 1_555 1_555
H31 C29 1_555 1_555
H32 C31 1_555 1_555
H33 C32 1_555 1_555
H34 C34 1_555 1_555
H35 C35 1_555 1_555
H36 C36 1_555 1_555
H37 C36 1_555 1_555
H38 C36 1_555 1_555
H39 C37 1_555 1_555
H40 C38 1_555 1_555
H41 C39 1_555 1_555
H42 C40 1_555 1_555
H43 C41 1_555 1_555
H44 C43 1_555 1_555
H45 C43 1_555 1_555
H46 C43 1_555 1_555
H47 C44 1_555 1_555
H48 C45 1_555 1_555
H49 C46 1_555 1_555
H50 C47 1_555 1_555
H51 C48 1_555 1_555
H52 C50 1_555 1_555
H53 C50 1_555 1_555
H54 C50 1_555 1_555
C14 C15 1_555 1_555
C15 C16 1_555 1_555
C18 C19 1_555 1_555
C21 C22 1_555 1_555
C27 C28 1_555 1_555
C34 C35 1_555 1_555

#END
