
#######################################################################
#
#                 Cambridge Crystallographic Data Centre
#                                CCDC 
#
#######################################################################
#
# If this CIF has been generated from an entry in the Cambridge 
# Structural Database, then it will include bibliographic, chemical, 
# crystal, experimental, refinement or atomic coordinate data resulting 
# from the CCDC's data processing and validation procedures.
#
#######################################################################

data_TITPUH
_chemical_formula_moiety         'C17 H10 Cl10 O1'
_chemical_name_systematic        
endo,endo,exo-1,5,6,7,8,12,13,14,15,15-Decachloro-3,10-dimethyl-15-oxapentacyclo(10.2.1.1^3,10^.0^2,11^.0^4,9^)hexadeca-5,7,13-triene
_symmetry_cell_setting           monoclinic
_symmetry_space_group_name_H-M   'P 21/c'
_symmetry_Int_Tables_number      14
_space_group_name_Hall           '-P 2ybc'
loop_
_symmetry_equiv_pos_site_id
_symmetry_equiv_pos_as_xyz
1 x,y,z
2 -x,1/2+y,1/2-z
3 -x,-y,-z
4 x,1/2-y,1/2+z
_cell_length_a                   15.300(3)
_cell_length_b                   8.364(2)
_cell_length_c                   17.015(3)
_cell_angle_alpha                90
_cell_angle_beta                 93.34(3)
_cell_angle_gamma                90
_cell_volume                     2173.7
_exptl_crystal_colour            colorless
_chemical_melting_point          303-304K
_cell_formula_units_Z            4
loop_
_atom_site_label
_atom_site_type_symbol
_atom_site_fract_x
_atom_site_fract_y
_atom_site_fract_z
C1 C 0.6365(2) 0.2178(3) 0.9354(1)
Cl1 Cl 0.5801(1) 0.1727(1) 1.0194(1)
C2 C 0.6392(2) 0.3988(3) 0.9148(1)
C3 C 0.7007(2) 0.5302(3) 0.9522(1)
C4 C 0.7979(2) 0.4739(2) 0.9624(1)
C5 C 0.8545(2) 0.5791(3) 1.0164(1)
Cl2 Cl 0.8381(1) 0.5574(1) 1.1154(1)
C6 C 0.9168(2) 0.6751(3) 0.9925(1)
Cl3 Cl 0.9790(1) 0.7902(1) 1.0586(1)
C7 C 0.9411(2) 0.6731(3) 0.9107(2)
Cl4 Cl 1.0272(1) 0.7921(1) 0.8858(1)
C8 C 0.9031(2) 0.5728(3) 0.8590(1)
Cl5 Cl 0.9457(1) 0.5409(1) 0.7686(1)
C9 C 0.8250(2) 0.4703(3) 0.8748(1)
C10 C 0.7384(2) 0.5270(3) 0.8292(1)
C11 C 0.6648(2) 0.3989(3) 0.8279(1)
C12 C 0.6718(2) 0.2181(3) 0.8084(1)
Cl6 Cl 0.6657(1) 0.1760(1) 0.7071(1)
C13 C 0.7458(2) 0.1369(3) 0.8563(2)
Cl7 Cl 0.8355(1) 0.0544(1) 0.8177(1)
C14 C 0.7252(2) 0.1367(3) 0.9309(1)
Cl8 Cl 0.7822(1) 0.0511(1) 1.0084(1)
C15 C 0.5942(2) 0.1523(3) 0.8555(1)
Cl9 Cl 0.4905(1) 0.2338(1) 0.8272(1)
Cl10 Cl 0.5842(1) -0.0583(1) 0.8525(1)
C16 C 0.6600(2) 0.6187(4) 1.0185(2)
C17 C 0.7445(2) 0.6117(4) 0.7511(2)
O1 O 0.7046(1) 0.6360(2) 0.8856(1)
H1 H 0.5796(16) 0.4379(29) 0.9180(14)
H2 H 0.8018(15) 0.3707(30) 0.9855(14)
H3 H 0.8394(15) 0.3642(30) 0.8586(14)
H4 H 0.6176(18) 0.4438(34) 0.7922(17)
H5 H 0.6516(20) 0.5520(39) 1.0612(19)
H6 H 0.6048(23) 0.6585(40) 0.9986(9)
H7 H 0.6922(18) 0.7065(36) 1.0347(16)
H8 H 0.7831(21) 0.7026(40) 0.7545(18)
H9 H 0.6902(24) 0.6469(45) 0.7346(22)
H10 H 0.7633(21) 0.5371(39) 0.7095(20)
loop_
_geom_bond_atom_site_label_1
_geom_bond_atom_site_label_2
_geom_bond_site_symmetry_1
_geom_bond_site_symmetry_2
C1 Cl1 1_555 1_555
C2 C1 1_555 1_555
C3 C2 1_555 1_555
C4 C3 1_555 1_555
C5 C4 1_555 1_555
Cl2 C5 1_555 1_555
C6 C5 1_555 1_555
Cl3 C6 1_555 1_555
C7 C6 1_555 1_555
Cl4 C7 1_555 1_555
C8 C7 1_555 1_555
Cl5 C8 1_555 1_555
C9 C4 1_555 1_555
C10 C9 1_555 1_555
C11 C2 1_555 1_555
C12 C11 1_555 1_555
Cl6 C12 1_555 1_555
C13 C12 1_555 1_555
Cl7 C13 1_555 1_555
C14 C1 1_555 1_555
Cl8 C14 1_555 1_555
C15 C1 1_555 1_555
Cl9 C15 1_555 1_555
Cl10 C15 1_555 1_555
C16 C3 1_555 1_555
C17 C10 1_555 1_555
O1 C3 1_555 1_555
H1 C2 1_555 1_555
H2 C4 1_555 1_555
H3 C9 1_555 1_555
H4 C11 1_555 1_555
H5 C16 1_555 1_555
H6 C16 1_555 1_555
H7 C16 1_555 1_555
H8 C17 1_555 1_555
H9 C17 1_555 1_555
H10 C17 1_555 1_555
C8 C9 1_555 1_555
C10 C11 1_555 1_555
C10 O1 1_555 1_555
C12 C15 1_555 1_555
C13 C14 1_555 1_555

#END
