
#######################################################################
#
#                 Cambridge Crystallographic Data Centre
#                                CCDC 
#
#######################################################################
#
# If this CIF has been generated from an entry in the Cambridge 
# Structural Database, then it will include bibliographic, chemical, 
# crystal, experimental, refinement or atomic coordinate data resulting 
# from the CCDC's data processing and validation procedures.
#
#######################################################################

data_TITPOB
_chemical_name_common            13-syn-Dechlorohomoisodrin
_chemical_formula_moiety         'C13 H11 Cl5'
_chemical_name_systematic        
endo,endo-3,4,5,6-anti-13-Pentachlorotetracyclo(6.2.2.1^3,6^.0^2,7^)trideca-4,9-diene
_symmetry_cell_setting           triclinic
_symmetry_space_group_name_H-M   'P -1'
_symmetry_Int_Tables_number      2
_space_group_name_Hall           '-P 1'
loop_
_symmetry_equiv_pos_site_id
_symmetry_equiv_pos_as_xyz
1 x,y,z
2 -x,-y,-z
_cell_length_a                   12.147(2)
_cell_length_b                   13.934(2)
_cell_length_c                   8.830(2)
_cell_angle_alpha                91.16(2)
_cell_angle_beta                 92.78(2)
_cell_angle_gamma                110.41(2)
_cell_volume                     1397.96
_exptl_crystal_colour            colorless
_chemical_melting_point          152.5-153.5deg.C
_cell_formula_units_Z            4
loop_
_atom_site_label
_atom_site_type_symbol
_atom_site_fract_x
_atom_site_fract_y
_atom_site_fract_z
C1 C 0.7188(2) 0.2816(2) 0.7872(3)
C2 C 0.6922(2) 0.2318(2) 0.6273(3)
C3 C 0.7883(2) 0.2633(2) 0.5103(3)
Cl1 Cl 0.8095(1) 0.3835(1) 0.4331(1)
C4 C 0.8992(2) 0.2475(2) 0.5703(3)
Cl2 Cl 1.0247(1) 0.3432(1) 0.6348(1)
C5 C 0.8751(2) 0.1472(2) 0.5764(3)
Cl3 Cl 0.9629(1) 0.0856(1) 0.6493(1)
C6 C 0.7478(2) 0.0948(2) 0.5217(3)
Cl4 Cl 0.7100(1) -0.0346(1) 0.4599(1)
C7 C 0.6634(2) 0.1142(2) 0.6350(3)
C8 C 0.6695(3) 0.0863(2) 0.8019(3)
C9 C 0.7835(3) 0.1503(2) 0.8823(3)
C10 C 0.8087(3) 0.2501(2) 0.8748(3)
C11 C 0.7448(2) 0.1701(2) 0.3974(3)
Cl5 Cl 0.6043(1) 0.1459(1) 0.3053(1)
C12 C 0.5725(3) 0.1172(2) 0.8740(3)
C13 C 0.6021(3) 0.2336(2) 0.8676(4)
H1 H 0.7426(2) 0.3574(2) 0.7848(3)
H2 H 0.6255(2) 0.2425(2) 0.5852(3)
H3 H 0.5828(2) 0.0798(2) 0.5934(3)
H4 H 0.6556(3) 0.0159(2) 0.8107(3)
H5 H 0.8316(3) 0.1228(2) 0.9323(3)
H6 H 0.8786(3) 0.2985(2) 0.9214(3)
H7 H 0.8039(2) 0.1740(2) 0.3231(3)
H8 H 0.4980(3) 0.0821(2) 0.8203(3)
H9 H 0.5664(3) 0.0974(2) 0.9779(3)
H10 H 0.6105(3) 0.2635(2) 0.9700(4)
H11 H 0.5386(3) 0.2478(2) 0.8120(4)
C14 C 0.5620(2) -0.4077(2) 0.8312(3)
C15 C 0.6546(2) -0.3073(2) 0.8965(2)
C16 C 0.7406(2) -0.3092(2) 1.0330(2)
Cl6 Cl 0.6762(1) -0.3257(1) 1.2083(1)
C17 C 0.8059(2) -0.3806(2) 0.9981(3)
Cl7 Cl 0.7773(1) -0.4983(1) 1.0708(1)
C18 C 0.8789(2) -0.3383(2) 0.8918(3)
Cl8 Cl 0.9642(1) -0.3900(1) 0.7965(1)
C19 C 0.8636(2) -0.2378(2) 0.8562(3)
Cl9 Cl 0.9833(1) -0.1486(1) 0.7696(1)
C20 C 0.7409(2) -0.2563(2) 0.7736(3)
C21 C 0.7043(2) -0.3221(2) 0.6260(3)
C22 C 0.6905(3) -0.4312(2) 0.6522(3)
C23 C 0.6185(2) -0.4748(2) 0.7575(3)
C24 C 0.8432(2) -0.2075(2) 1.0165(3)
Cl10 Cl 0.8085(1) -0.0951(1) 1.0361(1)
C25 C 0.5782(2) -0.3225(2) 0.5813(3)
C26 C 0.4938(2) -0.3753(2) 0.7020(3)
H12 H 0.5082(2) -0.4448(2) 0.9109(3)
H13 H 0.6145(2) -0.2616(2) 0.9242(2)
H14 H 0.7347(2) -0.1915(2) 0.7550(3)
H15 H 0.7572(2) -0.2944(2) 0.5490(3)
H16 H 0.7306(3) -0.4664(2) 0.5970(3)
H17 H 0.6039(2) -0.5423(2) 0.7842(3)
H18 H 0.9089(2) -0.2038(2) 1.0848(3)
H19 H 0.5803(2) -0.2524(2) 0.5723(3)
H20 H 0.5507(2) -0.3585(2) 0.4836(3)
H21 H 0.4304(2) -0.4365(2) 0.6559(3)
H22 H 0.4571(2) -0.3277(2) 0.7433(3)
loop_
_geom_bond_atom_site_label_1
_geom_bond_atom_site_label_2
_geom_bond_site_symmetry_1
_geom_bond_site_symmetry_2
C1 C2 1_555 1_555
C2 C3 1_555 1_555
C3 Cl1 1_555 1_555
C4 C3 1_555 1_555
Cl2 C4 1_555 1_555
C5 C4 1_555 1_555
Cl3 C5 1_555 1_555
C6 C5 1_555 1_555
Cl4 C6 1_555 1_555
C7 C2 1_555 1_555
C8 C7 1_555 1_555
C9 C8 1_555 1_555
C10 C1 1_555 1_555
C11 C3 1_555 1_555
Cl5 C11 1_555 1_555
C12 C8 1_555 1_555
C13 C1 1_555 1_555
C14 C15 1_555 1_555
C15 C16 1_555 1_555
C16 Cl6 1_555 1_555
C17 C16 1_555 1_555
Cl7 C17 1_555 1_555
C18 C17 1_555 1_555
Cl8 C18 1_555 1_555
C19 C18 1_555 1_555
Cl9 C19 1_555 1_555
C20 C15 1_555 1_555
C21 C20 1_555 1_555
C22 C21 1_555 1_555
C23 C14 1_555 1_555
C24 C16 1_555 1_555
Cl10 C24 1_555 1_555
C25 C21 1_555 1_555
C26 C14 1_555 1_555
H1 C1 1_555 1_555
H2 C2 1_555 1_555
H3 C7 1_555 1_555
H4 C8 1_555 1_555
H5 C9 1_555 1_555
H6 C10 1_555 1_555
H7 C11 1_555 1_555
H8 C12 1_555 1_555
H9 C12 1_555 1_555
H10 C13 1_555 1_555
H11 C13 1_555 1_555
H12 C14 1_555 1_555
H13 C15 1_555 1_555
H14 C20 1_555 1_555
H15 C21 1_555 1_555
H16 C22 1_555 1_555
H17 C23 1_555 1_555
H18 C24 1_555 1_555
H19 C25 1_555 1_555
H20 C25 1_555 1_555
H21 C26 1_555 1_555
H22 C26 1_555 1_555
C6 C7 1_555 1_555
C6 C11 1_555 1_555
C9 C10 1_555 1_555
C12 C13 1_555 1_555
C19 C20 1_555 1_555
C19 C24 1_555 1_555
C22 C23 1_555 1_555
C25 C26 1_555 1_555

#END
