
#######################################################################
#
#                 Cambridge Crystallographic Data Centre
#                                CCDC 
#
#######################################################################
#
# If this CIF has been generated from an entry in the Cambridge 
# Structural Database, then it will include bibliographic, chemical, 
# crystal, experimental, refinement or atomic coordinate data resulting 
# from the CCDC's data processing and validation procedures.
#
#######################################################################

data_TITQUI
_chemical_formula_moiety         'C16 H2 D6 Cl10'
_chemical_name_systematic        
endo,endo,exo-1,5,6,7,8,12,13,14,15,15-Decachloro-3,4,9,10,16,16-hexadeuteropentacyclo(10.2.1.1^3,10^.0^2,11^.0^4,9^)hexadeca-5,7,13-triene
_symmetry_cell_setting           orthorhombic
_symmetry_space_group_name_H-M   'P 21 21 21'
_symmetry_Int_Tables_number      19
_space_group_name_Hall           'P 2ac 2ab'
loop_
_symmetry_equiv_pos_site_id
_symmetry_equiv_pos_as_xyz
1 x,y,z
2 1/2-x,-y,1/2+z
3 1/2+x,1/2-y,-z
4 -x,1/2+y,1/2-z
_cell_length_a                   8.664(1)
_cell_length_b                   14.047(2)
_cell_length_c                   16.184(2)
_cell_angle_alpha                90
_cell_angle_beta                 90
_cell_angle_gamma                90
_cell_volume                     1969.64
_exptl_crystal_colour            colorless
_chemical_melting_point          'above 150deg.C'
_cell_formula_units_Z            4
loop_
_atom_site_label
_atom_site_type_symbol
_atom_site_fract_x
_atom_site_fract_y
_atom_site_fract_z
Cl1 Cl 0.1051(1) 0.80336(6) 0.27487(6)
Cl2 Cl 0.5407(1) 0.78625(6) 0.51187(6)
Cl3 Cl 0.8182(1) 0.89455(6) 0.58910(5)
Cl4 Cl 0.8605(1) 1.11181(6) 0.55606(5)
Cl5 Cl 0.6720(1) 1.21159(6) 0.41598(6)
Cl6 Cl 0.2664(1) 1.17101(6) 0.18454(5)
Cl7 Cl 0.1583(1) 1.16996(6) 0.37935(5)
Cl8 Cl 0.0630(1) 0.94397(7) 0.43441(5)
Cl9 Cl -0.0346(1) 1.01447(7) 0.19783(6)
Cl10 Cl 0.2188(1) 0.94199(6) 0.10451(5)
C1 C 0.2013(1) 0.91314(9) 0.27676(8)
C2 C 0.3794(1) 0.90721(9) 0.26742(8)
C3 C 0.4966(1) 0.88361(9) 0.33637(8)
C4 C 0.4764(1) 0.94175(9) 0.41773(7)
C5 C 0.5809(1) 0.90129(9) 0.48327(7)
C6 C 0.6980(1) 0.94915(9) 0.51837(7)
C7 C 0.7262(1) 1.05012(9) 0.49859(7)
C8 C 0.6439(1) 1.09317(9) 0.43915(8)
C9 C 0.5180(1) 1.04570(9) 0.39035(8)
C10 C 0.5634(1) 1.03426(9) 0.29799(8)
C11 C 0.4250(1) 1.01109(9) 0.24112(8)
C12 C 0.2672(1) 1.06386(9) 0.23995(7)
C13 C 0.1929(1) 1.06834(9) 0.32552(8)
C14 C 0.1551(2) 0.97926(9) 0.34724(7)
C15 C 0.1624(1) 0.98263(9) 0.20350(7)
C16 C 0.6398(1) 0.93430(9) 0.29978(8)
D1 D 0.4179(2) 1.09246(12) 0.39762(10)
D2 D 0.7411(2) 0.93121(14) 0.34027(11)
D3 D 0.6719(2) 0.90823(13) 0.23833(11)
D4 D 0.6348(2) 1.09259(13) 0.27521(11)
D5 D 0.3591(2) 0.93740(12) 0.44215(10)
D6 D 0.5071(2) 0.80771(12) 0.34759(11)
H1 H 0.4675(3) 1.01149(22) 0.17707(17)
H2 H 0.4018(4) 0.85725(21) 0.21695(18)
loop_
_geom_bond_atom_site_label_1
_geom_bond_atom_site_label_2
_geom_bond_site_symmetry_1
_geom_bond_site_symmetry_2
Cl1 C1 1_555 1_555
Cl2 C5 1_555 1_555
Cl3 C6 1_555 1_555
Cl4 C7 1_555 1_555
Cl5 C8 1_555 1_555
Cl6 C12 1_555 1_555
Cl7 C13 1_555 1_555
Cl8 C14 1_555 1_555
Cl9 C15 1_555 1_555
Cl10 C15 1_555 1_555
C1 C2 1_555 1_555
C2 C3 1_555 1_555
C3 C4 1_555 1_555
C4 C5 1_555 1_555
C5 C6 1_555 1_555
C6 C7 1_555 1_555
C7 C8 1_555 1_555
C8 C9 1_555 1_555
C9 C4 1_555 1_555
C10 C9 1_555 1_555
C11 C2 1_555 1_555
C12 C11 1_555 1_555
C13 C12 1_555 1_555
C14 C1 1_555 1_555
C15 C1 1_555 1_555
C16 C3 1_555 1_555
D1 C9 1_555 1_555
D2 C16 1_555 1_555
D3 C16 1_555 1_555
D4 C10 1_555 1_555
D5 C4 1_555 1_555
D6 C3 1_555 1_555
H1 C11 1_555 1_555
H2 C2 1_555 1_555
C10 C11 1_555 1_555
C10 C16 1_555 1_555
C12 C15 1_555 1_555
C13 C14 1_555 1_555

#END
