
#######################################################################
#
#                 Cambridge Crystallographic Data Centre
#                                CCDC 
#
#######################################################################
#
# If this CIF has been generated from an entry in the Cambridge 
# Structural Database, then it will include bibliographic, chemical, 
# crystal, experimental, refinement or atomic coordinate data resulting 
# from the CCDC's data processing and validation procedures.
#
#######################################################################

data_TITQIW
_chemical_formula_moiety         'C20 H16 Cl4'
_chemical_name_systematic        
syn-1,12-syn-2,11-3,4-Benzo-6,7,8,9-tetrachlorotetracyclo(10.4.0.0^2,11^.O^5,10^)hexadeca-3,6,8,13-tetraene
_symmetry_cell_setting           monoclinic
_symmetry_space_group_name_H-M   'P 21/c'
_symmetry_Int_Tables_number      14
_space_group_name_Hall           '-P 2ybc'
loop_
_symmetry_equiv_pos_site_id
_symmetry_equiv_pos_as_xyz
1 x,y,z
2 -x,1/2+y,1/2-z
3 -x,-y,-z
4 x,1/2-y,1/2+z
_cell_length_a                   5.2160(5)
_cell_length_b                   16.5800(10)
_cell_length_c                   20.2510(10)
_cell_angle_alpha                90
_cell_angle_beta                 91.42
_cell_angle_gamma                90
_cell_volume                     1750.79
_exptl_crystal_colour            colorless
_chemical_melting_point          178-180deg.C
_cell_formula_units_Z            4
loop_
_atom_site_label
_atom_site_type_symbol
_atom_site_fract_x
_atom_site_fract_y
_atom_site_fract_z
C1 C 0.5036(5) 0.3772(2) 0.7833(1)
C2 C 0.4575(5) 0.3786(2) 0.7064(1)
C3 C 0.6212(5) 0.4335(2) 0.6664(1)
C4 C 0.7899(5) 0.4027(2) 0.6206(1)
C5 C 0.8011(5) 0.3125(2) 0.6078(1)
C6 C 0.6055(5) 0.2820(2) 0.5565(1)
Cl1 Cl 0.4810(2) 0.3492(1) 0.4996(1)
C7 C 0.5392(6) 0.2048(2) 0.5553(1)
Cl2 Cl 0.3047(2) 0.1672(1) 0.5018(1)
C8 C 0.6649(6) 0.1476(2) 0.6009(1)
Cl3 Cl 0.6749(2) 0.0473(1) 0.5786(1)
C9 C 0.7813(5) 0.1756(2) 0.6554(1)
Cl4 Cl 0.9515(2) 0.1137(1) 0.7089(1)
C10 C 0.7661(5) 0.2644(1) 0.6720(1)
C11 C 0.5113(5) 0.2865(2) 0.7031(1)
C12 C 0.4920(5) 0.2839(2) 0.7808(1)
C13 C 0.6808(6) 0.2408(2) 0.8242(1)
C14 C 0.8288(6) 0.2782(2) 0.8677(1)
C15 C 0.8373(6) 0.3680(2) 0.8741(1)
C16 C 0.7613(5) 0.4085(2) 0.8087(1)
C17 C 0.6119(5) 0.5167(2) 0.6763(1)
C18 C 0.7704(6) 0.5681(2) 0.6425(1)
C19 C 0.9420(6) 0.5372(2) 0.5982(1)
C20 C 0.9500(5) 0.4553(2) 0.5873(1)
H1 H 0.3596(5) 0.4006(2) 0.8070(1)
H2 H 0.2795(5) 0.3888(2) 0.6963(1)
H3 H 0.9695(5) 0.3004(2) 0.5919(1)
H4 H 0.9003(5) 0.2773(1) 0.7018(1)
H5 H 0.3709(5) 0.2583(2) 0.6821(1)
H6 H 0.3228(5) 0.2669(2) 0.7918(1)
H7 H 0.6949(6) 0.1839(2) 0.8203(1)
H8 H 0.9396(6) 0.2455(2) 0.8976(1)
H9 H 0.7215(6) 0.3850(2) 0.9079(1)
H10 H 1.0086(6) 0.3846(2) 0.8873(1)
H11 H 0.8892(5) 0.3978(2) 0.7767(1)
H12 H 0.7517(5) 0.4656(2) 0.8149(1)
H13 H 0.4954(5) 0.5382(2) 0.7066(1)
H14 H 0.7611(6) 0.6259(2) 0.6498(1)
H15 H 1.0547(6) 0.5725(2) 0.5753(1)
H16 H 1.0634(5) 0.4349(2) 0.5574(1)
loop_
_geom_bond_atom_site_label_1
_geom_bond_atom_site_label_2
_geom_bond_site_symmetry_1
_geom_bond_site_symmetry_2
C1 C2 1_555 1_555
C2 C3 1_555 1_555
C3 C4 1_555 1_555
C4 C5 1_555 1_555
C5 C6 1_555 1_555
C6 Cl1 1_555 1_555
C7 C6 1_555 1_555
Cl2 C7 1_555 1_555
C8 C7 1_555 1_555
Cl3 C8 1_555 1_555
C9 C8 1_555 1_555
Cl4 C9 1_555 1_555
C10 C5 1_555 1_555
C11 C2 1_555 1_555
C12 C1 1_555 1_555
C13 C12 1_555 1_555
C14 C13 1_555 1_555
C15 C14 1_555 1_555
C16 C1 1_555 1_555
C17 C3 1_555 1_555
C18 C17 1_555 1_555
C19 C18 1_555 1_555
C20 C4 1_555 1_555
H1 C1 1_555 1_555
H2 C2 1_555 1_555
H3 C5 1_555 1_555
H4 C10 1_555 1_555
H5 C11 1_555 1_555
H6 C12 1_555 1_555
H7 C13 1_555 1_555
H8 C14 1_555 1_555
H9 C15 1_555 1_555
H10 C15 1_555 1_555
H11 C16 1_555 1_555
H12 C16 1_555 1_555
H13 C17 1_555 1_555
H14 C18 1_555 1_555
H15 C19 1_555 1_555
H16 C20 1_555 1_555
C9 C10 1_555 1_555
C10 C11 1_555 1_555
C11 C12 1_555 1_555
C15 C16 1_555 1_555
C19 C20 1_555 1_555

#END
