
#######################################################################
#
#                 Cambridge Crystallographic Data Centre
#                                CCDC 
#
#######################################################################
#
# If this CIF has been generated from an entry in the Cambridge 
# Structural Database, then it will include bibliographic, chemical, 
# crystal, experimental, refinement or atomic coordinate data resulting 
# from the CCDC's data processing and validation procedures.
#
#######################################################################

data_TITSIA01
_chemical_formula_moiety         'C6 H16 N1 1+,C1 F3 O3 S1 1-'
_chemical_name_systematic        
'bis(isopropyl)ammonium trifluoromethanesulfonate'
_symmetry_cell_setting           triclinic
_symmetry_space_group_name_H-M   'P -1'
_symmetry_Int_Tables_number      2
_space_group_name_Hall           '-P 1'
loop_
_symmetry_equiv_pos_site_id
_symmetry_equiv_pos_as_xyz
1 x,y,z
2 -x,-y,-z
_cell_length_a                   7.9073(8)
_cell_length_b                   8.8169(9)
_cell_length_c                   8.9215(7)
_cell_angle_alpha                90.964(7)
_cell_angle_beta                 93.394(7)
_cell_angle_gamma                91.206(8)
_cell_volume                     620.658
_cell_formula_units_Z            2
loop_
_atom_site_label
_atom_site_type_symbol
_atom_site_fract_x
_atom_site_fract_y
_atom_site_fract_z
S1 S 0.65886(12) 0.73294(10) 0.71020(10)
O1 O 0.6457(4) 0.8359(3) 0.5876(3)
C1 C 0.8834(5) 0.7384(5) 0.7666(5)
O2 O 0.5816(6) 0.7846(6) 0.8398(4)
O3 O 0.6293(5) 0.5789(4) 0.6611(5)
F1 F 0.9179(4) 0.6457(4) 0.8791(4)
F2 F 0.9298(5) 0.8758(4) 0.8141(5)
F3 F 0.9739(5) 0.6953(6) 0.6573(4)
N1 N 0.5015(4) 0.7162(3) 0.3054(3)
H1 H 0.4661 0.6164 0.3102
H2 H 0.5441 0.7452 0.4000
C2 C 0.3478(4) 0.8094(4) 0.2680(4)
H3 H 0.3844 0.9185 0.2637
C3 C 0.2655(6) 0.7621(6) 0.1180(5)
H4 H 0.3430 0.7844 0.0391
H5 H 0.1608 0.8181 0.0996
H6 H 0.2391 0.6530 0.1174
C4 C 0.2306(5) 0.7919(5) 0.3944(5)
H7 H 0.1321 0.8560 0.3762
H8 H 0.2908 0.8226 0.4896
H9 H 0.1929 0.6856 0.3993
C5 C 0.6449(4) 0.7234(4) 0.2017(4)
H10 H 0.5992 0.6972 0.0974
C6 C 0.7216(6) 0.8825(5) 0.2031(6)
H11 H 0.7606 0.9119 0.3060
H12 H 0.6359 0.9534 0.1656
H13 H 0.8177 0.8849 0.1387
C7 C 0.7720(6) 0.6049(6) 0.2512(6)
H14 H 0.8122 0.6255 0.3558
H15 H 0.8682 0.6087 0.1870
H16 H 0.7176 0.5039 0.2430
loop_
_geom_bond_atom_site_label_1
_geom_bond_atom_site_label_2
_geom_bond_site_symmetry_1
_geom_bond_site_symmetry_2
S1 O1 1_555 1_555
C1 S1 1_555 1_555
O2 S1 1_555 1_555
O3 S1 1_555 1_555
F1 C1 1_555 1_555
F2 C1 1_555 1_555
F3 C1 1_555 1_555
N1 H1 1_555 1_555
H2 N1 1_555 1_555
C2 N1 1_555 1_555
H3 C2 1_555 1_555
C3 C2 1_555 1_555
H4 C3 1_555 1_555
H5 C3 1_555 1_555
H6 C3 1_555 1_555
C4 C2 1_555 1_555
H7 C4 1_555 1_555
H8 C4 1_555 1_555
H9 C4 1_555 1_555
C5 N1 1_555 1_555
H10 C5 1_555 1_555
C6 C5 1_555 1_555
H11 C6 1_555 1_555
H12 C6 1_555 1_555
H13 C6 1_555 1_555
C7 C5 1_555 1_555
H14 C7 1_555 1_555
H15 C7 1_555 1_555
H16 C7 1_555 1_555

#END
