
#######################################################################
#
#                 Cambridge Crystallographic Data Centre
#                                CCDC 
#
#######################################################################
#
# If this CIF has been generated from an entry in the Cambridge 
# Structural Database, then it will include bibliographic, chemical, 
# crystal, experimental, refinement or atomic coordinate data resulting 
# from the CCDC's data processing and validation procedures.
#
#######################################################################

data_TITTAS
_chemical_formula_moiety         'C12 H11 N3 O1'
_chemical_name_systematic        N-(2-Methylphenyl)pyrazine-2-carboxamide
_symmetry_cell_setting           monoclinic
_symmetry_space_group_name_H-M   'P 21/c'
_symmetry_Int_Tables_number      14
_space_group_name_Hall           '-P 2ybc'
loop_
_symmetry_equiv_pos_site_id
_symmetry_equiv_pos_as_xyz
1 x,y,z
2 -x,1/2+y,1/2-z
3 -x,-y,-z
4 x,1/2-y,1/2+z
_cell_length_a                   15.5361(9)
_cell_length_b                   7.0360(3)
_cell_length_c                   18.9863(9)
_cell_angle_alpha                90
_cell_angle_beta                 91.307(2)
_cell_angle_gamma                90
_cell_volume                     2074.89
_exptl_crystal_colour            colorless
_exptl_crystal_description       needle
_chemical_melting_point          '383-384 K'
_cell_formula_units_Z            8
_exptl_crystal_recrystallization_method ethanol
loop_
_atom_site_label
_atom_site_type_symbol
_atom_site_fract_x
_atom_site_fract_y
_atom_site_fract_z
N1 N 0.83793(16) 0.0329(3) 0.31019(12)
C1 C 0.9076(2) 0.0821(4) 0.34852(14)
C2 C 0.9032(2) 0.1184(4) 0.42009(15)
N2 N 0.82955(17) 0.1107(4) 0.45482(12)
C3 C 0.7601(2) 0.0640(4) 0.41596(16)
C4 C 0.7640(2) 0.0235(4) 0.34457(15)
C5 C 0.9913(2) 0.1001(4) 0.31161(15)
O1 O 1.05709(13) 0.1562(3) 0.34226(10)
N3 N 0.98525(16) 0.0538(3) 0.24246(11)
C6 C 1.0502(2) 0.0652(4) 0.19126(15)
C7 C 1.0244(2) 0.1108(4) 0.12246(15)
C8 C 0.9317(2) 0.1491(5) 0.10335(15)
C9 C 1.0890(2) 0.1210(4) 0.07206(15)
C10 C 1.1745(2) 0.0882(4) 0.08955(16)
C11 C 1.1980(2) 0.0425(4) 0.15828(17)
C12 C 1.1358(2) 0.0297(4) 0.20884(15)
H1 H 0.9546 0.1500 0.4454
H2 H 0.7059 0.0583 0.4380
H3 H 0.7128 -0.0117 0.3195
H4 H 0.9339 0.0112 0.2300
H5 H 0.9262 0.1761 0.0528
H6 H 0.9115 0.2587 0.1301
H7 H 0.8970 0.0373 0.1146
H8 H 1.0734 0.1514 0.0247
H9 H 1.2171 0.0970 0.0546
H10 H 1.2567 0.0201 0.1706
H11 H 1.1517 -0.0036 0.2558
N4 N 0.33630(16) 0.2566(3) 0.30554(12)
C13 C 0.40443(19) 0.2092(4) 0.34631(15)
C14 C 0.3972(2) 0.1720(4) 0.41758(15)
N5 N 0.32188(17) 0.1771(4) 0.44977(12)
C15 C 0.2539(2) 0.2192(4) 0.40869(15)
C16 C 0.2608(2) 0.2615(4) 0.33766(15)
C17 C 0.4905(2) 0.1945(4) 0.31178(15)
O2 O 0.55554(14) 0.1472(3) 0.34533(10)
N6 N 0.48648(16) 0.2343(3) 0.24213(12)
C18 C 0.5530(2) 0.2251(4) 0.19275(15)
C19 C 0.5301(2) 0.1892(4) 0.12216(15)
C20 C 0.4375(2) 0.1567(5) 0.10056(15)
C21 C 0.5949(2) 0.1850(4) 0.07342(16)
C22 C 0.6805(2) 0.2121(4) 0.09314(17)
C23 C 0.7018(2) 0.2465(4) 0.16324(17)
C24 C 0.6384(2) 0.2545(4) 0.21270(16)
H12 H 0.4477 0.1417 0.4445
H13 H 0.1984 0.2203 0.4288
H14 H 0.2105 0.2950 0.3112
H15 H 0.4343 0.2575 0.2253
H16 H 0.4039 0.2715 0.1101
H17 H 0.4144 0.0500 0.1274
H18 H 0.4337 0.1274 0.0501
H19 H 0.5804 0.1629 0.0252
H20 H 0.7241 0.2072 0.0589
H21 H 0.7603 0.2646 0.1772
H22 H 0.6533 0.2802 0.2606
loop_
_geom_bond_atom_site_label_1
_geom_bond_atom_site_label_2
_geom_bond_site_symmetry_1
_geom_bond_site_symmetry_2
N1 C1 1_555 1_555
C1 C2 1_555 1_555
C2 N2 1_555 1_555
N2 C3 1_555 1_555
C3 C4 1_555 1_555
C4 N1 1_555 1_555
C5 C1 1_555 1_555
O1 C5 1_555 1_555
N3 C5 1_555 1_555
C6 N3 1_555 1_555
C7 C6 1_555 1_555
C8 C7 1_555 1_555
C9 C7 1_555 1_555
C10 C9 1_555 1_555
C11 C10 1_555 1_555
C12 C6 1_555 1_555
N4 C13 1_555 1_555
C13 C14 1_555 1_555
C14 N5 1_555 1_555
N5 C15 1_555 1_555
C15 C16 1_555 1_555
C16 N4 1_555 1_555
C17 C13 1_555 1_555
O2 C17 1_555 1_555
N6 C17 1_555 1_555
C18 N6 1_555 1_555
C19 C18 1_555 1_555
C20 C19 1_555 1_555
C21 C19 1_555 1_555
C22 C21 1_555 1_555
C23 C22 1_555 1_555
C24 C18 1_555 1_555
H1 C2 1_555 1_555
H2 C3 1_555 1_555
H3 C4 1_555 1_555
H4 N3 1_555 1_555
H5 C8 1_555 1_555
H6 C8 1_555 1_555
H7 C8 1_555 1_555
H8 C9 1_555 1_555
H9 C10 1_555 1_555
H10 C11 1_555 1_555
H11 C12 1_555 1_555
H12 C14 1_555 1_555
H13 C15 1_555 1_555
H14 C16 1_555 1_555
H15 N6 1_555 1_555
H16 C20 1_555 1_555
H17 C20 1_555 1_555
H18 C20 1_555 1_555
H19 C21 1_555 1_555
H20 C22 1_555 1_555
H21 C23 1_555 1_555
H22 C24 1_555 1_555
C11 C12 1_555 1_555
C23 C24 1_555 1_555

#END
