
#######################################################################
#
#                 Cambridge Crystallographic Data Centre
#                                CCDC 
#
#######################################################################
#
# If this CIF has been generated from an entry in the Cambridge 
# Structural Database, then it will include bibliographic, chemical, 
# crystal, experimental, refinement or atomic coordinate data resulting 
# from the CCDC's data processing and validation procedures.
#
#######################################################################

data_TITTIA
_chemical_formula_moiety         'C12 H11 N3 O1'
_chemical_name_systematic        N-(4-Methylphenyl)pyrazine-2-carboxamide
_symmetry_cell_setting           monoclinic
_symmetry_space_group_name_H-M   'P 21/c'
_symmetry_Int_Tables_number      14
_space_group_name_Hall           '-P 2ybc'
loop_
_symmetry_equiv_pos_site_id
_symmetry_equiv_pos_as_xyz
1 x,y,z
2 -x,1/2+y,1/2-z
3 -x,-y,-z
4 x,1/2-y,1/2+z
_cell_length_a                   14.0039(3)
_cell_length_b                   5.6916(2)
_cell_length_c                   13.3466(3)
_cell_angle_alpha                90
_cell_angle_beta                 101.6381(12)
_cell_angle_gamma                90
_cell_volume                     1041.92
_exptl_crystal_colour            colorless
_exptl_crystal_description       block
_chemical_melting_point          '422-424 K'
_cell_formula_units_Z            4
_exptl_crystal_recrystallization_method ethanol
loop_
_atom_site_label
_atom_site_type_symbol
_atom_site_fract_x
_atom_site_fract_y
_atom_site_fract_z
N1 N 0.10417(7) 0.70553(17) 0.53519(7)
C1 C 0.14400(7) 0.91597(18) 0.52930(8)
C2 C 0.13099(9) 1.0986(2) 0.59390(9)
N2 N 0.07704(8) 1.07444(18) 0.66559(8)
C3 C 0.03669(8) 0.8640(2) 0.67077(8)
C4 C 0.05016(9) 0.6816(2) 0.60661(9)
C5 C 0.20361(8) 0.95957(19) 0.44903(8)
O1 O 0.23117(7) 1.15898(15) 0.43456(7)
N3 N 0.22250(7) 0.76557(17) 0.39810(7)
C6 C 0.27918(8) 0.7565(2) 0.32058(8)
C7 C 0.28028(9) 0.9393(2) 0.25186(8)
C8 C 0.33448(9) 0.9161(2) 0.17559(9)
C9 C 0.38804(8) 0.7148(2) 0.16622(8)
C10 C 0.44564(9) 0.6869(2) 0.08284(9)
C11 C 0.38622(9) 0.5349(2) 0.23624(9)
C12 C 0.33239(9) 0.5541(2) 0.31276(9)
H1 H 0.1613 1.2456 0.5872
H2 H -0.0026 0.8385 0.7201
H3 H 0.0201 0.5345 0.6135
H4 H 0.1997 0.6205 0.4219
H5 H 0.2444 1.0790 0.2568
H6 H 0.3348 1.0415 0.1287
H7 H 0.4108 0.5811 0.0299
H8 H 0.5099 0.6207 0.1119
H9 H 0.4537 0.8406 0.0525
H10 H 0.4226 0.3957 0.2317
H11 H 0.3321 0.4287 0.3597
loop_
_geom_bond_atom_site_label_1
_geom_bond_atom_site_label_2
_geom_bond_site_symmetry_1
_geom_bond_site_symmetry_2
N1 C1 1_555 1_555
C1 C2 1_555 1_555
C2 N2 1_555 1_555
N2 C3 1_555 1_555
C3 C4 1_555 1_555
C4 N1 1_555 1_555
C5 C1 1_555 1_555
O1 C5 1_555 1_555
N3 C5 1_555 1_555
C6 N3 1_555 1_555
C7 C6 1_555 1_555
C8 C7 1_555 1_555
C9 C8 1_555 1_555
C10 C9 1_555 1_555
C11 C9 1_555 1_555
C12 C6 1_555 1_555
H1 C2 1_555 1_555
H2 C3 1_555 1_555
H3 C4 1_555 1_555
H4 N3 1_555 1_555
H5 C7 1_555 1_555
H6 C8 1_555 1_555
H7 C10 1_555 1_555
H8 C10 1_555 1_555
H9 C10 1_555 1_555
H10 C11 1_555 1_555
H11 C12 1_555 1_555
C11 C12 1_555 1_555

#END
