
#######################################################################
#
#                 Cambridge Crystallographic Data Centre
#                                CCDC 
#
#######################################################################
#
# If this CIF has been generated from an entry in the Cambridge 
# Structural Database, then it will include bibliographic, chemical, 
# crystal, experimental, refinement or atomic coordinate data resulting 
# from the CCDC's data processing and validation procedures.
#
#######################################################################

data_TITVOI
_chemical_formula_moiety         'C12 H11 N3 O2'
_chemical_name_systematic        N-(2-Methoxyphenyl)pyrazine-2-carboxamide
_symmetry_cell_setting           orthorhombic
_symmetry_space_group_name_H-M   'P b c a'
_symmetry_Int_Tables_number      61
_space_group_name_Hall           '-P 2ac 2ab'
loop_
_symmetry_equiv_pos_site_id
_symmetry_equiv_pos_as_xyz
1 x,y,z
2 1/2-x,-y,1/2+z
3 1/2+x,1/2-y,-z
4 -x,1/2+y,1/2-z
5 -x,-y,-z
6 1/2+x,y,1/2-z
7 1/2-x,1/2+y,z
8 x,1/2-y,1/2+z
_cell_length_a                   14.1667(4)
_cell_length_b                   20.7513(6)
_cell_length_c                   7.4516(3)
_cell_angle_alpha                90
_cell_angle_beta                 90
_cell_angle_gamma                90
_cell_volume                     2190.6
_exptl_crystal_colour            colorless
_exptl_crystal_description       lath
_chemical_melting_point          '391-393 K'
_cell_formula_units_Z            8
_exptl_crystal_recrystallization_method ethanol
loop_
_atom_site_label
_atom_site_type_symbol
_atom_site_fract_x
_atom_site_fract_y
_atom_site_fract_z
N1 N 0.69003(7) 0.41030(5) 0.65765(14)
C1 C 0.60024(8) 0.42957(6) 0.67454(17)
C2 C 0.56874(9) 0.46232(6) 0.82543(17)
N2 N 0.62604(8) 0.47597(5) 0.96319(15)
C3 C 0.71533(9) 0.45650(6) 0.94503(18)
C4 C 0.74751(9) 0.42445(6) 0.79433(18)
C5 C 0.53344(8) 0.41405(6) 0.52352(17)
O1 O 0.44927(6) 0.42775(4) 0.53183(12)
N3 N 0.57611(7) 0.38381(5) 0.38501(14)
C6 C 0.53633(8) 0.35940(6) 0.22667(17)
C7 C 0.59737(8) 0.32344(6) 0.11608(17)
O2 O 0.68797(6) 0.31795(4) 0.18028(12)
C8 C 0.75182(9) 0.27901(7) 0.08006(19)
C9 C 0.56525(9) 0.29700(6) -0.04278(18)
C10 C 0.47168(9) 0.30661(6) -0.09400(19)
C11 C 0.41162(9) 0.34185(6) 0.01372(18)
C12 C 0.44337(8) 0.36814(6) 0.17428(18)
H1 H 0.5046 0.4755 0.8312
H2 H 0.7586 0.4650 1.0396
H3 H 0.8120 0.4122 0.7877
H4 H 0.6366 0.3768 0.4035
H5 H 0.7598 0.2973 -0.0402
H6 H 0.7265 0.2352 0.0703
H7 H 0.8130 0.2778 0.1412
H8 H 0.6066 0.2725 -0.1164
H9 H 0.4492 0.2888 -0.2034
H10 H 0.3480 0.3482 -0.0222
H11 H 0.4014 0.3921 0.2480
loop_
_geom_bond_atom_site_label_1
_geom_bond_atom_site_label_2
_geom_bond_site_symmetry_1
_geom_bond_site_symmetry_2
N1 C1 1_555 1_555
C1 C2 1_555 1_555
C2 N2 1_555 1_555
N2 C3 1_555 1_555
C3 C4 1_555 1_555
C4 N1 1_555 1_555
C5 C1 1_555 1_555
O1 C5 1_555 1_555
N3 C5 1_555 1_555
C6 N3 1_555 1_555
C7 C6 1_555 1_555
O2 C7 1_555 1_555
C8 O2 1_555 1_555
C9 C7 1_555 1_555
C10 C9 1_555 1_555
C11 C10 1_555 1_555
C12 C6 1_555 1_555
H1 C2 1_555 1_555
H2 C3 1_555 1_555
H3 C4 1_555 1_555
H4 N3 1_555 1_555
H5 C8 1_555 1_555
H6 C8 1_555 1_555
H7 C8 1_555 1_555
H8 C9 1_555 1_555
H9 C10 1_555 1_555
H10 C11 1_555 1_555
H11 C12 1_555 1_555
C11 C12 1_555 1_555

#END
