
#######################################################################
#
#                 Cambridge Crystallographic Data Centre
#                                CCDC 
#
#######################################################################
#
# If this CIF has been generated from an entry in the Cambridge 
# Structural Database, then it will include bibliographic, chemical, 
# crystal, experimental, refinement or atomic coordinate data resulting 
# from the CCDC's data processing and validation procedures.
#
#######################################################################

data_TITVEY
_chemical_formula_moiety         'C11 H8 Cl1 N3 O1'
_chemical_name_systematic        N-(3-Chlorophenyl)pyrazine-2-carboxamide
_symmetry_cell_setting           monoclinic
_symmetry_space_group_name_H-M   'P 21/n'
_symmetry_Int_Tables_number      14
_space_group_name_Hall           '-P 2yn'
loop_
_symmetry_equiv_pos_site_id
_symmetry_equiv_pos_as_xyz
1 x,y,z
2 1/2-x,1/2+y,1/2-z
3 -x,-y,-z
4 1/2+x,1/2-y,1/2+z
_cell_length_a                   9.9121(3)
_cell_length_b                   10.9457(3)
_cell_length_c                   18.6827(4)
_cell_angle_alpha                90
_cell_angle_beta                 92.026(2)
_cell_angle_gamma                90
_cell_volume                     2025.71
_exptl_crystal_colour            colorless
_exptl_crystal_description       block
_chemical_melting_point          '415-418 K'
_cell_formula_units_Z            8
_exptl_crystal_recrystallization_method ethanol
loop_
_atom_site_label
_atom_site_type_symbol
_atom_site_fract_x
_atom_site_fract_y
_atom_site_fract_z
N1 N 0.68520(14) 0.03418(12) 0.44994(7)
C1 C 0.60813(16) 0.13419(15) 0.44557(8)
C2 C 0.63979(17) 0.24180(15) 0.47961(8)
N2 N 0.75021(14) 0.25353(13) 0.51821(7)
C3 C 0.82725(17) 0.15421(15) 0.52195(9)
C4 C 0.79528(17) 0.04560(16) 0.48870(9)
C5 C 0.48353(17) 0.12885(15) 0.40215(8)
O1 O 0.41490(12) 0.22066(10) 0.39422(6)
N3 N 0.45644(13) 0.01748(12) 0.37446(7)
C6 C 0.34421(16) -0.01228(14) 0.33304(8)
C7 C 0.22190(16) 0.04940(15) 0.34182(8)
C8 C 0.11576(16) 0.01290(15) 0.30065(8)
Cl1 Cl -0.03790(4) 0.08933(4) 0.31289(2)
C9 C 0.12680(17) -0.08113(15) 0.25119(8)
C10 C 0.24900(18) -0.14168(15) 0.24370(9)
C11 C 0.35748(17) -0.10832(15) 0.28444(8)
H1 H 0.5796 0.3091 0.4748
H2 H 0.9097 0.1586 0.5494
H3 H 0.8548 -0.0221 0.4942
H4 H 0.5171 -0.0392 0.3792
H5 H 0.2145 0.1141 0.3754
H6 H 0.0503 -0.1043 0.2223
H7 H 0.2558 -0.2062 0.2100
H8 H 0.4414 -0.1492 0.2803
N4 N 0.64872(13) 0.53564(12) 0.45662(7)
C12 C 0.71960(16) 0.63832(15) 0.46389(8)
C13 C 0.69223(17) 0.74304(15) 0.42529(9)
N5 N 0.59012(14) 0.74892(13) 0.38048(7)
C14 C 0.51974(17) 0.64604(16) 0.37338(8)
C15 C 0.54907(16) 0.53989(15) 0.41006(8)
C16 C 0.83076(16) 0.64210(15) 0.51698(8)
O2 O 0.89224(11) 0.73743(10) 0.52635(6)
N6 N 0.85269(13) 0.53503(12) 0.55113(7)
C17 C 0.94885(16) 0.51168(15) 0.60367(8)
C18 C 1.04908(16) 0.59501(15) 0.62050(8)
C19 C 1.13894(16) 0.56285(15) 0.67256(8)
Cl2 Cl 1.26248(4) 0.66851(4) 0.69513(2)
C20 C 1.13449(17) 0.45166(16) 0.70729(9)
C21 C 1.03399(18) 0.37054(17) 0.68973(9)
C22 C 0.94081(17) 0.39971(15) 0.63882(9)
H9 H 0.7494 0.8122 0.4317
H10 H 0.4440 0.6458 0.3408
H11 H 0.4957 0.4691 0.4011
H12 H 0.8030 0.4723 0.5389
H13 H 1.0544 0.6713 0.5965
H14 H 1.2010 0.4317 0.7432
H15 H 1.0301 0.2939 0.7135
H16 H 0.8697 0.3444 0.6268
loop_
_geom_bond_atom_site_label_1
_geom_bond_atom_site_label_2
_geom_bond_site_symmetry_1
_geom_bond_site_symmetry_2
N1 C1 1_555 1_555
C1 C2 1_555 1_555
C2 N2 1_555 1_555
N2 C3 1_555 1_555
C3 C4 1_555 1_555
C4 N1 1_555 1_555
C5 C1 1_555 1_555
O1 C5 1_555 1_555
N3 C5 1_555 1_555
C6 N3 1_555 1_555
C7 C6 1_555 1_555
C8 C7 1_555 1_555
Cl1 C8 1_555 1_555
C9 C8 1_555 1_555
C10 C9 1_555 1_555
C11 C6 1_555 1_555
H1 C2 1_555 1_555
H2 C3 1_555 1_555
H3 C4 1_555 1_555
H4 N3 1_555 1_555
H5 C7 1_555 1_555
H6 C9 1_555 1_555
H7 C10 1_555 1_555
H8 C11 1_555 1_555
N4 C12 1_555 1_555
C12 C13 1_555 1_555
C13 N5 1_555 1_555
N5 C14 1_555 1_555
C14 C15 1_555 1_555
C15 N4 1_555 1_555
C16 C12 1_555 1_555
O2 C16 1_555 1_555
N6 C16 1_555 1_555
C17 N6 1_555 1_555
C18 C17 1_555 1_555
C19 C18 1_555 1_555
Cl2 C19 1_555 1_555
C20 C19 1_555 1_555
C21 C20 1_555 1_555
C22 C17 1_555 1_555
H9 C13 1_555 1_555
H10 C14 1_555 1_555
H11 C15 1_555 1_555
H12 N6 1_555 1_555
H13 C18 1_555 1_555
H14 C20 1_555 1_555
H15 C21 1_555 1_555
H16 C22 1_555 1_555
C10 C11 1_555 1_555
C21 C22 1_555 1_555

#END
