
#######################################################################
#
#                 Cambridge Crystallographic Data Centre
#                                CCDC 
#
#######################################################################
#
# If this CIF has been generated from an entry in the Cambridge 
# Structural Database, then it will include bibliographic, chemical, 
# crystal, experimental, refinement or atomic coordinate data resulting 
# from the CCDC's data processing and validation procedures.
#
#######################################################################

data_TITVAU01
_chemical_formula_moiety         'C11 H8 F1 N3 O1'
_chemical_name_systematic        N-(4-Fluorophenyl)pyrazine-2-carboxamide
_symmetry_cell_setting           monoclinic
_symmetry_space_group_name_H-M   'P c'
_symmetry_Int_Tables_number      7
_space_group_name_Hall           'P -2yc'
loop_
_symmetry_equiv_pos_site_id
_symmetry_equiv_pos_as_xyz
1 x,y,z
2 x,-y,1/2+z
_cell_length_a                   5.9666(3)
_cell_length_b                   24.2205(15)
_cell_length_c                   13.0262(7)
_cell_angle_alpha                90
_cell_angle_beta                 91.720(3)
_cell_angle_gamma                90
_cell_volume                     1881.62
_exptl_crystal_colour            colorless
_exptl_crystal_description       lath
_chemical_melting_point          '425-426 K'
_cell_formula_units_Z            8
_exptl_crystal_recrystallization_method ethanol
loop_
_atom_site_label
_atom_site_type_symbol
_atom_site_fract_x
_atom_site_fract_y
_atom_site_fract_z
N1 N 0.3515(5) 0.07590(13) 0.1753(2)
C1 C 0.1414(6) 0.09398(16) 0.1882(3)
C2 C -0.0403(7) 0.05824(16) 0.1897(3)
N2 N -0.0184(6) 0.00369(14) 0.1775(3)
C3 C 0.1907(7) -0.01413(16) 0.1643(3)
C4 C 0.3731(7) 0.02158(16) 0.1636(3)
C5 C 0.1042(6) 0.15475(17) 0.2035(3)
O1 O -0.0873(4) 0.17274(12) 0.2150(2)
N3 N 0.2914(5) 0.18555(13) 0.2010(2)
C6 C 0.3124(6) 0.24344(16) 0.2137(3)
C7 C 0.1402(7) 0.27688(17) 0.2483(3)
C8 C 0.1737(7) 0.33316(16) 0.2596(3)
C9 C 0.3791(7) 0.35494(16) 0.2366(3)
F1 F 0.4134(4) 0.41070(9) 0.24718(19)
C10 C 0.5530(6) 0.32297(17) 0.2037(3)
C11 C 0.5189(6) 0.26675(16) 0.1920(3)
H1 H -0.1854 0.0731 0.1998
H2 H 0.2156 -0.0525 0.1550
H3 H 0.5184 0.0067 0.1544
H4 H 0.4173 0.1672 0.1942
H5 H -0.0003 0.2611 0.2641
H6 H 0.0571 0.3563 0.2829
H7 H 0.6938 0.3391 0.1892
H8 H 0.6370 0.2440 0.1691
N4 N 0.3936(5) 0.37864(13) 0.4920(2)
C12 C 0.6030(7) 0.36050(16) 0.4853(3)
C13 C 0.7856(7) 0.39534(16) 0.4870(3)
N5 N 0.7650(5) 0.45039(13) 0.4967(3)
C14 C 0.5539(7) 0.46873(17) 0.5036(3)
C15 C 0.3722(7) 0.43333(17) 0.5015(3)
C16 C 0.6422(6) 0.29927(15) 0.4737(3)
O2 O 0.8347(5) 0.28133(11) 0.4678(2)
N6 N 0.4545(5) 0.26840(13) 0.4713(2)
C17 C 0.4347(6) 0.21056(15) 0.4587(3)
C18 C 0.6088(6) 0.17798(16) 0.4249(3)
C19 C 0.5766(6) 0.12160(16) 0.4132(3)
C20 C 0.3739(6) 0.09897(15) 0.4350(3)
F2 F 0.3435(4) 0.04361(9) 0.42357(18)
C21 C 0.1962(6) 0.13036(17) 0.4682(3)
C22 C 0.2289(6) 0.18641(16) 0.4805(3)
H9 H 0.9311 0.3799 0.4812
H10 H 0.5285 0.5073 0.5101
H11 H 0.2262 0.4485 0.5071
H12 H 0.3331 0.2884 0.4793
H13 H 0.7491 0.1942 0.4098
H14 H 0.6947 0.0989 0.3902
H15 H 0.0560 0.1138 0.4821
H16 H 0.1103 0.2088 0.5041
N7 N 0.8610(6) 0.21272(13) 0.7068(2)
C23 C 0.6520(7) 0.23102(17) 0.7179(3)
C24 C 0.4687(6) 0.19582(16) 0.7176(3)
N8 N 0.4899(6) 0.14094(14) 0.7064(3)
C25 C 0.7000(7) 0.12284(17) 0.6947(3)
C26 C 0.8828(7) 0.15823(16) 0.6954(3)
C27 C 0.6149(6) 0.29188(17) 0.7302(3)
O3 O 0.4236(4) 0.31069(11) 0.7362(2)
N9 N 0.8056(5) 0.32238(13) 0.7331(2)
C28 C 0.8282(7) 0.38047(16) 0.7413(3)
C29 C 0.6505(6) 0.41461(16) 0.7691(3)
C30 C 0.6831(6) 0.47105(16) 0.7752(3)
C31 C 0.8899(7) 0.49237(15) 0.7526(3)
F3 F 0.9194(4) 0.54847(9) 0.7564(2)
C32 C 1.0677(6) 0.46003(17) 0.7257(3)
C33 C 1.0335(7) 0.40310(16) 0.7196(3)
H17 H 0.3234 0.2110 0.7256
H18 H 0.7245 0.0844 0.6855
H19 H 1.0283 0.1432 0.6876
H20 H 0.9313 0.3047 0.7216
H21 H 0.5087 0.3991 0.7837
H22 H 0.5648 0.4947 0.7947
H23 H 1.2092 0.4759 0.7117
H24 H 1.1529 0.3797 0.7004
N10 N 0.9132(5) 0.33130(14) 0.9916(2)
C34 C 1.1217(6) 0.31359(16) 0.9762(3)
C35 C 1.3028(7) 0.34930(16) 0.9735(3)
N11 N 1.2801(6) 0.40379(14) 0.9867(3)
C36 C 1.0719(7) 0.42164(17) 1.0019(3)
C37 C 0.8907(6) 0.38583(16) 1.0052(3)
C38 C 1.1603(7) 0.25279(16) 0.9618(3)
O4 O 1.3490(4) 0.23480(11) 0.9495(2)
N12 N 0.9707(5) 0.22207(13) 0.9639(3)
C39 C 0.9485(6) 0.16455(15) 0.9530(3)
C40 C 1.1228(6) 0.13037(16) 0.9208(3)
C41 C 1.0851(6) 0.07398(17) 0.9098(3)
C42 C 0.8782(7) 0.05219(16) 0.9296(3)
F4 F 0.8449(4) -0.00270(9) 0.9197(2)
C43 C 0.7061(6) 0.08510(17) 0.9612(3)
C44 C 0.7387(6) 0.14112(16) 0.9731(3)
H25 H 1.4476 0.3347 0.9620
H26 H 1.0471 0.4601 1.0107
H27 H 0.7462 0.4004 1.0176
H28 H 0.8539 0.2424 0.9789
H29 H 1.2653 0.1456 0.9067
H30 H 1.2026 0.0505 0.8886
H31 H 0.5644 0.0693 0.9749
H32 H 0.6195 0.1639 0.9948
loop_
_geom_bond_atom_site_label_1
_geom_bond_atom_site_label_2
_geom_bond_site_symmetry_1
_geom_bond_site_symmetry_2
N1 C1 1_555 1_555
C1 C2 1_555 1_555
C2 N2 1_555 1_555
N2 C3 1_555 1_555
C3 C4 1_555 1_555
C4 N1 1_555 1_555
C5 C1 1_555 1_555
O1 C5 1_555 1_555
N3 C5 1_555 1_555
C6 N3 1_555 1_555
C7 C6 1_555 1_555
C8 C7 1_555 1_555
C9 C8 1_555 1_555
F1 C9 1_555 1_555
C10 C9 1_555 1_555
C11 C6 1_555 1_555
H1 C2 1_555 1_555
H2 C3 1_555 1_555
H3 C4 1_555 1_555
H4 N3 1_555 1_555
H5 C7 1_555 1_555
H6 C8 1_555 1_555
H7 C10 1_555 1_555
H8 C11 1_555 1_555
N4 C12 1_555 1_555
C12 C13 1_555 1_555
C13 N5 1_555 1_555
N5 C14 1_555 1_555
C14 C15 1_555 1_555
C15 N4 1_555 1_555
C16 C12 1_555 1_555
O2 C16 1_555 1_555
N6 C16 1_555 1_555
C17 N6 1_555 1_555
C18 C17 1_555 1_555
C19 C18 1_555 1_555
C20 C19 1_555 1_555
F2 C20 1_555 1_555
C21 C20 1_555 1_555
C22 C17 1_555 1_555
H9 C13 1_555 1_555
H10 C14 1_555 1_555
H11 C15 1_555 1_555
H12 N6 1_555 1_555
H13 C18 1_555 1_555
H14 C19 1_555 1_555
H15 C21 1_555 1_555
H16 C22 1_555 1_555
N7 C23 1_555 1_555
C23 C24 1_555 1_555
C24 N8 1_555 1_555
N8 C25 1_555 1_555
C25 C26 1_555 1_555
C26 N7 1_555 1_555
C27 C23 1_555 1_555
O3 C27 1_555 1_555
N9 C27 1_555 1_555
C28 N9 1_555 1_555
C29 C28 1_555 1_555
C30 C29 1_555 1_555
C31 C30 1_555 1_555
F3 C31 1_555 1_555
C32 C31 1_555 1_555
C33 C28 1_555 1_555
H17 C24 1_555 1_555
H18 C25 1_555 1_555
H19 C26 1_555 1_555
H20 N9 1_555 1_555
H21 C29 1_555 1_555
H22 C30 1_555 1_555
H23 C32 1_555 1_555
H24 C33 1_555 1_555
N10 C34 1_555 1_555
C34 C35 1_555 1_555
C35 N11 1_555 1_555
N11 C36 1_555 1_555
C36 C37 1_555 1_555
C37 N10 1_555 1_555
C38 C34 1_555 1_555
O4 C38 1_555 1_555
N12 C38 1_555 1_555
C39 N12 1_555 1_555
C40 C39 1_555 1_555
C41 C40 1_555 1_555
C42 C41 1_555 1_555
F4 C42 1_555 1_555
C43 C42 1_555 1_555
C44 C39 1_555 1_555
H25 C35 1_555 1_555
H26 C36 1_555 1_555
H27 C37 1_555 1_555
H28 N12 1_555 1_555
H29 C40 1_555 1_555
H30 C41 1_555 1_555
H31 C43 1_555 1_555
H32 C44 1_555 1_555
C10 C11 1_555 1_555
C21 C22 1_555 1_555
C32 C33 1_555 1_555
C43 C44 1_555 1_555

#END
