
#######################################################################
#
#                 Cambridge Crystallographic Data Centre
#                                CCDC 
#
#######################################################################
#
# If this CIF has been generated from an entry in the Cambridge 
# Structural Database, then it will include bibliographic, chemical, 
# crystal, experimental, refinement or atomic coordinate data resulting 
# from the CCDC's data processing and validation procedures.
#
#######################################################################

data_TITWID
_chemical_formula_moiety         'C11 H7 F2 N3 O1'
_chemical_name_systematic        N-(2,6-Difluorophenyl)pyrazine-2-carboxamide
_symmetry_cell_setting           monoclinic
_symmetry_space_group_name_H-M   'C 2/c'
_symmetry_Int_Tables_number      15
_space_group_name_Hall           '-C 2yn'
loop_
_symmetry_equiv_pos_site_id
_symmetry_equiv_pos_as_xyz
1 x,y,z
2 1/2+x,1/2+y,z
3 -x,y,1/2-z
4 1/2-x,1/2+y,1/2-z
5 -x,-y,-z
6 1/2-x,1/2-y,-z
7 x,-y,1/2+z
8 1/2+x,1/2-y,1/2+z
_cell_length_a                   9.8054(4)
_cell_length_b                   10.9355(5)
_cell_length_c                   19.4805(9)
_cell_angle_alpha                90
_cell_angle_beta                 103.474(2)
_cell_angle_gamma                90
_cell_volume                     2031.34
_exptl_crystal_colour            colorless
_exptl_crystal_description       plate
_chemical_melting_point          '395-396 K'
_cell_formula_units_Z            8
_exptl_crystal_recrystallization_method ethanol
loop_
_atom_site_label
_atom_site_type_symbol
_atom_site_fract_x
_atom_site_fract_y
_atom_site_fract_z
N1 N 0.21935(14) 0.42042(12) 0.25078(7)
C1 C 0.29661(16) 0.31950(14) 0.26687(8)
C2 C 0.26352(17) 0.21169(15) 0.22931(9)
N2 N 0.15035(15) 0.20133(13) 0.17608(7)
C3 C 0.07397(18) 0.30302(16) 0.15963(9)
C4 C 0.10848(18) 0.41131(16) 0.19603(9)
C5 C 0.42342(16) 0.32238(14) 0.32732(8)
O1 O 0.49267(12) 0.22987(10) 0.34594(6)
N3 N 0.45515(14) 0.43359(12) 0.35739(7)
C6 C 0.57736(16) 0.45357(14) 0.41093(8)
C7 C 0.60765(17) 0.39043(15) 0.47440(9)
F1 F 0.51227(10) 0.30902(9) 0.48657(5)
C8 C 0.72927(18) 0.40791(17) 0.52542(9)
C9 C 0.82308(18) 0.49569(17) 0.51386(10)
C10 C 0.79667(18) 0.56423(16) 0.45263(10)
C11 C 0.67495(17) 0.54075(15) 0.40266(9)
F2 F 0.64818(10) 0.60453(9) 0.34139(5)
H1 H 0.3233 0.1429 0.2418
H2 H -0.0068 0.3007 0.1216
H3 H 0.0518 0.4814 0.1817
H4 H 0.4065 0.4981 0.3390
H5 H 0.7484 0.3608 0.5676
H6 H 0.9073 0.5091 0.5487
H7 H 0.8604 0.6255 0.4452
loop_
_geom_bond_atom_site_label_1
_geom_bond_atom_site_label_2
_geom_bond_site_symmetry_1
_geom_bond_site_symmetry_2
N1 C1 1_555 1_555
C1 C2 1_555 1_555
C2 N2 1_555 1_555
N2 C3 1_555 1_555
C3 C4 1_555 1_555
C4 N1 1_555 1_555
C5 C1 1_555 1_555
O1 C5 1_555 1_555
N3 C5 1_555 1_555
C6 N3 1_555 1_555
C7 C6 1_555 1_555
F1 C7 1_555 1_555
C8 C7 1_555 1_555
C9 C8 1_555 1_555
C10 C9 1_555 1_555
C11 C6 1_555 1_555
F2 C11 1_555 1_555
H1 C2 1_555 1_555
H2 C3 1_555 1_555
H3 C4 1_555 1_555
H4 N3 1_555 1_555
H5 C8 1_555 1_555
H6 C9 1_555 1_555
H7 C10 1_555 1_555
C10 C11 1_555 1_555

#END
