
#######################################################################
#
#                 Cambridge Crystallographic Data Centre
#                                CCDC 
#
#######################################################################
#
# If this CIF has been generated from an entry in the Cambridge 
# Structural Database, then it will include bibliographic, chemical, 
# crystal, experimental, refinement or atomic coordinate data resulting 
# from the CCDC's data processing and validation procedures.
#
#######################################################################

data_TITWEZ
_chemical_formula_moiety         'C13 H13 N3 O1'
_chemical_name_systematic        N-(2,6-Dimethylphenyl)pyrazine-2-carboxamide
_symmetry_cell_setting           monoclinic
_symmetry_space_group_name_H-M   'P 21/c'
_symmetry_Int_Tables_number      14
_space_group_name_Hall           '-P 2ybc'
loop_
_symmetry_equiv_pos_site_id
_symmetry_equiv_pos_as_xyz
1 x,y,z
2 -x,1/2+y,1/2-z
3 -x,-y,-z
4 x,1/2-y,1/2+z
_cell_length_a                   7.3977(4)
_cell_length_b                   10.7671(5)
_cell_length_c                   15.2457(4)
_cell_angle_alpha                90
_cell_angle_beta                 101.665(3)
_cell_angle_gamma                90
_cell_volume                     1189.27
_exptl_crystal_colour            colorless
_exptl_crystal_description       plate
_chemical_melting_point          '380-382 K'
_cell_formula_units_Z            4
_exptl_crystal_recrystallization_method ethanol
loop_
_atom_site_label
_atom_site_type_symbol
_atom_site_fract_x
_atom_site_fract_y
_atom_site_fract_z
N1 N 0.30541(17) 0.19694(11) 0.33164(7)
N2 N 0.54067(18) 0.38744(12) 0.29754(8)
C1 C 0.3642(2) 0.28716(13) 0.39124(9)
C2 C 0.4802(2) 0.38114(14) 0.37436(9)
C3 C 0.4801(2) 0.29751(15) 0.23817(10)
C4 C 0.3645(2) 0.20311(14) 0.25479(9)
C5 C 0.3024(2) 0.27995(13) 0.47911(9)
O1 O 0.35933(16) 0.35280(10) 0.54026(6)
N3 N 0.18305(17) 0.18683(11) 0.48341(7)
C6 C 0.1104(2) 0.15501(13) 0.56050(9)
C7 C -0.0109(2) 0.23585(15) 0.59085(10)
C8 C -0.0657(3) 0.35849(17) 0.54624(13)
C9 C -0.0815(3) 0.19891(18) 0.66440(12)
C10 C -0.0382(3) 0.0866(2) 0.70520(11)
C11 C 0.0819(3) 0.00792(17) 0.67408(10)
C12 C 0.1593(2) 0.04040(14) 0.60114(9)
C13 C 0.2951(2) -0.04315(15) 0.56941(11)
H1 H 0.5181 0.4430 0.4187
H2 H 0.5180 0.2986 0.1822
H3 H 0.3265 0.1413 0.2104
H4 H 0.1597 0.1369 0.4368
H5 H -0.1765 0.3896 0.5649
H6 H -0.0913 0.3476 0.4811
H7 H 0.0352 0.4182 0.5636
H8 H -0.1622 0.2532 0.6871
H9 H -0.0907 0.0629 0.7547
H10 H 0.1125 -0.0697 0.7029
H11 H 0.2604 -0.0526 0.5042
H12 H 0.2950 -0.1247 0.5979
H13 H 0.4189 -0.0068 0.5854
loop_
_geom_bond_atom_site_label_1
_geom_bond_atom_site_label_2
_geom_bond_site_symmetry_1
_geom_bond_site_symmetry_2
N1 C1 1_555 1_555
N2 C2 1_555 1_555
C1 C2 1_555 1_555
C2 H1 1_555 1_555
C3 N2 1_555 1_555
C4 N1 1_555 1_555
C5 C1 1_555 1_555
O1 C5 1_555 1_555
N3 C5 1_555 1_555
C6 N3 1_555 1_555
C7 C6 1_555 1_555
C8 C7 1_555 1_555
C9 C7 1_555 1_555
C10 C9 1_555 1_555
C11 C10 1_555 1_555
C12 C6 1_555 1_555
C13 C12 1_555 1_555
H2 C3 1_555 1_555
H3 C4 1_555 1_555
H4 N3 1_555 1_555
H5 C8 1_555 1_555
H6 C8 1_555 1_555
H7 C8 1_555 1_555
H8 C9 1_555 1_555
H9 C10 1_555 1_555
H10 C11 1_555 1_555
H11 C13 1_555 1_555
H12 C13 1_555 1_555
H13 C13 1_555 1_555
C3 C4 1_555 1_555
C11 C12 1_555 1_555

#END
