
#######################################################################
#
#                 Cambridge Crystallographic Data Centre
#                                CCDC 
#
#######################################################################
#
# If this CIF has been generated from an entry in the Cambridge 
# Structural Database, then it will include bibliographic, chemical, 
# crystal, experimental, refinement or atomic coordinate data resulting 
# from the CCDC's data processing and validation procedures.
#
#######################################################################

data_TITXAW
_chemical_formula_moiety         'C12 H10 N4 O3'
_chemical_name_systematic        
N-(2-Methyl-5-nitrophenyl)pyrazine-2-carboxamide
_symmetry_cell_setting           monoclinic
_symmetry_space_group_name_H-M   'P 21/c'
_symmetry_Int_Tables_number      14
_space_group_name_Hall           '-P 2ybc'
loop_
_symmetry_equiv_pos_site_id
_symmetry_equiv_pos_as_xyz
1 x,y,z
2 -x,1/2+y,1/2-z
3 -x,-y,-z
4 x,1/2-y,1/2+z
_cell_length_a                   10.4767(5)
_cell_length_b                   14.5930(6)
_cell_length_c                   7.7136(3)
_cell_angle_alpha                90
_cell_angle_beta                 93.433(3)
_cell_angle_gamma                90
_cell_volume                     1177.19
_exptl_crystal_colour            colorless
_exptl_crystal_description       plate
_chemical_melting_point          '438-439 K'
_cell_formula_units_Z            4
_exptl_crystal_recrystallization_method ethanol
loop_
_atom_site_label
_atom_site_type_symbol
_atom_site_fract_x
_atom_site_fract_y
_atom_site_fract_z
N1 N 0.44260(18) 0.25515(13) 0.6088(2)
C1 C 0.3756(2) 0.18393(14) 0.5420(3)
C2 C 0.4112(2) 0.09426(17) 0.5781(3)
N2 N 0.5132(2) 0.07421(15) 0.6834(3)
C3 C 0.5794(2) 0.14576(19) 0.7478(3)
C4 C 0.5447(2) 0.23544(18) 0.7107(3)
C5 C 0.2592(2) 0.20506(14) 0.4266(3)
O1 O 0.19677(15) 0.14521(10) 0.3492(2)
N3 N 0.23298(16) 0.29586(11) 0.4201(2)
C6 C 0.1330(2) 0.34329(14) 0.3318(3)
C7 C 0.1307(2) 0.43932(14) 0.3521(3)
C8 C 0.2343(2) 0.48820(15) 0.4598(3)
C9 C 0.0320(2) 0.48825(15) 0.2678(3)
C10 C -0.0629(2) 0.44588(15) 0.1633(3)
C11 C -0.0564(2) 0.35240(15) 0.1465(3)
N4 N -0.15470(17) 0.30635(14) 0.0344(2)
O2 O -0.22843(17) 0.35439(12) -0.0560(2)
O3 O -0.15942(16) 0.22235(12) 0.0363(2)
C12 C 0.03822(19) 0.29911(15) 0.2284(3)
H1 H 0.3618 0.0457 0.5266
H2 H 0.6534 0.1347 0.8222
H3 H 0.5955 0.2839 0.7596
H4 H 0.2891 0.3264 0.4870
H5 H 0.2171 0.5542 0.4584
H6 H 0.3172 0.4765 0.4115
H7 H 0.2360 0.4657 0.5796
H8 H 0.0293 0.5529 0.2822
H9 H -0.1297 0.4802 0.1056
H10 H 0.0386 0.2344 0.2147
loop_
_geom_bond_atom_site_label_1
_geom_bond_atom_site_label_2
_geom_bond_site_symmetry_1
_geom_bond_site_symmetry_2
N1 C1 1_555 1_555
C1 C2 1_555 1_555
C2 N2 1_555 1_555
N2 C3 1_555 1_555
C3 C4 1_555 1_555
C4 N1 1_555 1_555
C5 C1 1_555 1_555
O1 C5 1_555 1_555
N3 C5 1_555 1_555
C6 N3 1_555 1_555
C7 C6 1_555 1_555
C8 C7 1_555 1_555
C9 C7 1_555 1_555
C10 C9 1_555 1_555
C11 C10 1_555 1_555
N4 C11 1_555 1_555
O2 N4 1_555 1_555
O3 N4 1_555 1_555
C12 C6 1_555 1_555
H1 C2 1_555 1_555
H2 C3 1_555 1_555
H3 C4 1_555 1_555
H4 N3 1_555 1_555
H5 C8 1_555 1_555
H6 C8 1_555 1_555
H7 C8 1_555 1_555
H8 C9 1_555 1_555
H9 C10 1_555 1_555
H10 C12 1_555 1_555
C11 C12 1_555 1_555

#END
