
#######################################################################
#
#                 Cambridge Crystallographic Data Centre
#                                CCDC 
#
#######################################################################
#
# If this CIF has been generated from an entry in the Cambridge 
# Structural Database, then it will include bibliographic, chemical, 
# crystal, experimental, refinement or atomic coordinate data resulting 
# from the CCDC's data processing and validation procedures.
#
#######################################################################

data_TIVBEG
_chemical_formula_moiety         'C24 H16 Cl2 O2'
_chemical_name_systematic        2,3-bis(2-Chlorobenzyl)naphthalene-1,4-dione
_symmetry_cell_setting           monoclinic
_symmetry_space_group_name_H-M   'P 21/n'
_symmetry_Int_Tables_number      14
_space_group_name_Hall           '-P 2yn'
loop_
_symmetry_equiv_pos_site_id
_symmetry_equiv_pos_as_xyz
1 x,y,z
2 1/2-x,1/2+y,1/2-z
3 -x,-y,-z
4 1/2+x,1/2-y,1/2+z
_cell_length_a                   9.998(1)
_cell_length_b                   10.272(1)
_cell_length_c                   18.804(2)
_cell_angle_alpha                90
_cell_angle_beta                 99.071(1)
_cell_angle_gamma                90
_cell_volume                     1907.01
_exptl_crystal_colour            yellow
_exptl_crystal_description       block
_cell_formula_units_Z            4
_exptl_crystal_recrystallization_method 'dichloromethane/petroleum ether'
loop_
_atom_site_label
_atom_site_type_symbol
_atom_site_fract_x
_atom_site_fract_y
_atom_site_fract_z
Cl1 Cl 0.53007(6) 0.55702(6) 0.66580(4)
Cl2 Cl -0.07641(7) 0.55387(6) 0.39047(4)
O1 O 0.48173(15) 1.00324(15) 0.60292(8)
O2 O 0.03492(16) 1.00716(16) 0.40921(9)
C1 C 0.39509(19) 0.64277(17) 0.69086(10)
C2 C 0.3610(3) 0.6185(2) 0.75798(11)
H1 H 0.4108 0.5589 0.7887
C3 C 0.2548(3) 0.6819(2) 0.77899(13)
H2 H 0.2317 0.6658 0.8242
C4 C 0.1817(3) 0.7694(2) 0.73391(13)
H3 H 0.1081 0.8118 0.7481
C5 C 0.2169(2) 0.79478(19) 0.66737(10)
H4 H 0.1667 0.8550 0.6373
C6 C 0.32481(18) 0.73306(16) 0.64433(9)
C7 C 0.3679(2) 0.76083(18) 0.57207(10)
H5 H 0.4658 0.7688 0.5789
H6 H 0.3431 0.6871 0.5405
C8 C 0.30674(17) 0.88202(17) 0.53547(9)
C9 C 0.37930(17) 1.00544(18) 0.55815(9)
C10 C 0.32835(17) 1.12940(16) 0.52474(9)
C11 C 0.39225(19) 1.24608(19) 0.54606(11)
H7 H 0.4650 1.2469 0.5836
C12 C 0.3487(2) 1.3603(2) 0.51213(14)
H8 H 0.3920 1.4382 0.5266
C13 C 0.2408(2) 1.3596(2) 0.45657(15)
H9 H 0.2131 1.4368 0.4330
C14 C 0.1739(2) 1.2458(2) 0.43582(12)
H10 H 0.1002 1.2465 0.3988
C15 C 0.21608(18) 1.12966(17) 0.47002(9)
C16 C 0.14175(18) 1.00724(18) 0.45086(9)
C17 C 0.19512(18) 0.88289(17) 0.48466(9)
C18 C 0.1139(2) 0.76407(19) 0.45892(11)
H11 H 0.0185 0.7835 0.4574
H12 H 0.1372 0.6946 0.4936
C19 C 0.13550(17) 0.71606(17) 0.38532(10)
C20 C 0.23605(19) 0.76496(19) 0.35008(10)
H13 H 0.2938 0.8290 0.3724
C21 C 0.2529(2) 0.7209(2) 0.28236(12)
H14 H 0.3211 0.7555 0.2597
C22 C 0.1689(3) 0.6263(3) 0.24877(13)
H15 H 0.1804 0.5965 0.2034
C23 C 0.0682(2) 0.5759(2) 0.28197(13)
H16 H 0.0108 0.5121 0.2592
C24 C 0.05248(19) 0.62039(18) 0.34967(11)
loop_
_geom_bond_atom_site_label_1
_geom_bond_atom_site_label_2
_geom_bond_site_symmetry_1
_geom_bond_site_symmetry_2
Cl1 C1 1_555 1_555
Cl2 C24 1_555 1_555
O1 C9 1_555 1_555
O2 C16 1_555 1_555
C1 C2 1_555 1_555
C2 H1 1_555 1_555
C3 C2 1_555 1_555
H2 C3 1_555 1_555
C4 C3 1_555 1_555
H3 C4 1_555 1_555
C5 C4 1_555 1_555
H4 C5 1_555 1_555
C6 C1 1_555 1_555
C7 C6 1_555 1_555
H5 C7 1_555 1_555
H6 C7 1_555 1_555
C8 C7 1_555 1_555
C9 C8 1_555 1_555
C10 C9 1_555 1_555
C11 C10 1_555 1_555
H7 C11 1_555 1_555
C12 C11 1_555 1_555
H8 C12 1_555 1_555
C13 C12 1_555 1_555
H9 C13 1_555 1_555
C14 C13 1_555 1_555
H10 C14 1_555 1_555
C15 C10 1_555 1_555
C16 C15 1_555 1_555
C17 C8 1_555 1_555
C18 C17 1_555 1_555
H11 C18 1_555 1_555
H12 C18 1_555 1_555
C19 C18 1_555 1_555
C20 C19 1_555 1_555
H13 C20 1_555 1_555
C21 C20 1_555 1_555
H14 C21 1_555 1_555
C22 C21 1_555 1_555
H15 C22 1_555 1_555
C23 C22 1_555 1_555
H16 C23 1_555 1_555
C24 C19 1_555 1_555
C5 C6 1_555 1_555
C14 C15 1_555 1_555
C16 C17 1_555 1_555
C23 C24 1_555 1_555

#END
