
#######################################################################
#
#                 Cambridge Crystallographic Data Centre
#                                CCDC 
#
#######################################################################
#
# If this CIF has been generated from an entry in the Cambridge 
# Structural Database, then it will include bibliographic, chemical, 
# crystal, experimental, refinement or atomic coordinate data resulting 
# from the CCDC's data processing and validation procedures.
#
#######################################################################

data_TIVDUX
_chemical_formula_moiety         'C25 H28 N2 O7 S1'
_chemical_name_systematic        
'Ethyl (5-ethoxycarbonylmethyl-2-methyl-8-(p-tolylsulfonylamino)-6-quinolyloxy)acetate'
_symmetry_cell_setting           triclinic
_symmetry_space_group_name_H-M   'P -1'
_symmetry_Int_Tables_number      2
_space_group_name_Hall           '-P 1'
loop_
_symmetry_equiv_pos_site_id
_symmetry_equiv_pos_as_xyz
1 x,y,z
2 -x,-y,-z
_cell_length_a                   11.482(2)
_cell_length_b                   11.531(1)
_cell_length_c                   10.872(1)
_cell_angle_alpha                100.73(1)
_cell_angle_beta                 99.34(1)
_cell_angle_gamma                113.41(1)
_cell_volume                     1252.51
_exptl_crystal_colour            colorless
_chemical_melting_point          88-90deg.C
_cell_formula_units_Z            2
loop_
_atom_site_label
_atom_site_type_symbol
_atom_site_fract_x
_atom_site_fract_y
_atom_site_fract_z
S1 S 0.0161(1) 0.6636(1) 0.1928(1)
O1 O -0.4177(3) 0.9915(3) 0.1384(4)
O2 O -0.6192(4) 0.9227(3) 0.1590(5)
O3 O -0.3158(3) 0.8612(3) 0.3468(3)
O4 O -0.2713(3) 0.7139(3) 0.5059(3)
O5 O 0.0946(3) 0.6214(3) 0.1238(3)
O6 O 0.0758(3) 0.7853(3) 0.2930(3)
O7 O -0.0836(3) 0.8854(3) 0.6243(3)
N1 N -0.3015(3) 0.5809(3) -0.1167(3)
N2 N -0.0932(3) 0.6706(3) 0.0811(3)
C1 C -0.4012(4) 0.5347(4) -0.2217(4)
C2 C -0.3892(5) 0.4594(4) -0.3438(4)
C3 C -0.5138(4) 0.5543(4) -0.2167(5)
C4 C -0.5242(4) 0.6213(4) -0.1063(5)
C5 C -0.4166(4) 0.6742(4) 0.0092(4)
C6 C -0.4197(4) 0.7438(4) 0.1294(4)
C7 C -0.5345(4) 0.7716(4) 0.1497(5)
C8 C -0.5137(4) 0.9071(4) 0.1471(5)
C9 C -0.6106(6) 1.0497(5) 0.1551(7)
C10 C -0.7077(7) 1.0684(6) 0.1992(9)
C11 C -0.3089(4) 0.7908(4) 0.2318(4)
C12 C -0.2037(4) 0.9224(4) 0.4561(4)
C13 C -0.1986(4) 0.7688(4) 0.2217(4)
C14 C -0.1934(4) 0.8258(4) 0.5288(4)
C15 C -0.1987(4) 0.6984(4) 0.1055(4)
C16 C -0.0713(4) 0.5396(4) 0.2599(4)
C17 C -0.0888(4) 0.5727(4) 0.3823(4)
C18 C -0.1559(4) 0.4747(4) 0.4350(4)
C19 C -0.2088(4) 0.3427(4) 0.3666(5)
C20 C -0.2795(5) 0.2356(5) 0.4287(5)
C21 C -0.1940(4) 0.3107(4) 0.2429(4)
C22 C -0.1257(4) 0.4079(4) 0.1883(4)
C23 C -0.3093(4) 0.6492(4) -0.0044(4)
C24 C -0.0652(5) 0.8081(5) 0.7131(5)
C25 C 0.0289(6) 0.9001(5) 0.8358(5)
H1 H -0.0849(3) 0.6526(3) -0.0175(3)
H2 H -0.4768(5) 0.4277(4) -0.4208(4)
H3 H -0.3777(5) 0.3745(4) -0.3274(4)
H4 H -0.3045(5) 0.5219(4) -0.3709(4)
H5 H -0.5940(4) 0.5148(4) -0.3033(5)
H6 H -0.6116(4) 0.6352(4) -0.1046(5)
H7 H -0.5494(4) 0.7591(4) 0.2429(5)
H8 H -0.6212(4) 0.7019(4) 0.0740(5)
H9 H -0.6281(6) 1.0514(5) 0.0549(7)
H10 H -0.5139(6) 1.1256(5) 0.2087(7)
H11 H -0.7010(7) 1.1633(6) 0.1936(9)
H12 H -0.6904(7) 1.0670(6) 0.2995(9)
H13 H -0.8045(7) 0.9928(6) 0.1457(9)
H14 H -0.1161(4) 0.9632(4) 0.4230(4)
H15 H -0.2219(4) 1.0003(4) 0.5209(4)
H16 H -0.1150(4) 0.8067(4) 0.3048(4)
H17 H -0.0493(4) 0.6747(4) 0.4362(4)
H18 H -0.1682(4) 0.5008(4) 0.5311(4)
H19 H -0.3133(5) 0.1403(5) 0.3611(5)
H20 H -0.3626(5) 0.2468(5) 0.4532(5)
H21 H -0.2125(5) 0.2438(5) 0.5156(5)
H22 H -0.2354(4) 0.2086(4) 0.1883(4)
H23 H -0.1152(4) 0.3822(4) 0.0914(4)
H24 H -0.0269(5) 0.7431(5) 0.6708(5)
H25 H -0.1581(5) 0.7508(5) 0.7309(5)
H26 H 0.0439(6) 0.8455(5) 0.9025(5)
H27 H -0.0097(6) 0.9651(5) 0.8775(5)
H28 H 0.1215(6) 0.9574(5) 0.8174(5)
loop_
_geom_bond_atom_site_label_1
_geom_bond_atom_site_label_2
_geom_bond_site_symmetry_1
_geom_bond_site_symmetry_2
S1 O5 1_555 1_555
O1 C8 1_555 1_555
O2 C8 1_555 1_555
O3 C11 1_555 1_555
O4 C14 1_555 1_555
O6 S1 1_555 1_555
O7 C14 1_555 1_555
N1 C1 1_555 1_555
N2 S1 1_555 1_555
C1 C2 1_555 1_555
C2 H2 1_555 1_555
C3 C1 1_555 1_555
C4 C3 1_555 1_555
C5 C4 1_555 1_555
C6 C5 1_555 1_555
C7 C6 1_555 1_555
C8 C7 1_555 1_555
C9 O2 1_555 1_555
C10 C9 1_555 1_555
C11 C6 1_555 1_555
C12 O3 1_555 1_555
C13 C11 1_555 1_555
C14 C12 1_555 1_555
C15 N2 1_555 1_555
C16 S1 1_555 1_555
C17 C16 1_555 1_555
C18 C17 1_555 1_555
C19 C18 1_555 1_555
C20 C19 1_555 1_555
C21 C19 1_555 1_555
C22 C16 1_555 1_555
C23 N1 1_555 1_555
C24 O7 1_555 1_555
C25 C24 1_555 1_555
H1 N2 1_555 1_555
H3 C2 1_555 1_555
H4 C2 1_555 1_555
H5 C3 1_555 1_555
H6 C4 1_555 1_555
H7 C7 1_555 1_555
H8 C7 1_555 1_555
H9 C9 1_555 1_555
H10 C9 1_555 1_555
H11 C10 1_555 1_555
H12 C10 1_555 1_555
H13 C10 1_555 1_555
H14 C12 1_555 1_555
H15 C12 1_555 1_555
H16 C13 1_555 1_555
H17 C17 1_555 1_555
H18 C18 1_555 1_555
H19 C20 1_555 1_555
H20 C20 1_555 1_555
H21 C20 1_555 1_555
H22 C21 1_555 1_555
H23 C22 1_555 1_555
H24 C24 1_555 1_555
H25 C24 1_555 1_555
H26 C25 1_555 1_555
H27 C25 1_555 1_555
H28 C25 1_555 1_555
C5 C23 1_555 1_555
C13 C15 1_555 1_555
C15 C23 1_555 1_555
C21 C22 1_555 1_555

#END
