
#######################################################################
#
#                 Cambridge Crystallographic Data Centre
#                                CCDC 
#
#######################################################################
#
# If this CIF has been generated from an entry in the Cambridge 
# Structural Database, then it will include bibliographic, chemical, 
# crystal, experimental, refinement or atomic coordinate data resulting 
# from the CCDC's data processing and validation procedures.
#
#######################################################################

data_TIVFUB
_chemical_formula_moiety         'C39 H57 P1'
_chemical_name_systematic        
Mesityl(bis(2,4,6-triisopropylphenyl))phosphine
_symmetry_cell_setting           monoclinic
_symmetry_space_group_name_H-M   'P 21/n'
_symmetry_Int_Tables_number      14
_space_group_name_Hall           '-P 2yn'
loop_
_symmetry_equiv_pos_site_id
_symmetry_equiv_pos_as_xyz
1 x,y,z
2 1/2-x,1/2+y,1/2-z
3 -x,-y,-z
4 1/2+x,1/2-y,1/2+z
_cell_length_a                   10.0401(13)
_cell_length_b                   16.8060(15)
_cell_length_c                   21.5873(14)
_cell_angle_alpha                90
_cell_angle_beta                 98.712(3)
_cell_angle_gamma                90
_cell_volume                     3600.48
_exptl_crystal_colour            colorless
_exptl_crystal_description       block
_cell_formula_units_Z            4
loop_
_atom_site_label
_atom_site_type_symbol
_atom_site_fract_x
_atom_site_fract_y
_atom_site_fract_z
C1 C 0.4325(2) 0.51756(13) 0.18975(10)
C2 C 0.5474(2) 0.48863(14) 0.22938(11)
C3 C 0.6267(2) 0.42977(14) 0.20750(11)
H1 H 0.7033 0.4104 0.2345
C4 C 0.5970(2) 0.39874(14) 0.14761(12)
C5 C 0.4823(2) 0.42528(13) 0.11067(11)
H2 H 0.4602 0.4039 0.0697
C6 C 0.3972(2) 0.48182(13) 0.13037(10)
C7 C 0.5861(2) 0.51597(14) 0.29605(11)
H3 H 0.5172 0.5559 0.3046
C8 C 0.5841(3) 0.44852(16) 0.34328(12)
H4 H 0.4906 0.4342 0.3461
H5 H 0.6294 0.4659 0.3845
H6 H 0.6312 0.4021 0.3296
C9 C 0.7230(3) 0.55752(16) 0.30721(12)
H7 H 0.7935 0.5198 0.3001
H8 H 0.7409 0.5770 0.3505
H9 H 0.7224 0.6025 0.2782
C10 C 0.2671(2) 0.49735(13) 0.08742(10)
H10 H 0.2125 0.5340 0.1100
C11 C 0.1857(2) 0.42102(14) 0.07385(11)
H11 H 0.2251 0.3889 0.0434
H12 H 0.0923 0.4344 0.0567
H13 H 0.1873 0.3907 0.1127
C12 C 0.2861(2) 0.53815(15) 0.02620(11)
H14 H 0.3444 0.5848 0.0354
H15 H 0.1982 0.5550 0.0040
H16 H 0.3278 0.5009 0.0000
C13 C 0.6865(2) 0.33744(14) 0.12331(12)
H17 H 0.6590 0.3341 0.0769
C14 C 0.8357(2) 0.36110(16) 0.13529(13)
H18 H 0.8455 0.4121 0.1575
H19 H 0.8695 0.3661 0.0952
H20 H 0.8874 0.3202 0.1609
C15 C 0.6650(3) 0.25632(15) 0.15001(13)
H21 H 0.6833 0.2587 0.1959
H22 H 0.7261 0.2180 0.1348
H23 H 0.5715 0.2396 0.1367
C16 C 0.2784(2) 0.66937(13) 0.14969(10)
C17 C 0.3645(2) 0.71547(13) 0.11800(11)
C18 C 0.3091(2) 0.76938(14) 0.07200(11)
H24 H 0.3674 0.7995 0.0503
C19 C 0.1714(2) 0.77990(14) 0.05729(12)
C20 C 0.0892(2) 0.73455(14) 0.08773(11)
H25 H -0.0056 0.7408 0.0773
C21 C 0.1393(2) 0.67911(13) 0.13379(11)
C22 C 0.0345(2) 0.63169(14) 0.16088(11)
H26 H 0.0826 0.5902 0.1890
C23 C -0.0421(2) 0.68482(15) 0.20071(12)
H27 H 0.0222 0.7151 0.2303
H28 H -0.0981 0.6518 0.2239
H29 H -0.0996 0.7217 0.1735
C24 C -0.0631(2) 0.58892(15) 0.11031(12)
H30 H -0.1126 0.6283 0.0823
H31 H -0.1268 0.5572 0.1302
H32 H -0.0122 0.5539 0.0861
C25 C 0.5155(2) 0.71049(13) 0.13151(11)
H33 H 0.5396 0.6640 0.1599
C26 C 0.5741(2) 0.78577(15) 0.16599(12)
H34 H 0.5586 0.8316 0.1378
H35 H 0.6711 0.7788 0.1793
H36 H 0.5298 0.7948 0.2028
C27 C 0.5811(2) 0.69772(16) 0.07252(12)
H37 H 0.5571 0.6449 0.0551
H38 H 0.6792 0.7017 0.0834
H39 H 0.5488 0.7385 0.0413
C28 C 0.1165(3) 0.84008(15) 0.00777(13)
H40 H 0.1777 0.8266 -0.0232
C29 C -0.0134(3) 0.81941(17) -0.03270(12)
H41 H 0.0055 0.7924 -0.0706
H42 H -0.0647 0.8682 -0.0444
H43 H -0.0661 0.7841 -0.0096
C30 C 0.1661(3) 0.92262(15) 0.02176(13)
H44 H 0.1195 0.9457 0.0542
H45 H 0.1481 0.9550 -0.0164
H46 H 0.2633 0.9215 0.0366
C31 C 0.2578(2) 0.59528(13) 0.27569(11)
C32 C 0.2470(2) 0.66136(14) 0.31471(11)
C33 C 0.1798(2) 0.65415(14) 0.36677(11)
H47 H 0.1715 0.6997 0.3920
C34 C 0.1259(2) 0.58389(15) 0.38232(11)
C35 C 0.1333(2) 0.51973(14) 0.34327(11)
H48 H 0.0919 0.4711 0.3523
C36 C 0.1995(2) 0.52354(13) 0.29097(11)
C37 C 0.1976(2) 0.44863(14) 0.25158(11)
H49 H 0.1683 0.4619 0.2074
H50 H 0.1349 0.4101 0.2653
H51 H 0.2882 0.4256 0.2566
C38 C 0.3029(3) 0.74181(14) 0.30138(11)
H52 H 0.2429 0.7674 0.2671
H53 H 0.3926 0.7353 0.2894
H54 H 0.3095 0.7751 0.3390
C39 C 0.0552(3) 0.57787(15) 0.43945(12)
H55 H 0.1201 0.5881 0.4773
H56 H 0.0175 0.5244 0.4417
H57 H -0.0175 0.6172 0.4363
P1 P 0.36837(6) 0.61206(4) 0.21665(3)
loop_
_geom_bond_atom_site_label_1
_geom_bond_atom_site_label_2
_geom_bond_site_symmetry_1
_geom_bond_site_symmetry_2
C1 C2 1_555 1_555
C2 C3 1_555 1_555
C3 H1 1_555 1_555
C4 C3 1_555 1_555
C5 C4 1_555 1_555
H2 C5 1_555 1_555
C6 C1 1_555 1_555
C7 C2 1_555 1_555
H3 C7 1_555 1_555
C8 C7 1_555 1_555
H4 C8 1_555 1_555
H5 C8 1_555 1_555
H6 C8 1_555 1_555
C9 C7 1_555 1_555
H7 C9 1_555 1_555
H8 C9 1_555 1_555
H9 C9 1_555 1_555
C10 C6 1_555 1_555
H10 C10 1_555 1_555
C11 C10 1_555 1_555
H11 C11 1_555 1_555
H12 C11 1_555 1_555
H13 C11 1_555 1_555
C12 C10 1_555 1_555
H14 C12 1_555 1_555
H15 C12 1_555 1_555
H16 C12 1_555 1_555
C13 C4 1_555 1_555
H17 C13 1_555 1_555
C14 C13 1_555 1_555
H18 C14 1_555 1_555
H19 C14 1_555 1_555
H20 C14 1_555 1_555
C15 C13 1_555 1_555
H21 C15 1_555 1_555
H22 C15 1_555 1_555
H23 C15 1_555 1_555
C16 C17 1_555 1_555
C17 C18 1_555 1_555
C18 H24 1_555 1_555
C19 C18 1_555 1_555
C20 C19 1_555 1_555
H25 C20 1_555 1_555
C21 C16 1_555 1_555
C22 C21 1_555 1_555
H26 C22 1_555 1_555
C23 C22 1_555 1_555
H27 C23 1_555 1_555
H28 C23 1_555 1_555
H29 C23 1_555 1_555
C24 C22 1_555 1_555
H30 C24 1_555 1_555
H31 C24 1_555 1_555
H32 C24 1_555 1_555
C25 C17 1_555 1_555
H33 C25 1_555 1_555
C26 C25 1_555 1_555
H34 C26 1_555 1_555
H35 C26 1_555 1_555
H36 C26 1_555 1_555
C27 C25 1_555 1_555
H37 C27 1_555 1_555
H38 C27 1_555 1_555
H39 C27 1_555 1_555
C28 C19 1_555 1_555
H40 C28 1_555 1_555
C29 C28 1_555 1_555
H41 C29 1_555 1_555
H42 C29 1_555 1_555
H43 C29 1_555 1_555
C30 C28 1_555 1_555
H44 C30 1_555 1_555
H45 C30 1_555 1_555
H46 C30 1_555 1_555
C31 C32 1_555 1_555
C32 C33 1_555 1_555
C33 H47 1_555 1_555
C34 C33 1_555 1_555
C35 C34 1_555 1_555
H48 C35 1_555 1_555
C36 C31 1_555 1_555
C37 C36 1_555 1_555
H49 C37 1_555 1_555
H50 C37 1_555 1_555
H51 C37 1_555 1_555
C38 C32 1_555 1_555
H52 C38 1_555 1_555
H53 C38 1_555 1_555
H54 C38 1_555 1_555
C39 C34 1_555 1_555
H55 C39 1_555 1_555
H56 C39 1_555 1_555
H57 C39 1_555 1_555
P1 C1 1_555 1_555
C5 C6 1_555 1_555
C16 P1 1_555 1_555
C20 C21 1_555 1_555
C31 P1 1_555 1_555
C35 C36 1_555 1_555

#END
