
#######################################################################
#
#                 Cambridge Crystallographic Data Centre
#                                CCDC 
#
#######################################################################
#
# If this CIF has been generated from an entry in the Cambridge 
# Structural Database, then it will include bibliographic, chemical, 
# crystal, experimental, refinement or atomic coordinate data resulting 
# from the CCDC's data processing and validation procedures.
#
#######################################################################

data_TIVHOW
_chemical_formula_moiety         'C24 H38 O6'
_chemical_name_systematic        
syn-anti-anti-anti-syn-Hexadecahydro-3'H,3''H,3'''H,3''''H-2,2':2',2'':2'',2''':2''',2'''':2'''',2'''''-sexifuran
_symmetry_cell_setting           monoclinic
_symmetry_space_group_name_H-M   'P 21/n'
_symmetry_Int_Tables_number      14
_space_group_name_Hall           '-P 2yn'
loop_
_symmetry_equiv_pos_site_id
_symmetry_equiv_pos_as_xyz
1 x,y,z
2 1/2-x,1/2+y,1/2-z
3 -x,-y,-z
4 1/2+x,1/2-y,1/2+z
_cell_length_a                   9.6812(10)
_cell_length_b                   14.3823(10)
_cell_length_c                   15.626(2)
_cell_angle_alpha                90
_cell_angle_beta                 97.944(4)
_cell_angle_gamma                90
_cell_volume                     2154.85
_exptl_crystal_colour            colorless
_exptl_crystal_description       chunk
_chemical_melting_point          '153-154 deg.C'
_cell_formula_units_Z            4
loop_
_atom_site_label
_atom_site_type_symbol
_atom_site_fract_x
_atom_site_fract_y
_atom_site_fract_z
O1 O 0.65556(10) 0.13868(7) 0.34552(7)
O2 O 1.03667(10) 0.13723(7) 0.38610(6)
O3 O 1.02589(9) 0.23711(6) 0.23705(6)
O4 O 0.94412(9) 0.11765(6) 0.10933(6)
O5 O 1.06156(10) -0.04554(6) 0.15340(6)
O6 O 1.31395(10) 0.00948(7) 0.25970(7)
C1 C 0.79421(14) 0.10376(10) 0.37205(9)
H1 H 0.8038 0.043 0.3423
C2 C 0.80389(16) 0.08550(12) 0.46868(10)
H2 H 0.8327 0.142 0.5027
H3 H 0.8699 0.0344 0.4871
C3 C 0.65425(16) 0.05805(12) 0.47736(10)
H4 H 0.6364 -0.0081 0.4622
H5 H 0.6329 0.0693 0.5366
C4 C 0.57109(16) 0.12163(13) 0.41293(11)
H6 H 0.482 0.0919 0.3888
H7 H 0.5502 0.1808 0.4409
C5 C 0.90371(13) 0.17178(10) 0.34490(8)
C6 C 0.88844(15) 0.26971(10) 0.38412(9)
H8 H 0.89 0.3184 0.3395
H9 H 0.7999 0.2746 0.4088
C7 C 1.01304(17) 0.27995(12) 0.45466(10)
H10 H 1.0491 0.3445 0.4576
H11 H 0.9884 0.2621 0.5118
C8 C 1.11758(16) 0.21339(12) 0.42571(10)
H12 H 1.1709 0.2437 0.3837
H13 H 1.1838 0.1916 0.4757
C9 C 0.90827(13) 0.17710(9) 0.24532(8)
C10 C 0.77900(14) 0.23059(9) 0.19834(9)
H14 H 0.7325 0.1939 0.149
H15 H 0.7108 0.243 0.2387
C11 C 0.83601(15) 0.32192(10) 0.16676(10)
H16 H 0.7915 0.3369 0.1075
H17 H 0.8202 0.374 0.2056
C12 C 0.99054(15) 0.30315(10) 0.16874(9)
H18 H 1.0096 0.2772 0.1129
H19 H 1.045 0.3611 0.1805
C13 C 0.92965(13) 0.08374(9) 0.19459(8)
C14 C 0.79685(14) 0.02191(10) 0.18112(9)
H20 H 0.8128 -0.0368 0.214
H21 H 0.717 0.0548 0.2007
C15 C 0.76805(16) 0.00224(11) 0.08396(10)
H22 H 0.8007 -0.0607 0.0708
H23 H 0.6671 0.0071 0.0628
C16 C 0.84866(16) 0.07562(11) 0.04321(9)
H24 H 0.8999 0.0472 -0.0008
H25 H 0.7841 0.123 0.0145
C17 C 1.06296(13) 0.02179(9) 0.22303(8)
C18 C 1.06134(14) -0.03770(10) 0.30548(9)
H26 H 1.1332 -0.0157 0.3524
H27 H 0.969 -0.0343 0.3257
C19 C 1.09254(18) -0.13685(11) 0.27941(11)
H28 H 1.1925 -0.1518 0.296
H29 H 1.0357 -0.1821 0.3071
C20 C 1.0549(2) -0.13837(11) 0.18391(13)
H30 H 1.1206 -0.1784 0.1575
H31 H 0.9595 -0.1635 0.1683
C21 C 1.20288(13) 0.07460(9) 0.22846(9)
H32 H 1.2029 0.1263 0.2712
C22 C 1.24234(14) 0.11415(10) 0.14404(9)
H33 H 1.1903 0.0825 0.0932
H34 H 1.2234 0.1817 0.1396
C23 C 1.39821(15) 0.09436(11) 0.15097(11)
H35 H 1.4287 0.089 0.0932
H36 H 1.4539 0.143 0.1847
C24 C 1.40860(16) 0.00248(12) 0.19780(12)
H37 H 1.3819 -0.0493 0.1571
H38 H 1.5048 -0.0082 0.2268
loop_
_geom_bond_atom_site_label_1
_geom_bond_atom_site_label_2
_geom_bond_site_symmetry_1
_geom_bond_site_symmetry_2
O1 C1 1_555 1_555
O2 C5 1_555 1_555
O3 C9 1_555 1_555
O4 C13 1_555 1_555
O5 C17 1_555 1_555
O6 C21 1_555 1_555
C1 H1 1_555 1_555
C2 C1 1_555 1_555
H2 C2 1_555 1_555
H3 C2 1_555 1_555
C3 C2 1_555 1_555
H4 C3 1_555 1_555
H5 C3 1_555 1_555
C4 O1 1_555 1_555
H6 C4 1_555 1_555
H7 C4 1_555 1_555
C5 C1 1_555 1_555
C6 C5 1_555 1_555
H8 C6 1_555 1_555
H9 C6 1_555 1_555
C7 C6 1_555 1_555
H10 C7 1_555 1_555
H11 C7 1_555 1_555
C8 O2 1_555 1_555
H12 C8 1_555 1_555
H13 C8 1_555 1_555
C9 C5 1_555 1_555
C10 C9 1_555 1_555
H14 C10 1_555 1_555
H15 C10 1_555 1_555
C11 C10 1_555 1_555
H16 C11 1_555 1_555
H17 C11 1_555 1_555
C12 O3 1_555 1_555
H18 C12 1_555 1_555
H19 C12 1_555 1_555
C13 C9 1_555 1_555
C14 C13 1_555 1_555
H20 C14 1_555 1_555
H21 C14 1_555 1_555
C15 C14 1_555 1_555
H22 C15 1_555 1_555
H23 C15 1_555 1_555
C16 O4 1_555 1_555
H24 C16 1_555 1_555
H25 C16 1_555 1_555
C17 C13 1_555 1_555
C18 C17 1_555 1_555
H26 C18 1_555 1_555
H27 C18 1_555 1_555
C19 C18 1_555 1_555
H28 C19 1_555 1_555
H29 C19 1_555 1_555
C20 O5 1_555 1_555
H30 C20 1_555 1_555
H31 C20 1_555 1_555
C21 C17 1_555 1_555
H32 C21 1_555 1_555
C22 C21 1_555 1_555
H33 C22 1_555 1_555
H34 C22 1_555 1_555
C23 C22 1_555 1_555
H35 C23 1_555 1_555
H36 C23 1_555 1_555
C24 O6 1_555 1_555
H37 C24 1_555 1_555
H38 C24 1_555 1_555
C3 C4 1_555 1_555
C7 C8 1_555 1_555
C11 C12 1_555 1_555
C15 C16 1_555 1_555
C19 C20 1_555 1_555
C23 C24 1_555 1_555

#END
