
#######################################################################
#
#                 Cambridge Crystallographic Data Centre
#                                CCDC 
#
#######################################################################
#
# If this CIF has been generated from an entry in the Cambridge 
# Structural Database, then it will include bibliographic, chemical, 
# crystal, experimental, refinement or atomic coordinate data resulting 
# from the CCDC's data processing and validation procedures.
#
#######################################################################

data_TIVJUE
_chemical_formula_moiety         'C24 H38 O6'
_chemical_name_systematic        
syn-syn-anti-syn-syn-Hexadecahydro-3'H,3''H,3'''H,3''''H-2,2':2',2'':2'',2''':2''',2'''':2'''',2'''''-sexifuran
_symmetry_cell_setting           monoclinic
_symmetry_space_group_name_H-M   'P 21/c'
_symmetry_Int_Tables_number      14
_space_group_name_Hall           '-P 2ybc'
loop_
_symmetry_equiv_pos_site_id
_symmetry_equiv_pos_as_xyz
1 x,y,z
2 -x,1/2+y,1/2-z
3 -x,-y,-z
4 x,1/2-y,1/2+z
_cell_length_a                   17.160(2)
_cell_length_b                   8.8142(10)
_cell_length_c                   14.308(2)
_cell_angle_alpha                90
_cell_angle_beta                 96.688(5)
_cell_angle_gamma                90
_cell_volume                     2149.38
_exptl_crystal_colour            colorless
_exptl_crystal_description       'rhombus-shaped plate'
_chemical_melting_point          '105-106 deg.C'
_cell_formula_units_Z            4
loop_
_atom_site_label
_atom_site_type_symbol
_atom_site_fract_x
_atom_site_fract_y
_atom_site_fract_z
C1 C 0.23925(8) -0.03494(18) 0.25215(9)
H1 H 0.2107 0.0629 0.2576
C2 C 0.18472(9) -0.16782(19) 0.27211(11)
H2 H 0.212 -0.2392 0.3183
H3 H 0.1368 -0.1298 0.2969
C3 C 0.16428(10) -0.2448(2) 0.17707(11)
H4 H 0.1951 -0.3389 0.1726
H5 H 0.1077 -0.2694 0.1659
C4 C 0.18614(9) -0.12685(19) 0.10878(10)
H6 H 0.1977 -0.1745 0.0493
H7 H 0.1432 -0.0524 0.0946
C5 C 0.31903(8) -0.02622(17) 0.31290(10)
C6 C 0.38030(8) 0.06060(18) 0.26187(10)
H8 H 0.3541 0.1252 0.211
H9 H 0.4138 0.1254 0.3066
C7 C 0.42895(9) -0.06311(19) 0.22148(12)
H10 H 0.4058 -0.0935 0.1576
H11 H 0.4837 -0.0296 0.219
C8 C 0.42486(9) -0.1904(2) 0.29102(12)
H12 H 0.4319 -0.2897 0.2607
H13 H 0.4661 -0.1786 0.3449
C9 C 0.31508(8) 0.03319(17) 0.41718(10)
C10 C 0.27901(8) -0.08582(18) 0.47923(10)
H14 H 0.226 -0.0542 0.4923
H15 H 0.2752 -0.1861 0.4479
C11 C 0.33519(9) -0.0922(2) 0.56979(12)
H16 H 0.324 -0.0109 0.6141
H17 H 0.3331 -0.1919 0.6013
C12 C 0.41226(9) -0.0682(2) 0.53318(11)
H18 H 0.4511 -0.0256 0.5829
H19 H 0.4328 -0.1652 0.5112
C13 C 0.28195(8) 0.20291(17) 0.42328(9)
C14 C 0.33357(8) 0.30045(18) 0.49638(10)
H20 H 0.3013 0.376 0.5257
H21 H 0.361 0.2358 0.5464
C15 C 0.39197(9) 0.3784(2) 0.44020(11)
H22 H 0.41 0.4761 0.4692
H23 H 0.438 0.313 0.4342
C16 C 0.34347(9) 0.40230(18) 0.34601(11)
H24 H 0.3144 0.4994 0.3455
H25 H 0.3775 0.4041 0.2947
C17 C 0.19363(8) 0.21960(17) 0.44125(9)
C18 C 0.18152(8) 0.20229(18) 0.54630(9)
H26 H 0.2244 0.1416 0.5803
H27 H 0.18 0.3028 0.5769
C19 C 0.10274(9) 0.12086(19) 0.54585(10)
H28 H 0.1075 0.0336 0.5897
H29 H 0.0622 0.191 0.5645
C20 C 0.08182(9) 0.0673(2) 0.44456(10)
H30 H 0.0716 -0.0432 0.4432
H31 H 0.0341 0.12 0.4155
C21 C 0.16108(8) 0.37434(18) 0.40305(10)
H32 H 0.2013 0.4546 0.4205
C22 C 0.13459(9) 0.38375(19) 0.29648(10)
H33 H 0.169 0.453 0.2654
H34 H 0.1356 0.2823 0.267
C23 C 0.05066(9) 0.4456(2) 0.28932(11)
H35 H 0.042 0.5252 0.2404
H36 H 0.0116 0.3637 0.2749
C24 C 0.04630(9) 0.5102(2) 0.38618(10)
H37 H 0.0687 0.6138 0.3914
H38 H -0.0087 0.514 0.4008
O1 O 0.25417(6) -0.05574(12) 0.15536(7)
O2 O 0.34861(6) -0.18056(12) 0.32175(7)
O3 O 0.39716(5) 0.03693(12) 0.45621(7)
O4 O 0.29005(6) 0.27698(11) 0.33433(6)
O5 O 0.14679(5) 0.10151(11) 0.39411(6)
O6 O 0.09170(6) 0.40790(12) 0.44759(7)
loop_
_geom_bond_atom_site_label_1
_geom_bond_atom_site_label_2
_geom_bond_site_symmetry_1
_geom_bond_site_symmetry_2
C1 H1 1_555 1_555
C2 C1 1_555 1_555
H2 C2 1_555 1_555
H3 C2 1_555 1_555
C3 C2 1_555 1_555
H4 C3 1_555 1_555
H5 C3 1_555 1_555
C4 C3 1_555 1_555
H6 C4 1_555 1_555
H7 C4 1_555 1_555
C5 C1 1_555 1_555
C6 C5 1_555 1_555
H8 C6 1_555 1_555
H9 C6 1_555 1_555
C7 C6 1_555 1_555
H10 C7 1_555 1_555
H11 C7 1_555 1_555
C8 C7 1_555 1_555
H12 C8 1_555 1_555
H13 C8 1_555 1_555
C9 C5 1_555 1_555
C10 C9 1_555 1_555
H14 C10 1_555 1_555
H15 C10 1_555 1_555
C11 C10 1_555 1_555
H16 C11 1_555 1_555
H17 C11 1_555 1_555
C12 C11 1_555 1_555
H18 C12 1_555 1_555
H19 C12 1_555 1_555
C13 C9 1_555 1_555
C14 C13 1_555 1_555
H20 C14 1_555 1_555
H21 C14 1_555 1_555
C15 C14 1_555 1_555
H22 C15 1_555 1_555
H23 C15 1_555 1_555
C16 C15 1_555 1_555
H24 C16 1_555 1_555
H25 C16 1_555 1_555
C17 C13 1_555 1_555
C18 C17 1_555 1_555
H26 C18 1_555 1_555
H27 C18 1_555 1_555
C19 C18 1_555 1_555
H28 C19 1_555 1_555
H29 C19 1_555 1_555
C20 C19 1_555 1_555
H30 C20 1_555 1_555
H31 C20 1_555 1_555
C21 C17 1_555 1_555
H32 C21 1_555 1_555
C22 C21 1_555 1_555
H33 C22 1_555 1_555
H34 C22 1_555 1_555
C23 C22 1_555 1_555
H35 C23 1_555 1_555
H36 C23 1_555 1_555
C24 C23 1_555 1_555
H37 C24 1_555 1_555
H38 C24 1_555 1_555
O1 C1 1_555 1_555
O2 C5 1_555 1_555
O3 C9 1_555 1_555
O4 C13 1_555 1_555
O5 C17 1_555 1_555
O6 C21 1_555 1_555
C4 O1 1_555 1_555
C8 O2 1_555 1_555
C12 O3 1_555 1_555
C16 O4 1_555 1_555
C20 O5 1_555 1_555
C24 O6 1_555 1_555

#END
