
#######################################################################
#
#                 Cambridge Crystallographic Data Centre
#                                CCDC 
#
#######################################################################
#
# If this CIF has been generated from an entry in the Cambridge 
# Structural Database, then it will include bibliographic, chemical, 
# crystal, experimental, refinement or atomic coordinate data resulting 
# from the CCDC's data processing and validation procedures.
#
#######################################################################

data_TIVJIS
_chemical_formula_moiety         'C24 H38 O6'
_chemical_name_systematic        
anti-syn-anti-syn-anti-Hexadecahydro-3'H,3''H,3'''H,3''''H-2,2':2',2'':2'',2''':2''',2'''':2'''',2'''''-sexifuran
_symmetry_cell_setting           monoclinic
_symmetry_space_group_name_H-M   'P 21/n'
_symmetry_Int_Tables_number      14
_space_group_name_Hall           '-P 2yn'
loop_
_symmetry_equiv_pos_site_id
_symmetry_equiv_pos_as_xyz
1 x,y,z
2 1/2-x,1/2+y,1/2-z
3 -x,-y,-z
4 1/2+x,1/2-y,1/2+z
_cell_length_a                   12.194(2)
_cell_length_b                   14.252(2)
_cell_length_c                   12.946(2)
_cell_angle_alpha                90
_cell_angle_beta                 109.525(8)
_cell_angle_gamma                90
_cell_volume                     2120.49
_exptl_crystal_colour            colorless
_exptl_crystal_description       'rectangular rod'
_chemical_melting_point          '194-195 deg.C'
_cell_formula_units_Z            4
loop_
_atom_site_label
_atom_site_type_symbol
_atom_site_fract_x
_atom_site_fract_y
_atom_site_fract_z
C1 C 0.17438(13) 0.16876(11) 0.71592(12)
H1 H 0.1552 0.2106 0.6502
C2 C 0.09320(13) 0.08293(11) 0.68807(14)
H2 H 0.0642 0.071 0.6081
H3 H 0.1337 0.0261 0.7262
C3 C -0.00632(16) 0.11048(14) 0.72891(19)
H4 H -0.0819 0.1081 0.6685
H5 H -0.0097 0.068 0.7883
C4 C 0.02172(14) 0.20938(12) 0.77079(14)
H6 H -0.0168 0.2555 0.7128
H7 H -0.0039 0.2206 0.8347
C5 C 0.30678(12) 0.15115(10) 0.75921(12)
C6 C 0.33792(15) 0.09517(12) 0.86861(13)
H8 H 0.2671 0.0821 0.8874
H9 H 0.3757 0.0349 0.8627
C7 C 0.42144(15) 0.15816(14) 0.95514(13)
H10 H 0.4045 0.1561 1.0248
H11 H 0.5033 0.1392 0.9694
C8 C 0.39838(15) 0.25486(13) 0.90419(12)
H12 H 0.3345 0.2861 0.9222
H13 H 0.469 0.2944 0.931
C9 C 0.35631(12) 0.10469(10) 0.67455(12)
C10 C 0.48648(13) 0.07999(11) 0.72935(13)
H14 H 0.5312 0.0978 0.6811
H15 H 0.5193 0.1137 0.7998
C11 C 0.49244(15) -0.02639(12) 0.74844(15)
H16 H 0.5538 -0.0548 0.7242
H17 H 0.5092 -0.0409 0.827
C12 C 0.37406(15) -0.06275(13) 0.68077(16)
H18 H 0.3788 -0.0959 0.6152
H19 H 0.3451 -0.1073 0.7244
C13 C 0.33280(12) 0.15373(10) 0.55893(11)
C14 C 0.37326(13) 0.08579(11) 0.48399(12)
H20 H 0.4046 0.1214 0.4344
H21 H 0.4341 0.0424 0.5286
C15 C 0.2625(3) 0.0314(3) 0.4180(3)
H24 H 0.2617 0.0179 0.3428
H25 H 0.2562 -0.0284 0.4546
C17 C 0.16678(14) 0.09746(13) 0.41687(14)
H28 H 0.1409 0.1329 0.3471
H29 H 0.0995 0.0617 0.4228
C18 C 0.37956(13) 0.25664(10) 0.55222(12)
C19 C 0.31019(13) 0.33586(10) 0.58522(12)
H32 H 0.2409 0.31 0.5989
H33 H 0.3595 0.3684 0.6522
C20 C 0.27407(15) 0.40308(12) 0.48724(13)
H34 H 0.1973 0.4319 0.4773
H35 H 0.3325 0.4533 0.4956
C21 C 0.26877(15) 0.33852(12) 0.39323(13)
H36 H 0.1927 0.3061 0.3661
H37 H 0.2802 0.3742 0.332
C22 C 0.51004(13) 0.27068(11) 0.61262(13)
H38 H 0.5262 0.26 0.6927
C23 C 0.55929(14) 0.36679(12) 0.59736(15)
H39 H 0.5439 0.4149 0.646
H40 H 0.5281 0.3883 0.5203
C24 C 0.6917(3) 0.3419(2) 0.6320(4)
H43 H 0.7335 0.3852 0.5984
H44 H 0.7291 0.3429 0.7126
C26 C 0.68719(14) 0.24508(13) 0.58747(15)
H47 H 0.7 0.2471 0.5159
H48 H 0.7495 0.2064 0.6383
O1 O 0.14495(9) 0.21632(7) 0.80145(8)
O2 O 0.36639(9) 0.23976(7) 0.78852(8)
O3 O 0.29684(9) 0.01570(7) 0.64841(9)
O4 O 0.20815(8) 0.16076(7) 0.50662(8)
O5 O 0.36088(10) 0.27257(8) 0.43700(8)
O6 O 0.57741(9) 0.20457(8) 0.57431(10)
H22? H 0.4417 0.1115 0.4687
H23? H 0.3935 0.0234 0.5188
C16? C 0.2678(4) 0.0791(6) 0.3785(5)
H26? H 0.2722 0.1268 0.3244
H27? H 0.2623 0.016 0.3452
H30? H 0.1014 0.1257 0.3574
H31? H 0.1396 0.0384 0.4405
H41? H 0.5037 0.4004 0.5347
H42? H 0.5735 0.4055 0.6641
C25? C 0.6726(4) 0.3490(3) 0.5760(5)
H45? H 0.6672 0.3696 0.5015
H46? H 0.7382 0.382 0.6304
H49? H 0.718 0.2203 0.5311
H50? H 0.743 0.2292 0.6606
loop_
_geom_bond_atom_site_label_1
_geom_bond_atom_site_label_2
_geom_bond_site_symmetry_1
_geom_bond_site_symmetry_2
C1 H1 1_555 1_555
C2 C1 1_555 1_555
H2 C2 1_555 1_555
H3 C2 1_555 1_555
C3 C2 1_555 1_555
H4 C3 1_555 1_555
H5 C3 1_555 1_555
C4 C3 1_555 1_555
H6 C4 1_555 1_555
H7 C4 1_555 1_555
C5 C1 1_555 1_555
C6 C5 1_555 1_555
H8 C6 1_555 1_555
H9 C6 1_555 1_555
C7 C6 1_555 1_555
H10 C7 1_555 1_555
H11 C7 1_555 1_555
C8 C7 1_555 1_555
H12 C8 1_555 1_555
H13 C8 1_555 1_555
C9 C5 1_555 1_555
C10 C9 1_555 1_555
H14 C10 1_555 1_555
H15 C10 1_555 1_555
C11 C10 1_555 1_555
H16 C11 1_555 1_555
H17 C11 1_555 1_555
C12 C11 1_555 1_555
H18 C12 1_555 1_555
H19 C12 1_555 1_555
C13 C9 1_555 1_555
C14 C13 1_555 1_555
H20 C14 1_555 1_555
H21 C14 1_555 1_555
C15 C14 1_555 1_555
H24 C15 1_555 1_555
H25 C15 1_555 1_555
C17 C15 1_555 1_555
H28 C17 1_555 1_555
H29 C17 1_555 1_555
C18 C13 1_555 1_555
C19 C18 1_555 1_555
H32 C19 1_555 1_555
H33 C19 1_555 1_555
C20 C19 1_555 1_555
H34 C20 1_555 1_555
H35 C20 1_555 1_555
C21 C20 1_555 1_555
H36 C21 1_555 1_555
H37 C21 1_555 1_555
C22 C18 1_555 1_555
H38 C22 1_555 1_555
C23 C22 1_555 1_555
H39 C23 1_555 1_555
H40 C23 1_555 1_555
C24 C23 1_555 1_555
H43 C24 1_555 1_555
H44 C24 1_555 1_555
C26 C24 1_555 1_555
H47 C26 1_555 1_555
H48 C26 1_555 1_555
O1 C1 1_555 1_555
O2 C5 1_555 1_555
O3 C9 1_555 1_555
O4 C13 1_555 1_555
O5 C18 1_555 1_555
O6 C22 1_555 1_555
C4 O1 1_555 1_555
C8 O2 1_555 1_555
C12 O3 1_555 1_555
C17 O4 1_555 1_555
C21 O5 1_555 1_555
C26 O6 1_555 1_555

#END
