
#######################################################################
#
#                 Cambridge Crystallographic Data Centre
#                                CCDC 
#
#######################################################################
#
# If this CIF has been generated from an entry in the Cambridge 
# Structural Database, then it will include bibliographic, chemical, 
# crystal, experimental, refinement or atomic coordinate data resulting 
# from the CCDC's data processing and validation procedures.
#
#######################################################################

data_TIVJAK
_chemical_formula_moiety         'C24 H38 O6'
_chemical_name_systematic        
syn-syn-syn-anti-syn-Hexadecahydro-3'H,3''H,3'''H,3''''H-2,2':2',2'':2'',2''':2''',2'''':2'''',2'''''-sexifuran
_symmetry_cell_setting           monoclinic
_symmetry_space_group_name_H-M   'P 21/n'
_symmetry_Int_Tables_number      14
_space_group_name_Hall           '-P 2yn'
loop_
_symmetry_equiv_pos_site_id
_symmetry_equiv_pos_as_xyz
1 x,y,z
2 1/2-x,1/2+y,1/2-z
3 -x,-y,-z
4 1/2+x,1/2-y,1/2+z
_cell_length_a                   10.9912(10)
_cell_length_b                   13.996(2)
_cell_length_c                   14.350(2)
_cell_angle_alpha                90
_cell_angle_beta                 106.475(6)
_cell_angle_gamma                90
_cell_volume                     2116.87
_exptl_crystal_colour            colorless
_exptl_crystal_description       'triangular plate'
_chemical_melting_point          '118-119 deg.C'
_cell_formula_units_Z            4
loop_
_atom_site_label
_atom_site_type_symbol
_atom_site_fract_x
_atom_site_fract_y
_atom_site_fract_z
C1 C 0.81445(15) 0.40109(12) 0.10831(11)
H1 H 0.8897 0.3641 0.1022
C2 C 0.81669(17) 0.50019(12) 0.06324(12)
H2 H 0.863 0.4988 0.0133
H3 H 0.7296 0.5242 0.0334
C3 C 0.88622(18) 0.56153(13) 0.14999(12)
H4 H 0.9794 0.5554 0.1639
H5 H 0.8622 0.6297 0.1393
C4 C 0.84020(17) 0.51931(13) 0.22992(12)
H6 H 0.9015 0.5318 0.2941
H7 H 0.7569 0.5466 0.2294
C5 C 0.69408(14) 0.33895(11) 0.06870(10)
C6 C 0.68058(15) 0.26458(11) 0.14548(11)
H8 H 0.6506 0.2024 0.1145
H9 H 0.7626 0.2549 0.1956
C7 C 0.58287(16) 0.30822(12) 0.18980(11)
H10 H 0.5331 0.2582 0.2113
H11 H 0.6236 0.35 0.2456
C8 C 0.50086(15) 0.36518(12) 0.10581(12)
H12 H 0.4367 0.3237 0.0619
H13 H 0.4568 0.4174 0.1296
C9 C 0.67779(14) 0.29152(11) -0.03421(10)
C10 C 0.64776(14) 0.36714(11) -0.11699(11)
H14 H 0.6843 0.4299 -0.0921
H15 H 0.6832 0.3471 -0.1701
C11 C 0.50309(15) 0.37303(12) -0.15319(11)
H16 H 0.4705 0.4244 -0.1193
H17 H 0.4741 0.385 -0.2241
C12 C 0.46029(15) 0.27587(12) -0.12879(11)
H18 H 0.3831 0.2821 -0.1068
H19 H 0.4407 0.2339 -0.1867
C13 C 0.79225(14) 0.22348(11) -0.03676(10)
C14 C 0.89339(15) 0.27824(12) -0.07232(12)
H20 H 0.8848 0.2634 -0.1413
H21 H 0.884 0.3481 -0.0656
C15 C 1.02233(16) 0.24417(14) -0.00743(13)
H22 H 1.066 0.204 -0.0448
H23 H 1.0773 0.2993 0.0201
C16 C 0.99161(15) 0.18627(13) 0.07291(12)
H24 H 1.0117 0.118 0.0671
H25 H 1.042 0.2096 0.1374
C17 C 0.75314(14) 0.12774(11) -0.09551(11)
C18 C 0.67083(16) 0.14237(13) -0.20176(11)
H26 H 0.5836 0.1182 -0.2105
H27 H 0.6663 0.2109 -0.2195
C19 C 0.7370(2) 0.08552(19) -0.26360(14)
H28 H 0.6847 0.03 -0.2937
H29 H 0.7519 0.1261 -0.3158
C20 C 0.8563(2) 0.05386(18) -0.19865(13)
H30 H 0.8598 -0.0168 -0.1987
H31 H 0.9272 0.0782 -0.2219
C21 C 0.69242(15) 0.05432(11) -0.04149(11)
H32 H 0.6236 0.0867 -0.0204
C22 C 0.77776(16) 0.00101(12) 0.04481(11)
H33 H 0.7892 0.0372 0.106
H34 H 0.8619 -0.0123 0.0353
C23 C 0.70311(16) -0.09093(13) 0.04483(13)
H35 H 0.7591 -0.1434 0.0782
H36 H 0.6344 -0.0814 0.0761
C24 C 0.65053(17) -0.11044(12) -0.06228(13)
H37 H 0.7093 -0.1517 -0.0852
H38 H 0.5675 -0.1432 -0.0756
O1 O 0.82953(11) 0.41930(8) 0.21033(8)
O2 O 0.58700(10) 0.40281(8) 0.05678(7)
O3 O 0.56217(9) 0.23627(8) -0.05282(7)
O4 O 0.85850(9) 0.19810(8) 0.06188(7)
O5 O 0.87018(10) 0.08649(8) -0.10438(7)
O6 O 0.63631(12) -0.02044(9) -0.11025(9)
loop_
_geom_bond_atom_site_label_1
_geom_bond_atom_site_label_2
_geom_bond_site_symmetry_1
_geom_bond_site_symmetry_2
C1 H1 1_555 1_555
C2 C1 1_555 1_555
H2 C2 1_555 1_555
H3 C2 1_555 1_555
C3 C2 1_555 1_555
H4 C3 1_555 1_555
H5 C3 1_555 1_555
C4 C3 1_555 1_555
H6 C4 1_555 1_555
H7 C4 1_555 1_555
C5 C1 1_555 1_555
C6 C5 1_555 1_555
H8 C6 1_555 1_555
H9 C6 1_555 1_555
C7 C6 1_555 1_555
H10 C7 1_555 1_555
H11 C7 1_555 1_555
C8 C7 1_555 1_555
H12 C8 1_555 1_555
H13 C8 1_555 1_555
C9 C5 1_555 1_555
C10 C9 1_555 1_555
H14 C10 1_555 1_555
H15 C10 1_555 1_555
C11 C10 1_555 1_555
H16 C11 1_555 1_555
H17 C11 1_555 1_555
C12 C11 1_555 1_555
H18 C12 1_555 1_555
H19 C12 1_555 1_555
C13 C9 1_555 1_555
C14 C13 1_555 1_555
H20 C14 1_555 1_555
H21 C14 1_555 1_555
C15 C14 1_555 1_555
H22 C15 1_555 1_555
H23 C15 1_555 1_555
C16 C15 1_555 1_555
H24 C16 1_555 1_555
H25 C16 1_555 1_555
C17 C13 1_555 1_555
C18 C17 1_555 1_555
H26 C18 1_555 1_555
H27 C18 1_555 1_555
C19 C18 1_555 1_555
H28 C19 1_555 1_555
H29 C19 1_555 1_555
C20 C19 1_555 1_555
H30 C20 1_555 1_555
H31 C20 1_555 1_555
C21 C17 1_555 1_555
H32 C21 1_555 1_555
C22 C21 1_555 1_555
H33 C22 1_555 1_555
H34 C22 1_555 1_555
C23 C22 1_555 1_555
H35 C23 1_555 1_555
H36 C23 1_555 1_555
C24 C23 1_555 1_555
H37 C24 1_555 1_555
H38 C24 1_555 1_555
O1 C1 1_555 1_555
O2 C5 1_555 1_555
O3 C9 1_555 1_555
O4 C13 1_555 1_555
O5 C17 1_555 1_555
O6 C21 1_555 1_555
C4 O1 1_555 1_555
C8 O2 1_555 1_555
C12 O3 1_555 1_555
C16 O4 1_555 1_555
C20 O5 1_555 1_555
C24 O6 1_555 1_555

#END
