
#######################################################################
#
#                 Cambridge Crystallographic Data Centre
#                                CCDC 
#
#######################################################################
#
# If this CIF has been generated from an entry in the Cambridge 
# Structural Database, then it will include bibliographic, chemical, 
# crystal, experimental, refinement or atomic coordinate data resulting 
# from the CCDC's data processing and validation procedures.
#
#######################################################################

data_TIVNIX
_chemical_formula_moiety         'C28 H30 B1 N1 S1'
_chemical_name_systematic        
5,5-Dimesityl-2-methyl-5H-4\l^5^,5\l^5^-[1,3]thiazolo[3,2-b][2,1]benzazaborole
_symmetry_cell_setting           monoclinic
_symmetry_space_group_name_H-M   'P 21/c'
_symmetry_Int_Tables_number      14
_space_group_name_Hall           '-P 2ybc'
loop_
_symmetry_equiv_pos_site_id
_symmetry_equiv_pos_as_xyz
1 x,y,z
2 -x,1/2+y,1/2-z
3 -x,-y,-z
4 x,1/2-y,1/2+z
_cell_length_a                   17.753(4)
_cell_length_b                   7.8595(12)
_cell_length_c                   16.398(2)
_cell_angle_alpha                90
_cell_angle_beta                 93.213(11)
_cell_angle_gamma                90
_cell_volume                     2284.41
_exptl_crystal_colour            yellow
_exptl_crystal_description       block
_cell_formula_units_Z            4
loop_
_atom_site_label
_atom_site_type_symbol
_atom_site_fract_x
_atom_site_fract_y
_atom_site_fract_z
S1 S 0.54022(6) 0.27788(13) 0.57087(6)
C1 C 0.6038(2) 0.8974(5) 0.7244(2)
H1 H 0.6074 1.0049 0.7508
C2 C 0.9302(3) 0.0729(5) 0.8582(3)
H2 H 0.9590 -0.0047 0.8250
H3 H 0.9002 0.0067 0.8953
H4 H 0.9651 0.1470 0.8901
C3 C 0.8789(2) 0.1793(5) 0.8035(2)
C4 C 0.8111(2) 0.2409(5) 0.8283(2)
H5 H 0.7957 0.2101 0.8809
C5 C 0.7645(2) 0.3452(5) 0.7801(2)
C6 C 0.7849(2) 0.3975(5) 0.7011(2)
B1 B 0.7314(3) 0.5218(6) 0.6420(3)
C7 C 0.7756(2) 0.6401(5) 0.5778(2)
C8 C 0.8368(2) 0.7390(5) 0.6098(2)
C9 C 0.8795(2) 0.8352(5) 0.5589(2)
H6 H 0.9206 0.8993 0.5823
C10 C 0.8647(2) 0.8416(5) 0.4750(2)
C11 C 0.9162(3) 0.9337(6) 0.4201(3)
H7 H 0.9633 0.8697 0.4169
H8 H 0.9272 1.0474 0.4422
H9 H 0.8915 0.9440 0.3653
C12 C 0.8512(2) 0.3221(5) 0.6735(2)
C13 C 0.8774(2) 0.3420(5) 0.5869(2)
H10 H 0.9062 0.4477 0.5831
H11 H 0.8333 0.3459 0.5481
H12 H 0.9093 0.2451 0.5739
C14 C 0.8966(2) 0.2189(5) 0.7248(2)
H13 H 0.9417 0.1738 0.7049
C15 C 0.6658(2) 0.6478(5) 0.6748(2)
C16 C 0.5934(2) 0.5893(5) 0.6495(2)
C17 C 0.6012(2) 0.4274(5) 0.6083(2)
N1 N 0.67295(18) 0.3860(4) 0.60013(18)
C18 C 0.6807(2) 0.2280(5) 0.5654(2)
H14 H 0.7283 0.1776 0.5574
C19 C 0.6146(2) 0.1511(5) 0.5436(2)
C20 C 0.6046(2) -0.0195(5) 0.5051(3)
H15 H 0.6539 -0.0747 0.5023
H16 H 0.5814 -0.0065 0.4498
H17 H 0.5720 -0.0895 0.5377
C21 C 0.5274(2) 0.6787(5) 0.6614(2)
H18 H 0.4797 0.6339 0.6433
C22 C 0.5331(2) 0.8348(5) 0.7004(2)
H19 H 0.4891 0.8981 0.7106
C23 C 0.6694(2) 0.8090(5) 0.7111(2)
H20 H 0.7170 0.8578 0.7267
C24 C 0.7560(2) 0.6589(5) 0.4931(2)
C25 C 0.6870(2) 0.5794(5) 0.4506(2)
H21 H 0.6816 0.6209 0.3942
H22 H 0.6422 0.6104 0.4795
H23 H 0.6926 0.4553 0.4504
C26 C 0.8013(2) 0.7573(5) 0.4447(2)
H24 H 0.7876 0.7666 0.3880
C27 C 0.8619(2) 0.7406(5) 0.6996(2)
H25 H 0.9048 0.6632 0.7090
H26 H 0.8202 0.7034 0.7319
H27 H 0.8771 0.8562 0.7158
C28 C 0.6911(2) 0.4000(6) 0.8145(2)
H28 H 0.6865 0.3479 0.8683
H29 H 0.6488 0.3634 0.7776
H30 H 0.6903 0.5241 0.8198
loop_
_geom_bond_atom_site_label_1
_geom_bond_atom_site_label_2
_geom_bond_site_symmetry_1
_geom_bond_site_symmetry_2
S1 C17 1_555 1_555
C1 H1 1_555 1_555
C2 H2 1_555 1_555
H3 C2 1_555 1_555
H4 C2 1_555 1_555
C3 C2 1_555 1_555
C4 C3 1_555 1_555
H5 C4 1_555 1_555
C5 C4 1_555 1_555
C6 C5 1_555 1_555
B1 C6 1_555 1_555
C7 B1 1_555 1_555
C8 C7 1_555 1_555
C9 C8 1_555 1_555
H6 C9 1_555 1_555
C10 C9 1_555 1_555
C11 C10 1_555 1_555
H7 C11 1_555 1_555
H8 C11 1_555 1_555
H9 C11 1_555 1_555
C12 C6 1_555 1_555
C13 C12 1_555 1_555
H10 C13 1_555 1_555
H11 C13 1_555 1_555
H12 C13 1_555 1_555
C14 C3 1_555 1_555
H13 C14 1_555 1_555
C15 B1 1_555 1_555
C16 C15 1_555 1_555
C17 C16 1_555 1_555
N1 B1 1_555 1_555
C18 N1 1_555 1_555
H14 C18 1_555 1_555
C19 S1 1_555 1_555
C20 C19 1_555 1_555
H15 C20 1_555 1_555
H16 C20 1_555 1_555
H17 C20 1_555 1_555
C21 C16 1_555 1_555
H18 C21 1_555 1_555
C22 C1 1_555 1_555
H19 C22 1_555 1_555
C23 C1 1_555 1_555
H20 C23 1_555 1_555
C24 C7 1_555 1_555
C25 C24 1_555 1_555
H21 C25 1_555 1_555
H22 C25 1_555 1_555
H23 C25 1_555 1_555
C26 C10 1_555 1_555
H24 C26 1_555 1_555
C27 C8 1_555 1_555
H25 C27 1_555 1_555
H26 C27 1_555 1_555
H27 C27 1_555 1_555
C28 C5 1_555 1_555
H28 C28 1_555 1_555
H29 C28 1_555 1_555
H30 C28 1_555 1_555
C12 C14 1_555 1_555
C15 C23 1_555 1_555
C17 N1 1_555 1_555
C18 C19 1_555 1_555
C21 C22 1_555 1_555
C24 C26 1_555 1_555

#END
