
#######################################################################
#
#                 Cambridge Crystallographic Data Centre
#                                CCDC 
#
#######################################################################
#
# If this CIF has been generated from an entry in the Cambridge 
# Structural Database, then it will include bibliographic, chemical, 
# crystal, experimental, refinement or atomic coordinate data resulting 
# from the CCDC's data processing and validation procedures.
#
#######################################################################

data_TIVNET
_chemical_formula_moiety         'C31 H30 B1 N1 S1'
_chemical_name_systematic        
10-Mesityl-5,7-dimethyl-9,16a-dihydro-10H-dibenzo[4,5:6,7][1,2]azaborocino[8,1-b][1,3]benzothiazole
_symmetry_cell_setting           triclinic
_symmetry_space_group_name_H-M   'P -1'
_symmetry_Int_Tables_number      2
_space_group_name_Hall           '-P 1'
loop_
_symmetry_equiv_pos_site_id
_symmetry_equiv_pos_as_xyz
1 x,y,z
2 -x,-y,-z
_cell_length_a                   8.6000(12)
_cell_length_b                   10.6067(15)
_cell_length_c                   14.200(2)
_cell_angle_alpha                87.273(2)
_cell_angle_beta                 83.391(2)
_cell_angle_gamma                75.733(2)
_cell_volume                     1246.75
_exptl_crystal_colour            colorless
_exptl_crystal_description       block
_cell_formula_units_Z            2
loop_
_atom_site_label
_atom_site_type_symbol
_atom_site_fract_x
_atom_site_fract_y
_atom_site_fract_z
N1 N 0.8173(2) 0.77076(16) 0.33023(12)
B1 B 0.7563(3) 0.7794(2) 0.24047(17)
S1 S 0.96616(8) 0.82755(6) 0.47456(4)
C1 C 0.7935(3) 0.8785(2) 0.15768(15)
H1 H 0.7834 0.8392 0.0975
H2 H 0.7041 0.9577 0.1653
C2 C 0.9476(3) 0.9248(2) 0.14202(14)
C3 C 0.9691(3) 1.0283(2) 0.19337(15)
C4 C 1.1109(3) 1.0711(2) 0.17616(16)
C5 C 1.2324(3) 1.0071(2) 0.10907(16)
H3 H 1.3292 1.0359 0.0973
C6 C 1.2163(3) 0.9027(2) 0.05897(15)
C7 C 1.0726(3) 0.8632(2) 0.07583(15)
H4 H 1.0593 0.7926 0.0414
C8 C 1.1404(3) 1.1781(2) 0.23331(19)
H5 H 1.1191 1.1589 0.3011
H6 H 1.0684 1.2613 0.2169
H7 H 1.2529 1.1835 0.2190
C9 C 1.3539(3) 0.8306(2) -0.00905(17)
H8 H 1.4313 0.8844 -0.0254
H9 H 1.3119 0.8119 -0.0668
H10 H 1.4079 0.7488 0.0208
C10 C 0.6345(3) 0.6986(2) 0.21693(15)
C11 C 0.6852(3) 0.5908(2) 0.15706(15)
C12 C 0.5756(3) 0.5244(2) 0.13408(16)
H11 H 0.6122 0.4514 0.0941
C13 C 0.4132(3) 0.5618(2) 0.16810(16)
C14 C 0.3634(3) 0.6694(2) 0.22557(15)
H12 H 0.2524 0.6973 0.2484
C15 C 0.4698(3) 0.7379(2) 0.25103(15)
C16 C 0.8617(3) 0.5436(3) 0.1212(2)
H13 H 0.8768 0.4666 0.0824
H14 H 0.9255 0.5210 0.1751
H15 H 0.8972 0.6125 0.0826
C17 C 0.2954(3) 0.4875(3) 0.1427(2)
H16 H 0.2369 0.4615 0.2008
H17 H 0.3544 0.4097 0.1076
H18 H 0.2185 0.5429 0.1032
C18 C 0.4094(3) 0.8514(2) 0.31701(17)
H19 H 0.2913 0.8724 0.3267
H20 H 0.4452 0.9271 0.2890
H21 H 0.4527 0.8283 0.3781
C19 C 0.7972(2) 0.6818(2) 0.40722(14)
C20 C 0.7231(3) 0.5791(2) 0.40850(16)
H22 H 0.6773 0.5625 0.3540
C21 C 0.7159(3) 0.5005(2) 0.48909(17)
H23 H 0.6631 0.4317 0.4896
C22 C 0.7842(3) 0.5210(2) 0.56842(16)
H24 H 0.7785 0.4665 0.6231
C23 C 0.8612(3) 0.6214(2) 0.56816(15)
H25 H 0.9092 0.6358 0.6224
C24 C 0.8675(3) 0.70055(19) 0.48783(15)
C25 C 0.9044(3) 0.86863(19) 0.35547(14)
H26 H 1.0041 0.8601 0.3100
C26 C 0.8024(3) 1.0070(2) 0.34739(15)
C27 C 0.6741(3) 1.0566(2) 0.41509(16)
H27 H 0.6510 1.0043 0.4685
C28 C 0.5797(3) 1.1821(2) 0.40502(17)
H28 H 0.4903 1.2143 0.4505
C29 C 0.6152(3) 1.2603(2) 0.32914(17)
H29 H 0.5513 1.3465 0.3229
C30 C 0.7436(3) 1.2129(2) 0.26251(17)
H30 H 0.7681 1.2674 0.2108
C31 C 0.8388(3) 1.0853(2) 0.26973(15)
loop_
_geom_bond_atom_site_label_1
_geom_bond_atom_site_label_2
_geom_bond_site_symmetry_1
_geom_bond_site_symmetry_2
N1 B1 1_555 1_555
B1 C1 1_555 1_555
S1 C24 1_555 1_555
C1 H1 1_555 1_555
H2 C1 1_555 1_555
C2 C1 1_555 1_555
C3 C2 1_555 1_555
C4 C3 1_555 1_555
C5 C4 1_555 1_555
H3 C5 1_555 1_555
C6 C5 1_555 1_555
C7 C2 1_555 1_555
H4 C7 1_555 1_555
C8 C4 1_555 1_555
H5 C8 1_555 1_555
H6 C8 1_555 1_555
H7 C8 1_555 1_555
C9 C6 1_555 1_555
H8 C9 1_555 1_555
H9 C9 1_555 1_555
H10 C9 1_555 1_555
C10 B1 1_555 1_555
C11 C10 1_555 1_555
C12 C11 1_555 1_555
H11 C12 1_555 1_555
C13 C12 1_555 1_555
C14 C13 1_555 1_555
H12 C14 1_555 1_555
C15 C10 1_555 1_555
C16 C11 1_555 1_555
H13 C16 1_555 1_555
H14 C16 1_555 1_555
H15 C16 1_555 1_555
C17 C13 1_555 1_555
H16 C17 1_555 1_555
H17 C17 1_555 1_555
H18 C17 1_555 1_555
C18 C15 1_555 1_555
H19 C18 1_555 1_555
H20 C18 1_555 1_555
H21 C18 1_555 1_555
C19 N1 1_555 1_555
C20 C19 1_555 1_555
H22 C20 1_555 1_555
C21 C20 1_555 1_555
H23 C21 1_555 1_555
C22 C21 1_555 1_555
H24 C22 1_555 1_555
C23 C22 1_555 1_555
H25 C23 1_555 1_555
C24 C19 1_555 1_555
C25 N1 1_555 1_555
H26 C25 1_555 1_555
C26 C25 1_555 1_555
C27 C26 1_555 1_555
H27 C27 1_555 1_555
C28 C27 1_555 1_555
H28 C28 1_555 1_555
C29 C28 1_555 1_555
H29 C29 1_555 1_555
C30 C29 1_555 1_555
H30 C30 1_555 1_555
C31 C3 1_555 1_555
S1 C25 1_555 1_555
C6 C7 1_555 1_555
C14 C15 1_555 1_555
C23 C24 1_555 1_555
C26 C31 1_555 1_555
C30 C31 1_555 1_555

#END
