
#######################################################################
#
#                 Cambridge Crystallographic Data Centre
#                                CCDC 
#
#######################################################################
#
# If this CIF has been generated from an entry in the Cambridge 
# Structural Database, then it will include bibliographic, chemical, 
# crystal, experimental, refinement or atomic coordinate data resulting 
# from the CCDC's data processing and validation procedures.
#
#######################################################################

data_TIVREV01
_chemical_formula_moiety         'C42 H36 Br4 O4,2(C7 H8)'
_chemical_name_systematic        
'18,37,40,44-Tetrabromo-11,16,30,35-tetraoxaheptacyclo(34.2.2.2^17,20^.1^3,7^.1^6,10^.1^22,26^.1^25,29^)-hexatetraconta-3,5,7(46),8,10(45),17,19,22,24,26(42),27,29(41),36,38,39,43-hexadecaene bis(toluene) clathrate'
_symmetry_cell_setting           triclinic
_symmetry_space_group_name_H-M   'P -1'
_symmetry_Int_Tables_number      2
_space_group_name_Hall           '-P 1'
loop_
_symmetry_equiv_pos_site_id
_symmetry_equiv_pos_as_xyz
1 x,y,z
2 -x,-y,-z
_cell_length_a                   10.029(2)
_cell_length_b                   10.520(3)
_cell_length_c                   12.590(3)
_cell_angle_alpha                78.26(2)
_cell_angle_beta                 80.42(2)
_cell_angle_gamma                70.67(2)
_cell_volume                     1220.13
_exptl_crystal_colour            white
_chemical_melting_point          'above 240deg.C'
_cell_formula_units_Z            1
loop_
_atom_site_label
_atom_site_type_symbol
_atom_site_fract_x
_atom_site_fract_y
_atom_site_fract_z
Br1 Br -0.1043(1) -0.1772(1) 0.5130(1)
Br2 Br 0.3544(1) -0.5832(1) 0.3267(1)
C1 C 0.0800(4) 0.4514(4) -0.3120(3)
C2 C 0.1857(5) 0.4864(4) -0.2604(3)
C3 C 0.2314(4) 0.3886(4) -0.1570(3)
C4 C 0.3764(4) 0.3270(4) -0.1429(3)
C5 C 0.4203(4) 0.2393(4) -0.0507(3)
C6 C 0.3205(4) 0.2066(4) 0.0354(3)
C7 C 0.1739(4) 0.2672(4) 0.0218(3)
C8 C 0.1329(4) 0.3581(4) -0.0749(3)
C9 C 0.0732(4) 0.2313(4) 0.1062(3)
C10 C 0.1154(4) 0.1440(4) 0.1985(3)
C11 C 0.2625(4) 0.0877(4) 0.2123(3)
C12 C 0.3626(4) 0.1168(4) 0.1325(3)
O1 O 0.2899(3) 0.0043(3) 0.3103(2)
C13 C 0.4332(4) -0.0500(4) 0.3354(3)
C14 C 0.4328(5) -0.1344(5) 0.4487(3)
C15 C 0.3924(5) -0.2640(5) 0.4575(4)
C16 C 0.2493(6) -0.2415(5) 0.4242(4)
O2 O 0.2090(3) -0.3641(3) 0.4686(2)
C17 C 0.1132(4) -0.3847(4) 0.4130(3)
C18 C 0.1589(4) -0.4861(4) 0.3466(3)
C19 C -0.0652(4) 0.5195(4) -0.2976(3)
C20 C -0.1259(4) -0.3477(4) 0.3753(3)
C21 C -0.0314(5) -0.3156(4) 0.4245(3)
H1 H 0.1442 0.5773 -0.2436
H2 H 0.2674 0.4856 -0.3126
H3 H 0.4459 0.3451 -0.2012
H4 H 0.5202 0.2010 -0.0437
H5 H 0.0338 0.3987 -0.0841
H6 H -0.0264 0.2701 0.0981
H7 H 0.0464 0.1198 0.2545
H8 H 0.4616 0.0756 0.1419
H9 H 0.4734 0.0220 0.3323
H10 H 0.4886 -0.1075 0.2834
H11 H 0.3674 -0.0777 0.4976
H12 H 0.5258 -0.1583 0.4716
H13 H 0.3941 -0.3083 0.5321
H14 H 0.4623 -0.3247 0.4137
H15 H 0.2527 -0.2235 0.3461
H16 H 0.1814 -0.1646 0.4530
H17 H -0.0992 0.5907 -0.2536
H18 H -0.2254 -0.2989 0.3859
C18A C -0.1589(4) 0.4861(4) -0.3466(3)
Br2A Br -0.3544(1) 0.5832(1) -0.3267(1)
C17A C -0.1132(4) 0.3847(4) -0.4130(3)
O2A O -0.2090(3) 0.3641(3) -0.4686(2)
C16A C -0.2493(6) 0.2415(5) -0.4242(4)
C15A C -0.3924(5) 0.2640(5) -0.4575(4)
C14A C -0.4328(5) 0.1344(5) -0.4487(3)
C13A C -0.4332(4) 0.0500(4) -0.3354(3)
O1A O -0.2899(3) -0.0043(3) -0.3103(2)
C11A C -0.2625(4) -0.0877(4) -0.2123(3)
C10A C -0.1154(4) -0.1440(4) -0.1985(3)
C9A C -0.0732(4) -0.2313(4) -0.1062(3)
C7A C -0.1739(4) -0.2672(4) -0.0218(3)
C6A C -0.3205(4) -0.2066(4) -0.0354(3)
C5A C -0.4203(4) -0.2393(4) 0.0507(3)
C4A C -0.3764(4) -0.3270(4) 0.1429(3)
C3A C -0.2314(4) -0.3886(4) 0.1570(3)
C2A C -0.1857(5) -0.4864(4) 0.2604(3)
C1A C -0.0800(4) -0.4514(4) 0.3120(3)
C19A C 0.0652(4) -0.5195(4) 0.2976(3)
H17A H 0.0992 -0.5907 0.2536
H1A H -0.1442 -0.5773 0.2436
H2A H -0.2674 -0.4856 0.3126
C8A C -0.1329(4) -0.3581(4) 0.0749(3)
H5A H -0.0338 -0.3987 0.0841
H3A H -0.4459 -0.3451 0.2012
H4A H -0.5202 -0.2010 0.0437
C12A C -0.3626(4) -0.1168(4) -0.1325(3)
H8A H -0.4616 -0.0756 -0.1419
H6A H 0.0264 -0.2701 -0.0981
H7A H -0.0464 -0.1198 -0.2545
H9A H -0.4734 -0.0220 -0.3323
H10A H -0.4886 0.1075 -0.2834
H11A H -0.3674 0.0777 -0.4976
H12A H -0.5258 0.1583 -0.4716
H13A H -0.3941 0.3083 -0.5321
H14A H -0.4623 0.3247 -0.4137
H15A H -0.2527 0.2235 -0.3461
H16A H -0.1814 0.1646 -0.4530
C21A C 0.0314(5) 0.3156(4) -0.4245(3)
Br1A Br 0.1043(1) 0.1772(1) -0.5130(1)
C20A C 0.1259(4) 0.3477(4) -0.3753(3)
H18A H 0.2254 0.2989 -0.3859
C22 C -0.8021(8) 1.0282(8) -0.1764(7)
C23 C -0.7719(6) 0.8964(6) -0.1058(6)
C24 C -0.6926(6) 0.7741(7) -0.1499(7)
C25 C -0.6652(7) 0.6561(8) -0.0856(7)
C26 C -0.7132(7) 0.6392(7) 0.0263(8)
C27 C -0.7895(7) 0.7521(9) 0.0711(6)
C28 C -0.8163(6) 0.8847(7) -0.0003(6)
H19 H -0.6572 0.7782 -0.2258
H20 H -0.6130 0.5745 -0.1155
H21 H -0.6896 0.5510 0.0711
H22 H -0.8264 0.7471 0.1467
H23 H -0.8675 0.9655 0.0310
loop_
_geom_bond_atom_site_label_1
_geom_bond_atom_site_label_2
_geom_bond_site_symmetry_1
_geom_bond_site_symmetry_2
Br1 C21 1_555 1_555
Br2 C18 1_555 1_555
C1 C2 1_555 1_555
C2 C3 1_555 1_555
C3 C4 1_555 1_555
C4 C5 1_555 1_555
C5 C6 1_555 1_555
C6 C7 1_555 1_555
C7 C8 1_555 1_555
C8 C3 1_555 1_555
C9 C7 1_555 1_555
C10 C9 1_555 1_555
C11 C10 1_555 1_555
C12 C6 1_555 1_555
O1 C11 1_555 1_555
C13 O1 1_555 1_555
C14 C13 1_555 1_555
C15 C14 1_555 1_555
C16 C15 1_555 1_555
O2 C16 1_555 1_555
C17 O2 1_555 1_555
C18 C17 1_555 1_555
C19 C1 1_555 1_555
C20 C21 1_555 1_555
C21 C17 1_555 1_555
C22 C23 1_555 1_555
C23 C24 1_555 1_555
C24 C25 1_555 1_555
C25 C26 1_555 1_555
C26 C27 1_555 1_555
C27 C28 1_555 1_555
C28 C23 1_555 1_555
H1 C2 1_555 1_555
H2 C2 1_555 1_555
H3 C4 1_555 1_555
H4 C5 1_555 1_555
H5 C8 1_555 1_555
H6 C9 1_555 1_555
H7 C10 1_555 1_555
H8 C12 1_555 1_555
H9 C13 1_555 1_555
H10 C13 1_555 1_555
H11 C14 1_555 1_555
H12 C14 1_555 1_555
H13 C15 1_555 1_555
H14 C15 1_555 1_555
H15 C16 1_555 1_555
H16 C16 1_555 1_555
H17 C19 1_555 1_555
H18 C20 1_555 1_555
H19 C24 1_555 1_555
H20 C25 1_555 1_555
H21 C26 1_555 1_555
H22 C27 1_555 1_555
H23 C28 1_555 1_555
C18A C19 1_555 1_555
Br2A C18A 1_555 1_555
C17A C18A 1_555 1_555
O2A C17A 1_555 1_555
C16A O2A 1_555 1_555
C15A C16A 1_555 1_555
C14A C15A 1_555 1_555
C13A C14A 1_555 1_555
O1A C13A 1_555 1_555
C11A O1A 1_555 1_555
C10A C11A 1_555 1_555
C9A C10A 1_555 1_555
C7A C9A 1_555 1_555
C6A C7A 1_555 1_555
C5A C6A 1_555 1_555
C4A C5A 1_555 1_555
C3A C4A 1_555 1_555
C2A C3A 1_555 1_555
C1A C20 1_555 1_555
C19A C18 1_555 1_555
H17A C19A 1_555 1_555
H1A C2A 1_555 1_555
H2A C2A 1_555 1_555
C8A C7A 1_555 1_555
H5A C8A 1_555 1_555
H3A C4A 1_555 1_555
H4A C5A 1_555 1_555
C12A C11A 1_555 1_555
H8A C12A 1_555 1_555
H6A C9A 1_555 1_555
H7A C10A 1_555 1_555
H9A C13A 1_555 1_555
H10A C13A 1_555 1_555
H11A C14A 1_555 1_555
H12A C14A 1_555 1_555
H13A C15A 1_555 1_555
H14A C15A 1_555 1_555
H15A C16A 1_555 1_555
H16A C16A 1_555 1_555
C21A C17A 1_555 1_555
Br1A C21A 1_555 1_555
C20A C1 1_555 1_555
H18A C20A 1_555 1_555
C11 C12 1_555 1_555
C6A C12A 1_555 1_555
C3A C8A 1_555 1_555
C2A C1A 1_555 1_555
C1A C19A 1_555 1_555
C21A C20A 1_555 1_555

#END
