
#######################################################################
#
#                 Cambridge Crystallographic Data Centre
#                                CCDC 
#
#######################################################################
#
# If this CIF has been generated from an entry in the Cambridge 
# Structural Database, then it will include bibliographic, chemical, 
# crystal, experimental, refinement or atomic coordinate data resulting 
# from the CCDC's data processing and validation procedures.
#
#######################################################################

data_TIVTOH
_chemical_formula_moiety         'C54 H44 N4 O4'
_chemical_name_systematic        
8,8'-(N,N'-bis(Benzyloxycarbonyl)hexa-2,4-diyn-1,6-diamino)-6,6-hexano-bis(phenanthridine)
_symmetry_cell_setting           triclinic
_symmetry_space_group_name_H-M   'P -1'
_symmetry_Int_Tables_number      2
_space_group_name_Hall           '-P 1'
loop_
_symmetry_equiv_pos_site_id
_symmetry_equiv_pos_as_xyz
1 x,y,z
2 -x,-y,-z
_cell_length_a                   9.072(2)
_cell_length_b                   9.619(2)
_cell_length_c                   26.182(4)
_cell_angle_alpha                86.01(2)
_cell_angle_beta                 86.66(2)
_cell_angle_gamma                65.28(2)
_cell_volume                     2069.26
_chemical_melting_point          237-238deg.C
_cell_formula_units_Z            2
loop_
_atom_site_label
_atom_site_type_symbol
_atom_site_fract_x
_atom_site_fract_y
_atom_site_fract_z
O1 O 0.9761(3) 0.4108(3) 0.40180(8)
O2 O 0.0457(2) 0.8208(2) 0.10378(7)
O3 O 0.8204(3) 0.3500(3) 0.35112(8)
O4 O 0.2191(2) 0.5999(2) 0.14282(7)
N1 N 0.5651(3) 1.2244(3) 0.43754(9)
N2 N 0.4274(3) 1.3338(2) 0.05833(8)
N3 N 0.7054(3) 0.5635(3) 0.39348(8)
N4 N 0.3204(3) 0.7500(2) 0.10034(7)
C1 C 0.8385(4) 1.0169(4) 0.54376(11)
C2 C 0.7254(3) 0.9171(3) 0.47727(9)
C3 C 0.7423(3) 1.0394(3) 0.50130(10)
C4 C 0.1409(3) 1.3824(3) -0.04435(9)
C5 C 0.2726(3) 1.1625(3) 0.01945(9)
C6 C 0.2467(3) 1.3110(3) -0.00384(9)
C7 C 0.8576(4) 1.1369(4) 0.56327(13)
C8 C 0.1135(3) 1.5284(3) -0.06247(10)
C9 C 0.7826(4) 1.2845(4) 0.54081(13)
C10 C 0.1921(3) 1.6075(3) -0.04182(10)
C11 C 0.6868(4) 1.3101(4) 0.49962(12)
C12 C 0.6640(3) 1.1899(3) 0.47933(10)
C13 C 0.2954(3) 1.5408(3) -0.00264(10)
C14 C 0.3241(3) 1.3922(3) 0.01749(9)
C15 C 0.5477(3) 1.1141(3) 0.41597(10)
C16 C 0.6308(3) 0.9536(3) 0.43331(10)
C17 C 0.4503(3) 1.2001(3) 0.07967(9)
C18 C 0.3724(3) 1.1075(3) 0.06224(9)
C19 C 0.6235(3) 0.8343(3) 0.40657(10)
C20 C 0.3888(3) 0.9689(3) 0.08801(10)
C21 C 0.7075(3) 0.6837(3) 0.42247(10)
C22 C 0.3080(3) 0.8876(3) 0.07238(9)
C23 C 0.7947(3) 0.6480(3) 0.46780(10)
C24 C 0.2147(3) 0.9387(3) 0.02861(10)
C25 C 0.8018(3) 0.7618(3) 0.49426(11)
C26 C 0.1979(3) 1.0723(3) 0.00259(10)
C27 C 1.0634(3) 0.04172(19) 0.26570(8)
C28 C -0.1100(2) 0.7058(3) 0.23618(9)
C29 C 1.0786(3) 0.01361(19) 0.21367(8)
C30 C -0.1437(2) 0.7448(3) 0.28722(9)
C31 C 0.9993(3) 0.13264(19) 0.17790(8)
C32 C -0.0179(2) 0.6974(3) 0.32157(9)
C33 C 0.9047(3) 0.27977(19) 0.19416(8)
C34 C 0.1416(2) 0.6110(3) 0.30488(9)
C35 C 0.8895(3) 0.30788(19) 0.24619(8)
C36 C 0.1753(2) 0.5720(3) 0.25384(9)
C37 C 0.4435(4) 1.1586(4) 0.36997(12)
C38 C 0.5567(4) 1.1471(4) 0.12559(11)
C39 C 0.5432(4) 1.1533(4) 0.32039(10)
C40 C 0.4571(4) 1.1712(4) 0.17592(11)
C41 C 0.4557(4) 1.1551(4) 0.27268(12)
C42 C 0.5522(4) 1.1515(4) 0.22322(11)
C43 C 0.9688(3) 0.18885(19) 0.28196(8)
C44 C 0.0495(2) 0.6194(3) 0.21949(9)
C45 C 0.9584(6) 0.2117(4) 0.33788(14)
C46 C 0.0825(4) 0.5723(4) 0.16554(11)
C47 C 0.8472(4) 0.4377(3) 0.38357(11)
C48 C 0.1814(3) 0.7322(3) 0.11479(9)
C49 C 0.5535(4) 0.5808(4) 0.37137(11)
C50 C 0.4783(3) 0.6408(3) 0.11902(10)
C51 C 0.5401(3) 0.6200(3) 0.31621(11)
C52 C 0.4985(3) 0.6513(3) 0.17342(11)
C53 C 0.5250(3) 0.6421(3) 0.27117(11)
C54 C 0.5125(3) 0.6525(3) 0.21801(11)
H1 H 0.891(3) 0.914(3) 0.5587(11)
H2 H 0.087(3) 1.326(3) -0.0601(9)
H3 H 0.927(4) 1.118(3) 0.5922(12)
H4 H 0.041(3) 1.575(3) -0.0906(10)
H5 H 0.798(3) 1.375(3) 0.5543(11)
H6 H 0.175(3) 1.711(3) -0.0544(10)
H7 H 0.6281(4) 1.4245(4) 0.48246(12)
H8 H 0.348(3) 1.591(3) 0.0126(9)
H9 H 0.568(3) 0.856(3) 0.3757(9)
H10 H 0.452(3) 0.934(3) 0.1188(9)
H11 H 0.8563(3) 0.5300(3) 0.48162(10)
H12 H 0.164(3) 0.880(3) 0.0162(9)
H13 H 0.862(3) 0.736(3) 0.5267(11)
H14 H 0.135(3) 1.105(3) -0.0277(9)
H15 H 1.1247(3) -0.05044(19) 0.29340(8)
H16 H -0.2073(2) 0.7425(3) 0.20959(9)
H17 H 1.1518(3) -0.10030(19) 0.20109(8)
H18 H -0.2671(2) 0.8116(3) 0.30014(9)
H19 H 1.0111(3) 0.11088(19) 0.13762(8)
H20 H -0.0440(2) 0.7275(3) 0.36109(9)
H21 H 0.8433(3) 0.37192(19) 0.16647(8)
H22 H 0.2390(2) 0.5743(3) 0.33148(9)
H23 H 0.8163(3) 0.42179(19) 0.25878(8)
H24 H 0.2988(2) 0.5051(3) 0.24092(9)
H25 H 0.366(4) 1.259(4) 0.3735(13)
H26 H 0.386(4) 1.091(4) 0.3694(14)
H27 H 0.617(4) 1.208(4) 0.1262(13)
H28 H 0.634(4) 1.037(4) 0.1245(13)
H29 H 0.6539(4) 1.0495(4) 0.32198(10)
H30 H 0.5726(4) 1.2515(4) 0.31780(10)
H31 H 0.4032(4) 1.0897(4) 0.17932(11)
H32 H 0.3623(4) 1.2862(4) 0.17429(11)
H33 H 0.428(4) 1.061(4) 0.2755(14)
H34 H 0.339(4) 1.243(4) 0.2716(13)
H35 H 0.6565(4) 1.0424(4) 0.22245(11)
H36 H 0.5923(4) 1.2426(4) 0.22256(11)
H37 H 1.0678(6) 0.2193(4) 0.34869(14)
H38 H 0.9474(6) 0.1151(4) 0.35848(14)
H39 H -0.0241(4) 0.6374(4) 0.14355(11)
H40 H 0.1106(4) 0.4516(4) 0.16487(11)
H41 H 0.466(3) 0.660(3) 0.3901(10)
H42 H 0.538(3) 0.482(4) 0.3801(11)
H43 H 0.491(3) 0.542(3) 0.1118(9)
H44 H 0.562(3) 0.664(3) 0.0996(10)
loop_
_geom_bond_atom_site_label_1
_geom_bond_atom_site_label_2
_geom_bond_site_symmetry_1
_geom_bond_site_symmetry_2
O1 C47 1_555 1_555
O2 C48 1_555 1_555
O3 C45 1_555 1_555
O4 C46 1_555 1_555
N1 C12 1_555 1_555
N2 C14 1_555 1_555
N3 C21 1_555 1_555
N4 C22 1_555 1_555
C1 C3 1_555 1_555
C2 C3 1_555 1_555
C3 C12 1_555 1_555
C4 C6 1_555 1_555
C5 C6 1_555 1_555
C6 C14 1_555 1_555
C7 C1 1_555 1_555
C8 C4 1_555 1_555
C9 C7 1_555 1_555
C10 C8 1_555 1_555
C11 C9 1_555 1_555
C12 C11 1_555 1_555
C13 C10 1_555 1_555
C14 C13 1_555 1_555
C15 N1 1_555 1_555
C16 C2 1_555 1_555
C17 N2 1_555 1_555
C18 C5 1_555 1_555
C19 C16 1_555 1_555
C20 C18 1_555 1_555
C21 C19 1_555 1_555
C22 C20 1_555 1_555
C23 C21 1_555 1_555
C24 C22 1_555 1_555
C25 C2 1_555 1_555
C26 C5 1_555 1_555
C27 C29 1_555 1_555
C28 C30 1_555 1_555
C29 C31 1_555 1_555
C30 C32 1_555 1_555
C31 C33 1_555 1_555
C32 C34 1_555 1_555
C33 C35 1_555 1_555
C34 C36 1_555 1_555
C35 C43 1_555 1_555
C36 C44 1_555 1_555
C37 C15 1_555 1_555
C38 C17 1_555 1_555
C39 C37 1_555 1_555
C40 C38 1_555 1_555
C41 C39 1_555 1_555
C42 C40 1_555 1_555
C43 C27 1_555 1_555
C44 C28 1_555 1_555
C45 C43 1_555 1_555
C46 C44 1_555 1_555
C47 O3 1_555 1_555
C48 O4 1_555 1_555
C49 N3 1_555 1_555
C50 N4 1_555 1_555
C51 C49 1_555 1_555
C52 C50 1_555 1_555
C53 C51 1_555 1_555
C54 C52 1_555 1_555
H1 C1 1_555 1_555
H2 C4 1_555 1_555
H3 C7 1_555 1_555
H4 C8 1_555 1_555
H5 C9 1_555 1_555
H6 C10 1_555 1_555
H7 C11 1_555 1_555
H8 C13 1_555 1_555
H9 C19 1_555 1_555
H10 C20 1_555 1_555
H11 C23 1_555 1_555
H12 C24 1_555 1_555
H13 C25 1_555 1_555
H14 C26 1_555 1_555
H15 C27 1_555 1_555
H16 C28 1_555 1_555
H17 C29 1_555 1_555
H18 C30 1_555 1_555
H19 C31 1_555 1_555
H20 C32 1_555 1_555
H21 C33 1_555 1_555
H22 C34 1_555 1_555
H23 C35 1_555 1_555
H24 C36 1_555 1_555
H25 C37 1_555 1_555
H26 C37 1_555 1_555
H27 C38 1_555 1_555
H28 C38 1_555 1_555
H29 C39 1_555 1_555
H30 C39 1_555 1_555
H31 C40 1_555 1_555
H32 C40 1_555 1_555
H33 C41 1_555 1_555
H34 C41 1_555 1_555
H35 C42 1_555 1_555
H36 C42 1_555 1_555
H37 C45 1_555 1_555
H38 C45 1_555 1_555
H39 C46 1_555 1_555
H40 C46 1_555 1_555
H41 C49 1_555 1_555
H42 C49 1_555 1_555
H43 C50 1_555 1_555
H44 C50 1_555 1_555
N3 C47 1_555 1_555
N4 C48 1_555 1_555
C15 C16 1_555 1_555
C17 C18 1_555 1_555
C23 C25 1_555 1_555
C24 C26 1_555 1_555
C41 C42 1_555 1_555
C53 C54 1_555 1_555

#END
