
#######################################################################
#
#                 Cambridge Crystallographic Data Centre
#                                CCDC 
#
#######################################################################
#
# If this CIF has been generated from an entry in the Cambridge 
# Structural Database, then it will include bibliographic, chemical, 
# crystal, experimental, refinement or atomic coordinate data resulting 
# from the CCDC's data processing and validation procedures.
#
#######################################################################

data_TIVTIB
_chemical_name_common            'Sodium diatrizoate tetrahydrate'
_chemical_formula_moiety         'C11 H8 I3 N2 O4 1-,Na1 1+,4(H2 O1)'
_chemical_name_systematic        
'Sodium 3,5-diacetamido-2,4,6-tri-iodobenzoate tetrahydrate'
_symmetry_cell_setting           triclinic
_symmetry_space_group_name_H-M   'P -1'
_symmetry_Int_Tables_number      2
_space_group_name_Hall           '-P 1'
loop_
_symmetry_equiv_pos_site_id
_symmetry_equiv_pos_as_xyz
1 x,y,z
2 -x,-y,-z
_cell_length_a                   11.754(2)
_cell_length_b                   13.091(3)
_cell_length_c                   15.129(4)
_cell_angle_alpha                76.32(2)
_cell_angle_beta                 84.56(2)
_cell_angle_gamma                63.50(1)
_cell_volume                     2024.08
_cell_formula_units_Z            4
loop_
_atom_site_label
_atom_site_type_symbol
_atom_site_fract_x
_atom_site_fract_y
_atom_site_fract_z
I1 I 0.66168(3) 0.80254(3) 1.10319(2)
I2 I 0.70326(3) 1.15340(3) 0.77457(2)
I3 I 0.50466(3) 0.81239(3) 0.73427(2)
O1 O 0.7584(3) 0.8971(4) 0.6352(3)
O2 O 0.9099(3) 0.8662(3) 1.0092(2)
O3 O 0.4472(3) 0.7568(3) 0.9764(2)
O4 O 0.6457(4) 0.6306(3) 0.9537(3)
N1 N 0.5791(3) 1.0303(3) 0.6836(3)
N2 N 0.7148(3) 1.0173(3) 0.9832(3)
C1 C 0.5929(4) 0.8313(4) 0.9093(3)
C2 C 0.6393(4) 0.8767(4) 0.9636(3)
C3 C 0.6713(4) 0.9685(4) 0.9264(3)
C4 C 0.6553(4) 1.0159(4) 0.8336(3)
C5 C 0.6049(4) 0.9751(4) 0.7771(3)
C6 C 0.5735(4) 0.8829(4) 0.8158(3)
C7 C 0.6599(4) 0.9887(5) 0.6178(3)
C8 C 0.6210(5) 1.0602(5) 0.5231(3)
C9 C 0.8324(4) 0.9626(4) 1.0211(3)
C10 C 0.8609(5) 1.0281(5) 1.0784(3)
C11 C 0.5595(5) 0.7301(4) 0.9497(3)
Na1 Na 0.7375(2) 0.4363(2) 0.9458(2)
I4 I 0.75694(3) 0.64612(3) 0.56287(2)
I5 I 0.98105(3) 0.49934(3) 0.21216(2)
I6 I 0.92039(3) 0.14886(3) 0.52760(2)
O5 O 0.8017(3) 0.3165(3) 0.2558(2)
O6 O 0.6574(3) 0.7525(3) 0.3317(3)
O7 O 0.8981(3) 0.3379(4) 0.6812(2)
O8 O 0.7025(3) 0.3801(3) 0.6392(2)
N3 N 0.9858(3) 0.2580(3) 0.3300(3)
N4 N 0.8697(3) 0.6567(3) 0.3602(3)
C12 C 0.8467(4) 0.4040(4) 0.5244(3)
C13 C 0.8343(4) 0.5168(4) 0.4860(3)
C14 C 0.8725(4) 0.5449(3) 0.3967(3)
C15 C 0.9216(4) 0.4590(4) 0.3448(3)
C16 C 0.9325(4) 0.3463(4) 0.3817(3)
C17 C 0.8966(4) 0.3201(4) 0.4713(3)
C18 C 0.9160(4) 0.2485(4) 0.2700(3)
C19 C 0.9844(5) 0.1509(5) 0.2216(4)
C20 C 0.7624(4) 0.7532(4) 0.3334(3)
C21 C 0.7767(6) 0.8651(4) 0.3056(4)
C22 C 0.8124(4) 0.3714(4) 0.6232(3)
Na2 Na 0.5485(2) 0.4703(2) 0.7361(1)
O9 O 0.6800(3) 0.3547(3) 1.0890(2)
O10 O 0.4278(3) 0.6641(3) 0.6526(2)
O11 O 0.8681(3) 0.2811(3) 0.8787(3)
O12 O 0.5464(4) 0.4408(3) 0.8925(2)
O13 O 0.3832(4) 0.4380(4) 0.7033(4)
O14 O 0.5429(5) 0.3578(5) 0.5254(3)
O15 O 0.7110(7) 0.5163(7) 0.7827(5)
O16 O 0.8917(8) 0.4947(8) 0.9724(6)
O17 O 1.0890(10) 0.3135(9) 1.0687(7)
O18? O 0.9604(7) 0.3840(6) 0.9969(5)
loop_
_geom_bond_atom_site_label_1
_geom_bond_atom_site_label_2
_geom_bond_site_symmetry_1
_geom_bond_site_symmetry_2
I1 C2 1_555 1_555
I2 C4 1_555 1_555
I3 C6 1_555 1_555
O1 C7 1_555 1_555
O2 C9 1_555 1_555
O3 C11 1_555 1_555
O4 C11 1_555 1_555
N1 C5 1_555 1_555
N2 C3 1_555 1_555
C1 C2 1_555 1_555
C2 C3 1_555 1_555
C3 C4 1_555 1_555
C4 C5 1_555 1_555
C5 C6 1_555 1_555
C6 C1 1_555 1_555
C7 N1 1_555 1_555
C8 C7 1_555 1_555
C9 N2 1_555 1_555
C10 C9 1_555 1_555
C11 C1 1_555 1_555
I4 C13 1_555 1_555
I5 C15 1_555 1_555
I6 C17 1_555 1_555
O5 C18 1_555 1_555
O6 C20 1_555 1_555
O7 C22 1_555 1_555
O8 C22 1_555 1_555
N3 C16 1_555 1_555
N4 C14 1_555 1_555
C12 C13 1_555 1_555
C13 C14 1_555 1_555
C14 C15 1_555 1_555
C15 C16 1_555 1_555
C16 C17 1_555 1_555
C17 C12 1_555 1_555
C18 N3 1_555 1_555
C19 C18 1_555 1_555
C20 N4 1_555 1_555
C21 C20 1_555 1_555
C22 C12 1_555 1_555

#END
