
#######################################################################
#
#                 Cambridge Crystallographic Data Centre
#                                CCDC 
#
#######################################################################
#
# If this CIF has been generated from an entry in the Cambridge 
# Structural Database, then it will include bibliographic, chemical, 
# crystal, experimental, refinement or atomic coordinate data resulting 
# from the CCDC's data processing and validation procedures.
#
#######################################################################

data_TIVTEZ
_chemical_name_common            
'Tetraethylammonium 5,17-dichloro-2,8,14,20-tetraoxa-4,6,16,18,26,28-hexaazapentacyclo[19.3.1.1$3,7!.1$9,13!.1$15,19!]octacosa-1(25),3(28),4,6,9(27),10,12,15(26),16,18,21,23-dodecaene hexafluorophosphate'
_chemical_formula_moiety         'C8 H20 N1 1+,C18 H8 Cl2 N6 O4,F6 P1 1-'
_chemical_name_systematic        
'Tetraethylammonium 5,17-dichloro-2,8,14,20-tetraoxacalix[2]arene[2]triazine hexafluorophosphate'
_symmetry_cell_setting           orthorhombic
_symmetry_space_group_name_H-M   'C m m a'
_symmetry_Int_Tables_number      67
_space_group_name_Hall           '-C 2a 2'
loop_
_symmetry_equiv_pos_site_id
_symmetry_equiv_pos_as_xyz
1 x,y,z
2 -x,1/2-y,z
3 -x,1/2+y,-z
4 x,-y,-z
5 1/2+x,1/2+y,z
6 1/2-x,-y,z
7 1/2-x,y,-z
8 1/2+x,1/2-y,-z
9 -x,-y,-z
10 x,1/2+y,-z
11 x,1/2-y,z
12 -x,y,z
13 1/2-x,1/2-y,-z
14 1/2+x,y,-z
15 1/2+x,-y,z
16 1/2-x,1/2+y,z
_cell_length_a                   15.947(2)
_cell_length_b                   16.119(2)
_cell_length_c                   12.028(2)
_cell_angle_alpha                90
_cell_angle_beta                 90
_cell_angle_gamma                90
_cell_volume                     3091.79
_exptl_crystal_colour            colorless
_exptl_crystal_description       block
_cell_formula_units_Z            4
loop_
_atom_site_label
_atom_site_type_symbol
_atom_site_fract_x
_atom_site_fract_y
_atom_site_fract_z
Cl1 Cl 0.0000 0.59117(8) 0.18027(11)
O1 O 0.14380(13) 0.39822(13) 0.42153(18)
N1 N 0.07479(16) 0.48742(16) 0.3106(2)
N2 N 0.0000 0.3939(2) 0.4275(3)
C1 C 0.0000 0.5129(3) 0.2781(4)
C2 C 0.06939(18) 0.42632(19) 0.3860(2)
C3 C 0.14157(18) 0.32279(18) 0.4827(3)
C4 C 0.14533(19) 0.3251(2) 0.5967(3)
H1 H 0.1475 0.3764 0.6354
C5 C 0.1459(3) 0.2500 0.6539(4)
H2 H 0.1468 0.2500 0.7329
C6 C 0.1404(3) 0.2500 0.4235(4)
H3 H 0.1389 0.2500 0.3446
Cl1A Cl 0.0000 -0.09117(8) 0.18027(11)
O1J O 0.14380(13) 0.10178(13) 0.42153(18)
N1J N 0.07479(16) 0.01258(16) 0.3106(2)
N2A N 0.0000 0.1061(2) 0.4275(3)
C1A C 0.0000 -0.0129(3) 0.2781(4)
C2J C 0.06939(18) 0.07368(19) 0.3860(2)
C3J C 0.14157(18) 0.17721(18) 0.4827(3)
C4J C 0.14533(19) 0.1749(2) 0.5967(3)
H1J H 0.1475 0.1236 0.6354
O1K O -0.14380(13) 0.39822(13) 0.42153(18)
N1K N -0.07479(16) 0.48742(16) 0.3106(2)
C2K C -0.06939(18) 0.42632(19) 0.3860(2)
C3K C -0.14157(18) 0.32279(18) 0.4827(3)
C4K C -0.14533(19) 0.3251(2) 0.5967(3)
H1K H -0.1475 0.3764 0.6354
C5A C -0.1459(3) 0.2500 0.6539(4)
H2A H -0.1468 0.2500 0.7329
C6A C -0.1404(3) 0.2500 0.4235(4)
H3A H -0.1389 0.2500 0.3446
O1A O -0.14380(13) 0.10178(13) 0.42153(18)
N1A N -0.07479(16) 0.01258(16) 0.3106(2)
C2A C -0.06939(18) 0.07368(19) 0.3860(2)
C3A C -0.14157(18) 0.17721(18) 0.4827(3)
C4A C -0.14533(19) 0.1749(2) 0.5967(3)
H1A H -0.1475 0.1236 0.6354
P1 P 0.0000 0.7500 -0.08595(17)
F1 F -0.0699(4) 0.7500 -0.1730(5)
F2 F 0.0000 0.6536(3) -0.0790(6)
F3 F -0.0704(3) 0.7500 0.0043(5)
F1A F 0.0699(4) 0.7500 -0.1730(5)
F2A F 0.0000 0.8464(3) -0.0790(6)
F3A F 0.0704(3) 0.7500 0.0043(5)
N3 N 0.2500 0.5000 0.0000
C7 C 0.2383(3) 0.3874(3) 0.1478(3)
H4 H 0.1971 0.3551 0.1898
H5 H 0.2737 0.4188 0.1996
H6 H 0.2734 0.3499 0.1037
C8 C 0.1934(2) 0.4468(2) 0.0714(3)
H7 H 0.1577 0.4837 0.1170
H8 H 0.1560 0.4145 0.0221
C7C C 0.2383(3) 0.6126(3) -0.1478(3)
H4C H 0.1971 0.6449 -0.1898
H5C H 0.2737 0.5812 -0.1996
H6C H 0.2734 0.6501 -0.1037
C8C C 0.1934(2) 0.5532(2) -0.0714(3)
H7C H 0.1577 0.5163 -0.1170
H8C H 0.1560 0.5855 -0.0221
C7E C 0.2617(3) 0.6126(3) 0.1478(3)
H4E H 0.3029 0.6449 0.1898
H5E H 0.2263 0.5812 0.1996
H6E H 0.2266 0.6501 0.1037
C8E C 0.3066(2) 0.5532(2) 0.0714(3)
H7E H 0.3423 0.5163 0.1170
H8E H 0.3440 0.5855 0.0221
C7F C 0.2617(3) 0.3874(3) -0.1478(3)
H4F H 0.3029 0.3551 -0.1898
H5F H 0.2263 0.4188 -0.1996
H6F H 0.2266 0.3499 -0.1037
C8F C 0.3066(2) 0.4468(2) -0.0714(3)
H7F H 0.3423 0.4837 -0.1170
H8F H 0.3440 0.4145 -0.0221
loop_
_geom_bond_atom_site_label_1
_geom_bond_atom_site_label_2
_geom_bond_site_symmetry_1
_geom_bond_site_symmetry_2
Cl1 C1 1_555 1_555
O1 C2 1_555 1_555
N1 C1 1_555 1_555
N2 C2 1_555 1_555
C1 N1K 1_555 1_555
C2 N1 1_555 1_555
C3 O1 1_555 1_555
C4 C3 1_555 1_555
H1 C4 1_555 1_555
C5 C4 1_555 1_555
H2 C5 1_555 1_555
C6 C3 1_555 1_555
H3 C6 1_555 1_555
P1 F1 1_555 1_555
F2 P1 1_555 1_555
F3 P1 1_555 1_555
N3 C8 1_555 1_555
C7 H4 1_555 1_555
H5 C7 1_555 1_555
H6 C7 1_555 1_555
C8 C7 1_555 1_555
H7 C8 1_555 1_555
H8 C8 1_555 1_555
Cl1A C1A 1_555 1_555
O1J C2J 1_555 1_555
N1J C1A 1_555 1_555
N2A C2J 1_555 1_555
C1A N1A 1_555 1_555
C2J N1J 1_555 1_555
C3J C6 1_555 1_555
C4J C5 1_555 1_555
H1J C4J 1_555 1_555
O1K C2K 1_555 1_555
N1K C2K 1_555 1_555
C2K N2 1_555 1_555
C3K O1K 1_555 1_555
C4K C3K 1_555 1_555
H1K C4K 1_555 1_555
C5A C4K 1_555 1_555
H2A C5A 1_555 1_555
C6A C3K 1_555 1_555
H3A C6A 1_555 1_555
O1A C2A 1_555 1_555
N1A C2A 1_555 1_555
C2A N2A 1_555 1_555
C3A C6A 1_555 1_555
C4A C5A 1_555 1_555
H1A C4A 1_555 1_555
F1A P1 1_555 1_555
F2A P1 1_555 1_555
F3A P1 1_555 1_555
C7C H4C 1_555 1_555
H5C C7C 1_555 1_555
H6C C7C 1_555 1_555
C8C N3 1_555 1_555
H7C C8C 1_555 1_555
H8C C8C 1_555 1_555
C7E H4E 1_555 1_555
H5E C7E 1_555 1_555
H6E C7E 1_555 1_555
C8E N3 1_555 1_555
H7E C8E 1_555 1_555
H8E C8E 1_555 1_555
C7F H4F 1_555 1_555
H5F C7F 1_555 1_555
H6F C7F 1_555 1_555
C8F N3 1_555 1_555
H7F C8F 1_555 1_555
H8F C8F 1_555 1_555
O1J C3J 1_555 1_555
C3J C4J 1_555 1_555
O1A C3A 1_555 1_555
C3A C4A 1_555 1_555
C7C C8C 1_555 1_555
C7E C8E 1_555 1_555
C7F C8F 1_555 1_555

#END
