
#######################################################################
#
#                 Cambridge Crystallographic Data Centre
#                                CCDC 
#
#######################################################################
#
# If this CIF has been generated from an entry in the Cambridge 
# Structural Database, then it will include bibliographic, chemical, 
# crystal, experimental, refinement or atomic coordinate data resulting 
# from the CCDC's data processing and validation procedures.
#
#######################################################################

data_TIVVAX
_chemical_formula_moiety         'C28 H12 F12 N2,C26 H26'
_chemical_name_systematic        
"3,3'-(1,4-Phenylene)bis(2-(3,5-bis(trifluoromethyl)phenyl)acrylonitrile) 1,1'-(1,4-phenylenediethene-2,1-diyl)bis(3,5-dimethylbenzene)"
_symmetry_cell_setting           monoclinic
_symmetry_space_group_name_H-M   'P 21/c'
_symmetry_Int_Tables_number      14
_space_group_name_Hall           '-P 2ybc'
loop_
_symmetry_equiv_pos_site_id
_symmetry_equiv_pos_as_xyz
1 x,y,z
2 -x,1/2+y,1/2-z
3 -x,-y,-z
4 x,1/2-y,1/2+z
_cell_length_a                   15.0774(8)
_cell_length_b                   9.3896(6)
_cell_length_c                   16.7012(9)
_cell_angle_alpha                90
_cell_angle_beta                 112.131(3)
_cell_angle_gamma                90
_cell_volume                     2190.2
_exptl_crystal_colour            orange
_cell_formula_units_Z            2
loop_
_atom_site_label
_atom_site_type_symbol
_atom_site_fract_x
_atom_site_fract_y
_atom_site_fract_z
N1 N 0.47375(16) 0.7618(3) 0.23134(12)
F1 F 0.11432(11) 1.1348(2) -0.15966(9)
F2 F 0.03343(12) 0.95626(19) -0.15770(10)
F3 F 0.00387(12) 1.1508(2) -0.11152(9)
F4 F 0.18727(10) 1.03194(17) 0.25875(8)
F5 F 0.29235(10) 1.18433(16) 0.25781(8)
F6 F 0.14300(10) 1.23247(17) 0.19518(8)
C1 C 0.42919(14) 0.5520(2) -0.07264(12)
H1 H 0.3799 0.5868 -0.1234
C2 C 0.43583(14) 0.6055(2) 0.00764(12)
C3 C 0.50886(15) 0.5487(2) 0.08074(12)
H2 H 0.5154 0.5807 0.1367
C4 C 0.36652(14) 0.7122(2) 0.00780(12)
H3 H 0.3192 0.7323 -0.0476
C5 C 0.35746(14) 0.7878(2) 0.07296(12)
C6 C 0.28262(14) 0.8949(2) 0.06294(12)
C7 C 0.21346(14) 0.9318(2) -0.01751(12)
H4 H 0.2142 0.8868 -0.0682
C8 C 0.14427(14) 1.0324(2) -0.02456(12)
C9 C 0.14006(14) 1.1002(2) 0.04796(12)
H5 H 0.0922 1.1692 0.0429
C10 C 0.20800(14) 1.0636(2) 0.12779(12)
C11 C 0.27804(14) 0.9642(2) 0.13532(12)
H6 H 0.3242 0.9423 0.1910
C12 C 0.42442(16) 0.7699(2) 0.16084(13)
C13 C 0.07407(16) 1.0697(3) -0.11279(13)
C14 C 0.20679(16) 1.1298(3) 0.20892(13)
N1B N 0.52625(16) 0.2382(3) -0.23134(12)
F1B F 0.88568(11) -0.1348(2) 0.15966(9)
F2B F 0.96657(12) 0.04374(19) 0.15770(10)
F3B F 0.99613(12) -0.1508(2) 0.11152(9)
F4B F 0.81273(10) -0.03194(17) -0.25875(8)
F5B F 0.70765(10) -0.18433(16) -0.25781(8)
F6B F 0.85700(10) -0.23247(17) -0.19518(8)
C1B C 0.57081(14) 0.4480(2) 0.07264(12)
H1B H 0.6201 0.4132 0.1234
C2B C 0.56417(14) 0.3945(2) -0.00764(12)
C3B C 0.49114(15) 0.4513(2) -0.08074(12)
H2B H 0.4846 0.4193 -0.1367
C4B C 0.63348(14) 0.2878(2) -0.00780(12)
H3B H 0.6808 0.2677 0.0476
C5B C 0.64254(14) 0.2122(2) -0.07296(12)
C6B C 0.71738(14) 0.1051(2) -0.06294(12)
C7B C 0.78654(14) 0.0682(2) 0.01751(12)
H4B H 0.7858 0.1132 0.0682
C8B C 0.85573(14) -0.0324(2) 0.02456(12)
C9B C 0.85994(14) -0.1002(2) -0.04796(12)
H5B H 0.9078 -0.1692 -0.0429
C10B C 0.79200(14) -0.0636(2) -0.12779(12)
C11B C 0.72196(14) 0.0358(2) -0.13532(12)
H6B H 0.6758 0.0577 -0.1910
C12B C 0.57558(16) 0.2301(2) -0.16084(13)
C13B C 0.92593(16) -0.0697(3) 0.11279(13)
C14B C 0.79321(16) -0.1298(3) -0.20892(13)
C15 C 0.49530(15) 0.5649(2) 0.42449(12)
H7 H 0.4912 0.6087 0.3719
C16 C 0.42939(14) 0.4618(2) 0.42298(13)
H8 H 0.3809 0.4365 0.3692
C17 C 0.43200(14) 0.3937(2) 0.49816(12)
C18 C 0.36007(15) 0.2857(2) 0.49222(13)
H9 H 0.3148 0.2646 0.4361
C19 C 0.35178(15) 0.2139(2) 0.55780(13)
H10 H 0.3977 0.2346 0.6137
C20 C 0.27975(15) 0.1067(2) 0.55317(13)
C21 C 0.20666(15) 0.0654(2) 0.47560(13)
H11 H 0.2045 0.1063 0.4228
C22 C 0.13747(16) -0.0334(3) 0.47371(14)
C23 C 0.14198(16) -0.0932(3) 0.55122(14)
H12 H 0.0951 -0.1611 0.5507
C24 C 0.21366(16) -0.0557(2) 0.62964(14)
C25 C 0.28164(16) 0.0439(2) 0.62917(13)
H13 H 0.3308 0.0699 0.6824
C26 C 0.05932(18) -0.0757(3) 0.38952(16)
H14 H 0.0670 -0.0230 0.3419
H15 H -0.0032 -0.0535 0.3918
H16 H 0.0634 -0.1782 0.3802
C27 C 0.21663(19) -0.1199(3) 0.71332(15)
H17 H 0.2715 -0.0812 0.7614
H18 H 0.2229 -0.2235 0.7112
H19 H 0.1574 -0.0965 0.7217
C15B C 0.50470(15) 0.4351(2) 0.57551(12)
H7B H 0.5088 0.3913 0.6281
C16B C 0.57061(14) 0.5382(2) 0.57702(13)
H8B H 0.6191 0.5635 0.6308
C17B C 0.56800(14) 0.6063(2) 0.50184(12)
C18B C 0.63993(15) 0.7143(2) 0.50778(13)
H9B H 0.6852 0.7354 0.5639
C19B C 0.64822(15) 0.7861(2) 0.44220(13)
H10B H 0.6023 0.7654 0.3863
C20B C 0.72025(15) 0.8933(2) 0.44683(13)
C21B C 0.79334(15) 0.9346(2) 0.52440(13)
H11B H 0.7955 0.8937 0.5772
C22B C 0.86253(16) 1.0334(3) 0.52629(14)
C23B C 0.85802(16) 1.0932(3) 0.44878(14)
H12B H 0.9049 1.1611 0.4493
C24B C 0.78634(16) 1.0557(2) 0.37036(14)
C25B C 0.71836(16) 0.9561(2) 0.37083(13)
H13B H 0.6692 0.9301 0.3176
C26B C 0.94068(18) 1.0757(3) 0.61048(16)
H14B H 0.9330 1.0230 0.6581
H15B H 1.0032 1.0535 0.6082
H16B H 0.9366 1.1782 0.6198
C27B C 0.78337(19) 1.1199(3) 0.28668(15)
H17B H 0.7285 1.0812 0.2386
H18B H 0.7771 1.2235 0.2888
H19B H 0.8426 1.0965 0.2783
loop_
_geom_bond_atom_site_label_1
_geom_bond_atom_site_label_2
_geom_bond_site_symmetry_1
_geom_bond_site_symmetry_2
N1 C12 1_555 1_555
F1 C13 1_555 1_555
F2 C13 1_555 1_555
F3 C13 1_555 1_555
F4 C14 1_555 1_555
F5 C14 1_555 1_555
F6 C14 1_555 1_555
C1 H1 1_555 1_555
C2 C1 1_555 1_555
C3 C2 1_555 1_555
H2 C3 1_555 1_555
C4 C2 1_555 1_555
H3 C4 1_555 1_555
C5 C4 1_555 1_555
C6 C5 1_555 1_555
C7 C6 1_555 1_555
H4 C7 1_555 1_555
C8 C7 1_555 1_555
C9 C8 1_555 1_555
H5 C9 1_555 1_555
C10 C9 1_555 1_555
C11 C6 1_555 1_555
H6 C11 1_555 1_555
C12 C5 1_555 1_555
C13 C8 1_555 1_555
C14 C10 1_555 1_555
C15 H7 1_555 1_555
C16 C15 1_555 1_555
H8 C16 1_555 1_555
C17 C16 1_555 1_555
C18 C17 1_555 1_555
H9 C18 1_555 1_555
C19 C18 1_555 1_555
H10 C19 1_555 1_555
C20 C19 1_555 1_555
C21 C20 1_555 1_555
H11 C21 1_555 1_555
C22 C21 1_555 1_555
C23 C22 1_555 1_555
H12 C23 1_555 1_555
C24 C23 1_555 1_555
C25 C20 1_555 1_555
H13 C25 1_555 1_555
C26 C22 1_555 1_555
H14 C26 1_555 1_555
H15 C26 1_555 1_555
H16 C26 1_555 1_555
C27 C24 1_555 1_555
H17 C27 1_555 1_555
H18 C27 1_555 1_555
H19 C27 1_555 1_555
N1B C12B 1_555 1_555
F1B C13B 1_555 1_555
F2B C13B 1_555 1_555
F3B C13B 1_555 1_555
F4B C14B 1_555 1_555
F5B C14B 1_555 1_555
F6B C14B 1_555 1_555
C1B C3 1_555 1_555
H1B C1B 1_555 1_555
C2B C1B 1_555 1_555
C3B C1 1_555 1_555
H2B C3B 1_555 1_555
C4B C2B 1_555 1_555
H3B C4B 1_555 1_555
C5B C4B 1_555 1_555
C6B C5B 1_555 1_555
C7B C6B 1_555 1_555
H4B C7B 1_555 1_555
C8B C7B 1_555 1_555
C9B C8B 1_555 1_555
H5B C9B 1_555 1_555
C10B C9B 1_555 1_555
C11B C6B 1_555 1_555
H6B C11B 1_555 1_555
C12B C5B 1_555 1_555
C13B C8B 1_555 1_555
C14B C10B 1_555 1_555
C15B C17 1_555 1_555
H7B C15B 1_555 1_555
C16B C15B 1_555 1_555
H8B C16B 1_555 1_555
C17B C15 1_555 1_555
C18B C17B 1_555 1_555
H9B C18B 1_555 1_555
C19B C18B 1_555 1_555
H10B C19B 1_555 1_555
C20B C19B 1_555 1_555
C21B C20B 1_555 1_555
H11B C21B 1_555 1_555
C22B C21B 1_555 1_555
C23B C22B 1_555 1_555
H12B C23B 1_555 1_555
C24B C23B 1_555 1_555
C25B C20B 1_555 1_555
H13B C25B 1_555 1_555
C26B C22B 1_555 1_555
H14B C26B 1_555 1_555
H15B C26B 1_555 1_555
H16B C26B 1_555 1_555
C27B C24B 1_555 1_555
H17B C27B 1_555 1_555
H18B C27B 1_555 1_555
H19B C27B 1_555 1_555
C10 C11 1_555 1_555
C24 C25 1_555 1_555
C2B C3B 1_555 1_555
C10B C11B 1_555 1_555
C16B C17B 1_555 1_555
C24B C25B 1_555 1_555

#END
