
#######################################################################
#
#                 Cambridge Crystallographic Data Centre
#                                CCDC 
#
#######################################################################
#
# If this CIF has been generated from an entry in the Cambridge 
# Structural Database, then it will include bibliographic, chemical, 
# crystal, experimental, refinement or atomic coordinate data resulting 
# from the CCDC's data processing and validation procedures.
#
#######################################################################

data_TIVWAY
_chemical_formula_moiety         'C34 H48 O7,H2 O1'
_chemical_name_systematic        
"6'-sec-Butyl-4',7,15-trihydroxy-5',6,10,14,16-pentamethyl-3',4',5',6'-tetrahydro-3H-spiro[2,20-dioxatricyclo[17.3.1.0^4,9^]tricosa-4,6,8,10,12,16-hexaene-21,2'-pyran]-3-one monohydrate"
_symmetry_cell_setting           monoclinic
_symmetry_space_group_name_H-M   'P 21'
_symmetry_Int_Tables_number      4
_space_group_name_Hall           'P 2yb'
loop_
_symmetry_equiv_pos_site_id
_symmetry_equiv_pos_as_xyz
1 x,y,z
2 -x,1/2+y,-z
_cell_length_a                   12.797(3)
_cell_length_b                   9.2206(18)
_cell_length_c                   14.430(3)
_cell_angle_alpha                90
_cell_angle_beta                 94.14(3)
_cell_angle_gamma                90
_cell_volume                     1698.24
_cell_formula_units_Z            2
loop_
_atom_site_label
_atom_site_type_symbol
_atom_site_fract_x
_atom_site_fract_y
_atom_site_fract_z
O1 O 0.17196(19) -0.0001(2) 0.22819(14)
O2 O 0.01539(19) 0.3856(3) 0.18337(15)
O3 O 0.1115(2) 0.5828(3) 0.22212(17)
O4 O 0.30645(18) 0.1699(3) 0.24563(15)
O5 O -0.3148(3) 0.8713(4) 0.0670(2)
H1 H -0.2968 0.9389 0.0348
O6 O -0.0770(2) 0.0688(3) 0.58200(14)
H2 H -0.1005 0.0737 0.6333
O7 O 0.3164(3) -0.2049(3) 0.1785(2)
H3 H 0.3273 -0.2744 0.1451
C1 C 0.0287(3) 0.5275(4) 0.19331(19)
C2 C -0.0656(3) 0.6135(3) 0.16279(18)
C3 C -0.0471(3) 0.7479(4) 0.1246(2)
H4 H 0.0219 0.7779 0.1216
C4 C -0.1264(3) 0.8405(3) 0.0903(2)
C5 C -0.2282(3) 0.7919(4) 0.0975(2)
C6 C -0.2502(3) 0.6591(4) 0.1373(2)
H5 H -0.3196 0.6318 0.1420
C7 C -0.1698(3) 0.5660(4) 0.17012(18)
C8 C -0.2025(3) 0.4255(4) 0.2093(2)
C9 C -0.1853(3) 0.3932(4) 0.3006(2)
H6 H -0.1473 0.4604 0.3374
C10 C -0.2204(3) 0.2637(4) 0.3468(2)
H7 H -0.2611 0.1981 0.3110
C11 C -0.1994(3) 0.2316(4) 0.4347(2)
H8 H -0.1562 0.2951 0.4698
C12 C -0.2393(3) 0.1010(4) 0.4837(2)
H9 H -0.2856 0.0477 0.4386
C13 C -0.1511(3) -0.0031(4) 0.5185(2)
H10 H -0.1823 -0.0836 0.5513
C14 C -0.0939(3) -0.0647(4) 0.4394(2)
C15 C 0.0038(3) -0.0295(4) 0.4269(2)
H11 H 0.0382 0.0289 0.4719
C16 C 0.0644(3) -0.0746(4) 0.3473(2)
H12 H 0.0175 -0.1198 0.3000
H13 H 0.1167 -0.1457 0.3684
C17 C 0.1179(3) 0.0537(3) 0.30566(19)
H14 H 0.1692 0.0945 0.3522
C18 C 0.0420(3) 0.1711(4) 0.2721(2)
H15 H -0.0122 0.1295 0.2298
H16 H 0.0088 0.2114 0.3247
C19 C 0.0970(3) 0.2900(4) 0.2235(2)
H17 H 0.1436 0.3435 0.2682
C20 C 0.1586(3) 0.2292(4) 0.1475(2)
H18 H 0.2004 0.3057 0.1225
H19 H 0.1106 0.1933 0.0976
C21 C 0.2302(3) 0.1067(4) 0.1831(2)
C22 C 0.2819(3) 0.0293(5) 0.1053(2)
H20 H 0.2288 -0.0214 0.0663
H21 H 0.3145 0.1003 0.0671
C23 C 0.3637(4) -0.0780(5) 0.1427(3)
H22 H 0.4029 -0.1090 0.0903
C24 C 0.4420(3) -0.0065(5) 0.2134(3)
H23 H 0.4810 0.0664 0.1806
C25 C 0.3849(3) 0.0712(5) 0.2878(2)
H24 H 0.3492 -0.0016 0.3237
C26 C 0.4535(4) 0.1661(6) 0.3561(3)
H25 H 0.5141 0.1076 0.3785
C27 C 0.3952(4) 0.2087(6) 0.4409(3)
H26 H 0.4355 0.2824 0.4756
H27 H 0.3285 0.2514 0.4197
C28 C 0.3758(5) 0.0873(8) 0.5043(4)
H28 H 0.3395 0.1226 0.5557
H29 H 0.4414 0.0454 0.5269
H30 H 0.3338 0.0150 0.4714
C29 C -0.1586(4) -0.1642(6) 0.3757(3)
H31 H -0.1169 -0.1987 0.3276
H32 H -0.2181 -0.1124 0.3483
H33 H -0.1822 -0.2451 0.4106
C30 C -0.3046(4) 0.1462(5) 0.5637(3)
H34 H -0.3591 0.2112 0.5408
H35 H -0.2604 0.1940 0.6109
H36 H -0.3353 0.0617 0.5896
C31 C -0.2572(5) 0.3253(5) 0.1400(3)
H37 H -0.2754 0.2372 0.1705
H38 H -0.2116 0.3034 0.0920
H39 H -0.3197 0.3710 0.1132
C32 C -0.1030(4) 0.9848(4) 0.0469(3)
H40 H -0.0286 0.9982 0.0481
H41 H -0.1333 1.0612 0.0814
H42 H -0.1324 0.9866 -0.0162
C33 C 0.4948(4) 0.2986(8) 0.3104(4)
H43 H 0.5307 0.2702 0.2572
H44 H 0.5426 0.3486 0.3537
H45 H 0.4376 0.3616 0.2913
C34 C 0.5212(4) -0.1169(7) 0.2563(4)
H46 H 0.5566 -0.1632 0.2079
H47 H 0.4851 -0.1887 0.2901
H48 H 0.5716 -0.0679 0.2978
O8 O -0.3390(5) 1.0444(7) -0.0815(5)
H49 H -0.3234 1.1331 -0.0887
C35? C -0.4476(16) 1.044(3) -0.085(2)
loop_
_geom_bond_atom_site_label_1
_geom_bond_atom_site_label_2
_geom_bond_site_symmetry_1
_geom_bond_site_symmetry_2
O1 C17 1_555 1_555
O2 C1 1_555 1_555
O3 C1 1_555 1_555
O4 C21 1_555 1_555
O5 H1 1_555 1_555
O6 H2 1_555 1_555
O7 H3 1_555 1_555
C1 C2 1_555 1_555
C2 C3 1_555 1_555
C3 H4 1_555 1_555
C4 C3 1_555 1_555
C5 O5 1_555 1_555
C6 C5 1_555 1_555
H5 C6 1_555 1_555
C7 C2 1_555 1_555
C8 C7 1_555 1_555
C9 C8 1_555 1_555
H6 C9 1_555 1_555
C10 C9 1_555 1_555
H7 C10 1_555 1_555
C11 C10 1_555 1_555
H8 C11 1_555 1_555
C12 C11 1_555 1_555
H9 C12 1_555 1_555
C13 O6 1_555 1_555
H10 C13 1_555 1_555
C14 C13 1_555 1_555
C15 C14 1_555 1_555
H11 C15 1_555 1_555
C16 C15 1_555 1_555
H12 C16 1_555 1_555
H13 C16 1_555 1_555
C17 C16 1_555 1_555
H14 C17 1_555 1_555
C18 C17 1_555 1_555
H15 C18 1_555 1_555
H16 C18 1_555 1_555
C19 O2 1_555 1_555
H17 C19 1_555 1_555
C20 C19 1_555 1_555
H18 C20 1_555 1_555
H19 C20 1_555 1_555
C21 O1 1_555 1_555
C22 C21 1_555 1_555
H20 C22 1_555 1_555
H21 C22 1_555 1_555
C23 O7 1_555 1_555
H22 C23 1_555 1_555
C24 C23 1_555 1_555
H23 C24 1_555 1_555
C25 O4 1_555 1_555
H24 C25 1_555 1_555
C26 C25 1_555 1_555
H25 C26 1_555 1_555
C27 C26 1_555 1_555
H26 C27 1_555 1_555
H27 C27 1_555 1_555
C28 C27 1_555 1_555
H28 C28 1_555 1_555
H29 C28 1_555 1_555
H30 C28 1_555 1_555
C29 C14 1_555 1_555
H31 C29 1_555 1_555
H32 C29 1_555 1_555
H33 C29 1_555 1_555
C30 C12 1_555 1_555
H34 C30 1_555 1_555
H35 C30 1_555 1_555
H36 C30 1_555 1_555
C31 C8 1_555 1_555
H37 C31 1_555 1_555
H38 C31 1_555 1_555
H39 C31 1_555 1_555
C32 C4 1_555 1_555
H40 C32 1_555 1_555
H41 C32 1_555 1_555
H42 C32 1_555 1_555
C33 C26 1_555 1_555
H43 C33 1_555 1_555
H44 C33 1_555 1_555
H45 C33 1_555 1_555
C34 C24 1_555 1_555
H46 C34 1_555 1_555
H47 C34 1_555 1_555
H48 C34 1_555 1_555
O8 H49 1_555 1_555
C4 C5 1_555 1_555
C6 C7 1_555 1_555
C12 C13 1_555 1_555
C18 C19 1_555 1_555
C20 C21 1_555 1_555
C22 C23 1_555 1_555
C24 C25 1_555 1_555

#END
