
#######################################################################
#
#                 Cambridge Crystallographic Data Centre
#                                CCDC 
#
#######################################################################
#
# If this CIF has been generated from an entry in the Cambridge 
# Structural Database, then it will include bibliographic, chemical, 
# crystal, experimental, refinement or atomic coordinate data resulting 
# from the CCDC's data processing and validation procedures.
#
#######################################################################

data_TIWFAI
_chemical_formula_moiety         'C44 H40 N8,4(C7 H8)'
_chemical_name_systematic        
'5-(3,3-Dicyano-1,2-bis(4-(dimethylamino)phenyl)prop-2-en-1-ylidene)-2,4-bis(4-(dimethylamino)phenyl)cyclopenta-1,3-diene-1,3-dicarbonitrile toluene solvate'
_symmetry_cell_setting           monoclinic
_symmetry_space_group_name_H-M   'P 21/c'
_symmetry_Int_Tables_number      14
_space_group_name_Hall           '-P 2ybc'
loop_
_symmetry_equiv_pos_site_id
_symmetry_equiv_pos_as_xyz
1 x,y,z
2 -x,1/2+y,1/2-z
3 -x,-y,-z
4 x,1/2-y,1/2+z
_cell_length_a                   15.2956(9)
_cell_length_b                   19.8622(10)
_cell_length_c                   19.6049(9)
_cell_angle_alpha                90
_cell_angle_beta                 93.109(2)
_cell_angle_gamma                90
_cell_volume                     5947.29
_exptl_crystal_colour            black
_exptl_crystal_description       plate
_cell_formula_units_Z            4
loop_
_atom_site_label
_atom_site_type_symbol
_atom_site_fract_x
_atom_site_fract_y
_atom_site_fract_z
N1 N -0.13391(16) 0.42938(13) 0.30230(13)
N2 N -0.48207(15) 0.25940(14) 0.16067(13)
N3 N -0.09632(16) 0.18017(13) 0.04610(13)
N4 N 0.31770(16) 0.14042(14) 0.05885(13)
N5 N 0.29040(18) 0.28193(15) 0.33328(14)
N6 N 0.39848(18) 0.39690(15) 0.17265(15)
N7 N 0.10540(18) 0.55568(13) -0.01531(12)
N8 N 0.11788(15) 0.46931(11) 0.51628(11)
C1 C -0.06499(17) 0.33569(13) 0.23169(13)
C2 C -0.11503(17) 0.29841(13) 0.18371(13)
C3 C -0.05426(17) 0.26601(13) 0.14090(13)
C4 C 0.03131(17) 0.28339(13) 0.16128(13)
C5 C 0.02759(17) 0.32880(13) 0.21849(13)
C6 C -0.10219(18) 0.38717(15) 0.27166(14)
C7 C -0.20998(17) 0.29129(13) 0.17758(13)
C8 C -0.25922(18) 0.28564(14) 0.23552(14)
H1 H -0.2264 0.2896 0.2855
C9 C -0.34860(18) 0.27520(15) 0.23039(15)
H2 H -0.3840 0.2701 0.2763
C10 C -0.39403(18) 0.27116(14) 0.16647(15)
C11 C 0.17473(18) 0.37828(13) 0.20658(13)
C12 C -0.34511(18) 0.27905(15) 0.10786(14)
H3 H -0.3782 0.2783 0.0578
C13 C -0.25543(18) 0.28771(14) 0.11391(14)
H4 H -0.2195 0.2918 0.0682
C14 C -0.5293(2) 0.24363(18) 0.22137(17)
H5 H -0.5976 0.2328 0.2065
H6 H -0.5260 0.2865 0.2561
H7 H -0.4997 0.1998 0.2469
C15 C -0.5283(2) 0.26031(19) 0.09402(17)
H8 H -0.5159 0.3079 0.0686
H9 H -0.5984 0.2549 0.1001
H10 H -0.5054 0.2188 0.0632
C16 C -0.07742(18) 0.21808(15) 0.08869(14)
C17 C 0.10930(17) 0.25132(13) 0.13465(13)
C18 C 0.16552(18) 0.21378(14) 0.17857(14)
H11 H 0.1548 0.2129 0.2326
C19 C 0.23485(18) 0.17754(14) 0.15400(15)
H12 H 0.2769 0.1488 0.1891
C20 C 0.25099(18) 0.17777(15) 0.08439(15)
C21 C 0.19598(18) 0.21714(14) 0.04015(14)
H13 H 0.2083 0.2200 -0.0135
C22 C 0.12606(17) 0.25221(14) 0.06534(14)
H14 H 0.0836 0.2809 0.0304
C23 C 0.3690(2) 0.09488(18) 0.10404(19)
H15 H 0.4060 0.1241 0.1428
H16 H 0.4141 0.0661 0.0742
H17 H 0.3251 0.0605 0.1288
C24 C 0.3390(2) 0.14685(18) -0.01180(17)
H18 H 0.2879 0.1232 -0.0445
H19 H 0.4014 0.1223 -0.0193
H20 H 0.3436 0.2000 -0.0250
C25 C 0.09897(17) 0.36321(13) 0.24941(13)
C26 C 0.25749(18) 0.35836(14) 0.22824(14)
C27 C 0.27381(19) 0.31601(16) 0.28673(16)
C28 C 0.33535(19) 0.37988(15) 0.19592(15)
C29 C 0.15658(18) 0.42025(14) 0.14711(14)
C30 C 0.08978(18) 0.46950(14) 0.14895(14)
H21 H 0.0497 0.4711 0.1926
C31 C 0.07419(19) 0.51503(14) 0.09745(14)
H22 H 0.0251 0.5535 0.1024
C32 C 0.1220(2) 0.51204(14) 0.03757(14)
C33 C 0.18667(19) 0.46082(15) 0.03404(15)
H23 H 0.2230 0.4562 -0.0114
C34 C 0.20364(18) 0.41709(14) 0.08754(14)
H24 H 0.2542 0.3795 0.0837
C35 C 0.0433(2) 0.61076(16) -0.00872(17)
H25 H -0.0198 0.5905 0.0047
H26 H 0.0354 0.6377 -0.0571
H27 H 0.0678 0.6452 0.0312
C36 C 0.1518(2) 0.55005(17) -0.07823(16)
H28 H 0.2205 0.5631 -0.0680
H29 H 0.1226 0.5843 -0.1165
H30 H 0.1470 0.4985 -0.0972
C37 C 0.10178(17) 0.39098(14) 0.31694(13)
C38 C 0.15822(17) 0.44532(14) 0.33615(14)
H31 H 0.1989 0.4667 0.2983
C39 C 0.16304(18) 0.47154(14) 0.40049(13)
H32 H 0.2063 0.5134 0.4122
C40 C 0.11189(17) 0.44451(14) 0.45230(13)
C41 C 0.05535(17) 0.38973(14) 0.43429(13)
H33 H 0.0158 0.3677 0.4724
C42 C 0.05059(17) 0.36465(14) 0.36897(13)
H34 H 0.0064 0.3235 0.3568
C43 C 0.1805(2) 0.52278(15) 0.53499(15)
H35 H 0.2464 0.5063 0.5245
H36 H 0.1777 0.5341 0.5892
H37 H 0.1642 0.5678 0.5052
C44 C 0.06582(19) 0.44221(15) 0.57033(14)
H38 H -0.0021 0.4368 0.5512
H39 H 0.0691 0.4765 0.6138
H40 H 0.0916 0.3932 0.5862
C45 C 0.3682(2) 0.56087(19) 0.30093(18)
C46 C 0.3346(3) 0.60664(18) 0.34600(19)
H41 H 0.2964 0.6487 0.3262
C47 C 0.3491(2) 0.59931(19) 0.41608(18)
H42 H 0.3228 0.6357 0.4504
C48 C 0.3974(2) 0.5452(2) 0.4419(2)
H43 H 0.4091 0.5391 0.4964
C49 C 0.4305(2) 0.4991(2) 0.3972(2)
H44 H 0.4678 0.4566 0.4171
C50 C 0.4166(2) 0.50673(19) 0.3275(2)
H45 H 0.4435 0.4704 0.2934
C51 C 0.3540(3) 0.5696(2) 0.2244(2)
H46 H 0.2991 0.5384 0.2058
H47 H 0.4129 0.5544 0.1995
H48 H 0.3397 0.6223 0.2127
C52 C 0.3816(3) 0.4900(2) 0.8438(3)
C53 C 0.3986(3) 0.5128(3) 0.9068(4)
H49 H 0.4108 0.5660 0.9137
C54 C 0.4016(4) 0.4719(7) 0.9640(5)
H50 H 0.4127 0.4917 1.0151
C55 C 0.3890(5) 0.4014(7) 0.9511(6)
H51 H 0.3915 0.3657 0.9927
C56 C 0.3743(5) 0.3805(4) 0.8866(8)
H52 H 0.3653 0.3273 0.8772
C57 C 0.3701(3) 0.4232(3) 0.8325(5)
H53 H 0.3577 0.4043 0.7812
C58 C 0.3756(4) 0.5388(4) 0.7836(4)
H54 H 0.3823 0.5110 0.7362
H55 H 0.4278 0.5760 0.7896
H56 H 0.3123 0.5642 0.7819
C66 C 0.3335(4) 0.7034(2) 0.0755(3)
C67 C 0.4221(3) 0.7178(4) 0.0861(3)
H65 H 0.4698 0.6778 0.0853
C68 C 0.4493(3) 0.7838(5) 0.0977(4)
H66 H 0.5181 0.7951 0.1060
C69 C 0.3878(6) 0.8353(3) 0.0988(5)
H67 H 0.4090 0.8866 0.1078
C70 C 0.2992(5) 0.8209(3) 0.0881(4)
H68 H 0.2515 0.8609 0.0889
C71 C 0.2721(3) 0.7549(4) 0.0765(3)
H69 H 0.2032 0.7436 0.0683
C72 C 0.2972(8) 0.6373(5) 0.0643(6)
H70 H 0.3500 0.6004 0.0641
H71 H 0.2601 0.6361 0.0152
H72 H 0.2540 0.6252 0.1049
C73 C -0.0231(3) 0.37211(17) 0.77363(17)
C74 C -0.0078(3) 0.32219(16) 0.82227(17)
H73 H -0.0582 0.2859 0.8320
C75 C 0.0738(3) 0.31912(19) 0.8588(2)
H74 H 0.0855 0.2804 0.8969
C76 C 0.1387(3) 0.3646(2) 0.8468(2)
H75 H 0.2009 0.3621 0.8755
C77 C 0.1237(3) 0.4136(2) 0.7975(2)
H76 H 0.1749 0.4490 0.7872
C78 C 0.0436(3) 0.41759(18) 0.76124(18)
H77 H 0.0327 0.4563 0.7230
C79 C -0.1102(3) 0.37919(19) 0.73727(19)
H78 H -0.1457 0.3317 0.7398
H79 H -0.1018 0.3923 0.6840
H80 H -0.1471 0.4188 0.7613
C59? C 0.3052(5) 0.7311(4) 0.0796(5)
C60? C 0.3922(6) 0.7107(2) 0.0838(4)
H57? H 0.4084 0.6581 0.0785
C61? C 0.4585(4) 0.7579(3) 0.0949(4)
H58? H 0.5261 0.7421 0.0982
C62? C 0.4377(3) 0.8256(3) 0.1018(3)
H59? H 0.4892 0.8624 0.1104
C63? C 0.3506(4) 0.8461(3) 0.0976(4)
H60? H 0.3345 0.8987 0.1029
C64? C 0.2844(3) 0.7988(5) 0.0865(4)
H61? H 0.2168 0.8146 0.0832
C65? C 0.2356(7) 0.6929(6) 0.0733(6)
H62? H 0.2554 0.6407 0.0670
H63? H 0.1951 0.7088 0.0288
H64? H 0.1984 0.6975 0.1189
loop_
_geom_bond_atom_site_label_1
_geom_bond_atom_site_label_2
_geom_bond_site_symmetry_1
_geom_bond_site_symmetry_2
N1 C6 1_555 1_555
N2 C10 1_555 1_555
N3 C16 1_555 1_555
N4 C20 1_555 1_555
N5 C27 1_555 1_555
N6 C28 1_555 1_555
N7 C32 1_555 1_555
N8 C40 1_555 1_555
C1 C2 1_555 1_555
C2 C3 1_555 1_555
C3 C4 1_555 1_555
C4 C5 1_555 1_555
C5 C1 1_555 1_555
C6 C1 1_555 1_555
C7 C2 1_555 1_555
C8 C7 1_555 1_555
H1 C8 1_555 1_555
C9 C8 1_555 1_555
H2 C9 1_555 1_555
C10 C9 1_555 1_555
C11 C25 1_555 1_555
C12 C10 1_555 1_555
H3 C12 1_555 1_555
C13 C7 1_555 1_555
H4 C13 1_555 1_555
C14 N2 1_555 1_555
H5 C14 1_555 1_555
H6 C14 1_555 1_555
H7 C14 1_555 1_555
C15 N2 1_555 1_555
H8 C15 1_555 1_555
H9 C15 1_555 1_555
H10 C15 1_555 1_555
C16 C3 1_555 1_555
C17 C4 1_555 1_555
C18 C17 1_555 1_555
H11 C18 1_555 1_555
C19 C18 1_555 1_555
H12 C19 1_555 1_555
C20 C19 1_555 1_555
C21 C20 1_555 1_555
H13 C21 1_555 1_555
C22 C17 1_555 1_555
H14 C22 1_555 1_555
C23 N4 1_555 1_555
H15 C23 1_555 1_555
H16 C23 1_555 1_555
H17 C23 1_555 1_555
C24 N4 1_555 1_555
H18 C24 1_555 1_555
H19 C24 1_555 1_555
H20 C24 1_555 1_555
C25 C5 1_555 1_555
C26 C11 1_555 1_555
C27 C26 1_555 1_555
C28 C26 1_555 1_555
C29 C11 1_555 1_555
C30 C29 1_555 1_555
H21 C30 1_555 1_555
C31 C30 1_555 1_555
H22 C31 1_555 1_555
C32 C31 1_555 1_555
C33 C32 1_555 1_555
H23 C33 1_555 1_555
C34 C29 1_555 1_555
H24 C34 1_555 1_555
C35 N7 1_555 1_555
H25 C35 1_555 1_555
H26 C35 1_555 1_555
H27 C35 1_555 1_555
C36 N7 1_555 1_555
H28 C36 1_555 1_555
H29 C36 1_555 1_555
H30 C36 1_555 1_555
C37 C25 1_555 1_555
C38 C37 1_555 1_555
H31 C38 1_555 1_555
C39 C38 1_555 1_555
H32 C39 1_555 1_555
C40 C39 1_555 1_555
C41 C40 1_555 1_555
H33 C41 1_555 1_555
C42 C37 1_555 1_555
H34 C42 1_555 1_555
C43 N8 1_555 1_555
H35 C43 1_555 1_555
H36 C43 1_555 1_555
H37 C43 1_555 1_555
C44 N8 1_555 1_555
H38 C44 1_555 1_555
H39 C44 1_555 1_555
H40 C44 1_555 1_555
C45 C46 1_555 1_555
C46 H41 1_555 1_555
C47 C46 1_555 1_555
H42 C47 1_555 1_555
C48 C47 1_555 1_555
H43 C48 1_555 1_555
C49 C48 1_555 1_555
H44 C49 1_555 1_555
C50 C45 1_555 1_555
H45 C50 1_555 1_555
C51 C45 1_555 1_555
H46 C51 1_555 1_555
H47 C51 1_555 1_555
H48 C51 1_555 1_555
C52 C53 1_555 1_555
C53 H49 1_555 1_555
C54 C53 1_555 1_555
H50 C54 1_555 1_555
C55 C54 1_555 1_555
H51 C55 1_555 1_555
C56 C55 1_555 1_555
H52 C56 1_555 1_555
C57 C52 1_555 1_555
H53 C57 1_555 1_555
C58 C52 1_555 1_555
H54 C58 1_555 1_555
H55 C58 1_555 1_555
H56 C58 1_555 1_555
C66 C67 1_555 1_555
C67 H65 1_555 1_555
C68 C67 1_555 1_555
H66 C68 1_555 1_555
C69 C68 1_555 1_555
H67 C69 1_555 1_555
C70 C69 1_555 1_555
H68 C70 1_555 1_555
C71 C66 1_555 1_555
H69 C71 1_555 1_555
C72 C66 1_555 1_555
H70 C72 1_555 1_555
H71 C72 1_555 1_555
H72 C72 1_555 1_555
C73 C74 1_555 1_555
C74 H73 1_555 1_555
C75 C74 1_555 1_555
H74 C75 1_555 1_555
C76 C75 1_555 1_555
H75 C76 1_555 1_555
C77 C76 1_555 1_555
H76 C77 1_555 1_555
C78 C73 1_555 1_555
H77 C78 1_555 1_555
C79 C73 1_555 1_555
H78 C79 1_555 1_555
H79 C79 1_555 1_555
H80 C79 1_555 1_555
C12 C13 1_555 1_555
C21 C22 1_555 1_555
C33 C34 1_555 1_555
C41 C42 1_555 1_555
C49 C50 1_555 1_555
C56 C57 1_555 1_555
C70 C71 1_555 1_555
C77 C78 1_555 1_555

#END
