
#######################################################################
#
#                 Cambridge Crystallographic Data Centre
#                                CCDC 
#
#######################################################################
#
# If this CIF has been generated from an entry in the Cambridge 
# Structural Database, then it will include bibliographic, chemical, 
# crystal, experimental, refinement or atomic coordinate data resulting 
# from the CCDC's data processing and validation procedures.
#
#######################################################################

data_TIWFIQ
_chemical_formula_moiety         'C46 H42 N8,C1 H2 Cl2'
_chemical_name_systematic        
'2,3,4a,6-tetrakis(4-(Dimethylamino)phenyl)-2aH-cyclobuta[c]pentalene-2a,4,7,7(4aH)-tetracarbonitrile dichloromethane solvate'
_symmetry_cell_setting           triclinic
_symmetry_space_group_name_H-M   'P -1'
_symmetry_Int_Tables_number      2
_space_group_name_Hall           '-P 1'
loop_
_symmetry_equiv_pos_site_id
_symmetry_equiv_pos_as_xyz
1 x,y,z
2 -x,-y,-z
_cell_length_a                   10.6434(6)
_cell_length_b                   13.6284(8)
_cell_length_c                   14.4880(9)
_cell_angle_alpha                79.959(3)
_cell_angle_beta                 84.754(3)
_cell_angle_gamma                88.332(3)
_cell_volume                     2060.48
_exptl_crystal_colour            bronze
_exptl_crystal_description       rod
_cell_formula_units_Z            2
loop_
_atom_site_label
_atom_site_type_symbol
_atom_site_fract_x
_atom_site_fract_y
_atom_site_fract_z
Cl1 Cl 1.31538(6) 0.53313(5) 0.84511(5)
Cl2 Cl 1.45958(8) 0.59877(4) 0.66804(4)
C1 C 1.4292(2) 0.50001(15) 0.76145(15)
H1 H 1.5045(19) 0.4844(14) 0.7911(14)
H2 H 1.395(2) 0.4469(18) 0.7374(16)
N1 N 0.59045(13) 0.35221(11) 0.91295(10)
N2 N 0.67141(17) 0.06252(12) 1.37382(11)
N3 N 0.59622(12) -0.13863(10) 1.01908(10)
N4 N 0.96033(13) -0.25273(10) 0.65850(10)
N5 N 0.16253(13) 0.41835(11) 0.59432(10)
N6 N 0.71933(15) 0.40642(12) 0.69494(11)
N7 N 0.82856(14) 0.16171(12) 0.56805(11)
N8 N 1.19699(13) 0.40755(12) 1.09420(11)
C2 C 0.74029(14) 0.19865(11) 0.90208(11)
C3 C 0.70270(13) 0.10779(11) 0.97580(11)
C4 C 0.68073(13) 0.03105(12) 0.93300(11)
C5 C 0.69396(14) 0.05306(11) 0.82643(11)
C6 C 0.76196(14) 0.15573(11) 0.80685(11)
C7 C 0.89944(15) 0.16950(12) 0.81492(12)
H3 H 0.9675(15) 0.1522(12) 0.7778(12)
C8 C 0.88345(14) 0.21435(11) 0.89096(11)
C9 C 0.65512(14) 0.28492(12) 0.90763(11)
C10 C 0.70008(14) 0.10336(12) 1.07786(11)
C11 C 0.76535(15) 0.02675(12) 1.13127(12)
H4 H 0.8137(15) -0.0166(13) 1.0980(12)
C12 C 0.75889(16) 0.01404(13) 1.22793(13)
H5 H 0.8041(16) -0.0420(13) 1.2618(12)
C13 C 0.68389(16) 0.07788(13) 1.27733(12)
C14 C 0.62198(16) 0.15752(13) 1.22321(12)
H6 H 0.5737(17) 0.2034(13) 1.2523(13)
C15 C 0.63044(15) 0.16975(13) 1.12649(12)
H7 H 0.5859(14) 0.2243(12) 1.0906(11)
C16 C 0.7432(3) -0.01639(17) 1.42680(16)
H8 H 0.7201(18) -0.0818(15) 1.4105(14)
H9 H 0.837(2) -0.0106(15) 1.4097(14)
H10 H 0.726(2) -0.0099(17) 1.4914(18)
C17 C 0.59230(19) 0.12688(17) 1.42398(15)
H11 H 0.5863(18) 0.1004(15) 1.4914(16)
H12 H 0.6243(19) 0.1935(17) 1.4173(15)
H13 H 0.503(2) 0.1345(16) 1.4034(16)
C18 C 0.63759(14) -0.06386(12) 0.98190(11)
C19 C 0.76236(14) -0.02928(11) 0.78269(11)
C20 C 0.87795(15) -0.06658(12) 0.81194(12)
H14 H 0.9099(16) -0.0433(12) 0.8628(12)
C21 C 0.94417(15) -0.13889(12) 0.77119(12)
H15 H 1.0241(16) -0.1637(12) 0.7941(12)
C22 C 0.89467(15) -0.17980(12) 0.69999(12)
C23 C 0.77673(16) -0.14460(13) 0.67295(13)
H16 H 0.7405(16) -0.1712(13) 0.6247(13)
C24 C 0.71252(15) -0.07101(12) 0.71358(12)
H17 H 0.6319(17) -0.0473(13) 0.6931(12)
C25 C 1.09410(17) -0.26699(16) 0.66982(16)
H18 H 1.1252(18) -0.3205(15) 0.6358(14)
H19 H 1.1114(19) -0.2887(15) 0.7343(16)
H20 H 1.1422(19) -0.2064(16) 0.6430(14)
C26 C 0.9155(2) -0.27794(17) 0.57427(15)
H21 H 0.835(2) -0.3110(17) 0.5937(17)
H22 H 0.973(2) -0.3308(16) 0.5538(14)
H23 H 0.908(2) -0.2147(18) 0.5181(17)
C27 C 0.56793(14) 0.08406(12) 0.78847(11)
H24 H 0.4960(16) 0.0420(12) 0.8044(12)
C28 C 0.56833(14) 0.17163(12) 0.73210(11)
C29 C 0.70346(14) 0.21238(12) 0.71771(11)
C30 C 0.46302(14) 0.23046(12) 0.69058(11)
C31 C 0.34674(15) 0.23094(13) 0.74378(13)
H25 H 0.3370(15) 0.1923(13) 0.8049(13)
C32 C 0.24792(16) 0.29110(13) 0.71134(13)
H26 H 0.1717(16) 0.2931(12) 0.7534(12)
C33 C 0.26016(15) 0.35443(12) 0.62421(12)
C34 C 0.37600(16) 0.35230(13) 0.56924(13)
H27 H 0.3858(15) 0.3934(13) 0.5083(13)
C35 C 0.47427(16) 0.29180(13) 0.60280(12)
H28 H 0.5507(16) 0.2945(12) 0.5645(13)
C36 C 0.06121(19) 0.43580(19) 0.66441(16)
H29 H 0.0012(19) 0.4853(16) 0.6358(14)
H30 H 0.099(2) 0.4665(17) 0.7237(18)
H31 H 0.018(2) 0.3753(18) 0.6847(17)
C37 C 0.19171(19) 0.49998(15) 0.51751(15)
H32 H 0.1138(16) 0.5403(13) 0.5043(12)
H33 H 0.2220(17) 0.4745(13) 0.4595(14)
H34 H 0.2557(19) 0.5458(15) 0.5333(14)
C38 C 0.71157(15) 0.32165(13) 0.70610(11)
C39 C 0.77404(15) 0.18338(12) 0.63298(12)
C40 C 0.96112(14) 0.25864(11) 0.94844(11)
C41 C 0.91138(15) 0.32082(12) 1.01006(12)
H35 H 0.8216(17) 0.3328(13) 1.0162(12)
C42 C 0.98765(15) 0.36940(13) 1.05846(13)
H36 H 0.9494(16) 0.4085(13) 1.1009(13)
C43 C 1.11974(15) 0.35776(12) 1.04793(12)
C44 C 1.16954(15) 0.29335(12) 0.98792(12)
H37 H 1.2591(17) 0.2847(12) 0.9780(12)
C45 C 1.09228(14) 0.24548(12) 0.94037(12)
H38 H 1.1304(15) 0.2028(12) 0.8995(12)
C46 C 1.1432(2) 0.46154(16) 1.16586(15)
H39 H 1.0819(19) 0.5122(15) 1.1418(14)
H40 H 1.211(2) 0.4946(15) 1.1881(14)
H41 H 1.1002(19) 0.4143(16) 1.2216(15)
C47 C 1.32928(19) 0.3786(2) 1.0964(2)
H42 H 1.336(2) 0.3106(19) 1.1350(17)
H43 H 1.380(2) 0.3832(18) 1.028(2)
H44 H 1.371(2) 0.4251(19) 1.1258(18)
loop_
_geom_bond_atom_site_label_1
_geom_bond_atom_site_label_2
_geom_bond_site_symmetry_1
_geom_bond_site_symmetry_2
Cl1 C1 1_555 1_555
Cl2 C1 1_555 1_555
C1 H1 1_555 1_555
H2 C1 1_555 1_555
N1 C9 1_555 1_555
N2 C13 1_555 1_555
N3 C18 1_555 1_555
N4 C22 1_555 1_555
N5 C33 1_555 1_555
N6 C38 1_555 1_555
N7 C39 1_555 1_555
N8 C43 1_555 1_555
C2 C3 1_555 1_555
C3 C4 1_555 1_555
C4 C5 1_555 1_555
C5 C6 1_555 1_555
C6 C2 1_555 1_555
C7 C6 1_555 1_555
H3 C7 1_555 1_555
C8 C2 1_555 1_555
C9 C2 1_555 1_555
C10 C3 1_555 1_555
C11 C10 1_555 1_555
H4 C11 1_555 1_555
C12 C11 1_555 1_555
H5 C12 1_555 1_555
C13 C12 1_555 1_555
C14 C13 1_555 1_555
H6 C14 1_555 1_555
C15 C10 1_555 1_555
H7 C15 1_555 1_555
C16 N2 1_555 1_555
H8 C16 1_555 1_555
H9 C16 1_555 1_555
H10 C16 1_555 1_555
C17 N2 1_555 1_555
H11 C17 1_555 1_555
H12 C17 1_555 1_555
H13 C17 1_555 1_555
C18 C4 1_555 1_555
C19 C5 1_555 1_555
C20 C19 1_555 1_555
H14 C20 1_555 1_555
C21 C20 1_555 1_555
H15 C21 1_555 1_555
C22 C21 1_555 1_555
C23 C22 1_555 1_555
H16 C23 1_555 1_555
C24 C19 1_555 1_555
H17 C24 1_555 1_555
C25 N4 1_555 1_555
H18 C25 1_555 1_555
H19 C25 1_555 1_555
H20 C25 1_555 1_555
C26 N4 1_555 1_555
H21 C26 1_555 1_555
H22 C26 1_555 1_555
H23 C26 1_555 1_555
C27 C5 1_555 1_555
H24 C27 1_555 1_555
C28 C27 1_555 1_555
C29 C6 1_555 1_555
C30 C28 1_555 1_555
C31 C30 1_555 1_555
H25 C31 1_555 1_555
C32 C31 1_555 1_555
H26 C32 1_555 1_555
C33 C32 1_555 1_555
C34 C33 1_555 1_555
H27 C34 1_555 1_555
C35 C30 1_555 1_555
H28 C35 1_555 1_555
C36 N5 1_555 1_555
H29 C36 1_555 1_555
H30 C36 1_555 1_555
H31 C36 1_555 1_555
C37 N5 1_555 1_555
H32 C37 1_555 1_555
H33 C37 1_555 1_555
H34 C37 1_555 1_555
C38 C29 1_555 1_555
C39 C29 1_555 1_555
C40 C8 1_555 1_555
C41 C40 1_555 1_555
H35 C41 1_555 1_555
C42 C41 1_555 1_555
H36 C42 1_555 1_555
C43 C42 1_555 1_555
C44 C43 1_555 1_555
H37 C44 1_555 1_555
C45 C40 1_555 1_555
H38 C45 1_555 1_555
C46 N8 1_555 1_555
H39 C46 1_555 1_555
H40 C46 1_555 1_555
H41 C46 1_555 1_555
C47 N8 1_555 1_555
H42 C47 1_555 1_555
H43 C47 1_555 1_555
H44 C47 1_555 1_555
C7 C8 1_555 1_555
C14 C15 1_555 1_555
C23 C24 1_555 1_555
C28 C29 1_555 1_555
C34 C35 1_555 1_555
C44 C45 1_555 1_555

#END
