
#######################################################################
#
#                 Cambridge Crystallographic Data Centre
#                                CCDC 
#
#######################################################################
#
# If this CIF has been generated from an entry in the Cambridge 
# Structural Database, then it will include bibliographic, chemical, 
# crystal, experimental, refinement or atomic coordinate data resulting 
# from the CCDC's data processing and validation procedures.
#
#######################################################################

data_TIWFOU
_chemical_formula_moiety         'C31 H36 N2 O1 S3,2(C1 H4 O1),0.5(H2 O1)'
_chemical_name_systematic        
'N-((2-Triphenylmethylthio)ethanoyl)-2,2,5,5-tetramethyl-3,4-dithia-7,1-diazabicyclo(5.3.0)-decane methanol solvate hemihydrate'
_symmetry_cell_setting           triclinic
_symmetry_space_group_name_H-M   'P -1'
_symmetry_Int_Tables_number      2
_space_group_name_Hall           '-P 1'
loop_
_symmetry_equiv_pos_site_id
_symmetry_equiv_pos_as_xyz
1 x,y,z
2 -x,-y,-z
_cell_length_a                   11.125(2)
_cell_length_b                   11.986(2)
_cell_length_c                   13.562(3)
_cell_angle_alpha                103.54(3)
_cell_angle_beta                 90.29(3)
_cell_angle_gamma                107.11(3)
_cell_volume                     1675.01
_exptl_crystal_colour            colorless
_chemical_melting_point          '166-168 deg.C'
_cell_formula_units_Z            2
loop_
_atom_site_label
_atom_site_type_symbol
_atom_site_fract_x
_atom_site_fract_y
_atom_site_fract_z
C1 C 0.0674(5) 0.8219(5) 1.1185(4)
C2 C 0.1881(6) 0.7955(6) 1.1525(5)
S1 S 0.1694(2) 0.7657(2) 1.2811(1)
S2 S 0.0419(2) 0.6010(2) 1.2612(1)
C3 C -0.1129(6) 0.6274(6) 1.2598(5)
C4 C -0.1109(6) 0.7259(5) 1.2046(4)
N1 N -0.0432(4) 0.7191(4) 1.1136(4)
C5 C -0.1180(6) 0.6960(5) 1.0190(4)
C6 C -0.0193(6) 0.7296(5) 0.9452(4)
N2 N 0.0724(4) 0.8359(4) 1.0126(3)
C7 C 0.3053(6) 0.9103(6) 1.1737(5)
C8 C 0.2134(6) 0.6911(6) 1.0786(5)
C9 C -0.1493(7) 0.6674(6) 1.3690(5)
C10 C -0.2027(7) 0.5040(6) 1.2018(5)
C11 C 0.1205(6) 0.9458(6) 0.9934(5)
O1 O 0.1682(4) 1.0377(4) 1.0607(3)
C12 C 0.1195(5) 0.9485(5) 0.8819(4)
S3 S 0.2222(2) 0.8631(2) 0.8214(1)
C13 C 0.2105(5) 0.8701(5) 0.6858(4)
C14 C 0.2994(6) 0.9868(6) 0.6663(5)
C15 C 0.3244(6) 0.9876(6) 0.5648(5)
C16 C 0.4024(8) 1.0921(8) 0.5441(6)
C17 C 0.4566(7) 1.1927(8) 0.6206(8)
C18 C 0.4299(7) 1.1925(7) 0.7206(7)
C19 C 0.3519(6) 1.0889(6) 0.7435(6)
C20 C 0.0740(6) 0.8531(5) 0.6558(4)
C21 C -0.0185(6) 0.7505(6) 0.6675(5)
C22 C -0.1455(7) 0.7378(6) 0.6506(5)
C23 C -0.1825(6) 0.8277(7) 0.6220(5)
C24 C -0.0918(6) 0.9280(6) 0.6087(5)
C25 C 0.0363(6) 0.9413(5) 0.6266(4)
C26 C 0.2581(6) 0.7649(5) 0.6288(5)
C27 C 0.3739(6) 0.7588(6) 0.6622(5)
C28 C 0.4202(7) 0.6685(7) 0.6127(6)
C29 C 0.3549(8) 0.5857(7) 0.5255(6)
C30 C 0.2437(8) 0.5942(6) 0.4896(5)
C31 C 0.1941(6) 0.6830(6) 0.5426(5)
H1 H 0.058 0.893 1.164
H2 H -0.072 0.803 1.251
H3 H -0.196 0.722 1.187
H4 H -0.166 0.612 0.997
H5 H -0.175 0.744 1.026
H6 H -0.054 0.752 0.890
H7 H 0.017 0.666 0.918
H8 H 0.377 0.895 1.200
H9 H 0.286 0.974 1.222
H10 H 0.324 0.934 1.111
H11 H 0.144 0.620 1.073
H12 H 0.289 0.679 1.102
H13 H 0.223 0.709 1.013
H14 H -0.086 0.740 1.403
H15 H -0.152 0.606 1.404
H16 H -0.230 0.681 1.369
H17 H -0.201 0.444 1.238
H18 H -0.176 0.482 1.135
H19 H -0.287 0.509 1.197
H20 H 0.151 1.030 0.876
H21 H 0.035 0.914 0.850
H22 H 0.288 0.917 0.511
H23 H 0.420 1.093 0.474
H24 H 0.510 1.266 0.607
H25 H 0.467 1.263 0.776
H26 H 0.335 1.087 0.813
H27 H 0.006 0.687 0.688
H28 H -0.210 0.665 0.659
H29 H -0.271 0.817 0.609
H30 H -0.117 0.991 0.589
H31 H 0.098 1.013 0.618
H32 H 0.419 0.816 0.724
H33 H 0.502 0.664 0.637
H34 H 0.390 0.523 0.489
H35 H 0.196 0.534 0.429
H36 H 0.113 0.686 0.516
C32 C 0.4860 0.1952 0.0557
O2 O 0.3879 0.2259 0.1110
O3 O 0.4132 0.4283 0.2358
O4 O 0.4683(22) 0.4037(17) -0.0110(17)
O5? O 0.3741 0.2194 0.0346
O6? O 0.3976 0.2163 0.1424
C33? C 0.3508 0.4894 0.2124
O7? O 0.4349 0.4638 0.1173
loop_
_geom_bond_atom_site_label_1
_geom_bond_atom_site_label_2
_geom_bond_site_symmetry_1
_geom_bond_site_symmetry_2
C1 C2 1_555 1_555
C2 S1 1_555 1_555
S1 S2 1_555 1_555
S2 C3 1_555 1_555
C3 C4 1_555 1_555
C4 N1 1_555 1_555
N1 C1 1_555 1_555
C5 N1 1_555 1_555
C6 C5 1_555 1_555
N2 C1 1_555 1_555
C7 C2 1_555 1_555
C8 C2 1_555 1_555
C9 C3 1_555 1_555
C10 C3 1_555 1_555
C11 N2 1_555 1_555
O1 C11 1_555 1_555
C12 C11 1_555 1_555
S3 C12 1_555 1_555
C13 S3 1_555 1_555
C14 C13 1_555 1_555
C15 C14 1_555 1_555
C16 C15 1_555 1_555
C17 C16 1_555 1_555
C18 C17 1_555 1_555
C19 C14 1_555 1_555
C20 C13 1_555 1_555
C21 C20 1_555 1_555
C22 C21 1_555 1_555
C23 C22 1_555 1_555
C24 C23 1_555 1_555
C25 C20 1_555 1_555
C26 C13 1_555 1_555
C27 C26 1_555 1_555
C28 C27 1_555 1_555
C29 C28 1_555 1_555
C30 C29 1_555 1_555
C31 C26 1_555 1_555
H1 C1 1_555 1_555
H2 C4 1_555 1_555
H3 C4 1_555 1_555
H4 C5 1_555 1_555
H5 C5 1_555 1_555
H6 C6 1_555 1_555
H7 C6 1_555 1_555
H8 C7 1_555 1_555
H9 C7 1_555 1_555
H10 C7 1_555 1_555
H11 C8 1_555 1_555
H12 C8 1_555 1_555
H13 C8 1_555 1_555
H14 C9 1_555 1_555
H15 C9 1_555 1_555
H16 C9 1_555 1_555
H17 C10 1_555 1_555
H18 C10 1_555 1_555
H19 C10 1_555 1_555
H20 C12 1_555 1_555
H21 C12 1_555 1_555
H22 C15 1_555 1_555
H23 C16 1_555 1_555
H24 C17 1_555 1_555
H25 C18 1_555 1_555
H26 C19 1_555 1_555
H27 C21 1_555 1_555
H28 C22 1_555 1_555
H29 C23 1_555 1_555
H30 C24 1_555 1_555
H31 C25 1_555 1_555
H32 C27 1_555 1_555
H33 C28 1_555 1_555
H34 C29 1_555 1_555
H35 C30 1_555 1_555
H36 C31 1_555 1_555
C32 O2 1_555 1_555
C6 N2 1_555 1_555
C18 C19 1_555 1_555
C24 C25 1_555 1_555
C30 C31 1_555 1_555

#END
