
#######################################################################
#
#                 Cambridge Crystallographic Data Centre
#                                CCDC 
#
#######################################################################
#
# If this CIF has been generated from an entry in the Cambridge 
# Structural Database, then it will include bibliographic, chemical, 
# crystal, experimental, refinement or atomic coordinate data resulting 
# from the CCDC's data processing and validation procedures.
#
#######################################################################

data_TIWGOX
_chemical_formula_moiety         'C21 H15 I2 N1 O3,C1 H4 O1,H2 O1'
_chemical_name_systematic        
'3-(bis(4-iodophenyl)methyl)-2,3-dihydroxyisoindolin-1-one methanol monohydrate'
_symmetry_cell_setting           monoclinic
_symmetry_space_group_name_H-M   'P 21/c'
_symmetry_Int_Tables_number      14
_space_group_name_Hall           '-P 2ybc'
loop_
_symmetry_equiv_pos_site_id
_symmetry_equiv_pos_as_xyz
1 x,y,z
2 -x,1/2+y,1/2-z
3 -x,-y,-z
4 x,1/2-y,1/2+z
_cell_length_a                   17.481(5)
_cell_length_b                   9.723(3)
_cell_length_c                   13.513(4)
_cell_angle_alpha                90
_cell_angle_beta                 93.130(4)
_cell_angle_gamma                90
_cell_volume                     2293.35
_cell_formula_units_Z            4
loop_
_atom_site_label
_atom_site_type_symbol
_atom_site_fract_x
_atom_site_fract_y
_atom_site_fract_z
I1 I 0.01364(2) 0.14933(5) 0.72853(3)
I2 I 0.10818(2) -0.11163(5) -0.02020(3)
O1 O 0.3731(2) 0.0492(4) 0.5125(2)
O2 O 0.3968(2) -0.1155(3) 0.3279(3)
O3 O 0.4398(2) 0.0911(3) 0.1985(2)
N1 N 0.3878(2) 0.0246(4) 0.3418(3)
C1 C 0.2614(3) -0.0074(5) 0.4137(3)
C2 C 0.2039(3) 0.0419(4) 0.4879(3)
C3 C 0.2078(3) 0.0820(5) 0.2458(3)
H1 H 0.2165 0.1719 0.2671
C4 C 0.3357(3) 0.2249(5) 0.3922(3)
C5 C 0.3382(3) 0.0745(4) 0.4193(3)
C6 C 0.3756(3) 0.2481(4) 0.3080(3)
C7 C 0.4056(3) 0.1174(5) 0.2730(3)
C8 C 0.2272(2) -0.0261(5) 0.3088(3)
C9 C 0.1323(3) 0.0918(5) 0.4582(4)
H2 H 0.1198 0.1043 0.3910
C10 C 0.2203(3) 0.0281(5) 0.5893(3)
H3 H 0.2683 -0.0036 0.6118
C11 C 0.1757(3) 0.0587(5) 0.1523(3)
H4 H 0.1641 0.1325 0.1103
C12 C 0.3853(3) 0.3786(5) 0.2723(4)
H5 H 0.4123 0.3935 0.2158
C13 C 0.3051(3) 0.3341(5) 0.4431(4)
H6 H 0.2794 0.3196 0.5006
C14 C 0.0956(3) 0.1064(5) 0.6253(3)
C15 C 0.2123(3) -0.1579(5) 0.2753(4)
H7 H 0.2247 -0.2319 0.3167
C16 C 0.1795(3) -0.1826(5) 0.1820(4)
H8 H 0.1700 -0.2723 0.1608
C17 C 0.1672(3) 0.0600(5) 0.6573(3)
H9 H 0.1796 0.0504 0.7247
C18 C 0.3540(3) 0.4875(5) 0.3216(4)
H10 H 0.3598 0.5767 0.2982
C19 C 0.3140(3) 0.4646(5) 0.4059(4)
H11 H 0.2928 0.5388 0.4380
C20 C 0.1608(3) -0.0737(5) 0.1205(3)
C21 C 0.0791(3) 0.1234(5) 0.5260(4)
H12 H 0.0313 0.1567 0.5040
H13 H 0.275(2) -0.099(4) 0.437(3)
H14 H 0.436(3) -0.146(5) 0.373(4)
H15 H 0.407(3) 0.105(5) 0.529(4)
O4 O 0.50919(17) -0.2683(3) -0.0606(2)
O5 O 0.4436(3) -0.1581(6) 0.0931(4)
H16 H 0.4610 -0.1848 0.0413
C22 C 0.3784(5) -0.2209(9) 0.1062(6)
H17 H 0.3471 -0.1640 0.1456
H18 H 0.3882 -0.3068 0.1395
H19 H 0.3523 -0.2376 0.0430
loop_
_geom_bond_atom_site_label_1
_geom_bond_atom_site_label_2
_geom_bond_site_symmetry_1
_geom_bond_site_symmetry_2
I1 C14 1_555 1_555
I2 C20 1_555 1_555
O1 C5 1_555 1_555
O2 N1 1_555 1_555
O3 C7 1_555 1_555
N1 C5 1_555 1_555
C1 C2 1_555 1_555
C2 C9 1_555 1_555
C3 H1 1_555 1_555
C4 C5 1_555 1_555
C5 C1 1_555 1_555
C6 C4 1_555 1_555
C7 N1 1_555 1_555
C8 C1 1_555 1_555
C9 H2 1_555 1_555
C10 C2 1_555 1_555
H3 C10 1_555 1_555
C11 C3 1_555 1_555
H4 C11 1_555 1_555
C12 C6 1_555 1_555
H5 C12 1_555 1_555
C13 C4 1_555 1_555
H6 C13 1_555 1_555
C14 C17 1_555 1_555
C15 C8 1_555 1_555
H7 C15 1_555 1_555
C16 C15 1_555 1_555
H8 C16 1_555 1_555
C17 C10 1_555 1_555
H9 C17 1_555 1_555
C18 C12 1_555 1_555
H10 C18 1_555 1_555
C19 C13 1_555 1_555
H11 C19 1_555 1_555
C20 C11 1_555 1_555
C21 C9 1_555 1_555
H12 C21 1_555 1_555
H13 C1 1_555 1_555
H14 O2 1_555 1_555
H15 O1 1_555 1_555
O5 H16 1_555 1_555
C22 O5 1_555 1_555
H17 C22 1_555 1_555
H18 C22 1_555 1_555
H19 C22 1_555 1_555
C3 C8 1_555 1_555
C6 C7 1_555 1_555
C14 C21 1_555 1_555
C16 C20 1_555 1_555
C18 C19 1_555 1_555

#END
