
#######################################################################
#
#                 Cambridge Crystallographic Data Centre
#                                CCDC 
#
#######################################################################
#
# If this CIF has been generated from an entry in the Cambridge 
# Structural Database, then it will include bibliographic, chemical, 
# crystal, experimental, refinement or atomic coordinate data resulting 
# from the CCDC's data processing and validation procedures.
#
#######################################################################

data_TIWGUD
_chemical_formula_moiety         'C19 H13 Cl1 N2 O4'
_chemical_name_systematic        
8-Chloro-4b-hydroxy-9b-(5-hydroxy-3-methyl-1H-pyrazol-4-yl)-4b,9b-dihydro-10H-benzo[b]indeno[2,1-d]furan-10-one
_symmetry_cell_setting           monoclinic
_symmetry_space_group_name_H-M   'P 21/n'
_symmetry_Int_Tables_number      14
_space_group_name_Hall           '-P 2yn'
loop_
_symmetry_equiv_pos_site_id
_symmetry_equiv_pos_as_xyz
1 x,y,z
2 1/2-x,1/2+y,1/2-z
3 -x,-y,-z
4 1/2+x,1/2-y,1/2+z
_cell_length_a                   14.1938(11)
_cell_length_b                   8.1555(6)
_cell_length_c                   16.2531(12)
_cell_angle_alpha                90
_cell_angle_beta                 112.701(2)
_cell_angle_gamma                90
_cell_volume                     1735.67
_exptl_crystal_colour            white
_exptl_crystal_description       needle
_cell_formula_units_Z            4
loop_
_atom_site_label
_atom_site_type_symbol
_atom_site_fract_x
_atom_site_fract_y
_atom_site_fract_z
Cl1 Cl 0.88393(9) 0.37125(18) 0.47010(6)
O1 O 0.79950(12) 0.5312(2) 0.09899(12)
C1 C 0.88981(15) 0.4691(2) 0.08620(14)
O2 O 1.07577(11) 0.1912(2) 0.23863(12)
O3 O 0.92093(13) 0.58184(19) 0.04006(10)
H1 H 0.8935 0.5626 -0.0135
O4 O 1.16497(11) 0.42915(19) 0.13901(10)
H2 H 1.2252 0.4017 0.1607
C2 C 1.14760(15) 0.5327(3) 0.18984(13)
C3 C 0.7611(3) 0.4818(5) 0.3072(3)
H3 H 0.7128 0.4973 0.3321
C4 C 0.7365(2) 0.5180(4) 0.2187(2)
H4 H 0.6718 0.5558 0.1830
C5 C 0.81098(18) 0.4966(3) 0.18420(18)
C6 C 0.86577(15) 0.3000(2) 0.04456(14)
C7 C 0.78655(19) 0.2553(3) -0.03389(15)
H5 H 0.7388 0.3320 -0.0677
C8 C 0.7804(2) 0.0925(3) -0.06050(17)
H6 H 0.7281 0.0604 -0.1133
C9 C 0.8504(2) -0.0226(3) -0.01041(19)
H7 H 0.8452 -0.1304 -0.0304
C10 C 0.8569(3) 0.4226(4) 0.3595(2)
C11 C 0.9321(2) 0.4004(3) 0.32553(17)
H8 H 0.9965 0.3606 0.3609
C12 C 0.90735(16) 0.4399(3) 0.23694(15)
C13 C 0.97285(14) 0.4374(2) 0.18201(13)
C14 C 1.00605(14) 0.2579(2) 0.17906(14)
C15 C 0.93448(16) 0.1833(3) 0.09604(14)
C16 C 0.9279(2) 0.0202(3) 0.06881(18)
H9 H 0.9745 -0.0575 0.1031
C17 C 1.06162(15) 0.5532(3) 0.21295(13)
N1 N 1.21406(15) 0.6522(3) 0.23386(13)
N2 N 1.17286(16) 0.7486(3) 0.27942(14)
C18 C 1.07938(17) 0.6915(3) 0.26658(14)
C19 C 1.0158(2) 0.7836(3) 0.30512(19)
H10 H 1.0467 0.8882 0.3263
H11 H 1.0110 0.7225 0.3538
H12 H 0.9487 0.7997 0.2601
H13 H 1.274(3) 0.664(4) 0.232(2)
loop_
_geom_bond_atom_site_label_1
_geom_bond_atom_site_label_2
_geom_bond_site_symmetry_1
_geom_bond_site_symmetry_2
Cl1 C10 1_555 1_555
O1 C1 1_555 1_555
C1 O3 1_555 1_555
O2 C14 1_555 1_555
O3 H1 1_555 1_555
O4 H2 1_555 1_555
C2 O4 1_555 1_555
C3 H3 1_555 1_555
C4 C3 1_555 1_555
H4 C4 1_555 1_555
C5 O1 1_555 1_555
C6 C1 1_555 1_555
C7 C6 1_555 1_555
H5 C7 1_555 1_555
C8 C7 1_555 1_555
H6 C8 1_555 1_555
C9 C8 1_555 1_555
H7 C9 1_555 1_555
C10 C3 1_555 1_555
C11 C10 1_555 1_555
H8 C11 1_555 1_555
C12 C5 1_555 1_555
C13 C1 1_555 1_555
C14 C13 1_555 1_555
C15 C6 1_555 1_555
C16 C9 1_555 1_555
H9 C16 1_555 1_555
C17 C2 1_555 1_555
N1 C2 1_555 1_555
N2 N1 1_555 1_555
C18 C17 1_555 1_555
C19 C18 1_555 1_555
H10 C19 1_555 1_555
H11 C19 1_555 1_555
H12 C19 1_555 1_555
H13 N1 1_555 1_555
C4 C5 1_555 1_555
C11 C12 1_555 1_555
C12 C13 1_555 1_555
C13 C17 1_555 1_555
C14 C15 1_555 1_555
C15 C16 1_555 1_555
N2 C18 1_555 1_555

#END
