
#######################################################################
#
#                 Cambridge Crystallographic Data Centre
#                                CCDC 
#
#######################################################################
#
# If this CIF has been generated from an entry in the Cambridge 
# Structural Database, then it will include bibliographic, chemical, 
# crystal, experimental, refinement or atomic coordinate data resulting 
# from the CCDC's data processing and validation procedures.
#
#######################################################################

data_TIWHAK
_chemical_formula_moiety         'C13 H10 N2 O4,H2 O1'
_chemical_name_systematic        
'2-Hydroxy-2-(3-hydroxy-5-methyl-1H-pyrazol-4-yl)-1H-indene-1,3(2H)-dione monohydrate'
_symmetry_cell_setting           monoclinic
_symmetry_space_group_name_H-M   'P 21/c'
_symmetry_Int_Tables_number      14
_space_group_name_Hall           '-P 2ybc'
loop_
_symmetry_equiv_pos_site_id
_symmetry_equiv_pos_as_xyz
1 x,y,z
2 -x,1/2+y,1/2-z
3 -x,-y,-z
4 x,1/2-y,1/2+z
_cell_length_a                   11.6374(4)
_cell_length_b                   7.7100(2)
_cell_length_c                   13.8962(5)
_cell_angle_alpha                90
_cell_angle_beta                 96.2320(10)
_cell_angle_gamma                90
_cell_volume                     1239.46
_exptl_crystal_colour            white
_exptl_crystal_description       needle
_cell_formula_units_Z            4
loop_
_atom_site_label
_atom_site_type_symbol
_atom_site_fract_x
_atom_site_fract_y
_atom_site_fract_z
O1 O 0.86255(9) 0.67430(13) 0.07661(6)
H1 H 0.8267(18) 0.655(3) 0.0251(16)
H2 H 0.9389(19) 0.671(3) 0.0697(14)
O2 O 0.21992(9) 0.96498(11) 0.29542(6)
H3 H 0.1958 1.0179 0.3403
O3 O 0.31203(9) 0.47622(12) 0.06870(8)
O4 O 0.16134(9) 1.02688(12) 0.07212(7)
O5 O 0.09613(7) 0.66828(12) 0.05060(5)
H4 H 0.1075 0.6878 -0.0056
N1 N 0.15944(9) 0.72168(13) 0.37704(6)
N2 N 0.12916(9) 0.55718(13) 0.34764(6)
H5 H 0.1069 0.4791 0.3857
C1 C 0.18514(9) 0.79957(14) 0.29690(7)
C2 C 0.17323(8) 0.68648(13) 0.21652(7)
C3 C 0.19309(8) 0.72114(13) 0.11317(7)
C4 C 0.22788(10) 0.91261(14) 0.09855(7)
C5 C 0.35569(10) 0.92001(16) 0.11297(8)
C6 C 0.42862(15) 1.0633(2) 0.12389(11)
H6 H 0.3993 1.1754 0.1254
C7 C 0.54682(16) 1.0324(3) 0.13253(13)
H7 H 0.5976 1.1257 0.1408
C8 C 0.13770(9) 0.53001(14) 0.25323(7)
C9 C 0.11300(12) 0.35889(15) 0.20633(9)
H8 H 0.1842 0.2977 0.2026
H9 H 0.0748 0.3759 0.1423
H10 H 0.0641 0.2925 0.2438
C10 C 0.59096(14) 0.8657(3) 0.12904(15)
H11 H 0.6706 0.8499 0.1345
C11 C 0.51951(12) 0.7231(3) 0.11773(12)
H12 H 0.5494 0.6115 0.1151
C12 C 0.40057(10) 0.75254(17) 0.11031(9)
C13 C 0.30562(9) 0.62603(14) 0.09399(8)
loop_
_geom_bond_atom_site_label_1
_geom_bond_atom_site_label_2
_geom_bond_site_symmetry_1
_geom_bond_site_symmetry_2
O1 H1 1_555 1_555
H2 O1 1_555 1_555
O2 H3 1_555 1_555
O3 C13 1_555 1_555
O4 C4 1_555 1_555
O5 H4 1_555 1_555
N1 N2 1_555 1_555
N2 H5 1_555 1_555
C1 O2 1_555 1_555
C2 C1 1_555 1_555
C3 O5 1_555 1_555
C4 C3 1_555 1_555
C5 C4 1_555 1_555
C6 C5 1_555 1_555
H6 C6 1_555 1_555
C7 C6 1_555 1_555
H7 C7 1_555 1_555
C8 N2 1_555 1_555
C9 C8 1_555 1_555
H8 C9 1_555 1_555
H9 C9 1_555 1_555
H10 C9 1_555 1_555
C10 C7 1_555 1_555
H11 C10 1_555 1_555
C11 C10 1_555 1_555
H12 C11 1_555 1_555
C12 C5 1_555 1_555
C13 C3 1_555 1_555
N1 C1 1_555 1_555
C2 C3 1_555 1_555
C2 C8 1_555 1_555
C11 C12 1_555 1_555
C12 C13 1_555 1_555

#END
