
#######################################################################
#
#                 Cambridge Crystallographic Data Centre
#                                CCDC 
#
#######################################################################
#
# If this CIF has been generated from an entry in the Cambridge 
# Structural Database, then it will include bibliographic, chemical, 
# crystal, experimental, refinement or atomic coordinate data resulting 
# from the CCDC's data processing and validation procedures.
#
#######################################################################

data_TIWMOB
_chemical_formula_moiety         'C29 H24'
_chemical_name_systematic        
7,7-Diphenyl-6,7,16,17-tetrahydro-15H-cyclopenta(b)phenanthrene
_symmetry_cell_setting           monoclinic
_symmetry_space_group_name_H-M   'P 21/c'
_symmetry_Int_Tables_number      14
_space_group_name_Hall           '-P 2ybc'
loop_
_symmetry_equiv_pos_site_id
_symmetry_equiv_pos_as_xyz
1 x,y,z
2 -x,1/2+y,1/2-z
3 -x,-y,-z
4 x,1/2-y,1/2+z
_cell_length_a                   11.963(4)
_cell_length_b                   12.079(4)
_cell_length_c                   13.960(3)
_cell_angle_alpha                90
_cell_angle_beta                 94.44(2)
_cell_angle_gamma                90
_cell_volume                     2011.18
_exptl_crystal_colour            colorless
_cell_formula_units_Z            4
loop_
_atom_site_label
_atom_site_type_symbol
_atom_site_fract_x
_atom_site_fract_y
_atom_site_fract_z
C1 C 0.3009(3) 0.0108(3) 0.1287(2)
C2 C 0.3211(3) 0.1271(3) 0.0878(2)
H1 H 0.3280(3) 0.1798(3) 0.1404(2)
H2 H 0.3914(3) 0.1269(3) 0.0576(2)
C3 C 0.2293(3) 0.1644(3) 0.0159(2)
C4 C 0.2510(3) 0.2287(3) -0.0628(2)
H3 H 0.3245(3) 0.2476(3) -0.0729(2)
C5 C 0.1647(3) 0.2651(3) -0.1262(3)
H4 H 0.1799(3) 0.3082(3) -0.1788(3)
C6 C 0.0559(3) 0.2371(3) -0.1112(3)
H5 H -0.0026(3) 0.2613(3) -0.1538(3)
C7 C 0.0336(3) 0.1736(3) -0.0336(2)
H6 H -0.0402(3) 0.1545(3) -0.0246(2)
C8 C 0.1198(3) 0.1373(3) 0.0321(2)
C9 C 0.0975(3) 0.0747(3) 0.1192(2)
C10 C -0.0086(3) 0.0757(3) 0.1552(2)
H7 H -0.0661(3) 0.1168(3) 0.1238(2)
C11 C -0.0290(3) 0.0171(3) 0.2361(2)
C12 C -0.1359(3) 0.0070(3) 0.2852(3)
H8 H -0.1578(3) 0.0779(3) 0.3105(3)
H9 H -0.1963(3) -0.0205(3) 0.2412(3)
C13 C -0.1084(3) -0.0743(4) 0.3650(3)
H10 H -0.1271(3) -0.0428(4) 0.4256(3)
H11 H -0.1521(3) -0.1413(4) 0.3536(3)
C14 C 0.0138(3) -0.1013(3) 0.3699(3)
H12 H 0.0254(3) -0.1807(3) 0.3665(3)
H13 H 0.0520(3) -0.0734(3) 0.4288(3)
C15 C 0.0554(3) -0.0440(3) 0.2833(2)
C16 C 0.1611(3) -0.0463(3) 0.2495(2)
H14 H 0.2176(3) -0.0879(3) 0.2817(2)
C17 C 0.1839(3) 0.0127(3) 0.1683(2)
C18 C 0.3034(3) -0.0798(3) 0.0515(2)
C19 C 0.2694(3) -0.1861(3) 0.0717(3)
H15 H 0.2372(3) -0.1998(3) 0.1291(3)
C20 C 0.2822(3) -0.2723(3) 0.0088(3)
H16 H 0.2593(3) -0.3433(3) 0.0241(3)
C21 C 0.3290(3) -0.2531(4) -0.0767(3)
H17 H 0.3393(3) -0.3114(4) -0.1187(3)
C22 C 0.3600(3) -0.1483(4) -0.0995(3)
H18 H 0.3895(3) -0.1348(4) -0.1581(3)
C23 C 0.3477(3) -0.0623(3) -0.0359(2)
H19 H 0.3697(3) 0.0087(3) -0.0522(2)
C24 C 0.3948(3) -0.0101(3) 0.2081(2)
C25 C 0.4033(3) 0.0560(3) 0.2902(3)
H20 H 0.3494(3) 0.1103(3) 0.2975(3)
C26 C 0.4894(3) 0.0429(4) 0.3607(3)
H21 H 0.4928(3) 0.0880(4) 0.4148(3)
C27 C 0.5701(3) -0.0360(4) 0.3516(3)
H22 H 0.6280(3) -0.0451(4) 0.3993(3)
C28 C 0.5641(3) -0.1008(3) 0.2717(3)
H23 H 0.6194(3) -0.1536(3) 0.2643(3)
C29 C 0.4770(3) -0.0893(3) 0.2011(2)
H24 H 0.4738(3) -0.1358(3) 0.1479(2)
loop_
_geom_bond_atom_site_label_1
_geom_bond_atom_site_label_2
_geom_bond_site_symmetry_1
_geom_bond_site_symmetry_2
C1 C2 1_555 1_555
C2 H1 1_555 1_555
H2 C2 1_555 1_555
C3 C2 1_555 1_555
C4 C3 1_555 1_555
H3 C4 1_555 1_555
C5 C4 1_555 1_555
H4 C5 1_555 1_555
C6 C5 1_555 1_555
H5 C6 1_555 1_555
C7 C6 1_555 1_555
H6 C7 1_555 1_555
C8 C3 1_555 1_555
C9 C8 1_555 1_555
C10 C9 1_555 1_555
H7 C10 1_555 1_555
C11 C10 1_555 1_555
C12 C11 1_555 1_555
H8 C12 1_555 1_555
H9 C12 1_555 1_555
C13 C12 1_555 1_555
H10 C13 1_555 1_555
H11 C13 1_555 1_555
C14 C13 1_555 1_555
H12 C14 1_555 1_555
H13 C14 1_555 1_555
C15 C11 1_555 1_555
C16 C15 1_555 1_555
H14 C16 1_555 1_555
C17 C1 1_555 1_555
C18 C1 1_555 1_555
C19 C18 1_555 1_555
H15 C19 1_555 1_555
C20 C19 1_555 1_555
H16 C20 1_555 1_555
C21 C20 1_555 1_555
H17 C21 1_555 1_555
C22 C21 1_555 1_555
H18 C22 1_555 1_555
C23 C18 1_555 1_555
H19 C23 1_555 1_555
C24 C1 1_555 1_555
C25 C24 1_555 1_555
H20 C25 1_555 1_555
C26 C25 1_555 1_555
H21 C26 1_555 1_555
C27 C26 1_555 1_555
H22 C27 1_555 1_555
C28 C27 1_555 1_555
H23 C28 1_555 1_555
C29 C24 1_555 1_555
H24 C29 1_555 1_555
C7 C8 1_555 1_555
C9 C17 1_555 1_555
C14 C15 1_555 1_555
C16 C17 1_555 1_555
C22 C23 1_555 1_555
C28 C29 1_555 1_555

#END
