
#######################################################################
#
#                 Cambridge Crystallographic Data Centre
#                                CCDC 
#
#######################################################################
#
# If this CIF has been generated from an entry in the Cambridge 
# Structural Database, then it will include bibliographic, chemical, 
# crystal, experimental, refinement or atomic coordinate data resulting 
# from the CCDC's data processing and validation procedures.
#
#######################################################################

data_TIWQUN
_chemical_formula_moiety         'C14 H13 N3 O2 S1'
_chemical_name_systematic        
1-((4-Methylphenyl)sulfonyl)-1H-benzimidazol-2-amine
_symmetry_cell_setting           triclinic
_symmetry_space_group_name_H-M   'P -1'
_symmetry_Int_Tables_number      2
_space_group_name_Hall           '-P 1'
loop_
_symmetry_equiv_pos_site_id
_symmetry_equiv_pos_as_xyz
1 x,y,z
2 -x,-y,-z
_cell_length_a                   9.7187(4)
_cell_length_b                   10.3158(5)
_cell_length_c                   14.7642(6)
_cell_angle_alpha                80.652(3)
_cell_angle_beta                 71.319(2)
_cell_angle_gamma                86.053(3)
_cell_volume                     1383.37
_exptl_crystal_colour            colorless
_exptl_crystal_description       prism
_cell_formula_units_Z            4
loop_
_atom_site_label
_atom_site_type_symbol
_atom_site_fract_x
_atom_site_fract_y
_atom_site_fract_z
C1 C 0.2287(3) 0.0161(3) 0.35312(18)
C2 C 0.3212(3) 0.1146(3) 0.3482(2)
H1 H 0.4227 0.0978 0.3333
C3 C 0.2643(4) 0.2374(3) 0.3651(2)
H2 H 0.3275 0.3046 0.3637
C4 C 0.1169(4) 0.2657(3) 0.3841(2)
C5 C 0.0549(4) 0.4001(3) 0.4032(3)
H3 H 0.1337 0.4586 0.3971
H4 H -0.0143 0.3937 0.4687
H5 H 0.0049 0.4354 0.3561
C6 C 0.0270(3) 0.1658(3) 0.3873(2)
H6 H -0.0740 0.1836 0.3999
C7 C 0.0801(3) 0.0409(3) 0.3728(2)
H7 H 0.0165 -0.0269 0.3762
C8 C 0.3823(3) -0.0895(3) 0.13570(19)
C9 C 0.1881(3) -0.1352(3) 0.10641(19)
C10 C 0.1615(3) -0.1827(3) 0.20439(19)
C11 C 0.0351(3) -0.2465(3) 0.2614(2)
H8 H 0.0194 -0.2788 0.3278
C12 C -0.0670(3) -0.2609(3) 0.2167(2)
H9 H -0.1554 -0.3038 0.2532
C13 C -0.0426(4) -0.2138(3) 0.1195(2)
H10 H -0.1149 -0.2251 0.0910
C14 C 0.0843(3) -0.1506(3) 0.0630(2)
H11 H 0.0998 -0.1189 -0.0035
N1 N 0.2902(2) -0.1555(2) 0.22408(15)
N2 N 0.5117(3) -0.0458(2) 0.12844(17)
H12 H 0.5669 -0.0055 0.0727
H13 H 0.5420 -0.0572 0.1794
N3 N 0.3256(2) -0.0785(2) 0.06568(16)
O1 O 0.4485(2) -0.14616(19) 0.32513(13)
O2 O 0.2015(2) -0.23842(19) 0.39864(13)
S1 S 0.29735(8) -0.14129(7) 0.33369(5)
C15 C 0.5052(3) 0.4450(3) 0.13605(18)
C16 C 0.5135(3) 0.3341(3) 0.0925(2)
H14 H 0.6037 0.2890 0.0701
C17 C 0.3891(3) 0.2898(3) 0.0821(2)
H15 H 0.3945 0.2131 0.0531
C18 C 0.2571(3) 0.3549(3) 0.1130(2)
C19 C 0.1207(4) 0.3028(4) 0.1051(2)
H16 H 0.0384 0.3613 0.1305
H17 H 0.1023 0.2146 0.1424
H18 H 0.1330 0.2987 0.0371
C20 C 0.2532(3) 0.4687(3) 0.1520(2)
H19 H 0.1643 0.5170 0.1703
C21 C 0.3747(3) 0.5142(3) 0.1651(2)
H20 H 0.3692 0.5915 0.1934
C22 C 0.5850(3) 0.4584(3) 0.35724(19)
C23 C 0.6289(3) 0.2500(3) 0.38538(19)
C24 C 0.6371(3) 0.1208(3) 0.4282(2)
H21 H 0.5993 0.0968 0.4963
C25 C 0.7018(3) 0.0279(3) 0.3691(2)
H22 H 0.7088 -0.0609 0.3973
C26 C 0.7567(3) 0.0617(3) 0.2696(2)
H23 H 0.8008 -0.0044 0.2309
C27 C 0.7483(3) 0.1896(3) 0.2254(2)
H24 H 0.7860 0.2130 0.1573
C28 C 0.6829(3) 0.2818(3) 0.28472(19)
N4 N 0.6558(2) 0.4193(2) 0.26496(15)
N5 N 0.5417(3) 0.5815(2) 0.36734(18)
H25 H 0.4993 0.6028 0.4254
H26 H 0.5554 0.6420 0.3160
N6 N 0.5704(2) 0.3608(2) 0.42817(16)
O3 O 0.7861(2) 0.4504(2) 0.08979(13)
O4 O 0.6410(2) 0.63469(19) 0.16536(14)
S2 S 0.65886(8) 0.49839(8) 0.15562(5)
loop_
_geom_bond_atom_site_label_1
_geom_bond_atom_site_label_2
_geom_bond_site_symmetry_1
_geom_bond_site_symmetry_2
C1 C2 1_555 1_555
C2 H1 1_555 1_555
C3 C2 1_555 1_555
H2 C3 1_555 1_555
C4 C3 1_555 1_555
C5 C4 1_555 1_555
H3 C5 1_555 1_555
H4 C5 1_555 1_555
H5 C5 1_555 1_555
C6 C4 1_555 1_555
H6 C6 1_555 1_555
C7 C1 1_555 1_555
H7 C7 1_555 1_555
C8 N1 1_555 1_555
C9 C10 1_555 1_555
C10 C11 1_555 1_555
C11 H8 1_555 1_555
C12 C11 1_555 1_555
H9 C12 1_555 1_555
C13 C12 1_555 1_555
H10 C13 1_555 1_555
C14 C9 1_555 1_555
H11 C14 1_555 1_555
N1 C10 1_555 1_555
N2 C8 1_555 1_555
H12 N2 1_555 1_555
H13 N2 1_555 1_555
N3 C8 1_555 1_555
O1 S1 1_555 1_555
O2 S1 1_555 1_555
S1 C1 1_555 1_555
C15 C16 1_555 1_555
C16 H14 1_555 1_555
C17 C16 1_555 1_555
H15 C17 1_555 1_555
C18 C17 1_555 1_555
C19 C18 1_555 1_555
H16 C19 1_555 1_555
H17 C19 1_555 1_555
H18 C19 1_555 1_555
C20 C18 1_555 1_555
H19 C20 1_555 1_555
C21 C15 1_555 1_555
H20 C21 1_555 1_555
C22 N4 1_555 1_555
C23 C24 1_555 1_555
C24 H21 1_555 1_555
C25 C24 1_555 1_555
H22 C25 1_555 1_555
C26 C25 1_555 1_555
H23 C26 1_555 1_555
C27 C26 1_555 1_555
H24 C27 1_555 1_555
C28 C23 1_555 1_555
N4 C28 1_555 1_555
N5 C22 1_555 1_555
H25 N5 1_555 1_555
H26 N5 1_555 1_555
N6 C22 1_555 1_555
O3 S2 1_555 1_555
O4 S2 1_555 1_555
S2 C15 1_555 1_555
C6 C7 1_555 1_555
C9 N3 1_555 1_555
C13 C14 1_555 1_555
N1 S1 1_555 1_555
C20 C21 1_555 1_555
C23 N6 1_555 1_555
C27 C28 1_555 1_555
N4 S2 1_555 1_555

#END
