
#######################################################################
#
#                 Cambridge Crystallographic Data Centre
#                                CCDC 
#
#######################################################################
#
# If this CIF has been generated from an entry in the Cambridge 
# Structural Database, then it will include bibliographic, chemical, 
# crystal, experimental, refinement or atomic coordinate data resulting 
# from the CCDC's data processing and validation procedures.
#
#######################################################################

data_TIWRAU
_chemical_formula_moiety         'C14 H12 Cl1 N3 O2 S1'
_chemical_name_systematic        
6-Chloro-1-((4-methylphenyl)sulfonyl)-1H-benzimidazol-2-amine
_symmetry_cell_setting           triclinic
_symmetry_space_group_name_H-M   'P -1'
_symmetry_Int_Tables_number      2
_space_group_name_Hall           '-P 1'
loop_
_symmetry_equiv_pos_site_id
_symmetry_equiv_pos_as_xyz
1 x,y,z
2 -x,-y,-z
_cell_length_a                   8.7956(9)
_cell_length_b                   10.4442(11)
_cell_length_c                   10.9339(11)
_cell_angle_alpha                69.299(2)
_cell_angle_beta                 67.831(2)
_cell_angle_gamma                72.037(2)
_cell_volume                     852.173
_exptl_crystal_colour            colorless
_exptl_crystal_description       prism
_cell_formula_units_Z            2
loop_
_atom_site_label
_atom_site_type_symbol
_atom_site_fract_x
_atom_site_fract_y
_atom_site_fract_z
C1 C 0.0174(4) 0.2664(3) 0.8162(3)
C2 C 0.0588(4) 0.1644(4) 0.9269(3)
H1 H 0.1264 0.0760 0.9164
C3 C 0.0001(5) 0.1928(4) 1.0537(4)
H2 H 0.0289 0.1235 1.1299
C4 C -0.0998(5) 0.3209(4) 1.0703(4)
C5 C -0.1639(6) 0.3485(6) 1.2093(4)
H3 H -0.2327 0.4430 1.2035
H4 H -0.0688 0.3402 1.2396
H5 H -0.2318 0.2802 1.2753
C6 C -0.1376(5) 0.4209(4) 0.9576(4)
H6 H -0.2049 0.5093 0.9682
C7 C -0.0804(4) 0.3963(4) 0.8289(4)
H7 H -0.1075 0.4662 0.7523
C8 C 0.3672(4) 0.3443(3) 0.5557(3)
C9 C 0.5638(4) 0.1649(3) 0.5930(3)
C10 C 0.7161(4) 0.0770(4) 0.6034(3)
H8 H 0.8137 0.1137 0.5768
C11 C 0.7214(4) -0.0655(4) 0.6537(3)
H9 H 0.8237 -0.1278 0.6627
C12 C 0.5797(4) -0.1175(3) 0.6909(3)
C13 C 0.4259(4) -0.0335(3) 0.6800(3)
H10 H 0.3294 -0.0710 0.7051
C14 C 0.4230(3) 0.1081(3) 0.6303(3)
N1 N 0.2945(3) 0.2255(2) 0.6030(2)
N2 N 0.2794(3) 0.4743(3) 0.5270(3)
H11 H 0.3283 0.5457 0.5000
H12 H 0.1725 0.4889 0.5350
N3 N 0.5262(3) 0.3103(3) 0.5475(3)
O1 O 0.0755(3) 0.0890(2) 0.6784(2)
O2 O 0.0193(3) 0.3413(2) 0.5623(2)
S1 S 0.08906(8) 0.22780(7) 0.65825(7)
Cl1 Cl 0.59326(13) -0.29757(9) 0.75486(10)
loop_
_geom_bond_atom_site_label_1
_geom_bond_atom_site_label_2
_geom_bond_site_symmetry_1
_geom_bond_site_symmetry_2
C1 C2 1_555 1_555
C2 H1 1_555 1_555
C3 C2 1_555 1_555
H2 C3 1_555 1_555
C4 C3 1_555 1_555
C5 C4 1_555 1_555
H3 C5 1_555 1_555
H4 C5 1_555 1_555
H5 C5 1_555 1_555
C6 C4 1_555 1_555
H6 C6 1_555 1_555
C7 C1 1_555 1_555
H7 C7 1_555 1_555
C8 N1 1_555 1_555
C9 C10 1_555 1_555
C10 H8 1_555 1_555
C11 C10 1_555 1_555
H9 C11 1_555 1_555
C12 C11 1_555 1_555
C13 C12 1_555 1_555
H10 C13 1_555 1_555
C14 C9 1_555 1_555
N1 C14 1_555 1_555
N2 C8 1_555 1_555
H11 N2 1_555 1_555
H12 N2 1_555 1_555
N3 C8 1_555 1_555
O1 S1 1_555 1_555
O2 S1 1_555 1_555
S1 C1 1_555 1_555
Cl1 C12 1_555 1_555
C6 C7 1_555 1_555
C9 N3 1_555 1_555
C13 C14 1_555 1_555
N1 S1 1_555 1_555

#END
