
#######################################################################
#
#                 Cambridge Crystallographic Data Centre
#                                CCDC 
#
#######################################################################
#
# If this CIF has been generated from an entry in the Cambridge 
# Structural Database, then it will include bibliographic, chemical, 
# crystal, experimental, refinement or atomic coordinate data resulting 
# from the CCDC's data processing and validation procedures.
#
#######################################################################

data_TIWWIG
_chemical_name_common            'PDB Chemical Component code: BUB'
_chemical_formula_moiety         'C4 H11 B1 O2'
_chemical_name_systematic        'n-Butylboronic acid'
_symmetry_cell_setting           monoclinic
_symmetry_space_group_name_H-M   'P 21/c'
_symmetry_Int_Tables_number      14
_space_group_name_Hall           '-P 2ybc'
loop_
_symmetry_equiv_pos_site_id
_symmetry_equiv_pos_as_xyz
1 x,y,z
2 -x,1/2+y,1/2-z
3 -x,-y,-z
4 x,1/2-y,1/2+z
_cell_length_a                   11.2636(12)
_cell_length_b                   5.7574(6)
_cell_length_c                   9.6090(9)
_cell_angle_alpha                90
_cell_angle_beta                 101.719(8)
_cell_angle_gamma                90
_cell_volume                     610.146
_exptl_crystal_colour            colorless
_cell_formula_units_Z            4
loop_
_atom_site_label
_atom_site_type_symbol
_atom_site_fract_x
_atom_site_fract_y
_atom_site_fract_z
B1 B 0.88261(17) 0.2721(3) 1.02047(18)
O1 O 0.93167(11) 0.1136(2) 1.12391(11)
H1 H 0.9119(17) 0.134(4) 1.201(2)
O2 O 0.91859(11) 0.2519(2) 0.89342(10)
H2 H 0.9712(17) 0.140(4) 0.8975(19)
C1 C 0.78962(17) 0.4596(3) 1.04404(18)
H3 H 0.8236(16) 0.547(3) 1.130(2)
H4 H 0.7181(15) 0.382(3) 1.0656(17)
C2 C 0.74387(16) 0.6302(3) 0.92338(17)
H5 H 0.8137(14) 0.721(3) 0.9101(16)
H6 H 0.7122(16) 0.541(3) 0.8374(19)
C3 C 0.64612(17) 0.7913(3) 0.95550(18)
H7 H 0.6772(15) 0.875(3) 1.0435(19)
H8 H 0.5738(14) 0.696(3) 0.9682(17)
C4 C 0.60314(19) 0.9738(3) 0.8413(2)
H9 H 0.6724(15) 1.070(3) 0.8308(17)
H10 H 0.5373(17) 1.073(3) 0.8607(18)
H11 H 0.5664(14) 0.895(3) 0.748(2)
loop_
_geom_bond_atom_site_label_1
_geom_bond_atom_site_label_2
_geom_bond_site_symmetry_1
_geom_bond_site_symmetry_2
B1 O1 1_555 1_555
O1 H1 1_555 1_555
O2 B1 1_555 1_555
H2 O2 1_555 1_555
C1 B1 1_555 1_555
H3 C1 1_555 1_555
H4 C1 1_555 1_555
C2 C1 1_555 1_555
H5 C2 1_555 1_555
H6 C2 1_555 1_555
C3 C2 1_555 1_555
H7 C3 1_555 1_555
H8 C3 1_555 1_555
C4 C3 1_555 1_555
H9 C4 1_555 1_555
H10 C4 1_555 1_555
H11 C4 1_555 1_555

#END
