
#######################################################################
#
#                 Cambridge Crystallographic Data Centre
#                                CCDC 
#
#######################################################################
#
# If this CIF has been generated from an entry in the Cambridge 
# Structural Database, then it will include bibliographic, chemical, 
# crystal, experimental, refinement or atomic coordinate data resulting 
# from the CCDC's data processing and validation procedures.
#
#######################################################################

data_TIWXAZ
_chemical_formula_moiety         'C15 H23 F2 N4 O5 1+,Cl1 1-'
_chemical_name_systematic        
'(S)-2-(1-((2R,4R,5R)-3,3-Difluoro-4-hydroxy-5-hydroxymethyl-tetrahydrofuran-2-yl)-2-oxo-1,2-dihydropyrimidin-4-ylamino)-3,3-dimethylbutyramide hydrochloride'
_symmetry_cell_setting           orthorhombic
_symmetry_space_group_name_H-M   'P 21 21 21'
_symmetry_Int_Tables_number      19
_space_group_name_Hall           'P 2ac 2ab'
loop_
_symmetry_equiv_pos_site_id
_symmetry_equiv_pos_as_xyz
1 x,y,z
2 1/2-x,-y,1/2+z
3 -x,1/2+y,1/2-z
4 1/2+x,1/2-y,-z
_cell_length_a                   7.6828(7)
_cell_length_b                   7.9181(7)
_cell_length_c                   30.485(3)
_cell_angle_alpha                90
_cell_angle_beta                 90
_cell_angle_gamma                90
_cell_volume                     1854.5
_exptl_crystal_description       'tabular plate'
_cell_formula_units_Z            4
loop_
_atom_site_label
_atom_site_type_symbol
_atom_site_fract_x
_atom_site_fract_y
_atom_site_fract_z
Cl1 Cl 0.2944(3) 0.0552(3) 0.13402(6)
O1 O 0.1798(7) 0.3948(7) 1.06281(15)
N1 N 0.5037(8) 0.4431(9) 0.93711(19)
H1 H 0.6051 0.4382 0.9237
O2 O 0.2852(8) 0.6584(8) 1.14673(15)
H2 H 0.2383 0.5864 1.1631
C1 C 0.1974(10) 0.4679(11) 0.9773(3)
H3 H 0.0893 0.4815 0.9920
N2 N 0.3452(8) 0.4573(8) 1.00136(19)
F1 F 0.5138(8) 0.6673(9) 1.08466(18)
N3 N 0.3779(12) 0.4340(10) 0.8685(3)
O3 O -0.0878(8) 0.6348(8) 1.04869(18)
H4 H -0.1765 0.6127 1.0337
O4 O 0.3545(8) 0.1280(8) 0.82263(18)
C2 C 0.3579(11) 0.4463(10) 0.9113(3)
C3 C 0.2654(10) 0.5036(11) 0.7942(2)
C4 C 0.5046(13) 0.4470(10) 0.9826(3)
O5 O 0.6429(7) 0.4440(7) 1.00321(16)
N4 N 0.0647(11) 0.1553(9) 0.8363(2)
H5 H 0.0441 0.0463 0.8340
H6 H -0.0212 0.2255 0.8421
F2 F 0.3231(9) 0.7541(6) 1.03791(16)
C5 C 0.3384(11) 0.4605(11) 1.0501(2)
H7 H 0.4337 0.3877 1.0620
C6 C 0.1992(10) 0.4597(11) 0.9325(2)
H8 H 0.0938 0.4631 0.9163
C7 C 0.2412(10) 0.4067(9) 0.8369(2)
H9 H 0.1303 0.4472 0.8505
C8 C 0.1216(12) 0.4585(14) 0.7623(3)
H10 H 0.1227 0.3365 0.7569
H11 H 0.1401 0.5187 0.7346
H12 H 0.0089 0.4913 0.7747
C9 C 0.4434(12) 0.4573(15) 0.7718(3)
H13 H 0.4566 0.3342 0.7710
H14 H 0.5393 0.5068 0.7887
H15 H 0.4453 0.5019 0.7418
C10 C 0.2124(12) 0.6468(11) 1.1040(3)
H16 H 0.1408 0.7499 1.0981
C11 C -0.0839(11) 0.5275(11) 1.0866(3)
H17 H -0.1437 0.4196 1.0802
H18 H -0.1446 0.5830 1.1114
C12 C 0.2246(13) 0.2139(12) 0.8308(3)
C13 C 0.3530(12) 0.6338(12) 1.0697(2)
C14 C 0.1017(10) 0.4951(10) 1.0985(2)
H19 H 0.1053 0.4274 1.1262
C15 C 0.2632(13) 0.6955(10) 0.8043(3)
H20 H 0.2700 0.7591 0.7768
H21 H 0.3630 0.7242 0.8228
H22 H 0.1551 0.7244 0.8196
H23 H 0.456(9) 0.437(10) 0.860(2)
loop_
_geom_bond_atom_site_label_1
_geom_bond_atom_site_label_2
_geom_bond_site_symmetry_1
_geom_bond_site_symmetry_2
O1 C5 1_555 1_555
N1 H1 1_555 1_555
O2 H2 1_555 1_555
C1 H3 1_555 1_555
N2 C1 1_555 1_555
F1 C13 1_555 1_555
N3 C2 1_555 1_555
O3 H4 1_555 1_555
O4 C12 1_555 1_555
C2 N1 1_555 1_555
C3 C7 1_555 1_555
C4 N1 1_555 1_555
O5 C4 1_555 1_555
N4 H5 1_555 1_555
H6 N4 1_555 1_555
F2 C13 1_555 1_555
C5 N2 1_555 1_555
H7 C5 1_555 1_555
C6 C1 1_555 1_555
H8 C6 1_555 1_555
C7 N3 1_555 1_555
H9 C7 1_555 1_555
C8 C3 1_555 1_555
H10 C8 1_555 1_555
H11 C8 1_555 1_555
H12 C8 1_555 1_555
C9 C3 1_555 1_555
H13 C9 1_555 1_555
H14 C9 1_555 1_555
H15 C9 1_555 1_555
C10 O2 1_555 1_555
H16 C10 1_555 1_555
C11 O3 1_555 1_555
H17 C11 1_555 1_555
H18 C11 1_555 1_555
C12 N4 1_555 1_555
C13 C5 1_555 1_555
C14 O1 1_555 1_555
H19 C14 1_555 1_555
C15 C3 1_555 1_555
H20 C15 1_555 1_555
H21 C15 1_555 1_555
H22 C15 1_555 1_555
H23 N3 1_555 1_555
N2 C4 1_555 1_555
C2 C6 1_555 1_555
C7 C12 1_555 1_555
C10 C13 1_555 1_555
C10 C14 1_555 1_555
C11 C14 1_555 1_555

#END
