
#######################################################################
#
#                 Cambridge Crystallographic Data Centre
#                                CCDC 
#
#######################################################################
#
# If this CIF has been generated from an entry in the Cambridge 
# Structural Database, then it will include bibliographic, chemical, 
# crystal, experimental, refinement or atomic coordinate data resulting 
# from the CCDC's data processing and validation procedures.
#
#######################################################################

data_TIWZIK
_chemical_formula_moiety         'C19 H15 N3 O1,C7 H8'
_chemical_name_systematic        
'2-Anilino-1-phenyl-1H-benzimidazol-6-ol toluene solvate'
_symmetry_cell_setting           triclinic
_symmetry_space_group_name_H-M   'P -1'
_symmetry_Int_Tables_number      2
_space_group_name_Hall           '-P 1'
loop_
_symmetry_equiv_pos_site_id
_symmetry_equiv_pos_as_xyz
1 x,y,z
2 -x,-y,-z
_cell_length_a                   10.794(2)
_cell_length_b                   12.496(3)
_cell_length_c                   16.394(3)
_cell_angle_alpha                89.375(5)
_cell_angle_beta                 84.600(4)
_cell_angle_gamma                76.159(4)
_cell_volume                     2137.36
_exptl_crystal_colour            colorless
_exptl_crystal_description       prism
_cell_formula_units_Z            4
loop_
_atom_site_label
_atom_site_type_symbol
_atom_site_fract_x
_atom_site_fract_y
_atom_site_fract_z
O1 O 1.09529(18) -0.34796(13) 0.37026(11)
H1 H 1.0467 -0.3892 0.3691
N1 N 0.89044(19) -0.15770(14) 0.13662(11)
N2 N 0.95502(19) -0.00303(14) 0.15799(12)
N3 N 0.8380(2) -0.01316(16) 0.04214(13)
H2 H 0.831(3) -0.060(2) 0.0093(18)
C1 C 1.0590(2) -0.26152(18) 0.31858(14)
C2 C 0.9862(2) -0.26831(17) 0.25504(14)
H3 H 0.9579 -0.3314 0.2457
C3 C 0.9573(2) -0.17654(17) 0.20573(13)
C4 C 0.9972(2) -0.08055(17) 0.21838(14)
C5 C 1.0705(2) -0.07553(18) 0.28285(15)
H4 H 1.0982 -0.0122 0.2925
C6 C 1.1013(2) -0.16592(19) 0.33205(15)
H5 H 1.1510 -0.1637 0.3751
C7 C 0.8931(2) -0.05209(17) 0.11110(14)
C8 C 0.8250(2) -0.23196(17) 0.10360(14)
C9 C 0.8074(2) 0.09622(17) 0.01422(15)
C10 C 0.6949(3) -0.2029(2) 0.1007(2)
H6 H 0.6479 -0.1331 0.1182
C11 C 0.6342(3) -0.2785(3) 0.0716(2)
H7 H 0.5462 -0.2585 0.0679
C12 C 0.7019(4) -0.3818(3) 0.04827(19)
H8 H 0.6599 -0.4326 0.0301
C13 C 0.8315(3) -0.4108(2) 0.05166(19)
H9 H 0.8779 -0.4813 0.0358
C14 C 0.8933(3) -0.3356(2) 0.07854(17)
H10 H 0.9819 -0.3549 0.0798
C15 C 0.8140(3) 0.18588(19) 0.06056(18)
H11 H 0.8403 0.1760 0.1131
C16 C 0.7815(3) 0.2906(2) 0.0284(2)
H12 H 0.7857 0.3508 0.0599
C17 C 0.7431(3) 0.3071(2) -0.0494(2)
H13 H 0.7233 0.3777 -0.0709
C18 C 0.7346(3) 0.2186(2) -0.09457(18)
H14 H 0.7073 0.2289 -0.1469
C19 C 0.7663(3) 0.1134(2) -0.06303(16)
H15 H 0.7599 0.0537 -0.0943
C20 C 1.0612(2) -0.76238(18) 0.18086(14)
C21 C 0.9822(2) -0.76669(18) 0.25148(14)
H16 H 0.9487 -0.8277 0.2634
C22 C 0.9552(2) -0.67616(17) 0.30362(14)
C23 C 1.0018(2) -0.58244(17) 0.28712(14)
C24 C 1.0795(2) -0.57968(19) 0.21560(16)
H17 H 1.1112 -0.5180 0.2029
C25 C 1.1093(2) -0.66954(19) 0.16349(16)
H18 H 1.1626 -0.6685 0.1157
C26 C 0.8891(2) -0.55144(17) 0.40368(15)
C27 C 0.8086(3) -0.72639(19) 0.41743(14)
C28 C 0.6779(3) -0.6931(3) 0.4297(2)
H19 H 0.6351 -0.6226 0.4155
C29 C 0.6098(4) -0.7679(4) 0.4641(2)
H20 H 0.5210 -0.7467 0.4741
C30 C 0.6747(5) -0.8725(4) 0.4830(2)
H21 H 0.6293 -0.9224 0.5048
C31 C 0.8026(5) -0.9031(3) 0.4703(2)
H22 H 0.8453 -0.9740 0.4836
C32 C 0.8717(3) -0.8308(2) 0.43781(17)
H23 H 0.9607 -0.8525 0.4297
C33 C 0.7982(2) -0.39960(18) 0.50491(16)
C34 C 0.8040(3) -0.3118(2) 0.45335(18)
H24 H 0.8278 -0.3243 0.3976
C35 C 0.7745(3) -0.2060(2) 0.4849(2)
H25 H 0.7789 -0.1475 0.4501
C36 C 0.7387(3) -0.1858(2) 0.5668(2)
H26 H 0.7203 -0.1143 0.5879
C37 C 0.7306(4) -0.2719(3) 0.6167(2)
H27 H 0.7055 -0.2588 0.6722
C38 C 0.7589(3) -0.3783(2) 0.58638(17)
H28 H 0.7514 -0.4359 0.6214
O2 O 1.09686(18) -0.84836(13) 0.12582(11)
H29 H 1.0529 -0.8928 0.1366
N4 N 0.8822(2) -0.65503(14) 0.37898(12)
N5 N 0.9594(2) -0.50566(14) 0.35130(12)
N6 N 0.8271(2) -0.50970(16) 0.47707(13)
H30 H 0.813(3) -0.559(2) 0.5078(18)
C39 C 0.4948(6) -0.5188(5) 0.2239(4)
C40 C 0.6228(5) -0.5202(8) 0.2315(8)
H31 H 0.6879 -0.5749 0.2053
C41 C 0.6520(6) -0.4406(8) 0.2776(6)
H32 H 0.7371 -0.4386 0.2805
C42 C 0.5567(9) -0.3646(8) 0.3190(7)
H33 H 0.5765 -0.3116 0.3515
C43 C 0.4351(7) -0.3655(7) 0.3135(7)
H34 H 0.3705 -0.3147 0.3438
C44 C 0.4040(5) -0.4393(7) 0.2647(6)
H35 H 0.3181 -0.4353 0.2590
C45 C 0.4600(11) -0.5980(13) 0.1684(12)
H36 H 0.5364 -0.6482 0.1449
H37 H 0.4145 -0.5584 0.1255
H38 H 0.4064 -0.6385 0.1990
C53 C 0.4812(4) 0.0677(3) 0.1877(2)
C54 C 0.5960(4) 0.0683(3) 0.2199(3)
H47 H 0.6493 0.1106 0.1956
C55 C 0.6303(4) 0.0066(5) 0.2873(3)
H48 H 0.7080 0.0051 0.3080
C56 C 0.5506(5) -0.0524(5) 0.3236(3)
H49 H 0.5732 -0.0938 0.3697
C57 C 0.4402(5) -0.0511(4) 0.2936(3)
H50 H 0.3863 -0.0921 0.3189
C58 C 0.4048(4) 0.0085(3) 0.2270(2)
H51 H 0.3264 0.0088 0.2077
C59 C 0.4466(5) 0.1264(4) 0.1106(3)
H52 H 0.4647 0.0745 0.0658
H53 H 0.4958 0.1807 0.1004
H54 H 0.3569 0.1621 0.1159
C46? C 0.5808(14) -0.4465(12) 0.2634(10)
C47? C 0.6332(10) -0.5493(16) 0.226(2)
H39? H 0.7213 -0.5784 0.2219
C48? C 0.5539(12) -0.6069(10) 0.1962(12)
H40? H 0.5873 -0.6774 0.1743
C49? C 0.4264(12) -0.5608(13) 0.1986(13)
H41? H 0.3738 -0.5957 0.1725
C50? C 0.3765(10) -0.4660(14) 0.2382(14)
H42? H 0.2884 -0.4367 0.2418
C51? C 0.4519(14) -0.4115(12) 0.2734(13)
H43? H 0.4144 -0.3487 0.3050
C52? C 0.664(2) -0.377(2) 0.290(2)
H44? H 0.7524 -0.4142 0.2770
H45? H 0.6476 -0.3639 0.3480
H46? H 0.6462 -0.3079 0.2619
loop_
_geom_bond_atom_site_label_1
_geom_bond_atom_site_label_2
_geom_bond_site_symmetry_1
_geom_bond_site_symmetry_2
O1 H1 1_555 1_555
N1 C3 1_555 1_555
N2 C4 1_555 1_555
N3 H2 1_555 1_555
C1 O1 1_555 1_555
C2 C1 1_555 1_555
H3 C2 1_555 1_555
C3 C2 1_555 1_555
C4 C3 1_555 1_555
C5 C4 1_555 1_555
H4 C5 1_555 1_555
C6 C1 1_555 1_555
H5 C6 1_555 1_555
C7 N1 1_555 1_555
C8 N1 1_555 1_555
C9 N3 1_555 1_555
C10 C8 1_555 1_555
H6 C10 1_555 1_555
C11 C10 1_555 1_555
H7 C11 1_555 1_555
C12 C11 1_555 1_555
H8 C12 1_555 1_555
C13 C12 1_555 1_555
H9 C13 1_555 1_555
C14 C8 1_555 1_555
H10 C14 1_555 1_555
C15 C9 1_555 1_555
H11 C15 1_555 1_555
C16 C15 1_555 1_555
H12 C16 1_555 1_555
C17 C16 1_555 1_555
H13 C17 1_555 1_555
C18 C17 1_555 1_555
H14 C18 1_555 1_555
C19 C9 1_555 1_555
H15 C19 1_555 1_555
C20 C21 1_555 1_555
C21 H16 1_555 1_555
C22 C21 1_555 1_555
C23 C22 1_555 1_555
C24 C23 1_555 1_555
H17 C24 1_555 1_555
C25 C20 1_555 1_555
H18 C25 1_555 1_555
C26 N4 1_555 1_555
C27 C28 1_555 1_555
C28 H19 1_555 1_555
C29 C28 1_555 1_555
H20 C29 1_555 1_555
C30 C29 1_555 1_555
H21 C30 1_555 1_555
C31 C30 1_555 1_555
H22 C31 1_555 1_555
C32 C27 1_555 1_555
H23 C32 1_555 1_555
C33 C34 1_555 1_555
C34 H24 1_555 1_555
C35 C34 1_555 1_555
H25 C35 1_555 1_555
C36 C35 1_555 1_555
H26 C36 1_555 1_555
C37 C36 1_555 1_555
H27 C37 1_555 1_555
C38 C33 1_555 1_555
H28 C38 1_555 1_555
O2 C20 1_555 1_555
H29 O2 1_555 1_555
N4 C22 1_555 1_555
N5 C23 1_555 1_555
N6 C26 1_555 1_555
H30 N6 1_555 1_555
C39 C40 1_555 1_555
C40 H31 1_555 1_555
C41 C40 1_555 1_555
H32 C41 1_555 1_555
C42 C41 1_555 1_555
H33 C42 1_555 1_555
C43 C42 1_555 1_555
H34 C43 1_555 1_555
C44 C39 1_555 1_555
H35 C44 1_555 1_555
C45 C39 1_555 1_555
H36 C45 1_555 1_555
H37 C45 1_555 1_555
H38 C45 1_555 1_555
C53 C54 1_555 1_555
C54 H47 1_555 1_555
C55 C54 1_555 1_555
H48 C55 1_555 1_555
C56 C55 1_555 1_555
H49 C56 1_555 1_555
C57 C56 1_555 1_555
H50 C57 1_555 1_555
C58 C53 1_555 1_555
H51 C58 1_555 1_555
C59 C53 1_555 1_555
H52 C59 1_555 1_555
H53 C59 1_555 1_555
H54 C59 1_555 1_555
N2 C7 1_555 1_555
N3 C7 1_555 1_555
C5 C6 1_555 1_555
C13 C14 1_555 1_555
C18 C19 1_555 1_555
C24 C25 1_555 1_555
C26 N5 1_555 1_555
C27 N4 1_555 1_555
C31 C32 1_555 1_555
C33 N6 1_555 1_555
C37 C38 1_555 1_555
C43 C44 1_555 1_555
C57 C58 1_555 1_555

#END
