
#######################################################################
#
#                 Cambridge Crystallographic Data Centre
#                                CCDC 
#
#######################################################################
#
# If this CIF has been generated from an entry in the Cambridge 
# Structural Database, then it will include bibliographic, chemical, 
# crystal, experimental, refinement or atomic coordinate data resulting 
# from the CCDC's data processing and validation procedures.
#
#######################################################################

data_TIWZEE
_chemical_formula_moiety         'C42 H48 B2'
_chemical_name_systematic        1,4-bis(Dimesitylboryl)benzene
_symmetry_cell_setting           triclinic
_symmetry_space_group_name_H-M   'P -1'
_symmetry_Int_Tables_number      2
_space_group_name_Hall           '-P 1'
loop_
_symmetry_equiv_pos_site_id
_symmetry_equiv_pos_as_xyz
1 x,y,z
2 -x,-y,-z
_cell_length_a                   8.089(2)
_cell_length_b                   10.564(3)
_cell_length_c                   12.092(4)
_cell_angle_alpha                66.46(2)
_cell_angle_beta                 77.97(2)
_cell_angle_gamma                73.16(2)
_cell_volume                     901.601
_exptl_crystal_colour            colorless
_cell_formula_units_Z            1
loop_
_atom_site_label
_atom_site_type_symbol
_atom_site_fract_x
_atom_site_fract_y
_atom_site_fract_z
C1 C 0.1378(3) 0.5148(2) 0.4033(2)
C2 C -0.0241(3) 0.6143(2) 0.3921(2)
C3 C 0.1560(3) 0.4006(2) 0.5142(2)
C4 C 0.4299(3) 0.3955(2) 0.2946(2)
C5 C 0.3845(3) 0.2707(2) 0.3066(2)
C6 C 0.5115(3) 0.1439(2) 0.3257(2)
C7 C 0.6822(3) 0.1349(2) 0.3333(2)
C8 C 0.7278(3) 0.2583(2) 0.3155(2)
C9 C 0.6067(3) 0.3875(2) 0.2947(2)
C10 C 0.2028(3) 0.2705(3) 0.2933(3)
C11 C 0.8157(4) -0.0038(3) 0.3576(3)
C12 C 0.6719(3) 0.5166(3) 0.2733(3)
C13 C 0.2857(3) 0.6881(2) 0.2011(2)
C14 C 0.2723(3) 0.7216(3) 0.0778(2)
C15 C 0.2582(3) 0.8614(3) -0.0029(3)
C16 C 0.2600(3) 0.9687(3) 0.0327(3)
C17 C 0.2765(3) 0.9359(3) 0.1519(3)
C18 C 0.2867(3) 0.7996(2) 0.2372(2)
C19 C 0.2623(5) 0.6091(3) 0.0329(3)
C20 C 0.2438(5) 1.1225(3) -0.0582(4)
C21 C 0.3070(4) 0.7748(3) 0.3666(3)
B1 B 0.2878(3) 0.5327(2) 0.2962(2)
H1 H -0.0415 0.6942 0.3175
H2 H 0.2640 0.3311 0.5248
H3 H 0.4783 0.0600 0.3342
H4 H 0.8466 0.2542 0.3195
H5 H 0.1757 0.3286 0.2119
H6 H 0.1936 0.1754 0.3119
H7 H 0.1217 0.3109 0.3474
H8 H 0.9045 0.0028 0.2905
H9 H 0.7607 -0.0786 0.3708
H10 H 0.8654 -0.0252 0.4303
H11 H 0.6352 0.5906 0.1990
H12 H 0.7965 0.4920 0.2676
H13 H 0.6269 0.5485 0.3400
H14 H 0.2485 0.8826 -0.0866
H15 H 0.2820 1.0095 0.1776
H16 H 0.2907 0.6410 -0.0535
H17 H 0.1473 0.5924 0.0532
H18 H 0.3422 0.5216 0.0707
H19 H 0.1342 1.1567 -0.0911
H20 H 0.3376 1.1240 -0.1218
H21 H 0.2546 1.1821 -0.0187
H22 H 0.3678 0.8400 0.3675
H23 H 0.1948 0.7874 0.4118
H24 H 0.3720 0.6795 0.4034
C3A C -0.1560(3) 0.5994(2) 0.4858(2)
C1A C -0.1378(3) 0.4852(2) 0.5967(2)
C2A C 0.0241(3) 0.3857(2) 0.6079(2)
H1A H 0.0415 0.3058 0.6825
B1A B -0.2878(3) 0.4673(2) 0.7038(2)
C4A C -0.4299(3) 0.6045(2) 0.7054(2)
C5A C -0.3845(3) 0.7293(2) 0.6934(2)
C6A C -0.5115(3) 0.8561(2) 0.6743(2)
C7A C -0.6822(3) 0.8651(2) 0.6667(2)
C8A C -0.7278(3) 0.7417(2) 0.6845(2)
C9A C -0.6067(3) 0.6125(2) 0.7053(2)
C12A C -0.6719(3) 0.4834(3) 0.7267(3)
H11A H -0.6352 0.4094 0.8010
H12A H -0.7965 0.5080 0.7324
H13A H -0.6269 0.4515 0.6600
H4A H -0.8466 0.7458 0.6805
C11A C -0.8157(4) 1.0038(3) 0.6424(3)
H8A H -0.9045 0.9972 0.7095
H9A H -0.7607 1.0786 0.6292
H10A H -0.8654 1.0252 0.5697
H3A H -0.4783 0.9400 0.6658
C10A C -0.2028(3) 0.7295(3) 0.7067(3)
H5A H -0.1757 0.6714 0.7881
H6A H -0.1936 0.8246 0.6881
H7A H -0.1217 0.6891 0.6526
C13A C -0.2857(3) 0.3119(2) 0.7989(2)
C14A C -0.2723(3) 0.2784(3) 0.9222(2)
C15A C -0.2582(3) 0.1386(3) 1.0029(3)
C16A C -0.2600(3) 0.0313(3) 0.9673(3)
C17A C -0.2765(3) 0.0641(3) 0.8481(3)
C18A C -0.2867(3) 0.2004(2) 0.7628(2)
C21A C -0.3070(4) 0.2252(3) 0.6334(3)
H22A H -0.3678 0.1600 0.6325
H23A H -0.1948 0.2126 0.5882
H24A H -0.3720 0.3205 0.5966
H15A H -0.2820 -0.0095 0.8224
C20A C -0.2438(5) -0.1225(3) 1.0582(4)
H19A H -0.1342 -0.1567 1.0911
H20A H -0.3376 -0.1240 1.1218
H21A H -0.2546 -0.1821 1.0187
H14A H -0.2485 0.1174 1.0866
C19A C -0.2623(5) 0.3909(3) 0.9671(3)
H16A H -0.2907 0.3590 1.0535
H17A H -0.1473 0.4076 0.9468
H18A H -0.3422 0.4784 0.9293
H2A H -0.2640 0.6689 0.4752
loop_
_geom_bond_atom_site_label_1
_geom_bond_atom_site_label_2
_geom_bond_site_symmetry_1
_geom_bond_site_symmetry_2
C1 C2 1_555 1_555
C2 H1 1_555 1_555
C3 C1 1_555 1_555
C4 C5 1_555 1_555
C5 C6 1_555 1_555
C6 C7 1_555 1_555
C7 C8 1_555 1_555
C8 C9 1_555 1_555
C9 C4 1_555 1_555
C10 C5 1_555 1_555
C11 C7 1_555 1_555
C12 C9 1_555 1_555
C13 C14 1_555 1_555
C14 C15 1_555 1_555
C15 C16 1_555 1_555
C16 C17 1_555 1_555
C17 C18 1_555 1_555
C18 C13 1_555 1_555
C19 C14 1_555 1_555
C20 C16 1_555 1_555
C21 C18 1_555 1_555
B1 C1 1_555 1_555
H2 C3 1_555 1_555
H3 C6 1_555 1_555
H4 C8 1_555 1_555
H5 C10 1_555 1_555
H6 C10 1_555 1_555
H7 C10 1_555 1_555
H8 C11 1_555 1_555
H9 C11 1_555 1_555
H10 C11 1_555 1_555
H11 C12 1_555 1_555
H12 C12 1_555 1_555
H13 C12 1_555 1_555
H14 C15 1_555 1_555
H15 C17 1_555 1_555
H16 C19 1_555 1_555
H17 C19 1_555 1_555
H18 C19 1_555 1_555
H19 C20 1_555 1_555
H20 C20 1_555 1_555
H21 C20 1_555 1_555
H22 C21 1_555 1_555
H23 C21 1_555 1_555
H24 C21 1_555 1_555
C3A C2 1_555 1_555
C1A C3A 1_555 1_555
C2A C3 1_555 1_555
H1A C2A 1_555 1_555
B1A C1A 1_555 1_555
C4A B1A 1_555 1_555
C5A C4A 1_555 1_555
C6A C5A 1_555 1_555
C7A C6A 1_555 1_555
C8A C7A 1_555 1_555
C9A C4A 1_555 1_555
C12A C9A 1_555 1_555
H11A C12A 1_555 1_555
H12A C12A 1_555 1_555
H13A C12A 1_555 1_555
H4A C8A 1_555 1_555
C11A C7A 1_555 1_555
H8A C11A 1_555 1_555
H9A C11A 1_555 1_555
H10A C11A 1_555 1_555
H3A C6A 1_555 1_555
C10A C5A 1_555 1_555
H5A C10A 1_555 1_555
H6A C10A 1_555 1_555
H7A C10A 1_555 1_555
C13A B1A 1_555 1_555
C14A C13A 1_555 1_555
C15A C14A 1_555 1_555
C16A C15A 1_555 1_555
C17A C16A 1_555 1_555
C18A C13A 1_555 1_555
C21A C18A 1_555 1_555
H22A C21A 1_555 1_555
H23A C21A 1_555 1_555
H24A C21A 1_555 1_555
H15A C17A 1_555 1_555
C20A C16A 1_555 1_555
H19A C20A 1_555 1_555
H20A C20A 1_555 1_555
H21A C20A 1_555 1_555
H14A C15A 1_555 1_555
C19A C14A 1_555 1_555
H16A C19A 1_555 1_555
H17A C19A 1_555 1_555
H18A C19A 1_555 1_555
H2A C3A 1_555 1_555
C4 B1 1_555 1_555
C13 B1 1_555 1_555
C1A C2A 1_555 1_555
C8A C9A 1_555 1_555
C17A C18A 1_555 1_555

#END
