
#######################################################################
#
#                 Cambridge Crystallographic Data Centre
#                                CCDC 
#
#######################################################################
#
# If this CIF has been generated from an entry in the Cambridge 
# Structural Database, then it will include bibliographic, chemical, 
# crystal, experimental, refinement or atomic coordinate data resulting 
# from the CCDC's data processing and validation procedures.
#
#######################################################################

data_TIXDOU
_chemical_formula_moiety         'C16 H21 N1 O2'
_chemical_name_systematic        
3,5,5-Trimethyl-7-phenoxy-1-azabicyclo(4.2.0)octan-8-one
_symmetry_cell_setting           monoclinic
_symmetry_space_group_name_H-M   'P 21/c'
_symmetry_Int_Tables_number      14
_space_group_name_Hall           '-P 2ybc'
loop_
_symmetry_equiv_pos_site_id
_symmetry_equiv_pos_as_xyz
1 x,y,z
2 -x,1/2+y,1/2-z
3 -x,-y,-z
4 x,1/2-y,1/2+z
_cell_length_a                   8.9037(3)
_cell_length_b                   9.5546(4)
_cell_length_c                   16.7734(6)
_cell_angle_alpha                90
_cell_angle_beta                 96.3350(10)
_cell_angle_gamma                90
_cell_volume                     1418.22
_exptl_crystal_colour            colorless
_exptl_crystal_description       prism
_cell_formula_units_Z            4
loop_
_atom_site_label
_atom_site_type_symbol
_atom_site_fract_x
_atom_site_fract_y
_atom_site_fract_z
N1 N 0.71432(8) 1.09151(8) 0.00646(4)
C1 C 0.78927(10) 1.14070(10) -0.06057(5)
H1 H 0.7235 1.2080 -0.0928
H2 H 0.8098 1.0609 -0.0955
C2 C 0.93832(10) 1.21193(9) -0.02846(5)
H3 H 1.0123 1.1377 -0.0086
C3 C 0.91306(10) 1.30841(9) 0.04240(5)
H4 H 0.8416 1.3833 0.0226
H5 H 1.0103 1.3536 0.0618
C4 C 0.85089(10) 1.23476(9) 0.11436(5)
C5 C 0.69796(9) 1.17260(9) 0.07969(5)
H6 H 0.6199 1.2475 0.0691
C6 C 0.62724(10) 1.03571(9) 0.11136(5)
H7 H 0.5149 1.0436 0.1093
C7 C 0.67367(9) 0.96600(9) 0.03468(5)
C8 C 1.00312(12) 1.29232(11) -0.09549(6)
H8 H 1.0190 1.2279 -0.1392
H9 H 1.0997 1.3347 -0.0746
H10 H 0.9322 1.3659 -0.1156
C9 C 0.82713(12) 1.34372(10) 0.17891(6)
H11 H 0.7828 1.2983 0.2232
H12 H 0.7588 1.4171 0.1557
H13 H 0.9246 1.3854 0.1991
C10 C 0.96354(10) 1.12337(9) 0.15000(5)
H14 H 0.9396 1.0975 0.2037
H15 H 1.0664 1.1612 0.1536
H16 H 0.9565 1.0404 0.1154
O1 O 0.68958(7) 0.97111(7) 0.18289(4)
C11 C 0.62973(9) 1.00713(9) 0.25232(5)
C12 C 0.52898(10) 1.11707(9) 0.25822(5)
H17 H 0.4974 1.1735 0.2128
C13 C 0.47510(11) 1.14312(10) 0.33174(6)
H18 H 0.4052 1.2171 0.3362
C14 C 0.52224(11) 1.06238(10) 0.39844(6)
H19 H 0.4853 1.0813 0.4483
C15 C 0.62407(11) 0.95325(10) 0.39204(6)
H20 H 0.6566 0.8977 0.4377
C16 C 0.67797(10) 0.92566(9) 0.31922(5)
H21 H 0.7476 0.8514 0.3149
O2 O 0.67085(8) 0.84810(7) 0.00708(4)
loop_
_geom_bond_atom_site_label_1
_geom_bond_atom_site_label_2
_geom_bond_site_symmetry_1
_geom_bond_site_symmetry_2
N1 C1 1_555 1_555
C1 H1 1_555 1_555
H2 C1 1_555 1_555
C2 C1 1_555 1_555
H3 C2 1_555 1_555
C3 C2 1_555 1_555
H4 C3 1_555 1_555
H5 C3 1_555 1_555
C4 C3 1_555 1_555
C5 N1 1_555 1_555
H6 C5 1_555 1_555
C6 C5 1_555 1_555
H7 C6 1_555 1_555
C7 N1 1_555 1_555
C8 C2 1_555 1_555
H8 C8 1_555 1_555
H9 C8 1_555 1_555
H10 C8 1_555 1_555
C9 C4 1_555 1_555
H11 C9 1_555 1_555
H12 C9 1_555 1_555
H13 C9 1_555 1_555
C10 C4 1_555 1_555
H14 C10 1_555 1_555
H15 C10 1_555 1_555
H16 C10 1_555 1_555
O1 C6 1_555 1_555
C11 O1 1_555 1_555
C12 C11 1_555 1_555
H17 C12 1_555 1_555
C13 C12 1_555 1_555
H18 C13 1_555 1_555
C14 C13 1_555 1_555
H19 C14 1_555 1_555
C15 C14 1_555 1_555
H20 C15 1_555 1_555
C16 C11 1_555 1_555
H21 C16 1_555 1_555
O2 C7 1_555 1_555
C4 C5 1_555 1_555
C6 C7 1_555 1_555
C15 C16 1_555 1_555

#END
