
#######################################################################
#
#                 Cambridge Crystallographic Data Centre
#                                CCDC 
#
#######################################################################
#
# If this CIF has been generated from an entry in the Cambridge 
# Structural Database, then it will include bibliographic, chemical, 
# crystal, experimental, refinement or atomic coordinate data resulting 
# from the CCDC's data processing and validation procedures.
#
#######################################################################

data_TIXHEO
_chemical_formula_moiety         'C31 H27 N1 O2 S1'
_chemical_name_systematic        
4-(2,2-Diphenylvinylidene)-2-(p-toluenesulfonyl)-1-methyl-1,2,3,4-tetrahydroisoquinoline
_symmetry_cell_setting           monoclinic
_symmetry_space_group_name_H-M   'P 21/n'
_symmetry_Int_Tables_number      14
_space_group_name_Hall           '-P 2yn'
loop_
_symmetry_equiv_pos_site_id
_symmetry_equiv_pos_as_xyz
1 x,y,z
2 1/2-x,1/2+y,1/2-z
3 -x,-y,-z
4 1/2+x,1/2-y,1/2+z
_cell_length_a                   11.668(4)
_cell_length_b                   9.058(3)
_cell_length_c                   24.293(9)
_cell_angle_alpha                90
_cell_angle_beta                 91.502(6)
_cell_angle_gamma                90
_cell_volume                     2566.61
_exptl_crystal_colour            colorless
_exptl_crystal_description       column
_cell_formula_units_Z            4
loop_
_atom_site_label
_atom_site_type_symbol
_atom_site_fract_x
_atom_site_fract_y
_atom_site_fract_z
S1 S 0.51527(7) 0.75129(8) 0.22129(3)
O1 O 0.42838(19) 0.8559(2) 0.20651(8)
O2 O 0.5903(2) 0.6964(3) 0.18085(8)
N1 N 0.44812(16) 0.6072(2) 0.24546(8)
C1 C 0.5995(2) 0.8270(3) 0.27470(10)
C2 C 0.7050(2) 0.7673(3) 0.28856(12)
H1 H 0.7351 0.6913 0.2676
C3 C 0.7657(3) 0.8209(4) 0.33364(14)
H2 H 0.8360 0.7787 0.3434
C4 C 0.7246(3) 0.9353(4) 0.36450(14)
C5 C 0.6216(3) 0.9953(3) 0.34904(13)
H3 H 0.5939 1.0750 0.3689
C6 C 0.5570(3) 0.9420(3) 0.30498(12)
H4 H 0.4860 0.9832 0.2959
C7 C 0.7902(4) 0.9930(5) 0.41373(15)
H5 H 0.7485 1.0728 0.4298
H6 H 0.8638 1.0277 0.4027
H7 H 0.8004 0.9153 0.4403
C8 C 0.5164(2) 0.4786(3) 0.26324(9)
H8 H 0.5876 0.4797 0.2427
C9 C 0.4532(3) 0.3363(3) 0.24870(12)
H9 H 0.4340 0.3354 0.2100
H10 H 0.3842 0.3305 0.2693
H11 H 0.5013 0.2533 0.2576
C10 C 0.54863(18) 0.4857(2) 0.32383(9)
C11 C 0.6445(2) 0.4095(3) 0.34342(11)
H12 H 0.6867 0.3532 0.3191
C12 C 0.6782(2) 0.4156(3) 0.39768(12)
H13 H 0.7422 0.3630 0.4102
C13 C 0.6174(2) 0.4991(3) 0.43353(11)
H14 H 0.6406 0.5043 0.4704
C14 C 0.5222(2) 0.5755(3) 0.41521(10)
H15 H 0.4816 0.6326 0.4399
C15 C 0.48530(17) 0.5691(2) 0.36032(9)
C16 C 0.38281(18) 0.6500(2) 0.34048(10)
C17 C 0.3500(2) 0.6344(3) 0.27996(10)
H16 H 0.2961 0.5535 0.2755
H17 H 0.3118 0.7240 0.2676
C18 C 0.31790(19) 0.7300(3) 0.37157(10)
C19 C 0.24693(18) 0.8113(3) 0.39910(9)
C20 C 0.2736(2) 0.9700(3) 0.40880(9)
C21 C 0.3740(3) 1.0142(4) 0.43312(16)
H18 H 0.4276 0.9441 0.4448
C22 C 0.3974(3) 1.1637(5) 0.44071(19)
H19 H 0.4666 1.1923 0.4573
C23 C 0.3213(4) 1.2672(4) 0.42444(14)
H20 H 0.3369 1.3668 0.4302
C24 C 0.2233(4) 1.2254(3) 0.39992(12)
H21 H 0.1709 1.2964 0.3878
C25 C 0.1987(3) 1.0784(3) 0.39234(11)
H22 H 0.1292 1.0519 0.3755
C26 C 0.13944(18) 0.7481(2) 0.42049(9)
C27 C 0.0901(2) 0.8062(3) 0.46671(10)
H23 H 0.1243 0.8864 0.4845
C28 C -0.0089(3) 0.7471(4) 0.48672(13)
H24 H -0.0407 0.7863 0.5182
C29 C -0.0606(2) 0.6308(4) 0.46036(14)
H25 H -0.1278 0.5911 0.4739
C30 C -0.0139(2) 0.5726(3) 0.41408(12)
H26 H -0.0495 0.4939 0.3959
C31 C 0.0853(2) 0.6304(3) 0.39459(10)
H27 H 0.1170 0.5897 0.3633
loop_
_geom_bond_atom_site_label_1
_geom_bond_atom_site_label_2
_geom_bond_site_symmetry_1
_geom_bond_site_symmetry_2
S1 O1 1_555 1_555
O2 S1 1_555 1_555
N1 S1 1_555 1_555
C1 S1 1_555 1_555
C2 C1 1_555 1_555
H1 C2 1_555 1_555
C3 C2 1_555 1_555
H2 C3 1_555 1_555
C4 C3 1_555 1_555
C5 C4 1_555 1_555
H3 C5 1_555 1_555
C6 C1 1_555 1_555
H4 C6 1_555 1_555
C7 C4 1_555 1_555
H5 C7 1_555 1_555
H6 C7 1_555 1_555
H7 C7 1_555 1_555
C8 N1 1_555 1_555
H8 C8 1_555 1_555
C9 C8 1_555 1_555
H9 C9 1_555 1_555
H10 C9 1_555 1_555
H11 C9 1_555 1_555
C10 C8 1_555 1_555
C11 C10 1_555 1_555
H12 C11 1_555 1_555
C12 C11 1_555 1_555
H13 C12 1_555 1_555
C13 C12 1_555 1_555
H14 C13 1_555 1_555
C14 C13 1_555 1_555
H15 C14 1_555 1_555
C15 C10 1_555 1_555
C16 C15 1_555 1_555
C17 N1 1_555 1_555
H16 C17 1_555 1_555
H17 C17 1_555 1_555
C18 C16 1_555 1_555
C19 C18 1_555 1_555
C20 C19 1_555 1_555
C21 C20 1_555 1_555
H18 C21 1_555 1_555
C22 C21 1_555 1_555
H19 C22 1_555 1_555
C23 C22 1_555 1_555
H20 C23 1_555 1_555
C24 C23 1_555 1_555
H21 C24 1_555 1_555
C25 C20 1_555 1_555
H22 C25 1_555 1_555
C26 C19 1_555 1_555
C27 C26 1_555 1_555
H23 C27 1_555 1_555
C28 C27 1_555 1_555
H24 C28 1_555 1_555
C29 C28 1_555 1_555
H25 C29 1_555 1_555
C30 C29 1_555 1_555
H26 C30 1_555 1_555
C31 C26 1_555 1_555
H27 C31 1_555 1_555
C5 C6 1_555 1_555
C14 C15 1_555 1_555
C16 C17 1_555 1_555
C24 C25 1_555 1_555
C30 C31 1_555 1_555

#END
