
#######################################################################
#
#                 Cambridge Crystallographic Data Centre
#                                CCDC 
#
#######################################################################
#
# If this CIF has been generated from an entry in the Cambridge 
# Structural Database, then it will include bibliographic, chemical, 
# crystal, experimental, refinement or atomic coordinate data resulting 
# from the CCDC's data processing and validation procedures.
#
#######################################################################

data_TIXKOC
_chemical_formula_moiety         'C25 H28 O9'
_chemical_name_systematic        
'2,3,10,11-Tetramethoxy-5,6,7a,8-tetrahydro-4bH-dibenzo[3,4:5,6]cyclohepta[1,2-b]furan-5,8-diyl diacetate'
_symmetry_cell_setting           monoclinic
_symmetry_space_group_name_H-M   'P 21/c'
_symmetry_Int_Tables_number      14
_space_group_name_Hall           '-P 2ybc'
loop_
_symmetry_equiv_pos_site_id
_symmetry_equiv_pos_as_xyz
1 x,y,z
2 -x,1/2+y,1/2-z
3 -x,-y,-z
4 x,1/2-y,1/2+z
_cell_length_a                   8.7966(3)
_cell_length_b                   8.4402(2)
_cell_length_c                   32.1945(9)
_cell_angle_alpha                90
_cell_angle_beta                 93.9580(10)
_cell_angle_gamma                90
_cell_volume                     2384.58
_exptl_crystal_colour            colorless
_exptl_crystal_description       block
_cell_formula_units_Z            4
loop_
_atom_site_label
_atom_site_type_symbol
_atom_site_fract_x
_atom_site_fract_y
_atom_site_fract_z
O1 O 0.00518(18) 0.8010(2) -0.02425(4)
O2 O -0.24362(17) 0.7877(2) 0.01353(5)
O3 O -0.23388(16) 0.28494(17) 0.19984(4)
O4 O -0.02915(16) 0.36451(17) 0.25652(4)
O5 O 0.48781(18) 0.95339(18) 0.24064(5)
O6 O 0.31269(15) 0.90425(14) 0.18860(4)
O7 O 0.4826(2) 0.2629(2) 0.07238(6)
O8 O 0.25244(16) 0.33568(16) 0.09072(4)
O9 O 0.48961(15) 0.66044(17) 0.12392(4)
C1 C 0.0163(2) 0.5883(2) 0.09255(6)
C2 C -0.1158(2) 0.6555(2) 0.07338(6)
H1 H -0.2046 0.6554 0.0875
C3 C -0.1184(2) 0.7218(3) 0.03427(6)
C4 C 0.0160(2) 0.7265(2) 0.01332(6)
C5 C 0.1454(2) 0.6559(2) 0.03134(6)
H2 H 0.2335 0.6550 0.0170
C6 C 0.1475(2) 0.5856(2) 0.07062(6)
C7 C 0.2915(2) 0.5024(2) 0.08696(6)
H3 H 0.3678 0.5129 0.0664
C8 C 0.3611(2) 0.5607(2) 0.12910(6)
H4 H 0.3941 0.4689 0.1461
C9 C 0.2576(2) 0.6627(2) 0.15359(5)
H5 H 0.2162 0.7447 0.1345
C10 C 0.1236(2) 0.5689(2) 0.16681(6)
C11 C 0.0115(2) 0.5279(2) 0.13606(6)
C12 C -0.1108(2) 0.4344(2) 0.14684(6)
H6 H -0.1872 0.4083 0.1266
C13 C -0.1201(2) 0.3804(2) 0.18693(6)
C14 C -0.0080(2) 0.4241(2) 0.21787(6)
C15 C 0.1116(2) 0.5170(2) 0.20769(6)
H7 H 0.1859 0.5460 0.2283
C16 C 0.3687(2) 0.7445(2) 0.18445(6)
H8 H 0.3762 0.6894 0.2113
C17 C 0.5194(2) 0.7363(3) 0.16328(7)
H9 H 0.5591 0.8421 0.1594
H10 H 0.5942 0.6764 0.1804
C18 C 0.1386(3) 0.8130(3) -0.04589(8)
H11 H 0.1162 0.8684 -0.0716
H12 H 0.1755 0.7087 -0.0516
H13 H 0.2150 0.8699 -0.0292
C19 C -0.3832(3) 0.7763(4) 0.03235(9)
H14 H -0.4618 0.8273 0.0150
H15 H -0.3740 0.8271 0.0591
H16 H -0.4088 0.6667 0.0358
C20 C -0.3391(3) 0.2262(3) 0.16873(8)
H17 H -0.4132 0.1616 0.1813
H18 H -0.2865 0.1637 0.1494
H19 H -0.3895 0.3132 0.1543
C21 C 0.0729(3) 0.4152(3) 0.29010(6)
H20 H 0.0471 0.3640 0.3153
H21 H 0.0651 0.5279 0.2933
H22 H 0.1753 0.3879 0.2844
C22 C 0.3774(3) 0.9938(2) 0.21937(7)
C23 C 0.2948(3) 1.1463(3) 0.22255(8)
H23 H 0.3427 1.2085 0.2447
H24 H 0.1909 1.1258 0.2282
H25 H 0.2973 1.2032 0.1968
C24 C 0.3573(3) 0.2280(3) 0.08137(7)
C25 C 0.2954(3) 0.0645(3) 0.08394(8)
H26 H 0.3724 -0.0105 0.0775
H27 H 0.2087 0.0531 0.0644
H28 H 0.2652 0.0454 0.1116
loop_
_geom_bond_atom_site_label_1
_geom_bond_atom_site_label_2
_geom_bond_site_symmetry_1
_geom_bond_site_symmetry_2
O1 C4 1_555 1_555
O2 C3 1_555 1_555
O3 C13 1_555 1_555
O4 C14 1_555 1_555
O5 C22 1_555 1_555
O6 C16 1_555 1_555
O7 C24 1_555 1_555
O8 C7 1_555 1_555
O9 C8 1_555 1_555
C1 C2 1_555 1_555
C2 H1 1_555 1_555
C3 C2 1_555 1_555
C4 C3 1_555 1_555
C5 C4 1_555 1_555
H2 C5 1_555 1_555
C6 C1 1_555 1_555
C7 C6 1_555 1_555
H3 C7 1_555 1_555
C8 C7 1_555 1_555
H4 C8 1_555 1_555
C9 C8 1_555 1_555
H5 C9 1_555 1_555
C10 C9 1_555 1_555
C11 C1 1_555 1_555
C12 C11 1_555 1_555
H6 C12 1_555 1_555
C13 C12 1_555 1_555
C14 C13 1_555 1_555
C15 C10 1_555 1_555
H7 C15 1_555 1_555
C16 C9 1_555 1_555
H8 C16 1_555 1_555
C17 O9 1_555 1_555
H9 C17 1_555 1_555
H10 C17 1_555 1_555
C18 O1 1_555 1_555
H11 C18 1_555 1_555
H12 C18 1_555 1_555
H13 C18 1_555 1_555
C19 O2 1_555 1_555
H14 C19 1_555 1_555
H15 C19 1_555 1_555
H16 C19 1_555 1_555
C20 O3 1_555 1_555
H17 C20 1_555 1_555
H18 C20 1_555 1_555
H19 C20 1_555 1_555
C21 O4 1_555 1_555
H20 C21 1_555 1_555
H21 C21 1_555 1_555
H22 C21 1_555 1_555
C22 O6 1_555 1_555
C23 C22 1_555 1_555
H23 C23 1_555 1_555
H24 C23 1_555 1_555
H25 C23 1_555 1_555
C24 O8 1_555 1_555
C25 C24 1_555 1_555
H26 C25 1_555 1_555
H27 C25 1_555 1_555
H28 C25 1_555 1_555
C5 C6 1_555 1_555
C10 C11 1_555 1_555
C14 C15 1_555 1_555
C16 C17 1_555 1_555

#END
