
#######################################################################
#
#                 Cambridge Crystallographic Data Centre
#                                CCDC 
#
#######################################################################
#
# If this CIF has been generated from an entry in the Cambridge 
# Structural Database, then it will include bibliographic, chemical, 
# crystal, experimental, refinement or atomic coordinate data resulting 
# from the CCDC's data processing and validation procedures.
#
#######################################################################

data_TIXQUO
_chemical_formula_moiety         'C25 H18 N1 1+,C1 F3 O3 S1 1-'
_chemical_name_systematic        
'6,7-Diphenylpyrido[2,1-a]isoquinolinium trifluoromethanesulfonate'
_symmetry_cell_setting           monoclinic
_symmetry_space_group_name_H-M   'C 2/c'
_symmetry_Int_Tables_number      15
_space_group_name_Hall           '-C 2yn'
loop_
_symmetry_equiv_pos_site_id
_symmetry_equiv_pos_as_xyz
1 x,y,z
2 -x,y,1/2-z
3 1/2+x,1/2+y,z
4 1/2-x,1/2+y,1/2-z
5 -x,-y,-z
6 x,-y,1/2+z
7 1/2-x,1/2-y,-z
8 1/2+x,1/2-y,1/2+z
_cell_length_a                   15.122(2)
_cell_length_b                   9.2388(9)
_cell_length_c                   32.256(4)
_cell_angle_alpha                90
_cell_angle_beta                 104.272(14)
_cell_angle_gamma                90
_cell_volume                     4367.37
_exptl_crystal_colour            'light yellow'
_exptl_crystal_description       block
_cell_formula_units_Z            8
loop_
_atom_site_label
_atom_site_type_symbol
_atom_site_fract_x
_atom_site_fract_y
_atom_site_fract_z
S1 S -0.4785(3) 1.2831(3) 0.09408(9)
F1 F -0.4923(5) 1.0724(6) 0.04266(16)
F2 F -0.6024(5) 1.1249(10) 0.0781(2)
F3 F -0.4652(4) 1.0094(5) 0.10754(18)
O1 O -0.3668(5) 1.2328(13) 0.0930(3)
O2 O -0.5147(5) 1.3725(6) 0.0594(2)
O3 O -0.4887(6) 1.3085(9) 0.1343(2)
C1 C -0.4985(8) 1.1102(10) 0.0803(3)
N1 N -0.1702(4) 1.0904(6) 0.08000(16)
C2 C -0.1186(5) 1.1909(7) 0.0642(2)
H1 H -0.0807 1.2543 0.0829
C3 C -0.1232(5) 1.1976(8) 0.0215(2)
H2 H -0.0873 1.2639 0.0114
C4 C -0.1803(6) 1.1075(9) -0.0066(2)
H3 H -0.1843 1.1149 -0.0358
C5 C -0.2311(6) 1.0072(8) 0.0080(2)
H4 H -0.2694 0.9461 -0.0114
C6 C -0.2267(5) 0.9941(7) 0.05249(19)
C7 C -0.2750(5) 0.8858(7) 0.0696(2)
C8 C -0.3350(5) 0.7877(8) 0.0434(2)
H5 H -0.3453 0.7952 0.0138
C9 C -0.3781(5) 0.6821(8) 0.0604(3)
H6 H -0.4175 0.6185 0.0425
C10 C -0.3631(5) 0.6696(8) 0.1045(3)
H7 H -0.3915 0.5964 0.1162
C11 C -0.3072(5) 0.7638(7) 0.1303(2)
H8 H -0.2981 0.7553 0.1598
C12 C -0.2625(4) 0.8747(6) 0.11360(18)
C13 C -0.2063(4) 0.9786(6) 0.14087(18)
C14 C -0.1634(4) 1.0851(6) 0.12514(17)
C15 C -0.1101(4) 1.2020(6) 0.15153(18)
C16 C -0.1481(5) 1.3405(7) 0.1498(2)
H9 H -0.2069 1.3568 0.1333
C17 C -0.0992(7) 1.4519(8) 0.1722(2)
H10 H -0.1240 1.5443 0.1711
C18 C -0.0116(7) 1.4243(10) 0.1967(3)
H11 H 0.0224 1.4999 0.2118
C19 C 0.0258(6) 1.2893(10) 0.1993(2)
H12 H 0.0843 1.2728 0.2163
C20 C -0.0237(5) 1.1776(8) 0.17652(19)
H13 H 0.0013 1.0853 0.1781
C21 C -0.1966(4) 0.9686(6) 0.18815(18)
C22 C -0.1313(5) 0.8802(7) 0.2133(2)
H14 H -0.0915 0.8291 0.2009
C23 C -0.1244(5) 0.8664(8) 0.2567(2)
H15 H -0.0799 0.8070 0.2734
C24 C -0.1828(6) 0.9400(8) 0.2749(2)
H16 H -0.1783 0.9310 0.3041
C25 C -0.2486(6) 1.0279(9) 0.2504(2)
H17 H -0.2890 1.0765 0.2631
C26 C -0.2556(5) 1.0449(8) 0.2069(2)
H18 H -0.2992 1.1066 0.1906
loop_
_geom_bond_atom_site_label_1
_geom_bond_atom_site_label_2
_geom_bond_site_symmetry_1
_geom_bond_site_symmetry_2
S1 O1 1_555 1_555
F1 C1 1_555 1_555
F2 C1 1_555 1_555
F3 C1 1_555 1_555
O2 S1 1_555 1_555
O3 S1 1_555 1_555
C1 S1 1_555 1_555
N1 C2 1_555 1_555
C2 H1 1_555 1_555
C3 C2 1_555 1_555
H2 C3 1_555 1_555
C4 C3 1_555 1_555
H3 C4 1_555 1_555
C5 C4 1_555 1_555
H4 C5 1_555 1_555
C6 N1 1_555 1_555
C7 C6 1_555 1_555
C8 C7 1_555 1_555
H5 C8 1_555 1_555
C9 C8 1_555 1_555
H6 C9 1_555 1_555
C10 C9 1_555 1_555
H7 C10 1_555 1_555
C11 C10 1_555 1_555
H8 C11 1_555 1_555
C12 C7 1_555 1_555
C13 C12 1_555 1_555
C14 N1 1_555 1_555
C15 C14 1_555 1_555
C16 C15 1_555 1_555
H9 C16 1_555 1_555
C17 C16 1_555 1_555
H10 C17 1_555 1_555
C18 C17 1_555 1_555
H11 C18 1_555 1_555
C19 C18 1_555 1_555
H12 C19 1_555 1_555
C20 C15 1_555 1_555
H13 C20 1_555 1_555
C21 C13 1_555 1_555
C22 C21 1_555 1_555
H14 C22 1_555 1_555
C23 C22 1_555 1_555
H15 C23 1_555 1_555
C24 C23 1_555 1_555
H16 C24 1_555 1_555
C25 C24 1_555 1_555
H17 C25 1_555 1_555
C26 C21 1_555 1_555
H18 C26 1_555 1_555
C5 C6 1_555 1_555
C11 C12 1_555 1_555
C13 C14 1_555 1_555
C19 C20 1_555 1_555
C25 C26 1_555 1_555

#END
