
#######################################################################
#
#                 Cambridge Crystallographic Data Centre
#                                CCDC 
#
#######################################################################
#
# If this CIF has been generated from an entry in the Cambridge 
# Structural Database, then it will include bibliographic, chemical, 
# crystal, experimental, refinement or atomic coordinate data resulting 
# from the CCDC's data processing and validation procedures.
#
#######################################################################

data_TIXQEY
_chemical_formula_moiety         'C14 H8 N2'
_chemical_name_systematic        indolo[3,2-b]indole
_symmetry_cell_setting           monoclinic
_symmetry_space_group_name_H-M   'P 21/c'
_symmetry_Int_Tables_number      14
_space_group_name_Hall           '-P 2ybc'
loop_
_symmetry_equiv_pos_site_id
_symmetry_equiv_pos_as_xyz
1 x,y,z
2 -x,1/2+y,1/2-z
3 -x,-y,-z
4 x,1/2-y,1/2+z
_cell_length_a                   7.149(2)
_cell_length_b                   4.8716(16)
_cell_length_c                   14.555(5)
_cell_angle_alpha                90
_cell_angle_beta                 98.578(6)
_cell_angle_gamma                90
_cell_volume                     501.238
_exptl_crystal_colour            brown
_cell_formula_units_Z            2
_exptl_crystal_recrystallization_method 'Vapour Deposition'
loop_
_atom_site_label
_atom_site_type_symbol
_atom_site_fract_x
_atom_site_fract_y
_atom_site_fract_z
C1 C 0.0452(4) 0.1975(5) 0.10005(18)
C2 C 0.0731(4) -0.0014(6) 0.16558(19)
H1 H -0.0269 -0.0650 0.1939
C3 C 0.2537(4) -0.1087(6) 0.1898(2)
H2 H 0.2747 -0.2442 0.2352
C4 C 0.4009(4) -0.0182(6) 0.1479(2)
H3 H 0.5204 -0.0943 0.1649
C5 C 0.3752(4) 0.1879(6) 0.0796(2)
H4 H 0.4757 0.2503 0.0515
C6 C 0.1951(4) 0.2946(5) 0.05572(18)
C7 C 0.0971(4) 0.5056(5) -0.00849(18)
N1 N -0.1378(3) 0.3264(5) 0.06923(17)
C1B C -0.0452(4) 0.8025(5) -0.10005(18)
C2B C -0.0731(4) 1.0014(6) -0.16558(19)
H1B H 0.0269 1.0650 -0.1939
C3B C -0.2537(4) 1.1087(6) -0.1898(2)
H2B H -0.2747 1.2442 -0.2352
C4B C -0.4009(4) 1.0182(6) -0.1479(2)
H3B H -0.5204 1.0943 -0.1649
C5B C -0.3752(4) 0.8121(6) -0.0796(2)
H4B H -0.4757 0.7497 -0.0515
C6B C -0.1951(4) 0.7054(5) -0.05572(18)
C7B C -0.0971(4) 0.4944(5) 0.00849(18)
N1B N 0.1378(3) 0.6736(5) -0.06923(17)
loop_
_geom_bond_atom_site_label_1
_geom_bond_atom_site_label_2
_geom_bond_site_symmetry_1
_geom_bond_site_symmetry_2
C1 C2 1_555 1_555
C2 H1 1_555 1_555
C3 C2 1_555 1_555
H2 C3 1_555 1_555
C4 C3 1_555 1_555
H3 C4 1_555 1_555
C5 C4 1_555 1_555
H4 C5 1_555 1_555
C6 C1 1_555 1_555
C7 C6 1_555 1_555
N1 C1 1_555 1_555
C1B C2B 1_555 1_555
C2B H1B 1_555 1_555
C3B C2B 1_555 1_555
H2B C3B 1_555 1_555
C4B C3B 1_555 1_555
H3B C4B 1_555 1_555
C5B C4B 1_555 1_555
H4B C5B 1_555 1_555
C6B C1B 1_555 1_555
C7B C7 1_555 1_555
N1B C7 1_555 1_555
C5 C6 1_555 1_555
N1 C7B 1_555 1_555
C1B N1B 1_555 1_555
C5B C6B 1_555 1_555
C6B C7B 1_555 1_555

#END
