
#######################################################################
#
#                 Cambridge Crystallographic Data Centre
#                                CCDC 
#
#######################################################################
#
# If this CIF has been generated from an entry in the Cambridge 
# Structural Database, then it will include bibliographic, chemical, 
# crystal, experimental, refinement or atomic coordinate data resulting 
# from the CCDC's data processing and validation procedures.
#
#######################################################################

data_TIXQEW
_chemical_formula_moiety         'C8 H6 F3 N3 S2'
_chemical_name_systematic        
5-Trifluoromethyl-5-phenyl-4H-1,3,2,4,6-dithiatriazine
_symmetry_cell_setting           triclinic
_symmetry_space_group_name_H-M   'P -1'
_symmetry_Int_Tables_number      2
_space_group_name_Hall           '-P 1'
loop_
_symmetry_equiv_pos_site_id
_symmetry_equiv_pos_as_xyz
1 x,y,z
2 -x,-y,-z
_cell_length_a                   7.715(3)
_cell_length_b                   15.594(5)
_cell_length_c                   15.598(4)
_cell_angle_alpha                117.45
_cell_angle_beta                 98.88
_cell_angle_gamma                99.74
_cell_volume                     1582.3
_exptl_crystal_colour            yellow-green
_chemical_melting_point          80-81deg.C
_cell_formula_units_Z            6
loop_
_atom_site_label
_atom_site_type_symbol
_atom_site_fract_x
_atom_site_fract_y
_atom_site_fract_z
S1 S 0.6954 -0.0958 0.0829
S2 S 0.9564 0.0529 0.2579
N1 N 0.6142 -0.1324 0.1490
N2 N 0.8658 -0.0047 0.1350
N3 N 0.7880 0.0235 0.3055
F1 F 0.4271 -0.0536 0.2895
F2 F 0.6081 -0.0644 0.3998
F3 F 0.4591 -0.1959 0.2605
C1 C 0.8422 -0.1401 0.2736
C2 C 0.8228 -0.2397 0.2077
C3 C 0.9462 -0.2881 0.2278
C4 C 1.0820 -0.2405 0.3137
C5 C 1.1008 -0.1424 0.3817
C6 C 0.9810 -0.0911 0.3635
C7 C 0.7060 -0.0878 0.2549
C8 C 0.5513 -0.1003 0.3020
loop_
_geom_bond_atom_site_label_1
_geom_bond_atom_site_label_2
_geom_bond_site_symmetry_1
_geom_bond_site_symmetry_2
S1 N1 1_555 1_555
S2 N2 1_555 1_555
N1 C7 1_555 1_555
N2 S1 1_555 1_555
N3 S2 1_555 1_555
F1 C8 1_555 1_555
F2 C8 1_555 1_555
F3 C8 1_555 1_555
C1 C2 1_555 1_555
C2 C3 1_555 1_555
C3 C4 1_555 1_555
C4 C5 1_555 1_555
C5 C6 1_555 1_555
C6 C1 1_555 1_555
C7 N3 1_555 1_555
C8 C7 1_555 1_555
C1 C7 1_555 1_555

#END
