
#######################################################################
#
#                 Cambridge Crystallographic Data Centre
#                                CCDC 
#
#######################################################################
#
# If this CIF has been generated from an entry in the Cambridge 
# Structural Database, then it will include bibliographic, chemical, 
# crystal, experimental, refinement or atomic coordinate data resulting 
# from the CCDC's data processing and validation procedures.
#
#######################################################################

data_TIYDAI
_chemical_formula_moiety         'C3 H4 Cl2 N4 O4'
_chemical_name_systematic        
(Z)-N',2-Dichloro-N-methyl-2,2-dinitroacetimidamide
_symmetry_cell_setting           monoclinic
_symmetry_space_group_name_H-M   'C c'
_symmetry_Int_Tables_number      9
_space_group_name_Hall           'C -2yc'
loop_
_symmetry_equiv_pos_site_id
_symmetry_equiv_pos_as_xyz
1 x,y,z
2 x,-y,1/2+z
3 1/2+x,1/2+y,z
4 1/2+x,1/2-y,1/2+z
_cell_length_a                   5.9328(12)
_cell_length_b                   16.786(3)
_cell_length_c                   8.4872(17)
_cell_angle_alpha                90
_cell_angle_beta                 100.468(2)
_cell_angle_gamma                90
_cell_volume                     831.156
_exptl_crystal_colour            colorless
_exptl_crystal_description       plate
_cell_formula_units_Z            4
loop_
_atom_site_label
_atom_site_type_symbol
_atom_site_fract_x
_atom_site_fract_y
_atom_site_fract_z
Cl1 Cl 0.58588(6) 0.52180(2) 0.56613(4)
N1 N 0.7578(2) 0.45379(8) 0.68453(15)
C1 C 0.8887(3) 0.41373(9) 0.60702(17)
N2 N 0.9143(3) 0.42009(8) 0.45493(16)
H1 H 0.8341 0.4583 0.4001
C2 C 1.0555(3) 0.37313(11) 0.3653(2)
H2 H 0.9902 0.3755 0.2508
H3 H 1.0596 0.3176 0.4016
H4 H 1.2116 0.3947 0.3835
C3 C 1.0267(3) 0.35076(8) 0.71361(18)
Cl2 Cl 1.31931(6) 0.35663(3) 0.72662(5)
N3 N 0.9719(2) 0.35814(7) 0.88638(15)
O1 O 0.8205(2) 0.31545(7) 0.91777(14)
O2 O 1.0851(2) 0.40617(7) 0.97316(13)
N4 N 0.9377(3) 0.26644(8) 0.66098(16)
O3 O 1.0588(3) 0.21071(7) 0.70952(17)
O4 O 0.7465(2) 0.26430(7) 0.57813(16)
loop_
_geom_bond_atom_site_label_1
_geom_bond_atom_site_label_2
_geom_bond_site_symmetry_1
_geom_bond_site_symmetry_2
Cl1 N1 1_555 1_555
N1 C1 1_555 1_555
C1 N2 1_555 1_555
N2 H1 1_555 1_555
C2 N2 1_555 1_555
H2 C2 1_555 1_555
H3 C2 1_555 1_555
H4 C2 1_555 1_555
C3 C1 1_555 1_555
Cl2 C3 1_555 1_555
N3 C3 1_555 1_555
O1 N3 1_555 1_555
O2 N3 1_555 1_555
N4 C3 1_555 1_555
O3 N4 1_555 1_555
O4 N4 1_555 1_555

#END
