
#######################################################################
#
#                 Cambridge Crystallographic Data Centre
#                                CCDC 
#
#######################################################################
#
# If this CIF has been generated from an entry in the Cambridge 
# Structural Database, then it will include bibliographic, chemical, 
# crystal, experimental, refinement or atomic coordinate data resulting 
# from the CCDC's data processing and validation procedures.
#
#######################################################################

data_TIYJUI
_chemical_formula_moiety         'C24 H20 N2 O6 S1'
_chemical_name_systematic        
2-(4-Methoxyphenyl)-3-methyl-1'-((4-nitrophenyl)sulfonyl)spiro[cyclopropane-1,3'-indol]-2'(1'H)-one
_symmetry_cell_setting           orthorhombic
_symmetry_space_group_name_H-M   'P 21 21 21'
_symmetry_Int_Tables_number      19
_space_group_name_Hall           'P 2ac 2ab'
loop_
_symmetry_equiv_pos_site_id
_symmetry_equiv_pos_as_xyz
1 x,y,z
2 1/2-x,-y,1/2+z
3 -x,1/2+y,1/2-z
4 1/2+x,1/2-y,-z
_cell_length_a                   11.2515(5)
_cell_length_b                   12.1303(6)
_cell_length_c                   16.1131(8)
_cell_angle_alpha                90
_cell_angle_beta                 90
_cell_angle_gamma                90
_cell_volume                     2199.18
_exptl_crystal_colour            colorless
_exptl_crystal_description       block
_cell_formula_units_Z            4
loop_
_atom_site_label
_atom_site_type_symbol
_atom_site_fract_x
_atom_site_fract_y
_atom_site_fract_z
S1 S 0.83639(6) 0.14749(6) 0.10205(5)
O1 O 0.91517(19) 0.17948(18) 0.03824(16)
O2 O 0.88026(19) 0.12207(16) 0.18261(14)
O3 O 0.4536(2) 0.55508(18) 0.06785(19)
O4 O 0.4299(2) 0.5192(2) 0.19805(18)
O5 O 0.7903(2) -0.58527(15) -0.14436(13)
O6 O 0.7149(2) 0.10340(16) -0.06145(12)
N1 N 0.4762(2) 0.5027(2) 0.1315(2)
N2 N 0.7608(2) 0.03669(17) 0.06985(14)
C1 C 0.7451(2) -0.0668(2) 0.11251(16)
C2 C 0.7819(3) -0.0979(3) 0.19017(18)
H1 H 0.8228 -0.0493 0.2245
C3 C 0.7562(3) -0.2039(3) 0.21565(19)
H2 H 0.7801 -0.2271 0.2681
C4 C 0.6962(3) -0.2756(3) 0.16504(19)
H3 H 0.6800 -0.3466 0.1836
C5 C 0.6595(3) -0.2438(2) 0.08698(17)
H4 H 0.6187 -0.2927 0.0528
C6 C 0.6843(2) -0.1378(2) 0.06041(15)
C7 C 0.6585(2) -0.0820(2) -0.01930(15)
C8 C 0.7116(3) 0.0294(2) -0.01144(17)
C9 C 0.7263(2) 0.2504(2) 0.11106(15)
C10 C 0.7065(2) 0.3189(2) 0.04439(18)
H5 H 0.7478 0.3087 -0.0050
C11 C 0.6249(2) 0.4029(2) 0.05172(18)
H6 H 0.6104 0.4508 0.0078
C12 C 0.5653(2) 0.4139(2) 0.12568(18)
C13 C 0.5838(2) 0.3463(2) 0.19215(17)
H7 H 0.5417 0.3561 0.2413
C14 C 0.6665(3) 0.2629(2) 0.18447(16)
H8 H 0.6816 0.2157 0.2287
C15 C 0.8094(2) -0.2916(2) -0.09361(16)
H9 H 0.8640 -0.2409 -0.0730
C16 C 0.8438(2) -0.3995(2) -0.10362(15)
H10 H 0.9210 -0.4205 -0.0903
C17 C 0.7654(2) -0.4762(2) -0.13293(15)
C18 C 0.6508(3) -0.4435(2) -0.15232(17)
H11 H 0.5963 -0.4946 -0.1723
C19 C 0.6174(3) -0.3342(2) -0.14183(17)
H12 H 0.5401 -0.3127 -0.1543
C20 C 0.6976(2) -0.2568(2) -0.11303(14)
C21 C 0.6628(2) -0.1384(2) -0.10565(15)
H13 H 0.6935 -0.0913 -0.1501
C22 C 0.5483(2) -0.1029(2) -0.07204(16)
H14 H 0.4991 -0.1639 -0.0517
C23 C 0.4764(3) -0.0101(3) -0.1116(2)
H15 H 0.4103 -0.0407 -0.1414
H16 H 0.5261 0.0304 -0.1492
H17 H 0.4477 0.0385 -0.0690
C24 C 0.9078(3) -0.6204(3) -0.1282(2)
H18 H 0.9143 -0.6980 -0.1389
H19 H 0.9271 -0.6060 -0.0711
H20 H 0.9619 -0.5810 -0.1634
loop_
_geom_bond_atom_site_label_1
_geom_bond_atom_site_label_2
_geom_bond_site_symmetry_1
_geom_bond_site_symmetry_2
S1 O1 1_555 1_555
O2 S1 1_555 1_555
O3 N1 1_555 1_555
O4 N1 1_555 1_555
O5 C17 1_555 1_555
O6 C8 1_555 1_555
N1 C12 1_555 1_555
N2 S1 1_555 1_555
C1 N2 1_555 1_555
C2 C1 1_555 1_555
H1 C2 1_555 1_555
C3 C2 1_555 1_555
H2 C3 1_555 1_555
C4 C3 1_555 1_555
H3 C4 1_555 1_555
C5 C4 1_555 1_555
H4 C5 1_555 1_555
C6 C1 1_555 1_555
C7 C6 1_555 1_555
C8 N2 1_555 1_555
C9 S1 1_555 1_555
C10 C9 1_555 1_555
H5 C10 1_555 1_555
C11 C10 1_555 1_555
H6 C11 1_555 1_555
C12 C11 1_555 1_555
C13 C12 1_555 1_555
H7 C13 1_555 1_555
C14 C9 1_555 1_555
H8 C14 1_555 1_555
C15 H9 1_555 1_555
C16 C15 1_555 1_555
H10 C16 1_555 1_555
C17 C16 1_555 1_555
C18 C17 1_555 1_555
H11 C18 1_555 1_555
C19 C18 1_555 1_555
H12 C19 1_555 1_555
C20 C15 1_555 1_555
C21 C7 1_555 1_555
H13 C21 1_555 1_555
C22 C7 1_555 1_555
H14 C22 1_555 1_555
C23 C22 1_555 1_555
H15 C23 1_555 1_555
H16 C23 1_555 1_555
H17 C23 1_555 1_555
C24 O5 1_555 1_555
H18 C24 1_555 1_555
H19 C24 1_555 1_555
H20 C24 1_555 1_555
C5 C6 1_555 1_555
C7 C8 1_555 1_555
C13 C14 1_555 1_555
C19 C20 1_555 1_555
C20 C21 1_555 1_555
C21 C22 1_555 1_555

#END
