
#######################################################################
#
#                 Cambridge Crystallographic Data Centre
#                                CCDC 
#
#######################################################################
#
# If this CIF has been generated from an entry in the Cambridge 
# Structural Database, then it will include bibliographic, chemical, 
# crystal, experimental, refinement or atomic coordinate data resulting 
# from the CCDC's data processing and validation procedures.
#
#######################################################################

data_TIYKAP
_chemical_formula_moiety         'C23 H16 Br1 N1 O3 S1'
_chemical_name_systematic        
1'-((4-Bromophenyl)sulfonyl)-6,6a-dihydro-1aH-spiro[cyclopropa[a]indene-1,3'-indol]-2'(1'H)-one
_symmetry_cell_setting           monoclinic
_symmetry_space_group_name_H-M   'P 21'
_symmetry_Int_Tables_number      4
_space_group_name_Hall           'P 2yb'
loop_
_symmetry_equiv_pos_site_id
_symmetry_equiv_pos_as_xyz
1 x,y,z
2 -x,1/2+y,-z
_cell_length_a                   9.4359(13)
_cell_length_b                   7.5627(11)
_cell_length_c                   27.646(4)
_cell_angle_alpha                90
_cell_angle_beta                 97.115(4)
_cell_angle_gamma                90
_cell_volume                     1957.65
_exptl_crystal_colour            colorless
_exptl_crystal_description       block
_cell_formula_units_Z            4
loop_
_atom_site_label
_atom_site_type_symbol
_atom_site_fract_x
_atom_site_fract_y
_atom_site_fract_z
N1 N 1.2767(10) -0.0184(14) 0.9441(4)
Br1 Br 1.0511(3) 0.6066(2) 0.76230(7)
S1 S 1.2399(3) -0.0811(4) 0.88503(11)
O1 O 1.3744(10) -0.1354(14) 0.8712(3)
O2 O 1.1222(10) -0.2047(13) 0.8810(4)
O3 O 1.0384(8) 0.0096(14) 0.9576(3)
C1 C 1.2742(14) 0.020(2) 1.1351(5)
C2 C 1.3547(19) 0.009(3) 1.1779(6)
H1 H 1.3819 0.1105 1.1958
C3 C 1.398(2) -0.160(4) 1.1953(6)
H2 H 1.4587 -0.1717 1.2243
C4 C 1.350(2) -0.304(3) 1.1700(7)
H3 H 1.3760 -0.4154 1.1825
C5 C 1.2641(16) -0.2928(19) 1.1261(5)
H4 H 1.2315 -0.3946 1.1094
C6 C 1.2269(12) -0.128(2) 1.1072(4)
C7 C 1.1456(11) -0.0810(16) 1.0606(4)
H5 H 1.0591 -0.1471 1.0485
C8 C 1.1461(14) 0.1163(18) 1.0584(5)
H6 H 1.0580 0.1748 1.0442
C9 C 1.2200(17) 0.1893(18) 1.1050(6)
H7 H 1.1545 0.2572 1.1221
H8 H 1.2994 0.2643 1.0990
C10 C 1.2320(10) 0.0191(14) 1.0239(4)
C11 C 1.1617(13) 0.0044(16) 0.9724(4)
C12 C 1.4106(11) -0.0043(14) 0.9729(4)
C13 C 1.3908(11) 0.0118(14) 1.0217(4)
C14 C 1.5045(13) 0.0286(15) 1.0558(5)
H9 H 1.4921 0.0448 1.0884
C15 C 1.6400(13) 0.0215(17) 1.0419(5)
H10 H 1.7183 0.0225 1.0659
C16 C 1.6632(11) 0.0131(17) 0.9940(5)
H11 H 1.7552 0.0205 0.9853
C17 C 1.5448(12) -0.0069(17) 0.9583(5)
H12 H 1.5568 -0.0215 0.9257
C18 C 1.1849(11) 0.1123(18) 0.8548(4)
C19 C 1.0490(12) 0.121(2) 0.8295(5)
H13 H 0.9843 0.0289 0.8311
C20 C 1.0125(15) 0.268(2) 0.8019(6)
H14 H 0.9229 0.2744 0.7836
C21 C 1.1058(16) 0.407(2) 0.8006(5)
C22 C 1.2405(16) 0.401(2) 0.8264(5)
H15 H 1.3029 0.4958 0.8259
C23 C 1.2808(17) 0.2533(18) 0.8527(5)
H16 H 1.3724 0.2457 0.8695
N2 N 0.8266(9) 1.5081(13) 0.5538(3)
Br2 Br 0.72836(18) 0.86313(19) 0.73014(5)
S2 S 0.8360(4) 1.5647(4) 0.61292(11)
O4 O 0.9802(10) 1.6201(13) 0.6276(3)
O5 O 0.7193(12) 1.6820(13) 0.6185(3)
O6 O 0.5756(9) 1.4811(15) 0.5415(3)
C24 C 0.6532(11) 1.6254(16) 0.3908(4)
C25 C 0.6738(15) 1.7914(19) 0.3717(5)
H17 H 0.6656 1.8927 0.3903
C26 C 0.7067(17) 1.803(2) 0.3249(6)
H18 H 0.7156 1.9153 0.3116
C27 C 0.7271(15) 1.660(3) 0.2967(6)
H19 H 0.7506 1.6738 0.2652
C28 C 0.7108(16) 1.481(3) 0.3173(5)
H20 H 0.7256 1.3788 0.3000
C29 C 0.6724(13) 1.4765(17) 0.3636(4)
C30 C 0.6469(14) 1.3093(17) 0.3901(5)
H21 H 0.7322 1.2366 0.3949
H22 H 0.5693 1.2414 0.3729
C31 C 0.6066(11) 1.3823(16) 0.4399(4)
H23 H 0.5289 1.3246 0.4543
C32 C 0.6081(11) 1.5747(16) 0.4376(4)
H24 H 0.5321 1.6418 0.4504
C33 C 0.7209(10) 1.4772(15) 0.4735(4)
C34 C 0.6886(13) 1.4925(17) 0.5250(4)
C35 C 0.9369(11) 1.4993(14) 0.5245(4)
C36 C 1.0858(12) 1.4960(18) 0.5384(5)
H25 H 1.1250 1.4979 0.5710
C37 C 1.1701(12) 1.4901(16) 0.5013(5)
H26 H 1.2687 1.4966 0.5092
C38 C 1.1162(12) 1.4751(17) 0.4535(6)
H27 H 1.1769 1.4656 0.4296
C39 C 0.9702(13) 1.4741(18) 0.4412(5)
H28 H 0.9329 1.4693 0.4085
C40 C 0.8781(11) 1.4800(13) 0.4761(4)
C41 C 0.8072(11) 1.3664(18) 0.6433(4)
C42 C 0.6758(13) 1.341(2) 0.6603(5)
H29 H 0.6040 1.4251 0.6548
C43 C 0.6552(16) 1.192(2) 0.6847(5)
H30 H 0.5677 1.1740 0.6961
C44 C 0.7594(13) 1.0663(16) 0.6933(4)
C45 C 0.8861(14) 1.087(2) 0.6782(6)
H31 H 0.9569 1.0016 0.6851
C46 C 0.9131(15) 1.246(2) 0.6506(6)
H32 H 0.9998 1.2628 0.6386
loop_
_geom_bond_atom_site_label_1
_geom_bond_atom_site_label_2
_geom_bond_site_symmetry_1
_geom_bond_site_symmetry_2
N1 S1 1_555 1_555
Br1 C21 1_555 1_555
S1 O1 1_555 1_555
O2 S1 1_555 1_555
O3 C11 1_555 1_555
C1 C2 1_555 1_555
C2 H1 1_555 1_555
C3 C2 1_555 1_555
H2 C3 1_555 1_555
C4 C3 1_555 1_555
H3 C4 1_555 1_555
C5 C4 1_555 1_555
H4 C5 1_555 1_555
C6 C1 1_555 1_555
C7 C6 1_555 1_555
H5 C7 1_555 1_555
C8 C7 1_555 1_555
H6 C8 1_555 1_555
C9 C1 1_555 1_555
H7 C9 1_555 1_555
H8 C9 1_555 1_555
C10 C7 1_555 1_555
C11 N1 1_555 1_555
C12 N1 1_555 1_555
C13 C10 1_555 1_555
C14 C13 1_555 1_555
H9 C14 1_555 1_555
C15 C14 1_555 1_555
H10 C15 1_555 1_555
C16 C15 1_555 1_555
H11 C16 1_555 1_555
C17 C12 1_555 1_555
H12 C17 1_555 1_555
C18 S1 1_555 1_555
C19 C18 1_555 1_555
H13 C19 1_555 1_555
C20 C19 1_555 1_555
H14 C20 1_555 1_555
C21 C20 1_555 1_555
C22 C21 1_555 1_555
H15 C22 1_555 1_555
C23 C18 1_555 1_555
H16 C23 1_555 1_555
N2 S2 1_555 1_555
Br2 C44 1_555 1_555
S2 O4 1_555 1_555
O5 S2 1_555 1_555
O6 C34 1_555 1_555
C24 C25 1_555 1_555
C25 H17 1_555 1_555
C26 C25 1_555 1_555
H18 C26 1_555 1_555
C27 C26 1_555 1_555
H19 C27 1_555 1_555
C28 C27 1_555 1_555
H20 C28 1_555 1_555
C29 C24 1_555 1_555
C30 C29 1_555 1_555
H21 C30 1_555 1_555
H22 C30 1_555 1_555
C31 C30 1_555 1_555
H23 C31 1_555 1_555
C32 C24 1_555 1_555
H24 C32 1_555 1_555
C33 C31 1_555 1_555
C34 N2 1_555 1_555
C35 N2 1_555 1_555
C36 C35 1_555 1_555
H25 C36 1_555 1_555
C37 C36 1_555 1_555
H26 C37 1_555 1_555
C38 C37 1_555 1_555
H27 C38 1_555 1_555
C39 C38 1_555 1_555
H28 C39 1_555 1_555
C40 C33 1_555 1_555
C41 S2 1_555 1_555
C42 C41 1_555 1_555
H29 C42 1_555 1_555
C43 C42 1_555 1_555
H30 C43 1_555 1_555
C44 C43 1_555 1_555
C45 C44 1_555 1_555
H31 C45 1_555 1_555
C46 C41 1_555 1_555
H32 C46 1_555 1_555
C5 C6 1_555 1_555
C8 C9 1_555 1_555
C8 C10 1_555 1_555
C10 C11 1_555 1_555
C12 C13 1_555 1_555
C16 C17 1_555 1_555
C22 C23 1_555 1_555
C28 C29 1_555 1_555
C31 C32 1_555 1_555
C32 C33 1_555 1_555
C33 C34 1_555 1_555
C35 C40 1_555 1_555
C39 C40 1_555 1_555
C45 C46 1_555 1_555

#END
