
#######################################################################
#
#                 Cambridge Crystallographic Data Centre
#                                CCDC 
#
#######################################################################
#
# If this CIF has been generated from an entry in the Cambridge 
# Structural Database, then it will include bibliographic, chemical, 
# crystal, experimental, refinement or atomic coordinate data resulting 
# from the CCDC's data processing and validation procedures.
#
#######################################################################

data_TIYQEY
_chemical_name_common            Naptalam
_chemical_formula_moiety         'C18 H13 N1 O3'
_chemical_name_systematic        'N-(1-Naphthyl)phthalamic acid'
_chemical_properties_biological  
'pre-emergent herbicide which behaves as an auxin transport inhibitor'
_symmetry_cell_setting           monoclinic
_symmetry_space_group_name_H-M   'P 21/n'
_symmetry_Int_Tables_number      14
_space_group_name_Hall           '-P 2yn'
loop_
_symmetry_equiv_pos_site_id
_symmetry_equiv_pos_as_xyz
1 x,y,z
2 1/2-x,1/2+y,1/2-z
3 -x,-y,-z
4 1/2+x,1/2-y,1/2+z
_cell_length_a                   17.5500(4)
_cell_length_b                   4.9302(3)
_cell_length_c                   16.0619(5)
_cell_angle_alpha                90
_cell_angle_beta                 96.660(3)
_cell_angle_gamma                90
_cell_volume                     1380.38
_exptl_crystal_colour            purple
_exptl_crystal_description       rod
_cell_formula_units_Z            4
_exptl_crystal_recrystallization_method methanol/chloroform
loop_
_atom_site_label
_atom_site_type_symbol
_atom_site_fract_x
_atom_site_fract_y
_atom_site_fract_z
O1 O -0.04211(7) 0.3824(3) 0.09109(8)
O2 O 0.05888(8) 0.2571(3) 0.02920(8)
O3 O 0.20319(7) 0.2044(2) 0.13277(9)
N1 N 0.20164(8) -0.2210(3) 0.07903(9)
C1 C 0.01886(9) 0.2352(3) 0.08606(9)
C2 C 0.17414(8) -0.0200(3) 0.12444(9)
C3 C 0.03502(8) 0.0356(3) 0.15487(9)
C4 C 0.10627(8) -0.0970(3) 0.16890(9)
C5 C 0.11678(10) -0.2901(3) 0.23206(10)
C6 C 0.05852(12) -0.3492(4) 0.28077(11)
C7 C -0.01070(12) -0.2159(4) 0.26720(11)
C8 C -0.02272(10) -0.0249(4) 0.20429(10)
C9 C 0.27154(9) -0.1946(3) 0.04196(10)
C10 C 0.27630(9) -0.0146(3) -0.02631(10)
C11 C 0.33242(10) -0.3541(4) 0.07185(12)
C12 C 0.40238(10) -0.3341(4) 0.03699(12)
C13 C 0.41039(9) -0.1560(4) -0.02594(11)
C14 C 0.34788(9) 0.0072(3) -0.05953(10)
C15 C 0.35413(12) 0.1903(4) -0.12644(12)
C16 C 0.29256(14) 0.3396(5) -0.15994(13)
C17 C 0.22164(13) 0.3130(4) -0.12835(13)
C18 C 0.21361(10) 0.1420(4) -0.06331(11)
H1 H -0.0453(15) 0.512(6) 0.0439(18)
H2 H 0.1837(13) -0.396(5) 0.0849(14)
H3 H 0.1666(13) -0.381(5) 0.2411(13)
H4 H 0.0669(14) -0.484(5) 0.3231(16)
H5 H -0.0513(15) -0.260(5) 0.2998(17)
H6 H -0.0721(13) 0.062(5) 0.1936(14)
H7 H 0.3255(12) -0.469(4) 0.1195(14)
H8 H 0.4464(14) -0.454(5) 0.0618(16)
H9 H 0.4598(12) -0.155(4) -0.0489(13)
H10 H 0.4093(15) 0.201(5) -0.1473(15)
H11 H 0.2946(16) 0.477(6) -0.2075(18)
H12 H 0.1739(13) 0.422(5) -0.1543(14)
H13 H 0.1640(14) 0.125(5) -0.0415(14)
loop_
_geom_bond_atom_site_label_1
_geom_bond_atom_site_label_2
_geom_bond_site_symmetry_1
_geom_bond_site_symmetry_2
O1 C1 1_555 1_555
O2 C1 1_555 1_555
O3 C2 1_555 1_555
N1 C2 1_555 1_555
C1 C3 1_555 1_555
C2 C4 1_555 1_555
C3 C4 1_555 1_555
C4 C5 1_555 1_555
C5 C6 1_555 1_555
C6 C7 1_555 1_555
C7 C8 1_555 1_555
C8 C3 1_555 1_555
C9 N1 1_555 1_555
C10 C9 1_555 1_555
C11 C9 1_555 1_555
C12 C11 1_555 1_555
C13 C12 1_555 1_555
C14 C10 1_555 1_555
C15 C14 1_555 1_555
C16 C15 1_555 1_555
C17 C16 1_555 1_555
C18 C10 1_555 1_555
H1 O1 1_555 1_555
H2 N1 1_555 1_555
H3 C5 1_555 1_555
H4 C6 1_555 1_555
H5 C7 1_555 1_555
H6 C8 1_555 1_555
H7 C11 1_555 1_555
H8 C12 1_555 1_555
H9 C13 1_555 1_555
H10 C15 1_555 1_555
H11 C16 1_555 1_555
H12 C17 1_555 1_555
H13 C18 1_555 1_555
C13 C14 1_555 1_555
C17 C18 1_555 1_555

#END
