
#######################################################################
#
#                 Cambridge Crystallographic Data Centre
#                                CCDC 
#
#######################################################################
#
# If this CIF has been generated from an entry in the Cambridge 
# Structural Database, then it will include bibliographic, chemical, 
# crystal, experimental, refinement or atomic coordinate data resulting 
# from the CCDC's data processing and validation procedures.
#
#######################################################################

data_TIYTEC
_chemical_formula_moiety         'C29 H25 Br1 O4'
_chemical_name_systematic        
'Diethyl 12-bromo-9-phenyl-9,10-secogona-1(10),2,4,8,11,13-hexaen-6-yne-16,16-dicarboxylate'
_symmetry_cell_setting           monoclinic
_symmetry_space_group_name_H-M   'P 21/n'
_symmetry_Int_Tables_number      14
_space_group_name_Hall           '-P 2yn'
loop_
_symmetry_equiv_pos_site_id
_symmetry_equiv_pos_as_xyz
1 x,y,z
2 1/2-x,1/2+y,1/2-z
3 -x,-y,-z
4 1/2+x,1/2-y,1/2+z
_cell_length_a                   14.1122(15)
_cell_length_b                   10.9377(11)
_cell_length_c                   16.8822(17)
_cell_angle_alpha                90
_cell_angle_beta                 98.9120(10)
_cell_angle_gamma                90
_cell_volume                     2574.39
_cell_formula_units_Z            4
loop_
_atom_site_label
_atom_site_type_symbol
_atom_site_fract_x
_atom_site_fract_y
_atom_site_fract_z
Br1 Br 0.69263(2) 0.83797(3) 0.08082(2)
C1 C 0.06618(16) 1.1376(2) 0.07149(11)
H1 H 0.0781 1.0978 0.0254
C2 C -0.02233(14) 1.1924(3) 0.07328(15)
H2 H -0.0696 1.1893 0.0283
C3 C -0.04019(13) 1.2518(2) 0.14223(19)
H3 H -0.0994 1.2885 0.1434
C4 C 0.03046(19) 1.2564(2) 0.20940(15)
H4 H 0.0185 1.2962 0.2555
C5 C 0.11896(15) 1.2016(2) 0.20762(11)
H5 H 0.1662 1.2047 0.2526
C6 C 0.13683(12) 1.14220(18) 0.13866(12)
C7 C 0.2282(2) 1.0866(3) 0.13627(17)
C8 C 0.3057(2) 1.0459(3) 0.13326(17)
C9 C 0.39793(19) 0.9973(3) 0.12458(16)
C10 C 0.4847(2) 1.0469(3) 0.16545(16)
C11 C 0.57106(19) 0.9974(3) 0.15142(16)
H6 H 0.6285 1.0308 0.1767
C12 C 0.57262(18) 0.8991(3) 0.10037(16)
C13 C 0.48884(19) 0.8465(2) 0.06232(16)
C14 C 0.40282(18) 0.8975(3) 0.07438(16)
C15 C 0.48572(16) 1.14990(16) 0.22416(10)
C16 C 0.43082(16) 1.25438(19) 0.20516(11)
H7 H 0.3930 1.2616 0.1551
C17 C 0.43241(19) 1.34811(17) 0.26095(15)
H8 H 0.3957 1.4180 0.2482
C18 C 0.4889(2) 1.3374(2) 0.33575(13)
H9 H 0.4900 1.4001 0.3731
C19 C 0.54382(19) 1.2329(2) 0.35475(10)
H10 H 0.5816 1.2257 0.4048
C20 C 0.54223(16) 1.13915(18) 0.29895(12)
H11 H 0.5790 1.0693 0.3117
C21 C 0.3198(2) 0.8324(3) 0.0260(2)
H12 H 0.2900 0.8830 -0.0182
H13 H 0.2719 0.8107 0.0591
C22 C 0.3646(2) 0.7170(3) -0.00534(17)
C23 C 0.4743(2) 0.7385(3) 0.00729(17)
H14 H 0.5084 0.6676 0.0316
H15 H 0.4962 0.7561 -0.0432
C24 C 0.3273(2) 0.6964(3) -0.0934(2)
C25 C 0.3228(8) 0.5750(14) -0.2036(9)
H16 H 0.3479 0.6394 -0.2340
H17 H 0.2534 0.5757 -0.2154
C26 C 0.3626(15) 0.4507(16) -0.2230(11)
H18 H 0.4313 0.4519 -0.2105
H19 H 0.3439 0.4333 -0.2790
H20 H 0.3377 0.3886 -0.1917
C27 C 0.3396(3) 0.6044(3) 0.0421(2)
C28 C 0.210(2) 0.470(3) 0.0564(19)
H21 H 0.2620 0.4150 0.0770
H22 H 0.1650 0.4282 0.0167
C29 C 0.1637(13) 0.5192(12) 0.1210(13)
H23 H 0.1320 0.5946 0.1039
H24 H 0.2110 0.5339 0.1674
H25 H 0.1174 0.4613 0.1341
O1 O 0.28050(18) 0.7673(2) -0.13665(14)
O2 O 0.3559(2) 0.5903(2) -0.11684(13)
O3 O 0.3929(2) 0.5515(3) 0.09022(18)
O4 O 0.2471(2) 0.5804(3) 0.02309(18)
C30? C 0.342(3) 0.538(3) -0.2011(17)
H26? H 0.2861 0.5755 -0.2320
H27? H 0.3972 0.5603 -0.2261
C31? C 0.333(3) 0.437(3) -0.204(2)
H28? H 0.3812 0.3988 -0.1656
H29? H 0.3406 0.4092 -0.2572
H30? H 0.2707 0.4152 -0.1936
C32? C 0.209(3) 0.482(3) 0.071(3)
H31? H 0.2408 0.4043 0.0648
H32? H 0.2187 0.5027 0.1278
C33? C 0.1152(14) 0.4754(15) 0.0416(15)
H33? H 0.0843 0.5501 0.0531
H34? H 0.0867 0.4081 0.0658
H35? H 0.1075 0.4636 -0.0154
loop_
_geom_bond_atom_site_label_1
_geom_bond_atom_site_label_2
_geom_bond_site_symmetry_1
_geom_bond_site_symmetry_2
Br1 C12 1_555 1_555
C1 H1 1_555 1_555
C2 C1 1_555 1_555
H2 C2 1_555 1_555
C3 C2 1_555 1_555
H3 C3 1_555 1_555
C4 C3 1_555 1_555
H4 C4 1_555 1_555
C5 C4 1_555 1_555
H5 C5 1_555 1_555
C6 C1 1_555 1_555
C7 C6 1_555 1_555
C8 C7 1_555 1_555
C9 C8 1_555 1_555
C10 C9 1_555 1_555
C11 C10 1_555 1_555
H6 C11 1_555 1_555
C12 C11 1_555 1_555
C13 C12 1_555 1_555
C14 C9 1_555 1_555
C15 C10 1_555 1_555
C16 C15 1_555 1_555
H7 C16 1_555 1_555
C17 C16 1_555 1_555
H8 C17 1_555 1_555
C18 C17 1_555 1_555
H9 C18 1_555 1_555
C19 C18 1_555 1_555
H10 C19 1_555 1_555
C20 C15 1_555 1_555
H11 C20 1_555 1_555
C21 C14 1_555 1_555
H12 C21 1_555 1_555
H13 C21 1_555 1_555
C22 C21 1_555 1_555
C23 C13 1_555 1_555
H14 C23 1_555 1_555
H15 C23 1_555 1_555
C24 C22 1_555 1_555
C25 H16 1_555 1_555
H17 C25 1_555 1_555
C26 C25 1_555 1_555
H18 C26 1_555 1_555
H19 C26 1_555 1_555
H20 C26 1_555 1_555
C27 C22 1_555 1_555
C28 H21 1_555 1_555
H22 C28 1_555 1_555
C29 C28 1_555 1_555
H23 C29 1_555 1_555
H24 C29 1_555 1_555
H25 C29 1_555 1_555
O1 C24 1_555 1_555
O2 C24 1_555 1_555
O3 C27 1_555 1_555
O4 C27 1_555 1_555
C5 C6 1_555 1_555
C13 C14 1_555 1_555
C19 C20 1_555 1_555
C22 C23 1_555 1_555
C25 O2 1_555 1_555
C28 O4 1_555 1_555

#END
