
#######################################################################
#
#                 Cambridge Crystallographic Data Centre
#                                CCDC 
#
#######################################################################
#
# If this CIF has been generated from an entry in the Cambridge 
# Structural Database, then it will include bibliographic, chemical, 
# crystal, experimental, refinement or atomic coordinate data resulting 
# from the CCDC's data processing and validation procedures.
#
#######################################################################

data_TIYXOQ
_chemical_formula_moiety         'C17 H13 N1 O4'
_chemical_name_systematic        
6-((4-Hydroxy-3-methoxybenzylidene)amino)-2H-chromen-2-one
_symmetry_cell_setting           orthorhombic
_symmetry_space_group_name_H-M   'P c a 21'
_symmetry_Int_Tables_number      29
_space_group_name_Hall           'P 2c -2ac'
loop_
_symmetry_equiv_pos_site_id
_symmetry_equiv_pos_as_xyz
1 x,y,z
2 -x,-y,1/2+z
3 1/2-x,y,1/2+z
4 1/2+x,-y,z
_cell_length_a                   7.0607(2)
_cell_length_b                   6.6616(2)
_cell_length_c                   28.2993(9)
_cell_angle_alpha                90
_cell_angle_beta                 90
_cell_angle_gamma                90
_cell_volume                     1331.07
_exptl_crystal_colour            colorless
_exptl_crystal_description       prism
_cell_formula_units_Z            4
loop_
_atom_site_label
_atom_site_type_symbol
_atom_site_fract_x
_atom_site_fract_y
_atom_site_fract_z
O1 O 0.23861(19) 0.64615(17) 0.17973(4)
O2 O 0.4091(2) 0.9988(2) 0.19302(5)
O3 O 0.0371(2) -0.13212(18) 0.59657(5)
O4 O 0.13683(19) -0.02569(19) 0.52707(5)
C1 C 0.2664(3) 0.6587(3) 0.31021(7)
C2 C 0.2695(3) 0.7008(3) 0.22583(7)
C3 C 0.2256(3) 0.5861(3) 0.26477(7)
H1 H 0.1679 0.4584 0.2609
N1 N 0.2612(2) 0.5744(2) 0.39358(6)
C4 C 0.1585(3) 0.4735(3) 0.47152(7)
H2 H 0.1313 0.61 0.4785
C5 C 0.2486(3) 0.0727(3) 0.45202(7)
H3 H 0.2805 -0.0631 0.4455
C6 C 0.3576(3) 0.8879(3) 0.23119(6)
C7 C 0.1692(3) 0.1268(3) 0.49494(7)
C8 C 0.2117(3) 0.4358(3) 0.17077(7)
H4 H 0.0947 0.3906 0.186
H5 H 0.3193 0.3603 0.1835
H6 H 0.2029 0.413 0.1366
C9 C 0.3956(3) 0.9607(3) 0.27624(7)
H7 H 0.452 1.0891 0.2801
C10 C 0.0427(3) 0.3675(3) 0.55140(6)
H8 H 0.0115 0.5015 0.5599
C11 C 0.1246(3) 0.3260(3) 0.50553(6)
C12 C 0.2315(3) 0.4221(3) 0.42768(7)
C13 C 0.3516(3) 0.8465(3) 0.31539(7)
H9 H 0.3794 0.896 0.3461
C14 C 0.2270(3) 0.5265(3) 0.35033(7)
H10 H 0.1734 0.3984 0.3441
C15 C 0.0106(3) 0.2170(3) 0.58206(7)
H11 H -0.0453 0.2463 0.6118
C16 C 0.2801(3) 0.2207(3) 0.41903(7)
H12 H 0.3362 0.186 0.3896
C17 C 0.0591(3) 0.0119(3) 0.57086(7)
H13 H 0.393(4) 0.929(4) 0.1693(10)
loop_
_geom_bond_atom_site_label_1
_geom_bond_atom_site_label_2
_geom_bond_site_symmetry_1
_geom_bond_site_symmetry_2
O1 C2 1_555 1_555
O2 C6 1_555 1_555
O3 C17 1_555 1_555
O4 C7 1_555 1_555
C1 C3 1_555 1_555
C2 C3 1_555 1_555
C3 H1 1_555 1_555
N1 C12 1_555 1_555
C4 H2 1_555 1_555
C5 H3 1_555 1_555
C6 C2 1_555 1_555
C7 C5 1_555 1_555
C8 O1 1_555 1_555
H4 C8 1_555 1_555
H5 C8 1_555 1_555
H6 C8 1_555 1_555
C9 C6 1_555 1_555
H7 C9 1_555 1_555
C10 H8 1_555 1_555
C11 C4 1_555 1_555
C12 C4 1_555 1_555
C13 C1 1_555 1_555
H9 C13 1_555 1_555
C14 C1 1_555 1_555
H10 C14 1_555 1_555
C15 C10 1_555 1_555
H11 C15 1_555 1_555
C16 C5 1_555 1_555
H12 C16 1_555 1_555
C17 O4 1_555 1_555
H13 O2 1_555 1_555
N1 C14 1_555 1_555
C7 C11 1_555 1_555
C9 C13 1_555 1_555
C10 C11 1_555 1_555
C12 C16 1_555 1_555
C15 C17 1_555 1_555

#END
