
#######################################################################
#
#                 Cambridge Crystallographic Data Centre
#                                CCDC 
#
#######################################################################
#
# If this CIF has been generated from an entry in the Cambridge 
# Structural Database, then it will include bibliographic, chemical, 
# crystal, experimental, refinement or atomic coordinate data resulting 
# from the CCDC's data processing and validation procedures.
#
#######################################################################

data_TIZVAB
_chemical_formula_moiety         'C34 H31 Br1 N2 O6'
_chemical_name_systematic        
'2-Benzyl 3-methyl 4-((4-bromophenyl)amino)-1-(2-methoxy-2-oxoethyl)-3-phenyl-3,4-dihydroisoquinoline-2,3(1H)-dicarboxylate'
_symmetry_cell_setting           triclinic
_symmetry_space_group_name_H-M   'P -1'
_symmetry_Int_Tables_number      2
_space_group_name_Hall           '-P 1'
loop_
_symmetry_equiv_pos_site_id
_symmetry_equiv_pos_as_xyz
1 x,y,z
2 -x,-y,-z
_cell_length_a                   11.0497(4)
_cell_length_b                   11.8304(4)
_cell_length_c                   12.5622(5)
_cell_angle_alpha                108.9230(10)
_cell_angle_beta                 98.3230(10)
_cell_angle_gamma                98.1410(10)
_cell_volume                     1505.54
_exptl_crystal_colour            colorless
_exptl_crystal_description       block
_cell_formula_units_Z            2
loop_
_atom_site_label
_atom_site_type_symbol
_atom_site_fract_x
_atom_site_fract_y
_atom_site_fract_z
Br1 Br 0.77172(3) 0.75326(3) 0.37094(3)
O1 O 1.15470(18) 1.58289(17) 0.53959(16)
O2 O 1.1767(2) 1.61766(18) 0.37914(18)
O3 O 1.52071(15) 1.50893(14) 0.30945(15)
O4 O 1.56598(14) 1.32241(14) 0.23687(14)
O5 O 1.33081(15) 1.22290(14) 0.06239(13)
O6 O 1.33534(16) 1.03710(14) 0.06760(14)
N1 N 1.19592(17) 1.03183(16) 0.24233(17)
H1 H 1.2411 0.9892 0.2020
N2 N 1.38039(15) 1.33719(15) 0.28430(15)
C1 C 1.1019(2) 0.9717(2) 0.27780(19)
C2 C 1.0853(2) 0.8457(2) 0.2484(2)
H2 H 1.1398 0.8042 0.2085
C3 C 0.9894(2) 0.7816(2) 0.2776(2)
H3 H 0.9791 0.6974 0.2574
C4 C 0.9094(2) 0.8424(2) 0.3364(2)
C5 C 0.9256(2) 0.9665(2) 0.3697(2)
H4 H 0.8722 1.0073 0.4117
C6 C 1.0217(2) 1.0308(2) 0.3406(2)
H5 H 1.0327 1.1153 0.3636
C7 C 1.12786(19) 1.21001(19) 0.20488(18)
C8 C 1.0197(2) 1.1382(2) 0.1290(2)
H6 H 0.9999 1.0555 0.1175
C9 C 0.9412(2) 1.1887(3) 0.0704(2)
H7 H 0.8679 1.1402 0.0205
C10 C 0.9708(2) 1.3108(3) 0.0853(2)
H8 H 0.9174 1.3447 0.0459
C11 C 1.0797(2) 1.3826(2) 0.1588(2)
H9 H 1.1006 1.4645 0.1675
C12 C 1.15821(19) 1.3331(2) 0.21976(18)
C13 C 1.45093(19) 1.16212(19) 0.32023(19)
C14 C 1.4716(2) 1.2175(2) 0.4387(2)
H10 H 1.4295 1.2789 0.4706
C15 C 1.5537(3) 1.1826(3) 0.5097(2)
H11 H 1.5662 1.2203 0.5890
C16 C 1.6174(3) 1.0925(3) 0.4642(3)
H12 H 1.6725 1.0686 0.5121
C17 C 1.5986(3) 1.0388(3) 0.3482(3)
H13 H 1.6413 0.9778 0.3168
C18 C 1.5172(2) 1.0734(2) 0.2761(2)
H14 H 1.5069 1.0364 0.1969
C19 C 1.6615(2) 1.3708(2) 0.0907(2)
C20 C 1.6366(2) 1.2615(2) 0.0003(2)
H15 H 1.6308 1.1890 0.0150
C21 C 1.6201(3) 1.2580(3) -0.1115(2)
H16 H 1.6043 1.1834 -0.1717
C22 C 1.6270(4) 1.3632(3) -0.1340(3)
H17 H 1.6139 1.3608 -0.2096
C23 C 1.6530(5) 1.4722(3) -0.0454(3)
H18 H 1.6600 1.5445 -0.0606
C24 C 1.6691(4) 1.4759(3) 0.0663(3)
H19 H 1.6853 1.5508 0.1261
C25 C 1.2703(2) 1.4636(2) 0.42392(19)
H20 H 1.2313 1.4000 0.4482
H21 H 1.3536 1.4970 0.4711
C26 C 1.1958(2) 1.5625(2) 0.4421(2)
C27 C 1.0881(3) 1.6819(3) 0.5694(3)
H22 H 1.0619 1.6889 0.6405
H23 H 1.0162 1.6658 0.5097
H24 H 1.1420 1.7568 0.5778
C28 C 1.4924(2) 1.3992(2) 0.27891(18)
C29 C 1.6815(2) 1.3741(2) 0.2123(2)
H25 H 1.7450 1.3283 0.2244
H26 H 1.7107 1.4579 0.2644
C30 C 1.34309(19) 1.1440(2) 0.11601(19)
C31 C 1.2962(3) 1.1716(3) -0.0619(2)
H27 H 1.2897 1.2360 -0.0919
H28 H 1.2172 1.1158 -0.0844
H29 H 1.3587 1.1290 -0.0916
C32 C 1.35531(19) 1.20320(18) 0.24705(17)
C33 C 1.22229(19) 1.16209(18) 0.26932(19)
H30 H 1.2246 1.2008 0.3516
C34 C 1.27982(19) 1.40830(19) 0.29769(18)
H31 H 1.3033 1.4767 0.2720
loop_
_geom_bond_atom_site_label_1
_geom_bond_atom_site_label_2
_geom_bond_site_symmetry_1
_geom_bond_site_symmetry_2
Br1 C4 1_555 1_555
O1 C26 1_555 1_555
O2 C26 1_555 1_555
O3 C28 1_555 1_555
O4 C28 1_555 1_555
O5 C30 1_555 1_555
O6 C30 1_555 1_555
N1 H1 1_555 1_555
N2 C28 1_555 1_555
C1 N1 1_555 1_555
C2 C1 1_555 1_555
H2 C2 1_555 1_555
C3 C2 1_555 1_555
H3 C3 1_555 1_555
C4 C3 1_555 1_555
C5 C4 1_555 1_555
H4 C5 1_555 1_555
C6 C1 1_555 1_555
H5 C6 1_555 1_555
C7 C8 1_555 1_555
C8 H6 1_555 1_555
C9 C8 1_555 1_555
H7 C9 1_555 1_555
C10 C9 1_555 1_555
H8 C10 1_555 1_555
C11 C10 1_555 1_555
H9 C11 1_555 1_555
C12 C7 1_555 1_555
C13 C14 1_555 1_555
C14 H10 1_555 1_555
C15 C14 1_555 1_555
H11 C15 1_555 1_555
C16 C15 1_555 1_555
H12 C16 1_555 1_555
C17 C16 1_555 1_555
H13 C17 1_555 1_555
C18 C13 1_555 1_555
H14 C18 1_555 1_555
C19 C20 1_555 1_555
C20 H15 1_555 1_555
C21 C20 1_555 1_555
H16 C21 1_555 1_555
C22 C21 1_555 1_555
H17 C22 1_555 1_555
C23 C22 1_555 1_555
H18 C23 1_555 1_555
C24 C19 1_555 1_555
H19 C24 1_555 1_555
C25 H20 1_555 1_555
H21 C25 1_555 1_555
C26 C25 1_555 1_555
C27 O1 1_555 1_555
H22 C27 1_555 1_555
H23 C27 1_555 1_555
H24 C27 1_555 1_555
C29 O4 1_555 1_555
H25 C29 1_555 1_555
H26 C29 1_555 1_555
C30 C32 1_555 1_555
C31 O5 1_555 1_555
H27 C31 1_555 1_555
H28 C31 1_555 1_555
H29 C31 1_555 1_555
C32 N2 1_555 1_555
C33 N1 1_555 1_555
H30 C33 1_555 1_555
C34 N2 1_555 1_555
H31 C34 1_555 1_555
C5 C6 1_555 1_555
C7 C33 1_555 1_555
C11 C12 1_555 1_555
C12 C34 1_555 1_555
C13 C32 1_555 1_555
C17 C18 1_555 1_555
C19 C29 1_555 1_555
C23 C24 1_555 1_555
C25 C34 1_555 1_555
C32 C33 1_555 1_555

#END
