
#######################################################################
#
#                 Cambridge Crystallographic Data Centre
#                                CCDC 
#
#######################################################################
#
# If this CIF has been generated from an entry in the Cambridge 
# Structural Database, then it will include bibliographic, chemical, 
# crystal, experimental, refinement or atomic coordinate data resulting 
# from the CCDC's data processing and validation procedures.
#
#######################################################################

data_TIZVEF
_chemical_formula_moiety         'C13 H14 Br2 O1'
_chemical_name_systematic        
6,7-Dibromo-2-isopropyl-1,2-dihydronaphthalen-1-ol
_symmetry_cell_setting           triclinic
_symmetry_space_group_name_H-M   'P -1'
_symmetry_Int_Tables_number      2
_space_group_name_Hall           '-P 1'
loop_
_symmetry_equiv_pos_site_id
_symmetry_equiv_pos_as_xyz
1 x,y,z
2 -x,-y,-z
_cell_length_a                   12.698(9)
_cell_length_b                   15.704(11)
_cell_length_c                   15.785(19)
_cell_angle_alpha                108.667(14)
_cell_angle_beta                 96.252(14)
_cell_angle_gamma                111.779(10)
_cell_volume                     2674.92
_exptl_crystal_colour            colorless
_exptl_crystal_description       block
_cell_formula_units_Z            8
loop_
_atom_site_label
_atom_site_type_symbol
_atom_site_fract_x
_atom_site_fract_y
_atom_site_fract_z
Br1 Br 0.57874(19) 0.40620(19) 0.24871(15)
Br2 Br 0.5258(2) 0.21927(18) 0.04462(16)
C1 C 0.8842(16) 0.3926(13) 0.1123(12)
C2 C 0.6803(16) 0.3212(15) 0.1095(13)
C3 C 1.0812(17) 0.4758(15) 0.1017(11)
H1 H 1.1400 0.4756 0.0714
C4 C 0.9826(19) 0.3965(16) 0.0718(12)
H2 H 0.9745 0.3403 0.0229
C5 C 0.9088(15) 0.4661(12) 0.2009(10)
C6 C 1.0304(14) 0.5365(12) 0.2490(10)
H3 H 1.0653 0.5019 0.2760
O1 O 1.0443(9) 0.6246(7) 0.3244(6)
H4 H 1.0414 0.6133 0.3715
C7 C 0.8131(15) 0.4662(13) 0.2389(10)
H5 H 0.8269 0.5160 0.2959
C8 C 0.7028(15) 0.3966(14) 0.1951(12)
C9 C 0.7717(18) 0.3197(13) 0.0721(11)
H6 H 0.7571 0.2670 0.0170
C10 C 1.1044(14) 0.5690(12) 0.1843(11)
H7 H 1.0726 0.6075 0.1606
C11 C 1.2398(16) 0.6403(13) 0.2346(11)
H8 H 1.2440 0.6953 0.2886
C12 C 1.2961(15) 0.6844(14) 0.1693(11)
H9 H 1.3797 0.7183 0.1942
H10 H 1.2668 0.7307 0.1623
H11 H 1.2773 0.6320 0.1100
C13 C 1.3053(16) 0.5903(13) 0.2682(12)
H12 H 1.3123 0.5422 0.2161
H13 H 1.2634 0.5574 0.3042
H14 H 1.3822 0.6393 0.3059
Br3 Br -0.33950(17) -0.04706(15) 0.21422(13)
Br4 Br -0.19740(19) -0.03518(16) 0.04606(12)
C14 C -0.1174(18) 0.0084(13) 0.1715(10)
O2 O 0.0158(9) 0.0995(8) 0.5137(7)
H15 H 0.0426 0.0684 0.5351
C15 C 0.2606(13) 0.1472(11) 0.3937(11)
H16 H 0.3419 0.1735 0.4059
C16 C 0.2032(14) 0.1266(12) 0.4701(11)
H17 H 0.1819 0.0563 0.4579
C17 C 0.0863(13) 0.1359(12) 0.4559(10)
H18 H 0.1058 0.2070 0.4752
C18 C 0.0131(17) 0.0834(11) 0.3540(10)
C19 C 0.0698(16) 0.0861(12) 0.2843(12)
C20 C 0.1985(17) 0.1289(13) 0.3099(11)
H19 H 0.2386 0.1440 0.2669
C21 C 0.0046(16) 0.0487(11) 0.1949(12)
H20 H 0.0432 0.0503 0.1482
C22 C -0.1077(17) 0.0425(11) 0.3324(11)
H21 H -0.1457 0.0412 0.3794
C23 C -0.1753(15) 0.0023(12) 0.2392(13)
C24 C 0.2820(16) 0.1854(14) 0.5681(11)
H22 H 0.2333 0.1713 0.6105
C25 C 0.3314(14) 0.2977(13) 0.5909(10)
H23 H 0.3849 0.3336 0.6514
H24 H 0.2681 0.3172 0.5896
H25 H 0.3720 0.3126 0.5459
C26 C 0.3773(15) 0.1513(15) 0.5822(11)
H26 H 0.3421 0.0805 0.5654
H27 H 0.4209 0.1842 0.6460
H28 H 0.4291 0.1675 0.5440
Br5 Br -0.40412(17) 0.04272(16) 0.63476(13)
Br6 Br -0.4073(2) -0.00753(19) 0.82866(16)
C27 C 0.1516(17) 0.2707(16) 0.9266(12)
H29 H 0.2195 0.2989 0.9741
C28 C -0.0528(18) 0.1605(14) 0.8616(12)
C29 C -0.0550(17) 0.1731(11) 0.7760(13)
O3 O 0.0625(10) 0.2522(9) 0.6844(7)
H30 H 0.0194 0.2802 0.6839
C30 C -0.1582(19) 0.1377(13) 0.7097(12)
H31 H -0.1557 0.1492 0.6556
C31 C -0.2648(16) 0.0855(12) 0.7232(11)
C32 C -0.2674(16) 0.0694(12) 0.8047(14)
C33 C -0.165(2) 0.1056(14) 0.8711(12)
H32 H -0.1691 0.0935 0.9249
C34 C 0.0553(18) 0.2011(14) 0.9278(10)
H33 H 0.0583 0.1773 0.9745
C35 C 0.0666(15) 0.2283(13) 0.7653(10)
H34 H 0.0966 0.1775 0.7500
C36 C 0.1509(19) 0.3048(15) 0.8466(12)
H35 H 0.1207 0.3553 0.8644
C37 C 0.2806(15) 0.3637(14) 0.8431(12)
H36 H 0.2765 0.3802 0.7883
C38 C 0.3356(15) 0.4619(13) 0.9294(11)
H37 H 0.3397 0.4476 0.9841
H38 H 0.2881 0.4974 0.9299
H39 H 0.4132 0.5019 0.9280
C39 C 0.3499(17) 0.3046(16) 0.8354(12)
H40 H 0.4270 0.3429 0.8318
H41 H 0.3114 0.2444 0.7805
H42 H 0.3559 0.2882 0.8887
Br7 Br -0.37470(15) 0.56479(15) 0.60175(11)
Br8 Br -0.25387(17) 0.70104(16) 0.83070(11)
C40 C -0.2118(15) 0.6254(13) 0.6508(11)
C41 C -0.1583(15) 0.6815(12) 0.7464(12)
C42 C -0.0430(15) 0.7264(12) 0.7821(10)
H43 H -0.0124 0.7610 0.8458
C43 C 0.0350(15) 0.7221(11) 0.7230(10)
C44 C -0.0165(13) 0.6661(10) 0.6276(9)
C45 C -0.1365(13) 0.6187(12) 0.5932(10)
H44 H -0.1684 0.5813 0.5300
C46 C 0.1593(15) 0.7714(12) 0.7540(10)
H45 H 0.1930 0.8172 0.8149
C47 C 0.2315(15) 0.7560(12) 0.7005(11)
H46 H 0.3122 0.7919 0.7256
C48 C 0.0636(14) 0.6706(11) 0.5610(9)
H47 H 0.0735 0.7282 0.5452
O4 O 0.0053(8) 0.5820(7) 0.4765(7)
H48 H 0.0290 0.5406 0.4789
C49 C 0.1864(14) 0.6834(12) 0.6026(10)
H49 H 0.1770 0.6189 0.6036
C50 C 0.2702(15) 0.7073(15) 0.5408(11)
H50 H 0.2298 0.6565 0.4781
C51 C 0.2962(15) 0.8096(16) 0.5350(12)
H51 H 0.3107 0.8583 0.5955
H52 H 0.2300 0.8041 0.4942
H53 H 0.3642 0.8298 0.5116
C52 C 0.3823(15) 0.6977(15) 0.5708(12)
H54 H 0.4327 0.7128 0.5313
H55 H 0.3627 0.6308 0.5661
H56 H 0.4221 0.7433 0.6337
loop_
_geom_bond_atom_site_label_1
_geom_bond_atom_site_label_2
_geom_bond_site_symmetry_1
_geom_bond_site_symmetry_2
Br1 C8 1_555 1_555
Br2 C2 1_555 1_555
C1 C4 1_555 1_555
C2 C8 1_555 1_555
C3 H1 1_555 1_555
C4 C3 1_555 1_555
H2 C4 1_555 1_555
C5 C1 1_555 1_555
C6 C5 1_555 1_555
H3 C6 1_555 1_555
O1 C6 1_555 1_555
H4 O1 1_555 1_555
C7 C5 1_555 1_555
H5 C7 1_555 1_555
C8 C7 1_555 1_555
C9 C1 1_555 1_555
H6 C9 1_555 1_555
C10 C3 1_555 1_555
H7 C10 1_555 1_555
C11 C10 1_555 1_555
H8 C11 1_555 1_555
C12 C11 1_555 1_555
H9 C12 1_555 1_555
H10 C12 1_555 1_555
H11 C12 1_555 1_555
C13 C11 1_555 1_555
H12 C13 1_555 1_555
H13 C13 1_555 1_555
H14 C13 1_555 1_555
Br3 C23 1_555 1_555
Br4 C14 1_555 1_555
C14 C21 1_555 1_555
O2 H15 1_555 1_555
C15 H16 1_555 1_555
C16 C15 1_555 1_555
H17 C16 1_555 1_555
C17 O2 1_555 1_555
H18 C17 1_555 1_555
C18 C17 1_555 1_555
C19 C18 1_555 1_555
C20 C15 1_555 1_555
H19 C20 1_555 1_555
C21 C19 1_555 1_555
H20 C21 1_555 1_555
C22 C18 1_555 1_555
H21 C22 1_555 1_555
C23 C14 1_555 1_555
C24 C16 1_555 1_555
H22 C24 1_555 1_555
C25 C24 1_555 1_555
H23 C25 1_555 1_555
H24 C25 1_555 1_555
H25 C25 1_555 1_555
C26 C24 1_555 1_555
H26 C26 1_555 1_555
H27 C26 1_555 1_555
H28 C26 1_555 1_555
Br5 C31 1_555 1_555
Br6 C32 1_555 1_555
C27 H29 1_555 1_555
C28 C29 1_555 1_555
C29 C30 1_555 1_555
O3 H30 1_555 1_555
C30 H31 1_555 1_555
C31 C30 1_555 1_555
C32 C31 1_555 1_555
C33 C28 1_555 1_555
H32 C33 1_555 1_555
C34 C27 1_555 1_555
H33 C34 1_555 1_555
C35 C29 1_555 1_555
H34 C35 1_555 1_555
C36 C27 1_555 1_555
H35 C36 1_555 1_555
C37 C36 1_555 1_555
H36 C37 1_555 1_555
C38 C37 1_555 1_555
H37 C38 1_555 1_555
H38 C38 1_555 1_555
H39 C38 1_555 1_555
C39 C37 1_555 1_555
H40 C39 1_555 1_555
H41 C39 1_555 1_555
H42 C39 1_555 1_555
Br7 C40 1_555 1_555
Br8 C41 1_555 1_555
C40 C41 1_555 1_555
C41 C42 1_555 1_555
C42 H43 1_555 1_555
C43 C42 1_555 1_555
C44 C43 1_555 1_555
C45 C40 1_555 1_555
H44 C45 1_555 1_555
C46 C43 1_555 1_555
H45 C46 1_555 1_555
C47 C46 1_555 1_555
H46 C47 1_555 1_555
C48 C44 1_555 1_555
H47 C48 1_555 1_555
O4 C48 1_555 1_555
H48 O4 1_555 1_555
C49 C47 1_555 1_555
H49 C49 1_555 1_555
C50 C49 1_555 1_555
H50 C50 1_555 1_555
C51 C50 1_555 1_555
H51 C51 1_555 1_555
H52 C51 1_555 1_555
H53 C51 1_555 1_555
C52 C50 1_555 1_555
H54 C52 1_555 1_555
H55 C52 1_555 1_555
H56 C52 1_555 1_555
C2 C9 1_555 1_555
C6 C10 1_555 1_555
C16 C17 1_555 1_555
C19 C20 1_555 1_555
C22 C23 1_555 1_555
C28 C34 1_555 1_555
O3 C35 1_555 1_555
C32 C33 1_555 1_555
C35 C36 1_555 1_555
C44 C45 1_555 1_555
C48 C49 1_555 1_555

#END
