
#######################################################################
#
#                 Cambridge Crystallographic Data Centre
#                                CCDC 
#
#######################################################################
#
# If this CIF has been generated from an entry in the Cambridge 
# Structural Database, then it will include bibliographic, chemical, 
# crystal, experimental, refinement or atomic coordinate data resulting 
# from the CCDC's data processing and validation procedures.
#
#######################################################################

data_TMETEY
_chemical_formula_moiety         'C6 H12 S4'
_chemical_name_systematic        tetrakis(Methylthio)ethylene
_symmetry_cell_setting           triclinic
_symmetry_space_group_name_H-M   'P -1'
_symmetry_Int_Tables_number      2
_space_group_name_Hall           '-P 1'
loop_
_symmetry_equiv_pos_site_id
_symmetry_equiv_pos_as_xyz
1 x,y,z
2 -x,-y,-z
_cell_length_a                   6.451(1)
_cell_length_b                   7.883(1)
_cell_length_c                   5.216(1)
_cell_angle_alpha                92.44(2)
_cell_angle_beta                 90.45(2)
_cell_angle_gamma                111.78(1)
_cell_volume                     246.012
_cell_formula_units_Z            1
loop_
_atom_site_label
_atom_site_type_symbol
_atom_site_fract_x
_atom_site_fract_y
_atom_site_fract_z
S1 S 0.19610 -0.05050 -0.31420
S2 S -0.14250 -0.29610 0.04130
C1 C 0.34060 -0.19840 -0.23290
C2 C -0.24140 -0.42580 -0.25800
C3 C 0.01190 -0.07430 -0.05830
H1 H 0.45300 -0.17800 -0.34900
H2 H 0.40100 -0.16300 -0.07600
H3 H 0.24900 -0.31400 -0.23500
H4 H -0.37100 -0.52500 -0.22200
H5 H -0.28500 -0.35800 -0.37000
H6 H -0.14000 -0.45200 -0.33500
C3A C -0.01190 0.07430 0.05830
S1A S -0.19610 0.05050 0.31420
S2A S 0.14250 0.29610 -0.04130
C1A C -0.34060 0.19840 0.23290
C2A C 0.24140 0.42580 0.25800
H1A H -0.45300 0.17800 0.34900
H2A H -0.40100 0.16300 0.07600
H3A H -0.24900 0.31400 0.23500
H4A H 0.37100 0.52500 0.22200
H5A H 0.28500 0.35800 0.37000
H6A H 0.14000 0.45200 0.33500
loop_
_geom_bond_atom_site_label_1
_geom_bond_atom_site_label_2
_geom_bond_site_symmetry_1
_geom_bond_site_symmetry_2
S1 C1 1_555 1_555
S2 C2 1_555 1_555
C1 H1 1_555 1_555
C2 H4 1_555 1_555
C3 S1 1_555 1_555
H2 C1 1_555 1_555
H3 C1 1_555 1_555
H5 C2 1_555 1_555
H6 C2 1_555 1_555
C3A C3 1_555 1_555
S1A C3A 1_555 1_555
S2A C3A 1_555 1_555
C1A S1A 1_555 1_555
C2A S2A 1_555 1_555
H1A C1A 1_555 1_555
H2A C1A 1_555 1_555
H3A C1A 1_555 1_555
H4A C2A 1_555 1_555
H5A C2A 1_555 1_555
H6A C2A 1_555 1_555
S2 C3 1_555 1_555

#END
