
#######################################################################
#
#                 Cambridge Crystallographic Data Centre
#                                CCDC 
#
#######################################################################
#
# If this CIF has been generated from an entry in the Cambridge 
# Structural Database, then it will include bibliographic, chemical, 
# crystal, experimental, refinement or atomic coordinate data resulting 
# from the CCDC's data processing and validation procedures.
#
#######################################################################

data_TOAZOC03
_chemical_formula_moiety         'C12 H26 N2 O4'
_chemical_name_systematic        1,4,10,13-Tetraoxa-7,16-diazacyclo-octadecane
_symmetry_cell_setting           monoclinic
_symmetry_space_group_name_H-M   'P 21/c'
_symmetry_Int_Tables_number      14
_space_group_name_Hall           '-P 2ybc'
loop_
_symmetry_equiv_pos_site_id
_symmetry_equiv_pos_as_xyz
1 x,y,z
2 -x,1/2+y,1/2-z
3 -x,-y,-z
4 x,1/2-y,1/2+z
_cell_length_a                   10.207(3)
_cell_length_b                   8.494(3)
_cell_length_c                   8.942(3)
_cell_angle_alpha                90
_cell_angle_beta                 109.39(3)
_cell_angle_gamma                90
_cell_volume                     731.284
_exptl_crystal_colour            colorless
_exptl_crystal_description       plate
_cell_formula_units_Z            2
_exptl_crystal_recrystallization_method 'acetone/petroleum ether'
loop_
_atom_site_label
_atom_site_type_symbol
_atom_site_fract_x
_atom_site_fract_y
_atom_site_fract_z
O1 O 0.57148(9) 0.79909(11) 0.91782(10)
C1 C 0.45687(14) 0.8662(2) 0.7994(2)
C2 C 0.33193(14) 0.8555(2) 0.8469(2)
O2 O 0.28372(9) 0.69892(10) 0.83471(11)
C3 C 0.15919(14) 0.6866(2) 0.8699(2)
C4 C 0.11878(13) 0.5175(2) 0.8643(2)
N1 N 0.21851(12) 0.43286(13) 0.98958(13)
C5 C 0.19194(14) 0.2678(2) 0.9937(2)
C6 C 0.6933(2) 0.8095(2) 0.8786(2)
H1 H 0.4430(16) 0.8122(19) 0.6975(21)
H2 H 0.4776(15) 0.9753(20) 0.7853(18)
H3 H 0.2585(15) 0.9217(18) 0.7784(18)
H4 H 0.3538(15) 0.8926(18) 0.9551(19)
H5 H 0.0867(17) 0.7469(20) 0.7908(20)
H6 H 0.1737(15) 0.7348(19) 0.9758(19)
H7 H 0.1080(15) 0.4768(18) 0.7598(19)
H8 H 0.0296(15) 0.5102(18) 0.8796(16)
H9 H 0.2890(17) 0.4424(19) 0.9790(20)
H10 H 0.1070(15) 0.2535(17) 1.0150(17)
H11 H 0.1784(15) 0.2171(18) 0.8872(19)
H12 H 0.6791(15) 0.7597(18) 0.7752(19)
H13 H 0.7138(16) 0.9217(20) 0.8676(19)
O1B O 0.42852(9) 0.20091(11) 1.08218(10)
C1B C 0.54313(14) 0.1338(2) 1.2006(2)
C2B C 0.66807(14) 0.1445(2) 1.1531(2)
O2B O 0.71628(9) 0.30108(10) 1.16529(11)
C3B C 0.84081(14) 0.3134(2) 1.1301(2)
C4B C 0.88122(13) 0.4825(2) 1.1357(2)
N1B N 0.78149(12) 0.56714(13) 1.01042(13)
C5B C 0.80806(14) 0.7322(2) 1.0063(2)
C6B C 0.3067(2) 0.1905(2) 1.1214(2)
H1B H 0.5570(16) 0.1878(19) 1.3025(21)
H2B H 0.5224(15) 0.0247(20) 1.2147(18)
H3B H 0.7415(15) 0.0783(18) 1.2216(18)
H4B H 0.6462(15) 0.1074(18) 1.0449(19)
H5B H 0.9133(17) 0.2531(20) 1.2092(20)
H6B H 0.8263(15) 0.2652(19) 1.0242(19)
H7B H 0.8920(15) 0.5232(18) 1.2402(19)
H8B H 0.9704(15) 0.4898(18) 1.1204(16)
H9B H 0.7110(17) 0.5576(19) 1.0210(20)
H10B H 0.8930(15) 0.7465(17) 0.9850(17)
H11B H 0.8216(15) 0.7829(18) 1.1128(19)
H12B H 0.3209(15) 0.2403(18) 1.2248(19)
H13B H 0.2862(16) 0.0783(20) 1.1324(19)
loop_
_geom_bond_atom_site_label_1
_geom_bond_atom_site_label_2
_geom_bond_site_symmetry_1
_geom_bond_site_symmetry_2
O1 C1 1_555 1_555
C1 C2 1_555 1_555
C2 O2 1_555 1_555
O2 C3 1_555 1_555
C3 C4 1_555 1_555
C4 N1 1_555 1_555
N1 C5 1_555 1_555
C5 H10 1_555 1_555
C6 O1 1_555 1_555
H1 C1 1_555 1_555
H2 C1 1_555 1_555
H3 C2 1_555 1_555
H4 C2 1_555 1_555
H5 C3 1_555 1_555
H6 C3 1_555 1_555
H7 C4 1_555 1_555
H8 C4 1_555 1_555
H9 N1 1_555 1_555
H11 C5 1_555 1_555
H12 C6 1_555 1_555
H13 C6 1_555 1_555
O1B C1B 1_555 1_555
C1B C2B 1_555 1_555
C2B O2B 1_555 1_555
O2B C3B 1_555 1_555
C3B C4B 1_555 1_555
C4B N1B 1_555 1_555
N1B C5B 1_555 1_555
C5B C6 1_555 1_555
C6B C5 1_555 1_555
H1B C1B 1_555 1_555
H2B C1B 1_555 1_555
H3B C2B 1_555 1_555
H4B C2B 1_555 1_555
H5B C3B 1_555 1_555
H6B C3B 1_555 1_555
H7B C4B 1_555 1_555
H8B C4B 1_555 1_555
H9B N1B 1_555 1_555
H10B C5B 1_555 1_555
H11B C5B 1_555 1_555
H12B C6B 1_555 1_555
H13B C6B 1_555 1_555
O1B C6B 1_555 1_555

#END
