
#######################################################################
#
#                 Cambridge Crystallographic Data Centre
#                                CCDC 
#
#######################################################################
#
# If this CIF has been generated from an entry in the Cambridge 
# Structural Database, then it will include bibliographic, chemical, 
# crystal, experimental, refinement or atomic coordinate data resulting 
# from the CCDC's data processing and validation procedures.
#
#######################################################################

data_TOBGUO
_chemical_formula_moiety         'C54 H54 N8,2(H2 O1)'
_chemical_name_systematic        
'1,4,17,20,23,36,41,54-Octa-azaoctacyclo[18.18.18.1^6,10^.1^11,15^.1^25,29^.1^30,34^.1^43,47^.1^48,52^]dohexaconta-4,6(62),7,9,11(61),12,14,16,23,25(60),26,28,30(59),31,33,35,41,43(58),44,46,48(57),49,51,53-tetracosaene dihydrate'
_symmetry_cell_setting           orthorhombic
_symmetry_space_group_name_H-M   'P c c n'
_symmetry_Int_Tables_number      56
_space_group_name_Hall           '-P 2ab 2ac'
loop_
_symmetry_equiv_pos_site_id
_symmetry_equiv_pos_as_xyz
1 x,y,z
2 1/2-x,1/2-y,z
3 1/2+x,-y,1/2-z
4 -x,1/2+y,1/2-z
5 -x,-y,-z
6 1/2+x,1/2+y,-z
7 1/2-x,y,1/2+z
8 x,1/2-y,1/2+z
_cell_length_a                   10.9552(4)
_cell_length_b                   63.0820(17)
_cell_length_c                   19.9511(4)
_cell_angle_alpha                90
_cell_angle_beta                 90
_cell_angle_gamma                90
_cell_volume                     13787.7
_exptl_crystal_colour            colorless
_exptl_crystal_description       block
_cell_formula_units_Z            12
loop_
_atom_site_label
_atom_site_type_symbol
_atom_site_fract_x
_atom_site_fract_y
_atom_site_fract_z
O1 O 0.5988(5) 0.19933(8) 0.6252(2)
O2 O 0.3172(4) 0.19652(7) 0.6269(2)
O3 O 0.2066(17) 0.2185(3) 0.6329(9)
C1 C 0.1745(3) 0.00646(6) 0.27116(18)
H1 H 0.1260 0.0022 0.2327
H2 H 0.1989 -0.0063 0.2948
C2 C 0.2875(3) 0.01801(6) 0.24698(18)
H3 H 0.3181 0.0112 0.2067
H4 H 0.2666 0.0325 0.2359
C3 C 0.4363(4) 0.03504(6) 0.31238(18)
H5 H 0.4116 0.0473 0.2905
C4 C 0.5363(3) 0.03649(5) 0.36159(17)
C5 C 0.5972(3) 0.05550(6) 0.37121(17)
H6 H 0.5721 0.0673 0.3470
C6 C 0.6946(3) 0.05762(6) 0.41568(17)
C7 C 0.7291(4) 0.03956(6) 0.45163(18)
H7 H 0.7939 0.0404 0.4816
C8 C 0.6680(4) 0.02042(6) 0.4432(2)
H8 H 0.6922 0.0086 0.4677
C9 C 0.5717(4) 0.01881(6) 0.39882(19)
H9 H 0.5307 0.0060 0.3938
C10 C 0.7643(3) 0.07753(5) 0.42249(17)
C11 C 0.8198(3) 0.08329(6) 0.48323(17)
H10 H 0.8061 0.0751 0.5211
C12 C 0.8947(3) 0.10099(6) 0.48804(17)
C13 C 0.9157(3) 0.11362(6) 0.43145(17)
H11 H 0.9669 0.1254 0.4341
C14 C 0.8596(3) 0.10842(6) 0.37185(17)
H12 H 0.8720 0.1169 0.3343
C15 C 0.7848(3) 0.09076(6) 0.36711(17)
H13 H 0.7475 0.0876 0.3264
C16 C 0.9520(3) 0.10620(6) 0.55311(17)
H14 H 0.9266 0.0989 0.5911
C17 C 1.0833(3) 0.12387(6) 0.62670(16)
H15 H 1.1673 0.1191 0.6286
H16 H 1.0365 0.1158 0.6591
C18 C 1.0773(3) 0.14729(6) 0.64418(18)
H17 H 1.1348 0.1503 0.6799
H18 H 1.1011 0.1556 0.6054
C19 C 0.9327(3) 0.14949(6) 0.73636(17)
H19 H 0.9394 0.1626 0.7613
H20 H 0.9944 0.1398 0.7532
C20 C 0.8075(3) 0.13998(6) 0.74807(18)
H21 H 0.7893 0.1401 0.7957
H22 H 0.7464 0.1485 0.7254
C21 C 0.7054(3) 0.11304(6) 0.69215(16)
H23 H 0.6473 0.1235 0.6842
C22 C 0.6801(3) 0.09138(6) 0.66793(16)
C23 C 0.5665(4) 0.08743(6) 0.63907(17)
H24 H 0.5118 0.0986 0.6339
C24 C 0.5324(3) 0.06718(6) 0.61770(16)
C25 C 0.6190(4) 0.05095(6) 0.62343(17)
H25 H 0.6000 0.0374 0.6081
C26 C 0.7321(4) 0.05475(6) 0.65145(17)
H26 H 0.7883 0.0437 0.6548
C27 C 0.7627(4) 0.07468(6) 0.67455(16)
H27 H 0.8383 0.0770 0.6945
C28 C 0.4062(3) 0.06315(6) 0.59379(17)
C29 C 0.3792(4) 0.04875(6) 0.54290(17)
H28 H 0.4426 0.0421 0.5203
C30 C 0.2593(4) 0.04424(6) 0.52540(17)
C31 C 0.1642(4) 0.05474(6) 0.55781(18)
H29 H 0.0837 0.0520 0.5458
C32 C 0.1900(4) 0.06909(6) 0.60754(19)
H30 H 0.1263 0.0760 0.6293
C33 C 0.3088(4) 0.07343(6) 0.62587(18)
H31 H 0.3244 0.0832 0.6597
C34 C 0.2341(4) 0.02743(6) 0.47623(17)
H32 H 0.2972 0.0226 0.4491
C35 C 0.1146(4) 0.00124(6) 0.42506(18)
H33 H 0.0782 -0.0105 0.4494
H34 H 0.1944 -0.0032 0.4094
C36 C 0.0348(3) 0.00680(6) 0.36519(18)
H35 H 0.0068 -0.0062 0.3441
H36 H -0.0364 0.0145 0.3807
C37 C 0.0175(3) 0.03311(6) 0.27682(18)
H37 H -0.0592 0.0257 0.2699
H38 H 0.0535 0.0358 0.2332
C38 C -0.0074(4) 0.05420(6) 0.31162(19)
H39 H -0.0745 0.0614 0.2896
H40 H -0.0303 0.0517 0.3579
C39 C 0.1456(4) 0.07413(6) 0.36349(19)
H41 H 0.1066 0.0711 0.4037
C40 C 0.2584(4) 0.08685(6) 0.36416(17)
C41 C 0.3004(3) 0.09652(6) 0.42236(17)
H42 H 0.2564 0.0947 0.4618
C42 C 0.4063(3) 0.10880(6) 0.42356(17)
C43 C 0.4722(4) 0.11052(6) 0.36396(17)
H43 H 0.5438 0.1184 0.3633
C44 C 0.4331(4) 0.10073(6) 0.30596(18)
H44 H 0.4793 0.1019 0.2670
C45 C 0.3262(4) 0.08916(6) 0.30513(18)
H45 H 0.2993 0.0829 0.2656
C46 C 0.4440(3) 0.12093(6) 0.48369(16)
C47 C 0.5646(3) 0.12757(6) 0.49274(17)
H46 H 0.6245 0.1226 0.4637
C48 C 0.5971(3) 0.14125(6) 0.54363(17)
C49 C 0.5094(4) 0.14805(6) 0.58935(18)
H47 H 0.5306 0.1572 0.6241
C50 C 0.3908(4) 0.14107(7) 0.58254(19)
H48 H 0.3324 0.1453 0.6137
C51 C 0.3571(4) 0.12790(6) 0.53002(17)
H49 H 0.2762 0.1237 0.5256
C52 C 0.7227(4) 0.14997(6) 0.54611(17)
H50 H 0.7858 0.1426 0.5254
C53 C 0.8701(4) 0.17550(6) 0.5750(2)
H51 H 0.8698 0.1899 0.5577
H52 H 0.9202 0.1669 0.5455
C54 C 0.9236(4) 0.17530(6) 0.64493(19)
H53 H 0.9959 0.1842 0.6461
H54 H 0.8647 0.1811 0.6762
N1 N 0.3826(3) 0.01787(5) 0.29853(16)
N2 N 1.0343(3) 0.12028(5) 0.55947(14)
N3 N 0.9558(3) 0.15369(5) 0.66533(14)
N4 N 0.8018(3) 0.11818(5) 0.72310(14)
N5 N 0.1282(3) 0.01938(5) 0.46980(15)
N6 N 0.0995(3) 0.01961(5) 0.31585(14)
N7 N 0.1010(3) 0.06730(5) 0.30904(15)
N8 N 0.7457(3) 0.16723(5) 0.57594(16)
C55 C 1.2890(4) 0.17640(7) 0.4210(2)
H55 H 1.3406 0.1889 0.4211
H56 H 1.3405 0.1641 0.4280
C56 C 1.1973(4) 0.17797(7) 0.4775(3)
H57 H 1.1280 0.1689 0.4680
H58 H 1.2346 0.1731 0.5189
C57 C 1.0485(4) 0.20462(7) 0.4652(2)
H59 H 1.0015 0.1942 0.4446
C58 C 0.9976(4) 0.22609(7) 0.4731(2)
C59 C 1.0708(4) 0.24325(7) 0.4904(2)
H60 H 1.1548 0.2415 0.4944
C60 C 1.0189(4) 0.26289(7) 0.5017(2)
H61 H 1.0683 0.2745 0.5118
C61 C 0.8933(4) 0.26540(7) 0.4981(2)
H62 H 0.8590 0.2785 0.5079
C62 C 0.8179(4) 0.24857(6) 0.48020(18)
C63 C 0.8724(4) 0.22901(7) 0.46647(19)
H63 H 0.8239 0.2177 0.4526
C64 C 1.3007(4) 0.18427(6) 0.3022(3)
H64 H 1.2720 0.1790 0.2593
H65 H 1.3851 0.1799 0.3073
C65 C 1.2946(4) 0.20817(7) 0.3022(3)
H66 H 1.2943 0.2131 0.3482
H67 H 1.3675 0.2137 0.2808
C66 C 1.1233(4) 0.23035(6) 0.2985(3)
H68 H 1.1398 0.2327 0.3436
C67 C 1.2030(4) 0.15224(6) 0.3410(2)
H69 H 1.1806 0.1451 0.3823
H70 H 1.2769 0.1457 0.3242
C68 C 1.1021(4) 0.14923(7) 0.2903(2)
H71 H 1.1203 0.1573 0.2501
H72 H 1.0962 0.1344 0.2781
C69 C 0.9471(4) 0.17404(6) 0.29896(19)
H73 H 0.9910 0.1814 0.2665
C70 C 0.8342(3) 0.18357(6) 0.32512(18)
C71 C 0.7865(4) 0.20126(6) 0.29316(19)
H74 H 0.8296 0.2073 0.2578
C72 C 0.6752(4) 0.21029(6) 0.31268(19)
C73 C 0.6153(4) 0.20097(6) 0.36707(19)
H75 H 0.5413 0.2066 0.3813
C74 C 0.6627(4) 0.18352(6) 0.40060(19)
H76 H 0.6214 0.1778 0.4371
C75 C 0.7718(4) 0.17464(6) 0.37940(18)
H77 H 0.8033 0.1628 0.4011
C76 C 0.6197(4) 0.22805(6) 0.2750(2)
C77 C 0.5375(4) 0.24217(6) 0.3040(2)
H78 H 0.5235 0.2414 0.3499
C78 C 0.4759(4) 0.25737(6) 0.2667(3)
C79 C 0.5018(5) 0.25905(7) 0.1991(3)
H79 H 0.4622 0.2692 0.1733
C80 C 0.5858(5) 0.24577(7) 0.1697(2)
H80 H 0.6039 0.2473 0.1244
C81 C 0.6433(4) 0.23027(6) 0.2067(2)
H81 H 0.6985 0.2212 0.1859
N9 N 1.2279(3) 0.17460(5) 0.35572(19)
N10 N 1.1554(4) 0.19990(6) 0.4858(2)
N11 N 1.1870(3) 0.21675(6) 0.2677(2)
N12 N 0.9870(3) 0.15633(5) 0.31856(17)
C55A C 0.2110(4) 0.32360(7) 0.4210(2)
H55A H 0.1594 0.3111 0.4211
H56A H 0.1595 0.3359 0.4280
C56A C 0.3027(4) 0.32203(7) 0.4775(3)
H57A H 0.3720 0.3311 0.4680
H58A H 0.2654 0.3269 0.5189
C57A C 0.4515(4) 0.29538(7) 0.4652(2)
H59A H 0.4985 0.3058 0.4446
C58A C 0.5024(4) 0.27391(7) 0.4731(2)
C59A C 0.4292(4) 0.25675(7) 0.4904(2)
H60A H 0.3452 0.2585 0.4944
C60A C 0.4811(4) 0.23711(7) 0.5017(2)
H61A H 0.4317 0.2255 0.5118
C61A C 0.6067(4) 0.23460(7) 0.4981(2)
H62A H 0.6410 0.2215 0.5079
C62A C 0.6821(4) 0.25143(6) 0.48020(18)
C63A C 0.6276(4) 0.27099(7) 0.46647(19)
H63A H 0.6761 0.2823 0.4526
C64A C 0.1993(4) 0.31573(6) 0.3022(3)
H64A H 0.2280 0.3210 0.2593
H65A H 0.1149 0.3201 0.3073
C65A C 0.2054(4) 0.29183(7) 0.3022(3)
H66A H 0.2057 0.2869 0.3482
H67A H 0.1325 0.2863 0.2808
C66A C 0.3767(4) 0.26965(6) 0.2985(3)
H68A H 0.3602 0.2673 0.3436
C67A C 0.2970(4) 0.34776(6) 0.3410(2)
H69A H 0.3194 0.3549 0.3823
H70A H 0.2231 0.3543 0.3242
C68A C 0.3979(4) 0.35077(7) 0.2903(2)
H71A H 0.3797 0.3427 0.2501
H72A H 0.4038 0.3656 0.2781
C69A C 0.5529(4) 0.32596(6) 0.29896(19)
H73A H 0.5090 0.3186 0.2665
C70A C 0.6658(3) 0.31643(6) 0.32512(18)
C71A C 0.7135(4) 0.29874(6) 0.29316(19)
H74A H 0.6704 0.2927 0.2578
C72A C 0.8248(4) 0.28971(6) 0.31268(19)
C73A C 0.8847(4) 0.29903(6) 0.36707(19)
H75A H 0.9587 0.2934 0.3813
C74A C 0.8373(4) 0.31648(6) 0.40060(19)
H76A H 0.8786 0.3222 0.4371
C75A C 0.7282(4) 0.32536(6) 0.37940(18)
H77A H 0.6967 0.3372 0.4011
C76A C 0.8803(4) 0.27195(6) 0.2750(2)
C77A C 0.9625(4) 0.25783(6) 0.3040(2)
H78A H 0.9765 0.2586 0.3499
C78A C 1.0241(4) 0.24263(6) 0.2667(3)
C79A C 0.9982(5) 0.24095(7) 0.1991(3)
H79A H 1.0378 0.2308 0.1733
C80A C 0.9142(5) 0.25423(7) 0.1697(2)
H80A H 0.8961 0.2527 0.1244
C81A C 0.8567(4) 0.26973(6) 0.2067(2)
H81A H 0.8015 0.2788 0.1859
N9A N 0.2721(3) 0.32540(5) 0.35572(19)
N10A N 0.3446(4) 0.30010(6) 0.4858(2)
N11A N 0.3130(3) 0.28325(6) 0.2677(2)
N12A N 0.5130(3) 0.34367(5) 0.31856(17)
loop_
_geom_bond_atom_site_label_1
_geom_bond_atom_site_label_2
_geom_bond_site_symmetry_1
_geom_bond_site_symmetry_2
C1 H1 1_555 1_555
H2 C1 1_555 1_555
C2 C1 1_555 1_555
H3 C2 1_555 1_555
H4 C2 1_555 1_555
C3 H5 1_555 1_555
C4 C3 1_555 1_555
C5 C4 1_555 1_555
H6 C5 1_555 1_555
C6 C5 1_555 1_555
C7 C6 1_555 1_555
H7 C7 1_555 1_555
C8 C7 1_555 1_555
H8 C8 1_555 1_555
C9 C4 1_555 1_555
H9 C9 1_555 1_555
C10 C6 1_555 1_555
C11 C10 1_555 1_555
H10 C11 1_555 1_555
C12 C11 1_555 1_555
C13 C12 1_555 1_555
H11 C13 1_555 1_555
C14 C13 1_555 1_555
H12 C14 1_555 1_555
C15 C10 1_555 1_555
H13 C15 1_555 1_555
C16 C12 1_555 1_555
H14 C16 1_555 1_555
C17 H15 1_555 1_555
H16 C17 1_555 1_555
C18 C17 1_555 1_555
H17 C18 1_555 1_555
H18 C18 1_555 1_555
C19 H19 1_555 1_555
H20 C19 1_555 1_555
C20 C19 1_555 1_555
H21 C20 1_555 1_555
H22 C20 1_555 1_555
C21 H23 1_555 1_555
C22 C21 1_555 1_555
C23 C22 1_555 1_555
H24 C23 1_555 1_555
C24 C23 1_555 1_555
C25 C24 1_555 1_555
H25 C25 1_555 1_555
C26 C25 1_555 1_555
H26 C26 1_555 1_555
C27 C22 1_555 1_555
H27 C27 1_555 1_555
C28 C24 1_555 1_555
C29 C28 1_555 1_555
H28 C29 1_555 1_555
C30 C29 1_555 1_555
C31 C30 1_555 1_555
H29 C31 1_555 1_555
C32 C31 1_555 1_555
H30 C32 1_555 1_555
C33 C28 1_555 1_555
H31 C33 1_555 1_555
C34 C30 1_555 1_555
H32 C34 1_555 1_555
C35 H33 1_555 1_555
H34 C35 1_555 1_555
C36 C35 1_555 1_555
H35 C36 1_555 1_555
H36 C36 1_555 1_555
C37 H37 1_555 1_555
H38 C37 1_555 1_555
C38 C37 1_555 1_555
H39 C38 1_555 1_555
H40 C38 1_555 1_555
C39 H41 1_555 1_555
C40 C39 1_555 1_555
C41 C40 1_555 1_555
H42 C41 1_555 1_555
C42 C41 1_555 1_555
C43 C42 1_555 1_555
H43 C43 1_555 1_555
C44 C43 1_555 1_555
H44 C44 1_555 1_555
C45 C40 1_555 1_555
H45 C45 1_555 1_555
C46 C42 1_555 1_555
C47 C46 1_555 1_555
H46 C47 1_555 1_555
C48 C47 1_555 1_555
C49 C48 1_555 1_555
H47 C49 1_555 1_555
C50 C49 1_555 1_555
H48 C50 1_555 1_555
C51 C46 1_555 1_555
H49 C51 1_555 1_555
C52 C48 1_555 1_555
H50 C52 1_555 1_555
C53 H51 1_555 1_555
H52 C53 1_555 1_555
C54 C53 1_555 1_555
H53 C54 1_555 1_555
H54 C54 1_555 1_555
N1 C2 1_555 1_555
N2 C16 1_555 1_555
N3 C18 1_555 1_555
N4 C20 1_555 1_555
N5 C34 1_555 1_555
N6 C1 1_555 1_555
N7 C38 1_555 1_555
N8 C52 1_555 1_555
C55 H55 1_555 1_555
H56 C55 1_555 1_555
C56 C55 1_555 1_555
H57 C56 1_555 1_555
H58 C56 1_555 1_555
C57 H59 1_555 1_555
C58 C57 1_555 1_555
C59 C58 1_555 1_555
H60 C59 1_555 1_555
C60 C59 1_555 1_555
H61 C60 1_555 1_555
C61 C60 1_555 1_555
H62 C61 1_555 1_555
C62 C61 1_555 1_555
C63 C58 1_555 1_555
H63 C63 1_555 1_555
C64 H64 1_555 1_555
H65 C64 1_555 1_555
C65 C64 1_555 1_555
H66 C65 1_555 1_555
H67 C65 1_555 1_555
C66 H68 1_555 1_555
C67 H69 1_555 1_555
H70 C67 1_555 1_555
C68 C67 1_555 1_555
H71 C68 1_555 1_555
H72 C68 1_555 1_555
C69 H73 1_555 1_555
C70 C69 1_555 1_555
C71 C70 1_555 1_555
H74 C71 1_555 1_555
C72 C71 1_555 1_555
C73 C72 1_555 1_555
H75 C73 1_555 1_555
C74 C73 1_555 1_555
H76 C74 1_555 1_555
C75 C70 1_555 1_555
H77 C75 1_555 1_555
C76 C72 1_555 1_555
C77 C76 1_555 1_555
H78 C77 1_555 1_555
C78 C77 1_555 1_555
C79 C78 1_555 1_555
H79 C79 1_555 1_555
C80 C79 1_555 1_555
H80 C80 1_555 1_555
C81 C76 1_555 1_555
H81 C81 1_555 1_555
N9 C55 1_555 1_555
N10 C56 1_555 1_555
N11 C65 1_555 1_555
N12 C68 1_555 1_555
C55A H55A 1_555 1_555
H56A C55A 1_555 1_555
C56A C55A 1_555 1_555
H57A C56A 1_555 1_555
H58A C56A 1_555 1_555
C57A H59A 1_555 1_555
C58A C57A 1_555 1_555
C59A C58A 1_555 1_555
H60A C59A 1_555 1_555
C60A C59A 1_555 1_555
H61A C60A 1_555 1_555
C61A C60A 1_555 1_555
H62A C61A 1_555 1_555
C62A C62 1_555 1_555
C63A C58A 1_555 1_555
H63A C63A 1_555 1_555
C64A H64A 1_555 1_555
H65A C64A 1_555 1_555
C65A C64A 1_555 1_555
H66A C65A 1_555 1_555
H67A C65A 1_555 1_555
C66A C78 1_555 1_555
H68A C66A 1_555 1_555
C67A H69A 1_555 1_555
H70A C67A 1_555 1_555
C68A C67A 1_555 1_555
H71A C68A 1_555 1_555
H72A C68A 1_555 1_555
C69A H73A 1_555 1_555
C70A C69A 1_555 1_555
C71A C70A 1_555 1_555
H74A C71A 1_555 1_555
C72A C71A 1_555 1_555
C73A C72A 1_555 1_555
H75A C73A 1_555 1_555
C74A C73A 1_555 1_555
H76A C74A 1_555 1_555
C75A C70A 1_555 1_555
H77A C75A 1_555 1_555
C76A C72A 1_555 1_555
C77A C76A 1_555 1_555
H78A C77A 1_555 1_555
C78A C66 1_555 1_555
C79A C78A 1_555 1_555
H79A C79A 1_555 1_555
C80A C79A 1_555 1_555
H80A C80A 1_555 1_555
C81A C76A 1_555 1_555
H81A C81A 1_555 1_555
N9A C55A 1_555 1_555
N10A C56A 1_555 1_555
N11A C65A 1_555 1_555
N12A C68A 1_555 1_555
C3 N1 1_555 1_555
C8 C9 1_555 1_555
C14 C15 1_555 1_555
C17 N2 1_555 1_555
C19 N3 1_555 1_555
C21 N4 1_555 1_555
C26 C27 1_555 1_555
C32 C33 1_555 1_555
C35 N5 1_555 1_555
C36 N6 1_555 1_555
C37 N6 1_555 1_555
C39 N7 1_555 1_555
C44 C45 1_555 1_555
C50 C51 1_555 1_555
C53 N8 1_555 1_555
C54 N3 1_555 1_555
C57 N10 1_555 1_555
C62 C63 1_555 1_555
C64 N9 1_555 1_555
C66 N11 1_555 1_555
C67 N9 1_555 1_555
C69 N12 1_555 1_555
C74 C75 1_555 1_555
C80 C81 1_555 1_555
C57A N10A 1_555 1_555
C61A C62A 1_555 1_555
C62A C63A 1_555 1_555
C64A N9A 1_555 1_555
C66A N11A 1_555 1_555
C67A N9A 1_555 1_555
C69A N12A 1_555 1_555
C74A C75A 1_555 1_555
C77A C78A 1_555 1_555
C80A C81A 1_555 1_555

#END
