
#######################################################################
#
#                 Cambridge Crystallographic Data Centre
#                                CCDC 
#
#######################################################################
#
# If this CIF has been generated from an entry in the Cambridge 
# Structural Database, then it will include bibliographic, chemical, 
# crystal, experimental, refinement or atomic coordinate data resulting 
# from the CCDC's data processing and validation procedures.
#
#######################################################################

data_TOBKOM
_chemical_formula_moiety         'C24 H22 N2 O5'
_chemical_name_systematic        
'1-Ethyl 3-methyl 6-benzyl-2-methyl-5-oxo-5,6-dihydropyrrolo[1,2-c]quinazoline-1,3-dicarboxylate'
_symmetry_cell_setting           orthorhombic
_symmetry_space_group_name_H-M   'P c a 21'
_symmetry_Int_Tables_number      29
_space_group_name_Hall           'P 2c -2ac'
loop_
_symmetry_equiv_pos_site_id
_symmetry_equiv_pos_as_xyz
1 x,y,z
2 -x,-y,1/2+z
3 1/2-x,y,1/2+z
4 1/2+x,-y,z
_cell_length_a                   7.751(2)
_cell_length_b                   12.392(4)
_cell_length_c                   21.326(6)
_cell_angle_alpha                90
_cell_angle_beta                 90
_cell_angle_gamma                90
_cell_volume                     2048.37
_cell_formula_units_Z            4
loop_
_atom_site_label
_atom_site_type_symbol
_atom_site_fract_x
_atom_site_fract_y
_atom_site_fract_z
C1 C 0.6750(5) 0.4640(3) 0.25101(19)
C2 C 0.7022(6) 0.5717(4) 0.2683(2)
H1 H 0.6738 0.6269 0.2406
C3 C 0.7713(7) 0.5965(4) 0.3265(3)
H2 H 0.7853 0.6682 0.3382
C4 C 0.8192(7) 0.5157(4) 0.3669(2)
H3 H 0.8656 0.5329 0.4058
C5 C 0.7989(6) 0.4100(3) 0.3501(2)
H4 H 0.8341 0.3558 0.3775
C6 C 0.7267(5) 0.3825(3) 0.2931(2)
C7 C 0.6512(5) 0.2399(3) 0.21918(19)
C8 C 0.6007(5) 0.4316(3) 0.19177(19)
C9 C 0.5423(5) 0.4825(3) 0.13772(19)
C10 C 0.5014(5) 0.4012(3) 0.09097(19)
C11 C 0.5265(5) 0.3025(3) 0.1194(2)
C12 C 0.7474(6) 0.1866(3) 0.3214(2)
H5 H 0.6903 0.1211 0.3076
H6 H 0.6989 0.2058 0.3619
C13 C 0.9361(6) 0.1620(3) 0.3304(2)
C14 C 1.0453(6) 0.1492(3) 0.2803(2)
H7 H 1.0047 0.1609 0.2399
C15 C 1.2154(7) 0.1190(4) 0.2896(3)
H8 H 1.2885 0.1119 0.2553
C16 C 1.2780(7) 0.0993(4) 0.3491(3)
H9 H 1.3922 0.0787 0.3552
C17 C 1.1661(8) 0.1109(4) 0.3997(3)
H10 H 1.2054 0.0966 0.4401
C18 C 0.9983(6) 0.1433(4) 0.3909(2)
H11 H 0.9260 0.1528 0.4253
C19 C 0.5117(5) 0.5988(3) 0.1282(2)
C20 C 0.4765(7) 0.7372(3) 0.0534(3)
H12 H 0.5677 0.7831 0.0695
H13 H 0.3692 0.7582 0.0734
C21 C 0.4623(13) 0.7507(7) -0.0135(3)
H14 H 0.5730 0.7393 -0.0325
H15 H 0.4230 0.8224 -0.0227
H16 H 0.3814 0.6992 -0.0299
C22 C 0.4354(7) 0.4139(4) 0.0266(2)
H17 H 0.5291 0.4311 -0.0011
H18 H 0.3518 0.4710 0.0256
H19 H 0.3822 0.3478 0.0133
C23 C 0.4816(6) 0.1955(4) 0.0952(3)
C24 C 0.3095(8) 0.0426(5) 0.1115(4)
H20 H 0.2459 0.0430 0.0729
H21 H 0.2400 0.0114 0.1440
H22 H 0.4129 0.0009 0.1064
N1 N 0.7054(5) 0.2734(3) 0.27658(16)
N2 N 0.5877(4) 0.3223(3) 0.18078(16)
O1 O 0.6512(5) 0.1472(2) 0.20147(17)
O2 O 0.4833(5) 0.6640(2) 0.16915(16)
O3 O 0.5141(5) 0.6264(3) 0.06739(16)
O4 O 0.5421(6) 0.1557(3) 0.04976(19)
O5 O 0.3541(4) 0.1515(3) 0.12834(19)
loop_
_geom_bond_atom_site_label_1
_geom_bond_atom_site_label_2
_geom_bond_site_symmetry_1
_geom_bond_site_symmetry_2
C1 C2 1_555 1_555
C2 H1 1_555 1_555
C3 C2 1_555 1_555
H2 C3 1_555 1_555
C4 C3 1_555 1_555
H3 C4 1_555 1_555
C5 C4 1_555 1_555
H4 C5 1_555 1_555
C6 C1 1_555 1_555
C7 N1 1_555 1_555
C8 C1 1_555 1_555
C9 C8 1_555 1_555
C10 C9 1_555 1_555
C11 C10 1_555 1_555
C12 H5 1_555 1_555
H6 C12 1_555 1_555
C13 C12 1_555 1_555
C14 C13 1_555 1_555
H7 C14 1_555 1_555
C15 C14 1_555 1_555
H8 C15 1_555 1_555
C16 C15 1_555 1_555
H9 C16 1_555 1_555
C17 C16 1_555 1_555
H10 C17 1_555 1_555
C18 C13 1_555 1_555
H11 C18 1_555 1_555
C19 C9 1_555 1_555
C20 H12 1_555 1_555
H13 C20 1_555 1_555
C21 C20 1_555 1_555
H14 C21 1_555 1_555
H15 C21 1_555 1_555
H16 C21 1_555 1_555
C22 C10 1_555 1_555
H17 C22 1_555 1_555
H18 C22 1_555 1_555
H19 C22 1_555 1_555
C23 C11 1_555 1_555
C24 H20 1_555 1_555
H21 C24 1_555 1_555
H22 C24 1_555 1_555
N1 C6 1_555 1_555
N2 C7 1_555 1_555
O1 C7 1_555 1_555
O2 C19 1_555 1_555
O3 C19 1_555 1_555
O4 C23 1_555 1_555
O5 C23 1_555 1_555
C5 C6 1_555 1_555
C8 N2 1_555 1_555
C11 N2 1_555 1_555
C12 N1 1_555 1_555
C17 C18 1_555 1_555
C20 O3 1_555 1_555
C24 O5 1_555 1_555

#END
