
#######################################################################
#
#                 Cambridge Crystallographic Data Centre
#                                CCDC 
#
#######################################################################
#
# If this CIF has been generated from an entry in the Cambridge 
# Structural Database, then it will include bibliographic, chemical, 
# crystal, experimental, refinement or atomic coordinate data resulting 
# from the CCDC's data processing and validation procedures.
#
#######################################################################

data_TOBLIH
_chemical_formula_moiety         'C15 H15 N3'
_chemical_name_systematic        
2,5,6-Trimethyl-7-phenylpyrazolo[1,5-a]pyrimidine
_symmetry_cell_setting           monoclinic
_symmetry_space_group_name_H-M   'P 21/n'
_symmetry_Int_Tables_number      14
_space_group_name_Hall           '-P 2yn'
loop_
_symmetry_equiv_pos_site_id
_symmetry_equiv_pos_as_xyz
1 x,y,z
2 1/2-x,1/2+y,1/2-z
3 -x,-y,-z
4 1/2+x,1/2-y,1/2+z
_cell_length_a                   5.784(3)
_cell_length_b                   16.411(9)
_cell_length_c                   13.211(7)
_cell_angle_alpha                90
_cell_angle_beta                 92.703(7)
_cell_angle_gamma                90
_cell_volume                     1252.61
_exptl_crystal_colour            colorless
_exptl_crystal_description       block
_cell_formula_units_Z            4
loop_
_atom_site_label
_atom_site_type_symbol
_atom_site_fract_x
_atom_site_fract_y
_atom_site_fract_z
C1 C -0.1257(3) 0.66005(12) 0.82721(16)
C2 C -0.0591(4) 0.59791(12) 0.89351(16)
H1 H -0.1291 0.5472 0.8997
C3 C 0.1321(3) 0.62687(12) 0.94823(15)
C4 C 0.4494(4) 0.63745(13) 1.05770(15)
C5 C 0.4914(3) 0.71958(12) 1.02619(14)
C6 C 0.3463(3) 0.75373(11) 0.95263(14)
C7 C 0.3612(3) 0.83875(11) 0.91391(15)
C8 C 0.5508(3) 0.86441(13) 0.86131(16)
H2 H 0.6700 0.8281 0.8493
C9 C 0.5624(4) 0.94390(13) 0.82687(17)
H3 H 0.6885 0.9604 0.7909
C10 C 0.3896(4) 0.99861(13) 0.84519(17)
H4 H 0.3989 1.0520 0.8221
C11 C 0.2022(4) 0.97375(13) 0.89812(16)
H5 H 0.0856 1.0107 0.9115
C12 C 0.1873(3) 0.89422(12) 0.93132(16)
H6 H 0.0588 0.8777 0.9658
C13 C -0.3217(4) 0.66073(14) 0.74917(18)
H7 H -0.3250 0.7121 0.7144
H8 H -0.4650 0.6529 0.7816
H9 H -0.3008 0.6176 0.7014
C14 C 0.6061(4) 0.59786(14) 1.13674(17)
H10 H 0.5620 0.5419 1.1444
H11 H 0.5937 0.6258 1.2001
H12 H 0.7630 0.6006 1.1163
C15 C 0.6893(4) 0.76701(14) 1.07616(16)
H13 H 0.6801 0.8229 1.0547
H14 H 0.8335 0.7441 1.0571
H15 H 0.6799 0.7643 1.1484
N1 N 0.2741(3) 0.59297(10) 1.02138(13)
N2 N 0.1685(3) 0.70523(9) 0.91328(12)
N3 N 0.0110(3) 0.72670(10) 0.83767(12)
H16? H -0.4022 0.6096 0.7505
H17? H -0.2622 0.6689 0.6833
H18? H -0.4264 0.7041 0.7636
loop_
_geom_bond_atom_site_label_1
_geom_bond_atom_site_label_2
_geom_bond_site_symmetry_1
_geom_bond_site_symmetry_2
C1 C2 1_555 1_555
C2 H1 1_555 1_555
C3 C2 1_555 1_555
C4 C5 1_555 1_555
C5 C6 1_555 1_555
C6 C7 1_555 1_555
C7 C8 1_555 1_555
C8 H2 1_555 1_555
C9 C8 1_555 1_555
H3 C9 1_555 1_555
C10 C9 1_555 1_555
H4 C10 1_555 1_555
C11 C10 1_555 1_555
H5 C11 1_555 1_555
C12 C7 1_555 1_555
H6 C12 1_555 1_555
C13 C1 1_555 1_555
H7 C13 1_555 1_555
H8 C13 1_555 1_555
H9 C13 1_555 1_555
C14 C4 1_555 1_555
H10 C14 1_555 1_555
H11 C14 1_555 1_555
H12 C14 1_555 1_555
C15 C5 1_555 1_555
H13 C15 1_555 1_555
H14 C15 1_555 1_555
H15 C15 1_555 1_555
N1 C3 1_555 1_555
N2 C3 1_555 1_555
N3 C1 1_555 1_555
C4 N1 1_555 1_555
C6 N2 1_555 1_555
C11 C12 1_555 1_555
N2 N3 1_555 1_555

#END
