
#######################################################################
#
#                 Cambridge Crystallographic Data Centre
#                                CCDC 
#
#######################################################################
#
# If this CIF has been generated from an entry in the Cambridge 
# Structural Database, then it will include bibliographic, chemical, 
# crystal, experimental, refinement or atomic coordinate data resulting 
# from the CCDC's data processing and validation procedures.
#
#######################################################################

data_TOBLED
_chemical_formula_moiety         'C15 H15 N3'
_chemical_name_systematic        
2,6,7-Trimethyl-5-phenylpyrazolo[1,5-a]pyrimidine
_symmetry_cell_setting           monoclinic
_symmetry_space_group_name_H-M   'P 21/c'
_symmetry_Int_Tables_number      14
_space_group_name_Hall           '-P 2ybc'
loop_
_symmetry_equiv_pos_site_id
_symmetry_equiv_pos_as_xyz
1 x,y,z
2 -x,1/2+y,1/2-z
3 -x,-y,-z
4 x,1/2-y,1/2+z
_cell_length_a                   25.257(13)
_cell_length_b                   7.226(4)
_cell_length_c                   14.807(8)
_cell_angle_alpha                90
_cell_angle_beta                 106.999(6)
_cell_angle_gamma                90
_cell_volume                     2584.31
_exptl_crystal_colour            colorless
_exptl_crystal_description       block
_cell_formula_units_Z            8
loop_
_atom_site_label
_atom_site_type_symbol
_atom_site_fract_x
_atom_site_fract_y
_atom_site_fract_z
C1 C 0.87887(17) 0.2349(5) 0.0809(4)
C2 C 0.86026(15) 0.0760(7) 0.1145(3)
H1 H 0.8801 -0.0338 0.1194
C3 C 0.81203(18) 0.0822(8) 0.1405(4)
H2 H 0.7991 -0.0253 0.1614
C4 C 0.7829(2) 0.2434(8) 0.1362(5)
H3 H 0.7511 0.2462 0.1557
C5 C 0.80116(16) 0.4006(8) 0.1029(4)
H4 H 0.7813 0.5101 0.0989
C6 C 0.84931(13) 0.3976(6) 0.0749(4)
H5 H 0.8615 0.5046 0.0523
C7 C 0.93237(18) 0.2313(5) 0.0557(4)
C8 C 0.93600(17) 0.2729(5) -0.0353(4)
C9 C 0.98639(18) 0.2728(5) -0.0527(4)
C10 C 1.02596(12) 0.1894(5) 0.1116(3)
C11 C 1.07974(13) 0.1583(5) 0.1679(3)
H6 H 1.0908 0.1251 0.2313
C12 C 1.11345(13) 0.1863(6) 0.1111(3)
C13 C 1.17564(13) 0.1741(7) 0.1352(3)
H7 H 1.1855 0.1010 0.0884
H8 H 1.1902 0.1173 0.1961
H9 H 1.1908 0.2962 0.1365
C14 C 0.99867(16) 0.3111(6) -0.1430(3)
H10 H 0.9688 0.3809 -0.1839
H11 H 1.0027 0.1963 -0.1730
H12 H 1.0324 0.3809 -0.1307
C15 C 0.88512(15) 0.3108(6) -0.1173(3)
H13 H 0.8880 0.4314 -0.1426
H14 H 0.8528 0.3059 -0.0958
H15 H 0.8822 0.2192 -0.1654
N1 N 1.08530(13) 0.2316(4) 0.0218(3)
N2 N 1.03183(13) 0.2329(4) 0.0238(3)
N3 N 0.97591(11) 0.1863(4) 0.1279(2)
C16 C 0.61844(17) 0.2674(5) 0.6986(4)
C17 C 0.63948(15) 0.4234(7) 0.7500(3)
H16 H 0.6214 0.5363 0.7346
C18 C 0.68783(17) 0.4117(8) 0.8250(4)
H17 H 0.7020 0.5170 0.8598
C19 C 0.7146(2) 0.2457(9) 0.8476(5)
H18 H 0.7472 0.2390 0.8972
C20 C 0.69401(15) 0.0932(8) 0.7987(4)
H19 H 0.7119 -0.0196 0.8154
C21 C 0.64647(14) 0.1020(6) 0.7240(3)
H20 H 0.6330 -0.0048 0.6900
C22 C 0.56526(16) 0.2723(5) 0.6220(4)
C23 C 0.56304(17) 0.2289(5) 0.5264(4)
C24 C 0.51200(18) 0.2300(5) 0.4609(4)
C25 C 0.47185(13) 0.3126(5) 0.5838(3)
C26 C 0.41879(13) 0.3431(5) 0.5891(3)
H21 H 0.4081 0.3752 0.6420
C27 C 0.38526(13) 0.3152(5) 0.4980(3)
C28 C 0.32343(13) 0.3259(6) 0.4635(4)
H22 H 0.3113 0.3107 0.3962
H23 H 0.3115 0.4442 0.4798
H24 H 0.3079 0.2296 0.4925
C29 C 0.50175(17) 0.1912(6) 0.3590(3)
H25 H 0.4871 0.0685 0.3452
H26 H 0.5359 0.2010 0.3431
H27 H 0.4756 0.2792 0.3226
C30 C 0.61490(14) 0.1909(6) 0.4981(3)
H28 H 0.6228 0.0608 0.5032
H29 H 0.6454 0.2578 0.5390
H30 H 0.6094 0.2301 0.4340
N4 N 0.41373(13) 0.2700(4) 0.4372(3)
N5 N 0.46777(13) 0.2673(4) 0.4921(3)
N6 N 0.52183(10) 0.3183(4) 0.6501(2)
loop_
_geom_bond_atom_site_label_1
_geom_bond_atom_site_label_2
_geom_bond_site_symmetry_1
_geom_bond_site_symmetry_2
C1 C2 1_555 1_555
C2 H1 1_555 1_555
C3 C2 1_555 1_555
H2 C3 1_555 1_555
C4 C3 1_555 1_555
H3 C4 1_555 1_555
C5 C4 1_555 1_555
H4 C5 1_555 1_555
C6 C1 1_555 1_555
H5 C6 1_555 1_555
C7 C1 1_555 1_555
C8 C7 1_555 1_555
C9 C8 1_555 1_555
C10 C11 1_555 1_555
C11 H6 1_555 1_555
C12 C11 1_555 1_555
C13 C12 1_555 1_555
H7 C13 1_555 1_555
H8 C13 1_555 1_555
H9 C13 1_555 1_555
C14 C9 1_555 1_555
H10 C14 1_555 1_555
H11 C14 1_555 1_555
H12 C14 1_555 1_555
C15 C8 1_555 1_555
H13 C15 1_555 1_555
H14 C15 1_555 1_555
H15 C15 1_555 1_555
N1 C12 1_555 1_555
N2 C9 1_555 1_555
N3 C7 1_555 1_555
C16 C17 1_555 1_555
C17 H16 1_555 1_555
C18 C17 1_555 1_555
H17 C18 1_555 1_555
C19 C18 1_555 1_555
H18 C19 1_555 1_555
C20 C19 1_555 1_555
H19 C20 1_555 1_555
C21 C16 1_555 1_555
H20 C21 1_555 1_555
C22 C16 1_555 1_555
C23 C22 1_555 1_555
C24 C23 1_555 1_555
C25 C26 1_555 1_555
C26 H21 1_555 1_555
C27 C26 1_555 1_555
C28 C27 1_555 1_555
H22 C28 1_555 1_555
H23 C28 1_555 1_555
H24 C28 1_555 1_555
C29 C24 1_555 1_555
H25 C29 1_555 1_555
H26 C29 1_555 1_555
H27 C29 1_555 1_555
C30 C23 1_555 1_555
H28 C30 1_555 1_555
H29 C30 1_555 1_555
H30 C30 1_555 1_555
N4 C27 1_555 1_555
N5 C24 1_555 1_555
N6 C22 1_555 1_555
C5 C6 1_555 1_555
C10 N2 1_555 1_555
C10 N3 1_555 1_555
N1 N2 1_555 1_555
C20 C21 1_555 1_555
C25 N5 1_555 1_555
C25 N6 1_555 1_555
N4 N5 1_555 1_555

#END
