
#######################################################################
#
#                 Cambridge Crystallographic Data Centre
#                                CCDC 
#
#######################################################################
#
# If this CIF has been generated from an entry in the Cambridge 
# Structural Database, then it will include bibliographic, chemical, 
# crystal, experimental, refinement or atomic coordinate data resulting 
# from the CCDC's data processing and validation procedures.
#
#######################################################################

data_TOCHUQ
_chemical_name_common            HOF-8
_chemical_formula_moiety         'C24 H18 N6 O3,C1 H1 Cl3,H2 O1'
_chemical_name_systematic        
"N,N',N''-tris(pyridin-4-yl)benzene-1,3,5-tricarboxamide chloroform solvate hydrate"
_symmetry_cell_setting           monoclinic
_symmetry_space_group_name_H-M   'C 2/c'
_symmetry_Int_Tables_number      15
_space_group_name_Hall           '-C 2yn'
loop_
_symmetry_equiv_pos_site_id
_symmetry_equiv_pos_as_xyz
1 x,y,z
2 -x,y,1/2-z
3 1/2+x,1/2+y,z
4 1/2-x,1/2+y,1/2-z
5 -x,-y,-z
6 x,-y,1/2+z
7 1/2-x,1/2-y,-z
8 1/2+x,1/2-y,1/2+z
_cell_length_a                   26.128(3)
_cell_length_b                   15.3480(15)
_cell_length_c                   15.9352(15)
_cell_angle_alpha                90
_cell_angle_beta                 126.412(5)
_cell_angle_gamma                90
_cell_volume                     5142.65
_exptl_crystal_colour            colorless
_exptl_crystal_description       BLOCK
_cell_formula_units_Z            8
loop_
_atom_site_label
_atom_site_type_symbol
_atom_site_fract_x
_atom_site_fract_y
_atom_site_fract_z
C1 C 0.73049(9) -0.06846(11) 0.65559(13)
C2 C 0.78305(9) -0.07888(11) 0.75840(13)
H1 H 0.7969 -0.1347 0.7854
C3 C 0.81522(9) -0.00754(10) 0.82141(13)
C4 C 0.79283(9) 0.07601(11) 0.78135(14)
H2 H 0.8128 0.1243 0.8242
C5 C 0.74135(9) 0.08740(10) 0.67862(13)
C6 C 0.70936(9) 0.01515(11) 0.61640(14)
H3 H 0.6736 0.0227 0.5481
C7 C 0.70054(9) -0.14859(11) 0.58934(13)
C8 C 0.66428(9) -0.20510(11) 0.41632(13)
C9 C 0.66203(10) -0.18470(12) 0.32919(15)
H4 H 0.6785 -0.1322 0.3258
C10 C 0.63523(11) -0.24292(13) 0.24854(15)
H5 H 0.6330 -0.2272 0.1901
C11 C 0.61588(11) -0.33889(13) 0.33269(15)
H6 H 0.6004 -0.3927 0.3350
C12 C 0.64068(10) -0.28512(12) 0.41740(15)
H7 H 0.6415 -0.3023 0.4742
C13 C 0.87566(9) -0.01572(11) 0.92892(14)
C14 C 0.97383(9) -0.10508(11) 1.02760(14)
C15 C 1.00654(10) -0.16997(14) 1.01738(16)
H8 H 0.9894 -0.1952 0.9527
C16 C 1.06446(11) -0.19674(14) 1.10359(18)
H9 H 1.0855 -0.2403 1.0946
C17 C 1.06039(11) -0.10252(15) 1.20648(16)
H10 H 1.0786 -0.0787 1.2722
C18 C 1.00259(10) -0.07020(14) 1.12573(15)
H11 H 0.9831 -0.0256 1.1368
C19 C 0.72178(10) 0.17498(11) 0.62805(14)
C20 C 0.77005(9) 0.31162(11) 0.62111(14)
C21 C 0.82578(11) 0.35872(13) 0.67637(17)
H12 H 0.8627 0.3347 0.7347
C22 C 0.82622(12) 0.44139(14) 0.64444(19)
H13 H 0.8644 0.4720 0.6829
C23 C 0.72302(11) 0.43427(12) 0.50991(16)
H14 H 0.6871 0.4599 0.4515
C24 C 0.71715(10) 0.35102(11) 0.53521(14)
H15 H 0.6784 0.3219 0.4953
N1 N 0.68994(7) -0.14218(9) 0.49516(11)
H16 H 0.7003 -0.0934 0.4824
N2 N 0.61212(9) -0.32051(11) 0.24775(12)
N3 N 0.91470(7) -0.07996(9) 0.93825(11)
H17 H 0.9013 -0.1086 0.8823
N4 N 1.09264(8) -0.16498(12) 1.19894(14)
N5 N 0.77150(7) 0.22694(9) 0.65556(11)
H18 H 0.8087 0.2052 0.6998
N6 N 0.77609(10) 0.48066(10) 0.56256(14)
O1 O 0.69017(7) -0.21337(8) 0.62086(10)
O2 O 0.88902(7) 0.03187(8) 1.00043(10)
O3 O 0.66613(7) 0.19633(8) 0.56520(12)
loop_
_geom_bond_atom_site_label_1
_geom_bond_atom_site_label_2
_geom_bond_site_symmetry_1
_geom_bond_site_symmetry_2
C1 C2 1_555 1_555
C2 H1 1_555 1_555
C3 C2 1_555 1_555
C4 C3 1_555 1_555
H2 C4 1_555 1_555
C5 C4 1_555 1_555
C6 C1 1_555 1_555
H3 C6 1_555 1_555
C7 C1 1_555 1_555
C8 C9 1_555 1_555
C9 H4 1_555 1_555
C10 C9 1_555 1_555
H5 C10 1_555 1_555
C11 H6 1_555 1_555
C12 C8 1_555 1_555
H7 C12 1_555 1_555
C13 C3 1_555 1_555
C14 C15 1_555 1_555
C15 H8 1_555 1_555
C16 C15 1_555 1_555
H9 C16 1_555 1_555
C17 H10 1_555 1_555
C18 C14 1_555 1_555
H11 C18 1_555 1_555
C19 C5 1_555 1_555
C20 C21 1_555 1_555
C21 H12 1_555 1_555
C22 C21 1_555 1_555
H13 C22 1_555 1_555
C23 H14 1_555 1_555
C24 C20 1_555 1_555
H15 C24 1_555 1_555
N1 C7 1_555 1_555
H16 N1 1_555 1_555
N2 C10 1_555 1_555
N3 C13 1_555 1_555
H17 N3 1_555 1_555
N4 C16 1_555 1_555
N5 C19 1_555 1_555
H18 N5 1_555 1_555
N6 C22 1_555 1_555
O1 C7 1_555 1_555
O2 C13 1_555 1_555
O3 C19 1_555 1_555
C5 C6 1_555 1_555
C8 N1 1_555 1_555
C11 C12 1_555 1_555
C11 N2 1_555 1_555
C14 N3 1_555 1_555
C17 C18 1_555 1_555
C17 N4 1_555 1_555
C20 N5 1_555 1_555
C23 C24 1_555 1_555
C23 N6 1_555 1_555

#END
