
#######################################################################
#
#                 Cambridge Crystallographic Data Centre
#                                CCDC 
#
#######################################################################
#
# If this CIF has been generated from an entry in the Cambridge 
# Structural Database, then it will include bibliographic, chemical, 
# crystal, experimental, refinement or atomic coordinate data resulting 
# from the CCDC's data processing and validation procedures.
#
#######################################################################

data_TOCNOQ
_chemical_formula_moiety         'C20 H19 Cl1 O3'
_chemical_name_systematic        
'Ethyl 5-(4-chlorophenyl)-2-methyl-3-oxo-4-phenylpent-4-enoate'
_symmetry_cell_setting           monoclinic
_symmetry_space_group_name_H-M   'P 21/c'
_symmetry_Int_Tables_number      14
_space_group_name_Hall           '-P 2ybc'
loop_
_symmetry_equiv_pos_site_id
_symmetry_equiv_pos_as_xyz
1 x,y,z
2 -x,1/2+y,1/2-z
3 -x,-y,-z
4 x,1/2-y,1/2+z
_cell_length_a                   11.910(2)
_cell_length_b                   11.188(2)
_cell_length_c                   15.031(4)
_cell_angle_alpha                90
_cell_angle_beta                 118.702(15)
_cell_angle_gamma                90
_cell_volume                     1756.77
_exptl_crystal_colour            colorless
_exptl_crystal_description       block
_cell_formula_units_Z            4
loop_
_atom_site_label
_atom_site_type_symbol
_atom_site_fract_x
_atom_site_fract_y
_atom_site_fract_z
Cl1 Cl 0.25470(6) 0.34822(6) 0.12425(4)
O1 O 0.46858(13) 0.43612(13) 0.75831(11)
O2 O 0.15208(13) 0.51120(14) 0.70301(12)
O3 O 0.15932(12) 0.71067(12) 0.71104(10)
C1 C 0.31105(18) 0.51584(17) 0.37608(15)
H1 H 0.3100 0.5942 0.3964
C2 C 0.28614(18) 0.49334(18) 0.27805(15)
H2 H 0.2694 0.5561 0.2328
C3 C 0.28630(17) 0.37733(18) 0.24786(14)
C4 C 0.3106(2) 0.28381(19) 0.31320(16)
H3 H 0.3088 0.2056 0.2916
C5 C 0.3379(2) 0.30746(18) 0.41163(16)
H4 H 0.3570 0.2442 0.4568
C6 C 0.33774(16) 0.42298(17) 0.44524(14)
C7 C 0.37034(17) 0.43934(17) 0.55146(14)
H5 H 0.4172 0.3769 0.5940
C8 C 0.34435(15) 0.52870(16) 0.59812(13)
C9 C 0.26214(16) 0.63307(16) 0.54497(13)
C10 C 0.13232(17) 0.61619(18) 0.47896(14)
H6 H 0.0982 0.5394 0.4676
C11 C 0.0540(2) 0.7114(2) 0.43044(16)
H7 H -0.0325 0.6986 0.3865
C12 C 0.1023(3) 0.8249(2) 0.44628(19)
H8 H 0.0486 0.8892 0.4137
C13 C 0.2306(3) 0.84377(19) 0.51074(19)
H9 H 0.2636 0.9209 0.5212
C14 C 0.3107(2) 0.74860(18) 0.55997(15)
H10 H 0.3973 0.7620 0.6033
C15 C 0.39570(17) 0.51662(18) 0.71026(14)
C16 C 0.35563(17) 0.60812(19) 0.76463(14)
H11 H 0.3795 0.6881 0.7530
C17 C 0.4201(2) 0.5846(2) 0.87862(15)
H12 H 0.3914 0.5093 0.8909
H13 H 0.3982 0.6472 0.9112
H14 H 0.5113 0.5825 0.9054
C18 C 0.21094(18) 0.60303(19) 0.72179(14)
C19 C 0.02069(18) 0.7149(2) 0.66990(17)
H15 H -0.0037 0.6749 0.7153
H16 H -0.0217 0.6754 0.6045
C20 C -0.0167(2) 0.8434(2) 0.6591(2)
H17 H 0.0074 0.8819 0.6138
H18 H 0.0260 0.8816 0.7243
H19 H -0.1077 0.8496 0.6324
loop_
_geom_bond_atom_site_label_1
_geom_bond_atom_site_label_2
_geom_bond_site_symmetry_1
_geom_bond_site_symmetry_2
Cl1 C3 1_555 1_555
O1 C15 1_555 1_555
O2 C18 1_555 1_555
O3 C18 1_555 1_555
C1 H1 1_555 1_555
C2 C1 1_555 1_555
H2 C2 1_555 1_555
C3 C2 1_555 1_555
C4 C3 1_555 1_555
H3 C4 1_555 1_555
C5 C4 1_555 1_555
H4 C5 1_555 1_555
C6 C1 1_555 1_555
C7 C6 1_555 1_555
H5 C7 1_555 1_555
C8 C7 1_555 1_555
C9 C8 1_555 1_555
C10 C9 1_555 1_555
H6 C10 1_555 1_555
C11 C10 1_555 1_555
H7 C11 1_555 1_555
C12 C11 1_555 1_555
H8 C12 1_555 1_555
C13 C12 1_555 1_555
H9 C13 1_555 1_555
C14 C9 1_555 1_555
H10 C14 1_555 1_555
C15 C8 1_555 1_555
C16 C15 1_555 1_555
H11 C16 1_555 1_555
C17 C16 1_555 1_555
H12 C17 1_555 1_555
H13 C17 1_555 1_555
H14 C17 1_555 1_555
C18 C16 1_555 1_555
C19 O3 1_555 1_555
H15 C19 1_555 1_555
H16 C19 1_555 1_555
C20 C19 1_555 1_555
H17 C20 1_555 1_555
H18 C20 1_555 1_555
H19 C20 1_555 1_555
C5 C6 1_555 1_555
C13 C14 1_555 1_555

#END
