
#######################################################################
#
#                 Cambridge Crystallographic Data Centre
#                                CCDC 
#
#######################################################################
#
# If this CIF has been generated from an entry in the Cambridge 
# Structural Database, then it will include bibliographic, chemical, 
# crystal, experimental, refinement or atomic coordinate data resulting 
# from the CCDC's data processing and validation procedures.
#
#######################################################################

data_TOCNEG
_chemical_formula_moiety         'C35 H35 N5 O4'
_chemical_name_systematic        
3',6'-bis(diethylamino)-2-((4-nitrobenzylidene)amino)spiro[isoindole-1,9'-xanthen]-3(2H)-one
_symmetry_cell_setting           orthorhombic
_symmetry_space_group_name_H-M   'P n a 21'
_symmetry_Int_Tables_number      33
_space_group_name_Hall           'P 2c -2n'
loop_
_symmetry_equiv_pos_site_id
_symmetry_equiv_pos_as_xyz
1 x,y,z
2 -x,-y,1/2+z
3 1/2-x,1/2+y,1/2+z
4 1/2+x,1/2-y,z
_cell_length_a                   9.1305(6)
_cell_length_b                   16.6442(12)
_cell_length_c                   20.2034(13)
_cell_angle_alpha                90
_cell_angle_beta                 90
_cell_angle_gamma                90
_cell_volume                     3070.31
_cell_formula_units_Z            4
loop_
_atom_site_label
_atom_site_type_symbol
_atom_site_fract_x
_atom_site_fract_y
_atom_site_fract_z
O1 O 0.4226(5) 0.6645(3) 0.4187(2)
O2 O 0.2082(5) 0.4560(3) 0.67020(19)
O3 O -0.4916(7) 0.5339(4) 0.2942(3)
O4 O -0.4697(6) 0.6540(4) 0.2549(3)
N1 N 0.2925(6) 0.5917(3) 0.4968(2)
N2 N 0.1562(6) 0.5818(3) 0.4682(3)
N3 N 0.2873(8) 0.2078(4) 0.5619(3)
N4 N -0.0466(6) 0.6723(3) 0.7701(3)
N5 N -0.4256(8) 0.5971(5) 0.2882(3)
C1 C 0.4145(8) 0.6297(4) 0.4713(4)
C2 C 0.5302(8) 0.6194(4) 0.5214(3)
C3 C 0.6761(9) 0.6436(4) 0.5198(4)
H1 H 0.7110 0.6734 0.4841
C4 C 0.7675(8) 0.6236(5) 0.5702(5)
H2 H 0.8658 0.6382 0.5689
C5 C 0.7118(9) 0.5812(4) 0.6233(4)
H3 H 0.7740 0.5693 0.6584
C6 C 0.5663(8) 0.5555(4) 0.6267(3)
H4 H 0.5308 0.5269 0.6628
C7 C 0.4776(7) 0.5750(4) 0.5732(4)
C8 C 0.3171(6) 0.5518(4) 0.5622(3)
C9 C 0.2158(6) 0.5837(4) 0.6140(3)
C10 C 0.1683(7) 0.6622(4) 0.6149(3)
H5 H 0.1967 0.6961 0.5806
C11 C 0.0805(7) 0.6924(4) 0.6643(3)
H6 H 0.0489 0.7455 0.6622
C12 C 0.0385(7) 0.6440(4) 0.7176(4)
C13 C 0.0867(7) 0.5644(4) 0.7188(3)
H7 H 0.0631 0.5307 0.7540
C14 C 0.1707(7) 0.5371(4) 0.6662(3)
C15 C 0.2541(7) 0.4184(4) 0.6120(3)
C16 C 0.2477(7) 0.3357(4) 0.6138(4)
H8 H 0.2114 0.3101 0.6512
C17 C 0.2948(8) 0.2905(4) 0.5605(4)
C18 C 0.3438(8) 0.3329(4) 0.5052(4)
H9 H 0.3728 0.3045 0.4678
C19 C 0.3504(7) 0.4151(4) 0.5043(3)
H10 H 0.3868 0.4410 0.4670
C20 C 0.3038(6) 0.4604(4) 0.5579(3)
C21 C -0.1311(7) 0.7467(4) 0.7642(4)
H11 H -0.2233 0.7400 0.7874
H12 H -0.1534 0.7558 0.7178
C22 C -0.0559(10) 0.8188(4) 0.7908(5)
H13 H -0.1172 0.8651 0.7849
H14 H 0.0348 0.8267 0.7676
H15 H -0.0364 0.8113 0.8371
C23 C -0.0722(10) 0.6249(5) 0.8292(4)
H16 H -0.0921 0.6611 0.8657
H17 H 0.0166 0.5956 0.8397
C24 C -0.1973(11) 0.5656(6) 0.8237(4)
H18 H -0.2072 0.5369 0.8647
H19 H -0.1776 0.5283 0.7886
H20 H -0.2865 0.5940 0.8145
C25 C 0.3791(16) 0.1587(5) 0.5092(4)
H21 H 0.4623 0.1886 0.4924
H22 H 0.4108 0.1068 0.5258
C26 C 0.2626(12) 0.1523(6) 0.4618(8)
H23 H 0.2961 0.1227 0.4240
H24 H 0.2326 0.2051 0.4483
H25 H 0.1811 0.1248 0.4815
C27 C 0.2179(10) 0.1645(4) 0.6167(4)
H26 H 0.1768 0.1147 0.6001
H27 H 0.1379 0.1967 0.6339
C28 C 0.3215(9) 0.1459(4) 0.6717(4)
H28 H 0.2699 0.1189 0.7066
H29 H 0.3630 0.1949 0.6883
H30 H 0.3984 0.1118 0.6555
C29 C 0.1207(8) 0.6269(4) 0.4200(3)
H31 H 0.1857 0.6660 0.4052
C30 C -0.0203(7) 0.6179(4) 0.3879(3)
C31 C -0.0625(8) 0.6748(4) 0.3411(3)
H32 H -0.0004 0.7172 0.3307
C32 C -0.1972(9) 0.6681(4) 0.3101(3)
H33 H -0.2270 0.7071 0.2800
C33 C -0.2855(9) 0.6049(5) 0.3236(3)
C34 C -0.2461(8) 0.5480(4) 0.3694(4)
H34 H -0.3085 0.5052 0.3783
C35 C -0.1130(8) 0.5541(4) 0.4026(3)
H35 H -0.0865 0.5161 0.4341
loop_
_geom_bond_atom_site_label_1
_geom_bond_atom_site_label_2
_geom_bond_site_symmetry_1
_geom_bond_site_symmetry_2
O1 C1 1_555 1_555
O2 C14 1_555 1_555
O3 N5 1_555 1_555
O4 N5 1_555 1_555
N1 N2 1_555 1_555
N2 C29 1_555 1_555
N3 C17 1_555 1_555
N4 C12 1_555 1_555
N5 C33 1_555 1_555
C1 N1 1_555 1_555
C2 C1 1_555 1_555
C3 C2 1_555 1_555
H1 C3 1_555 1_555
C4 C3 1_555 1_555
H2 C4 1_555 1_555
C5 C4 1_555 1_555
H3 C5 1_555 1_555
C6 C5 1_555 1_555
H4 C6 1_555 1_555
C7 C2 1_555 1_555
C8 N1 1_555 1_555
C9 C8 1_555 1_555
C10 C9 1_555 1_555
H5 C10 1_555 1_555
C11 C10 1_555 1_555
H6 C11 1_555 1_555
C12 C11 1_555 1_555
C13 C12 1_555 1_555
H7 C13 1_555 1_555
C14 C9 1_555 1_555
C15 O2 1_555 1_555
C16 C15 1_555 1_555
H8 C16 1_555 1_555
C17 C16 1_555 1_555
C18 C17 1_555 1_555
H9 C18 1_555 1_555
C19 C18 1_555 1_555
H10 C19 1_555 1_555
C20 C8 1_555 1_555
C21 N4 1_555 1_555
H11 C21 1_555 1_555
H12 C21 1_555 1_555
C22 C21 1_555 1_555
H13 C22 1_555 1_555
H14 C22 1_555 1_555
H15 C22 1_555 1_555
C23 N4 1_555 1_555
H16 C23 1_555 1_555
H17 C23 1_555 1_555
C24 C23 1_555 1_555
H18 C24 1_555 1_555
H19 C24 1_555 1_555
H20 C24 1_555 1_555
C25 N3 1_555 1_555
H21 C25 1_555 1_555
H22 C25 1_555 1_555
C26 C25 1_555 1_555
H23 C26 1_555 1_555
H24 C26 1_555 1_555
H25 C26 1_555 1_555
C27 N3 1_555 1_555
H26 C27 1_555 1_555
H27 C27 1_555 1_555
C28 C27 1_555 1_555
H28 C28 1_555 1_555
H29 C28 1_555 1_555
H30 C28 1_555 1_555
C29 H31 1_555 1_555
C30 C29 1_555 1_555
C31 C30 1_555 1_555
H32 C31 1_555 1_555
C32 C31 1_555 1_555
H33 C32 1_555 1_555
C33 C32 1_555 1_555
C34 C33 1_555 1_555
H34 C34 1_555 1_555
C35 C30 1_555 1_555
H35 C35 1_555 1_555
C6 C7 1_555 1_555
C7 C8 1_555 1_555
C13 C14 1_555 1_555
C15 C20 1_555 1_555
C19 C20 1_555 1_555
C34 C35 1_555 1_555

#END
