
#######################################################################
#
#                 Cambridge Crystallographic Data Centre
#                                CCDC 
#
#######################################################################
#
# If this CIF has been generated from an entry in the Cambridge 
# Structural Database, then it will include bibliographic, chemical, 
# crystal, experimental, refinement or atomic coordinate data resulting 
# from the CCDC's data processing and validation procedures.
#
#######################################################################

data_TOCRUY01
_chemical_formula_moiety         'C21 H49 Li1 N2 Si2'
_chemical_name_systematic        
(\h^3^-1,3-bis(t-Butyldimethylsilyl)allyl)-(N,N,N',N'-tetramethylethanediamine)-lithium
_symmetry_cell_setting           monoclinic
_symmetry_space_group_name_H-M   'P 21/n'
_symmetry_Int_Tables_number      14
_space_group_name_Hall           '-P 2yn'
loop_
_symmetry_equiv_pos_site_id
_symmetry_equiv_pos_as_xyz
1 x,y,z
2 1/2-x,1/2+y,1/2-z
3 -x,-y,-z
4 1/2+x,1/2-y,1/2+z
_cell_length_a                   11.295(3)
_cell_length_b                   21.365(3)
_cell_length_c                   12.254(4)
_cell_angle_alpha                90
_cell_angle_beta                 103.33(2)
_cell_angle_gamma                90
_cell_volume                     2877.44
_exptl_crystal_colour            colorless
_chemical_melting_point          '83-85 deg.C'
_cell_formula_units_Z            4
_chemical_properties_physical    air-sensitive
loop_
_atom_site_label
_atom_site_type_symbol
_atom_site_fract_x
_atom_site_fract_y
_atom_site_fract_z
Li1 Li 0.4460(12) -0.0984(7) 0.2643(12)
Si1 Si 0.1807(2) 0.00137(12) 0.2158(2)
Si2 Si 0.4072(2) -0.20139(11) 0.4901(2)
N1 N 0.4432(6) -0.1502(3) 0.1151(5)
N2 N 0.6182(5) -0.0672(3) 0.2519(6)
C1 C 0.3155(6) -0.0318(3) 0.3128(6)
C2 C 0.3149(6) -0.0917(3) 0.3620(6)
C3 C 0.4147(6) -0.1220(3) 0.4323(6)
C4 C 0.0726(8) -0.0599(4) 0.1492(8)
C5 C 0.2326(7) 0.0452(4) 0.1039(7)
C6 C 0.0947(7) 0.0582(4) 0.2868(6)
C7 C 0.0505(8) 0.0260(5) 0.3793(7)
C8 C 0.1782(9) 0.1123(4) 0.3367(8)
C9 C -0.0160(8) 0.0864(5) 0.2027(8)
C10 C 0.2791(8) -0.2471(4) 0.4051(8)
C11 C 0.5530(8) -0.2442(4) 0.4929(9)
C12 C 0.3910(7) -0.1998(4) 0.6398(7)
C13 C 0.4929(8) -0.1623(5) 0.7110(7)
C14 C 0.2678(8) -0.1692(5) 0.6427(8)
C15 C 0.3955(9) -0.2649(5) 0.6909(9)
C16 C 0.5579(9) -0.1354(6) 0.0910(9)
C17 C 0.6348(8) -0.0946(6) 0.1538(9)
C18 C 0.3477(11) -0.1285(7) 0.0223(9)
C19 C 0.4344(12) -0.2147(5) 0.1294(11)
C20 C 0.6277(11) -0.0009(6) 0.2458(14)
C21 C 0.7093(10) -0.0864(9) 0.3429(11)
loop_
_geom_bond_atom_site_label_1
_geom_bond_atom_site_label_2
_geom_bond_site_symmetry_1
_geom_bond_site_symmetry_2
Li1 N1 1_555 1_555
Si1 C1 1_555 1_555
Si2 C3 1_555 1_555
N1 C16 1_555 1_555
N2 Li1 1_555 1_555
C1 Li1 1_555 1_555
C2 Li1 1_555 1_555
C3 Li1 1_555 1_555
C4 Si1 1_555 1_555
C5 Si1 1_555 1_555
C6 Si1 1_555 1_555
C7 C6 1_555 1_555
C8 C6 1_555 1_555
C9 C6 1_555 1_555
C10 Si2 1_555 1_555
C11 Si2 1_555 1_555
C12 Si2 1_555 1_555
C13 C12 1_555 1_555
C14 C12 1_555 1_555
C15 C12 1_555 1_555
C16 C17 1_555 1_555
C17 N2 1_555 1_555
C18 N1 1_555 1_555
C19 N1 1_555 1_555
C20 N2 1_555 1_555
C21 N2 1_555 1_555
C1 C2 1_555 1_555
C2 C3 1_555 1_555

#END
