
#######################################################################
#
#                 Cambridge Crystallographic Data Centre
#                                CCDC 
#
#######################################################################
#
# If this CIF has been generated from an entry in the Cambridge 
# Structural Database, then it will include bibliographic, chemical, 
# crystal, experimental, refinement or atomic coordinate data resulting 
# from the CCDC's data processing and validation procedures.
#
#######################################################################

data_TODLIH
_chemical_formula_moiety         'C23 H31 N1 O1'
_chemical_name_systematic        'N-(2,6-Di-isopropylphenyl) p-t-butylbenzamide'
_symmetry_cell_setting           monoclinic
_symmetry_space_group_name_H-M   'P 21/n'
_symmetry_Int_Tables_number      14
_space_group_name_Hall           '-P 2yn'
loop_
_symmetry_equiv_pos_site_id
_symmetry_equiv_pos_as_xyz
1 x,y,z
2 1/2-x,1/2+y,1/2-z
3 -x,-y,-z
4 1/2+x,1/2-y,1/2+z
_cell_length_a                   10.360(3)
_cell_length_b                   9.983(3)
_cell_length_c                   21.152(5)
_cell_angle_alpha                90
_cell_angle_beta                 94.670(10)
_cell_angle_gamma                90
_cell_volume                     2180.36
_exptl_crystal_colour            colorless
_cell_formula_units_Z            4
loop_
_atom_site_label
_atom_site_type_symbol
_atom_site_fract_x
_atom_site_fract_y
_atom_site_fract_z
N1 N 0.2573(4) -0.0024(3) 0.2402(2)
O1 O 0.2441(4) 0.2141(3) 0.2634(2)
C1 C 0.2327(5) 0.0632(4) 0.3496(2)
C2 C 0.2232(6) 0.1633(5) 0.3931(2)
C3 C 0.2209(6) 0.1388(5) 0.4567(2)
C4 C 0.2295(5) 0.0112(5) 0.4811(2)
C5 C 0.2363(6) -0.0896(5) 0.4372(2)
C6 C 0.2376(6) -0.0649(5) 0.3734(2)
C7 C 0.2436(5) 0.0980(4) 0.2817(2)
C8 C 0.2842(5) 0.0172(4) 0.1761(2)
C9 C 0.4138(6) 0.0241(5) 0.1628(2)
C10 C 0.4378(8) 0.0345(6) 0.0997(3)
C11 C 0.3405(11) 0.0387(7) 0.0522(3)
C12 C 0.2140(9) 0.0357(6) 0.0665(3)
C13 C 0.1818(6) 0.0259(5) 0.1294(2)
C14 C 0.2347(6) -0.0167(6) 0.5523(2)
C15 C 0.5240(7) 0.0174(7) 0.2145(3)
C16 C 0.0433(7) 0.0215(7) 0.1452(3)
C17 C 0.1682(8) 0.0907(8) 0.5881(3)
C18 C 0.1745(8) -0.1482(8) 0.5671(3)
C19 C 0.3770(7) -0.0220(8) 0.5767(3)
C20 C -0.0207(8) -0.1050(9) 0.1266(5)
C21 C -0.0344(9) 0.1354(9) 0.1193(5)
C22 C 0.5915(9) -0.1115(9) 0.2151(4)
C23 C 0.6031(10) 0.1361(10) 0.2187(4)
H1 H 0.2465(4) -0.0873(3) 0.2530(2)
H2 H 0.2198(6) 0.2548(5) 0.3790(2)
H3 H 0.2129(6) 0.2125(5) 0.4853(2)
H4 H 0.2414(6) -0.1809(5) 0.4514(2)
H5 H 0.2408(6) -0.1389(5) 0.3446(2)
H6 H 0.5257(8) 0.0408(6) 0.0887(3)
H7 H 0.3590(11) 0.0438(7) 0.0086(3)
H8 H 0.1460(9) 0.0410(6) 0.0329(3)
H9 H 0.4830(7) 0.0153(7) 0.2536(3)
H10 H 0.0420(7) 0.0263(7) 0.1904(3)
H11 H 0.2052(8) 0.1765(8) 0.5799(3)
H12 H 0.0778(8) 0.0911(8) 0.5740(3)
H13 H 0.1783(8) 0.0725(8) 0.6328(3)
H14 H 0.2152(8) -0.2193(8) 0.5456(3)
H15 H 0.1845(8) -0.1638(8) 0.6121(3)
H16 H 0.0840(8) -0.1452(8) 0.5532(3)
H17 H 0.4198(7) -0.0903(8) 0.5542(3)
H18 H 0.4163(7) 0.0632(8) 0.5697(3)
H19 H 0.3848(7) -0.0420(8) 0.6212(3)
H20 H 0.0244(8) -0.1815(9) 0.1449(5)
H21 H -0.1085(8) -0.1058(9) 0.1380(5)
H22 H -0.0202(8) -0.1083(9) 0.0813(5)
H23 H -0.1220(9) 0.1317(9) 0.1309(5)
H24 H 0.0043(9) 0.2187(9) 0.1334(5)
H25 H -0.0340(9) 0.1288(9) 0.0740(5)
H26 H 0.5332(9) -0.1863(9) 0.2148(4)
H27 H 0.6346(9) -0.1112(9) 0.1766(4)
H28 H 0.6545(9) -0.1188(9) 0.2508(4)
H29 H 0.5505(10) 0.2146(10) 0.2218(4)
H30 H 0.6662(10) 0.1322(10) 0.2544(4)
H31 H 0.6464(10) 0.1398(10) 0.1803(4)
loop_
_geom_bond_atom_site_label_1
_geom_bond_atom_site_label_2
_geom_bond_site_symmetry_1
_geom_bond_site_symmetry_2
N1 C7 1_555 1_555
O1 C7 1_555 1_555
C1 C2 1_555 1_555
C2 C3 1_555 1_555
C3 C4 1_555 1_555
C4 C5 1_555 1_555
C5 C6 1_555 1_555
C6 C1 1_555 1_555
C7 C1 1_555 1_555
C8 N1 1_555 1_555
C9 C8 1_555 1_555
C10 C9 1_555 1_555
C11 C10 1_555 1_555
C12 C11 1_555 1_555
C13 C8 1_555 1_555
C14 C4 1_555 1_555
C15 C9 1_555 1_555
C16 C13 1_555 1_555
C17 C14 1_555 1_555
C18 C14 1_555 1_555
C19 C14 1_555 1_555
C20 C16 1_555 1_555
C21 C16 1_555 1_555
C22 C15 1_555 1_555
C23 C15 1_555 1_555
H1 N1 1_555 1_555
H2 C2 1_555 1_555
H3 C3 1_555 1_555
H4 C5 1_555 1_555
H5 C6 1_555 1_555
H6 C10 1_555 1_555
H7 C11 1_555 1_555
H8 C12 1_555 1_555
H9 C15 1_555 1_555
H10 C16 1_555 1_555
H11 C17 1_555 1_555
H12 C17 1_555 1_555
H13 C17 1_555 1_555
H14 C18 1_555 1_555
H15 C18 1_555 1_555
H16 C18 1_555 1_555
H17 C19 1_555 1_555
H18 C19 1_555 1_555
H19 C19 1_555 1_555
H20 C20 1_555 1_555
H21 C20 1_555 1_555
H22 C20 1_555 1_555
H23 C21 1_555 1_555
H24 C21 1_555 1_555
H25 C21 1_555 1_555
H26 C22 1_555 1_555
H27 C22 1_555 1_555
H28 C22 1_555 1_555
H29 C23 1_555 1_555
H30 C23 1_555 1_555
H31 C23 1_555 1_555
C12 C13 1_555 1_555

#END
