
#######################################################################
#
#                 Cambridge Crystallographic Data Centre
#                                CCDC 
#
#######################################################################
#
# If this CIF has been generated from an entry in the Cambridge 
# Structural Database, then it will include bibliographic, chemical, 
# crystal, experimental, refinement or atomic coordinate data resulting 
# from the CCDC's data processing and validation procedures.
#
#######################################################################

data_TOFPEJ
_chemical_formula_moiety         'C28 H24 O4 Si1,0.5(C3 H6 O1)'
_chemical_name_systematic        
"bis(5,5'-Dimethoxy-2,2'-biphenyl)-silicon acetone solvate"
_symmetry_cell_setting           triclinic
_symmetry_space_group_name_H-M   'P -1'
_symmetry_Int_Tables_number      2
_space_group_name_Hall           '-P 1'
loop_
_symmetry_equiv_pos_site_id
_symmetry_equiv_pos_as_xyz
1 x,y,z
2 -x,-y,-z
_cell_length_a                   16.965(8)
_cell_length_b                   14.768(7)
_cell_length_c                   11.196(6)
_cell_angle_alpha                105.75(5)
_cell_angle_beta                 76.46(5)
_cell_angle_gamma                104.90(5)
_cell_volume                     2567.9
_cell_formula_units_Z            4
loop_
_atom_site_label
_atom_site_type_symbol
_atom_site_fract_x
_atom_site_fract_y
_atom_site_fract_z
Si1 Si 0.71513 0.83886 0.06596
C1 C 0.96449 0.89513 0.35566
O1 O 0.88862 0.90121 0.44161
C2 C 0.81797 0.88262 0.39074
C3 C 0.74397 0.87523 0.47723
C4 C 0.66893 0.85602 0.43903
C5 C 0.66589 0.84424 0.31308
C6 C 0.58920 0.82440 0.26109
C7 C 0.50929 0.81336 0.32935
C8 C 0.44255 0.79398 0.26994
C9 C 0.45333 0.78638 0.14125
O2 O 0.38183 0.76627 0.09424
C10 C 0.39007 0.75109 -0.04015
C11 C 0.53313 0.79852 0.07035
C12 C 0.60143 0.81721 0.12934
C13 C 0.74058 0.85256 0.22445
C14 C 0.81589 0.87099 0.26388
C15 C 0.83485 1.25508 -0.10155
O3 O 0.79808 1.19333 -0.01706
C16 C 0.79961 1.09718 -0.06343
C17 C 0.76143 1.03792 0.02031
C18 C 0.76090 0.93955 -0.01740
C19 C 0.80039 0.90187 -0.14082
C20 C 0.79859 0.79684 -0.17037
C21 C 0.75640 0.74948 -0.07289
C22 C 0.75213 0.65149 -0.09074
C23 C 0.78858 0.60070 -0.20379
O4 O 0.78893 0.50475 -0.23113
C24 C 0.73380 0.44808 -0.15084
C25 C 0.83039 0.64815 -0.29919
C26 C 0.83465 0.74464 -0.28398
C27 C 0.83719 0.96181 -0.22188
C28 C 0.83584 1.05901 -0.18458
Si2 Si 0.30593 0.63524 -0.44148
C29 C 0.60443 0.96472 -0.19979
O5 O 0.56064 0.87044 -0.24621
C30 C 0.49007 0.86146 -0.29301
C31 C 0.45962 0.93751 -0.29930
C32 C 0.38822 0.92074 -0.34737
C33 C 0.34494 0.82781 -0.38567
C34 C 0.26815 0.80053 -0.44035
C35 C 0.22470 0.86447 -0.45438
C36 C 0.15354 0.83165 -0.50552
C37 C 0.12492 0.73363 -0.54549
O6 O 0.05330 0.70900 -0.59416
C38 C 0.01858 0.61119 -0.63111
C39 C 0.16665 0.66870 -0.53261
C40 C 0.23843 0.70158 -0.48012
C41 C 0.37570 0.75007 -0.37827
C42 C 0.44813 0.76733 -0.33364
C43 C 0.06880 0.42471 0.00457
O7 O 0.11180 0.50300 -0.05223
C44 C 0.16322 0.48384 -0.1668
C45 C 0.19811 0.56129 -0.22333
C46 C 0.25097 0.54936 -0.33848
C47 C 0.26886 0.45798 -0.39845
C48 C 0.32699 0.45347 -0.52111
C49 C 0.35618 0.54153 -0.55905
C50 C 0.41552 0.54702 -0.66693
C51 C 0.44399 0.46619 -0.73987
O8 O 0.50324 0.46476 -0.84609
C52 C 0.55330 0.55486 -0.86377
C53 C 0.41071 0.37846 -0.70644
C54 C 0.35413 0.37153 -0.59919
C55 C 0.23378 0.38187 -0.34097
C56 C 0.18150 0.39443 -0.22474
C57 C 0.94227 0.25605 0.18845
C58 C 0.97945 0.17488 0.10416
C59 C 0.96945 0.08836 0.15780
O9 O 1.01574 0.17914 -0.00211
loop_
_geom_bond_atom_site_label_1
_geom_bond_atom_site_label_2
_geom_bond_site_symmetry_1
_geom_bond_site_symmetry_2
Si1 C12 1_555 1_555
C1 O1 1_555 1_555
O1 C2 1_555 1_555
C2 C3 1_555 1_555
C3 C4 1_555 1_555
C4 C5 1_555 1_555
C5 C6 1_555 1_555
C6 C7 1_555 1_555
C7 C8 1_555 1_555
C8 C9 1_555 1_555
C9 O2 1_555 1_555
O2 C10 1_555 1_555
C11 C9 1_555 1_555
C12 C6 1_555 1_555
C13 Si1 1_555 1_555
C14 C2 1_555 1_555
C15 O3 1_555 1_555
O3 C16 1_555 1_555
C16 C17 1_555 1_555
C17 C18 1_555 1_555
C18 Si1 1_555 1_555
C19 C18 1_555 1_555
C20 C19 1_555 1_555
C21 Si1 1_555 1_555
C22 C21 1_555 1_555
C23 C22 1_555 1_555
O4 C23 1_555 1_555
C24 O4 1_555 1_555
C25 C23 1_555 1_555
C26 C20 1_555 1_555
C27 C19 1_555 1_555
C28 C16 1_555 1_555
Si2 C40 1_555 1_555
C29 O5 1_555 1_555
O5 C30 1_555 1_555
C30 C31 1_555 1_555
C31 C32 1_555 1_555
C32 C33 1_555 1_555
C33 C34 1_555 1_555
C34 C35 1_555 1_555
C35 C36 1_555 1_555
C36 C37 1_555 1_555
C37 O6 1_555 1_555
O6 C38 1_555 1_555
C39 C37 1_555 1_555
C40 C34 1_555 1_555
C41 Si2 1_555 1_555
C42 C30 1_555 1_555
C43 O7 1_555 1_555
O7 C44 1_555 1_555
C44 C45 1_555 1_555
C45 C46 1_555 1_555
C46 Si2 1_555 1_555
C47 C46 1_555 1_555
C48 C47 1_555 1_555
C49 Si2 1_555 1_555
C50 C49 1_555 1_555
C51 C50 1_555 1_555
O8 C51 1_555 1_555
C52 O8 1_555 1_555
C53 C51 1_555 1_555
C54 C48 1_555 1_555
C55 C47 1_555 1_555
C56 C44 1_555 1_555
C57 C58 1_555 1_555
C58 C59 1_555 1_555
O9 C58 1_555 1_555
C5 C13 1_555 1_555
C11 C12 1_555 1_555
C13 C14 1_555 1_555
C20 C21 1_555 1_555
C25 C26 1_555 1_555
C27 C28 1_555 1_555
C33 C41 1_555 1_555
C39 C40 1_555 1_555
C41 C42 1_555 1_555
C48 C49 1_555 1_555
C53 C54 1_555 1_555
C55 C56 1_555 1_555

#END
