
#######################################################################
#
#                 Cambridge Crystallographic Data Centre
#                                CCDC 
#
#######################################################################
#
# If this CIF has been generated from an entry in the Cambridge 
# Structural Database, then it will include bibliographic, chemical, 
# crystal, experimental, refinement or atomic coordinate data resulting 
# from the CCDC's data processing and validation procedures.
#
#######################################################################

data_TOGXUK
_chemical_formula_moiety         'C15 H22 O3'
_chemical_name_systematic        
3a-hydroxy-1,4,4,6-tetramethyl-3a,4,5,5a,6,7,8,8a-octahydro-2H-indeno[5,4-b]furan-2-one
_symmetry_cell_setting           monoclinic
_symmetry_space_group_name_H-M   'P 21'
_symmetry_Int_Tables_number      4
_space_group_name_Hall           'P 2yb'
loop_
_symmetry_equiv_pos_site_id
_symmetry_equiv_pos_as_xyz
1 x,y,z
2 -x,1/2+y,-z
_cell_length_a                   6.896(1)
_cell_length_b                   7.706(1)
_cell_length_c                   13.516(1)
_cell_angle_alpha                90
_cell_angle_beta                 96.435(5)
_cell_angle_gamma                90
_cell_volume                     713.723
_exptl_crystal_colour            colorless
_exptl_crystal_description       prism
_cell_formula_units_Z            2
loop_
_atom_site_label
_atom_site_type_symbol
_atom_site_fract_x
_atom_site_fract_y
_atom_site_fract_z
O1 O 0.4891(8) 0.4997(10) 0.4340(4)
O2 O 0.3573(9) 0.4994(12) 0.5765(4)
O3 O 0.6206(8) 0.3117(12) 0.3271(4)
H1 H 0.6498 0.2498 0.3777
C1 C 0.3594(13) 0.4442(13) 0.4927(6)
C2 C 0.2260(11) 0.3159(14) 0.4405(6)
C3 C 0.2815(12) 0.2972(14) 0.3501(6)
C4 C 0.4555(11) 0.4090(16) 0.3395(6)
C5 C 0.0723(12) 0.2240(18) 0.4925(6)
H2 H -0.0097 0.1533 0.4442
H3 H -0.0088 0.3100 0.5219
H4 H 0.1358 0.1491 0.5451
C6 C 0.2082(13) 0.1995(15) 0.2587(6)
H5 H 0.3132 0.1162 0.2451
C7 C 0.0159(13) 0.0965(18) 0.2511(6)
H6 H -0.0878 0.1634 0.2790
H7 H 0.0337 -0.0158 0.2866
C8 C -0.0338(16) 0.069(2) 0.1379(7)
H8 H -0.1740 0.0913 0.1176
H9 H -0.0042 -0.0522 0.1195
C9 C 0.0965(18) 0.200(2) 0.0856(8)
H10 H 0.0105 0.2694 0.0357
C10 C 0.251(2) 0.109(3) 0.0325(10)
H11 H 0.3302 0.1955 0.0023
H12 H 0.1870 0.0332 -0.0196
H13 H 0.3347 0.0392 0.0805
C11 C 0.1778(15) 0.3215(18) 0.1704(6)
H14 H 0.0699 0.4023 0.1831
C12 C 0.3573(16) 0.4340(17) 0.1587(6)
H15 H 0.4653 0.3587 0.1420
H16 H 0.3258 0.5162 0.1029
C13 C 0.4239(15) 0.5354(16) 0.2527(6)
C14 C 0.6147(16) 0.635(2) 0.2382(8)
H17 H 0.7158 0.5525 0.2239
H18 H 0.6590 0.6996 0.2991
H19 H 0.5894 0.7165 0.1825
C15 C 0.2712(18) 0.6789(19) 0.2748(9)
H20 H 0.1481 0.6233 0.2867
H21 H 0.2483 0.7571 0.2175
H22 H 0.3223 0.7454 0.3338
loop_
_geom_bond_atom_site_label_1
_geom_bond_atom_site_label_2
_geom_bond_site_symmetry_1
_geom_bond_site_symmetry_2
O1 C1 1_555 1_555
O2 C1 1_555 1_555
O3 H1 1_555 1_555
C1 C2 1_555 1_555
C2 C3 1_555 1_555
C3 C4 1_555 1_555
C4 O1 1_555 1_555
C5 C2 1_555 1_555
H2 C5 1_555 1_555
H3 C5 1_555 1_555
H4 C5 1_555 1_555
C6 C3 1_555 1_555
H5 C6 1_555 1_555
C7 C6 1_555 1_555
H6 C7 1_555 1_555
H7 C7 1_555 1_555
C8 C7 1_555 1_555
H8 C8 1_555 1_555
H9 C8 1_555 1_555
C9 C8 1_555 1_555
H10 C9 1_555 1_555
C10 C9 1_555 1_555
H11 C10 1_555 1_555
H12 C10 1_555 1_555
H13 C10 1_555 1_555
C11 C6 1_555 1_555
H14 C11 1_555 1_555
C12 C11 1_555 1_555
H15 C12 1_555 1_555
H16 C12 1_555 1_555
C13 C4 1_555 1_555
C14 C13 1_555 1_555
H17 C14 1_555 1_555
H18 C14 1_555 1_555
H19 C14 1_555 1_555
C15 C13 1_555 1_555
H20 C15 1_555 1_555
H21 C15 1_555 1_555
H22 C15 1_555 1_555
O3 C4 1_555 1_555
C9 C11 1_555 1_555
C12 C13 1_555 1_555

#END
