
#######################################################################
#
#                 Cambridge Crystallographic Data Centre
#                                CCDC 
#
#######################################################################
#
# If this CIF has been generated from an entry in the Cambridge 
# Structural Database, then it will include bibliographic, chemical, 
# crystal, experimental, refinement or atomic coordinate data resulting 
# from the CCDC's data processing and validation procedures.
#
#######################################################################

data_TOGYEV
_chemical_formula_moiety         'C15 H24 O2'
_chemical_name_systematic        
3-hydroxy-2,5,5,8a-tetramethyl-3,4,4a,5,6,7,8,8a-octahydronaphthalene-1-carbaldehyde
_symmetry_cell_setting           orthorhombic
_symmetry_space_group_name_H-M   'P 21 21 21'
_symmetry_Int_Tables_number      19
_space_group_name_Hall           'P 2ac 2ab'
loop_
_symmetry_equiv_pos_site_id
_symmetry_equiv_pos_as_xyz
1 x,y,z
2 1/2-x,-y,1/2+z
3 -x,1/2+y,1/2-z
4 1/2+x,1/2-y,-z
_cell_length_a                   7.5653(2)
_cell_length_b                   10.7212(4)
_cell_length_c                   16.5230(6)
_cell_angle_alpha                90
_cell_angle_beta                 90
_cell_angle_gamma                90
_cell_volume                     1340.17
_exptl_crystal_colour            colorless
_exptl_crystal_description       prism
_cell_formula_units_Z            4
loop_
_atom_site_label
_atom_site_type_symbol
_atom_site_fract_x
_atom_site_fract_y
_atom_site_fract_z
O1 O 0.7831(3) 0.0008(2) 0.79696(14)
H1 H 0.6853 0.0367 0.7911
O2 O 1.4921(2) 0.1806(2) 0.79774(13)
C1 C 0.8847(3) 0.0650(3) 0.85684(15)
H2 H 0.8062 0.1240 0.8845
C2 C 1.0316(3) 0.1387(2) 0.81796(13)
C3 C 1.1999(3) 0.1339(2) 0.84507(14)
C4 C 1.2582(3) 0.0543(2) 0.91744(13)
C5 C 1.0927(3) 0.0301(2) 0.97014(13)
H3 H 1.0476 0.1135 0.9829
C6 C 0.9478(3) -0.0292(3) 0.91858(15)
H4 H 0.9935 -0.1025 0.8913
H5 H 0.8500 -0.0547 0.9528
C7 C 0.9677(4) 0.2173(4) 0.74767(18)
H6 H 0.9746 0.1696 0.6986
H7 H 1.0406 0.2903 0.7429
H8 H 0.8474 0.2420 0.7570
C8 C 1.3347(4) 0.2019(3) 0.79812(17)
H9 H 1.2953 0.2673 0.7658
C9 C 1.3473(4) -0.0642(3) 0.88411(17)
H10 H 1.4357 -0.0413 0.8452
H11 H 1.2601 -0.1161 0.8586
H12 H 1.4017 -0.1092 0.9277
C10 C 1.3902(3) 0.1293(3) 0.97050(16)
H13 H 1.4998 0.1404 0.9409
H14 H 1.3414 0.2113 0.9813
C11 C 1.4292(4) 0.0644(3) 1.05052(18)
H15 H 1.4859 -0.0151 1.0399
H16 H 1.5106 0.1150 1.0818
C12 C 1.2622(4) 0.0427(3) 1.09938(16)
H17 H 1.2128 0.1229 1.1145
H18 H 1.2928 -0.0012 1.1488
C13 C 1.1214(4) -0.0322(3) 1.05408(15)
C14 C 1.1740(4) -0.1709(3) 1.0493(2)
H19 H 1.1040 -0.2118 1.0087
H20 H 1.1538 -0.2099 1.1008
H21 H 1.2968 -0.1775 1.0354
C15 C 0.9492(4) -0.0241(4) 1.10241(18)
H22 H 0.9032 0.0592 1.0993
H23 H 0.9719 -0.0450 1.1579
H24 H 0.8645 -0.0815 1.0803
loop_
_geom_bond_atom_site_label_1
_geom_bond_atom_site_label_2
_geom_bond_site_symmetry_1
_geom_bond_site_symmetry_2
O1 H1 1_555 1_555
O2 C8 1_555 1_555
C1 O1 1_555 1_555
H2 C1 1_555 1_555
C2 C1 1_555 1_555
C3 C2 1_555 1_555
C4 C3 1_555 1_555
C5 C4 1_555 1_555
H3 C5 1_555 1_555
C6 C1 1_555 1_555
H4 C6 1_555 1_555
H5 C6 1_555 1_555
C7 C2 1_555 1_555
H6 C7 1_555 1_555
H7 C7 1_555 1_555
H8 C7 1_555 1_555
C8 C3 1_555 1_555
H9 C8 1_555 1_555
C9 C4 1_555 1_555
H10 C9 1_555 1_555
H11 C9 1_555 1_555
H12 C9 1_555 1_555
C10 C4 1_555 1_555
H13 C10 1_555 1_555
H14 C10 1_555 1_555
C11 C10 1_555 1_555
H15 C11 1_555 1_555
H16 C11 1_555 1_555
C12 C11 1_555 1_555
H17 C12 1_555 1_555
H18 C12 1_555 1_555
C13 C5 1_555 1_555
C14 C13 1_555 1_555
H19 C14 1_555 1_555
H20 C14 1_555 1_555
H21 C14 1_555 1_555
C15 C13 1_555 1_555
H22 C15 1_555 1_555
H23 C15 1_555 1_555
H24 C15 1_555 1_555
C5 C6 1_555 1_555
C12 C13 1_555 1_555

#END
