
#######################################################################
#
#                 Cambridge Crystallographic Data Centre
#                                CCDC 
#
#######################################################################
#
# If this CIF has been generated from an entry in the Cambridge 
# Structural Database, then it will include bibliographic, chemical, 
# crystal, experimental, refinement or atomic coordinate data resulting 
# from the CCDC's data processing and validation procedures.
#
#######################################################################

data_TOHLAD
_chemical_formula_moiety         'C30 H58 Li2 N6 Si2,2(C6 H6)'
_chemical_name_systematic        
"(\m~2~-(3,3'-Trimethylsilylmethyl)-2,2'-bipyridine)-bis(N,N,N',N'-tetramethylethylenediamine)-di-lithium benzene solvate"
_symmetry_cell_setting           tetragonal
_symmetry_space_group_name_H-M   'I -4 2 d'
_symmetry_Int_Tables_number      122
_space_group_name_Hall           'I -4 2bw'
loop_
_symmetry_equiv_pos_site_id
_symmetry_equiv_pos_as_xyz
1 x,y,z
2 y,-x,-z
3 x,1/2-y,1/4-z
4 -x,-y,z
5 1/2-y,-x,3/4+z
6 -y,x,-z
7 -x,1/2+y,1/4-z
8 1/2+y,x,3/4+z
9 1/2+x,1/2+y,1/2+z
10 1/2+y,1/2-x,1/2-z
11 1/2+x,-y,3/4-z
12 1/2-x,1/2-y,1/2+z
13 -y,1/2-x,1/4+z
14 1/2-y,1/2+x,1/2-z
15 1/2-x,y,3/4-z
16 y,1/2+x,1/4+z
_cell_length_a                   26.109(1)
_cell_length_b                   26.109(1)
_cell_length_c                   13.837(1)
_cell_angle_alpha                90
_cell_angle_beta                 90
_cell_angle_gamma                90
_cell_volume                     9432.4
_exptl_crystal_colour            'dark red'
_chemical_melting_point          '188-190 deg.C(dec)'
_cell_formula_units_Z            8
loop_
_atom_site_label
_atom_site_type_symbol
_atom_site_fract_x
_atom_site_fract_y
_atom_site_fract_z
Li1 Li 0.6469(3) 0.5975(3) 0.3387(6)
C1 C 0.7435(2) 0.5635(2) 0.4275(3)
N1 N 0.6980(1) 0.5846(2) 0.4482(3)
C2 C 0.6838(2) 0.5922(2) 0.5404(4)
C3 C 0.7155(2) 0.5784(2) 0.6152(4)
C4 C 0.7617(2) 0.5563(2) 0.5966(3)
C5 C 0.7794(2) 0.5462(2) 0.5006(3)
C6 C 0.6722(2) 0.5236(2) 0.2661(4)
Si1 Si 0.6336(1) 0.4901(1) 0.1763(1)
C7 C 0.6700(2) 0.4445(2) 0.0939(4)
C8 C 0.5974(2) 0.5325(3) 0.0895(5)
C9 C 0.5850(2) 0.4500(3) 0.2409(5)
N2 N 0.5691(2) 0.6214(2) 0.3804(4)
C10 C 0.5597(5) 0.6464(5) 0.4729(8)
C11 C 0.5362(6) 0.5749(5) 0.3742(12)
C12 C 0.5589(5) 0.6583(5) 0.3012(10)
C13 C 0.6040(4) 0.6961(5) 0.2982(15)
C14 C 0.6479(6) 0.6622(6) 0.1573(7)
C15 C 0.6980(4) 0.6950(6) 0.2932(11)
N3 N 0.6497(2) 0.6693(2) 0.2633(4)
H1 H 0.6517 0.6087 0.5536
H2 H 0.7056 0.5842 0.6811
H3 H 0.7829 0.5466 0.6503
H4 H 0.6770 0.4997 0.3180
H5 H 0.6961 0.4626 0.0587
H6 H 0.6856 0.4185 0.1331
H7 H 0.6466 0.4289 0.0492
H8 H 0.5784 0.5569 0.1270
H9 H 0.6205 0.5503 0.0472
H10 H 0.5741 0.5122 0.0518
H11 H 0.5640 0.4695 0.2843
H12 H 0.5638 0.4343 0.1926
H13 H 0.6028 0.4239 0.2764
H14 H 0.5240 0.6545 0.4790
H15 H 0.5694 0.6229 0.5229
H16 H 0.5795 0.6772 0.4787
H17 H 0.5017 0.5834 0.3919
H18 H 0.5369 0.5630 0.3085
H19 H 0.5488 0.5484 0.4161
H20 H 0.5290 0.6775 0.3186
H21 H 0.5520 0.6391 0.2436
H22 H 0.6077 0.7157 0.3565
H23 H 0.5953 0.7199 0.2479
H24 H 0.6495 0.6944 0.1240
H25 H 0.6764 0.6412 0.1382
H26 H 0.6165 0.6451 0.1412
H27 H 0.7010 0.7275 0.2612
H28 H 0.6967 0.7003 0.3618
H29 H 0.7270 0.6741 0.2774
C1N C 0.7565(2) 0.5635(2) 0.3225(3)
N1N N 0.8020(1) 0.5846(2) 0.3018(3)
Li1N Li 0.8531(3) 0.5975(3) 0.4113(6)
C6N C 0.8278(2) 0.5236(2) 0.4839(4)
Si1N Si 0.8664(1) 0.4901(1) 0.5737(1)
C7N C 0.8300(2) 0.4445(2) 0.6561(4)
H5N H 0.8039 0.4626 0.6913
H6N H 0.8144 0.4185 0.6169
H7N H 0.8534 0.4289 0.7008
C8N C 0.9026(2) 0.5325(3) 0.6605(5)
H8N H 0.9216 0.5569 0.6230
H9N H 0.8795 0.5503 0.7028
H10N H 0.9259 0.5122 0.6982
C9N C 0.9150(2) 0.4500(3) 0.5091(5)
H11N H 0.9360 0.4695 0.4657
H12N H 0.9362 0.4343 0.5574
H13N H 0.8972 0.4239 0.4736
H4N H 0.8230 0.4997 0.4320
N2N N 0.9309(2) 0.6214(2) 0.3696(4)
C10N C 0.9403(5) 0.6464(5) 0.2771(8)
H14N H 0.9760 0.6545 0.2710
H15N H 0.9306 0.6229 0.2271
H16N H 0.9205 0.6772 0.2713
C11N C 0.9638(6) 0.5749(5) 0.3758(12)
H17N H 0.9983 0.5834 0.3581
H18N H 0.9631 0.5630 0.4415
H19N H 0.9512 0.5484 0.3339
C12N C 0.9411(5) 0.6583(5) 0.4488(10)
C13N C 0.8960(4) 0.6961(5) 0.4518(15)
N3N N 0.8503(2) 0.6693(2) 0.4867(4)
C14N C 0.8521(6) 0.6622(6) 0.5927(7)
H24N H 0.8505 0.6944 0.6260
H25N H 0.8236 0.6412 0.6118
H26N H 0.8835 0.6451 0.6088
C15N C 0.8020(4) 0.6950(6) 0.4568(11)
H27N H 0.7990 0.7275 0.4888
H28N H 0.8033 0.7003 0.3882
H29N H 0.7730 0.6741 0.4726
H22N H 0.8923 0.7157 0.3935
H23N H 0.9047 0.7199 0.5021
H20N H 0.9710 0.6775 0.4314
H21N H 0.9480 0.6391 0.5064
C2N C 0.8162(2) 0.5922(2) 0.2096(4)
C3N C 0.7845(2) 0.5784(2) 0.1348(4)
C4N C 0.7383(2) 0.5563(2) 0.1534(3)
C5N C 0.7206(2) 0.5462(2) 0.2494(3)
H3N H 0.7171 0.5466 0.0997
H2N H 0.7944 0.5842 0.0689
H1N H 0.8483 0.6087 0.1964
C22 C 0.6950(3) 0.7297(3) 0.6559(6)
C23 C 0.6493(3) 0.7098(3) 0.6882(6)
C24 C 0.6048(3) 0.7296(3) 0.6563(5)
H46 H 0.7268 0.7140 0.6743
H47 H 0.6501 0.6821 0.7339
H48 H 0.5734 0.7168 0.6831
C22B C 0.6950(3) 0.7703(3) 0.5941(6)
C23B C 0.6493(3) 0.7902(3) 0.5618(6)
C24B C 0.6048(3) 0.7704(3) 0.5937(5)
H48B H 0.5734 0.7832 0.5669
H47B H 0.6501 0.8179 0.5161
H46B H 0.7268 0.7860 0.5757
C25 C 0.6428(10) 0.2500 0.1250
C26 C 0.6138(7) 0.2943(7) 0.1091(9)
C27 C 0.5645(7) 0.2911(4) 0.1094(7)
C28 C 0.5397(7) 0.2500 0.1250
H49 H 0.6795 0.2500 0.1250
H50 H 0.6334 0.3233 0.0878
H51 H 0.5460 0.3228 0.1062
H52 H 0.5030 0.2500 0.1250
C27B C 0.5645(7) 0.2089(4) 0.1406(7)
C26B C 0.6138(7) 0.2057(7) 0.1409(9)
H50B H 0.6334 0.1767 0.1622
H51B H 0.5460 0.1772 0.1438
C16? C 0.5508(6) 0.6159(7) 0.4818(8)
C17? C 0.5311(5) 0.5994(6) 0.3171(11)
C18? C 0.5702(7) 0.6773(4) 0.3599(12)
C19? C 0.5955(4) 0.6866(7) 0.2630(12)
C20? C 0.6697(7) 0.6700(6) 0.1645(8)
C21? C 0.6790(7) 0.7050(7) 0.3229(14)
H30? H 0.5163 0.6287 0.4841
H31? H 0.5511 0.5805 0.5006
H32? H 0.5719 0.6353 0.5253
H33? H 0.4975 0.6103 0.3365
H34? H 0.5376 0.6107 0.2522
H35? H 0.5330 0.5627 0.3197
H36? H 0.5819 0.6951 0.4163
H37? H 0.5353 0.6873 0.3492
H38? H 0.6014 0.7227 0.2696
H39? H 0.5763 0.6813 0.2047
H40? H 0.6691 0.7046 0.1408
H41? H 0.7041 0.6573 0.1629
H42? H 0.6482 0.6489 0.1246
H43? H 0.6827 0.7384 0.2946
H44? H 0.6632 0.7082 0.3853
H45? H 0.7121 0.6895 0.3299
loop_
_geom_bond_atom_site_label_1
_geom_bond_atom_site_label_2
_geom_bond_site_symmetry_1
_geom_bond_site_symmetry_2
Li1 N1 1_555 1_555
C1 N1 1_555 1_555
N1 C2 1_555 1_555
C2 C3 1_555 1_555
C3 C4 1_555 1_555
C4 C5 1_555 1_555
C5 C1 1_555 1_555
C6 Li1 1_555 1_555
Si1 C6 1_555 1_555
C7 Si1 1_555 1_555
C8 Si1 1_555 1_555
C9 Si1 1_555 1_555
N2 Li1 1_555 1_555
C10 N2 1_555 1_555
C11 N2 1_555 1_555
C12 N2 1_555 1_555
C13 C12 1_555 1_555
C14 N3 1_555 1_555
C15 N3 1_555 1_555
N3 Li1 1_555 1_555
C22 C23 1_555 1_555
C23 C24 1_555 1_555
C24 H48 1_555 1_555
C25 C26 1_555 1_555
C26 C27 1_555 1_555
C27 C28 1_555 1_555
C28 H52 1_555 1_555
H1 C2 1_555 1_555
H2 C3 1_555 1_555
H3 C4 1_555 1_555
H4 C6 1_555 1_555
H5 C7 1_555 1_555
H6 C7 1_555 1_555
H7 C7 1_555 1_555
H8 C8 1_555 1_555
H9 C8 1_555 1_555
H10 C8 1_555 1_555
H11 C9 1_555 1_555
H12 C9 1_555 1_555
H13 C9 1_555 1_555
H14 C10 1_555 1_555
H15 C10 1_555 1_555
H16 C10 1_555 1_555
H17 C11 1_555 1_555
H18 C11 1_555 1_555
H19 C11 1_555 1_555
H20 C12 1_555 1_555
H21 C12 1_555 1_555
H22 C13 1_555 1_555
H23 C13 1_555 1_555
H24 C14 1_555 1_555
H25 C14 1_555 1_555
H26 C14 1_555 1_555
H27 C15 1_555 1_555
H28 C15 1_555 1_555
H29 C15 1_555 1_555
H46 C22 1_555 1_555
H47 C23 1_555 1_555
H49 C25 1_555 1_555
H50 C26 1_555 1_555
H51 C27 1_555 1_555
C1N C1 1_555 1_555
N1N C1N 1_555 1_555
Li1N N1N 1_555 1_555
C6N C5 1_555 1_555
Si1N C6N 1_555 1_555
C7N Si1N 1_555 1_555
H5N C7N 1_555 1_555
H6N C7N 1_555 1_555
H7N C7N 1_555 1_555
C8N Si1N 1_555 1_555
H8N C8N 1_555 1_555
H9N C8N 1_555 1_555
H10N C8N 1_555 1_555
C9N Si1N 1_555 1_555
H11N C9N 1_555 1_555
H12N C9N 1_555 1_555
H13N C9N 1_555 1_555
H4N C6N 1_555 1_555
N2N Li1N 1_555 1_555
C10N N2N 1_555 1_555
H14N C10N 1_555 1_555
H15N C10N 1_555 1_555
H16N C10N 1_555 1_555
C11N N2N 1_555 1_555
H17N C11N 1_555 1_555
H18N C11N 1_555 1_555
H19N C11N 1_555 1_555
C12N N2N 1_555 1_555
C13N C12N 1_555 1_555
N3N Li1N 1_555 1_555
C14N N3N 1_555 1_555
H24N C14N 1_555 1_555
H25N C14N 1_555 1_555
H26N C14N 1_555 1_555
C15N N3N 1_555 1_555
H27N C15N 1_555 1_555
H28N C15N 1_555 1_555
H29N C15N 1_555 1_555
H22N C13N 1_555 1_555
H23N C13N 1_555 1_555
H20N C12N 1_555 1_555
H21N C12N 1_555 1_555
C2N N1N 1_555 1_555
C3N C2N 1_555 1_555
C4N C3N 1_555 1_555
C5N C6 1_555 1_555
H3N C4N 1_555 1_555
H2N C3N 1_555 1_555
H1N C2N 1_555 1_555
C22B C22 1_555 1_555
C23B C22B 1_555 1_555
C24B C24 1_555 1_555
H48B C24B 1_555 1_555
H47B C23B 1_555 1_555
H46B C22B 1_555 1_555
C27B C28 1_555 1_555
C26B C25 1_555 1_555
H50B C26B 1_555 1_555
H51B C27B 1_555 1_555
C13 N3 1_555 1_555
C1N C5N 1_555 1_555
Li1N C6N 1_555 1_555
C13N N3N 1_555 1_555
C4N C5N 1_555 1_555
C23B C24B 1_555 1_555
C27B C26B 1_555 1_555

#END
