
#######################################################################
#
#                 Cambridge Crystallographic Data Centre
#                                CCDC 
#
#######################################################################
#
# If this CIF has been generated from an entry in the Cambridge 
# Structural Database, then it will include bibliographic, chemical, 
# crystal, experimental, refinement or atomic coordinate data resulting 
# from the CCDC's data processing and validation procedures.
#
#######################################################################

data_TOHQOT
_chemical_formula_moiety         'C15 H20 O5'
_chemical_name_systematic        
3-(2',2'-Dimethyl(1',3')dioxolan-4'-yl)-6-formyl-2-methyl-8-oxabicyclo(4.3.0)nona-2-en-7-one
_symmetry_cell_setting           orthorhombic
_symmetry_space_group_name_H-M   'P 21 21 21'
_symmetry_Int_Tables_number      19
_space_group_name_Hall           'P 2ac 2ab'
loop_
_symmetry_equiv_pos_site_id
_symmetry_equiv_pos_as_xyz
1 x,y,z
2 1/2-x,-y,1/2+z
3 1/2+x,1/2-y,-z
4 -x,1/2+y,1/2-z
_cell_length_a                   6.9423(2)
_cell_length_b                   9.2387(3)
_cell_length_c                   21.8045(7)
_cell_angle_alpha                90
_cell_angle_beta                 90
_cell_angle_gamma                90
_cell_volume                     1398.49
_cell_formula_units_Z            4
loop_
_atom_site_label
_atom_site_type_symbol
_atom_site_fract_x
_atom_site_fract_y
_atom_site_fract_z
O1 O 0.7707(3) -0.3748(2) 0.0824(1)
O2 O 0.9237(3) -0.2147(2) 0.0235(1)
O3 O 1.0269(3) -0.1107(2) 0.1527(1)
O4 O 0.3172(2) 0.3351(2) 0.1217(1)
O5 O 0.3550(2) 0.3476(2) 0.2242(1)
C1 C 0.9317(4) -0.0572(2) 0.0164(1)
C2 C 0.7437(3) -0.0075(2) 0.0451(1)
C3 C 0.7116(3) 0.1463(2) 0.0659(1)
C4 C 0.8266(3) 0.2593(2) 0.0325(1)
C5 C 0.5769(3) 0.1677(2) 0.1092(1)
C6 C 0.4635(3) 0.0460(2) 0.1393(1)
C7 C 0.5163(3) -0.1106(2) 0.1214(4)
C8 C 0.7225(3) -0.1144(2) 0.0987(1)
C9 C 0.8003(3) -0.2513(2) 0.0692(1)
C10 C 0.8614(3) -0.0742(2) 0.1503(1)
C11 C 0.5208(3) 0.3167(2) 0.1313(1)
C12 C 0.5452(3) 0.3446(2) 0.2008(1)
C13 C 0.2334(3) 0.3966(2) 0.1753(1)
C14 C 0.2346(4) 0.5593(3) 0.1710(1)
C15 C 0.0367(3) 0.3350(3) 0.1847(1)
H1 H 0.9385 -0.0299 -0.0265
H2 H 1.0416 -0.0168 0.0379
H3 H 0.6412 -0.0301 0.0158
H4 H 0.7806 0.3538 0.0435
H5 H 0.8128 0.2456 -0.0109
H6 H 0.9600 0.2507 0.0436
H7 H 0.3282 0.0606 0.1301
H8 H 0.4783 0.0551 0.1834
H9 H 0.5022 -0.1738 0.1566
H10 H 0.4303 -0.1445 0.0894
H11 H 0.8142 -0.0174 0.1822
H12 H 0.5918 0.3902 0.1080
H13 H 0.6193 0.2677 0.2198
H14 H 0.6097 0.4361 0.2080
H15 H 0.3651 0.5931 0.1684
H16 H 0.1744 0.5995 0.2068
H17 H 0.1650 0.5890 0.1351
H18 H -0.0448 0.3625 0.1510
H19 H -0.0164 0.3715 0.2223
H20 H 0.0447 0.2314 0.1867
loop_
_geom_bond_atom_site_label_1
_geom_bond_atom_site_label_2
_geom_bond_site_symmetry_1
_geom_bond_site_symmetry_2
O1 C9 1_555 1_555
O2 C1 1_555 1_555
O3 C10 1_555 1_555
O4 C11 1_555 1_555
O5 C12 1_555 1_555
C1 C2 1_555 1_555
C2 C3 1_555 1_555
C3 C4 1_555 1_555
C4 H4 1_555 1_555
C5 C3 1_555 1_555
C6 C5 1_555 1_555
C7 C6 1_555 1_555
C8 C2 1_555 1_555
C9 O2 1_555 1_555
C10 C8 1_555 1_555
C11 C5 1_555 1_555
C12 C11 1_555 1_555
C13 O4 1_555 1_555
C14 C13 1_555 1_555
C15 C13 1_555 1_555
H1 C1 1_555 1_555
H2 C1 1_555 1_555
H3 C2 1_555 1_555
H5 C4 1_555 1_555
H6 C4 1_555 1_555
H7 C6 1_555 1_555
H8 C6 1_555 1_555
H9 C7 1_555 1_555
H10 C7 1_555 1_555
H11 C10 1_555 1_555
H12 C11 1_555 1_555
H13 C12 1_555 1_555
H14 C12 1_555 1_555
H15 C14 1_555 1_555
H16 C14 1_555 1_555
H17 C14 1_555 1_555
H18 C15 1_555 1_555
H19 C15 1_555 1_555
H20 C15 1_555 1_555
O5 C13 1_555 1_555
C7 C8 1_555 1_555
C8 C9 1_555 1_555

#END
