
#######################################################################
#
#                 Cambridge Crystallographic Data Centre
#                                CCDC 
#
#######################################################################
#
# If this CIF has been generated from an entry in the Cambridge 
# Structural Database, then it will include bibliographic, chemical, 
# crystal, experimental, refinement or atomic coordinate data resulting 
# from the CCDC's data processing and validation procedures.
#
#######################################################################

data_TOHXAP
_chemical_formula_moiety         'C14 H10 N2 O2'
_chemical_name_systematic        1-(2-Aminophenyl)-2-(2-nitrophenyl)ethyne
_symmetry_cell_setting           monoclinic
_symmetry_space_group_name_H-M   'P 21/c'
_symmetry_Int_Tables_number      14
_space_group_name_Hall           '-P 2ybc'
loop_
_symmetry_equiv_pos_site_id
_symmetry_equiv_pos_as_xyz
1 x,y,z
2 -x,1/2+y,1/2-z
3 -x,-y,-z
4 x,1/2-y,1/2+z
_cell_length_a                   24.445(4)
_cell_length_b                   5.647(1)
_cell_length_c                   18.584(3)
_cell_angle_alpha                90
_cell_angle_beta                 111.5(1)
_cell_angle_gamma                90
_cell_volume                     2386.85
_exptl_crystal_colour            'deep red'
_chemical_melting_point          112-115deg.C
_cell_formula_units_Z            8
loop_
_atom_site_label
_atom_site_type_symbol
_atom_site_fract_x
_atom_site_fract_y
_atom_site_fract_z
O1 O -0.0134(1) 0.4408(5) 0.6526(1)
O2 O 0.0259(1) 0.3480(5) 0.5709(1)
N1 N 0.0232(1) 0.4746(5) 0.6229(2)
N2 N 0.0704(1) 0.0636(7) 0.4567(2)
C1 C 0.1103(1) 0.7065(6) 0.6234(2)
C2 C 0.0647(1) 0.6724(6) 0.6508(2)
C3 C 0.0564(2) 0.8209(7) 0.7053(2)
C4 C 0.0935(2) 1.0082(7) 0.7340(2)
C5 C 0.1386(2) 1.0498(7) 0.7074(2)
C6 C 0.1471(2) 0.9023(7) 0.6537(2)
C7 C 0.1228(1) 0.5613(6) 0.5684(2)
C8 C 0.1392(1) 0.4571(6) 0.5237(2)
C9 C 0.1541(1) 0.3130(6) 0.4710(2)
C10 C 0.1193(1) 0.1122(6) 0.4396(2)
C11 C 0.1350(2) -0.0332(7) 0.3900(2)
C12 C 0.1822(2) 0.0201(8) 0.3702(2)
C13 C 0.2165(2) 0.2188(8) 0.4000(2)
C14 C 0.2024(2) 0.3635(7) 0.4503(2)
H1 H 0.0509(16) -0.0639(73) 0.4390(20)
H2 H 0.0660(16) 0.1452(68) 0.4920(20)
H3 H 0.0247(13) 0.7840(55) 0.7209(16)
H4 H 0.0863(13) 1.1133(58) 0.7758(17)
H5 H 0.1646(13) 1.1810(56) 0.7249(16)
H6 H 0.1791(13) 0.9221(54) 0.6348(15)
H7 H 0.1096(12) -0.1692(57) 0.3688(15)
H8 H 0.1907(16) -0.0817(72) 0.3348(21)
H9 H 0.2485(16) 0.2590(64) 0.3878(19)
H10 H 0.2235(14) 0.5024(63) 0.4729(17)
O3 O 0.5117(1) 0.4644(5) 0.6680(1)
O4 O 0.4743(1) 0.3620(5) 0.5494(1)
N3 N 0.4754(1) 0.4898(6) 0.6024(2)
N4 N 0.4333(1) 0.0562(7) 0.3955(2)
C15 C 0.3860(1) 0.7035(6) 0.5170(2)
C16 C 0.4323(1) 0.6817(6) 0.5887(2)
C17 C 0.4398(2) 0.8366(7) 0.6493(2)
C18 C 0.4002(2) 1.0166(7) 0.6400(2)
C19 C 0.3530(2) 1.0406(7) 0.5703(2)
C20 C 0.3466(2) 0.8891(7) 0.5102(2)
C21 C 0.3753(1) 0.5521(6) 0.4514(2)
C22 C 0.3610(1) 0.4424(6) 0.3921(2)
C23 C 0.3476(1) 0.2906(6) 0.3268(2)
C24 C 0.3838(1) 0.0928(6) 0.3313(2)
C25 C 0.3684(2) -0.0603(7) 0.2677(2)
C26 C 0.3190(2) -0.0183(8) 0.2030(2)
C27 C 0.2837(2) 0.1783(8) 0.1977(2)
C28 C 0.2984(2) 0.3328(7) 0.2596(2)
H11 H 0.4531(17) -0.0821(76) 0.4008(20)
H12 H 0.4338(18) 0.1285(80) 0.4362(24)
H13 H 0.4747(15) 0.8246(63) 0.7005(19)
H14 H 0.4055(13) 1.1169(58) 0.6851(17)
H15 H 0.3240(14) 1.1571(64) 0.5629(18)
H16 H 0.3130(13) 0.9053(57) 0.4615(17)
H17 H 0.3959(16) -0.1959(72) 0.2768(20)
H18 H 0.3132(16) -0.1165(68) 0.1609(20)
H19 H 0.2461(14) 0.2034(57) 0.1529(17)
H20 H 0.2718(12) 0.4710(57) 0.2593(16)
loop_
_geom_bond_atom_site_label_1
_geom_bond_atom_site_label_2
_geom_bond_site_symmetry_1
_geom_bond_site_symmetry_2
O1 N1 1_555 1_555
O2 N1 1_555 1_555
N1 C2 1_555 1_555
N2 C10 1_555 1_555
C1 C2 1_555 1_555
C2 C3 1_555 1_555
C3 C4 1_555 1_555
C4 C5 1_555 1_555
C5 C6 1_555 1_555
C6 C1 1_555 1_555
C7 C1 1_555 1_555
C8 C7 1_555 1_555
C9 C8 1_555 1_555
C10 C9 1_555 1_555
C11 C10 1_555 1_555
C12 C11 1_555 1_555
C13 C12 1_555 1_555
C14 C9 1_555 1_555
O3 N3 1_555 1_555
O4 N3 1_555 1_555
N3 C16 1_555 1_555
N4 C24 1_555 1_555
C15 C16 1_555 1_555
C16 C17 1_555 1_555
C17 C18 1_555 1_555
C18 C19 1_555 1_555
C19 C20 1_555 1_555
C20 C15 1_555 1_555
C21 C15 1_555 1_555
C22 C21 1_555 1_555
C23 C22 1_555 1_555
C24 C23 1_555 1_555
C25 C24 1_555 1_555
C26 C25 1_555 1_555
C27 C26 1_555 1_555
C28 C23 1_555 1_555
H1 N2 1_555 1_555
H2 N2 1_555 1_555
H3 C3 1_555 1_555
H4 C4 1_555 1_555
H5 C5 1_555 1_555
H6 C6 1_555 1_555
H7 C11 1_555 1_555
H8 C12 1_555 1_555
H9 C13 1_555 1_555
H10 C14 1_555 1_555
H11 N4 1_555 1_555
H12 N4 1_555 1_555
H13 C17 1_555 1_555
H14 C18 1_555 1_555
H15 C19 1_555 1_555
H16 C20 1_555 1_555
H17 C25 1_555 1_555
H18 C26 1_555 1_555
H19 C27 1_555 1_555
H20 C28 1_555 1_555
C13 C14 1_555 1_555
C27 C28 1_555 1_555

#END
