
#######################################################################
#
#                 Cambridge Crystallographic Data Centre
#                                CCDC 
#
#######################################################################
#
# If this CIF has been generated from an entry in the Cambridge 
# Structural Database, then it will include bibliographic, chemical, 
# crystal, experimental, refinement or atomic coordinate data resulting 
# from the CCDC's data processing and validation procedures.
#
#######################################################################

data_TOJKUZ
_chemical_formula_moiety         'C32 H30 N2'
_chemical_name_systematic        
N-((3-(2-(Diphenylamino)ethylidene)-1-cyclopenten-1-yl)methyl)-N-phenylaniline
_symmetry_cell_setting           triclinic
_symmetry_space_group_name_H-M   'P -1'
_symmetry_Int_Tables_number      2
_space_group_name_Hall           '-P 1'
loop_
_symmetry_equiv_pos_site_id
_symmetry_equiv_pos_as_xyz
1 x,y,z
2 -x,-y,-z
_cell_length_a                   7.961(2)
_cell_length_b                   11.374(3)
_cell_length_c                   14.410(3)
_cell_angle_alpha                80.274(5)
_cell_angle_beta                 80.161(5)
_cell_angle_gamma                78.185(5)
_cell_volume                     1246.18
_exptl_crystal_colour            colorless
_exptl_crystal_description       prismatic
_cell_formula_units_Z            2
loop_
_atom_site_label
_atom_site_type_symbol
_atom_site_fract_x
_atom_site_fract_y
_atom_site_fract_z
N1 N 0.2376(3) 0.3266(2) 0.36312(15)
N2 N -0.0614(3) -0.0238(2) 0.84010(15)
C1 C 0.3275(3) 0.2677(2) 0.44372(18)
H1 H 0.3047 0.3227 0.4909
H2 H 0.4513 0.2541 0.4220
C2 C 0.2780(3) 0.1492(3) 0.4906(2)
C3 C 0.2751(4) 0.0524(3) 0.4362(2)
H3 H 0.3870 0.0299 0.3986
H4 H 0.1875 0.0774 0.3941
C4 C 0.2306(3) -0.0566(2) 0.51400(18)
H5 H 0.1286 -0.0835 0.5029
H6 H 0.3269 -0.1245 0.5139
C5 C 0.1975(3) -0.0051(3) 0.6066(2)
C6 C 0.2329(3) 0.1170(2) 0.5849(2)
H7 H 0.2256 0.1675 0.6304
C7 C 0.1406(3) -0.0600(3) 0.6908(2)
H8 H 0.1209 -0.1385 0.6940
C8 C 0.1044(4) -0.0055(3) 0.78368(19)
H9 H 0.1967 -0.0417 0.8213
H10 H 0.1053 0.0808 0.7691
C9 C 0.0578(3) 0.3688(2) 0.37682(19)
C10 C -0.0365(4) 0.3725(2) 0.46734(19)
H11 H 0.0200 0.3474 0.5206
C11 C -0.2140(4) 0.4133(3) 0.4785(2)
H12 H -0.2753 0.4148 0.5394
C12 C -0.3007(4) 0.4513(3) 0.4020(3)
H13 H -0.4196 0.4802 0.4100
C13 C -0.2085(4) 0.4460(3) 0.3133(2)
H14 H -0.2665 0.4698 0.2604
C14 C -0.0328(4) 0.4063(3) 0.3001(2)
H15 H 0.0264 0.4047 0.2387
C15 C 0.3431(3) 0.3641(2) 0.27783(18)
C16 C 0.3260(4) 0.4846(3) 0.23676(19)
H16 H 0.2412 0.5428 0.2642
C17 C 0.4350(4) 0.5187(3) 0.1549(2)
H17 H 0.4242 0.5999 0.1284
C18 C 0.5573(4) 0.4339(4) 0.1133(2)
H18 H 0.6284 0.4567 0.0577
C19 C 0.5754(4) 0.3156(4) 0.1534(2)
H19 H 0.6605 0.2579 0.1256
C20 C 0.4694(4) 0.2810(3) 0.2343(2)
H20 H 0.4829 0.1996 0.2605
C21 C -0.0607(4) -0.1323(3) 0.90706(18)
C22 C 0.0344(4) -0.1521(3) 0.9814(2)
H21 H 0.0997 -0.0956 0.9878
C23 C 0.0324(5) -0.2578(3) 1.0473(2)
H22 H 0.0968 -0.2726 1.0976
C24 C -0.0672(6) -0.3399(3) 1.0364(3)
H23 H -0.0704 -0.4100 1.0799
C25 C -0.1597(5) -0.3191(3) 0.9633(3)
H24 H -0.2255 -0.3751 0.9566
C26 C -0.1573(4) -0.2157(3) 0.8986(2)
H25 H -0.2219 -0.2022 0.8485
C27 C -0.2161(4) 0.0498(3) 0.81734(19)
C28 C -0.3711(4) 0.0489(3) 0.8793(2)
H26 H -0.3711 -0.0035 0.9363
C29 C -0.5226(4) 0.1223(3) 0.8592(2)
H27 H -0.6231 0.1181 0.9023
C30 C -0.5298(4) 0.2024(3) 0.7765(2)
H28 H -0.6326 0.2533 0.7631
C31 C -0.3789(5) 0.2040(3) 0.7148(2)
H29 H -0.3812 0.2569 0.6580
C32 C -0.2226(4) 0.1305(3) 0.73276(19)
H30 H -0.1229 0.1349 0.6889
loop_
_geom_bond_atom_site_label_1
_geom_bond_atom_site_label_2
_geom_bond_site_symmetry_1
_geom_bond_site_symmetry_2
N1 C1 1_555 1_555
N2 C8 1_555 1_555
C1 H1 1_555 1_555
H2 C1 1_555 1_555
C2 C1 1_555 1_555
C3 C2 1_555 1_555
H3 C3 1_555 1_555
H4 C3 1_555 1_555
C4 C3 1_555 1_555
H5 C4 1_555 1_555
H6 C4 1_555 1_555
C5 C4 1_555 1_555
C6 C2 1_555 1_555
H7 C6 1_555 1_555
C7 C5 1_555 1_555
H8 C7 1_555 1_555
C8 C7 1_555 1_555
H9 C8 1_555 1_555
H10 C8 1_555 1_555
C9 N1 1_555 1_555
C10 C9 1_555 1_555
H11 C10 1_555 1_555
C11 C10 1_555 1_555
H12 C11 1_555 1_555
C12 C11 1_555 1_555
H13 C12 1_555 1_555
C13 C12 1_555 1_555
H14 C13 1_555 1_555
C14 C9 1_555 1_555
H15 C14 1_555 1_555
C15 N1 1_555 1_555
C16 C15 1_555 1_555
H16 C16 1_555 1_555
C17 C16 1_555 1_555
H17 C17 1_555 1_555
C18 C17 1_555 1_555
H18 C18 1_555 1_555
C19 C18 1_555 1_555
H19 C19 1_555 1_555
C20 C15 1_555 1_555
H20 C20 1_555 1_555
C21 N2 1_555 1_555
C22 C21 1_555 1_555
H21 C22 1_555 1_555
C23 C22 1_555 1_555
H22 C23 1_555 1_555
C24 C23 1_555 1_555
H23 C24 1_555 1_555
C25 C24 1_555 1_555
H24 C25 1_555 1_555
C26 C21 1_555 1_555
H25 C26 1_555 1_555
C27 N2 1_555 1_555
C28 C27 1_555 1_555
H26 C28 1_555 1_555
C29 C28 1_555 1_555
H27 C29 1_555 1_555
C30 C29 1_555 1_555
H28 C30 1_555 1_555
C31 C30 1_555 1_555
H29 C31 1_555 1_555
C32 C27 1_555 1_555
H30 C32 1_555 1_555
C5 C6 1_555 1_555
C13 C14 1_555 1_555
C19 C20 1_555 1_555
C25 C26 1_555 1_555
C31 C32 1_555 1_555

#END
