
#######################################################################
#
#                 Cambridge Crystallographic Data Centre
#                                CCDC 
#
#######################################################################
#
# If this CIF has been generated from an entry in the Cambridge 
# Structural Database, then it will include bibliographic, chemical, 
# crystal, experimental, refinement or atomic coordinate data resulting 
# from the CCDC's data processing and validation procedures.
#
#######################################################################

data_TOJMUA
_chemical_formula_moiety         'C15 H19 N1 O3'
_chemical_name_systematic        
(3S,9bR)-9b-Ethoxy-3-isopropyl-3,9b-dihydro-2H-oxazolo(2,3-a)isoindol-5-one
_symmetry_cell_setting           orthorhombic
_symmetry_space_group_name_H-M   'P 21 21 21'
_symmetry_Int_Tables_number      19
_space_group_name_Hall           'P 2ac 2ab'
loop_
_symmetry_equiv_pos_site_id
_symmetry_equiv_pos_as_xyz
1 x,y,z
2 1/2-x,-y,1/2+z
3 1/2+x,1/2-y,-z
4 -x,1/2+y,1/2-z
_cell_length_a                   8.321(1)
_cell_length_b                   8.427(1)
_cell_length_c                   20.177(3)
_cell_angle_alpha                90
_cell_angle_beta                 90
_cell_angle_gamma                90
_cell_volume                     1414.83
_exptl_crystal_colour            colorless
_chemical_melting_point          78-79deg.C
_cell_formula_units_Z            4
loop_
_atom_site_label
_atom_site_type_symbol
_atom_site_fract_x
_atom_site_fract_y
_atom_site_fract_z
O1 O 0.3982(5) 0.4623(4) 0.2822(2)
O2 O 0.4374(4) 0.5761(4) 0.3809(2)
O3 O 0.0410(5) 0.2022(5) 0.3734(3)
N1 N 0.2745(5) 0.3482(5) 0.3691(2)
C1 C -0.1196(8) 0.534(1) 0.3492(3)
C2 C -0.1495(9) 0.692(1) 0.3315(4)
C3 C -0.026(1) 0.793(1) 0.3147(3)
C4 C 0.1373(9) 0.7465(8) 0.3161(3)
C5 C 0.1644(7) 0.5875(7) 0.3338(2)
C6 C 0.0420(7) 0.4858(8) 0.3507(3)
C7 C 0.1083(7) 0.3278(7) 0.3656(3)
C8 C 0.3209(6) 0.4992(6) 0.3419(2)
C9 C 0.3907(7) 0.2270(6) 0.3490(3)
C10 C 0.4812(7) 0.3117(7) 0.2917(3)
C11 C 0.3823(9) 0.6181(9) 0.4469(3)
C12 C 0.5283(9) 0.652(1) 0.4876(4)
C13 C 0.5052(8) 0.1800(8) 0.4056(3)
C14 C 0.403(1) 0.1124(9) 0.4641(4)
C15 C 0.6240(9) 0.0522(8) 0.3803(4)
loop_
_geom_bond_atom_site_label_1
_geom_bond_atom_site_label_2
_geom_bond_site_symmetry_1
_geom_bond_site_symmetry_2
O1 C8 1_555 1_555
O2 C8 1_555 1_555
O3 C7 1_555 1_555
N1 C7 1_555 1_555
C1 C2 1_555 1_555
C2 C3 1_555 1_555
C3 C4 1_555 1_555
C4 C5 1_555 1_555
C5 C6 1_555 1_555
C6 C1 1_555 1_555
C7 C6 1_555 1_555
C8 N1 1_555 1_555
C9 N1 1_555 1_555
C10 O1 1_555 1_555
C11 O2 1_555 1_555
C12 C11 1_555 1_555
C13 C9 1_555 1_555
C14 C13 1_555 1_555
C15 C13 1_555 1_555
C5 C8 1_555 1_555
C9 C10 1_555 1_555

#END
