
#######################################################################
#
#                 Cambridge Crystallographic Data Centre
#                                CCDC 
#
#######################################################################
#
# If this CIF has been generated from an entry in the Cambridge 
# Structural Database, then it will include bibliographic, chemical, 
# crystal, experimental, refinement or atomic coordinate data resulting 
# from the CCDC's data processing and validation procedures.
#
#######################################################################

data_TOJXEX
_chemical_formula_moiety         'C13 H9 N1,1.5(C6 F4 I2)'
_chemical_name_systematic        
'sesquikis(1,2,4,5-tetrafluoro-3,6-diiodobenzene) benzo[h]quinoline'
_symmetry_cell_setting           triclinic
_symmetry_space_group_name_H-M   'P -1'
_symmetry_Int_Tables_number      2
_space_group_name_Hall           '-P 1'
loop_
_symmetry_equiv_pos_site_id
_symmetry_equiv_pos_as_xyz
1 x,y,z
2 -x,-y,-z
_cell_length_a                   8.354(2)
_cell_length_b                   10.731(3)
_cell_length_c                   12.901(3)
_cell_angle_alpha                87.896(4)
_cell_angle_beta                 86.296(4)
_cell_angle_gamma                83.292(4)
_cell_volume                     1145.72
_cell_formula_units_Z            2
loop_
_atom_site_label
_atom_site_type_symbol
_atom_site_fract_x
_atom_site_fract_y
_atom_site_fract_z
C1 C 0.5901(7) 0.1726(5) 1.0574(5)
C2 C 0.5701(7) 0.1596(5) 0.9535(5)
C3 C 0.6996(7) 0.1521(5) 0.8793(5)
C4 C 0.8549(7) 0.1575(5) 0.9099(5)
C5 C 0.8758(7) 0.1699(6) 1.0128(5)
C6 C 0.7452(7) 0.1779(5) 1.0861(5)
F1 F 0.4222(4) 0.1536(4) 0.9196(3)
F2 F 0.6727(5) 0.1425(4) 0.7796(3)
F3 F 1.0236(4) 0.1747(5) 1.0465(3)
F4 F 0.7729(5) 0.1911(4) 1.1866(3)
I1 I 0.39381(5) 0.18740(4) 1.16662(4)
I2 I 1.05071(5) 0.14638(4) 0.79904(4)
C7 C 0.4575(7) 0.4850(5) 0.8978(4)
C8 C 0.6161(7) 0.4800(5) 0.9224(4)
C9 C 0.6566(7) 0.4956(5) 1.0225(4)
F5 F 0.7377(4) 0.4610(4) 0.8482(3)
F6 F 0.8164(5) 0.4888(4) 1.0412(3)
I3 I 0.39797(5) 0.46412(4) 0.74442(3)
C7A C 0.5425(7) 0.5150(5) 1.1022(4)
C8A C 0.3839(7) 0.5200(5) 1.0776(4)
C9A C 0.3434(7) 0.5044(5) 0.9775(4)
F5A F 0.2623(4) 0.5390(4) 1.1518(3)
F6A F 0.1836(5) 0.5112(4) 0.9588(3)
I3A I 0.60203(5) 0.53588(4) 1.25558(3)
C10 C 0.2775(7) 0.5641(6) 0.4973(5)
H1 H 0.3284 0.6209 0.5326
C11 C 0.1804(7) 0.6106(6) 0.4173(5)
H2 H 0.1662 0.6962 0.4010
C12 C 0.1077(7) 0.5298(7) 0.3641(4)
H3 H 0.0409 0.5595 0.3115
C13 C 0.1330(6) 0.4002(6) 0.3883(4)
C14 C 0.0607(7) 0.3109(7) 0.3333(5)
H4 H -0.0023 0.3376 0.2780
C15 C 0.0832(7) 0.1864(7) 0.3611(5)
H5 H 0.0347 0.1292 0.3247
C16 C 0.1807(6) 0.1424(6) 0.4458(5)
C17 C 0.2024(8) 0.0137(7) 0.4756(6)
H6 H 0.1545 -0.0438 0.4392
C18 C 0.2928(8) -0.0273(7) 0.5572(6)
H7 H 0.3045 -0.1121 0.5764
C19 C 0.3676(8) 0.0570(6) 0.6119(5)
H8 H 0.4292 0.0282 0.6673
C20 C 0.3507(7) 0.1820(6) 0.5846(4)
H9 H 0.4021 0.2374 0.6210
C21 C 0.2557(6) 0.2281(5) 0.5012(4)
C22 C 0.2312(6) 0.3610(5) 0.4718(4)
N1 N 0.3015(5) 0.4436(4) 0.5260(3)
loop_
_geom_bond_atom_site_label_1
_geom_bond_atom_site_label_2
_geom_bond_site_symmetry_1
_geom_bond_site_symmetry_2
C1 C2 1_555 1_555
C2 C3 1_555 1_555
C3 C4 1_555 1_555
C4 C5 1_555 1_555
C5 C6 1_555 1_555
C6 C1 1_555 1_555
F1 C2 1_555 1_555
F2 C3 1_555 1_555
F3 C5 1_555 1_555
F4 C6 1_555 1_555
I1 C1 1_555 1_555
I2 C4 1_555 1_555
C7 C8 1_555 1_555
C8 C9 1_555 1_555
C9 F6 1_555 1_555
F5 C8 1_555 1_555
I3 C7 1_555 1_555
C10 H1 1_555 1_555
C11 C10 1_555 1_555
H2 C11 1_555 1_555
C12 C11 1_555 1_555
H3 C12 1_555 1_555
C13 C12 1_555 1_555
C14 C13 1_555 1_555
H4 C14 1_555 1_555
C15 C14 1_555 1_555
H5 C15 1_555 1_555
C16 C15 1_555 1_555
C17 C16 1_555 1_555
H6 C17 1_555 1_555
C18 C17 1_555 1_555
H7 C18 1_555 1_555
C19 C18 1_555 1_555
H8 C19 1_555 1_555
C20 C19 1_555 1_555
H9 C20 1_555 1_555
C21 C16 1_555 1_555
C22 C13 1_555 1_555
N1 C10 1_555 1_555
C7A C9 1_555 1_555
C8A C7A 1_555 1_555
C9A C7 1_555 1_555
F5A C8A 1_555 1_555
F6A C9A 1_555 1_555
I3A C7A 1_555 1_555
C20 C21 1_555 1_555
C21 C22 1_555 1_555
C22 N1 1_555 1_555
C8A C9A 1_555 1_555

#END
