
#######################################################################
#
#                 Cambridge Crystallographic Data Centre
#                                CCDC 
#
#######################################################################
#
# If this CIF has been generated from an entry in the Cambridge 
# Structural Database, then it will include bibliographic, chemical, 
# crystal, experimental, refinement or atomic coordinate data resulting 
# from the CCDC's data processing and validation procedures.
#
#######################################################################

data_TOKRIW
_chemical_formula_moiety         'C29 H20 N2,C1 H4 O1'
_chemical_name_systematic        
'2-(9-Anthryl)-4,5-diphenyl-1H-imidazole methanol solvate'
_symmetry_cell_setting           monoclinic
_symmetry_space_group_name_H-M   'P 21/n'
_symmetry_Int_Tables_number      14
_space_group_name_Hall           '-P 2yn'
loop_
_symmetry_equiv_pos_site_id
_symmetry_equiv_pos_as_xyz
1 x,y,z
2 1/2-x,1/2+y,1/2-z
3 -x,-y,-z
4 1/2+x,1/2-y,1/2+z
_cell_length_a                   11.0962(17)
_cell_length_b                   21.800(3)
_cell_length_c                   19.774(3)
_cell_angle_alpha                90
_cell_angle_beta                 105.379(3)
_cell_angle_gamma                90
_cell_volume                     4612
_cell_formula_units_Z            8
loop_
_atom_site_label
_atom_site_type_symbol
_atom_site_fract_x
_atom_site_fract_y
_atom_site_fract_z
C1 C -0.24579(19) -0.05077(9) 0.78621(10)
C2 C -0.23245(19) -0.09289(9) 0.68875(10)
C3 C -0.34057(19) -0.11478(9) 0.70235(10)
C4 C -0.0359(3) -0.13968(16) 0.53678(15)
H1 H 0.0094 -0.1504 0.5052
C5 C -0.6465(3) -0.22519(12) 0.58951(14)
H2 H -0.7146 -0.2484 0.5652
C6 C -0.0133(3) -0.08474(17) 0.57275(15)
H3 H 0.0471 -0.0581 0.5650
C7 C -0.0806(3) -0.06899(13) 0.62052(13)
H4 H -0.0648 -0.0317 0.6441
C8 C -0.2280(3) 0.15555(11) 0.89296(15)
H5 H -0.2142 0.1810 0.9320
C9 C -0.2555(3) 0.18064(12) 0.82796(16)
H6 H -0.2584 0.2231 0.8230
C10 C -0.1269(3) -0.17861(12) 0.54839(13)
H7 H -0.1431 -0.2155 0.5240
C11 C -0.2800(3) 0.14309(11) 0.76774(14)
H8 H -0.3006 0.1610 0.7234
C12 C -0.5911(3) -0.23670(12) 0.65963(14)
H9 H -0.6214 -0.2681 0.6825
C13 C -0.5999(2) -0.17879(11) 0.55578(13)
H10 H -0.6362 -0.1711 0.5085
C14 C -0.1142(2) -0.12507(11) 0.99403(12)
H11 H -0.0944 -0.1665 1.0000
C15 C -0.1301(2) -0.02641(12) 1.04536(12)
H12 H -0.1222 -0.0020 1.0848
C16 C -0.1035(2) -0.08721(12) 1.05359(13)
H13 H -0.0782 -0.1040 1.0984
C17 C -0.4903(2) -0.20158(10) 0.69612(12)
H14 H -0.4536 -0.2097 0.7433
C18 C -0.1941(2) -0.16340(10) 0.59587(11)
H15 H -0.2552 -0.1900 0.6028
C19 C -0.4992(2) -0.14363(10) 0.59224(12)
H16 H -0.4686 -0.1125 0.5692
C20 C -0.1532(2) -0.10135(10) 0.92807(12)
H17 H -0.1594 -0.1269 0.8897
C21 C -0.1887(2) 0.06361(11) 0.96859(12)
H18 H -0.1806 0.0884 1.0078
C22 C -0.2738(2) 0.08097(10) 0.77392(12)
H19 H -0.2919 0.0569 0.7337
C23 C -0.2197(2) 0.09047(10) 0.90226(12)
C24 C -0.1697(2) 0.00060(11) 0.97770(11)
C25 C -0.2401(2) 0.05214(9) 0.84104(11)
C26 C -0.1710(2) -0.10816(10) 0.63359(11)
C27 C -0.4437(2) -0.15456(9) 0.66295(11)
C28 C -0.18486(19) -0.03794(10) 0.91670(11)
C29 C -0.22325(19) -0.01159(9) 0.84962(11)
N1 N -0.17475(16) -0.05243(8) 0.74184(9)
N2 N -0.34580(16) -0.08808(7) 0.76468(9)
H20 H -0.4028 -0.0941 0.7861
C30 C 0.13376(19) 0.45199(8) 0.68713(11)
C31 C 0.23234(19) 0.37036(8) 0.66263(10)
C32 C 0.10791(18) 0.35716(8) 0.65504(10)
C33 C 0.5471(2) 0.29383(11) 0.69312(14)
H21 H 0.6233 0.2926 0.7271
C34 C 0.1674(2) 0.60399(10) 0.87749(12)
H22 H 0.1682 0.6444 0.8928
C35 C 0.0465(2) 0.59896(10) 0.53844(13)
H23 H 0.0334 0.5907 0.4909
C36 C 0.5295(2) 0.25843(10) 0.63283(14)
H24 H 0.5931 0.2329 0.6269
C37 C 0.1941(3) 0.55775(11) 0.92525(13)
H25 H 0.2134 0.5668 0.9729
C38 C 0.1927(2) 0.49572(11) 0.90308(13)
H26 H 0.2091 0.4645 0.9363
C39 C 0.0328(2) 0.18767(10) 0.64319(13)
H27 H 0.0738 0.1504 0.6545
C40 C -0.0955(2) 0.18877(10) 0.61309(13)
H28 H -0.1410 0.1524 0.6056
C41 C -0.1549(2) 0.24448(10) 0.59430(12)
H29 H -0.2405 0.2453 0.5735
C42 C 0.0421(2) 0.66051(10) 0.56154(13)
H30 H 0.0263 0.6923 0.5290
C43 C 0.0610(2) 0.67331(9) 0.63084(13)
H31 H 0.0569 0.7137 0.6451
C44 C 0.4178(2) 0.26126(9) 0.58194(13)
H32 H 0.4065 0.2382 0.5412
C45 C 0.0999(2) 0.24213(9) 0.65646(12)
H33 H 0.1854 0.2410 0.6777
C46 C 0.1677(2) 0.48163(9) 0.83363(12)
H34 H 0.1683 0.4408 0.8200
C47 C 0.4512(2) 0.33110(10) 0.70288(12)
H35 H 0.4634 0.3547 0.7433
C48 C 0.1108(2) 0.63791(9) 0.75360(12)
H36 H 0.1086 0.6783 0.7683
C49 C 0.33696(19) 0.33316(8) 0.65209(11)
C50 C 0.3216(2) 0.29856(9) 0.59125(11)
H37 H 0.2464 0.3004 0.5565
C51 C 0.11770(19) 0.51602(8) 0.70932(11)
C52 C 0.0697(2) 0.55207(10) 0.58560(12)
H38 H 0.0718 0.5120 0.5697
C53 C 0.1381(2) 0.59130(9) 0.80381(12)
C54 C 0.0869(2) 0.62565(9) 0.68206(12)
C55 C 0.14041(19) 0.52857(9) 0.78134(11)
C56 C 0.0907(2) 0.56324(9) 0.65892(11)
C57 C -0.0882(2) 0.29904(9) 0.60619(11)
H39 H -0.1292 0.3361 0.5929
C58 C 0.04049(19) 0.29859(9) 0.63816(11)
N3 N 0.04666(16) 0.40870(7) 0.67054(9)
N4 N 0.24635(16) 0.43087(7) 0.68338(9)
H40 H 0.3147 0.4516 0.6924
O1 O 0.45141(14) 0.50396(6) 0.71577(8)
C59 C 0.4487(2) 0.56065(10) 0.75062(14)
H41 H 0.528(4) 0.4859(19) 0.733(2)
H42 H 0.373(4) 0.5848(19) 0.725(2)
H43 H 0.446(4) 0.5584(18) 0.801(2)
H44 H 0.515(4) 0.5852(19) 0.747(2)
O2 O -0.1113(3) 0.60231(12) 0.90486(14)
C60 C -0.1376(5) 0.53911(18) 0.9173(2)
loop_
_geom_bond_atom_site_label_1
_geom_bond_atom_site_label_2
_geom_bond_site_symmetry_1
_geom_bond_site_symmetry_2
C1 C29 1_555 1_555
C2 C3 1_555 1_555
C3 C27 1_555 1_555
C4 H1 1_555 1_555
C5 H2 1_555 1_555
C6 C4 1_555 1_555
H3 C6 1_555 1_555
C7 C6 1_555 1_555
H4 C7 1_555 1_555
C8 H5 1_555 1_555
C9 C8 1_555 1_555
H6 C9 1_555 1_555
C10 C4 1_555 1_555
H7 C10 1_555 1_555
C11 C9 1_555 1_555
H8 C11 1_555 1_555
C12 C5 1_555 1_555
H9 C12 1_555 1_555
C13 C5 1_555 1_555
H10 C13 1_555 1_555
C14 H11 1_555 1_555
C15 H12 1_555 1_555
C16 C14 1_555 1_555
H13 C16 1_555 1_555
C17 C12 1_555 1_555
H14 C17 1_555 1_555
C18 C10 1_555 1_555
H15 C18 1_555 1_555
C19 C13 1_555 1_555
H16 C19 1_555 1_555
C20 C14 1_555 1_555
H17 C20 1_555 1_555
C21 H18 1_555 1_555
C22 C11 1_555 1_555
H19 C22 1_555 1_555
C23 C8 1_555 1_555
C24 C15 1_555 1_555
C25 C22 1_555 1_555
C26 C2 1_555 1_555
C27 C17 1_555 1_555
C28 C20 1_555 1_555
C29 C25 1_555 1_555
N1 C1 1_555 1_555
N2 C1 1_555 1_555
H20 N2 1_555 1_555
C30 C51 1_555 1_555
C31 C32 1_555 1_555
C32 C58 1_555 1_555
C33 H21 1_555 1_555
C34 H22 1_555 1_555
C35 H23 1_555 1_555
C36 C33 1_555 1_555
H24 C36 1_555 1_555
C37 C34 1_555 1_555
H25 C37 1_555 1_555
C38 C37 1_555 1_555
H26 C38 1_555 1_555
C39 H27 1_555 1_555
C40 C39 1_555 1_555
H28 C40 1_555 1_555
C41 C40 1_555 1_555
H29 C41 1_555 1_555
C42 C35 1_555 1_555
H30 C42 1_555 1_555
C43 C42 1_555 1_555
H31 C43 1_555 1_555
C44 C36 1_555 1_555
H32 C44 1_555 1_555
C45 C39 1_555 1_555
H33 C45 1_555 1_555
C46 C38 1_555 1_555
H34 C46 1_555 1_555
C47 C33 1_555 1_555
H35 C47 1_555 1_555
C48 H36 1_555 1_555
C49 C31 1_555 1_555
C50 C44 1_555 1_555
H37 C50 1_555 1_555
C51 C55 1_555 1_555
C52 C35 1_555 1_555
H38 C52 1_555 1_555
C53 C34 1_555 1_555
C54 C43 1_555 1_555
C55 C46 1_555 1_555
C56 C51 1_555 1_555
C57 C41 1_555 1_555
H39 C57 1_555 1_555
C58 C45 1_555 1_555
N3 C30 1_555 1_555
N4 C30 1_555 1_555
H40 N4 1_555 1_555
O1 C59 1_555 1_555
C59 H42 1_555 1_555
H41 O1 1_555 1_555
H43 C59 1_555 1_555
H44 C59 1_555 1_555
O2 C60 1_555 1_555
C2 N1 1_555 1_555
C3 N2 1_555 1_555
C7 C26 1_555 1_555
C15 C16 1_555 1_555
C18 C26 1_555 1_555
C19 C27 1_555 1_555
C21 C23 1_555 1_555
C21 C24 1_555 1_555
C23 C25 1_555 1_555
C24 C28 1_555 1_555
C28 C29 1_555 1_555
C31 N4 1_555 1_555
C32 N3 1_555 1_555
C47 C49 1_555 1_555
C48 C53 1_555 1_555
C48 C54 1_555 1_555
C49 C50 1_555 1_555
C52 C56 1_555 1_555
C53 C55 1_555 1_555
C54 C56 1_555 1_555
C57 C58 1_555 1_555

#END
