
#######################################################################
#
#                 Cambridge Crystallographic Data Centre
#                                CCDC 
#
#######################################################################
#
# If this CIF has been generated from an entry in the Cambridge 
# Structural Database, then it will include bibliographic, chemical, 
# crystal, experimental, refinement or atomic coordinate data resulting 
# from the CCDC's data processing and validation procedures.
#
#######################################################################

data_TOKROC
_chemical_formula_moiety         'C29 H20 N2,C4 H8 O2'
_chemical_name_systematic        
'2-(9-Anthryl)-4,5-diphenyl-1H-imidazole ethyl acetate solvate'
_symmetry_cell_setting           orthorhombic
_symmetry_space_group_name_H-M   'P b c a'
_symmetry_Int_Tables_number      61
_space_group_name_Hall           '-P 2ac 2ab'
loop_
_symmetry_equiv_pos_site_id
_symmetry_equiv_pos_as_xyz
1 x,y,z
2 1/2-x,-y,1/2+z
3 1/2+x,1/2-y,-z
4 -x,1/2+y,1/2-z
5 -x,-y,-z
6 1/2+x,y,1/2-z
7 1/2-x,1/2+y,z
8 x,1/2-y,1/2+z
_cell_length_a                   12.859(5)
_cell_length_b                   15.737(6)
_cell_length_c                   25.688(10)
_cell_angle_alpha                90
_cell_angle_beta                 90
_cell_angle_gamma                90
_cell_volume                     5198.28
_cell_formula_units_Z            8
loop_
_atom_site_label
_atom_site_type_symbol
_atom_site_fract_x
_atom_site_fract_y
_atom_site_fract_z
C1 C 0.7496(3) -0.1810(2) 0.23217(14)
H1 H 0.7705 -0.1794 0.2668
C2 C 0.8169(3) -0.2110(2) 0.19497(17)
H2 H 0.8829 -0.2297 0.2044
C3 C 0.0599(3) -0.3325(2) 0.10091(14)
H3 H 0.0083 -0.3715 0.1095
C4 C 0.1359(3) -0.3096(2) 0.13829(13)
H4 H 0.1333 -0.3333 0.1714
C5 C 0.0625(2) -0.29774(19) 0.05267(13)
H5 H 0.0128 -0.3137 0.0282
C6 C 0.3590(2) -0.0087(2) -0.04734(12)
H6 H 0.4058 0.0343 -0.0556
C7 C 0.2839(2) -0.0340(2) -0.08430(11)
H7 H 0.2819 -0.0078 -0.1167
C8 C 0.2125(2) -0.25340(19) 0.12638(11)
H8 H 0.2625 -0.2403 0.1513
C9 C 0.2152(2) -0.09585(19) -0.07280(10)
H9 H 0.1665 -0.1119 -0.0977
C10 C 0.4675(3) 0.12680(19) 0.28809(11)
H10 H 0.4715 0.1687 0.3135
C11 C 0.6885(2) -0.18504(18) 0.12989(12)
H11 H 0.6691 -0.1867 0.0950
C12 C 0.6499(2) -0.15296(18) 0.21857(11)
H12 H 0.6048 -0.1335 0.2442
C13 C 0.3636(2) -0.04657(18) 0.00019(11)
H13 H 0.4137 -0.0291 0.0240
C14 C 0.1425(2) -0.19866(17) -0.01025(10)
H14 H 0.0935 -0.2149 -0.0350
C15 C 0.3739(3) 0.08808(19) 0.27732(11)
H15 H 0.3144 0.1043 0.2954
C16 C 0.3676(2) 0.02462(17) 0.23936(10)
H16 H 0.3041 -0.0014 0.2327
C17 C 0.5554(3) 0.10302(18) 0.26092(11)
H17 H 0.6188 0.1289 0.2682
C18 C 0.14022(19) -0.23691(16) 0.03868(10)
C19 C 0.21522(19) -0.13724(16) -0.02338(9)
C20 C 0.5496(2) 0.04025(17) 0.22254(10)
H18 H 0.6091 0.0251 0.2042
C21 C 0.61824(19) -0.15413(14) 0.16680(10)
C22 C 0.44825(19) -0.06456(15) 0.16985(9)
C23 C 0.29278(18) -0.11273(16) 0.01413(9)
C24 C 0.21757(19) -0.21405(16) 0.07633(9)
C25 C 0.37522(19) -0.13022(16) 0.10243(9)
C26 C 0.29351(19) -0.15276(16) 0.06341(9)
C27 C 0.51388(18) -0.12612(15) 0.14975(9)
C28 C 0.45550(19) 0.00000(15) 0.21147(9)
C29 C 0.7865(2) -0.2133(2) 0.14428(15)
H19 H 0.8317 -0.2340 0.1191
N1 N 0.36026(16) -0.06942(13) 0.13910(7)
H20 H 0.3052 -0.0390 0.1426
N2 N 0.46716(16) -0.16612(13) 0.10748(8)
C30 C -0.0016(3) 0.0739(3) -0.13301(15)
H21 H -0.0235 0.1045 -0.1634
H22 H 0.0628 0.0453 -0.1401
H23 H 0.0080 0.1129 -0.1047
C31 C -0.0821(3) 0.0104(2) -0.11876(14)
C32 C -0.1289(4) -0.1006(4) -0.0602(2)
H24 H -0.1994 -0.0855 -0.0699
H25 H -0.1115 -0.1539 -0.0770
C33 C -0.1219(3) -0.1099(3) -0.00452(18)
H26 H -0.1695 -0.1532 0.0068
H27 H -0.1393 -0.0570 0.0119
H28 H -0.0523 -0.1259 0.0048
O1 O -0.16160(18) -0.00040(19) -0.14248(10)
O2 O -0.0572(2) -0.0345(2) -0.07715(11)
loop_
_geom_bond_atom_site_label_1
_geom_bond_atom_site_label_2
_geom_bond_site_symmetry_1
_geom_bond_site_symmetry_2
C1 H1 1_555 1_555
C2 C1 1_555 1_555
H2 C2 1_555 1_555
C3 H3 1_555 1_555
C4 C3 1_555 1_555
H4 C4 1_555 1_555
C5 C3 1_555 1_555
H5 C5 1_555 1_555
C6 H6 1_555 1_555
C7 C6 1_555 1_555
H7 C7 1_555 1_555
C8 C4 1_555 1_555
H8 C8 1_555 1_555
C9 C7 1_555 1_555
H9 C9 1_555 1_555
C10 H10 1_555 1_555
C11 H11 1_555 1_555
C12 C1 1_555 1_555
H12 C12 1_555 1_555
C13 C6 1_555 1_555
H13 C13 1_555 1_555
C14 H14 1_555 1_555
C15 C10 1_555 1_555
H15 C15 1_555 1_555
C16 C15 1_555 1_555
H16 C16 1_555 1_555
C17 C10 1_555 1_555
H17 C17 1_555 1_555
C18 C5 1_555 1_555
C19 C9 1_555 1_555
C20 C17 1_555 1_555
H18 C20 1_555 1_555
C21 C11 1_555 1_555
C22 C27 1_555 1_555
C23 C13 1_555 1_555
C24 C8 1_555 1_555
C25 C26 1_555 1_555
C26 C23 1_555 1_555
C27 C21 1_555 1_555
C28 C16 1_555 1_555
C29 C2 1_555 1_555
H19 C29 1_555 1_555
N1 C22 1_555 1_555
H20 N1 1_555 1_555
N2 C25 1_555 1_555
C30 H21 1_555 1_555
H22 C30 1_555 1_555
H23 C30 1_555 1_555
C31 C30 1_555 1_555
C32 H24 1_555 1_555
H25 C32 1_555 1_555
C33 C32 1_555 1_555
H26 C33 1_555 1_555
H27 C33 1_555 1_555
H28 C33 1_555 1_555
O1 C31 1_555 1_555
O2 C31 1_555 1_555
C11 C29 1_555 1_555
C12 C21 1_555 1_555
C14 C18 1_555 1_555
C14 C19 1_555 1_555
C18 C24 1_555 1_555
C19 C23 1_555 1_555
C20 C28 1_555 1_555
C22 C28 1_555 1_555
C24 C26 1_555 1_555
C25 N1 1_555 1_555
C27 N2 1_555 1_555
C32 O2 1_555 1_555

#END
