
#######################################################################
#
#                 Cambridge Crystallographic Data Centre
#                                CCDC 
#
#######################################################################
#
# If this CIF has been generated from an entry in the Cambridge 
# Structural Database, then it will include bibliographic, chemical, 
# crystal, experimental, refinement or atomic coordinate data resulting 
# from the CCDC's data processing and validation procedures.
#
#######################################################################

data_TOKTOE
_chemical_formula_moiety         'C34 H34 N4 O1'
_chemical_name_systematic        
(3aS,8aR)-(8-Benzyl-3a-(phenyldiazenyl)-3,3a,8,8a-tetrahydropyrrolo[2,3-b]indol-1(2H)-yl)(4-t-butylphenyl)methanone
_symmetry_cell_setting           monoclinic
_symmetry_space_group_name_H-M   'P 21'
_symmetry_Int_Tables_number      4
_space_group_name_Hall           'P 2yb'
loop_
_symmetry_equiv_pos_site_id
_symmetry_equiv_pos_as_xyz
1 x,y,z
2 -x,1/2+y,-z
_cell_length_a                   12.5207(8)
_cell_length_b                   6.2144(4)
_cell_length_c                   18.0695(12)
_cell_angle_alpha                90
_cell_angle_beta                 102.219(2)
_cell_angle_gamma                90
_cell_volume                     1374.11
_exptl_crystal_colour            yellow
_exptl_crystal_description       prism
_cell_formula_units_Z            2
loop_
_atom_site_label
_atom_site_type_symbol
_atom_site_fract_x
_atom_site_fract_y
_atom_site_fract_z
C1 C 0.87249(12) 0.2000(3) 0.78730(8)
C2 C 0.87419(12) 0.1202(3) 0.86711(8)
C3 C 0.92601(12) -0.0543(3) 0.90592(9)
H1 H 0.9676 -0.1503 0.8823
C4 C 0.91619(12) -0.0876(3) 0.98084(9)
H2 H 0.9507 -0.2077 1.0085
C5 C 0.85599(12) 0.0551(3) 1.01462(9)
H3 H 0.8511 0.0322 1.0658
C6 C 0.80248(12) 0.2309(3) 0.97569(9)
H4 H 0.7615 0.3277 0.9994
C7 C 0.81108(11) 0.2599(3) 0.90066(8)
C8 C 0.78138(12) 0.3749(3) 0.77500(8)
H5 H 0.8054 0.5079 0.7520
C9 C 0.71117(12) 0.0410(3) 0.71206(9)
H6 H 0.6769 -0.0074 0.6603
H7 H 0.6839 -0.0493 0.7493
C10 C 0.83516(12) 0.0319(3) 0.72518(8)
H8 H 0.8606 0.0696 0.6785
H9 H 0.8628 -0.1130 0.7422
C11 C 1.10057(12) 0.5210(3) 0.75846(8)
C12 C 1.13493(13) 0.7313(3) 0.77420(9)
H10 H 1.0884 0.8326 0.7909
C13 C 1.23838(13) 0.7924(3) 0.76521(10)
H11 H 1.2636 0.9347 0.7775
C14 C 1.30485(13) 0.6456(3) 0.73828(10)
H12 H 1.3759 0.6869 0.7331
C15 C 1.26753(14) 0.4404(3) 0.71918(10)
H13 H 1.3120 0.3422 0.6989
C16 C 1.16558(13) 0.3758(3) 0.72923(9)
H14 H 1.1403 0.2337 0.7163
C17 C 0.68529(13) 0.5714(3) 0.86734(9)
H15 H 0.6675 0.6749 0.8248
H16 H 0.7204 0.6533 0.9130
C18 C 0.57928(13) 0.4758(3) 0.88076(8)
C19 C 0.51293(14) 0.6024(4) 0.91579(10)
H17 H 0.5350 0.7446 0.9312
C20 C 0.41457(15) 0.5227(4) 0.92843(11)
H18 H 0.3698 0.6112 0.9522
C21 C 0.38153(14) 0.3173(4) 0.90693(11)
H19 H 0.3140 0.2639 0.9153
C22 C 0.44758(14) 0.1886(4) 0.87289(10)
H20 H 0.4256 0.0457 0.8584
C23 C 0.54572(13) 0.2674(3) 0.85985(9)
H21 H 0.5904 0.1779 0.8364
C24 C 0.60682(12) 0.3911(3) 0.68209(9)
C25 C 0.51195(11) 0.2818(3) 0.63117(8)
C26 C 0.46729(12) 0.0868(3) 0.64806(8)
H22 H 0.5030 0.0060 0.6908
C27 C 0.37114(13) 0.0099(3) 0.60290(9)
H23 H 0.3417 -0.1224 0.6158
C28 C 0.31668(12) 0.1222(3) 0.53903(8)
C29 C 0.36487(12) 0.3112(3) 0.52072(9)
H24 H 0.3320 0.3869 0.4760
C30 C 0.45990(12) 0.3917(3) 0.56634(9)
H25 H 0.4897 0.5233 0.5532
C31 C 0.20575(12) 0.0405(3) 0.49463(9)
C32 C 0.21332(14) -0.1976(3) 0.47479(10)
H26 H 0.1423 -0.2470 0.4460
H27 H 0.2340 -0.2819 0.5215
H28 H 0.2686 -0.2163 0.4442
C33 C 0.12176(13) 0.0668(3) 0.54484(10)
H29 H 0.1171 0.2187 0.5584
H30 H 0.1445 -0.0189 0.5910
H31 H 0.0501 0.0173 0.5172
C34 C 0.16609(15) 0.1661(3) 0.42096(10)
H32 H 0.1559 0.3176 0.4328
H33 H 0.0965 0.1059 0.3936
H34 H 0.2205 0.1550 0.3893
N1 N 0.76347(10) 0.4173(2) 0.85032(7)
N2 N 0.68911(10) 0.2700(2) 0.72255(7)
N3 N 0.98393(10) 0.2688(2) 0.78203(7)
N4 N 0.99367(10) 0.4645(2) 0.76995(7)
O1 O 0.60770(9) 0.5889(2) 0.68783(7)
loop_
_geom_bond_atom_site_label_1
_geom_bond_atom_site_label_2
_geom_bond_site_symmetry_1
_geom_bond_site_symmetry_2
C1 C2 1_555 1_555
C2 C3 1_555 1_555
C3 H1 1_555 1_555
C4 C3 1_555 1_555
H2 C4 1_555 1_555
C5 C4 1_555 1_555
H3 C5 1_555 1_555
C6 C5 1_555 1_555
H4 C6 1_555 1_555
C7 C2 1_555 1_555
C8 C1 1_555 1_555
H5 C8 1_555 1_555
C9 H6 1_555 1_555
H7 C9 1_555 1_555
C10 C1 1_555 1_555
H8 C10 1_555 1_555
H9 C10 1_555 1_555
C11 C12 1_555 1_555
C12 H10 1_555 1_555
C13 C12 1_555 1_555
H11 C13 1_555 1_555
C14 C13 1_555 1_555
H12 C14 1_555 1_555
C15 C14 1_555 1_555
H13 C15 1_555 1_555
C16 C11 1_555 1_555
H14 C16 1_555 1_555
C17 H15 1_555 1_555
H16 C17 1_555 1_555
C18 C17 1_555 1_555
C19 C18 1_555 1_555
H17 C19 1_555 1_555
C20 C19 1_555 1_555
H18 C20 1_555 1_555
C21 C20 1_555 1_555
H19 C21 1_555 1_555
C22 C21 1_555 1_555
H20 C22 1_555 1_555
C23 C18 1_555 1_555
H21 C23 1_555 1_555
C24 C25 1_555 1_555
C25 C26 1_555 1_555
C26 H22 1_555 1_555
C27 C26 1_555 1_555
H23 C27 1_555 1_555
C28 C27 1_555 1_555
C29 C28 1_555 1_555
H24 C29 1_555 1_555
C30 C25 1_555 1_555
H25 C30 1_555 1_555
C31 C28 1_555 1_555
C32 C31 1_555 1_555
H26 C32 1_555 1_555
H27 C32 1_555 1_555
H28 C32 1_555 1_555
C33 C31 1_555 1_555
H29 C33 1_555 1_555
H30 C33 1_555 1_555
H31 C33 1_555 1_555
C34 C31 1_555 1_555
H32 C34 1_555 1_555
H33 C34 1_555 1_555
H34 C34 1_555 1_555
N1 C7 1_555 1_555
N2 C8 1_555 1_555
N3 C1 1_555 1_555
N4 C11 1_555 1_555
O1 C24 1_555 1_555
C6 C7 1_555 1_555
C8 N1 1_555 1_555
C9 C10 1_555 1_555
C9 N2 1_555 1_555
C15 C16 1_555 1_555
C17 N1 1_555 1_555
C22 C23 1_555 1_555
C24 N2 1_555 1_555
C29 C30 1_555 1_555
N3 N4 1_555 1_555

#END
