
#######################################################################
#
#                 Cambridge Crystallographic Data Centre
#                                CCDC 
#
#######################################################################
#
# If this CIF has been generated from an entry in the Cambridge 
# Structural Database, then it will include bibliographic, chemical, 
# crystal, experimental, refinement or atomic coordinate data resulting 
# from the CCDC's data processing and validation procedures.
#
#######################################################################

data_TOKVUL
_chemical_formula_moiety         'C28 H54 N4 O2 S4'
_chemical_name_systematic        
N,N',2,11-Tetraisobutyl-5,8-di(2-propanyl)-3,10-dioxa-6,7-dithia-4,9-diazadodeca-4,8-diene-1,12-bis(thioamide)
_symmetry_cell_setting           monoclinic
_symmetry_space_group_name_H-M   'P 21'
_symmetry_Int_Tables_number      4
_space_group_name_Hall           'P 2yb'
loop_
_symmetry_equiv_pos_site_id
_symmetry_equiv_pos_as_xyz
1 x,y,z
2 -x,1/2+y,-z
_cell_length_a                   10.210(2)
_cell_length_b                   18.615(4)
_cell_length_c                   19.763(4)
_cell_angle_alpha                90
_cell_angle_beta                 90.00
_cell_angle_gamma                90
_cell_volume                     3756.14
_exptl_crystal_colour            colorless
_exptl_crystal_description       prismatic
_cell_formula_units_Z            4
loop_
_atom_site_label
_atom_site_type_symbol
_atom_site_fract_x
_atom_site_fract_y
_atom_site_fract_z
S1 S -0.13630(7) 0.42540(5) 0.28805(3)
S2 S 0.08590(7) 0.31680(3) 0.57060(3)
S3 S 0.08080(7) 0.32277(3) 0.67383(3)
S4 S 0.34462(8) 0.40068(6) 0.96238(3)
O1 O 0.02838(14) 0.33532(8) 0.44373(6)
O2 O 0.15002(15) 0.34731(9) 0.79742(6)
N1 N 0.08014(19) 0.44702(10) 0.35749(9)
H1 H 0.1198(12) 0.4390(7) 0.3957(4)
N2 N -0.07144(18) 0.37093(9) 0.48097(8)
N3 N 0.23818(19) 0.39112(11) 0.75778(8)
N4 N 0.1414(2) 0.44903(12) 0.89359(9)
H2 H 0.0898(10) 0.4378(7) 0.8627(5)
C1 C 0.0703(7) 0.64431(17) 0.3394(2)
H3 H 0.1392 0.6398 0.3066
H4 H 0.0949 0.6790 0.3730
H5 H -0.0086 0.6597 0.3173
C2 C 0.0967(5) 0.57748(18) 0.44087(15)
H6 H 0.1807 0.6006 0.4409
H7 H 0.1053 0.5298 0.4589
H8 H 0.0369 0.6046 0.4683
C3 C 0.0475(5) 0.57357(14) 0.37245(13)
H9 H -0.0475 0.5669 0.3755
C4 C 0.0967(3) 0.51715(13) 0.33145(13)
H10 H 0.0541 0.5196 0.2877
H11 H 0.1895 0.5253 0.3242
C5 C -0.0186(2) 0.40537(13) 0.34164(10)
C6 C -0.0116(2) 0.33262(13) 0.37474(9)
H12 H -0.0982 0.3101 0.3723
C7 C 0.0906(3) 0.28230(13) 0.33885(11)
H13 H 0.0763 0.2863 0.2905
H14 H 0.1770 0.3016 0.3480
C8 C 0.0939(3) 0.20430(18) 0.35566(16)
H15 H 0.1558 0.2067 0.3935
C9 C 0.1729(5) 0.1617(2) 0.31011(19)
H16 H 0.1941 0.1168 0.3312
H17 H 0.2521 0.1872 0.2997
H18 H 0.1248 0.1529 0.2692
C10 C -0.0117(5) 0.1713(3) 0.3905(2)
H19 H -0.0884 0.1720 0.3624
H20 H -0.0289 0.1971 0.4316
H21 H 0.0108 0.1225 0.4011
C11 C -0.0510(2) 0.36735(11) 0.54381(9)
C12 C -0.1517(2) 0.39743(12) 0.59231(11)
H22 H -0.1056 0.4147 0.6327
C13 C -0.2488(3) 0.34214(16) 0.61406(13)
H23 H -0.2068 0.3079 0.6432
H24 H -0.2830 0.3180 0.5750
H25 H -0.3191 0.3650 0.6380
C14 C -0.2278(3) 0.46212(15) 0.56080(14)
H26 H -0.2756 0.4461 0.5218
H27 H -0.1668 0.4988 0.5477
H28 H -0.2877 0.4812 0.5936
C15 C 0.2072(2) 0.38401(11) 0.69506(10)
C16 C 0.2823(3) 0.42982(14) 0.64567(12)
H29 H 0.2953 0.4012 0.6046
C17 C 0.1964(3) 0.49229(16) 0.62705(14)
H30 H 0.2419 0.5228 0.5957
H31 H 0.1750 0.5191 0.6671
H32 H 0.1174 0.4749 0.6065
C18 C 0.4105(3) 0.4511(2) 0.66947(16)
H33 H 0.4731 0.4146 0.6582
H34 H 0.4081 0.4574 0.7177
H35 H 0.4352 0.4955 0.6484
C19 C 0.2132(3) 0.33152(14) 0.86158(9)
H36 H 0.3002 0.3110 0.8534
C20 C 0.1247(3) 0.27523(16) 0.89513(12)
H37 H 0.1612 0.2642 0.9392
H38 H 0.0397 0.2971 0.9026
C21 C 0.1044(3) 0.20843(19) 0.85990(15)
H39 H 0.0413 0.2202 0.8242
C22 C 0.2154(4) 0.1836(2) 0.8249(2)
H40 H 0.2483 0.2211 0.7962
H41 H 0.1919 0.1428 0.7978
H42 H 0.2818 0.1699 0.8568
C23 C 0.0398(5) 0.1555(2) 0.9000(2)
H43 H 0.0906 0.1460 0.9398
H44 H 0.0305 0.1121 0.8742
H45 H -0.0452 0.1728 0.9128
C24 C 0.2259(2) 0.39929(16) 0.90470(11)
C25 C 0.1388(3) 0.51570(16) 0.93054(14)
H46 H 0.0488 0.5321 0.9329
H47 H 0.1676 0.5063 0.9765
C26 C 0.2174(5) 0.57292(18) 0.90346(13)
H48 H 0.3096 0.5594 0.9088
C27 C 0.1969(6) 0.5895(2) 0.83574(15)
H49 H 0.2140 0.6396 0.8284
H50 H 0.1078 0.5790 0.8238
H51 H 0.2548 0.5614 0.8081
C28 C 0.1980(7) 0.6405(2) 0.9376(2)
H52 H 0.1246 0.6650 0.9179
H53 H 0.2752 0.6695 0.9328
H54 H 0.1814 0.6319 0.9847
S5 S 0.84998(8) 0.45736(5) 0.78691(3)
S6 S 0.58400(7) 0.52781(3) 1.07800(3)
S7 S 0.58454(7) 0.52873(3) 1.18115(3)
S8 S 0.36183(7) 0.40202(5) 1.45887(3)
O3 O 0.66510(16) 0.51325(8) 0.95453(7)
O4 O 0.52841(14) 0.49999(8) 1.30650(6)
N5 N 0.6361(2) 0.41876(11) 0.85464(9)
H55 H 0.5782(11) 0.4194(9) 0.8872(5)
N6 N 0.7434(2) 0.46421(11) 0.99367(9)
N7 N 0.42603(18) 0.46868(10) 1.26784(8)
N8 N 0.57769(19) 0.38133(11) 1.38590(9)
H56 H 0.6266(11) 0.3929(7) 1.3518(5)
C29 C 0.6509(6) 0.22514(18) 0.80307(17)
H57 H 0.6723 0.2353 0.7568
H58 H 0.5603 0.2117 0.8062
H59 H 0.7046 0.1864 0.8191
C30 C 0.6596(7) 0.2718(2) 0.91651(15)
H60 H 0.5759 0.2883 0.9323
H61 H 0.7278 0.2943 0.9424
H62 H 0.6650 0.2206 0.9217
C31 C 0.6748(6) 0.29045(16) 0.84520(12)
H63 H 0.7690 0.2989 0.8403
C32 C 0.6164(3) 0.35268(14) 0.81504(13)
H64 H 0.5232 0.3444 0.8098
H65 H 0.6533 0.3595 0.7703
C33 C 0.7325(2) 0.46366(13) 0.84709(10)
C34 C 0.7300(2) 0.52687(13) 0.89268(9)
H66 H 0.8206 0.5407 0.9027
C35 C 0.6589(3) 0.59245(15) 0.86223(12)
H67 H 0.5676 0.5802 0.8551
H68 H 0.6971 0.6033 0.8185
C36 C 0.6665(5) 0.66035(18) 0.90743(18)
H69 H 0.6446 0.6479 0.9542
C37 C 0.8022(6) 0.6913(2) 0.9044(2)
H70 H 0.7983 0.7421 0.9125
H71 H 0.8391 0.6825 0.8605
H72 H 0.8558 0.6690 0.9383
C38 C 0.5716(6) 0.7134(3) 0.8813(3)
H73 H 0.5032 0.6890 0.8572
H74 H 0.6155 0.7460 0.8512
H75 H 0.5346 0.7398 0.9184
C39 C 0.7103(2) 0.46622(12) 1.05513(9)
C40 C 0.7784(3) 0.41599(14) 1.10278(11)
H76 H 0.7941 0.4420 1.1452
C41 C 0.6928(3) 0.35265(14) 1.11857(13)
H77 H 0.6623 0.3315 1.0772
H78 H 0.6192 0.3681 1.1450
H79 H 0.7422 0.3177 1.1436
C42 C 0.9076(3) 0.3924(2) 1.07596(16)
H80 H 0.8950 0.3669 1.0342
H81 H 0.9493 0.3614 1.1083
H82 H 0.9618 0.4337 1.0681
C43 C 0.4443(2) 0.47725(11) 1.20580(9)
C44 C 0.3444(2) 0.45121(12) 1.15535(11)
H83 H 0.3908 0.4330 1.1155
C45 C 0.2638(3) 0.38985(15) 1.18559(14)
H84 H 0.2070 0.4084 1.2201
H85 H 0.3217 0.3548 1.2050
H86 H 0.2123 0.3678 1.1507
C46 C 0.2579(3) 0.51425(14) 1.13339(12)
H87 H 0.3105 0.5494 1.1105
H88 H 0.2181 0.5356 1.1725
H89 H 0.1908 0.4972 1.1034
C47 C 0.4862(2) 0.50088(13) 1.37578(9)
H90 H 0.3985 0.5220 1.3786
C48 C 0.5840(3) 0.54931(16) 1.41288(12)
H91 H 0.5710 0.5436 1.4612
H92 H 0.6719 0.5329 1.4025
C49 C 0.5747(3) 0.6276(2) 1.39607(19)
H93 H 0.6226 0.6293 1.3531
C50 C 0.6787(4) 0.6647(2) 1.4465(2)
H94 H 0.6826 0.7153 1.4374
H95 H 0.7636 0.6438 1.4395
H96 H 0.6518 0.6571 1.4925
C51 C 0.4401(5) 0.6646(4) 1.3753(3)
H97 H 0.3775 0.6584 1.4110
H98 H 0.4074 0.6429 1.3346
H99 H 0.4543 0.7150 1.3677
C52 C 0.4830(2) 0.42427(14) 1.40463(10)
C53 C 0.5937(3) 0.30819(15) 1.40619(15)
H100 H 0.6853 0.3008 1.4172
H101 H 0.5440 0.3009 1.4475
C54 C 0.5570(6) 0.25608(15) 1.36070(15)
H102 H 0.4621 0.2579 1.3679
C55 C 0.5582(8) 0.2631(2) 1.28565(16)
H103 H 0.6345 0.2894 1.2719
H104 H 0.4810 0.2883 1.2712
H105 H 0.5597 0.2162 1.2655
C56 C 0.5808(6) 0.17819(17) 1.3827(2)
H106 H 0.6154 0.1513 1.3452
H107 H 0.4997 0.1571 1.3971
H108 H 0.6424 0.1774 1.4194
loop_
_geom_bond_atom_site_label_1
_geom_bond_atom_site_label_2
_geom_bond_site_symmetry_1
_geom_bond_site_symmetry_2
S1 C5 1_555 1_555
S2 S3 1_555 1_555
S3 C15 1_555 1_555
S4 C24 1_555 1_555
O1 N2 1_555 1_555
O2 N3 1_555 1_555
N1 H1 1_555 1_555
N2 C11 1_555 1_555
N3 C15 1_555 1_555
N4 H2 1_555 1_555
C1 H3 1_555 1_555
H4 C1 1_555 1_555
H5 C1 1_555 1_555
C2 H6 1_555 1_555
H7 C2 1_555 1_555
H8 C2 1_555 1_555
C3 C1 1_555 1_555
H9 C3 1_555 1_555
C4 N1 1_555 1_555
H10 C4 1_555 1_555
H11 C4 1_555 1_555
C5 N1 1_555 1_555
C6 O1 1_555 1_555
H12 C6 1_555 1_555
C7 C6 1_555 1_555
H13 C7 1_555 1_555
H14 C7 1_555 1_555
C8 C7 1_555 1_555
H15 C8 1_555 1_555
C9 C8 1_555 1_555
H16 C9 1_555 1_555
H17 C9 1_555 1_555
H18 C9 1_555 1_555
C10 C8 1_555 1_555
H19 C10 1_555 1_555
H20 C10 1_555 1_555
H21 C10 1_555 1_555
C11 S2 1_555 1_555
C12 C11 1_555 1_555
H22 C12 1_555 1_555
C13 C12 1_555 1_555
H23 C13 1_555 1_555
H24 C13 1_555 1_555
H25 C13 1_555 1_555
C14 C12 1_555 1_555
H26 C14 1_555 1_555
H27 C14 1_555 1_555
H28 C14 1_555 1_555
C15 C16 1_555 1_555
C16 H29 1_555 1_555
C17 C16 1_555 1_555
H30 C17 1_555 1_555
H31 C17 1_555 1_555
H32 C17 1_555 1_555
C18 C16 1_555 1_555
H33 C18 1_555 1_555
H34 C18 1_555 1_555
H35 C18 1_555 1_555
C19 O2 1_555 1_555
H36 C19 1_555 1_555
C20 C19 1_555 1_555
H37 C20 1_555 1_555
H38 C20 1_555 1_555
C21 C20 1_555 1_555
H39 C21 1_555 1_555
C22 C21 1_555 1_555
H40 C22 1_555 1_555
H41 C22 1_555 1_555
H42 C22 1_555 1_555
C23 C21 1_555 1_555
H43 C23 1_555 1_555
H44 C23 1_555 1_555
H45 C23 1_555 1_555
C24 N4 1_555 1_555
C25 N4 1_555 1_555
H46 C25 1_555 1_555
H47 C25 1_555 1_555
C26 C25 1_555 1_555
H48 C26 1_555 1_555
C27 C26 1_555 1_555
H49 C27 1_555 1_555
H50 C27 1_555 1_555
H51 C27 1_555 1_555
C28 C26 1_555 1_555
H52 C28 1_555 1_555
H53 C28 1_555 1_555
H54 C28 1_555 1_555
S5 C33 1_555 1_555
S6 S7 1_555 1_555
S7 C43 1_555 1_555
S8 C52 1_555 1_555
O3 N6 1_555 1_555
O4 N7 1_555 1_555
N5 H55 1_555 1_555
N6 C39 1_555 1_555
N7 C43 1_555 1_555
N8 H56 1_555 1_555
C29 H57 1_555 1_555
H58 C29 1_555 1_555
H59 C29 1_555 1_555
C30 H60 1_555 1_555
H61 C30 1_555 1_555
H62 C30 1_555 1_555
C31 C29 1_555 1_555
H63 C31 1_555 1_555
C32 N5 1_555 1_555
H64 C32 1_555 1_555
H65 C32 1_555 1_555
C33 N5 1_555 1_555
C34 O3 1_555 1_555
H66 C34 1_555 1_555
C35 C34 1_555 1_555
H67 C35 1_555 1_555
H68 C35 1_555 1_555
C36 C35 1_555 1_555
H69 C36 1_555 1_555
C37 C36 1_555 1_555
H70 C37 1_555 1_555
H71 C37 1_555 1_555
H72 C37 1_555 1_555
C38 C36 1_555 1_555
H73 C38 1_555 1_555
H74 C38 1_555 1_555
H75 C38 1_555 1_555
C39 S6 1_555 1_555
C40 C39 1_555 1_555
H76 C40 1_555 1_555
C41 C40 1_555 1_555
H77 C41 1_555 1_555
H78 C41 1_555 1_555
H79 C41 1_555 1_555
C42 C40 1_555 1_555
H80 C42 1_555 1_555
H81 C42 1_555 1_555
H82 C42 1_555 1_555
C43 C44 1_555 1_555
C44 H83 1_555 1_555
C45 C44 1_555 1_555
H84 C45 1_555 1_555
H85 C45 1_555 1_555
H86 C45 1_555 1_555
C46 C44 1_555 1_555
H87 C46 1_555 1_555
H88 C46 1_555 1_555
H89 C46 1_555 1_555
C47 O4 1_555 1_555
H90 C47 1_555 1_555
C48 C47 1_555 1_555
H91 C48 1_555 1_555
H92 C48 1_555 1_555
C49 C48 1_555 1_555
H93 C49 1_555 1_555
C50 C49 1_555 1_555
H94 C50 1_555 1_555
H95 C50 1_555 1_555
H96 C50 1_555 1_555
C51 C49 1_555 1_555
H97 C51 1_555 1_555
H98 C51 1_555 1_555
H99 C51 1_555 1_555
C52 N8 1_555 1_555
C53 N8 1_555 1_555
H100 C53 1_555 1_555
H101 C53 1_555 1_555
C54 C53 1_555 1_555
H102 C54 1_555 1_555
C55 C54 1_555 1_555
H103 C55 1_555 1_555
H104 C55 1_555 1_555
H105 C55 1_555 1_555
C56 C54 1_555 1_555
H106 C56 1_555 1_555
H107 C56 1_555 1_555
H108 C56 1_555 1_555
C2 C3 1_555 1_555
C3 C4 1_555 1_555
C5 C6 1_555 1_555
C19 C24 1_555 1_555
C30 C31 1_555 1_555
C31 C32 1_555 1_555
C33 C34 1_555 1_555
C47 C52 1_555 1_555

#END
