
#######################################################################
#
#                 Cambridge Crystallographic Data Centre
#                                CCDC 
#
#######################################################################
#
# If this CIF has been generated from an entry in the Cambridge 
# Structural Database, then it will include bibliographic, chemical, 
# crystal, experimental, refinement or atomic coordinate data resulting 
# from the CCDC's data processing and validation procedures.
#
#######################################################################

data_TOKVOE
_chemical_compound_source        'Gardenia sootepensis Hutch'
_chemical_name_common            Quinide
_chemical_formula_moiety         'C7 H10 O5'
_chemical_name_systematic        
1,3,4-Trihydroxy-6-oxabicyclo(3.2.1)octan-7-one
_symmetry_cell_setting           monoclinic
_symmetry_space_group_name_H-M   'P 21'
_symmetry_Int_Tables_number      4
_space_group_name_Hall           'P 2yb'
loop_
_symmetry_equiv_pos_site_id
_symmetry_equiv_pos_as_xyz
1 x,y,z
2 -x,1/2+y,-z
_cell_length_a                   6.467(4)
_cell_length_b                   18.349(4)
_cell_length_c                   7.041(4)
_cell_angle_alpha                90
_cell_angle_beta                 116.21(5)
_cell_angle_gamma                90
_cell_volume                     749.6
_exptl_crystal_colour            colorless
_cell_formula_units_Z            4
loop_
_atom_site_label
_atom_site_type_symbol
_atom_site_fract_x
_atom_site_fract_y
_atom_site_fract_z
O1 O 0.8721(12) 0.9375(4) 0.0119(12)
O2 O 0.9734(12) 0.9512(5) -0.3279(12)
O3 O 1.2310(13) 0.7755(4) 0.0970(13)
O4 O 1.5694(13) 0.7625(5) 0.0823(14)
O5 O 1.6850(11) 0.9040(4) 0.2834(12)
C1 C 1.3152(17) 0.8824(6) 0.2952(16)
C2 C 1.1127(21) 0.8336(6) 0.1504(21)
C3 C 0.9587(17) 0.8747(6) -0.0517(17)
C4 C 1.0873(16) 0.8944(6) -0.1830(16)
C5 C 1.3339(18) 0.9258(6) -0.0353(19)
C6 C 1.4493(16) 0.8809(6) 0.1652(16)
C7 C 1.4348(18) 0.8006(6) 0.1112(19)
O6 O 1.8951(12) 0.57140(4) 0.5559(12)
O7 O 1.4729(13) 0.5529(4) 0.2177(11)
O8 O 1.5983(13) 0.7345 0.6141(13)
O9 O 1.2384(13) 0.7420(4) 0.5857(13)
O10 O 1.3427(11) 0.6059(4) 0.8234(11)
C8 C 1.7218(17) 0.6314(7) 0.8331(17)
C9 C 1.7724(17) 0.6752(6) 0.6799(18)
C10 C 1.7421(17) 0.6350(6) 0.4821(18)
C11 C 1.4903(17) 0.6091(6) 0.3608(16)
C12 C 1.3912(18) 0.5811(6) 0.5097(17)
C13 C 1.4531(16) 0.6272(6) 0.7035(15)
C14 C 1.4112(19) 0.7058(6) 0.6360(17)
loop_
_geom_bond_atom_site_label_1
_geom_bond_atom_site_label_2
_geom_bond_site_symmetry_1
_geom_bond_site_symmetry_2
O1 C3 1_555 1_555
O2 C4 1_555 1_555
O3 C2 1_555 1_555
O4 C7 1_555 1_555
O5 C6 1_555 1_555
C1 C2 1_555 1_555
C2 C3 1_555 1_555
C3 C4 1_555 1_555
C4 C5 1_555 1_555
C5 C6 1_555 1_555
C6 C1 1_555 1_555
C7 O3 1_555 1_555
O6 C10 1_555 1_555
O7 C11 1_555 1_555
O8 C9 1_555 1_555
O9 C14 1_555 1_555
O10 C13 1_555 1_555
C8 C9 1_555 1_555
C9 C10 1_555 1_555
C10 C11 1_555 1_555
C11 C12 1_555 1_555
C12 C13 1_555 1_555
C13 C8 1_555 1_555
C14 O8 1_555 1_555
C6 C7 1_555 1_555
C13 C14 1_555 1_555

#END
