
#######################################################################
#
#                 Cambridge Crystallographic Data Centre
#                                CCDC 
#
#######################################################################
#
# If this CIF has been generated from an entry in the Cambridge 
# Structural Database, then it will include bibliographic, chemical, 
# crystal, experimental, refinement or atomic coordinate data resulting 
# from the CCDC's data processing and validation procedures.
#
#######################################################################

data_TOKWUN
_chemical_name_common            'Rimantadine hydrochloride'
_chemical_formula_moiety         'C12 H22 N1 1+,Cl1 1-'
_chemical_name_systematic        '(RS)-1-(1-Adamantyl)ethanamine hydrochloride'
_symmetry_cell_setting           tetragonal
_symmetry_space_group_name_H-M   'P 42 b c'
_symmetry_Int_Tables_number      106
_space_group_name_Hall           'P 4c -2ab'
loop_
_symmetry_equiv_pos_site_id
_symmetry_equiv_pos_as_xyz
1 x,y,z
2 -x,-y,z
3 -y,x,1/2+z
4 y,-x,1/2+z
5 1/2-x,1/2+y,z
6 1/2+x,1/2-y,z
7 1/2+y,1/2+x,1/2+z
8 1/2-y,1/2-x,1/2+z
_cell_length_a                   18.3774(8)
_cell_length_b                   18.3774(8)
_cell_length_c                   7.5049(2)
_cell_angle_alpha                90
_cell_angle_beta                 90
_cell_angle_gamma                90
_cell_volume                     2534.62
_exptl_crystal_colour            colorless
_exptl_crystal_description       needle
_cell_formula_units_Z            8
loop_
_atom_site_label
_atom_site_type_symbol
_atom_site_fract_x
_atom_site_fract_y
_atom_site_fract_z
Cl1 Cl 0.00492(4) 0.62428(5) 0.25103(16)
N1 N -0.00577(18) 0.61546(16) 0.6704(4)
H1 H -0.0038(19) 0.625(2) 0.555(3)
H2 H -0.0402(15) 0.5824(15) 0.667(4)
H3 H 0.0335(13) 0.5957(17) 0.710(4)
C1 C -0.1032(2) 0.6994(2) 0.7236(8)
H4 H -0.1054 0.7089 0.5979
H5 H -0.1184 0.7420 0.7878
H6 H -0.1347 0.6595 0.7523
C2 C -0.02546(17) 0.68038(17) 0.7755(6)
H7 H -0.0267 0.6653 0.9007
C3 C 0.03066(16) 0.74180(15) 0.7619(5)
C4 C 0.0314(3) 0.7806(3) 0.5844(5)
H8 H -0.0161 0.8018 0.5622
H9 H 0.0414 0.7459 0.4902
C5 C 0.1070(2) 0.7121(2) 0.7900(8)
H10 H 0.1092 0.6864 0.9029
H11 H 0.1186 0.6778 0.6960
C6 C 0.0149(4) 0.7965(3) 0.9056(7)
H12 H 0.0159 0.7726 1.0208
H13 H -0.0335 0.8165 0.8881
C7 C 0.0717(5) 0.8588(4) 0.9028(10)
H14 H 0.0606 0.8942 0.9967
C8 C 0.0691(3) 0.8961(2) 0.7202(9)
H15 H 0.0208 0.9150 0.6976
H16 H 0.1034 0.9362 0.7167
C9 C 0.0888(4) 0.8402(3) 0.5819(7)
H17 H 0.0887 0.8634 0.4644
C10 C 0.1612(4) 0.8110(4) 0.6166(11)
H18 H 0.1744 0.7769 0.5232
H19 H 0.1965 0.8503 0.6163
C11 C 0.1626(3) 0.7739(3) 0.7896(15)
H20 H 0.2112 0.7540 0.8106
C12 C 0.1445(6) 0.8268(5) 0.9333(11)
H21 H 0.1807 0.8651 0.9358
H22 H 0.1452 0.8022 1.0477
loop_
_geom_bond_atom_site_label_1
_geom_bond_atom_site_label_2
_geom_bond_site_symmetry_1
_geom_bond_site_symmetry_2
N1 H1 1_555 1_555
H2 N1 1_555 1_555
H3 N1 1_555 1_555
C1 H4 1_555 1_555
H5 C1 1_555 1_555
H6 C1 1_555 1_555
C2 N1 1_555 1_555
H7 C2 1_555 1_555
C3 C2 1_555 1_555
C4 C3 1_555 1_555
H8 C4 1_555 1_555
H9 C4 1_555 1_555
C5 C3 1_555 1_555
H10 C5 1_555 1_555
H11 C5 1_555 1_555
C6 C3 1_555 1_555
H12 C6 1_555 1_555
H13 C6 1_555 1_555
C7 C6 1_555 1_555
H14 C7 1_555 1_555
C8 C7 1_555 1_555
H15 C8 1_555 1_555
H16 C8 1_555 1_555
C9 C4 1_555 1_555
H17 C9 1_555 1_555
C10 C9 1_555 1_555
H18 C10 1_555 1_555
H19 C10 1_555 1_555
C11 C5 1_555 1_555
H20 C11 1_555 1_555
C12 C7 1_555 1_555
H21 C12 1_555 1_555
H22 C12 1_555 1_555
C1 C2 1_555 1_555
C8 C9 1_555 1_555
C10 C11 1_555 1_555
C11 C12 1_555 1_555

#END
