
#######################################################################
#
#                 Cambridge Crystallographic Data Centre
#                                CCDC 
#
#######################################################################
#
# If this CIF has been generated from an entry in the Cambridge 
# Structural Database, then it will include bibliographic, chemical, 
# crystal, experimental, refinement or atomic coordinate data resulting 
# from the CCDC's data processing and validation procedures.
#
#######################################################################

data_TOLBUT01
_chemical_formula_moiety         'C30 H36 O4'
_chemical_name_systematic        
9-benzoyl-4,4,8,8-tetramethyl-11-(3-methylbut-2-en-1-yl)tetracyclo[7.3.1.1^7,11^.0^1,5^]tetradecane-10,12,13-trione
_symmetry_cell_setting           monoclinic
_symmetry_space_group_name_H-M   'P 21'
_symmetry_Int_Tables_number      4
_space_group_name_Hall           'P 2yb'
loop_
_symmetry_equiv_pos_site_id
_symmetry_equiv_pos_as_xyz
1 x,y,z
2 -x,1/2+y,-z
_cell_length_a                   10.75090(10)
_cell_length_b                   7.76550(10)
_cell_length_c                   14.8907(2)
_cell_angle_alpha                90
_cell_angle_beta                 99.69
_cell_angle_gamma                90
_cell_volume                     1225.43
_exptl_crystal_colour            colorless
_exptl_crystal_description       needle
_cell_formula_units_Z            2
loop_
_atom_site_label
_atom_site_type_symbol
_atom_site_fract_x
_atom_site_fract_y
_atom_site_fract_z
O1 O 0.29952(9) 0.66130(14) 0.73485(6)
O2 O 0.05910(8) 1.02765(13) 0.85558(6)
O3 O -0.10112(8) 0.74169(15) 0.59340(6)
C1 C 0.36332(13) 0.5671(2) 0.51657(10)
H1 H 0.4322 0.5976 0.5659
H2 H 0.3969 0.5528 0.4598
H3 H 0.3244 0.4591 0.5316
C2 C 0.26605(12) 0.70802(19) 0.50498(9)
C3 C 0.15827(13) 0.70131(19) 0.53740(9)
H4 H 0.1038 0.7980 0.5256
C4 C 0.11387(12) 0.5564(2) 0.59078(9)
H5 H 0.1812 0.4683 0.6026
H6 H 0.0392 0.5019 0.5535
C5 C 0.07892(12) 0.61354(18) 0.68202(9)
C6 C 0.19228(12) 0.68479(17) 0.74601(9)
C7 C 0.16178(12) 0.76436(19) 0.83327(9)
C8 C 0.27665(12) 0.8687(2) 0.88255(9)
C9 C 0.32906(12) 1.0127(2) 0.83252(9)
C10 C 0.42615(12) 1.1110(2) 0.88196(10)
H7 H 0.4539 1.0871 0.9447
C11 C 0.48214(13) 1.2426(2) 0.84059(11)
H8 H 0.5479 1.3085 0.8750
C12 C 0.44254(14) 1.2788(2) 0.74888(12)
H9 H 0.4814 1.3688 0.7204
C13 C 0.29823(15) 0.8609(2) 0.45171(11)
H10 H 0.2305 0.9465 0.4477
H11 H 0.3077 0.8243 0.3902
H12 H 0.3775 0.9119 0.4823
C14 C 0.12264(13) 0.60098(19) 0.88965(9)
C15 C 0.01473(13) 0.49377(18) 0.83130(9)
H13 H 0.0176 0.3793 0.8624
C16 C 0.04235(13) 0.45367(18) 0.73541(9)
H14 H -0.0333 0.3992 0.6995
H15 H 0.1120 0.3689 0.7409
C17 C -0.12240(12) 0.5568(2) 0.82740(9)
H16 H -0.1769 0.4910 0.7791
H17 H -0.1490 0.5269 0.8860
C18 C -0.14855(12) 0.74699(19) 0.80986(9)
H18 H -0.1258 0.8024 0.8710
C19 C -0.28664(13) 0.80337(19) 0.77557(9)
C20 C -0.36651(13) 0.7693(2) 0.84985(10)
H19 H -0.3309 0.8325 0.9052
H20 H -0.3664 0.6457 0.8632
H21 H -0.4533 0.8079 0.8287
C21 C -0.35005(12) 0.7141(2) 0.68788(10)
H22 H -0.4360 0.7586 0.6702
H23 H -0.3533 0.5897 0.6983
H24 H -0.3014 0.7369 0.6391
C22 C -0.26636(13) 0.9947(2) 0.75843(10)
H25 H -0.2535 1.0596 0.8165
H26 H -0.3402 1.0434 0.7177
C23 C -0.14788(13) 1.0043(2) 0.71337(9)
H27 H -0.1009 1.1120 0.7311
H28 H -0.1716 1.0018 0.6462
C24 C -0.06559(12) 0.84533(19) 0.74717(8)
C25 C 0.05285(12) 0.89351(18) 0.81375(8)
C26 C -0.03515(12) 0.73555(18) 0.66751(9)
C27 C 0.23738(14) 0.4794(2) 0.91177(10)
H29 H 0.3068 0.5401 0.9500
H30 H 0.2643 0.4430 0.8550
H31 H 0.2139 0.3780 0.9443
C28 C 0.08437(14) 0.6571(2) 0.98025(9)
H32 H 0.0493 0.5583 1.0085
H33 H 0.0207 0.7484 0.9687
H34 H 0.1587 0.7003 1.0213
C29 C 0.34608(13) 1.1829(2) 0.69913(10)
H35 H 0.3191 1.2072 0.6363
C30 C 0.28872(12) 1.0516(2) 0.74042(9)
H36 H 0.2217 0.9877 0.7060
O4 O 0.32323(10) 0.83861(17) 0.96075(7)
loop_
_geom_bond_atom_site_label_1
_geom_bond_atom_site_label_2
_geom_bond_site_symmetry_1
_geom_bond_site_symmetry_2
O1 C6 1_555 1_555
O2 C25 1_555 1_555
O3 C26 1_555 1_555
C1 H1 1_555 1_555
H2 C1 1_555 1_555
H3 C1 1_555 1_555
C2 C1 1_555 1_555
C3 C2 1_555 1_555
H4 C3 1_555 1_555
C4 C3 1_555 1_555
H5 C4 1_555 1_555
H6 C4 1_555 1_555
C5 C4 1_555 1_555
C6 C5 1_555 1_555
C7 C6 1_555 1_555
C8 C7 1_555 1_555
C9 C8 1_555 1_555
C10 C9 1_555 1_555
H7 C10 1_555 1_555
C11 C10 1_555 1_555
H8 C11 1_555 1_555
C12 C11 1_555 1_555
H9 C12 1_555 1_555
C13 C2 1_555 1_555
H10 C13 1_555 1_555
H11 C13 1_555 1_555
H12 C13 1_555 1_555
C14 C7 1_555 1_555
C15 C14 1_555 1_555
H13 C15 1_555 1_555
C16 C5 1_555 1_555
H14 C16 1_555 1_555
H15 C16 1_555 1_555
C17 C15 1_555 1_555
H16 C17 1_555 1_555
H17 C17 1_555 1_555
C18 C17 1_555 1_555
H18 C18 1_555 1_555
C19 C18 1_555 1_555
C20 C19 1_555 1_555
H19 C20 1_555 1_555
H20 C20 1_555 1_555
H21 C20 1_555 1_555
C21 C19 1_555 1_555
H22 C21 1_555 1_555
H23 C21 1_555 1_555
H24 C21 1_555 1_555
C22 C19 1_555 1_555
H25 C22 1_555 1_555
H26 C22 1_555 1_555
C23 C22 1_555 1_555
H27 C23 1_555 1_555
H28 C23 1_555 1_555
C24 C18 1_555 1_555
C25 C7 1_555 1_555
C26 C5 1_555 1_555
C27 C14 1_555 1_555
H29 C27 1_555 1_555
H30 C27 1_555 1_555
H31 C27 1_555 1_555
C28 C14 1_555 1_555
H32 C28 1_555 1_555
H33 C28 1_555 1_555
H34 C28 1_555 1_555
C29 C12 1_555 1_555
H35 C29 1_555 1_555
C30 C9 1_555 1_555
H36 C30 1_555 1_555
O4 C8 1_555 1_555
C15 C16 1_555 1_555
C23 C24 1_555 1_555
C24 C25 1_555 1_555
C24 C26 1_555 1_555
C29 C30 1_555 1_555

#END
