
#######################################################################
#
#                 Cambridge Crystallographic Data Centre
#                                CCDC 
#
#######################################################################
#
# If this CIF has been generated from an entry in the Cambridge 
# Structural Database, then it will include bibliographic, chemical, 
# crystal, experimental, refinement or atomic coordinate data resulting 
# from the CCDC's data processing and validation procedures.
#
#######################################################################

data_TOLGAE
_chemical_formula_moiety         'C15 H22 O4'
_chemical_name_systematic        
6,8-Dihydroxy-3,6,9-trimethyl-3a,4,5,6,6a,7,8,9b-octahydroazuleno[4,5-b]furan-2(3H)-one
_symmetry_cell_setting           orthorhombic
_symmetry_space_group_name_H-M   'P 21 21 21'
_symmetry_Int_Tables_number      19
_space_group_name_Hall           'P 2ac 2ab'
loop_
_symmetry_equiv_pos_site_id
_symmetry_equiv_pos_as_xyz
1 x,y,z
2 1/2+x,1/2-y,-z
3 -x,1/2+y,1/2-z
4 1/2-x,-y,1/2+z
_cell_length_a                   6.3857(2)
_cell_length_b                   12.7024(5)
_cell_length_c                   17.6923(6)
_cell_angle_alpha                90
_cell_angle_beta                 90
_cell_angle_gamma                90
_cell_volume                     1435.09
_exptl_crystal_colour            colorless
_exptl_crystal_description       plate
_cell_formula_units_Z            4
loop_
_atom_site_label
_atom_site_type_symbol
_atom_site_fract_x
_atom_site_fract_y
_atom_site_fract_z
O1 O 0.2925(4) 0.91761(16) 0.51148(11)
H1 H 0.3435 0.8914 0.5510
O2 O 0.4951(3) 0.97911(13) 0.22140(10)
O3 O 0.7064(4) 1.00410(16) 0.12283(12)
O4 O -0.0347(3) 0.63669(15) 0.34761(11)
H2 H 0.0670 0.5951 0.3515
C1 C 0.2422(4) 0.76736(19) 0.33761(13)
H3 H 0.3544 0.7186 0.3194
C2 C 0.2469(5) 0.7686(2) 0.42460(14)
H4 H 0.1031 0.7738 0.4451
H5 H 0.3125 0.7034 0.4442
C3 C 0.3755(4) 0.8647(2) 0.44718(14)
H6 H 0.5232 0.8429 0.4576
C4 C 0.3696(4) 0.9338(2) 0.37806(15)
C5 C 0.3056(4) 0.87973(19) 0.31772(14)
C6 C 0.3053(4) 0.91667(19) 0.23708(14)
H7 H 0.1794 0.9620 0.2286
C7 C 0.3099(4) 0.8307(2) 0.17696(14)
H8 H 0.4145 0.7763 0.1925
C8 C 0.1016(4) 0.7768(2) 0.16329(15)
H9 H 0.1049 0.7429 0.1129
H10 H -0.0101 0.8308 0.1625
C9 C 0.0455(5) 0.6931(2) 0.22285(16)
H11 H -0.0903 0.6614 0.2084
H12 H 0.1522 0.6367 0.2202
C10 C 0.0291(4) 0.7289(2) 0.30551(15)
C11 C 0.3994(5) 0.8922(2) 0.10999(15)
H13 H 0.2848 0.9356 0.0874
C12 C 0.5507(5) 0.9642(2) 0.14861(15)
C13 C 0.5023(6) 0.8284(2) 0.04732(16)
H14 H 0.5583 0.8762 0.0088
H15 H 0.3983 0.7816 0.0242
H16 H 0.6166 0.7863 0.0685
C14 C -0.1463(5) 0.8085(3) 0.31626(19)
H17 H -0.2804 0.7761 0.3027
H18 H -0.1210 0.8697 0.2838
H19 H -0.1504 0.8310 0.3692
C15 C 0.4475(5) 1.0443(2) 0.38364(17)
H20 H 0.5979 1.0438 0.3947
H21 H 0.3729 1.0809 0.4243
H22 H 0.4227 1.0808 0.3356
loop_
_geom_bond_atom_site_label_1
_geom_bond_atom_site_label_2
_geom_bond_site_symmetry_1
_geom_bond_site_symmetry_2
O1 H1 1_555 1_555
O2 C6 1_555 1_555
O3 C12 1_555 1_555
O4 H2 1_555 1_555
C1 H3 1_555 1_555
C2 C1 1_555 1_555
H4 C2 1_555 1_555
H5 C2 1_555 1_555
C3 O1 1_555 1_555
H6 C3 1_555 1_555
C4 C3 1_555 1_555
C5 C1 1_555 1_555
C6 C5 1_555 1_555
H7 C6 1_555 1_555
C7 C6 1_555 1_555
H8 C7 1_555 1_555
C8 C7 1_555 1_555
H9 C8 1_555 1_555
H10 C8 1_555 1_555
C9 C8 1_555 1_555
H11 C9 1_555 1_555
H12 C9 1_555 1_555
C10 O4 1_555 1_555
C11 C7 1_555 1_555
H13 C11 1_555 1_555
C12 O2 1_555 1_555
C13 C11 1_555 1_555
H14 C13 1_555 1_555
H15 C13 1_555 1_555
H16 C13 1_555 1_555
C14 C10 1_555 1_555
H17 C14 1_555 1_555
H18 C14 1_555 1_555
H19 C14 1_555 1_555
C15 C4 1_555 1_555
H20 C15 1_555 1_555
H21 C15 1_555 1_555
H22 C15 1_555 1_555
C1 C10 1_555 1_555
C2 C3 1_555 1_555
C4 C5 1_555 1_555
C9 C10 1_555 1_555
C11 C12 1_555 1_555

#END
