
#######################################################################
#
#                 Cambridge Crystallographic Data Centre
#                                CCDC 
#
#######################################################################
#
# If this CIF has been generated from an entry in the Cambridge 
# Structural Database, then it will include bibliographic, chemical, 
# crystal, experimental, refinement or atomic coordinate data resulting 
# from the CCDC's data processing and validation procedures.
#
#######################################################################

data_TOLHUZ
_chemical_formula_moiety         'C32 H30 N1 O8 P1'
_chemical_name_systematic        
'Diethyl (((2-((1-hydroxy-9,10-dioxo-9,10-dihydroanthracen-2-yl)oxy)propanoyl)amino)(1-naphthyl)methyl)phosphonate'
_symmetry_cell_setting           monoclinic
_symmetry_space_group_name_H-M   'P 21/n'
_symmetry_Int_Tables_number      14
_space_group_name_Hall           '-P 2yn'
loop_
_symmetry_equiv_pos_site_id
_symmetry_equiv_pos_as_xyz
1 x,y,z
2 1/2-x,1/2+y,1/2-z
3 -x,-y,-z
4 1/2+x,1/2-y,1/2+z
_cell_length_a                   10.69908(17)
_cell_length_b                   14.7055(2)
_cell_length_c                   18.2843(4)
_cell_angle_alpha                90
_cell_angle_beta                 91.7449(16)
_cell_angle_gamma                90
_cell_volume                     2875.43
_cell_formula_units_Z            4
loop_
_atom_site_label
_atom_site_type_symbol
_atom_site_fract_x
_atom_site_fract_y
_atom_site_fract_z
P1 P 0.61119(11) 0.56136(7) 0.10201(9)
O1 O 0.6111(3) -0.01638(17) 0.07144(16)
H1 H 0.6483 -0.0645 0.0660
O2 O 0.7725(3) -0.12293(17) 0.01639(17)
O3 O 0.9176(4) 0.1367(2) -0.1681(2)
O4 O 0.5090(2) 0.14256(16) 0.07705(16)
O5 O 0.6510(3) 0.26764(18) 0.16117(16)
O6 O 0.6034(5) 0.5893(2) 0.0256(2)
O7 O 0.4738(5) 0.5740(3) 0.1165(4)
O8 O 0.7043(4) 0.6136(2) 0.1512(2)
N1 N 0.5644(3) 0.38083(19) 0.09353(17)
H2 H 0.5059 0.3978 0.0632
C1 C 0.6519(3) 0.0449(2) 0.02351(19)
C2 C 0.7473(3) 0.0276(2) -0.02454(18)
C3 C 0.8099(4) -0.0606(2) -0.0230(2)
C4 C 0.9200(3) -0.0740(2) -0.06804(19)
C5 C 0.9851(4) -0.1562(3) -0.0644(2)
H3 H 0.9569 -0.2028 -0.0347
C6 C 1.0902(4) -0.1689(3) -0.1044(3)
H4 H 1.1322 -0.2242 -0.1022
C7 C 1.1340(4) -0.1003(3) -0.1478(2)
H5 H 1.2066 -0.1087 -0.1736
C8 C 1.0705(4) -0.0192(3) -0.1529(2)
H6 H 1.0999 0.0268 -0.1828
C9 C 0.9622(4) -0.0051(3) -0.11366(19)
C10 C 0.8902(4) 0.0811(3) -0.1219(2)
C11 C 0.7859(4) 0.0963(2) -0.07298(18)
C12 C 0.7263(4) 0.1793(3) -0.0723(2)
H7 H 0.7498 0.2243 -0.1049
C13 C 0.6324(4) 0.1970(2) -0.0241(2)
H8 H 0.5932 0.2534 -0.0249
C14 C 0.5963(3) 0.1320(2) 0.0252(2)
C15 C 0.4633(3) 0.2327(2) 0.0915(2)
H9 H 0.4211 0.2583 0.0479
C16 C 0.3727(4) 0.2213(3) 0.1525(3)
H10 H 0.3024 0.1858 0.1354
H11 H 0.3444 0.2799 0.1680
H12 H 0.4137 0.1908 0.1930
C17 C 0.5705(3) 0.2943(2) 0.1182(2)
C18 C 0.6602(3) 0.4449(2) 0.1199(2)
H13 H 0.6684 0.4377 0.1731
C19 C 0.7879(3) 0.4276(2) 0.0891(2)
C20 C 0.7966(4) 0.4092(3) 0.0159(2)
H14 H 0.7241 0.4093 -0.0135
C21 C 0.9103(5) 0.3903(3) -0.0157(3)
H15 H 0.9129 0.3779 -0.0655
C22 C 1.0160(5) 0.3902(3) 0.0253(3)
H16 H 1.0916 0.3776 0.0038
C23 C 1.0139(4) 0.4089(3) 0.1012(3)
C24 C 1.1243(5) 0.4088(4) 0.1454(4)
H17 H 1.2006 0.3974 0.1242
C25 C 1.1211(6) 0.4249(5) 0.2177(4)
H18 H 1.1946 0.4220 0.2461
C26 C 1.0102(5) 0.4458(5) 0.2502(3)
H19 H 1.0097 0.4586 0.3000
C27 C 0.9017(4) 0.4477(3) 0.2099(2)
H20 H 0.8277 0.4618 0.2328
C28 C 0.8982(3) 0.4289(2) 0.1346(2)
C29 C 0.4302(10) 0.5529(6) 0.1818(4)
H21 H 0.4996 0.5436 0.2164
H22 H 0.3830 0.4967 0.1783
C30 C 0.3470(9) 0.6280(6) 0.2091(5)
H23 H 0.2737 0.6326 0.1778
H24 H 0.3917 0.6846 0.2089
H25 H 0.3229 0.6144 0.2581
C31 C 0.7485(8) 0.7022(5) 0.1382(5)
H26 H 0.6984 0.7426 0.1113
C32 C 0.8527(14) 0.7276(10) 0.1618(6)
H27 H 0.8445 0.7848 0.1865
H28 H 0.9078 0.7347 0.1217
H29 H 0.8865 0.6832 0.1953
C33? C 0.5115(12) 0.5691(9) 0.1774(6)
H30? H 0.4944 0.5139 0.2044
H31? H 0.5142 0.6243 0.2063
H32? H 0.8123 0.7112 0.1056
C34? C 0.7021(19) 0.7692(13) 0.1705(8)
H33? H 0.6222 0.7838 0.1481
H34? H 0.7569 0.8206 0.1669
H35? H 0.6918 0.7544 0.2211
loop_
_geom_bond_atom_site_label_1
_geom_bond_atom_site_label_2
_geom_bond_site_symmetry_1
_geom_bond_site_symmetry_2
P1 O6 1_555 1_555
O1 H1 1_555 1_555
O2 C3 1_555 1_555
O3 C10 1_555 1_555
O4 C14 1_555 1_555
O5 C17 1_555 1_555
O7 P1 1_555 1_555
O8 P1 1_555 1_555
N1 H2 1_555 1_555
C1 O1 1_555 1_555
C2 C1 1_555 1_555
C3 C2 1_555 1_555
C4 C3 1_555 1_555
C5 C4 1_555 1_555
H3 C5 1_555 1_555
C6 C5 1_555 1_555
H4 C6 1_555 1_555
C7 C6 1_555 1_555
H5 C7 1_555 1_555
C8 C7 1_555 1_555
H6 C8 1_555 1_555
C9 C4 1_555 1_555
C10 C9 1_555 1_555
C11 C2 1_555 1_555
C12 C11 1_555 1_555
H7 C12 1_555 1_555
C13 C12 1_555 1_555
H8 C13 1_555 1_555
C14 C1 1_555 1_555
C15 O4 1_555 1_555
H9 C15 1_555 1_555
C16 C15 1_555 1_555
H10 C16 1_555 1_555
H11 C16 1_555 1_555
H12 C16 1_555 1_555
C17 N1 1_555 1_555
C18 P1 1_555 1_555
H13 C18 1_555 1_555
C19 C18 1_555 1_555
C20 C19 1_555 1_555
H14 C20 1_555 1_555
C21 C20 1_555 1_555
H15 C21 1_555 1_555
C22 C21 1_555 1_555
H16 C22 1_555 1_555
C23 C22 1_555 1_555
C24 C23 1_555 1_555
H17 C24 1_555 1_555
C25 C24 1_555 1_555
H18 C25 1_555 1_555
C26 C25 1_555 1_555
H19 C26 1_555 1_555
C27 C26 1_555 1_555
H20 C27 1_555 1_555
C28 C19 1_555 1_555
C29 O7 1_555 1_555
H21 C29 1_555 1_555
H22 C29 1_555 1_555
C30 C29 1_555 1_555
H23 C30 1_555 1_555
H24 C30 1_555 1_555
H25 C30 1_555 1_555
C31 O8 1_555 1_555
H26 C31 1_555 1_555
C32 C31 1_555 1_555
H27 C32 1_555 1_555
H28 C32 1_555 1_555
H29 C32 1_555 1_555
N1 C18 1_555 1_555
C8 C9 1_555 1_555
C10 C11 1_555 1_555
C13 C14 1_555 1_555
C15 C17 1_555 1_555
C23 C28 1_555 1_555
C27 C28 1_555 1_555

#END
