
#######################################################################
#
#                 Cambridge Crystallographic Data Centre
#                                CCDC 
#
#######################################################################
#
# If this CIF has been generated from an entry in the Cambridge 
# Structural Database, then it will include bibliographic, chemical, 
# crystal, experimental, refinement or atomic coordinate data resulting 
# from the CCDC's data processing and validation procedures.
#
#######################################################################

data_TOLJIP
_chemical_formula_moiety         'C24 H22 N6 O2'
_chemical_name_systematic        
(Diazene-1,2-diyldi-4,1-phenylene)bis((3,5-dimethyl-1H-pyrazol-1-yl)methanone)
_symmetry_cell_setting           monoclinic
_symmetry_space_group_name_H-M   'P 21/n'
_symmetry_Int_Tables_number      14
_space_group_name_Hall           '-P 2yn'
loop_
_symmetry_equiv_pos_site_id
_symmetry_equiv_pos_as_xyz
1 x,y,z
2 1/2-x,1/2+y,1/2-z
3 -x,-y,-z
4 1/2+x,1/2-y,1/2+z
_cell_length_a                   3.8560(3)
_cell_length_b                   20.0439(17)
_cell_length_c                   26.915(2)
_cell_angle_alpha                90
_cell_angle_beta                 91.782(4)
_cell_angle_gamma                90
_cell_volume                     2079.23
_exptl_crystal_colour            colorless
_exptl_crystal_description       Prism
_cell_formula_units_Z            4
loop_
_atom_site_label
_atom_site_type_symbol
_atom_site_fract_x
_atom_site_fract_y
_atom_site_fract_z
O1 O 0.5377(5) 0.85944(8) -0.12011(6)
O2 O 0.9516(5) 1.00507(8) 0.35685(6)
N1 N 0.7584(5) 0.70794(9) -0.06266(7)
N2 N 0.5963(5) 0.75145(9) -0.09659(7)
N3 N 0.6026(5) 0.90999(9) 0.11452(7)
N4 N 0.7571(5) 0.96418(10) 0.12346(7)
N5 N 0.7402(5) 1.10855(9) 0.34155(7)
N6 N 0.5805(5) 1.15287(9) 0.30827(7)
C1 C 0.9179(7) 0.58959(12) -0.06226(9)
H1 H 1.0523 0.6028 -0.0324
H2 H 1.0709 0.5673 -0.0855
H3 H 0.7327 0.5589 -0.0531
C2 C 0.7621(6) 0.65015(11) -0.08647(9)
C3 C 0.6017(6) 0.65524(12) -0.13450(8)
H4 H 0.5711 0.6202 -0.1580
C4 C 0.5004(6) 0.71958(12) -0.14060(8)
C5 C 0.3147(7) 0.75355(13) -0.18326(8)
H5 H 0.4751 0.7837 -0.1997
H6 H 0.1191 0.7792 -0.1709
H7 H 0.2285 0.7200 -0.2071
C6 C 0.5723(6) 0.81986(11) -0.08604(9)
C7 C 0.5831(6) 0.84165(11) -0.03313(8)
C8 C 0.4439(6) 0.80376(11) 0.00478(9)
H8 H 0.3469 0.7610 -0.0020
C9 C 0.4492(6) 0.82948(11) 0.05271(9)
H9 H 0.3497 0.8046 0.0787
C10 C 0.5983(6) 0.89117(11) 0.06313(8)
C11 C 0.7294(6) 0.92979(11) 0.02488(8)
H10 H 0.8249 0.9726 0.0317
C12 C 0.7185(6) 0.90492(11) -0.02307(8)
H11 H 0.8040 0.9312 -0.0494
C13 C 0.7637(6) 0.98247(11) 0.17506(9)
C14 C 0.6322(6) 0.94274(11) 0.21264(8)
H12 H 0.5276 0.9009 0.2050
C15 C 0.6565(6) 0.96519(11) 0.26116(9)
H13 H 0.5736 0.9380 0.2872
C16 C 0.8019(6) 1.02758(11) 0.27242(8)
C17 C 0.9318(6) 1.06691(11) 0.23470(8)
H14 H 1.0300 1.1094 0.2421
C18 C 0.9169(6) 1.04367(11) 0.18614(9)
H15 H 1.0118 1.0697 0.1604
C19 C 0.8402(6) 1.04497(12) 0.32606(9)
C20 C 0.9236(7) 1.10035(12) 0.43374(9)
H16 H 0.9245 1.1306 0.4624
H17 H 1.1620 1.0868 0.4271
H18 H 0.7847 1.0608 0.4410
C21 C 0.7701(6) 1.13534(11) 0.38907(8)
C22 C 0.6272(6) 1.19698(12) 0.38566(9)
H19 H 0.6069 1.2282 0.4120
C23 C 0.5135(6) 1.20620(11) 0.33540(9)
C24 C 0.3454(7) 1.26638(12) 0.31230(9)
H20 H 0.5162 1.3024 0.3103
H21 H 0.1529 1.2809 0.3326
H22 H 0.2568 1.2553 0.2788
loop_
_geom_bond_atom_site_label_1
_geom_bond_atom_site_label_2
_geom_bond_site_symmetry_1
_geom_bond_site_symmetry_2
O1 C6 1_555 1_555
O2 C19 1_555 1_555
N1 N2 1_555 1_555
N2 C4 1_555 1_555
N3 N4 1_555 1_555
N4 C13 1_555 1_555
N5 N6 1_555 1_555
N6 C23 1_555 1_555
C1 H1 1_555 1_555
H2 C1 1_555 1_555
H3 C1 1_555 1_555
C2 N1 1_555 1_555
C3 C2 1_555 1_555
H4 C3 1_555 1_555
C4 C3 1_555 1_555
C5 C4 1_555 1_555
H5 C5 1_555 1_555
H6 C5 1_555 1_555
H7 C5 1_555 1_555
C6 N2 1_555 1_555
C7 C6 1_555 1_555
C8 C7 1_555 1_555
H8 C8 1_555 1_555
C9 C8 1_555 1_555
H9 C9 1_555 1_555
C10 N3 1_555 1_555
C11 C10 1_555 1_555
H10 C11 1_555 1_555
C12 C7 1_555 1_555
H11 C12 1_555 1_555
C13 C14 1_555 1_555
C14 H12 1_555 1_555
C15 C14 1_555 1_555
H13 C15 1_555 1_555
C16 C15 1_555 1_555
C17 C16 1_555 1_555
H14 C17 1_555 1_555
C18 C13 1_555 1_555
H15 C18 1_555 1_555
C19 N5 1_555 1_555
C20 H16 1_555 1_555
H17 C20 1_555 1_555
H18 C20 1_555 1_555
C21 N5 1_555 1_555
C22 C21 1_555 1_555
H19 C22 1_555 1_555
C23 C22 1_555 1_555
C24 C23 1_555 1_555
H20 C24 1_555 1_555
H21 C24 1_555 1_555
H22 C24 1_555 1_555
C1 C2 1_555 1_555
C9 C10 1_555 1_555
C11 C12 1_555 1_555
C16 C19 1_555 1_555
C17 C18 1_555 1_555
C20 C21 1_555 1_555

#END
