
#######################################################################
#
#                 Cambridge Crystallographic Data Centre
#                                CCDC 
#
#######################################################################
#
# If this CIF has been generated from an entry in the Cambridge 
# Structural Database, then it will include bibliographic, chemical, 
# crystal, experimental, refinement or atomic coordinate data resulting 
# from the CCDC's data processing and validation procedures.
#
#######################################################################

data_TOLKOW
_chemical_formula_moiety         'C13 H14 N2 O4'
_chemical_name_systematic        
'Methyl 9-methyl-11-oxo-8-oxa-10,12-diazatricyclo[7.3.1.0^2,7^]trideca-2,4,6-triene-13-carboxylate'
_symmetry_cell_setting           triclinic
_symmetry_space_group_name_H-M   'P -1'
_symmetry_Int_Tables_number      2
_space_group_name_Hall           '-P 1'
loop_
_symmetry_equiv_pos_site_id
_symmetry_equiv_pos_as_xyz
1 x,y,z
2 -x,-y,-z
_cell_length_a                   10.818(4)
_cell_length_b                   11.168(4)
_cell_length_c                   11.406(4)
_cell_angle_alpha                79.525(5)
_cell_angle_beta                 76.478(5)
_cell_angle_gamma                71.740(5)
_cell_volume                     1263.53
_exptl_crystal_colour            colorless
_exptl_crystal_description       plane
_cell_formula_units_Z            4
loop_
_atom_site_label
_atom_site_type_symbol
_atom_site_fract_x
_atom_site_fract_y
_atom_site_fract_z
O1 O 0.52693(14) 0.62057(14) 0.87457(13)
C1 C 0.1364(2) 0.6119(2) 0.9617(2)
C2 C 0.0829(2) 0.5955(3) 1.0841(2)
H1 H 0.1103 0.5169 1.1290
C3 C -0.0100(3) 0.6936(4) 1.1401(3)
H2 H -0.0447 0.6816 1.2226
C4 C -0.0515(3) 0.8093(3) 1.0741(3)
H3 H -0.1148 0.8754 1.1123
C5 C -0.0006(2) 0.8288(3) 0.9517(3)
H4 H -0.0288 0.9076 0.9075
C6 C 0.0929(2) 0.7295(2) 0.8957(2)
C7 C 0.2450(2) 0.5081(2) 0.90084(19)
H5 H 0.2310 0.4254 0.9357
C8 C 0.24483(19) 0.52868(18) 0.76480(18)
H6 H 0.1591 0.5256 0.7529
C9 C 0.25806(19) 0.66211(19) 0.72039(19)
C10 C 0.2693(2) 0.6997(2) 0.5854(2)
H7 H 0.2762 0.7849 0.5658
H8 H 0.1920 0.6951 0.5608
H9 H 0.3468 0.6430 0.5436
C11 C 0.3527(2) 0.4245(2) 0.7032(2)
C12 C 0.4136(3) 0.2061(3) 0.6822(3)
H10 H 0.4332 0.2200 0.5952
H11 H 0.3784 0.1346 0.7074
H12 H 0.4933 0.1895 0.7133
C13 C 0.42713(19) 0.60314(19) 0.85141(18)
N1 N 0.36824(16) 0.67712(16) 0.76086(15)
H13 H 0.3994 0.7388 0.7240
N2 N 0.37524(16) 0.51028(16) 0.91354(15)
O2 O 0.45634(17) 0.43219(16) 0.64293(17)
O3 O 0.31716(16) 0.31770(15) 0.72874(18)
O4 O 0.13693(14) 0.75248(13) 0.77275(14)
H14 H 0.4044 0.4687 0.9775
C14 C 0.6741(2) 1.0020(3) 0.9287(2)
H15 H 0.6446 0.9440 0.9894
C15 C 0.6668(3) 1.1193(3) 0.9557(3)
H16 H 0.6332 1.1402 1.0345
C16 C 0.7093(3) 1.2059(3) 0.8660(3)
H17 H 0.7046 1.2851 0.8846
C17 C 0.7587(2) 1.1765(2) 0.7493(3)
H18 H 0.7876 1.2352 0.6889
C18 C 0.7650(2) 1.0587(2) 0.7228(2)
C19 C 0.72500(19) 0.9691(2) 0.8118(2)
C20 C 0.7339(2) 0.8408(2) 0.78049(19)
H19 H 0.7605 0.7756 0.8472
C21 C 0.83842(19) 0.81362(19) 0.66483(19)
H20 H 0.9220 0.8184 0.6805
C22 C 0.8618(2) 0.6824(2) 0.6330(2)
C23 C 0.7694(3) 0.5414(3) 0.5757(3)
H21 H 0.8377 0.5135 0.5077
H22 H 0.6856 0.5413 0.5612
H23 H 0.7886 0.4852 0.6477
C24 C 0.79194(19) 0.92609(19) 0.57027(19)
C25 C 0.8705(2) 0.9123(2) 0.4433(2)
H24 H 0.8624 0.8392 0.4160
H25 H 0.9620 0.9021 0.4429
H26 H 0.8370 0.9868 0.3902
C26 C 0.56846(19) 0.89388(18) 0.65489(18)
N3 N 0.65219(15) 0.94918(15) 0.57234(15)
H27 H 0.6193 1.0032 0.5157
N4 N 0.60665(16) 0.83847(16) 0.76043(15)
O5 O 0.46006(13) 0.89515(13) 0.63396(13)
O6 O 0.76402(17) 0.66826(15) 0.59169(18)
O7 O 0.95658(18) 0.59660(16) 0.64994(19)
O8 O 0.81480(14) 1.03493(13) 0.60362(13)
H28 H 0.5744 0.7729 0.8032
loop_
_geom_bond_atom_site_label_1
_geom_bond_atom_site_label_2
_geom_bond_site_symmetry_1
_geom_bond_site_symmetry_2
O1 C13 1_555 1_555
C1 C2 1_555 1_555
C2 H1 1_555 1_555
C3 C2 1_555 1_555
H2 C3 1_555 1_555
C4 C3 1_555 1_555
H3 C4 1_555 1_555
C5 C4 1_555 1_555
H4 C5 1_555 1_555
C6 C1 1_555 1_555
C7 C1 1_555 1_555
H5 C7 1_555 1_555
C8 C7 1_555 1_555
H6 C8 1_555 1_555
C9 C8 1_555 1_555
C10 C9 1_555 1_555
H7 C10 1_555 1_555
H8 C10 1_555 1_555
H9 C10 1_555 1_555
C11 C8 1_555 1_555
C12 H10 1_555 1_555
H11 C12 1_555 1_555
H12 C12 1_555 1_555
C13 N1 1_555 1_555
N1 C9 1_555 1_555
H13 N1 1_555 1_555
N2 C7 1_555 1_555
O2 C11 1_555 1_555
O3 C11 1_555 1_555
O4 C6 1_555 1_555
H14 N2 1_555 1_555
C14 H15 1_555 1_555
C15 C14 1_555 1_555
H16 C15 1_555 1_555
C16 C15 1_555 1_555
H17 C16 1_555 1_555
C17 C16 1_555 1_555
H18 C17 1_555 1_555
C18 C17 1_555 1_555
C19 C14 1_555 1_555
C20 C19 1_555 1_555
H19 C20 1_555 1_555
C21 C20 1_555 1_555
H20 C21 1_555 1_555
C22 C21 1_555 1_555
C23 H21 1_555 1_555
H22 C23 1_555 1_555
H23 C23 1_555 1_555
C24 C21 1_555 1_555
C25 C24 1_555 1_555
H24 C25 1_555 1_555
H25 C25 1_555 1_555
H26 C25 1_555 1_555
C26 N3 1_555 1_555
N3 C24 1_555 1_555
H27 N3 1_555 1_555
N4 C20 1_555 1_555
O5 C26 1_555 1_555
O6 C22 1_555 1_555
O7 C22 1_555 1_555
O8 C18 1_555 1_555
H28 N4 1_555 1_555
C5 C6 1_555 1_555
C9 O4 1_555 1_555
C12 O3 1_555 1_555
C13 N2 1_555 1_555
C18 C19 1_555 1_555
C23 O6 1_555 1_555
C24 O8 1_555 1_555
C26 N4 1_555 1_555

#END
