
#######################################################################
#
#                 Cambridge Crystallographic Data Centre
#                                CCDC 
#
#######################################################################
#
# If this CIF has been generated from an entry in the Cambridge 
# Structural Database, then it will include bibliographic, chemical, 
# crystal, experimental, refinement or atomic coordinate data resulting 
# from the CCDC's data processing and validation procedures.
#
#######################################################################

data_TOLLAJ
_chemical_formula_moiety         'C19 H18 N2 O4'
_chemical_name_systematic        
'Ethyl 4-(2-hydroxyphenyl)-6-phenyl-2-oxo-1,2,3,4-tetrahydropyrimidine-5-carboxylate'
_symmetry_cell_setting           triclinic
_symmetry_space_group_name_H-M   'P -1'
_symmetry_Int_Tables_number      2
_space_group_name_Hall           '-P 1'
loop_
_symmetry_equiv_pos_site_id
_symmetry_equiv_pos_as_xyz
1 x,y,z
2 -x,-y,-z
_cell_length_a                   8.639(3)
_cell_length_b                   9.530(3)
_cell_length_c                   10.854(4)
_cell_angle_alpha                95.704(5)
_cell_angle_beta                 105.890(4)
_cell_angle_gamma                96.586(5)
_cell_volume                     845.752
_exptl_crystal_colour            colorless
_exptl_crystal_description       plane
_cell_formula_units_Z            2
loop_
_atom_site_label
_atom_site_type_symbol
_atom_site_fract_x
_atom_site_fract_y
_atom_site_fract_z
C1 C 0.5333(3) 0.5878(2) 0.3689(3)
H1 H 0.5900 0.6016 0.4564
C2 C 0.4514(3) 0.6927(3) 0.3148(3)
H2 H 0.4501 0.7759 0.3668
C3 C 0.3723(4) 0.6760(3) 0.1858(3)
H3 H 0.3178 0.7478 0.1503
C4 C 0.3729(4) 0.5533(3) 0.1081(3)
H4 H 0.3202 0.5426 0.0199
C5 C 0.4516(3) 0.4461(3) 0.1609(3)
H5 H 0.4516 0.3630 0.1081
C6 C 0.5309(3) 0.4613(2) 0.2924(2)
C7 C 0.6125(3) 0.3435(2) 0.3482(2)
C8 C 0.8697(3) 0.2992(2) 0.4878(2)
C9 C 0.6528(3) 0.0987(2) 0.3830(2)
H6 H 0.5938 0.0266 0.4186
C10 C 0.5433(3) 0.2081(2) 0.3426(2)
C11 C 0.3688(3) 0.1550(3) 0.3051(2)
C12 C 0.0998(3) 0.2147(3) 0.2474(3)
H7 H 0.0636 0.1855 0.3192
H8 H 0.0679 0.1358 0.1775
C13 C 0.0270(4) 0.3426(3) 0.2033(3)
H9 H 0.0615 0.4203 0.2728
H10 H -0.0896 0.3204 0.1776
H11 H 0.0622 0.3691 0.1311
C14 C 0.7029(3) 0.0222(2) 0.2734(2)
C15 C 0.6718(3) 0.0612(3) 0.1513(3)
H12 H 0.6149 0.1372 0.1324
C16 C 0.7234(4) -0.0106(3) 0.0557(3)
H13 H 0.7030 0.0180 -0.0260
C17 C 0.8048(4) -0.1240(3) 0.0832(3)
H14 H 0.8380 -0.1735 0.0190
C18 C 0.8379(3) -0.1656(3) 0.2035(3)
H15 H 0.8938 -0.2424 0.2211
C19 C 0.7878(3) -0.0930(2) 0.2990(3)
N1 N 0.7788(2) 0.38128(19) 0.40979(19)
H16 H 0.8266 0.4608 0.3978
N2 N 0.7965(2) 0.1679(2) 0.48686(19)
H17 H 0.8353 0.1219 0.5499
O1 O 1.0111(2) 0.34641(16) 0.55500(17)
O2 O 0.2744(2) 0.25631(17) 0.28691(18)
O3 O 0.3146(2) 0.03080(18) 0.2954(2)
O4 O 0.8184(2) -0.12735(17) 0.42142(17)
H18 H 0.8609 -0.2001 0.4254
loop_
_geom_bond_atom_site_label_1
_geom_bond_atom_site_label_2
_geom_bond_site_symmetry_1
_geom_bond_site_symmetry_2
C1 H1 1_555 1_555
C2 C1 1_555 1_555
H2 C2 1_555 1_555
C3 C2 1_555 1_555
H3 C3 1_555 1_555
C4 C3 1_555 1_555
H4 C4 1_555 1_555
C5 C4 1_555 1_555
H5 C5 1_555 1_555
C6 C1 1_555 1_555
C7 C6 1_555 1_555
C8 N1 1_555 1_555
C9 H6 1_555 1_555
C10 C7 1_555 1_555
C11 C10 1_555 1_555
C12 H7 1_555 1_555
H8 C12 1_555 1_555
C13 C12 1_555 1_555
H9 C13 1_555 1_555
H10 C13 1_555 1_555
H11 C13 1_555 1_555
C14 C9 1_555 1_555
C15 C14 1_555 1_555
H12 C15 1_555 1_555
C16 C15 1_555 1_555
H13 C16 1_555 1_555
C17 C16 1_555 1_555
H14 C17 1_555 1_555
C18 C17 1_555 1_555
H15 C18 1_555 1_555
C19 C14 1_555 1_555
N1 C7 1_555 1_555
H16 N1 1_555 1_555
N2 C8 1_555 1_555
H17 N2 1_555 1_555
O1 C8 1_555 1_555
O2 C11 1_555 1_555
O3 C11 1_555 1_555
O4 C19 1_555 1_555
H18 O4 1_555 1_555
C5 C6 1_555 1_555
C9 C10 1_555 1_555
C9 N2 1_555 1_555
C12 O2 1_555 1_555
C18 C19 1_555 1_555

#END
