
#######################################################################
#
#                 Cambridge Crystallographic Data Centre
#                                CCDC 
#
#######################################################################
#
# If this CIF has been generated from an entry in the Cambridge 
# Structural Database, then it will include bibliographic, chemical, 
# crystal, experimental, refinement or atomic coordinate data resulting 
# from the CCDC's data processing and validation procedures.
#
#######################################################################

data_TOLLUC
_chemical_formula_moiety         'C27 H26 N6 O7'
_chemical_name_systematic        
"Diethyl 6,8,14-trioxo-5,15-dihydro-8H-5a,6a,7a,12b,13a,14a-hexaazabenzo(a)benzo(5',6')cyclohepta(1',2',3':3,4)pentaleno(1,6-fg)azulene-14b,14c-dicarboxylate"
_symmetry_cell_setting           monoclinic
_symmetry_space_group_name_H-M   'P 21/c'
_symmetry_Int_Tables_number      14
_space_group_name_Hall           '-P 2ybc'
loop_
_symmetry_equiv_pos_site_id
_symmetry_equiv_pos_as_xyz
1 x,y,z
2 -x,1/2+y,1/2-z
3 -x,-y,-z
4 x,1/2-y,1/2+z
_cell_length_a                   8.8129(6)
_cell_length_b                   17.9883(13)
_cell_length_c                   16.2623(11)
_cell_angle_alpha                90
_cell_angle_beta                 98.770(2)
_cell_angle_gamma                90
_cell_volume                     2547.91
_exptl_crystal_colour            colorless
_exptl_crystal_description       plate
_cell_formula_units_Z            4
_exptl_crystal_recrystallization_method chloroform/methanol
_exptl_crystal_preparation       fluorescent
loop_
_atom_site_label
_atom_site_type_symbol
_atom_site_fract_x
_atom_site_fract_y
_atom_site_fract_z
C1 C 0.1374(4) 0.43204(19) 0.4565(2)
C2 C 0.2376(4) 0.3975(2) 0.5181(2)
H1 H 0.3161 0.4236 0.5505
C3 C 0.2161(5) 0.3221(2) 0.5294(2)
H2 H 0.2805 0.2974 0.5713
C4 C 0.1007(5) 0.2822(2) 0.4801(2)
H3 H 0.0907 0.2315 0.4891
C5 C 0.0021(4) 0.31648(19) 0.4186(2)
H4 H -0.0756 0.2902 0.3858
C6 C 0.0226(4) 0.39248(18) 0.4070(2)
C7 C -0.0594(4) 0.44323(19) 0.3482(2)
C8 C -0.0277(4) 0.57935(17) 0.3207(2)
H5 H -0.1222 0.5724 0.2823
H6 H -0.0453 0.6179 0.3599
C9 C 0.2477(3) 0.56151(16) 0.44978(18)
H7 H 0.2049 0.6054 0.4722
H8 H 0.3283 0.5429 0.4921
C10 C 0.4150(4) 0.53622(18) 0.34443(19)
C11 C 0.0867(4) 0.59348(17) 0.1910(2)
C12 C 0.2353(3) 0.63189(15) 0.31597(18)
C13 C 0.2215(4) 0.71091(18) 0.3517(2)
C14 C 0.0687(5) 0.81892(18) 0.3484(2)
H9 H 0.1397 0.8528 0.3277
H10 H 0.0853 0.8212 0.4087
C15 C -0.0942(5) 0.8399(2) 0.3147(3)
H11 H -0.1112 0.8341 0.2553
H12 H -0.1120 0.8907 0.3285
H13 H -0.1634 0.8082 0.3387
C16 C 0.3363(3) 0.62715(16) 0.24459(18)
C17 C 0.4426(4) 0.69463(19) 0.2391(2)
C18 C 0.4599(4) 0.81457(17) 0.1815(2)
H14 H 0.3946 0.8581 0.1721
H15 H 0.5377 0.8241 0.2293
C19 C 0.5337(6) 0.8003(2) 0.1077(3)
H16 H 0.6093 0.7619 0.1201
H17 H 0.5823 0.8450 0.0926
H18 H 0.4576 0.7848 0.0623
C20 C 0.5274(3) 0.53039(18) 0.21234(19)
H19 H 0.6003 0.4972 0.2446
H20 H 0.5853 0.5706 0.1922
C21 C 0.2707(4) 0.59842(17) 0.09080(18)
H21 H 0.3533 0.6315 0.0814
H22 H 0.1848 0.6077 0.0471
C22 C 0.4439(3) 0.48791(18) 0.13785(18)
C23 C 0.3236(4) 0.51921(17) 0.08264(19)
C24 C 0.2575(4) 0.47770(19) 0.0148(2)
H23 H 0.1759 0.4976 -0.0215
C25 C 0.3096(4) 0.40782(19) 0.0000(2)
H24 H 0.2647 0.3815 -0.0468
C26 C 0.4257(4) 0.37697(19) 0.0529(2)
H25 H 0.4599 0.3293 0.0433
C27 C 0.4935(4) 0.41732(18) 0.1218(2)
H26 H 0.5741 0.3963 0.1578
N1 N 0.0112(3) 0.51066(15) 0.36545(17)
N2 N 0.1279(3) 0.50552(15) 0.43471(16)
N3 N 0.3160(3) 0.58333(13) 0.37852(14)
N4 N 0.0906(3) 0.60307(13) 0.27541(16)
N5 N 0.4269(3) 0.56131(13) 0.26677(15)
N6 N 0.2236(3) 0.61787(13) 0.17106(15)
O1 O -0.1694(3) 0.43435(12) 0.29142(16)
O2 O 0.4822(2) 0.48358(12) 0.37987(13)
O3 O -0.0203(3) 0.56833(13) 0.14376(14)
O4 O 0.3214(3) 0.73740(13) 0.39959(16)
O5 O 0.0928(3) 0.74296(12) 0.32030(14)
O6 O 0.5745(3) 0.69432(13) 0.26920(16)
O7 O 0.3675(2) 0.74952(12) 0.19783(14)
loop_
_geom_bond_atom_site_label_1
_geom_bond_atom_site_label_2
_geom_bond_site_symmetry_1
_geom_bond_site_symmetry_2
C1 C2 1_555 1_555
C2 H1 1_555 1_555
C3 C2 1_555 1_555
H2 C3 1_555 1_555
C4 C3 1_555 1_555
H3 C4 1_555 1_555
C5 C4 1_555 1_555
H4 C5 1_555 1_555
C6 C1 1_555 1_555
C7 C6 1_555 1_555
C8 H5 1_555 1_555
H6 C8 1_555 1_555
C9 H7 1_555 1_555
H8 C9 1_555 1_555
C10 N3 1_555 1_555
C11 N4 1_555 1_555
C12 C13 1_555 1_555
C13 O4 1_555 1_555
C14 H9 1_555 1_555
H10 C14 1_555 1_555
C15 C14 1_555 1_555
H11 C15 1_555 1_555
H12 C15 1_555 1_555
H13 C15 1_555 1_555
C16 C12 1_555 1_555
C17 C16 1_555 1_555
C18 H14 1_555 1_555
H15 C18 1_555 1_555
C19 C18 1_555 1_555
H16 C19 1_555 1_555
H17 C19 1_555 1_555
H18 C19 1_555 1_555
C20 H19 1_555 1_555
H20 C20 1_555 1_555
C21 H21 1_555 1_555
H22 C21 1_555 1_555
C22 C20 1_555 1_555
C23 C21 1_555 1_555
C24 C23 1_555 1_555
H23 C24 1_555 1_555
C25 C24 1_555 1_555
H24 C25 1_555 1_555
C26 C25 1_555 1_555
H25 C26 1_555 1_555
C27 C22 1_555 1_555
H26 C27 1_555 1_555
N1 C7 1_555 1_555
N2 C1 1_555 1_555
N3 C9 1_555 1_555
N4 C8 1_555 1_555
N5 C10 1_555 1_555
N6 C11 1_555 1_555
O1 C7 1_555 1_555
O2 C10 1_555 1_555
O3 C11 1_555 1_555
O5 C13 1_555 1_555
O6 C17 1_555 1_555
O7 C17 1_555 1_555
C5 C6 1_555 1_555
C8 N1 1_555 1_555
C9 N2 1_555 1_555
C12 N3 1_555 1_555
C12 N4 1_555 1_555
C14 O5 1_555 1_555
C16 N5 1_555 1_555
C16 N6 1_555 1_555
C18 O7 1_555 1_555
C20 N5 1_555 1_555
C21 N6 1_555 1_555
C22 C23 1_555 1_555
C26 C27 1_555 1_555
N1 N2 1_555 1_555

#END
