
#######################################################################
#
#                 Cambridge Crystallographic Data Centre
#                                CCDC 
#
#######################################################################
#
# If this CIF has been generated from an entry in the Cambridge 
# Structural Database, then it will include bibliographic, chemical, 
# crystal, experimental, refinement or atomic coordinate data resulting 
# from the CCDC's data processing and validation procedures.
#
#######################################################################

data_TOLMOX
_chemical_formula_moiety         'C13 H13 N3 O1'
_chemical_name_systematic        (Z,E)-1-Benzyl-3-(2-pyridinyl)urea
_symmetry_cell_setting           monoclinic
_symmetry_space_group_name_H-M   'P 21/n'
_symmetry_Int_Tables_number      14
_space_group_name_Hall           '-P 2yn'
loop_
_symmetry_equiv_pos_site_id
_symmetry_equiv_pos_as_xyz
1 x,y,z
2 1/2-x,1/2+y,1/2-z
3 -x,-y,-z
4 1/2+x,1/2-y,1/2+z
_cell_length_a                   13.993(3)
_cell_length_b                   5.5808(13)
_cell_length_c                   14.913(4)
_cell_angle_alpha                90
_cell_angle_beta                 95.532(4)
_cell_angle_gamma                90
_cell_volume                     1159.16
_exptl_crystal_colour            colorless
_exptl_crystal_description       block
_cell_formula_units_Z            4
_exptl_crystal_recrystallization_method 'ethyl acetate'
loop_
_atom_site_label
_atom_site_type_symbol
_atom_site_fract_x
_atom_site_fract_y
_atom_site_fract_z
N1 N 0.24243(9) 0.3773(3) 0.43932(9)
N2 N 0.38268(10) 0.1540(3) 0.47896(9)
H1 H 0.4193(12) 0.033(3) 0.4627(11)
N3 N 0.37843(11) 0.4800(3) 0.57536(9)
H2 H 0.3236(11) 0.518(3) 0.5435(11)
O1 O 0.50502(8) 0.2262(2) 0.58559(8)
C1 C 0.29580(11) 0.1848(3) 0.42649(10)
C2 C 0.26871(13) 0.0109(3) 0.36225(11)
H3 H 0.3076 -0.1214 0.3549
C3 C 0.18371(13) 0.0387(4) 0.31015(12)
H4 H 0.1643 -0.0745 0.2664
C4 C 0.12676(13) 0.2350(4) 0.32269(12)
H5 H 0.0684 0.2566 0.2882
C5 C 0.15869(12) 0.3959(4) 0.38709(12)
H6 H 0.1201 0.5279 0.3957
C6 C 0.42568(12) 0.2890(3) 0.54896(10)
C7 C 0.41877(12) 0.6349(3) 0.64650(11)
H7 H 0.3940 0.7954 0.6349
H8 H 0.4878 0.6412 0.6441
C8 C 0.39913(10) 0.5638(3) 0.74075(10)
C9 C 0.35152(11) 0.3582(3) 0.76016(11)
H9 H 0.3283 0.2562 0.7138
C10 C 0.33775(13) 0.3016(4) 0.84819(13)
H10 H 0.3059 0.1609 0.8607
C11 C 0.37059(15) 0.4510(4) 0.91717(13)
H11 H 0.3610 0.4127 0.9763
C12 C 0.41769(15) 0.6571(4) 0.89836(13)
H12 H 0.4404 0.7592 0.9449
C13 C 0.43146(12) 0.7133(3) 0.81101(12)
H13 H 0.4631 0.8545 0.7989
loop_
_geom_bond_atom_site_label_1
_geom_bond_atom_site_label_2
_geom_bond_site_symmetry_1
_geom_bond_site_symmetry_2
N1 C1 1_555 1_555
N2 H1 1_555 1_555
N3 H2 1_555 1_555
O1 C6 1_555 1_555
C1 N2 1_555 1_555
C2 C1 1_555 1_555
H3 C2 1_555 1_555
C3 C2 1_555 1_555
H4 C3 1_555 1_555
C4 C3 1_555 1_555
H5 C4 1_555 1_555
C5 N1 1_555 1_555
H6 C5 1_555 1_555
C6 N2 1_555 1_555
C7 N3 1_555 1_555
H7 C7 1_555 1_555
H8 C7 1_555 1_555
C8 C7 1_555 1_555
C9 C8 1_555 1_555
H9 C9 1_555 1_555
C10 C9 1_555 1_555
H10 C10 1_555 1_555
C11 C10 1_555 1_555
H11 C11 1_555 1_555
C12 C11 1_555 1_555
H12 C12 1_555 1_555
C13 C8 1_555 1_555
H13 C13 1_555 1_555
N3 C6 1_555 1_555
C4 C5 1_555 1_555
C12 C13 1_555 1_555

#END
