
#######################################################################
#
#                 Cambridge Crystallographic Data Centre
#                                CCDC 
#
#######################################################################
#
# If this CIF has been generated from an entry in the Cambridge 
# Structural Database, then it will include bibliographic, chemical, 
# crystal, experimental, refinement or atomic coordinate data resulting 
# from the CCDC's data processing and validation procedures.
#
#######################################################################

data_TOLNEO
_chemical_formula_moiety         'C28 H32 O4'
_chemical_name_systematic        
trans-3,3'-Di-n-pentyl-3,3'-dihydroxy-2,2'-biindenylidene-1,1'-dione
_symmetry_cell_setting           monoclinic
_symmetry_space_group_name_H-M   'P 21/c'
_symmetry_Int_Tables_number      14
_space_group_name_Hall           '-P 2ybc'
loop_
_symmetry_equiv_pos_site_id
_symmetry_equiv_pos_as_xyz
1 x,y,z
2 -x,1/2+y,1/2-z
3 -x,-y,-z
4 x,1/2-y,1/2+z
_cell_length_a                   9.174(5)
_cell_length_b                   11.108(6)
_cell_length_c                   11.455(6)
_cell_angle_alpha                90
_cell_angle_beta                 102.279(11)
_cell_angle_gamma                90
_cell_volume                     1140.62
_exptl_crystal_colour            yellow
_chemical_melting_point          '133-134 deg.C'
_cell_formula_units_Z            2
_chemical_properties_physical    light-sensitive
_exptl_crystal_recrystallization_method dichloromethane
_exptl_crystal_preparation       photochromic
loop_
_atom_site_label
_atom_site_type_symbol
_atom_site_fract_x
_atom_site_fract_y
_atom_site_fract_z
O1 O 0.30649(17) 0.82784(14) 0.40914(13)
O2 O 0.53371(18) 1.19671(12) 0.36576(13)
H1 H 0.5862 1.2158 0.4303
C1 C 0.3669(2) 0.9128(2) 0.3702(2)
C2 C 0.4824(2) 0.99565(17) 0.44023(17)
C3 C 0.5446(2) 1.07030(18) 0.3489(2)
C4 C 0.4392(2) 1.04088(19) 0.2337(2)
C5 C 0.4330(3) 1.0925(2) 0.1227(2)
H2 H 0.4983 1.1539 0.1131
C6 C 0.3284(3) 1.0510(3) 0.0272(2)
H3 H 0.3234 1.0847 -0.0479
C7 C 0.2304(3) 0.9600(3) 0.0406(2)
H4 H 0.1600 0.9337 -0.0253
C8 C 0.2357(3) 0.9084(2) 0.1497(2)
H5 H 0.1703 0.8469 0.1590
C9 C 0.3410(2) 0.95014(19) 0.2460(2)
C10 C 0.7052(2) 1.03601(18) 0.34519(19)
H6 H 0.7337 1.0800 0.2804
H7 H 0.7698 1.0627 0.4190
C11 C 0.7342(2) 0.90287(18) 0.3289(2)
H8 H 0.7089 0.8581 0.3945
H9 H 0.6699 0.8750 0.2555
C12 C 0.8957(2) 0.8772(2) 0.3242(2)
H10 H 0.9588 0.9018 0.3994
H11 H 0.9220 0.9263 0.2617
C13 C 0.9296(3) 0.7462(2) 0.3012(2)
H12 H 1.0368 0.7348 0.3211
H13 H 0.8868 0.6958 0.3544
C14 C 0.8715(3) 0.7044(2) 0.1748(3)
H14 H 0.7647 0.7108 0.1555
H15 H 0.9000 0.6221 0.1672
H16 H 0.9129 0.7537 0.1211
O1B O 0.69351(17) 1.17216(14) 0.59086(13)
O2B O 0.46629(18) 0.80329(12) 0.63424(13)
H1B H 0.4138 0.7842 0.5697
C1B C 0.6331(2) 1.0872(2) 0.6298(2)
C2B C 0.5176(2) 1.00435(17) 0.55977(17)
C3B C 0.4554(2) 0.92970(18) 0.6511(2)
C4B C 0.5608(2) 0.95912(19) 0.7663(2)
C5B C 0.5670(3) 0.9075(2) 0.8773(2)
H2B H 0.5017 0.8461 0.8869
C6B C 0.6716(3) 0.9490(3) 0.9728(2)
H3B H 0.6766 0.9153 1.0479
C7B C 0.7696(3) 1.0400(3) 0.9594(2)
H4B H 0.8400 1.0663 1.0253
C8B C 0.7643(3) 1.0916(2) 0.8503(2)
H5B H 0.8297 1.1531 0.8410
C9B C 0.6590(2) 1.04986(19) 0.7540(2)
C10B C 0.2948(2) 0.96399(18) 0.65481(19)
H6B H 0.2663 0.9200 0.7196
H7B H 0.2302 0.9373 0.5810
C11B C 0.2658(2) 1.09713(18) 0.6711(2)
H8B H 0.2911 1.1419 0.6055
H9B H 0.3301 1.1250 0.7445
C12B C 0.1043(2) 1.1228(2) 0.6758(2)
H10B H 0.0412 1.0982 0.6006
H11B H 0.0780 1.0737 0.7383
C13B C 0.0704(3) 1.2538(2) 0.6988(2)
H12B H -0.0368 1.2652 0.6789
H13B H 0.1132 1.3042 0.6456
C14B C 0.1285(3) 1.2956(2) 0.8252(3)
H14B H 0.2353 1.2892 0.8445
H15B H 0.1000 1.3779 0.8328
H16B H 0.0871 1.2463 0.8789
loop_
_geom_bond_atom_site_label_1
_geom_bond_atom_site_label_2
_geom_bond_site_symmetry_1
_geom_bond_site_symmetry_2
O1 C1 1_555 1_555
O2 H1 1_555 1_555
C1 C2 1_555 1_555
C2 C3 1_555 1_555
C3 O2 1_555 1_555
C4 C3 1_555 1_555
C5 C4 1_555 1_555
H2 C5 1_555 1_555
C6 C5 1_555 1_555
H3 C6 1_555 1_555
C7 C6 1_555 1_555
H4 C7 1_555 1_555
C8 C7 1_555 1_555
H5 C8 1_555 1_555
C9 C1 1_555 1_555
C10 C3 1_555 1_555
H6 C10 1_555 1_555
H7 C10 1_555 1_555
C11 C10 1_555 1_555
H8 C11 1_555 1_555
H9 C11 1_555 1_555
C12 C11 1_555 1_555
H10 C12 1_555 1_555
H11 C12 1_555 1_555
C13 C12 1_555 1_555
H12 C13 1_555 1_555
H13 C13 1_555 1_555
C14 C13 1_555 1_555
H14 C14 1_555 1_555
H15 C14 1_555 1_555
H16 C14 1_555 1_555
O1B C1B 1_555 1_555
O2B H1B 1_555 1_555
C1B C2B 1_555 1_555
C2B C2 1_555 1_555
C3B O2B 1_555 1_555
C4B C3B 1_555 1_555
C5B C4B 1_555 1_555
H2B C5B 1_555 1_555
C6B C5B 1_555 1_555
H3B C6B 1_555 1_555
C7B C6B 1_555 1_555
H4B C7B 1_555 1_555
C8B C7B 1_555 1_555
H5B C8B 1_555 1_555
C9B C1B 1_555 1_555
C10B C3B 1_555 1_555
H6B C10B 1_555 1_555
H7B C10B 1_555 1_555
C11B C10B 1_555 1_555
H8B C11B 1_555 1_555
H9B C11B 1_555 1_555
C12B C11B 1_555 1_555
H10B C12B 1_555 1_555
H11B C12B 1_555 1_555
C13B C12B 1_555 1_555
H12B C13B 1_555 1_555
H13B C13B 1_555 1_555
C14B C13B 1_555 1_555
H14B C14B 1_555 1_555
H15B C14B 1_555 1_555
H16B C14B 1_555 1_555
C4 C9 1_555 1_555
C8 C9 1_555 1_555
C2B C3B 1_555 1_555
C4B C9B 1_555 1_555
C8B C9B 1_555 1_555

#END
