
#######################################################################
#
#                 Cambridge Crystallographic Data Centre
#                                CCDC 
#
#######################################################################
#
# If this CIF has been generated from an entry in the Cambridge 
# Structural Database, then it will include bibliographic, chemical, 
# crystal, experimental, refinement or atomic coordinate data resulting 
# from the CCDC's data processing and validation procedures.
#
#######################################################################

data_TOLPOB
_chemical_formula_moiety         'C17 H18 N2 O1'
_chemical_name_systematic        N'-(4-phenylbut-3-en-2-yl)benzohydrazide
_symmetry_cell_setting           orthorhombic
_symmetry_space_group_name_H-M   'P 21 21 21'
_symmetry_Int_Tables_number      19
_space_group_name_Hall           'P 2ac 2ab'
loop_
_symmetry_equiv_pos_site_id
_symmetry_equiv_pos_as_xyz
1 x,y,z
2 1/2-x,-y,1/2+z
3 1/2+x,1/2-y,-z
4 -x,1/2+y,1/2-z
_cell_length_a                   5.19550(10)
_cell_length_b                   8.58560(10)
_cell_length_c                   32.9171(4)
_cell_angle_alpha                90
_cell_angle_beta                 90
_cell_angle_gamma                90
_cell_volume                     1468.32
_cell_formula_units_Z            4
loop_
_atom_site_label
_atom_site_type_symbol
_atom_site_fract_x
_atom_site_fract_y
_atom_site_fract_z
O1 O 0.20942(16) 0.45691(11) 0.55410(3)
N1 N 0.62964(19) 0.36516(11) 0.50745(3)
N2 N 0.63619(18) 0.41432(11) 0.54850(3)
H1 H 0.7820 0.4153 0.5609
C1 C 0.4256(2) 0.45954(12) 0.56905(3)
C2 C 0.3195(3) 0.66601(18) 0.66841(4)
H2 H 0.2056 0.7391 0.6790
C3 C 0.4674(2) 0.51108(13) 0.61211(3)
C4 C 0.8270(3) 0.61130(16) 0.48537(4)
H3 H 0.9860 0.5567 0.4811
H4 H 0.8229 0.6522 0.5125
H5 H 0.8136 0.6953 0.4662
C5 C 0.2961(3) 0.61806(15) 0.62839(4)
H6 H 0.1644 0.6579 0.6123
C6 C 0.6815(3) 0.4985(2) 0.67669(4)
H7 H 0.8104 0.4575 0.6931
C7 C 0.4532(3) 0.49150(16) 0.40766(4)
H8 H 0.3232 0.5597 0.4155
C8 C 0.6512(3) 0.35426(19) 0.34763(4)
H9 H 0.7729 0.3087 0.3646
C9 C 0.5111(3) 0.60556(18) 0.69246(4)
H10 H 0.5257 0.6369 0.7194
C10 C 0.6047(3) 0.44028(13) 0.43664(3)
H11 H 0.7208 0.3616 0.4302
C11 C 0.6034(2) 0.50011(12) 0.47944(3)
H12 H 0.4410 0.5544 0.4848
C12 C 0.6621(3) 0.45148(16) 0.63642(4)
H13 H 0.7791 0.3803 0.6258
C13 C 0.6569(3) 0.3228(2) 0.30643(4)
H14 H 0.7807 0.2555 0.2960
C14 C 0.4662(2) 0.45296(14) 0.36413(4)
C15 C 0.2887(3) 0.5194(2) 0.33774(4)
H15 H 0.1623 0.5855 0.3479
C16 C 0.4798(4) 0.3908(2) 0.28069(4)
H16 H 0.4846 0.3704 0.2530
C17 C 0.2976(4) 0.4883(3) 0.29637(5)
H17 H 0.1780 0.5344 0.2791
H18 H 0.492(4) 0.3012(16) 0.5050(4)
loop_
_geom_bond_atom_site_label_1
_geom_bond_atom_site_label_2
_geom_bond_site_symmetry_1
_geom_bond_site_symmetry_2
O1 C1 1_555 1_555
N1 N2 1_555 1_555
N2 H1 1_555 1_555
C1 N2 1_555 1_555
C2 H2 1_555 1_555
C3 C1 1_555 1_555
C4 H3 1_555 1_555
H4 C4 1_555 1_555
H5 C4 1_555 1_555
C5 C2 1_555 1_555
H6 C5 1_555 1_555
C6 H7 1_555 1_555
C7 H8 1_555 1_555
C8 H9 1_555 1_555
C9 C2 1_555 1_555
H10 C9 1_555 1_555
C10 C7 1_555 1_555
H11 C10 1_555 1_555
C11 N1 1_555 1_555
H12 C11 1_555 1_555
C12 C3 1_555 1_555
H13 C12 1_555 1_555
C13 C8 1_555 1_555
H14 C13 1_555 1_555
C14 C7 1_555 1_555
C15 C14 1_555 1_555
H15 C15 1_555 1_555
C16 C13 1_555 1_555
H16 C16 1_555 1_555
C17 C15 1_555 1_555
H17 C17 1_555 1_555
H18 N1 1_555 1_555
C3 C5 1_555 1_555
C4 C11 1_555 1_555
C6 C9 1_555 1_555
C6 C12 1_555 1_555
C8 C14 1_555 1_555
C10 C11 1_555 1_555
C16 C17 1_555 1_555

#END
