
#######################################################################
#
#                 Cambridge Crystallographic Data Centre
#                                CCDC 
#
#######################################################################
#
# If this CIF has been generated from an entry in the Cambridge 
# Structural Database, then it will include bibliographic, chemical, 
# crystal, experimental, refinement or atomic coordinate data resulting 
# from the CCDC's data processing and validation procedures.
#
#######################################################################

data_TOLVOH
_chemical_formula_moiety         'C33 H34 N2 O8,C3 H7 N1 O1'
_chemical_name_systematic        
"dimethyl 1-butyl-2',3'-bis(4-methoxyphenyl)-2-oxo-1,2,2',3'-tetrahydrospiro[indole-3,6'-[1,3]oxazine]-4',5'-dicarboxylate N,N-dimethylformamide solvate"
_symmetry_cell_setting           triclinic
_symmetry_space_group_name_H-M   'P -1'
_symmetry_Int_Tables_number      2
_space_group_name_Hall           '-P 1'
loop_
_symmetry_equiv_pos_site_id
_symmetry_equiv_pos_as_xyz
1 x,y,z
2 -x,-y,-z
_cell_length_a                   11.3310(13)
_cell_length_b                   12.8838(15)
_cell_length_c                   14.5851(16)
_cell_angle_alpha                71.100(3)
_cell_angle_beta                 68.273(3)
_cell_angle_gamma                65.509(3)
_cell_volume                     1763.03
_cell_formula_units_Z            2
loop_
_atom_site_label
_atom_site_type_symbol
_atom_site_fract_x
_atom_site_fract_y
_atom_site_fract_z
C1 C 0.8406(5) -0.0041(5) 0.0072(4)
H1 H 0.8402 0.0744 -0.0089
H2 H 0.9090 -0.0451 -0.0438
H3 H 0.8590 -0.0424 0.0713
C2 C 0.7109(5) -0.0027(5) 0.0116(4)
H4 H 0.7061 -0.0804 0.0418
H5 H 0.7046 0.0156 -0.0567
C3 C 0.5899(4) 0.0822(3) 0.0700(2)
H6 H 0.5895 0.1609 0.0367
H7 H 0.5083 0.0757 0.0688
C4 C 0.5886(2) 0.0624(2) 0.17691(19)
H8 H 0.5916 -0.0168 0.2099
H9 H 0.6686 0.0716 0.1785
C5 C 0.4641(2) 0.24835(18) 0.23761(15)
C6 C 0.31845(17) 0.31020(14) 0.29838(13)
C7 C 0.25797(18) 0.21423(15) 0.33666(13)
C8 C 0.1363(2) 0.20920(17) 0.40204(15)
H10 H 0.0766 0.2703 0.4346
C9 C 0.1042(2) 0.1104(2) 0.41854(18)
H11 H 0.0221 0.1052 0.4627
C10 C 0.1923(3) 0.02070(19) 0.37037(19)
H12 H 0.1678 -0.0439 0.3818
C11 C 0.3166(2) 0.02318(16) 0.30521(17)
H13 H 0.3759 -0.0382 0.2729
C12 C 0.34842(19) 0.12099(15) 0.29038(14)
C13 C 0.31139(17) 0.36963(14) 0.37473(13)
C14 C 0.38685(17) 0.30608(15) 0.44893(14)
C15 C 0.5378(2) 0.12397(19) 0.50680(19)
H14 H 0.6026 0.1584 0.4986
H15 H 0.5839 0.0473 0.4920
H16 H 0.4817 0.1189 0.5750
C16 C 0.23694(17) 0.48438(14) 0.37199(13)
C17 C 0.22601(19) 0.54828(15) 0.44708(15)
C18 C 0.3182(3) 0.6667(3) 0.4720(3)
H17 H 0.2296 0.7230 0.4882
H18 H 0.3828 0.7061 0.4354
H19 H 0.3400 0.6178 0.5331
C19 C 0.0980(2) 0.55492(18) 0.15748(17)
C20 C 0.1819(2) 0.6044(2) 0.0772(2)
H20 H 0.2640 0.5981 0.0824
C21 C 0.1447(3) 0.6658(2) -0.0148(2)
H21 H 0.2015 0.6990 -0.0697
C22 C 0.0214(2) 0.67360(19) -0.01865(17)
C23 C -0.1341(3) 0.7377(3) -0.1156(3)
H22 H -0.1364 0.6608 -0.1045
H23 H -0.1435 0.7793 -0.1817
H24 H -0.2067 0.7783 -0.0661
C24 C -0.0600(3) 0.6252(2) 0.06415(19)
H25 H -0.1440 0.6321 0.0620
C25 C -0.0201(3) 0.5663(2) 0.15075(19)
H26 H -0.0774 0.5337 0.2058
C26 C 0.07677(19) 0.66737(15) 0.30851(14)
C27 C 0.1263(2) 0.75812(18) 0.27007(18)
H27 H 0.2185 0.7431 0.2417
C28 C 0.0408(2) 0.87165(17) 0.27295(18)
H28 H 0.0757 0.9323 0.2474
C29 C -0.0958(2) 0.89480(16) 0.31350(15)
C30 C -0.1453(3) 1.0999(2) 0.2792(3)
H29 H -0.0866 1.0949 0.3151
H30 H -0.2218 1.1701 0.2855
H31 H -0.0975 1.1009 0.2093
C31 C -0.1450(2) 0.80338(18) 0.35076(18)
H32 H -0.2375 0.8184 0.3774
C32 C -0.0606(2) 0.69094(17) 0.34928(16)
H33 H -0.0956 0.6303 0.3757
N1 N 0.46868(16) 0.14323(14) 0.23232(13)
N2 N 0.16517(16) 0.54957(13) 0.30437(12)
O1 O 0.55414(16) 0.28869(15) 0.19911(14)
O2 O 0.26349(15) 0.39569(11) 0.21973(10)
O3 O 0.38987(15) 0.34506(12) 0.51302(12)
O4 O 0.45553(13) 0.19465(11) 0.43920(11)
O5 O 0.13865(15) 0.55870(12) 0.52427(11)
O6 O 0.32173(14) 0.59629(12) 0.41112(11)
O7 O -0.0094(2) 0.72976(17) -0.10778(13)
O8 O -0.18986(16) 1.00237(12) 0.31996(13)
C33 C 0.1433(2) 0.48081(19) 0.25072(17)
H34 H 0.0760 0.4447 0.2966
C35 C 0.5713(6) 0.6933(5) 0.2332(4)
H36 H 0.6052 0.6852 0.2852
C36 C 0.5447(5) 0.6013(4) 0.1277(4)
H37 H 0.4977 0.6804 0.1009
H38 H 0.4841 0.5575 0.1552
H39 H 0.6187 0.5675 0.0749
C37 C 0.6606(5) 0.4847(4) 0.2540(4)
H40 H 0.6854 0.4907 0.3078
H41 H 0.7401 0.4468 0.2066
H42 H 0.6008 0.4402 0.2809
N3 N 0.5943(3) 0.5989(2) 0.2043(2)
O9 O 0.5092(5) 0.7897(3) 0.1968(4)
C34? C 0.2371(12) 0.5052(8) 0.2023(8)
H35? H 0.3118 0.5330 0.1576
loop_
_geom_bond_atom_site_label_1
_geom_bond_atom_site_label_2
_geom_bond_site_symmetry_1
_geom_bond_site_symmetry_2
C1 H1 1_555 1_555
H2 C1 1_555 1_555
H3 C1 1_555 1_555
C2 C1 1_555 1_555
H4 C2 1_555 1_555
H5 C2 1_555 1_555
C3 C2 1_555 1_555
H6 C3 1_555 1_555
H7 C3 1_555 1_555
C4 C3 1_555 1_555
H8 C4 1_555 1_555
H9 C4 1_555 1_555
C5 C6 1_555 1_555
C6 C7 1_555 1_555
C7 C8 1_555 1_555
C8 H10 1_555 1_555
C9 C8 1_555 1_555
H11 C9 1_555 1_555
C10 C9 1_555 1_555
H12 C10 1_555 1_555
C11 C10 1_555 1_555
H13 C11 1_555 1_555
C12 C7 1_555 1_555
C13 C6 1_555 1_555
C14 C13 1_555 1_555
C15 H14 1_555 1_555
H15 C15 1_555 1_555
H16 C15 1_555 1_555
C16 C13 1_555 1_555
C17 C16 1_555 1_555
C18 H17 1_555 1_555
H18 C18 1_555 1_555
H19 C18 1_555 1_555
C19 C20 1_555 1_555
C20 H20 1_555 1_555
C21 C20 1_555 1_555
H21 C21 1_555 1_555
C22 C21 1_555 1_555
C23 H22 1_555 1_555
H23 C23 1_555 1_555
H24 C23 1_555 1_555
C24 C22 1_555 1_555
H25 C24 1_555 1_555
C25 C19 1_555 1_555
H26 C25 1_555 1_555
C26 C27 1_555 1_555
C27 H27 1_555 1_555
C28 C27 1_555 1_555
H28 C28 1_555 1_555
C29 C28 1_555 1_555
C30 H29 1_555 1_555
H30 C30 1_555 1_555
H31 C30 1_555 1_555
C31 C29 1_555 1_555
H32 C31 1_555 1_555
C32 C26 1_555 1_555
H33 C32 1_555 1_555
N1 C4 1_555 1_555
N2 C16 1_555 1_555
O1 C5 1_555 1_555
O2 C6 1_555 1_555
O3 C14 1_555 1_555
O4 C14 1_555 1_555
O5 C17 1_555 1_555
O6 C17 1_555 1_555
O7 C22 1_555 1_555
O8 C29 1_555 1_555
C33 C19 1_555 1_555
H34 C33 1_555 1_555
C35 H36 1_555 1_555
C36 H37 1_555 1_555
H38 C36 1_555 1_555
H39 C36 1_555 1_555
C37 H40 1_555 1_555
H41 C37 1_555 1_555
H42 C37 1_555 1_555
N3 C35 1_555 1_555
O9 C35 1_555 1_555
C5 N1 1_555 1_555
C11 C12 1_555 1_555
C12 N1 1_555 1_555
C15 O4 1_555 1_555
C18 O6 1_555 1_555
C23 O7 1_555 1_555
C24 C25 1_555 1_555
C26 N2 1_555 1_555
C30 O8 1_555 1_555
C31 C32 1_555 1_555
N2 C33 1_555 1_555
O2 C33 1_555 1_555
C36 N3 1_555 1_555
C37 N3 1_555 1_555

#END
