
#######################################################################
#
#                 Cambridge Crystallographic Data Centre
#                                CCDC 
#
#######################################################################
#
# If this CIF has been generated from an entry in the Cambridge 
# Structural Database, then it will include bibliographic, chemical, 
# crystal, experimental, refinement or atomic coordinate data resulting 
# from the CCDC's data processing and validation procedures.
#
#######################################################################

data_TOLVEX
_chemical_formula_moiety         'C38 H34 N2 O7'
_chemical_name_systematic        
"dimethyl 1-benzyl-3'-(4-methoxyphenyl)-5-methyl-2-oxo-2'-(2-phenylvinyl)-1,2,2',3'-tetrahydrospiro[indole-3,6'-[1,3]oxazine]-4',5'-dicarboxylate unknown solvate"
_symmetry_cell_setting           monoclinic
_symmetry_space_group_name_H-M   'P 21/c'
_symmetry_Int_Tables_number      14
_space_group_name_Hall           '-P 2ybc'
loop_
_symmetry_equiv_pos_site_id
_symmetry_equiv_pos_as_xyz
1 x,y,z
2 -x,1/2+y,1/2-z
3 -x,-y,-z
4 x,1/2-y,1/2+z
_cell_length_a                   12.544(3)
_cell_length_b                   10.314(2)
_cell_length_c                   28.189(5)
_cell_angle_alpha                90
_cell_angle_beta                 104.274(9)
_cell_angle_gamma                90
_cell_volume                     3534.47
_cell_formula_units_Z            4
loop_
_atom_site_label
_atom_site_type_symbol
_atom_site_fract_x
_atom_site_fract_y
_atom_site_fract_z
C1 C 0.1677(3) -0.1038(4) 0.80502(12)
H1 H 0.2144 -0.1589 0.8268
C2 C 0.1449(3) -0.1276(4) 0.75496(14)
H2 H 0.1775 -0.1978 0.7433
C3 C 0.0753(4) -0.0489(4) 0.72315(14)
H3 H 0.0610 -0.0648 0.6897
C4 C 0.0264(3) 0.0529(4) 0.73979(13)
H4 H -0.0228 0.1050 0.7178
C5 C 0.0497(3) 0.0795(3) 0.78972(12)
H5 H 0.0168 0.1503 0.8008
C6 C 0.1207(2) 0.0025(3) 0.82266(10)
C7 C 0.1446(2) 0.0249(3) 0.87606(10)
H6 H 0.1677 -0.0464 0.8962
C8 C 0.1363(2) 0.1372(3) 0.89800(10)
H7 H 0.1176 0.2114 0.8791
C9 C 0.1562(2) 0.1468(3) 0.95227(10)
H8 H 0.1802 0.0621 0.9668
C10 C -0.0439(2) 0.2179(3) 0.93300(10)
C11 C -0.1026(2) 0.1209(3) 0.90454(11)
H9 H -0.0767 0.0361 0.9080
C12 C -0.1990(2) 0.1496(3) 0.87117(11)
H10 H -0.2378 0.0838 0.8517
C13 C -0.2396(2) 0.2742(3) 0.86596(11)
C14 C -0.1823(3) 0.3714(3) 0.89504(11)
H11 H -0.2093 0.4558 0.8924
C15 C -0.0846(2) 0.3422(3) 0.92813(10)
H12 H -0.0455 0.4078 0.9475
C16 C -0.3869(3) 0.4163(4) 0.82887(15)
H13 H -0.3976 0.4403 0.8603
H14 H -0.4567 0.4140 0.8053
H15 H -0.3401 0.4788 0.8188
C17 C 0.0766(2) 0.2211(3) 1.01612(10)
C18 C -0.0260(2) 0.2393(3) 1.03453(10)
C19 C -0.1273(3) 0.3880(4) 1.06974(15)
H16 H -0.1936 0.3739 1.0447
H17 H -0.1240 0.4769 1.0801
H18 H -0.1269 0.3325 1.0971
C20 C 0.1799(2) 0.2325(3) 1.04467(10)
C21 C 0.2072(2) 0.2451(3) 1.09839(10)
C22 C 0.1472(3) 0.2148(4) 1.17078(12)
H19 H 0.2136 0.1695 1.1860
H20 H 0.0868 0.1781 1.1815
H21 H 0.1548 0.3047 1.1798
C23 C 0.3473(2) 0.3619(3) 1.03418(10)
C24 C 0.2784(2) 0.2355(3) 1.02262(10)
C25 C 0.3642(2) 0.1330(3) 1.03952(9)
C26 C 0.3572(2) 0.0009(3) 1.04270(10)
H22 H 0.2885 -0.0388 1.0355
C27 C 0.4516(3) -0.0745(3) 1.05661(10)
C28 C 0.4438(3) -0.2192(3) 1.05925(13)
H23 H 0.3919 -0.2507 1.0306
H24 H 0.4199 -0.2430 1.0879
H25 H 0.5147 -0.2568 1.0609
C29 C 0.5520(3) -0.0127(3) 1.06741(11)
H26 H 0.6156 -0.0627 1.0755
C30 C 0.5619(2) 0.1207(3) 1.06674(10)
H27 H 0.6305 0.1606 1.0754
C31 C 0.4670(2) 0.1920(3) 1.05282(10)
C32 C 0.5439(2) 0.4213(3) 1.06038(11)
H28 H 0.5144 0.5047 1.0477
H29 H 0.5977 0.3961 1.0426
C33 C 0.6027(2) 0.4386(3) 1.11335(11)
C34 C 0.6837(3) 0.5310(3) 1.12523(12)
H30 H 0.7004 0.5809 1.1006
C35 C 0.7404(3) 0.5509(4) 1.17288(17)
H31 H 0.7952 0.6137 1.1802
C36 C 0.7164(3) 0.4782(5) 1.20993(15)
H32 H 0.7550 0.4919 1.2422
C37 C 0.6356(3) 0.3856(4) 1.19916(12)
H33 H 0.6194 0.3360 1.2241
C38 C 0.5775(3) 0.3660(3) 1.15057(12)
H34 H 0.5219 0.3042 1.1432
N1 N 0.05754(17) 0.1878(2) 0.96776(8)
N2 N 0.45506(19) 0.3278(2) 1.04955(8)
O1 O 0.24078(14) 0.23906(18) 0.96964(6)
O2 O -0.33697(19) 0.2917(3) 0.83206(8)
O3 O -0.09311(17) 0.1570(2) 1.03317(8)
O4 O -0.03183(16) 0.3584(2) 1.05034(8)
O5 O 0.29301(18) 0.2846(2) 1.12192(8)
O6 O 0.12645(16) 0.2029(2) 1.11808(7)
O7 O 0.31138(17) 0.4711(2) 1.02765(8)
loop_
_geom_bond_atom_site_label_1
_geom_bond_atom_site_label_2
_geom_bond_site_symmetry_1
_geom_bond_site_symmetry_2
C1 H1 1_555 1_555
C2 C1 1_555 1_555
H2 C2 1_555 1_555
C3 C2 1_555 1_555
H3 C3 1_555 1_555
C4 C3 1_555 1_555
H4 C4 1_555 1_555
C5 C4 1_555 1_555
H5 C5 1_555 1_555
C6 C1 1_555 1_555
C7 C6 1_555 1_555
H6 C7 1_555 1_555
C8 C7 1_555 1_555
H7 C8 1_555 1_555
C9 C8 1_555 1_555
H8 C9 1_555 1_555
C10 C11 1_555 1_555
C11 H9 1_555 1_555
C12 C11 1_555 1_555
H10 C12 1_555 1_555
C13 C12 1_555 1_555
C14 C13 1_555 1_555
H11 C14 1_555 1_555
C15 C10 1_555 1_555
H12 C15 1_555 1_555
C16 H13 1_555 1_555
H14 C16 1_555 1_555
H15 C16 1_555 1_555
C17 C18 1_555 1_555
C18 O3 1_555 1_555
C19 H16 1_555 1_555
H17 C19 1_555 1_555
H18 C19 1_555 1_555
C20 C17 1_555 1_555
C21 C20 1_555 1_555
C22 H19 1_555 1_555
H20 C22 1_555 1_555
H21 C22 1_555 1_555
C23 C24 1_555 1_555
C24 C20 1_555 1_555
C25 C24 1_555 1_555
C26 C25 1_555 1_555
H22 C26 1_555 1_555
C27 C26 1_555 1_555
C28 C27 1_555 1_555
H23 C28 1_555 1_555
H24 C28 1_555 1_555
H25 C28 1_555 1_555
C29 C27 1_555 1_555
H26 C29 1_555 1_555
C30 C29 1_555 1_555
H27 C30 1_555 1_555
C31 C25 1_555 1_555
C32 H28 1_555 1_555
H29 C32 1_555 1_555
C33 C32 1_555 1_555
C34 C33 1_555 1_555
H30 C34 1_555 1_555
C35 C34 1_555 1_555
H31 C35 1_555 1_555
C36 C35 1_555 1_555
H32 C36 1_555 1_555
C37 C36 1_555 1_555
H33 C37 1_555 1_555
C38 C33 1_555 1_555
H34 C38 1_555 1_555
N1 C9 1_555 1_555
N2 C23 1_555 1_555
O1 C9 1_555 1_555
O2 C13 1_555 1_555
O4 C18 1_555 1_555
O5 C21 1_555 1_555
O6 C21 1_555 1_555
O7 C23 1_555 1_555
C5 C6 1_555 1_555
C10 N1 1_555 1_555
C14 C15 1_555 1_555
C16 O2 1_555 1_555
C17 N1 1_555 1_555
C19 O4 1_555 1_555
C22 O6 1_555 1_555
C24 O1 1_555 1_555
C30 C31 1_555 1_555
C31 N2 1_555 1_555
C32 N2 1_555 1_555
C37 C38 1_555 1_555

#END
