
#######################################################################
#
#                 Cambridge Crystallographic Data Centre
#                                CCDC 
#
#######################################################################
#
# If this CIF has been generated from an entry in the Cambridge 
# Structural Database, then it will include bibliographic, chemical, 
# crystal, experimental, refinement or atomic coordinate data resulting 
# from the CCDC's data processing and validation procedures.
#
#######################################################################

data_TOMCAB
_chemical_name_common            'Betulin 3,28-di-O-tosylate'
_chemical_formula_moiety         'C44 H62 O6 S2'
_chemical_name_systematic        
(1R,3aS,5aR,5bR,7aR,9S,11aR,11bR,13aR,13bR)-5a,5b,8,8,11a-Pentamethyl-1-(prop-1-en-2-yl)-3a-((tosyloxy)methyl)icosahydro-1H-cyclopenta[a]chrysen-9-yl4-methylbenzenesulfonate
_symmetry_cell_setting           orthorhombic
_symmetry_space_group_name_H-M   'P 21 21 21'
_symmetry_Int_Tables_number      19
_space_group_name_Hall           'P 2ac 2ab'
loop_
_symmetry_equiv_pos_site_id
_symmetry_equiv_pos_as_xyz
1 x,y,z
2 1/2-x,-y,1/2+z
3 1/2+x,1/2-y,-z
4 -x,1/2+y,1/2-z
_cell_length_a                   6.9824(1)
_cell_length_b                   18.2035(4)
_cell_length_c                   31.4449(9)
_cell_angle_alpha                90
_cell_angle_beta                 90
_cell_angle_gamma                90
_cell_volume                     3996.78
_exptl_crystal_colour            colorless
_exptl_crystal_description       needle
_chemical_melting_point          '403 K'
_cell_formula_units_Z            4
loop_
_atom_site_label
_atom_site_type_symbol
_atom_site_fract_x
_atom_site_fract_y
_atom_site_fract_z
C1 C 1.2440(5) 0.7646(2) 0.13908(14)
H1 H 1.3758 0.7596 0.1297
H2 H 1.1724 0.7868 0.1160
C2 C 1.2389(5) 0.8165(2) 0.17714(14)
H3 H 1.2816 0.8650 0.1686
H4 H 1.3246 0.7986 0.1991
C3 C 1.0351(5) 0.8208(2) 0.19443(13)
H5 H 0.9515 0.8404 0.1721
C4 C 0.9545(5) 0.7472(2) 0.20942(12)
C5 C 0.9623(5) 0.6960(2) 0.16969(13)
H6 H 0.8818 0.7204 0.1484
C6 C 0.8693(5) 0.6208(2) 0.17625(13)
H7 H 0.9549 0.5896 0.1925
H8 H 0.7516 0.6265 0.1923
C7 C 0.8261(5) 0.5848(2) 0.13390(13)
H9 H 0.7291 0.6135 0.1194
H10 H 0.7730 0.5363 0.1391
C8 C 1.0016(5) 0.5769(2) 0.10437(13)
C9 C 1.1168(5) 0.6507(2) 0.10316(13)
H11 H 1.0315 0.6857 0.0889
C10 C 1.1617(5) 0.6869(2) 0.14760(13)
C11 C 1.2908(5) 0.6442(2) 0.07366(14)
H12 H 1.3505 0.6921 0.0711
H13 H 1.3833 0.6113 0.0866
C12 C 1.2429(5) 0.6157(2) 0.02906(14)
H14 H 1.3611 0.6054 0.0140
H15 H 1.1753 0.6537 0.0135
C13 C 1.1188(5) 0.5455(2) 0.02990(13)
H16 H 1.1939 0.5078 0.0446
C14 C 0.9334(5) 0.5586(2) 0.05728(13)
C15 C 0.8006(5) 0.4902(2) 0.05702(14)
H17 H 0.8543 0.4537 0.0760
H18 H 0.6769 0.5044 0.0684
C16 C 0.7695(5) 0.4547(2) 0.01360(13)
H19 H 0.6900 0.4866 -0.0037
H20 H 0.7018 0.4086 0.0173
C17 C 0.9584(5) 0.4402(2) -0.00960(13)
C18 C 1.0655(5) 0.5138(2) -0.01344(13)
H21 H 0.9758 0.5486 -0.0264
C19 C 1.2249(6) 0.4991(2) -0.04710(14)
H22 H 1.3344 0.4768 -0.0325
C20 C 1.2967(6) 0.5640(2) -0.07193(14)
C21 C 1.1336(5) 0.4397(3) -0.07636(14)
H23 H 1.1122 0.4596 -0.1046
H24 H 1.2183 0.3976 -0.0788
C22 C 0.9419(5) 0.4165(2) -0.05622(13)
H25 H 0.8354 0.4410 -0.0700
H26 H 0.9238 0.3638 -0.0584
C23 C 0.7438(5) 0.7597(2) 0.22178(14)
H27 H 0.7357 0.7993 0.2419
H28 H 0.6932 0.7157 0.2343
H29 H 0.6711 0.7719 0.1969
C24 C 1.0565(6) 0.7175(2) 0.24903(15)
H30 H 1.1923 0.7170 0.2442
H31 H 1.0131 0.6684 0.2547
H32 H 1.0281 0.7483 0.2730
C25 C 1.3102(5) 0.6440(2) 0.17375(14)
H33 H 1.4078 0.6253 0.1552
H34 H 1.2483 0.6038 0.1880
H35 H 1.3671 0.6760 0.1944
C26 C 1.1239(5) 0.5136(2) 0.12257(13)
H36 H 1.1191 0.5149 0.1531
H37 H 1.2541 0.5192 0.1133
H38 H 1.0744 0.4675 0.1127
C27 C 0.8145(5) 0.6219(2) 0.03740(14)
H39 H 0.7612 0.6059 0.0108
H40 H 0.8959 0.6636 0.0326
H41 H 0.7129 0.6353 0.0564
C28 C 1.0801(5) 0.3841(2) 0.01470(14)
H42 H 1.2077 0.3819 0.0026
H43 H 1.0912 0.3986 0.0443
C29 C 1.4816(7) 0.5723(3) -0.08026(15)
H44 H 1.5694 0.5376 -0.0707
H45 H 1.5235 0.6128 -0.0957
C30 C 1.1497(7) 0.6159(3) -0.09078(17)
H46 H 1.2127 0.6505 -0.1091
H47 H 1.0858 0.6419 -0.0683
H48 H 1.0576 0.5884 -0.1069
O1 O 1.0355(4) 0.87278(14) 0.23064(9)
O2 O 0.8911(4) 0.96763(17) 0.27028(11)
O3 O 0.7673(4) 0.94160(18) 0.19878(11)
S1 S 0.92414(15) 0.94805(6) 0.22731(4)
C31 C 1.0920(6) 1.0093(2) 0.20621(15)
C32 C 1.0496(7) 1.0516(3) 0.17126(15)
H49 H 0.9353 1.0441 0.1567
C33 C 1.1759(9) 1.1051(3) 0.15772(18)
H50 H 1.1445 1.1343 0.1345
C34 C 1.3481(9) 1.1156(3) 0.17832(19)
C35 C 1.3917(7) 1.0712(3) 0.21182(18)
H51 H 1.5096 1.0767 0.2252
C36 C 1.2667(6) 1.0181(3) 0.22667(16)
H52 H 1.2990 0.9889 0.2499
C37 C 1.4852(10) 1.1756(3) 0.16420(19)
H53 H 1.4738 1.2170 0.1829
H54 H 1.4543 1.1904 0.1357
H55 H 1.6141 1.1573 0.1650
O4 O 0.9875(4) 0.31153(15) 0.01169(9)
O5 O 0.9399(4) 0.18894(16) 0.03501(10)
O6 O 1.2059(3) 0.26027(16) 0.06542(9)
S2 S 1.01383(14) 0.25713(6) 0.04993(4)
C38 C 0.8623(6) 0.2946(2) 0.08920(14)
C39 C 0.6685(6) 0.3034(2) 0.08074(15)
H56 H 0.6167 0.2866 0.0553
C40 C 0.5538(6) 0.3373(2) 0.11046(15)
H57 H 0.4243 0.3441 0.1047
C41 C 0.6285(6) 0.3617(2) 0.14898(15)
C42 C 0.8201(6) 0.3507(3) 0.15726(14)
H58 H 0.8705 0.3656 0.1832
C43 C 0.9387(6) 0.3177(2) 0.12759(14)
H59 H 1.0682 0.3112 0.1334
C44 C 0.5011(7) 0.3981(3) 0.18128(15)
H60 H 0.3703 0.3847 0.1760
H61 H 0.5146 0.4504 0.1792
H62 H 0.5372 0.3824 0.2093
loop_
_geom_bond_atom_site_label_1
_geom_bond_atom_site_label_2
_geom_bond_site_symmetry_1
_geom_bond_site_symmetry_2
C1 H1 1_555 1_555
H2 C1 1_555 1_555
C2 C1 1_555 1_555
H3 C2 1_555 1_555
H4 C2 1_555 1_555
C3 C2 1_555 1_555
H5 C3 1_555 1_555
C4 C3 1_555 1_555
C5 C4 1_555 1_555
H6 C5 1_555 1_555
C6 C5 1_555 1_555
H7 C6 1_555 1_555
H8 C6 1_555 1_555
C7 C6 1_555 1_555
H9 C7 1_555 1_555
H10 C7 1_555 1_555
C8 C7 1_555 1_555
C9 C8 1_555 1_555
H11 C9 1_555 1_555
C10 C1 1_555 1_555
C11 C9 1_555 1_555
H12 C11 1_555 1_555
H13 C11 1_555 1_555
C12 C11 1_555 1_555
H14 C12 1_555 1_555
H15 C12 1_555 1_555
C13 C12 1_555 1_555
H16 C13 1_555 1_555
C14 C8 1_555 1_555
C15 C14 1_555 1_555
H17 C15 1_555 1_555
H18 C15 1_555 1_555
C16 C15 1_555 1_555
H19 C16 1_555 1_555
H20 C16 1_555 1_555
C17 C16 1_555 1_555
C18 C13 1_555 1_555
H21 C18 1_555 1_555
C19 C18 1_555 1_555
H22 C19 1_555 1_555
C20 C19 1_555 1_555
C21 C19 1_555 1_555
H23 C21 1_555 1_555
H24 C21 1_555 1_555
C22 C17 1_555 1_555
H25 C22 1_555 1_555
H26 C22 1_555 1_555
C23 C4 1_555 1_555
H27 C23 1_555 1_555
H28 C23 1_555 1_555
H29 C23 1_555 1_555
C24 C4 1_555 1_555
H30 C24 1_555 1_555
H31 C24 1_555 1_555
H32 C24 1_555 1_555
C25 C10 1_555 1_555
H33 C25 1_555 1_555
H34 C25 1_555 1_555
H35 C25 1_555 1_555
C26 C8 1_555 1_555
H36 C26 1_555 1_555
H37 C26 1_555 1_555
H38 C26 1_555 1_555
C27 C14 1_555 1_555
H39 C27 1_555 1_555
H40 C27 1_555 1_555
H41 C27 1_555 1_555
C28 C17 1_555 1_555
H42 C28 1_555 1_555
H43 C28 1_555 1_555
C29 C20 1_555 1_555
H44 C29 1_555 1_555
H45 C29 1_555 1_555
C30 C20 1_555 1_555
H46 C30 1_555 1_555
H47 C30 1_555 1_555
H48 C30 1_555 1_555
O1 C3 1_555 1_555
O2 S1 1_555 1_555
O3 S1 1_555 1_555
S1 O1 1_555 1_555
C31 S1 1_555 1_555
C32 C31 1_555 1_555
H49 C32 1_555 1_555
C33 C32 1_555 1_555
H50 C33 1_555 1_555
C34 C33 1_555 1_555
C35 C34 1_555 1_555
H51 C35 1_555 1_555
C36 C31 1_555 1_555
H52 C36 1_555 1_555
C37 C34 1_555 1_555
H53 C37 1_555 1_555
H54 C37 1_555 1_555
H55 C37 1_555 1_555
O4 C28 1_555 1_555
O5 S2 1_555 1_555
O6 S2 1_555 1_555
S2 O4 1_555 1_555
C38 S2 1_555 1_555
C39 C38 1_555 1_555
H56 C39 1_555 1_555
C40 C39 1_555 1_555
H57 C40 1_555 1_555
C41 C40 1_555 1_555
C42 C41 1_555 1_555
H58 C42 1_555 1_555
C43 C38 1_555 1_555
H59 C43 1_555 1_555
C44 C41 1_555 1_555
H60 C44 1_555 1_555
H61 C44 1_555 1_555
H62 C44 1_555 1_555
C5 C10 1_555 1_555
C9 C10 1_555 1_555
C13 C14 1_555 1_555
C17 C18 1_555 1_555
C21 C22 1_555 1_555
C35 C36 1_555 1_555
C42 C43 1_555 1_555

#END
