
#######################################################################
#
#                 Cambridge Crystallographic Data Centre
#                                CCDC 
#
#######################################################################
#
# If this CIF has been generated from an entry in the Cambridge 
# Structural Database, then it will include bibliographic, chemical, 
# crystal, experimental, refinement or atomic coordinate data resulting 
# from the CCDC's data processing and validation procedures.
#
#######################################################################

data_TOMJAI
_chemical_formula_moiety         'C24 H21 Cl1 N4 O3'
_chemical_name_systematic        
2-((4-Chlorophenyl)amino)-3-(2-((4-hydroxy-3-methoxybenzylidene)amino)ethyl)quinazolin-4(3H)-one
_symmetry_cell_setting           monoclinic
_symmetry_space_group_name_H-M   'P 21/c'
_symmetry_Int_Tables_number      14
_space_group_name_Hall           '-P 2ybc'
loop_
_symmetry_equiv_pos_site_id
_symmetry_equiv_pos_as_xyz
1 x,y,z
2 -x,1/2+y,1/2-z
3 -x,-y,-z
4 x,1/2-y,1/2+z
_cell_length_a                   8.0890(12)
_cell_length_b                   12.6753(19)
_cell_length_c                   21.141(3)
_cell_angle_alpha                90
_cell_angle_beta                 93.923(2)
_cell_angle_gamma                90
_cell_volume                     2162.52
_cell_formula_units_Z            4
loop_
_atom_site_label
_atom_site_type_symbol
_atom_site_fract_x
_atom_site_fract_y
_atom_site_fract_z
C1 C 0.7826(2) 0.64950(13) 0.98044(7)
C2 C 0.8993(3) 0.62759(15) 0.93846(9)
H1 H 0.9463 0.5607 0.9374
C3 C 0.9469(2) 0.70526(15) 0.89756(8)
H2 H 1.0271 0.6906 0.8693
C4 C 0.8764(2) 0.80478(13) 0.89824(7)
C5 C 0.7589(2) 0.82578(14) 0.94142(9)
H3 H 0.7112 0.8924 0.9428
C6 C 0.7127(2) 0.74791(14) 0.98234(8)
H4 H 0.6340 0.7622 1.0112
C7 C 0.8946(2) 0.98374(13) 0.85166(7)
C8 C 0.86644(19) 1.14201(13) 0.78732(7)
C9 C 0.7996(2) 1.19059(13) 0.84239(8)
C10 C 0.8077(2) 1.13429(14) 0.89911(8)
C11 C 0.7647(3) 1.18604(17) 0.95446(10)
H5 H 0.7742 1.1510 0.9932
C12 C 0.7089(3) 1.28801(18) 0.95130(12)
H6 H 0.6820 1.3219 0.9883
C13 C 0.6916(3) 1.34201(16) 0.89396(11)
H7 H 0.6492 1.4102 0.8924
C14 C 0.7376(2) 1.29379(14) 0.83980(10)
H8 H 0.7277 1.3296 0.8013
C15 C 1.00647(19) 0.99098(13) 0.74320(7)
H9 H 1.0728 0.9323 0.7600
H10 H 1.0817 1.0439 0.7286
C16 C 0.89618(19) 0.95247(11) 0.68694(7)
H11 H 0.8251 1.0097 0.6713
H12 H 0.9646 0.9315 0.6532
C17 C 0.79629(18) 0.78147(11) 0.66924(7)
H13 H 0.8590 0.7838 0.6340
C18 C 0.70732(18) 0.68400(11) 0.68103(7)
C19 C 0.62654(17) 0.66997(11) 0.73691(7)
H14 H 0.6285 0.7236 0.7669
C20 C 0.54416(17) 0.57722(11) 0.74777(7)
C21 C 0.53814(19) 0.49645(11) 0.70226(7)
C22 C 0.6205(2) 0.50960(13) 0.64765(8)
H15 H 0.6193 0.4557 0.6178
C23 C 0.7050(2) 0.60239(12) 0.63705(8)
H16 H 0.7605 0.6101 0.6002
C24 C 0.4663(3) 0.63551(15) 0.84834(8)
H17 H 0.5789 0.6513 0.8625
H18 H 0.4076 0.6113 0.8835
H19 H 0.4139 0.6979 0.8308
Cl1 Cl 0.71626(7) 0.55112(4) 1.03043(2)
N1 N 0.92314(19) 0.87737(11) 0.85177(6)
H20 H 0.9742 0.8522 0.8207
N2 N 0.91503(16) 1.03642(10) 0.79471(6)
N3 N 0.8519(2) 1.02957(12) 0.90257(7)
N4 N 0.79394(15) 0.86332(9) 0.70384(6)
O1 O 0.88635(16) 1.18845(10) 0.73757(6)
O2 O 0.46417(15) 0.55532(9) 0.80104(5)
O3 O 0.45752(15) 0.40443(9) 0.71080(6)
H21 H 0.4024 0.4094 0.7418
loop_
_geom_bond_atom_site_label_1
_geom_bond_atom_site_label_2
_geom_bond_site_symmetry_1
_geom_bond_site_symmetry_2
C1 C2 1_555 1_555
C2 H1 1_555 1_555
C3 C2 1_555 1_555
H2 C3 1_555 1_555
C4 C3 1_555 1_555
C5 C4 1_555 1_555
H3 C5 1_555 1_555
C6 C1 1_555 1_555
H4 C6 1_555 1_555
C7 N1 1_555 1_555
C8 C9 1_555 1_555
C9 C10 1_555 1_555
C10 C11 1_555 1_555
C11 H5 1_555 1_555
C12 C11 1_555 1_555
H6 C12 1_555 1_555
C13 C12 1_555 1_555
H7 C13 1_555 1_555
C14 C9 1_555 1_555
H8 C14 1_555 1_555
C15 H9 1_555 1_555
H10 C15 1_555 1_555
C16 C15 1_555 1_555
H11 C16 1_555 1_555
H12 C16 1_555 1_555
C17 H13 1_555 1_555
C18 C17 1_555 1_555
C19 C18 1_555 1_555
H14 C19 1_555 1_555
C20 C19 1_555 1_555
C21 C20 1_555 1_555
C22 C21 1_555 1_555
H15 C22 1_555 1_555
C23 C18 1_555 1_555
H16 C23 1_555 1_555
C24 H17 1_555 1_555
H18 C24 1_555 1_555
H19 C24 1_555 1_555
Cl1 C1 1_555 1_555
N1 C4 1_555 1_555
H20 N1 1_555 1_555
N2 C7 1_555 1_555
N3 C7 1_555 1_555
N4 C16 1_555 1_555
O1 C8 1_555 1_555
O2 C20 1_555 1_555
O3 C21 1_555 1_555
H21 O3 1_555 1_555
C5 C6 1_555 1_555
C8 N2 1_555 1_555
C10 N3 1_555 1_555
C13 C14 1_555 1_555
C15 N2 1_555 1_555
C17 N4 1_555 1_555
C22 C23 1_555 1_555
C24 O2 1_555 1_555

#END
