
#######################################################################
#
#                 Cambridge Crystallographic Data Centre
#                                CCDC 
#
#######################################################################
#
# If this CIF has been generated from an entry in the Cambridge 
# Structural Database, then it will include bibliographic, chemical, 
# crystal, experimental, refinement or atomic coordinate data resulting 
# from the CCDC's data processing and validation procedures.
#
#######################################################################

data_TOMLEO
_chemical_formula_moiety         'C22 H15 N1 O3'
_chemical_name_systematic        
1-(2-(Hydroxymethyl)naphtho[2,1-d][1,3]oxazol-5-yl)-2-naphthol
_symmetry_cell_setting           triclinic
_symmetry_space_group_name_H-M   'P -1'
_symmetry_Int_Tables_number      2
_space_group_name_Hall           '-P 1'
loop_
_symmetry_equiv_pos_site_id
_symmetry_equiv_pos_as_xyz
1 x,y,z
2 -x,-y,-z
_cell_length_a                   6.2828(14)
_cell_length_b                   11.395(3)
_cell_length_c                   12.472(3)
_cell_angle_alpha                67.836(4)
_cell_angle_beta                 79.579(4)
_cell_angle_gamma                83.773(4)
_cell_volume                     812.49
_cell_formula_units_Z            2
loop_
_atom_site_label
_atom_site_type_symbol
_atom_site_fract_x
_atom_site_fract_y
_atom_site_fract_z
C1 C 0.3160(3) 1.01491(16) 0.34302(16)
C2 C 0.3534(3) 1.13710(18) 0.33851(17)
H1 H 0.4570 1.1470 0.3809
C3 C 0.2413(3) 1.23977(18) 0.27373(17)
H2 H 0.2683 1.3213 0.2710
C4 C 0.0842(3) 1.22866(16) 0.20971(15)
C5 C -0.0371(3) 1.33451(17) 0.14249(16)
H3 H -0.0131 1.4167 0.1393
C6 C -0.1876(3) 1.32076(17) 0.08233(16)
H4 H -0.2689 1.3927 0.0387
C7 C -0.2217(3) 1.19936(17) 0.08525(16)
H5 H -0.3254 1.1898 0.0426
C8 C -0.1069(3) 1.09487(16) 0.14902(15)
H6 H -0.1316 1.0139 0.1496
C9 C 0.0477(3) 1.10533(15) 0.21401(14)
C10 C 0.1687(3) 0.99774(16) 0.28152(15)
C11 C 0.1386(3) 0.86740(16) 0.28536(15)
C12 C 0.3063(3) 0.81012(16) 0.22199(14)
C13 C 0.4942(3) 0.87466(17) 0.15458(15)
H7 H 0.5081 0.9597 0.1469
C14 C 0.6563(3) 0.81667(19) 0.10015(16)
H8 H 0.7814 0.8618 0.0561
C15 C 0.6401(3) 0.69151(18) 0.10863(16)
H9 H 0.7550 0.6520 0.0717
C16 C 0.4592(3) 0.62651(17) 0.17004(15)
H10 H 0.4472 0.5424 0.1743
C17 C 0.2898(3) 0.68415(16) 0.22719(14)
C18 C 0.0988(3) 0.62622(15) 0.29353(15)
C19 C -0.0590(3) 0.67914(16) 0.35433(15)
C20 C -0.0408(3) 0.80278(16) 0.35100(15)
H11 H -0.1500 0.8402 0.3931
C21 C -0.1539(3) 0.49431(17) 0.38213(15)
C22 C -0.2649(3) 0.37500(18) 0.41086(17)
H12 H -0.3672 0.3899 0.3548
H13 H -0.1556 0.3090 0.4008
N1 N -0.2210(2) 0.59064(14) 0.41208(13)
O1 O 0.4383(2) 0.91813(12) 0.40994(12)
H14 H 0.3914 0.8484 0.4183
O2 O -0.3767(2) 0.33061(12) 0.52294(12)
H15 H -0.4974 0.3701 0.5250
O3 O 0.0397(2) 0.50669(11) 0.31075(11)
loop_
_geom_bond_atom_site_label_1
_geom_bond_atom_site_label_2
_geom_bond_site_symmetry_1
_geom_bond_site_symmetry_2
C1 C2 1_555 1_555
C2 H1 1_555 1_555
C3 C2 1_555 1_555
H2 C3 1_555 1_555
C4 C3 1_555 1_555
C5 C4 1_555 1_555
H3 C5 1_555 1_555
C6 C5 1_555 1_555
H4 C6 1_555 1_555
C7 C6 1_555 1_555
H5 C7 1_555 1_555
C8 C7 1_555 1_555
H6 C8 1_555 1_555
C9 C4 1_555 1_555
C10 C1 1_555 1_555
C11 C10 1_555 1_555
C12 C11 1_555 1_555
C13 C12 1_555 1_555
H7 C13 1_555 1_555
C14 C13 1_555 1_555
H8 C14 1_555 1_555
C15 C14 1_555 1_555
H9 C15 1_555 1_555
C16 C15 1_555 1_555
H10 C16 1_555 1_555
C17 C12 1_555 1_555
C18 C17 1_555 1_555
C19 C18 1_555 1_555
C20 C11 1_555 1_555
H11 C20 1_555 1_555
C21 C22 1_555 1_555
C22 H12 1_555 1_555
H13 C22 1_555 1_555
N1 C19 1_555 1_555
O1 C1 1_555 1_555
H14 O1 1_555 1_555
O2 C22 1_555 1_555
H15 O2 1_555 1_555
O3 C18 1_555 1_555
C8 C9 1_555 1_555
C9 C10 1_555 1_555
C16 C17 1_555 1_555
C19 C20 1_555 1_555
C21 N1 1_555 1_555
C21 O3 1_555 1_555

#END
