
#######################################################################
#
#                 Cambridge Crystallographic Data Centre
#                                CCDC 
#
#######################################################################
#
# If this CIF has been generated from an entry in the Cambridge 
# Structural Database, then it will include bibliographic, chemical, 
# crystal, experimental, refinement or atomic coordinate data resulting 
# from the CCDC's data processing and validation procedures.
#
#######################################################################

data_TOMNIU
_chemical_formula_moiety         'C38 H34 N2 O4'
_chemical_name_systematic        
'Methyl 4-benzyl-3-(1-benzyl-1H-indol-3-yl)-1-(2-methoxy-2-oxoethyl)-1,2,3,4-tetrahydrocyclopenta[b]indole-2-carboxylate'
_symmetry_cell_setting           triclinic
_symmetry_space_group_name_H-M   'P -1'
_symmetry_Int_Tables_number      2
_space_group_name_Hall           '-P 1'
loop_
_symmetry_equiv_pos_site_id
_symmetry_equiv_pos_as_xyz
1 x,y,z
2 -x,-y,-z
_cell_length_a                   10.483(5)
_cell_length_b                   12.939(5)
_cell_length_c                   13.291(5)
_cell_angle_alpha                80.068(5)
_cell_angle_beta                 73.352(5)
_cell_angle_gamma                68.397(5)
_cell_volume                     1601.34
_exptl_crystal_colour            colorless
_exptl_crystal_description       block
_cell_formula_units_Z            2
loop_
_atom_site_label
_atom_site_type_symbol
_atom_site_fract_x
_atom_site_fract_y
_atom_site_fract_z
O1 O 0.14506(14) 0.67565(11) 0.98494(12)
O2 O 0.21453(17) 0.50189(13) 1.17856(12)
O3 O 0.00713(15) 0.50382(13) 1.16156(11)
N1 N 0.42343(15) 0.16077(12) 0.91493(11)
N2 N 0.34476(18) 0.17695(14) 1.27991(13)
C1 C 0.34908(18) 0.26518(14) 0.95138(13)
C2 C 0.29428(18) 0.06914(14) 0.84960(14)
C3 C 0.3702(2) 0.06913(15) 0.93003(14)
H1 H 0.3061 0.0710 0.9993
H2 H 0.4491 -0.0003 0.9289
C4 C 0.24272(18) 0.25024(14) 1.14421(14)
O4 O 0.33938(18) 0.71827(14) 0.92631(18)
C5 C 0.35018(18) 0.44497(14) 0.96108(14)
H3 H 0.4021 0.4476 1.0108
C6 C 0.3398(2) 0.54704(16) 0.88110(16)
H4 H 0.4335 0.5402 0.8370
H5 H 0.2813 0.5476 0.8360
C7 C 0.20435(18) 0.43459(14) 1.02371(14)
H6 H 0.1359 0.4733 0.9809
C8 C 0.22037(18) 0.30655(14) 1.03837(13)
H7 H 0.1390 0.2965 1.0244
C9 C 0.1476(2) 0.48403(15) 1.12858(16)
C10 C 0.54810(19) 0.16698(15) 0.84486(14)
C11 C 0.2787(2) 0.65593(16) 0.93154(16)
C12 C 0.55100(18) 0.27658(15) 0.84106(14)
C13 C 0.42156(18) 0.33591(14) 0.91064(13)
C14 C 0.1385(2) 0.22766(15) 1.23297(14)
C15 C 0.3642(2) 0.21901(15) 1.17659(15)
H8 H 0.4492 0.2253 1.1345
C16 C 0.6689(2) 0.30167(17) 0.77727(15)
H9 H 0.6736 0.3727 0.7732
C17 C 0.7781(2) 0.21948(19) 0.72056(17)
H10 H 0.8572 0.2355 0.6782
C18 C 0.2914(2) 0.14065(17) 0.75988(15)
H11 H 0.3363 0.1932 0.7478
C19 C 0.2054(2) 0.18258(17) 1.31659(15)
C20 C -0.0041(2) 0.24081(19) 1.25022(17)
H12 H -0.0509 0.2707 1.1965
C21 C 0.2262(2) -0.00803(17) 0.86605(17)
H13 H 0.2268 -0.0569 0.9262
C22 C 0.4398(2) 0.2287(2) 1.40828(17)
C23 C 0.6577(2) 0.08526(17) 0.78662(16)
H14 H 0.6537 0.0142 0.7889
C24 C 0.7724(2) 0.11241(19) 0.72541(17)
H15 H 0.8478 0.0585 0.6864
C25 C 0.0773(2) 0.77341(18) 1.04361(19)
H16 H 0.1418 0.7807 1.0784
H17 H -0.0052 0.7665 1.0951
H18 H 0.0502 0.8382 0.9964
C26 C 0.1558(2) 0.0584(2) 0.70437(19)
H19 H 0.1098 0.0547 0.6555
C27 C 0.2226(2) 0.1350(2) 0.68782(17)
H20 H 0.2217 0.1837 0.6275
C28 C -0.0744(3) 0.2088(2) 1.3481(2)
H21 H -0.1695 0.2172 1.3603
C29 C 0.4498(3) 0.1422(2) 1.34162(19)
H22 H 0.5431 0.1205 1.2940
H23 H 0.4408 0.0768 1.3871
C30 C 0.1346(3) 0.1499(2) 1.41452(17)
H24 H 0.1805 0.1195 1.4686
C31 C 0.1571(3) -0.0128(2) 0.7933(2)
H25 H 0.1114 -0.0648 0.8049
C32 C -0.0051(3) 0.1639(3) 1.4292(2)
H26 H -0.0550 0.1430 1.4946
C33 C 0.5183(3) 0.1970(3) 1.4830(2)
H27 H 0.5747 0.1230 1.4917
C34 C 0.3576(3) 0.3383(3) 1.3970(2)
H28 H 0.3049 0.3611 1.3466
C35 C 0.5136(4) 0.2742(4) 1.5449(2)
H29 H 0.5672 0.2520 1.5947
C36 C -0.0592(3) 0.5398(3) 1.2669(2)
H30 H -0.0223 0.4814 1.3169
H31 H -0.1595 0.5569 1.2806
H32 H -0.0397 0.6051 1.2731
C37 C 0.4302(5) 0.3835(4) 1.5334(3)
H33 H 0.4269 0.4354 1.5754
C38 C 0.3523(4) 0.4159(3) 1.4604(3)
H34 H 0.2953 0.4899 1.4526
loop_
_geom_bond_atom_site_label_1
_geom_bond_atom_site_label_2
_geom_bond_site_symmetry_1
_geom_bond_site_symmetry_2
O1 C11 1_555 1_555
O2 C9 1_555 1_555
O3 C9 1_555 1_555
N1 C1 1_555 1_555
N2 C15 1_555 1_555
C1 C8 1_555 1_555
C2 C3 1_555 1_555
C3 N1 1_555 1_555
H1 C3 1_555 1_555
H2 C3 1_555 1_555
C4 C8 1_555 1_555
O4 C11 1_555 1_555
C5 H3 1_555 1_555
C6 C5 1_555 1_555
H4 C6 1_555 1_555
H5 C6 1_555 1_555
C7 C5 1_555 1_555
H6 C7 1_555 1_555
C8 C7 1_555 1_555
H7 C8 1_555 1_555
C9 C7 1_555 1_555
C10 N1 1_555 1_555
C11 C6 1_555 1_555
C12 C10 1_555 1_555
C13 C1 1_555 1_555
C14 C4 1_555 1_555
C15 C4 1_555 1_555
H8 C15 1_555 1_555
C16 C12 1_555 1_555
H9 C16 1_555 1_555
C17 C16 1_555 1_555
H10 C17 1_555 1_555
C18 C2 1_555 1_555
H11 C18 1_555 1_555
C19 N2 1_555 1_555
C20 C14 1_555 1_555
H12 C20 1_555 1_555
C21 C2 1_555 1_555
H13 C21 1_555 1_555
C22 C29 1_555 1_555
C23 C10 1_555 1_555
H14 C23 1_555 1_555
C24 C17 1_555 1_555
H15 C24 1_555 1_555
C25 O1 1_555 1_555
H16 C25 1_555 1_555
H17 C25 1_555 1_555
H18 C25 1_555 1_555
C26 H19 1_555 1_555
C27 C18 1_555 1_555
H20 C27 1_555 1_555
C28 C20 1_555 1_555
H21 C28 1_555 1_555
C29 N2 1_555 1_555
H22 C29 1_555 1_555
H23 C29 1_555 1_555
C30 C19 1_555 1_555
H24 C30 1_555 1_555
C31 C21 1_555 1_555
H25 C31 1_555 1_555
C32 C28 1_555 1_555
H26 C32 1_555 1_555
C33 C22 1_555 1_555
H27 C33 1_555 1_555
C34 C22 1_555 1_555
H28 C34 1_555 1_555
C35 C33 1_555 1_555
H29 C35 1_555 1_555
C36 O3 1_555 1_555
H30 C36 1_555 1_555
H31 C36 1_555 1_555
H32 C36 1_555 1_555
C37 C35 1_555 1_555
H33 C37 1_555 1_555
C38 C34 1_555 1_555
H34 C38 1_555 1_555
C5 C13 1_555 1_555
C12 C13 1_555 1_555
C14 C19 1_555 1_555
C23 C24 1_555 1_555
C26 C27 1_555 1_555
C26 C31 1_555 1_555
C30 C32 1_555 1_555
C37 C38 1_555 1_555

#END
