
#######################################################################
#
#                 Cambridge Crystallographic Data Centre
#                                CCDC 
#
#######################################################################
#
# If this CIF has been generated from an entry in the Cambridge 
# Structural Database, then it will include bibliographic, chemical, 
# crystal, experimental, refinement or atomic coordinate data resulting 
# from the CCDC's data processing and validation procedures.
#
#######################################################################

data_TOMPOB
_chemical_name_common            
6,13-bis(2-(Di-isopropyl(4-((dimethyl(t-butyl)siloxy)methyl)phenyl)silyl)ethynyl)pentacene
_chemical_formula_moiety         'C64 H82 O2 Si4'
_chemical_name_systematic        
(6,13-Pentacenediyldi-2,1-ethynediyl)bis((4-((dimethyl(t-butyl)siloxy)methyl)phenyl)(di-2-propanyl)silane)
_symmetry_cell_setting           triclinic
_symmetry_space_group_name_H-M   'P -1'
_symmetry_Int_Tables_number      2
_space_group_name_Hall           '-P 1'
loop_
_symmetry_equiv_pos_site_id
_symmetry_equiv_pos_as_xyz
1 x,y,z
2 -x,-y,-z
_cell_length_a                   7.3144(7)
_cell_length_b                   7.8444(8)
_cell_length_c                   26.168(3)
_cell_angle_alpha                89.717(2)
_cell_angle_beta                 83.279(2)
_cell_angle_gamma                86.803(2)
_cell_volume                     1488.8
_exptl_crystal_colour            blue
_exptl_crystal_description       plate
_cell_formula_units_Z            1
_exptl_crystal_recrystallization_method acetone/dichloromethane
loop_
_atom_site_label
_atom_site_type_symbol
_atom_site_fract_x
_atom_site_fract_y
_atom_site_fract_z
Si1 Si 0.55822(16) 0.29086(17) 0.20298(5)
C1 C 0.4983(5) 0.0597(5) 0.05156(14)
C2 C 0.3481(5) 0.1052(5) 0.02334(14)
C3 C 0.1939(5) 0.2064(5) 0.04565(15)
H1 H 0.1912 0.2457 0.0800
C4 C 0.0460(5) 0.2497(5) 0.01843(15)
C5 C -0.1124(5) 0.3520(5) 0.04081(17)
H2 H -0.1182 0.3903 0.0754
C6 C -0.2526(6) 0.3939(5) 0.01324(17)
H3 H -0.3561 0.4614 0.0286
C7 C -0.2480(6) 0.3391(5) -0.03819(18)
H4 H -0.3482 0.3705 -0.0570
C8 C -0.1021(5) 0.2420(5) -0.06113(16)
H5 H -0.1014 0.2057 -0.0957
C9 C 0.0503(5) 0.1941(5) -0.03367(15)
C10 C 0.2015(5) 0.0933(5) -0.05571(15)
H6 H 0.2034 0.0553 -0.0902
C11 C 0.3513(5) 0.0458(4) -0.02869(15)
C12 C 0.5016(5) 0.1263(5) 0.10186(16)
C13 C 0.5129(5) 0.1870(5) 0.14392(16)
C14 C 0.4921(7) 0.5265(6) 0.19830(18)
H7 H 0.5079 0.5793 0.2321
C15 C 0.2904(8) 0.5570(7) 0.1901(2)
H8 H 0.2601 0.6801 0.1884
H9 H 0.2124 0.5074 0.2187
H10 H 0.2687 0.5033 0.1577
C16 C 0.6164(9) 0.6163(7) 0.1571(2)
H11 H 0.5782 0.7380 0.1567
H12 H 0.6065 0.5660 0.1234
H13 H 0.7444 0.6028 0.1648
C17 C 0.8102(7) 0.2481(8) 0.2097(2)
H14 H 0.8806 0.3086 0.1806
C18 C 0.8626(7) 0.3211(8) 0.2587(2)
H15 H 0.9939 0.2940 0.2609
H16 H 0.7893 0.2714 0.2882
H17 H 0.8388 0.4452 0.2588
C19 C 0.8694(9) 0.0605(10) 0.2041(3)
H18 H 1.0009 0.0443 0.2079
H19 H 0.8476 0.0203 0.1700
H20 H 0.7980 -0.0047 0.2307
Si2 Si -0.1899(9) -0.1721(9) 0.3955(3)
O1 O 0.0238(12) -0.1118(14) 0.3966(5)
C20 C 0.419(6) 0.216(3) 0.2624(7)
C21 C 0.3621(18) 0.3196(17) 0.3049(4)
H21 H 0.3984 0.4341 0.3042
C22 C 0.2550(15) 0.2639(16) 0.3481(4)
H22 H 0.2263 0.3382 0.3769
C23 C 0.1909(18) 0.1066(19) 0.3502(5)
C24 C 0.2336(19) -0.0013(17) 0.3071(5)
H23 H 0.1891 -0.1129 0.3077
C25 C 0.342(4) 0.056(2) 0.2633(6)
H24 H 0.3631 -0.0150 0.2337
C26 C 0.0758(18) 0.0457(19) 0.3977(4)
H25 H 0.1469 0.0567 0.4274
H26 H -0.0361 0.1231 0.4041
C27 C -0.256(3) -0.1831(18) 0.3304(5)
H27 H -0.2091 -0.2924 0.3146
H28 H -0.2035 -0.0893 0.3098
H29 H -0.3906 -0.1737 0.3320
C28 C -0.351(2) -0.013(2) 0.4417(5)
H30 H -0.3785 0.0924 0.4229
H31 H -0.2879 0.0148 0.4714
H32 H -0.4662 -0.0663 0.4535
C29 C -0.2027(15) -0.3608(18) 0.4261(4)
C30 C -0.180(3) -0.3529(19) 0.4868(5)
H33 H -0.1860 -0.4680 0.5014
H34 H -0.2801 -0.2786 0.5044
H35 H -0.0612 -0.3072 0.4914
C31 C -0.404(2) -0.438(2) 0.4270(7)
H36 H -0.4099 -0.5393 0.4490
H37 H -0.4236 -0.4695 0.3920
H38 H -0.4990 -0.3518 0.4405
C32 C -0.048(2) -0.4908(16) 0.3957(7)
H39 H -0.0393 -0.5976 0.4151
H40 H 0.0713 -0.4388 0.3920
H41 H -0.0832 -0.5148 0.3615
Si1A Si 0.44178(16) -0.29086(17) -0.20298(5)
C1A C 0.5017(5) -0.0597(5) -0.05156(14)
C2A C 0.6519(5) -0.1052(5) -0.02334(14)
C3A C 0.8061(5) -0.2064(5) -0.04565(15)
H1A H 0.8088 -0.2457 -0.0800
C4A C 0.9540(5) -0.2497(5) -0.01843(15)
C5A C 1.1124(5) -0.3520(5) -0.04081(17)
H2A H 1.1182 -0.3903 -0.0754
C6A C 1.2526(6) -0.3939(5) -0.01324(17)
H3A H 1.3561 -0.4614 -0.0286
C7A C 1.2480(6) -0.3391(5) 0.03819(18)
H4A H 1.3482 -0.3705 0.0570
C8A C 1.1021(5) -0.2420(5) 0.06113(16)
H5A H 1.1014 -0.2057 0.0957
C9A C 0.9497(5) -0.1941(5) 0.03367(15)
C10A C 0.7985(5) -0.0933(5) 0.05571(15)
H6A H 0.7966 -0.0553 0.0902
C11A C 0.6487(5) -0.0458(4) 0.02869(15)
C12A C 0.4984(5) -0.1263(5) -0.10186(16)
C13A C 0.4871(5) -0.1870(5) -0.14392(16)
C14A C 0.5079(7) -0.5265(6) -0.19830(18)
H7A H 0.4921 -0.5793 -0.2321
C15A C 0.7096(8) -0.5570(7) -0.1901(2)
H8A H 0.7399 -0.6801 -0.1884
H9A H 0.7876 -0.5074 -0.2187
H10A H 0.7313 -0.5033 -0.1577
C16A C 0.3836(9) -0.6163(7) -0.1571(2)
H11A H 0.4218 -0.7380 -0.1567
H12A H 0.3935 -0.5660 -0.1234
H13A H 0.2556 -0.6028 -0.1648
C17A C 0.1898(7) -0.2481(8) -0.2097(2)
H14A H 0.1194 -0.3086 -0.1806
C18A C 0.1374(7) -0.3211(8) -0.2587(2)
H15A H 0.0061 -0.2940 -0.2609
H16A H 0.2107 -0.2714 -0.2882
H17A H 0.1612 -0.4452 -0.2588
C19A C 0.1306(9) -0.0605(10) -0.2041(3)
H18A H -0.0009 -0.0443 -0.2079
H19A H 0.1524 -0.0203 -0.1700
H20A H 0.2020 0.0047 -0.2307
Si2A Si 1.1899(9) 0.1721(9) -0.3955(3)
O1A O 0.9762(12) 0.1118(14) -0.3966(5)
C20A C 0.581(6) -0.216(3) -0.2624(7)
C21A C 0.6379(18) -0.3196(17) -0.3049(4)
H21A H 0.6016 -0.4341 -0.3042
C22A C 0.7450(15) -0.2639(16) -0.3481(4)
H22A H 0.7737 -0.3382 -0.3769
C23A C 0.8091(18) -0.1066(19) -0.3502(5)
C24A C 0.7664(19) 0.0013(17) -0.3071(5)
H23A H 0.8109 0.1129 -0.3077
C25A C 0.658(4) -0.056(2) -0.2633(6)
H24A H 0.6369 0.0150 -0.2337
C26A C 0.9242(18) -0.0457(19) -0.3977(4)
H25A H 0.8531 -0.0567 -0.4274
H26A H 1.0361 -0.1231 -0.4041
C27A C 1.256(3) 0.1831(18) -0.3304(5)
H27A H 1.2091 0.2924 -0.3146
H28A H 1.2035 0.0893 -0.3098
H29A H 1.3906 0.1737 -0.3320
C28A C 1.351(2) 0.013(2) -0.4417(5)
H30A H 1.3785 -0.0924 -0.4229
H31A H 1.2879 -0.0148 -0.4714
H32A H 1.4662 0.0663 -0.4535
C29A C 1.2027(15) 0.3608(18) -0.4261(4)
C30A C 1.180(3) 0.3529(19) -0.4868(5)
H33A H 1.1860 0.4680 -0.5014
H34A H 1.2801 0.2786 -0.5044
H35A H 1.0612 0.3072 -0.4914
C31A C 1.404(2) 0.438(2) -0.4270(7)
H36A H 1.4099 0.5393 -0.4490
H37A H 1.4236 0.4695 -0.3920
H38A H 1.4990 0.3518 -0.4405
C32A C 1.048(2) 0.4908(16) -0.3957(7)
H39A H 1.0393 0.5976 -0.4151
H40A H 0.9287 0.4388 -0.3920
H41A H 1.0832 0.5148 -0.3615
C33? C 0.415(4) 0.180(3) 0.2560(6)
C34? C 0.393(2) 0.2459(17) 0.3057(5)
C35? C 0.2991(17) 0.1655(19) 0.3471(4)
C36? C 0.2379(18) 0.009(2) 0.3423(4)
C37? C 0.2696(19) -0.0724(18) 0.2940(5)
C38? C 0.358(4) 0.012(2) 0.2517(5)
C39? C 0.1503(17) -0.085(2) 0.3886(5)
C40? C -0.319(2) 0.0517(16) 0.4082(6)
C41? C -0.164(2) -0.217(2) 0.4868(4)
C42? C -0.3186(18) -0.3170(17) 0.3953(4)
C43? C -0.227(3) -0.5062(16) 0.4034(7)
C44? C -0.5188(18) -0.328(2) 0.4284(7)
C45? C -0.344(3) -0.2814(17) 0.3355(5)
H42? H 0.4454 0.3513 0.3115
H43? H 0.2774 0.2221 0.3794
H44? H 0.2307 -0.1847 0.2900
H45? H 0.3807 -0.0443 0.2194
H46? H 0.2457 -0.1635 0.4012
H47? H 0.1105 -0.0002 0.4162
H48? H -0.3341 0.0718 0.3719
H49? H -0.2454 0.1408 0.4203
H50? H -0.4397 0.0544 0.4286
H51? H -0.0918 -0.1310 0.5010
H52? H -0.0971 -0.3292 0.4874
H53? H -0.2838 -0.2217 0.5075
H54? H -0.3059 -0.5916 0.3918
H55? H -0.2146 -0.5239 0.4400
H56? H -0.1050 -0.5177 0.3834
H57? H -0.5832 -0.4219 0.4156
H58? H -0.5913 -0.2201 0.4251
H59? H -0.5032 -0.3472 0.4647
H60? H -0.4159 -0.3709 0.3228
H61? H -0.2231 -0.2816 0.3151
H62? H -0.4098 -0.1701 0.3324
O2? O 0.0081(14) -0.1735(12) 0.3814(5)
Si3? Si -0.1998(10) -0.1568(8) 0.4149(3)
loop_
_geom_bond_atom_site_label_1
_geom_bond_atom_site_label_2
_geom_bond_site_symmetry_1
_geom_bond_site_symmetry_2
Si1 C13 1_555 1_555
C1 C2 1_555 1_555
C2 C3 1_555 1_555
C3 H1 1_555 1_555
C4 C3 1_555 1_555
C5 C4 1_555 1_555
H2 C5 1_555 1_555
C6 C5 1_555 1_555
H3 C6 1_555 1_555
C7 C6 1_555 1_555
H4 C7 1_555 1_555
C8 C7 1_555 1_555
H5 C8 1_555 1_555
C9 C4 1_555 1_555
C10 C9 1_555 1_555
H6 C10 1_555 1_555
C11 C2 1_555 1_555
C12 C1 1_555 1_555
C13 C12 1_555 1_555
C14 Si1 1_555 1_555
H7 C14 1_555 1_555
C15 C14 1_555 1_555
H8 C15 1_555 1_555
H9 C15 1_555 1_555
H10 C15 1_555 1_555
C16 C14 1_555 1_555
H11 C16 1_555 1_555
H12 C16 1_555 1_555
H13 C16 1_555 1_555
C17 Si1 1_555 1_555
H14 C17 1_555 1_555
C18 C17 1_555 1_555
H15 C18 1_555 1_555
H16 C18 1_555 1_555
H17 C18 1_555 1_555
C19 C17 1_555 1_555
H18 C19 1_555 1_555
H19 C19 1_555 1_555
H20 C19 1_555 1_555
Si2 O1 1_555 1_555
O1 C26 1_555 1_555
C20 Si1 1_555 1_555
C21 C20 1_555 1_555
H21 C21 1_555 1_555
C22 C21 1_555 1_555
H22 C22 1_555 1_555
C23 C22 1_555 1_555
C24 C23 1_555 1_555
H23 C24 1_555 1_555
C25 C20 1_555 1_555
H24 C25 1_555 1_555
C26 C23 1_555 1_555
H25 C26 1_555 1_555
H26 C26 1_555 1_555
C27 Si2 1_555 1_555
H27 C27 1_555 1_555
H28 C27 1_555 1_555
H29 C27 1_555 1_555
C28 Si2 1_555 1_555
H30 C28 1_555 1_555
H31 C28 1_555 1_555
H32 C28 1_555 1_555
C29 Si2 1_555 1_555
C30 C29 1_555 1_555
H33 C30 1_555 1_555
H34 C30 1_555 1_555
H35 C30 1_555 1_555
C31 C29 1_555 1_555
H36 C31 1_555 1_555
H37 C31 1_555 1_555
H38 C31 1_555 1_555
C32 C29 1_555 1_555
H39 C32 1_555 1_555
H40 C32 1_555 1_555
H41 C32 1_555 1_555
Si1A C13A 1_555 1_555
C1A C11 1_555 1_555
C2A C1A 1_555 1_555
C3A C2A 1_555 1_555
H1A C3A 1_555 1_555
C4A C3A 1_555 1_555
C5A C4A 1_555 1_555
H2A C5A 1_555 1_555
C6A C5A 1_555 1_555
H3A C6A 1_555 1_555
C7A C6A 1_555 1_555
H4A C7A 1_555 1_555
C8A C7A 1_555 1_555
H5A C8A 1_555 1_555
C9A C4A 1_555 1_555
C10A C9A 1_555 1_555
H6A C10A 1_555 1_555
C11A C1 1_555 1_555
C12A C1A 1_555 1_555
C13A C12A 1_555 1_555
C14A Si1A 1_555 1_555
H7A C14A 1_555 1_555
C15A C14A 1_555 1_555
H8A C15A 1_555 1_555
H9A C15A 1_555 1_555
H10A C15A 1_555 1_555
C16A C14A 1_555 1_555
H11A C16A 1_555 1_555
H12A C16A 1_555 1_555
H13A C16A 1_555 1_555
C17A Si1A 1_555 1_555
H14A C17A 1_555 1_555
C18A C17A 1_555 1_555
H15A C18A 1_555 1_555
H16A C18A 1_555 1_555
H17A C18A 1_555 1_555
C19A C17A 1_555 1_555
H18A C19A 1_555 1_555
H19A C19A 1_555 1_555
H20A C19A 1_555 1_555
Si2A O1A 1_555 1_555
O1A C26A 1_555 1_555
C20A Si1A 1_555 1_555
C21A C20A 1_555 1_555
H21A C21A 1_555 1_555
C22A C21A 1_555 1_555
H22A C22A 1_555 1_555
C23A C22A 1_555 1_555
C24A C23A 1_555 1_555
H23A C24A 1_555 1_555
C25A C20A 1_555 1_555
H24A C25A 1_555 1_555
C26A C23A 1_555 1_555
H25A C26A 1_555 1_555
H26A C26A 1_555 1_555
C27A Si2A 1_555 1_555
H27A C27A 1_555 1_555
H28A C27A 1_555 1_555
H29A C27A 1_555 1_555
C28A Si2A 1_555 1_555
H30A C28A 1_555 1_555
H31A C28A 1_555 1_555
H32A C28A 1_555 1_555
C29A Si2A 1_555 1_555
C30A C29A 1_555 1_555
H33A C30A 1_555 1_555
H34A C30A 1_555 1_555
H35A C30A 1_555 1_555
C31A C29A 1_555 1_555
H36A C31A 1_555 1_555
H37A C31A 1_555 1_555
H38A C31A 1_555 1_555
C32A C29A 1_555 1_555
H39A C32A 1_555 1_555
H40A C32A 1_555 1_555
H41A C32A 1_555 1_555
C8 C9 1_555 1_555
C10 C11 1_555 1_555
C24 C25 1_555 1_555
C2A C11A 1_555 1_555
C8A C9A 1_555 1_555
C10A C11A 1_555 1_555
C24A C25A 1_555 1_555

#END
