
#######################################################################
#
#                 Cambridge Crystallographic Data Centre
#                                CCDC 
#
#######################################################################
#
# If this CIF has been generated from an entry in the Cambridge 
# Structural Database, then it will include bibliographic, chemical, 
# crystal, experimental, refinement or atomic coordinate data resulting 
# from the CCDC's data processing and validation procedures.
#
#######################################################################

data_TOMPUH
_chemical_formula_moiety         'C76 H38 N2 O9,2(C1 D1 Cl3)'
_chemical_name_systematic        
'16-(hydroxyamino)-13,32,35-tris(t-butylperoxy)-4-(pyrrolidinyl)-3,15:17,18-diepoxy-34H-C60fullerene deuterochloroform solvate'
_symmetry_cell_setting           monoclinic
_symmetry_space_group_name_H-M   'P 21/c'
_symmetry_Int_Tables_number      14
_space_group_name_Hall           '-P 2ybc'
loop_
_symmetry_equiv_pos_site_id
_symmetry_equiv_pos_as_xyz
1 x,y,z
2 -x,1/2+y,1/2-z
3 -x,-y,-z
4 x,1/2-y,1/2+z
_cell_length_a                   16.1755(2)
_cell_length_b                   46.6394(5)
_cell_length_c                   15.4678(2)
_cell_angle_alpha                90
_cell_angle_beta                 102.7592(4)
_cell_angle_gamma                90
_cell_volume                     11381
_exptl_crystal_colour            'deep red'
_exptl_crystal_description       column
_cell_formula_units_Z            8
_exptl_crystal_recrystallization_method deuterochloroform
loop_
_atom_site_label
_atom_site_type_symbol
_atom_site_fract_x
_atom_site_fract_y
_atom_site_fract_z
O1 O 0.2644(2) 0.09754(7) 0.5603(2)
H1 H 0.2348 0.0879 0.5189
O2 O 0.3495(2) 0.17170(7) 0.4827(2)
O3 O 0.2249(2) 0.14930(7) 0.6364(2)
O4 O 0.5560(3) 0.08983(9) 0.6134(3)
O5 O 0.5006(3) 0.08860(9) 0.5245(3)
O6 O 0.2633(3) 0.11960(10) 0.8656(3)
O7 O 0.1862(3) 0.12189(10) 0.7955(3)
O8 O 0.4633(3) 0.07430(9) 0.8515(3)
O9 O 0.4714(3) 0.05847(9) 0.7738(3)
N1 N 0.3168(3) 0.11728(9) 0.5244(3)
H2 H 0.2837(18) 0.1296(5) 0.4860(16)
N2 N 0.2166(3) 0.20237(9) 0.5384(3)
C1 C 0.3659(3) 0.13318(11) 0.5990(3)
C2 C 0.4012(3) 0.15897(11) 0.5602(3)
C3 C 0.3657(3) 0.18888(11) 0.5615(3)
C4 C 0.2943(3) 0.19662(11) 0.6056(3)
C5 C 0.2779(3) 0.17267(11) 0.6686(3)
C6 C 0.3135(3) 0.14366(11) 0.6680(3)
C7 C 0.3465(3) 0.13049(12) 0.7547(3)
C8 C 0.4184(4) 0.11468(12) 0.7510(4)
C9 C 0.4340(3) 0.11248(12) 0.6561(4)
H3 H 0.4170 0.0926 0.6351
C10 C 0.5276(4) 0.11542(13) 0.6540(4)
C11 C 0.5491(4) 0.14260(13) 0.6129(4)
C12 C 0.4945(4) 0.16095(12) 0.5693(3)
C13 C 0.5149(4) 0.19225(16) 0.5671(4)
C14 C 0.4410(4) 0.20902(11) 0.5692(3)
C15 C 0.4443(4) 0.23343(13) 0.6168(4)
C16 C 0.3872(4) 0.23975(13) 0.6704(4)
C17 C 0.3232(4) 0.22179(12) 0.6717(4)
C18 C 0.3040(4) 0.21478(13) 0.7591(4)
C19 C 0.2809(3) 0.18474(12) 0.7600(4)
C20 C 0.3018(4) 0.16919(14) 0.8335(4)
C21 C 0.3239(4) 0.13843(14) 0.8386(4)
C22 C 0.4036(4) 0.13760(14) 0.9176(4)
C23 C 0.4695(4) 0.12167(12) 0.9096(4)
C24 C 0.4783(4) 0.10424(13) 0.8313(4)
C25 C 0.5668(4) 0.11106(12) 0.8222(4)
C26 C 0.5916(4) 0.11697(12) 0.7459(4)
C27 C 0.6547(4) 0.13667(13) 0.7413(4)
C28 C 0.6353(4) 0.15276(14) 0.6631(4)
C29 C 0.6529(4) 0.18146(14) 0.6554(4)
C30 C 0.5945(5) 0.20193(15) 0.6100(4)
C31 C 0.6003(4) 0.22780(13) 0.6568(4)
C32 C 0.5330(4) 0.24379(13) 0.6642(4)
C33 C 0.5189(5) 0.25642(13) 0.7450(5)
C34 C 0.4347(5) 0.25426(12) 0.7520(4)
C35 C 0.4097(4) 0.24860(12) 0.8280(5)
C36 C 0.3449(4) 0.22876(14) 0.8335(5)
C37 C 0.3670(4) 0.21268(13) 0.9125(4)
C38 C 0.3511(4) 0.18426(14) 0.9174(4)
C39 C 0.4087(5) 0.16368(15) 0.9624(4)
C40 C 0.4875(4) 0.17372(15) 1.0087(4)
C41 C 0.5627(4) 0.15723(13) 1.0049(4)
C42 C 0.5562(4) 0.13191(13) 0.9569(4)
C43 C 0.6122(4) 0.12563(13) 0.9032(4)
C44 C 0.6782(4) 0.14416(13) 0.9023(4)
C45 C 0.7008(4) 0.14971(15) 0.8165(4)
C46 C 0.7241(4) 0.18076(14) 0.8155(5)
C47 C 0.7026(4) 0.19580(15) 0.7394(4)
C48 C 0.6702(4) 0.22412(16) 0.7388(5)
C49 C 0.6607(4) 0.23651(13) 0.8174(4)
C50 C 0.5839(5) 0.25331(12) 0.8197(5)
C51 C 0.5615(4) 0.24728(12) 0.9064(4)
C52 C 0.4778(5) 0.24450(14) 0.9124(4)
C53 C 0.4523(5) 0.22294(15) 0.9619(4)
C54 C 0.5086(4) 0.20387(15) 1.0069(4)
C55 C 0.5979(4) 0.20559(14) 1.0031(4)
C56 C 0.6300(4) 0.17752(12) 1.0023(4)
C57 C 0.6877(4) 0.17117(13) 0.9504(4)
C58 C 0.7152(3) 0.19263(13) 0.8993(4)
C59 C 0.6843(4) 0.22089(13) 0.8989(4)
C60 C 0.6250(4) 0.22727(12) 0.9525(4)
C61 C 0.2241(4) 0.22494(12) 0.4744(4)
H4 H 0.2578 0.2184 0.4321
H5 H 0.2503 0.2425 0.5048
C62 C 0.1311(4) 0.23013(15) 0.4278(5)
H6 H 0.1213 0.2507 0.4134
H7 H 0.1161 0.2189 0.3723
C63 C 0.0791(4) 0.22060(15) 0.4917(4)
H8 H 0.0403 0.2049 0.4659
H9 H 0.0450 0.2367 0.5066
C64 C 0.1417(4) 0.21031(13) 0.5736(4)
H10 H 0.1556 0.2257 0.6184
H11 H 0.1193 0.1936 0.6004
C65 C 0.5510(4) 0.08087(15) 0.4616(5)
C66 C 0.4850(6) 0.07949(19) 0.3753(5)
H12 H 0.4585 0.0984 0.3624
H13 H 0.4416 0.0653 0.3806
H14 H 0.5121 0.0739 0.3272
C67 C 0.6169(5) 0.10476(17) 0.4582(6)
H15 H 0.5875 0.1231 0.4434
H16 H 0.6486 0.1000 0.4130
H17 H 0.6562 0.1063 0.5162
C68 C 0.5932(6) 0.05215(16) 0.4860(6)
H18 H 0.5499 0.0376 0.4874
H19 H 0.6316 0.0535 0.5446
H20 H 0.6256 0.0468 0.4419
C69 C 0.1484(5) 0.09309(15) 0.7785(5)
C70 C 0.0753(6) 0.1012(2) 0.7076(5)
H21 H 0.0956 0.1083 0.6563
H22 H 0.0427 0.1162 0.7292
H23 H 0.0392 0.0844 0.6900
C71 C 0.2125(5) 0.07140(15) 0.7492(5)
H24 H 0.2592 0.0673 0.7999
H25 H 0.2351 0.0800 0.7013
H26 H 0.1828 0.0536 0.7282
C72 C 0.1232(5) 0.08172(16) 0.8632(5)
H27 H 0.1745 0.0770 0.9078
H28 H 0.0882 0.0645 0.8487
H29 H 0.0911 0.0965 0.8867
C73 C 0.5118(4) 0.03197(13) 0.8051(5)
C74 C 0.5209(6) 0.01809(18) 0.7163(6)
H30 H 0.5570 0.0302 0.6882
H31 H 0.4648 0.0163 0.6767
H32 H 0.5466 -0.0009 0.7280
C75 C 0.4591(6) 0.01454(18) 0.8520(8)
H33 H 0.4033 0.0113 0.8130
H34 H 0.4522 0.0247 0.9054
H35 H 0.4868 -0.0039 0.8688
C76 C 0.5978(5) 0.03753(17) 0.8597(5)
H36 H 0.6300 0.0491 0.8256
H37 H 0.6270 0.0193 0.8760
H38 H 0.5932 0.0479 0.9135
O10 O 0.1563(2) 0.15415(7) 0.4310(2)
H39 H 0.1873 0.1637 0.4717
O11 O 0.1953(2) 0.10420(7) 0.3508(2)
O12 O 0.0780(2) 0.07852(8) 0.5080(2)
O13 O -0.1387(2) 0.15978(8) 0.3910(3)
O14 O -0.0795(2) 0.16232(9) 0.4782(3)
O15 O 0.1613(2) 0.13230(8) 0.1361(3)
O16 O 0.1324(3) 0.16286(9) 0.1248(3)
O17 O -0.0547(3) 0.18006(8) 0.1528(2)
O18 O -0.0647(3) 0.19369(8) 0.2352(3)
N3 N 0.1064(3) 0.13410(9) 0.4692(3)
H40 H 0.1423(17) 0.1206(5) 0.5029(17)
N4 N 0.2078(3) 0.04984(9) 0.4465(3)
C77 C 0.0555(3) 0.11859(11) 0.3942(3)
C78 C 0.1066(3) 0.10960(11) 0.3247(3)
C79 C 0.1425(3) 0.08035(11) 0.3189(3)
C80 C 0.1278(3) 0.05554(11) 0.3804(3)
C81 C 0.0578(4) 0.06247(12) 0.4262(3)
C82 C 0.0222(3) 0.09181(11) 0.4317(3)
C83 C -0.0698(4) 0.08845(14) 0.4279(3)
C84 C -0.1275(4) 0.10726(13) 0.3869(4)
C85 C -0.1080(4) 0.13501(12) 0.3484(4)
C86 C -0.0156(3) 0.13941(11) 0.3416(3)
H41 H 0.0004 0.1591 0.3647
C87 C -0.0031(4) 0.13888(12) 0.2477(4)
C88 C 0.0683(4) 0.12369(12) 0.2381(4)
C89 C 0.0905(4) 0.11686(13) 0.1524(4)
C90 C 0.1132(3) 0.08586(12) 0.1527(4)
C91 C 0.1378(3) 0.06903(11) 0.2266(3)
C92 C 0.1172(3) 0.03951(12) 0.2242(4)
C93 C 0.0997(4) 0.03107(12) 0.3096(4)
C94 C 0.0382(4) 0.01248(12) 0.3116(4)
C95 C -0.0204(4) 0.01767(13) 0.3707(4)
C96 C -0.0144(3) 0.04185(11) 0.4215(3)
C97 C -0.0891(4) 0.05710(12) 0.4259(3)
C98 C -0.1683(4) 0.04729(13) 0.3847(4)
C99 C -0.2294(4) 0.06761(15) 0.3417(4)
C100 C -0.2104(4) 0.09688(13) 0.3401(4)
C101 C -0.2372(4) 0.11372(13) 0.2622(4)
C102 C -0.1728(3) 0.13441(12) 0.2580(4)
C103 C -0.1529(4) 0.14160(12) 0.1807(4)
C104 C -0.0655(4) 0.15006(12) 0.1692(4)
C105 C -0.0580(4) 0.13325(11) 0.0879(4)
C106 C 0.0104(4) 0.11825(13) 0.0783(4)
C107 C 0.0017(4) 0.09298(13) 0.0283(4)
C108 C 0.0644(4) 0.07241(14) 0.0716(4)
C109 C 0.0475(4) 0.04347(13) 0.0689(4)
C110 C 0.0738(4) 0.02621(13) 0.1472(4)
C111 C 0.0093(4) 0.00620(12) 0.1500(4)
C112 C -0.0099(4) -0.00060(12) 0.2313(4)
C113 C -0.0965(5) -0.00391(12) 0.2379(4)
C114 C -0.1041(4) 0.00683(11) 0.3252(4)
C115 C -0.1750(4) 0.02191(14) 0.3326(4)
C116 C -0.2445(4) 0.02616(14) 0.2528(4)
C117 C -0.2794(3) 0.05405(14) 0.2585(4)
C118 C -0.3046(3) 0.07086(13) 0.1864(4)
C119 C -0.2832(4) 0.10125(14) 0.1867(4)
C120 C -0.2642(3) 0.10839(12) 0.0993(4)
C121 C -0.1992(4) 0.12782(13) 0.0994(4)
C122 C -0.1429(4) 0.12262(12) 0.0433(4)
C123 C -0.1507(4) 0.09833(12) -0.0088(3)
C124 C -0.0764(4) 0.08341(14) -0.0167(4)
C125 C -0.0959(4) 0.05240(14) -0.0195(4)
C126 C -0.0363(4) 0.03291(13) 0.0226(4)
C127 C -0.0604(4) 0.01013(12) 0.0732(4)
C128 C -0.1424(4) 0.00687(12) 0.0824(4)
C129 C -0.1607(4) -0.00022(12) 0.1661(4)
C130 C -0.2378(4) 0.01553(13) 0.1734(4)
C131 C -0.2644(4) 0.03195(13) 0.0955(4)
C132 C -0.2972(3) 0.06017(13) 0.0994(4)
C133 C -0.2725(3) 0.08249(12) 0.0499(4)
C134 C -0.2173(4) 0.07752(13) -0.0057(4)
C135 C -0.1841(4) 0.04912(13) -0.0121(4)
C136 C -0.2072(4) 0.02705(12) 0.0382(4)
C137 C 0.2808(4) 0.04191(13) 0.4085(4)
H42 H 0.3022 0.0586 0.3806
H43 H 0.2658 0.0264 0.3642
C138 C 0.3455(4) 0.03176(14) 0.4902(4)
H44 H 0.3837 0.0476 0.5159
H45 H 0.3800 0.0158 0.4748
C139 C 0.2932(4) 0.02167(14) 0.5557(4)
H46 H 0.3030 0.0011 0.5694
H47 H 0.3080 0.0327 0.6116
C140 C 0.2024(4) 0.02693(12) 0.5094(4)
H48 H 0.1768 0.0095 0.4782
H49 H 0.1684 0.0330 0.5521
C141 C -0.1279(4) 0.16891(14) 0.5432(4)
C142 C -0.1826(5) 0.19574(17) 0.5132(5)
H50 H -0.2271 0.1910 0.4610
H51 H -0.1468 0.2111 0.4982
H52 H -0.2087 0.2021 0.5613
C143 C -0.1809(6) 0.14297(18) 0.5555(6)
H53 H -0.1436 0.1265 0.5745
H54 H -0.2202 0.1384 0.4993
H55 H -0.2132 0.1472 0.6007
C144 C -0.0581(5) 0.17502(18) 0.6227(5)
H56 H -0.0244 0.1576 0.6395
H57 H -0.0826 0.1812 0.6722
H58 H -0.0216 0.1902 0.6083
C145 C 0.2044(4) 0.18052(13) 0.1647(4)
C146 C 0.2781(6) 0.17809(19) 0.1169(6)
H59 H 0.3032 0.1589 0.1264
H60 H 0.3212 0.1925 0.1405
H61 H 0.2568 0.1813 0.0532
C147 C 0.1656(6) 0.20972(16) 0.1524(7)
H62 H 0.1469 0.2138 0.0890
H63 H 0.2076 0.2240 0.1799
H64 H 0.1168 0.2105 0.1803
C148 C 0.2356(5) 0.17299(19) 0.2617(5)
H65 H 0.2602 0.1537 0.2668
H66 H 0.1879 0.1735 0.2913
H67 H 0.2788 0.1869 0.2896
C149 C -0.1097(4) 0.22057(12) 0.2109(4)
C150 C -0.0554(6) 0.24059(16) 0.1731(6)
H68 H -0.0014 0.2433 0.2158
H69 H -0.0843 0.2591 0.1606
H70 H -0.0447 0.2325 0.1181
C151 C -0.1961(5) 0.21479(17) 0.1536(5)
H71 H -0.2270 0.2016 0.1845
H72 H -0.1901 0.2062 0.0976
H73 H -0.2275 0.2328 0.1416
C152 C -0.1197(5) 0.23094(16) 0.3013(5)
H74 H -0.0636 0.2346 0.3391
H75 H -0.1487 0.2162 0.3287
H76 H -0.1531 0.2486 0.2942
C153 C 0.5336(6) 0.16835(19) 0.2548(6)
D1 D 0.5056 0.1824 0.2086
Cl1 Cl 0.4894(2) 0.17372(5) 0.34340(16)
Cl2 Cl 0.63754(19) 0.17483(7) 0.2714(4)
Cl3 Cl 0.51059(17) 0.13424(5) 0.20773(14)
C154 C 0.3655(5) 0.07063(16) 0.0399(6)
D2 D 0.3613 0.0781 -0.0216
Cl4 Cl 0.47292(14) 0.06774(5) 0.08941(16)
Cl5 Cl 0.3148(2) 0.03729(5) 0.0304(2)
Cl6 Cl 0.31453(18) 0.09459(6) 0.0935(2)
C155 C 0.8321(12) 0.0594(2) 0.7175(9)
D3 D 0.8901 0.0552 0.7538
Cl7 Cl 0.8528(2) 0.05642(6) 0.61349(19)
Cl8 Cl 0.78001(17) 0.03046(6) 0.74637(18)
Cl9 Cl 0.8190(2) 0.09006(6) 0.75428(19)
C156 C 1.0170(5) 0.17527(15) 0.9178(5)
D4 D 1.0453 0.1674 0.9771
Cl10 Cl 0.94956(15) 0.14915(4) 0.86042(13)
Cl11 Cl 0.95868(17) 0.20480(6) 0.9335(2)
Cl12 Cl 1.09442(18) 0.18448(7) 0.8616(2)
loop_
_geom_bond_atom_site_label_1
_geom_bond_atom_site_label_2
_geom_bond_site_symmetry_1
_geom_bond_site_symmetry_2
O1 H1 1_555 1_555
O2 C2 1_555 1_555
O3 C5 1_555 1_555
O4 O5 1_555 1_555
O5 C65 1_555 1_555
O6 O7 1_555 1_555
O7 C69 1_555 1_555
O8 O9 1_555 1_555
O9 C73 1_555 1_555
N1 O1 1_555 1_555
H2 N1 1_555 1_555
N2 C4 1_555 1_555
C1 N1 1_555 1_555
C2 C1 1_555 1_555
C3 O2 1_555 1_555
C4 C3 1_555 1_555
C5 C4 1_555 1_555
C6 O3 1_555 1_555
C7 C6 1_555 1_555
C8 C7 1_555 1_555
C9 C1 1_555 1_555
H3 C9 1_555 1_555
C10 O4 1_555 1_555
C11 C10 1_555 1_555
C12 C2 1_555 1_555
C13 C12 1_555 1_555
C14 C3 1_555 1_555
C15 C14 1_555 1_555
C16 C15 1_555 1_555
C17 C4 1_555 1_555
C18 C17 1_555 1_555
C19 C5 1_555 1_555
C20 C19 1_555 1_555
C21 O6 1_555 1_555
C22 C21 1_555 1_555
C23 C22 1_555 1_555
C24 O8 1_555 1_555
C25 C24 1_555 1_555
C26 C10 1_555 1_555
C27 C26 1_555 1_555
C28 C11 1_555 1_555
C29 C28 1_555 1_555
C30 C13 1_555 1_555
C31 C30 1_555 1_555
C32 C15 1_555 1_555
C33 C32 1_555 1_555
C34 C16 1_555 1_555
C35 C34 1_555 1_555
C36 C18 1_555 1_555
C37 C36 1_555 1_555
C38 C20 1_555 1_555
C39 C22 1_555 1_555
C40 C39 1_555 1_555
C41 C40 1_555 1_555
C42 C23 1_555 1_555
C43 C25 1_555 1_555
C44 C43 1_555 1_555
C45 C27 1_555 1_555
C46 C45 1_555 1_555
C47 C29 1_555 1_555
C48 C31 1_555 1_555
C49 C48 1_555 1_555
C50 C33 1_555 1_555
C51 C50 1_555 1_555
C52 C35 1_555 1_555
C53 C37 1_555 1_555
C54 C40 1_555 1_555
C55 C54 1_555 1_555
C56 C41 1_555 1_555
C57 C44 1_555 1_555
C58 C46 1_555 1_555
C59 C49 1_555 1_555
C60 C51 1_555 1_555
C61 N2 1_555 1_555
H4 C61 1_555 1_555
H5 C61 1_555 1_555
C62 C61 1_555 1_555
H6 C62 1_555 1_555
H7 C62 1_555 1_555
C63 C62 1_555 1_555
H8 C63 1_555 1_555
H9 C63 1_555 1_555
C64 N2 1_555 1_555
H10 C64 1_555 1_555
H11 C64 1_555 1_555
C65 C66 1_555 1_555
C66 H12 1_555 1_555
H13 C66 1_555 1_555
H14 C66 1_555 1_555
C67 C65 1_555 1_555
H15 C67 1_555 1_555
H16 C67 1_555 1_555
H17 C67 1_555 1_555
C68 C65 1_555 1_555
H18 C68 1_555 1_555
H19 C68 1_555 1_555
H20 C68 1_555 1_555
C69 C70 1_555 1_555
C70 H21 1_555 1_555
H22 C70 1_555 1_555
H23 C70 1_555 1_555
C71 C69 1_555 1_555
H24 C71 1_555 1_555
H25 C71 1_555 1_555
H26 C71 1_555 1_555
C72 C69 1_555 1_555
H27 C72 1_555 1_555
H28 C72 1_555 1_555
H29 C72 1_555 1_555
C73 C74 1_555 1_555
C74 H30 1_555 1_555
H31 C74 1_555 1_555
H32 C74 1_555 1_555
C75 C73 1_555 1_555
H33 C75 1_555 1_555
H34 C75 1_555 1_555
H35 C75 1_555 1_555
C76 C73 1_555 1_555
H36 C76 1_555 1_555
H37 C76 1_555 1_555
H38 C76 1_555 1_555
O10 H39 1_555 1_555
O11 C78 1_555 1_555
O12 C81 1_555 1_555
O13 O14 1_555 1_555
O14 C141 1_555 1_555
O15 O16 1_555 1_555
O16 C145 1_555 1_555
O17 O18 1_555 1_555
O18 C149 1_555 1_555
N3 O10 1_555 1_555
H40 N3 1_555 1_555
N4 C80 1_555 1_555
C77 N3 1_555 1_555
C78 C77 1_555 1_555
C79 O11 1_555 1_555
C80 C79 1_555 1_555
C81 C80 1_555 1_555
C82 O12 1_555 1_555
C83 C82 1_555 1_555
C84 C83 1_555 1_555
C85 O13 1_555 1_555
C86 C77 1_555 1_555
H41 C86 1_555 1_555
C87 C86 1_555 1_555
C88 C78 1_555 1_555
C89 O15 1_555 1_555
C90 C89 1_555 1_555
C91 C79 1_555 1_555
C92 C91 1_555 1_555
C93 C80 1_555 1_555
C94 C93 1_555 1_555
C95 C94 1_555 1_555
C96 C81 1_555 1_555
C97 C83 1_555 1_555
C98 C97 1_555 1_555
C99 C98 1_555 1_555
C100 C84 1_555 1_555
C101 C100 1_555 1_555
C102 C85 1_555 1_555
C103 C102 1_555 1_555
C104 O17 1_555 1_555
C105 C104 1_555 1_555
C106 C89 1_555 1_555
C107 C106 1_555 1_555
C108 C90 1_555 1_555
C109 C108 1_555 1_555
C110 C92 1_555 1_555
C111 C110 1_555 1_555
C112 C94 1_555 1_555
C113 C112 1_555 1_555
C114 C95 1_555 1_555
C115 C98 1_555 1_555
C116 C115 1_555 1_555
C117 C99 1_555 1_555
C118 C117 1_555 1_555
C119 C101 1_555 1_555
C120 C119 1_555 1_555
C121 C103 1_555 1_555
C122 C105 1_555 1_555
C123 C122 1_555 1_555
C124 C107 1_555 1_555
C125 C124 1_555 1_555
C126 C109 1_555 1_555
C127 C111 1_555 1_555
C128 C127 1_555 1_555
C129 C113 1_555 1_555
C130 C116 1_555 1_555
C131 C130 1_555 1_555
C132 C118 1_555 1_555
C133 C120 1_555 1_555
C134 C123 1_555 1_555
C135 C125 1_555 1_555
C136 C128 1_555 1_555
C137 N4 1_555 1_555
H42 C137 1_555 1_555
H43 C137 1_555 1_555
C138 C137 1_555 1_555
H44 C138 1_555 1_555
H45 C138 1_555 1_555
C139 C138 1_555 1_555
H46 C139 1_555 1_555
H47 C139 1_555 1_555
C140 N4 1_555 1_555
H48 C140 1_555 1_555
H49 C140 1_555 1_555
C141 C142 1_555 1_555
C142 H50 1_555 1_555
H51 C142 1_555 1_555
H52 C142 1_555 1_555
C143 C141 1_555 1_555
H53 C143 1_555 1_555
H54 C143 1_555 1_555
H55 C143 1_555 1_555
C144 C141 1_555 1_555
H56 C144 1_555 1_555
H57 C144 1_555 1_555
H58 C144 1_555 1_555
C145 C146 1_555 1_555
C146 H59 1_555 1_555
H60 C146 1_555 1_555
H61 C146 1_555 1_555
C147 C145 1_555 1_555
H62 C147 1_555 1_555
H63 C147 1_555 1_555
H64 C147 1_555 1_555
C148 C145 1_555 1_555
H65 C148 1_555 1_555
H66 C148 1_555 1_555
H67 C148 1_555 1_555
C149 C150 1_555 1_555
C150 H68 1_555 1_555
H69 C150 1_555 1_555
H70 C150 1_555 1_555
C151 C149 1_555 1_555
H71 C151 1_555 1_555
H72 C151 1_555 1_555
H73 C151 1_555 1_555
C152 C149 1_555 1_555
H74 C152 1_555 1_555
H75 C152 1_555 1_555
H76 C152 1_555 1_555
C153 D1 1_555 1_555
Cl1 C153 1_555 1_555
Cl2 C153 1_555 1_555
Cl3 C153 1_555 1_555
C154 D2 1_555 1_555
Cl4 C154 1_555 1_555
Cl5 C154 1_555 1_555
Cl6 C154 1_555 1_555
C155 D3 1_555 1_555
Cl7 C155 1_555 1_555
Cl8 C155 1_555 1_555
Cl9 C155 1_555 1_555
C156 D4 1_555 1_555
Cl10 C156 1_555 1_555
Cl11 C156 1_555 1_555
Cl12 C156 1_555 1_555
C1 C6 1_555 1_555
C2 C3 1_555 1_555
C5 C6 1_555 1_555
C7 C21 1_555 1_555
C8 C9 1_555 1_555
C8 C24 1_555 1_555
C9 C10 1_555 1_555
C11 C12 1_555 1_555
C13 C14 1_555 1_555
C16 C17 1_555 1_555
C18 C19 1_555 1_555
C20 C21 1_555 1_555
C23 C24 1_555 1_555
C25 C26 1_555 1_555
C27 C28 1_555 1_555
C29 C30 1_555 1_555
C31 C32 1_555 1_555
C33 C34 1_555 1_555
C35 C36 1_555 1_555
C37 C38 1_555 1_555
C38 C39 1_555 1_555
C41 C42 1_555 1_555
C42 C43 1_555 1_555
C44 C45 1_555 1_555
C46 C47 1_555 1_555
C47 C48 1_555 1_555
C49 C50 1_555 1_555
C51 C52 1_555 1_555
C52 C53 1_555 1_555
C53 C54 1_555 1_555
C55 C56 1_555 1_555
C55 C60 1_555 1_555
C56 C57 1_555 1_555
C57 C58 1_555 1_555
C58 C59 1_555 1_555
C59 C60 1_555 1_555
C63 C64 1_555 1_555
C77 C82 1_555 1_555
C78 C79 1_555 1_555
C81 C82 1_555 1_555
C84 C85 1_555 1_555
C85 C86 1_555 1_555
C87 C88 1_555 1_555
C87 C104 1_555 1_555
C88 C89 1_555 1_555
C90 C91 1_555 1_555
C92 C93 1_555 1_555
C95 C96 1_555 1_555
C96 C97 1_555 1_555
C99 C100 1_555 1_555
C101 C102 1_555 1_555
C103 C104 1_555 1_555
C105 C106 1_555 1_555
C107 C108 1_555 1_555
C109 C110 1_555 1_555
C111 C112 1_555 1_555
C113 C114 1_555 1_555
C114 C115 1_555 1_555
C116 C117 1_555 1_555
C118 C119 1_555 1_555
C120 C121 1_555 1_555
C121 C122 1_555 1_555
C123 C124 1_555 1_555
C125 C126 1_555 1_555
C126 C127 1_555 1_555
C128 C129 1_555 1_555
C129 C130 1_555 1_555
C131 C132 1_555 1_555
C131 C136 1_555 1_555
C132 C133 1_555 1_555
C133 C134 1_555 1_555
C134 C135 1_555 1_555
C135 C136 1_555 1_555
C139 C140 1_555 1_555

#END
