
#######################################################################
#
#                 Cambridge Crystallographic Data Centre
#                                CCDC 
#
#######################################################################
#
# If this CIF has been generated from an entry in the Cambridge 
# Structural Database, then it will include bibliographic, chemical, 
# crystal, experimental, refinement or atomic coordinate data resulting 
# from the CCDC's data processing and validation procedures.
#
#######################################################################

data_TOMRET
_chemical_name_common            
trans,trans-alpha-carboethoxy-beta-(alpha-furoyl)-gamma-(4-N,N-dimethylaminophenyl)-gamma-butyrolactone
_chemical_formula_moiety         'C20 H21 N1 O5 S1'
_chemical_name_systematic        
'Ethyl 5-(4-(dimethylamino)phenyl)-2-oxo-4-(2-thienylcarbonyl)tetrahydro-3-furancarboxylate'
_symmetry_cell_setting           monoclinic
_symmetry_space_group_name_H-M   'P 21/n'
_symmetry_Int_Tables_number      14
_space_group_name_Hall           '-P 2yn'
loop_
_symmetry_equiv_pos_site_id
_symmetry_equiv_pos_as_xyz
1 x,y,z
2 1/2-x,1/2+y,1/2-z
3 -x,-y,-z
4 1/2+x,1/2-y,1/2+z
_cell_length_a                   6.3957(8)
_cell_length_b                   19.612(3)
_cell_length_c                   15.927(2)
_cell_angle_alpha                90
_cell_angle_beta                 101.412(2)
_cell_angle_gamma                90
_cell_volume                     1958.27
_exptl_crystal_colour            red
_chemical_melting_point          '82.5-83.2 deg.C'
_cell_formula_units_Z            4
loop_
_atom_site_label
_atom_site_type_symbol
_atom_site_fract_x
_atom_site_fract_y
_atom_site_fract_z
S1 S 0.28433(16) 0.22997(4) 0.77138(6)
C1 C 0.3358(4) 0.02187(12) 0.58645(15)
H1 H 0.4869 0.0347 0.5977
C2 C 0.3272(4) -0.05498(13) 0.57849(17)
C3 C 0.3457(4) -0.02767(12) 0.72178(15)
H2 H 0.4966 -0.0191 0.7459
C4 C 0.2546(4) 0.03502(11) 0.66957(14)
H3 H 0.0983 0.0342 0.6585
C5 C 0.2289(4) 0.06154(13) 0.50874(16)
C6 C 0.1426(6) 0.17568(16) 0.4641(2)
H4 H 0.2058 0.1670 0.4146
H5 H -0.0111 0.1719 0.4465
C7 C 0.1971(10) 0.2408(2) 0.4959(4)
H6 H 0.1589 0.2457 0.5509
H7 H 0.1221 0.2742 0.4572
H8 H 0.3480 0.2475 0.5016
C8 C 0.2390(4) -0.04958(12) 0.79284(15)
C9 C 0.0400(4) -0.07876(14) 0.77921(16)
H9 H -0.0346 -0.0847 0.7233
C10 C -0.0520(5) -0.09946(14) 0.84629(17)
H10 H -0.1859 -0.1199 0.8348
C11 C 0.0526(5) -0.09032(13) 0.93155(16)
C12 C 0.2517(5) -0.06007(17) 0.94414(18)
H11 H 0.3257 -0.0523 0.9997
C13 C 0.3427(5) -0.04121(15) 0.87619(17)
H12 H 0.4787 -0.0222 0.8872
C14 C -0.2196(6) -0.1527(2) 0.9871(3)
H13 H -0.3357 -0.1309 0.9493
H14 H -0.2588 -0.1610 1.0414
H15 H -0.1877 -0.1953 0.9627
C15 C 0.0742(7) -0.0985(2) 1.08655(19)
H16 H 0.1969 -0.1277 1.0991
H17 H -0.0195 -0.1085 1.1252
H18 H 0.1190 -0.0518 1.0933
C16 C 0.3380(4) 0.10111(13) 0.71389(15)
C17 C 0.1880(4) 0.15488(12) 0.72328(14)
C18 C -0.0285(4) 0.15760(13) 0.69728(17)
H19 H -0.1106 0.1222 0.6692
C19 C -0.1134(6) 0.22064(15) 0.7180(2)
H20 H -0.2580 0.2311 0.7056
C20 C 0.0364(7) 0.26320(17) 0.7572(2)
H21 H 0.0075 0.3068 0.7750
N1 N -0.0372(5) -0.10994(15) 0.99906(17)
O1 O 0.3326(3) -0.08176(8) 0.65758(11)
O2 O 0.3216(3) -0.09058(9) 0.51746(13)
O3 O 0.1691(3) 0.03959(10) 0.43820(12)
O4 O 0.2207(3) 0.12620(9) 0.53105(11)
O5 O 0.5287(3) 0.10746(11) 0.74060(15)
loop_
_geom_bond_atom_site_label_1
_geom_bond_atom_site_label_2
_geom_bond_site_symmetry_1
_geom_bond_site_symmetry_2
S1 C17 1_555 1_555
C1 H1 1_555 1_555
C2 C1 1_555 1_555
C3 H2 1_555 1_555
C4 C1 1_555 1_555
H3 C4 1_555 1_555
C5 C1 1_555 1_555
C6 H4 1_555 1_555
H5 C6 1_555 1_555
C7 C6 1_555 1_555
H6 C7 1_555 1_555
H7 C7 1_555 1_555
H8 C7 1_555 1_555
C8 C3 1_555 1_555
C9 C8 1_555 1_555
H9 C9 1_555 1_555
C10 C9 1_555 1_555
H10 C10 1_555 1_555
C11 C10 1_555 1_555
C12 C11 1_555 1_555
H11 C12 1_555 1_555
C13 C8 1_555 1_555
H12 C13 1_555 1_555
C14 H13 1_555 1_555
H14 C14 1_555 1_555
H15 C14 1_555 1_555
C15 H16 1_555 1_555
H17 C15 1_555 1_555
H18 C15 1_555 1_555
C16 C4 1_555 1_555
C17 C16 1_555 1_555
C18 C17 1_555 1_555
H19 C18 1_555 1_555
C19 C18 1_555 1_555
H20 C19 1_555 1_555
C20 S1 1_555 1_555
H21 C20 1_555 1_555
N1 C11 1_555 1_555
O1 C2 1_555 1_555
O2 C2 1_555 1_555
O3 C5 1_555 1_555
O4 C5 1_555 1_555
O5 C16 1_555 1_555
C3 C4 1_555 1_555
C3 O1 1_555 1_555
C6 O4 1_555 1_555
C12 C13 1_555 1_555
C14 N1 1_555 1_555
C15 N1 1_555 1_555
C19 C20 1_555 1_555

#END
