
#######################################################################
#
#                 Cambridge Crystallographic Data Centre
#                                CCDC 
#
#######################################################################
#
# If this CIF has been generated from an entry in the Cambridge 
# Structural Database, then it will include bibliographic, chemical, 
# crystal, experimental, refinement or atomic coordinate data resulting 
# from the CCDC's data processing and validation procedures.
#
#######################################################################

data_TOMRUJ
_chemical_formula_moiety         'C43 H38 N10,0.5(C6 H12)'
_chemical_name_systematic        
"(+-)-3,3'-((M)-2,2,6,6-tetramethylhepta-3,4-diene-3,5-diyl)bis(2-(4-(dimethylamino)phenyl)buta-1,3-diene-1,1,4,4-tetracarbonitrile) cyclohexane solvate"
_symmetry_cell_setting           monoclinic
_symmetry_space_group_name_H-M   'P 2/c'
_symmetry_Int_Tables_number      13
_space_group_name_Hall           '-P 2yc'
loop_
_symmetry_equiv_pos_site_id
_symmetry_equiv_pos_as_xyz
1 x,y,z
2 -x,y,1/2-z
3 -x,-y,-z
4 x,-y,1/2+z
_cell_length_a                   19.0008(16)
_cell_length_b                   11.5256(14)
_cell_length_c                   19.2715(17)
_cell_angle_alpha                90
_cell_angle_beta                 104.349(12)
_cell_angle_gamma                90
_cell_volume                     4088.72
_exptl_crystal_colour            black
_chemical_melting_point          'above 290 deg.C (dec.)'
_cell_formula_units_Z            4
loop_
_atom_site_label
_atom_site_type_symbol
_atom_site_fract_x
_atom_site_fract_y
_atom_site_fract_z
C1 C 0.24889(10) 0.4411(2) 0.28493(11)
C2 C 0.21949(11) 0.3196(2) 0.28133(10)
C3 C 0.26085(11) 0.2336(2) 0.27184(11)
C4 C 0.29946(11) 0.1415(2) 0.26702(11)
C5 C 0.30971(11) 0.1084(2) 0.19311(12)
C6 C 0.27047(11) 0.0081(2) 0.15276(11)
C7 C 0.30479(12) -0.0813(2) 0.12940(12)
C8 C 0.26577(13) -0.1697(2) 0.08196(14)
N1 N 0.23705(13) -0.2386(2) 0.04181(13)
C9 C 0.38157(13) -0.0951(2) 0.14827(14)
N2 N 0.44216(12) -0.1081(2) 0.16101(15)
C10 C 0.19149(12) 0.0091(2) 0.13869(12)
C11 C 0.15109(12) 0.1030(2) 0.10336(12)
H1 H 0.1755 0.1683 0.0902
C12 C 0.07715(12) 0.1013(2) 0.08770(12)
H2 H 0.0503 0.1636 0.0616
C13 C 0.04021(12) 0.0077(2) 0.10999(12)
C14 C 0.08119(12) -0.0845(2) 0.14718(13)
H3 H 0.0574 -0.1474 0.1637
C15 C 0.15512(12) -0.0839(2) 0.15961(12)
H4 H 0.1822 -0.1483 0.1830
N3 N -0.03300(10) 0.0059(2) 0.09523(12)
C16 C -0.07518(14) 0.0974(3) 0.05243(14)
H5 H -0.0634 0.1719 0.0771
H6 H -0.1271 0.0812 0.0456
H7 H -0.0635 0.1010 0.0057
C17 C -0.07036(14) -0.0912(3) 0.11770(19)
H8 H -0.0563 -0.1631 0.0976
H9 H -0.1230 -0.0800 0.1006
H10 H -0.0572 -0.0960 0.1701
C18 C 0.35342(12) 0.1741(2) 0.16346(12)
C19 C 0.36930(13) 0.1502(2) 0.09428(13)
N4 N 0.38620(13) 0.1324(2) 0.04188(13)
C20 C 0.38827(12) 0.2762(2) 0.19966(13)
N5 N 0.41448(11) 0.3597(2) 0.22614(12)
C21 C 0.33787(12) 0.0689(2) 0.33360(12)
C22 C 0.31852(14) 0.1127(2) 0.40235(13)
H11 H 0.2662 0.1043 0.3973
H12 H 0.3321 0.1945 0.4100
H13 H 0.3450 0.0669 0.4434
C23 C 0.41906(14) 0.0788(3) 0.34348(16)
H14 H 0.4440 0.0357 0.3864
H15 H 0.4333 0.1606 0.3490
H16 H 0.4325 0.0465 0.3015
C24 C 0.3139(2) -0.0579(3) 0.32236(16)
H17 H 0.3352 -0.1024 0.3658
H18 H 0.3304 -0.0903 0.2821
H19 H 0.2608 -0.0623 0.3119
C25 C 0.14046(11) 0.3009(2) 0.28297(12)
C26 C 0.12695(12) 0.3562(2) 0.35229(13)
H20 H 0.0781 0.3359 0.3565
H21 H 0.1312 0.4408 0.3499
H22 H 0.1630 0.3268 0.3941
C27 C 0.12395(12) 0.1714(2) 0.28259(13)
H23 H 0.1344 0.1355 0.2402
H24 H 0.0726 0.1601 0.2815
H25 H 0.1542 0.1354 0.3259
C28 C 0.09273(12) 0.3586(3) 0.21499(13)
H26 H 0.1039 0.3245 0.1724
H27 H 0.1027 0.4421 0.2162
H28 H 0.0413 0.3459 0.2134
C29 C 0.26304(11) 0.5122(2) 0.35323(11)
C30 C 0.31939(11) 0.4732(2) 0.41329(11)
C31 C 0.37818(11) 0.4102(2) 0.40032(12)
H29 H 0.3789 0.3908 0.3526
C32 C 0.43437(12) 0.3768(2) 0.45593(12)
H30 H 0.4744 0.3371 0.4456
C33 C 0.43504(11) 0.3996(2) 0.52931(12)
C34 C 0.37588(12) 0.4622(2) 0.54204(12)
H31 H 0.3744 0.4799 0.5898
C35 C 0.32062(12) 0.4975(2) 0.48627(12)
H32 H 0.2815 0.5399 0.4964
N6 N 0.48878(10) 0.36225(19) 0.58443(10)
C36 C 0.49096(13) 0.3906(3) 0.65973(12)
H33 H 0.4923 0.4750 0.6660
H34 H 0.5344 0.3562 0.6913
H35 H 0.4475 0.3594 0.6719
C37 C 0.54576(13) 0.2900(3) 0.57100(14)
H36 H 0.5247 0.2187 0.5469
H37 H 0.5799 0.2704 0.6165
H38 H 0.5715 0.3318 0.5404
C38 C 0.22255(12) 0.6105(2) 0.35276(12)
C39 C 0.23215(13) 0.6938(2) 0.41024(14)
N7 N 0.23542(13) 0.7670(2) 0.45203(13)
C40 C 0.16405(13) 0.6409(2) 0.29219(13)
N8 N 0.11767(13) 0.6696(2) 0.24485(14)
C41 C 0.26410(11) 0.4873(2) 0.22483(11)
C42 C 0.24794(11) 0.4274(2) 0.15629(12)
N9 N 0.23517(12) 0.3821(2) 0.10091(11)
C43 C 0.29720(12) 0.5992(2) 0.22538(12)
N10 N 0.32498(12) 0.6871(2) 0.22490(12)
C44 C 0.0114(3) 0.6275(5) 0.0094(5)
H39 H 0.0246 0.6973 0.0398
H40 H 0.0008 0.6517 -0.0414
C45 C 0.0746(2) 0.5398(6) 0.0256(3)
H41 H 0.0856 0.5168 0.0767
H42 H 0.1186 0.5756 0.0161
C46 C -0.0517(4) 0.5717(5) 0.0242(6)
H43 H -0.0926 0.6274 0.0156
H44 H -0.0406 0.5481 0.0752
C44B C -0.0114(3) 0.3725(5) -0.0094(5)
H39B H -0.0246 0.3027 -0.0398
H40B H -0.0008 0.3483 0.0414
C45B C -0.0746(2) 0.4602(6) -0.0256(3)
H41B H -0.0856 0.4832 -0.0767
H42B H -0.1186 0.4244 -0.0161
C46B C 0.0517(4) 0.4283(5) -0.0242(6)
H43B H 0.0926 0.3726 -0.0156
H44B H 0.0406 0.4519 -0.0752
loop_
_geom_bond_atom_site_label_1
_geom_bond_atom_site_label_2
_geom_bond_site_symmetry_1
_geom_bond_site_symmetry_2
C1 C2 1_555 1_555
C2 C3 1_555 1_555
C3 C4 1_555 1_555
C4 C5 1_555 1_555
C5 C6 1_555 1_555
C6 C7 1_555 1_555
C7 C8 1_555 1_555
C8 N1 1_555 1_555
C9 C7 1_555 1_555
N2 C9 1_555 1_555
C10 C6 1_555 1_555
C11 C10 1_555 1_555
H1 C11 1_555 1_555
C12 C11 1_555 1_555
H2 C12 1_555 1_555
C13 C12 1_555 1_555
C14 C13 1_555 1_555
H3 C14 1_555 1_555
C15 C10 1_555 1_555
H4 C15 1_555 1_555
N3 C13 1_555 1_555
C16 N3 1_555 1_555
H5 C16 1_555 1_555
H6 C16 1_555 1_555
H7 C16 1_555 1_555
C17 N3 1_555 1_555
H8 C17 1_555 1_555
H9 C17 1_555 1_555
H10 C17 1_555 1_555
C18 C5 1_555 1_555
C19 C18 1_555 1_555
N4 C19 1_555 1_555
C20 C18 1_555 1_555
N5 C20 1_555 1_555
C21 C4 1_555 1_555
C22 C21 1_555 1_555
H11 C22 1_555 1_555
H12 C22 1_555 1_555
H13 C22 1_555 1_555
C23 C21 1_555 1_555
H14 C23 1_555 1_555
H15 C23 1_555 1_555
H16 C23 1_555 1_555
C24 C21 1_555 1_555
H17 C24 1_555 1_555
H18 C24 1_555 1_555
H19 C24 1_555 1_555
C25 C2 1_555 1_555
C26 C25 1_555 1_555
H20 C26 1_555 1_555
H21 C26 1_555 1_555
H22 C26 1_555 1_555
C27 C25 1_555 1_555
H23 C27 1_555 1_555
H24 C27 1_555 1_555
H25 C27 1_555 1_555
C28 C25 1_555 1_555
H26 C28 1_555 1_555
H27 C28 1_555 1_555
H28 C28 1_555 1_555
C29 C1 1_555 1_555
C30 C29 1_555 1_555
C31 C30 1_555 1_555
H29 C31 1_555 1_555
C32 C31 1_555 1_555
H30 C32 1_555 1_555
C33 C32 1_555 1_555
C34 C33 1_555 1_555
H31 C34 1_555 1_555
C35 C30 1_555 1_555
H32 C35 1_555 1_555
N6 C33 1_555 1_555
C36 N6 1_555 1_555
H33 C36 1_555 1_555
H34 C36 1_555 1_555
H35 C36 1_555 1_555
C37 N6 1_555 1_555
H36 C37 1_555 1_555
H37 C37 1_555 1_555
H38 C37 1_555 1_555
C38 C29 1_555 1_555
C39 C38 1_555 1_555
N7 C39 1_555 1_555
C40 C38 1_555 1_555
N8 C40 1_555 1_555
C41 C1 1_555 1_555
C42 C41 1_555 1_555
N9 C42 1_555 1_555
C43 C41 1_555 1_555
N10 C43 1_555 1_555
C44 H39 1_555 1_555
H40 C44 1_555 1_555
C45 C44 1_555 1_555
H41 C45 1_555 1_555
H42 C45 1_555 1_555
C46 C44 1_555 1_555
H43 C46 1_555 1_555
H44 C46 1_555 1_555
C44B H39B 1_555 1_555
H40B C44B 1_555 1_555
C45B C46 1_555 1_555
H41B C45B 1_555 1_555
H42B C45B 1_555 1_555
C46B C45 1_555 1_555
H43B C46B 1_555 1_555
H44B C46B 1_555 1_555
C14 C15 1_555 1_555
C34 C35 1_555 1_555
C44B C45B 1_555 1_555
C44B C46B 1_555 1_555

#END
