
#######################################################################
#
#                 Cambridge Crystallographic Data Centre
#                                CCDC 
#
#######################################################################
#
# If this CIF has been generated from an entry in the Cambridge 
# Structural Database, then it will include bibliographic, chemical, 
# crystal, experimental, refinement or atomic coordinate data resulting 
# from the CCDC's data processing and validation procedures.
#
#######################################################################

data_TOMSAQ
_chemical_name_common            
3,14-bis(dicyanomethylene)-2,15-bis(4-(dimethylamino)phenyl)-4,6,11,13-tetrakis(2-methyl-2-propanyl)-1,4,5,11,12,15-hexadecahexaene-7,9-diyne-1,1,16,16-tetracarbonitrile
_chemical_formula_moiety         'C58 H56 N10'
_chemical_name_systematic        
3,3'-((M,M)-5,10-di-t-butyl-2,2,13,13-tetramethyltetradeca-3,4,10,11-tetraen-6,8-diyne-3,12-diyl)bis(2-(4-(dimethylamino)phenyl)buta-1,3-diene-1,1,4,4-tetracarbonitrile)
_symmetry_cell_setting           orthorhombic
_symmetry_space_group_name_H-M   'P 21 21 21'
_symmetry_Int_Tables_number      19
_space_group_name_Hall           'P 2ac 2ab'
loop_
_symmetry_equiv_pos_site_id
_symmetry_equiv_pos_as_xyz
1 x,y,z
2 1/2-x,-y,1/2+z
3 -x,1/2+y,1/2-z
4 1/2+x,1/2-y,-z
_cell_length_a                   16.1159(11)
_cell_length_b                   16.9569(11)
_cell_length_c                   19.4347(13)
_cell_angle_alpha                90
_cell_angle_beta                 90
_cell_angle_gamma                90
_cell_volume                     5311.03
_exptl_crystal_colour            brown
_cell_formula_units_Z            4
_exptl_crystal_recrystallization_method methanol/dichloromethane
loop_
_atom_site_label
_atom_site_type_symbol
_atom_site_fract_x
_atom_site_fract_y
_atom_site_fract_z
C1 C 0.3550(5) -0.0075(6) 0.2298(5)
C2 C 0.3331(5) -0.0108(5) 0.1652(5)
C3 C 0.3066(4) -0.0054(5) 0.1018(5)
C4 C 0.2184(5) -0.0057(6) 0.0919(4)
C5 C 0.1450(5) -0.0042(5) 0.0883(4)
C6 C 0.0592(5) -0.0004(6) 0.0885(4)
C7 C -0.0163(5) 0.0017(6) 0.0922(4)
C8 C -0.1034(5) 0.0081(5) 0.1055(5)
C9 C -0.1214(5) 0.0113(5) 0.1720(5)
C10 C -0.1322(5) 0.0136(5) 0.2381(5)
C11 C -0.1350(6) 0.0922(6) 0.2722(5)
C12 C -0.0551(5) 0.1359(5) 0.2805(5)
C13 C -0.0236(6) 0.1448(6) 0.3463(5)
C14 C 0.0509(6) 0.1893(6) 0.3608(6)
N1 N 0.1088(6) 0.2247(6) 0.3755(5)
C15 C -0.0671(7) 0.1186(6) 0.4062(6)
N2 N -0.1013(6) 0.0950(6) 0.4541(5)
C16 C -0.0133(5) 0.1615(5) 0.2192(5)
C17 C 0.0722(5) 0.1574(5) 0.2113(5)
H1 H 0.1044 0.1343 0.2463
C18 C 0.1119(6) 0.1872(5) 0.1518(5)
H2 H 0.1697 0.1820 0.1467
C19 C 0.0649(5) 0.2245(5) 0.1003(5)
C20 C -0.0212(6) 0.2287(5) 0.1095(5)
H3 H -0.0539 0.2545 0.0764
C21 C -0.0584(5) 0.1955(5) 0.1660(5)
H4 H -0.1166 0.1958 0.1688
N3 N 0.1038(5) 0.2567(5) 0.0451(4)
C22 C 0.1914(6) 0.2473(7) 0.0343(6)
H5 H 0.2212 0.2659 0.0745
H6 H 0.2083 0.2777 -0.0056
H7 H 0.2039 0.1920 0.0267
C23 C 0.0576(8) 0.2983(7) -0.0074(6)
H8 H 0.0084 0.2683 -0.0194
H9 H 0.0921 0.3048 -0.0479
H10 H 0.0413 0.3497 0.0098
C24 C -0.2085(6) 0.1241(6) 0.2906(5)
C25 C -0.2134(6) 0.2037(8) 0.3221(6)
N4 N -0.2171(7) 0.2642(7) 0.3433(5)
C26 C -0.2875(6) 0.0875(8) 0.2760(6)
N5 N -0.3473(6) 0.0565(9) 0.2677(9)
C27 C -0.1349(8) -0.0639(7) 0.2804(6)
C28 C -0.0527(9) -0.0738(11) 0.3086(13)
H11 H -0.0167 -0.0969 0.2741
H12 H -0.0552 -0.1082 0.3484
H13 H -0.0308 -0.0228 0.3223
C29 C -0.1955(11) -0.0561(9) 0.3416(8)
H14 H -0.1937 -0.1038 0.3690
H15 H -0.2514 -0.0481 0.3244
H16 H -0.1794 -0.0114 0.3698
C30 C -0.1683(14) -0.1305(8) 0.2395(7)
H17 H -0.1304 -0.1426 0.2022
H18 H -0.2220 -0.1162 0.2207
H19 H -0.1743 -0.1765 0.2688
C31 C -0.1647(5) 0.0060(6) 0.0468(5)
C32 C -0.2530(5) 0.0109(8) 0.0736(5)
H20 H -0.2642 -0.0340 0.1031
H21 H -0.2914 0.0108 0.0352
H22 H -0.2598 0.0592 0.0998
C33 C -0.1473(7) 0.0757(7) -0.0016(6)
H23 H -0.1578 0.1248 0.0225
H24 H -0.1832 0.0722 -0.0415
H25 H -0.0898 0.0741 -0.0162
C34 C -0.1537(8) -0.0727(7) 0.0086(6)
H26 H -0.0996 -0.0738 -0.0134
H27 H -0.1966 -0.0780 -0.0261
H28 H -0.1578 -0.1159 0.0411
C35 C 0.3633(5) 0.0007(6) 0.0385(5)
C36 C 0.3417(7) 0.0765(7) -0.0005(5)
H29 H 0.2845 0.0742 -0.0158
H30 H 0.3780 0.0819 -0.0401
H31 H 0.3490 0.1215 0.0297
C37 C 0.4548(5) 0.0007(7) 0.0616(5)
H32 H 0.4905 0.0037 0.0215
H33 H 0.4665 -0.0474 0.0867
H34 H 0.4649 0.0458 0.0910
C38 C 0.3476(8) -0.0685(7) -0.0081(5)
H35 H 0.2900 -0.0682 -0.0227
H36 H 0.3591 -0.1171 0.0166
H37 H 0.3834 -0.0650 -0.0480
C39 C 0.3628(6) -0.0884(6) 0.2663(5)
C40 C 0.4452(5) -0.1249(6) 0.2742(5)
C41 C 0.4774(6) -0.1337(6) 0.3367(5)
C42 C 0.4351(6) -0.1088(7) 0.3981(6)
N6 N 0.3981(6) -0.0923(7) 0.4455(5)
C43 C 0.5547(7) -0.1717(7) 0.3517(5)
N7 N 0.6150(7) -0.2038(6) 0.3672(5)
C44 C 0.4854(6) -0.1526(5) 0.2119(5)
C45 C 0.4402(6) -0.1919(5) 0.1603(4)
H38 H 0.3821 -0.1940 0.1635
C46 C 0.4796(6) -0.2279(6) 0.1044(4)
H39 H 0.4477 -0.2549 0.0715
C47 C 0.5666(6) -0.2244(5) 0.0966(5)
C48 C 0.6087(5) -0.1793(5) 0.1456(5)
H40 H 0.6659 -0.1714 0.1396
C49 C 0.5720(6) -0.1465(6) 0.2009(5)
H41 H 0.6046 -0.1189 0.2329
N8 N 0.6052(5) -0.2618(5) 0.0433(4)
C50 C 0.5613(8) -0.3129(7) -0.0046(6)
H42 H 0.5375 -0.3571 0.0203
H43 H 0.5997 -0.3324 -0.0390
H44 H 0.5173 -0.2834 -0.0269
C51 C 0.6958(6) -0.2534(6) 0.0351(5)
H45 H 0.7092 -0.1987 0.0255
H46 H 0.7145 -0.2862 -0.0027
H47 H 0.7233 -0.2697 0.0772
C52 C 0.2945(6) -0.1253(7) 0.2861(6)
C53 C 0.2941(7) -0.2012(9) 0.3173(6)
N9 N 0.2898(7) -0.2622(8) 0.3436(6)
C54 C 0.2144(7) -0.0877(10) 0.2822(7)
N10 N 0.1512(7) -0.0572(11) 0.2801(7)
C55 C 0.3699(6) 0.0680(6) 0.2706(6)
C56 C 0.3173(10) 0.0701(8) 0.3368(6)
H48 H 0.3359 0.1132 0.3658
H49 H 0.3236 0.0206 0.3614
H50 H 0.2594 0.0778 0.3250
C57 C 0.3416(11) 0.1339(8) 0.2277(7)
H51 H 0.2862 0.1229 0.2107
H52 H 0.3791 0.1405 0.1892
H53 H 0.3407 0.1818 0.2549
C58 C 0.4593(7) 0.0729(10) 0.2934(11)
H54 H 0.4931 0.0921 0.2557
H55 H 0.4784 0.0210 0.3071
H56 H 0.4638 0.1089 0.3321
loop_
_geom_bond_atom_site_label_1
_geom_bond_atom_site_label_2
_geom_bond_site_symmetry_1
_geom_bond_site_symmetry_2
C1 C2 1_555 1_555
C2 C3 1_555 1_555
C3 C4 1_555 1_555
C4 C5 1_555 1_555
C5 C6 1_555 1_555
C6 C7 1_555 1_555
C7 C8 1_555 1_555
C8 C9 1_555 1_555
C9 C10 1_555 1_555
C10 C11 1_555 1_555
C11 C12 1_555 1_555
C12 C13 1_555 1_555
C13 C14 1_555 1_555
C14 N1 1_555 1_555
C15 C13 1_555 1_555
N2 C15 1_555 1_555
C16 C12 1_555 1_555
C17 C16 1_555 1_555
H1 C17 1_555 1_555
C18 C17 1_555 1_555
H2 C18 1_555 1_555
C19 C18 1_555 1_555
C20 C19 1_555 1_555
H3 C20 1_555 1_555
C21 C16 1_555 1_555
H4 C21 1_555 1_555
N3 C19 1_555 1_555
C22 N3 1_555 1_555
H5 C22 1_555 1_555
H6 C22 1_555 1_555
H7 C22 1_555 1_555
C23 N3 1_555 1_555
H8 C23 1_555 1_555
H9 C23 1_555 1_555
H10 C23 1_555 1_555
C24 C11 1_555 1_555
C25 C24 1_555 1_555
N4 C25 1_555 1_555
C26 C24 1_555 1_555
N5 C26 1_555 1_555
C27 C10 1_555 1_555
C28 C27 1_555 1_555
H11 C28 1_555 1_555
H12 C28 1_555 1_555
H13 C28 1_555 1_555
C29 C27 1_555 1_555
H14 C29 1_555 1_555
H15 C29 1_555 1_555
H16 C29 1_555 1_555
C30 C27 1_555 1_555
H17 C30 1_555 1_555
H18 C30 1_555 1_555
H19 C30 1_555 1_555
C31 C8 1_555 1_555
C32 C31 1_555 1_555
H20 C32 1_555 1_555
H21 C32 1_555 1_555
H22 C32 1_555 1_555
C33 C31 1_555 1_555
H23 C33 1_555 1_555
H24 C33 1_555 1_555
H25 C33 1_555 1_555
C34 C31 1_555 1_555
H26 C34 1_555 1_555
H27 C34 1_555 1_555
H28 C34 1_555 1_555
C35 C3 1_555 1_555
C36 C35 1_555 1_555
H29 C36 1_555 1_555
H30 C36 1_555 1_555
H31 C36 1_555 1_555
C37 C35 1_555 1_555
H32 C37 1_555 1_555
H33 C37 1_555 1_555
H34 C37 1_555 1_555
C38 C35 1_555 1_555
H35 C38 1_555 1_555
H36 C38 1_555 1_555
H37 C38 1_555 1_555
C39 C1 1_555 1_555
C40 C39 1_555 1_555
C41 C40 1_555 1_555
C42 C41 1_555 1_555
N6 C42 1_555 1_555
C43 C41 1_555 1_555
N7 C43 1_555 1_555
C44 C40 1_555 1_555
C45 C44 1_555 1_555
H38 C45 1_555 1_555
C46 C45 1_555 1_555
H39 C46 1_555 1_555
C47 C46 1_555 1_555
C48 C47 1_555 1_555
H40 C48 1_555 1_555
C49 C44 1_555 1_555
H41 C49 1_555 1_555
N8 C47 1_555 1_555
C50 N8 1_555 1_555
H42 C50 1_555 1_555
H43 C50 1_555 1_555
H44 C50 1_555 1_555
C51 N8 1_555 1_555
H45 C51 1_555 1_555
H46 C51 1_555 1_555
H47 C51 1_555 1_555
C52 C39 1_555 1_555
C53 C52 1_555 1_555
N9 C53 1_555 1_555
C54 C52 1_555 1_555
N10 C54 1_555 1_555
C55 C1 1_555 1_555
C56 C55 1_555 1_555
H48 C56 1_555 1_555
H49 C56 1_555 1_555
H50 C56 1_555 1_555
C57 C55 1_555 1_555
H51 C57 1_555 1_555
H52 C57 1_555 1_555
H53 C57 1_555 1_555
C58 C55 1_555 1_555
H54 C58 1_555 1_555
H55 C58 1_555 1_555
H56 C58 1_555 1_555
C20 C21 1_555 1_555
C48 C49 1_555 1_555

#END
