
#######################################################################
#
#                 Cambridge Crystallographic Data Centre
#                                CCDC 
#
#######################################################################
#
# If this CIF has been generated from an entry in the Cambridge 
# Structural Database, then it will include bibliographic, chemical, 
# crystal, experimental, refinement or atomic coordinate data resulting 
# from the CCDC's data processing and validation procedures.
#
#######################################################################

data_TOMVIC
_chemical_formula_moiety         'C21 H22 N2 O6'
_chemical_name_systematic        
'dimethyl 2-(1-(4-methoxybenzoyl)-2-methyl-2-phenylhydrazino)but-2-enedioate'
_symmetry_cell_setting           monoclinic
_symmetry_space_group_name_H-M   'P 21/c'
_symmetry_Int_Tables_number      14
_space_group_name_Hall           '-P 2ybc'
loop_
_symmetry_equiv_pos_site_id
_symmetry_equiv_pos_as_xyz
1 x,y,z
2 -x,1/2+y,1/2-z
3 -x,-y,-z
4 x,1/2-y,1/2+z
_cell_length_a                   8.762(4)
_cell_length_b                   27.035(11)
_cell_length_c                   8.561(4)
_cell_angle_alpha                90
_cell_angle_beta                 99.436(9)
_cell_angle_gamma                90
_cell_volume                     2000.5
_exptl_crystal_colour            green
_exptl_crystal_description       prismatic
_cell_formula_units_Z            4
loop_
_atom_site_label
_atom_site_type_symbol
_atom_site_fract_x
_atom_site_fract_y
_atom_site_fract_z
N1 N 0.15141(14) 0.38216(5) 0.30833(15)
N2 N 0.30517(14) 0.37917(5) 0.38417(15)
O1 O 0.22779(13) 0.41529(5) 0.09279(14)
O2 O -0.46847(14) 0.39271(5) -0.20529(15)
O3 O 0.01564(15) 0.48697(4) 0.30755(15)
O4 O -0.23140(15) 0.47038(5) 0.31758(16)
O5 O 0.09102(15) 0.29522(4) 0.46418(14)
O6 O 0.02441(15) 0.34168(4) 0.65595(14)
C1 C 0.12207(18) 0.39990(5) 0.15441(19)
C2 C -0.03709(18) 0.39582(5) 0.06762(18)
C3 C -0.0818(2) 0.42924(6) -0.0543(2)
H1 H -0.0125 0.4533 -0.0761
C4 C -0.2250(2) 0.42720(7) -0.1420(2)
H2 H -0.2536 0.4501 -0.2227
C5 C -0.32878(19) 0.39148(6) -0.11253(19)
C6 C -0.2857(2) 0.35707(6) 0.0056(2)
H3 H -0.3543 0.3325 0.0252
C7 C -0.14044(19) 0.35960(6) 0.09381(19)
H4 H -0.1111 0.3363 0.1731
C8 C -0.5856(2) 0.36121(7) -0.1684(3)
H5 H -0.5534 0.3274 -0.1738
H6 H -0.6788 0.3665 -0.2428
H7 H -0.6046 0.3683 -0.0634
C9 C 0.04920(17) 0.38102(5) 0.41905(17)
C10 C -0.05424(19) 0.41495(6) 0.43881(19)
H8 H -0.1147 0.4092 0.5167
C11 C -0.0818(2) 0.46126(6) 0.3473(2)
C12 C -0.2776(3) 0.51278(8) 0.2178(3)
H9 H -0.2215 0.5414 0.2615
H10 H -0.3865 0.5184 0.2123
H11 H -0.2554 0.5066 0.1133
C13 C 0.05926(17) 0.33424(6) 0.51394(18)
C14 C 0.0238(3) 0.29833(7) 0.7546(2)
H12 H -0.0397 0.2732 0.6975
H13 H -0.0168 0.3068 0.8487
H14 H 0.1276 0.2862 0.7833
C15 C 0.39412(17) 0.34060(6) 0.33436(19)
C16 C 0.54778(19) 0.33621(7) 0.4041(2)
H15 H 0.5913 0.3594 0.4786
C17 C 0.6363(2) 0.29777(8) 0.3637(3)
H16 H 0.7387 0.2949 0.4129
C18 C 0.5767(2) 0.26380(7) 0.2531(3)
H17 H 0.6379 0.2382 0.2253
C19 C 0.4255(2) 0.26791(6) 0.1834(2)
H18 H 0.3836 0.2450 0.1074
C20 C 0.33438(19) 0.30563(6) 0.2245(2)
H19 H 0.2311 0.3075 0.1774
C21 C 0.3778(2) 0.42744(7) 0.4229(2)
H20 H 0.4355 0.4369 0.3415
H21 H 0.4463 0.4253 0.5224
H22 H 0.2993 0.4517 0.4301
loop_
_geom_bond_atom_site_label_1
_geom_bond_atom_site_label_2
_geom_bond_site_symmetry_1
_geom_bond_site_symmetry_2
N1 N2 1_555 1_555
N2 C15 1_555 1_555
O1 C1 1_555 1_555
O2 C5 1_555 1_555
O3 C11 1_555 1_555
O4 C11 1_555 1_555
O5 C13 1_555 1_555
O6 C13 1_555 1_555
C1 N1 1_555 1_555
C2 C1 1_555 1_555
C3 C2 1_555 1_555
H1 C3 1_555 1_555
C4 C3 1_555 1_555
H2 C4 1_555 1_555
C5 C4 1_555 1_555
C6 C5 1_555 1_555
H3 C6 1_555 1_555
C7 C2 1_555 1_555
H4 C7 1_555 1_555
C8 O2 1_555 1_555
H5 C8 1_555 1_555
H6 C8 1_555 1_555
H7 C8 1_555 1_555
C9 N1 1_555 1_555
C10 C9 1_555 1_555
H8 C10 1_555 1_555
C11 C10 1_555 1_555
C12 O4 1_555 1_555
H9 C12 1_555 1_555
H10 C12 1_555 1_555
H11 C12 1_555 1_555
C13 C9 1_555 1_555
C14 O6 1_555 1_555
H12 C14 1_555 1_555
H13 C14 1_555 1_555
H14 C14 1_555 1_555
C15 C16 1_555 1_555
C16 H15 1_555 1_555
C17 C16 1_555 1_555
H16 C17 1_555 1_555
C18 C17 1_555 1_555
H17 C18 1_555 1_555
C19 C18 1_555 1_555
H18 C19 1_555 1_555
C20 C15 1_555 1_555
H19 C20 1_555 1_555
C21 N2 1_555 1_555
H20 C21 1_555 1_555
H21 C21 1_555 1_555
H22 C21 1_555 1_555
C6 C7 1_555 1_555
C19 C20 1_555 1_555

#END
