
#######################################################################
#
#                 Cambridge Crystallographic Data Centre
#                                CCDC 
#
#######################################################################
#
# If this CIF has been generated from an entry in the Cambridge 
# Structural Database, then it will include bibliographic, chemical, 
# crystal, experimental, refinement or atomic coordinate data resulting 
# from the CCDC's data processing and validation procedures.
#
#######################################################################

data_TOMVOI
_chemical_formula_moiety         'C21 H22 N2 O6'
_chemical_name_systematic        
'dimethyl 2-(1-(4-methoxybenzoyl)-2-methyl-2-phenylhydrazino)but-2-enedioate'
_symmetry_cell_setting           triclinic
_symmetry_space_group_name_H-M   'P -1'
_symmetry_Int_Tables_number      2
_space_group_name_Hall           '-P 1'
loop_
_symmetry_equiv_pos_site_id
_symmetry_equiv_pos_as_xyz
1 x,y,z
2 -x,-y,-z
_cell_length_a                   9.0549(18)
_cell_length_b                   10.608(2)
_cell_length_c                   11.805(2)
_cell_angle_alpha                71.659(4)
_cell_angle_beta                 87.306(4)
_cell_angle_gamma                73.948(4)
_cell_volume                     1033.36
_exptl_crystal_colour            colorless
_exptl_crystal_description       prismatic
_cell_formula_units_Z            2
loop_
_atom_site_label
_atom_site_type_symbol
_atom_site_fract_x
_atom_site_fract_y
_atom_site_fract_z
N1 N 0.45627(17) 0.06819(15) 0.69207(13)
N2 N 0.55365(16) 0.15427(16) 0.66656(13)
O1 O 0.45556(18) -0.15216(15) 0.72410(16)
O2 O 1.06394(18) -0.32208(15) 1.02998(15)
O3 O 0.16811(18) 0.01521(17) 0.79717(13)
O4 O 0.14902(14) -0.01717(13) 0.62066(11)
O5 O -0.00996(16) 0.26785(17) 0.55156(15)
O6 O 0.09278(16) 0.39971(16) 0.40047(14)
C1 C 0.5212(2) -0.07494(19) 0.74331(18)
C2 C 0.6653(2) -0.12726(18) 0.81737(16)
C3 C 0.7552(2) -0.25963(19) 0.82317(17)
H1 H 0.7252 -0.3066 0.7779
C4 C 0.8862(2) -0.3210(2) 0.89411(18)
H2 H 0.9453 -0.4088 0.8964
C5 C 0.9318(2) -0.25247(19) 0.96320(17)
C6 C 0.8423(2) -0.12325(19) 0.96094(17)
H3 H 0.8706 -0.0781 1.0088
C7 C 0.7115(2) -0.06116(19) 0.88820(16)
H4 H 0.6528 0.0267 0.8863
C8 C 1.1310(3) -0.2484(3) 1.0860(3)
H5 H 1.1417 -0.1654 1.0274
H6 H 1.2303 -0.3053 1.1209
H7 H 1.0659 -0.2252 1.1472
C9 C 0.30768(19) 0.11780(19) 0.63721(16)
C10 C 0.2606(2) 0.2377(2) 0.55053(17)
H8 H 0.3328 0.2850 0.5175
C11 C 0.51407(19) 0.26806(18) 0.70847(15)
C12 C 0.5772(2) 0.3783(2) 0.66020(18)
H9 H 0.6431 0.3783 0.5973
C13 C 0.5419(3) 0.4874(2) 0.7057(2)
H10 H 0.5845 0.5606 0.6725
C14 C 0.4468(3) 0.4910(2) 0.7973(2)
H11 H 0.4244 0.5654 0.8269
C15 C 0.3840(3) 0.3825(2) 0.8458(2)
H12 H 0.3188 0.3838 0.9089
C16 C 0.4162(2) 0.2722(2) 0.80236(17)
H13 H 0.3723 0.1999 0.8360
C17 C 0.6471(2) 0.1506(3) 0.56312(18)
H14 H 0.6692 0.0606 0.5539
H15 H 0.7417 0.1702 0.5745
H16 H 0.5921 0.2186 0.4928
C18 C 0.2010(2) 0.0322(2) 0.69595(16)
C19 C 0.0512(3) -0.1045(2) 0.6714(2)
H17 H 0.1082 -0.1853 0.7324
H18 H 0.0146 -0.1316 0.6101
H19 H -0.0347 -0.0551 0.7056
C20 C 0.1004(2) 0.2990(2) 0.50442(19)
C21 C -0.0585(3) 0.4703(3) 0.3439(2)
H20 H -0.0905 0.4124 0.3075
H21 H -0.0554 0.5550 0.2839
H22 H -0.1300 0.4903 0.4027
loop_
_geom_bond_atom_site_label_1
_geom_bond_atom_site_label_2
_geom_bond_site_symmetry_1
_geom_bond_site_symmetry_2
N1 N2 1_555 1_555
N2 C11 1_555 1_555
O1 C1 1_555 1_555
O2 C5 1_555 1_555
O3 C18 1_555 1_555
O4 C18 1_555 1_555
O5 C20 1_555 1_555
O6 C20 1_555 1_555
C1 N1 1_555 1_555
C2 C1 1_555 1_555
C3 C2 1_555 1_555
H1 C3 1_555 1_555
C4 C3 1_555 1_555
H2 C4 1_555 1_555
C5 C4 1_555 1_555
C6 C5 1_555 1_555
H3 C6 1_555 1_555
C7 C2 1_555 1_555
H4 C7 1_555 1_555
C8 O2 1_555 1_555
H5 C8 1_555 1_555
H6 C8 1_555 1_555
H7 C8 1_555 1_555
C9 N1 1_555 1_555
C10 C9 1_555 1_555
H8 C10 1_555 1_555
C11 C12 1_555 1_555
C12 H9 1_555 1_555
C13 C12 1_555 1_555
H10 C13 1_555 1_555
C14 C13 1_555 1_555
H11 C14 1_555 1_555
C15 C14 1_555 1_555
H12 C15 1_555 1_555
C16 C11 1_555 1_555
H13 C16 1_555 1_555
C17 N2 1_555 1_555
H14 C17 1_555 1_555
H15 C17 1_555 1_555
H16 C17 1_555 1_555
C18 C9 1_555 1_555
C19 O4 1_555 1_555
H17 C19 1_555 1_555
H18 C19 1_555 1_555
H19 C19 1_555 1_555
C20 C10 1_555 1_555
C21 O6 1_555 1_555
H20 C21 1_555 1_555
H21 C21 1_555 1_555
H22 C21 1_555 1_555
C6 C7 1_555 1_555
C15 C16 1_555 1_555

#END
