
#######################################################################
#
#                 Cambridge Crystallographic Data Centre
#                                CCDC 
#
#######################################################################
#
# If this CIF has been generated from an entry in the Cambridge 
# Structural Database, then it will include bibliographic, chemical, 
# crystal, experimental, refinement or atomic coordinate data resulting 
# from the CCDC's data processing and validation procedures.
#
#######################################################################

data_TONCEG
_chemical_formula_moiety         'C30 H22 O14,2(C1 H4 O1)'
_chemical_name_systematic        
"8,8',9,9'-tetrahydroxy-1a,1a'-dimethoxy-5,5'-dimethyl-1aH,1a'H,7H,7'H-9a,9a'-bi[1]benzoxireno[3,4-g]chromene-2,2',7,7'(9H,9'H)-tetrone methanol solvate"
_symmetry_cell_setting           monoclinic
_symmetry_space_group_name_H-M   'P 21'
_symmetry_Int_Tables_number      4
_space_group_name_Hall           'P 2yb'
loop_
_symmetry_equiv_pos_site_id
_symmetry_equiv_pos_as_xyz
1 x,y,z
2 -x,1/2+y,-z
_cell_length_a                   11.11080(7)
_cell_length_b                   14.8838(1)
_cell_length_c                   17.8512(1)
_cell_angle_alpha                90
_cell_angle_beta                 90.9022(6)
_cell_angle_gamma                90
_cell_volume                     2951.7
_exptl_crystal_colour            yellow
_exptl_crystal_description       Polyhedron
_cell_formula_units_Z            4
loop_
_atom_site_label
_atom_site_type_symbol
_atom_site_fract_x
_atom_site_fract_y
_atom_site_fract_z
O1 O 0.27385(9) -0.00054(7) 0.45070(5)
O2 O 0.27186(10) 0.27328(7) 0.46228(5)
O3 O 0.21073(10) 0.27961(7) 0.32288(5)
H1 H 0.2269(18) 0.2940(14) 0.3681(6)
O4 O 0.26590(9) 0.26883(7) 0.17518(5)
H2 H 0.2307(16) 0.3169(9) 0.1876(10)
O5 O 0.30721(8) 0.09768(7) 0.10560(5)
O6 O 0.16415(9) -0.00217(7) 0.04993(5)
O7 O 0.16176(11) -0.08371(7) 0.18851(6)
O8 O -0.02929(9) 0.26953(7) -0.30061(5)
O9 O 0.33665(9) 0.23923(8) -0.30179(6)
O10 O 0.33312(9) 0.19840(8) -0.16290(6)
H3 H 0.3571(18) 0.2041(14) -0.2074(6)
O11 O 0.30338(9) 0.25042(7) -0.01670(5)
H4 H 0.3494(15) 0.2448(15) -0.0536(8)
O12 O 0.07436(8) 0.26506(7) 0.05030(5)
O13 O -0.05307(9) 0.14727(7) 0.09345(5)
O14 O -0.16135(10) 0.16821(9) -0.04578(6)
C1 C 0.32305(13) -0.02078(10) 0.57897(8)
H5 H 0.3261 0.0125 0.6263
H6 H 0.4002 -0.0512 0.5714
H7 H 0.2584 -0.0655 0.5806
C2 C 0.29955(12) 0.04281(10) 0.51602(7)
C3 C 0.30308(12) 0.13284(10) 0.52161(8)
H8 H 0.3251 0.1597 0.5681
C4 C 0.27421(12) 0.18890(10) 0.45864(8)
C5 C 0.24885(11) 0.14216(10) 0.38874(7)
C6 C 0.22191(12) 0.18929(10) 0.32159(7)
C7 C 0.20698(11) 0.14341(10) 0.25379(7)
C8 C 0.18168(12) 0.19709(9) 0.18287(7)
H9 H 0.0986 0.2227 0.1851
C9 C 0.19246(12) 0.14189(10) 0.11193(7)
C10 C 0.20121(12) 0.04291(10) 0.11301(7)
C11 C 0.24489(16) -0.07318(12) 0.02776(9)
H10 H 0.2199 -0.0962 -0.0215
H11 H 0.2425 -0.1219 0.0646
H12 H 0.3270 -0.0496 0.0251
C12 C 0.19058(12) -0.00571(10) 0.18662(8)
C13 C 0.21183(12) 0.04888(10) 0.25569(7)
C14 C 0.23244(12) 0.00063(10) 0.32147(7)
H13 H 0.2330 -0.0632 0.3214
C15 C 0.25209(11) 0.04856(10) 0.38688(7)
C16 C -0.04335(14) 0.31887(11) -0.42592(8)
H14 H 0.0050 0.3268 -0.4709
H15 H -0.0810 0.3761 -0.4127
H16 H -0.1060 0.2738 -0.4357
C17 C 0.03531(13) 0.28824(10) -0.36290(8)
C18 C 0.15620(13) 0.27981(10) -0.36547(8)
H17 H 0.1962 0.2939 -0.4106
C19 C 0.22542(13) 0.25030(10) -0.30202(8)
C20 C 0.15533(13) 0.23363(10) -0.23425(8)
C21 C 0.21215(13) 0.20965(10) -0.16620(8)
C22 C 0.14643(12) 0.19809(10) -0.10109(8)
C23 C 0.21686(12) 0.18110(10) -0.02899(7)
H18 H 0.2591 0.1219 -0.0324
C24 C 0.14060(12) 0.18239(9) 0.04031(7)
C25 C 0.00780(12) 0.18407(10) 0.03499(7)
C26 C -0.14772(14) 0.20368(12) 0.12219(9)
H19 H -0.1887 0.1722 0.1627
H20 H -0.2058 0.2173 0.0819
H21 H -0.1129 0.2598 0.1414
C27 C -0.05488(13) 0.18481(10) -0.04051(8)
C28 C 0.02058(12) 0.20477(9) -0.10685(7)
C29 C -0.03891(13) 0.22715(10) -0.17365(8)
H22 H -0.1242 0.2310 -0.1762
C30 C 0.03010(13) 0.24366(10) -0.23622(7)
O15 O 0.13622(9) 0.47183(7) 0.80056(5)
O16 O 0.50067(10) 0.43481(8) 0.79090(6)
O17 O 0.48958(9) 0.46836(8) 0.64882(6)
H23 H 0.5164(18) 0.4524(14) 0.6910(7)
O18 O 0.42311(9) 0.42171(7) 0.50280(6)
H24 H 0.3683(14) 0.3835(11) 0.4926(11)
O19 O 0.19301(8) 0.45539(7) 0.43947(5)
O20 O 0.09450(8) 0.59190(7) 0.40662(5)
O21 O -0.00149(9) 0.57640(9) 0.54790(6)
O22 O 0.42311(9) 0.72837(7) 0.05367(5)
O23 O 0.42188(11) 0.45490(7) 0.03224(6)
O24 O 0.37026(9) 0.44123(7) 0.17067(5)
H25 H 0.3816(18) 0.4338(14) 0.1240(6)
O25 O 0.41680(10) 0.44572(7) 0.32314(6)
H26 H 0.4016(19) 0.4023(11) 0.2944(10)
O26 O 0.45281(8) 0.60816(7) 0.39688(5)
O27 O 0.31031(9) 0.70640(7) 0.45166(5)
O28 O 0.32504(10) 0.79850(7) 0.31738(6)
C31 C 0.12475(15) 0.43496(11) 0.92897(8)
H27 H 0.1048 0.4946 0.9484
H28 H 0.1686 0.4008 0.9676
H29 H 0.0505 0.4031 0.9151
C32 C 0.20141(14) 0.44461(10) 0.86173(8)
C33 C 0.32160(14) 0.43039(10) 0.86060(8)
H30 H 0.3621 0.4113 0.9051
C34 C 0.38941(13) 0.44349(10) 0.79345(8)
C35 C 0.31714(13) 0.46816(10) 0.72722(8)
C36 C 0.37036(13) 0.47808(10) 0.65634(8)
C37 C 0.30021(12) 0.49934(10) 0.59310(7)
C38 C 0.36333(12) 0.50375(10) 0.51870(7)
H31 H 0.4257 0.5521 0.5223
C39 C 0.28093(12) 0.52571(9) 0.45319(7)
C40 C 0.15121(12) 0.54299(9) 0.46173(7)
C41 C -0.01237(13) 0.54927(11) 0.37663(8)
H32 H -0.0386 0.5805 0.3309
H33 H -0.0764 0.5520 0.4137
H34 H 0.0053 0.4864 0.3649
C42 C 0.09872(12) 0.54672(10) 0.53904(8)
C43 C 0.17697(12) 0.51605(10) 0.60279(8)
C44 C 0.12237(13) 0.50831(10) 0.67244(8)
H35 H 0.0390 0.5203 0.6779
C45 C 0.19328(13) 0.48257(10) 0.73335(7)
C46 C 0.45785(13) 0.75550(11) -0.07437(8)
H36 H 0.4481 0.7264 -0.1234
H37 H 0.5390 0.7808 -0.0697
H38 H 0.3983 0.8037 -0.0697
C47 C 0.43976(12) 0.68816(11) -0.01418(8)
C48 C 0.44116(12) 0.59854(11) -0.02330(8)
H39 H 0.4558 0.5743 -0.0715
C49 C 0.42095(12) 0.53857(10) 0.03825(8)
C50 C 0.40044(11) 0.58216(10) 0.11001(7)
C51 C 0.37699(12) 0.53159(10) 0.17528(7)
C52 C 0.35921(11) 0.57365(10) 0.24414(7)
C53 C 0.33049(13) 0.51529(10) 0.31155(7)
H40 H 0.2485 0.4884 0.3049
C54 C 0.33690(11) 0.56672(9) 0.38425(7)
C55 C 0.34878(12) 0.66513(10) 0.38778(7)
C56 C 0.39463(14) 0.77255(11) 0.48082(8)
H41 H 0.3721 0.7893 0.5318
H42 H 0.3928 0.8260 0.4487
H43 H 0.4760 0.7471 0.4817
C57 C 0.34576(12) 0.71907(10) 0.31667(8)
C58 C 0.36542(12) 0.66793(10) 0.24586(7)
C59 C 0.38621(12) 0.71989(10) 0.18236(8)
H44 H 0.3886 0.7836 0.1851
C60 C 0.40317(12) 0.67575(10) 0.11539(7)
O29 O 0.48757(10) 0.27681(8) 0.25129(6)
H45 H 0.4196(12) 0.2698(16) 0.2292(11)
C61 C 0.5232(2) 0.1973(2) 0.28767(18)
H46 H 0.4874 0.1456 0.2617
H47 H 0.4960 0.1985 0.3396
H48 H 0.6111 0.1923 0.2871
O30 O 0.69204(11) 0.37633(9) 0.21918(8)
H49 H 0.6295(16) 0.3560(18) 0.2396(14)
C62 C 0.67576(16) 0.46797(13) 0.19944(11)
H50 H 0.6215 0.4966 0.2350
H51 H 0.6408 0.4719 0.1488
H52 H 0.7538 0.4987 0.2008
O31 O 0.90517(12) 0.34350(10) 0.29088(8)
H53 H 0.8368(14) 0.3540(19) 0.2702(14)
C63 C 0.90136(18) 0.27049(15) 0.34114(11)
H54 H 0.9757 0.2691 0.3714
H55 H 0.8936 0.2143 0.3129
H56 H 0.8322 0.2773 0.3740
O32 O 1.10223(11) 0.40484(8) 0.21056(6)
H57 H 1.0410(14) 0.3961(16) 0.2347(11)
C64 C 1.05282(18) 0.46131(13) 0.15435(11)
H58 H 1.0110 0.5117 0.1778
H59 H 0.9957 0.4270 0.1233
H60 H 1.1175 0.4843 0.1230
loop_
_geom_bond_atom_site_label_1
_geom_bond_atom_site_label_2
_geom_bond_site_symmetry_1
_geom_bond_site_symmetry_2
O1 C2 1_555 1_555
O2 C4 1_555 1_555
O3 H1 1_555 1_555
O4 H2 1_555 1_555
O5 C9 1_555 1_555
O6 C10 1_555 1_555
O7 C12 1_555 1_555
O8 C17 1_555 1_555
O9 C19 1_555 1_555
O10 H3 1_555 1_555
O11 H4 1_555 1_555
O12 C24 1_555 1_555
O13 C25 1_555 1_555
O14 C27 1_555 1_555
C1 H5 1_555 1_555
H6 C1 1_555 1_555
H7 C1 1_555 1_555
C2 C1 1_555 1_555
C3 C2 1_555 1_555
H8 C3 1_555 1_555
C4 C3 1_555 1_555
C5 C4 1_555 1_555
C6 O3 1_555 1_555
C7 C6 1_555 1_555
C8 O4 1_555 1_555
H9 C8 1_555 1_555
C9 C8 1_555 1_555
C10 O5 1_555 1_555
C11 O6 1_555 1_555
H10 C11 1_555 1_555
H11 C11 1_555 1_555
H12 C11 1_555 1_555
C12 C10 1_555 1_555
C13 C7 1_555 1_555
C14 C13 1_555 1_555
H13 C14 1_555 1_555
C15 O1 1_555 1_555
C16 H14 1_555 1_555
H15 C16 1_555 1_555
H16 C16 1_555 1_555
C17 C16 1_555 1_555
C18 C17 1_555 1_555
H17 C18 1_555 1_555
C19 C18 1_555 1_555
C20 C19 1_555 1_555
C21 O10 1_555 1_555
C22 C21 1_555 1_555
C23 O11 1_555 1_555
H18 C23 1_555 1_555
C24 C9 1_555 1_555
C25 O12 1_555 1_555
C26 O13 1_555 1_555
H19 C26 1_555 1_555
H20 C26 1_555 1_555
H21 C26 1_555 1_555
C27 C25 1_555 1_555
C28 C22 1_555 1_555
C29 C28 1_555 1_555
H22 C29 1_555 1_555
C30 O8 1_555 1_555
O15 C32 1_555 1_555
O16 C34 1_555 1_555
O17 H23 1_555 1_555
O18 H24 1_555 1_555
O19 C39 1_555 1_555
O20 C40 1_555 1_555
O21 C42 1_555 1_555
O22 C47 1_555 1_555
O23 C49 1_555 1_555
O24 H25 1_555 1_555
O25 H26 1_555 1_555
O26 C54 1_555 1_555
O27 C55 1_555 1_555
O28 C57 1_555 1_555
C31 H27 1_555 1_555
H28 C31 1_555 1_555
H29 C31 1_555 1_555
C32 C31 1_555 1_555
C33 C32 1_555 1_555
H30 C33 1_555 1_555
C34 C33 1_555 1_555
C35 C34 1_555 1_555
C36 O17 1_555 1_555
C37 C36 1_555 1_555
C38 O18 1_555 1_555
H31 C38 1_555 1_555
C39 C38 1_555 1_555
C40 O19 1_555 1_555
C41 O20 1_555 1_555
H32 C41 1_555 1_555
H33 C41 1_555 1_555
H34 C41 1_555 1_555
C42 C40 1_555 1_555
C43 C37 1_555 1_555
C44 C43 1_555 1_555
H35 C44 1_555 1_555
C45 O15 1_555 1_555
C46 H36 1_555 1_555
H37 C46 1_555 1_555
H38 C46 1_555 1_555
C47 C46 1_555 1_555
C48 C47 1_555 1_555
H39 C48 1_555 1_555
C49 C48 1_555 1_555
C50 C49 1_555 1_555
C51 O24 1_555 1_555
C52 C51 1_555 1_555
C53 O25 1_555 1_555
H40 C53 1_555 1_555
C54 C39 1_555 1_555
C55 O26 1_555 1_555
C56 O27 1_555 1_555
H41 C56 1_555 1_555
H42 C56 1_555 1_555
H43 C56 1_555 1_555
C57 C55 1_555 1_555
C58 C52 1_555 1_555
C59 C58 1_555 1_555
H44 C59 1_555 1_555
C60 O22 1_555 1_555
O29 H45 1_555 1_555
C61 O29 1_555 1_555
H46 C61 1_555 1_555
H47 C61 1_555 1_555
H48 C61 1_555 1_555
O30 H49 1_555 1_555
C62 O30 1_555 1_555
H50 C62 1_555 1_555
H51 C62 1_555 1_555
H52 C62 1_555 1_555
O31 H53 1_555 1_555
C63 O31 1_555 1_555
H54 C63 1_555 1_555
H55 C63 1_555 1_555
H56 C63 1_555 1_555
O32 H57 1_555 1_555
C64 O32 1_555 1_555
H58 C64 1_555 1_555
H59 C64 1_555 1_555
H60 C64 1_555 1_555
C5 C6 1_555 1_555
C5 C15 1_555 1_555
C7 C8 1_555 1_555
C9 C10 1_555 1_555
C12 C13 1_555 1_555
C14 C15 1_555 1_555
C20 C21 1_555 1_555
C20 C30 1_555 1_555
C22 C23 1_555 1_555
C23 C24 1_555 1_555
C24 C25 1_555 1_555
C27 C28 1_555 1_555
C29 C30 1_555 1_555
C35 C36 1_555 1_555
C35 C45 1_555 1_555
C37 C38 1_555 1_555
C39 C40 1_555 1_555
C42 C43 1_555 1_555
C44 C45 1_555 1_555
C50 C51 1_555 1_555
C50 C60 1_555 1_555
C52 C53 1_555 1_555
C53 C54 1_555 1_555
C54 C55 1_555 1_555
C57 C58 1_555 1_555
C59 C60 1_555 1_555

#END
