
#######################################################################
#
#                 Cambridge Crystallographic Data Centre
#                                CCDC 
#
#######################################################################
#
# If this CIF has been generated from an entry in the Cambridge 
# Structural Database, then it will include bibliographic, chemical, 
# crystal, experimental, refinement or atomic coordinate data resulting 
# from the CCDC's data processing and validation procedures.
#
#######################################################################

data_TONPAO
_chemical_formula_moiety         'C16 H9 N1 S2'
_chemical_name_systematic        anti-Dibenzothieno[3,2-b:2',3'-d]pyrrole
_symmetry_cell_setting           monoclinic
_symmetry_space_group_name_H-M   'P 21/n'
_symmetry_Int_Tables_number      14
_space_group_name_Hall           '-P 2yn'
loop_
_symmetry_equiv_pos_site_id
_symmetry_equiv_pos_as_xyz
1 x,y,z
2 1/2-x,1/2+y,1/2-z
3 -x,-y,-z
4 1/2+x,1/2-y,1/2+z
_cell_length_a                   9.916(2)
_cell_length_b                   10.619(2)
_cell_length_c                   23.425(5)
_cell_angle_alpha                90
_cell_angle_beta                 96.04(3)
_cell_angle_gamma                90
_cell_volume                     2452.91
_exptl_crystal_colour            'light yellow'
_exptl_crystal_description       plate
_chemical_melting_point          '264-268 deg.C'
_cell_formula_units_Z            8
_exptl_crystal_recrystallization_method toluene
loop_
_atom_site_label
_atom_site_type_symbol
_atom_site_fract_x
_atom_site_fract_y
_atom_site_fract_z
S1 S -0.25452(6) 1.03837(6) 0.17552(3)
S4 S -0.41299(6) 1.00451(6) 0.32962(3)
N2 N -0.0907(2) 0.83093(18) 0.29740(8)
H2 H -0.0246 0.7791 0.3096
C1 C -0.0724(3) 0.9737(2) 0.09638(11)
H3 H -0.1200 1.0266 0.0684
C4 C 0.0393(3) 0.9054(2) 0.08362(11)
H6 H 0.0674 0.9102 0.0462
C5 C 0.1110(3) 0.8298(2) 0.12468(11)
H7 H 0.1881 0.7846 0.1151
C8 C 0.0715(3) 0.8198(2) 0.17924(11)
H10 H 0.1216 0.7686 0.2072
C9 C -0.0422(2) 0.8852(2) 0.19303(10)
C12 C -0.1134(2) 0.9629(2) 0.15129(10)
C14 C -0.2234(2) 0.9624(2) 0.24124(10)
C16 C -0.1088(2) 0.8879(2) 0.24435(10)
C17 C -0.1943(2) 0.8695(2) 0.32783(10)
C20 C -0.2790(2) 0.9500(2) 0.29405(10)
C22 C -0.2334(2) 0.8488(2) 0.38417(10)
C23 C -0.1750(3) 0.7756(2) 0.43007(11)
H11 H -0.0957 0.7276 0.4262
C25 C -0.2335(3) 0.7741(3) 0.48062(11)
H13 H -0.1945 0.7236 0.5116
C27 C -0.3491(3) 0.8452(3) 0.48747(11)
H15 H -0.3872 0.8434 0.5230
C29 C -0.4086(3) 0.9184(2) 0.44283(11)
H17 H -0.4870 0.9673 0.4474
C31 C -0.3511(2) 0.9188(2) 0.39112(10)
S2 S 0.23493(6) 0.99164(6) 0.35009(3)
S3 S 0.40632(6) 0.98828(6) 0.19911(3)
N1 N 0.0926(2) 1.18690(18) 0.21994(8)
H1 H 0.0301 1.2397 0.2050
C2 C 0.0356(3) 1.0623(2) 0.42023(11)
H4 H 0.0775 1.0109 0.4502
C3 C -0.0803(3) 1.1301(3) 0.42777(11)
H5 H -0.1180 1.1256 0.4633
C6 C -0.1418(3) 1.2047(2) 0.38397(11)
H8 H -0.2214 1.2506 0.3899
C7 C -0.0896(3) 1.2133(2) 0.33207(11)
H9 H -0.1332 1.2641 0.3023
C10 C 0.0275(2) 1.1471(2) 0.32346(10)
C11 C 0.0891(2) 1.0707(2) 0.36817(10)
C13 C 0.2154(2) 1.0599(2) 0.28235(10)
C15 C 0.1035(2) 1.1384(2) 0.27471(10)
C18 C 0.1976(2) 1.1377(2) 0.19270(10)
C19 C 0.2757(2) 1.0603(2) 0.23041(10)
C21 C 0.2376(2) 1.1396(2) 0.13585(10)
C24 C 0.1813(3) 1.1993(2) 0.08576(11)
H12 H 0.1057 1.2539 0.0867
C26 C 0.2360(3) 1.1783(3) 0.03502(11)
H14 H 0.1984 1.2195 0.0010
C28 C 0.3459(3) 1.0974(3) 0.03290(11)
H16 H 0.3810 1.0831 -0.0027
C30 C 0.4045(3) 1.0378(3) 0.08162(11)
H18 H 0.4800 0.9832 0.0800
C32 C 0.3505(2) 1.0593(2) 0.13322(10)
loop_
_geom_bond_atom_site_label_1
_geom_bond_atom_site_label_2
_geom_bond_site_symmetry_1
_geom_bond_site_symmetry_2
S1 C12 1_555 1_555
S2 C11 1_555 1_555
S3 C19 1_555 1_555
S4 C20 1_555 1_555
N1 H1 1_555 1_555
N2 H2 1_555 1_555
C1 H3 1_555 1_555
C2 H4 1_555 1_555
C3 C2 1_555 1_555
H5 C3 1_555 1_555
C4 C1 1_555 1_555
H6 C4 1_555 1_555
C5 C4 1_555 1_555
H7 C5 1_555 1_555
C6 C3 1_555 1_555
H8 C6 1_555 1_555
C7 C6 1_555 1_555
H9 C7 1_555 1_555
C8 C5 1_555 1_555
H10 C8 1_555 1_555
C9 C8 1_555 1_555
C10 C7 1_555 1_555
C11 C2 1_555 1_555
C12 C1 1_555 1_555
C13 S2 1_555 1_555
C14 S1 1_555 1_555
C15 N1 1_555 1_555
C16 N2 1_555 1_555
C17 N2 1_555 1_555
C18 N1 1_555 1_555
C19 C13 1_555 1_555
C20 C14 1_555 1_555
C21 C18 1_555 1_555
C22 C17 1_555 1_555
C23 C22 1_555 1_555
H11 C23 1_555 1_555
C24 C21 1_555 1_555
H12 C24 1_555 1_555
C25 C23 1_555 1_555
H13 C25 1_555 1_555
C26 C24 1_555 1_555
H14 C26 1_555 1_555
C27 C25 1_555 1_555
H15 C27 1_555 1_555
C28 C26 1_555 1_555
H16 C28 1_555 1_555
C29 C27 1_555 1_555
H17 C29 1_555 1_555
C30 C28 1_555 1_555
H18 C30 1_555 1_555
C31 S4 1_555 1_555
C32 S3 1_555 1_555
C9 C12 1_555 1_555
C9 C16 1_555 1_555
C10 C11 1_555 1_555
C10 C15 1_555 1_555
C13 C15 1_555 1_555
C14 C16 1_555 1_555
C17 C20 1_555 1_555
C18 C19 1_555 1_555
C21 C32 1_555 1_555
C22 C31 1_555 1_555
C29 C31 1_555 1_555
C30 C32 1_555 1_555

#END
