
#######################################################################
#
#                 Cambridge Crystallographic Data Centre
#                                CCDC 
#
#######################################################################
#
# If this CIF has been generated from an entry in the Cambridge 
# Structural Database, then it will include bibliographic, chemical, 
# crystal, experimental, refinement or atomic coordinate data resulting 
# from the CCDC's data processing and validation procedures.
#
#######################################################################

data_TONPUI
_chemical_formula_moiety         'C13 H14 Cl2 N1 O3 P1'
_chemical_name_systematic        
'2-Chloro-5-(3-chloropropyl)-6-methyl-3-phenyl-2,3-dihydro-4H-1,3,2-oxazaphosphinin-4-one 2-oxide'
_symmetry_cell_setting           monoclinic
_symmetry_space_group_name_H-M   'P 21/n'
_symmetry_Int_Tables_number      14
_space_group_name_Hall           '-P 2yn'
loop_
_symmetry_equiv_pos_site_id
_symmetry_equiv_pos_as_xyz
1 x,y,z
2 1/2-x,1/2+y,1/2-z
3 -x,-y,-z
4 1/2+x,1/2-y,1/2+z
_cell_length_a                   9.560(3)
_cell_length_b                   10.346(3)
_cell_length_c                   15.722(5)
_cell_angle_alpha                90
_cell_angle_beta                 104.543(5)
_cell_angle_gamma                90
_cell_volume                     1505.2
_exptl_crystal_colour            colorless
_exptl_crystal_description       block
_chemical_melting_point          '94-95 deg.C'
_cell_formula_units_Z            4
loop_
_atom_site_label
_atom_site_type_symbol
_atom_site_fract_x
_atom_site_fract_y
_atom_site_fract_z
P1 P 0.00051(8) 0.68019(7) 0.11502(5)
Cl1 Cl -0.16715(10) 0.55945(9) 0.09638(6)
Cl2 Cl -0.47852(15) 1.20753(11) -0.12145(8)
N1 N -0.0564(3) 0.8206(2) 0.14417(14)
O1 O 0.0170(2) 0.70696(19) 0.01939(13)
O2 O -0.1781(2) 1.0088(2) 0.10910(13)
O3 O 0.1290(2) 0.6259(2) 0.17400(14)
C1 C -0.1481(3) 0.7835(3) 0.2745(2)
H1 H -0.2236 0.7350 0.2405
C2 C -0.1344(4) 0.7992(3) 0.3647(2)
H2 H -0.1994 0.7592 0.3914
C3 C -0.0245(4) 0.8739(3) 0.4133(2)
H3 H -0.0150 0.8844 0.4732
C4 C 0.0720(4) 0.9335(3) 0.3740(2)
H4 H 0.1447 0.9856 0.4073
C5 C 0.0611(3) 0.9162(3) 0.28612(19)
H5 H 0.1274 0.9551 0.2599
C6 C -0.0483(3) 0.8410(3) 0.23695(17)
C7 C -0.1301(3) 0.9133(3) 0.08249(18)
C8 C -0.1414(3) 0.8883(3) -0.01127(17)
C9 C -0.2310(3) 0.9868(3) -0.07406(19)
H6 H -0.2166 1.0718 -0.0472
H7 H -0.1979 0.9897 -0.1275
C10 C -0.3894(3) 0.9549(3) -0.0969(2)
H8 H -0.4226 0.9546 -0.0435
H9 H -0.4029 0.8685 -0.1216
C11 C -0.4814(4) 1.0482(3) -0.1616(2)
H10 H -0.5804 1.0174 -0.1769
H11 H -0.4477 1.0490 -0.2149
C12 C -0.0754(3) 0.7906(3) -0.04005(18)
C13 C -0.0765(4) 0.7547(4) -0.1312(2)
H12 H -0.1394 0.8121 -0.1714
H13 H -0.1105 0.6675 -0.1424
H14 H 0.0196 0.7612 -0.1391
loop_
_geom_bond_atom_site_label_1
_geom_bond_atom_site_label_2
_geom_bond_site_symmetry_1
_geom_bond_site_symmetry_2
P1 Cl1 1_555 1_555
Cl2 C11 1_555 1_555
N1 P1 1_555 1_555
O1 P1 1_555 1_555
O2 C7 1_555 1_555
O3 P1 1_555 1_555
C1 H1 1_555 1_555
C2 C1 1_555 1_555
H2 C2 1_555 1_555
C3 C2 1_555 1_555
H3 C3 1_555 1_555
C4 C3 1_555 1_555
H4 C4 1_555 1_555
C5 C4 1_555 1_555
H5 C5 1_555 1_555
C6 N1 1_555 1_555
C7 N1 1_555 1_555
C8 C7 1_555 1_555
C9 C8 1_555 1_555
H6 C9 1_555 1_555
H7 C9 1_555 1_555
C10 C9 1_555 1_555
H8 C10 1_555 1_555
H9 C10 1_555 1_555
C11 C10 1_555 1_555
H10 C11 1_555 1_555
H11 C11 1_555 1_555
C12 O1 1_555 1_555
C13 C12 1_555 1_555
H12 C13 1_555 1_555
H13 C13 1_555 1_555
H14 C13 1_555 1_555
C1 C6 1_555 1_555
C5 C6 1_555 1_555
C8 C12 1_555 1_555

#END
