
#######################################################################
#
#                 Cambridge Crystallographic Data Centre
#                                CCDC 
#
#######################################################################
#
# If this CIF has been generated from an entry in the Cambridge 
# Structural Database, then it will include bibliographic, chemical, 
# crystal, experimental, refinement or atomic coordinate data resulting 
# from the CCDC's data processing and validation procedures.
#
#######################################################################

data_TONYEC
_chemical_formula_moiety         'C10 H14 O4'
_chemical_name_systematic        
cis-4a-Ethyltetrahydropyrano[2,3-b]pyran-2,7(3H,8aH)-dione
_symmetry_cell_setting           monoclinic
_symmetry_space_group_name_H-M   'P 21/c'
_symmetry_Int_Tables_number      14
_space_group_name_Hall           '-P 2ybc'
loop_
_symmetry_equiv_pos_site_id
_symmetry_equiv_pos_as_xyz
1 x,y,z
2 -x,1/2+y,1/2-z
3 -x,-y,-z
4 x,1/2-y,1/2+z
_cell_length_a                   12.6494(6)
_cell_length_b                   10.1071(5)
_cell_length_c                   7.7146(4)
_cell_angle_alpha                90
_cell_angle_beta                 94.702(5)
_cell_angle_gamma                90
_cell_volume                     982.983
_exptl_crystal_colour            colorless
_exptl_crystal_description       prism
_cell_formula_units_Z            4
_exptl_crystal_recrystallization_method dichloromethane/n-pentane
loop_
_atom_site_label
_atom_site_type_symbol
_atom_site_fract_x
_atom_site_fract_y
_atom_site_fract_z
O1 O 0.48009(17) 0.7202(2) 0.2787(3)
O2 O 0.33014(13) 0.78137(16) 0.3719(3)
O3 O 0.17251(12) 0.79321(15) 0.2159(2)
O4 O 0.02169(18) 0.7921(2) 0.0563(3)
C1 C 0.41276(19) 0.8030(2) 0.2726(3)
C2 C 0.4178(2) 0.9286(2) 0.1745(3)
H1 H 0.4407 0.9085 0.0605
H2 H 0.4718 0.9841 0.2339
C3 C 0.3159(2) 1.0072(2) 0.1505(3)
H3 H 0.2721 0.9718 0.0523
H4 H 0.3325 1.0984 0.1243
C4 C 0.25378(17) 1.0035(2) 0.3120(3)
C5 C 0.23694(17) 0.8579(2) 0.3535(3)
H5 H 0.2011 0.8518 0.4611
C6 C 0.07674(19) 0.8461(3) 0.1694(3)
C7 C 0.0518(2) 0.9694(3) 0.2637(4)
H6 H 0.0364 0.9471 0.3813
H7 H -0.0109 1.0103 0.2059
C8 C 0.1432(2) 1.0673(2) 0.2705(4)
H8 H 0.1322 1.1335 0.3583
H9 H 0.1424 1.1122 0.1593
C9 C 0.3160(2) 1.0724(3) 0.4657(3)
H10 H 0.3858 1.0324 0.4812
H11 H 0.3256 1.1643 0.4345
C10 C 0.2675(3) 1.0686(3) 0.6394(4)
H12 H 0.1963 1.1023 0.6253
H13 H 0.3091 1.1221 0.7221
H14 H 0.2664 0.9790 0.6806
loop_
_geom_bond_atom_site_label_1
_geom_bond_atom_site_label_2
_geom_bond_site_symmetry_1
_geom_bond_site_symmetry_2
O1 C1 1_555 1_555
O2 C1 1_555 1_555
O3 C5 1_555 1_555
O4 C6 1_555 1_555
C1 C2 1_555 1_555
C2 H1 1_555 1_555
H2 C2 1_555 1_555
C3 C2 1_555 1_555
H3 C3 1_555 1_555
H4 C3 1_555 1_555
C4 C3 1_555 1_555
C5 O2 1_555 1_555
H5 C5 1_555 1_555
C6 O3 1_555 1_555
C7 C6 1_555 1_555
H6 C7 1_555 1_555
H7 C7 1_555 1_555
C8 C4 1_555 1_555
H8 C8 1_555 1_555
H9 C8 1_555 1_555
C9 C4 1_555 1_555
H10 C9 1_555 1_555
H11 C9 1_555 1_555
C10 C9 1_555 1_555
H12 C10 1_555 1_555
H13 C10 1_555 1_555
H14 C10 1_555 1_555
C4 C5 1_555 1_555
C7 C8 1_555 1_555

#END
