
#######################################################################
#
#                 Cambridge Crystallographic Data Centre
#                                CCDC 
#
#######################################################################
#
# If this CIF has been generated from an entry in the Cambridge 
# Structural Database, then it will include bibliographic, chemical, 
# crystal, experimental, refinement or atomic coordinate data resulting 
# from the CCDC's data processing and validation procedures.
#
#######################################################################

data_TOPLER
_chemical_formula_moiety         'C14 H10 Br1 Cl1 N2 O3,C3 H7 N1 O1'
_chemical_name_systematic        
"N'-(3-bromo-5-chloro-2-hydroxybenzylidene)-4-hydroxybenzohydrazide N,N-dimethylformamide solvate"
_symmetry_cell_setting           monoclinic
_symmetry_space_group_name_H-M   'P 21/n'
_symmetry_Int_Tables_number      14
_space_group_name_Hall           '-P 2yn'
loop_
_symmetry_equiv_pos_site_id
_symmetry_equiv_pos_as_xyz
1 x,y,z
2 1/2-x,1/2+y,1/2-z
3 -x,-y,-z
4 1/2+x,1/2-y,1/2+z
_cell_length_a                   15.1058(6)
_cell_length_b                   14.3433(6)
_cell_length_c                   17.5800(8)
_cell_angle_alpha                90
_cell_angle_beta                 94.823(2)
_cell_angle_gamma                90
_cell_volume                     3795.52
_exptl_crystal_colour            colorless
_exptl_crystal_description       block
_cell_formula_units_Z            8
loop_
_atom_site_label
_atom_site_type_symbol
_atom_site_fract_x
_atom_site_fract_y
_atom_site_fract_z
C1 C 0.8793(2) 0.8770(2) 0.5133(2)
C2 C 0.9138(2) 0.8476(3) 0.4469(2)
H1 H 0.9226 0.7844 0.4383
C3 C 0.9349(2) 0.9123(3) 0.3939(2)
C4 C 0.9210(2) 1.0056(3) 0.4051(2)
H2 H 0.9354 1.0485 0.3685
C5 C 0.8852(2) 1.0361(2) 0.4712(2)
C6 C 0.8643(2) 0.9707(2) 0.5260(2)
C7 C 0.8748(2) 1.1354(2) 0.4843(2)
H3 H 0.8918 1.1787 0.4489
C8 C 0.7977(2) 1.2768(2) 0.6265(2)
C9 C 0.7893(2) 1.3765(2) 0.6434(2)
C10 C 0.7962(3) 1.4460(3) 0.5897(2)
H4 H 0.8076 1.4298 0.5402
C11 C 0.7866(3) 1.5380(3) 0.6076(2)
H5 H 0.7917 1.5834 0.5705
C12 C 0.7695(3) 1.5638(3) 0.6806(2)
C13 C 0.7620(2) 1.4959(3) 0.7348(2)
H6 H 0.7505 1.5124 0.7842
C14 C 0.7713(2) 1.4041(3) 0.7162(2)
H7 H 0.7655 1.3589 0.7533
N1 N 0.84184(18) 1.16214(19) 0.54521(17)
N2 N 0.8330(2) 1.2542(2) 0.56018(18)
O1 O 0.83135(16) 0.99480(17) 0.59214(13)
H8 H 0.8252 1.0516 0.5937
O2 O 0.77417(17) 1.21532(17) 0.66813(15)
O3 O 0.7614(2) 1.65639(18) 0.69428(16)
H9 H 0.7528 1.6645 0.7392
Br1 Br 0.85281(3) 0.78955(3) 0.58717(3)
Cl1 Cl 0.98296(7) 0.87473(8) 0.31293(6)
H10 H 0.8563(19) 1.2970(18) 0.5330(17)
C15 C 0.5769(2) 0.8294(3) 0.6082(2)
C16 C 0.6024(3) 0.7661(3) 0.5564(2)
H11 H 0.5989 0.7025 0.5663
C17 C 0.6332(2) 0.7968(3) 0.4897(2)
C18 C 0.6386(2) 0.8910(3) 0.4733(2)
C19 C 0.6136(2) 0.9553(3) 0.5272(2)
C20 C 0.5826(2) 0.9231(3) 0.5947(2)
H12 H 0.5656 0.9655 0.6308
C21 C 0.6200(2) 1.0545(3) 0.5138(2)
H13 H 0.6034 1.0973 0.5498
C22 C 0.6908(2) 1.1960(3) 0.3690(2)
C23 C 0.6995(2) 1.2958(2) 0.3518(2)
C24 C 0.7305(2) 1.3223(3) 0.2826(2)
H14 H 0.7462 1.2765 0.2488
C25 C 0.7386(2) 1.4142(3) 0.2631(2)
H15 H 0.7593 1.4302 0.2165
C26 C 0.7161(3) 1.4820(3) 0.3123(2)
C27 C 0.6859(3) 1.4573(3) 0.3815(2)
H16 H 0.6713 1.5033 0.4156
C28 C 0.6775(3) 1.3657(3) 0.3999(2)
H17 H 0.6562 1.3501 0.4464
N3 N 0.64895(19) 1.0816(2) 0.45151(18)
N4 N 0.6568(2) 1.1736(2) 0.43585(19)
O4 O 0.66772(17) 0.91616(18) 0.40631(14)
H18 H 0.6684 0.9732 0.4032
O5 O 0.71372(19) 1.13363(19) 0.32811(15)
O6 O 0.7214(2) 1.57424(19) 0.29708(17)
H19 H 0.7393 1.5815 0.2547
Br2 Br 0.67161(3) 0.71061(3) 0.41826(3)
Cl2 Cl 0.53677(8) 0.78960(8) 0.69189(6)
H20 H 0.636(2) 1.212(2) 0.4621(19)
C29 C 0.9331(7) 1.5543(7) 0.4029(7)
H21 H 0.9449 1.6069 0.3716
H22 H 0.9714 1.5566 0.4494
H23 H 0.8722 1.5559 0.4148
C30 C 0.9707(7) 1.4847(10) 0.2871(5)
H24 H 0.9753 1.5498 0.2757
H25 H 0.9251 1.4570 0.2530
H26 H 1.0264 1.4546 0.2809
C31 C 0.9392(5) 1.3874(6) 0.3916(5)
H27 H 0.9588 1.3396 0.3615
N5 N 0.9485(10) 1.4735(7) 0.3645(6)
O7 O 0.9094(8) 1.3636(10) 0.4490(7)
C35 C 0.5225(15) 1.3883(13) 0.7224(8)
H35 H 0.5099 1.4528 0.7314
H36 H 0.5687 1.3674 0.7594
H37 H 0.4699 1.3518 0.7269
C36 C 0.5477(6) 1.4587(7) 0.6050(7)
H38 H 0.5297 1.5093 0.6360
H39 H 0.5056 1.4517 0.5614
H40 H 0.6053 1.4717 0.5884
C37 C 0.5734(8) 1.3006(7) 0.6162(6)
H41 H 0.5829 1.2494 0.6482
N7 N 0.5511(8) 1.3777(8) 0.6472(6)
O9 O 0.5835(14) 1.2885(14) 0.5474(9)
C32? C 0.968(2) 1.5383(15) 0.3272(18)
H28? H 0.9924 1.5351 0.2786
H29? H 1.0085 1.5707 0.3629
H30? H 0.9123 1.5710 0.3217
C33? C 0.9742(14) 1.3852(17) 0.2963(15)
H31? H 1.0009 1.4195 0.2572
H32? H 0.9207 1.3559 0.2748
H33? H 1.0149 1.3385 0.3169
C34? C 0.9232(14) 1.4403(17) 0.4201(12)
H34? H 0.8893 1.4890 0.4370
N6? N 0.954(3) 1.4462(18) 0.3544(15)
O8? O 0.9379(18) 1.371(2) 0.4617(19)
C38? C 0.5398(9) 1.2500(11) 0.6987(8)
H42? H 0.5228 1.2607 0.7493
H43? H 0.5951 1.2166 0.7014
H44? H 0.4948 1.2139 0.6704
C39? C 0.5363(16) 1.4163(12) 0.7075(15)
H45? H 0.5197 1.3980 0.7568
H46? H 0.4899 1.4537 0.6823
H47? H 0.5903 1.4518 0.7132
C40? C 0.5717(11) 1.3429(12) 0.5944(8)
H48? H 0.5668 1.4002 0.5696
N8? N 0.5497(12) 1.3345(11) 0.6626(8)
O10? O 0.600(2) 1.2723(17) 0.5610(13)
loop_
_geom_bond_atom_site_label_1
_geom_bond_atom_site_label_2
_geom_bond_site_symmetry_1
_geom_bond_site_symmetry_2
C1 C2 1_555 1_555
C2 H1 1_555 1_555
C3 C2 1_555 1_555
C4 C3 1_555 1_555
H2 C4 1_555 1_555
C5 C4 1_555 1_555
C6 C1 1_555 1_555
C7 C5 1_555 1_555
H3 C7 1_555 1_555
C8 C9 1_555 1_555
C9 C10 1_555 1_555
C10 H4 1_555 1_555
C11 C10 1_555 1_555
H5 C11 1_555 1_555
C12 C11 1_555 1_555
C13 C12 1_555 1_555
H6 C13 1_555 1_555
C14 C9 1_555 1_555
H7 C14 1_555 1_555
N1 C7 1_555 1_555
N2 C8 1_555 1_555
O1 C6 1_555 1_555
H8 O1 1_555 1_555
O2 C8 1_555 1_555
O3 C12 1_555 1_555
H9 O3 1_555 1_555
Br1 C1 1_555 1_555
Cl1 C3 1_555 1_555
H10 N2 1_555 1_555
C15 C16 1_555 1_555
C16 H11 1_555 1_555
C17 C16 1_555 1_555
C18 C17 1_555 1_555
C19 C18 1_555 1_555
C20 C15 1_555 1_555
H12 C20 1_555 1_555
C21 C19 1_555 1_555
H13 C21 1_555 1_555
C22 C23 1_555 1_555
C23 C24 1_555 1_555
C24 H14 1_555 1_555
C25 C24 1_555 1_555
H15 C25 1_555 1_555
C26 C25 1_555 1_555
C27 C26 1_555 1_555
H16 C27 1_555 1_555
C28 C23 1_555 1_555
H17 C28 1_555 1_555
N3 C21 1_555 1_555
N4 C22 1_555 1_555
O4 C18 1_555 1_555
H18 O4 1_555 1_555
O5 C22 1_555 1_555
O6 C26 1_555 1_555
H19 O6 1_555 1_555
Br2 C17 1_555 1_555
Cl2 C15 1_555 1_555
H20 N4 1_555 1_555
C29 H21 1_555 1_555
H22 C29 1_555 1_555
H23 C29 1_555 1_555
C30 H24 1_555 1_555
H25 C30 1_555 1_555
H26 C30 1_555 1_555
C31 H27 1_555 1_555
N5 C29 1_555 1_555
O7 C31 1_555 1_555
C35 H35 1_555 1_555
H36 C35 1_555 1_555
H37 C35 1_555 1_555
C36 H38 1_555 1_555
H39 C36 1_555 1_555
H40 C36 1_555 1_555
C37 H41 1_555 1_555
N7 C35 1_555 1_555
O9 C37 1_555 1_555
C5 C6 1_555 1_555
C13 C14 1_555 1_555
N1 N2 1_555 1_555
C19 C20 1_555 1_555
C27 C28 1_555 1_555
N3 N4 1_555 1_555
C30 N5 1_555 1_555
C31 N5 1_555 1_555
C36 N7 1_555 1_555
C37 N7 1_555 1_555

#END
