
#######################################################################
#
#                 Cambridge Crystallographic Data Centre
#                                CCDC 
#
#######################################################################
#
# If this CIF has been generated from an entry in the Cambridge 
# Structural Database, then it will include bibliographic, chemical, 
# crystal, experimental, refinement or atomic coordinate data resulting 
# from the CCDC's data processing and validation procedures.
#
#######################################################################

data_TOPNOB
_chemical_formula_moiety         'C17 H26 O3'
_chemical_name_systematic        
(4R*,7S*)-4-((R*)-Hydroxyphenylmethyl)-2-methyl-3-methylene-octane-2,7-diol
_symmetry_cell_setting           monoclinic
_symmetry_space_group_name_H-M   'P 21/c'
_symmetry_Int_Tables_number      14
_space_group_name_Hall           '-P 2ybc'
loop_
_symmetry_equiv_pos_site_id
_symmetry_equiv_pos_as_xyz
1 x,y,z
2 -x,1/2+y,1/2-z
3 -x,-y,-z
4 x,1/2-y,1/2+z
_cell_length_a                   19.125(4)
_cell_length_b                   13.495(4)
_cell_length_c                   14.233(5)
_cell_angle_alpha                90
_cell_angle_beta                 110.89(3)
_cell_angle_gamma                90
_cell_volume                     3431.96
_exptl_crystal_colour            colorless
_cell_formula_units_Z            8
loop_
_atom_site_label
_atom_site_type_symbol
_atom_site_fract_x
_atom_site_fract_y
_atom_site_fract_z
O1 O 0.9205(3) 0.6081(4) 0.1939(4)
O2 O 1.0070(3) 0.7500(4) -0.1946(4)
O3 O 0.9876(3) 0.5511(4) -0.2319(4)
C1 C 0.7990(6) 0.5417(11) 0.1155(7)
C2 C 0.8548(5) 0.6062(7) 0.1071(6)
C3 C 0.8743(5) 0.5926(7) 0.0128(6)
C4 C 0.9150(4) 0.6808(6) -0.0088(6)
C5 C 0.9458(4) 0.6638(6) -0.0923(5)
C6 C 0.9850(4) 0.7612(6) -0.1084(6)
C7 C 1.0518(4) 0.7890(6) -0.0192(6)
C8 C 1.0454(5) 0.8648(7) 0.0435(7)
C9 C 1.1066(6) 0.8900(8) 0.1266(8)
C10 C 1.1738(6) 0.8449(9) 0.1465(7)
C11 C 1.1812(6) 0.7701(8) 0.0850(8)
C12 C 1.1194(5) 0.7463(7) 0.0026(7)
C13 C 0.8886(4) 0.6330(6) -0.1930(5)
C14 C 0.8242(5) 0.6772(7) -0.23214(6)
C15 C 0.9101(4) 0.5454(6) -0.2468(6)
C16 C 0.9008(5) 0.4487(7) -0.1977(8)
C17 C 0.8658(6) 0.5405(8) -0.3579(7)
H1 H 0.950 0.552 0.203
H2 H 1.021 0.687 -0.207
H3 H 1.014 0.610 -0.231
H4 H 0.787 0.553 0.174
H5 H 0.754 0.540 0.058
H6 H 0.818 0.472 0.123
H7 H 0.832 0.673 0.099
H8 H 0.907 0.532 0.024
H9 H 0.831 0.575 -0.045
H10 H 0.955 0.700 0.054
H11 H 0.880 0.736 -0.027
H12 H 0.985 0.612 -0.070
H13 H 0.947 0.814 -0.122
H14 H 0.997 0.902 0.028
H15 H 1.101 0.945 0.172
H16 H 1.216 0.867 0.207
H17 H 1.231 0.734 0.101
H18 H 1.125 0.695 -0.044
H19 H 0.784 0.667 -0.297
H20 H 0.798 0.727 -0.205
H21 H 0.930 0.449 -0.125
H22 H 0.850 0.434 -0.205
H23 H 0.919 0.390 -0.223
H24 H 0.870 0.601 -0.392
H25 H 0.881 0.487 -0.392
H26 H 0.812 0.530 -0.373
O4 O 0.4331(4) 0.4084(5) 0.2396(4)
O5 O 0.4862(3) 0.2576(4) 0.6998(4)
O6 O 0.4653(3) 0.4474(4) 0.7237(4)
C18 C 0.3233(6) 0.5093(9) 0.2024(7)
C19 C 0.3638(5) 0.4225(7) 0.2585(6)
C20 C 0.3809(5) 0.4332(6) 0.3715(6)
C21 C 0.4098(5) 0.3365(6) 0.4276(6)
C22 C 0.4335(4) 0.3442(6) 0.5423(6)
C23 C 0.4669(5) 0.2458(6) 0.5929(6)
C24 C 0.5350(5) 0.2159(6) 0.5704(6)
C25 C 0.5283(6) 0.1384(8) 0.5000(8)
C26 C 0.5899(7) 0.1116(9) 0.4782(9)
C27 C 0.6564(6) 0.1597(9) 0.5190(9)
C28 C 0.6651(6) 0.2336(9) 0.5885(9)
C29 C 0.6018(5) 0.2591(8) 0.6102(8)
C30 C 0.3697(4) 0.3716(7) 0.5778(6)
C31 C 0.3047(5) 0.3314(9) 0.5438(7)
C32 C 0.3902(5) 0.4548(7) 0.6610(6)
C33 C 0.3798(7) 0.5562(8) 0.6095(8)
C34 C 0.3399(7) 0.4476(10) 0.7239(9)
H27 H 0.442 0.421 0.307
H28 H 0.538 0.274 0.723
H29 H 0.448 0.440 0.793
H30 H 0.310 0.505 0.131
H31 H 0.277 0.524 0.215
H32 H 0.354 0.569 0.224
H33 H 0.330 0.365 0.235
H34 H 0.419 0.485 0.398
H35 H 0.338 0.456 0.386
H36 H 0.452 0.313 0.409
H37 H 0.371 0.286 0.404
H38 H 0.473 0.396 0.566
H39 H 0.427 0.194 0.568
H40 H 0.479 0.103 0.469
H41 H 0.585 0.056 0.428
H42 H 0.701 0.140 0.499
H43 H 0.714 0.267 0.623
H44 H 0.607 0.314 0.661
H45 H 0.261 0.325 0.567
H46 H 0.282 0.284 0.485
H47 H 0.411 0.562 0.568
H48 H 0.329 0.567 0.563
H49 H 0.393 0.611 0.655
H50 H 0.346 0.384 0.758
H51 H 0.351 0.498 0.776
H52 H 0.287 0.454 0.684
loop_
_geom_bond_atom_site_label_1
_geom_bond_atom_site_label_2
_geom_bond_site_symmetry_1
_geom_bond_site_symmetry_2
O1 C2 1_555 1_555
O2 C6 1_555 1_555
O3 C15 1_555 1_555
C1 C2 1_555 1_555
C2 C3 1_555 1_555
C3 C4 1_555 1_555
C4 C5 1_555 1_555
C5 C6 1_555 1_555
C6 C7 1_555 1_555
C7 C8 1_555 1_555
C8 C9 1_555 1_555
C9 C10 1_555 1_555
C10 C11 1_555 1_555
C11 C12 1_555 1_555
C12 C7 1_555 1_555
C13 C5 1_555 1_555
C14 C13 1_555 1_555
C15 C13 1_555 1_555
C16 C15 1_555 1_555
C17 C15 1_555 1_555
O4 C19 1_555 1_555
O5 C23 1_555 1_555
O6 C32 1_555 1_555
C18 C19 1_555 1_555
C19 C20 1_555 1_555
C20 C21 1_555 1_555
C21 C22 1_555 1_555
C22 C23 1_555 1_555
C23 C24 1_555 1_555
C24 C25 1_555 1_555
C25 C26 1_555 1_555
C26 C27 1_555 1_555
C27 C28 1_555 1_555
C28 C29 1_555 1_555
C29 C24 1_555 1_555
C30 C22 1_555 1_555
C31 C30 1_555 1_555
C32 C30 1_555 1_555
C33 C32 1_555 1_555
C34 C32 1_555 1_555
H1 O1 1_555 1_555
H2 O2 1_555 1_555
H3 O3 1_555 1_555
H4 C1 1_555 1_555
H5 C1 1_555 1_555
H6 C1 1_555 1_555
H7 C2 1_555 1_555
H8 C3 1_555 1_555
H9 C3 1_555 1_555
H10 C4 1_555 1_555
H11 C4 1_555 1_555
H12 C5 1_555 1_555
H13 C6 1_555 1_555
H14 C8 1_555 1_555
H15 C9 1_555 1_555
H16 C10 1_555 1_555
H17 C11 1_555 1_555
H18 C12 1_555 1_555
H19 C14 1_555 1_555
H20 C14 1_555 1_555
H21 C16 1_555 1_555
H22 C16 1_555 1_555
H23 C16 1_555 1_555
H24 C17 1_555 1_555
H25 C17 1_555 1_555
H26 C17 1_555 1_555
H27 O4 1_555 1_555
H28 O5 1_555 1_555
H29 O6 1_555 1_555
H30 C18 1_555 1_555
H31 C18 1_555 1_555
H32 C18 1_555 1_555
H33 C19 1_555 1_555
H34 C20 1_555 1_555
H35 C20 1_555 1_555
H36 C21 1_555 1_555
H37 C21 1_555 1_555
H38 C22 1_555 1_555
H39 C23 1_555 1_555
H40 C25 1_555 1_555
H41 C26 1_555 1_555
H42 C27 1_555 1_555
H43 C28 1_555 1_555
H44 C29 1_555 1_555
H45 C31 1_555 1_555
H46 C31 1_555 1_555
H47 C33 1_555 1_555
H48 C33 1_555 1_555
H49 C33 1_555 1_555
H50 C34 1_555 1_555
H51 C34 1_555 1_555
H52 C34 1_555 1_555

#END
