
#######################################################################
#
#                 Cambridge Crystallographic Data Centre
#                                CCDC 
#
#######################################################################
#
# If this CIF has been generated from an entry in the Cambridge 
# Structural Database, then it will include bibliographic, chemical, 
# crystal, experimental, refinement or atomic coordinate data resulting 
# from the CCDC's data processing and validation procedures.
#
#######################################################################

data_TOPPEU
_chemical_formula_moiety         'C13 H16 O1 Si1'
_chemical_name_systematic        
1-Trimethylsilyl-1a,6a-dihydrocyclopropa[a]inden-6(1H)-one
_symmetry_cell_setting           monoclinic
_symmetry_space_group_name_H-M   'P 21/c'
_symmetry_Int_Tables_number      14
_space_group_name_Hall           '-P 2ybc'
loop_
_symmetry_equiv_pos_site_id
_symmetry_equiv_pos_as_xyz
1 x,y,z
2 -x,1/2+y,1/2-z
3 -x,-y,-z
4 x,1/2-y,1/2+z
_cell_length_a                   9.5789(12)
_cell_length_b                   12.6743(16)
_cell_length_c                   10.9538(14)
_cell_angle_alpha                90
_cell_angle_beta                 108.965(2)
_cell_angle_gamma                90
_cell_volume                     1257.67
_exptl_crystal_colour            colorless
_exptl_crystal_description       plate
_cell_formula_units_Z            4
_exptl_crystal_recrystallization_method dichloromethane
loop_
_atom_site_label
_atom_site_type_symbol
_atom_site_fract_x
_atom_site_fract_y
_atom_site_fract_z
Si1 Si 0.06666(4) 0.17708(3) 0.21956(3)
O1 O 0.24159(13) -0.12500(8) 0.53647(11)
C1 C 0.17327(15) 0.12451(10) 0.38302(13)
C2 C 0.34076(15) 0.12152(11) 0.42575(14)
C3 C 0.25628(15) 0.01955(11) 0.39583(13)
C4 C 0.28434(15) -0.03732(11) 0.52134(13)
C5 C 0.38041(14) 0.03258(10) 0.62421(13)
C6 C 0.41627(14) 0.12237(10) 0.56801(14)
C7 C 0.51042(17) 0.19680(12) 0.64509(17)
C8 C 0.56689(18) 0.17949(13) 0.77699(17)
C9 C 0.53023(17) 0.08974(13) 0.83213(16)
C10 C 0.43560(16) 0.01459(13) 0.75625(14)
C11 C 0.0773(2) 0.32330(13) 0.22668(17)
C12 C -0.12851(19) 0.13348(16) 0.1752(2)
C13 C 0.1516(2) 0.12677(17) 0.10039(18)
H1 H 0.1337(18) 0.1397(12) 0.4548(16)
H2 H 0.3891(18) 0.1483(13) 0.3680(16)
H3 H 0.2477(17) -0.0202(13) 0.3224(16)
H4 H 0.5384(19) 0.2572(14) 0.6059(17)
H5 H 0.630(2) 0.2303(14) 0.8300(18)
H6 H 0.5743(19) 0.0770(13) 0.9207(18)
H7 H 0.4111(18) -0.0498(14) 0.7963(16)
H8 H 0.173(3) 0.3470(18) 0.252(2)
H9 H 0.032(2) 0.3521(16) 0.145(2)
H10 H 0.031(2) 0.3481(16) 0.286(2)
H11 H -0.186(3) 0.1667(17) 0.106(2)
H12 H -0.167(3) 0.1557(19) 0.244(3)
H13 H -0.143(3) 0.057(2) 0.159(2)
H14 H 0.254(3) 0.146(2) 0.124(3)
H15 H 0.103(3) 0.1551(18) 0.022(3)
H16 H 0.146(2) 0.0511(18) 0.094(2)
loop_
_geom_bond_atom_site_label_1
_geom_bond_atom_site_label_2
_geom_bond_site_symmetry_1
_geom_bond_site_symmetry_2
Si1 C1 1_555 1_555
O1 C4 1_555 1_555
C1 C2 1_555 1_555
C2 C3 1_555 1_555
C3 C1 1_555 1_555
C4 C3 1_555 1_555
C5 C4 1_555 1_555
C6 C2 1_555 1_555
C7 C6 1_555 1_555
C8 C7 1_555 1_555
C9 C8 1_555 1_555
C10 C5 1_555 1_555
C11 Si1 1_555 1_555
C12 Si1 1_555 1_555
C13 Si1 1_555 1_555
H1 C1 1_555 1_555
H2 C2 1_555 1_555
H3 C3 1_555 1_555
H4 C7 1_555 1_555
H5 C8 1_555 1_555
H6 C9 1_555 1_555
H7 C10 1_555 1_555
H8 C11 1_555 1_555
H9 C11 1_555 1_555
H10 C11 1_555 1_555
H11 C12 1_555 1_555
H12 C12 1_555 1_555
H13 C12 1_555 1_555
H14 C13 1_555 1_555
H15 C13 1_555 1_555
H16 C13 1_555 1_555
C5 C6 1_555 1_555
C9 C10 1_555 1_555

#END
