
#######################################################################
#
#                 Cambridge Crystallographic Data Centre
#                                CCDC 
#
#######################################################################
#
# If this CIF has been generated from an entry in the Cambridge 
# Structural Database, then it will include bibliographic, chemical, 
# crystal, experimental, refinement or atomic coordinate data resulting 
# from the CCDC's data processing and validation procedures.
#
#######################################################################

data_TOPWOL
_chemical_formula_moiety         'C12 H19 N1 S1'
_chemical_name_systematic        
Octahydro-1H-pyrrolo(2,1-j)quinoline-5(6H)-thione
_symmetry_cell_setting           monoclinic
_symmetry_space_group_name_H-M   'P 21'
_symmetry_Int_Tables_number      4
_space_group_name_Hall           'P 2yb'
loop_
_symmetry_equiv_pos_site_id
_symmetry_equiv_pos_as_xyz
1 x,y,z
2 -x,1/2+y,-z
_cell_length_a                   6.449(13)
_cell_length_b                   11.63(2)
_cell_length_c                   7.272(14)
_cell_angle_alpha                90
_cell_angle_beta                 101.64(3)
_cell_angle_gamma                90
_cell_volume                     534.197
_cell_formula_units_Z            2
loop_
_atom_site_label
_atom_site_type_symbol
_atom_site_fract_x
_atom_site_fract_y
_atom_site_fract_z
S1 S 1.1384(2) 0.11937(19) 0.78923(18)
N1 N 0.8558(6) 0.1484(3) 0.4878(4)
C1 C 0.7349(7) 0.2930(4) 0.2528(6)
H1 H 0.8119 0.3490 0.3394
H2 H 0.8295 0.2645 0.1751
C2 C 0.6684(7) 0.1953(4) 0.3617(5)
C3 C 0.5087(7) 0.2347(5) 0.4682(6)
H3 H 0.4558 0.1667 0.5237
C4 C 0.9514(9) 0.0577(5) 0.4024(7)
H4 H 0.9651 -0.0112 0.4791
H5 H 1.0903 0.0800 0.3828
C5 C 0.3228(9) 0.2910(6) 0.3425(9)
H6 H 0.2498 0.2350 0.2537
H7 H 0.2244 0.3184 0.4175
C6 C 0.5494(9) 0.3504(5) 0.1308(7)
H8 H 0.5985 0.4161 0.0692
H9 H 0.4826 0.2971 0.0343
C7 C 0.3924(11) 0.3892(6) 0.2383(10)
H10 H 0.2711 0.4218 0.1536
H11 H 0.4539 0.4486 0.3263
C8 C 0.9228(9) 0.1754(5) 0.6614(6)
C9 C 0.6009(9) 0.0937(5) 0.2390(7)
H12 H 0.5157 0.0416 0.2971
H13 H 0.5198 0.1174 0.1178
C10 C 0.6139(11) 0.3103(6) 0.6259(7)
H14 H 0.6659 0.3791 0.5747
H15 H 0.5107 0.3337 0.6989
C11 C 0.7922(11) 0.2516(7) 0.7504(8)
H16 H 0.8836 0.3100 0.8194
H17 H 0.7352 0.2069 0.8413
C12 C 0.8018(11) 0.0388(6) 0.2193(7)
H18 H 0.8560 0.0736 0.1173
H19 H 0.7811 -0.0428 0.1940
loop_
_geom_bond_atom_site_label_1
_geom_bond_atom_site_label_2
_geom_bond_site_symmetry_1
_geom_bond_site_symmetry_2
S1 C8 1_555 1_555
N1 C2 1_555 1_555
C1 H1 1_555 1_555
H2 C1 1_555 1_555
C2 C1 1_555 1_555
C3 C2 1_555 1_555
H3 C3 1_555 1_555
C4 N1 1_555 1_555
H4 C4 1_555 1_555
H5 C4 1_555 1_555
C5 C3 1_555 1_555
H6 C5 1_555 1_555
H7 C5 1_555 1_555
C6 C1 1_555 1_555
H8 C6 1_555 1_555
H9 C6 1_555 1_555
C7 C5 1_555 1_555
H10 C7 1_555 1_555
H11 C7 1_555 1_555
C8 N1 1_555 1_555
C9 C2 1_555 1_555
H12 C9 1_555 1_555
H13 C9 1_555 1_555
C10 C3 1_555 1_555
H14 C10 1_555 1_555
H15 C10 1_555 1_555
C11 C8 1_555 1_555
H16 C11 1_555 1_555
H17 C11 1_555 1_555
C12 C4 1_555 1_555
H18 C12 1_555 1_555
H19 C12 1_555 1_555
C6 C7 1_555 1_555
C9 C12 1_555 1_555
C10 C11 1_555 1_555

#END
