
#######################################################################
#
#                 Cambridge Crystallographic Data Centre
#                                CCDC 
#
#######################################################################
#
# If this CIF has been generated from an entry in the Cambridge 
# Structural Database, then it will include bibliographic, chemical, 
# crystal, experimental, refinement or atomic coordinate data resulting 
# from the CCDC's data processing and validation procedures.
#
#######################################################################

data_TOQDUA01
_chemical_formula_moiety         '2(C9 H17 N2 1+),Cl6 Te1 2-'
_chemical_name_systematic        
'bis(1-n-butyl-2,3-dimethylimidazolium) hexachloro-tellurium'
_symmetry_cell_setting           monoclinic
_symmetry_space_group_name_H-M   'P 21/c'
_symmetry_Int_Tables_number      14
_space_group_name_Hall           '-P 2ybc'
loop_
_symmetry_equiv_pos_site_id
_symmetry_equiv_pos_as_xyz
1 x,y,z
2 -x,1/2+y,1/2-z
3 -x,-y,-z
4 x,1/2-y,1/2+z
_cell_length_a                   10.5934(2)
_cell_length_b                   13.0952(2)
_cell_length_c                   10.6533(2)
_cell_angle_alpha                90
_cell_angle_beta                 112.138(3)
_cell_angle_gamma                90
_cell_volume                     1368.91
_exptl_crystal_colour            orange
_exptl_crystal_description       block
_cell_formula_units_Z            2
loop_
_atom_site_label
_atom_site_type_symbol
_atom_site_fract_x
_atom_site_fract_y
_atom_site_fract_z
Te1 Te 0.500000 0.500000 0.500000
Cl1 Cl 0.45596(7) 0.36372(5) 0.32178(6)
Cl2 Cl 0.43310(6) 0.37512(4) 0.64542(6)
Cl3 Cl 0.74791(6) 0.44353(5) 0.61262(6)
Cl1B Cl 0.54404(7) 0.63628(5) 0.67822(6)
Cl2B Cl 0.56690(6) 0.62488(4) 0.35458(6)
Cl3B Cl 0.25209(6) 0.55647(5) 0.38738(6)
N1 N 0.72170(18) 0.36598(13) 0.19011(17)
N2 N 0.71526(19) 0.50577(13) 0.08244(19)
C1 C 0.6366(2) 0.34954(19) 0.0585(2)
H1 H 0.590369 0.289371 0.022876
C2 C 0.6325(2) 0.4357(2) -0.0086(2)
H2 H 0.582887 0.446869 -0.100342
C3 C 0.7694(2) 0.46090(17) 0.2031(2)
C4 C 0.7563(3) 0.28976(18) 0.2980(3)
H3 H 0.843322 0.260233 0.311312
H4 H 0.688056 0.237212 0.273166
H5 H 0.760138 0.321758 0.380462
C5 C 0.8677(3) 0.50680(17) 0.3286(2)
H6 H 0.863350 0.471360 0.405744
H7 H 0.845450 0.577452 0.332886
H8 H 0.958090 0.501421 0.328666
C6 C 0.7449(2) 0.60798(18) 0.0464(2)
H9 H 0.772183 0.651686 0.125681
H10 H 0.663425 0.636809 -0.021691
C7 C 0.8586(2) 0.60393(19) -0.0086(3)
H11 H 0.941462 0.579806 0.062282
H12 H 0.834044 0.555315 -0.082659
C8 C 0.8854(2) 0.70551(19) -0.0578(3)
H13 H 0.918669 0.752681 0.017837
H14 H 0.801061 0.732733 -0.123069
C9 C 0.9897(3) 0.6964(2) -0.1233(3)
H15 H 1.070312 0.663794 -0.061576
H16 H 1.012395 0.763308 -0.145289
H17 H 0.952327 0.656495 -0.204599
loop_
_geom_bond_atom_site_label_1
_geom_bond_atom_site_label_2
_geom_bond_site_symmetry_1
_geom_bond_site_symmetry_2
Te1 Cl1 1_555 1_555
Cl2 Te1 1_555 1_555
Cl3 Te1 1_555 1_555
N1 C1 1_555 1_555
N2 C2 1_555 1_555
C1 H1 1_555 1_555
C2 C1 1_555 1_555
H2 C2 1_555 1_555
C3 N1 1_555 1_555
C4 N1 1_555 1_555
H3 C4 1_555 1_555
H4 C4 1_555 1_555
H5 C4 1_555 1_555
C5 C3 1_555 1_555
H6 C5 1_555 1_555
H7 C5 1_555 1_555
H8 C5 1_555 1_555
C6 N2 1_555 1_555
H9 C6 1_555 1_555
H10 C6 1_555 1_555
C7 C6 1_555 1_555
H11 C7 1_555 1_555
H12 C7 1_555 1_555
C8 C7 1_555 1_555
H13 C8 1_555 1_555
H14 C8 1_555 1_555
C9 C8 1_555 1_555
H15 C9 1_555 1_555
H16 C9 1_555 1_555
H17 C9 1_555 1_555
Cl1B Te1 1_555 1_555
Cl2B Te1 1_555 1_555
Cl3B Te1 1_555 1_555
N2 C3 1_555 1_555

#END
