
#######################################################################
#
#                 Cambridge Crystallographic Data Centre
#                                CCDC 
#
#######################################################################
#
# If this CIF has been generated from an entry in the Cambridge 
# Structural Database, then it will include bibliographic, chemical, 
# crystal, experimental, refinement or atomic coordinate data resulting 
# from the CCDC's data processing and validation procedures.
#
#######################################################################

data_TOQMET
_chemical_formula_moiety         'C30 H31 N5 O2'
_chemical_name_systematic        
13-Methyl-23-(4-methylphenyl)-3,11-dioxo-2,18,23-triazahexacyclo[17.3.1.0^2,17^.0^4,9^.0^5,16^.0^10,15^]tricosa-10(15),17-diene-4,16-dicarbonitrile
_symmetry_cell_setting           triclinic
_symmetry_space_group_name_H-M   'P -1'
_symmetry_Int_Tables_number      2
_space_group_name_Hall           '-P 1'
loop_
_symmetry_equiv_pos_site_id
_symmetry_equiv_pos_as_xyz
1 x,y,z
2 -x,-y,-z
_cell_length_a                   11.0519(8)
_cell_length_b                   13.5682(9)
_cell_length_c                   19.4863(16)
_cell_angle_alpha                107.546(2)
_cell_angle_beta                 96.1810(10)
_cell_angle_gamma                109.124(2)
_cell_volume                     2562.3
_exptl_crystal_colour            colorless
_exptl_crystal_description       block
_cell_formula_units_Z            4
loop_
_atom_site_label
_atom_site_type_symbol
_atom_site_fract_x
_atom_site_fract_y
_atom_site_fract_z
N1 N 0.3461(2) 0.67232(18) 0.48026(12)
N2 N 0.3956(2) 0.86489(18) 0.50306(12)
N3 N 0.4804(2) 0.75994(18) 0.41043(12)
N4 N 0.0379(3) 0.4224(2) 0.54834(17)
N5 N 0.3317(3) 0.9878(2) 0.66510(14)
O1 O 0.3035(2) 0.49205(18) 0.46471(13)
O2 O 0.6037(3) 0.6082(2) 0.69213(14)
C1 C 0.3035(3) 0.5811(2) 0.50130(17)
C2 C 0.2528(3) 0.5954(2) 0.57280(16)
C3 C 0.3571(3) 0.5995(2) 0.63458(17)
H1 H 0.3767 0.5319 0.6180
C4 C 0.3051(4) 0.6069(3) 0.70605(18)
H2 H 0.2271 0.5407 0.6963
H3 H 0.3713 0.6096 0.7443
C5 C 0.2719(4) 0.7101(3) 0.73292(19)
H4 H 0.2313 0.7088 0.7746
H5 H 0.3523 0.7763 0.7498
C6 C 0.1793(3) 0.7162(3) 0.67255(18)
H6 H 0.1703 0.7879 0.6900
H7 H 0.0932 0.6584 0.6631
C7 C 0.2243(3) 0.7024(2) 0.60039(16)
H8 H 0.1536 0.6973 0.5629
C8 C 0.3528(3) 0.7964(2) 0.60264(15)
C9 C 0.3641(2) 0.7815(2) 0.52344(15)
C10 C 0.4261(3) 0.8475(2) 0.42969(15)
H9 H 0.4940 0.9173 0.4323
C11 C 0.3819(3) 0.6558(2) 0.40612(15)
H10 H 0.4187 0.5977 0.3954
C12 C 0.2600(3) 0.6198(2) 0.34586(16)
H11 H 0.2831 0.6039 0.2982
H12 H 0.1947 0.5515 0.3458
C13 C 0.2012(3) 0.7079(3) 0.35624(17)
H13 H 0.1596 0.7120 0.3978
H14 H 0.1344 0.6878 0.3124
C14 C 0.3076(3) 0.8211(2) 0.37014(16)
H15 H 0.3352 0.8216 0.3246
H16 H 0.2718 0.8786 0.3851
C15 C 0.4808(3) 0.7007(2) 0.65100(15)
C16 C 0.6053(4) 0.6930(3) 0.68204(17)
C17 C 0.7295(3) 0.7921(3) 0.69788(19)
H17 H 0.7645 0.7846 0.6538
H18 H 0.7941 0.7938 0.7366
C18 C 0.7083(3) 0.9009(3) 0.72179(18)
H19 H 0.6745 0.9069 0.7667
C19 C 0.6036(3) 0.8970(2) 0.66323(16)
H20 H 0.5823 0.9627 0.6815
H21 H 0.6379 0.8989 0.6197
C20 C 0.4800(3) 0.7938(2) 0.64195(14)
C21 C 0.8346(3) 1.0040(3) 0.7405(2)
H22 H 0.8974 1.0062 0.7796
H23 H 0.8151 1.0702 0.7562
H24 H 0.8706 1.0004 0.6975
C22 C 0.6094(3) 0.7894(2) 0.45341(15)
C23 C 0.6482(3) 0.7141(2) 0.47564(17)
H25 H 0.5875 0.6420 0.4645
C24 C 0.7750(3) 0.7442(3) 0.51397(18)
H26 H 0.7979 0.6909 0.5268
C25 C 0.8682(3) 0.8496(3) 0.53382(17)
C26 C 0.8300(3) 0.9257(3) 0.51338(18)
H27 H 0.8902 0.9986 0.5269
C27 C 0.7046(3) 0.8964(2) 0.47343(17)
H28 H 0.6832 0.9495 0.4595
C28 C 1.0052(3) 0.8803(3) 0.5773(2)
H29 H 1.0511 0.9599 0.5949
H30 H 1.0518 0.8448 0.5460
H31 H 0.9998 0.8557 0.6186
C29 C 0.1313(3) 0.4968(3) 0.55758(18)
C30 C 0.3421(3) 0.9053(3) 0.63709(16)
N6 N 0.2903(2) 0.26955(19) 0.99957(12)
N7 N 0.0786(2) 0.13369(19) 0.93293(13)
N8 N 0.1002(2) 0.3163(2) 1.01531(14)
N9 N 0.6624(3) 0.2178(3) 1.06961(18)
N10 N 0.1052(3) -0.0803(2) 0.79929(15)
O3 O 0.4953(2) 0.39593(19) 1.05845(12)
O4 O 0.6057(2) 0.39475(19) 0.82845(13)
C31 C 0.4249(3) 0.3048(3) 1.01306(16)
C32 C 0.4843(3) 0.2227(2) 0.97270(16)
C33 C 0.5487(3) 0.2618(2) 0.91402(16)
H32 H 0.6148 0.3379 0.9383
C34 C 0.6162(3) 0.1845(3) 0.87620(18)
H33 H 0.6563 0.2104 0.8397
H34 H 0.6854 0.1872 0.9128
C35 C 0.5182(3) 0.0651(3) 0.83882(19)
H35 H 0.4575 0.0605 0.7970
H36 H 0.5647 0.0169 0.8202
C36 C 0.4411(3) 0.0242(3) 0.89120(19)
H37 H 0.4991 0.0132 0.9268
H38 H 0.3712 -0.0477 0.8632
C37 C 0.3814(3) 0.1034(2) 0.93267(16)
H39 H 0.3458 0.0761 0.9703
C38 C 0.2702(3) 0.1181(2) 0.88647(15)
C39 C 0.2028(3) 0.1735(2) 0.94183(15)
C40 C 0.0210(3) 0.1960(3) 0.98649(18)
H40 H -0.0663 0.1846 0.9606
C41 C 0.2301(3) 0.3363(3) 1.05216(17)
H41 H 0.2846 0.4161 1.0681
C42 C 0.2259(4) 0.3011(3) 1.11915(18)
H42 H 0.1945 0.3477 1.1551
H43 H 0.3141 0.3121 1.1420
C43 C 0.1363(4) 0.1792(3) 1.09779(19)
H44 H 0.1231 0.1628 1.1422
H45 H 0.1781 0.1318 1.0711
C44 C 0.0038(3) 0.1533(3) 1.0497(2)
H46 H -0.0454 0.0732 1.0300
H47 H -0.0462 0.1879 1.0797
C45 C 0.4442(3) 0.2624(2) 0.85795(16)
C46 C 0.4892(3) 0.3406(3) 0.81817(17)
C47 C 0.3851(3) 0.3519(3) 0.76934(19)
H48 H 0.3578 0.4090 0.7987
H49 H 0.4224 0.3772 0.7319
C48 C 0.2670(3) 0.2470(3) 0.73192(18)
H50 H 0.2958 0.1943 0.6980
C49 C 0.2135(3) 0.1938(3) 0.78588(16)
H51 H 0.1631 0.2333 0.8115
H52 H 0.1540 0.1172 0.7584
C50 C 0.3173(3) 0.1942(2) 0.84179(15)
C51 C 0.1595(3) 0.2623(3) 0.68478(18)
H53 H 0.1283 0.3138 0.7160
H54 H 0.0879 0.1916 0.6600
H55 H 0.1947 0.2912 0.6488
C52 C 0.0880(3) 0.3718(2) 0.96523(18)
C53 C 0.1928(3) 0.4337(3) 0.94295(18)
H56 H 0.2773 0.4386 0.9598
C54 C 0.1724(3) 0.4883(3) 0.89584(19)
H57 H 0.2443 0.5303 0.8823
C55 C 0.0484(3) 0.4824(3) 0.86824(19)
C56 C -0.0549(3) 0.4202(3) 0.8906(2)
H58 H -0.1396 0.4139 0.8729
C57 C -0.0358(3) 0.3674(3) 0.9384(2)
H59 H -0.1077 0.3276 0.9531
C58 C 0.0280(3) 0.5442(3) 0.8184(2)
H60 H -0.0640 0.5296 0.8048
H61 H 0.0591 0.5195 0.7747
H62 H 0.0759 0.6229 0.8439
C59 C 0.5851(3) 0.2226(3) 1.02850(19)
C60 C 0.1747(3) 0.0070(3) 0.83728(16)
loop_
_geom_bond_atom_site_label_1
_geom_bond_atom_site_label_2
_geom_bond_site_symmetry_1
_geom_bond_site_symmetry_2
N1 C1 1_555 1_555
N2 C9 1_555 1_555
N3 C10 1_555 1_555
N4 C29 1_555 1_555
N5 C30 1_555 1_555
O1 C1 1_555 1_555
O2 C16 1_555 1_555
C1 C2 1_555 1_555
C2 C3 1_555 1_555
C3 H1 1_555 1_555
C4 C3 1_555 1_555
H2 C4 1_555 1_555
H3 C4 1_555 1_555
C5 C4 1_555 1_555
H4 C5 1_555 1_555
H5 C5 1_555 1_555
C6 C5 1_555 1_555
H6 C6 1_555 1_555
H7 C6 1_555 1_555
C7 C2 1_555 1_555
H8 C7 1_555 1_555
C8 C7 1_555 1_555
C9 N1 1_555 1_555
C10 N2 1_555 1_555
H9 C10 1_555 1_555
C11 N1 1_555 1_555
H10 C11 1_555 1_555
C12 C11 1_555 1_555
H11 C12 1_555 1_555
H12 C12 1_555 1_555
C13 C12 1_555 1_555
H13 C13 1_555 1_555
H14 C13 1_555 1_555
C14 C10 1_555 1_555
H15 C14 1_555 1_555
H16 C14 1_555 1_555
C15 C3 1_555 1_555
C16 C15 1_555 1_555
C17 C16 1_555 1_555
H17 C17 1_555 1_555
H18 C17 1_555 1_555
C18 C17 1_555 1_555
H19 C18 1_555 1_555
C19 C18 1_555 1_555
H20 C19 1_555 1_555
H21 C19 1_555 1_555
C20 C8 1_555 1_555
C21 C18 1_555 1_555
H22 C21 1_555 1_555
H23 C21 1_555 1_555
H24 C21 1_555 1_555
C22 N3 1_555 1_555
C23 C22 1_555 1_555
H25 C23 1_555 1_555
C24 C23 1_555 1_555
H26 C24 1_555 1_555
C25 C24 1_555 1_555
C26 C25 1_555 1_555
H27 C26 1_555 1_555
C27 C22 1_555 1_555
H28 C27 1_555 1_555
C28 C25 1_555 1_555
H29 C28 1_555 1_555
H30 C28 1_555 1_555
H31 C28 1_555 1_555
C29 C2 1_555 1_555
C30 C8 1_555 1_555
N6 C31 1_555 1_555
N7 C39 1_555 1_555
N8 C40 1_555 1_555
N9 C59 1_555 1_555
N10 C60 1_555 1_555
O3 C31 1_555 1_555
O4 C46 1_555 1_555
C31 C32 1_555 1_555
C32 C33 1_555 1_555
C33 H32 1_555 1_555
C34 C33 1_555 1_555
H33 C34 1_555 1_555
H34 C34 1_555 1_555
C35 C34 1_555 1_555
H35 C35 1_555 1_555
H36 C35 1_555 1_555
C36 C35 1_555 1_555
H37 C36 1_555 1_555
H38 C36 1_555 1_555
C37 C32 1_555 1_555
H39 C37 1_555 1_555
C38 C37 1_555 1_555
C39 N6 1_555 1_555
C40 N7 1_555 1_555
H40 C40 1_555 1_555
C41 N6 1_555 1_555
H41 C41 1_555 1_555
C42 C41 1_555 1_555
H42 C42 1_555 1_555
H43 C42 1_555 1_555
C43 C42 1_555 1_555
H44 C43 1_555 1_555
H45 C43 1_555 1_555
C44 C40 1_555 1_555
H46 C44 1_555 1_555
H47 C44 1_555 1_555
C45 C33 1_555 1_555
C46 C45 1_555 1_555
C47 C46 1_555 1_555
H48 C47 1_555 1_555
H49 C47 1_555 1_555
C48 C47 1_555 1_555
H50 C48 1_555 1_555
C49 C48 1_555 1_555
H51 C49 1_555 1_555
H52 C49 1_555 1_555
C50 C38 1_555 1_555
C51 C48 1_555 1_555
H53 C51 1_555 1_555
H54 C51 1_555 1_555
H55 C51 1_555 1_555
C52 N8 1_555 1_555
C53 C52 1_555 1_555
H56 C53 1_555 1_555
C54 C53 1_555 1_555
H57 C54 1_555 1_555
C55 C54 1_555 1_555
C56 C55 1_555 1_555
H58 C56 1_555 1_555
C57 C52 1_555 1_555
H59 C57 1_555 1_555
C58 C55 1_555 1_555
H60 C58 1_555 1_555
H61 C58 1_555 1_555
H62 C58 1_555 1_555
C59 C32 1_555 1_555
C60 C38 1_555 1_555
N3 C11 1_555 1_555
C6 C7 1_555 1_555
C8 C9 1_555 1_555
C13 C14 1_555 1_555
C15 C20 1_555 1_555
C19 C20 1_555 1_555
C26 C27 1_555 1_555
N8 C41 1_555 1_555
C36 C37 1_555 1_555
C38 C39 1_555 1_555
C43 C44 1_555 1_555
C45 C50 1_555 1_555
C49 C50 1_555 1_555
C56 C57 1_555 1_555

#END
