
#######################################################################
#
#                 Cambridge Crystallographic Data Centre
#                                CCDC 
#
#######################################################################
#
# If this CIF has been generated from an entry in the Cambridge 
# Structural Database, then it will include bibliographic, chemical, 
# crystal, experimental, refinement or atomic coordinate data resulting 
# from the CCDC's data processing and validation procedures.
#
#######################################################################

data_TORKOC
_chemical_formula_moiety         'C19 H24 O5,H2 O1'
_chemical_name_systematic        
'6,17-Dihydroxy-8,16-dimethyl-14-oxapentacyclo[11.2.2.1^9,12^.0^1,11^.0^4,10^]octadec-9-ene-15,18-dione monohydrate'
_symmetry_cell_setting           orthorhombic
_symmetry_space_group_name_H-M   'P 21 21 21'
_symmetry_Int_Tables_number      19
_space_group_name_Hall           'P 2ac 2ab'
loop_
_symmetry_equiv_pos_site_id
_symmetry_equiv_pos_as_xyz
1 x,y,z
2 1/2+x,1/2-y,-z
3 -x,1/2+y,1/2-z
4 1/2-x,-y,1/2+z
_cell_length_a                   9.60690(10)
_cell_length_b                   10.21920(10)
_cell_length_c                   17.6653(2)
_cell_angle_alpha                90
_cell_angle_beta                 90
_cell_angle_gamma                90
_cell_volume                     1734.29
_exptl_crystal_colour            colorless
_exptl_crystal_description       block
_cell_formula_units_Z            4
loop_
_atom_site_label
_atom_site_type_symbol
_atom_site_fract_x
_atom_site_fract_y
_atom_site_fract_z
O1 O 0.19816(16) 0.56124(13) 0.53349(7)
H1 H 0.2050 0.5738 0.5803
O2 O 0.21917(14) 0.72609(11) 0.20494(6)
O3 O 0.45324(13) 0.90278(12) 0.28146(9)
H2 H 0.5368 0.9057 0.2954
O4 O 0.22603(14) 1.16931(11) 0.22528(7)
O5 O 0.13298(13) 1.32083(11) 0.29879(7)
C1 C 0.0950(2) 0.64750(17) 0.50277(10)
H3 H 0.0096 0.6413 0.5349
C2 C 0.05955(18) 0.59667(17) 0.42379(10)
H4 H -0.0318 0.6336 0.4090
H5 H 0.0483 0.5005 0.4270
C3 C 0.16335(18) 0.62613(16) 0.36027(9)
H6 H 0.1321 0.5727 0.3160
C4 C 0.15447(16) 0.76588(16) 0.33500(9)
C5 C 0.11214(16) 0.87338(16) 0.37272(9)
C6 C 0.07814(18) 0.89185(17) 0.45558(9)
H7 H -0.0249 0.8838 0.4620
C7 C 0.14830(19) 0.78888(17) 0.50582(9)
H8 H 0.1409 0.8191 0.5589
H9 H 0.2485 0.7875 0.4928
C8 C 0.1236(2) 1.02974(17) 0.48457(10)
H10 H 0.0666 1.0512 0.5296
H11 H 0.2216 1.0238 0.5015
C9 C 0.11213(19) 1.14408(17) 0.42852(10)
H12 H 0.0129 1.1648 0.4193
H13 H 0.1573 1.2227 0.4501
C10 C 0.18265(17) 1.10737(16) 0.35385(9)
C11 C 0.10031(16) 0.99018(15) 0.32160(9)
H14 H 0.0001 1.0150 0.3164
C12 C 0.15594(17) 0.94648(16) 0.24486(9)
H15 H 0.0816 0.9577 0.2058
C13 C 0.18507(16) 0.80090(15) 0.25572(9)
C14 C 0.39602(17) 1.03058(16) 0.28258(11)
H16 H 0.4696 1.0945 0.2672
C15 C 0.27960(18) 1.03437(15) 0.22515(10)
H17 H 0.3162 1.0116 0.1738
C16 C 0.17646(17) 1.20995(16) 0.29320(10)
C17 C 0.33938(17) 1.06996(16) 0.36139(10)
H18 H 0.3450 0.9910 0.3947
C18 C 0.4273(2) 1.1770(2) 0.39794(12)
H19 H 0.5237 1.1468 0.4027
H20 H 0.3902 1.1973 0.4483
H21 H 0.4245 1.2558 0.3664
C19 C 0.31397(19) 0.58350(18) 0.37609(10)
H22 H 0.3711 0.5991 0.3310
H23 H 0.3157 0.4901 0.3887
H24 H 0.3512 0.6341 0.4186
O6 O 0.27515(12) 0.46388(11) 0.18756(7)
H25 H 0.2169 0.4164 0.2217
H26 H 0.2605 0.5479 0.1969
loop_
_geom_bond_atom_site_label_1
_geom_bond_atom_site_label_2
_geom_bond_site_symmetry_1
_geom_bond_site_symmetry_2
O1 H1 1_555 1_555
O2 C13 1_555 1_555
O3 H2 1_555 1_555
O4 C15 1_555 1_555
O5 C16 1_555 1_555
C1 O1 1_555 1_555
H3 C1 1_555 1_555
C2 C1 1_555 1_555
H4 C2 1_555 1_555
H5 C2 1_555 1_555
C3 C2 1_555 1_555
H6 C3 1_555 1_555
C4 C3 1_555 1_555
C5 C4 1_555 1_555
C6 C5 1_555 1_555
H7 C6 1_555 1_555
C7 C1 1_555 1_555
H8 C7 1_555 1_555
H9 C7 1_555 1_555
C8 C6 1_555 1_555
H10 C8 1_555 1_555
H11 C8 1_555 1_555
C9 C8 1_555 1_555
H12 C9 1_555 1_555
H13 C9 1_555 1_555
C10 C9 1_555 1_555
C11 C5 1_555 1_555
H14 C11 1_555 1_555
C12 C11 1_555 1_555
H15 C12 1_555 1_555
C13 C4 1_555 1_555
C14 O3 1_555 1_555
H16 C14 1_555 1_555
C15 C12 1_555 1_555
H17 C15 1_555 1_555
C16 O4 1_555 1_555
C17 C10 1_555 1_555
H18 C17 1_555 1_555
C18 C17 1_555 1_555
H19 C18 1_555 1_555
H20 C18 1_555 1_555
H21 C18 1_555 1_555
C19 C3 1_555 1_555
H22 C19 1_555 1_555
H23 C19 1_555 1_555
H24 C19 1_555 1_555
O6 H25 1_555 1_555
H26 O6 1_555 1_555
C6 C7 1_555 1_555
C10 C11 1_555 1_555
C10 C16 1_555 1_555
C12 C13 1_555 1_555
C14 C15 1_555 1_555
C14 C17 1_555 1_555

#END
