
#######################################################################
#
#                 Cambridge Crystallographic Data Centre
#                                CCDC 
#
#######################################################################
#
# If this CIF has been generated from an entry in the Cambridge 
# Structural Database, then it will include bibliographic, chemical, 
# crystal, experimental, refinement or atomic coordinate data resulting 
# from the CCDC's data processing and validation procedures.
#
#######################################################################

data_TORKIV
_chemical_formula_moiety         'C10 H11 N5 O1'
_chemical_name_systematic        (E)-4-Methoxy-6-(prop-1-enyl)pteridin-2-amine
_symmetry_cell_setting           monoclinic
_symmetry_space_group_name_H-M   'P 2/c'
_symmetry_Int_Tables_number      13
_space_group_name_Hall           '-P 2yc'
loop_
_symmetry_equiv_pos_site_id
_symmetry_equiv_pos_as_xyz
1 x,y,z
2 -x,y,1/2-z
3 -x,-y,-z
4 x,-y,1/2+z
_cell_length_a                   9.8207(2)
_cell_length_b                   7.2210(2)
_cell_length_c                   14.9754(4)
_cell_angle_alpha                90
_cell_angle_beta                 105.5742(11)
_cell_angle_gamma                90
_cell_volume                     1022.99
_exptl_crystal_colour            yellow
_exptl_crystal_description       cube
_chemical_melting_point          'above 170deg.C.(dec.)'
_cell_formula_units_Z            4
_exptl_crystal_recrystallization_method dichloromethane/methanol
loop_
_atom_site_label
_atom_site_type_symbol
_atom_site_fract_x
_atom_site_fract_y
_atom_site_fract_z
O1 O 0.61808(7) 0.29360(11) 0.69252(5)
N1 N 0.47076(9) 0.27382(12) 0.51199(6)
N2 N 0.81929(9) 0.09907(12) 0.50507(6)
N3 N 0.81708(8) 0.16762(12) 0.66337(6)
C1 C 0.68206(11) 0.15396(14) 0.47650(7)
N4 N 0.61635(10) 0.14351(15) 0.38434(6)
C2 C 0.68625(10) 0.22559(14) 0.63438(7)
C3 C 0.60697(10) 0.21970(13) 0.53826(7)
N5 N 1.01412(9) 0.05363(14) 0.62837(7)
C4 C 0.87922(10) 0.10712(13) 0.59579(7)
C5 C 0.48251(12) 0.19539(18) 0.35982(8)
C6 C 0.40749(11) 0.26111(15) 0.42177(7)
C7 C 0.25809(11) 0.31306(16) 0.38512(8)
C8 C 0.17361(11) 0.37101(16) 0.43426(8)
C9 C 0.69281(12) 0.3059(2) 0.78954(8)
C10 C 0.02123(12) 0.4199(2) 0.39475(10)
H1 H 0.2082(16) 0.3825(19) 0.5024(11)
H2 H 0.2199(18) 0.294(2) 0.3178(13)
H3 H 0.779(2) 0.363(2) 0.7995(12)
H4 H -0.0020(16) 0.405(2) 0.3251(12)
H5 H 0.6294(18) 0.380(2) 0.8144(11)
H6 H 0.0006(17) 0.550(3) 0.4122(11)
H7 H 0.4357(19) 0.191(2) 0.2954(13)
H8 H -0.0419(18) 0.346(2) 0.4183(11)
H9 H 1.0566(13) 0.015(2) 0.5941(10)
H10 H 0.7040(19) 0.187(3) 0.8193(13)
H11 H 1.0560(15) 0.074(2) 0.6873(11)
loop_
_geom_bond_atom_site_label_1
_geom_bond_atom_site_label_2
_geom_bond_site_symmetry_1
_geom_bond_site_symmetry_2
O1 C2 1_555 1_555
N1 C3 1_555 1_555
N2 C1 1_555 1_555
N3 C2 1_555 1_555
C1 N4 1_555 1_555
N4 C5 1_555 1_555
C2 C3 1_555 1_555
C3 C1 1_555 1_555
N5 C4 1_555 1_555
C4 N2 1_555 1_555
C5 C6 1_555 1_555
C6 N1 1_555 1_555
C7 C6 1_555 1_555
C8 C7 1_555 1_555
C9 O1 1_555 1_555
C10 C8 1_555 1_555
H1 C8 1_555 1_555
H2 C7 1_555 1_555
H3 C9 1_555 1_555
H4 C10 1_555 1_555
H5 C9 1_555 1_555
H6 C10 1_555 1_555
H7 C5 1_555 1_555
H8 C10 1_555 1_555
H9 N5 1_555 1_555
H10 C9 1_555 1_555
H11 N5 1_555 1_555
N3 C4 1_555 1_555

#END
