
#######################################################################
#
#                 Cambridge Crystallographic Data Centre
#                                CCDC 
#
#######################################################################
#
# If this CIF has been generated from an entry in the Cambridge 
# Structural Database, then it will include bibliographic, chemical, 
# crystal, experimental, refinement or atomic coordinate data resulting 
# from the CCDC's data processing and validation procedures.
#
#######################################################################

data_TORQEY
_chemical_formula_moiety         'C18 H18 N2 O3'
_chemical_name_systematic        
14-methoxy-5,14-diazapentacyclo[11.3.2.1^1,5^.0^6,11^.0^12,19^]nonadeca-6,8,10,12(19)-tetraene-4,18-dione
_symmetry_cell_setting           monoclinic
_symmetry_space_group_name_H-M   'P 21/n'
_symmetry_Int_Tables_number      14
_space_group_name_Hall           '-P 2yn'
loop_
_symmetry_equiv_pos_site_id
_symmetry_equiv_pos_as_xyz
1 x,y,z
2 1/2-x,1/2+y,1/2-z
3 -x,-y,-z
4 1/2+x,1/2-y,1/2+z
_cell_length_a                   8.2569(7)
_cell_length_b                   11.5402(10)
_cell_length_c                   15.7270(14)
_cell_angle_alpha                90
_cell_angle_beta                 102.2510(10)
_cell_angle_gamma                90
_cell_volume                     1464.44
_exptl_crystal_colour            colorless
_exptl_crystal_description       block
_cell_formula_units_Z            4
loop_
_atom_site_label
_atom_site_type_symbol
_atom_site_fract_x
_atom_site_fract_y
_atom_site_fract_z
C1 C 0.2692(2) 1.08120(14) 0.81037(11)
C2 C 0.2870(2) 1.11067(16) 0.90696(12)
H1 H 0.3967 1.1465 0.9291
H2 H 0.2011 1.1679 0.9134
C3 C 0.2697(2) 1.00329(16) 0.96141(11)
H3 H 0.3652 0.9515 0.9612
H4 H 0.2753 1.0279 1.0223
C4 C 0.1120(2) 0.93519(16) 0.93073(11)
C5 C 0.2314(2) 1.18905(15) 0.75105(12)
H5 H 0.1533 1.2396 0.7737
H6 H 0.3354 1.2331 0.7542
C6 C 0.1575(2) 1.16124(16) 0.65622(12)
C7 C 0.1300(2) 1.03212(15) 0.63282(11)
H7 H 0.0533 1.0245 0.5747
C8 C 0.3214(3) 0.90121(16) 0.49734(12)
H8 H 0.3464 0.9210 0.4409
H9 H 0.2107 0.8666 0.4883
H10 H 0.4037 0.8457 0.5275
C9 C 0.4344(2) 1.01705(16) 0.69490(12)
H11 H 0.4540 1.0977 0.6781
H12 H 0.5328 0.9710 0.6894
C10 C 0.4221(2) 1.01698(16) 0.79065(12)
H13 H 0.5236 1.0532 0.8254
H14 H 0.4194 0.9356 0.8103
N1 N 0.28915(19) 0.97116(13) 0.63182(9)
O1 O 0.04565(17) 0.87595(12) 0.97724(8)
O2 O 0.12122(19) 1.23647(12) 0.60173(9)
O3 O 0.32647(18) 1.00262(11) 0.54823(8)
C11 C -0.1826(2) 0.82979(15) 0.63779(11)
H15 H -0.1848 0.8425 0.5779
C12 C -0.2852(2) 0.74768(16) 0.66366(12)
H16 H -0.3568 0.7027 0.6209
C13 C -0.2849(2) 0.73028(16) 0.75087(13)
H17 H -0.3571 0.6737 0.7664
C14 C -0.1828(2) 0.79277(15) 0.81610(12)
H18 H -0.1850 0.7815 0.8757
C15 C -0.07735(19) 0.87246(14) 0.79046(11)
C16 C -0.07601(19) 0.89327(14) 0.70175(10)
C17 C 0.0529(2) 0.97762(14) 0.70130(10)
C18 C 0.1234(2) 1.00318(14) 0.78403(11)
N2 N 0.04824(17) 0.94135(12) 0.84140(8)
loop_
_geom_bond_atom_site_label_1
_geom_bond_atom_site_label_2
_geom_bond_site_symmetry_1
_geom_bond_site_symmetry_2
C1 C2 1_555 1_555
C2 H1 1_555 1_555
H2 C2 1_555 1_555
C3 C2 1_555 1_555
H3 C3 1_555 1_555
H4 C3 1_555 1_555
C4 C3 1_555 1_555
C5 C1 1_555 1_555
H5 C5 1_555 1_555
H6 C5 1_555 1_555
C6 C5 1_555 1_555
C7 C6 1_555 1_555
H7 C7 1_555 1_555
C8 H8 1_555 1_555
H9 C8 1_555 1_555
H10 C8 1_555 1_555
C9 H11 1_555 1_555
H12 C9 1_555 1_555
C10 C1 1_555 1_555
H13 C10 1_555 1_555
H14 C10 1_555 1_555
N1 C7 1_555 1_555
O1 C4 1_555 1_555
O2 C6 1_555 1_555
O3 C8 1_555 1_555
C11 H15 1_555 1_555
C12 C11 1_555 1_555
H16 C12 1_555 1_555
C13 C12 1_555 1_555
H17 C13 1_555 1_555
C14 C13 1_555 1_555
H18 C14 1_555 1_555
C15 C14 1_555 1_555
C16 C11 1_555 1_555
C17 C7 1_555 1_555
C18 C1 1_555 1_555
N2 C4 1_555 1_555
C9 C10 1_555 1_555
C9 N1 1_555 1_555
N1 O3 1_555 1_555
C15 C16 1_555 1_555
C15 N2 1_555 1_555
C16 C17 1_555 1_555
C17 C18 1_555 1_555
C18 N2 1_555 1_555

#END
