
#######################################################################
#
#                 Cambridge Crystallographic Data Centre
#                                CCDC 
#
#######################################################################
#
# If this CIF has been generated from an entry in the Cambridge 
# Structural Database, then it will include bibliographic, chemical, 
# crystal, experimental, refinement or atomic coordinate data resulting 
# from the CCDC's data processing and validation procedures.
#
#######################################################################

data_TORVOL
_chemical_formula_moiety         'C21 H35 Li1 N2 O2'
_chemical_name_systematic        
(N-Isopropyl-2-(isopropylamino)troponiminato)-bis(tetrahydrofuran)-lithium
_symmetry_cell_setting           monoclinic
_symmetry_space_group_name_H-M   'P 21/n'
_symmetry_Int_Tables_number      14
_space_group_name_Hall           '-P 2yn'
loop_
_symmetry_equiv_pos_site_id
_symmetry_equiv_pos_as_xyz
1 x,y,z
2 1/2-x,1/2+y,1/2-z
3 -x,-y,-z
4 1/2+x,1/2-y,1/2+z
_cell_length_a                   9.2318(8)
_cell_length_b                   14.624(2)
_cell_length_c                   16.071(2)
_cell_angle_alpha                90
_cell_angle_beta                 95.954(5)
_cell_angle_gamma                90
_cell_volume                     2157.97
_cell_formula_units_Z            4
loop_
_atom_site_label
_atom_site_type_symbol
_atom_site_fract_x
_atom_site_fract_y
_atom_site_fract_z
Li1 Li 0.2309(6) 0.2728(4) 0.8474(3)
N1 N 0.1249(3) 0.2465(2) 0.7365(2)
N2 N 0.1005(3) 0.1743(2) 0.8824(2)
C1 C 0.0283(3) 0.1808(2) 0.7380(2)
C2 C -0.0803(4) 0.1628(3) 0.6703(2)
C3 C -0.1699(4) 0.0901(3) 0.6522(2)
C4 C -0.1854(4) 0.0086(3) 0.6944(2)
C5 C -0.1143(3) -0.0129(2) 0.7710(2)
C6 C -0.0239(3) 0.0395(2) 0.8250(2)
C7 C 0.0324(3) 0.1299(2) 0.8192(2)
C8 C 0.1365(4) 0.3002(2) 0.6602(2)
C9 C 0.2934(4) 0.3261(3) 0.6548(3)
C10 C 0.0411(5) 0.3842(3) 0.6597(2)
C11 C 0.1036(4) 0.1358(2) 0.9668(2)
C12 C 0.1115(4) 0.2150(3) 1.0280(2)
C13 C 0.2352(4) 0.0733(3) 0.9843(2)
O1 O 0.2189(2) 0.3978(2) 0.8922(2)
C14 C 0.0768(4) 0.4330(3) 0.8986(3)
C15 C 0.0838(5) 0.5310(3) 0.8798(3)
C16 C 0.2328(6) 0.5556(3) 0.9149(4)
C17 C 0.3210(4) 0.4718(3) 0.9004(3)
O2 O 0.4396(2) 0.2462(2) 0.8626(2)
C18 C 0.5581(4) 0.2851(3) 0.9098(3)
C19 C 0.6864(5) 0.2267(4) 0.8981(4)
C20 C 0.6219(7) 0.1454(5) 0.8597(6)
C21 C 0.4880(5) 0.1662(4) 0.8223(3)
H1 H -0.0909 0.2109 0.6296
H2 H -0.2363 0.0972 0.6033
H3 H -0.2466 -0.0375 0.6672
H4 H -0.1319 -0.0738 0.7902
H5 H 0.0076 0.0092 0.8763
H6 H 0.1058 0.2631 0.6126
H7 H 0.3522 0.2720 0.6541
H8 H 0.3040 0.3612 0.6052
H9 H 0.3242 0.3622 0.7030
H10 H -0.0586 0.3663 0.6617
H11 H 0.0711 0.4204 0.7079
H12 H 0.0509 0.4195 0.6101
H13 H 0.0158 0.1019 0.9720
H14 H 0.0290 0.2545 1.0171
H15 H 0.1128 0.1913 1.0838
H16 H 0.1991 0.2489 1.0223
H17 H 0.2294 0.0234 0.9454
H18 H 0.3226 0.1074 0.9786
H19 H 0.2363 0.0499 1.0402
H20 H 0.0489 0.4253 0.9543
H21 H 0.0074 0.4022 0.8604
H22 H 0.0100 0.5659 0.9040
H23 H 0.0756 0.5402 0.8205
H24 H 0.2319 0.5667 0.9737
H25 H 0.2695 0.6088 0.8888
H26 H 0.3678 0.4787 0.8497
H27 H 0.3937 0.4613 0.9458
H28 H 0.5395 0.2881 0.9676
H29 H 0.5748 0.3458 0.8901
H30 H 0.7426 0.2162 0.9503
H31 H 0.7480 0.2532 0.8594
H32 H 0.6061 0.1041 0.9045
H33 H 0.6846 0.1162 0.8231
H34 H 0.5006 0.1786 0.7647
H35 H 0.4183 0.1179 0.8253
loop_
_geom_bond_atom_site_label_1
_geom_bond_atom_site_label_2
_geom_bond_site_symmetry_1
_geom_bond_site_symmetry_2
Li1 N1 1_555 1_555
N1 C1 1_555 1_555
N2 Li1 1_555 1_555
C1 C2 1_555 1_555
C2 C3 1_555 1_555
C3 C4 1_555 1_555
C4 C5 1_555 1_555
C5 C6 1_555 1_555
C6 C7 1_555 1_555
C7 N2 1_555 1_555
C8 N1 1_555 1_555
C9 C8 1_555 1_555
C10 C8 1_555 1_555
C11 N2 1_555 1_555
C12 C11 1_555 1_555
C13 C11 1_555 1_555
O1 Li1 1_555 1_555
C14 O1 1_555 1_555
C15 C14 1_555 1_555
C16 C15 1_555 1_555
C17 O1 1_555 1_555
O2 Li1 1_555 1_555
C18 O2 1_555 1_555
C19 C18 1_555 1_555
C20 C19 1_555 1_555
C21 O2 1_555 1_555
H1 C2 1_555 1_555
H2 C3 1_555 1_555
H3 C4 1_555 1_555
H4 C5 1_555 1_555
H5 C6 1_555 1_555
H6 C8 1_555 1_555
H7 C9 1_555 1_555
H8 C9 1_555 1_555
H9 C9 1_555 1_555
H10 C10 1_555 1_555
H11 C10 1_555 1_555
H12 C10 1_555 1_555
H13 C11 1_555 1_555
H14 C12 1_555 1_555
H15 C12 1_555 1_555
H16 C12 1_555 1_555
H17 C13 1_555 1_555
H18 C13 1_555 1_555
H19 C13 1_555 1_555
H20 C14 1_555 1_555
H21 C14 1_555 1_555
H22 C15 1_555 1_555
H23 C15 1_555 1_555
H24 C16 1_555 1_555
H25 C16 1_555 1_555
H26 C17 1_555 1_555
H27 C17 1_555 1_555
H28 C18 1_555 1_555
H29 C18 1_555 1_555
H30 C19 1_555 1_555
H31 C19 1_555 1_555
H32 C20 1_555 1_555
H33 C20 1_555 1_555
H34 C21 1_555 1_555
H35 C21 1_555 1_555
C1 C7 1_555 1_555
C16 C17 1_555 1_555
C20 C21 1_555 1_555

#END
