
#######################################################################
#
#                 Cambridge Crystallographic Data Centre
#                                CCDC 
#
#######################################################################
#
# If this CIF has been generated from an entry in the Cambridge 
# Structural Database, then it will include bibliographic, chemical, 
# crystal, experimental, refinement or atomic coordinate data resulting 
# from the CCDC's data processing and validation procedures.
#
#######################################################################

data_TOSCUB
_chemical_formula_moiety         
'2(C40 H48 O8),2(C1 H4 O1),4(H2 O1),Cl1 1-,C3 H10 N1 1+'
_chemical_name_systematic        
'trimethylammonium chloride 5,11,17,23-Tetramethyl-2,8,14,20-tetraethyl-4,6,10,12,16,18,22,24-octahydroxycalix(4)arene methanol solvate tetrahydrate'
_symmetry_cell_setting           orthorhombic
_symmetry_space_group_name_H-M   'P n n n'
_symmetry_Int_Tables_number      48
_space_group_name_Hall           '-P 2ab 2bc'
loop_
_symmetry_equiv_pos_site_id
_symmetry_equiv_pos_as_xyz
1 x,y,z
2 1/2-x,1/2-y,z
3 x,1/2-y,1/2-z
4 1/2-x,y,1/2-z
5 -x,-y,-z
6 1/2+x,1/2+y,-z
7 -x,1/2+y,1/2+z
8 1/2+x,-y,1/2+z
_cell_length_a                   12.6722(4)
_cell_length_b                   15.1699(5)
_cell_length_c                   22.9465(11)
_cell_angle_alpha                90
_cell_angle_beta                 90
_cell_angle_gamma                90
_cell_volume                     4411.14
_exptl_crystal_colour            colorless
_exptl_crystal_description       block
_cell_formula_units_Z            2
loop_
_atom_site_label
_atom_site_type_symbol
_atom_site_fract_x
_atom_site_fract_y
_atom_site_fract_z
O5 O 0.6177(6) 0.1172(5) 0.6933(3)
H25 H 0.5847 0.0736 0.6800
C21 C 0.5735(7) 0.1928(4) 0.6729(4)
H26 H 0.6147 0.2147 0.6398
H27 H 0.5729 0.2373 0.7039
H28 H 0.5010 0.1810 0.6603
Cl1 Cl 0.6698(15) 0.3872(12) 0.6599(9)
O6 O 0.761(2) 0.7581(15) 0.31168(19)
O1 O 0.52080(15) -0.00340(12) 0.34983(9)
H1 H 0.5847 -0.0182 0.3498
O2 O 0.35511(13) 0.27897(11) 0.35350(9)
H2 H 0.2953 0.2551 0.3529
O3 O 0.43891(14) 0.44723(12) 0.35054(9)
H3 H 0.4186 0.3945 0.3506
C1 C 0.5853(2) 0.5646(2) 0.29752(14)
H4 H 0.5543 0.6209 0.3097
H5 H 0.5347 0.5325 0.2732
H6 H 0.6498 0.5758 0.2751
C2 C 0.61162(19) 0.51047(15) 0.35065(11)
C3 C 0.71205(18) 0.51464(15) 0.37572(11)
C4 C 0.74149(17) 0.46142(14) 0.42253(10)
C5 C 0.64864(17) 0.03344(14) 0.44954(11)
H7 H 0.6201 -0.0262 0.4397
C6 C 0.65129(18) 0.03899(16) 0.51626(11)
H8 H 0.6807 0.0969 0.5279
H9 H 0.5782 0.0355 0.5314
C7 C 0.7166(2) -0.0335(2) 0.54383(14)
H10 H 0.7897 -0.0292 0.5301
H11 H 0.6875 -0.0910 0.5329
H12 H 0.7150 -0.0272 0.5863
C8 C 0.57334(17) 0.10041(14) 0.42257(10)
C9 C 0.51062(18) 0.07907(15) 0.37474(11)
C10 C 0.43781(18) 0.13800(16) 0.35057(11)
C11 C 0.3717(2) 0.11364(19) 0.29816(13)
H13 H 0.4121 0.0740 0.2728
H14 H 0.3531 0.1672 0.2765
H15 H 0.3072 0.0840 0.3111
C12 C 0.42813(17) 0.22052(15) 0.37655(11)
C13 C 0.49012(16) 0.24607(14) 0.42393(10)
C14 C 0.56210(17) 0.18481(14) 0.44532(10)
H16 H 0.6058 0.2015 0.4771
C15 C 0.48136(17) 0.33818(14) 0.45002(11)
H17 H 0.4105 0.3615 0.4385
C16 C 0.48466(19) 0.33917(16) 0.51707(11)
H18 H 0.5528 0.3143 0.5302
H19 H 0.4810 0.4010 0.5308
C17 C 0.3949(2) 0.2869(2) 0.54473(14)
H20 H 0.3272 0.3086 0.5299
H21 H 0.3973 0.2940 0.5872
H22 H 0.4026 0.2243 0.5349
C18 C 0.56287(17) 0.39948(14) 0.42287(10)
C19 C 0.53837(18) 0.45260(15) 0.37531(11)
C20 C 0.66524(17) 0.40407(14) 0.44422(10)
H23 H 0.6843 0.3660 0.4753
O4 O 0.78371(14) 0.57359(12) 0.35219(9)
H24 H 0.8447 0.5521 0.3541
O1A O 0.97920(15) 0.50340(12) 0.34983(9)
H1A H 0.9153 0.5182 0.3498
O2A O 1.14489(13) 0.22103(11) 0.35350(9)
H2A H 1.2047 0.2449 0.3529
O3A O 1.06109(14) 0.05277(12) 0.35054(9)
H3A H 1.0814 0.1055 0.3506
C1A C 0.9147(2) -0.0646(2) 0.29752(14)
H4A H 0.9457 -0.1209 0.3097
H5A H 0.9653 -0.0325 0.2732
H6A H 0.8502 -0.0758 0.2751
C2A C 0.88838(19) -0.01047(15) 0.35065(11)
C3A C 0.78795(18) -0.01464(15) 0.37572(11)
C4A C 0.75851(17) 0.03858(14) 0.42253(10)
C5A C 0.85136(17) 0.46656(14) 0.44954(11)
H7A H 0.8799 0.5262 0.4397
C6A C 0.84871(18) 0.46101(16) 0.51626(11)
H8A H 0.8193 0.4031 0.5279
H9A H 0.9218 0.4645 0.5314
C7A C 0.7834(2) 0.5335(2) 0.54383(14)
H10A H 0.7103 0.5292 0.5301
H11A H 0.8125 0.5910 0.5329
H12A H 0.7850 0.5272 0.5863
C8A C 0.92666(17) 0.39959(14) 0.42257(10)
C9A C 0.98938(18) 0.42093(15) 0.37474(11)
C10A C 1.06219(18) 0.36200(16) 0.35057(11)
C11A C 1.1283(2) 0.38636(19) 0.29816(13)
H13A H 1.0879 0.4260 0.2728
H14A H 1.1469 0.3328 0.2765
H15A H 1.1928 0.4160 0.3111
C12A C 1.07187(17) 0.27948(15) 0.37655(11)
C13A C 1.00988(16) 0.25393(14) 0.42393(10)
C14A C 0.93790(17) 0.31519(14) 0.44532(10)
H16A H 0.8942 0.2985 0.4771
C15A C 1.01864(17) 0.16182(14) 0.45002(11)
H17A H 1.0895 0.1385 0.4385
C16A C 1.01534(19) 0.16083(16) 0.51707(11)
H18A H 0.9472 0.1857 0.5302
H19A H 1.0190 0.0990 0.5308
C17A C 1.1051(2) 0.2131(2) 0.54473(14)
H20A H 1.1728 0.1914 0.5299
H21A H 1.1027 0.2060 0.5872
H22A H 1.0974 0.2757 0.5349
C18A C 0.93713(17) 0.10052(14) 0.42287(10)
C19A C 0.96163(18) 0.04740(15) 0.37531(11)
C20A C 0.83476(17) 0.09593(14) 0.44422(10)
H23A H 0.8157 0.1340 0.4753
O4A O 0.71629(14) -0.07359(12) 0.35219(9)
H24A H 0.6553 -0.0521 0.3541
H29? H 0.4640 -0.0321 0.3398
H30? H 0.3821 0.3294 0.3513
H31? H 0.4164 0.4958 0.3334
H32? H 0.7515 0.6184 0.3400
Cl2? Cl 0.6324(15) 0.1229(15) 0.6635(9)
N1? N 0.779(2) 0.258(2) 0.2689(11)
H33? H 0.7180 0.2437 0.2429
C22? C 0.758(6) 0.257(4) 0.3352(13)
H34? H 0.7046 0.3017 0.3436
H35? H 0.7351 0.1998 0.3503
H36? H 0.8249 0.2737 0.3539
C23? C 0.877(3) 0.196(2) 0.266(2)
H37? H 0.9347 0.2214 0.2888
H38? H 0.8987 0.1883 0.2256
H39? H 0.8578 0.1382 0.2827
C24? C 0.836(3) 0.3453(19) 0.257(2)
H40? H 0.8111 0.3900 0.2849
H41? H 0.8214 0.3648 0.2174
H42? H 0.9121 0.3368 0.2623
N2? N 0.729(2) 0.2719(14) 0.2559(15)
H43? H 0.7922 0.2411 0.2398
C25? C 0.706(3) 0.264(3) 0.3219(14)
H44? H 0.6897 0.2031 0.3337
H45? H 0.7616 0.2873 0.3474
H46? H 0.6430 0.3002 0.3250
C26? C 0.618(2) 0.246(3) 0.2314(15)
H47? H 0.5885 0.1965 0.2535
H48? H 0.6250 0.2293 0.1903
H49? H 0.5699 0.2968 0.2345
C27? C 0.719(3) 0.3715(17) 0.246(2)
H50? H 0.6518 0.3924 0.2623
H51? H 0.7200 0.3837 0.2039
H52? H 0.7775 0.4020 0.2648
Cl3? Cl 0.7500 0.2500 0.5819(7)
O7? O 0.6681(7) 0.4109(5) 0.6885(4)
H53? H 0.6749 0.4060 0.7261
H54? H 0.7287 0.4015 0.6719
H55? H 0.7463 0.7094 0.3301
H56? H 0.7301 0.7580 0.2778
loop_
_geom_bond_atom_site_label_1
_geom_bond_atom_site_label_2
_geom_bond_site_symmetry_1
_geom_bond_site_symmetry_2
O1 H1 1_555 1_555
O2 H2 1_555 1_555
O3 H3 1_555 1_555
C1 H4 1_555 1_555
H5 C1 1_555 1_555
H6 C1 1_555 1_555
C2 C1 1_555 1_555
C3 C2 1_555 1_555
C4 C3 1_555 1_555
C5 H7 1_555 1_555
C6 C5 1_555 1_555
H8 C6 1_555 1_555
H9 C6 1_555 1_555
C7 C6 1_555 1_555
H10 C7 1_555 1_555
H11 C7 1_555 1_555
H12 C7 1_555 1_555
C8 C5 1_555 1_555
C9 O1 1_555 1_555
C10 C9 1_555 1_555
C11 C10 1_555 1_555
H13 C11 1_555 1_555
H14 C11 1_555 1_555
H15 C11 1_555 1_555
C12 O2 1_555 1_555
C13 C12 1_555 1_555
C14 C8 1_555 1_555
H16 C14 1_555 1_555
C15 C13 1_555 1_555
H17 C15 1_555 1_555
C16 C15 1_555 1_555
H18 C16 1_555 1_555
H19 C16 1_555 1_555
C17 C16 1_555 1_555
H20 C17 1_555 1_555
H21 C17 1_555 1_555
H22 C17 1_555 1_555
C18 C15 1_555 1_555
C19 O3 1_555 1_555
C20 C4 1_555 1_555
H23 C20 1_555 1_555
O4 C3 1_555 1_555
H24 O4 1_555 1_555
O5 H25 1_555 1_555
C21 O5 1_555 1_555
H26 C21 1_555 1_555
H27 C21 1_555 1_555
H28 C21 1_555 1_555
O1A H1A 1_555 1_555
O2A H2A 1_555 1_555
O3A H3A 1_555 1_555
C1A H4A 1_555 1_555
H5A C1A 1_555 1_555
H6A C1A 1_555 1_555
C2A C1A 1_555 1_555
C3A C2A 1_555 1_555
C4A C5 1_555 1_555
C5A C4 1_555 1_555
H7A C5A 1_555 1_555
C6A C5A 1_555 1_555
H8A C6A 1_555 1_555
H9A C6A 1_555 1_555
C7A C6A 1_555 1_555
H10A C7A 1_555 1_555
H11A C7A 1_555 1_555
H12A C7A 1_555 1_555
C8A C5A 1_555 1_555
C9A O1A 1_555 1_555
C10A C9A 1_555 1_555
C11A C10A 1_555 1_555
H13A C11A 1_555 1_555
H14A C11A 1_555 1_555
H15A C11A 1_555 1_555
C12A O2A 1_555 1_555
C13A C12A 1_555 1_555
C14A C8A 1_555 1_555
H16A C14A 1_555 1_555
C15A C13A 1_555 1_555
H17A C15A 1_555 1_555
C16A C15A 1_555 1_555
H18A C16A 1_555 1_555
H19A C16A 1_555 1_555
C17A C16A 1_555 1_555
H20A C17A 1_555 1_555
H21A C17A 1_555 1_555
H22A C17A 1_555 1_555
C18A C15A 1_555 1_555
C19A O3A 1_555 1_555
C20A C4A 1_555 1_555
H23A C20A 1_555 1_555
O4A C3A 1_555 1_555
H24A O4A 1_555 1_555
C2 C19 1_555 1_555
C8 C9 1_555 1_555
C10 C12 1_555 1_555
C13 C14 1_555 1_555
C18 C19 1_555 1_555
C18 C20 1_555 1_555
C2A C19A 1_555 1_555
C3A C4A 1_555 1_555
C8A C9A 1_555 1_555
C10A C12A 1_555 1_555
C13A C14A 1_555 1_555
C18A C19A 1_555 1_555
C18A C20A 1_555 1_555

#END
