
#######################################################################
#
#                 Cambridge Crystallographic Data Centre
#                                CCDC 
#
#######################################################################
#
# If this CIF has been generated from an entry in the Cambridge 
# Structural Database, then it will include bibliographic, chemical, 
# crystal, experimental, refinement or atomic coordinate data resulting 
# from the CCDC's data processing and validation procedures.
#
#######################################################################

data_TOSDOW
_chemical_name_common            
'1,4-dimethylpiperazinediium dichloride 2,8,14,20-tetraethyl-4,6,10,12,16,18,22,24-octahydroxycalix(4)arene methanol dihydrate'
_chemical_formula_moiety         
'C36 H40 O8,C6 H16 N2 2+,3(C1 H4 O1),2(H2 O1),2(Cl1 1-)'
_chemical_name_systematic        
'1,4-dimethylpiperazinediium dichloride tetraethylpentacyclo[19.3.1.1^3,7^.1^9,13^.1^15,19^]octacosa-1(25),3(28),4,6,9(27),10,12,15(26),16,18,21,23-dodecaene-4,6,10,12,16,18,22,24-octol methanol dihydrate'
_symmetry_cell_setting           triclinic
_symmetry_space_group_name_H-M   'P -1'
_symmetry_Int_Tables_number      2
_space_group_name_Hall           '-P 1'
loop_
_symmetry_equiv_pos_site_id
_symmetry_equiv_pos_as_xyz
1 x,y,z
2 -x,-y,-z
_cell_length_a                   11.5090(3)
_cell_length_b                   11.5275(2)
_cell_length_c                   18.1749(4)
_cell_angle_alpha                94.3636(17)
_cell_angle_beta                 101.9147(18)
_cell_angle_gamma                97.3470(18)
_cell_volume                     2326.86
_exptl_crystal_colour            colorless
_exptl_crystal_description       brick
_cell_formula_units_Z            2
loop_
_atom_site_label
_atom_site_type_symbol
_atom_site_fract_x
_atom_site_fract_y
_atom_site_fract_z
Cl1 Cl 0.14064(8) 0.64274(9) 0.50182(5)
O1 O -0.15389(17) 0.41338(16) 0.66827(10)
O2 O -0.2241(2) 1.11750(18) 0.69068(11)
H1 H -0.2719 1.1241 0.6501
O3 O 0.16715(18) 0.72732(16) 0.66910(10)
H2 H 0.1579 0.6970 0.6244
O4 O -0.5406(2) 0.80621(18) 0.69397(12)
H3 H -0.5698 0.8323 0.6534
C1 C 0.0162(2) 0.6366(2) 0.81632(12)
H4 H 0.0196 0.6599 0.8681
O5 O -0.62700(17) 0.58509(17) 0.74252(13)
H5 H -0.6242 0.6572 0.7377
O6 O 0.29721(19) 0.97587(18) 0.73292(14)
H6 H 0.2921 0.9026 0.7242
C2 C -0.2787(2) 0.5001(2) 0.79854(14)
O7 O 0.02460(19) 1.24755(18) 0.76027(15)
H7 H 0.0838 1.3002 0.7640
C3 C -0.1047(2) 1.0984(2) 0.84145(13)
H8 H -0.1137 1.1804 0.8292
C4 C 0.1390(2) 0.9224(2) 0.79789(13)
C5 C -0.1521(2) 0.4687(2) 0.82009(13)
H9 H -0.1567 0.3840 0.8013
C6 C -0.4395(2) 0.7608(2) 0.84135(15)
H10 H -0.5282 0.7618 0.8294
C7 C -0.0671(2) 0.5396(2) 0.78056(13)
C8 C 0.0946(2) 0.7013(2) 0.78035(13)
C9 C -0.2768(2) 0.9327(2) 0.83859(13)
H11 H -0.2400 0.9225 0.8890
C10 C -0.3037(2) 0.6101(2) 0.82140(14)
H12 H -0.2387 0.6670 0.8481
C11 C 0.1998(2) 1.0024(2) 0.75978(16)
C12 C 0.0391(2) 0.9557(2) 0.82068(13)
H13 H -0.0051 0.9013 0.8451
C13 C 0.1839(2) 0.8079(2) 0.81849(13)
H14 H 0.2582 0.8045 0.7985
C14 C -0.4184(2) 0.6422(2) 0.80759(14)
C15 C -0.0004(2) 1.0640(2) 0.81004(14)
C16 C -0.1083(2) 0.4798(2) 0.90671(14)
H15 H -0.0266 0.4580 0.9193
H16 H -0.1036 0.5626 0.9273
C17 C 0.0058(2) 0.5693(2) 0.66605(12)
H17 H 0.0017 0.5466 0.6141
C18 C 0.0644(2) 1.1416(2) 0.77292(16)
C19 C -0.3758(3) 0.4181(2) 0.75855(17)
C20 C 0.1628(3) 1.1112(2) 0.74775(17)
H18 H 0.2056 1.1648 0.7221
C21 C 0.2207(2) 0.8092(2) 0.90472(13)
H19 H 0.1491 0.8140 0.9264
H20 H 0.2502 0.7344 0.9168
C22 C -0.2223(2) 1.0200(2) 0.80303(13)
C23 C 0.0885(2) 0.6644(2) 0.70422(14)
C24 C -0.3825(3) 0.9641(2) 0.69242(14)
H21 H -0.4189 0.9745 0.6419
C25 C -0.0706(2) 0.5076(2) 0.70412(13)
O8 O -0.3572(2) 0.30688(18) 0.73574(18)
H22 H -0.4143 0.2576 0.7413
C26 C 0.3180(3) 0.9116(3) 0.94178(14)
H23 H 0.3883 0.9090 0.9194
H24 H 0.3411 0.9054 0.9962
H25 H 0.2872 0.9861 0.9336
C27 C -0.4357(3) 0.8780(2) 0.72968(16)
C28 C -0.0764(2) 1.1016(2) 0.92849(13)
H26 H -0.1457 1.1239 0.9477
H27 H -0.0647 1.0219 0.9425
C29 C -0.5112(2) 0.5590(2) 0.76451(16)
C30 C -0.2766(3) 1.0344(2) 0.72886(14)
C31 C -0.3834(2) 0.8591(2) 0.80375(14)
C32 C -0.4905(2) 0.4475(2) 0.74078(17)
H28 H -0.5549 0.3915 0.7124
C33 C -0.3981(2) 0.7735(2) 0.92803(15)
H29 H -0.3112 0.7684 0.9417
H30 H -0.4102 0.8520 0.9486
C34 C 0.0353(3) 1.1880(3) 0.96596(14)
H31 H 0.1056 1.1624 0.9506
H32 H 0.0465 1.1909 1.0210
H33 H 0.0258 1.2664 0.9504
C35 C -0.1913(3) 0.4014(3) 0.94370(15)
H34 H -0.2024 0.3204 0.9200
H35 H -0.2692 0.4295 0.9372
H36 H -0.1557 0.4038 0.9978
C36 C -0.4661(3) 0.6791(3) 0.96424(17)
H37 H -0.5523 0.6829 0.9503
H38 H -0.4387 0.6924 1.0194
H39 H -0.4508 0.6013 0.9463
H40 H -0.139(3) 0.396(3) 0.628(2)
O9 O 0.2191(2) 0.40953(19) 0.78295(12)
H41 H 0.2465 0.4690 0.7645
C37 C 0.2661(4) 0.4209(4) 0.8607(2)
H42 H 0.3539 0.4305 0.8703
H43 H 0.2362 0.3503 0.8819
H44 H 0.2411 0.4900 0.8845
Cl3 Cl -0.3802(7) 0.8595(6) 0.4773(5)
N1 N -0.0557(3) 0.9294(2) 0.54919(14)
H45 H -0.0904 0.8607 0.5105
C38 C -0.0887(3) 0.8993(3) 0.62106(16)
H46 H -0.0609 0.8251 0.6343
H47 H -0.1762 0.8908 0.6147
H48 H -0.0509 0.9621 0.6615
C39 C 0.0758(3) 0.9470(4) 0.5553(2)
H49 H 0.1090 0.8765 0.5730
H50 H 0.1135 1.0150 0.5930
C40 C -0.1057(4) 1.0310(4) 0.5207(3)
H51 H -0.0729 1.1012 0.5575
H52 H -0.1940 1.0175 0.5150
N1A N 0.0557(3) 1.0706(2) 0.45081(14)
H45A H 0.0904 1.1393 0.4895
C38A C 0.0887(3) 1.1007(3) 0.37894(16)
H46A H 0.0609 1.1749 0.3657
H47A H 0.1762 1.1092 0.3853
H48A H 0.0509 1.0379 0.3385
C39A C -0.0758(3) 1.0530(4) 0.4447(2)
H49A H -0.1090 1.1235 0.4270
H50A H -0.1135 0.9850 0.4070
C40A C 0.1057(4) 0.9690(4) 0.4793(3)
H51A H 0.0729 0.8988 0.4425
H52A H 0.1940 0.9825 0.4850
C41 C -0.3330(3) 0.6407(3) 0.62290(18)
H54 H -0.3585 0.7130 0.6420
H55 H -0.2511 0.6584 0.6153
H56 H -0.3353 0.5829 0.6596
C42 C -0.5422(3) 0.5641(3) 0.55732(18)
H57 H -0.5691 0.6356 0.5778
H58 H -0.5484 0.5036 0.5927
C43 C -0.3764(5) 0.4823(5) 0.5221(3)
H59 H -0.3836 0.4225 0.5579
H60 H -0.2914 0.4980 0.5183
N3 N -0.4153(4) 0.5919(5) 0.5499(3)
H61 H -0.4109 0.6503 0.5122
C41A C -0.6670(3) 0.3593(3) 0.37710(18)
H54A H -0.6415 0.2870 0.3580
H55A H -0.7489 0.3416 0.3847
H56A H -0.6647 0.4171 0.3404
C42A C -0.4578(3) 0.4359(3) 0.44268(18)
H57A H -0.4309 0.3644 0.4222
H58A H -0.4516 0.4964 0.4073
C43A C -0.6236(5) 0.5177(5) 0.4779(3)
H59A H -0.6164 0.5775 0.4421
H60A H -0.7086 0.5020 0.4817
N3A N -0.5847(4) 0.4081(5) 0.4501(3)
H61A H -0.5891 0.3497 0.4878
O10 O -0.5406(2) 1.1695(2) 0.76429(16)
C45 C -0.4988(5) 1.1638(5) 0.8426(3)
H69 H -0.4466 1.1029 0.8501
H70 H -0.5674 1.1445 0.8660
H71 H -0.4535 1.2400 0.8661
H72 H -0.6109 1.1332 0.7504
O11 O -0.1188(3) 0.6961(3) 0.47900(15)
H77 H -0.0455 0.6897 0.4876
C47 C -0.1719(4) 0.6578(4) 0.4017(2)
H78 H -0.1125 0.6753 0.3709
H79 H -0.2406 0.6990 0.3851
H80 H -0.1991 0.5729 0.3959
O14 O -0.3393(7) 0.1568(9) 0.5592(4)
Cl2? Cl -0.3700(17) 0.7790(17) 0.4523(8)
Cl4? Cl -0.3985(11) 0.8030(11) 0.4667(8)
Cl5? Cl -0.367(3) 0.830(3) 0.4581(14)
N2? N -0.4061(9) 0.5380(10) 0.5674(5)
H53? H -0.3961 0.4605 0.5873
H62? H -0.3433 0.7148 0.6009
H63? H -0.2479 0.6313 0.6330
H64? H -0.3610 0.6419 0.6703
H65? H -0.5637 0.5755 0.6071
H66? H -0.5528 0.6356 0.5313
C44? C -0.3827(10) 0.5401(12) 0.4886(6)
H67? H -0.4043 0.6129 0.4673
H68? H -0.2968 0.5370 0.4898
H73? H -0.4748 1.1438 0.7752
C46? C -0.5811(12) 1.1605(11) 0.6832(7)
H74? H -0.6642 1.1208 0.6687
H75? H -0.5297 1.1152 0.6593
H76? H -0.5767 1.2395 0.6664
O12? O -0.3902(6) 0.3073(7) 0.5906(4)
H81? H -0.4490 0.2495 0.5754
H82? H -0.3462 0.2942 0.6333
O13? O -0.3461(16) 0.075(2) 0.4171(15)
O15? O -0.3562(6) 0.1404(5) 0.4412(3)
O16? O -0.373(3) 0.212(2) 0.5760(17)
O17? O -0.368(4) 0.152(4) 0.499(2)
O18? O -0.4051(18) 0.068(2) 0.5494(12)
loop_
_geom_bond_atom_site_label_1
_geom_bond_atom_site_label_2
_geom_bond_site_symmetry_1
_geom_bond_site_symmetry_2
O1 C25 1_555 1_555
O2 H1 1_555 1_555
O3 H2 1_555 1_555
O4 H3 1_555 1_555
C1 H4 1_555 1_555
O5 H5 1_555 1_555
O6 H6 1_555 1_555
C2 C5 1_555 1_555
O7 H7 1_555 1_555
C3 H8 1_555 1_555
C4 C11 1_555 1_555
C5 H9 1_555 1_555
C6 H10 1_555 1_555
C7 C1 1_555 1_555
C8 C1 1_555 1_555
C9 H11 1_555 1_555
C10 C2 1_555 1_555
H12 C10 1_555 1_555
C11 O6 1_555 1_555
C12 C4 1_555 1_555
H13 C12 1_555 1_555
C13 C4 1_555 1_555
H14 C13 1_555 1_555
C14 C6 1_555 1_555
C15 C3 1_555 1_555
C16 C5 1_555 1_555
H15 C16 1_555 1_555
H16 C16 1_555 1_555
C17 H17 1_555 1_555
C18 O7 1_555 1_555
C19 C2 1_555 1_555
C20 C11 1_555 1_555
H18 C20 1_555 1_555
C21 C13 1_555 1_555
H19 C21 1_555 1_555
H20 C21 1_555 1_555
C22 C3 1_555 1_555
C23 O3 1_555 1_555
C24 H21 1_555 1_555
C25 C7 1_555 1_555
O8 C19 1_555 1_555
H22 O8 1_555 1_555
C26 C21 1_555 1_555
H23 C26 1_555 1_555
H24 C26 1_555 1_555
H25 C26 1_555 1_555
C27 O4 1_555 1_555
C28 C3 1_555 1_555
H26 C28 1_555 1_555
H27 C28 1_555 1_555
C29 O5 1_555 1_555
C30 O2 1_555 1_555
C31 C6 1_555 1_555
C32 C19 1_555 1_555
H28 C32 1_555 1_555
C33 C6 1_555 1_555
H29 C33 1_555 1_555
H30 C33 1_555 1_555
C34 C28 1_555 1_555
H31 C34 1_555 1_555
H32 C34 1_555 1_555
H33 C34 1_555 1_555
C35 C16 1_555 1_555
H34 C35 1_555 1_555
H35 C35 1_555 1_555
H36 C35 1_555 1_555
C36 C33 1_555 1_555
H37 C36 1_555 1_555
H38 C36 1_555 1_555
H39 C36 1_555 1_555
H40 O1 1_555 1_555
O9 H41 1_555 1_555
C37 O9 1_555 1_555
H42 C37 1_555 1_555
H43 C37 1_555 1_555
H44 C37 1_555 1_555
N1 H45 1_555 1_555
C38 N1 1_555 1_555
H46 C38 1_555 1_555
H47 C38 1_555 1_555
H48 C38 1_555 1_555
C39 N1 1_555 1_555
H49 C39 1_555 1_555
H50 C39 1_555 1_555
C40 N1 1_555 1_555
H51 C40 1_555 1_555
H52 C40 1_555 1_555
C41 H54 1_555 1_555
H55 C41 1_555 1_555
H56 C41 1_555 1_555
C42 H57 1_555 1_555
H58 C42 1_555 1_555
C43 H59 1_555 1_555
H60 C43 1_555 1_555
N3 C41 1_555 1_555
H61 N3 1_555 1_555
O10 C45 1_555 1_555
C45 H69 1_555 1_555
H70 C45 1_555 1_555
H71 C45 1_555 1_555
H72 O10 1_555 1_555
O11 H77 1_555 1_555
C47 O11 1_555 1_555
H78 C47 1_555 1_555
H79 C47 1_555 1_555
H80 C47 1_555 1_555
N1A H45A 1_555 1_555
C38A N1A 1_555 1_555
H46A C38A 1_555 1_555
H47A C38A 1_555 1_555
H48A C38A 1_555 1_555
C39A C40 1_555 1_555
H49A C39A 1_555 1_555
H50A C39A 1_555 1_555
C40A C39 1_555 1_555
H51A C40A 1_555 1_555
H52A C40A 1_555 1_555
C41A H54A 1_555 1_555
H55A C41A 1_555 1_555
H56A C41A 1_555 1_555
C42A C43 1_555 1_555
H57A C42A 1_555 1_555
H58A C42A 1_555 1_555
C43A C42 1_555 1_555
H59A C43A 1_555 1_555
H60A C43A 1_555 1_555
N3A C41A 1_555 1_555
H61A N3A 1_555 1_555
C5 C7 1_555 1_555
C8 C13 1_555 1_555
C8 C23 1_555 1_555
C9 C22 1_555 1_555
C9 C31 1_555 1_555
C10 C14 1_555 1_555
C12 C15 1_555 1_555
C14 C29 1_555 1_555
C15 C18 1_555 1_555
C17 C23 1_555 1_555
C17 C25 1_555 1_555
C18 C20 1_555 1_555
C22 C30 1_555 1_555
C24 C27 1_555 1_555
C24 C30 1_555 1_555
C27 C31 1_555 1_555
C29 C32 1_555 1_555
C42 N3 1_555 1_555
C43 N3 1_555 1_555
N1A C39A 1_555 1_555
N1A C40A 1_555 1_555
C42A N3A 1_555 1_555
C43A N3A 1_555 1_555

#END
