
#######################################################################
#
#                 Cambridge Crystallographic Data Centre
#                                CCDC 
#
#######################################################################
#
# If this CIF has been generated from an entry in the Cambridge 
# Structural Database, then it will include bibliographic, chemical, 
# crystal, experimental, refinement or atomic coordinate data resulting 
# from the CCDC's data processing and validation procedures.
#
#######################################################################

data_TOSDUA
_chemical_formula_moiety         'C17 H31 N1 O4'
_chemical_name_systematic        
'(3R)-3-((1R)-1-Hydroxy-2-methylpropyl)-1-oxa-4-azaspiro(4.5)decane-4-carboxylic acid t-butyl ester'
_symmetry_cell_setting           orthorhombic
_symmetry_space_group_name_H-M   'P 21 21 21'
_symmetry_Int_Tables_number      19
_space_group_name_Hall           'P 2ac 2ab'
loop_
_symmetry_equiv_pos_site_id
_symmetry_equiv_pos_as_xyz
1 x,y,z
2 1/2-x,-y,1/2+z
3 1/2+x,1/2-y,-z
4 -x,1/2+y,1/2-z
_cell_length_a                   10.3209(5)
_cell_length_b                   26.418(1)
_cell_length_c                   6.8764(3)
_cell_angle_alpha                90
_cell_angle_beta                 90
_cell_angle_gamma                90
_cell_volume                     1874.9
_exptl_crystal_colour            white
_chemical_melting_point          130deg.C
_cell_formula_units_Z            4
loop_
_atom_site_label
_atom_site_type_symbol
_atom_site_fract_x
_atom_site_fract_y
_atom_site_fract_z
O1 O 0.6040(4) 0.0598(1) 0.5331(6)
O2 O 0.4278(4) 0.1208(1) 0.0177(5)
O3 O 0.7284(3) 0.1970(1) 0.3238(5)
O4 O 0.5252(3) 0.2038(1) 0.2040(6)
N1 N 0.5888(4) 0.1336(1) 0.3672(6)
C1 C 0.4580(5) 0.1117(2) 0.3701(7)
C2 C 0.4717(6) 0.0747(2) 0.5388(8)
C3 C 0.6783(5) 0.1042(2) 0.4931(7)
C4 C 0.7981(6) 0.0863(2) 0.3881(9)
C5 C 0.8837(7) 0.0548(3) 0.523(2)
C6 C 0.917(1) 0.0832(3) 0.706(2)
C7 C 0.797(1) 0.1004(3) 0.809(1)
C8 C 0.7098(6) 0.1320(2) 0.6821(8)
C9 C 0.4187(5) 0.0869(2) 0.1797(8)
C10 C 0.2800(6) 0.0652(2) 0.182(1)
C11 C 0.2540(7) 0.0363(2) -0.004(1)
C12 C 0.1782(6) 0.1053(3) 0.209(2)
C13 C 0.6081(5) 0.1803(2) 0.2915(7)
C14 C 0.7745(5) 0.2455(2) 0.2385(8)
C15 C 0.7664(7) 0.2431(3) 0.020(1)
C16 C 0.6988(7) 0.2892(2) 0.322(1)
C17 C 0.9139(6) 0.2471(2) 0.307(1)
H1 H 0.3961 0.1378 0.4039
H2 H 0.4779 0.0600 0.1558
H3 H 0.2719 0.0426 0.2892
H4 H 0.4180 0.0460 0.5230
H5 H 0.4537 0.0902 0.6612
H6 H 0.7743 0.0674 0.2797
H7 H 0.8463 0.1156 0.3490
H8 H 0.8367 0.0249 0.5603
H9 H 0.9601 0.0452 0.4578
H10 H 0.9674 0.0623 0.7842
H11 H 0.9666 0.1121 0.6648
H12 H 0.7517 0.0725 0.8601
H13 H 0.8240 0.1217 0.9191
H14 H 0.7518 0.1626 0.6461
H15 H 0.6311 0.1391 0.7455
H16 H 0.1754 0.0178 -0.0021
H17 H 0.3238 0.0116 -0.0291
H18 H 0.2534 0.0582 -0.1166
H19 H 0.0972 0.0958 0.1504
H20 H 0.1648 0.1144 0.3386
H21 H 0.2049 0.1366 0.1386
H22 H 0.6772 0.2469 -0.0238
H23 H 0.8144 0.2705 -0.0411
H24 H 0.7983 0.2121 -0.0309
H25 H 0.7379 0.3207 0.2900
H26 H 0.6899 0.2860 0.4572
H27 H 0.6121 0.2892 0.2645
H28 H 0.9593 0.2759 0.2578
H29 H 0.9174 0.2489 0.4479
H30 H 0.4421 0.1581 0.0837
H31 H 0.9601 0.2172 0.2690
loop_
_geom_bond_atom_site_label_1
_geom_bond_atom_site_label_2
_geom_bond_site_symmetry_1
_geom_bond_site_symmetry_2
O1 C2 1_555 1_555
O2 C9 1_555 1_555
O3 C13 1_555 1_555
O4 C13 1_555 1_555
N1 C1 1_555 1_555
C1 C2 1_555 1_555
C2 H4 1_555 1_555
C3 O1 1_555 1_555
C4 C3 1_555 1_555
C5 C4 1_555 1_555
C6 C5 1_555 1_555
C7 C6 1_555 1_555
C8 C3 1_555 1_555
C9 C1 1_555 1_555
C10 C9 1_555 1_555
C11 C10 1_555 1_555
C12 C10 1_555 1_555
C13 N1 1_555 1_555
C14 O3 1_555 1_555
C15 C14 1_555 1_555
C16 C14 1_555 1_555
C17 C14 1_555 1_555
H1 C1 1_555 1_555
H2 C9 1_555 1_555
H3 C10 1_555 1_555
H5 C2 1_555 1_555
H6 C4 1_555 1_555
H7 C4 1_555 1_555
H8 C5 1_555 1_555
H9 C5 1_555 1_555
H10 C6 1_555 1_555
H11 C6 1_555 1_555
H12 C7 1_555 1_555
H13 C7 1_555 1_555
H14 C8 1_555 1_555
H15 C8 1_555 1_555
H16 C11 1_555 1_555
H17 C11 1_555 1_555
H18 C11 1_555 1_555
H19 C12 1_555 1_555
H20 C12 1_555 1_555
H21 C12 1_555 1_555
H22 C15 1_555 1_555
H23 C15 1_555 1_555
H24 C15 1_555 1_555
H25 C16 1_555 1_555
H26 C16 1_555 1_555
H27 C16 1_555 1_555
H28 C17 1_555 1_555
H29 C17 1_555 1_555
H30 O2 1_555 1_555
H31 C17 1_555 1_555
N1 C3 1_555 1_555
C7 C8 1_555 1_555

#END
