
#######################################################################
#
#                 Cambridge Crystallographic Data Centre
#                                CCDC 
#
#######################################################################
#
# If this CIF has been generated from an entry in the Cambridge 
# Structural Database, then it will include bibliographic, chemical, 
# crystal, experimental, refinement or atomic coordinate data resulting 
# from the CCDC's data processing and validation procedures.
#
#######################################################################

data_TOSHOY
_chemical_formula_moiety         'C14 H16 N2 O7'
_chemical_name_systematic        
(1'R,2R,3R,4R,5R)-6,8-Diaza-3,4-dihydroxy-2-(1',2'-dihydroxyethyl)-1-oxa-8-N-phenyl-spiro(4.4)nonane-7,9-dione
_symmetry_cell_setting           orthorhombic
_symmetry_space_group_name_H-M   'P 21 21 21'
_symmetry_Int_Tables_number      19
_space_group_name_Hall           'P 2ac 2ab'
loop_
_symmetry_equiv_pos_site_id
_symmetry_equiv_pos_as_xyz
1 x,y,z
2 1/2-x,-y,1/2+z
3 1/2+x,1/2-y,-z
4 -x,1/2+y,1/2-z
_cell_length_a                   5.7306(9)
_cell_length_b                   10.664(1)
_cell_length_c                   23.075(3)
_cell_angle_alpha                90
_cell_angle_beta                 90
_cell_angle_gamma                90
_cell_volume                     1410.14
_cell_formula_units_Z            4
loop_
_atom_site_label
_atom_site_type_symbol
_atom_site_fract_x
_atom_site_fract_y
_atom_site_fract_z
O1 O 0.0581(2) 0.2452(1) 0.30146(5)
O2 O 0.5653(2) 0.2727(1) 0.30795(6)
O3 O 0.2784(3) 0.3786(1) 0.20481(6)
O4 O 0.2696(2) -0.0199(1) 0.26872(6)
O5 O -0.2727(3) 0.1053(1) 0.13870(6)
O6 O 0.3619(2) 0.2558(1) 0.44083(5)
O7 O -0.1550(2) 0.2453(2) 0.43555(5)
N1 N -0.0691(2) 0.1139(1) 0.22475(6)
N2 N 0.0111(2) 0.2556(1) 0.15691(6)
C1 C 0.1206(3) 0.1854(2) 0.24846(7)
C2 C 0.4315(3) 0.1629(2) 0.31841(7)
C3 C -0.1275(3) 0.1506(2) 0.17025(7)
C4 C 0.2049(3) 0.1993(1) 0.34844(7)
C5 C -0.0097(3) 0.3452(2) 0.41626(8)
C6 C 0.3424(3) 0.1059(2) 0.26115(7)
C7 C -0.0034(3) 0.3220(2) 0.10265(7)
C8 C 0.1542(3) 0.2874(2) 0.20184(8)
C9 C 0.2255(3) 0.3021(2) 0.39348(7)
C10 C 0.1828(4) 0.3146(2) 0.06474(9)
C11 C 0.1667(5) 0.3775(3) 0.0120(1)
C12 C -0.2012(4) 0.3890(2) 0.08956(8)
C13 C -0.2111 0.4523 0.0369
C14 C -0.0298(6) 0.4451(2) -0.0017(1)
H1 H 0.5398 0.1086 0.3418
H2 H 0.1370 0.1251 0.3689
H3 H 0.0159 0.4037 0.4495
H4 H -0.0938 0.3900 0.3845
H5 H 0.4671 0.0988 0.2307
H6 H 0.3099 0.3760 0.3769
H7 H 0.3251 0.2652 0.0745
H8 H 0.2969 0.3730 -0.0162
H9 H -0.3356 0.3923 0.1175
H10 H -0.0386 0.4913 -0.0399
H11 H -0.3535 0.5039 0.0268
H12 H -0.1263 0.2319 0.4761
H13 H 0.5094 0.2536 0.4258
H14 H -0.1094 0.0456 0.2393
H15 H 0.7081 0.2494 0.3059
H16 H 0.4006 -0.0686 0.2564
loop_
_geom_bond_atom_site_label_1
_geom_bond_atom_site_label_2
_geom_bond_site_symmetry_1
_geom_bond_site_symmetry_2
O1 C1 1_555 1_555
O2 C2 1_555 1_555
O3 C8 1_555 1_555
O4 C6 1_555 1_555
O5 C3 1_555 1_555
O6 C9 1_555 1_555
O7 C5 1_555 1_555
N1 C1 1_555 1_555
N2 C3 1_555 1_555
C1 C6 1_555 1_555
C2 C4 1_555 1_555
C3 N1 1_555 1_555
C4 O1 1_555 1_555
C5 C9 1_555 1_555
C6 C2 1_555 1_555
C7 N2 1_555 1_555
C8 N2 1_555 1_555
C9 C4 1_555 1_555
C10 C7 1_555 1_555
C11 C10 1_555 1_555
C12 C7 1_555 1_555
C13 C12 1_555 1_555
C14 C11 1_555 1_555
H1 C2 1_555 1_555
H2 C4 1_555 1_555
H3 C5 1_555 1_555
H4 C5 1_555 1_555
H5 C6 1_555 1_555
H6 C9 1_555 1_555
H7 C10 1_555 1_555
H8 C11 1_555 1_555
H9 C12 1_555 1_555
H10 C14 1_555 1_555
H11 C13 1_555 1_555
H12 O7 1_555 1_555
H13 O6 1_555 1_555
H14 N1 1_555 1_555
H15 O2 1_555 1_555
H16 O4 1_555 1_555
C1 C8 1_555 1_555
C13 C14 1_555 1_555

#END
