
#######################################################################
#
#                 Cambridge Crystallographic Data Centre
#                                CCDC 
#
#######################################################################
#
# If this CIF has been generated from an entry in the Cambridge 
# Structural Database, then it will include bibliographic, chemical, 
# crystal, experimental, refinement or atomic coordinate data resulting 
# from the CCDC's data processing and validation procedures.
#
#######################################################################

data_TOSJIW
_chemical_formula_moiety         'C24 H24 N6 O2'
_chemical_name_systematic        
N^3^,N^3'^-bis(Methoxy(pyridin-2-yl)methyl)-2,2-bipyridine-3,3-diamine
_symmetry_cell_setting           monoclinic
_symmetry_space_group_name_H-M   'P 21/c'
_symmetry_Int_Tables_number      14
_space_group_name_Hall           '-P 2ybc'
loop_
_symmetry_equiv_pos_site_id
_symmetry_equiv_pos_as_xyz
1 x,y,z
2 -x,1/2+y,1/2-z
3 -x,-y,-z
4 x,1/2-y,1/2+z
_cell_length_a                   4.9022(6)
_cell_length_b                   13.8842(15)
_cell_length_c                   15.385(2)
_cell_angle_alpha                90
_cell_angle_beta                 99.095(16)
_cell_angle_gamma                90
_cell_volume                     1033.99
_exptl_crystal_colour            brown
_exptl_crystal_description       rod
_cell_formula_units_Z            2
loop_
_atom_site_label
_atom_site_type_symbol
_atom_site_fract_x
_atom_site_fract_y
_atom_site_fract_z
O1 O 0.7430(3) 0.34489(9) 0.26017(8)
N1 N 0.934(2) 0.5901(8) 0.2905(8)
N2 N 0.8647(4) 0.45940(13) 0.15600(11)
N3 N 0.8059(4) 0.42608(12) -0.08407(11)
C1 C 1.099(4) 0.6302(9) 0.3540(12)
C2 C 0.9520(6) 0.64361(19) 0.4313(2)
C3 C 0.7133(14) 0.5986(5) 0.4232(4)
C4 C 0.6381(13) 0.5295(4) 0.3586(4)
C5 C 0.7996(5) 0.51376(14) 0.30042(14)
C6 C 0.7135(5) 0.44145(13) 0.22666(12)
C7 C 0.7778(5) 0.42659(13) 0.07134(13)
C8 C 0.5723(5) 0.35605(14) 0.05471(13)
C9 C 0.4863(5) 0.32243(15) -0.02970(13)
C10 C 0.6099(5) 0.35811(14) -0.09715(13)
C11 C 0.8925(5) 0.46187(13) -0.00267(12)
C12 C 1.0227(6) 0.31926(16) 0.29458(15)
H1 H 1.25170 0.67110 0.34980
H2 H 0.999(7) 0.511(2) 0.1569(17)
H3 H 1.02410 0.68100 0.48140
H4 H 0.58880 0.61380 0.46270
H5 H 0.47130 0.49410 0.35680
H6 H 0.51340 0.45230 0.20380
H7 H 0.49080 0.33100 0.10200
H8 H 0.34420 0.27550 -0.04090
H9 H 0.55460 0.33380 -0.15490
H10 H 1.08930 0.35940 0.34590
H11 H 1.13950 0.32950 0.24930
H12 H 1.03040 0.25130 0.31210
O1B O 1.2570(3) 0.65511(9) -0.26017(8)
N1B N 1.066(2) 0.4099(8) -0.2905(8)
N2B N 1.1353(4) 0.54060(13) -0.15600(11)
N3B N 1.1941(4) 0.57392(12) 0.08407(11)
C1B C 0.901(4) 0.3698(9) -0.3540(12)
C2B C 1.0480(6) 0.35639(19) -0.4313(2)
C3B C 1.2867(14) 0.4014(5) -0.4232(4)
C4B C 1.3619(13) 0.4705(4) -0.3586(4)
C5B C 1.2004(5) 0.48624(14) -0.30042(14)
C6B C 1.2865(5) 0.55855(13) -0.22666(12)
C7B C 1.2222(5) 0.57341(13) -0.07134(13)
C8B C 1.4277(5) 0.64395(14) -0.05471(13)
C9B C 1.5137(5) 0.67757(15) 0.02970(13)
C10B C 1.3901(5) 0.64189(14) 0.09715(13)
C11B C 1.1075(5) 0.53813(13) 0.00267(12)
C12B C 0.9773(6) 0.68074(16) -0.29458(15)
H1B H 0.74830 0.32890 -0.34980
H2B H 1.001(7) 0.489(2) -0.1569(17)
H3B H 0.97590 0.31900 -0.48140
H4B H 1.41120 0.38620 -0.46270
H5B H 1.52870 0.50590 -0.35680
H6B H 1.48660 0.54770 -0.20380
H7B H 1.50920 0.66900 -0.10200
H8B H 1.65580 0.72450 0.04090
H9B H 1.44540 0.66620 0.15490
H10B H 0.91070 0.64060 -0.34590
H11B H 0.86050 0.67050 -0.24930
H12B H 0.96960 0.74870 -0.31210
N4? N 1.033(2) 0.5665(8) 0.2918(8)
C13? C 1.015(3) 0.6526(9) 0.3599(11)
C14? C 0.8125(14) 0.5544(4) 0.4567(4)
C15? C 0.7291(15) 0.4908(4) 0.3887(4)
H13? H 1.12840 0.70580 0.35020
H14? H 0.78350 0.54240 0.51530
H15? H 0.62970 0.43400 0.39800
loop_
_geom_bond_atom_site_label_1
_geom_bond_atom_site_label_2
_geom_bond_site_symmetry_1
_geom_bond_site_symmetry_2
O1 C6 1_555 1_555
N1 C1 1_555 1_555
N2 C6 1_555 1_555
N3 C10 1_555 1_555
C1 C2 1_555 1_555
C2 C3 1_555 1_555
C3 C4 1_555 1_555
C4 C5 1_555 1_555
C5 N1 1_555 1_555
C6 C5 1_555 1_555
C7 N2 1_555 1_555
C8 C7 1_555 1_555
C9 C8 1_555 1_555
C10 C9 1_555 1_555
C11 N3 1_555 1_555
C12 O1 1_555 1_555
H1 C1 1_555 1_555
H2 N2 1_555 1_555
H3 C2 1_555 1_555
H4 C3 1_555 1_555
H5 C4 1_555 1_555
H6 C6 1_555 1_555
H7 C8 1_555 1_555
H8 C9 1_555 1_555
H9 C10 1_555 1_555
H10 C12 1_555 1_555
H11 C12 1_555 1_555
H12 C12 1_555 1_555
O1B C6B 1_555 1_555
N1B C1B 1_555 1_555
N2B C6B 1_555 1_555
N3B C10B 1_555 1_555
C1B C2B 1_555 1_555
C2B C3B 1_555 1_555
C3B C4B 1_555 1_555
C4B C5B 1_555 1_555
C5B N1B 1_555 1_555
C6B C5B 1_555 1_555
C7B N2B 1_555 1_555
C8B C7B 1_555 1_555
C9B C8B 1_555 1_555
C10B C9B 1_555 1_555
C11B C11 1_555 1_555
C12B O1B 1_555 1_555
H1B C1B 1_555 1_555
H2B N2B 1_555 1_555
H3B C2B 1_555 1_555
H4B C3B 1_555 1_555
H5B C4B 1_555 1_555
H6B C6B 1_555 1_555
H7B C8B 1_555 1_555
H8B C9B 1_555 1_555
H9B C10B 1_555 1_555
H10B C12B 1_555 1_555
H11B C12B 1_555 1_555
H12B C12B 1_555 1_555
C7 C11 1_555 1_555
N3B C11B 1_555 1_555
C7B C11B 1_555 1_555

#END
