
#######################################################################
#
#                 Cambridge Crystallographic Data Centre
#                                CCDC 
#
#######################################################################
#
# If this CIF has been generated from an entry in the Cambridge 
# Structural Database, then it will include bibliographic, chemical, 
# crystal, experimental, refinement or atomic coordinate data resulting 
# from the CCDC's data processing and validation procedures.
#
#######################################################################

data_TOSJAO
_chemical_formula_moiety         'C22 H16 N6'
_chemical_name_systematic        
(E,E)-N^3^,N^3'^-bis(2-Pyridylmethylene)-2,2'-bipyridine-3,3'-diamine
_symmetry_cell_setting           monoclinic
_symmetry_space_group_name_H-M   'P 21/c'
_symmetry_Int_Tables_number      14
_space_group_name_Hall           '-P 2ybc'
loop_
_symmetry_equiv_pos_site_id
_symmetry_equiv_pos_as_xyz
1 x,y,z
2 -x,1/2+y,1/2-z
3 -x,-y,-z
4 x,1/2-y,1/2+z
_cell_length_a                   10.9614(6)
_cell_length_b                   20.1743(11)
_cell_length_c                   8.7356(5)
_cell_angle_alpha                90
_cell_angle_beta                 101.490(3)
_cell_angle_gamma                90
_cell_volume                     1893.06
_exptl_crystal_colour            yellow
_exptl_crystal_description       plate
_cell_formula_units_Z            4
loop_
_atom_site_label
_atom_site_type_symbol
_atom_site_fract_x
_atom_site_fract_y
_atom_site_fract_z
N1 N 1.06593(12) 0.13997(7) 0.79286(18)
N2 N 0.99479(12) 0.12317(7) 0.44700(17)
N3 N 0.73880(12) 0.18151(7) 0.63579(17)
N4 N 0.79719(12) 0.02659(7) 0.65840(17)
N5 N 0.51098(13) -0.03990(8) 0.71968(19)
N6 N 0.42067(13) 0.15530(8) 0.6494(2)
C1 C 1.08460(16) 0.17445(9) 0.9264(2)
H1 H 1.1640 0.1741 0.9888
C2 C 0.99349(17) 0.21049(9) 0.9771(2)
H2 H 1.0110 0.2331 1.0718
C3 C 0.87574(16) 0.21246(9) 0.8848(2)
H3 H 0.8126 0.2367 0.9156
C4 C 0.85334(15) 0.17764(8) 0.7453(2)
C5 C 0.95118(14) 0.14149(8) 0.7032(2)
C6 C 0.93098(14) 0.10314(8) 0.5545(2)
C7 C 0.84868(14) 0.04914(9) 0.5316(2)
C8 C 0.83280(16) 0.01547(9) 0.3900(2)
H4 H 0.7793 -0.0207 0.3707
C9 C 0.89763(16) 0.03646(10) 0.2787(2)
H5 H 0.8879 0.0150 0.1828
C10 C 0.97711(16) 0.08975(10) 0.3122(2)
H6 H 1.0209 0.1032 0.2368
C11 C 0.63932(15) 0.16876(9) 0.6837(2)
H7 H 0.6450 0.1554 0.7868
C12 C 0.51501(15) 0.17431(9) 0.5818(2)
C13 C 0.49848(17) 0.19722(11) 0.4303(3)
H8 H 0.5666 0.2097 0.3883
C14 C 0.37894(19) 0.20130(12) 0.3416(3)
H9 H 0.3651 0.2161 0.2387
C15 C 0.28095(17) 0.18280(10) 0.4100(3)
H10 H 0.1994 0.1855 0.3544
C16 C 0.30564(17) 0.16035(10) 0.5614(3)
H11 H 0.2387 0.1479 0.6057
C17 C 0.68520(15) 0.00581(9) 0.6322(2)
H12 H 0.6360 0.0103 0.5329
C18 C 0.63293(15) -0.02521(9) 0.7574(2)
C19 C 0.70666(16) -0.04053(9) 0.9014(2)
H13 H 0.7907 -0.0294 0.9234
C20 C 0.65370(18) -0.07252(10) 1.0115(2)
H14 H 0.7011 -0.0832 1.1090
C21 C 0.52906(18) -0.08839(11) 0.9740(3)
H15 H 0.4908 -0.1104 1.0453
C22 C 0.46240(17) -0.07101(11) 0.8291(3)
H16 H 0.3781 -0.0815 0.8055
loop_
_geom_bond_atom_site_label_1
_geom_bond_atom_site_label_2
_geom_bond_site_symmetry_1
_geom_bond_site_symmetry_2
N1 C1 1_555 1_555
N2 C6 1_555 1_555
N3 C4 1_555 1_555
N4 C7 1_555 1_555
N5 C18 1_555 1_555
N6 C12 1_555 1_555
C1 H1 1_555 1_555
C2 C1 1_555 1_555
H2 C2 1_555 1_555
C3 C2 1_555 1_555
H3 C3 1_555 1_555
C4 C3 1_555 1_555
C5 N1 1_555 1_555
C6 C5 1_555 1_555
C7 C6 1_555 1_555
C8 C7 1_555 1_555
H4 C8 1_555 1_555
C9 C8 1_555 1_555
H5 C9 1_555 1_555
C10 N2 1_555 1_555
H6 C10 1_555 1_555
C11 N3 1_555 1_555
H7 C11 1_555 1_555
C12 C11 1_555 1_555
C13 C12 1_555 1_555
H8 C13 1_555 1_555
C14 C13 1_555 1_555
H9 C14 1_555 1_555
C15 C14 1_555 1_555
H10 C15 1_555 1_555
C16 N6 1_555 1_555
H11 C16 1_555 1_555
C17 N4 1_555 1_555
H12 C17 1_555 1_555
C18 C17 1_555 1_555
C19 C18 1_555 1_555
H13 C19 1_555 1_555
C20 C19 1_555 1_555
H14 C20 1_555 1_555
C21 C20 1_555 1_555
H15 C21 1_555 1_555
C22 N5 1_555 1_555
H16 C22 1_555 1_555
C4 C5 1_555 1_555
C9 C10 1_555 1_555
C15 C16 1_555 1_555
C21 C22 1_555 1_555

#END
