
#######################################################################
#
#                 Cambridge Crystallographic Data Centre
#                                CCDC 
#
#######################################################################
#
# If this CIF has been generated from an entry in the Cambridge 
# Structural Database, then it will include bibliographic, chemical, 
# crystal, experimental, refinement or atomic coordinate data resulting 
# from the CCDC's data processing and validation procedures.
#
#######################################################################

data_TOSJAM02
_chemical_formula_moiety         'C19 H16 O3'
_chemical_name_systematic        'ethyl 1-hydroxy-4-phenyl-2-naphthoate'
_symmetry_cell_setting           triclinic
_symmetry_space_group_name_H-M   'P -1'
_symmetry_Int_Tables_number      2
_space_group_name_Hall           '-P 1'
loop_
_symmetry_equiv_pos_site_id
_symmetry_equiv_pos_as_xyz
1 x,y,z
2 -x,-y,-z
_cell_length_a                   7.415(4)
_cell_length_b                   10.694(6)
_cell_length_c                   19.852(9)
_cell_angle_alpha                94.049(8)
_cell_angle_beta                 91.638(11)
_cell_angle_gamma                110.006(6)
_cell_volume                     1473.16
_exptl_crystal_colour            colorless
_exptl_crystal_description       Prism
_cell_formula_units_Z            4
loop_
_atom_site_label
_atom_site_type_symbol
_atom_site_fract_x
_atom_site_fract_y
_atom_site_fract_z
O1 O 0.70072(17) -0.23545(11) 0.93487(5)
H1 H 0.6543 -0.2515 0.9727
O2 O 0.60268(16) -0.17833(11) 1.05414(5)
O3 O 0.67894(15) 0.03831(11) 1.09216(5)
C1 C 0.7728(2) -0.10142(16) 0.93079(8)
C2 C 0.8556(2) -0.05704(16) 0.86871(7)
C3 C 0.8590(2) -0.15066(16) 0.81474(8)
H2 H 0.8155 -0.2433 0.8210
C4 C 0.9251(2) -0.10760(17) 0.75366(8)
H3 H 0.9263 -0.1706 0.7176
C5 C 0.9912(2) 0.02992(17) 0.74415(8)
H4 H 1.0334 0.0588 0.7013
C6 C 0.9951(2) 0.12218(17) 0.79613(7)
H5 H 1.0429 0.2145 0.7891
C7 C 0.9287(2) 0.08199(16) 0.86053(7)
C8 C 0.9228(2) 0.17685(16) 0.91508(7)
C9 C 0.8410(2) 0.12910(16) 0.97321(7)
H6 H 0.8358 0.1913 1.0090
C10 C 0.7634(2) -0.00921(16) 0.98237(7)
C11 C 0.6749(2) -0.05888(17) 1.04496(8)
C12 C 0.5904(2) -0.00751(17) 1.15504(7)
H7 H 0.6576 -0.0612 1.1767
H8 H 0.4537 -0.0637 1.1457
C13 C 0.6069(2) 0.11551(17) 1.20104(7)
H9 H 0.7429 0.1692 1.2107
H10 H 0.5465 0.0884 1.2434
H11 H 0.5420 0.1686 1.1787
C14 C 0.9937(2) 0.32342(16) 0.90823(7)
C15 C 0.8703(2) 0.39560(16) 0.91871(7)
H12 H 0.7425 0.3510 0.9308
C16 C 0.9321(3) 0.53211(17) 0.91166(7)
H13 H 0.8468 0.5801 0.9192
C17 C 1.1183(3) 0.59840(17) 0.89363(8)
H14 H 1.1595 0.6911 0.8876
C18 C 1.2437(3) 0.52806(17) 0.88451(7)
H15 H 1.3720 0.5734 0.8732
C19 C 1.1825(2) 0.39211(17) 0.89184(7)
H16 H 1.2696 0.3451 0.8857
O4 O 0.86470(18) 1.12383(11) 0.58883(5)
H17 H 0.9247 1.2024 0.5798
O5 O 1.01579(16) 1.31473(11) 0.51229(5)
O6 O 0.94768(16) 1.27478(11) 0.39994(5)
C20 C 0.7916(2) 1.04628(16) 0.53072(8)
C21 C 0.6794(2) 0.91083(16) 0.53741(7)
C22 C 0.6423(2) 0.86091(18) 0.60193(8)
H18 H 0.6958 0.9188 0.6415
C23 C 0.5313(2) 0.73119(18) 0.60819(8)
H19 H 0.5087 0.6997 0.6518
C24 C 0.4502(2) 0.64417(17) 0.55020(8)
H20 H 0.3721 0.5542 0.5546
C25 C 0.4847(2) 0.69004(17) 0.48695(8)
H21 H 0.4287 0.6308 0.4481
C26 C 0.6016(2) 0.82320(16) 0.47854(7)
C27 C 0.6380(2) 0.87384(16) 0.41293(7)
C28 C 0.7405(2) 1.00627(16) 0.40923(7)
H22 H 0.7593 1.0398 0.3660
C29 C 0.8200(2) 1.09556(16) 0.46739(7)
C30 C 0.9363(2) 1.23661(17) 0.46292(8)
C31 C 1.0573(3) 1.41532(17) 0.39296(9)
H23 H 1.1969 1.4308 0.3964
H24 H 1.0282 1.4727 0.4293
C32 C 1.0007(3) 1.44810(18) 0.32486(9)
H25 H 1.0344 1.3930 0.2893
H26 H 1.0691 1.5427 0.3194
H27 H 0.8618 1.4300 0.3216
C33 C 0.5696(2) 0.78143(16) 0.35014(7)
C34 C 0.4376(2) 0.79887(16) 0.30351(7)
H28 H 0.3880 0.8690 0.3122
C35 C 0.3781(2) 0.71473(17) 0.24443(7)
H29 H 0.2875 0.7274 0.2132
C36 C 0.4501(2) 0.61219(17) 0.23070(7)
H30 H 0.4095 0.5549 0.1902
C37 C 0.5821(2) 0.59393(16) 0.27662(8)
H31 H 0.6325 0.5243 0.2675
C38 C 0.6400(2) 0.67757(16) 0.33577(8)
H32 H 0.7293 0.6639 0.3671
loop_
_geom_bond_atom_site_label_1
_geom_bond_atom_site_label_2
_geom_bond_site_symmetry_1
_geom_bond_site_symmetry_2
O1 H1 1_555 1_555
O2 C11 1_555 1_555
O3 C11 1_555 1_555
C1 O1 1_555 1_555
C2 C1 1_555 1_555
C3 C2 1_555 1_555
H2 C3 1_555 1_555
C4 C3 1_555 1_555
H3 C4 1_555 1_555
C5 C4 1_555 1_555
H4 C5 1_555 1_555
C6 C5 1_555 1_555
H5 C6 1_555 1_555
C7 C2 1_555 1_555
C8 C7 1_555 1_555
C9 C8 1_555 1_555
H6 C9 1_555 1_555
C10 C1 1_555 1_555
C11 C10 1_555 1_555
C12 O3 1_555 1_555
H7 C12 1_555 1_555
H8 C12 1_555 1_555
C13 C12 1_555 1_555
H9 C13 1_555 1_555
H10 C13 1_555 1_555
H11 C13 1_555 1_555
C14 C8 1_555 1_555
C15 C14 1_555 1_555
H12 C15 1_555 1_555
C16 C15 1_555 1_555
H13 C16 1_555 1_555
C17 C16 1_555 1_555
H14 C17 1_555 1_555
C18 C17 1_555 1_555
H15 C18 1_555 1_555
C19 C14 1_555 1_555
H16 C19 1_555 1_555
O4 H17 1_555 1_555
O5 C30 1_555 1_555
O6 C30 1_555 1_555
C20 O4 1_555 1_555
C21 C20 1_555 1_555
C22 C21 1_555 1_555
H18 C22 1_555 1_555
C23 C22 1_555 1_555
H19 C23 1_555 1_555
C24 C23 1_555 1_555
H20 C24 1_555 1_555
C25 C24 1_555 1_555
H21 C25 1_555 1_555
C26 C21 1_555 1_555
C27 C26 1_555 1_555
C28 C27 1_555 1_555
H22 C28 1_555 1_555
C29 C20 1_555 1_555
C30 C29 1_555 1_555
C31 O6 1_555 1_555
H23 C31 1_555 1_555
H24 C31 1_555 1_555
C32 C31 1_555 1_555
H25 C32 1_555 1_555
H26 C32 1_555 1_555
H27 C32 1_555 1_555
C33 C27 1_555 1_555
C34 C33 1_555 1_555
H28 C34 1_555 1_555
C35 C34 1_555 1_555
H29 C35 1_555 1_555
C36 C35 1_555 1_555
H30 C36 1_555 1_555
C37 C36 1_555 1_555
H31 C37 1_555 1_555
C38 C33 1_555 1_555
H32 C38 1_555 1_555
C6 C7 1_555 1_555
C9 C10 1_555 1_555
C18 C19 1_555 1_555
C25 C26 1_555 1_555
C28 C29 1_555 1_555
C37 C38 1_555 1_555

#END
