
#######################################################################
#
#                 Cambridge Crystallographic Data Centre
#                                CCDC 
#
#######################################################################
#
# If this CIF has been generated from an entry in the Cambridge 
# Structural Database, then it will include bibliographic, chemical, 
# crystal, experimental, refinement or atomic coordinate data resulting 
# from the CCDC's data processing and validation procedures.
#
#######################################################################

data_TOSLUI
_chemical_formula_moiety         'C12 H15 Br1 S2'
_chemical_name_systematic        (+-)-10-Bromo-2,7-dithia(8)paracyclophane
_symmetry_cell_setting           monoclinic
_symmetry_space_group_name_H-M   'P 21/c'
_symmetry_Int_Tables_number      14
_space_group_name_Hall           '-P 2ybc'
loop_
_symmetry_equiv_pos_site_id
_symmetry_equiv_pos_as_xyz
1 x,y,z
2 -x,1/2+y,1/2-z
3 -x,-y,-z
4 x,1/2-y,1/2+z
_cell_length_a                   13.048(1)
_cell_length_b                   7.958(1)
_cell_length_c                   12.208(1)
_cell_angle_alpha                90
_cell_angle_beta                 99.38(1)
_cell_angle_gamma                90
_cell_volume                     1250.68
_exptl_crystal_colour            colorless
_chemical_melting_point          92deg.C
_cell_formula_units_Z            4
loop_
_atom_site_label
_atom_site_type_symbol
_atom_site_fract_x
_atom_site_fract_y
_atom_site_fract_z
C1 C 0.0130(4) 0.1910(8) 0.1205(5)
S1 S 0.0898(1) 0.0082(2) 0.1761(1)
C2 C 0.2006(4) 0.0087(7) 0.1016(4)
C3 C 0.3004(4) 0.0729(7) 0.1701(4)
C4 C 0.3925(4) 0.0756(7) 0.1062(5)
C5 C 0.4036(4) 0.2358(6) 0.0403(4)
S2 S 0.4527(1) 0.4089(2) 0.1305(1)
C6 C 0.3664(4) 0.5824(7) 0.0810(5)
C7 C 0.2565(4) 0.5351(63) 0.0870(4)
C8 C 0.2197(4) 0.5193(7) 0.1882(4)
C9 C 0.1353(4) 0.4201(7) 0.1988(4)
C10 C 0.0828(4) 0.3375(7) 0.1064(4)
C11 C 0.1064(4) 0.3745(7) 0.0030(4)
C12 C 0.1925(4) 0.4728(7) -0.0057(4)
Br1 Br 0.2929(1) 0.6205(1) 0.3189(1)
loop_
_geom_bond_atom_site_label_1
_geom_bond_atom_site_label_2
_geom_bond_site_symmetry_1
_geom_bond_site_symmetry_2
C1 S1 1_555 1_555
S1 C2 1_555 1_555
C2 C3 1_555 1_555
C3 C4 1_555 1_555
C4 C5 1_555 1_555
C5 S2 1_555 1_555
S2 C6 1_555 1_555
C6 C7 1_555 1_555
C7 C8 1_555 1_555
C8 C9 1_555 1_555
C9 C10 1_555 1_555
C10 C1 1_555 1_555
C11 C10 1_555 1_555
C12 C7 1_555 1_555
Br1 C8 1_555 1_555
C11 C12 1_555 1_555

#END
