
#######################################################################
#
#                 Cambridge Crystallographic Data Centre
#                                CCDC 
#
#######################################################################
#
# If this CIF has been generated from an entry in the Cambridge 
# Structural Database, then it will include bibliographic, chemical, 
# crystal, experimental, refinement or atomic coordinate data resulting 
# from the CCDC's data processing and validation procedures.
#
#######################################################################

data_TOSTOM
_chemical_formula_moiety         'C9 H12,C6 Cl3 N3 O6'
_chemical_name_systematic        
'1,3,5-trichloro-2,4,6-trinitrobenzene mesitylene'
_symmetry_cell_setting           triclinic
_symmetry_space_group_name_H-M   'P -1'
_symmetry_Int_Tables_number      2
_space_group_name_Hall           '-P 1'
loop_
_symmetry_equiv_pos_site_id
_symmetry_equiv_pos_as_xyz
1 x,y,z
2 -x,-y,-z
_cell_length_a                   7.5920(15)
_cell_length_b                   8.9260(18)
_cell_length_c                   14.947(3)
_cell_angle_alpha                89.55(3)
_cell_angle_beta                 88.66(3)
_cell_angle_gamma                73.89(3)
_cell_volume                     972.858
_cell_formula_units_Z            2
loop_
_atom_site_label
_atom_site_type_symbol
_atom_site_fract_x
_atom_site_fract_y
_atom_site_fract_z
Cl1 Cl 0.07160(18) 0.17843(12) 0.54442(6)
C1 C 0.0913(5) 0.0816(4) 0.7153(2)
N1 N 0.1300(7) -0.0772(4) 0.6791(2)
O1 O 0.2859(7) -0.1479(4) 0.6691(3)
Cl2 Cl -0.01015(18) 0.56261(12) 0.82666(7)
C2 C 0.0656(5) 0.2065(4) 0.6574(2)
N2 N 0.0426(6) 0.2765(4) 0.9379(2)
O2 O 0.0020(6) -0.1232(4) 0.6622(3)
Cl3 Cl 0.11277(18) -0.05329(12) 0.87797(6)
C3 C 0.0310(5) 0.3549(4) 0.6925(2)
N3 N -0.0021(6) 0.4910(4) 0.6316(2)
O3 O 0.1828(6) 0.2743(6) 0.9731(2)
C4 C 0.0260(5) 0.3797(4) 0.7838(2)
O4 O -0.1003(5) 0.2949(4) 0.97545(18)
C5 C 0.0522(5) 0.2516(4) 0.8399(2)
O5 O -0.1564(5) 0.5684(4) 0.6257(2)
C6 C 0.0856(5) 0.1033(4) 0.8068(2)
O6 O 0.1285(5) 0.5128(4) 0.5928(2)
C7 C -0.4476(8) 0.2538(10) 0.6488(5)
C8 C -0.4752(7) 0.3849(7) 0.7018(5)
H1 H -0.4969 0.4814 0.6737
C9 C -0.4724(7) 0.3808(6) 0.7941(5)
C10 C -0.4452(7) 0.2364(8) 0.8343(4)
H2 H -0.4441 0.2284 0.8964
C11 C -0.4191(8) 0.1013(7) 0.7817(7)
C12 C -0.4234(8) 0.1200(9) 0.6911(7)
H3 H -0.4080 0.0311 0.6564
C13 C -0.4465(10) 0.2548(11) 0.5470(5)
H4 H -0.4242 0.1500 0.5254
H5 H -0.3516 0.2982 0.5248
H6 H -0.5631 0.3168 0.5265
C14 C -0.5027(10) 0.5317(8) 0.8458(5)
H7 H -0.5182 0.6172 0.8046
H8 H -0.3985 0.5260 0.8822
H9 H -0.6106 0.5475 0.8833
C15 C -0.3895(10) -0.0505(7) 0.8317(7)
H10 H -0.3724 -0.1344 0.7897
H11 H -0.4945 -0.0466 0.8695
H12 H -0.2826 -0.0672 0.8676
loop_
_geom_bond_atom_site_label_1
_geom_bond_atom_site_label_2
_geom_bond_site_symmetry_1
_geom_bond_site_symmetry_2
Cl1 C2 1_555 1_555
C1 N1 1_555 1_555
N1 O1 1_555 1_555
Cl2 C4 1_555 1_555
C2 C1 1_555 1_555
N2 O3 1_555 1_555
O2 N1 1_555 1_555
Cl3 C6 1_555 1_555
C3 C2 1_555 1_555
N3 C3 1_555 1_555
C4 C3 1_555 1_555
O4 N2 1_555 1_555
C5 N2 1_555 1_555
O5 N3 1_555 1_555
C6 C1 1_555 1_555
O6 N3 1_555 1_555
C7 C8 1_555 1_555
C8 H1 1_555 1_555
C9 C8 1_555 1_555
C10 C9 1_555 1_555
H2 C10 1_555 1_555
C11 C10 1_555 1_555
C12 C7 1_555 1_555
H3 C12 1_555 1_555
C13 C7 1_555 1_555
H4 C13 1_555 1_555
H5 C13 1_555 1_555
H6 C13 1_555 1_555
C14 C9 1_555 1_555
H7 C14 1_555 1_555
H8 C14 1_555 1_555
H9 C14 1_555 1_555
C15 C11 1_555 1_555
H10 C15 1_555 1_555
H11 C15 1_555 1_555
H12 C15 1_555 1_555
C4 C5 1_555 1_555
C5 C6 1_555 1_555
C11 C12 1_555 1_555

#END
