
#######################################################################
#
#                 Cambridge Crystallographic Data Centre
#                                CCDC 
#
#######################################################################
#
# If this CIF has been generated from an entry in the Cambridge 
# Structural Database, then it will include bibliographic, chemical, 
# crystal, experimental, refinement or atomic coordinate data resulting 
# from the CCDC's data processing and validation procedures.
#
#######################################################################

data_TOTFOX
_chemical_formula_moiety         'C21 H17 N1 O1'
_chemical_name_systematic        (Benzyl-phenyl)-\b-nitrostyrene
_symmetry_cell_setting           monoclinic
_symmetry_space_group_name_H-M   'P 21/a'
_symmetry_Int_Tables_number      14
_space_group_name_Hall           '-P 2yab'
loop_
_symmetry_equiv_pos_site_id
_symmetry_equiv_pos_as_xyz
1 x,y,z
2 1/2-x,1/2+y,-z
3 -x,-y,-z
4 1/2+x,1/2-y,z
_cell_length_a                   13.916(3)
_cell_length_b                   17.238(3)
_cell_length_c                   21.197(5)
_cell_angle_alpha                90
_cell_angle_beta                 106.166(17)
_cell_angle_gamma                90
_cell_volume                     4883.76
_cell_formula_units_Z            12
loop_
_atom_site_label
_atom_site_type_symbol
_atom_site_fract_x
_atom_site_fract_y
_atom_site_fract_z
O1 O 0.60866 0.89757 0.26957
N1 N 0.55064 0.84436 0.27203
C1 C 0.43060 0.72798 0.26995
C2 C 0.32006 0.75793 0.25657
C3 C 0.49671 0.79660 0.27490
C4 C 0.44548 0.67904 0.21252
C5 C 0.36788 0.65192 0.16194
C6 C 0.38718 0.60743 0.11239
C7 C 0.48232 0.58966 0.11212
C8 C 0.55998 0.61600 0.16282
C9 C 0.54259 0.66005 0.21258
C10 C 0.45977 0.68268 0.33405
C11 C 0.43399 0.60501 0.33440
C12 C 0.45693 0.56413 0.39257
C13 C 0.50536 0.59929 0.45072
C14 C 0.52976 0.67590 0.45124
C15 C 0.50735 0.71728 0.39318
C16 C 0.30544 0.81193 0.30877
C17 C 0.32409 0.89079 0.30616
C18 C 0.31298 0.94041 0.35498
C19 C 0.28179 0.91220 0.40698
C20 C 0.26126 0.83385 0.40953
C21 C 0.27344 0.78410 0.36084
H1 H 0.27135 0.70841 0.25390
H2 H 0.29972 0.78814 0.21012
H3 H 0.29144 0.66527 0.16084
H4 H 0.32523 0.58638 0.07296
H5 H 0.49681 0.55560 0.07290
H6 H 0.63631 0.60207 0.16376
H7 H 0.60516 0.68005 0.25227
H8 H 0.39532 0.57650 0.28891
H9 H 0.43705 0.50352 0.39242
H10 H 0.52424 0.56635 0.49598
H11 H 0.56654 0.70428 0.49715
H12 H 0.52748 0.77806 0.39414
H13 H 0.34774 0.91367 0.26533
H14 H 0.32841 1.00177 0.35210
H15 H 0.27373 0.95093 0.44517
H16 H 0.23596 0.81160 0.44976
H17 H 0.25762 0.72297 0.36362
O2 O 0.57604 0.36722 0.04622
N2 N 0.63750 0.31434 0.04740
C22 C 0.76537 0.20190 0.05904
C23 C 0.87160 0.23967 0.07327
C24 C 0.69219 0.26588 0.04663
C25 C 0.75092 0.15566 0.11775
C26 C 0.82953 0.13243 0.16954
C27 C 0.81235 0.08843 0.22047
C28 C 0.71746 0.06798 0.21987
C29 C 0.63866 0.09074 0.16836
C30 C 0.65453 0.13406 0.11750
C31 C 0.74613 0.14853 -0.00092
C32 C 0.80798 0.08382 0.00270
C33 C 0.79436 0.03369 -0.05006
C34 C 0.71792 0.04646 -0.10583
C35 C 0.65526 0.10901 -0.10979
C36 C 0.66995 0.16025 -0.05730
C37 C 0.88264 0.29497 0.02044
C38 C 0.87571 0.37419 0.02897
C39 C 0.88584 0.42522 -0.01949
C40 C 0.90208 0.39771 -0.07652
C41 C 0.90964 0.31912 -0.08543
C42 C 0.90051 0.26824 -0.03694
H18 H 0.92608 0.19379 0.07794
H19 H 0.88622 0.27114 0.11896
H20 H 0.90528 0.14862 0.17088
H21 H 0.87464 0.06986 0.26087
H22 H 0.70426 0.03443 0.25956
H23 H 0.56316 0.07425 0.16758
H24 H 0.59163 0.15160 0.07709
H25 H 0.86713 0.07274 0.04734
H26 H 0.84392 -0.01536 -0.04726
H27 H 0.70717 0.00714 -0.14679
H28 H 0.59475 0.11855 -0.15402
H29 H 0.62070 0.20982 -0.06076
H30 H 0.86211 0.39619 0.07371
H31 H 0.88172 0.48703 -0.01186
H32 H 0.90807 0.43780 -0.11419
H33 H 0.92254 0.29737 -0.13033
H34 H 0.90720 0.20651 -0.04412
O3 O 0.36061 0.38862 0.38735
N3 N 0.30537 0.33294 0.38870
C43 C 0.19420 0.21392 0.39507
C44 C 0.09787 0.24421 0.41165
C45 C 0.25519 0.28198 0.38925
C46 C 0.25991 0.16308 0.44953
C47 C 0.35393 0.14214 0.44491
C48 C 0.4186 0.09857 0.49313
C49 C 0.38944 0.07445 0.54673
C50 C 0.29605 0.09308 0.5519
C51 C 0.23145 0.13787 0.50350
C52 C 0.16330 0.17082 0.32929
C53 C 0.13212 0.09418 0.32815
C54 C 0.10015 0.05481 0.26904
C55 C 0.09922 0.09192 0.21122
C56 C 0.12809 0.16784 0.21214
C57 C 0.16023 0.20677 0.27082
C58 C 0.03692 0.29824 0.35989
C59 C -0.04172 0.26994 0.30969
C60 C -0.09586 0.31881 0.26120
C61 C -0.07159 0.39593 0.26221
C62 C 0.00538 0.42475 0.31173
C63 C 0.06000 0.37642 0.36108
H35 H 0.12018 0.27478 0.45797
H36 H 0.05200 0.19504 0.41603
H37 H 0.37734 0.16037 0.40255
H38 H 0.49107 0.08301 0.48852
H39 H 0.44028 0.04141 0.58499
H40 H 0.27208 0.07285 0.59357
H41 H 0.15814 0.15296 0.50808
H42 H 0.13287 0.06529 0.37369
H43 H 0.07599 -0.00507 0.26826
H44 H 0.07544 0.06103 0.16521
H45 H 0.12616 0.19697 0.16651
H46 H 0.18319 0.26684 0.27089
H47 H -0.06058 0.20875 0.30873
H48 H -0.15778 0.29611 0.22247
H49 H -0.11292 0.43353 0.22376
H50 H 0.02385 0.48582 0.31229
H51 H 0.12073 0.39952 0.40038
loop_
_geom_bond_atom_site_label_1
_geom_bond_atom_site_label_2
_geom_bond_site_symmetry_1
_geom_bond_site_symmetry_2
O1 N1 1_555 1_555
N1 C3 1_555 1_555
C1 C2 1_555 1_555
C2 C16 1_555 1_555
C3 C1 1_555 1_555
C4 C1 1_555 1_555
C5 C4 1_555 1_555
C6 C5 1_555 1_555
C7 C6 1_555 1_555
C8 C7 1_555 1_555
C9 C4 1_555 1_555
C10 C1 1_555 1_555
C11 C10 1_555 1_555
C12 C11 1_555 1_555
C13 C12 1_555 1_555
C14 C13 1_555 1_555
C15 C10 1_555 1_555
C16 C17 1_555 1_555
C17 C18 1_555 1_555
C18 C19 1_555 1_555
C19 C20 1_555 1_555
C20 C21 1_555 1_555
C21 C16 1_555 1_555
H1 C2 1_555 1_555
H2 C2 1_555 1_555
H3 C5 1_555 1_555
H4 C6 1_555 1_555
H5 C7 1_555 1_555
H6 C8 1_555 1_555
H7 C9 1_555 1_555
H8 C11 1_555 1_555
H9 C12 1_555 1_555
H10 C13 1_555 1_555
H11 C14 1_555 1_555
H12 C15 1_555 1_555
H13 C17 1_555 1_555
H14 C18 1_555 1_555
H15 C19 1_555 1_555
H16 C20 1_555 1_555
H17 C21 1_555 1_555
O2 N2 1_555 1_555
N2 C24 1_555 1_555
C22 C23 1_555 1_555
C23 C37 1_555 1_555
C24 C22 1_555 1_555
C25 C22 1_555 1_555
C26 C25 1_555 1_555
C27 C26 1_555 1_555
C28 C27 1_555 1_555
C29 C28 1_555 1_555
C30 C25 1_555 1_555
C31 C22 1_555 1_555
C32 C31 1_555 1_555
C33 C32 1_555 1_555
C34 C33 1_555 1_555
C35 C34 1_555 1_555
C36 C31 1_555 1_555
C37 C38 1_555 1_555
C38 C39 1_555 1_555
C39 C40 1_555 1_555
C40 C41 1_555 1_555
C41 C42 1_555 1_555
C42 C37 1_555 1_555
H18 C23 1_555 1_555
H19 C23 1_555 1_555
H20 C26 1_555 1_555
H21 C27 1_555 1_555
H22 C28 1_555 1_555
H23 C29 1_555 1_555
H24 C30 1_555 1_555
H25 C32 1_555 1_555
H26 C33 1_555 1_555
H27 C34 1_555 1_555
H28 C35 1_555 1_555
H29 C36 1_555 1_555
H30 C38 1_555 1_555
H31 C39 1_555 1_555
H32 C40 1_555 1_555
H33 C41 1_555 1_555
H34 C42 1_555 1_555
O3 N3 1_555 1_555
N3 C45 1_555 1_555
C43 C44 1_555 1_555
C44 C58 1_555 1_555
C45 C43 1_555 1_555
C46 C43 1_555 1_555
C47 C46 1_555 1_555
C48 C47 1_555 1_555
C49 C48 1_555 1_555
C50 C49 1_555 1_555
C51 C46 1_555 1_555
C52 C43 1_555 1_555
C53 C52 1_555 1_555
C54 C53 1_555 1_555
C55 C54 1_555 1_555
C56 C55 1_555 1_555
C57 C52 1_555 1_555
C58 C59 1_555 1_555
C59 C60 1_555 1_555
C60 C61 1_555 1_555
C61 C62 1_555 1_555
C62 C63 1_555 1_555
C63 C58 1_555 1_555
H35 C44 1_555 1_555
H36 C44 1_555 1_555
H37 C47 1_555 1_555
H38 C48 1_555 1_555
H39 C49 1_555 1_555
H40 C50 1_555 1_555
H41 C51 1_555 1_555
H42 C53 1_555 1_555
H43 C54 1_555 1_555
H44 C55 1_555 1_555
H45 C56 1_555 1_555
H46 C57 1_555 1_555
H47 C59 1_555 1_555
H48 C60 1_555 1_555
H49 C61 1_555 1_555
H50 C62 1_555 1_555
H51 C63 1_555 1_555
C8 C9 1_555 1_555
C14 C15 1_555 1_555
C29 C30 1_555 1_555
C35 C36 1_555 1_555
C50 C51 1_555 1_555
C56 C57 1_555 1_555

#END
