
#######################################################################
#
#                 Cambridge Crystallographic Data Centre
#                                CCDC 
#
#######################################################################
#
# If this CIF has been generated from an entry in the Cambridge 
# Structural Database, then it will include bibliographic, chemical, 
# crystal, experimental, refinement or atomic coordinate data resulting 
# from the CCDC's data processing and validation procedures.
#
#######################################################################

data_TOTGOA
_chemical_formula_moiety         'C28 H42 O2'
_chemical_name_systematic        
1,1,3a-trimethyl-4-(4,12,12-trimethyl-5-oxatricyclo[9.1.0.0^4,6^]dodec-9-en-9-yl)decahydro-7H-cyclopropa[a]naphthalen-7-one
_symmetry_cell_setting           orthorhombic
_symmetry_space_group_name_H-M   'P 21 21 21'
_symmetry_Int_Tables_number      19
_space_group_name_Hall           'P 2ac 2ab'
loop_
_symmetry_equiv_pos_site_id
_symmetry_equiv_pos_as_xyz
1 x,y,z
2 1/2+x,1/2-y,-z
3 -x,1/2+y,1/2-z
4 1/2-x,-y,1/2+z
_cell_length_a                   8.5312(2)
_cell_length_b                   11.5963(2)
_cell_length_c                   24.0459(5)
_cell_angle_alpha                90
_cell_angle_beta                 90
_cell_angle_gamma                90
_cell_volume                     2378.87
_exptl_crystal_colour            colorless
_exptl_crystal_description       block
_cell_formula_units_Z            4
loop_
_atom_site_label
_atom_site_type_symbol
_atom_site_fract_x
_atom_site_fract_y
_atom_site_fract_z
O1 O 0.46063(15) 0.69760(10) 0.25613(4)
O2 O 0.60866(12) 1.29517(8) 0.02292(4)
C1 C 0.59199(19) 0.72713(12) 0.21983(5)
H1 H 0.6576 0.6596 0.2086
C2 C 0.68501(17) 0.83377(12) 0.23371(5)
H2 H 0.7400 0.8222 0.2695
H3 H 0.6127 0.8999 0.2381
C3 C 0.80615(14) 0.86158(10) 0.18794(5)
H4 H 0.8787 0.9219 0.2016
H5 H 0.8686 0.7916 0.1799
C4 C 0.72868(13) 0.90301(9) 0.13477(4)
C5 C 0.68263(13) 0.82886(9) 0.09535(5)
H6 H 0.6182 0.8588 0.0665
C6 C 0.72251(13) 0.70427(9) 0.09225(5)
H7 H 0.8237 0.6833 0.1107
C7 C 0.59937(15) 0.60768(10) 0.09246(5)
H8 H 0.6368 0.5354 0.1108
C8 C 0.42745(15) 0.63057(12) 0.10157(5)
H9 H 0.3653 0.5744 0.0798
H10 H 0.4018 0.7087 0.0878
C9 C 0.38099(18) 0.62163(14) 0.16327(5)
H11 H 0.2657 0.6136 0.1658
H12 H 0.4284 0.5510 0.1791
C10 C 0.43141(18) 0.72426(13) 0.19788(5)
C11 C 0.68708(14) 0.63576(10) 0.03974(5)
C12 C 0.81007(18) 0.54895(12) 0.02185(7)
H13 H 0.8589 0.5147 0.0548
H14 H 0.8903 0.5878 -0.0005
H15 H 0.7605 0.4882 -0.0004
C13 C 0.60582(16) 0.69534(11) -0.00832(5)
H16 H 0.5832 0.6389 -0.0376
H17 H 0.6741 0.7559 -0.0232
H18 H 0.5076 0.7298 0.0047
C14 C 0.33476(18) 0.83101(15) 0.18893(6)
H19 H 0.2245 0.8141 0.1969
H20 H 0.3451 0.8564 0.1502
H21 H 0.3716 0.8922 0.2138
C15 C 0.70416(12) 1.03357(9) 0.12896(4)
H22 H 0.7190 1.0681 0.1667
C16 C 0.53668(13) 1.06310(10) 0.11012(5)
H23 H 0.4617 1.0342 0.1383
H24 H 0.5147 1.0226 0.0747
C17 C 0.50948(13) 1.19327(11) 0.10176(5)
H25 H 0.4064 1.2058 0.0838
H26 H 0.5082 1.2323 0.1384
C18 C 0.63606(14) 1.24423(9) 0.06627(5)
C19 C 0.80148(12) 1.22321(9) 0.08599(4)
H27 H 0.8747 1.2550 0.0574
C20 C 0.83188(12) 1.28629(9) 0.14053(4)
H28 H 0.7361 1.3190 0.1586
C21 C 0.95318(13) 1.23895(9) 0.18069(4)
H29 H 0.9236 1.2463 0.2208
C22 C 1.04037(13) 1.12874(9) 0.16656(4)
H30 H 1.0203 1.0719 0.1965
H31 H 1.1541 1.1456 0.1667
C23 C 0.99852(12) 1.07223(9) 0.11036(4)
H32 H 1.0181 0.9883 0.1135
H33 H 1.0709 1.1027 0.0818
C24 C 0.82896(12) 1.08985(9) 0.08958(4)
C25 C 0.98124(13) 1.35306(9) 0.15161(4)
C26 C 1.11059(13) 1.36197(10) 0.10864(5)
H34 H 1.1116 1.2921 0.0857
H35 H 1.2118 1.3703 0.1275
H36 H 1.0920 1.4293 0.0849
C27 C 0.96265(15) 1.46130(10) 0.18618(5)
H37 H 0.9348 1.5260 0.1619
H38 H 1.0615 1.4783 0.2052
H39 H 0.8796 1.4497 0.2138
C28 C 0.81848(14) 1.04267(10) 0.03003(4)
H40 H 0.8948 1.0826 0.0064
H41 H 0.7126 1.0554 0.0155
H42 H 0.8413 0.9598 0.0302
loop_
_geom_bond_atom_site_label_1
_geom_bond_atom_site_label_2
_geom_bond_site_symmetry_1
_geom_bond_site_symmetry_2
O1 C1 1_555 1_555
O2 C18 1_555 1_555
C1 H1 1_555 1_555
C2 C1 1_555 1_555
H2 C2 1_555 1_555
H3 C2 1_555 1_555
C3 C2 1_555 1_555
H4 C3 1_555 1_555
H5 C3 1_555 1_555
C4 C3 1_555 1_555
C5 C4 1_555 1_555
H6 C5 1_555 1_555
C6 C5 1_555 1_555
H7 C6 1_555 1_555
C7 C6 1_555 1_555
H8 C7 1_555 1_555
C8 C7 1_555 1_555
H9 C8 1_555 1_555
H10 C8 1_555 1_555
C9 C8 1_555 1_555
H11 C9 1_555 1_555
H12 C9 1_555 1_555
C10 O1 1_555 1_555
C11 C6 1_555 1_555
C12 C11 1_555 1_555
H13 C12 1_555 1_555
H14 C12 1_555 1_555
H15 C12 1_555 1_555
C13 C11 1_555 1_555
H16 C13 1_555 1_555
H17 C13 1_555 1_555
H18 C13 1_555 1_555
C14 C10 1_555 1_555
H19 C14 1_555 1_555
H20 C14 1_555 1_555
H21 C14 1_555 1_555
C15 C4 1_555 1_555
H22 C15 1_555 1_555
C16 C15 1_555 1_555
H23 C16 1_555 1_555
H24 C16 1_555 1_555
C17 C16 1_555 1_555
H25 C17 1_555 1_555
H26 C17 1_555 1_555
C18 C17 1_555 1_555
C19 C18 1_555 1_555
H27 C19 1_555 1_555
C20 C19 1_555 1_555
H28 C20 1_555 1_555
C21 C20 1_555 1_555
H29 C21 1_555 1_555
C22 C21 1_555 1_555
H30 C22 1_555 1_555
H31 C22 1_555 1_555
C23 C22 1_555 1_555
H32 C23 1_555 1_555
H33 C23 1_555 1_555
C24 C15 1_555 1_555
C25 C20 1_555 1_555
C26 C25 1_555 1_555
H34 C26 1_555 1_555
H35 C26 1_555 1_555
H36 C26 1_555 1_555
C27 C25 1_555 1_555
H37 C27 1_555 1_555
H38 C27 1_555 1_555
H39 C27 1_555 1_555
C28 C24 1_555 1_555
H40 C28 1_555 1_555
H41 C28 1_555 1_555
H42 C28 1_555 1_555
C1 C10 1_555 1_555
C7 C11 1_555 1_555
C9 C10 1_555 1_555
C19 C24 1_555 1_555
C21 C25 1_555 1_555
C23 C24 1_555 1_555

#END
