
#######################################################################
#
#                 Cambridge Crystallographic Data Centre
#                                CCDC 
#
#######################################################################
#
# If this CIF has been generated from an entry in the Cambridge 
# Structural Database, then it will include bibliographic, chemical, 
# crystal, experimental, refinement or atomic coordinate data resulting 
# from the CCDC's data processing and validation procedures.
#
#######################################################################

data_TOTJET
_chemical_name_common            
'1,6-Difluoro-5,10-bis(8-oxyquinolinato)-5,10-dihydroboranthrene chloroform solvate'
_chemical_formula_moiety         'C30 H18 B2 F2 N2 O2,2(C1 H1 Cl3)'
_chemical_name_systematic        
"1',6'-difluoro-2,10''-dihydrodispiro[1,3,2-oxazaborolo[5,4,3-ij]quinoline-2,5'-boranthrene-10',2''-[1,3,2]oxazaborolo[5,4,3-ij]quinoline] chloroform solvate"
_symmetry_cell_setting           monoclinic
_symmetry_space_group_name_H-M   'P 21/c'
_symmetry_Int_Tables_number      14
_space_group_name_Hall           '-P 2ybc'
loop_
_symmetry_equiv_pos_site_id
_symmetry_equiv_pos_as_xyz
1 x,y,z
2 -x,1/2+y,1/2-z
3 -x,-y,-z
4 x,1/2-y,1/2+z
_cell_length_a                   9.5314(2)
_cell_length_b                   14.0687(3)
_cell_length_c                   12.3085(3)
_cell_angle_alpha                90
_cell_angle_beta                 107.299(3)
_cell_angle_gamma                90
_cell_volume                     1575.84
_exptl_crystal_colour            yellow
_exptl_crystal_description       cubic
_chemical_melting_point          '368.9 K'
_cell_formula_units_Z            2
_exptl_crystal_recrystallization_method chloroform
_exptl_crystal_preparation       Luminescent
loop_
_atom_site_label
_atom_site_type_symbol
_atom_site_fract_x
_atom_site_fract_y
_atom_site_fract_z
F1 F 0.66767(15) -0.03457(10) 0.81578(11)
C1 C 0.71140(18) -0.01681(11) 0.72641(12)
C2 C 0.81787(17) 0.02663(11) 0.55152(15)
H1 H 0.8558 0.0422 0.4906
O1 O 0.38591(12) 0.04645(7) 0.67907(9)
N1 N 0.40457(13) -0.12166(8) 0.65583(10)
C3 C 0.31973(17) -0.26511(11) 0.77875(13)
H2 H 0.2900 -0.3152 0.8188
C4 C 0.60986(15) -0.00925(9) 0.61836(11)
C5 C 0.66612(15) 0.01306(9) 0.52753(12)
C6 C 0.34147(15) -0.00223(10) 0.75659(12)
C7 C 0.34851(15) -0.10123(10) 0.74213(11)
C8 C 0.29274(17) 0.03108(12) 0.84394(13)
H3 H 0.2889 0.0973 0.8579
B1 B 0.43743(17) -0.02149(11) 0.60117(13)
C9 C 0.42127(16) -0.21179(10) 0.63059(13)
H4 H 0.4621 -0.2268 0.5710
C10 C 0.25048(17) -0.13328(13) 0.89632(13)
H5 H 0.2168 -0.1755 0.9434
C11 C 0.30377(15) -0.16931(11) 0.80804(12)
C12 C 0.91498(17) 0.01844(12) 0.65966(16)
H6 H 1.0173 0.0280 0.6724
C13 C 0.37870(17) -0.28545(11) 0.69173(13)
H7 H 0.3907 -0.3498 0.6728
C14 C 0.24828(17) -0.03682(13) 0.91265(13)
H8 H 0.2151 -0.0141 0.9734
C15 C 0.86072(18) -0.00387(12) 0.74921(14)
H9 H 0.9249 -0.0101 0.8245
F1B F 0.33233(15) 0.03457(10) 0.18422(11)
C1B C 0.28860(18) 0.01681(11) 0.27359(12)
C2B C 0.18213(17) -0.02663(11) 0.44848(15)
H1B H 0.1442 -0.0422 0.5094
O1B O 0.61409(12) -0.04645(7) 0.32093(9)
N1B N 0.59543(13) 0.12166(8) 0.34417(10)
C3B C 0.68027(17) 0.26511(11) 0.22125(13)
H2B H 0.7100 0.3152 0.1812
C4B C 0.39014(15) 0.00925(9) 0.38164(11)
C5B C 0.33388(15) -0.01306(9) 0.47247(12)
C6B C 0.65853(15) 0.00223(10) 0.24341(12)
C7B C 0.65149(15) 0.10123(10) 0.25787(11)
C8B C 0.70726(17) -0.03108(12) 0.15606(13)
H3B H 0.7111 -0.0973 0.1421
B1B B 0.56257(17) 0.02149(11) 0.39883(13)
C9B C 0.57873(16) 0.21179(10) 0.36941(13)
H4B H 0.5379 0.2268 0.4290
C10B C 0.74952(17) 0.13328(13) 0.10368(13)
H5B H 0.7832 0.1755 0.0566
C11B C 0.69623(15) 0.16931(11) 0.19196(12)
C12B C 0.08502(17) -0.01844(12) 0.34034(16)
H6B H -0.0173 -0.0280 0.3276
C13B C 0.62130(17) 0.28545(11) 0.30827(13)
H7B H 0.6093 0.3498 0.3272
C14B C 0.75172(17) 0.03682(13) 0.08735(13)
H8B H 0.7849 0.0141 0.0266
C15B C 0.13928(18) 0.00387(12) 0.25079(14)
H9B H 0.0751 0.0101 0.1755
C16 C 0.16488(18) 0.28489(12) 0.05149(14)
H11 H 0.1825 0.3550 0.0519
Cl1 Cl 0.32498(5) 0.22630(4) 0.04501(4)
Cl2 Cl 0.12417(5) 0.25474(3) 0.17680(4)
Cl3 Cl 0.01642(6) 0.25720(6) -0.06755(5)
F2? F 0.8818(3) 0.0514(3) 0.4838(3)
H10? H 0.6751 -0.0319 0.7883
loop_
_geom_bond_atom_site_label_1
_geom_bond_atom_site_label_2
_geom_bond_site_symmetry_1
_geom_bond_site_symmetry_2
F1 C1 1_555 1_555
C1 C4 1_555 1_555
C2 H1 1_555 1_555
O1 C6 1_555 1_555
N1 C7 1_555 1_555
C3 H2 1_555 1_555
C4 C5 1_555 1_555
C5 C2 1_555 1_555
C6 C7 1_555 1_555
C7 C11 1_555 1_555
C8 C6 1_555 1_555
H3 C8 1_555 1_555
B1 O1 1_555 1_555
C9 N1 1_555 1_555
H4 C9 1_555 1_555
C10 H5 1_555 1_555
C11 C3 1_555 1_555
C12 C2 1_555 1_555
H6 C12 1_555 1_555
C13 C3 1_555 1_555
H7 C13 1_555 1_555
C14 C8 1_555 1_555
H8 C14 1_555 1_555
C15 C1 1_555 1_555
H9 C15 1_555 1_555
C16 H11 1_555 1_555
Cl1 C16 1_555 1_555
Cl2 C16 1_555 1_555
Cl3 C16 1_555 1_555
F1B C1B 1_555 1_555
C1B C4B 1_555 1_555
C2B H1B 1_555 1_555
O1B C6B 1_555 1_555
N1B C7B 1_555 1_555
C3B H2B 1_555 1_555
C4B C5B 1_555 1_555
C5B B1 1_555 1_555
C6B C7B 1_555 1_555
C7B C11B 1_555 1_555
C8B C6B 1_555 1_555
H3B C8B 1_555 1_555
B1B C5 1_555 1_555
C9B N1B 1_555 1_555
H4B C9B 1_555 1_555
C10B H5B 1_555 1_555
C11B C3B 1_555 1_555
C12B C2B 1_555 1_555
H6B C12B 1_555 1_555
C13B C3B 1_555 1_555
H7B C13B 1_555 1_555
C14B C8B 1_555 1_555
H8B C14B 1_555 1_555
C15B C1B 1_555 1_555
H9B C15B 1_555 1_555
N1 B1 1_555 1_555
C4 B1 1_555 1_555
C9 C13 1_555 1_555
C10 C11 1_555 1_555
C10 C14 1_555 1_555
C12 C15 1_555 1_555
C2B C5B 1_555 1_555
O1B B1B 1_555 1_555
N1B B1B 1_555 1_555
C4B B1B 1_555 1_555
C9B C13B 1_555 1_555
C10B C11B 1_555 1_555
C10B C14B 1_555 1_555
C12B C15B 1_555 1_555

#END
