
#######################################################################
#
#                 Cambridge Crystallographic Data Centre
#                                CCDC 
#
#######################################################################
#
# If this CIF has been generated from an entry in the Cambridge 
# Structural Database, then it will include bibliographic, chemical, 
# crystal, experimental, refinement or atomic coordinate data resulting 
# from the CCDC's data processing and validation procedures.
#
#######################################################################

data_TOTJUJ
_chemical_formula_moiety         'C28 H18 Cl2 O1'
_chemical_name_systematic        2,5-bis(4-chlorophenyl)-3,4-diphenylfuran
_symmetry_cell_setting           monoclinic
_symmetry_space_group_name_H-M   'P 2/c'
_symmetry_Int_Tables_number      13
_space_group_name_Hall           '-P 2yc'
loop_
_symmetry_equiv_pos_site_id
_symmetry_equiv_pos_as_xyz
1 x,y,z
2 -x,y,1/2-z
3 -x,-y,-z
4 x,-y,1/2+z
_cell_length_a                   12.325(3)
_cell_length_b                   10.970(3)
_cell_length_c                   8.335(2)
_cell_angle_alpha                90
_cell_angle_beta                 91.576(5)
_cell_angle_gamma                90
_cell_volume                     1126.51
_cell_formula_units_Z            2
loop_
_atom_site_label
_atom_site_type_symbol
_atom_site_fract_x
_atom_site_fract_y
_atom_site_fract_z
Cl1 Cl 0.99142(14) 0.74887(16) 0.9932(2)
O1 O 0.5000 0.5578(4) 0.7500
C1 C 0.8725(4) 0.6706(6) 0.9412(7)
C2 C 0.8551(5) 0.5559(5) 0.9984(7)
H1 H 0.9068 0.5189 1.0657
C3 C 0.7616(5) 0.4955(5) 0.9565(6)
H2 H 0.7509 0.4169 0.9949
C4 C 0.6817(4) 0.5488(4) 0.8578(6)
C5 C 0.7011(5) 0.6667(5) 0.8037(6)
H3 H 0.6490 0.7056 0.7392
C6 C 0.7969(5) 0.7271(5) 0.8443(7)
H4 H 0.8094 0.8053 0.8060
C7 C 0.5837(4) 0.4834(4) 0.8050(6)
C8 C 0.5537(4) 0.3648(4) 0.7856(5)
C9 C 0.6150(4) 0.2545(4) 0.8374(6)
C10 C 0.5730(5) 0.1779(5) 0.9516(6)
H5 H 0.5047 0.1929 0.9920
C11 C 0.6331(6) 0.0784(5) 1.0058(7)
H6 H 0.6046 0.0273 1.0831
C12 C 0.7328(6) 0.0545(6) 0.9478(8)
H7 H 0.7727 -0.0114 0.9872
C13 C 0.7741(5) 0.1264(6) 0.8329(8)
H8 H 0.8415 0.1086 0.7911
C14 C 0.7159(5) 0.2267(5) 0.7773(7)
H9 H 0.7450 0.2761 0.6986
Cl1A Cl 0.00858(14) 0.74887(16) 0.5068(2)
C1A C 0.1275(4) 0.6706(6) 0.5588(7)
C2A C 0.1449(5) 0.5559(5) 0.5016(7)
H1A H 0.0932 0.5189 0.4343
C3A C 0.2384(5) 0.4955(5) 0.5435(6)
H2A H 0.2491 0.4169 0.5051
C4A C 0.3183(4) 0.5488(4) 0.6422(6)
C5A C 0.2989(5) 0.6667(5) 0.6963(6)
H3A H 0.3510 0.7056 0.7608
C6A C 0.2031(5) 0.7271(5) 0.6557(7)
H4A H 0.1906 0.8053 0.6940
C7A C 0.4163(4) 0.4834(4) 0.6950(6)
C8A C 0.4463(4) 0.3648(4) 0.7144(5)
C9A C 0.3850(4) 0.2545(4) 0.6626(6)
C10A C 0.4270(5) 0.1779(5) 0.5484(6)
H5A H 0.4953 0.1929 0.5080
C11A C 0.3669(6) 0.0784(5) 0.4942(7)
H6A H 0.3954 0.0273 0.4169
C12A C 0.2672(6) 0.0545(6) 0.5522(8)
H7A H 0.2273 -0.0114 0.5128
C13A C 0.2259(5) 0.1264(6) 0.6671(8)
H8A H 0.1585 0.1086 0.7089
C14A C 0.2841(5) 0.2267(5) 0.7227(7)
H9A H 0.2550 0.2761 0.8014
loop_
_geom_bond_atom_site_label_1
_geom_bond_atom_site_label_2
_geom_bond_site_symmetry_1
_geom_bond_site_symmetry_2
Cl1 C1 1_555 1_555
O1 C7 1_555 1_555
C1 C2 1_555 1_555
C2 H1 1_555 1_555
C3 C2 1_555 1_555
H2 C3 1_555 1_555
C4 C3 1_555 1_555
C5 C4 1_555 1_555
H3 C5 1_555 1_555
C6 C1 1_555 1_555
H4 C6 1_555 1_555
C7 C4 1_555 1_555
C8 C7 1_555 1_555
C9 C8 1_555 1_555
C10 C9 1_555 1_555
H5 C10 1_555 1_555
C11 C10 1_555 1_555
H6 C11 1_555 1_555
C12 C11 1_555 1_555
H7 C12 1_555 1_555
C13 C12 1_555 1_555
H8 C13 1_555 1_555
C14 C9 1_555 1_555
H9 C14 1_555 1_555
Cl1A C1A 1_555 1_555
C1A C2A 1_555 1_555
C2A H1A 1_555 1_555
C3A C2A 1_555 1_555
H2A C3A 1_555 1_555
C4A C3A 1_555 1_555
C5A C4A 1_555 1_555
H3A C5A 1_555 1_555
C6A C1A 1_555 1_555
H4A C6A 1_555 1_555
C7A O1 1_555 1_555
C8A C8 1_555 1_555
C9A C8A 1_555 1_555
C10A C9A 1_555 1_555
H5A C10A 1_555 1_555
C11A C10A 1_555 1_555
H6A C11A 1_555 1_555
C12A C11A 1_555 1_555
H7A C12A 1_555 1_555
C13A C12A 1_555 1_555
H8A C13A 1_555 1_555
C14A C9A 1_555 1_555
H9A C14A 1_555 1_555
C5 C6 1_555 1_555
C13 C14 1_555 1_555
C4A C7A 1_555 1_555
C5A C6A 1_555 1_555
C7A C8A 1_555 1_555
C13A C14A 1_555 1_555

#END
