
#######################################################################
#
#                 Cambridge Crystallographic Data Centre
#                                CCDC 
#
#######################################################################
#
# If this CIF has been generated from an entry in the Cambridge 
# Structural Database, then it will include bibliographic, chemical, 
# crystal, experimental, refinement or atomic coordinate data resulting 
# from the CCDC's data processing and validation procedures.
#
#######################################################################

data_TOTJAP
_chemical_name_common            
1,6-Difluoro-5,10-bis(8-oxyquinolinato)-5,10-dihydroboranthrene
_chemical_formula_moiety         'C30 H18 B2 F2 N2 O2'
_chemical_name_systematic        
1',6'-difluoro-2,10''-dihydrodispiro[1,3,2-oxazaborolo[5,4,3-ij]quinoline-2,5'-boranthrene-10',2''-[1,3,2]oxazaborolo[5,4,3-ij]quinoline]
_symmetry_cell_setting           triclinic
_symmetry_space_group_name_H-M   'P -1'
_symmetry_Int_Tables_number      2
_space_group_name_Hall           '-P 1'
loop_
_symmetry_equiv_pos_site_id
_symmetry_equiv_pos_as_xyz
1 x,y,z
2 -x,-y,-z
_cell_length_a                   10.3718(6)
_cell_length_b                   10.6554(6)
_cell_length_c                   11.3670(6)
_cell_angle_alpha                90.027(3)
_cell_angle_beta                 96.603(3)
_cell_angle_gamma                113.011(3)
_cell_volume                     1147.19
_exptl_crystal_colour            yellow
_exptl_crystal_description       cubic
_chemical_melting_point          '368.9 K'
_cell_formula_units_Z            2
_exptl_crystal_recrystallization_method acetone
_exptl_crystal_preparation       Luminescent
loop_
_atom_site_label
_atom_site_type_symbol
_atom_site_fract_x
_atom_site_fract_y
_atom_site_fract_z
F1 F 0.66697(9) 0.09834(8) 0.27160(8)
C1 C 0.79352(13) 0.20473(12) 0.28473(10)
C2 C 1.05414(13) 0.40836(14) 0.30412(12)
H1 H 1.1456 0.4793 0.3087
F2 F 0.97554(10) 0.86858(9) 0.35603(9)
C3 C 0.85053(13) 0.75892(12) 0.36362(11)
C4 C 0.59407(13) 0.55327(13) 0.37145(12)
H2 H 0.5036 0.4823 0.3730
O1 O 0.95457(9) 0.62891(9) 0.13371(7)
N1 N 1.10915(10) 0.69824(10) 0.31528(9)
O2 O 0.53515(9) 0.27023(9) 0.31102(8)
N2 N 0.59827(10) 0.36483(10) 0.12450(9)
C5 C 1.17696(12) 0.75613(11) 0.22177(10)
C6 C 0.79930(12) 0.33660(11) 0.27697(10)
C7 C 0.69735(12) 0.52486(12) 0.32098(10)
C8 C 0.45972(12) 0.28032(12) 0.11602(11)
C9 C 0.93592(12) 0.44198(12) 0.28418(10)
C10 C 1.31941(12) 0.84358(11) 0.23065(10)
C11 C 1.08454(12) 0.71440(11) 0.11538(10)
C12 C 1.17896(13) 0.72353(12) 0.42356(10)
H3 H 1.1318 0.6831 0.4893
C13 C 0.83210(12) 0.63085(12) 0.31869(10)
C14 C 1.27981(14) 0.85525(13) 0.01861(11)
H4 H 1.3158 0.8911 -0.0528
C15 C 0.42388(12) 0.22716(12) 0.22657(11)
C16 C 1.13566(13) 0.76448(12) 0.01146(10)
H5 H 1.0769 0.7394 -0.0624
C17 C 0.65190(13) 0.42266(12) 0.02821(11)
H6 H 0.7487 0.4820 0.0332
C18 C 0.56535(14) 0.39607(13) -0.08141(11)
H7 H 0.6050 0.4368 -0.1502
C19 C 0.28589(13) 0.14181(13) 0.23385(13)
H8 H 0.2571 0.1033 0.3066
C20 C 1.32292(13) 0.81027(12) 0.44125(11)
H9 H 1.3726 0.8284 0.5191
C21 C 0.42443(14) 0.31214(13) -0.09052(12)
H10 H 0.3670 0.2955 -0.1649
B1 B 0.66327(13) 0.37524(13) 0.26411(12)
C22 C 0.36552(13) 0.25073(13) 0.01140(12)
B2 B 0.95200(13) 0.59713(13) 0.26527(12)
C23 C 1.37036(13) 0.89434(12) 0.12230(11)
H11 H 1.4661 0.9547 0.1216
C24 C 0.90941(15) 0.17012(13) 0.30599(11)
H12 H 0.8981 0.0776 0.3125
C25 C 0.74991(15) 0.78724(13) 0.41477(12)
H13 H 0.7694 0.8764 0.4459
C26 C 1.39256(13) 0.86927(12) 0.34643(11)
H14 H 1.4900 0.9273 0.3591
C27 C 0.61991(14) 0.68208(14) 0.41939(12)
H15 H 0.5488 0.6978 0.4551
C28 C 0.22332(14) 0.16358(14) 0.02177(13)
H16 H 0.1535 0.1407 -0.0455
C29 C 1.04212(15) 0.27465(14) 0.31738(12)
H17 H 1.1242 0.2553 0.3341
C30 C 0.18771(14) 0.11290(14) 0.12931(14)
H18 H 0.0920 0.0552 0.1344
F3? F 1.1729(6) 0.4754(7) 0.2969(6)
H19? H 0.7028 0.1322 0.2747
H20? H 0.9387 0.8322 0.3588
F4? F 0.4519(6) 0.4687(6) 0.3446(6)
loop_
_geom_bond_atom_site_label_1
_geom_bond_atom_site_label_2
_geom_bond_site_symmetry_1
_geom_bond_site_symmetry_2
F1 C1 1_555 1_555
C1 C6 1_555 1_555
C2 H1 1_555 1_555
F2 C3 1_555 1_555
C3 C13 1_555 1_555
C4 H2 1_555 1_555
O1 C11 1_555 1_555
N1 C5 1_555 1_555
O2 C15 1_555 1_555
N2 C8 1_555 1_555
C5 C10 1_555 1_555
C6 C9 1_555 1_555
C7 C4 1_555 1_555
C8 C15 1_555 1_555
C9 C2 1_555 1_555
C10 C23 1_555 1_555
C11 C5 1_555 1_555
C12 N1 1_555 1_555
H3 C12 1_555 1_555
C13 C7 1_555 1_555
C14 H4 1_555 1_555
C15 C19 1_555 1_555
C16 C11 1_555 1_555
H5 C16 1_555 1_555
C17 N2 1_555 1_555
H6 C17 1_555 1_555
C18 C17 1_555 1_555
H7 C18 1_555 1_555
C19 H8 1_555 1_555
C20 C12 1_555 1_555
H9 C20 1_555 1_555
C21 C18 1_555 1_555
H10 C21 1_555 1_555
B1 O2 1_555 1_555
C22 C8 1_555 1_555
B2 O1 1_555 1_555
C23 C14 1_555 1_555
H11 C23 1_555 1_555
C24 C1 1_555 1_555
H12 C24 1_555 1_555
C25 C3 1_555 1_555
H13 C25 1_555 1_555
C26 C10 1_555 1_555
H14 C26 1_555 1_555
C27 C4 1_555 1_555
H15 C27 1_555 1_555
C28 C22 1_555 1_555
H16 C28 1_555 1_555
C29 C2 1_555 1_555
H17 C29 1_555 1_555
C30 C19 1_555 1_555
H18 C30 1_555 1_555
N1 B2 1_555 1_555
N2 B1 1_555 1_555
C6 B1 1_555 1_555
C7 B1 1_555 1_555
C9 B2 1_555 1_555
C13 B2 1_555 1_555
C14 C16 1_555 1_555
C20 C26 1_555 1_555
C21 C22 1_555 1_555
C24 C29 1_555 1_555
C25 C27 1_555 1_555
C28 C30 1_555 1_555

#END
