
#######################################################################
#
#                 Cambridge Crystallographic Data Centre
#                                CCDC 
#
#######################################################################
#
# If this CIF has been generated from an entry in the Cambridge 
# Structural Database, then it will include bibliographic, chemical, 
# crystal, experimental, refinement or atomic coordinate data resulting 
# from the CCDC's data processing and validation procedures.
#
#######################################################################

data_TOTKAQ
_chemical_formula_moiety         'C23 H29 N1 O2'
_chemical_name_systematic        
1,2-diphenyl-2-((2,2,6,6-tetramethylpiperidin-1-yl)oxy)ethanone
_symmetry_cell_setting           monoclinic
_symmetry_space_group_name_H-M   'P 21/n'
_symmetry_Int_Tables_number      14
_space_group_name_Hall           '-P 2yn'
loop_
_symmetry_equiv_pos_site_id
_symmetry_equiv_pos_as_xyz
1 x,y,z
2 1/2-x,1/2+y,1/2-z
3 -x,-y,-z
4 1/2+x,1/2-y,1/2+z
_cell_length_a                   8.708(2)
_cell_length_b                   10.662(2)
_cell_length_c                   21.766(5)
_cell_angle_alpha                90
_cell_angle_beta                 96.274(4)
_cell_angle_gamma                90
_cell_volume                     2008.75
_cell_formula_units_Z            4
loop_
_atom_site_label
_atom_site_type_symbol
_atom_site_fract_x
_atom_site_fract_y
_atom_site_fract_z
N1 N 0.95842(18) 0.75561(13) 0.25863(6)
O1 O 1.01709(14) 0.71380(11) 0.20151(5)
O2 O 0.76075(16) 0.83834(14) 0.08337(7)
C1 C 0.7086(3) 0.6628(2) 0.22776(12)
H1 H 0.6797 0.7488 0.2203
H2 H 0.6245 0.6183 0.2428
H3 H 0.7328 0.6250 0.1899
C2 C 0.9127(4) 0.5216(2) 0.27749(12)
H4 H 0.9585 0.5050 0.2402
H5 H 0.8292 0.4641 0.2808
H6 H 0.9890 0.5115 0.3124
C3 C 0.8508(3) 0.65667(18) 0.27603(10)
C4 C 0.8016(4) 0.6942(2) 0.33858(12)
H7 H 0.7399 0.7700 0.3336
H8 H 0.7372 0.6285 0.3529
C5 C 0.9368(4) 0.7168(3) 0.38700(11)
H9 H 0.9000 0.7422 0.4256
H10 H 0.9967 0.6405 0.3942
C6 C 1.0352(3) 0.8183(2) 0.36403(10)
H11 H 1.1220 0.8340 0.3949
H12 H 0.9749 0.8949 0.3590
C7 C 1.0966(3) 0.78669(19) 0.30270(8)
C8 C 1.2219(3) 0.6857(2) 0.31134(11)
H13 H 1.1852 0.6162 0.3338
H14 H 1.3130 0.7199 0.3341
H15 H 1.2460 0.6574 0.2716
C9 C 1.1672(3) 0.9051(2) 0.27882(11)
H16 H 1.2156 0.8856 0.2424
H17 H 1.2430 0.9379 0.3100
H18 H 1.0876 0.9664 0.2689
C10 C 0.9823(2) 0.80275(16) 0.15275(8)
H19 H 0.9494 0.8810 0.1709
C11 C 1.1250(2) 0.83049(16) 0.11995(8)
C12 C 1.2603(2) 0.76404(19) 0.13188(9)
H20 H 1.2665 0.6999 0.1610
C13 C 1.3870(2) 0.7913(2) 0.10125(9)
H21 H 1.4781 0.7461 0.1101
C14 C 1.3788(3) 0.8840(2) 0.05812(9)
H22 H 1.4644 0.9020 0.0375
C15 C 1.2456(3) 0.9508(2) 0.04492(10)
H23 H 1.2400 1.0137 0.0151
C16 C 1.1187(2) 0.92459(19) 0.07604(9)
H24 H 1.0284 0.9708 0.0673
C17 C 0.8544(2) 0.75981(19) 0.10403(8)
C18 C 0.8495(2) 0.62964(18) 0.07865(8)
C19 C 0.9576(2) 0.53864(19) 0.09725(9)
H25 H 1.0373 0.5569 0.1279
C20 C 0.9484(3) 0.4212(2) 0.07083(9)
H26 H 1.0218 0.3605 0.0835
C21 C 0.8302(3) 0.3938(2) 0.02554(10)
H27 H 0.8238 0.3146 0.0076
C22 C 0.7225(3) 0.4829(3) 0.00698(10)
H28 H 0.6427 0.4641 -0.0236
C23 C 0.7313(2) 0.5993(2) 0.03305(9)
H29 H 0.6571 0.6591 0.0201
loop_
_geom_bond_atom_site_label_1
_geom_bond_atom_site_label_2
_geom_bond_site_symmetry_1
_geom_bond_site_symmetry_2
N1 O1 1_555 1_555
O1 C10 1_555 1_555
O2 C17 1_555 1_555
C1 H1 1_555 1_555
H2 C1 1_555 1_555
H3 C1 1_555 1_555
C2 H4 1_555 1_555
H5 C2 1_555 1_555
H6 C2 1_555 1_555
C3 N1 1_555 1_555
C4 C3 1_555 1_555
H7 C4 1_555 1_555
H8 C4 1_555 1_555
C5 C4 1_555 1_555
H9 C5 1_555 1_555
H10 C5 1_555 1_555
C6 C5 1_555 1_555
H11 C6 1_555 1_555
H12 C6 1_555 1_555
C7 N1 1_555 1_555
C8 C7 1_555 1_555
H13 C8 1_555 1_555
H14 C8 1_555 1_555
H15 C8 1_555 1_555
C9 C7 1_555 1_555
H16 C9 1_555 1_555
H17 C9 1_555 1_555
H18 C9 1_555 1_555
C10 H19 1_555 1_555
C11 C10 1_555 1_555
C12 C11 1_555 1_555
H20 C12 1_555 1_555
C13 C12 1_555 1_555
H21 C13 1_555 1_555
C14 C13 1_555 1_555
H22 C14 1_555 1_555
C15 C14 1_555 1_555
H23 C15 1_555 1_555
C16 C11 1_555 1_555
H24 C16 1_555 1_555
C17 C10 1_555 1_555
C18 C17 1_555 1_555
C19 C18 1_555 1_555
H25 C19 1_555 1_555
C20 C19 1_555 1_555
H26 C20 1_555 1_555
C21 C20 1_555 1_555
H27 C21 1_555 1_555
C22 C21 1_555 1_555
H28 C22 1_555 1_555
C23 C18 1_555 1_555
H29 C23 1_555 1_555
C1 C3 1_555 1_555
C2 C3 1_555 1_555
C6 C7 1_555 1_555
C15 C16 1_555 1_555
C22 C23 1_555 1_555

#END
