
#######################################################################
#
#                 Cambridge Crystallographic Data Centre
#                                CCDC 
#
#######################################################################
#
# If this CIF has been generated from an entry in the Cambridge 
# Structural Database, then it will include bibliographic, chemical, 
# crystal, experimental, refinement or atomic coordinate data resulting 
# from the CCDC's data processing and validation procedures.
#
#######################################################################

data_TOTQIE
_chemical_formula_moiety         'C22 H28 O6'
_chemical_name_systematic        
17-ethoxy-6-hydroxy-3,20-epoxykaur-5-ene-1,7,15-trione
_symmetry_cell_setting           orthorhombic
_symmetry_space_group_name_H-M   'P 21 21 21'
_symmetry_Int_Tables_number      19
_space_group_name_Hall           'P 2ac 2ab'
loop_
_symmetry_equiv_pos_site_id
_symmetry_equiv_pos_as_xyz
1 x,y,z
2 1/2+x,1/2-y,-z
3 -x,1/2+y,1/2-z
4 1/2-x,-y,1/2+z
_cell_length_a                   9.4749(3)
_cell_length_b                   11.6421(3)
_cell_length_c                   17.1244(5)
_cell_angle_alpha                90
_cell_angle_beta                 90
_cell_angle_gamma                90
_cell_volume                     1888.95
_exptl_crystal_colour            colorless
_exptl_crystal_description       rhombus
_cell_formula_units_Z            4
loop_
_atom_site_label
_atom_site_type_symbol
_atom_site_fract_x
_atom_site_fract_y
_atom_site_fract_z
O1 O 0.73322(13) 0.43503(11) 0.05011(8)
O2 O 0.12295(12) 0.53870(10) 0.38027(7)
O3 O 0.45975(13) 0.16420(11) 0.13347(7)
O4 O 0.13624(13) 0.21014(11) 0.10135(7)
O5 O -0.06667(13) 0.23110(11) 0.20764(7)
H1 H -0.0608 0.1861 0.1694
O6 O 0.34801(14) 0.25295(12) 0.41061(7)
C1 C 0.9344(2) 0.52905(18) 0.00036(11)
H2 H 0.8997 0.5196 -0.0532
H3 H 1.0378 0.5301 0.0001
H4 H 0.8989 0.6015 0.0219
C2 C 0.88329(18) 0.43065(17) 0.04987(11)
H5 H 0.9162 0.3567 0.0279
H6 H 0.9201 0.4379 0.1037
C3 C 0.67232(18) 0.33839(16) 0.08741(10)
H7 H 0.7074 0.3317 0.1417
H8 H 0.6965 0.2671 0.0589
C4 C 0.51409(17) 0.35757(16) 0.08689(10)
H9 H 0.4829 0.3574 0.0311
C5 C 0.43051(17) 0.26464(16) 0.12907(9)
C6 C 0.30548(17) 0.32287(15) 0.17123(9)
C7 C 0.35132(17) 0.33013(15) 0.25778(9)
H10 H 0.3694 0.2491 0.2743
C8 C 0.23512(17) 0.37441(15) 0.31229(10)
C9 C 0.08696(17) 0.33645(15) 0.28900(10)
C10 C -0.02910(18) 0.37644(16) 0.34418(10)
C11 C -0.11739(19) 0.27739(16) 0.37865(11)
H11 H -0.1811 0.2472 0.3385
H12 H -0.1729 0.3059 0.4229
H13 H -0.0543 0.2161 0.3965
C12 C 0.04497(17) 0.44219(16) 0.41086(10)
H14 H -0.0274 0.4704 0.4488
C13 C 0.23360(17) 0.50542(15) 0.32740(10)
H15 H 0.3258 0.5289 0.3495
H16 H 0.2208 0.5462 0.2772
C14 C 0.45811(17) 0.46949(15) 0.12450(10)
H17 H 0.4741 0.5368 0.0893
C15 C 0.51570(17) 0.49321(15) 0.20691(10)
H18 H 0.4675 0.5616 0.2285
H19 H 0.6176 0.5112 0.2031
C16 C 0.49556(18) 0.39178(15) 0.26355(10)
H20 H 0.5076 0.4203 0.3176
H21 H 0.5711 0.3348 0.2537
C17 C 0.30062(16) 0.44095(15) 0.13042(10)
H22 H 0.2563 0.4357 0.0782
H23 H 0.2494 0.4984 0.1623
C18 C 0.16840(18) 0.25988(15) 0.16158(10)
C19 C 0.06308(18) 0.27378(15) 0.22440(10)
C20 C -0.12783(17) 0.45946(16) 0.30022(10)
H24 H -0.0723 0.5227 0.2782
H25 H -0.1982 0.4904 0.3365
H26 H -0.1757 0.4181 0.2580
C21 C 0.25658(18) 0.32046(15) 0.39475(9)
C22 C 0.15001(18) 0.36524(15) 0.45322(10)
H27 H 0.1988 0.4094 0.4946
H28 H 0.0998 0.3002 0.4780
loop_
_geom_bond_atom_site_label_1
_geom_bond_atom_site_label_2
_geom_bond_site_symmetry_1
_geom_bond_site_symmetry_2
O1 C2 1_555 1_555
O2 C12 1_555 1_555
O3 C5 1_555 1_555
O4 C18 1_555 1_555
O5 H1 1_555 1_555
O6 C21 1_555 1_555
C1 H2 1_555 1_555
H3 C1 1_555 1_555
H4 C1 1_555 1_555
C2 C1 1_555 1_555
H5 C2 1_555 1_555
H6 C2 1_555 1_555
C3 O1 1_555 1_555
H7 C3 1_555 1_555
H8 C3 1_555 1_555
C4 C3 1_555 1_555
H9 C4 1_555 1_555
C5 C4 1_555 1_555
C6 C5 1_555 1_555
C7 C6 1_555 1_555
H10 C7 1_555 1_555
C8 C7 1_555 1_555
C9 C8 1_555 1_555
C10 C9 1_555 1_555
C11 C10 1_555 1_555
H11 C11 1_555 1_555
H12 C11 1_555 1_555
H13 C11 1_555 1_555
C12 C10 1_555 1_555
H14 C12 1_555 1_555
C13 O2 1_555 1_555
H15 C13 1_555 1_555
H16 C13 1_555 1_555
C14 C4 1_555 1_555
H17 C14 1_555 1_555
C15 C14 1_555 1_555
H18 C15 1_555 1_555
H19 C15 1_555 1_555
C16 C7 1_555 1_555
H20 C16 1_555 1_555
H21 C16 1_555 1_555
C17 C6 1_555 1_555
H22 C17 1_555 1_555
H23 C17 1_555 1_555
C18 C6 1_555 1_555
C19 O5 1_555 1_555
C20 C10 1_555 1_555
H24 C20 1_555 1_555
H25 C20 1_555 1_555
H26 C20 1_555 1_555
C21 C8 1_555 1_555
C22 C12 1_555 1_555
H27 C22 1_555 1_555
H28 C22 1_555 1_555
C8 C13 1_555 1_555
C9 C19 1_555 1_555
C14 C17 1_555 1_555
C15 C16 1_555 1_555
C18 C19 1_555 1_555
C21 C22 1_555 1_555

#END
