
#######################################################################
#
#                 Cambridge Crystallographic Data Centre
#                                CCDC 
#
#######################################################################
#
# If this CIF has been generated from an entry in the Cambridge 
# Structural Database, then it will include bibliographic, chemical, 
# crystal, experimental, refinement or atomic coordinate data resulting 
# from the CCDC's data processing and validation procedures.
#
#######################################################################

data_TOVFAN
_chemical_formula_moiety         'C23 H30 N3 P1 S1'
_chemical_name_systematic        
'N-(1,3-di-t-butyl-1,3-dihydro-2H-imidazol-2-ylidene)-P,P-diphenylphosphinothioic amide'
_symmetry_cell_setting           tetragonal
_symmetry_space_group_name_H-M   'I 41/a'
_symmetry_Int_Tables_number      88
_space_group_name_Hall           '-I 4ad'
loop_
_symmetry_equiv_pos_site_id
_symmetry_equiv_pos_as_xyz
1 x,y,z
2 -x,1/2-y,z
3 3/4-y,1/4+x,1/4+z
4 1/4+y,1/4-x,1/4+z
5 1/2+x,1/2+y,1/2+z
6 1/2-x,-y,1/2+z
7 1/4-y,3/4+x,3/4+z
8 3/4+y,3/4-x,3/4+z
9 -x,-y,-z
10 x,1/2+y,-z
11 1/4+y,3/4-x,3/4-z
12 3/4-y,3/4+x,3/4-z
13 1/2-x,1/2-y,1/2-z
14 1/2+x,y,1/2-z
15 3/4+y,1/4-x,1/4-z
16 1/4-y,1/4+x,1/4-z
_cell_length_a                   23.6163(17)
_cell_length_b                   23.6163(17)
_cell_length_c                   15.8388(7)
_cell_angle_alpha                90
_cell_angle_beta                 90
_cell_angle_gamma                90
_cell_volume                     8833.77
_exptl_crystal_colour            yellow
_exptl_crystal_description       block
_cell_formula_units_Z            16
_chemical_properties_physical    Moisture-sensitive
loop_
_atom_site_label
_atom_site_type_symbol
_atom_site_fract_x
_atom_site_fract_y
_atom_site_fract_z
S1 S -0.01572(2) -0.01141(2) 0.36005(3)
P1 P -0.00001(2) -0.02316(2) 0.23948(3)
N1 N -0.11660(7) -0.12315(7) 0.21900(11)
N2 N -0.04757(7) -0.05238(7) 0.18112(11)
N3 N -0.14906(7) -0.03769(7) 0.19450(11)
C1 C -0.15500(9) 0.02337(8) 0.16904(14)
C2 C -0.19458(8) -0.07213(9) 0.21535(14)
H1 H -0.2322 -0.0609 0.2189
C3 C -0.10011(8) -0.06901(8) 0.19894(12)
C4 C 0.02584(9) 0.04423(9) 0.09969(14)
H2 H 0.0222 0.0108 0.0692
C5 C 0.01855(8) 0.04340(8) 0.18669(14)
C6 C -0.17474(8) -0.12439(9) 0.22948(13)
H3 H -0.1962 -0.1559 0.2438
C7 C -0.07915(9) -0.17455(8) 0.22224(14)
C8 C 0.10145(9) -0.07365(10) 0.29216(15)
H4 H 0.0927 -0.0587 0.3449
C9 C -0.03777(9) -0.16870(9) 0.29535(15)
H5 H -0.0139 -0.1364 0.2861
H6 H -0.0149 -0.2022 0.2991
H7 H -0.0584 -0.1638 0.3470
C10 C 0.08013(9) -0.08574(9) 0.14599(15)
H8 H 0.0564 -0.0799 0.0999
C11 C 0.02473(8) 0.09352(9) 0.23123(15)
H9 H 0.0199 0.0938 0.2895
C12 C -0.13464(10) 0.06056(9) 0.24130(15)
H10 H -0.1561 0.0521 0.2912
H11 H -0.1398 0.0997 0.2266
H12 H -0.0952 0.0534 0.2516
C13 C -0.04962(11) -0.17999(9) 0.13748(16)
H13 H -0.0774 -0.1822 0.0934
H14 H -0.0269 -0.2137 0.1371
H15 H -0.0259 -0.1476 0.1284
C14 C -0.12199(9) 0.03422(9) 0.08763(15)
H16 H -0.0825 0.0270 0.0971
H17 H -0.1270 0.0729 0.0706
H18 H -0.1357 0.0095 0.0440
C15 C 0.03841(9) 0.09392(10) 0.05774(16)
H19 H 0.0427 0.0939 -0.0006
C16 C 0.16493(9) -0.12616(10) 0.20335(17)
H20 H 0.1979 -0.1471 0.1961
C17 C 0.03809(9) 0.14340(9) 0.18911(17)
H21 H 0.0427 0.1768 0.2195
C18 C 0.12989(10) -0.11566(10) 0.13596(17)
H22 H 0.1398 -0.1289 0.0827
C19 C 0.06529(8) -0.06423(8) 0.22472(14)
C20 C -0.21792(9) 0.03574(10) 0.15144(15)
H23 H -0.2317 0.0101 0.1092
H24 H -0.2220 0.0740 0.1318
H25 H -0.2393 0.0309 0.2024
C21 C 0.15072(9) -0.10529(11) 0.28198(18)
H26 H 0.1740 -0.1124 0.3281
C22 C 0.04459(9) 0.14379(10) 0.10298(17)
H27 H 0.0531 0.1774 0.0751
C23 C -0.11569(10) -0.22692(9) 0.23663(15)
H28 H -0.1348 -0.2237 0.2899
H29 H -0.0921 -0.2600 0.2369
H30 H -0.1431 -0.2300 0.1922
loop_
_geom_bond_atom_site_label_1
_geom_bond_atom_site_label_2
_geom_bond_site_symmetry_1
_geom_bond_site_symmetry_2
S1 P1 1_555 1_555
P1 N2 1_555 1_555
N1 C3 1_555 1_555
N2 C3 1_555 1_555
N3 C1 1_555 1_555
C1 C12 1_555 1_555
C2 N3 1_555 1_555
H1 C2 1_555 1_555
C3 N3 1_555 1_555
C4 H2 1_555 1_555
C5 P1 1_555 1_555
C6 N1 1_555 1_555
H3 C6 1_555 1_555
C7 N1 1_555 1_555
C8 H4 1_555 1_555
C9 C7 1_555 1_555
H5 C9 1_555 1_555
H6 C9 1_555 1_555
H7 C9 1_555 1_555
C10 H8 1_555 1_555
C11 C5 1_555 1_555
H9 C11 1_555 1_555
C12 H10 1_555 1_555
H11 C12 1_555 1_555
H12 C12 1_555 1_555
C13 C7 1_555 1_555
H13 C13 1_555 1_555
H14 C13 1_555 1_555
H15 C13 1_555 1_555
C14 C1 1_555 1_555
H16 C14 1_555 1_555
H17 C14 1_555 1_555
H18 C14 1_555 1_555
C15 C4 1_555 1_555
H19 C15 1_555 1_555
C16 H20 1_555 1_555
C17 C11 1_555 1_555
H21 C17 1_555 1_555
C18 C10 1_555 1_555
H22 C18 1_555 1_555
C19 P1 1_555 1_555
C20 C1 1_555 1_555
H23 C20 1_555 1_555
H24 C20 1_555 1_555
H25 C20 1_555 1_555
C21 C8 1_555 1_555
H26 C21 1_555 1_555
C22 C15 1_555 1_555
H27 C22 1_555 1_555
C23 C7 1_555 1_555
H28 C23 1_555 1_555
H29 C23 1_555 1_555
H30 C23 1_555 1_555
C2 C6 1_555 1_555
C4 C5 1_555 1_555
C8 C19 1_555 1_555
C10 C19 1_555 1_555
C16 C18 1_555 1_555
C16 C21 1_555 1_555
C17 C22 1_555 1_555

#END
