
#######################################################################
#
#                 Cambridge Crystallographic Data Centre
#                                CCDC 
#
#######################################################################
#
# If this CIF has been generated from an entry in the Cambridge 
# Structural Database, then it will include bibliographic, chemical, 
# crystal, experimental, refinement or atomic coordinate data resulting 
# from the CCDC's data processing and validation procedures.
#
#######################################################################

data_TOVFUH
_chemical_formula_moiety         'C23 H33 B1 N3 P1'
_chemical_name_systematic        
(N-(1,3-di-t-butyl-1H-imidazol-3-ium-2-yl)-P,P-diphenylphosphorimidoyl)(trihydrido)borate
_symmetry_cell_setting           tetragonal
_symmetry_space_group_name_H-M   'I 41/a'
_symmetry_Int_Tables_number      88
_space_group_name_Hall           '-I 4ad'
loop_
_symmetry_equiv_pos_site_id
_symmetry_equiv_pos_as_xyz
1 x,y,z
2 3/4-y,1/4+x,1/4+z
3 -x,1/2-y,z
4 1/4+y,1/4-x,1/4+z
5 1/2+x,1/2+y,1/2+z
6 1/4-y,3/4+x,3/4+z
7 1/2-x,-y,1/2+z
8 3/4+y,3/4-x,3/4+z
9 -x,-y,-z
10 1/4+y,3/4-x,3/4-z
11 x,1/2+y,-z
12 3/4-y,3/4+x,3/4-z
13 1/2-x,1/2-y,1/2-z
14 3/4+y,1/4-x,1/4-z
15 1/2+x,y,1/2-z
16 1/4-y,1/4+x,1/4-z
_cell_length_a                   23.8994(6)
_cell_length_b                   23.8994(6)
_cell_length_c                   16.2678(9)
_cell_angle_alpha                90
_cell_angle_beta                 90
_cell_angle_gamma                90
_cell_volume                     9291.86
_exptl_crystal_colour            colorless
_exptl_crystal_description       block
_cell_formula_units_Z            16
loop_
_atom_site_label
_atom_site_type_symbol
_atom_site_fract_x
_atom_site_fract_y
_atom_site_fract_z
B1 B 0.74003(11) 0.23117(11) -0.10159(14)
H1 H 0.7642 0.1992 -0.1058
H2 H 0.7568 0.2623 -0.1294
H3 H 0.7046 0.2228 -0.1265
P1 P 0.729031(17) 0.249611(17) 0.01207(3)
N1 N 0.69921(6) 0.20364(5) 0.07032(9)
N2 N 0.71140(6) 0.10313(6) 0.06199(9)
N3 N 0.62818(6) 0.13667(6) 0.03305(9)
C1 C 0.68188(6) 0.15232(7) 0.05405(10)
C2 C 0.62624(8) 0.07900(7) 0.02471(12)
H4 H 0.5951 0.0581 0.0097
C3 C 0.67665(8) 0.05887(8) 0.04192(13)
H5 H 0.6869 0.0213 0.0407
C4 C 0.57782(7) 0.17405(8) 0.02955(12)
C5 C 0.52567(9) 0.13829(10) 0.01435(15)
H6 H 0.5288 0.1200 -0.0380
H7 H 0.4931 0.1618 0.0146
H8 H 0.5224 0.1107 0.0569
C6 C 0.57234(9) 0.20261(12) 0.11265(15)
H9 H 0.5675 0.1748 0.1547
H10 H 0.5405 0.2271 0.1121
H11 H 0.6056 0.2239 0.1237
C7 C 0.58360(8) 0.21516(9) -0.04089(15)
H12 H 0.6142 0.2401 -0.0301
H13 H 0.5497 0.2364 -0.0462
H14 H 0.5905 0.1951 -0.0910
C8 C 0.77046(7) 0.09631(8) 0.09192(12)
C9 C 0.77806(9) 0.12805(9) 0.17244(13)
H15 H 0.7704 0.1670 0.1637
H16 H 0.8158 0.1236 0.1914
H17 H 0.7527 0.1135 0.2129
C10 C 0.81025(8) 0.11647(9) 0.02543(14)
H18 H 0.8022 0.0974 -0.0251
H19 H 0.8481 0.1087 0.0416
H20 H 0.8056 0.1560 0.0177
C11 C 0.78143(10) 0.03398(9) 0.10820(16)
H21 H 0.7542 0.0200 0.1464
H22 H 0.8182 0.0294 0.1308
H23 H 0.7787 0.0136 0.0575
C12 C 0.68980(7) 0.31485(7) 0.02353(11)
C13 C 0.66755(9) 0.33141(9) 0.09823(14)
H24 H 0.6725 0.3091 0.1445
C14 C 0.63793(11) 0.38104(10) 0.10451(18)
H25 H 0.6242 0.3923 0.1554
C15 C 0.62857(11) 0.41366(9) 0.0367(2)
H26 H 0.6073 0.4461 0.0410
C16 C 0.65057(12) 0.39821(9) -0.03701(18)
H27 H 0.6448 0.4205 -0.0831
C17 C 0.68149(10) 0.34937(8) -0.04377(14)
H28 H 0.6969 0.3396 -0.0943
C18 C 0.79435(7) 0.26870(7) 0.06350(12)
C19 C 0.79641(9) 0.27395(8) 0.14832(13)
H29 H 0.7639 0.2687 0.1789
C20 C 0.84563(10) 0.28689(9) 0.18835(17)
H30 H 0.8463 0.2898 0.2453
C21 C 0.89357(10) 0.29540(10) 0.1440(2)
H31 H 0.9267 0.3043 0.1709
C22 C 0.89278(9) 0.29083(10) 0.0601(2)
H32 H 0.9254 0.2968 0.0302
C23 C 0.84320(8) 0.27727(8) 0.01884(15)
H33 H 0.8429 0.2740 -0.0381
loop_
_geom_bond_atom_site_label_1
_geom_bond_atom_site_label_2
_geom_bond_site_symmetry_1
_geom_bond_site_symmetry_2
B1 H1 1_555 1_555
H2 B1 1_555 1_555
H3 B1 1_555 1_555
P1 B1 1_555 1_555
N1 P1 1_555 1_555
N2 C1 1_555 1_555
N3 C1 1_555 1_555
C1 N1 1_555 1_555
C2 N3 1_555 1_555
H4 C2 1_555 1_555
C3 N2 1_555 1_555
H5 C3 1_555 1_555
C4 N3 1_555 1_555
C5 C4 1_555 1_555
H6 C5 1_555 1_555
H7 C5 1_555 1_555
H8 C5 1_555 1_555
C6 C4 1_555 1_555
H9 C6 1_555 1_555
H10 C6 1_555 1_555
H11 C6 1_555 1_555
C7 C4 1_555 1_555
H12 C7 1_555 1_555
H13 C7 1_555 1_555
H14 C7 1_555 1_555
C8 N2 1_555 1_555
C9 C8 1_555 1_555
H15 C9 1_555 1_555
H16 C9 1_555 1_555
H17 C9 1_555 1_555
C10 C8 1_555 1_555
H18 C10 1_555 1_555
H19 C10 1_555 1_555
H20 C10 1_555 1_555
C11 C8 1_555 1_555
H21 C11 1_555 1_555
H22 C11 1_555 1_555
H23 C11 1_555 1_555
C12 P1 1_555 1_555
C13 C12 1_555 1_555
H24 C13 1_555 1_555
C14 C13 1_555 1_555
H25 C14 1_555 1_555
C15 C14 1_555 1_555
H26 C15 1_555 1_555
C16 C15 1_555 1_555
H27 C16 1_555 1_555
C17 C12 1_555 1_555
H28 C17 1_555 1_555
C18 P1 1_555 1_555
C19 C18 1_555 1_555
H29 C19 1_555 1_555
C20 C19 1_555 1_555
H30 C20 1_555 1_555
C21 C20 1_555 1_555
H31 C21 1_555 1_555
C22 C21 1_555 1_555
H32 C22 1_555 1_555
C23 C18 1_555 1_555
H33 C23 1_555 1_555
C2 C3 1_555 1_555
C16 C17 1_555 1_555
C22 C23 1_555 1_555

#END
