
#######################################################################
#
#                 Cambridge Crystallographic Data Centre
#                                CCDC 
#
#######################################################################
#
# If this CIF has been generated from an entry in the Cambridge 
# Structural Database, then it will include bibliographic, chemical, 
# crystal, experimental, refinement or atomic coordinate data resulting 
# from the CCDC's data processing and validation procedures.
#
#######################################################################

data_TOVJOD02
_chemical_formula_moiety         'C11 H15 N1 O4'
_chemical_name_systematic        
N-(1,1-bis(Hydroxymethyl)-2-hydroxyethyl)salicylaldimine
_symmetry_cell_setting           monoclinic
_symmetry_space_group_name_H-M   'P 21/c'
_symmetry_Int_Tables_number      14
_space_group_name_Hall           '-P 2ybc'
loop_
_symmetry_equiv_pos_site_id
_symmetry_equiv_pos_as_xyz
1 x,y,z
2 -x,1/2+y,1/2-z
3 -x,-y,-z
4 x,1/2-y,1/2+z
_cell_length_a                   10.498(2)
_cell_length_b                   8.7180(10)
_cell_length_c                   12.642(2)
_cell_angle_alpha                90
_cell_angle_beta                 101.64(2)
_cell_angle_gamma                90
_cell_volume                     1133.22
_exptl_crystal_colour            yellow
_chemical_melting_point          149-150deg.C
_cell_formula_units_Z            4
loop_
_atom_site_label
_atom_site_type_symbol
_atom_site_fract_x
_atom_site_fract_y
_atom_site_fract_z
O1 O 0.22307(13) 0.02646(15) 0.84693(10)
O2 O -0.03265(15) 0.21812(16) 0.93009(10)
H1 H -0.0522 0.3062 0.9105
O3 O 0.26699(15) 0.18333(17) 1.28002(11)
H2 H 0.2742 0.2671 1.3101
O4 O 0.10839(14) 0.49333(16) 1.14048(10)
H3 H 0.1382 0.4957 1.2056
N1 N 0.20021(15) 0.12249(17) 1.03872(12)
C1 C 0.30618(19) -0.0748(2) 0.89525(14)
C2 C 0.3592(2) -0.1875(3) 0.83726(16)
H4 H 0.3341 -0.1907 0.7624
C3 C 0.4469(2) -0.2925(3) 0.88870(17)
H5 H 0.4795 -0.3660 0.8479
C4 C 0.4887(2) -0.2928(2) 1.00030(17)
H6 H 0.5503 -0.3633 1.0338
C5 C 0.43728(18) -0.1874(2) 1.05929(15)
H7 H 0.4638 -0.1871 1.1341
C6 C 0.34486(18) -0.0789(2) 1.00972(14)
C7 C 0.28901(18) 0.0216(2) 1.07603(14)
H8 H 0.3176 0.0149 1.1505
C8 C 0.12761(18) 0.2216(2) 1.09986(14)
C9 C -0.01540(19) 0.2089(2) 1.04357(15)
H9 H -0.0500 0.1120 1.0629
H10 H -0.0643 0.2906 1.0690
C10 C 0.1399(2) 0.1685(2) 1.21624(14)
H11 H 0.0802 0.2276 1.2495
H12 H 0.1138 0.0618 1.2161
C11 C 0.1784(2) 0.3850(2) 1.09091(15)
H13 H 0.2698 0.3893 1.1251
H14 H 0.1708 0.4112 1.0153
H15 H 0.176(2) 0.119(2) 0.9573(17)
loop_
_geom_bond_atom_site_label_1
_geom_bond_atom_site_label_2
_geom_bond_site_symmetry_1
_geom_bond_site_symmetry_2
O1 C1 1_555 1_555
O2 H1 1_555 1_555
O3 H2 1_555 1_555
O4 H3 1_555 1_555
N1 C7 1_555 1_555
C1 C2 1_555 1_555
C2 H4 1_555 1_555
C3 C2 1_555 1_555
H5 C3 1_555 1_555
C4 C3 1_555 1_555
H6 C4 1_555 1_555
C5 C4 1_555 1_555
H7 C5 1_555 1_555
C6 C1 1_555 1_555
C7 C6 1_555 1_555
H8 C7 1_555 1_555
C8 N1 1_555 1_555
C9 O2 1_555 1_555
H9 C9 1_555 1_555
H10 C9 1_555 1_555
C10 O3 1_555 1_555
H11 C10 1_555 1_555
H12 C10 1_555 1_555
C11 O4 1_555 1_555
H13 C11 1_555 1_555
H14 C11 1_555 1_555
H15 N1 1_555 1_555
C5 C6 1_555 1_555
C8 C9 1_555 1_555
C8 C10 1_555 1_555
C8 C11 1_555 1_555

#END
