
#######################################################################
#
#                 Cambridge Crystallographic Data Centre
#                                CCDC 
#
#######################################################################
#
# If this CIF has been generated from an entry in the Cambridge 
# Structural Database, then it will include bibliographic, chemical, 
# crystal, experimental, refinement or atomic coordinate data resulting 
# from the CCDC's data processing and validation procedures.
#
#######################################################################

data_TOVPOL
_chemical_formula_moiety         'C24 H22 N2 O2'
_chemical_name_systematic        
'(4-(2-hydroxyphenyl)-2,3,3a,4,5,9b-hexahydro-1H-pyrrolo[3,2-c]quinolin-1-yl)(phenyl)methanone unknown solvate'
_symmetry_cell_setting           monoclinic
_symmetry_space_group_name_H-M   'P 21/c'
_symmetry_Int_Tables_number      14
_space_group_name_Hall           '-P 2ybc'
loop_
_symmetry_equiv_pos_site_id
_symmetry_equiv_pos_as_xyz
1 x,y,z
2 -x,1/2+y,1/2-z
3 -x,-y,-z
4 x,1/2-y,1/2+z
_cell_length_a                   10.755(2)
_cell_length_b                   16.162(3)
_cell_length_c                   12.805(3)
_cell_angle_alpha                90
_cell_angle_beta                 113.360(3)
_cell_angle_gamma                90
_cell_volume                     2043.35
_exptl_crystal_colour            colorless
_exptl_crystal_description       block
_cell_formula_units_Z            4
loop_
_atom_site_label
_atom_site_type_symbol
_atom_site_fract_x
_atom_site_fract_y
_atom_site_fract_z
O1 O 1.04969(16) -0.31750(10) 0.28819(13)
O2 O 0.81061(15) 0.04297(9) 0.16938(14)
H1 H 0.8497 0.0891 0.1840
N1 N 0.87120(16) -0.26167(10) 0.31312(13)
N2 N 0.54636(17) -0.15782(10) 0.05921(14)
H2 H 0.4619 -0.1404 0.0318
C1 C 1.04431(19) -0.33214(11) 0.47151(17)
C2 C 1.1716(2) -0.30577(13) 0.54434(18)
H3 H 1.2210 -0.2682 0.5182
C3 C 1.2274(2) -0.33430(14) 0.6560(2)
H4 H 1.3142 -0.3155 0.7064
C4 C 1.1568(2) -0.38988(15) 0.69381(19)
H5 H 1.1950 -0.4092 0.7701
C5 C 1.0305(2) -0.41740(14) 0.6206(2)
H6 H 0.9827 -0.4564 0.6462
C6 C 0.9737(2) -0.38812(12) 0.50996(18)
H7 H 0.8862 -0.4063 0.4602
C7 C 0.9881(2) -0.30303(12) 0.35064(17)
C8 C 0.8023(2) -0.23113(13) 0.38551(17)
H8 H 0.8683 -0.2076 0.4575
H9 H 0.7514 -0.2762 0.4034
C9 C 0.7060(2) -0.16420(12) 0.31243(16)
H10 H 0.6124 -0.1858 0.2760
H11 H 0.7061 -0.1154 0.3592
C10 C 0.76070(18) -0.14138(11) 0.22303(15)
H12 H 0.8392 -0.1029 0.2582
C11 C 0.65678(19) -0.10050(11) 0.11632(16)
H13 H 0.7017 -0.0862 0.0637
C12 C 0.5755(2) -0.24060(12) 0.04820(16)
C13 C 0.4741(2) -0.29079(13) -0.02936(17)
H14 H 0.3889 -0.2674 -0.0755
C14 C 0.4974(2) -0.37416(13) -0.03909(18)
H15 H 0.4284 -0.4072 -0.0926
C15 C 0.6203(2) -0.40984(12) 0.02859(18)
H16 H 0.6357 -0.4672 0.0225
C16 C 0.7202(2) -0.36076(12) 0.10501(17)
H17 H 0.8047 -0.3850 0.1512
C17 C 0.7002(2) -0.27656(11) 0.11619(15)
C18 C 0.81313(19) -0.22417(11) 0.19875(16)
H18 H 0.8854 -0.2149 0.1694
C19 C 0.60554(19) -0.02138(11) 0.15011(15)
C20 C 0.69069(19) 0.04792(12) 0.18234(16)
C21 C 0.6553(2) 0.11765(12) 0.22703(18)
H19 H 0.7148 0.1638 0.2495
C22 C 0.5317(2) 0.11988(13) 0.23895(19)
H20 H 0.5079 0.1670 0.2715
C23 C 0.4445(2) 0.05371(14) 0.20345(19)
H21 H 0.3588 0.0559 0.2084
C24 C 0.4823(2) -0.01656(13) 0.16022(18)
H22 H 0.4220 -0.0623 0.1371
loop_
_geom_bond_atom_site_label_1
_geom_bond_atom_site_label_2
_geom_bond_site_symmetry_1
_geom_bond_site_symmetry_2
O1 C7 1_555 1_555
O2 H1 1_555 1_555
N1 C7 1_555 1_555
N2 H2 1_555 1_555
C1 C2 1_555 1_555
C2 H3 1_555 1_555
C3 C2 1_555 1_555
H4 C3 1_555 1_555
C4 C3 1_555 1_555
H5 C4 1_555 1_555
C5 C4 1_555 1_555
H6 C5 1_555 1_555
C6 C1 1_555 1_555
H7 C6 1_555 1_555
C7 C1 1_555 1_555
C8 N1 1_555 1_555
H8 C8 1_555 1_555
H9 C8 1_555 1_555
C9 C8 1_555 1_555
H10 C9 1_555 1_555
H11 C9 1_555 1_555
C10 C9 1_555 1_555
H12 C10 1_555 1_555
C11 N2 1_555 1_555
H13 C11 1_555 1_555
C12 N2 1_555 1_555
C13 C12 1_555 1_555
H14 C13 1_555 1_555
C14 C13 1_555 1_555
H15 C14 1_555 1_555
C15 C14 1_555 1_555
H16 C15 1_555 1_555
C16 C15 1_555 1_555
H17 C16 1_555 1_555
C17 C12 1_555 1_555
C18 N1 1_555 1_555
H18 C18 1_555 1_555
C19 C11 1_555 1_555
C20 O2 1_555 1_555
C21 C20 1_555 1_555
H19 C21 1_555 1_555
C22 C21 1_555 1_555
H20 C22 1_555 1_555
C23 C22 1_555 1_555
H21 C23 1_555 1_555
C24 C19 1_555 1_555
H22 C24 1_555 1_555
C5 C6 1_555 1_555
C10 C11 1_555 1_555
C10 C18 1_555 1_555
C16 C17 1_555 1_555
C17 C18 1_555 1_555
C19 C20 1_555 1_555
C23 C24 1_555 1_555

#END
