
#######################################################################
#
#                 Cambridge Crystallographic Data Centre
#                                CCDC 
#
#######################################################################
#
# If this CIF has been generated from an entry in the Cambridge 
# Structural Database, then it will include bibliographic, chemical, 
# crystal, experimental, refinement or atomic coordinate data resulting 
# from the CCDC's data processing and validation procedures.
#
#######################################################################

data_TOVYOU
_chemical_formula_moiety         'C38 H36 N6 O4'
_chemical_name_systematic        
4,4'-(ethane-1,2-diylbis(nitrilo(phenylmethylylidene)))bis(1-(4-methoxyphenyl)-3-methyl-1H-pyrazol-5-ol)
_symmetry_cell_setting           triclinic
_symmetry_space_group_name_H-M   'P -1'
_symmetry_Int_Tables_number      2
_space_group_name_Hall           '-P 1'
loop_
_symmetry_equiv_pos_site_id
_symmetry_equiv_pos_as_xyz
1 x,y,z
2 -x,-y,-z
_cell_length_a                   7.2783(18)
_cell_length_b                   10.477(3)
_cell_length_c                   12.320(3)
_cell_angle_alpha                114.60(2)
_cell_angle_beta                 101.25(2)
_cell_angle_gamma                93.40(2)
_cell_volume                     827.31
_exptl_crystal_colour            'light yellow'
_exptl_crystal_description       block
_cell_formula_units_Z            1
loop_
_atom_site_label
_atom_site_type_symbol
_atom_site_fract_x
_atom_site_fract_y
_atom_site_fract_z
C1 C 0.8950(7) -0.0634(5) 0.1386(4)
C2 C 0.9874(7) -0.0087(5) 0.2627(4)
H1 H 1.1133 -0.0188 0.2853
C3 C 0.8922(6) 0.0606(5) 0.3524(4)
H2 H 0.9538 0.0949 0.4350
C4 C 0.7063(6) 0.0792(4) 0.3200(4)
C5 C 0.6189(7) 0.0277(5) 0.1966(4)
H3 H 0.4945 0.0408 0.1736
C6 C 0.7119(7) -0.0427(5) 0.1067(4)
H4 H 0.6503 -0.0762 0.0242
C7 C 0.9038(9) -0.2050(6) -0.0711(4)
H5 H 0.8075 -0.2796 -0.0831
H6 H 0.9926 -0.2450 -0.1193
H7 H 0.8461 -0.1385 -0.0962
C8 C 0.4738(6) 0.2334(4) 0.4116(4)
C9 C 0.4382(6) 0.2883(5) 0.5331(4)
C10 C 0.5677(6) 0.2298(5) 0.5974(4)
C11 C 0.5962(7) 0.2508(6) 0.7277(4)
H8 H 0.6983 0.2036 0.7464
H9 H 0.4820 0.2117 0.7383
H10 H 0.6266 0.3505 0.7821
C12 C 0.3186(6) 0.3839(5) 0.5716(4)
C13 C 0.2781(7) 0.4355(5) 0.6966(4)
C14 C 0.3666(8) 0.5668(6) 0.7889(4)
H11 H 0.4460 0.6269 0.7736
C15 C 0.3342(9) 0.6066(6) 0.9047(5)
H12 H 0.3936 0.6947 0.9675
C16 C 0.2199(8) 0.5225(7) 0.9296(4)
H13 H 0.2030 0.5519 1.0088
C17 C 0.1275(8) 0.3927(6) 0.8377(4)
H14 H 0.0455 0.3347 0.8536
C18 C 0.1591(7) 0.3501(5) 0.7210(4)
H15 H 0.0985 0.2622 0.6584
C19 C 0.0983(7) 0.5396(5) 0.5193(4)
H16 H 0.1296 0.6036 0.6064
H17 H 0.1091 0.5950 0.4738
N1 N 0.6091(5) 0.1491(4) 0.4119(3)
N2 N 0.6706(6) 0.1507(4) 0.5284(3)
N3 N 0.2294(6) 0.4315(5) 0.4929(3)
O1 O 0.3999(5) 0.2566(3) 0.3219(3)
H18 H 0.3228 0.3109 0.3414
O2 O 1.0014(5) -0.1332(4) 0.0569(3)
C1A C -0.8950(7) 1.0634(5) 0.8614(4)
C2A C -0.9874(7) 1.0087(5) 0.7373(4)
H1A H -1.1133 1.0188 0.7147
C3A C -0.8922(6) 0.9394(5) 0.6476(4)
H2A H -0.9538 0.9051 0.5650
C4A C -0.7063(6) 0.9208(4) 0.6800(4)
C5A C -0.6189(7) 0.9723(5) 0.8034(4)
H3A H -0.4945 0.9592 0.8264
C6A C -0.7119(7) 1.0427(5) 0.8933(4)
H4A H -0.6503 1.0762 0.9758
C7A C -0.9038(9) 1.2050(6) 1.0711(4)
H5A H -0.8075 1.2796 1.0831
H6A H -0.9926 1.2450 1.1193
H7A H -0.8461 1.1385 1.0962
C8A C -0.4738(6) 0.7666(4) 0.5884(4)
C9A C -0.4382(6) 0.7117(5) 0.4669(4)
C10A C -0.5677(6) 0.7702(5) 0.4026(4)
C11A C -0.5962(7) 0.7492(6) 0.2723(4)
H8A H -0.6983 0.7964 0.2536
H9A H -0.4820 0.7883 0.2617
H10A H -0.6266 0.6495 0.2179
C12A C -0.3186(6) 0.6161(5) 0.4284(4)
C13A C -0.2781(7) 0.5645(5) 0.3034(4)
C14A C -0.3666(8) 0.4332(6) 0.2111(4)
H11A H -0.4460 0.3731 0.2264
C15A C -0.3342(9) 0.3934(6) 0.0953(5)
H12A H -0.3936 0.3053 0.0325
C16A C -0.2199(8) 0.4775(7) 0.0704(4)
H13A H -0.2030 0.4481 -0.0088
C17A C -0.1275(8) 0.6073(6) 0.1623(4)
H14A H -0.0455 0.6653 0.1464
C18A C -0.1591(7) 0.6499(5) 0.2790(4)
H15A H -0.0985 0.7378 0.3416
C19A C -0.0983(7) 0.4604(5) 0.4807(4)
H16A H -0.1296 0.3964 0.3936
H17A H -0.1091 0.4050 0.5262
N1A N -0.6091(5) 0.8509(4) 0.5881(3)
N2A N -0.6706(6) 0.8493(4) 0.4716(3)
N3A N -0.2294(6) 0.5685(5) 0.5071(3)
O1A O -0.3999(5) 0.7434(3) 0.6781(3)
H18A H -0.3228 0.6891 0.6586
O2A O -1.0014(5) 1.1332(4) 0.9431(3)
loop_
_geom_bond_atom_site_label_1
_geom_bond_atom_site_label_2
_geom_bond_site_symmetry_1
_geom_bond_site_symmetry_2
C1 C2 1_555 1_555
C2 H1 1_555 1_555
C3 C2 1_555 1_555
H2 C3 1_555 1_555
C4 C3 1_555 1_555
C5 C4 1_555 1_555
H3 C5 1_555 1_555
C6 C1 1_555 1_555
H4 C6 1_555 1_555
C7 H5 1_555 1_555
H6 C7 1_555 1_555
H7 C7 1_555 1_555
C8 C9 1_555 1_555
C9 C10 1_555 1_555
C10 C11 1_555 1_555
C11 H8 1_555 1_555
H9 C11 1_555 1_555
H10 C11 1_555 1_555
C12 C9 1_555 1_555
C13 C12 1_555 1_555
C14 C13 1_555 1_555
H11 C14 1_555 1_555
C15 C14 1_555 1_555
H12 C15 1_555 1_555
C16 C15 1_555 1_555
H13 C16 1_555 1_555
C17 C16 1_555 1_555
H14 C17 1_555 1_555
C18 C13 1_555 1_555
H15 C18 1_555 1_555
C19 H16 1_555 1_555
H17 C19 1_555 1_555
N1 C4 1_555 1_555
N2 C10 1_555 1_555
N3 C12 1_555 1_555
O1 C8 1_555 1_555
H18 O1 1_555 1_555
O2 C1 1_555 1_555
C1A C2A 1_555 1_555
C2A H1A 1_555 1_555
C3A C2A 1_555 1_555
H2A C3A 1_555 1_555
C4A C3A 1_555 1_555
C5A C4A 1_555 1_555
H3A C5A 1_555 1_555
C6A C1A 1_555 1_555
H4A C6A 1_555 1_555
C7A H5A 1_555 1_555
H6A C7A 1_555 1_555
H7A C7A 1_555 1_555
C8A C9A 1_555 1_555
C9A C10A 1_555 1_555
C10A C11A 1_555 1_555
C11A H8A 1_555 1_555
H9A C11A 1_555 1_555
H10A C11A 1_555 1_555
C12A C9A 1_555 1_555
C13A C12A 1_555 1_555
C14A C13A 1_555 1_555
H11A C14A 1_555 1_555
C15A C14A 1_555 1_555
H12A C15A 1_555 1_555
C16A C15A 1_555 1_555
H13A C16A 1_555 1_555
C17A C16A 1_555 1_555
H14A C17A 1_555 1_555
C18A C13A 1_555 1_555
H15A C18A 1_555 1_555
C19A C19 1_555 1_555
H16A C19A 1_555 1_555
H17A C19A 1_555 1_555
N1A C4A 1_555 1_555
N2A C10A 1_555 1_555
N3A C12A 1_555 1_555
O1A C8A 1_555 1_555
H18A O1A 1_555 1_555
O2A C1A 1_555 1_555
C5 C6 1_555 1_555
C7 O2 1_555 1_555
C8 N1 1_555 1_555
C17 C18 1_555 1_555
C19 N3 1_555 1_555
N1 N2 1_555 1_555
C5A C6A 1_555 1_555
C7A O2A 1_555 1_555
C8A N1A 1_555 1_555
C17A C18A 1_555 1_555
C19A N3A 1_555 1_555
N1A N2A 1_555 1_555

#END
