
#######################################################################
#
#                 Cambridge Crystallographic Data Centre
#                                CCDC 
#
#######################################################################
#
# If this CIF has been generated from an entry in the Cambridge 
# Structural Database, then it will include bibliographic, chemical, 
# crystal, experimental, refinement or atomic coordinate data resulting 
# from the CCDC's data processing and validation procedures.
#
#######################################################################

data_TOWPIG
_chemical_formula_moiety         'C26 H24 N2 O2'
_chemical_name_systematic        
'Ethyl (2-benzyl-3-(benzylimino)-2,3-dihydro-1H-isoindol-1-ylidene)acetate'
_symmetry_cell_setting           triclinic
_symmetry_space_group_name_H-M   'P -1'
_symmetry_Int_Tables_number      2
_space_group_name_Hall           '-P 1'
loop_
_symmetry_equiv_pos_site_id
_symmetry_equiv_pos_as_xyz
1 x,y,z
2 -x,-y,-z
_cell_length_a                   10.37340(10)
_cell_length_b                   10.52960(10)
_cell_length_c                   10.9859(7)
_cell_angle_alpha                103.882(7)
_cell_angle_beta                 101.821(7)
_cell_angle_gamma                110.731(8)
_cell_volume                     1032.51
_exptl_crystal_colour            colorless
_exptl_crystal_description       prism
_cell_formula_units_Z            2
loop_
_atom_site_label
_atom_site_type_symbol
_atom_site_fract_x
_atom_site_fract_y
_atom_site_fract_z
O1 O 0.18589(11) 0.67888(11) 0.06048(9)
O2 O 0.21652(11) 0.89325(11) 0.19318(10)
N1 N 0.46196(12) 0.75400(12) 0.71785(11)
N2 N 0.35931(12) 0.71881(12) 0.49883(11)
C1 C 0.21213(15) 0.32530(15) 0.32466(14)
H1 H 0.2705 0.3279 0.2682
C2 C 0.52748(15) 0.84001(15) 0.85849(13)
H2 H 0.4505 0.8363 0.8998
H3 H 0.5860 0.9421 0.8701
C3 C 0.22025(14) 0.77686(15) 0.18132(13)
C4 C 0.31104(14) 0.78524(14) 0.41693(13)
C5 C 0.32678(14) 0.92352(15) 0.50745(14)
C6 C 0.38438(14) 0.93210(14) 0.63811(13)
C7 C 0.62324(15) 0.77935(15) 0.92335(13)
C8 C 0.40969(14) 0.80197(14) 0.63380(13)
C9 C 0.80386(17) 0.66417(17) 1.03235(15)
H4 H 0.8656 0.6250 1.0688
C10 C 0.40282(14) 1.04671(15) 0.74506(14)
H5 H 0.4401 1.0511 0.8333
C11 C 0.57039(15) 0.63191(16) 0.90321(14)
H6 H 0.4718 0.5701 0.8522
C12 C 0.76756(15) 0.86813(15) 0.99971(14)
H7 H 0.8053 0.9689 1.0146
C13 C 0.24467(14) 0.44987(14) 0.42742(13)
C14 C 0.37784(14) 0.58627(14) 0.45452(13)
H8 H 0.4595 0.5905 0.5229
H9 H 0.4049 0.5814 0.3727
C15 C 0.15677(15) 0.44384(15) 0.50808(14)
H10 H 0.1770 0.5284 0.5782
C16 C 0.26122(15) 0.71990(15) 0.28302(14)
H11 H 0.2521 0.6238 0.2521
C17 C 0.31074(15) 1.14714(15) 0.59060(15)
H12 H 0.2870 1.2224 0.5753
C18 C 0.03993(16) 0.31557(16) 0.48704(15)
H13 H -0.0193 0.3128 0.5428
C19 C 0.00920(16) 0.19159(16) 0.38522(15)
H14 H -0.0702 0.1035 0.3713
C20 C 0.14599(16) 0.72151(16) -0.05206(14)
H15 H 0.2271 0.8101 -0.0468
H16 H 0.0597 0.7419 -0.0531
C21 C 0.28994(14) 1.03201(15) 0.48305(14)
H17 H 0.2515 1.0275 0.3951
C22 C 0.85687(16) 0.81074(16) 1.05432(15)
H18 H 0.9549 0.8725 1.1071
C23 C 0.66014(16) 0.57444(16) 0.95684(15)
H19 H 0.6231 0.4737 0.9418
C24 C 0.11257(17) 0.60038(17) -0.17491(15)
H20 H 0.0860 0.6274 -0.2526
H21 H 0.0314 0.5136 -0.1798
H22 H 0.1984 0.5808 -0.1729
C25 C 0.09526(16) 0.19717(16) 0.30378(15)
H23 H 0.0741 0.1127 0.2331
C26 C 0.36552(15) 1.15450(15) 0.71993(15)
H24 H 0.3776 1.2337 0.7916
loop_
_geom_bond_atom_site_label_1
_geom_bond_atom_site_label_2
_geom_bond_site_symmetry_1
_geom_bond_site_symmetry_2
O1 C3 1_555 1_555
O2 C3 1_555 1_555
N1 C2 1_555 1_555
N2 C4 1_555 1_555
C1 H1 1_555 1_555
C2 H2 1_555 1_555
H3 C2 1_555 1_555
C3 C16 1_555 1_555
C4 C5 1_555 1_555
C5 C6 1_555 1_555
C6 C8 1_555 1_555
C7 C2 1_555 1_555
C8 N1 1_555 1_555
C9 H4 1_555 1_555
C10 C6 1_555 1_555
H5 C10 1_555 1_555
C11 C7 1_555 1_555
H6 C11 1_555 1_555
C12 C7 1_555 1_555
H7 C12 1_555 1_555
C13 C1 1_555 1_555
C14 N2 1_555 1_555
H8 C14 1_555 1_555
H9 C14 1_555 1_555
C15 C13 1_555 1_555
H10 C15 1_555 1_555
C16 C4 1_555 1_555
H11 C16 1_555 1_555
C17 H12 1_555 1_555
C18 C15 1_555 1_555
H13 C18 1_555 1_555
C19 C18 1_555 1_555
H14 C19 1_555 1_555
C20 O1 1_555 1_555
H15 C20 1_555 1_555
H16 C20 1_555 1_555
C21 C5 1_555 1_555
H17 C21 1_555 1_555
C22 C9 1_555 1_555
H18 C22 1_555 1_555
C23 C9 1_555 1_555
H19 C23 1_555 1_555
C24 C20 1_555 1_555
H20 C24 1_555 1_555
H21 C24 1_555 1_555
H22 C24 1_555 1_555
C25 C1 1_555 1_555
H23 C25 1_555 1_555
C26 C10 1_555 1_555
H24 C26 1_555 1_555
N2 C8 1_555 1_555
C11 C23 1_555 1_555
C12 C22 1_555 1_555
C13 C14 1_555 1_555
C17 C21 1_555 1_555
C17 C26 1_555 1_555
C19 C25 1_555 1_555

#END
