
#######################################################################
#
#                 Cambridge Crystallographic Data Centre
#                                CCDC 
#
#######################################################################
#
# If this CIF has been generated from an entry in the Cambridge 
# Structural Database, then it will include bibliographic, chemical, 
# crystal, experimental, refinement or atomic coordinate data resulting 
# from the CCDC's data processing and validation procedures.
#
#######################################################################

data_TOXDTH04
_chemical_formula_moiety         'C2 H4 O4 S2'
_chemical_name_systematic        '1,3-Dithietane 1,1,3,3-tetraoxide'
_symmetry_cell_setting           monoclinic
_symmetry_space_group_name_H-M   'P 21/n'
_symmetry_Int_Tables_number      14
_space_group_name_Hall           '-P 2yn'
loop_
_symmetry_equiv_pos_site_id
_symmetry_equiv_pos_as_xyz
1 x,y,z
2 1/2-x,1/2+y,1/2-z
3 -x,-y,-z
4 1/2+x,1/2-y,1/2+z
_cell_length_a                   5.527(2)
_cell_length_b                   5.709(2)
_cell_length_c                   8.042(3)
_cell_angle_alpha                90
_cell_angle_beta                 100.89(3)
_cell_angle_gamma                90
_cell_volume                     249.185
_exptl_crystal_colour            colorless
_cell_formula_units_Z            2
loop_
_atom_site_label
_atom_site_type_symbol
_atom_site_fract_x
_atom_site_fract_y
_atom_site_fract_z
S1 S 0.20987(2) 0.09540(2) 0.06378(1)
C1 C 0.10966(7) -0.15680(7) -0.06752(5)
O1 O 0.31724(7) 0.26869(7) -0.02954(5)
O2 O 0.34146(7) 0.02598(7) 0.22791(4)
H1 H 0.16600(8) -0.29600(8) -0.01200(5)
H2 H 0.14700(7) -0.13700(7) -0.17400(5)
C1B C -0.10966(7) 0.15680(7) 0.06752(5)
S1B S -0.20987(2) -0.09540(2) -0.06378(1)
H1B H -0.16600(8) 0.29600(8) 0.01200(5)
H2B H -0.14700(7) 0.13700(7) 0.17400(5)
O1B O -0.31724(7) -0.26869(7) 0.02954(5)
O2B O -0.34146(7) -0.02598(7) -0.22791(4)
loop_
_geom_bond_atom_site_label_1
_geom_bond_atom_site_label_2
_geom_bond_site_symmetry_1
_geom_bond_site_symmetry_2
S1 C1 1_555 1_555
C1 H1 1_555 1_555
O1 S1 1_555 1_555
O2 S1 1_555 1_555
H2 C1 1_555 1_555
C1B S1 1_555 1_555
S1B C1 1_555 1_555
H1B C1B 1_555 1_555
H2B C1B 1_555 1_555
O1B S1B 1_555 1_555
O2B S1B 1_555 1_555
C1B S1B 1_555 1_555

#END
