
#######################################################################
#
#                 Cambridge Crystallographic Data Centre
#                                CCDC 
#
#######################################################################
#
# If this CIF has been generated from an entry in the Cambridge 
# Structural Database, then it will include bibliographic, chemical, 
# crystal, experimental, refinement or atomic coordinate data resulting 
# from the CCDC's data processing and validation procedures.
#
#######################################################################

data_TOXDTH03
_chemical_formula_moiety         'C2 H4 O4 S2'
_chemical_name_systematic        '1,3-Dithietane 1,1,3,3-tetraoxide'
_symmetry_cell_setting           monoclinic
_symmetry_space_group_name_H-M   'P 21/n'
_symmetry_Int_Tables_number      14
_space_group_name_Hall           '-P 2yn'
loop_
_symmetry_equiv_pos_site_id
_symmetry_equiv_pos_as_xyz
1 x,y,z
2 1/2-x,1/2+y,1/2-z
3 -x,-y,-z
4 1/2+x,1/2-y,1/2+z
_cell_length_a                   5.587(2)
_cell_length_b                   5.757(3)
_cell_length_c                   8.125(2)
_cell_angle_alpha                90
_cell_angle_beta                 100.89(2)
_cell_angle_gamma                90
_cell_volume                     256.629
_exptl_crystal_colour            colorless
_cell_formula_units_Z            2
loop_
_atom_site_label
_atom_site_type_symbol
_atom_site_fract_x
_atom_site_fract_y
_atom_site_fract_z
S1 S 0.20760(2) 0.09600(2) 0.06150(1)
C1 C 0.10800(6) -0.15280(6) -0.06820(4)
O1 O 0.30930(4) 0.26910(4) -0.03050(3)
O2 O 0.33950(4) 0.02620(4) 0.22220(3)
H1 H 0.17400(5) -0.28700(6) -0.01300(3)
H2 H 0.14200(5) -0.13200(4) -0.17800(4)
C1B C -0.10800(6) 0.15280(6) 0.06820(4)
S1B S -0.20760(2) -0.09600(2) -0.06150(1)
H1B H -0.17400(5) 0.28700(6) 0.01300(3)
H2B H -0.14200(5) 0.13200(4) 0.17800(4)
O1B O -0.30930(4) -0.26910(4) 0.03050(3)
O2B O -0.33950(4) -0.02620(4) -0.22220(3)
loop_
_geom_bond_atom_site_label_1
_geom_bond_atom_site_label_2
_geom_bond_site_symmetry_1
_geom_bond_site_symmetry_2
S1 C1 1_555 1_555
C1 H1 1_555 1_555
O1 S1 1_555 1_555
O2 S1 1_555 1_555
H2 C1 1_555 1_555
C1B S1 1_555 1_555
S1B C1 1_555 1_555
H1B C1B 1_555 1_555
H2B C1B 1_555 1_555
O1B S1B 1_555 1_555
O2B S1B 1_555 1_555
C1B S1B 1_555 1_555

#END
