
#######################################################################
#
#                 Cambridge Crystallographic Data Centre
#                                CCDC 
#
#######################################################################
#
# If this CIF has been generated from an entry in the Cambridge 
# Structural Database, then it will include bibliographic, chemical, 
# crystal, experimental, refinement or atomic coordinate data resulting 
# from the CCDC's data processing and validation procedures.
#
#######################################################################

data_TOXFOD
_chemical_formula_moiety         'C29 H25 N1 O3'
_chemical_name_systematic        
'ethyl 6-benzoyl-6-cyano-4,5-diphenylcyclohex-1-ene-1-carboxylate'
_symmetry_cell_setting           triclinic
_symmetry_space_group_name_H-M   'P -1'
_symmetry_Int_Tables_number      2
_space_group_name_Hall           '-P 1'
loop_
_symmetry_equiv_pos_site_id
_symmetry_equiv_pos_as_xyz
1 x,y,z
2 -x,-y,-z
_cell_length_a                   8.530(3)
_cell_length_b                   11.712(3)
_cell_length_c                   13.481(5)
_cell_angle_alpha                107.18(3)
_cell_angle_beta                 105.414(17)
_cell_angle_gamma                104.69(2)
_cell_volume                     1156.98
_exptl_crystal_colour            colorless
_exptl_crystal_description       Prism
_cell_formula_units_Z            2
loop_
_atom_site_label
_atom_site_type_symbol
_atom_site_fract_x
_atom_site_fract_y
_atom_site_fract_z
O1 O 0.66980(17) 0.62398(13) 0.99163(12)
O2 O 0.58670(18) 0.86591(13) 1.00381(12)
O3 O 0.39644(17) 0.83490(12) 1.09056(12)
N1 N 0.3588(2) 0.70367(16) 0.68933(15)
C1 C 0.4322(2) 0.61017(18) 0.84326(17)
C2 C 0.3429(2) 0.45968(18) 0.78967(16)
H1 H 0.3726 0.4288 0.8514
C3 C 0.1404(2) 0.42099(18) 0.74327(16)
H2 H 0.1109 0.4655 0.6920
C4 C 0.0810(2) 0.46964(19) 0.84027(17)
H3 H -0.0374 0.4708 0.8097
H4 H 0.0735 0.4087 0.8780
C5 C 0.1986(2) 0.60026(19) 0.92480(17)
H5 H 0.1591 0.6406 0.9803
C6 C 0.3552(2) 0.66498(19) 0.92852(17)
C7 C 0.4592(3) 0.7974(2) 1.01038(18)
C8 C 0.4854(3) 0.96720(19) 1.17108(18)
H6 H 0.4993 1.0263 1.1319
H7 H 0.6024 0.9788 1.2202
C9 C 0.3744(3) 0.9944(2) 1.23895(18)
H8 H 0.2586 0.9815 1.1892
H9 H 0.4294 1.0832 1.2936
H10 H 0.3630 0.9361 1.2781
C10 C 0.3983(2) 0.66438(19) 0.75753(18)
C11 C 0.6319(2) 0.64546(18) 0.90683(17)
C12 C 0.7709(2) 0.70314(19) 0.86908(18)
C13 C 0.9149(3) 0.80857(19) 0.95010(19)
H11 H 0.9193 0.8424 1.0245
C14 C 1.0525(3) 0.8642(2) 0.9218(2)
H12 H 1.1489 0.9376 0.9763
C15 C 1.0483(3) 0.8128(2) 0.8148(2)
H13 H 1.1431 0.8503 0.7961
C16 C 0.9075(3) 0.7072(2) 0.7340(2)
H14 H 0.9066 0.6712 0.6607
C17 C 0.7664(3) 0.6539(2) 0.76103(18)
H15 H 0.6672 0.5837 0.7051
C18 C 0.4118(2) 0.39678(18) 0.70371(17)
C19 C 0.3623(2) 0.39491(18) 0.59680(16)
H16 H 0.2779 0.4309 0.5741
C20 C 0.4335(3) 0.34162(19) 0.52216(18)
H17 H 0.3981 0.3415 0.4491
C21 C 0.5569(2) 0.28832(19) 0.55417(18)
H18 H 0.6079 0.2532 0.5038
C22 C 0.6045(3) 0.28702(19) 0.65999(18)
H19 H 0.6866 0.2488 0.6816
C23 C 0.5336(2) 0.34108(18) 0.73518(17)
H20 H 0.5679 0.3402 0.8079
C24 C 0.0460(2) 0.2791(2) 0.67732(18)
C25 C -0.0660(2) 0.2321(2) 0.56688(18)
H21 H -0.0775 0.2897 0.5309
C26 C -0.1613(3) 0.1020(2) 0.5082(2)
H22 H -0.2393 0.0720 0.4332
C27 C -0.1442(3) 0.0161(2) 0.5573(2)
H23 H -0.2093 -0.0729 0.5168
C28 C -0.0300(3) 0.0617(2) 0.6675(2)
H24 H -0.0165 0.0032 0.7021
C29 C 0.0640(3) 0.1912(2) 0.72684(19)
H25 H 0.1415 0.2209 0.8019
loop_
_geom_bond_atom_site_label_1
_geom_bond_atom_site_label_2
_geom_bond_site_symmetry_1
_geom_bond_site_symmetry_2
O1 C11 1_555 1_555
O2 C7 1_555 1_555
O3 C7 1_555 1_555
N1 C10 1_555 1_555
C1 C2 1_555 1_555
C2 H1 1_555 1_555
C3 C2 1_555 1_555
H2 C3 1_555 1_555
C4 C3 1_555 1_555
H3 C4 1_555 1_555
H4 C4 1_555 1_555
C5 C4 1_555 1_555
H5 C5 1_555 1_555
C6 C1 1_555 1_555
C7 C6 1_555 1_555
C8 O3 1_555 1_555
H6 C8 1_555 1_555
H7 C8 1_555 1_555
C9 C8 1_555 1_555
H8 C9 1_555 1_555
H9 C9 1_555 1_555
H10 C9 1_555 1_555
C10 C1 1_555 1_555
C11 C1 1_555 1_555
C12 C11 1_555 1_555
C13 C12 1_555 1_555
H11 C13 1_555 1_555
C14 C13 1_555 1_555
H12 C14 1_555 1_555
C15 C14 1_555 1_555
H13 C15 1_555 1_555
C16 C15 1_555 1_555
H14 C16 1_555 1_555
C17 C12 1_555 1_555
H15 C17 1_555 1_555
C18 C2 1_555 1_555
C19 C18 1_555 1_555
H16 C19 1_555 1_555
C20 C19 1_555 1_555
H17 C20 1_555 1_555
C21 C20 1_555 1_555
H18 C21 1_555 1_555
C22 C21 1_555 1_555
H19 C22 1_555 1_555
C23 C18 1_555 1_555
H20 C23 1_555 1_555
C24 C3 1_555 1_555
C25 C24 1_555 1_555
H21 C25 1_555 1_555
C26 C25 1_555 1_555
H22 C26 1_555 1_555
C27 C26 1_555 1_555
H23 C27 1_555 1_555
C28 C27 1_555 1_555
H24 C28 1_555 1_555
C29 C24 1_555 1_555
H25 C29 1_555 1_555
C5 C6 1_555 1_555
C16 C17 1_555 1_555
C22 C23 1_555 1_555
C28 C29 1_555 1_555

#END
