
#######################################################################
#
#                 Cambridge Crystallographic Data Centre
#                                CCDC 
#
#######################################################################
#
# If this CIF has been generated from an entry in the Cambridge 
# Structural Database, then it will include bibliographic, chemical, 
# crystal, experimental, refinement or atomic coordinate data resulting 
# from the CCDC's data processing and validation procedures.
#
#######################################################################

data_TOXYAI
_chemical_formula_moiety         'C15 H9 N1 O2'
_chemical_name_systematic        
"naphtho[1',2':4,5]furo[3,2-b]pyridine 11-oxide"
_symmetry_cell_setting           monoclinic
_symmetry_space_group_name_H-M   'P 21/c'
_symmetry_Int_Tables_number      14
_space_group_name_Hall           '-P 2ybc'
loop_
_symmetry_equiv_pos_site_id
_symmetry_equiv_pos_as_xyz
1 x,y,z
2 -x,1/2+y,1/2-z
3 -x,-y,-z
4 x,1/2-y,1/2+z
_cell_length_a                   7.1088(4)
_cell_length_b                   11.6702(6)
_cell_length_c                   14.3646(7)
_cell_angle_alpha                90
_cell_angle_beta                 115.057(3)
_cell_angle_gamma                90
_cell_volume                     1079.55
_exptl_crystal_colour            colorless
_exptl_crystal_description       block
_cell_formula_units_Z            4
loop_
_atom_site_label
_atom_site_type_symbol
_atom_site_fract_x
_atom_site_fract_y
_atom_site_fract_z
C1 C 0.2054(3) 0.67147(19) -0.17155(18)
H1 H 0.1829 0.6803 -0.2398
C2 C 0.2369(3) 0.76749(19) -0.1107(2)
H2 H 0.2314 0.8395 -0.1395
C3 C 0.2757(3) 0.75979(18) -0.0096(2)
H3 H 0.2988 0.8240 0.0321
C4 C 0.2784(2) 0.65142(14) 0.02618(17)
C5 C 0.2437(2) 0.55224(13) -0.03341(13)
C6 C 0.2590(2) 0.45651(13) 0.03296(12)
C7 C 0.3029(2) 0.50717(15) 0.12729(13)
C8 C 0.3339(3) 0.44898(17) 0.21704(14)
H4 H 0.3629 0.4877 0.2782
C9 C 0.3200(3) 0.33376(17) 0.21132(14)
H5 H 0.3412 0.2922 0.2702
C10 C 0.2741(2) 0.27445(15) 0.11862(13)
C11 C 0.2591(3) 0.15322(16) 0.11621(16)
H6 H 0.2794 0.1134 0.1758
C12 C 0.2155(3) 0.09501(16) 0.02790(19)
H7 H 0.2085 0.0154 0.0276
C13 C 0.1810(3) 0.15309(16) -0.06220(17)
H8 H 0.1495 0.1120 -0.1224
C14 C 0.1929(3) 0.26968(15) -0.06359(14)
H9 H 0.1688 0.3071 -0.1248
C15 C 0.2412(2) 0.33384(13) 0.02654(12)
N1 N 0.2063(2) 0.56365(14) -0.13413(13)
O1 O 0.1718(2) 0.47588(13) -0.19393(10)
O2 O 0.31426(19) 0.62445(10) 0.12469(11)
loop_
_geom_bond_atom_site_label_1
_geom_bond_atom_site_label_2
_geom_bond_site_symmetry_1
_geom_bond_site_symmetry_2
C1 H1 1_555 1_555
C2 C1 1_555 1_555
H2 C2 1_555 1_555
C3 C2 1_555 1_555
H3 C3 1_555 1_555
C4 C3 1_555 1_555
C5 C4 1_555 1_555
C6 C5 1_555 1_555
C7 C6 1_555 1_555
C8 C7 1_555 1_555
H4 C8 1_555 1_555
C9 C8 1_555 1_555
H5 C9 1_555 1_555
C10 C9 1_555 1_555
C11 C10 1_555 1_555
H6 C11 1_555 1_555
C12 C11 1_555 1_555
H7 C12 1_555 1_555
C13 C12 1_555 1_555
H8 C13 1_555 1_555
C14 C13 1_555 1_555
H9 C14 1_555 1_555
C15 C6 1_555 1_555
N1 C1 1_555 1_555
O1 N1 1_555 1_555
O2 C4 1_555 1_555
C5 N1 1_555 1_555
C7 O2 1_555 1_555
C10 C15 1_555 1_555
C14 C15 1_555 1_555

#END
