
#######################################################################
#
#                 Cambridge Crystallographic Data Centre
#                                CCDC 
#
#######################################################################
#
# If this CIF has been generated from an entry in the Cambridge 
# Structural Database, then it will include bibliographic, chemical, 
# crystal, experimental, refinement or atomic coordinate data resulting 
# from the CCDC's data processing and validation procedures.
#
#######################################################################

data_TOYCAN
_chemical_formula_moiety         'C28 H31 Cl1 O6'
_chemical_name_systematic        
'Diethyl trans-3-benzoyl-2-(4-chlorophenyl)-1-oxaspiro[4.5]decane-4,4-dicarboxylate'
_symmetry_cell_setting           monoclinic
_symmetry_space_group_name_H-M   'P 21/n'
_symmetry_Int_Tables_number      14
_space_group_name_Hall           '-P 2yn'
loop_
_symmetry_equiv_pos_site_id
_symmetry_equiv_pos_as_xyz
1 x,y,z
2 1/2-x,1/2+y,1/2-z
3 -x,-y,-z
4 1/2+x,1/2-y,1/2+z
_cell_length_a                   10.0682(8)
_cell_length_b                   13.3365(11)
_cell_length_c                   19.2907(16)
_cell_angle_alpha                90
_cell_angle_beta                 94.2150(10)
_cell_angle_gamma                90
_cell_volume                     2583.24
_cell_formula_units_Z            4
loop_
_atom_site_label
_atom_site_type_symbol
_atom_site_fract_x
_atom_site_fract_y
_atom_site_fract_z
Cl1 Cl 0.98973(9) -0.22150(5) 0.09058(4)
O1 O 0.75411(12) 0.24125(9) 0.07578(7)
O2 O 0.29966(13) 0.24857(10) 0.08574(8)
O3 O 0.50487(19) 0.24144(12) 0.21764(9)
O4 O 0.38360(15) 0.40353(10) 0.08021(9)
C1 C 0.39751(17) 0.31465(13) 0.07758(9)
C2 C 0.55582(16) 0.16661(12) 0.11102(8)
H1 H 0.5316 0.1042 0.0864
C3 C 0.65691(17) 0.32010(12) 0.06580(9)
O5 O 0.42157(17) 0.27768(13) -0.05212(8)
C4 C 0.40286(18) 0.08491(13) 0.19887(10)
C5 C 0.52348(17) 0.25753(12) 0.06194(9)
C6 C 0.71035(17) 0.17198(12) 0.12514(9)
H2 H 0.7324 0.1977 0.1722
C7 C 0.78027(18) 0.07320(13) 0.11647(9)
C8 C 0.48832(18) 0.16990(13) 0.17929(9)
C9 C 0.6703(2) 0.39406(14) 0.12689(12)
H3 H 0.6023 0.4455 0.1203
H4 H 0.6565 0.3588 0.1697
O6 O 0.5400(2) 0.13808(13) -0.03153(9)
C10 C 0.4971(2) 0.21619(16) -0.01224(10)
C11 C 0.9075(2) -0.10799(14) 0.10113(12)
C12 C 0.3655(2) 0.00704(16) 0.15473(12)
H5 H 0.3983 0.0036 0.1110
C13 C 0.6872(2) 0.37291(15) -0.00152(11)
H6 H 0.6183 0.4221 -0.0135
H7 H 0.6861 0.3241 -0.0388
C14 C 0.8225(2) 0.42514(16) 0.00497(13)
H8 H 0.8923 0.3751 0.0110
H9 H 0.8350 0.4616 -0.0375
C15 C 0.8866(3) -0.07485(16) 0.16613(12)
H10 H 0.9147 -0.1126 0.2050
C16 C 0.3526(3) 0.08841(19) 0.26431(12)
H11 H 0.3772 0.1404 0.2947
C17 C 0.8225(2) 0.01651(15) 0.17349(10)
H12 H 0.8080 0.0397 0.2178
C18 C 0.8078(2) 0.44319(17) 0.13257(14)
H13 H 0.8754 0.3924 0.1424
H14 H 0.8130 0.4908 0.1707
C19 C 0.8028(3) 0.03743(17) 0.05142(11)
H15 H 0.7746 0.0746 0.0123
C20 C 0.1673(2) 0.28708(18) 0.09539(14)
H16 H 0.1740 0.3514 0.1189
H17 H 0.1187 0.2966 0.0506
C21 C 0.8338(2) 0.49682(17) 0.06558(15)
H18 H 0.7701 0.5508 0.0575
H19 H 0.9224 0.5259 0.0697
C22 C 0.8667(3) -0.05317(18) 0.04358(12)
H20 H 0.8820 -0.0766 -0.0005
C23 C 0.2662(3) 0.0148(2) 0.28414(15)
H21 H 0.2323 0.0178 0.3277
C24 C 0.2303(3) -0.0623(2) 0.23989(17)
H22 H 0.1730 -0.1120 0.2536
C25 C 0.2789(3) -0.0664(2) 0.17560(17)
H23 H 0.2537 -0.1187 0.1456
C26 C 0.0966(3) 0.2159(2) 0.1368(2)
H24 H 0.1111 0.1491 0.1205
H25 H 0.0031 0.2307 0.1325
H26 H 0.1293 0.2212 0.1847
C27 C 0.3930(5) 0.2498(3) -0.12427(16)
H27 H 0.4155 0.1797 -0.1300
H28 H 0.2982 0.2572 -0.1362
C28 C 0.4611(9) 0.3060(4) -0.1691(2)
H29 H 0.4750 0.3722 -0.1504
H30 H 0.4105 0.3101 -0.2132
H31 H 0.5456 0.2752 -0.1752
loop_
_geom_bond_atom_site_label_1
_geom_bond_atom_site_label_2
_geom_bond_site_symmetry_1
_geom_bond_site_symmetry_2
Cl1 C11 1_555 1_555
O1 C3 1_555 1_555
O2 C1 1_555 1_555
O3 C8 1_555 1_555
O4 C1 1_555 1_555
C1 C5 1_555 1_555
C2 H1 1_555 1_555
C3 C5 1_555 1_555
O5 C10 1_555 1_555
C4 C8 1_555 1_555
C5 C2 1_555 1_555
C6 O1 1_555 1_555
H2 C6 1_555 1_555
C7 C6 1_555 1_555
C8 C2 1_555 1_555
C9 C3 1_555 1_555
H3 C9 1_555 1_555
H4 C9 1_555 1_555
O6 C10 1_555 1_555
C10 C5 1_555 1_555
C11 C15 1_555 1_555
C12 C4 1_555 1_555
H5 C12 1_555 1_555
C13 C3 1_555 1_555
H6 C13 1_555 1_555
H7 C13 1_555 1_555
C14 C13 1_555 1_555
H8 C14 1_555 1_555
H9 C14 1_555 1_555
C15 H10 1_555 1_555
C16 C4 1_555 1_555
H11 C16 1_555 1_555
C17 C7 1_555 1_555
H12 C17 1_555 1_555
C18 C9 1_555 1_555
H13 C18 1_555 1_555
H14 C18 1_555 1_555
C19 C7 1_555 1_555
H15 C19 1_555 1_555
C20 O2 1_555 1_555
H16 C20 1_555 1_555
H17 C20 1_555 1_555
C21 C14 1_555 1_555
H18 C21 1_555 1_555
H19 C21 1_555 1_555
C22 C11 1_555 1_555
H20 C22 1_555 1_555
C23 C16 1_555 1_555
H21 C23 1_555 1_555
C24 C23 1_555 1_555
H22 C24 1_555 1_555
C25 C12 1_555 1_555
H23 C25 1_555 1_555
C26 C20 1_555 1_555
H24 C26 1_555 1_555
H25 C26 1_555 1_555
H26 C26 1_555 1_555
C27 O5 1_555 1_555
H27 C27 1_555 1_555
H28 C27 1_555 1_555
C28 C27 1_555 1_555
H29 C28 1_555 1_555
H30 C28 1_555 1_555
H31 C28 1_555 1_555
C2 C6 1_555 1_555
C15 C17 1_555 1_555
C18 C21 1_555 1_555
C19 C22 1_555 1_555
C24 C25 1_555 1_555

#END
