
#######################################################################
#
#                 Cambridge Crystallographic Data Centre
#                                CCDC 
#
#######################################################################
#
# If this CIF has been generated from an entry in the Cambridge 
# Structural Database, then it will include bibliographic, chemical, 
# crystal, experimental, refinement or atomic coordinate data resulting 
# from the CCDC's data processing and validation procedures.
#
#######################################################################

data_TOYDOC
_chemical_formula_moiety         'C39 H29 N5 S1,C1 H1 Cl3'
_chemical_name_systematic        
'1-butyl-2-(5-(9-phenyl-9H-carbazol-3-yl)-2-thienyl)-1H-imidazo[4,5-f][1,10]phenanthroline chloroform solvate'
_symmetry_cell_setting           triclinic
_symmetry_space_group_name_H-M   'P -1'
_symmetry_Int_Tables_number      2
_space_group_name_Hall           '-P 1'
loop_
_symmetry_equiv_pos_site_id
_symmetry_equiv_pos_as_xyz
1 x,y,z
2 -x,-y,-z
_cell_length_a                   12.4041(19)
_cell_length_b                   12.4543(19)
_cell_length_c                   13.762(2)
_cell_angle_alpha                111.741(2)
_cell_angle_beta                 100.880(3)
_cell_angle_gamma                110.123(2)
_cell_volume                     1728.1
_exptl_crystal_colour            yellow
_exptl_crystal_description       block
_cell_formula_units_Z            2
loop_
_atom_site_label
_atom_site_type_symbol
_atom_site_fract_x
_atom_site_fract_y
_atom_site_fract_z
C1 C -0.4069(3) 0.1709(3) 0.2538(3)
H1 H -0.4818 0.1046 0.2393
C2 C -0.4098(3) 0.2664(3) 0.2246(3)
H2 H -0.4843 0.2639 0.1926
C3 C -0.3012(2) 0.3627(3) 0.2443(3)
H3 H -0.2998 0.4277 0.2259
C4 C -0.1918(2) 0.3631(2) 0.2925(2)
C5 C -0.0720(2) 0.4605(2) 0.3168(2)
C6 C 0.0338(2) 0.4596(2) 0.3676(2)
C7 C 0.0332(2) 0.3610(2) 0.3973(2)
C8 C 0.1353(2) 0.3484(3) 0.4449(2)
H4 H 0.2143 0.4092 0.4609
C9 C 0.1204(3) 0.2480(3) 0.4681(2)
H5 H 0.1881 0.2397 0.5001
C10 C 0.0013(3) 0.1585(3) 0.4427(2)
H6 H -0.0085 0.0911 0.4598
C11 C -0.0839(2) 0.2628(2) 0.3730(2)
C12 C -0.1971(2) 0.2648(2) 0.3207(2)
C13 C 0.0729(2) 0.6259(2) 0.3329(2)
C14 C 0.1351(2) 0.7404(2) 0.3208(2)
C15 C 0.2493(3) 0.8019(3) 0.3212(3)
H7 H 0.3120 0.7797 0.3384
C16 C 0.2638(2) 0.9014(3) 0.2934(3)
H8 H 0.3370 0.9516 0.2900
C17 C 0.1604(2) 0.9182(2) 0.2716(2)
C18 C 0.1379(2) 1.0072(2) 0.2341(2)
C19 C 0.2339(2) 1.1065(2) 0.2327(2)
H9 H 0.3141 1.1195 0.2614
C20 C 0.2146(2) 1.1854(2) 0.1907(2)
H10 H 0.2803 1.2519 0.1924
C21 C 0.0942(2) 1.1630(2) 0.1456(2)
C22 C -0.0034(2) 1.0681(2) 0.1497(2)
C23 C 0.0193(2) 0.9904(2) 0.1937(2)
H11 H -0.0457 0.9270 0.1960
C24 C -0.1151(2) 1.0710(2) 0.1007(2)
C25 C -0.0812(2) 1.1662(2) 0.0666(2)
C26 C -0.1698(3) 1.1896(3) 0.0100(2)
H12 H -0.1478 1.2518 -0.0142
C27 C -0.2888(3) 1.1178(3) -0.0079(3)
H13 H -0.3494 1.1315 -0.0452
C28 C -0.3240(3) 1.0244(3) 0.0274(2)
H14 H -0.4067 0.9778 0.0143
C29 C -0.2378(2) 1.0005(3) 0.0811(2)
H15 H -0.2614 0.9376 0.1042
C30 C 0.1143(2) 1.3212(2) 0.0699(2)
C31 C 0.2031(3) 1.3118(3) 0.0253(3)
H16 H 0.2198 1.2415 0.0123
C32 C 0.2670(3) 1.4051(3) -0.0002(3)
H17 H 0.3278 1.3991 -0.0292
C33 C 0.2401(4) 1.5094(4) 0.0178(4)
H18 H 0.2814 1.5718 -0.0014
C34 C 0.1531(4) 1.5202(3) 0.0636(3)
H19 H 0.1363 1.5904 0.0766
C35 C 0.0903(3) 1.4265(3) 0.0907(2)
H20 H 0.0319 1.4343 0.1227
C36 C 0.2605(2) 0.6210(2) 0.4376(2)
H21 H 0.2729 0.6059 0.5022
H22 H 0.2996 0.7140 0.4650
C37 C 0.3224(2) 0.5616(2) 0.3646(2)
H23 H 0.3143 0.5810 0.3023
H24 H 0.2807 0.4681 0.3339
C38 C 0.4580(3) 0.6111(3) 0.4280(3)
H25 H 0.4996 0.7047 0.4593
H26 H 0.4661 0.5909 0.4898
C39 C 0.5193(3) 0.5528(4) 0.3548(4)
H27 H 0.4863 0.4618 0.3322
H28 H 0.6064 0.5945 0.3958
H29 H 0.5045 0.5650 0.2895
N1 N -0.30605(19) 0.1681(2) 0.3001(2)
N2 N -0.0980(2) 0.1634(2) 0.39592(19)
N3 N 0.12888(17) 0.56954(18) 0.37983(17)
N4 N -0.04762(19) 0.5633(2) 0.29531(19)
N5 N 0.04656(19) 1.22355(19) 0.09506(18)
S1 S 0.04392(6) 0.80630(7) 0.28398(7)
C40 C 0.6588(3) 0.9025(3) 0.3030(3)
H30 H 0.6923 0.9827 0.3027
Cl1 Cl 0.5196(3) 0.8083(4) 0.1915(3)
Cl2 Cl 0.6464(6) 0.9383(3) 0.4333(3)
Cl3 Cl 0.7535(3) 0.8194(3) 0.28936(19)
Cl4? Cl 0.5409(14) 0.8164(14) 0.1846(15)
Cl5? Cl 0.5816(14) 0.9230(13) 0.3953(14)
Cl6? Cl 0.7286(11) 0.8294(12) 0.3087(16)
loop_
_geom_bond_atom_site_label_1
_geom_bond_atom_site_label_2
_geom_bond_site_symmetry_1
_geom_bond_site_symmetry_2
C1 H1 1_555 1_555
C2 C1 1_555 1_555
H2 C2 1_555 1_555
C3 C2 1_555 1_555
H3 C3 1_555 1_555
C4 C3 1_555 1_555
C5 C4 1_555 1_555
C6 C5 1_555 1_555
C7 C6 1_555 1_555
C8 C7 1_555 1_555
H4 C8 1_555 1_555
C9 C8 1_555 1_555
H5 C9 1_555 1_555
C10 C9 1_555 1_555
H6 C10 1_555 1_555
C11 C7 1_555 1_555
C12 C4 1_555 1_555
C13 C14 1_555 1_555
C14 C15 1_555 1_555
C15 H7 1_555 1_555
C16 C15 1_555 1_555
H8 C16 1_555 1_555
C17 C16 1_555 1_555
C18 C17 1_555 1_555
C19 C18 1_555 1_555
H9 C19 1_555 1_555
C20 C19 1_555 1_555
H10 C20 1_555 1_555
C21 C20 1_555 1_555
C22 C21 1_555 1_555
C23 C18 1_555 1_555
H11 C23 1_555 1_555
C24 C22 1_555 1_555
C25 C24 1_555 1_555
C26 C25 1_555 1_555
H12 C26 1_555 1_555
C27 C26 1_555 1_555
H13 C27 1_555 1_555
C28 C27 1_555 1_555
H14 C28 1_555 1_555
C29 C24 1_555 1_555
H15 C29 1_555 1_555
C30 C31 1_555 1_555
C31 H16 1_555 1_555
C32 C31 1_555 1_555
H17 C32 1_555 1_555
C33 C32 1_555 1_555
H18 C33 1_555 1_555
C34 C33 1_555 1_555
H19 C34 1_555 1_555
C35 C30 1_555 1_555
H20 C35 1_555 1_555
C36 H21 1_555 1_555
H22 C36 1_555 1_555
C37 C36 1_555 1_555
H23 C37 1_555 1_555
H24 C37 1_555 1_555
C38 C37 1_555 1_555
H25 C38 1_555 1_555
H26 C38 1_555 1_555
C39 C38 1_555 1_555
H27 C39 1_555 1_555
H28 C39 1_555 1_555
H29 C39 1_555 1_555
N1 C1 1_555 1_555
N2 C10 1_555 1_555
N3 C6 1_555 1_555
N4 C5 1_555 1_555
N5 C21 1_555 1_555
S1 C14 1_555 1_555
C40 H30 1_555 1_555
Cl1 C40 1_555 1_555
Cl2 C40 1_555 1_555
Cl3 C40 1_555 1_555
C11 C12 1_555 1_555
C11 N2 1_555 1_555
C12 N1 1_555 1_555
C13 N3 1_555 1_555
C13 N4 1_555 1_555
C17 S1 1_555 1_555
C22 C23 1_555 1_555
C25 N5 1_555 1_555
C28 C29 1_555 1_555
C30 N5 1_555 1_555
C34 C35 1_555 1_555
C36 N3 1_555 1_555

#END
