
#######################################################################
#
#                 Cambridge Crystallographic Data Centre
#                                CCDC 
#
#######################################################################
#
# If this CIF has been generated from an entry in the Cambridge 
# Structural Database, then it will include bibliographic, chemical, 
# crystal, experimental, refinement or atomic coordinate data resulting 
# from the CCDC's data processing and validation procedures.
#
#######################################################################

data_TOYDIW
_chemical_formula_moiety         'C39 H31 N5 S1,C1 H1 Cl3'
_chemical_name_systematic        
'4-(5-(1-butyl-1H-imidazo[4,5-f][1,10]phenanthrolin-2-yl)-2-thienyl)-N,N-diphenylaniline chloroform solvate'
_symmetry_cell_setting           monoclinic
_symmetry_space_group_name_H-M   'P 21/c'
_symmetry_Int_Tables_number      14
_space_group_name_Hall           '-P 2ybc'
loop_
_symmetry_equiv_pos_site_id
_symmetry_equiv_pos_as_xyz
1 x,y,z
2 -x,1/2+y,1/2-z
3 -x,-y,-z
4 x,1/2-y,1/2+z
_cell_length_a                   21.9934(17)
_cell_length_b                   9.0584(7)
_cell_length_c                   19.5200(15)
_cell_angle_alpha                90
_cell_angle_beta                 112.8150(10)
_cell_angle_gamma                90
_cell_volume                     3584.61
_exptl_crystal_colour            yellow
_exptl_crystal_description       block
_cell_formula_units_Z            4
loop_
_atom_site_label
_atom_site_type_symbol
_atom_site_fract_x
_atom_site_fract_y
_atom_site_fract_z
C1 C 0.7966(2) 0.3741(6) 0.7177(3)
H1 H 0.8363 0.3266 0.7442
C2 C 0.7915(2) 0.4530(6) 0.6550(3)
H2 H 0.8270 0.4590 0.6404
C3 C 0.7337(2) 0.5215(5) 0.6155(2)
H3 H 0.7287 0.5731 0.5724
C4 C 0.6811(2) 0.5148(5) 0.6394(2)
C5 C 0.61778(19) 0.5838(5) 0.6046(2)
C6 C 0.56890(19) 0.5690(5) 0.6319(2)
C7 C 0.57835(19) 0.4850(5) 0.6972(2)
C8 C 0.5298(2) 0.4677(6) 0.7268(2)
H4 H 0.4892 0.5143 0.7048
C9 C 0.5434(3) 0.3812(6) 0.7885(3)
H5 H 0.5123 0.3677 0.8093
C10 C 0.6048(3) 0.3145(6) 0.8191(3)
H6 H 0.6134 0.2554 0.8608
C11 C 0.6391(2) 0.4138(5) 0.7328(2)
C12 C 0.6915(2) 0.4300(5) 0.7042(2)
C13 C 0.52666(18) 0.7007(5) 0.5338(2)
C14 C 0.6259(2) 0.7494(6) 0.4998(3)
H7 H 0.6048 0.8439 0.4822
H8 H 0.6710 0.7683 0.5336
C15 C 0.6263(3) 0.6648(7) 0.4374(3)
H9 H 0.5813 0.6441 0.4037
H10 H 0.6485 0.5714 0.4547
C16 C 0.6625(4) 0.7528(8) 0.3957(4)
H11 H 0.6412 0.8483 0.3820
H12 H 0.7074 0.7705 0.4302
C17 C 0.6649(5) 0.6859(11) 0.3294(4)
H13 H 0.6898 0.5959 0.3425
H14 H 0.6857 0.7526 0.3070
H15 H 0.6209 0.6648 0.2949
C18 C 0.47818(19) 0.7861(5) 0.4750(2)
C19 C 0.4751(2) 0.8499(5) 0.4109(2)
H16 H 0.5099 0.8475 0.3951
C20 C 0.4150(2) 0.9197(5) 0.3706(2)
H17 H 0.4064 0.9683 0.3258
C21 C 0.37026(18) 0.9101(5) 0.4028(2)
C22 C 0.30307(18) 0.9676(5) 0.3796(2)
C23 C 0.2757(2) 1.0639(5) 0.3194(2)
H18 H 0.2999 1.0883 0.2912
C24 C 0.2141(2) 1.1230(5) 0.3010(2)
H19 H 0.1973 1.1870 0.2607
C25 C 0.17632(19) 1.0888(5) 0.3418(2)
C26 C 0.2024(2) 0.9910(5) 0.3997(2)
H20 H 0.1776 0.9641 0.4269
C27 C 0.26427(19) 0.9322(5) 0.4185(2)
H21 H 0.2805 0.8670 0.4583
C28 C 0.06484(19) 1.1491(5) 0.2521(2)
C29 C 0.0161(2) 1.2557(6) 0.2286(3)
H22 H 0.0178 1.3350 0.2596
C30 C -0.0350(2) 1.2460(7) 0.1599(3)
H23 H -0.0685 1.3162 0.1458
C31 C -0.0367(2) 1.1351(6) 0.1130(3)
H24 H -0.0709 1.1299 0.0664
C32 C 0.0120(2) 1.0305(6) 0.1342(2)
H25 H 0.0112 0.9552 0.1014
C33 C 0.0627(2) 1.0360(5) 0.2045(2)
H26 H 0.0950 0.9631 0.2191
C34 C 0.0935(2) 1.1788(5) 0.3855(2)
C35 C 0.0342(2) 1.1255(5) 0.3848(3)
H27 H 0.0051 1.0760 0.3433
C36 C 0.0190(3) 1.1466(7) 0.4460(4)
H28 H -0.0210 1.1114 0.4453
C37 C 0.0606(4) 1.2173(8) 0.5073(4)
H29 H 0.0497 1.2283 0.5486
C38 C 0.1185(4) 1.2722(6) 0.5081(3)
H30 H 0.1469 1.3225 0.5497
C39 C 0.1354(3) 1.2537(5) 0.4473(3)
H31 H 0.1750 1.2917 0.4482
N1 N 0.74898(18) 0.3617(5) 0.7424(2)
N2 N 0.65224(18) 0.3285(5) 0.79351(19)
N3 N 0.59008(16) 0.6716(4) 0.54146(18)
N4 N 0.51242(15) 0.6417(4) 0.58780(18)
N5 N 0.11355(16) 1.1538(4) 0.32560(18)
S1 S 0.40451(5) 0.81174(14) 0.48479(6)
C40 C 0.2063(2) 0.7647(5) 0.0991(2)
H32 H 0.2448 0.7460 0.1450
Cl1 Cl 0.23213(8) 0.84833(17) 0.03368(8)
Cl2 Cl 0.15199(10) 0.8821(2) 0.11857(10)
Cl3 Cl 0.16666(10) 0.5994(2) 0.06514(9)
loop_
_geom_bond_atom_site_label_1
_geom_bond_atom_site_label_2
_geom_bond_site_symmetry_1
_geom_bond_site_symmetry_2
C1 H1 1_555 1_555
C2 C1 1_555 1_555
H2 C2 1_555 1_555
C3 C2 1_555 1_555
H3 C3 1_555 1_555
C4 C3 1_555 1_555
C5 C4 1_555 1_555
C6 C5 1_555 1_555
C7 C6 1_555 1_555
C8 C7 1_555 1_555
H4 C8 1_555 1_555
C9 C8 1_555 1_555
H5 C9 1_555 1_555
C10 C9 1_555 1_555
H6 C10 1_555 1_555
C11 C7 1_555 1_555
C12 C4 1_555 1_555
C13 C18 1_555 1_555
C14 H7 1_555 1_555
H8 C14 1_555 1_555
C15 C14 1_555 1_555
H9 C15 1_555 1_555
H10 C15 1_555 1_555
C16 C15 1_555 1_555
H11 C16 1_555 1_555
H12 C16 1_555 1_555
C17 C16 1_555 1_555
H13 C17 1_555 1_555
H14 C17 1_555 1_555
H15 C17 1_555 1_555
C18 C19 1_555 1_555
C19 H16 1_555 1_555
C20 C19 1_555 1_555
H17 C20 1_555 1_555
C21 C20 1_555 1_555
C22 C21 1_555 1_555
C23 C22 1_555 1_555
H18 C23 1_555 1_555
C24 C23 1_555 1_555
H19 C24 1_555 1_555
C25 C24 1_555 1_555
C26 C25 1_555 1_555
H20 C26 1_555 1_555
C27 C22 1_555 1_555
H21 C27 1_555 1_555
C28 C29 1_555 1_555
C29 H22 1_555 1_555
C30 C29 1_555 1_555
H23 C30 1_555 1_555
C31 C30 1_555 1_555
H24 C31 1_555 1_555
C32 C31 1_555 1_555
H25 C32 1_555 1_555
C33 C28 1_555 1_555
H26 C33 1_555 1_555
C34 C35 1_555 1_555
C35 H27 1_555 1_555
C36 C35 1_555 1_555
H28 C36 1_555 1_555
C37 C36 1_555 1_555
H29 C37 1_555 1_555
C38 C37 1_555 1_555
H30 C38 1_555 1_555
C39 C34 1_555 1_555
H31 C39 1_555 1_555
N1 C1 1_555 1_555
N2 C10 1_555 1_555
N3 C5 1_555 1_555
N4 C6 1_555 1_555
N5 C25 1_555 1_555
S1 C18 1_555 1_555
C40 H32 1_555 1_555
Cl1 C40 1_555 1_555
Cl2 C40 1_555 1_555
Cl3 C40 1_555 1_555
C11 C12 1_555 1_555
C11 N2 1_555 1_555
C12 N1 1_555 1_555
C13 N3 1_555 1_555
C13 N4 1_555 1_555
C14 N3 1_555 1_555
C21 S1 1_555 1_555
C26 C27 1_555 1_555
C28 N5 1_555 1_555
C32 C33 1_555 1_555
C34 N5 1_555 1_555
C38 C39 1_555 1_555

#END
