
#######################################################################
#
#                 Cambridge Crystallographic Data Centre
#                                CCDC 
#
#######################################################################
#
# If this CIF has been generated from an entry in the Cambridge 
# Structural Database, then it will include bibliographic, chemical, 
# crystal, experimental, refinement or atomic coordinate data resulting 
# from the CCDC's data processing and validation procedures.
#
#######################################################################

data_TOYGOF01
_chemical_formula_moiety         'C7 H11 N2 1+,C7 H4 N1 O4 1-'
_chemical_name_systematic        
'4-(dimethylamino)pyridin-1-ium 3-nitrobenzoate'
_symmetry_cell_setting           monoclinic
_symmetry_space_group_name_H-M   'C 2/c'
_symmetry_Int_Tables_number      15
_space_group_name_Hall           '-C 2yn'
loop_
_symmetry_equiv_pos_site_id
_symmetry_equiv_pos_as_xyz
1 x,y,z
2 -x,y,1/2-z
3 1/2+x,1/2+y,z
4 1/2-x,1/2+y,1/2-z
5 -x,-y,-z
6 x,-y,1/2+z
7 1/2-x,1/2-y,-z
8 1/2+x,1/2-y,1/2+z
_cell_length_a                   28.685(15)
_cell_length_b                   6.783(3)
_cell_length_c                   13.975(7)
_cell_angle_alpha                90
_cell_angle_beta                 94.175(7)
_cell_angle_gamma                90
_cell_volume                     2711.91
_exptl_crystal_colour            colorless
_exptl_crystal_description       block
_chemical_melting_point          '160-163 deg.C'
_cell_formula_units_Z            8
loop_
_atom_site_label
_atom_site_type_symbol
_atom_site_fract_x
_atom_site_fract_y
_atom_site_fract_z
C1 C 0.24504(4) -0.03795(18) 0.10802(9)
C2 C 0.20300(4) 0.02431(18) 0.06753(9)
C3 C 0.19100(4) 0.22795(18) 0.06892(8)
C4 C 0.22451(4) 0.35419(18) 0.11737(8)
C5 C 0.26592(4) 0.28117(18) 0.15571(8)
C6 C 0.13944(5) 0.5071(2) 0.03136(10)
C7 C 0.11823(5) 0.1691(2) -0.02857(10)
N1 N 0.27652(4) 0.08771(15) 0.15117(7)
N2 N 0.15095(3) 0.29770(15) 0.02658(7)
H1 H 0.2560(5) -0.175(2) 0.1070(10)
H2 H 0.3077(7) 0.040(3) 0.1764(13)
H3 H 0.1821(6) -0.069(2) 0.0357(12)
H4 H 0.2184(6) 0.490(3) 0.1200(11)
H5 H 0.2882(5) 0.368(2) 0.1829(10)
H6 H 0.1611(6) 0.588(2) -0.0070(12)
H7 H 0.1074(7) 0.525(3) 0.0043(13)
H8 H 0.1413(5) 0.553(2) 0.0959(12)
H9 H 0.1345(6) 0.081(2) -0.0712(12)
H10 H 0.0971(7) 0.251(3) -0.0668(13)
H11 H 0.1020(7) 0.086(3) 0.0129(13)
C8 C 0.09586(5) -0.02538(18) 0.22057(9)
C9 C 0.05720(5) -0.11388(19) 0.17238(10)
C10 C 0.02023(5) -0.00051(19) 0.13326(9)
C11 C 0.02353(4) 0.20199(18) 0.14312(8)
C12 C 0.06164(4) 0.29390(17) 0.19095(8)
C13 C 0.09842(4) 0.17884(18) 0.23038(8)
C14 C 0.14066(4) 0.27671(18) 0.28240(8)
N3 N -0.01513(4) 0.32432(16) 0.10123(7)
O1 O 0.17069(3) 0.16988(13) 0.32505(7)
O2 O 0.14200(3) 0.46403(13) 0.27718(6)
O3 O -0.01255(4) 0.50377(14) 0.11108(8)
O4 O -0.04832(3) 0.24031(15) 0.05862(8)
H12 H 0.1222(6) -0.107(2) 0.2468(11)
H13 H 0.0556(6) -0.259(3) 0.1654(12)
H14 H -0.0071(6) -0.058(2) 0.1005(12)
H15 H 0.0633(5) 0.435(2) 0.1975(10)
loop_
_geom_bond_atom_site_label_1
_geom_bond_atom_site_label_2
_geom_bond_site_symmetry_1
_geom_bond_site_symmetry_2
C1 C2 1_555 1_555
C2 C3 1_555 1_555
C3 C4 1_555 1_555
C4 C5 1_555 1_555
C5 N1 1_555 1_555
C6 N2 1_555 1_555
C7 N2 1_555 1_555
N1 C1 1_555 1_555
N2 C3 1_555 1_555
H1 C1 1_555 1_555
H2 N1 1_555 1_555
H3 C2 1_555 1_555
H4 C4 1_555 1_555
H5 C5 1_555 1_555
H6 C6 1_555 1_555
H7 C6 1_555 1_555
H8 C6 1_555 1_555
H9 C7 1_555 1_555
H10 C7 1_555 1_555
H11 C7 1_555 1_555
C8 C9 1_555 1_555
C9 C10 1_555 1_555
C10 C11 1_555 1_555
C11 C12 1_555 1_555
C12 C13 1_555 1_555
C13 C8 1_555 1_555
C14 C13 1_555 1_555
N3 C11 1_555 1_555
O1 C14 1_555 1_555
O2 C14 1_555 1_555
O3 N3 1_555 1_555
O4 N3 1_555 1_555
H12 C8 1_555 1_555
H13 C9 1_555 1_555
H14 C10 1_555 1_555
H15 C12 1_555 1_555

#END
