
#######################################################################
#
#                 Cambridge Crystallographic Data Centre
#                                CCDC 
#
#######################################################################
#
# If this CIF has been generated from an entry in the Cambridge 
# Structural Database, then it will include bibliographic, chemical, 
# crystal, experimental, refinement or atomic coordinate data resulting 
# from the CCDC's data processing and validation procedures.
#
#######################################################################

data_TOYWUB
_chemical_formula_moiety         'C26 H18 Br2 N2 S2'
_chemical_name_systematic        
N,N'-(disulfanediyldi-2,1-phenylene)bis(1-(4-bromophenyl)methanimine)
_symmetry_cell_setting           triclinic
_symmetry_space_group_name_H-M   'P -1'
_symmetry_Int_Tables_number      2
_space_group_name_Hall           '-P 1'
loop_
_symmetry_equiv_pos_site_id
_symmetry_equiv_pos_as_xyz
1 x,y,z
2 -x,-y,-z
_cell_length_a                   7.625(2)
_cell_length_b                   7.802(2)
_cell_length_c                   20.002(5)
_cell_angle_alpha                87.587(3)
_cell_angle_beta                 88.794(3)
_cell_angle_gamma                83.332(3)
_cell_volume                     1180.67
_exptl_crystal_colour            green
_exptl_crystal_description       Cuboid
_cell_formula_units_Z            2
loop_
_atom_site_label
_atom_site_type_symbol
_atom_site_fract_x
_atom_site_fract_y
_atom_site_fract_z
Br1 Br 0.44525(11) 0.48842(12) 0.33593(4)
Br2 Br 0.6682(4) 0.6196(3) 1.16805(12)
S1 S 0.9278(2) 0.1561(2) 0.69802(7)
S2 S 0.9067(2) 0.13621(18) 0.79932(7)
N1 N 1.0576(6) 0.1711(6) 0.5687(2)
N2 N 0.7980(13) 0.0226(8) 0.9236(3)
C1 C 0.6428(9) 0.4103(8) 0.3894(3)
C2 C 0.6158(9) 0.3461(11) 0.4523(4)
H1 H 0.5013 0.3411 0.4686
C3 C 0.7569(8) 0.2884(9) 0.4921(3)
H2 H 0.7375 0.2442 0.5352
C4 C 0.9252(7) 0.2957(7) 0.4687(3)
C5 C 1.0745(8) 0.2360(8) 0.5111(3)
H3 H 1.1877 0.2467 0.4945
C6 C 1.1993(7) 0.1170(7) 0.6116(3)
C7 C 1.1554(7) 0.1012(6) 0.6792(3)
C8 C 0.8791(7) -0.0831(7) 0.8180(3)
C9 C 0.8253(11) -0.1182(9) 0.8821(4)
C10 C 0.7558(8) 0.0119(7) 0.9832(3)
H4 H 0.7427 -0.0972 1.0018
C11 C 0.7250(9) 0.1573(8) 1.0265(3)
C12 C 0.6745(12) 0.4355(9) 1.1077(4)
C13 C 0.8080(9) 0.4199(9) 0.3649(3)
H5 H 0.8259 0.4649 0.3218
C14 C 0.9480(8) 0.3626(9) 0.4045(3)
H6 H 1.0619 0.3687 0.3878
C15 C 1.3737(8) 0.0780(9) 0.5909(3)
H7 H 1.4046 0.0881 0.5458
C16 C 1.5019(8) 0.0240(9) 0.6380(4)
H8 H 1.6191 -0.0010 0.6244
C17 C 1.4569(9) 0.0075(8) 0.7036(4)
H9 H 1.5436 -0.0299 0.7346
C18 C 1.2840(8) 0.0454(7) 0.7250(3)
H10 H 1.2545 0.0333 0.7701
C19 C 0.9096(7) -0.2134(7) 0.7741(3)
H11 H 0.9467 -0.1882 0.7306
C20 C 0.8867(9) -0.3797(8) 0.7929(4)
H12 H 0.9081 -0.4669 0.7625
C21 C 0.8335(16) -0.4154(11) 0.8550(5)
H13 H 0.8178 -0.5284 0.8682
C22 C 0.802(2) -0.2875(11) 0.8996(5)
H14 H 0.7632 -0.3148 0.9428
C23 C 0.6811(11) 0.1447(8) 1.0895(3)
H15 H 0.6657 0.0363 1.1083
C24 C 0.6563(11) 0.2863(9) 1.1298(3)
H16 H 0.6252 0.2696 1.1746
C25 C 0.651(2) 0.3289(16) 0.9927(6)
H17 H 0.6270 0.3366 0.9473
C26 C 0.622(2) 0.4708(14) 1.0308(7)
H18 H 0.5757 0.5787 1.0135
C27? C 0.824(2) 0.2976(16) 1.0171(7)
H19? H 0.9048 0.2984 0.9818
C28? C 0.803(2) 0.4331(17) 1.0589(7)
H20? H 0.8751 0.5216 1.0542
Br3? Br 0.5952(5) 0.6507(5) 1.14914(18)
loop_
_geom_bond_atom_site_label_1
_geom_bond_atom_site_label_2
_geom_bond_site_symmetry_1
_geom_bond_site_symmetry_2
Br1 C1 1_555 1_555
Br2 C12 1_555 1_555
S1 S2 1_555 1_555
S2 C8 1_555 1_555
N1 C5 1_555 1_555
N2 C9 1_555 1_555
C1 C2 1_555 1_555
C2 H1 1_555 1_555
C3 C2 1_555 1_555
H2 C3 1_555 1_555
C4 C3 1_555 1_555
C5 C4 1_555 1_555
H3 C5 1_555 1_555
C6 N1 1_555 1_555
C7 S1 1_555 1_555
C8 C9 1_555 1_555
C9 C22 1_555 1_555
C10 N2 1_555 1_555
H4 C10 1_555 1_555
C11 C10 1_555 1_555
C12 C24 1_555 1_555
C13 C1 1_555 1_555
H5 C13 1_555 1_555
C14 C4 1_555 1_555
H6 C14 1_555 1_555
C15 C6 1_555 1_555
H7 C15 1_555 1_555
C16 C15 1_555 1_555
H8 C16 1_555 1_555
C17 C16 1_555 1_555
H9 C17 1_555 1_555
C18 C7 1_555 1_555
H10 C18 1_555 1_555
C19 C8 1_555 1_555
H11 C19 1_555 1_555
C20 C19 1_555 1_555
H12 C20 1_555 1_555
C21 C20 1_555 1_555
H13 C21 1_555 1_555
C22 C21 1_555 1_555
H14 C22 1_555 1_555
C23 C11 1_555 1_555
H15 C23 1_555 1_555
C24 C23 1_555 1_555
H16 C24 1_555 1_555
C25 C11 1_555 1_555
H17 C25 1_555 1_555
C26 C12 1_555 1_555
H18 C26 1_555 1_555
C6 C7 1_555 1_555
C13 C14 1_555 1_555
C17 C18 1_555 1_555
C25 C26 1_555 1_555

#END
