
#######################################################################
#
#                 Cambridge Crystallographic Data Centre
#                                CCDC 
#
#######################################################################
#
# If this CIF has been generated from an entry in the Cambridge 
# Structural Database, then it will include bibliographic, chemical, 
# crystal, experimental, refinement or atomic coordinate data resulting 
# from the CCDC's data processing and validation procedures.
#
#######################################################################

data_TOZMUS
_chemical_formula_moiety         'C7 H5 N3 O6,C10 H7 N1 O2'
_chemical_name_systematic        
'2-Methyl-1,3,5-trinitrobenzene 1-nitronaphthalene'
_symmetry_cell_setting           triclinic
_symmetry_space_group_name_H-M   'P -1'
_symmetry_Int_Tables_number      2
_space_group_name_Hall           '-P 1'
loop_
_symmetry_equiv_pos_site_id
_symmetry_equiv_pos_as_xyz
1 x,y,z
2 -x,-y,-z
_cell_length_a                   7.611(3)
_cell_length_b                   7.880(3)
_cell_length_c                   14.602(6)
_cell_angle_alpha                91.062(4)
_cell_angle_beta                 93.555(5)
_cell_angle_gamma                98.664(5)
_cell_volume                     863.746
_exptl_crystal_colour            'light yellow'
_exptl_crystal_description       needle
_chemical_melting_point          '62 deg.C'
_cell_formula_units_Z            2
_exptl_crystal_recrystallization_method methanol
loop_
_atom_site_label
_atom_site_type_symbol
_atom_site_fract_x
_atom_site_fract_y
_atom_site_fract_z
C1 C 0.0635(3) 0.8939(3) 0.26085(16)
C2 C -0.0672(3) 0.5608(3) 0.29880(17)
H1 H -0.1123 0.4477 0.3112
C3 C 0.0598(3) 0.7717(3) 0.18987(16)
C4 C -0.0591(3) 0.6903(3) 0.36451(16)
N1 N 0.1317(3) 1.0764(3) 0.24567(16)
C5 C 0.0058(3) 0.8585(3) 0.34675(17)
H2 H 0.0102 0.9451 0.3914
C6 C -0.0066(3) 0.6045(3) 0.21465(16)
N2 N -0.0167(4) 0.4626(3) 0.14587(15)
N3 N -0.1255(3) 0.6483(3) 0.45500(16)
O1 O 0.0566(3) 1.1836(2) 0.28002(15)
O2 O 0.1120(3) 0.4550(3) 0.10139(15)
O3 O -0.1907(3) 0.5007(3) 0.46698(14)
O4 O -0.1545(3) 0.3600(2) 0.13890(15)
O5 O -0.1114(4) 0.7639(3) 0.51274(15)
O6 O 0.2608(3) 1.1077(3) 0.20006(19)
C7 C 0.1108(4) 0.8160(4) 0.09433(18)
H3 H 0.0843 0.9285 0.0806
H4 H 0.0446 0.7335 0.0511
H5 H 0.2359 0.8144 0.0903
C8 C 0.5647(3) 0.8350(3) 0.23841(17)
N4 N 0.5420(4) 1.0200(3) 0.37569(17)
C9 C 0.5358(3) 0.6668(3) 0.19816(17)
C10 C 0.5179(3) 0.8489(3) 0.33049(17)
C11 C 0.4488(4) 0.7120(4) 0.3795(2)
H6 H 0.4170 0.7278 0.4392
C12 C 0.5734(4) 0.6457(4) 0.10573(19)
H7 H 0.5561 0.5361 0.0788
C13 C 0.6298(3) 0.9753(3) 0.18413(19)
H8 H 0.6498 1.0863 0.2095
C14 C 0.4266(4) 0.5482(4) 0.3390(2)
H9 H 0.3826 0.4535 0.3723
O7 O 0.4138(4) 1.0635(3) 0.41053(19)
C15 C 0.4690(4) 0.5262(4) 0.2511(2)
H10 H 0.4536 0.4159 0.2251
O8 O 0.6829(4) 1.1078(4) 0.3770(2)
C16 C 0.6347(4) 0.7830(4) 0.0551(2)
H11 H 0.6577 0.7673 -0.0060
C17 C 0.6629(4) 0.9481(4) 0.0958(2)
H12 H 0.7055 1.0412 0.0610
loop_
_geom_bond_atom_site_label_1
_geom_bond_atom_site_label_2
_geom_bond_site_symmetry_1
_geom_bond_site_symmetry_2
C1 C3 1_555 1_555
C2 H1 1_555 1_555
C3 C6 1_555 1_555
C4 C2 1_555 1_555
N1 C1 1_555 1_555
C5 C1 1_555 1_555
H2 C5 1_555 1_555
C6 C2 1_555 1_555
N2 C6 1_555 1_555
N3 C4 1_555 1_555
O1 N1 1_555 1_555
O2 N2 1_555 1_555
O3 N3 1_555 1_555
O4 N2 1_555 1_555
O5 N3 1_555 1_555
O6 N1 1_555 1_555
C7 C3 1_555 1_555
H3 C7 1_555 1_555
H4 C7 1_555 1_555
H5 C7 1_555 1_555
C8 C9 1_555 1_555
N4 C10 1_555 1_555
C9 C12 1_555 1_555
C10 C8 1_555 1_555
C11 C10 1_555 1_555
H6 C11 1_555 1_555
C12 H7 1_555 1_555
C13 C8 1_555 1_555
H8 C13 1_555 1_555
C14 C11 1_555 1_555
H9 C14 1_555 1_555
O7 N4 1_555 1_555
C15 C9 1_555 1_555
H10 C15 1_555 1_555
O8 N4 1_555 1_555
C16 C12 1_555 1_555
H11 C16 1_555 1_555
C17 C13 1_555 1_555
H12 C17 1_555 1_555
C4 C5 1_555 1_555
C14 C15 1_555 1_555
C16 C17 1_555 1_555

#END
