
#######################################################################
#
#                 Cambridge Crystallographic Data Centre
#                                CCDC 
#
#######################################################################
#
# If this CIF has been generated from an entry in the Cambridge 
# Structural Database, then it will include bibliographic, chemical, 
# crystal, experimental, refinement or atomic coordinate data resulting 
# from the CCDC's data processing and validation procedures.
#
#######################################################################

data_TOZNIH
_chemical_compound_source        'dried rhizomes of Curcuma wenyujin'
_chemical_name_common            Curcumolide
_chemical_formula_moiety         'C15 H22 O3'
_chemical_name_systematic        
(1S,2S,5S,8S)-8-(2-Hydroxypropan-2-yl)-2,6-dimethyl-10-oxatricyclo[6.2.1.0^1,5^]undec-6-en-9-one
_chemical_properties_biological  'anti-inflammatory activity'
_symmetry_cell_setting           monoclinic
_symmetry_space_group_name_H-M   'P 21'
_symmetry_Int_Tables_number      4
_space_group_name_Hall           'P 2yb'
loop_
_symmetry_equiv_pos_site_id
_symmetry_equiv_pos_as_xyz
1 x,y,z
2 -x,1/2+y,-z
_cell_length_a                   6.192(7)
_cell_length_b                   8.362(9)
_cell_length_c                   14.187(15)
_cell_angle_alpha                90
_cell_angle_beta                 95.54(2)
_cell_angle_gamma                90
_cell_volume                     731.136
_exptl_crystal_colour            colorless
_exptl_crystal_description       Block
_cell_formula_units_Z            2
loop_
_atom_site_label
_atom_site_type_symbol
_atom_site_fract_x
_atom_site_fract_y
_atom_site_fract_z
O1 O 0.2235(10) 0.4161(8) 0.3738(5)
H1 H 0.1752 0.3732 0.4193
O2 O 0.0241(9) 0.3211(8) 0.1892(4)
O3 O 0.1291(8) 0.0759(6) 0.1437(4)
C1 C 0.3991(12) 0.3190(11) 0.3428(6)
C2 C 0.2989(11) 0.1648(10) 0.2916(6)
C3 C 0.1588(12) 0.0658(11) 0.3554(5)
H2 H 0.1208 0.1123 0.4110
C4 C 0.0882(13) -0.0864(10) 0.3342(6)
C5 C 0.1637(12) -0.1660(10) 0.2443(5)
H3 H 0.2681 -0.2489 0.2668
C6 C -0.0043(14) -0.2489(10) 0.1712(7)
H4 H -0.1357 -0.1859 0.1600
H5 H -0.0412 -0.3549 0.1924
C7 C 0.1231(17) -0.2576(13) 0.0788(7)
H6 H 0.1580 -0.3678 0.0653
H7 H 0.0338 -0.2147 0.0248
C8 C 0.3377(12) -0.1563(11) 0.0980(5)
H8 H 0.4540 -0.2301 0.1209
C9 C 0.2885(11) -0.0489(9) 0.1830(5)
C10 C 0.4543(12) 0.0486(10) 0.2439(5)
H9 H 0.5512 0.1059 0.2060
H10 H 0.5386 -0.0172 0.2902
C11 C 0.1371(12) 0.2029(9) 0.2030(6)
C12 C 0.5451(17) 0.2727(13) 0.4314(7)
H11 H 0.6015 0.3677 0.4629
H12 H 0.6631 0.2083 0.4138
H13 H 0.4626 0.2130 0.4733
C13 C 0.5264(15) 0.4228(13) 0.2740(7)
H14 H 0.4327 0.4477 0.2181
H15 H 0.6498 0.3639 0.2568
H16 H 0.5745 0.5201 0.3052
C14 C -0.0538(14) -0.1835(12) 0.3950(6)
H17 H 0.0226 -0.2783 0.4172
H18 H -0.1855 -0.2131 0.3578
H19 H -0.0877 -0.1205 0.4481
C15 C 0.4104(17) -0.0703(13) 0.0104(6)
H20 H 0.3006 0.0045 -0.0132
H21 H 0.4321 -0.1476 -0.0379
H22 H 0.5437 -0.0144 0.0276
loop_
_geom_bond_atom_site_label_1
_geom_bond_atom_site_label_2
_geom_bond_site_symmetry_1
_geom_bond_site_symmetry_2
O1 H1 1_555 1_555
O2 C11 1_555 1_555
O3 C9 1_555 1_555
C1 O1 1_555 1_555
C2 C1 1_555 1_555
C3 C2 1_555 1_555
H2 C3 1_555 1_555
C4 C3 1_555 1_555
C5 C4 1_555 1_555
H3 C5 1_555 1_555
C6 C5 1_555 1_555
H4 C6 1_555 1_555
H5 C6 1_555 1_555
C7 C6 1_555 1_555
H6 C7 1_555 1_555
H7 C7 1_555 1_555
C8 C7 1_555 1_555
H8 C8 1_555 1_555
C9 C5 1_555 1_555
C10 C2 1_555 1_555
H9 C10 1_555 1_555
H10 C10 1_555 1_555
C11 O3 1_555 1_555
C12 C1 1_555 1_555
H11 C12 1_555 1_555
H12 C12 1_555 1_555
H13 C12 1_555 1_555
C13 C1 1_555 1_555
H14 C13 1_555 1_555
H15 C13 1_555 1_555
H16 C13 1_555 1_555
C14 C4 1_555 1_555
H17 C14 1_555 1_555
H18 C14 1_555 1_555
H19 C14 1_555 1_555
C15 C8 1_555 1_555
H20 C15 1_555 1_555
H21 C15 1_555 1_555
H22 C15 1_555 1_555
C2 C11 1_555 1_555
C8 C9 1_555 1_555
C9 C10 1_555 1_555

#END
