
#######################################################################
#
#                 Cambridge Crystallographic Data Centre
#                                CCDC 
#
#######################################################################
#
# If this CIF has been generated from an entry in the Cambridge 
# Structural Database, then it will include bibliographic, chemical, 
# crystal, experimental, refinement or atomic coordinate data resulting 
# from the CCDC's data processing and validation procedures.
#
#######################################################################

data_TOZPUV
_chemical_formula_moiety         'C21 H23 Br1 O6'
_chemical_name_systematic        
3b'-Bromo-6a'-isopropyl-8b'-methyl-3b',4',4a',7a',7b',8b',9',10'-octahydro-6a'H-spiro[oxirane-2,6'-trisoxireno[6,7:8a,9:4b,5]phenanthro[1,2-c]furan]-1'(3'H)-one
_chemical_properties_biological  'cytotoxic activity'
_symmetry_cell_setting           orthorhombic
_symmetry_space_group_name_H-M   'P 21 21 21'
_symmetry_Int_Tables_number      19
_space_group_name_Hall           'P 2ac 2ab'
loop_
_symmetry_equiv_pos_site_id
_symmetry_equiv_pos_as_xyz
1 x,y,z
2 1/2-x,-y,1/2+z
3 -x,1/2+y,1/2-z
4 1/2+x,1/2-y,-z
_cell_length_a                   7.7214(13)
_cell_length_b                   11.7796(19)
_cell_length_c                   20.758(4)
_cell_angle_alpha                90
_cell_angle_beta                 90
_cell_angle_gamma                90
_cell_volume                     1888.04
_exptl_crystal_colour            colorless
_exptl_crystal_description       prismatic
_cell_formula_units_Z            4
loop_
_atom_site_label
_atom_site_type_symbol
_atom_site_fract_x
_atom_site_fract_y
_atom_site_fract_z
Br1 Br 0.51033(4) 0.35199(2) 0.789178(13)
O1 O -0.1282(4) 0.0898(3) 0.79641(17)
O2 O 0.1459(4) 0.0350(2) 0.81661(15)
O3 O 0.5186(3) 0.41455(14) 1.00007(8)
O4 O 0.3063(3) 0.61341(17) 0.91762(11)
O5 O 0.7154(3) 0.59110(19) 0.83815(11)
O6 O 0.8211(3) 0.54620(18) 0.98886(10)
C1 C 0.1227(4) 0.4346(3) 0.83917(16)
H1 H 0.0577 0.5006 0.8531
H2 H 0.1797 0.4535 0.7989
C2 C -0.0019(5) 0.3367(3) 0.82774(15)
H3 H -0.0894 0.3363 0.8612
H4 H -0.0597 0.3470 0.7867
C3 C 0.0915(5) 0.2263(3) 0.82776(15)
C4 C 0.2554(5) 0.2111(2) 0.84369(15)
C5 C 0.3710(4) 0.3043(2) 0.86707(14)
C6 C 0.5086(5) 0.2662(2) 0.91505(14)
H5 H 0.4536 0.2212 0.9484
H6 H 0.5911 0.2178 0.8930
C7 C 0.6052(4) 0.3629(2) 0.94627(13)
H7 H 0.7306 0.3528 0.9507
C8 C 0.5438(3) 0.4813(2) 0.94246(12)
C9 C 0.3847(4) 0.5051(2) 0.90273(13)
C10 C 0.2615(4) 0.4061(2) 0.89047(13)
C11 C 0.3975(4) 0.5994(2) 0.85712(15)
H8 H 0.3251 0.5937 0.8185
C12 C 0.5645(5) 0.6597(3) 0.84925(15)
H9 H 0.5591 0.7304 0.8245
C13 C 0.7000(4) 0.6546(3) 0.89751(14)
C14 C 0.6687(4) 0.5782(2) 0.95344(14)
C15 C 0.8226(4) 0.7560(3) 0.90549(16)
H10 H 0.9031 0.7391 0.9407
C16 C 0.7175(6) 0.8640(3) 0.9239(2)
H11 H 0.6439 0.8851 0.8886
H12 H 0.7959 0.9251 0.9332
H13 H 0.6480 0.8484 0.9612
C17 C 0.9271(5) 0.7783(3) 0.84534(18)
H14 H 0.9959 0.7127 0.8354
H15 H 1.0016 0.8424 0.8522
H16 H 0.8502 0.7939 0.8101
C18 C 0.0187(7) 0.1133(3) 0.81127(18)
C19 C 0.3056(6) 0.0879(3) 0.8371(2)
H17 H 0.3960 0.0781 0.8052
H18 H 0.3448 0.0570 0.8779
C20 C 0.1650(4) 0.3753(3) 0.95349(15)
H19 H 0.2478 0.3601 0.9869
H20 H 0.0949 0.3092 0.9465
H21 H 0.0924 0.4377 0.9662
C21 C 0.6950(4) 0.6173(3) 1.01954(15)
H22 H 0.7242 0.6966 1.0260
H23 H 0.6238 0.5840 1.0531
loop_
_geom_bond_atom_site_label_1
_geom_bond_atom_site_label_2
_geom_bond_site_symmetry_1
_geom_bond_site_symmetry_2
Br1 C5 1_555 1_555
O1 C18 1_555 1_555
O2 C18 1_555 1_555
O3 C7 1_555 1_555
O4 C9 1_555 1_555
O5 C12 1_555 1_555
O6 C14 1_555 1_555
C1 H1 1_555 1_555
H2 C1 1_555 1_555
C2 C1 1_555 1_555
H3 C2 1_555 1_555
H4 C2 1_555 1_555
C3 C2 1_555 1_555
C4 C3 1_555 1_555
C5 C4 1_555 1_555
C6 C5 1_555 1_555
H5 C6 1_555 1_555
H6 C6 1_555 1_555
C7 C6 1_555 1_555
H7 C7 1_555 1_555
C8 O3 1_555 1_555
C9 C8 1_555 1_555
C10 C1 1_555 1_555
C11 O4 1_555 1_555
H8 C11 1_555 1_555
C12 C11 1_555 1_555
H9 C12 1_555 1_555
C13 O5 1_555 1_555
C14 C8 1_555 1_555
C15 C13 1_555 1_555
H10 C15 1_555 1_555
C16 C15 1_555 1_555
H11 C16 1_555 1_555
H12 C16 1_555 1_555
H13 C16 1_555 1_555
C17 C15 1_555 1_555
H14 C17 1_555 1_555
H15 C17 1_555 1_555
H16 C17 1_555 1_555
C18 C3 1_555 1_555
C19 O2 1_555 1_555
H17 C19 1_555 1_555
H18 C19 1_555 1_555
C20 C10 1_555 1_555
H19 C20 1_555 1_555
H20 C20 1_555 1_555
H21 C20 1_555 1_555
C21 O6 1_555 1_555
H22 C21 1_555 1_555
H23 C21 1_555 1_555
C4 C19 1_555 1_555
C5 C10 1_555 1_555
C7 C8 1_555 1_555
C9 C10 1_555 1_555
C9 C11 1_555 1_555
C12 C13 1_555 1_555
C13 C14 1_555 1_555
C14 C21 1_555 1_555

#END
