
#######################################################################
#
#                 Cambridge Crystallographic Data Centre
#                                CCDC 
#
#######################################################################
#
# If this CIF has been generated from an entry in the Cambridge 
# Structural Database, then it will include bibliographic, chemical, 
# crystal, experimental, refinement or atomic coordinate data resulting 
# from the CCDC's data processing and validation procedures.
#
#######################################################################

data_TOZQEG
_chemical_formula_moiety         'C20 H24 O8'
_chemical_name_systematic        
3b,4,6-Trihydroxy-6a-isopropyl-8b-methyl-3b,4,4a,6,6a,7a,7b,8b,9,10-decahydrotrisoxireno[6,7:8a,9:4b,5]phenanthro[1,2-c]furan-1(3H)-one
_chemical_properties_biological  'cytotoxic activity'
_symmetry_cell_setting           monoclinic
_symmetry_space_group_name_H-M   'P 21'
_symmetry_Int_Tables_number      4
_space_group_name_Hall           'P 2yb'
loop_
_symmetry_equiv_pos_site_id
_symmetry_equiv_pos_as_xyz
1 x,y,z
2 -x,1/2+y,-z
_cell_length_a                   11.635(2)
_cell_length_b                   6.4293(12)
_cell_length_c                   12.795(2)
_cell_angle_alpha                90
_cell_angle_beta                 113.655(3)
_cell_angle_gamma                90
_cell_volume                     876.709
_exptl_crystal_colour            colorless
_cell_formula_units_Z            2
loop_
_atom_site_label
_atom_site_type_symbol
_atom_site_fract_x
_atom_site_fract_y
_atom_site_fract_z
O1 O 0.3696(3) 0.5362(7) -0.0851(3)
O2 O 0.5784(3) 0.5312(7) -0.0263(3)
O3 O 0.7354(3) 0.7212(6) 0.3381(3)
O4 O 0.9038(3) 0.5022(7) 0.2997(3)
O5 O 0.8120(5) 0.2181(7) 0.7075(3)
O6 O 0.8246(3) 0.1566(5) 0.4904(3)
O7 O 0.6077(3) 0.4466(6) 0.5468(3)
O8 O 0.8909(3) 0.7370(6) 0.6383(3)
C1 C 0.4910(4) 0.5726(9) 0.3013(4)
H1 H 0.4371 0.5393 0.3404
H2 H 0.5157 0.7173 0.3167
C2 C 0.4170(4) 0.5436(10) 0.1723(4)
H3 H 0.3686 0.4160 0.1579
H4 H 0.3594 0.6588 0.1417
C3 C 0.5062(4) 0.5342(9) 0.1154(4)
C4 C 0.6314(4) 0.5216(9) 0.1686(3)
C5 C 0.7005(4) 0.5133(8) 0.2964(4)
C6 C 0.8204(5) 0.3819(9) 0.3323(4)
C7 C 0.8791(5) 0.3323(9) 0.4593(4)
C8 C 0.8078(5) 0.3581(8) 0.5309(4)
C9 C 0.6804(4) 0.4602(8) 0.4768(4)
C10 C 0.6095(4) 0.4341(8) 0.3491(4)
C11 C 0.6653(4) 0.6429(9) 0.5378(4)
C12 C 0.7690(5) 0.7165(10) 0.6443(4)
C13 C 0.8709(4) 0.5754(8) 0.7086(4)
C14 C 0.8715(5) 0.3661(9) 0.6608(5)
C15 C 0.9403(5) 0.6128(11) 0.8366(5)
C16 C 0.8660(6) 0.5305(14) 0.9038(4)
H5 H 0.8652 0.3812 0.9020
H6 H 0.7815 0.5816 0.8699
H7 H 0.9050 0.5771 0.9814
C17 C 1.0720(5) 0.5186(14) 0.8832(4)
H8 H 1.1187 0.5758 0.8429
H9 H 1.0659 0.3704 0.8730
H10 H 1.1139 0.5504 0.9630
C18 C 0.4722(5) 0.5343(9) -0.0068(4)
C19 C 0.6858(5) 0.5250(12) 0.0813(4)
C20 C 0.5690(5) 0.2057(9) 0.3201(5)
H11 H 0.798(4) 0.255(9) 0.294(4)
H12 H 0.976(5) 0.338(8) 0.503(4)
H13 H 0.606(4) 0.753(8) 0.497(3)
H14 H 0.750(4) 0.834(8) 0.681(4)
H15 H 0.948(5) 0.307(8) 0.674(4)
H16 H 0.950(4) 0.775(9) 0.852(4)
H17 H 0.729(4) 0.400(8) 0.075(3)
H18 H 0.736(5) 0.641(8) 0.092(4)
H19 H 0.632(4) 0.095(8) 0.344(4)
H20 H 0.526(5) 0.161(10) 0.241(5)
H21 H 0.516(6) 0.150(11) 0.350(5)
H22 H 0.807(5) 0.704(8) 0.326(9)
H23 H 0.970(5) 0.406(9) 0.308(4)
H24 H 0.738(11) 0.30(3) 0.675(13)
loop_
_geom_bond_atom_site_label_1
_geom_bond_atom_site_label_2
_geom_bond_site_symmetry_1
_geom_bond_site_symmetry_2
O1 C18 1_555 1_555
O2 C18 1_555 1_555
O3 C5 1_555 1_555
O4 C6 1_555 1_555
O5 C14 1_555 1_555
O6 C7 1_555 1_555
O7 C9 1_555 1_555
O8 C12 1_555 1_555
C1 H1 1_555 1_555
H2 C1 1_555 1_555
C2 C1 1_555 1_555
H3 C2 1_555 1_555
H4 C2 1_555 1_555
C3 C2 1_555 1_555
C4 C3 1_555 1_555
C5 C4 1_555 1_555
C6 C5 1_555 1_555
C7 C6 1_555 1_555
C8 O6 1_555 1_555
C9 C8 1_555 1_555
C10 C1 1_555 1_555
C11 O7 1_555 1_555
C12 C11 1_555 1_555
C13 O8 1_555 1_555
C14 C8 1_555 1_555
C15 C13 1_555 1_555
C16 C15 1_555 1_555
H5 C16 1_555 1_555
H6 C16 1_555 1_555
H7 C16 1_555 1_555
C17 C15 1_555 1_555
H8 C17 1_555 1_555
H9 C17 1_555 1_555
H10 C17 1_555 1_555
C18 C3 1_555 1_555
C19 O2 1_555 1_555
C20 C10 1_555 1_555
H11 C6 1_555 1_555
H12 C7 1_555 1_555
H13 C11 1_555 1_555
H14 C12 1_555 1_555
H15 C14 1_555 1_555
H16 C15 1_555 1_555
H17 C19 1_555 1_555
H18 C19 1_555 1_555
H19 C20 1_555 1_555
H20 C20 1_555 1_555
H21 C20 1_555 1_555
H22 O3 1_555 1_555
H23 O4 1_555 1_555
H24 O5 1_555 1_555
C4 C19 1_555 1_555
C5 C10 1_555 1_555
C7 C8 1_555 1_555
C9 C10 1_555 1_555
C9 C11 1_555 1_555
C12 C13 1_555 1_555
C13 C14 1_555 1_555

#END
