
#######################################################################
#
#                 Cambridge Crystallographic Data Centre
#                                CCDC 
#
#######################################################################
#
# If this CIF has been generated from an entry in the Cambridge 
# Structural Database, then it will include bibliographic, chemical, 
# crystal, experimental, refinement or atomic coordinate data resulting 
# from the CCDC's data processing and validation procedures.
#
#######################################################################

data_TOZTIN
_chemical_name_common            'Hexamethylenetetraminium hydrogen succinate'
_chemical_formula_moiety         'C6 H13 N4 1+,C4 H5 O4 1-'
_chemical_name_systematic        
'3,5,7-Triaza-1-azoniatricyclo[3.3.1.1^3,7^]decane 3-carboxypropanoate'
_symmetry_cell_setting           monoclinic
_symmetry_space_group_name_H-M   'P 21/c'
_symmetry_Int_Tables_number      14
_space_group_name_Hall           '-P 2ybc'
loop_
_symmetry_equiv_pos_site_id
_symmetry_equiv_pos_as_xyz
1 x,y,z
2 -x,1/2+y,1/2-z
3 -x,-y,-z
4 x,1/2-y,1/2+z
_cell_length_a                   6.0059(7)
_cell_length_b                   18.264(2)
_cell_length_c                   11.7559(12)
_cell_angle_alpha                90
_cell_angle_beta                 99.330(3)
_cell_angle_gamma                90
_cell_volume                     1272.47
_exptl_crystal_colour            colorless
_exptl_crystal_description       plate
_cell_formula_units_Z            4
loop_
_atom_site_label
_atom_site_type_symbol
_atom_site_fract_x
_atom_site_fract_y
_atom_site_fract_z
C1 C 0.9534(5) 0.83693(16) 1.1259(2)
H1 H 0.9964 0.8838 1.1618
H2 H 0.7954 0.8287 1.1302
C2 C 1.3256(4) 0.79290(15) 1.1819(2)
H3 H 1.3714 0.8392 1.2188
H4 H 1.4173 0.7547 1.2233
C3 C 1.0245(5) 0.70934(15) 1.1343(2)
H5 H 0.8671 0.6995 1.1380
H6 H 1.1141 0.6708 1.1760
C4 C 1.2257(5) 0.85151(16) 1.0007(2)
H7 H 1.2502 0.8525 0.9211
H8 H 1.2701 0.8987 1.0348
C5 C 1.2977(5) 0.72486(17) 1.0095(3)
H9 H 1.3907 0.6864 1.0495
H10 H 1.3224 0.7253 0.9300
C6 C 0.9197(5) 0.76753(15) 0.9518(2)
H11 H 1.012(11) 0.641(4) 0.971(6)
H12 H 0.941(4) 0.7689(14) 0.875(2)
H13 H 0.762(5) 0.7585(17) 0.957(3)
N1 N 0.9832(4) 0.83948(11) 1.00349(18)
N2 N 1.0879(4) 0.77941(12) 1.18926(17)
N3 N 1.0584(4) 0.70853(12) 1.01274(18)
N4 N 1.3662(3) 0.79482(13) 1.0625(2)
C7 C 0.7637(6) 0.5654(2) 0.8987(3)
C8 C 0.6889(6) 0.4932(2) 0.8392(4)
H14 H 0.8013 0.4775 0.7937
H15 H 0.6791 0.4560 0.8971
C9 C 0.3827(5) 0.43328(16) 0.7018(3)
C10 C 0.4763(8) 0.4995(2) 0.7663(5)
H16 H 0.4886 0.5378 0.7105
H17 H 0.3671 0.5158 0.8132
H18 H 0.170(8) 0.404(3) 0.574(4)
O1 O 0.9706(5) 0.57954(14) 0.9052(3)
O2 O 0.2210(6) 0.44964(14) 0.6175(3)
O3 O 0.4461(4) 0.37300(11) 0.7209(2)
O4 O 0.6390(6) 0.6029(2) 0.9379(5)
loop_
_geom_bond_atom_site_label_1
_geom_bond_atom_site_label_2
_geom_bond_site_symmetry_1
_geom_bond_site_symmetry_2
C1 H1 1_555 1_555
H2 C1 1_555 1_555
C2 H3 1_555 1_555
H4 C2 1_555 1_555
C3 H5 1_555 1_555
H6 C3 1_555 1_555
C4 H7 1_555 1_555
H8 C4 1_555 1_555
C5 H9 1_555 1_555
H10 C5 1_555 1_555
C6 H12 1_555 1_555
H11 N3 1_555 1_555
H13 C6 1_555 1_555
N1 C1 1_555 1_555
N2 C1 1_555 1_555
N3 C3 1_555 1_555
N4 C2 1_555 1_555
C7 C8 1_555 1_555
C8 H14 1_555 1_555
H15 C8 1_555 1_555
C9 C10 1_555 1_555
C10 C8 1_555 1_555
H16 C10 1_555 1_555
H17 C10 1_555 1_555
H18 O2 1_555 1_555
O1 C7 1_555 1_555
O2 C9 1_555 1_555
O3 C9 1_555 1_555
O4 C7 1_555 1_555
C2 N2 1_555 1_555
C3 N2 1_555 1_555
C4 N1 1_555 1_555
C4 N4 1_555 1_555
C5 N3 1_555 1_555
C5 N4 1_555 1_555
C6 N1 1_555 1_555
C6 N3 1_555 1_555

#END
