
#######################################################################
#
#                 Cambridge Crystallographic Data Centre
#                                CCDC 
#
#######################################################################
#
# If this CIF has been generated from an entry in the Cambridge 
# Structural Database, then it will include bibliographic, chemical, 
# crystal, experimental, refinement or atomic coordinate data resulting 
# from the CCDC's data processing and validation procedures.
#
#######################################################################

data_TPASDF01
_chemical_formula_moiety         'C18 H15 As1 F2'
_chemical_name_systematic        Difluoridotriphenylarsenic(v)
_symmetry_cell_setting           orthorhombic
_symmetry_space_group_name_H-M   'P b c n'
_symmetry_Int_Tables_number      60
_space_group_name_Hall           '-P 2n 2ab'
loop_
_symmetry_equiv_pos_site_id
_symmetry_equiv_pos_as_xyz
1 x,y,z
2 1/2-x,1/2-y,1/2+z
3 -x,y,1/2-z
4 1/2+x,1/2-y,-z
5 -x,-y,-z
6 1/2+x,1/2+y,1/2-z
7 x,-y,1/2+z
8 1/2-x,1/2+y,z
_cell_length_a                   6.1975(15)
_cell_length_b                   16.400(4)
_cell_length_c                   14.368(3)
_cell_angle_alpha                90
_cell_angle_beta                 90
_cell_angle_gamma                90
_cell_volume                     1460.35
_exptl_crystal_colour            colorless
_exptl_crystal_description       block
_cell_formula_units_Z            4
loop_
_atom_site_label
_atom_site_type_symbol
_atom_site_fract_x
_atom_site_fract_y
_atom_site_fract_z
As1 As 0.0000 0.248379(16) 0.2500
F1 F 0.28316(19) 0.24686(7) 0.28474(9)
C1 C 0.0738(3) 0.30674(11) 0.13825(14)
C2 C 0.2810(4) 0.30070(12) 0.10095(15)
H1 H 0.3887 0.2693 0.1315
C3 C 0.3278(4) 0.34139(13) 0.01822(15)
H2 H 0.4673 0.3366 -0.0086
C4 C 0.1729(4) 0.38865(13) -0.02520(16)
H3 H 0.2068 0.4165 -0.0813
C5 C -0.0313(4) 0.39550(13) 0.01289(15)
H4 H -0.1365 0.4287 -0.0167
C6 C -0.0833(4) 0.35397(12) 0.09441(14)
H5 H -0.2244 0.3578 0.1199
C7 C 0.0000 0.13111(17) 0.2500
C8 C 0.1803(4) 0.08912(13) 0.21823(15)
H6 H 0.3041 0.1181 0.1976
C9 C 0.1781(4) 0.00413(13) 0.21686(17)
H7 H 0.2987 -0.0250 0.1932
C10 C 0.0000 -0.03786(18) 0.2500
H8 H 0.0000 -0.0958 0.2500
F1B F -0.28316(19) 0.24686(7) 0.21526(9)
C1B C -0.0738(3) 0.30674(11) 0.36175(14)
C2B C -0.2810(4) 0.30070(12) 0.39905(15)
H1B H -0.3887 0.2693 0.3685
C3B C -0.3278(4) 0.34139(13) 0.48178(15)
H2B H -0.4673 0.3366 0.5086
C4B C -0.1729(4) 0.38865(13) 0.52520(16)
H3B H -0.2068 0.4165 0.5813
C5B C 0.0313(4) 0.39550(13) 0.48711(15)
H4B H 0.1365 0.4287 0.5167
C6B C 0.0833(4) 0.35397(12) 0.40559(14)
H5B H 0.2244 0.3578 0.3801
C8B C -0.1803(4) 0.08912(13) 0.28177(15)
H6B H -0.3041 0.1181 0.3024
C9B C -0.1781(4) 0.00413(13) 0.28314(17)
H7B H -0.2987 -0.0250 0.3068
loop_
_geom_bond_atom_site_label_1
_geom_bond_atom_site_label_2
_geom_bond_site_symmetry_1
_geom_bond_site_symmetry_2
As1 F1 1_555 1_555
C1 As1 1_555 1_555
C2 C1 1_555 1_555
H1 C2 1_555 1_555
C3 C2 1_555 1_555
H2 C3 1_555 1_555
C4 C3 1_555 1_555
H3 C4 1_555 1_555
C5 C4 1_555 1_555
H4 C5 1_555 1_555
C6 C1 1_555 1_555
H5 C6 1_555 1_555
C7 As1 1_555 1_555
C8 C7 1_555 1_555
H6 C8 1_555 1_555
C9 C8 1_555 1_555
H7 C9 1_555 1_555
C10 C9 1_555 1_555
H8 C10 1_555 1_555
F1B As1 1_555 1_555
C1B As1 1_555 1_555
C2B C1B 1_555 1_555
H1B C2B 1_555 1_555
C3B C2B 1_555 1_555
H2B C3B 1_555 1_555
C4B C3B 1_555 1_555
H3B C4B 1_555 1_555
C5B C4B 1_555 1_555
H4B C5B 1_555 1_555
C6B C1B 1_555 1_555
H5B C6B 1_555 1_555
C8B C7 1_555 1_555
H6B C8B 1_555 1_555
C9B C10 1_555 1_555
H7B C9B 1_555 1_555
C5 C6 1_555 1_555
C5B C6B 1_555 1_555
C8B C9B 1_555 1_555

#END
