
#######################################################################
#
#                 Cambridge Crystallographic Data Centre
#                                CCDC 
#
#######################################################################
#
# If this CIF has been generated from an entry in the Cambridge 
# Structural Database, then it will include bibliographic, chemical, 
# crystal, experimental, refinement or atomic coordinate data resulting 
# from the CCDC's data processing and validation procedures.
#
#######################################################################

data_TPHETY08
_chemical_formula_moiety         'C26 H20'
_chemical_name_systematic        (P)-(triphenylvinyl)benzene
_symmetry_cell_setting           monoclinic
_symmetry_space_group_name_H-M   'P 21'
_symmetry_Int_Tables_number      4
_space_group_name_Hall           'P 2yb'
loop_
_symmetry_equiv_pos_site_id
_symmetry_equiv_pos_as_xyz
1 x,y,z
2 -x,1/2+y,-z
_cell_length_a                   9.786(2)
_cell_length_b                   9.2060(18)
_cell_length_c                   10.773(2)
_cell_angle_alpha                90
_cell_angle_beta                 107.92(3)
_cell_angle_gamma                90
_cell_volume                     923.455
_exptl_crystal_colour            colorless
_exptl_crystal_description       Block
_cell_formula_units_Z            2
loop_
_atom_site_label
_atom_site_type_symbol
_atom_site_fract_x
_atom_site_fract_y
_atom_site_fract_z
C1 C 0.97825(12) 0.50219(13) 0.70559(11)
H1 H 1.0092 0.4252 0.7665
C2 C 1.07200(12) 0.55847(14) 0.64338(12)
H2 H 1.1662 0.5198 0.6618
C3 C 1.02764(14) 0.67144(16) 0.55410(13)
H3 H 1.0910 0.7095 0.5108
C4 C 0.88999(14) 0.72820(16) 0.52870(13)
H4 H 0.8596 0.8055 0.4680
C5 C 0.79651(12) 0.67278(14) 0.59129(12)
H5 H 0.7032 0.7133 0.5740
C6 C 0.83888(11) 0.55755(12) 0.67963(10)
C7 C 0.74249(11) 0.49990(12) 0.75136(10)
C8 C 0.81056(11) 0.48108(12) 0.89487(10)
C9 C 0.78958(13) 0.35554(14) 0.95997(12)
H6 H 0.7331 0.2783 0.9119
C10 C 0.85079(14) 0.34280(17) 1.09471(13)
H7 H 0.8346 0.2576 1.1379
C11 C 0.93522(14) 0.45374(18) 1.16606(12)
H8 H 0.9760 0.4451 1.2580
C12 C 0.95958(14) 0.57749(17) 1.10210(13)
H9 H 1.0182 0.6532 1.1504
C13 C 0.89818(13) 0.59108(14) 0.96702(12)
H10 H 0.9161 0.6757 0.9240
C14 C 0.58840(15) 0.40894(15) 0.45996(13)
H11 H 0.6806 0.3651 0.4900
C15 C 0.51273(19) 0.40898(18) 0.32660(14)
H12 H 0.5539 0.3648 0.2668
C16 C 0.37838(19) 0.4729(2) 0.28107(13)
H13 H 0.3273 0.4721 0.1905
C17 C 0.31875(16) 0.53809(19) 0.36841(13)
H14 H 0.2273 0.5835 0.3377
C18 C 0.39325(13) 0.53682(15) 0.50121(11)
H15 H 0.3509 0.5803 0.5605
C19 C 0.52906(12) 0.47299(13) 0.54927(10)
C20 C 0.60096(11) 0.47067(12) 0.69289(10)
C21 C 0.50383(11) 0.43675(12) 0.77222(10)
C22 C 0.42491(12) 0.30752(13) 0.75136(11)
H16 H 0.4309 0.2427 0.6846
C23 C 0.33754(13) 0.27324(15) 0.82789(12)
H17 H 0.2863 0.1840 0.8148
C24 C 0.32532(14) 0.36994(16) 0.92373(12)
H18 H 0.2659 0.3467 0.9760
C25 C 0.40068(14) 0.50070(15) 0.94247(12)
H19 H 0.3915 0.5674 1.0067
C26 C 0.48931(12) 0.53373(13) 0.86723(11)
H20 H 0.5404 0.6230 0.8805
loop_
_geom_bond_atom_site_label_1
_geom_bond_atom_site_label_2
_geom_bond_site_symmetry_1
_geom_bond_site_symmetry_2
C1 H1 1_555 1_555
C2 C1 1_555 1_555
H2 C2 1_555 1_555
C3 C2 1_555 1_555
H3 C3 1_555 1_555
C4 C3 1_555 1_555
H4 C4 1_555 1_555
C5 C4 1_555 1_555
H5 C5 1_555 1_555
C6 C1 1_555 1_555
C7 C6 1_555 1_555
C8 C7 1_555 1_555
C9 C8 1_555 1_555
H6 C9 1_555 1_555
C10 C9 1_555 1_555
H7 C10 1_555 1_555
C11 C10 1_555 1_555
H8 C11 1_555 1_555
C12 C11 1_555 1_555
H9 C12 1_555 1_555
C13 C8 1_555 1_555
H10 C13 1_555 1_555
C14 H11 1_555 1_555
C15 C14 1_555 1_555
H12 C15 1_555 1_555
C16 C15 1_555 1_555
H13 C16 1_555 1_555
C17 C16 1_555 1_555
H14 C17 1_555 1_555
C18 C17 1_555 1_555
H15 C18 1_555 1_555
C19 C14 1_555 1_555
C20 C7 1_555 1_555
C21 C20 1_555 1_555
C22 C21 1_555 1_555
H16 C22 1_555 1_555
C23 C22 1_555 1_555
H17 C23 1_555 1_555
C24 C23 1_555 1_555
H18 C24 1_555 1_555
C25 C24 1_555 1_555
H19 C25 1_555 1_555
C26 C21 1_555 1_555
H20 C26 1_555 1_555
C5 C6 1_555 1_555
C12 C13 1_555 1_555
C18 C19 1_555 1_555
C19 C20 1_555 1_555
C25 C26 1_555 1_555

#END
