
#######################################################################
#
#                 Cambridge Crystallographic Data Centre
#                                CCDC 
#
#######################################################################
#
# If this CIF has been generated from an entry in the Cambridge 
# Structural Database, then it will include bibliographic, chemical, 
# crystal, experimental, refinement or atomic coordinate data resulting 
# from the CCDC's data processing and validation procedures.
#
#######################################################################

data_TPHETY07
_chemical_formula_moiety         'C26 H20'
_chemical_name_systematic        (P)-(triphenylvinyl)benzene
_symmetry_cell_setting           monoclinic
_symmetry_space_group_name_H-M   'P 21'
_symmetry_Int_Tables_number      4
_space_group_name_Hall           'P 2yb'
loop_
_symmetry_equiv_pos_site_id
_symmetry_equiv_pos_as_xyz
1 x,y,z
2 -x,1/2+y,-z
_cell_length_a                   9.786(2)
_cell_length_b                   9.2050(18)
_cell_length_c                   10.773(2)
_cell_angle_alpha                90
_cell_angle_beta                 107.92(3)
_cell_angle_gamma                90
_cell_volume                     923.355
_exptl_crystal_colour            colorless
_exptl_crystal_description       Block
_cell_formula_units_Z            2
loop_
_atom_site_label
_atom_site_type_symbol
_atom_site_fract_x
_atom_site_fract_y
_atom_site_fract_z
C1 C 0.60650(15) 0.53665(17) 0.49891(13)
H1 H 0.6489 0.5801 0.4396
C2 C 0.68099(18) 0.5377(2) 0.63172(15)
H2 H 0.7725 0.5829 0.6626
C3 C 0.6212(2) 0.4725(2) 0.71881(15)
H3 H 0.6722 0.4715 0.8094
C4 C 0.4871(2) 0.4089(2) 0.67342(16)
H4 H 0.4459 0.3649 0.7333
C5 C 0.41158(18) 0.40889(18) 0.54019(15)
H5 H 0.3194 0.3649 0.5102
C6 C 0.47070(14) 0.47306(15) 0.45089(12)
C7 C 0.39889(14) 0.47053(14) 0.30711(12)
C8 C 0.49632(14) 0.43648(14) 0.22775(12)
C9 C 0.51081(15) 0.53360(15) 0.13279(13)
H6 H 0.4597 0.6229 0.1195
C10 C 0.59949(16) 0.50052(18) 0.05760(14)
H7 H 0.6088 0.5672 -0.0066
C11 C 0.67458(17) 0.36972(18) 0.07644(15)
H8 H 0.7340 0.3463 0.0242
C12 C 0.66239(16) 0.27311(17) 0.17223(15)
H9 H 0.7138 0.1840 0.1855
C13 C 0.57482(15) 0.30732(15) 0.24848(13)
H10 H 0.5685 0.2423 0.3150
C14 C 0.20343(15) 0.67263(16) 0.40884(14)
H11 H 0.2968 0.7131 0.4263
C15 C 0.10976(17) 0.72824(18) 0.47123(15)
H12 H 0.1399 0.8057 0.5317
C16 C -0.02753(17) 0.67133(19) 0.44579(15)
H13 H -0.0909 0.7094 0.4891
C17 C -0.07192(14) 0.55838(17) 0.35673(14)
H14 H -0.1661 0.5197 0.3384
C18 C 0.02186(15) 0.50207(16) 0.29451(14)
H15 H -0.0091 0.4251 0.2336
C19 C 0.16108(14) 0.55745(15) 0.32049(13)
C20 C 0.25748(14) 0.49983(15) 0.24870(12)
C21 C 0.18964(14) 0.48100(15) 0.10506(13)
C22 C 0.10194(15) 0.59096(16) 0.03313(14)
H16 H 0.0840 0.6755 0.0762
C23 C 0.04040(17) 0.57732(19) -0.10207(15)
H17 H -0.0183 0.6531 -0.1503
C24 C 0.06470(17) 0.4537(2) -0.16598(14)
H18 H 0.0238 0.4451 -0.2579
C25 C 0.14889(17) 0.34287(19) -0.09495(15)
H19 H 0.1650 0.2577 -0.1383
C26 C 0.21025(15) 0.35532(16) 0.03984(14)
H20 H 0.2665 0.2779 0.0878
loop_
_geom_bond_atom_site_label_1
_geom_bond_atom_site_label_2
_geom_bond_site_symmetry_1
_geom_bond_site_symmetry_2
C1 H1 1_555 1_555
C2 C1 1_555 1_555
H2 C2 1_555 1_555
C3 C2 1_555 1_555
H3 C3 1_555 1_555
C4 C3 1_555 1_555
H4 C4 1_555 1_555
C5 C4 1_555 1_555
H5 C5 1_555 1_555
C6 C1 1_555 1_555
C7 C6 1_555 1_555
C8 C7 1_555 1_555
C9 C8 1_555 1_555
H6 C9 1_555 1_555
C10 C9 1_555 1_555
H7 C10 1_555 1_555
C11 C10 1_555 1_555
H8 C11 1_555 1_555
C12 C11 1_555 1_555
H9 C12 1_555 1_555
C13 C8 1_555 1_555
H10 C13 1_555 1_555
C14 H11 1_555 1_555
C15 C14 1_555 1_555
H12 C15 1_555 1_555
C16 C15 1_555 1_555
H13 C16 1_555 1_555
C17 C16 1_555 1_555
H14 C17 1_555 1_555
C18 C17 1_555 1_555
H15 C18 1_555 1_555
C19 C14 1_555 1_555
C20 C7 1_555 1_555
C21 C20 1_555 1_555
C22 C21 1_555 1_555
H16 C22 1_555 1_555
C23 C22 1_555 1_555
H17 C23 1_555 1_555
C24 C23 1_555 1_555
H18 C24 1_555 1_555
C25 C24 1_555 1_555
H19 C25 1_555 1_555
C26 C21 1_555 1_555
H20 C26 1_555 1_555
C5 C6 1_555 1_555
C12 C13 1_555 1_555
C18 C19 1_555 1_555
C19 C20 1_555 1_555
C25 C26 1_555 1_555

#END
