
#######################################################################
#
#                 Cambridge Crystallographic Data Centre
#                                CCDC 
#
#######################################################################
#
# If this CIF has been generated from an entry in the Cambridge 
# Structural Database, then it will include bibliographic, chemical, 
# crystal, experimental, refinement or atomic coordinate data resulting 
# from the CCDC's data processing and validation procedures.
#
#######################################################################

data_TPHETY09
_chemical_formula_moiety         'C26 H20'
_chemical_name_systematic        
1,1',1'',1'''-(ethene-1,1,2,2-tetrayl)tetrabenzene
_symmetry_cell_setting           monoclinic
_symmetry_space_group_name_H-M   'P 21'
_symmetry_Int_Tables_number      4
_space_group_name_Hall           'P 2yb'
loop_
_symmetry_equiv_pos_site_id
_symmetry_equiv_pos_as_xyz
1 x,y,z
2 -x,1/2+y,-z
_cell_length_a                   9.7980(14)
_cell_length_b                   9.2403(13)
_cell_length_c                   10.7647(15)
_cell_angle_alpha                90
_cell_angle_beta                 107.823(2)
_cell_angle_gamma                90
_cell_volume                     927.824
_exptl_crystal_colour            colorless
_exptl_crystal_description       block
_cell_formula_units_Z            2
loop_
_atom_site_label
_atom_site_type_symbol
_atom_site_fract_x
_atom_site_fract_y
_atom_site_fract_z
C1 C 0.6038(2) 0.3092(2) 0.6937(2)
C2 C 0.7443(2) 0.2789(2) 0.7527(2)
C3 C 0.8122(2) 0.2964(2) 0.8964(2)
C4 C 0.8985(2) 0.1870(3) 0.9685(2)
H1 H 0.9214 0.1037 0.9212
C5 C 0.9593(3) 0.1999(3) 1.1027(2)
H2 H 1.0175 0.1241 1.1507
C6 C 0.9354(3) 0.3224(3) 1.1664(2)
H3 H 0.9761 0.3307 1.2584
C7 C 0.8520(3) 0.4327(3) 1.0957(2)
H4 H 0.8361 0.5175 1.1393
C8 C 0.7915(2) 0.4210(3) 0.9626(2)
H5 H 0.7352 0.4983 0.9151
C9 C 0.5052(2) 0.3431(2) 0.7724(2)
C10 C 0.4894(2) 0.2461(2) 0.8662(2)
H6 H 0.5403 0.1570 0.8796
C11 C 0.3997(3) 0.2787(3) 0.9402(2)
H7 H 0.3891 0.2118 1.0037
C12 C 0.3253(3) 0.4086(3) 0.9217(2)
H8 H 0.2650 0.4317 0.9732
C13 C 0.3398(3) 0.5049(3) 0.8271(2)
H9 H 0.2892 0.5941 0.8140
C14 C 0.4270(2) 0.4714(2) 0.7525(2)
H10 H 0.4340 0.5367 0.6866
C15 C 0.5332(2) 0.3091(2) 0.5503(2)
C16 C 0.3975(3) 0.2468(3) 0.5000(2)
H11 H 0.3532 0.2034 0.5579
C17 C 0.3264(3) 0.2471(3) 0.3671(2)
H12 H 0.2352 0.2021 0.3348
C18 C 0.3860(4) 0.3112(4) 0.2830(3)
H13 H 0.3359 0.3131 0.1922
C19 C 0.5197(4) 0.3736(3) 0.3297(3)
H14 H 0.5618 0.4174 0.2705
C20 C 0.5940(3) 0.3734(3) 0.4626(2)
H15 H 0.6861 0.4169 0.4934
C21 C 0.8406(2) 0.2212(2) 0.6809(2)
C22 C 0.7982(2) 0.1076(3) 0.5921(2)
H16 H 0.7049 0.0676 0.5745
C23 C 0.8904(3) 0.0531(3) 0.5297(2)
H17 H 0.8598 -0.0240 0.4692
C24 C 1.0270(3) 0.1090(3) 0.5540(2)
H18 H 1.0896 0.0711 0.5099
C25 C 1.0717(2) 0.2206(3) 0.6431(2)
H19 H 1.1657 0.2590 0.6609
C26 C 0.9798(2) 0.2759(2) 0.7058(2)
H20 H 1.0114 0.3523 0.7669
loop_
_geom_bond_atom_site_label_1
_geom_bond_atom_site_label_2
_geom_bond_site_symmetry_1
_geom_bond_site_symmetry_2
C1 C2 1_555 1_555
C2 C3 1_555 1_555
C3 C4 1_555 1_555
C4 H1 1_555 1_555
C5 C4 1_555 1_555
H2 C5 1_555 1_555
C6 C5 1_555 1_555
H3 C6 1_555 1_555
C7 C6 1_555 1_555
H4 C7 1_555 1_555
C8 C3 1_555 1_555
H5 C8 1_555 1_555
C9 C1 1_555 1_555
C10 C9 1_555 1_555
H6 C10 1_555 1_555
C11 C10 1_555 1_555
H7 C11 1_555 1_555
C12 C11 1_555 1_555
H8 C12 1_555 1_555
C13 C12 1_555 1_555
H9 C13 1_555 1_555
C14 C9 1_555 1_555
H10 C14 1_555 1_555
C15 C1 1_555 1_555
C16 C15 1_555 1_555
H11 C16 1_555 1_555
C17 C16 1_555 1_555
H12 C17 1_555 1_555
C18 C17 1_555 1_555
H13 C18 1_555 1_555
C19 C18 1_555 1_555
H14 C19 1_555 1_555
C20 C15 1_555 1_555
H15 C20 1_555 1_555
C21 C2 1_555 1_555
C22 C21 1_555 1_555
H16 C22 1_555 1_555
C23 C22 1_555 1_555
H17 C23 1_555 1_555
C24 C23 1_555 1_555
H18 C24 1_555 1_555
C25 C24 1_555 1_555
H19 C25 1_555 1_555
C26 C21 1_555 1_555
H20 C26 1_555 1_555
C7 C8 1_555 1_555
C13 C14 1_555 1_555
C19 C20 1_555 1_555
C25 C26 1_555 1_555

#END
