
#######################################################################
#
#                 Cambridge Crystallographic Data Centre
#                                CCDC 
#
#######################################################################
#
# If this CIF has been generated from an entry in the Cambridge 
# Structural Database, then it will include bibliographic, chemical, 
# crystal, experimental, refinement or atomic coordinate data resulting 
# from the CCDC's data processing and validation procedures.
#
#######################################################################

data_TREHAL13
_chemical_formula_moiety         'C12 H22 O11,2(H2 O1)'
_chemical_name_systematic        'trehalose dihydrate'
_symmetry_cell_setting           orthorhombic
_symmetry_space_group_name_H-M   'P 21 21 21'
_symmetry_Int_Tables_number      19
_space_group_name_Hall           'P 2ac 2ab'
loop_
_symmetry_equiv_pos_site_id
_symmetry_equiv_pos_as_xyz
1 x,y,z
2 1/2-x,-y,1/2+z
3 -x,1/2+y,1/2-z
4 1/2+x,1/2-y,-z
_cell_length_a                   7.5395(4)
_cell_length_b                   12.1662(7)
_cell_length_c                   17.8065(11)
_cell_angle_alpha                90
_cell_angle_beta                 90
_cell_angle_gamma                90
_cell_volume                     1633.34
_exptl_crystal_colour            colorless
_exptl_crystal_description       block
_cell_formula_units_Z            4
loop_
_atom_site_label
_atom_site_type_symbol
_atom_site_fract_x
_atom_site_fract_y
_atom_site_fract_z
O1 O 0.50158(5) 0.54656(3) 0.71465(2)
O2 O 0.06069(5) 0.62755(4) 0.64736(2)
H1 H 0.0136(13) 0.5708(9) 0.6550(5)
O3 O 0.19584(5) 0.83063(3) 0.71166(2)
H2 H 0.1111(12) 0.8427(8) 0.6834(5)
O4 O 0.57780(5) 0.84152(3) 0.71609(2)
H3 H 0.5254(14) 0.8922(9) 0.7251(6)
O5 O 0.68670(5) 0.64800(4) 0.84653(2)
H4 H 0.6068(15) 0.6023(9) 0.8543(6)
O6 O 0.39670(5) 0.57053(3) 0.591335(19)
O7 O 0.38046(4) 0.39108(3) 0.54470(2)
O8 O 0.63240(5) 0.63122(3) 0.48033(2)
H5 H 0.5655(14) 0.6814(9) 0.4948(6)
O9 O 0.39727(5) 0.59187(4) 0.35664(2)
H6 H 0.3044(12) 0.6125(7) 0.3383(5)
O10 O 0.06480(5) 0.48916(4) 0.40152(2)
H7 H 0.0376(12) 0.5400(8) 0.4248(5)
O11 O 0.06565(5) 0.26188(3) 0.57770(2)
H8 H 0.1499(13) 0.2300(9) 0.5970(6)
C1 C 0.35159(6) 0.54485(4) 0.66629(3)
H9 H 0.3033(10) 0.4734(6) 0.6695(4)
C2 C 0.21809(6) 0.63167(4) 0.69141(3)
H10 H 0.1902(10) 0.6161(7) 0.7423(4)
C3 C 0.30497(6) 0.74429(4) 0.68374(3)
H11 H 0.3365(10) 0.7578(7) 0.6327(4)
C4 C 0.47469(6) 0.74595(4) 0.73055(3)
H12 H 0.4413(10) 0.7478(7) 0.7814(4)
C5 C 0.59727(6) 0.64888(4) 0.71358(3)
H13 H 0.6552(10) 0.6576(7) 0.6649(4)
C6 C 0.74599(6) 0.63849(5) 0.77103(3)
H14 H 0.8025(10) 0.5692(7) 0.7633(4)
H15 H 0.8295(10) 0.6969(7) 0.7629(4)
C7 C 0.48523(6) 0.48601(4) 0.55093(3)
H16 H 0.5865(9) 0.4656(6) 0.5754(4)
C8 C 0.52747(6) 0.53458(4) 0.47355(3)
H17 H 0.5941(10) 0.4843(7) 0.4472(4)
C9 C 0.35602(6) 0.55840(4) 0.43146(3)
H18 H 0.2952(9) 0.6167(6) 0.4570(4)
C10 C 0.23478(6) 0.45831(4) 0.43054(3)
H19 H 0.2813(10) 0.4041(7) 0.3968(4)
C11 C 0.21234(6) 0.40908(4) 0.50885(3)
H20 H 0.1435(10) 0.4571(6) 0.5394(4)
C12 C 0.12047(7) 0.29867(4) 0.50540(3)
H21 H 0.0167(10) 0.3040(7) 0.4762(4)
H22 H 0.2020(10) 0.2474(7) 0.4812(4)
O12 O 0.89662(6) 0.42945(4) 0.65289(3)
H23 H 0.9500(13) 0.3811(9) 0.6320(6)
H24 H 0.8541(15) 0.4031(10) 0.6914(7)
O13 O 0.98053(5) 0.66630(4) 0.49927(2)
H25 H 0.8781(13) 0.6575(8) 0.4982(5)
H26 H 1.0112(12) 0.6529(8) 0.5414(6)
loop_
_geom_bond_atom_site_label_1
_geom_bond_atom_site_label_2
_geom_bond_site_symmetry_1
_geom_bond_site_symmetry_2
O1 C1 1_555 1_555
O2 H1 1_555 1_555
O3 H2 1_555 1_555
O4 H3 1_555 1_555
O5 H4 1_555 1_555
O6 C1 1_555 1_555
O7 C7 1_555 1_555
O8 H5 1_555 1_555
O9 H6 1_555 1_555
O10 H7 1_555 1_555
O11 H8 1_555 1_555
C1 H9 1_555 1_555
C2 O2 1_555 1_555
H10 C2 1_555 1_555
C3 O3 1_555 1_555
H11 C3 1_555 1_555
C4 O4 1_555 1_555
H12 C4 1_555 1_555
C5 O1 1_555 1_555
H13 C5 1_555 1_555
C6 O5 1_555 1_555
H14 C6 1_555 1_555
H15 C6 1_555 1_555
C7 O6 1_555 1_555
H16 C7 1_555 1_555
C8 O8 1_555 1_555
H17 C8 1_555 1_555
C9 O9 1_555 1_555
H18 C9 1_555 1_555
C10 O10 1_555 1_555
H19 C10 1_555 1_555
C11 O7 1_555 1_555
H20 C11 1_555 1_555
C12 O11 1_555 1_555
H21 C12 1_555 1_555
H22 C12 1_555 1_555
O12 H23 1_555 1_555
H24 O12 1_555 1_555
O13 H25 1_555 1_555
H26 O13 1_555 1_555
C1 C2 1_555 1_555
C2 C3 1_555 1_555
C3 C4 1_555 1_555
C4 C5 1_555 1_555
C5 C6 1_555 1_555
C7 C8 1_555 1_555
C8 C9 1_555 1_555
C9 C10 1_555 1_555
C10 C11 1_555 1_555
C11 C12 1_555 1_555

#END
