
#######################################################################
#
#                 Cambridge Crystallographic Data Centre
#                                CCDC 
#
#######################################################################
#
# If this CIF has been generated from an entry in the Cambridge 
# Structural Database, then it will include bibliographic, chemical, 
# crystal, experimental, refinement or atomic coordinate data resulting 
# from the CCDC's data processing and validation procedures.
#
#######################################################################

data_TRIPHE12
_chemical_formula_moiety         'C18 H12'
_chemical_name_systematic        Triphenylene
_symmetry_cell_setting           orthorhombic
_symmetry_space_group_name_H-M   'P 21 21 21'
_symmetry_Int_Tables_number      19
_space_group_name_Hall           'P 2ac 2ab'
loop_
_symmetry_equiv_pos_site_id
_symmetry_equiv_pos_as_xyz
1 x,y,z
2 1/2-x,-y,1/2+z
3 -x,1/2+y,1/2-z
4 1/2+x,1/2-y,-z
_cell_length_a                   5.280(2)
_cell_length_b                   12.972(5)
_cell_length_c                   16.707(7)
_cell_angle_alpha                90
_cell_angle_beta                 90
_cell_angle_gamma                90
_cell_volume                     1144.3
_exptl_crystal_colour            colorless
_exptl_crystal_description       needle
_chemical_melting_point          '199 deg.C'
_cell_formula_units_Z            4
_exptl_crystal_recrystallization_method dichloromethane
loop_
_atom_site_label
_atom_site_type_symbol
_atom_site_fract_x
_atom_site_fract_y
_atom_site_fract_z
C1 C 0.4914(7) 0.3987(3) 0.54523(19)
H1 H 0.6051 0.3420 0.5466
C2 C 0.3060(7) 0.4067(3) 0.6033(2)
H2 H 0.2911 0.3551 0.6434
C3 C 0.1409(8) 0.4906(3) 0.6028(2)
H3 H 0.0139 0.4966 0.6427
C4 C 0.1628(7) 0.5648(3) 0.54404(18)
H4 H 0.0511 0.6223 0.5445
C5 C 0.1891(7) 0.7169(3) 0.41344(19)
H5 H 0.0665 0.7252 0.4545
C6 C 0.1946(7) 0.7862(3) 0.3512(2)
H6 H 0.0764 0.8414 0.3494
C7 C 0.3745(7) 0.7752(3) 0.2908(2)
H7 H 0.3798 0.8230 0.2479
C8 C 0.5449(7) 0.6946(3) 0.2935(2)
H8 H 0.6660 0.6877 0.2519
C9 C 0.9085(7) 0.5228(3) 0.2989(2)
H9 H 0.9170 0.5711 0.2563
C10 C 1.0798(7) 0.4422(3) 0.3012(2)
H10 H 1.2058 0.4360 0.2609
C11 C 1.0665(7) 0.3703(3) 0.3628(2)
H11 H 1.1832 0.3147 0.3645
C12 C 0.8842(6) 0.3799(3) 0.4214(2)
H12 H 0.8770 0.3302 0.4631
C13 C 0.5156(6) 0.4727(2) 0.48398(19)
C14 C 0.3477(7) 0.5573(3) 0.48311(18)
C15 C 0.3611(6) 0.6337(2) 0.41789(18)
C16 C 0.5436(6) 0.6221(2) 0.35675(19)
C17 C 0.7218(6) 0.5352(2) 0.3583(2)
C18 C 0.7076(7) 0.4619(2) 0.42084(18)
loop_
_geom_bond_atom_site_label_1
_geom_bond_atom_site_label_2
_geom_bond_site_symmetry_1
_geom_bond_site_symmetry_2
C1 H1 1_555 1_555
C2 C1 1_555 1_555
H2 C2 1_555 1_555
C3 C2 1_555 1_555
H3 C3 1_555 1_555
C4 C3 1_555 1_555
H4 C4 1_555 1_555
C5 H5 1_555 1_555
C6 C5 1_555 1_555
H6 C6 1_555 1_555
C7 C6 1_555 1_555
H7 C7 1_555 1_555
C8 C7 1_555 1_555
H8 C8 1_555 1_555
C9 H9 1_555 1_555
C10 C9 1_555 1_555
H10 C10 1_555 1_555
C11 C10 1_555 1_555
H11 C11 1_555 1_555
C12 C11 1_555 1_555
H12 C12 1_555 1_555
C13 C1 1_555 1_555
C14 C4 1_555 1_555
C15 C5 1_555 1_555
C16 C8 1_555 1_555
C17 C9 1_555 1_555
C18 C12 1_555 1_555
C13 C14 1_555 1_555
C13 C18 1_555 1_555
C14 C15 1_555 1_555
C15 C16 1_555 1_555
C16 C17 1_555 1_555
C17 C18 1_555 1_555

#END
