
#######################################################################
#
#                 Cambridge Crystallographic Data Centre
#                                CCDC 
#
#######################################################################
#
# If this CIF has been generated from an entry in the Cambridge 
# Structural Database, then it will include bibliographic, chemical, 
# crystal, experimental, refinement or atomic coordinate data resulting 
# from the CCDC's data processing and validation procedures.
#
#######################################################################

data_TSMPXZ
_chemical_formula_moiety         'C14 H12 N2 O5 S1'
_chemical_name_systematic        
2-(p-Toluenesulfonyl)-3-(m-nitrophenyl)oxaziridine
_symmetry_cell_setting           monoclinic
_symmetry_space_group_name_H-M   'P 21/n'
_symmetry_Int_Tables_number      14
_space_group_name_Hall           '-P 2yn'
loop_
_symmetry_equiv_pos_site_id
_symmetry_equiv_pos_as_xyz
1 x,y,z
2 1/2-x,1/2+y,1/2-z
3 -x,-y,-z
4 1/2+x,1/2-y,1/2+z
_cell_length_a                   10.591(4)
_cell_length_b                   10.462(4)
_cell_length_c                   13.604(4)
_cell_angle_alpha                90
_cell_angle_beta                 105.67(3)
_cell_angle_gamma                90
_cell_volume                     1451.34
_cell_formula_units_Z            4
loop_
_atom_site_label
_atom_site_type_symbol
_atom_site_fract_x
_atom_site_fract_y
_atom_site_fract_z
S1 S 0.14250 0.96140 0.69020
O1 O 0.04450 1.06010 0.66720
O2 O 0.10850 0.83620 0.65000
O3 O 0.36040 0.92920 0.63280
O4 O 0.24200 1.27630 0.16450
O5 O 0.12760 1.11070 0.17920
N1 N 0.26510 1.02820 0.64500
N2 N 0.21400 1.18870 0.21550
C1 C 0.27010 0.98180 0.54620
C2 C 0.31800 1.07440 0.48180
C3 C 0.25150 1.08290 0.38110
C4 C 0.28920 1.17620 0.32260
C5 C 0.39050 1.26180 0.36290
C6 C 0.45580 1.24890 0.46340
C7 C 0.42010 1.15720 0.52400
C8 C 0.21910 0.95660 0.81940
C9 C 0.28700 0.84760 0.86390
C10 C 0.35320 0.84670 0.96560
C11 C 0.35330 0.95290 1.02710
C12 C 0.28700 1.06200 0.98070
C13 C 0.22070 1.06550 0.87910
C14 C 0.42300 0.95100 1.13700
H1 H 0.19200 0.93200 0.50800
H2 H 0.17000 1.03400 0.35200
H3 H 0.43200 1.31400 0.31100
H4 H 0.52200 1.29900 0.49200
H5 H 0.46700 1.14600 0.58800
H6 H 0.29200 0.78800 0.81500
H7 H 0.41800 0.78000 1.00200
H8 H 0.29600 1.13300 1.03200
H9 H 0.15200 1.12700 0.83400
H10 H 0.38500 0.94400 1.18600
H11 H 0.47400 0.88400 1.15900
H12 H 0.47100 1.01600 1.16200
loop_
_geom_bond_atom_site_label_1
_geom_bond_atom_site_label_2
_geom_bond_site_symmetry_1
_geom_bond_site_symmetry_2
S1 O1 1_555 1_555
O2 S1 1_555 1_555
O3 N1 1_555 1_555
O4 N2 1_555 1_555
O5 N2 1_555 1_555
N1 S1 1_555 1_555
N2 C4 1_555 1_555
C1 O3 1_555 1_555
C2 C1 1_555 1_555
C3 C2 1_555 1_555
C4 C3 1_555 1_555
C5 C4 1_555 1_555
C6 C5 1_555 1_555
C7 C2 1_555 1_555
C8 S1 1_555 1_555
C9 C8 1_555 1_555
C10 C9 1_555 1_555
C11 C10 1_555 1_555
C12 C11 1_555 1_555
C13 C8 1_555 1_555
C14 C11 1_555 1_555
H1 C1 1_555 1_555
H2 C3 1_555 1_555
H3 C5 1_555 1_555
H4 C6 1_555 1_555
H5 C7 1_555 1_555
H6 C9 1_555 1_555
H7 C10 1_555 1_555
H8 C12 1_555 1_555
H9 C13 1_555 1_555
H10 C14 1_555 1_555
H11 C14 1_555 1_555
H12 C14 1_555 1_555
N1 C1 1_555 1_555
C6 C7 1_555 1_555
C12 C13 1_555 1_555

#END
