
#######################################################################
#
#                 Cambridge Crystallographic Data Centre
#                                CCDC 
#
#######################################################################
#
# If this CIF has been generated from an entry in the Cambridge 
# Structural Database, then it will include bibliographic, chemical, 
# crystal, experimental, refinement or atomic coordinate data resulting 
# from the CCDC's data processing and validation procedures.
#
#######################################################################

data_TSPOXZ
_chemical_formula_moiety         'C14 H12 Cl1 N1 O3 S1'
_chemical_name_systematic        
2-(p-Toluenesulfonyl)-3-(p-chlorophenyl)-oxaziridine
_symmetry_cell_setting           triclinic
_symmetry_space_group_name_H-M   'P -1'
_symmetry_Int_Tables_number      2
_space_group_name_Hall           '-P 1'
loop_
_symmetry_equiv_pos_site_id
_symmetry_equiv_pos_as_xyz
1 x,y,z
2 -x,-y,-z
_cell_length_a                   7.504(3)
_cell_length_b                   8.112(2)
_cell_length_c                   13.041(3)
_cell_angle_alpha                105.61(2)
_cell_angle_beta                 94.52(2)
_cell_angle_gamma                112.33
_cell_volume                     692.467
_cell_formula_units_Z            2
loop_
_atom_site_label
_atom_site_type_symbol
_atom_site_fract_x
_atom_site_fract_y
_atom_site_fract_z
Cl1 Cl 0.16140 0.84670 0.63290
S1 S 0.86450 0.67810 0.19030
O1 O 0.82600 0.79700 0.13790
O2 O 1.04390 0.74550 0.26470
O3 O 0.69240 0.49220 0.31590
N1 N 0.66610 0.61490 0.25420
C1 C 0.72370 0.67960 0.37180
C2 C 0.57980 0.71270 0.43610
C3 C 0.64890 0.85340 0.53440
C4 C 0.51990 0.89500 0.59560
C5 C 0.32440 0.79110 0.55700
C6 C 0.24920 0.64700 0.46010
C7 C 0.37950 0.60710 0.39850
C8 C 0.81780 0.45960 0.09630
C9 C 0.89030 0.34360 0.12710
C10 C 0.84010 0.16670 0.05530
C11 C 0.72540 0.10470 -0.04590
C12 C 0.65740 0.22660 -0.07460
C13 C 0.70220 0.40240 -0.00470
C14 C 0.67280 -0.08810 -0.12370
H1 H 0.85500 0.76200 0.40000
H2 H 0.78700 0.92700 0.55500
H3 H 0.57400 0.98300 0.65800
H4 H 0.10200 0.56900 0.42800
H5 H 0.31400 0.49700 0.32000
H6 H 0.95500 0.37200 0.20000
H7 H 0.88200 0.10300 0.08100
H8 H 0.59200 0.20300 -0.14400
H9 H 0.66900 0.48900 -0.02300
H10 H 0.51800 -0.15800 -0.18000
H11 H 0.67300 -0.14000 -0.09700
H12 H 0.77500 -0.10600 -0.18800
loop_
_geom_bond_atom_site_label_1
_geom_bond_atom_site_label_2
_geom_bond_site_symmetry_1
_geom_bond_site_symmetry_2
Cl1 C5 1_555 1_555
S1 O1 1_555 1_555
O2 S1 1_555 1_555
O3 N1 1_555 1_555
N1 S1 1_555 1_555
C1 O3 1_555 1_555
C2 C1 1_555 1_555
C3 C2 1_555 1_555
C4 C3 1_555 1_555
C5 C4 1_555 1_555
C6 C5 1_555 1_555
C7 C2 1_555 1_555
C8 S1 1_555 1_555
C9 C8 1_555 1_555
C10 C9 1_555 1_555
C11 C10 1_555 1_555
C12 C11 1_555 1_555
C13 C8 1_555 1_555
C14 C11 1_555 1_555
H1 C1 1_555 1_555
H2 C3 1_555 1_555
H3 C4 1_555 1_555
H4 C6 1_555 1_555
H5 C7 1_555 1_555
H6 C9 1_555 1_555
H7 C10 1_555 1_555
H8 C12 1_555 1_555
H9 C13 1_555 1_555
H10 C14 1_555 1_555
H11 C14 1_555 1_555
H12 C14 1_555 1_555
N1 C1 1_555 1_555
C6 C7 1_555 1_555
C12 C13 1_555 1_555

#END
