
#######################################################################
#
#                 Cambridge Crystallographic Data Centre
#                                CCDC 
#
#######################################################################
#
# If this CIF has been generated from an entry in the Cambridge 
# Structural Database, then it will include bibliographic, chemical, 
# crystal, experimental, refinement or atomic coordinate data resulting 
# from the CCDC's data processing and validation procedures.
#
#######################################################################

data_TSTILB17
_chemical_formula_moiety         'C14 H12'
_chemical_name_systematic        1,1'-(ethene-1,2-diyl)dibenzene
_symmetry_cell_setting           monoclinic
_symmetry_space_group_name_H-M   'P 21/c'
_symmetry_Int_Tables_number      14
_space_group_name_Hall           '-P 2ybc'
loop_
_symmetry_equiv_pos_site_id
_symmetry_equiv_pos_as_xyz
1 x,y,z
2 -x,1/2+y,1/2-z
3 -x,-y,-z
4 x,1/2-y,1/2+z
_cell_length_a                   15.4239(9)
_cell_length_b                   5.6575(2)
_cell_length_c                   12.2794(8)
_cell_angle_alpha                90
_cell_angle_beta                 112.051(7)
_cell_angle_gamma                90
_cell_volume                     993.128
_exptl_crystal_colour            colorless
_exptl_crystal_description       block
_cell_formula_units_Z            4
loop_
_atom_site_label
_atom_site_type_symbol
_atom_site_fract_x
_atom_site_fract_y
_atom_site_fract_z
C1 C 0.57578(9) 0.3634(2) 0.42072(13)
C2 C 0.52277(10) 0.4016(3) 0.49660(13)
H1 H 0.520704 0.276462 0.544668
C3 C 0.57804(10) 0.5271(2) 0.33634(13)
H2 H 0.543461 0.665916 0.325278
C4 C 0.62727(10) 0.1547(3) 0.43279(13)
H3 H 0.625693 0.041780 0.487065
C5 C 0.63110(10) 0.4848(3) 0.26930(13)
H4 H 0.632168 0.595763 0.213934
C6 C 0.68043(10) 0.1126(3) 0.36582(14)
H5 H 0.714534 -0.026775 0.375868
C7 C 0.68298(10) 0.2775(3) 0.28388(13)
H6 H 0.718955 0.250297 0.239002
C1B C 0.42422(9) 0.6366(2) 0.57928(13)
C2B C 0.47723(10) 0.5984(3) 0.50340(13)
H1B H 0.479296 0.723538 0.455332
C3B C 0.42196(10) 0.4729(2) 0.66366(13)
H2B H 0.456539 0.334084 0.674722
C4B C 0.37273(10) 0.8453(3) 0.56721(13)
H3B H 0.374307 0.958220 0.512935
C5B C 0.36890(10) 0.5152(3) 0.73070(13)
H4B H 0.367832 0.404237 0.786066
C6B C 0.31957(10) 0.8874(3) 0.63418(14)
H5B H 0.285466 1.026775 0.624132
C7B C 0.31702(10) 0.7225(3) 0.71612(13)
H6B H 0.281045 0.749703 0.760998
C8 C 0.91747(10) 0.5617(3) 0.83912(13)
C9 C 0.81558(10) 0.5627(3) 0.59576(14)
H7 H 0.781495 0.562738 0.515181
C10 C 0.92512(10) 0.3749(3) 0.76847(15)
H8 H 0.964663 0.248776 0.802669
C11 C 0.87468(10) 0.3751(3) 0.64846(14)
H9 H 0.880365 0.249285 0.602868
C12 C 0.80805(11) 0.7487(3) 0.66430(15)
H10 H 0.769057 0.875414 0.629625
C13 C 0.85809(11) 0.7478(3) 0.78419(15)
H11 H 0.851986 0.874325 0.829151
C14 C 0.96858(10) 0.5764(3) 0.96708(15)
H12 H 0.955473 0.705434 1.005308
C8B C 1.08253(10) 0.4383(3) 1.16088(13)
C9B C 1.18442(10) 0.4373(3) 1.40424(14)
H7B H 1.218505 0.437262 1.484819
C10B C 1.07488(10) 0.6251(3) 1.23153(15)
H8B H 1.035337 0.751224 1.197331
C11B C 1.12532(10) 0.6249(3) 1.35154(14)
H9B H 1.119635 0.750715 1.397132
C12B C 1.19195(11) 0.2513(3) 1.33570(15)
H10B H 1.230943 0.124586 1.370375
C13B C 1.14191(11) 0.2522(3) 1.21581(15)
H11B H 1.148014 0.125675 1.170849
C14B C 1.03142(10) 0.4236(3) 1.03292(15)
H12B H 1.044527 0.294566 0.994692
loop_
_geom_bond_atom_site_label_1
_geom_bond_atom_site_label_2
_geom_bond_site_symmetry_1
_geom_bond_site_symmetry_2
C1 C2 1_555 1_555
C2 H1 1_555 1_555
C3 C1 1_555 1_555
H2 C3 1_555 1_555
C4 C1 1_555 1_555
H3 C4 1_555 1_555
C5 C3 1_555 1_555
H4 C5 1_555 1_555
C6 C4 1_555 1_555
H5 C6 1_555 1_555
C7 C5 1_555 1_555
H6 C7 1_555 1_555
C8 C10 1_555 1_555
C9 H7 1_555 1_555
C10 H8 1_555 1_555
C11 C9 1_555 1_555
H9 C11 1_555 1_555
C12 C9 1_555 1_555
H10 C12 1_555 1_555
C13 C8 1_555 1_555
H11 C13 1_555 1_555
C14 C8 1_555 1_555
H12 C14 1_555 1_555
C1B C2B 1_555 1_555
C2B C2 1_555 1_555
H1B C2B 1_555 1_555
C3B C1B 1_555 1_555
H2B C3B 1_555 1_555
C4B C1B 1_555 1_555
H3B C4B 1_555 1_555
C5B C3B 1_555 1_555
H4B C5B 1_555 1_555
C6B C4B 1_555 1_555
H5B C6B 1_555 1_555
C7B C5B 1_555 1_555
H6B C7B 1_555 1_555
C8B C10B 1_555 1_555
C9B H7B 1_555 1_555
C10B H8B 1_555 1_555
C11B C9B 1_555 1_555
H9B C11B 1_555 1_555
C12B C9B 1_555 1_555
H10B C12B 1_555 1_555
C13B C8B 1_555 1_555
H11B C13B 1_555 1_555
C14B C14 1_555 1_555
H12B C14B 1_555 1_555
C6 C7 1_555 1_555
C10 C11 1_555 1_555
C12 C13 1_555 1_555
C6B C7B 1_555 1_555
C8B C14B 1_555 1_555
C10B C11B 1_555 1_555
C12B C13B 1_555 1_555

#END
