
#######################################################################
#
#                 Cambridge Crystallographic Data Centre
#                                CCDC 
#
#######################################################################
#
# If this CIF has been generated from an entry in the Cambridge 
# Structural Database, then it will include bibliographic, chemical, 
# crystal, experimental, refinement or atomic coordinate data resulting 
# from the CCDC's data processing and validation procedures.
#
#######################################################################

data_TUBVET
_chemical_name_common            
'1-(4-(Dimethylamino)phenyl)-5-(3-(dimethylamino)propoxy)-1H-benzo[d]imidazol-2-amine hydrochloride chloroform solvate'
_chemical_formula_moiety         'C20 H28 N5 O1 1+,Cl1 1-,C1 H1 Cl3'
_chemical_name_systematic        
'3-((2-Amino-1-(4-(dimethylamino)phenyl)-1H-benzimidazol-5-yl)oxy)-N,N-dimethylpropan-1-aminium chloride chloroform solvate'
_symmetry_cell_setting           triclinic
_symmetry_space_group_name_H-M   'P -1'
_symmetry_Int_Tables_number      2
_space_group_name_Hall           '-P 1'
loop_
_symmetry_equiv_pos_site_id
_symmetry_equiv_pos_as_xyz
1 x,y,z
2 -x,-y,-z
_cell_length_a                   9.4134(9)
_cell_length_b                   9.6736(9)
_cell_length_c                   15.249(2)
_cell_angle_alpha                103.600(5)
_cell_angle_beta                 91.925(5)
_cell_angle_gamma                115.963(3)
_cell_volume                     1198.55
_exptl_crystal_colour            colorless
_exptl_crystal_description       block
_cell_formula_units_Z            2
loop_
_atom_site_label
_atom_site_type_symbol
_atom_site_fract_x
_atom_site_fract_y
_atom_site_fract_z
Cl1 Cl 0.47803(19) 1.58207(16) 1.22351(13)
N1 N 0.3057(3) 0.6408(3) 0.55264(18)
O1 O 0.3222(3) 0.9589(3) 0.90591(16)
C1 C 0.0345(4) 0.2371(4) 0.3959(2)
H1 H -0.0599 0.1882 0.3520
N2 N 0.4170(3) 0.9106(3) 0.58483(18)
C2 C 0.1035(4) 0.3994(4) 0.4383(2)
H2 H 0.0557 0.4610 0.4232
N3 N 0.2437(4) 1.2285(4) 1.15098(19)
H3 H 0.3152 1.3364 1.1626
C3 C 0.2412(4) 0.4743(4) 0.5027(2)
C4 C 0.3022(4) 0.6979(4) 0.6452(2)
N4 N 0.0353(4) -0.0195(3) 0.3757(2)
C5 C 0.3840(4) 0.9590(4) 0.7517(2)
H4 H 0.4331 1.0724 0.7656
N5 N 0.3941(3) 0.7647(3) 0.43240(18)
H5 H 0.4357 0.8524 0.4143
H6 H 0.3646 0.6709 0.3929
C6 C 0.2510(4) 0.7133(5) 0.7972(2)
H7 H 0.2097 0.6641 0.8440
C7 C 0.3711(4) 0.8620(4) 0.6640(2)
C8 C 0.3105(4) 0.3835(4) 0.5242(2)
H8 H 0.4045 0.4333 0.5683
C9 C 0.3208(4) 0.8793(4) 0.8162(2)
C10 C 0.1043(4) 0.1429(4) 0.4176(2)
C11 C 0.2432(4) 0.2206(4) 0.4816(2)
H9 H 0.2931 0.1606 0.4965
C12 C 0.1181(5) -0.1098(4) 0.3921(3)
H10 H 0.2231 -0.0664 0.3723
H11 H 0.0549 -0.2225 0.3577
H12 H 0.1321 -0.1012 0.4575
C13 C 0.3757(4) 0.7742(4) 0.5208(2)
C14 C -0.1196(4) -0.1021(4) 0.3181(3)
H13 H -0.1934 -0.0670 0.3480
H14 H -0.1617 -0.2178 0.3082
H15 H -0.1084 -0.0774 0.2592
C15 C 0.2410(4) 0.6186(4) 0.7109(2)
H16 H 0.1946 0.5054 0.6975
C16 C 0.2447(5) 1.1495(5) 1.0540(2)
H17 H 0.1968 1.1881 1.0126
H18 H 0.1777 1.0324 1.0409
C17 C 0.4108(5) 1.1830(5) 1.0350(3)
H19 H 0.4515 1.1276 1.0678
H20 H 0.4828 1.2994 1.0579
C18 C 0.4116(5) 1.1267(5) 0.9331(3)
H21 H 0.3632 1.1748 0.8989
H22 H 0.5227 1.1589 0.9209
C19 C 0.2976(5) 1.1681(6) 1.2197(3)
H23 H 0.2279 1.0531 1.2081
H24 H 0.2925 1.2244 1.2811
H25 H 0.4080 1.1871 1.2154
C20 C 0.0818(5) 1.2183(6) 1.1618(3)
H26 H 0.0508 1.2616 1.1168
H27 H 0.0856 1.2804 1.2235
H28 H 0.0032 1.1062 1.1522
Cl2? Cl 0.4770(9) 1.5727(8) 1.1629(6)
loop_
_geom_bond_atom_site_label_1
_geom_bond_atom_site_label_2
_geom_bond_site_symmetry_1
_geom_bond_site_symmetry_2
N1 C3 1_555 1_555
O1 C9 1_555 1_555
C1 H1 1_555 1_555
N2 C7 1_555 1_555
C2 C1 1_555 1_555
H2 C2 1_555 1_555
N3 H3 1_555 1_555
C3 C2 1_555 1_555
C4 N1 1_555 1_555
N4 C10 1_555 1_555
C5 H4 1_555 1_555
N5 H5 1_555 1_555
H6 N5 1_555 1_555
C6 H7 1_555 1_555
C7 C4 1_555 1_555
C8 C3 1_555 1_555
H8 C8 1_555 1_555
C9 C5 1_555 1_555
C10 C1 1_555 1_555
C11 C8 1_555 1_555
H9 C11 1_555 1_555
C12 N4 1_555 1_555
H10 C12 1_555 1_555
H11 C12 1_555 1_555
H12 C12 1_555 1_555
C13 N1 1_555 1_555
C14 N4 1_555 1_555
H13 C14 1_555 1_555
H14 C14 1_555 1_555
H15 C14 1_555 1_555
C15 C4 1_555 1_555
H16 C15 1_555 1_555
C16 N3 1_555 1_555
H17 C16 1_555 1_555
H18 C16 1_555 1_555
C17 C16 1_555 1_555
H19 C17 1_555 1_555
H20 C17 1_555 1_555
C18 O1 1_555 1_555
H21 C18 1_555 1_555
H22 C18 1_555 1_555
C19 N3 1_555 1_555
H23 C19 1_555 1_555
H24 C19 1_555 1_555
H25 C19 1_555 1_555
C20 N3 1_555 1_555
H26 C20 1_555 1_555
H27 C20 1_555 1_555
H28 C20 1_555 1_555
N2 C13 1_555 1_555
C5 C7 1_555 1_555
N5 C13 1_555 1_555
C6 C9 1_555 1_555
C6 C15 1_555 1_555
C10 C11 1_555 1_555
C17 C18 1_555 1_555

#END
