
#######################################################################
#
#                 Cambridge Crystallographic Data Centre
#                                CCDC 
#
#######################################################################
#
# If this CIF has been generated from an entry in the Cambridge 
# Structural Database, then it will include bibliographic, chemical, 
# crystal, experimental, refinement or atomic coordinate data resulting 
# from the CCDC's data processing and validation procedures.
#
#######################################################################

data_TUBVUJ
_chemical_formula_moiety         'C21 H16 Cl2 N2 O1'
_chemical_name_systematic        
1,3-bis(2-Chlorobenzyl)-1,3-dihydro-2H-benzimidazol-2-one
_symmetry_cell_setting           triclinic
_symmetry_space_group_name_H-M   'P -1'
_symmetry_Int_Tables_number      2
_space_group_name_Hall           '-P 1'
loop_
_symmetry_equiv_pos_site_id
_symmetry_equiv_pos_as_xyz
1 x,y,z
2 -x,-y,-z
_cell_length_a                   7.5910(4)
_cell_length_b                   9.2867(8)
_cell_length_c                   13.7707(10)
_cell_angle_alpha                75.989(7)
_cell_angle_beta                 75.632(6)
_cell_angle_gamma                84.506(6)
_cell_volume                     911.772
_cell_formula_units_Z            2
loop_
_atom_site_label
_atom_site_type_symbol
_atom_site_fract_x
_atom_site_fract_y
_atom_site_fract_z
Cl1 Cl 0.58255(13) 0.46109(12) 0.16079(7)
Cl2 Cl 0.81602(15) -0.20665(11) 0.86536(7)
O1 O 0.6755(3) 0.3750(2) 0.58418(15)
N1 N 0.6862(3) 0.2390(2) 0.46091(15)
N2 N 0.7409(3) 0.1203(2) 0.61017(15)
C1 C 0.7233(3) 0.0165(3) 0.3814(2)
H1 H 0.7007 0.0664 0.3182
C2 C 0.7612(3) -0.1357(3) 0.4031(2)
H2 H 0.7639 -0.1887 0.3534
C3 C 0.7949(3) -0.2103(3) 0.4971(2)
H3 H 0.8192 -0.3124 0.5095
C4 C 0.7931(3) -0.1357(3) 0.5732(2)
H4 H 0.8165 -0.1854 0.6362
C5 C 0.7553(3) 0.0157(3) 0.55149(18)
C6 C 0.7205(3) 0.0902(3) 0.45689(18)
C7 C 0.6975(3) 0.2589(3) 0.5553(2)
C8 C 0.6265(3) 0.3569(3) 0.38297(19)
H5 H 0.5503 0.4290 0.4166
H6 H 0.5531 0.3147 0.3491
C9 C 0.7823(3) 0.4355(2) 0.30275(18)
C10 C 0.7753(4) 0.4854(3) 0.2010(2)
C11 C 0.9192(5) 0.5581(4) 0.1285(2)
H7 H 0.9121 0.5924 0.0603
C12 C 1.0723(5) 0.5790(4) 0.1586(3)
H8 H 1.1709 0.6250 0.1100
C13 C 1.0815(4) 0.5332(3) 0.2590(3)
H9 H 1.1847 0.5495 0.2792
C14 C 0.9380(3) 0.4629(3) 0.3296(2)
H10 H 0.9448 0.4325 0.3981
C15 C 0.7755(3) 0.0943(3) 0.71273(18)
H11 H 0.8084 0.1867 0.7234
H12 H 0.8777 0.0238 0.7172
C16 C 0.6125(3) 0.0350(3) 0.79658(18)
C17 C 0.6170(4) -0.0982(3) 0.8672(2)
C18 C 0.4630(6) -0.1503(4) 0.9423(2)
H13 H 0.4687 -0.2407 0.9889
C19 C 0.3043(5) -0.0684(5) 0.9471(3)
H14 H 0.2009 -0.1035 0.9968
C20 C 0.2951(4) 0.0651(4) 0.8795(3)
H15 H 0.1861 0.1208 0.8834
C21 C 0.4489(4) 0.1171(3) 0.8051(2)
H16 H 0.4423 0.2089 0.7600
loop_
_geom_bond_atom_site_label_1
_geom_bond_atom_site_label_2
_geom_bond_site_symmetry_1
_geom_bond_site_symmetry_2
Cl1 C10 1_555 1_555
Cl2 C17 1_555 1_555
O1 C7 1_555 1_555
N1 C6 1_555 1_555
N2 C5 1_555 1_555
C1 H1 1_555 1_555
C2 C1 1_555 1_555
H2 C2 1_555 1_555
C3 C2 1_555 1_555
H3 C3 1_555 1_555
C4 C3 1_555 1_555
H4 C4 1_555 1_555
C5 C4 1_555 1_555
C6 C1 1_555 1_555
C7 N1 1_555 1_555
C8 N1 1_555 1_555
H5 C8 1_555 1_555
H6 C8 1_555 1_555
C9 C8 1_555 1_555
C10 C9 1_555 1_555
C11 C10 1_555 1_555
H7 C11 1_555 1_555
C12 C11 1_555 1_555
H8 C12 1_555 1_555
C13 C12 1_555 1_555
H9 C13 1_555 1_555
C14 C9 1_555 1_555
H10 C14 1_555 1_555
C15 N2 1_555 1_555
H11 C15 1_555 1_555
H12 C15 1_555 1_555
C16 C15 1_555 1_555
C17 C16 1_555 1_555
C18 C17 1_555 1_555
H13 C18 1_555 1_555
C19 C18 1_555 1_555
H14 C19 1_555 1_555
C20 C19 1_555 1_555
H15 C20 1_555 1_555
C21 C16 1_555 1_555
H16 C21 1_555 1_555
N2 C7 1_555 1_555
C5 C6 1_555 1_555
C13 C14 1_555 1_555
C20 C21 1_555 1_555

#END
