
#######################################################################
#
#                 Cambridge Crystallographic Data Centre
#                                CCDC 
#
#######################################################################
#
# If this CIF has been generated from an entry in the Cambridge 
# Structural Database, then it will include bibliographic, chemical, 
# crystal, experimental, refinement or atomic coordinate data resulting 
# from the CCDC's data processing and validation procedures.
#
#######################################################################

data_TUCDIG
_chemical_formula_moiety         'C30 H9 B1 F15 N1'
_chemical_name_systematic        
tris(pentafluorophenyl)(6H-pyrido[2,1-a]isoindolium-6-yl)borate
_symmetry_cell_setting           monoclinic
_symmetry_space_group_name_H-M   'P 21/m'
_symmetry_Int_Tables_number      11
_space_group_name_Hall           '-P 2yb'
loop_
_symmetry_equiv_pos_site_id
_symmetry_equiv_pos_as_xyz
1 x,y,z
2 -x,1/2+y,-z
3 -x,-y,-z
4 x,1/2-y,z
_cell_length_a                   7.34070(10)
_cell_length_b                   17.8609(4)
_cell_length_c                   9.6858(2)
_cell_angle_alpha                90
_cell_angle_beta                 102.9767(13)
_cell_angle_gamma                90
_cell_volume                     1237.49
_exptl_crystal_colour            colorless
_exptl_crystal_description       block
_cell_formula_units_Z            2
loop_
_atom_site_label
_atom_site_type_symbol
_atom_site_fract_x
_atom_site_fract_y
_atom_site_fract_z
B1 B 0.8475(4) 0.2500 0.1946(3)
N1 N 1.127(3) 0.3113(8) 0.381(2)
F1 F 0.74353(14) 0.38291(5) 0.35025(11)
F2 F 0.63581(15) 0.38169(6) 0.59102(11)
F3 F 0.5845(2) 0.2500 0.72088(15)
F4 F 0.47535(13) 0.32460(6) 0.12648(11)
F5 F 0.36097(13) 0.42976(6) -0.06412(11)
F6 F 0.59928(15) 0.49272(6) -0.20827(11)
F7 F 0.95746(15) 0.44168(7) -0.16345(12)
F8 F 1.07382(14) 0.33113(6) 0.01638(11)
C1 C 1.0822(3) 0.2500 0.2722(2)
C2 C 1.1589(2) 0.29034(9) 0.51165(17)
C3 C 1.1893(2) 0.34195(10) 0.62205(19)
H1 H 1.2036 0.3259 0.7174
C4 C 1.1983(2) 0.41690(10) 0.5899(2)
H2 H 1.2167 0.4531 0.6635
C5 C 1.1806(2) 0.43973(11) 0.4500(2)
H3 H 1.1933 0.4912 0.4295
C6 C 1.1450(2) 0.38853(11) 0.3417(2)
C7 C 0.7490(3) 0.2500 0.3333(2)
C8 C 0.7162(2) 0.31470(10) 0.40282(17)
C9 C 0.6604(2) 0.31598(10) 0.52968(18)
C10 C 0.6333(3) 0.2500 0.5949(2)
C11 C 0.7840(2) 0.32192(9) 0.08725(17)
C12 C 0.6030(2) 0.35064(10) 0.05723(18)
C13 C 0.5393(2) 0.40558(10) -0.04082(17)
C14 C 0.6579(2) 0.43727(10) -0.11525(17)
C15 C 0.8379(2) 0.41151(10) -0.09170(18)
C16 C 0.8954(2) 0.35477(10) 0.00498(18)
H4 H 1.160(3) 0.2500 0.209(3)
H5 H 1.128(2) 0.4053(10) 0.2430(19)
N1C N 1.127(3) 0.1887(8) 0.381(2)
F1C F 0.74353(14) 0.11709(5) 0.35025(11)
F2C F 0.63581(15) 0.11831(6) 0.59102(11)
F4C F 0.47535(13) 0.17540(6) 0.12648(11)
F5C F 0.36097(13) 0.07024(6) -0.06412(11)
F6C F 0.59928(15) 0.00728(6) -0.20827(11)
F7C F 0.95746(15) 0.05832(7) -0.16345(12)
F8C F 1.07382(14) 0.16887(6) 0.01638(11)
C2C C 1.1589(2) 0.20966(9) 0.51165(17)
C3C C 1.1893(2) 0.15805(10) 0.62205(19)
H1C H 1.2036 0.1741 0.7174
C4C C 1.1983(2) 0.08310(10) 0.5899(2)
H2C H 1.2167 0.0469 0.6635
C5C C 1.1806(2) 0.06027(11) 0.4500(2)
H3C H 1.1933 0.0088 0.4295
C6C C 1.1450(2) 0.11147(11) 0.3417(2)
C8C C 0.7162(2) 0.18530(10) 0.40282(17)
C9C C 0.6604(2) 0.18402(10) 0.52968(18)
C11C C 0.7840(2) 0.17808(9) 0.08725(17)
C12C C 0.6030(2) 0.14936(10) 0.05723(18)
C13C C 0.5393(2) 0.09442(10) -0.04082(17)
C14C C 0.6579(2) 0.06273(10) -0.11525(17)
C15C C 0.8379(2) 0.08849(10) -0.09170(18)
C16C C 0.8954(2) 0.14523(10) 0.00498(18)
H5C H 1.128(2) 0.0947(10) 0.2430(19)
C17? C 1.137(5) 0.3186(12) 0.363(3)
loop_
_geom_bond_atom_site_label_1
_geom_bond_atom_site_label_2
_geom_bond_site_symmetry_1
_geom_bond_site_symmetry_2
B1 C1 1_555 1_555
N1 C1 1_555 1_555
F1 C8 1_555 1_555
F2 C9 1_555 1_555
F3 C10 1_555 1_555
F4 C12 1_555 1_555
F5 C13 1_555 1_555
F6 C14 1_555 1_555
F7 C15 1_555 1_555
F8 C16 1_555 1_555
C1 H4 1_555 1_555
C2 N1 1_555 1_555
C3 C2 1_555 1_555
H1 C3 1_555 1_555
C4 C3 1_555 1_555
H2 C4 1_555 1_555
C5 C4 1_555 1_555
H3 C5 1_555 1_555
C6 N1 1_555 1_555
C7 B1 1_555 1_555
C8 C7 1_555 1_555
C9 C8 1_555 1_555
C10 C9 1_555 1_555
C11 B1 1_555 1_555
C12 C11 1_555 1_555
C13 C12 1_555 1_555
C14 C13 1_555 1_555
C15 C14 1_555 1_555
C16 C11 1_555 1_555
H5 C6 1_555 1_555
N1C C1 1_555 1_555
F1C C8C 1_555 1_555
F2C C9C 1_555 1_555
F4C C12C 1_555 1_555
F5C C13C 1_555 1_555
F6C C14C 1_555 1_555
F7C C15C 1_555 1_555
F8C C16C 1_555 1_555
C2C C2 1_555 1_555
C3C C2C 1_555 1_555
H1C C3C 1_555 1_555
C4C C3C 1_555 1_555
H2C C4C 1_555 1_555
C5C C4C 1_555 1_555
H3C C5C 1_555 1_555
C6C N1C 1_555 1_555
C8C C7 1_555 1_555
C9C C10 1_555 1_555
C11C B1 1_555 1_555
C12C C11C 1_555 1_555
C13C C12C 1_555 1_555
C14C C13C 1_555 1_555
C15C C14C 1_555 1_555
C16C C11C 1_555 1_555
H5C C6C 1_555 1_555
C5 C6 1_555 1_555
C15 C16 1_555 1_555
N1C C2C 1_555 1_555
C5C C6C 1_555 1_555
C8C C9C 1_555 1_555
C15C C16C 1_555 1_555

#END
