
#######################################################################
#
#                 Cambridge Crystallographic Data Centre
#                                CCDC 
#
#######################################################################
#
# If this CIF has been generated from an entry in the Cambridge 
# Structural Database, then it will include bibliographic, chemical, 
# crystal, experimental, refinement or atomic coordinate data resulting 
# from the CCDC's data processing and validation procedures.
#
#######################################################################

data_TUCDUS
_chemical_formula_moiety         'C12 H9 N1'
_chemical_name_systematic        pyrido[2,1-a]isoindole
_symmetry_cell_setting           orthorhombic
_symmetry_space_group_name_H-M   'P n m a'
_symmetry_Int_Tables_number      62
_space_group_name_Hall           '-P 2ac 2n'
loop_
_symmetry_equiv_pos_site_id
_symmetry_equiv_pos_as_xyz
1 x,y,z
2 1/2+x,1/2-y,1/2-z
3 -x,1/2+y,-z
4 1/2-x,-y,1/2+z
5 -x,-y,-z
6 1/2-x,1/2+y,1/2+z
7 x,1/2-y,z
8 1/2+x,y,1/2-z
_cell_length_a                   7.76130(10)
_cell_length_b                   18.8727(4)
_cell_length_c                   5.72950(10)
_cell_angle_alpha                90
_cell_angle_beta                 90
_cell_angle_gamma                90
_cell_volume                     839.238
_exptl_crystal_colour            yellow
_exptl_crystal_description       plate
_cell_formula_units_Z            4
loop_
_atom_site_label
_atom_site_type_symbol
_atom_site_fract_x
_atom_site_fract_y
_atom_site_fract_z
N1 N 0.2822(7) 0.3085(3) 0.8679(9)
C1 C 0.2364(3) 0.2500 0.7425(4)
H1 H 0.170(4) 0.2500 0.589(6)
C2 C 0.2643(2) 0.38121(12) 0.8190(3)
H2 H 0.211(3) 0.3933(13) 0.673(4)
C3 C 0.3252(3) 0.42950(11) 0.9739(4)
H3 H 0.3122 0.4786 0.9414
C4 C 0.4075(3) 0.40837(11) 1.1823(4)
H4 H 0.4500 0.4434 1.2866
C5 C 0.4267(2) 0.33883(11) 1.2354(3)
H5 H 0.4818 0.3251 1.3765
C6 C 0.36534(19) 0.28789(10) 1.0821(3)
N1F N 0.2822(7) 0.1915(3) 0.8679(9)
C2F C 0.2643(2) 0.11879(12) 0.8190(3)
H2F H 0.211(3) 0.1067(13) 0.673(4)
C3F C 0.3252(3) 0.07050(11) 0.9739(4)
H3F H 0.3122 0.0214 0.9414
C4F C 0.4075(3) 0.09163(11) 1.1823(4)
H4F H 0.4500 0.0566 1.2866
C5F C 0.4267(2) 0.16117(11) 1.2354(3)
H5F H 0.4818 0.1749 1.3765
C6F C 0.36534(19) 0.21211(10) 1.0821(3)
C7? C 0.2908(12) 0.3088(6) 0.8769(17)
loop_
_geom_bond_atom_site_label_1
_geom_bond_atom_site_label_2
_geom_bond_site_symmetry_1
_geom_bond_site_symmetry_2
N1 C1 1_555 1_555
C1 H1 1_555 1_555
C2 N1 1_555 1_555
H2 C2 1_555 1_555
C3 C2 1_555 1_555
H3 C3 1_555 1_555
C4 C3 1_555 1_555
H4 C4 1_555 1_555
C5 C4 1_555 1_555
H5 C5 1_555 1_555
C6 N1 1_555 1_555
N1F C1 1_555 1_555
C2F N1F 1_555 1_555
H2F C2F 1_555 1_555
C3F C2F 1_555 1_555
H3F C3F 1_555 1_555
C4F C3F 1_555 1_555
H4F C4F 1_555 1_555
C5F C4F 1_555 1_555
H5F C5F 1_555 1_555
C6F C6 1_555 1_555
C5 C6 1_555 1_555
N1F C6F 1_555 1_555
C5F C6F 1_555 1_555

#END
