
#######################################################################
#
#                 Cambridge Crystallographic Data Centre
#                                CCDC 
#
#######################################################################
#
# If this CIF has been generated from an entry in the Cambridge 
# Structural Database, then it will include bibliographic, chemical, 
# crystal, experimental, refinement or atomic coordinate data resulting 
# from the CCDC's data processing and validation procedures.
#
#######################################################################

data_TUCHOQ
_chemical_formula_moiety         'C26 H18 F5 N3 O4'
_chemical_name_systematic        
4-isobutoxy-8-nitro-N-(2',3',4',5',6'-pentafluorobiphenyl-2-yl)quinoline-2-carboxamide
_symmetry_cell_setting           triclinic
_symmetry_space_group_name_H-M   'P -1'
_symmetry_Int_Tables_number      2
_space_group_name_Hall           '-P 1'
loop_
_symmetry_equiv_pos_site_id
_symmetry_equiv_pos_as_xyz
1 x,y,z
2 -x,-y,-z
_cell_length_a                   9.7294(19)
_cell_length_b                   10.317(2)
_cell_length_c                   12.072(2)
_cell_angle_alpha                88.071(7)
_cell_angle_beta                 86.237(8)
_cell_angle_gamma                74.692(7)
_cell_volume                     1166.09
_exptl_crystal_colour            colorless
_exptl_crystal_description       irregular
_cell_formula_units_Z            2
loop_
_atom_site_label
_atom_site_type_symbol
_atom_site_fract_x
_atom_site_fract_y
_atom_site_fract_z
F1 F 0.74928(9) 0.62971(10) 0.29720(7)
F2 F 0.42673(9) 1.03753(10) 0.40494(7)
F3 F 0.25297(9) 0.66781(10) 0.33340(7)
C1 C 0.12241(15) 0.90703(19) -0.11012(11)
C2 C 0.45149(19) 0.90935(19) 0.37457(11)
F4 F 0.69824(9) 0.88844(10) 0.35800(7)
C3 C 0.22991(15) 0.66723(18) -0.00164(11)
F5 F 0.20414(10) 0.92682(10) 0.38902(7)
C4 C 0.08680(15) 0.78793(19) -0.14286(12)
O1 O 0.00258(11) 0.80593(11) -0.22936(8)
C5 C 0.13901(17) 0.66926(19) -0.08810(12)
C6 C 0.21617(15) 0.89124(19) -0.02201(12)
C7 C 0.61294(17) 0.7010(2) 0.32085(11)
N1 N 0.26734(13) 0.77286(16) 0.03223(9)
C8 C 0.25372(15) 1.00900(19) 0.00802(11)
C9 C 0.50305(17) 0.63786(18) 0.31368(11)
C10 C 0.58882(17) 0.83272(19) 0.35142(11)
C11 C 0.33859(17) 0.85303(19) 0.36612(12)
C12 C 0.20216(17) 1.1313(2) -0.03930(12)
N2 N 0.39615(14) 0.54556(16) 0.12549(10)
N3 N 0.35616(16) 0.99693(17) 0.09520(10)
C13 C 0.10874(18) 1.1444(2) -0.12672(12)
C14 C 0.53040(16) 0.49299(19) 0.28927(11)
C15 C 0.36575(17) 0.71991(19) 0.33666(12)
C16 C -0.0388(2) 0.6897(2) -0.26615(13)
C17 C 0.07099(17) 1.0336(2) -0.16110(12)
O2 O 0.25773(12) 0.43342(12) 0.04043(9)
O3 O 0.46539(13) 0.90356(13) 0.09039(8)
C18 C 0.63431(19) 0.2611(2) 0.34252(13)
C19 C 0.29428(17) 0.5359(2) 0.05630(12)
C20 C 0.61209(18) 0.3974(2) 0.35959(12)
C21 C 0.57423(17) 0.2191(2) 0.25321(13)
O4 O 0.32703(12) 1.08386(12) 0.16698(8)
C22 C 0.49481(16) 0.31151(19) 0.18120(12)
C23 C 0.47278(16) 0.44811(19) 0.19818(11)
C24 C -0.11445(19) 0.7300(2) -0.37235(13)
C25 C -0.1740(2) 0.6150(3) -0.40574(14)
C26 C -0.0147(2) 0.7658(3) -0.46402(13)
H1 H 0.1236(17) 0.5838(18) -0.1048(12)
H2 H 0.0051(16) 1.0499(16) -0.2180(12)
H3 H 0.5901(17) 0.1229(19) 0.2388(12)
H4 H -0.1021(15) 0.6592(16) -0.2062(12)
H5 H 0.0740(16) 1.2311(19) -0.1617(12)
H6 H -0.2435(18) 0.5951(18) -0.3483(14)
H7 H -0.1918(17) 0.8060(19) -0.3547(13)
H8 H -0.2196(18) 0.6384(18) -0.4748(14)
H9 H 0.4023(18) 0.630(2) 0.1265(13)
H10 H -0.0660(17) 0.7885(17) -0.5334(13)
H11 H 0.4572(16) 0.2844(16) 0.1176(12)
H12 H 0.6916(17) 0.193(2) 0.3889(13)
H13 H 0.6497(16) 0.4306(16) 0.4224(12)
H14 H 0.2242(16) 1.2128(17) -0.0172(11)
H15 H -0.096(2) 0.530(2) -0.4169(14)
H16 H 0.072(2) 0.683(2) -0.4797(14)
H17 H 0.0231(17) 0.8382(19) -0.4450(13)
H18 H 0.046(2) 0.619(2) -0.2785(14)
loop_
_geom_bond_atom_site_label_1
_geom_bond_atom_site_label_2
_geom_bond_site_symmetry_1
_geom_bond_site_symmetry_2
F1 C7 1_555 1_555
F2 C2 1_555 1_555
F3 C15 1_555 1_555
C1 C4 1_555 1_555
C2 C10 1_555 1_555
F4 C10 1_555 1_555
C3 C5 1_555 1_555
F5 C11 1_555 1_555
C4 O1 1_555 1_555
O1 C16 1_555 1_555
C5 C4 1_555 1_555
C6 C1 1_555 1_555
C7 C9 1_555 1_555
N1 C3 1_555 1_555
C8 C6 1_555 1_555
C9 C14 1_555 1_555
C10 C7 1_555 1_555
C11 C2 1_555 1_555
C12 C8 1_555 1_555
N2 C19 1_555 1_555
N3 C8 1_555 1_555
C13 C12 1_555 1_555
C14 C20 1_555 1_555
C15 C9 1_555 1_555
C16 C24 1_555 1_555
C17 C1 1_555 1_555
O2 C19 1_555 1_555
O3 N3 1_555 1_555
C18 C20 1_555 1_555
C19 C3 1_555 1_555
C20 H13 1_555 1_555
C21 C18 1_555 1_555
O4 N3 1_555 1_555
C22 C21 1_555 1_555
C23 N2 1_555 1_555
C24 C25 1_555 1_555
C25 H6 1_555 1_555
C26 C24 1_555 1_555
H1 C5 1_555 1_555
H2 C17 1_555 1_555
H3 C21 1_555 1_555
H4 C16 1_555 1_555
H5 C13 1_555 1_555
H7 C24 1_555 1_555
H8 C25 1_555 1_555
H9 N2 1_555 1_555
H10 C26 1_555 1_555
H11 C22 1_555 1_555
H12 C18 1_555 1_555
H14 C12 1_555 1_555
H15 C25 1_555 1_555
H16 C26 1_555 1_555
H17 C26 1_555 1_555
H18 C16 1_555 1_555
C6 N1 1_555 1_555
C11 C15 1_555 1_555
C13 C17 1_555 1_555
C14 C23 1_555 1_555
C22 C23 1_555 1_555

#END
