
#######################################################################
#
#                 Cambridge Crystallographic Data Centre
#                                CCDC 
#
#######################################################################
#
# If this CIF has been generated from an entry in the Cambridge 
# Structural Database, then it will include bibliographic, chemical, 
# crystal, experimental, refinement or atomic coordinate data resulting 
# from the CCDC's data processing and validation procedures.
#
#######################################################################

data_TUCHUW
_chemical_formula_moiety         'C20 H28 O8,C1 H4 O1'
_chemical_name_systematic        
'5b,6,7,8,9-pentahydroxy-8-isopropyl-5a-methyl-4,5a,5b,6,7,8,9,10a,11,11a-decahydro-1H-oxireno[8a,9]phenanthro[1,2-c]furan-3(5H)-one methanol solvate'
_symmetry_cell_setting           orthorhombic
_symmetry_space_group_name_H-M   'P 21 21 21'
_symmetry_Int_Tables_number      19
_space_group_name_Hall           'P 2ac 2ab'
loop_
_symmetry_equiv_pos_site_id
_symmetry_equiv_pos_as_xyz
1 x,y,z
2 1/2-x,-y,1/2+z
3 1/2+x,1/2-y,-z
4 -x,1/2+y,1/2-z
_cell_length_a                   6.0752(3)
_cell_length_b                   14.7427(10)
_cell_length_c                   22.6064(11)
_cell_angle_alpha                90
_cell_angle_beta                 90
_cell_angle_gamma                90
_cell_volume                     2024.74
_cell_formula_units_Z            4
loop_
_atom_site_label
_atom_site_type_symbol
_atom_site_fract_x
_atom_site_fract_y
_atom_site_fract_z
O1 O 0.4170(4) 0.72979(13) 0.00411(9)
O2 O -0.0983(3) 0.42480(12) -0.16197(8)
O3 O 0.2135(3) 0.13844(12) -0.10184(9)
H1 H 0.0880 0.1603 -0.0955
O4 O 0.5532(3) 0.34278(12) -0.09323(8)
H2 H 0.5716 0.3477 -0.1299
O5 O -0.0847(3) 0.22987(12) -0.18373(9)
H3 H -0.2023 0.2584 -0.1897
C1 C 0.1555(4) 0.43690(18) -0.04541(11)
O6 O 0.4878(3) 0.28936(13) -0.20650(8)
H4 H 0.4586 0.3129 -0.2394
C2 C 0.2966(5) 0.14418(18) -0.22637(12)
H5 H 0.1704 0.1070 -0.2116
C3 C 0.0944(4) 0.36877(18) -0.15030(11)
O7 O -0.0176(3) 0.28825(12) -0.06106(8)
H6 H -0.1442 0.3067 -0.0700
C4 C 0.3079(4) 0.23186(18) -0.18842(12)
C5 C 0.3554(5) 0.20766(18) -0.12282(11)
H7 H 0.5076 0.1819 -0.1218
C6 C 0.0970(4) 0.28836(18) -0.19329(11)
H8 H 0.0869 0.3127 -0.2345
C7 C 0.3578(4) 0.29123(18) -0.08185(11)
H9 H 0.3701 0.2679 -0.0404
C8 C 0.1439(4) 0.34943(17) -0.08457(11)
C9 C 0.3242(5) 0.58100(19) 0.02326(12)
C10 C 0.2911(4) 0.51158(17) -0.07767(12)
H10 H 0.4370 0.4842 -0.0878
C11 C 0.3689(5) 0.6706(2) 0.04814(13)
C12 C 0.3347(5) 0.58770(18) -0.03552(12)
C13 C 0.2670(5) 0.49736(19) 0.05698(12)
H11 H 0.1184 0.5035 0.0745
H12 H 0.3740 0.4879 0.0894
O8 O 0.3636(4) 0.69633(15) 0.09989(9)
C14 C -0.0788(5) 0.47144(18) -0.03137(12)
H13 H -0.1664 0.4726 -0.0678
H14 H -0.0702 0.5328 -0.0148
H15 H -0.1485 0.4309 -0.0026
C15 C 0.5058(5) 0.08703(19) -0.22044(13)
H16 H 0.6333 0.1230 -0.2329
H17 H 0.4936 0.0331 -0.2455
H18 H 0.5244 0.0684 -0.1791
C16 C 0.1850(5) 0.54139(18) -0.13589(12)
H19 H 0.0538 0.5789 -0.1271
H20 H 0.2905 0.5795 -0.1581
C17 C 0.2724(5) 0.41597(17) 0.01411(11)
H21 H 0.1999 0.3633 0.0331
H22 H 0.4275 0.3992 0.0062
C18 C 0.2560(5) 0.1641(2) -0.29195(13)
H23 H 0.1168 0.1970 -0.2964
H24 H 0.2483 0.1068 -0.3139
H25 H 0.3768 0.2011 -0.3075
C19 C 0.1170(4) 0.46176(17) -0.17411(11)
H26 H 0.1581 0.4661 -0.2169
C20 C 0.3954(5) 0.68271(18) -0.05205(13)
H27 H 0.5359 0.6839 -0.0742
H28 H 0.2790 0.7108 -0.0767
O9 O 0.4357(4) 0.37329(15) -0.31321(9)
H29 H 0.3515 0.3508 -0.3388
C21 C 0.6623(7) 0.3773(3) -0.33689(19)
H30 H 0.6638 0.4139 -0.3731
H31 H 0.7134 0.3158 -0.3459
H32 H 0.7598 0.4049 -0.3074
loop_
_geom_bond_atom_site_label_1
_geom_bond_atom_site_label_2
_geom_bond_site_symmetry_1
_geom_bond_site_symmetry_2
O1 C11 1_555 1_555
O2 C3 1_555 1_555
O3 H1 1_555 1_555
O4 H2 1_555 1_555
O5 H3 1_555 1_555
C1 C8 1_555 1_555
O6 H4 1_555 1_555
C2 H5 1_555 1_555
C3 C6 1_555 1_555
O7 H6 1_555 1_555
C4 O6 1_555 1_555
C5 O3 1_555 1_555
H7 C5 1_555 1_555
C6 O5 1_555 1_555
H8 C6 1_555 1_555
C7 O4 1_555 1_555
H9 C7 1_555 1_555
C8 C3 1_555 1_555
C9 C11 1_555 1_555
C10 C1 1_555 1_555
H10 C10 1_555 1_555
C11 O8 1_555 1_555
C12 C9 1_555 1_555
C13 C9 1_555 1_555
H11 C13 1_555 1_555
H12 C13 1_555 1_555
C14 C1 1_555 1_555
H13 C14 1_555 1_555
H14 C14 1_555 1_555
H15 C14 1_555 1_555
C15 C2 1_555 1_555
H16 C15 1_555 1_555
H17 C15 1_555 1_555
H18 C15 1_555 1_555
C16 C10 1_555 1_555
H19 C16 1_555 1_555
H20 C16 1_555 1_555
C17 C1 1_555 1_555
H21 C17 1_555 1_555
H22 C17 1_555 1_555
C18 C2 1_555 1_555
H23 C18 1_555 1_555
H24 C18 1_555 1_555
H25 C18 1_555 1_555
C19 O2 1_555 1_555
H26 C19 1_555 1_555
C20 O1 1_555 1_555
H27 C20 1_555 1_555
H28 C20 1_555 1_555
O9 H29 1_555 1_555
C21 O9 1_555 1_555
H30 C21 1_555 1_555
H31 C21 1_555 1_555
H32 C21 1_555 1_555
C2 C4 1_555 1_555
C3 C19 1_555 1_555
O7 C8 1_555 1_555
C4 C5 1_555 1_555
C4 C6 1_555 1_555
C5 C7 1_555 1_555
C7 C8 1_555 1_555
C10 C12 1_555 1_555
C12 C20 1_555 1_555
C13 C17 1_555 1_555
C16 C19 1_555 1_555

#END
