
#######################################################################
#
#                 Cambridge Crystallographic Data Centre
#                                CCDC 
#
#######################################################################
#
# If this CIF has been generated from an entry in the Cambridge 
# Structural Database, then it will include bibliographic, chemical, 
# crystal, experimental, refinement or atomic coordinate data resulting 
# from the CCDC's data processing and validation procedures.
#
#######################################################################

data_TUCHIK
_chemical_formula_moiety         'C31 H29 F5 N4 O2 S1,C1 H4 O1'
_chemical_name_systematic        
"8-((butylcarbamothioyl)amino)-4-isobutoxy-N-(2',3',4',5',6'-pentafluorobiphenyl-2-yl)quinoline-2-carboxamide methanol aolvate"
_symmetry_cell_setting           triclinic
_symmetry_space_group_name_H-M   'P -1'
_symmetry_Int_Tables_number      2
_space_group_name_Hall           '-P 1'
loop_
_symmetry_equiv_pos_site_id
_symmetry_equiv_pos_as_xyz
1 x,y,z
2 -x,-y,-z
_cell_length_a                   8.1926(9)
_cell_length_b                   13.4425(16)
_cell_length_c                   16.253(3)
_cell_angle_alpha                112.608(3)
_cell_angle_beta                 97.983(3)
_cell_angle_gamma                101.178(2)
_cell_volume                     1575.39
_exptl_crystal_colour            colorless
_exptl_crystal_description       irregular
_cell_formula_units_Z            2
loop_
_atom_site_label
_atom_site_type_symbol
_atom_site_fract_x
_atom_site_fract_y
_atom_site_fract_z
C1 C 0.7142(4) 0.5829(3) 1.0123(3)
C2 C 0.8125(4) 0.4158(3) 0.8858(3)
C3 C 0.7231(5) 0.4783(3) 1.1064(3)
C4 C 0.7868(5) 0.5047(3) 0.8648(3)
C5 C 0.6424(5) 0.6517(3) 1.1582(3)
C6 C 0.8669(5) 0.3235(3) 0.8159(3)
C7 C 0.7454(4) 0.4884(3) 1.0253(3)
C8 C 0.7363(4) 0.5883(3) 0.9285(3)
C9 C 0.6635(5) 0.6640(3) 1.0808(3)
C10 C 0.8784(5) 0.0840(3) 0.6886(3)
C11 C 1.0178(5) 0.1028(3) 0.8370(3)
C12 C 1.0893(5) 0.0160(3) 0.7947(3)
C13 C 0.9160(5) 0.1385(3) 0.7838(3)
C14 C 0.5859(5) 0.1032(3) 0.6373(3)
C15 C 0.9538(5) -0.0012(3) 0.6470(3)
C16 C 0.8005(5) 0.1470(3) 0.5654(3)
C17 C 0.7553(5) 0.1118(3) 0.6298(3)
C18 C 1.0604(5) -0.0346(3) 0.7005(3)
C19 C 0.4705(5) 0.1300(3) 0.5838(3)
C20 C 0.5222(6) 0.1642(4) 0.5204(3)
C21 C 0.6882(6) 0.1726(4) 0.5103(3)
F1 F 0.5278(3) 0.06618(19) 0.69631(17)
F2 F 0.9639(3) 0.1605(2) 0.55604(19)
F3 F 0.3081(3) 0.1197(2) 0.59213(19)
F4 F 0.7395(4) 0.2089(3) 0.4493(2)
F5 F 0.4108(4) 0.1870(2) 0.4655(2)
N1 N 0.7925(4) 0.4051(2) 0.9608(2)
N2 N 0.8518(4) 0.2308(3) 0.8314(3)
N3 N 0.7481(4) 0.3795(3) 1.1132(3)
N4 N 0.9028(4) 0.4635(3) 1.2621(3)
C22 C 0.9750(7) 0.4685(5) 1.3499(4)
O1 O 0.7038(3) 0.6782(2) 0.91883(19)
O2 O 0.9189(3) 0.3350(2) 0.75206(19)
C23 C 0.6710(5) 0.5583(3) 1.1716(3)
S1 S 0.80908(13) 0.24059(9) 1.18503(9)
C24 C 0.6820(5) 0.7957(3) 0.8400(3)
C25 C 0.7136(5) 0.6853(3) 0.8329(3)
C26 C 0.8191(5) 0.8934(3) 0.9160(3)
C27 C 0.6764(7) 0.8000(4) 0.7476(4)
C28 C 0.8203(5) 0.3688(3) 1.1884(3)
H1 H 0.797(4) 0.503(3) 0.808(3)
H2 H 1.048(5) 0.147(3) 0.910(3)
H3 H 0.652(5) 0.556(3) 1.228(3)
H4 H 0.615(5) 0.711(3) 1.204(3)
H5 H 0.650(4) 0.723(3) 1.071(2)
H6 H 0.625(5) 0.618(3) 0.777(3)
H7 H 0.845(5) 0.683(3) 0.823(3)
H8 H 0.815(5) 0.971(4) 0.923(3)
H9 H 0.942(5) 0.892(3) 0.911(2)
H10 H 0.718(6) 0.312(4) 1.050(4)
H11 H 1.157(5) -0.009(3) 0.835(3)
H12 H 0.922(5) 0.519(3) 1.246(3)
H13 H 0.568(5) 0.796(3) 0.852(3)
H14 H 0.942(5) -0.041(3) 0.576(3)
H15 H 0.826(6) 0.891(3) 0.975(3)
H16 H 0.649(5) 0.867(3) 0.745(3)
H17 H 0.827(6) 0.236(4) 0.879(3)
H18 H 0.583(7) 0.743(5) 0.698(4)
H19 H 1.108(5) -0.096(3) 0.672(3)
H20 H 0.774(6) 0.791(3) 0.725(3)
C29 C 0.9796(17) 0.561(2) 1.4180(11)
C30 C 0.7982(15) 0.5595(6) 1.4327(6)
C31 C 0.6277(16) 0.532(2) 1.4323(13)
H21 H 1.013(2) 0.610(5) 1.383(3)
H22 H 1.0663(16) 0.593(3) 1.4813(14)
H23 H 0.785(2) 0.620(3) 1.408(3)
H24 H 0.836(2) 0.598(4) 1.5035(6)
H25 H 0.580(2) 0.444(2) 1.402(4)
H26 H 0.559(2) 0.563(3) 1.3936(19)
H27 H 0.611(2) 0.563(5) 1.4983(14)
H28 H 0.90008 0.39891 1.35657
H29 H 1.09822 0.46158 1.35286
O3 O 0.7146(4) 0.1544(2) 0.9659(3)
C32 C 0.5396(6) 0.0920(4) 0.9247(4)
H30 H 0.749(6) 0.155(4) 1.019(3)
H31 H 0.473(7) 0.129(4) 0.973(4)
H32 H 0.510(6) 0.095(4) 0.861(4)
H33 H 0.520(6) 0.016(4) 0.906(4)
loop_
_geom_bond_atom_site_label_1
_geom_bond_atom_site_label_2
_geom_bond_site_symmetry_1
_geom_bond_site_symmetry_2
C1 C7 1_555 1_555
C2 C4 1_555 1_555
C3 C7 1_555 1_555
C4 C8 1_555 1_555
C5 C9 1_555 1_555
C6 C2 1_555 1_555
C7 N1 1_555 1_555
C8 C1 1_555 1_555
C9 C1 1_555 1_555
C10 C13 1_555 1_555
C11 C12 1_555 1_555
C12 C18 1_555 1_555
C13 C11 1_555 1_555
C14 C17 1_555 1_555
C15 C10 1_555 1_555
C16 C17 1_555 1_555
C17 C10 1_555 1_555
C18 C15 1_555 1_555
C19 C14 1_555 1_555
C20 C19 1_555 1_555
C21 C16 1_555 1_555
F1 C14 1_555 1_555
F2 C16 1_555 1_555
F3 C19 1_555 1_555
F4 C21 1_555 1_555
F5 C20 1_555 1_555
N1 C2 1_555 1_555
N2 C6 1_555 1_555
N3 C3 1_555 1_555
N4 C22 1_555 1_555
C22 C29 1_555 1_555
O1 C8 1_555 1_555
O2 C6 1_555 1_555
C23 C3 1_555 1_555
S1 C28 1_555 1_555
C24 C25 1_555 1_555
C25 O1 1_555 1_555
C26 C24 1_555 1_555
C27 C24 1_555 1_555
C28 N3 1_555 1_555
H1 C4 1_555 1_555
H2 C11 1_555 1_555
H3 C23 1_555 1_555
H4 C5 1_555 1_555
H5 C9 1_555 1_555
H6 C25 1_555 1_555
H7 C25 1_555 1_555
H8 C26 1_555 1_555
H9 C26 1_555 1_555
H10 N3 1_555 1_555
H11 C12 1_555 1_555
H12 N4 1_555 1_555
H13 C24 1_555 1_555
H14 C15 1_555 1_555
H15 C26 1_555 1_555
H16 C27 1_555 1_555
H17 N2 1_555 1_555
H18 C27 1_555 1_555
H19 C18 1_555 1_555
H20 C27 1_555 1_555
C29 C30 1_555 1_555
C30 C31 1_555 1_555
C31 H25 1_555 1_555
H21 C29 1_555 1_555
H22 C29 1_555 1_555
H23 C30 1_555 1_555
H24 C30 1_555 1_555
H26 C31 1_555 1_555
H27 C31 1_555 1_555
H28 C22 1_555 1_555
H29 C22 1_555 1_555
O3 C32 1_555 1_555
C32 H31 1_555 1_555
H30 O3 1_555 1_555
H32 C32 1_555 1_555
H33 C32 1_555 1_555
C5 C23 1_555 1_555
C13 N2 1_555 1_555
C20 C21 1_555 1_555
N4 C28 1_555 1_555

#END
