
#######################################################################
#
#                 Cambridge Crystallographic Data Centre
#                                CCDC 
#
#######################################################################
#
# If this CIF has been generated from an entry in the Cambridge 
# Structural Database, then it will include bibliographic, chemical, 
# crystal, experimental, refinement or atomic coordinate data resulting 
# from the CCDC's data processing and validation procedures.
#
#######################################################################

data_TUCLAE
_chemical_name_common            
"5,5':11,11':17,17'-tris(butane-1,4-dioxy)-23,23'-(m-xylylenedioxy)-bis(2,8,14,20-tetrakis(phenylethyl)-6,10:12,16:18,22:24,4-O,O'-tetrakis(methylene)calix[4]resorcinarene) chloroform nitrobenzene clathrate nitrobenzene solvate"
_chemical_formula_moiety         'C148 H136 O24,4(C6 H5 N1 O2),C1 H1 Cl3'
_chemical_name_systematic        
"61,62,63,64-Tetrahydro-6,14,16,44,46,54,75,84-octaphenethyl-33H-22,38-(epoxybutanoxy)-8,12:48,52-dimethano-5,17:28,32:43,55-trimetheno-4,18,42,56-(methynoxybutanoxymethyno)-6H,14H,16H,27H,42H,46H,54H-bis(1,3)benzodioxocino(9,8-d:9',8'-d')-bis(1,3)benzodioxocino(9',10':4,5;10'',9'':12,13)(1,3,6,11,14,16,19,27)octaoxacyclononacosino(17,18-j:29,28-j')-bis(1,3)benzodioxocin chloroform nitrobenzene clathrate nitrobenzene solvate"
_symmetry_cell_setting           orthorhombic
_symmetry_space_group_name_H-M   'P c a n'
_symmetry_Int_Tables_number      60
_space_group_name_Hall           '-P 2n 2c'
loop_
_symmetry_equiv_pos_site_id
_symmetry_equiv_pos_as_xyz
1 x,y,z
2 1/2-x,1/2-y,1/2+z
3 1/2-x,1/2+y,-z
4 x,-y,1/2-z
5 -x,-y,-z
6 1/2+x,1/2+y,1/2-z
7 1/2+x,1/2-y,z
8 -x,y,1/2+z
_cell_length_a                   22.910(3)
_cell_length_b                   34.896(4)
_cell_length_c                   20.440(4)
_cell_angle_alpha                90
_cell_angle_beta                 90
_cell_angle_gamma                90
_cell_volume                     16341.1
_exptl_crystal_colour            colorless
_cell_formula_units_Z            4
loop_
_atom_site_label
_atom_site_type_symbol
_atom_site_fract_x
_atom_site_fract_y
_atom_site_fract_z
C82 C 0.0657(7) 0.4586(6) 0.4626(16)
C83 C 0.0419(13) 0.4539(7) 0.5246(12)
C84 C -0.0142(14) 0.4392(7) 0.5316(11)
C85 C -0.0464(8) 0.4292(6) 0.4766(18)
C86 C -0.0226(12) 0.4340(6) 0.4145(13)
C87 C 0.0334(13) 0.4487(7) 0.4075(10)
N2 N 0.1302(11) 0.4771(13) 0.4662(20)
O15 O 0.1368(19) 0.4791(14) 0.4077(20)
O16 O 0.1233(19) 0.4819(14) 0.5241(20)
Cl1 Cl -0.1460(13) -0.0704(11) 0.7430(15)
C88 C -0.1534(24) -0.0148(21) 0.7290(35)
Cl2 Cl -0.1513(13) 0.0028(10) 0.6732(21)
Cl3 Cl -0.0741(26) -0.0118(29) 0.7450(58)
Cl4 Cl -0.1493(36) -0.0409(29) 0.7578(49)
C88C C -0.1534(24) 0.0148(21) 0.7710(35)
Cl1C Cl -0.1460(13) 0.0704(11) 0.7570(15)
Cl4C Cl -0.1493(36) 0.0409(29) 0.7422(49)
Cl2C Cl -0.1513(13) -0.0028(10) 0.8268(21)
Cl3C Cl -0.0741(26) 0.0118(29) 0.7550(58)
O1 O -0.3313(5) 0.0794(3) 0.8599(5)
C1 C -0.2882(7) 0.0576(5) 0.8924(8)
H1 H -0.2564(7) 0.0524(5) 0.8624(8)
H2 H -0.3048(7) 0.0332(5) 0.9055(8)
O2 O -0.2662(5) 0.0766(3) 0.9481(5)
C2 C -0.2143(3) 0.0976(3) 0.9368(5)
C3 C -0.2156(3) 0.1346(3) 0.9114(5)
C4 C -0.1639(4) 0.1548(2) 0.9026(4)
H3 H -0.1648(6) 0.1795(2) 0.8857(6)
C5 C -0.1109(3) 0.1380(2) 0.9191(5)
C6 C -0.1095(3) 0.1010(3) 0.9444(5)
C7 C -0.1612(4) 0.0809(2) 0.9532(5)
O3 O -0.1592(4) 0.0427(3) 0.9712(5)
C8 C -0.1745(9) 0.0344(5) 1.0387(9)
H4 H -0.2110(9) 0.0467(5) 1.0504(9)
H5 H -0.1442(9) 0.0432(5) 1.0682(9)
C9 C -0.1806(8) -0.0104(5) 1.0420(10)
H6 H -0.2009(8) -0.0176(5) 1.0818(10)
H7 H -0.2033(8) -0.0194(5) 1.0050(10)
C10 C -0.1252(8) -0.0276(5) 1.0410(9)
H8 H -0.1065(8) -0.0239(5) 1.0831(9)
H9 H -0.1013(8) -0.0152(5) 1.0080(9)
C11 C -0.1281(9) -0.0712(5) 1.0260(9)
H10 H -0.0911(9) -0.0834(5) 1.0361(9)
H11 H -0.1585(9) -0.0834(5) 1.0518(9)
O4 O -0.1405(5) -0.0744(3) 0.9592(5)
O5 O -0.0587(4) 0.0828(3) 0.9627(5)
C12 C -0.0260(7) 0.0646(5) 0.9134(8)
H12 H -0.0523(7) 0.0558(5) 0.8793(8)
H13 H -0.0068(7) 0.0423(5) 0.9317(8)
O6 O 0.0167(4) 0.0892(3) 0.8852(5)
C13 C 0.0012(4) 0.1109(2) 0.8309(3)
C14 C -0.0312(4) 0.1444(2) 0.8357(3)
C15 C -0.0434(4) 0.1657(2) 0.7799(4)
H14 H -0.0651(5) 0.1882(3) 0.7832(6)
C16 C -0.0232(4) 0.1535(2) 0.7193(3)
C17 C 0.0093(4) 0.1200(3) 0.7145(3)
C18 C 0.0215(4) 0.0986(2) 0.7703(4)
O7 O 0.0503(5) 0.0640(3) 0.7639(5)
C19 C 0.1127(8) 0.0706(5) 0.7667(9)
H15 H 0.1233(8) 0.0816(5) 0.8086(9)
H16 H 0.1245(8) 0.0882(5) 0.7324(9)
C20 C 0.1418(7) 0.0337(5) 0.7581(8)
C21 C 0.2052(10) 0.0343(7) 0.7566(11)
H17 H 0.2253(10) 0.0574(7) 0.7602(11)
C22 C 0.2357(16) 0.0000 0.7500
H18 H 0.2763(16) 0.0000 0.7500
C23 C 0.1142(11) 0.0000 0.7500
H19 H 0.0736(11) 0.0000 0.7500
O8 O 0.0317(4) 0.1069(3) 0.6544(5)
C24 C -0.0103(7) 0.0874(5) 0.6127(8)
H20 H 0.0099(7) 0.0683(5) 0.5868(8)
H21 H -0.0386(7) 0.0743(5) 0.6400(8)
O9 O -0.0394(4) 0.1125(3) 0.5710(5)
C25 C -0.0917(3) 0.1274(3) 0.5914(5)
C26 C -0.0946(3) 0.1599(3) 0.6307(5)
C27 C -0.1485(4) 0.1755(2) 0.6470(4)
H22 H -0.1504(6) 0.1972(3) 0.6733(6)
C28 C -0.1994(3) 0.1586(3) 0.6241(5)
C29 C -0.1966(3) 0.1261(3) 0.5848(5)
C30 C -0.1426(4) -0.1106(2) 0.9315(4)
O10 O -0.2458(5) 0.1099(3) 0.5555(5)
C31 C -0.2746(8) 0.0833(6) 0.5945(9)
H23 H -0.2471(8) 0.0717(6) 0.6246(9)
H24 H -0.2907(8) 0.0632(6) 0.5672(9)
O11 O -0.3212(5) 0.1014(3) 0.6312(5)
C32 C -0.3049(5) 0.1137(3) 0.6928(4)
C33 C -0.2788(5) 0.1490(3) 0.7050(4)
C34 C -0.2694(4) 0.1609(2) 0.7690(5)
H25 H -0.2519(6) 0.1845(3) 0.7772(7)
C35 C -0.2860(5) 0.1376(3) 0.8209(3)
C36 C -0.3121(5) 0.1023(3) 0.8087(4)
C37 C -0.3216(5) 0.0904(2) 0.7447(5)
O12 O -0.3420(5) 0.0535(4) 0.7339(6)
C38 C -0.4051(9) 0.0514(6) 0.7206(10)
H26 H -0.4145(9) 0.0638(6) 0.6794(10)
H27 H -0.4272(9) 0.0635(6) 0.7553(10)
C39 C -0.4183(9) 0.0086(6) 0.7174(9)
H28 H -0.4561(9) 0.0047(6) 0.6971(9)
H29 H -0.3891(9) -0.0040(6) 0.6905(9)
C40 C -0.2591(7) 0.1729(4) 0.6446(8)
H30 H -0.2863(7) 0.1674(4) 0.6088(8)
C41 C -0.2629(8) 0.2161(5) 0.6594(9)
H31 H -0.3004(8) 0.2214(5) 0.6795(9)
H32 H -0.2329(8) 0.2226(5) 0.6909(9)
C42 C -0.2566(12) 0.2395(7) 0.6050(13)
H33 H -0.2749(12) 0.2290(7) 0.5662(13)
H34 H -0.2162(12) 0.2460(7) 0.5961(13)
C43 C -0.2994(10) 0.2811(5) 0.6414(18)
C44 C -0.3152(10) 0.3015(8) 0.5858(12)
H35 H -0.3210(15) 0.2887(13) 0.5464(15)
C45 C -0.3224(9) 0.3410(8) 0.5890(11)
H36 H -0.3329(13) 0.3547(12) 0.5518(14)
C46 C -0.3137(9) 0.3601(5) 0.6479(15)
H37 H -0.3185(14) 0.3866(5) 0.6500(23)
C47 C -0.2978(10) 0.3397(9) 0.7035(10)
H38 H -0.2920(15) 0.3525(13) 0.7429(13)
C48 C -0.2907(11) 0.3002(9) 0.7003(13)
H39 H -0.2801(16) 0.2866(13) 0.7375(17)
C49 C -0.0378(6) 0.1767(4) 0.6574(7)
H40 H -0.0073(6) 0.1711(4) 0.6252(7)
C50 C -0.0375(6) 0.2208(4) 0.6683(7)
H41 H -0.0511(6) 0.2336(4) 0.6291(7)
H42 H -0.0639(6) 0.2272(4) 0.7038(7)
C51 C 0.0241(7) 0.2349(5) 0.6851(8)
H43 H 0.0412(7) 0.2173(5) 0.7164(8)
H44 H 0.0477(7) 0.2338(5) 0.6457(8)
C52 C 0.0278(5) 0.2734(3) 0.7117(6)
C53 C 0.0525(5) 0.3026(4) 0.6748(5)
H45 H 0.0659(8) 0.2977(6) 0.6327(5)
C54 C 0.0570(6) 0.3393(3) 0.7008(7)
H46 H 0.0735(8) 0.3589(4) 0.6762(9)
C55 C 0.0369(6) 0.3467(3) 0.7637(7)
H47 H 0.0399(9) 0.3713(3) 0.7811(10)
C56 C 0.0122(6) 0.3174(4) 0.8006(5)
H48 H -0.0013(9) 0.3224(6) 0.8427(6)
C57 C 0.0076(5) 0.2808(3) 0.7746(6)
H49 H -0.0089(8) 0.2611(5) 0.7992(8)
C58 C -0.0524(6) 0.1576(4) 0.9033(7)
H50 H -0.0242(6) 0.1476(4) 0.9350(7)
C59 C -0.0518(7) 0.2011(4) 0.9110(7)
H51 H -0.0157(7) 0.2110(4) 0.8926(7)
H52 H -0.0838(7) 0.2118(4) 0.8858(7)
C60 C -0.0570(8) 0.2150(5) 0.9805(8)
H53 H -0.0929(8) 0.2051(5) 0.9991(8)
H54 H -0.0248(8) 0.2046(5) 1.0058(8)
C61 C -0.0567(6) 0.2582(3) 0.9869(6)
C62 C -0.0038(5) 0.2776(4) 0.9916(6)
H55 H 0.0311(6) 0.2639(6) 0.9913(10)
C63 C -0.0031(6) 0.3173(4) 0.9969(7)
H56 H 0.0323(7) 0.3302(6) 1.0000(10)
C64 C -0.0552(7) 0.3376(3) 0.9974(7)
H57 H -0.0548(10) 0.3642(3) 1.0009(10)
C65 C -0.1081(6) 0.3183(4) 0.9927(7)
H58 H -0.1430(7) 0.3319(6) 0.9931(10)
C66 C -0.1088(5) 0.2786(4) 0.9875(6)
H59 H -0.1442(6) 0.2656(6) 0.9843(9)
C67 C -0.2748(7) 0.1502(4) 0.8912(7)
H60 H -0.3041(7) 0.1376(4) 0.9187(7)
C68 C -0.2812(7) 0.1942(4) 0.9024(8)
H61 H -0.2562(7) 0.2081(4) 0.8723(8)
H62 H -0.2698(7) 0.2007(4) 0.9467(8)
C69 C -0.3473(7) 0.2054(5) 0.8904(9)
H63 H -0.3588(7) 0.1966(5) 0.8473(9)
H64 H -0.3714(7) 0.1921(5) 0.9222(9)
C70 C -0.3587(5) 0.2474(3) 0.8953(6)
C71 C -0.3719(5) 0.2692(4) 0.8403(5)
H65 H -0.3712(8) 0.2580(5) 0.7990(5)
C72 C -0.3861(5) 0.3077(4) 0.8470(6)
H66 H -0.3949(8) 0.3223(5) 0.8101(7)
C73 C -0.3871(6) 0.3245(3) 0.9086(7)
H67 H -0.3966(8) 0.3503(3) 0.9131(10)
C74 C -0.3739(6) 0.3027(4) 0.9637(5)
H68 H -0.3746(8) 0.3140(5) 1.0049(6)
C75 C -0.3598(5) 0.2642(4) 0.9570(5)
H69 H -0.3510(8) 0.2497(5) 0.9938(6)
C25C C -0.0917(3) -0.1274(3) 0.9086(5)
O9C O -0.0394(4) -0.1125(3) 0.9290(5)
C24C C -0.0103(7) -0.0874(5) 0.8873(8)
O8C O 0.0317(4) -0.1069(3) 0.8456(5)
C17C C 0.0093(4) -0.1200(3) 0.7855(3)
C16C C -0.0232(4) -0.1535(2) 0.7807(3)
C15C C -0.0434(4) -0.1657(2) 0.7201(4)
C14C C -0.0312(4) -0.1444(2) 0.6643(3)
C13C C 0.0012(4) -0.1109(2) 0.6691(3)
O6C O 0.0167(4) -0.0892(3) 0.6148(5)
C12C C -0.0260(7) -0.0646(5) 0.5866(8)
O5C O -0.0587(4) -0.0828(3) 0.5373(5)
C6C C -0.1095(3) -0.1010(3) 0.5556(5)
C5C C -0.1109(3) -0.1380(2) 0.5809(5)
C4C C -0.1639(4) -0.1548(2) 0.5974(4)
C3C C -0.2156(3) -0.1346(3) 0.5886(5)
C2C C -0.2143(3) -0.0976(3) 0.5632(5)
O2C O -0.2662(5) -0.0766(3) 0.5519(5)
C1C C -0.2882(7) -0.0576(5) 0.6076(8)
O1C O -0.3313(5) -0.0794(3) 0.6401(5)
C36C C -0.3121(5) -0.1023(3) 0.6913(4)
C35C C -0.2860(5) -0.1376(3) 0.6791(3)
C34C C -0.2694(4) -0.1609(2) 0.7310(5)
C33C C -0.2788(5) -0.1490(3) 0.7950(4)
C32C C -0.3049(5) -0.1137(3) 0.8072(4)
O11C O -0.3212(5) -0.1014(3) 0.8688(5)
C31C C -0.2746(8) -0.0833(6) 0.9055(9)
O10C O -0.2458(5) -0.1099(3) 0.9445(5)
C29C C -0.1966(3) -0.1261(3) 0.9152(5)
C28C C -0.1994(3) -0.1586(3) 0.8759(5)
C27C C -0.1485(4) -0.1755(2) 0.8530(4)
C26C C -0.0946(3) -0.1599(3) 0.8693(5)
C49C C -0.0378(6) -0.1767(4) 0.8426(7)
H40C H -0.0073(6) -0.1711(4) 0.8748(7)
C50C C -0.0375(6) -0.2208(4) 0.8317(7)
H41C H -0.0511(6) -0.2336(4) 0.8709(7)
H42C H -0.0639(6) -0.2272(4) 0.7962(7)
C51C C 0.0241(7) -0.2349(5) 0.8149(8)
H43C H 0.0412(7) -0.2173(5) 0.7836(8)
H44C H 0.0477(7) -0.2338(5) 0.8543(8)
C52C C 0.0278(5) -0.2734(3) 0.7883(6)
C53C C 0.0525(5) -0.3026(4) 0.8252(5)
H45C H 0.0659(8) -0.2977(6) 0.8673(5)
C54C C 0.0570(6) -0.3393(3) 0.7992(7)
H46C H 0.0735(8) -0.3589(4) 0.8238(9)
C55C C 0.0369(6) -0.3467(3) 0.7363(7)
H47C H 0.0399(9) -0.3713(3) 0.7189(10)
C56C C 0.0122(6) -0.3174(4) 0.6994(5)
H48C H -0.0013(9) -0.3224(6) 0.6573(6)
C57C C 0.0076(5) -0.2808(3) 0.7254(6)
H49C H -0.0089(8) -0.2611(5) 0.7008(8)
H22C H -0.1504(6) -0.1972(3) 0.8267(6)
C40C C -0.2591(7) -0.1729(4) 0.8554(8)
H30C H -0.2863(7) -0.1674(4) 0.8912(8)
C41C C -0.2629(8) -0.2161(5) 0.8406(9)
H31C H -0.3004(8) -0.2214(5) 0.8205(9)
H32C H -0.2329(8) -0.2226(5) 0.8091(9)
C42C C -0.2566(12) -0.2395(7) 0.8950(13)
H33C H -0.2749(12) -0.2290(7) 0.9338(13)
H34C H -0.2162(12) -0.2460(7) 0.9039(13)
C43C C -0.2994(10) -0.2811(5) 0.8586(18)
C44C C -0.3152(10) -0.3015(8) 0.9142(12)
H35C H -0.3210(15) -0.2887(13) 0.9536(15)
C45C C -0.3224(9) -0.3410(8) 0.9110(11)
H36C H -0.3329(13) -0.3547(12) 0.9482(14)
C46C C -0.3137(9) -0.3601(5) 0.8521(15)
H37C H -0.3185(14) -0.3866(5) 0.8500(23)
C47C C -0.2978(10) -0.3397(9) 0.7965(10)
H38C H -0.2920(15) -0.3525(13) 0.7571(13)
C48C C -0.2907(11) -0.3002(9) 0.7997(13)
H39C H -0.2801(16) -0.2866(13) 0.7625(17)
H23C H -0.2471(8) -0.0717(6) 0.8754(9)
H24C H -0.2907(8) -0.0632(6) 0.9328(9)
C37C C -0.3216(5) -0.0904(2) 0.7553(5)
O12C O -0.3420(5) -0.0535(4) 0.7661(6)
C38C C -0.4051(9) -0.0514(6) 0.7794(10)
H26C H -0.4145(9) -0.0638(6) 0.8206(10)
H27C H -0.4272(9) -0.0635(6) 0.7447(10)
C39C C -0.4183(9) -0.0086(6) 0.7826(9)
C21C C 0.2052(10) -0.0343(7) 0.7434(11)
C20C C 0.1418(7) -0.0337(5) 0.7419(8)
C19C C 0.1127(8) -0.0706(5) 0.7333(9)
O7C O 0.0503(5) -0.0640(3) 0.7361(5)
C18C C 0.0215(4) -0.0986(2) 0.7297(4)
H15C H 0.1233(8) -0.0816(5) 0.6914(9)
H16C H 0.1245(8) -0.0882(5) 0.7676(9)
H17C H 0.2253(10) -0.0574(7) 0.7398(11)
C30C C -0.1426(4) 0.1106(2) 0.5685(4)
O4C O -0.1405(5) 0.0744(3) 0.5408(5)
C11C C -0.1281(9) 0.0712(5) 0.4740(9)
C10C C -0.1252(8) 0.0276(5) 0.4590(9)
C9C C -0.1806(8) 0.0104(5) 0.4580(10)
C8C C -0.1745(9) -0.0344(5) 0.4613(9)
O3C O -0.1592(4) -0.0427(3) 0.5288(5)
C7C C -0.1612(4) -0.0809(2) 0.5468(5)
H4C H -0.2110(9) -0.0467(5) 0.4496(9)
H5C H -0.1442(9) -0.0432(5) 0.4318(9)
H6C H -0.2009(8) 0.0176(5) 0.4182(10)
H7C H -0.2033(8) 0.0194(5) 0.4950(10)
H8C H -0.1065(8) 0.0239(5) 0.4169(9)
H9C H -0.1013(8) 0.0152(5) 0.4920(9)
H10C H -0.0911(9) 0.0834(5) 0.4639(9)
H11C H -0.1585(9) 0.0834(5) 0.4482(9)
H28C H -0.4561(9) -0.0047(6) 0.8029(9)
H29C H -0.3891(9) 0.0040(6) 0.8095(9)
H25C H -0.2519(6) -0.1845(3) 0.7228(7)
C67C C -0.2748(7) -0.1502(4) 0.6088(7)
H60C H -0.3041(7) -0.1376(4) 0.5813(7)
C68C C -0.2812(7) -0.1942(4) 0.5976(8)
H61C H -0.2562(7) -0.2081(4) 0.6277(8)
H62C H -0.2698(7) -0.2007(4) 0.5533(8)
C69C C -0.3473(7) -0.2054(5) 0.6096(9)
H63C H -0.3588(7) -0.1966(5) 0.6527(9)
H64C H -0.3714(7) -0.1921(5) 0.5778(9)
C70C C -0.3587(5) -0.2474(3) 0.6047(6)
C71C C -0.3719(5) -0.2692(4) 0.6597(5)
H65C H -0.3712(8) -0.2580(5) 0.7010(5)
C72C C -0.3861(5) -0.3077(4) 0.6530(6)
H66C H -0.3949(8) -0.3223(5) 0.6899(7)
C73C C -0.3871(6) -0.3245(3) 0.5914(7)
H67C H -0.3966(8) -0.3503(3) 0.5869(10)
C74C C -0.3739(6) -0.3027(4) 0.5363(5)
H68C H -0.3746(8) -0.3140(5) 0.4951(6)
C75C C -0.3598(5) -0.2642(4) 0.5430(5)
H69C H -0.3510(8) -0.2497(5) 0.5062(6)
H1C H -0.2564(7) -0.0524(5) 0.6376(8)
H2C H -0.3048(7) -0.0332(5) 0.5945(8)
H3C H -0.1648(6) -0.1795(2) 0.6143(6)
C58C C -0.0524(6) -0.1576(4) 0.5967(7)
H50C H -0.0242(6) -0.1476(4) 0.5650(7)
C59C C -0.0518(7) -0.2011(4) 0.5890(7)
H51C H -0.0157(7) -0.2110(4) 0.6074(7)
H52C H -0.0838(7) -0.2118(4) 0.6142(7)
C60C C -0.0570(8) -0.2150(5) 0.5195(8)
H53C H -0.0929(8) -0.2051(5) 0.5009(8)
H54C H -0.0248(8) -0.2046(5) 0.4942(8)
C61C C -0.0567(6) -0.2582(3) 0.5131(6)
C62C C -0.0038(5) -0.2776(4) 0.5084(6)
H55C H 0.0311(6) -0.2639(6) 0.5087(10)
C63C C -0.0031(6) -0.3173(4) 0.5031(7)
H56C H 0.0323(7) -0.3302(6) 0.5000(10)
C64C C -0.0552(7) -0.3376(3) 0.5026(7)
H57C H -0.0548(10) -0.3642(3) 0.4991(10)
C65C C -0.1081(6) -0.3183(4) 0.5073(7)
H58C H -0.1430(7) -0.3319(6) 0.5069(10)
C66C C -0.1088(5) -0.2786(4) 0.5125(6)
H59C H -0.1442(6) -0.2656(6) 0.5157(9)
H12C H -0.0523(7) -0.0558(5) 0.6207(8)
H13C H -0.0068(7) -0.0423(5) 0.5683(8)
H14C H -0.0651(5) -0.1882(3) 0.7168(6)
H20C H 0.0099(7) -0.0683(5) 0.9132(8)
H21C H -0.0386(7) -0.0743(5) 0.8600(8)
O13 O 0.1385(12) 0.2788(8) 0.2504(15)
O14 O 0.1867(11) 0.2497(8) 0.3240(11)
N1 N 0.1633(13) 0.2760(8) 0.3010(16)
C76 C 0.1793(9) 0.3154(5) 0.3319(9)
C77 C 0.2252(9) 0.3181(5) 0.3762(10)
H70 H 0.2455(12) 0.2962(7) 0.3885(15)
C78 C 0.2405(7) 0.3535(7) 0.4021(8)
H71 H 0.2712(9) 0.3553(10) 0.4317(11)
C79 C 0.2101(10) 0.3862(5) 0.3836(10)
H72 H 0.2204(14) 0.4099(6) 0.4009(14)
C80 C 0.1642(9) 0.3835(5) 0.3394(11)
H73 H 0.1438(13) 0.4054(7) 0.3270(16)
C81 C 0.1488(7) 0.3481(7) 0.3135(9)
H74 H 0.1182(9) 0.3462(11) 0.2838(12)
C89? C 0.1218(25) 0.4370(10) 0.1554(25)
C90? C 0.1642(18) 0.4271(15) 0.1098(24)
C91? C 0.1683(14) 0.3895(19) 0.0877(15)
C92? C 0.1301(23) 0.3618(10) 0.1113(22)
C93? C 0.0877(15) 0.3717(14) 0.1569(20)
C94? C 0.0835(15) 0.4093(18) 0.1789(16)
C95? C 0.0852(31) 0.4556(20) 0.2190(34)
C96? C 0.1486(29) 0.3307(22) 0.0710(37)
loop_
_geom_bond_atom_site_label_1
_geom_bond_atom_site_label_2
_geom_bond_site_symmetry_1
_geom_bond_site_symmetry_2
O1 C1 1_555 1_555
C1 H1 1_555 1_555
H2 C1 1_555 1_555
O2 C1 1_555 1_555
C2 O2 1_555 1_555
C3 C2 1_555 1_555
C4 C3 1_555 1_555
H3 C4 1_555 1_555
C5 C4 1_555 1_555
C6 C5 1_555 1_555
C7 C2 1_555 1_555
O3 C7 1_555 1_555
C8 O3 1_555 1_555
H4 C8 1_555 1_555
H5 C8 1_555 1_555
C9 C8 1_555 1_555
H6 C9 1_555 1_555
H7 C9 1_555 1_555
C10 C9 1_555 1_555
H8 C10 1_555 1_555
H9 C10 1_555 1_555
C11 C10 1_555 1_555
H10 C11 1_555 1_555
H11 C11 1_555 1_555
O4 C11 1_555 1_555
O5 C6 1_555 1_555
C12 O5 1_555 1_555
H12 C12 1_555 1_555
H13 C12 1_555 1_555
O6 C12 1_555 1_555
C13 O6 1_555 1_555
C14 C13 1_555 1_555
C15 C14 1_555 1_555
H14 C15 1_555 1_555
C16 C15 1_555 1_555
C17 C16 1_555 1_555
C18 C13 1_555 1_555
O7 C18 1_555 1_555
C19 O7 1_555 1_555
H15 C19 1_555 1_555
H16 C19 1_555 1_555
C20 C19 1_555 1_555
C21 C20 1_555 1_555
H17 C21 1_555 1_555
C22 C21 1_555 1_555
H18 C22 1_555 1_555
C23 C20 1_555 1_555
H19 C23 1_555 1_555
O8 C17 1_555 1_555
C24 O8 1_555 1_555
H20 C24 1_555 1_555
H21 C24 1_555 1_555
O9 C24 1_555 1_555
C25 O9 1_555 1_555
C26 C25 1_555 1_555
C27 C26 1_555 1_555
H22 C27 1_555 1_555
C28 C27 1_555 1_555
C29 C28 1_555 1_555
C30 O4 1_555 1_555
O10 C29 1_555 1_555
C31 O10 1_555 1_555
H23 C31 1_555 1_555
H24 C31 1_555 1_555
O11 C31 1_555 1_555
C32 O11 1_555 1_555
C33 C32 1_555 1_555
C34 C33 1_555 1_555
H25 C34 1_555 1_555
C35 C34 1_555 1_555
C36 O1 1_555 1_555
C37 C32 1_555 1_555
O12 C37 1_555 1_555
C38 O12 1_555 1_555
H26 C38 1_555 1_555
H27 C38 1_555 1_555
C39 C38 1_555 1_555
H28 C39 1_555 1_555
H29 C39 1_555 1_555
C40 C28 1_555 1_555
H30 C40 1_555 1_555
C41 C40 1_555 1_555
H31 C41 1_555 1_555
H32 C41 1_555 1_555
C42 C41 1_555 1_555
H33 C42 1_555 1_555
H34 C42 1_555 1_555
C43 C42 1_555 1_555
C44 C43 1_555 1_555
H35 C44 1_555 1_555
C45 C44 1_555 1_555
H36 C45 1_555 1_555
C46 C45 1_555 1_555
H37 C46 1_555 1_555
C47 C46 1_555 1_555
H38 C47 1_555 1_555
C48 C43 1_555 1_555
H39 C48 1_555 1_555
C49 C16 1_555 1_555
H40 C49 1_555 1_555
C50 C49 1_555 1_555
H41 C50 1_555 1_555
H42 C50 1_555 1_555
C51 C50 1_555 1_555
H43 C51 1_555 1_555
H44 C51 1_555 1_555
C52 C51 1_555 1_555
C53 C52 1_555 1_555
H45 C53 1_555 1_555
C54 C53 1_555 1_555
H46 C54 1_555 1_555
C55 C54 1_555 1_555
H47 C55 1_555 1_555
C56 C55 1_555 1_555
H48 C56 1_555 1_555
C57 C52 1_555 1_555
H49 C57 1_555 1_555
C58 C5 1_555 1_555
H50 C58 1_555 1_555
C59 C58 1_555 1_555
H51 C59 1_555 1_555
H52 C59 1_555 1_555
C60 C59 1_555 1_555
H53 C60 1_555 1_555
H54 C60 1_555 1_555
C61 C60 1_555 1_555
C62 C61 1_555 1_555
H55 C62 1_555 1_555
C63 C62 1_555 1_555
H56 C63 1_555 1_555
C64 C63 1_555 1_555
H57 C64 1_555 1_555
C65 C64 1_555 1_555
H58 C65 1_555 1_555
C66 C61 1_555 1_555
H59 C66 1_555 1_555
C67 C3 1_555 1_555
H60 C67 1_555 1_555
C68 C67 1_555 1_555
H61 C68 1_555 1_555
H62 C68 1_555 1_555
C69 C68 1_555 1_555
H63 C69 1_555 1_555
H64 C69 1_555 1_555
C70 C69 1_555 1_555
C71 C70 1_555 1_555
H65 C71 1_555 1_555
C72 C71 1_555 1_555
H66 C72 1_555 1_555
C73 C72 1_555 1_555
H67 C73 1_555 1_555
C74 C73 1_555 1_555
H68 C74 1_555 1_555
C75 C70 1_555 1_555
H69 C75 1_555 1_555
O13 N1 1_555 1_555
O14 N1 1_555 1_555
N1 C76 1_555 1_555
C76 C77 1_555 1_555
C77 H70 1_555 1_555
C78 C77 1_555 1_555
H71 C78 1_555 1_555
C79 C78 1_555 1_555
H72 C79 1_555 1_555
C80 C79 1_555 1_555
H73 C80 1_555 1_555
C81 C76 1_555 1_555
H74 C81 1_555 1_555
C82 C83 1_555 1_555
C83 C84 1_555 1_555
C84 C85 1_555 1_555
C85 C86 1_555 1_555
C86 C87 1_555 1_555
C87 C82 1_555 1_555
N2 C82 1_555 1_555
O15 N2 1_555 1_555
O16 N2 1_555 1_555
Cl1 C88 1_555 1_555
C88 Cl2 1_555 1_555
Cl2 Cl3 1_555 1_555
Cl3 C88 1_555 1_555
Cl4 Cl1 1_555 1_555
C25C C30 1_555 1_555
O9C C25C 1_555 1_555
C24C O9C 1_555 1_555
O8C C24C 1_555 1_555
C17C O8C 1_555 1_555
C16C C17C 1_555 1_555
C15C C16C 1_555 1_555
C14C C15C 1_555 1_555
C13C C14C 1_555 1_555
O6C C13C 1_555 1_555
C12C O6C 1_555 1_555
O5C C12C 1_555 1_555
C6C O5C 1_555 1_555
C5C C6C 1_555 1_555
C4C C5C 1_555 1_555
C3C C4C 1_555 1_555
C2C C3C 1_555 1_555
O2C C2C 1_555 1_555
C1C O2C 1_555 1_555
O1C C1C 1_555 1_555
C36C O1C 1_555 1_555
C35C C36C 1_555 1_555
C34C C35C 1_555 1_555
C33C C34C 1_555 1_555
C32C C33C 1_555 1_555
O11C C32C 1_555 1_555
C31C O11C 1_555 1_555
O10C C31C 1_555 1_555
C29C C30 1_555 1_555
C28C C29C 1_555 1_555
C27C C28C 1_555 1_555
C26C C25C 1_555 1_555
C49C C16C 1_555 1_555
H40C C49C 1_555 1_555
C50C C49C 1_555 1_555
H41C C50C 1_555 1_555
H42C C50C 1_555 1_555
C51C C50C 1_555 1_555
H43C C51C 1_555 1_555
H44C C51C 1_555 1_555
C52C C51C 1_555 1_555
C53C C52C 1_555 1_555
H45C C53C 1_555 1_555
C54C C53C 1_555 1_555
H46C C54C 1_555 1_555
C55C C54C 1_555 1_555
H47C C55C 1_555 1_555
C56C C55C 1_555 1_555
H48C C56C 1_555 1_555
C57C C52C 1_555 1_555
H49C C57C 1_555 1_555
H22C C27C 1_555 1_555
C40C C33C 1_555 1_555
H30C C40C 1_555 1_555
C41C C40C 1_555 1_555
H31C C41C 1_555 1_555
H32C C41C 1_555 1_555
C42C C41C 1_555 1_555
H33C C42C 1_555 1_555
H34C C42C 1_555 1_555
C43C C42C 1_555 1_555
C44C C43C 1_555 1_555
H35C C44C 1_555 1_555
C45C C44C 1_555 1_555
H36C C45C 1_555 1_555
C46C C45C 1_555 1_555
H37C C46C 1_555 1_555
C47C C46C 1_555 1_555
H38C C47C 1_555 1_555
C48C C43C 1_555 1_555
H39C C48C 1_555 1_555
H23C C31C 1_555 1_555
H24C C31C 1_555 1_555
C37C C36C 1_555 1_555
O12C C37C 1_555 1_555
C38C O12C 1_555 1_555
H26C C38C 1_555 1_555
H27C C38C 1_555 1_555
C39C C39 1_555 1_555
C21C C22 1_555 1_555
C20C C23 1_555 1_555
C19C C20C 1_555 1_555
O7C C19C 1_555 1_555
C18C C17C 1_555 1_555
H15C C19C 1_555 1_555
H16C C19C 1_555 1_555
H17C C21C 1_555 1_555
C30C C25 1_555 1_555
O4C C30C 1_555 1_555
C11C O4C 1_555 1_555
C10C C11C 1_555 1_555
C9C C10C 1_555 1_555
C8C C9C 1_555 1_555
O3C C8C 1_555 1_555
C7C C6C 1_555 1_555
H4C C8C 1_555 1_555
H5C C8C 1_555 1_555
H6C C9C 1_555 1_555
H7C C9C 1_555 1_555
H8C C10C 1_555 1_555
H9C C10C 1_555 1_555
H10C C11C 1_555 1_555
H11C C11C 1_555 1_555
H28C C39C 1_555 1_555
H29C C39C 1_555 1_555
H25C C34C 1_555 1_555
C67C C3C 1_555 1_555
H60C C67C 1_555 1_555
C68C C67C 1_555 1_555
H61C C68C 1_555 1_555
H62C C68C 1_555 1_555
C69C C68C 1_555 1_555
H63C C69C 1_555 1_555
H64C C69C 1_555 1_555
C70C C69C 1_555 1_555
C71C C70C 1_555 1_555
H65C C71C 1_555 1_555
C72C C71C 1_555 1_555
H66C C72C 1_555 1_555
C73C C72C 1_555 1_555
H67C C73C 1_555 1_555
C74C C73C 1_555 1_555
H68C C74C 1_555 1_555
C75C C70C 1_555 1_555
H69C C75C 1_555 1_555
H1C C1C 1_555 1_555
H2C C1C 1_555 1_555
H3C C4C 1_555 1_555
C58C C14C 1_555 1_555
H50C C58C 1_555 1_555
C59C C58C 1_555 1_555
H51C C59C 1_555 1_555
H52C C59C 1_555 1_555
C60C C59C 1_555 1_555
H53C C60C 1_555 1_555
H54C C60C 1_555 1_555
C61C C60C 1_555 1_555
C62C C61C 1_555 1_555
H55C C62C 1_555 1_555
C63C C62C 1_555 1_555
H56C C63C 1_555 1_555
C64C C63C 1_555 1_555
H57C C64C 1_555 1_555
C65C C64C 1_555 1_555
H58C C65C 1_555 1_555
C66C C61C 1_555 1_555
H59C C66C 1_555 1_555
H12C C12C 1_555 1_555
H13C C12C 1_555 1_555
H14C C15C 1_555 1_555
H20C C24C 1_555 1_555
H21C C24C 1_555 1_555
C88C C88 1_555 1_555
Cl1C C88C 1_555 1_555
Cl4C C88 1_555 1_555
Cl2C C88 1_555 1_555
Cl3C C88 1_555 1_555
C6 C7 1_555 1_555
C14 C58 1_555 1_555
C17 C18 1_555 1_555
C26 C49 1_555 1_555
C29 C30C 1_555 1_555
C33 C40 1_555 1_555
C35 C36 1_555 1_555
C35 C67 1_555 1_555
C36 C37 1_555 1_555
C47 C48 1_555 1_555
C56 C57 1_555 1_555
C65 C66 1_555 1_555
C74 C75 1_555 1_555
C80 C81 1_555 1_555
C88 Cl4 1_555 1_555
Cl2 Cl4 1_555 1_555
Cl2 C88C 1_555 1_555
Cl2 Cl4C 1_555 1_555
Cl2 Cl3C 1_555 1_555
Cl3 Cl4 1_555 1_555
Cl3 C88C 1_555 1_555
Cl3 Cl2C 1_555 1_555
Cl3 Cl3C 1_555 1_555
Cl4 C88C 1_555 1_555
Cl4 Cl2C 1_555 1_555
C13C C18C 1_555 1_555
C5C C58C 1_555 1_555
C2C C7C 1_555 1_555
C35C C67C 1_555 1_555
C32C C37C 1_555 1_555
O10C C29C 1_555 1_555
C28C C40C 1_555 1_555
C27C C26C 1_555 1_555
C26C C49C 1_555 1_555
C56C C57C 1_555 1_555
C47C C48C 1_555 1_555
C38C C39C 1_555 1_555
C21C C20C 1_555 1_555
O7C C18C 1_555 1_555
O3C C7C 1_555 1_555
C74C C75C 1_555 1_555
C65C C66C 1_555 1_555
C88C Cl4C 1_555 1_555
C88C Cl2C 1_555 1_555
C88C Cl3C 1_555 1_555
Cl1C Cl4C 1_555 1_555
Cl4C Cl2C 1_555 1_555
Cl4C Cl3C 1_555 1_555
Cl2C Cl3C 1_555 1_555

#END
