
#######################################################################
#
#                 Cambridge Crystallographic Data Centre
#                                CCDC 
#
#######################################################################
#
# If this CIF has been generated from an entry in the Cambridge 
# Structural Database, then it will include bibliographic, chemical, 
# crystal, experimental, refinement or atomic coordinate data resulting 
# from the CCDC's data processing and validation procedures.
#
#######################################################################

data_TUCROZ
_chemical_formula_moiety         'C31 H22 N2 O2'
_chemical_name_systematic        
(Z)-5-nitro-3-(1,3,5-triphenylpent-2-en-4-ynyl)-1H-indole
_symmetry_cell_setting           orthorhombic
_symmetry_space_group_name_H-M   'P b c a'
_symmetry_Int_Tables_number      61
_space_group_name_Hall           '-P 2ac 2ab'
loop_
_symmetry_equiv_pos_site_id
_symmetry_equiv_pos_as_xyz
1 x,y,z
2 1/2-x,-y,1/2+z
3 -x,1/2+y,1/2-z
4 1/2+x,1/2-y,-z
5 -x,-y,-z
6 1/2+x,y,1/2-z
7 x,1/2-y,1/2+z
8 1/2-x,1/2+y,z
_cell_length_a                   16.3011(16)
_cell_length_b                   16.5942(16)
_cell_length_c                   17.9748(18)
_cell_angle_alpha                90
_cell_angle_beta                 90
_cell_angle_gamma                90
_cell_volume                     4862.25
_exptl_crystal_colour            green
_exptl_crystal_description       prismatic
_cell_formula_units_Z            8
loop_
_atom_site_label
_atom_site_type_symbol
_atom_site_fract_x
_atom_site_fract_y
_atom_site_fract_z
N1 N 0.31786(18) 0.21981(16) 0.60500(12)
N2 N 0.36062(17) 0.27071(14) 0.30626(13)
O1 O 0.31876(18) 0.23073(14) 0.26446(12)
O2 O 0.40705(18) 0.32159(16) 0.28295(13)
C1 C 0.26918(19) 0.15289(17) 0.60346(14)
H1 H 0.2479 0.1274 0.6453
C2 C 0.25633(15) 0.12895(14) 0.53243(13)
C3 C 0.30000(15) 0.18527(14) 0.48673(12)
C4 C 0.33801(16) 0.24126(15) 0.53481(14)
C5 C 0.38504(18) 0.30516(17) 0.50827(16)
H2 H 0.4102 0.3411 0.5407
C6 C 0.39283(18) 0.31307(17) 0.43339(15)
H3 H 0.4241 0.3548 0.4138
C7 C 0.35379(17) 0.25846(15) 0.38572(13)
C8 C 0.30794(15) 0.19435(15) 0.41060(13)
H4 H 0.2833 0.1586 0.3776
C9 C 0.20932(15) 0.05676(15) 0.50367(13)
H5 H 0.1725 0.0751 0.4640
C10 C 0.26708(15) -0.00386(15) 0.47144(14)
H6 H 0.3077 -0.0229 0.5033
C11 C 0.26758(16) -0.03415(16) 0.40228(14)
C12 C 0.21511(17) -0.00284(17) 0.34461(15)
C13 C 0.17609(17) 0.02049(19) 0.29264(15)
C14 C 0.12916(16) 0.0481(2) 0.23013(15)
C15 C 0.08423(18) -0.0043(2) 0.18715(16)
H7 H 0.0843 -0.0590 0.1986
C16 C 0.0392(2) 0.0228(3) 0.12748(18)
H8 H 0.0094 -0.0136 0.0989
C17 C 0.0380(2) 0.1028(3) 0.1100(2)
H9 H 0.0072 0.1211 0.0699
C18 C 0.0825(3) 0.1556(3) 0.1517(2)
H10 H 0.0819 0.2101 0.1394
C19 C 0.1280(2) 0.1303(2) 0.21149(19)
H11 H 0.1579 0.1673 0.2394
C20 C 0.15756(16) 0.01792(15) 0.56417(13)
C21 C 0.19317(18) -0.02968(18) 0.61870(15)
H12 H 0.2496 -0.0380 0.6182
C22 C 0.1465(2) -0.06484(17) 0.67352(15)
H13 H 0.1718 -0.0960 0.7099
C23 C 0.0646(2) -0.05468(18) 0.67524(16)
H14 H 0.0332 -0.0795 0.7119
C24 C 0.0277(2) -0.0068(2) 0.62166(19)
H15 H -0.0287 0.0015 0.6227
C25 C 0.07461(18) 0.02860(18) 0.56674(17)
H16 H 0.0492 0.0603 0.5308
C26 C 0.32480(16) -0.09982(16) 0.38086(15)
C27 C 0.3497(2) -0.15656(19) 0.43330(18)
H17 H 0.3285 -0.1548 0.4813
C28 C 0.4058(2) -0.2153(2) 0.4144(2)
H18 H 0.4223 -0.2528 0.4498
C29 C 0.4373(3) -0.2186(3) 0.3439(3)
H19 H 0.4760 -0.2576 0.3316
C30 C 0.4115(2) -0.1644(2) 0.2918(2)
H20 H 0.4321 -0.1672 0.2436
C31 C 0.3555(2) -0.1059(2) 0.30986(17)
H21 H 0.3381 -0.0698 0.2736
H22 H 0.3337(17) 0.2408(17) 0.6437(13)
loop_
_geom_bond_atom_site_label_1
_geom_bond_atom_site_label_2
_geom_bond_site_symmetry_1
_geom_bond_site_symmetry_2
N1 C1 1_555 1_555
N2 O1 1_555 1_555
O2 N2 1_555 1_555
C1 H1 1_555 1_555
C2 C1 1_555 1_555
C3 C2 1_555 1_555
C4 N1 1_555 1_555
C5 C4 1_555 1_555
H2 C5 1_555 1_555
C6 C5 1_555 1_555
H3 C6 1_555 1_555
C7 N2 1_555 1_555
C8 C3 1_555 1_555
H4 C8 1_555 1_555
C9 C2 1_555 1_555
H5 C9 1_555 1_555
C10 C9 1_555 1_555
H6 C10 1_555 1_555
C11 C10 1_555 1_555
C12 C11 1_555 1_555
C13 C12 1_555 1_555
C14 C13 1_555 1_555
C15 C14 1_555 1_555
H7 C15 1_555 1_555
C16 C15 1_555 1_555
H8 C16 1_555 1_555
C17 C16 1_555 1_555
H9 C17 1_555 1_555
C18 C17 1_555 1_555
H10 C18 1_555 1_555
C19 C14 1_555 1_555
H11 C19 1_555 1_555
C20 C9 1_555 1_555
C21 C20 1_555 1_555
H12 C21 1_555 1_555
C22 C21 1_555 1_555
H13 C22 1_555 1_555
C23 C22 1_555 1_555
H14 C23 1_555 1_555
C24 C23 1_555 1_555
H15 C24 1_555 1_555
C25 C20 1_555 1_555
H16 C25 1_555 1_555
C26 C11 1_555 1_555
C27 C26 1_555 1_555
H17 C27 1_555 1_555
C28 C27 1_555 1_555
H18 C28 1_555 1_555
C29 C28 1_555 1_555
H19 C29 1_555 1_555
C30 C29 1_555 1_555
H20 C30 1_555 1_555
C31 C26 1_555 1_555
H21 C31 1_555 1_555
H22 N1 1_555 1_555
C3 C4 1_555 1_555
C6 C7 1_555 1_555
C7 C8 1_555 1_555
C18 C19 1_555 1_555
C24 C25 1_555 1_555
C30 C31 1_555 1_555

#END
