
#######################################################################
#
#                 Cambridge Crystallographic Data Centre
#                                CCDC 
#
#######################################################################
#
# If this CIF has been generated from an entry in the Cambridge 
# Structural Database, then it will include bibliographic, chemical, 
# crystal, experimental, refinement or atomic coordinate data resulting 
# from the CCDC's data processing and validation procedures.
#
#######################################################################

data_TUCREP
_chemical_formula_moiety         'C29 H21 N1 S1'
_chemical_name_systematic        
(6Z,8E)-6,8-diphenyl-10-(thien-2-yl)-5,10-dihydrocyclohepta[b]indole
_symmetry_cell_setting           monoclinic
_symmetry_space_group_name_H-M   'P 21/n'
_symmetry_Int_Tables_number      14
_space_group_name_Hall           '-P 2yn'
loop_
_symmetry_equiv_pos_site_id
_symmetry_equiv_pos_as_xyz
1 x,y,z
2 1/2-x,1/2+y,1/2-z
3 -x,-y,-z
4 1/2+x,1/2-y,1/2+z
_cell_length_a                   10.7986(9)
_cell_length_b                   9.0340(8)
_cell_length_c                   22.0458(18)
_cell_angle_alpha                90
_cell_angle_beta                 97.507(2)
_cell_angle_gamma                90
_cell_volume                     2132.23
_exptl_crystal_colour            yellow
_exptl_crystal_description       prismatic
_cell_formula_units_Z            4
loop_
_atom_site_label
_atom_site_type_symbol
_atom_site_fract_x
_atom_site_fract_y
_atom_site_fract_z
S1 S -0.10597(9) 0.36344(11) 0.34925(4)
C1 C -0.06588(8) 0.45708(10) 0.23851(4)
N1 N 0.25654(15) 0.08509(18) 0.22324(7)
C2 C 0.17204(16) 0.1071(2) 0.26472(8)
C3 C 0.20944(17) 0.1021(2) 0.33038(8)
C4 C 0.12835(17) 0.0673(2) 0.36940(8)
H1 H 0.1587 0.0793 0.4106
C5 C 0.00104(17) 0.0142(2) 0.35746(8)
C6 C -0.08016(17) 0.0472(2) 0.30797(8)
H2 H -0.1550 -0.0051 0.3029
C7 C -0.06221(16) 0.1606(2) 0.25994(8)
H3 H -0.1306 0.1460 0.2266
C8 C 0.05692(16) 0.1334(2) 0.23306(8)
C9 C 0.07044(17) 0.1300(2) 0.16909(8)
C10 C 0.19568(17) 0.0969(2) 0.16503(8)
C11 C 0.24009(19) 0.0787(2) 0.10931(9)
H4 H 0.3232 0.0547 0.1072
C12 C 0.1567(2) 0.0975(3) 0.05762(9)
H5 H 0.1838 0.0853 0.0196
C13 C 0.0328(2) 0.1342(2) 0.06039(9)
H6 H -0.0208 0.1481 0.0243
C14 C -0.01192(19) 0.1503(2) 0.11527(8)
H7 H -0.0952 0.1743 0.1168
C15 C 0.34163(16) 0.1325(2) 0.35403(8)
C16 C 0.40420(18) 0.0462(2) 0.40072(9)
H8 H 0.3633 -0.0334 0.4160
C17 C 0.5255(2) 0.0773(3) 0.42444(9)
H9 H 0.5652 0.0200 0.4563
C18 C 0.58816(19) 0.1914(3) 0.40170(10)
H10 H 0.6701 0.2119 0.4181
C19 C 0.53014(19) 0.2757(2) 0.35472(10)
H11 H 0.5731 0.3528 0.3388
C20 C 0.40803(18) 0.2465(2) 0.33097(9)
H12 H 0.3695 0.3040 0.2990
C21 C -0.03698(18) -0.0873(2) 0.40548(8)
C22 C 0.0506(2) -0.1758(2) 0.43988(9)
H13 H 0.1337 -0.1719 0.4329
C23 C 0.0169(2) -0.2694(3) 0.48431(10)
H14 H 0.0770 -0.3289 0.5065
C24 C -0.1041(2) -0.2756(3) 0.49604(9)
H15 H -0.1264 -0.3384 0.5263
C25 C -0.1922(2) -0.1886(3) 0.46295(10)
H16 H -0.2747 -0.1924 0.4707
C26 C -0.15897(19) -0.0951(2) 0.41794(9)
H17 H -0.2197 -0.0367 0.3958
C27 C -0.07400(16) 0.3191(2) 0.28229(8)
C28 C -0.1114(2) 0.5334(3) 0.33901(12)
H18 H -0.1280 0.5984 0.3697
C29 C -0.0914(2) 0.5808(3) 0.28456(12)
H19 H -0.0925 0.6807 0.2744
H20 H 0.3398(14) 0.061(2) 0.2337(8)
loop_
_geom_bond_atom_site_label_1
_geom_bond_atom_site_label_2
_geom_bond_site_symmetry_1
_geom_bond_site_symmetry_2
S1 C27 1_555 1_555
C1 C27 1_555 1_555
N1 C2 1_555 1_555
C2 C3 1_555 1_555
C3 C4 1_555 1_555
C4 H1 1_555 1_555
C5 C4 1_555 1_555
C6 C5 1_555 1_555
H2 C6 1_555 1_555
C7 C6 1_555 1_555
H3 C7 1_555 1_555
C8 C2 1_555 1_555
C9 C8 1_555 1_555
C10 N1 1_555 1_555
C11 C10 1_555 1_555
H4 C11 1_555 1_555
C12 C11 1_555 1_555
H5 C12 1_555 1_555
C13 C12 1_555 1_555
H6 C13 1_555 1_555
C14 C9 1_555 1_555
H7 C14 1_555 1_555
C15 C3 1_555 1_555
C16 C15 1_555 1_555
H8 C16 1_555 1_555
C17 C16 1_555 1_555
H9 C17 1_555 1_555
C18 C17 1_555 1_555
H10 C18 1_555 1_555
C19 C18 1_555 1_555
H11 C19 1_555 1_555
C20 C15 1_555 1_555
H12 C20 1_555 1_555
C21 C5 1_555 1_555
C22 C21 1_555 1_555
H13 C22 1_555 1_555
C23 C22 1_555 1_555
H14 C23 1_555 1_555
C24 C23 1_555 1_555
H15 C24 1_555 1_555
C25 C24 1_555 1_555
H16 C25 1_555 1_555
C26 C21 1_555 1_555
H17 C26 1_555 1_555
C27 C7 1_555 1_555
C28 S1 1_555 1_555
H18 C28 1_555 1_555
C29 C1 1_555 1_555
H19 C29 1_555 1_555
H20 N1 1_555 1_555
C7 C8 1_555 1_555
C9 C10 1_555 1_555
C13 C14 1_555 1_555
C19 C20 1_555 1_555
C25 C26 1_555 1_555
C28 C29 1_555 1_555

#END
