
#######################################################################
#
#                 Cambridge Crystallographic Data Centre
#                                CCDC 
#
#######################################################################
#
# If this CIF has been generated from an entry in the Cambridge 
# Structural Database, then it will include bibliographic, chemical, 
# crystal, experimental, refinement or atomic coordinate data resulting 
# from the CCDC's data processing and validation procedures.
#
#######################################################################

data_TUCTUI
_chemical_formula_moiety         'C11 H8 Br1 Cl1'
_chemical_name_systematic        1-bromo-8-(chloromethyl)naphthalene
_symmetry_cell_setting           monoclinic
_symmetry_space_group_name_H-M   'P 21/c'
_symmetry_Int_Tables_number      14
_space_group_name_Hall           '-P 2ybc'
loop_
_symmetry_equiv_pos_site_id
_symmetry_equiv_pos_as_xyz
1 x,y,z
2 -x,1/2+y,1/2-z
3 -x,-y,-z
4 x,1/2-y,1/2+z
_cell_length_a                   8.0594(3)
_cell_length_b                   28.0000(10)
_cell_length_c                   8.3318(3)
_cell_angle_alpha                90
_cell_angle_beta                 90.1380(10)
_cell_angle_gamma                90
_cell_volume                     1880.18
_exptl_crystal_colour            colorless
_exptl_crystal_description       block
_cell_formula_units_Z            8
loop_
_atom_site_label
_atom_site_type_symbol
_atom_site_fract_x
_atom_site_fract_y
_atom_site_fract_z
Br1 Br 0.48645(3) 0.14171(2) -0.13684(4)
Cl1 Cl 0.68810(8) 0.24833(2) -0.07089(8)
C1 C 0.4942(3) 0.25370(10) -0.1815(3)
H1 H 0.4970 0.2831 -0.2473
H2 H 0.4826 0.2261 -0.2551
C2 C 0.3465(3) 0.25546(9) -0.0717(3)
C3 C 0.2544(3) 0.21498(9) -0.0129(3)
C4 C 0.2906(3) 0.16518(9) -0.0357(3)
C5 C 0.1873(4) 0.12977(10) 0.0176(3)
H3 H 0.2159 0.0973 -0.0011
C6 C 0.0376(3) 0.14065(9) 0.1007(3)
H4 H -0.0358 0.1160 0.1335
C7 C 0.0028(3) 0.18711(10) 0.1319(3)
H5 H -0.0939 0.1948 0.1915
C8 C 0.1072(3) 0.22453(9) 0.0776(3)
C9 C 0.0618(3) 0.27224(10) 0.1157(3)
H6 H -0.0342 0.2781 0.1787
C10 C 0.1550(3) 0.30954(9) 0.0625(3)
H7 H 0.1249 0.3413 0.0897
C11 C 0.2957(3) 0.30111(10) -0.0327(3)
H8 H 0.3576 0.3276 -0.0714
Br2 Br 0.38648(3) -0.10762(2) 0.73543(3)
Cl2 Cl 0.28179(8) -0.00328(2) 0.92768(8)
C12 C 0.4138(3) 0.00462(9) 0.7537(3)
H9 H 0.4775 0.0347 0.7652
H10 H 0.4940 -0.0221 0.7479
C13 C 0.3138(3) 0.00636(9) 0.6010(3)
C14 C 0.2593(3) -0.03436(9) 0.5096(3)
C15 C 0.2850(3) -0.08407(9) 0.5434(3)
C16 C 0.2332(3) -0.11978(9) 0.4421(3)
H11 H 0.2534 -0.1522 0.4697
C17 C 0.1504(3) -0.10884(10) 0.2974(3)
H12 H 0.1184 -0.1336 0.2257
C18 C 0.1168(3) -0.06234(10) 0.2615(3)
H13 H 0.0570 -0.0550 0.1662
C19 C 0.1691(3) -0.02488(9) 0.3632(3)
C20 C 0.1317(3) 0.02279(9) 0.3177(3)
H14 H 0.0690 0.0285 0.2229
C21 C 0.1844(3) 0.06034(10) 0.4077(3)
H15 H 0.1596 0.0921 0.3758
C22 C 0.2760(3) 0.05166(9) 0.5483(3)
H16 H 0.3134 0.0782 0.6097
loop_
_geom_bond_atom_site_label_1
_geom_bond_atom_site_label_2
_geom_bond_site_symmetry_1
_geom_bond_site_symmetry_2
Br1 C4 1_555 1_555
Cl1 C1 1_555 1_555
C1 H1 1_555 1_555
H2 C1 1_555 1_555
C2 C1 1_555 1_555
C3 C2 1_555 1_555
C4 C3 1_555 1_555
C5 C4 1_555 1_555
H3 C5 1_555 1_555
C6 C5 1_555 1_555
H4 C6 1_555 1_555
C7 C6 1_555 1_555
H5 C7 1_555 1_555
C8 C3 1_555 1_555
C9 C8 1_555 1_555
H6 C9 1_555 1_555
C10 C9 1_555 1_555
H7 C10 1_555 1_555
C11 C2 1_555 1_555
H8 C11 1_555 1_555
Br2 C15 1_555 1_555
Cl2 C12 1_555 1_555
C12 H9 1_555 1_555
H10 C12 1_555 1_555
C13 C12 1_555 1_555
C14 C13 1_555 1_555
C15 C14 1_555 1_555
C16 C15 1_555 1_555
H11 C16 1_555 1_555
C17 C16 1_555 1_555
H12 C17 1_555 1_555
C18 C17 1_555 1_555
H13 C18 1_555 1_555
C19 C14 1_555 1_555
C20 C19 1_555 1_555
H14 C20 1_555 1_555
C21 C20 1_555 1_555
H15 C21 1_555 1_555
C22 C13 1_555 1_555
H16 C22 1_555 1_555
C7 C8 1_555 1_555
C10 C11 1_555 1_555
C18 C19 1_555 1_555
C21 C22 1_555 1_555

#END
