
#######################################################################
#
#                 Cambridge Crystallographic Data Centre
#                                CCDC 
#
#######################################################################
#
# If this CIF has been generated from an entry in the Cambridge 
# Structural Database, then it will include bibliographic, chemical, 
# crystal, experimental, refinement or atomic coordinate data resulting 
# from the CCDC's data processing and validation procedures.
#
#######################################################################

data_TUCVEU
_chemical_formula_moiety         'C19 H16 Br1 P1'
_chemical_name_systematic        
((6-bromo-1,2-dihydroacenaphthylen-5-yl)methyl)(phenyl)phosphine
_symmetry_cell_setting           monoclinic
_symmetry_space_group_name_H-M   'P 21'
_symmetry_Int_Tables_number      4
_space_group_name_Hall           'P 2yb'
loop_
_symmetry_equiv_pos_site_id
_symmetry_equiv_pos_as_xyz
1 x,y,z
2 -x,1/2+y,-z
_cell_length_a                   10.217(3)
_cell_length_b                   6.9781(19)
_cell_length_c                   10.816(3)
_cell_angle_alpha                90
_cell_angle_beta                 101.873(3)
_cell_angle_gamma                90
_cell_volume                     754.632
_exptl_crystal_colour            colorless
_exptl_crystal_description       block
_cell_formula_units_Z            2
loop_
_atom_site_label
_atom_site_type_symbol
_atom_site_fract_x
_atom_site_fract_y
_atom_site_fract_z
Br1 Br 0.49803(3) 0.75799(7) 0.26581(3)
P1 P 0.65892(11) 0.43606(16) 0.49373(9)
H1 H 0.733(4) 0.566(5) 0.460(4)
C1 C 0.6602(4) 0.3248(5) 0.2389(3)
C2 C 0.7358(4) 0.1651(6) 0.2267(4)
H2 H 0.7376 0.0637 0.2857
C3 C 0.8111(4) 0.1433(6) 0.1307(4)
H3 H 0.8621 0.0307 0.1263
C4 C 0.8087(3) 0.2861(7) 0.0459(3)
C5 C 0.7339(4) 0.4525(6) 0.0573(3)
C6 C 0.6608(3) 0.4813(6) 0.1535(3)
C7 C 0.5957(4) 0.6642(6) 0.1449(4)
C8 C 0.6014(4) 0.7913(6) 0.0503(3)
H4 H 0.5546 0.9093 0.0484
C9 C 0.6738(3) 0.7541(9) -0.0444(3)
H5 H 0.6760 0.8445 -0.1096
C10 C 0.7410(4) 0.5845(6) -0.0399(3)
C11 C 0.8255(4) 0.5023(6) -0.1255(4)
H6 H 0.9028 0.5868 -0.1282
H7 H 0.7723 0.4867 -0.2123
C12 C 0.8734(4) 0.3054(7) -0.0673(4)
H8 H 0.8442 0.2009 -0.1286
H9 H 0.9721 0.3020 -0.0411
C13 C 0.5798(4) 0.3217(6) 0.3420(3)
H10 H 0.5601 0.1865 0.3591
H11 H 0.4932 0.3862 0.3096
C14 C 0.7915(3) 0.2650(8) 0.5562(3)
C15 C 0.9237(4) 0.3273(6) 0.5976(3)
H12 H 0.9465 0.4566 0.5843
C16 C 1.0211(4) 0.2022(6) 0.6577(4)
H13 H 1.1102 0.2461 0.6867
C17 C 0.9893(4) 0.0141(7) 0.6755(4)
H14 H 1.0567 -0.0719 0.7160
C18 C 0.8590(4) -0.0508(7) 0.6345(4)
H15 H 0.8370 -0.1809 0.6461
C19 C 0.7612(4) 0.0773(6) 0.5764(4)
H16 H 0.6717 0.0340 0.5500
loop_
_geom_bond_atom_site_label_1
_geom_bond_atom_site_label_2
_geom_bond_site_symmetry_1
_geom_bond_site_symmetry_2
Br1 C7 1_555 1_555
P1 H1 1_555 1_555
C1 C2 1_555 1_555
C2 H2 1_555 1_555
C3 C2 1_555 1_555
H3 C3 1_555 1_555
C4 C3 1_555 1_555
C5 C4 1_555 1_555
C6 C1 1_555 1_555
C7 C6 1_555 1_555
C8 C7 1_555 1_555
H4 C8 1_555 1_555
C9 C8 1_555 1_555
H5 C9 1_555 1_555
C10 C5 1_555 1_555
C11 C10 1_555 1_555
H6 C11 1_555 1_555
H7 C11 1_555 1_555
C12 C4 1_555 1_555
H8 C12 1_555 1_555
H9 C12 1_555 1_555
C13 P1 1_555 1_555
H10 C13 1_555 1_555
H11 C13 1_555 1_555
C14 P1 1_555 1_555
C15 C14 1_555 1_555
H12 C15 1_555 1_555
C16 C15 1_555 1_555
H13 C16 1_555 1_555
C17 C16 1_555 1_555
H14 C17 1_555 1_555
C18 C17 1_555 1_555
H15 C18 1_555 1_555
C19 C14 1_555 1_555
H16 C19 1_555 1_555
C1 C13 1_555 1_555
C5 C6 1_555 1_555
C9 C10 1_555 1_555
C11 C12 1_555 1_555
C18 C19 1_555 1_555

#END
