
#######################################################################
#
#                 Cambridge Crystallographic Data Centre
#                                CCDC 
#
#######################################################################
#
# If this CIF has been generated from an entry in the Cambridge 
# Structural Database, then it will include bibliographic, chemical, 
# crystal, experimental, refinement or atomic coordinate data resulting 
# from the CCDC's data processing and validation procedures.
#
#######################################################################

data_TUCVOE
_chemical_formula_moiety         'C19 H18 B1 P1'
_chemical_name_systematic        
1-(boranyl)-1-phenyl-1,2,5,6-tetrahydro-1\l^5^-indeno[6,7,1-cde]phosphindole
_symmetry_cell_setting           monoclinic
_symmetry_space_group_name_H-M   'C 2/c'
_symmetry_Int_Tables_number      15
_space_group_name_Hall           '-C 2yn'
loop_
_symmetry_equiv_pos_site_id
_symmetry_equiv_pos_as_xyz
1 x,y,z
2 -x,y,1/2-z
3 1/2+x,1/2+y,z
4 1/2-x,1/2+y,1/2-z
5 -x,-y,-z
6 x,-y,1/2+z
7 1/2-x,1/2-y,-z
8 1/2+x,1/2-y,1/2+z
_cell_length_a                   27.795(3)
_cell_length_b                   6.3966(7)
_cell_length_c                   17.4407(17)
_cell_angle_alpha                90
_cell_angle_beta                 91.000(7)
_cell_angle_gamma                90
_cell_volume                     3100.37
_exptl_crystal_colour            colorless
_exptl_crystal_description       blade
_cell_formula_units_Z            8
loop_
_atom_site_label
_atom_site_type_symbol
_atom_site_fract_x
_atom_site_fract_y
_atom_site_fract_z
P1 P 0.40051(2) 0.26085(9) 0.85256(3)
C1 C 0.36086(6) 0.4491(3) 0.80734(10)
C2 C 0.33790(7) 0.6269(3) 0.83236(13)
H1 H 0.3440 0.6762 0.8830
C3 C 0.3050(2) 0.7385(9) 0.7830(3)
H2 H 0.2892 0.8597 0.8014
C4 C 0.29644(7) 0.6715(3) 0.71010(13)
C5 C 0.26470(7) 0.7447(3) 0.64335(13)
H3 H 0.2732 0.8891 0.6283
H4 H 0.2304 0.7416 0.6575
C6 C 0.27431(9) 0.5882(5) 0.57575(17)
H5 H 0.2440 0.5219 0.5577
H6 H 0.2893 0.6609 0.5321
C7 C 0.30849(6) 0.4260(3) 0.61025(10)
C8 C 0.32858(7) 0.2452(4) 0.58365(12)
H7 H 0.3214 0.1981 0.5331
C9 C 0.36062(10) 0.1265(5) 0.63282(13)
H8 H 0.3737 -0.0009 0.6145
C10 C 0.37276(7) 0.1929(3) 0.70555(10)
C11 C 0.35119(7) 0.3782(3) 0.73227(10)
C12 C 0.31968(10) 0.4880(4) 0.68464(15)
C13 C 0.40664(7) 0.0965(3) 0.76497(10)
H9 H 0.4402 0.0987 0.7469
H10 H 0.3974 -0.0500 0.7756
B1 B 0.3744(3) 0.1185(13) 0.9399(5)
H11 H 0.3376(6) 0.053(3) 0.9184(11)
H12 H 0.3702(8) 0.247(3) 0.9862(12)
H13 H 0.4021(8) -0.015(3) 0.9568(12)
C14 C 0.45761(5) 0.3844(2) 0.87311(8)
C15 C 0.49144(6) 0.2742(3) 0.91719(9)
H14 H 0.4833 0.1424 0.9384
C16 C 0.53680(6) 0.3566(3) 0.93006(9)
H15 H 0.5598 0.2805 0.9597
C17 C 0.54873(6) 0.5473(3) 0.90040(10)
H16 H 0.5801 0.6024 0.9090
C18 C 0.51544(7) 0.6590(3) 0.85824(12)
H17 H 0.5237 0.7924 0.8384
C19 C 0.46979(6) 0.5779(3) 0.84445(11)
H18 H 0.4469 0.6558 0.8152
P2? P 0.39179(8) 0.3137(4) 0.87725(14)
C20? C 0.3769(2) 0.2670(10) 0.7763(4)
C21? C 0.3882(3) 0.1144(14) 0.7258(6)
H19? H 0.4089 0.0031 0.7411
C22? C 0.3685(6) 0.122(2) 0.6483(9)
H20? H 0.3777 0.0176 0.6128
C23? C 0.3378(3) 0.2723(13) 0.6252(5)
C24? C 0.3107(3) 0.3276(13) 0.5525(6)
H21? H 0.2876 0.2158 0.5380
H22? H 0.3330 0.3507 0.5098
C25? C 0.2841(5) 0.531(2) 0.5731(8)
H23? H 0.2948 0.6461 0.5395
H24? H 0.2490 0.5122 0.5650
C26? C 0.2945(3) 0.5838(12) 0.6542(4)
C27? C 0.2808(3) 0.7326(16) 0.7018(5)
H25? H 0.2580 0.8347 0.6853
C28? C 0.3011(10) 0.739(4) 0.7812(9)
H26? H 0.2929 0.8507 0.8146
C29? C 0.3316(3) 0.5850(14) 0.8059(5)
C30? C 0.3464(4) 0.4249(15) 0.7556(5)
C31? C 0.3270(5) 0.433(2) 0.6820(7)
C32? C 0.3534(3) 0.5462(12) 0.8859(4)
H27? H 0.3278 0.5214 0.9235
H28? H 0.3727 0.6682 0.9029
B2? B 0.3797(15) 0.094(7) 0.945(3)
H29? H 0.3853 0.1422 0.9979
H30? H 0.4013 -0.0227 0.9342
H31? H 0.3462 0.0488 0.9388
loop_
_geom_bond_atom_site_label_1
_geom_bond_atom_site_label_2
_geom_bond_site_symmetry_1
_geom_bond_site_symmetry_2
P1 C1 1_555 1_555
C1 C2 1_555 1_555
C2 H1 1_555 1_555
C3 C2 1_555 1_555
H2 C3 1_555 1_555
C4 C3 1_555 1_555
C5 C4 1_555 1_555
H3 C5 1_555 1_555
H4 C5 1_555 1_555
C6 C5 1_555 1_555
H5 C6 1_555 1_555
H6 C6 1_555 1_555
C7 C6 1_555 1_555
C8 C7 1_555 1_555
H7 C8 1_555 1_555
C9 C8 1_555 1_555
H8 C9 1_555 1_555
C10 C9 1_555 1_555
C11 C1 1_555 1_555
C12 C4 1_555 1_555
C13 P1 1_555 1_555
H9 C13 1_555 1_555
H10 C13 1_555 1_555
B1 P1 1_555 1_555
H11 B1 1_555 1_555
H12 B1 1_555 1_555
H13 B1 1_555 1_555
C14 P1 1_555 1_555
C15 C14 1_555 1_555
H14 C15 1_555 1_555
C16 C15 1_555 1_555
H15 C16 1_555 1_555
C17 C16 1_555 1_555
H16 C17 1_555 1_555
C18 C17 1_555 1_555
H17 C18 1_555 1_555
C19 C14 1_555 1_555
H18 C19 1_555 1_555
C7 C12 1_555 1_555
C10 C11 1_555 1_555
C10 C13 1_555 1_555
C11 C12 1_555 1_555
C18 C19 1_555 1_555

#END
