
#######################################################################
#
#                 Cambridge Crystallographic Data Centre
#                                CCDC 
#
#######################################################################
#
# If this CIF has been generated from an entry in the Cambridge 
# Structural Database, then it will include bibliographic, chemical, 
# crystal, experimental, refinement or atomic coordinate data resulting 
# from the CCDC's data processing and validation procedures.
#
#######################################################################

data_TUCWAR
_chemical_formula_moiety         'C32 H28 B1 Br2 P1'
_chemical_name_systematic        
boranyl(bis((6-bromo-1,2-dihydroacenaphthylen-5-yl)methyl))phenylphosphorane
_symmetry_cell_setting           monoclinic
_symmetry_space_group_name_H-M   'P 21/c'
_symmetry_Int_Tables_number      14
_space_group_name_Hall           '-P 2ybc'
loop_
_symmetry_equiv_pos_site_id
_symmetry_equiv_pos_as_xyz
1 x,y,z
2 -x,1/2+y,1/2-z
3 -x,-y,-z
4 x,1/2-y,1/2+z
_cell_length_a                   21.116(3)
_cell_length_b                   10.2016(12)
_cell_length_c                   12.0731(13)
_cell_angle_alpha                90
_cell_angle_beta                 91.709(4)
_cell_angle_gamma                90
_cell_volume                     2599.59
_exptl_crystal_colour            colorless
_exptl_crystal_description       BLOCK
_cell_formula_units_Z            4
loop_
_atom_site_label
_atom_site_type_symbol
_atom_site_fract_x
_atom_site_fract_y
_atom_site_fract_z
P1 P 0.24805(4) 0.62336(9) 0.64209(7)
B1 B 0.2564(2) 0.6287(4) 0.4838(3)
H1 H 0.3009 0.6157 0.4658
H2 H 0.2420 0.7141 0.4556
H3 H 0.2306 0.5592 0.4494
Br1 Br 0.34533(2) 0.92898(4) 0.54357(3)
Br2 Br 0.09348(2) 0.50960(4) 0.53785(3)
C1 C 0.31364(16) 0.7002(4) 0.7216(3)
H4 H 0.3136 0.7954 0.7060
H5 H 0.3063 0.6887 0.8017
C2 C 0.37826(17) 0.6449(3) 0.6961(3)
C3 C 0.39617(18) 0.5295(4) 0.7484(3)
H6 H 0.3662 0.4895 0.7949
C4 C 0.45479(17) 0.4665(4) 0.7388(3)
H7 H 0.4634 0.3860 0.7757
C5 C 0.49920(17) 0.5243(3) 0.6748(3)
C6 C 0.48231(17) 0.6409(3) 0.6171(3)
C7 C 0.42243(17) 0.7031(3) 0.6238(3)
C8 C 0.41831(18) 0.8172(3) 0.5542(3)
C9 C 0.46626(19) 0.8557(4) 0.4881(3)
H8 H 0.4601 0.9309 0.4427
C10 C 0.52442(18) 0.7886(4) 0.4846(3)
H9 H 0.5570 0.8172 0.4376
C11 C 0.53247(17) 0.6813(4) 0.5506(3)
C12 C 0.58774(17) 0.5906(4) 0.5655(3)
H10 H 0.6255 0.6385 0.5943
H11 H 0.5980 0.5485 0.4944
C13 C 0.56591(18) 0.4871(4) 0.6505(3)
H12 H 0.5676 0.3978 0.6187
H13 H 0.5931 0.4899 0.7187
C14 C 0.17721(17) 0.7000(4) 0.6996(3)
H14 H 0.1442 0.6317 0.7066
H15 H 0.1883 0.7318 0.7752
C15 C 0.14919(17) 0.8124(4) 0.6340(3)
C16 C 0.16245(18) 0.9374(4) 0.6707(3)
H16 H 0.1878 0.9466 0.7366
C17 C 0.14104(18) 1.0525(4) 0.6174(3)
H17 H 0.1507 1.1361 0.6482
C18 C 0.10613(17) 1.0420(4) 0.5205(3)
C19 C 0.09161(16) 0.9151(3) 0.4801(3)
C20 C 0.11022(16) 0.7976(4) 0.5345(3)
C21 C 0.08601(17) 0.6833(3) 0.4797(3)
C22 C 0.05078(17) 0.6896(4) 0.3823(3)
H18 H 0.0362 0.6104 0.3490
C23 C 0.03566(18) 0.8095(4) 0.3303(3)
H19 H 0.0125 0.8116 0.2616
C24 C 0.05514(17) 0.9221(4) 0.3808(3)
C25 C 0.04530(19) 1.0636(4) 0.3489(3)
H20 H -0.0004 1.0843 0.3414
H21 H 0.0656 1.0832 0.2779
C26 C 0.07693(19) 1.1434(4) 0.4450(3)
H22 H 0.1097 1.2032 0.4168
H23 H 0.0450 1.1957 0.4841
C27 C 0.24857(16) 0.4596(4) 0.6995(3)
C28 C 0.23086(17) 0.4370(4) 0.8085(3)
H24 H 0.2140 0.5065 0.8509
C29 C 0.23777(19) 0.3135(4) 0.8548(3)
H25 H 0.2256 0.2985 0.9288
C30 C 0.2622(2) 0.2128(4) 0.7942(4)
H26 H 0.2669 0.1284 0.8265
C31 C 0.28006(19) 0.2334(4) 0.6860(4)
H27 H 0.2974 0.1635 0.6446
C32 C 0.27253(18) 0.3564(4) 0.6385(3)
H28 H 0.2838 0.3701 0.5638
loop_
_geom_bond_atom_site_label_1
_geom_bond_atom_site_label_2
_geom_bond_site_symmetry_1
_geom_bond_site_symmetry_2
P1 B1 1_555 1_555
B1 H1 1_555 1_555
H2 B1 1_555 1_555
H3 B1 1_555 1_555
Br1 C8 1_555 1_555
Br2 C21 1_555 1_555
C1 P1 1_555 1_555
H4 C1 1_555 1_555
H5 C1 1_555 1_555
C2 C1 1_555 1_555
C3 C2 1_555 1_555
H6 C3 1_555 1_555
C4 C3 1_555 1_555
H7 C4 1_555 1_555
C5 C4 1_555 1_555
C6 C5 1_555 1_555
C7 C2 1_555 1_555
C8 C7 1_555 1_555
C9 C8 1_555 1_555
H8 C9 1_555 1_555
C10 C9 1_555 1_555
H9 C10 1_555 1_555
C11 C6 1_555 1_555
C12 C11 1_555 1_555
H10 C12 1_555 1_555
H11 C12 1_555 1_555
C13 C5 1_555 1_555
H12 C13 1_555 1_555
H13 C13 1_555 1_555
C14 P1 1_555 1_555
H14 C14 1_555 1_555
H15 C14 1_555 1_555
C15 C14 1_555 1_555
C16 C15 1_555 1_555
H16 C16 1_555 1_555
C17 C16 1_555 1_555
H17 C17 1_555 1_555
C18 C17 1_555 1_555
C19 C18 1_555 1_555
C20 C15 1_555 1_555
C21 C20 1_555 1_555
C22 C21 1_555 1_555
H18 C22 1_555 1_555
C23 C22 1_555 1_555
H19 C23 1_555 1_555
C24 C19 1_555 1_555
C25 C24 1_555 1_555
H20 C25 1_555 1_555
H21 C25 1_555 1_555
C26 C18 1_555 1_555
H22 C26 1_555 1_555
H23 C26 1_555 1_555
C27 P1 1_555 1_555
C28 C27 1_555 1_555
H24 C28 1_555 1_555
C29 C28 1_555 1_555
H25 C29 1_555 1_555
C30 C29 1_555 1_555
H26 C30 1_555 1_555
C31 C30 1_555 1_555
H27 C31 1_555 1_555
C32 C27 1_555 1_555
H28 C32 1_555 1_555
C6 C7 1_555 1_555
C10 C11 1_555 1_555
C12 C13 1_555 1_555
C19 C20 1_555 1_555
C23 C24 1_555 1_555
C25 C26 1_555 1_555
C31 C32 1_555 1_555

#END
