
#######################################################################
#
#                 Cambridge Crystallographic Data Centre
#                                CCDC 
#
#######################################################################
#
# If this CIF has been generated from an entry in the Cambridge 
# Structural Database, then it will include bibliographic, chemical, 
# crystal, experimental, refinement or atomic coordinate data resulting 
# from the CCDC's data processing and validation procedures.
#
#######################################################################

data_TUDHEH
_chemical_formula_moiety         'C17 H19 N1 O1 S1'
_chemical_name_systematic        
(E)-3-(4-(Diethylamino)phenyl)-1-(thiophen-2-yl)prop-2-en-1-one
_symmetry_cell_setting           orthorhombic
_symmetry_space_group_name_H-M   'P b c a'
_symmetry_Int_Tables_number      61
_space_group_name_Hall           '-P 2ac 2ab'
loop_
_symmetry_equiv_pos_site_id
_symmetry_equiv_pos_as_xyz
1 x,y,z
2 1/2-x,-y,1/2+z
3 1/2+x,1/2-y,-z
4 -x,1/2+y,1/2-z
5 -x,-y,-z
6 1/2+x,y,1/2-z
7 1/2-x,1/2+y,z
8 x,1/2-y,1/2+z
_cell_length_a                   8.455(2)
_cell_length_b                   19.449(5)
_cell_length_c                   19.449
_cell_angle_alpha                90
_cell_angle_beta                 90
_cell_angle_gamma                90
_cell_volume                     3198.22
_exptl_crystal_colour            yellow
_exptl_crystal_description       block
_cell_formula_units_Z            8
loop_
_atom_site_label
_atom_site_type_symbol
_atom_site_fract_x
_atom_site_fract_y
_atom_site_fract_z
C1 C 0.4282(6) 0.6302(2) 0.1471(3)
H1 H 0.4483 0.6713 0.1244
C2 C 0.5053(5) 0.6109(2) 0.2036(3)
H2 H 0.5863 0.6361 0.2240
C3 C 0.4497(4) 0.54895(17) 0.22797(16)
H3 H 0.4875 0.5283 0.2678
C4 C 0.3334(4) 0.52066(18) 0.18789(16)
C5 C 0.2442(4) 0.45628(18) 0.19533(15)
C6 C 0.2803(4) 0.41214(18) 0.25328(15)
H4 H 0.3578 0.4255 0.2845
C7 C 0.2047(4) 0.35291(18) 0.26261(15)
H5 H 0.1314 0.3416 0.2288
C8 C 0.2204(3) 0.30349(17) 0.31799(15)
C9 C 0.3201(4) 0.31169(18) 0.37390(16)
H6 H 0.3856 0.3501 0.3757
C10 C 0.3254(4) 0.26512(16) 0.42668(16)
H7 H 0.3943 0.2725 0.4632
C11 C 0.2284(4) 0.20642(19) 0.42665(16)
C12 C 0.1310(4) 0.19728(19) 0.36930(17)
H8 H 0.0681 0.1582 0.3662
C13 C 0.1268(4) 0.24507(18) 0.31766(17)
H9 H 0.0584 0.2380 0.2809
C14 C 0.3060(12) 0.1725(7) 0.5456(5)
H10 H 0.2695 0.2028 0.5791
C15 C 0.4470(11) 0.1308(6) 0.5509(5)
H11 H 0.4188 0.0831 0.5476
H12 H 0.4974 0.1391 0.5943
H13 H 0.5184 0.1424 0.5143
C16 C 0.1324(6) 0.0982(2) 0.4779(2)
H14 H 0.0289 0.1102 0.4601
H15 H 0.1182 0.0820 0.5247
C17 C 0.1978(7) 0.0408(2) 0.4358(2)
H16 H 0.2208 0.0572 0.3903
H17 H 0.1216 0.0043 0.4332
H18 H 0.2931 0.0240 0.4567
N1 N 0.2299(4) 0.15968(17) 0.47931(15)
O1 O 0.1402(3) 0.44206(12) 0.15325(11)
S1 S 0.29121(16) 0.57346(8) 0.12080(6)
C18? C 0.3542(15) 0.1671(10) 0.5323(6)
H19? H 0.4549 0.1479 0.5323
C19? C 0.2829(13) 0.2115(7) 0.5848(6)
H20? H 0.2705 0.2571 0.5666
H21? H 0.3503 0.2129 0.6244
H22? H 0.1814 0.1935 0.5975
loop_
_geom_bond_atom_site_label_1
_geom_bond_atom_site_label_2
_geom_bond_site_symmetry_1
_geom_bond_site_symmetry_2
C1 H1 1_555 1_555
C2 C1 1_555 1_555
H2 C2 1_555 1_555
C3 C2 1_555 1_555
H3 C3 1_555 1_555
C4 C3 1_555 1_555
C5 C4 1_555 1_555
C6 C5 1_555 1_555
H4 C6 1_555 1_555
C7 C6 1_555 1_555
H5 C7 1_555 1_555
C8 C7 1_555 1_555
C9 C8 1_555 1_555
H6 C9 1_555 1_555
C10 C9 1_555 1_555
H7 C10 1_555 1_555
C11 C10 1_555 1_555
C12 C11 1_555 1_555
H8 C12 1_555 1_555
C13 C8 1_555 1_555
H9 C13 1_555 1_555
C14 H10 1_555 1_555
C15 C14 1_555 1_555
H11 C15 1_555 1_555
H12 C15 1_555 1_555
H13 C15 1_555 1_555
C16 H14 1_555 1_555
H15 C16 1_555 1_555
C17 C16 1_555 1_555
H16 C17 1_555 1_555
H17 C17 1_555 1_555
H18 C17 1_555 1_555
N1 C11 1_555 1_555
O1 C5 1_555 1_555
S1 C1 1_555 1_555
C4 S1 1_555 1_555
C12 C13 1_555 1_555
C14 N1 1_555 1_555
C16 N1 1_555 1_555

#END
