
#######################################################################
#
#                 Cambridge Crystallographic Data Centre
#                                CCDC 
#
#######################################################################
#
# If this CIF has been generated from an entry in the Cambridge 
# Structural Database, then it will include bibliographic, chemical, 
# crystal, experimental, refinement or atomic coordinate data resulting 
# from the CCDC's data processing and validation procedures.
#
#######################################################################

data_TUDHIL
_chemical_formula_moiety         'C25 H19 N1 O1 S1'
_chemical_name_systematic        
(E)-3-(4-(Diphenylamino)phenyl)-1-(thiophen-2-yl)-prop-2-en-1-one
_symmetry_cell_setting           triclinic
_symmetry_space_group_name_H-M   'P -1'
_symmetry_Int_Tables_number      2
_space_group_name_Hall           '-P 1'
loop_
_symmetry_equiv_pos_site_id
_symmetry_equiv_pos_as_xyz
1 x,y,z
2 -x,-y,-z
_cell_length_a                   7.049(5)
_cell_length_b                   7.957(5)
_cell_length_c                   18.198(5)
_cell_angle_alpha                77.582(5)
_cell_angle_beta                 86.058(5)
_cell_angle_gamma                85.366(5)
_cell_volume                     992.183
_exptl_crystal_colour            yellow
_exptl_crystal_description       block
_cell_formula_units_Z            2
loop_
_atom_site_label
_atom_site_type_symbol
_atom_site_fract_x
_atom_site_fract_y
_atom_site_fract_z
C1 C 0.3992(2) 1.1851(2) 0.84073(8)
C2 C 0.5830(3) 1.2121(3) 0.85503(11)
H1 H 0.6832 1.1347 0.8457
C3 C 0.6182(3) 1.3541(3) 0.88325(12)
H2 H 0.7425 1.3722 0.8922
C4 C 0.4722(3) 1.4683(2) 0.89820(11)
H3 H 0.4966 1.5626 0.9179
C5 C 0.2906(3) 1.4424(2) 0.88390(11)
H4 H 0.1908 1.5196 0.8938
C6 C 0.2537(2) 1.3024(2) 0.85485(9)
H5 H 0.1295 1.2870 0.8447
C7 C 0.1998(2) 0.94639(19) 0.84461(9)
C8 C 0.1789(3) 0.8972(2) 0.92234(9)
H6 H 0.2715 0.9208 0.9520
C9 C 0.0216(3) 0.8136(2) 0.95591(11)
H7 H 0.0073 0.7837 1.0082
C10 C -0.1138(3) 0.7742(2) 0.91319(12)
H8 H -0.2190 0.7166 0.9361
C11 C -0.0927(2) 0.8207(2) 0.83578(12)
H9 H -0.1841 0.7933 0.8065
C12 C 0.0628(2) 0.9076(2) 0.80093(9)
H10 H 0.0750 0.9396 0.7487
C13 C 0.4530(2) 1.0106(2) 0.74414(8)
C14 C 0.5345(2) 1.1444(2) 0.69233(9)
H11 H 0.5269 1.2547 0.7022
C15 C 0.6261(2) 1.1140(2) 0.62675(9)
H12 H 0.6811 1.2046 0.5933
C16 C 0.6390(2) 0.95147(19) 0.60900(8)
C17 C 0.5590(2) 0.8180(2) 0.66145(9)
H13 H 0.5669 0.7077 0.6515
C18 C 0.4683(2) 0.8464(2) 0.72779(9)
H14 H 0.4168 0.7550 0.7620
C19 C 0.7300(2) 0.9315(2) 0.53674(8)
H15 H 0.7847 1.0288 0.5083
C20 C 0.7460(2) 0.7942(2) 0.50555(8)
H16 H 0.6957 0.6921 0.5312
C21 C 0.8427(2) 0.8024(2) 0.43083(8)
N1 N 0.3599(2) 1.04014(18) 0.81153(8)
O1 O 0.90407(18) 0.93636(14) 0.39364(6)
S1 S 0.7751(4) 0.4557(3) 0.43837(18)
C22 C 0.970(2) 0.640(2) 0.3292(10)
H17 H 1.0183 0.7353 0.2967
C23 C 0.869(2) 0.641(2) 0.3996(8)
C24 C 0.9851(15) 0.4685(12) 0.3163(6)
H18 H 1.0574 0.4339 0.2768
C25 C 0.8762(8) 0.3589(7) 0.3713(3)
H19 H 0.8620 0.2442 0.3703
C26? C 0.805(5) 0.494(3) 0.434(2)
H20? H 0.7517 0.4725 0.4827
S2? S 1.006(3) 0.628(2) 0.3288(9)
C27? C 0.871(8) 0.662(7) 0.402(3)
C28? C 0.942(5) 0.431(4) 0.332(2)
H21? H 0.9853 0.3703 0.2948
C29? C 0.818(3) 0.361(3) 0.3927(13)
H22? H 0.7605 0.2562 0.4032
loop_
_geom_bond_atom_site_label_1
_geom_bond_atom_site_label_2
_geom_bond_site_symmetry_1
_geom_bond_site_symmetry_2
C1 C2 1_555 1_555
C2 H1 1_555 1_555
C3 C2 1_555 1_555
H2 C3 1_555 1_555
C4 C3 1_555 1_555
H3 C4 1_555 1_555
C5 C4 1_555 1_555
H4 C5 1_555 1_555
C6 C1 1_555 1_555
H5 C6 1_555 1_555
C7 C8 1_555 1_555
C8 H6 1_555 1_555
C9 C8 1_555 1_555
H7 C9 1_555 1_555
C10 C9 1_555 1_555
H8 C10 1_555 1_555
C11 C10 1_555 1_555
H9 C11 1_555 1_555
C12 C7 1_555 1_555
H10 C12 1_555 1_555
C13 C14 1_555 1_555
C14 H11 1_555 1_555
C15 C14 1_555 1_555
H12 C15 1_555 1_555
C16 C15 1_555 1_555
C17 C16 1_555 1_555
H13 C17 1_555 1_555
C18 C13 1_555 1_555
H14 C18 1_555 1_555
C19 C16 1_555 1_555
H15 C19 1_555 1_555
C20 C19 1_555 1_555
H16 C20 1_555 1_555
C21 C20 1_555 1_555
N1 C1 1_555 1_555
O1 C21 1_555 1_555
S1 C23 1_555 1_555
C22 H17 1_555 1_555
C23 C21 1_555 1_555
C24 C22 1_555 1_555
H18 C24 1_555 1_555
C25 S1 1_555 1_555
H19 C25 1_555 1_555
C5 C6 1_555 1_555
C7 N1 1_555 1_555
C11 C12 1_555 1_555
C13 N1 1_555 1_555
C17 C18 1_555 1_555
C22 C23 1_555 1_555
C24 C25 1_555 1_555

#END
