
#######################################################################
#
#                 Cambridge Crystallographic Data Centre
#                                CCDC 
#
#######################################################################
#
# If this CIF has been generated from an entry in the Cambridge 
# Structural Database, then it will include bibliographic, chemical, 
# crystal, experimental, refinement or atomic coordinate data resulting 
# from the CCDC's data processing and validation procedures.
#
#######################################################################

data_TUDJEJ
_chemical_formula_moiety         'C18 H20 Br1 F3 O5'
_chemical_name_systematic        
'Dimethyl (2-bromo-3-oxo-3-phenylpropyl)(4,4,4-trifluorobutyl)malonate'
_symmetry_cell_setting           monoclinic
_symmetry_space_group_name_H-M   'P 21/c'
_symmetry_Int_Tables_number      14
_space_group_name_Hall           '-P 2ybc'
loop_
_symmetry_equiv_pos_site_id
_symmetry_equiv_pos_as_xyz
1 x,y,z
2 -x,1/2+y,1/2-z
3 -x,-y,-z
4 x,1/2-y,1/2+z
_cell_length_a                   11.4096(8)
_cell_length_b                   20.9825(4)
_cell_length_c                   8.4365(2)
_cell_angle_alpha                90
_cell_angle_beta                 104.283(7)
_cell_angle_gamma                90
_cell_volume                     1957.28
_exptl_crystal_colour            colorless
_exptl_crystal_description       platelet
_cell_formula_units_Z            4
loop_
_atom_site_label
_atom_site_type_symbol
_atom_site_fract_x
_atom_site_fract_y
_atom_site_fract_z
Br1 Br 0.33309(5) 0.09453(5) 1.14172(8)
F1 F -0.2084(4) 0.1438(3) 1.3157(4)
F2 F -0.3883(4) 0.1757(2) 1.2154(6)
F3 F -0.3378(4) 0.0820(2) 1.1684(7)
O1 O 0.0110(3) 0.01409(14) 0.8017(5)
O2 O -0.1403(3) 0.06174(13) 0.6217(4)
O3 O 0.2573(3) 0.21494(15) 0.8597(5)
O4 O 0.0790(2) 0.13506(12) 0.5835(3)
O5 O -0.0187(3) 0.22219(13) 0.6368(4)
C1 C 0.5439(5) 0.1129(3) 0.5817(7)
H1 H 0.6004 0.1035 0.5223
C2 C 0.5056(5) 0.0660(3) 0.6708(8)
H2 H 0.5354 0.0248 0.6705
C3 C 0.4225(4) 0.0799(2) 0.7613(6)
H3 H 0.3973 0.0480 0.8221
C4 C 0.3772(3) 0.14089(19) 0.7614(5)
C5 C 0.2841(3) 0.1595(2) 0.8504(5)
C6 C 0.2204(4) 0.1083(2) 0.9259(5)
H4 H 0.2110 0.0692 0.8605
C7 C 0.1000(3) 0.1284(2) 0.9582(5)
H5 H 0.1096 0.1708 1.0053
H6 H 0.0822 0.0999 1.0397
C8 C -0.0103(3) 0.12909(16) 0.8090(4)
C9 C -0.1189(3) 0.16006(18) 0.8576(5)
H7 H -0.0978 0.2037 0.8905
H8 H -0.1863 0.1615 0.7616
C10 C -0.1612(4) 0.1274(2) 0.9940(5)
H9 H -0.1893 0.0847 0.9598
H10 H -0.0941 0.1238 1.0900
C11 C -0.2624(4) 0.1649(2) 1.0363(6)
H11 H -0.2372 0.2090 1.0538
H12 H -0.3323 0.1637 0.9436
C12 C -0.2989(5) 0.1419(3) 1.1823(7)
C13 C -0.0425(3) 0.06109(17) 0.7468(5)
C14 C -0.1780(5) 0.0013(2) 0.5443(8)
H13 H -0.1196 -0.0129 0.4874
H14 H -0.2553 0.0061 0.4680
H15 H -0.1843 -0.0295 0.6259
C15 C 0.4996(5) 0.1731(3) 0.5801(7)
H16 H 0.5241 0.2044 0.5172
C16 C 0.4182(4) 0.1878(2) 0.6716(6)
H17 H 0.3905 0.2295 0.6733
C17 C 0.0141(3) 0.16826(17) 0.6681(4)
C18 C 0.1067(5) 0.1684(2) 0.4462(6)
H18 H 0.0328 0.1798 0.3690
H19 H 0.1537 0.1412 0.3942
H20 H 0.1520 0.2063 0.4848
loop_
_geom_bond_atom_site_label_1
_geom_bond_atom_site_label_2
_geom_bond_site_symmetry_1
_geom_bond_site_symmetry_2
Br1 C6 1_555 1_555
F1 C12 1_555 1_555
F2 C12 1_555 1_555
F3 C12 1_555 1_555
O1 C13 1_555 1_555
O2 C13 1_555 1_555
O3 C5 1_555 1_555
O4 C17 1_555 1_555
O5 C17 1_555 1_555
C1 H1 1_555 1_555
C2 C1 1_555 1_555
H2 C2 1_555 1_555
C3 C2 1_555 1_555
H3 C3 1_555 1_555
C4 C3 1_555 1_555
C5 C4 1_555 1_555
C6 C5 1_555 1_555
H4 C6 1_555 1_555
C7 C6 1_555 1_555
H5 C7 1_555 1_555
H6 C7 1_555 1_555
C8 C7 1_555 1_555
C9 C8 1_555 1_555
H7 C9 1_555 1_555
H8 C9 1_555 1_555
C10 C9 1_555 1_555
H9 C10 1_555 1_555
H10 C10 1_555 1_555
C11 C10 1_555 1_555
H11 C11 1_555 1_555
H12 C11 1_555 1_555
C12 C11 1_555 1_555
C13 C8 1_555 1_555
C14 O2 1_555 1_555
H13 C14 1_555 1_555
H14 C14 1_555 1_555
H15 C14 1_555 1_555
C15 C1 1_555 1_555
H16 C15 1_555 1_555
C16 C4 1_555 1_555
H17 C16 1_555 1_555
C17 C8 1_555 1_555
C18 O4 1_555 1_555
H18 C18 1_555 1_555
H19 C18 1_555 1_555
H20 C18 1_555 1_555
C15 C16 1_555 1_555

#END
