
#######################################################################
#
#                 Cambridge Crystallographic Data Centre
#                                CCDC 
#
#######################################################################
#
# If this CIF has been generated from an entry in the Cambridge 
# Structural Database, then it will include bibliographic, chemical, 
# crystal, experimental, refinement or atomic coordinate data resulting 
# from the CCDC's data processing and validation procedures.
#
#######################################################################

data_TUDLEK
_chemical_name_common            
"10,15,25,30-tetrakis(Pentafluorophenyl)-spiro(5,4'-(4',8'-dihydrothieno[2',3'-f][1']benzothiophene)-8',20-hexaphyrin) chloroform solvate"
_chemical_formula_moiety         'C62 H18 F20 N6 S2,4(C1 H1 Cl3)'
_chemical_name_systematic        
'6,11,21,26-tetrakis(Pentafluorophenyl)-32,40-dithia-36,37,38,44,45,46-hexaazaundecacyclo[14.14.5.5^1,16^.1^2,5^.1^7,10^.1^12,15^.1^17,20^.1^22,25^.1^27,30^.0^31,35^.0^39,43^]hexatetraconta-2(46),3,5,7,9,11,13,15(44),17(38),18,20,22,24,26,28,30(36),31(35),33,39(43),41-icosaene chloroform solvate'
_symmetry_cell_setting           triclinic
_symmetry_space_group_name_H-M   'P -1'
_symmetry_Int_Tables_number      2
_space_group_name_Hall           '-P 1'
loop_
_symmetry_equiv_pos_site_id
_symmetry_equiv_pos_as_xyz
1 x,y,z
2 -x,-y,-z
_cell_length_a                   10.629(5)
_cell_length_b                   11.207(6)
_cell_length_c                   14.757(6)
_cell_angle_alpha                101.541(20)
_cell_angle_beta                 94.327(18)
_cell_angle_gamma                93.703(18)
_cell_volume                     1711.67
_exptl_crystal_colour            red
_exptl_crystal_description       prism
_cell_formula_units_Z            1
_exptl_crystal_recrystallization_method dichloromethane/hexane
loop_
_atom_site_label
_atom_site_type_symbol
_atom_site_fract_x
_atom_site_fract_y
_atom_site_fract_z
C1 C 0.2948(2) 0.83851(19) 0.98602(14)
C2 C 0.1646(2) 0.8059(2) 1.00259(15)
H1 H 0.1212 0.8403 1.0543
C3 C 0.1182(2) 0.7164(2) 0.92915(15)
H2 H 0.0366 0.6737 0.9201
C4 C 0.2184(2) 0.6994(2) 0.86734(15)
C5 C 0.21255(19) 0.62996(18) 0.77890(14)
C6 C 0.30544(19) 0.64032(18) 0.71474(14)
C7 C 0.3097(2) 0.57350(19) 0.62382(14)
H3 H 0.2543 0.5048 0.5937
C8 C 0.4093(2) 0.62576(19) 0.58600(14)
H4 H 0.4349 0.5993 0.5254
C9 C 0.46576(19) 0.72535(19) 0.65374(14)
C10 C 0.56354(19) 0.81596(19) 0.64626(14)
C11 C 0.61031(19) 0.91118(19) 0.71662(14)
C12 C 0.6910(2) 1.0183(2) 0.71157(15)
H5 H 0.7290 1.0345 0.6586
C13 C 0.7017(2) 1.0906(2) 0.79733(15)
H6 H 0.7458 1.1692 0.8162
C14 C 0.63173(19) 1.02355(19) 0.85491(14)
C15 C 0.38962(19) 0.93865(19) 1.04265(14)
C16 C 0.10059(19) 0.54092(18) 0.74537(14)
C17 C 0.0743(2) 0.4448(2) 0.78965(14)
C18 C -0.0277(2) 0.3598(2) 0.76032(17)
C19 C -0.1076(2) 0.3690(2) 0.68529(17)
C20 C -0.0851(2) 0.4636(2) 0.63996(15)
C21 C 0.0183(2) 0.54688(19) 0.66949(14)
C22 C 0.61595(19) 0.80483(19) 0.55419(14)
C23 C 0.5477(2) 0.8244(2) 0.47562(16)
C24 C 0.5964(2) 0.8088(2) 0.39041(16)
C25 C 0.7172(2) 0.7722(2) 0.38203(16)
C26 C 0.7885(2) 0.7541(2) 0.45945(16)
C27 C 0.7377(2) 0.77026(19) 0.54358(15)
N1 N 0.32553(17) 0.77677(17) 0.90678(12)
N2 N 0.40231(16) 0.73008(16) 0.73123(12)
H7 H 0.4211 0.7831 0.7839
N3 N 0.57688(17) 0.91972(16) 0.80775(12)
F1 F 0.15068(14) 0.43094(13) 0.86245(10)
F2 F -0.04594(16) 0.26768(14) 0.80446(12)
F3 F -0.20676(15) 0.28769(16) 0.65635(13)
F4 F -0.16425(14) 0.47357(17) 0.56741(11)
F5 F 0.03619(13) 0.63711(13) 0.62346(10)
F6 F 0.43051(14) 0.86148(17) 0.48156(10)
F7 F 0.52833(17) 0.8286(2) 0.31606(11)
F8 F 0.76309(17) 0.75298(17) 0.29926(10)
F9 F 0.90531(14) 0.71808(15) 0.45107(11)
F10 F 0.80890(13) 0.75000(14) 0.61656(9)
C28 C 0.3865(11) 1.0526(16) 0.9945(14)
C29 C 0.5143(16) 0.8950(13) 1.0408(14)
C30 C 0.5546(11) 0.7948(15) 1.0798(14)
H8 H 0.5007 0.7471 1.1098
C31 C 0.6779(5) 0.7753(5) 1.0693(3)
H9 H 0.7187 0.7115 1.0902
S1 S 0.2470(3) 1.1222(4) 0.9855(3)
C1A C 0.7052(2) 1.16149(19) 1.01398(14)
C2A C 0.8354(2) 1.1941(2) 0.99741(15)
H1A H 0.8788 1.1597 0.9457
C3A C 0.8818(2) 1.2836(2) 1.07085(15)
H2A H 0.9634 1.3263 1.0799
C4A C 0.7816(2) 1.3006(2) 1.13266(15)
C5A C 0.78745(19) 1.37004(18) 1.22110(14)
C6A C 0.69456(19) 1.35968(18) 1.28526(14)
C7A C 0.6903(2) 1.42650(19) 1.37618(14)
H3A H 0.7457 1.4952 1.4063
C8A C 0.5907(2) 1.37424(19) 1.41400(14)
H4A H 0.5651 1.4007 1.4746
C9A C 0.53424(19) 1.27465(19) 1.34626(14)
C10A C 0.43646(19) 1.18404(19) 1.35374(14)
C11A C 0.38969(19) 1.08882(19) 1.28338(14)
C12A C 0.3090(2) 0.9817(2) 1.28843(15)
H5A H 0.2710 0.9655 1.3414
C13A C 0.2983(2) 0.9094(2) 1.20267(15)
H6A H 0.2542 0.8308 1.1838
C14A C 0.36827(19) 0.97645(19) 1.14509(14)
C15A C 0.61038(19) 1.06135(19) 0.95735(14)
C16A C 0.89941(19) 1.45908(18) 1.25463(14)
C17A C 0.9257(2) 1.5552(2) 1.21035(14)
C18A C 1.0277(2) 1.6402(2) 1.23968(17)
C19A C 1.1076(2) 1.6310(2) 1.31471(17)
C20A C 1.0851(2) 1.5364(2) 1.36004(15)
C21A C 0.9817(2) 1.45312(19) 1.33051(14)
C22A C 0.38405(19) 1.19517(19) 1.44581(14)
C23A C 0.4523(2) 1.1756(2) 1.52438(16)
C24A C 0.4036(2) 1.1912(2) 1.60959(16)
C25A C 0.2828(2) 1.2278(2) 1.61797(16)
C26A C 0.2115(2) 1.2459(2) 1.54055(16)
C27A C 0.2623(2) 1.22974(19) 1.45642(15)
N1A N 0.67447(17) 1.22323(17) 1.09322(12)
N2A N 0.59769(16) 1.26992(16) 1.26877(12)
H7A H 0.5789 1.2169 1.2161
N3A N 0.42312(17) 1.08028(16) 1.19225(12)
F1A F 0.84932(14) 1.56906(13) 1.13755(10)
F2A F 1.04594(16) 1.73232(14) 1.19554(12)
F3A F 1.20676(15) 1.71231(16) 1.34365(13)
F4A F 1.16425(14) 1.52643(17) 1.43259(11)
F5A F 0.96381(13) 1.36289(13) 1.37654(10)
F6A F 0.56949(14) 1.13852(17) 1.51844(10)
F7A F 0.47167(17) 1.1714(2) 1.68394(11)
F8A F 0.23691(17) 1.24702(17) 1.70074(10)
F9A F 0.09469(14) 1.28192(15) 1.54893(11)
F10A F 0.19110(13) 1.25000(14) 1.38344(9)
C28A C 0.6135(11) 0.9474(16) 1.0055(14)
C29A C 0.4857(16) 1.1050(13) 0.9592(14)
C30A C 0.4454(11) 1.2052(15) 0.9202(14)
H8A H 0.4993 1.2529 0.8902
C31A C 0.3221(5) 1.2247(5) 0.9307(3)
H9A H 0.2813 1.2885 0.9098
S1A S 0.7530(3) 0.8778(4) 1.0145(3)
C35 C 0.0887(7) 1.0036(6) 0.7400(5)
H12 H 0.1014 1.0886 0.7781
Cl1 Cl -0.00266(17) 0.91918(15) 0.79863(11)
Cl2 Cl 0.23969(18) 0.9498(2) 0.72766(15)
Cl3 Cl 0.0142(5) 1.0134(5) 0.6282(4)
C36 C 0.6467(6) 0.5624(6) 0.8566(5)
H13 H 0.6010 0.6226 0.8989
Cl4 Cl 0.53492(16) 0.46281(11) 0.77973(11)
Cl5 Cl 0.7297(2) 0.4762(2) 0.92304(17)
Cl6 Cl 0.74522(12) 0.64216(10) 0.79550(7)
C32? C 0.6248(17) 0.959(2) 0.9973(19)
S2? S 0.5764(5) 0.7780(6) 1.0824(5)
C33? C 0.7272(6) 0.8014(6) 1.0518(5)
H10? H 0.7949 0.7536 1.0635
C34? C 0.7369(16) 0.8967(17) 1.0088(17)
H11? H 0.8144 0.9216 0.9872
C37? C 0.533(2) 0.9005(18) 1.0356(19)
C38? C 0.0880(6) 0.9219(5) 0.6521(5)
C39? C 0.609(4) 0.554(5) 0.855(4)
Cl7? Cl 0.1494(4) 0.9760(2) 0.76444(16)
Cl8? Cl 0.20451(19) 0.8862(2) 0.57670(18)
Cl9? Cl -0.0030(4) 1.0275(4) 0.6162(4)
Cl10? Cl 0.4669(8) 0.5019(8) 0.8668(9)
Cl11? Cl 0.6426(12) 0.5438(13) 0.7426(8)
Cl12? Cl 0.7550(11) 0.4918(11) 0.9218(7)
H14? H 0.0323 0.8459 0.6499
H15? H 0.6125 0.6435 0.8822
loop_
_geom_bond_atom_site_label_1
_geom_bond_atom_site_label_2
_geom_bond_site_symmetry_1
_geom_bond_site_symmetry_2
C1 C2 1_555 1_555
C2 H1 1_555 1_555
C3 C2 1_555 1_555
H2 C3 1_555 1_555
C4 C3 1_555 1_555
C5 C4 1_555 1_555
C6 C5 1_555 1_555
C7 C6 1_555 1_555
H3 C7 1_555 1_555
C8 C7 1_555 1_555
H4 C8 1_555 1_555
C9 C8 1_555 1_555
C10 C9 1_555 1_555
C11 C10 1_555 1_555
C12 C11 1_555 1_555
H5 C12 1_555 1_555
C13 C12 1_555 1_555
H6 C13 1_555 1_555
C14 C13 1_555 1_555
C15 C1 1_555 1_555
C16 C5 1_555 1_555
C17 C16 1_555 1_555
C18 C17 1_555 1_555
C19 C18 1_555 1_555
C20 C19 1_555 1_555
C21 C16 1_555 1_555
C22 C10 1_555 1_555
C23 C22 1_555 1_555
C24 C23 1_555 1_555
C25 C24 1_555 1_555
C26 C25 1_555 1_555
C27 C22 1_555 1_555
N1 C1 1_555 1_555
N2 C6 1_555 1_555
H7 N2 1_555 1_555
N3 C11 1_555 1_555
F1 C17 1_555 1_555
F2 C18 1_555 1_555
F3 C19 1_555 1_555
F4 C20 1_555 1_555
F5 C21 1_555 1_555
F6 C23 1_555 1_555
F7 C24 1_555 1_555
F8 C25 1_555 1_555
F9 C26 1_555 1_555
F10 C27 1_555 1_555
C28 C15 1_555 1_555
C29 C15 1_555 1_555
C30 C29 1_555 1_555
H8 C30 1_555 1_555
C31 C30 1_555 1_555
H9 C31 1_555 1_555
S1 C28 1_555 1_555
C35 H12 1_555 1_555
Cl1 C35 1_555 1_555
Cl2 C35 1_555 1_555
Cl3 C35 1_555 1_555
C36 H13 1_555 1_555
Cl4 C36 1_555 1_555
Cl5 C36 1_555 1_555
Cl6 C36 1_555 1_555
C1A C2A 1_555 1_555
C2A H1A 1_555 1_555
C3A C2A 1_555 1_555
H2A C3A 1_555 1_555
C4A C3A 1_555 1_555
C5A C4A 1_555 1_555
C6A C5A 1_555 1_555
C7A C6A 1_555 1_555
H3A C7A 1_555 1_555
C8A C7A 1_555 1_555
H4A C8A 1_555 1_555
C9A C8A 1_555 1_555
C10A C9A 1_555 1_555
C11A C10A 1_555 1_555
C12A C11A 1_555 1_555
H5A C12A 1_555 1_555
C13A C12A 1_555 1_555
H6A C13A 1_555 1_555
C14A C15 1_555 1_555
C15A C14 1_555 1_555
C16A C5A 1_555 1_555
C17A C16A 1_555 1_555
C18A C17A 1_555 1_555
C19A C18A 1_555 1_555
C20A C19A 1_555 1_555
C21A C16A 1_555 1_555
C22A C10A 1_555 1_555
C23A C22A 1_555 1_555
C24A C23A 1_555 1_555
C25A C24A 1_555 1_555
C26A C25A 1_555 1_555
C27A C22A 1_555 1_555
N1A C1A 1_555 1_555
N2A C6A 1_555 1_555
H7A N2A 1_555 1_555
N3A C11A 1_555 1_555
F1A C17A 1_555 1_555
F2A C18A 1_555 1_555
F3A C19A 1_555 1_555
F4A C20A 1_555 1_555
F5A C21A 1_555 1_555
F6A C23A 1_555 1_555
F7A C24A 1_555 1_555
F8A C25A 1_555 1_555
F9A C26A 1_555 1_555
F10A C27A 1_555 1_555
C28A C29 1_555 1_555
C29A C28 1_555 1_555
C30A C29A 1_555 1_555
H8A C30A 1_555 1_555
C31A S1 1_555 1_555
H9A C31A 1_555 1_555
S1A C31 1_555 1_555
C4 N1 1_555 1_555
C9 N2 1_555 1_555
C14 N3 1_555 1_555
C20 C21 1_555 1_555
C26 C27 1_555 1_555
C1A C15A 1_555 1_555
C4A N1A 1_555 1_555
C9A N2A 1_555 1_555
C13A C14A 1_555 1_555
C14A N3A 1_555 1_555
C15A C28A 1_555 1_555
C15A C29A 1_555 1_555
C20A C21A 1_555 1_555
C26A C27A 1_555 1_555
C28A S1A 1_555 1_555
C30A C31A 1_555 1_555

#END
