
#######################################################################
#
#                 Cambridge Crystallographic Data Centre
#                                CCDC 
#
#######################################################################
#
# If this CIF has been generated from an entry in the Cambridge 
# Structural Database, then it will include bibliographic, chemical, 
# crystal, experimental, refinement or atomic coordinate data resulting 
# from the CCDC's data processing and validation procedures.
#
#######################################################################

data_TUDPEO
_chemical_formula_moiety         'C19 H18 Br1 N1 O3'
_chemical_name_systematic        
(2R,3S,4R,5S)-3-(4-Bromophenyl)-2-methyl-4-nitro-5-phenylcyclohexanone
_symmetry_cell_setting           tetragonal
_symmetry_space_group_name_H-M   'P 43'
_symmetry_Int_Tables_number      78
_space_group_name_Hall           'P 4cw'
loop_
_symmetry_equiv_pos_site_id
_symmetry_equiv_pos_as_xyz
1 x,y,z
2 -x,-y,1/2+z
3 -y,x,3/4+z
4 y,-x,1/4+z
_cell_length_a                   9.5813(5)
_cell_length_b                   9.5813(5)
_cell_length_c                   19.780(2)
_cell_angle_alpha                90
_cell_angle_beta                 90
_cell_angle_gamma                90
_cell_volume                     1815.83
_exptl_crystal_colour            colorless
_exptl_crystal_description       pyramid
_cell_formula_units_Z            4
_exptl_crystal_recrystallization_method 'acetone/diethyl ether/hexane'
loop_
_atom_site_label
_atom_site_type_symbol
_atom_site_fract_x
_atom_site_fract_y
_atom_site_fract_z
Br1 Br 1.38786(2) 0.62012(3) 0.243512(17)
C1 C 0.8216(2) 0.93911(19) 0.09264(9)
H1 H 0.8855 0.9268 0.0544
C2 C 0.81211(19) 0.7998(2) 0.13016(9)
H2 H 0.7483 0.8115 0.1684
C3 C 0.7490(2) 0.6886(2) 0.08162(10)
H3 H 0.8164 0.6748 0.0450
C4 C 0.6145(2) 0.7392(2) 0.04947(10)
C5 C 0.6205(2) 0.8822(2) 0.01771(10)
H4 H 0.5269 0.9098 0.0046
H5 H 0.6766 0.8773 -0.0230
C6 C 0.6818(2) 0.9948(2) 0.06454(10)
H6 H 0.7049 1.0747 0.0357
C7 C 0.9534(2) 0.7554(2) 0.15757(9)
C8 C 1.0609(2) 0.7137(3) 0.11424(12)
H7 H 1.0459 0.7129 0.0678
C9 C 1.1898(3) 0.6734(3) 0.13972(13)
H8 H 1.2608 0.6455 0.1106
C10 C 1.2114(2) 0.6751(2) 0.20848(12)
C11 C 1.1085(2) 0.7166(2) 0.25228(11)
H9 H 1.1248 0.7183 0.2986
C12 C 0.9794(2) 0.7560(2) 0.22643(10)
H10 H 0.9091 0.7833 0.2560
C13 C 0.5795(2) 1.0483(2) 0.11734(10)
C14 C 0.4907(3) 0.9629(2) 0.15409(13)
H11 H 0.4943 0.8667 0.1479
C15 C 0.3975(3) 1.0186(3) 0.19951(17)
H12 H 0.3394 0.9600 0.2243
C16 C 0.4765(3) 1.2453(3) 0.17376(18)
H13 H 0.4724 1.3413 0.1805
C17 C 0.5710(3) 1.1907(2) 0.12829(13)
H14 H 0.6299 1.2504 0.1046
O1 O 0.51103(18) 0.66834(19) 0.04645(10)
N1 N 0.8810(2) 1.0512(2) 0.13771(10)
C18 C 0.7307(3) 0.5481(2) 0.11666(14)
H15 H 0.6800 0.5609 0.1581
H16 H 0.8207 0.5089 0.1264
H17 H 0.6799 0.4860 0.0876
O2 O 0.8523(2) 1.04919(19) 0.19754(9)
O3 O 0.9479(3) 1.1430(2) 0.11082(14)
C19 C 0.3898(3) 1.1606(3) 0.20847(17)
H18 H 0.3251 1.1982 0.2384
loop_
_geom_bond_atom_site_label_1
_geom_bond_atom_site_label_2
_geom_bond_site_symmetry_1
_geom_bond_site_symmetry_2
Br1 C10 1_555 1_555
C1 H1 1_555 1_555
C2 C1 1_555 1_555
H2 C2 1_555 1_555
C3 C2 1_555 1_555
H3 C3 1_555 1_555
C4 C3 1_555 1_555
C5 C4 1_555 1_555
H4 C5 1_555 1_555
H5 C5 1_555 1_555
C6 C1 1_555 1_555
H6 C6 1_555 1_555
C7 C2 1_555 1_555
C8 C7 1_555 1_555
H7 C8 1_555 1_555
C9 C8 1_555 1_555
H8 C9 1_555 1_555
C10 C9 1_555 1_555
C11 C10 1_555 1_555
H9 C11 1_555 1_555
C12 C7 1_555 1_555
H10 C12 1_555 1_555
C13 C6 1_555 1_555
C14 C13 1_555 1_555
H11 C14 1_555 1_555
C15 C14 1_555 1_555
H12 C15 1_555 1_555
C16 H13 1_555 1_555
C17 C13 1_555 1_555
H14 C17 1_555 1_555
O1 C4 1_555 1_555
N1 C1 1_555 1_555
C18 C3 1_555 1_555
H15 C18 1_555 1_555
H16 C18 1_555 1_555
H17 C18 1_555 1_555
O2 N1 1_555 1_555
O3 N1 1_555 1_555
C19 C15 1_555 1_555
H18 C19 1_555 1_555
C5 C6 1_555 1_555
C11 C12 1_555 1_555
C16 C17 1_555 1_555
C16 C19 1_555 1_555

#END
