
#######################################################################
#
#                 Cambridge Crystallographic Data Centre
#                                CCDC 
#
#######################################################################
#
# If this CIF has been generated from an entry in the Cambridge 
# Structural Database, then it will include bibliographic, chemical, 
# crystal, experimental, refinement or atomic coordinate data resulting 
# from the CCDC's data processing and validation procedures.
#
#######################################################################

data_TUDQOA01
_chemical_formula_moiety         '2(C12 H28 N1 1+),C4 H4 O4,C4 H2 O4 2-'
_chemical_name_systematic        
'bis(tributylammonium) but-2-enedioate but-2-enedioic acid'
_symmetry_cell_setting           triclinic
_symmetry_space_group_name_H-M   'P -1'
_symmetry_Int_Tables_number      2
_space_group_name_Hall           '-P 1'
loop_
_symmetry_equiv_pos_site_id
_symmetry_equiv_pos_as_xyz
1 x,y,z
2 -x,-y,-z
_cell_length_a                   8.4254(5)
_cell_length_b                   9.7100(6)
_cell_length_c                   12.5379(6)
_cell_angle_alpha                100.236(4)
_cell_angle_beta                 109.249(5)
_cell_angle_gamma                95.150(5)
_cell_volume                     940.75
_exptl_crystal_colour            colorless
_exptl_crystal_description       needle
_chemical_melting_point          '363 K'
_cell_formula_units_Z            1
_exptl_crystal_recrystallization_method 
'Re-crystallisation from solvent: Ethanol'
loop_
_atom_site_label
_atom_site_type_symbol
_atom_site_fract_x
_atom_site_fract_y
_atom_site_fract_z
N1 N 0.05808(18) 0.50472(14) 0.26475(12)
H1 H 0.0348 0.5899 0.2942
C1 C 0.1483(2) 0.53268(19) 0.18391(15)
H2 H 0.1697 0.4433 0.1470
H3 H 0.0739 0.5719 0.1237
C2 C -0.1107(2) 0.4139(2) 0.19598(17)
H4 H -0.1690 0.4553 0.1317
H5 H -0.0919 0.3209 0.1640
C3 C 0.1623(2) 0.45214(18) 0.36644(14)
H6 H 0.0974 0.4451 0.4169
H7 H 0.2638 0.5217 0.4095
C4 C 0.2158(3) 0.31010(19) 0.33645(16)
H8 H 0.1166 0.2365 0.3071
H9 H 0.2634 0.3106 0.2758
C5 C 0.3136(3) 0.6321(2) 0.24146(18)
H10 H 0.3973 0.5851 0.2893
H11 H 0.2980 0.7143 0.2913
C6 C -0.2229(3) 0.3972(3) 0.2653(2)
H12 H -0.2350 0.4901 0.3027
H13 H -0.1706 0.3474 0.3251
C7 C 0.3456(3) 0.2773(3) 0.4402(2)
H14 H 0.4435 0.3522 0.4697
H15 H 0.2970 0.2770 0.5004
C8 C 0.3787(3) 0.6798(3) 0.1517(2)
H16 H 0.3903 0.5970 0.1005
H17 H 0.2955 0.7284 0.1053
C9 C -0.3992(5) 0.1631(3) 0.1416(4)
H18 H -0.3395 0.1560 0.0880
H19 H -0.5144 0.1153 0.1025
H20 H -0.3436 0.1201 0.2043
C10 C -0.3998(3) 0.3143(3) 0.1877(3)
H21 H -0.4751 0.3201 0.2320
H22 H -0.4457 0.3590 0.1232
C11 C 0.5455(4) 0.7759(4) 0.2051(3)
H23 H 0.5314 0.8636 0.2475
H24 H 0.5871 0.7940 0.1455
H25 H 0.6257 0.7318 0.2569
C12 C 0.4045(4) 0.1380(3) 0.4153(3)
H26 H 0.3091 0.0628 0.3883
H27 H 0.4872 0.1240 0.4848
H28 H 0.4551 0.1379 0.3570
O1 O -0.0067(2) 0.76793(13) 0.31595(11)
C13 C 0.0111(3) 0.81402(19) 0.42024(18)
C14 C -0.0119(3) 0.96649(19) 0.44905(16)
H29 H -0.0452 1.0140 0.3890
O2 O 0.070(7) 0.7437(15) 0.4947(15)
O1A O 0.0067(2) 1.23207(13) 0.68405(11)
C13A C -0.0111(3) 1.18598(19) 0.57976(18)
C14A C 0.0119(3) 1.03351(19) 0.55095(16)
H29A H 0.0452 0.9860 0.6110
O2A O -0.070(7) 1.2563(15) 0.5053(15)
O4 O 0.1392(2) 0.26854(16) -0.03493(13)
C15 C 0.0497(3) 0.06081(19) 0.01442(16)
H30 H 0.1112 0.0966 0.0928
C16 C 0.0725(3) 0.1463(2) -0.06730(17)
O5 O 0.0113(2) 0.07831(14) -0.17523(12)
H31 H 0.0140 0.1304 -0.2288
O4A O -0.1392(2) -0.26854(16) 0.03493(13)
C15A C -0.0497(3) -0.06081(19) -0.01442(16)
H30A H -0.1112 -0.0966 -0.0928
C16A C -0.0725(3) -0.1463(2) 0.06730(17)
O5A O -0.0113(2) -0.07831(14) 0.17523(12)
H31A H -0.0140 -0.1304 0.2288
O3? O 0.017(5) 0.7396(12) 0.4883(15)
loop_
_geom_bond_atom_site_label_1
_geom_bond_atom_site_label_2
_geom_bond_site_symmetry_1
_geom_bond_site_symmetry_2
N1 H1 1_555 1_555
C1 N1 1_555 1_555
H2 C1 1_555 1_555
H3 C1 1_555 1_555
C2 N1 1_555 1_555
H4 C2 1_555 1_555
H5 C2 1_555 1_555
C3 N1 1_555 1_555
H6 C3 1_555 1_555
H7 C3 1_555 1_555
C4 C3 1_555 1_555
H8 C4 1_555 1_555
H9 C4 1_555 1_555
C5 C1 1_555 1_555
H10 C5 1_555 1_555
H11 C5 1_555 1_555
C6 C2 1_555 1_555
H12 C6 1_555 1_555
H13 C6 1_555 1_555
C7 C4 1_555 1_555
H14 C7 1_555 1_555
H15 C7 1_555 1_555
C8 C5 1_555 1_555
H16 C8 1_555 1_555
H17 C8 1_555 1_555
C9 H18 1_555 1_555
H19 C9 1_555 1_555
H20 C9 1_555 1_555
C10 C6 1_555 1_555
H21 C10 1_555 1_555
H22 C10 1_555 1_555
C11 C8 1_555 1_555
H23 C11 1_555 1_555
H24 C11 1_555 1_555
H25 C11 1_555 1_555
C12 C7 1_555 1_555
H26 C12 1_555 1_555
H27 C12 1_555 1_555
H28 C12 1_555 1_555
O1 C13 1_555 1_555
C13 C14 1_555 1_555
C14 H29 1_555 1_555
O2 C13 1_555 1_555
O4 C16 1_555 1_555
C15 H30 1_555 1_555
C16 C15 1_555 1_555
O5 C16 1_555 1_555
H31 O5 1_555 1_555
O1A C13A 1_555 1_555
C13A C14A 1_555 1_555
C14A C14 1_555 1_555
H29A C14A 1_555 1_555
O2A C13A 1_555 1_555
O4A C16A 1_555 1_555
C15A C15 1_555 1_555
H30A C15A 1_555 1_555
C16A C15A 1_555 1_555
O5A C16A 1_555 1_555
H31A O5A 1_555 1_555
C9 C10 1_555 1_555

#END
