
#######################################################################
#
#                 Cambridge Crystallographic Data Centre
#                                CCDC 
#
#######################################################################
#
# If this CIF has been generated from an entry in the Cambridge 
# Structural Database, then it will include bibliographic, chemical, 
# crystal, experimental, refinement or atomic coordinate data resulting 
# from the CCDC's data processing and validation procedures.
#
#######################################################################

data_TUDRAN
_chemical_formula_moiety         'C23 H23 N1 O1'
_chemical_name_systematic        N,N-dibenzyl-3-phenylpropanamide
_symmetry_cell_setting           orthorhombic
_symmetry_space_group_name_H-M   'P c a 21'
_symmetry_Int_Tables_number      29
_space_group_name_Hall           'P 2c -2ac'
loop_
_symmetry_equiv_pos_site_id
_symmetry_equiv_pos_as_xyz
1 x,y,z
2 -x,-y,1/2+z
3 1/2-x,y,1/2+z
4 1/2+x,-y,z
_cell_length_a                   18.1935(12)
_cell_length_b                   10.8968(9)
_cell_length_c                   9.4760(7)
_cell_angle_alpha                90
_cell_angle_beta                 90
_cell_angle_gamma                90
_cell_volume                     1878.63
_exptl_crystal_colour            'light colorless'
_exptl_crystal_description       block
_cell_formula_units_Z            4
loop_
_atom_site_label
_atom_site_type_symbol
_atom_site_fract_x
_atom_site_fract_y
_atom_site_fract_z
O1 O -0.74427(19) -0.0553(3) -0.6032(4)
N1 N -0.68705(19) 0.0812(3) -0.4596(4)
C1 C -0.6587(4) -0.3870(6) -0.2597(7)
H1 H -0.6925 -0.3394 -0.2105
C2 C -0.4323(3) 0.1352(7) -0.3082(8)
H2 H -0.3974 0.1325 -0.2365
C3 C -0.6216(5) -0.4800(8) -0.1905(9)
H3 H -0.6298 -0.4932 -0.0949
C4 C -0.5725(5) -0.5532(7) -0.2623(12)
H4 H -0.5477 -0.6161 -0.2162
C5 C -0.5613(4) -0.5321(6) -0.3990(10)
H5 H -0.5292 -0.5821 -0.4493
C6 C -0.5965(3) -0.4371(5) -0.4670(7)
H6 H -0.5860 -0.4220 -0.5615
C7 C -0.6464(3) -0.3645(4) -0.3990(5)
C8 C -0.6869(3) -0.2643(4) -0.4748(6)
H7 H -0.7394 -0.2764 -0.4625
H8 H -0.6763 -0.2695 -0.5749
C9 C -0.6661(2) -0.1367(4) -0.4215(5)
H9 H -0.6797 -0.1302 -0.3228
H10 H -0.6132 -0.1272 -0.4278
C10 C -0.7024(2) -0.0342(5) -0.5023(5)
C11 C -0.6387(2) 0.1101(4) -0.3419(5)
H11 H -0.6443 0.0472 -0.2703
H12 H -0.6541 0.1874 -0.3008
C12 C -0.5576(2) 0.1195(4) -0.3813(5)
C13 C -0.4601(3) 0.1476(6) -0.5474(7)
H13 H -0.4450 0.1549 -0.6408
C14 C -0.5347(3) 0.1325(5) -0.5173(6)
H14 H -0.5688 0.1313 -0.5903
C15 C -0.4101(3) 0.1517(5) -0.4441(9)
H15 H -0.3608 0.1656 -0.4648
C16 C -0.5064(3) 0.1223(5) -0.2753(6)
H16 H -0.5211 0.1155 -0.1816
C17 C -0.7189(2) 0.1868(4) -0.5354(5)
H17 H -0.7343 0.1606 -0.6286
H18 H -0.6815 0.2494 -0.5470
C18 C -0.7839(2) 0.2414(4) -0.4588(5)
C19 C -0.7790(3) 0.3557(5) -0.3963(6)
H19 H -0.7357 0.4006 -0.4039
C20 C -0.9032(4) 0.3410(8) -0.3181(7)
H20 H -0.9438 0.3755 -0.2734
C21 C -0.8377(5) 0.4036(6) -0.3227(7)
H21 H -0.8330 0.4783 -0.2762
C22 C -0.9084(3) 0.2284(8) -0.3790(6)
H22 H -0.9524 0.1852 -0.3734
C23 C -0.8493(2) 0.1774(5) -0.4493(5)
H23 H -0.8535 0.1001 -0.4902
loop_
_geom_bond_atom_site_label_1
_geom_bond_atom_site_label_2
_geom_bond_site_symmetry_1
_geom_bond_site_symmetry_2
O1 C10 1_555 1_555
N1 C10 1_555 1_555
C1 H1 1_555 1_555
C2 H2 1_555 1_555
C3 C1 1_555 1_555
H3 C3 1_555 1_555
C4 C3 1_555 1_555
H4 C4 1_555 1_555
C5 C4 1_555 1_555
H5 C5 1_555 1_555
C6 C5 1_555 1_555
H6 C6 1_555 1_555
C7 C1 1_555 1_555
C8 C7 1_555 1_555
H7 C8 1_555 1_555
H8 C8 1_555 1_555
C9 C8 1_555 1_555
H9 C9 1_555 1_555
H10 C9 1_555 1_555
C10 C9 1_555 1_555
C11 N1 1_555 1_555
H11 C11 1_555 1_555
H12 C11 1_555 1_555
C12 C11 1_555 1_555
C13 H13 1_555 1_555
C14 C12 1_555 1_555
H14 C14 1_555 1_555
C15 C2 1_555 1_555
H15 C15 1_555 1_555
C16 C2 1_555 1_555
H16 C16 1_555 1_555
C17 N1 1_555 1_555
H17 C17 1_555 1_555
H18 C17 1_555 1_555
C18 C17 1_555 1_555
C19 C18 1_555 1_555
H19 C19 1_555 1_555
C20 H20 1_555 1_555
C21 C19 1_555 1_555
H21 C21 1_555 1_555
C22 C20 1_555 1_555
H22 C22 1_555 1_555
C23 C18 1_555 1_555
H23 C23 1_555 1_555
C6 C7 1_555 1_555
C12 C16 1_555 1_555
C13 C14 1_555 1_555
C13 C15 1_555 1_555
C20 C21 1_555 1_555
C22 C23 1_555 1_555

#END
