
#######################################################################
#
#                 Cambridge Crystallographic Data Centre
#                                CCDC 
#
#######################################################################
#
# If this CIF has been generated from an entry in the Cambridge 
# Structural Database, then it will include bibliographic, chemical, 
# crystal, experimental, refinement or atomic coordinate data resulting 
# from the CCDC's data processing and validation procedures.
#
#######################################################################

data_TUDTES
_chemical_name_common            
'1-(2-hydroxyethyl)-3,7,9-trimethylxanthinium iodide'
_chemical_formula_moiety         'C10 H15 N4 O3 1+,I1 1-'
_chemical_name_systematic        
'1-(2-Hydroxyethyl)-3,7,9-trimethyl-2,6-dioxo-2,3,6,9-tetrahydro-1H-purin-7-ium iodide'
_symmetry_cell_setting           monoclinic
_symmetry_space_group_name_H-M   'P 21/c'
_symmetry_Int_Tables_number      14
_space_group_name_Hall           '-P 2ybc'
loop_
_symmetry_equiv_pos_site_id
_symmetry_equiv_pos_as_xyz
1 x,y,z
2 -x,1/2+y,1/2-z
3 -x,-y,-z
4 x,1/2-y,1/2+z
_cell_length_a                   15.0967(18)
_cell_length_b                   10.4071(13)
_cell_length_c                   8.7080(10)
_cell_angle_alpha                90
_cell_angle_beta                 104.119(2)
_cell_angle_gamma                90
_cell_volume                     1326.81
_exptl_crystal_colour            colorless
_exptl_crystal_description       block
_chemical_melting_point          '175-176 deg.C'
_cell_formula_units_Z            4
loop_
_atom_site_label
_atom_site_type_symbol
_atom_site_fract_x
_atom_site_fract_y
_atom_site_fract_z
I1 I 0.355568(17) 0.88414(3) 0.20022(3)
O1 O 0.2633(2) 0.2539(3) 0.7505(3)
O2 O 0.1341(2) 0.5427(3) 0.4931(3)
H1 H 0.1835 0.5672 0.5533
O3 O 0.04993(18) 0.5430(3) 0.8266(3)
N1 N 0.1812(2) 0.6036(3) 1.1405(4)
N2 N 0.3181(2) 0.5195(3) 1.2037(4)
N3 N 0.3030(2) 0.3799(3) 0.9686(4)
N4 N 0.1575(2) 0.3980(3) 0.7871(4)
C1 C 0.2589(3) 0.6004(4) 1.2489(5)
H2 H 0.2717 0.6480 1.3449
C2 C 0.2744(3) 0.4699(4) 1.0587(4)
C3 C 0.2429(3) 0.3385(4) 0.8319(5)
C4 C 0.1248(3) 0.4936(4) 0.8729(5)
C5 C 0.1894(3) 0.5224(4) 1.0182(5)
C6 C 0.1024(3) 0.6810(4) 1.1492(5)
H3 H 0.1156 0.7282 1.2496
H4 H 0.0495 0.6249 1.1431
H5 H 0.0889 0.7420 1.0609
C7 C 0.4120(3) 0.5056(5) 1.2970(5)
H6 H 0.4537 0.5442 1.2396
H7 H 0.4264 0.4142 1.3150
H8 H 0.4189 0.5492 1.3990
C8 C 0.3946(3) 0.3244(5) 1.0040(5)
H9 H 0.4382 0.3857 1.0663
H10 H 0.4117 0.3054 0.9049
H11 H 0.3953 0.2450 1.0647
C9 C 0.0975(3) 0.3579(4) 0.6339(5)
H12 H 0.0349 0.3902 0.6267
H13 H 0.0947 0.2629 0.6297
C10 C 0.1297(3) 0.4065(4) 0.4948(5)
H14 H 0.1910 0.3708 0.4988
H15 H 0.0875 0.3763 0.3958
loop_
_geom_bond_atom_site_label_1
_geom_bond_atom_site_label_2
_geom_bond_site_symmetry_1
_geom_bond_site_symmetry_2
O1 C3 1_555 1_555
O2 H1 1_555 1_555
O3 C4 1_555 1_555
N1 C1 1_555 1_555
N2 C1 1_555 1_555
N3 C2 1_555 1_555
N4 C3 1_555 1_555
C1 H2 1_555 1_555
C2 N2 1_555 1_555
C3 N3 1_555 1_555
C4 N4 1_555 1_555
C5 N1 1_555 1_555
C6 N1 1_555 1_555
H3 C6 1_555 1_555
H4 C6 1_555 1_555
H5 C6 1_555 1_555
C7 N2 1_555 1_555
H6 C7 1_555 1_555
H7 C7 1_555 1_555
H8 C7 1_555 1_555
C8 N3 1_555 1_555
H9 C8 1_555 1_555
H10 C8 1_555 1_555
H11 C8 1_555 1_555
C9 N4 1_555 1_555
H12 C9 1_555 1_555
H13 C9 1_555 1_555
C10 O2 1_555 1_555
H14 C10 1_555 1_555
H15 C10 1_555 1_555
C2 C5 1_555 1_555
C4 C5 1_555 1_555
C9 C10 1_555 1_555

#END
