
#######################################################################
#
#                 Cambridge Crystallographic Data Centre
#                                CCDC 
#
#######################################################################
#
# If this CIF has been generated from an entry in the Cambridge 
# Structural Database, then it will include bibliographic, chemical, 
# crystal, experimental, refinement or atomic coordinate data resulting 
# from the CCDC's data processing and validation procedures.
#
#######################################################################

data_TUFCII
_chemical_formula_moiety         'C22 H20 N2 O4,C6 H6'
_chemical_name_systematic        
"4,4'-(1,4-phenylenebis(nitrilomethylylidene))bis(2-methoxyphenol) benzene solvate"
_symmetry_cell_setting           monoclinic
_symmetry_space_group_name_H-M   'P 21/n'
_symmetry_Int_Tables_number      14
_space_group_name_Hall           '-P 2yn'
loop_
_symmetry_equiv_pos_site_id
_symmetry_equiv_pos_as_xyz
1 x,y,z
2 1/2-x,1/2+y,1/2-z
3 -x,-y,-z
4 1/2+x,1/2-y,1/2+z
_cell_length_a                   5.9038(4)
_cell_length_b                   10.7455(8)
_cell_length_c                   19.4895(11)
_cell_angle_alpha                90
_cell_angle_beta                 90.263(2)
_cell_angle_gamma                90
_cell_volume                     1236.39
_cell_formula_units_Z            2
loop_
_atom_site_label
_atom_site_type_symbol
_atom_site_fract_x
_atom_site_fract_y
_atom_site_fract_z
O1 O 0.98302(15) 0.38347(8) 0.17400(4)
O2 O 0.69333(17) 0.57606(9) 0.17414(5)
N1 N 0.92501(16) 0.82976(9) 0.39222(5)
C1 C 1.00558(19) 0.47429(11) 0.22198(5)
C2 C 1.1820(2) 0.46792(12) 0.26862(6)
H1 H 1.290(2) 0.3996(14) 0.2660(7)
C3 C 1.2061(2) 0.55842(12) 0.31913(6)
H2 H 1.335(2) 0.5556(14) 0.3524(7)
C4 C 1.05146(19) 0.65605(11) 0.32380(6)
C5 C 0.8756(2) 0.66417(12) 0.27543(6)
H3 H 0.767(2) 0.7295(14) 0.2771(7)
C6 C 0.8545(2) 0.57555(11) 0.22470(6)
C7 C 1.0738(2) 0.74619(11) 0.37922(6)
H4 H 1.215(2) 0.7353(12) 0.4073(7)
C8 C 0.96845(19) 0.91411(10) 0.44686(5)
C9 C 1.17743(19) 0.97167(12) 0.45630(6)
H5 H 1.296(2) 0.9545(14) 0.4255(7)
C10 C 0.7908(2) 0.94442(12) 0.49044(6)
H6 H 0.646(2) 0.9052(13) 0.4844(7)
C11 C 0.5473(3) 0.68213(15) 0.17094(9)
H7 H 0.448(3) 0.6681(16) 0.1328(10)
H8 H 0.641(3) 0.7595(18) 0.1667(9)
H9 H 0.460(3) 0.6868(19) 0.2159(12)
H10 H 0.842(4) 0.3859(19) 0.1542(10)
O1B O 1.01698(15) 1.61653(8) 0.82600(4)
O2B O 1.30667(17) 1.42394(9) 0.82586(5)
N1B N 1.07499(16) 1.17024(9) 0.60778(5)
C1B C 0.99442(19) 1.52571(11) 0.77802(5)
C2B C 0.8180(2) 1.53208(12) 0.73138(6)
H1B H 0.710(2) 1.6004(14) 0.7340(7)
C3B C 0.7939(2) 1.44158(12) 0.68087(6)
H2B H 0.665(2) 1.4444(14) 0.6476(7)
C4B C 0.94854(19) 1.34395(11) 0.67620(6)
C5B C 1.1244(2) 1.33583(12) 0.72457(6)
H3B H 1.233(2) 1.2705(14) 0.7229(7)
C6B C 1.1455(2) 1.42445(11) 0.77530(6)
C7B C 0.9262(2) 1.25381(11) 0.62078(6)
H4B H 0.785(2) 1.2647(12) 0.5927(7)
C8B C 1.03155(19) 1.08589(10) 0.55314(5)
C9B C 0.82257(19) 1.02833(12) 0.54370(6)
H5B H 0.704(2) 1.0455(14) 0.5745(7)
C10B C 1.2092(2) 1.05558(12) 0.50956(6)
H6B H 1.354(2) 1.0948(13) 0.5156(7)
C11B C 1.4527(3) 1.31787(15) 0.82906(9)
H7B H 1.552(3) 1.3319(16) 0.8672(10)
H8B H 1.359(3) 1.2405(18) 0.8333(9)
H9B H 1.540(3) 1.3132(19) 0.7841(12)
H10B H 1.158(4) 1.6141(19) 0.8458(10)
C12 C 0.4681(4) 0.6122(3) 0.53331(15)
H11 H 0.445(5) 0.693(3) 0.5601(17)
C13 C 0.6592(4) 0.5910(3) 0.49552(17)
H12 H 0.791(5) 0.651(3) 0.4900(16)
C14 C 0.6912(4) 0.4813(4) 0.46258(16)
H13 H 0.813(5) 0.464(3) 0.4363(14)
C12B C 0.5319(4) 0.3878(3) 0.46669(15)
H11B H 0.555(5) 0.307(3) 0.4399(17)
C13B C 0.3408(4) 0.4090(3) 0.50448(17)
H12B H 0.209(5) 0.349(3) 0.5100(16)
C14B C 0.3088(4) 0.5187(4) 0.53742(16)
H13B H 0.187(5) 0.536(3) 0.5637(14)
loop_
_geom_bond_atom_site_label_1
_geom_bond_atom_site_label_2
_geom_bond_site_symmetry_1
_geom_bond_site_symmetry_2
O1 C1 1_555 1_555
O2 C6 1_555 1_555
N1 C7 1_555 1_555
C1 C2 1_555 1_555
C2 H1 1_555 1_555
C3 C2 1_555 1_555
H2 C3 1_555 1_555
C4 C3 1_555 1_555
C5 C4 1_555 1_555
H3 C5 1_555 1_555
C6 C1 1_555 1_555
C7 C4 1_555 1_555
H4 C7 1_555 1_555
C8 N1 1_555 1_555
C9 C8 1_555 1_555
H5 C9 1_555 1_555
C10 C8 1_555 1_555
H6 C10 1_555 1_555
C11 O2 1_555 1_555
H7 C11 1_555 1_555
H8 C11 1_555 1_555
H9 C11 1_555 1_555
H10 O1 1_555 1_555
C12 H11 1_555 1_555
C13 C12 1_555 1_555
H12 C13 1_555 1_555
C14 C13 1_555 1_555
H13 C14 1_555 1_555
O1B C1B 1_555 1_555
O2B C6B 1_555 1_555
N1B C7B 1_555 1_555
C1B C2B 1_555 1_555
C2B H1B 1_555 1_555
C3B C2B 1_555 1_555
H2B C3B 1_555 1_555
C4B C3B 1_555 1_555
C5B C4B 1_555 1_555
H3B C5B 1_555 1_555
C6B C1B 1_555 1_555
C7B C4B 1_555 1_555
H4B C7B 1_555 1_555
C8B N1B 1_555 1_555
C9B C10 1_555 1_555
H5B C9B 1_555 1_555
C10B C9 1_555 1_555
H6B C10B 1_555 1_555
C11B O2B 1_555 1_555
H7B C11B 1_555 1_555
H8B C11B 1_555 1_555
H9B C11B 1_555 1_555
H10B O1B 1_555 1_555
C12B C14 1_555 1_555
H11B C12B 1_555 1_555
C13B C12B 1_555 1_555
H12B C13B 1_555 1_555
C14B C12 1_555 1_555
H13B C14B 1_555 1_555
C5 C6 1_555 1_555
C5B C6B 1_555 1_555
C8B C9B 1_555 1_555
C8B C10B 1_555 1_555
C13B C14B 1_555 1_555

#END
