
#######################################################################
#
#                 Cambridge Crystallographic Data Centre
#                                CCDC 
#
#######################################################################
#
# If this CIF has been generated from an entry in the Cambridge 
# Structural Database, then it will include bibliographic, chemical, 
# crystal, experimental, refinement or atomic coordinate data resulting 
# from the CCDC's data processing and validation procedures.
#
#######################################################################

data_TUFCIG
_chemical_formula_moiety         'C12 H12 N2 O2'
_chemical_name_systematic        
4,5,4',5'-Tetrahydro-2,2'-(1,4-phenylene)-bis(oxazoline)
_symmetry_cell_setting           triclinic
_symmetry_space_group_name_H-M   'P -1'
_symmetry_Int_Tables_number      2
_space_group_name_Hall           '-P 1'
loop_
_symmetry_equiv_pos_site_id
_symmetry_equiv_pos_as_xyz
1 x,y,z
2 -x,-y,-z
_cell_length_a                   5.674(1)
_cell_length_b                   6.646(1)
_cell_length_c                   7.503(2)
_cell_angle_alpha                109.78
_cell_angle_beta                 97.91
_cell_angle_gamma                107.39
_cell_volume                     244.926
_exptl_crystal_colour            white
_chemical_melting_point          '514-514.5 K'
_cell_formula_units_Z            1
loop_
_atom_site_label
_atom_site_type_symbol
_atom_site_fract_x
_atom_site_fract_y
_atom_site_fract_z
N1 N 0.18501(28) 0.77871(22) 0.87556(18)
C1 C 0.21386(29) 0.77815(22) 0.71037(19)
O1 O 0.35979(23) 0.66751(19) 0.62342(15)
C2 C 0.45723(36) 0.57926(28) 0.75905(23)
H1 H 0.4003(32) 0.4167(30) 0.6896(24)
H2 H 0.6420(40) 0.6633(32) 0.8018(26)
C3 C 0.33376(33) 0.64982(26) 0.92817(21)
H3 H 0.2170(32) 0.5194(28) 0.9412(23)
H4 H 0.4652(35) 0.7512(31) 1.0566(27)
C4 C 0.10367(29) 0.89205(22) 0.60182(19)
C5 C -0.04130(31) 1.01707(24) 0.68267(20)
H5 H -0.0708(33) 1.0292(29) 0.8050(27)
C6 C 0.14527(31) 0.87564(23) 0.41823(20)
H6 H 0.2431(34) 0.7878(30) 0.3607(26)
C6A C -0.14527(31) 1.12436(23) 0.58177(20)
C4A C -0.10367(29) 1.10795(22) 0.39818(19)
C1A C -0.21386(29) 1.22185(22) 0.28963(19)
N1A N -0.18501(28) 1.22129(22) 0.12444(18)
C3A C -0.33376(33) 1.35018(26) 0.07183(21)
C2A C -0.45723(36) 1.42074(28) 0.24095(23)
O1A O -0.35979(23) 1.33249(19) 0.37658(15)
H1A H -0.4003(32) 1.5833(30) 0.3104(24)
H2A H -0.6420(40) 1.3367(32) 0.1982(26)
H3A H -0.2170(32) 1.4806(28) 0.0588(23)
H4A H -0.4652(35) 1.2488(31) -0.0566(27)
C5A C 0.04130(31) 0.98293(24) 0.31733(20)
H5A H 0.0708(33) 0.9708(29) 0.1950(27)
H6A H -0.2431(34) 1.2122(30) 0.6393(26)
loop_
_geom_bond_atom_site_label_1
_geom_bond_atom_site_label_2
_geom_bond_site_symmetry_1
_geom_bond_site_symmetry_2
N1 C1 1_555 1_555
C1 O1 1_555 1_555
O1 C2 1_555 1_555
C2 H1 1_555 1_555
H2 C2 1_555 1_555
C3 N1 1_555 1_555
H3 C3 1_555 1_555
H4 C3 1_555 1_555
C4 C1 1_555 1_555
C5 C4 1_555 1_555
H5 C5 1_555 1_555
C6 C4 1_555 1_555
H6 C6 1_555 1_555
C6A C5 1_555 1_555
C4A C6A 1_555 1_555
C1A C4A 1_555 1_555
N1A C1A 1_555 1_555
C3A N1A 1_555 1_555
C2A C3A 1_555 1_555
O1A C1A 1_555 1_555
H1A C2A 1_555 1_555
H2A C2A 1_555 1_555
H3A C3A 1_555 1_555
H4A C3A 1_555 1_555
C5A C6 1_555 1_555
H5A C5A 1_555 1_555
H6A C6A 1_555 1_555
C2 C3 1_555 1_555
C4A C5A 1_555 1_555
C2A O1A 1_555 1_555

#END
