
#######################################################################
#
#                 Cambridge Crystallographic Data Centre
#                                CCDC 
#
#######################################################################
#
# If this CIF has been generated from an entry in the Cambridge 
# Structural Database, then it will include bibliographic, chemical, 
# crystal, experimental, refinement or atomic coordinate data resulting 
# from the CCDC's data processing and validation procedures.
#
#######################################################################

data_TUFMIS
_chemical_formula_moiety         'C59 H85 Na1 O7,1.44(C7 H8)'
_chemical_name_systematic        
'(2,4-di-t-butyl-6-(2,4,5,7-tetra-t-butyl-9-phenyl-9H-xanthen-9-yl)phenolato)-(15-crown-5)-sodium toluene solvate'
_symmetry_cell_setting           monoclinic
_symmetry_space_group_name_H-M   'P 21/c'
_symmetry_Int_Tables_number      14
_space_group_name_Hall           '-P 2ybc'
loop_
_symmetry_equiv_pos_site_id
_symmetry_equiv_pos_as_xyz
1 x,y,z
2 -x,1/2+y,1/2-z
3 -x,-y,-z
4 x,1/2-y,1/2+z
_cell_length_a                   22.2485(7)
_cell_length_b                   30.3361(10)
_cell_length_c                   19.2625(5)
_cell_angle_alpha                90
_cell_angle_beta                 96.560(3)
_cell_angle_gamma                90
_cell_volume                     12915.8
_exptl_crystal_colour            colorless
_exptl_crystal_description       plate
_cell_formula_units_Z            8
loop_
_atom_site_label
_atom_site_type_symbol
_atom_site_fract_x
_atom_site_fract_y
_atom_site_fract_z
Na1 Na 0.31342(4) 0.24685(3) 0.17826(5)
O1 O 0.27372(7) 0.28397(5) 0.08142(8)
O2 O 0.35596(7) 0.42332(4) 0.10482(7)
O3 O 0.28297(11) 0.20607(9) 0.28013(14)
O4 O 0.32849(13) 0.16030(7) 0.17636(15)
O5 O 0.41617(8) 0.22304(6) 0.16317(10)
O6 O 0.39409(8) 0.29836(5) 0.23452(8)
O7 O 0.28002(9) 0.29442(8) 0.27393(10)
C1 C 0.23318(9) 0.29203(7) 0.02910(11)
C2 C 0.18732(10) 0.26023(7) 0.00317(12)
C3 C 0.14123(10) 0.27243(8) -0.04784(12)
H1 H 0.1119 0.2515 -0.0626
C4 C 0.13619(10) 0.31436(8) -0.07840(12)
C5 C 0.18197(9) 0.34391(7) -0.05643(10)
H2 H 0.1807 0.3717 -0.0768
C6 C 0.22972(9) 0.33414(6) -0.00549(10)
C7 C 0.18785(12) 0.21412(8) 0.03584(14)
C8 C 0.24833(14) 0.19130(8) 0.03019(17)
H3 H 0.2527 0.1859 -0.0181
H4 H 0.2495 0.1638 0.0550
H5 H 0.2807 0.2099 0.0502
C9 C 0.17516(14) 0.21842(10) 0.11261(16)
H6 H 0.2014 0.2404 0.1356
H7 H 0.1824 0.1906 0.1358
H8 H 0.1338 0.2269 0.1141
C10 C 0.13764(16) 0.18409(10) -0.0005(2)
H9 H 0.0988 0.1966 0.0046
H10 H 0.1406 0.1554 0.0205
H11 H 0.1424 0.1817 -0.0493
C11 C 0.08096(11) 0.32642(9) -0.12946(15)
C12 C 0.08466(16) 0.37258(12) -0.1584(2)
H12 H 0.0873 0.3935 -0.1207
H13 H 0.0491 0.3785 -0.1902
H14 H 0.1199 0.3750 -0.1827
C13 C 0.02374(14) 0.32239(12) -0.0915(2)
H15 H 0.0202 0.2927 -0.0752
H16 H -0.0113 0.3297 -0.1232
H17 H 0.0268 0.3423 -0.0524
C14 C 0.07305(15) 0.29383(12) -0.19176(16)
H18 H 0.1057 0.2976 -0.2198
H19 H 0.0353 0.2996 -0.2197
H20 H 0.0732 0.2642 -0.1744
C15 C 0.27279(9) 0.37121(6) 0.02272(10)
C16 C 0.26018(9) 0.38558(6) 0.09564(10)
C17 C 0.29976(9) 0.41580(7) 0.12949(10)
C18 C 0.28259(10) 0.44091(7) 0.18568(11)
C19 C 0.22835(11) 0.42849(9) 0.21045(11)
H21 H 0.2164 0.4438 0.2484
C20 C 0.19085(11) 0.39449(9) 0.18174(12)
C21 C 0.20693(10) 0.37437(7) 0.12255(11)
H22 H 0.1818 0.3530 0.1003
C22 C 0.31749(12) 0.48151(8) 0.21610(13)
C23 C 0.38071(12) 0.46867(9) 0.24939(14)
H23 H 0.3774 0.4479 0.2864
H24 H 0.4017 0.4945 0.2680
H25 H 0.4028 0.4555 0.2147
C24 C 0.32169(15) 0.51532(9) 0.15663(16)
H26 H 0.3387 0.5013 0.1187
H27 H 0.3470 0.5395 0.1738
H28 H 0.2820 0.5261 0.1405
C25 C 0.28531(14) 0.50486(11) 0.27242(17)
H29 H 0.2460 0.5145 0.2524
H30 H 0.3088 0.5299 0.2899
H31 H 0.2811 0.4848 0.3100
C26 C 0.13281(13) 0.38216(11) 0.21307(15)
C27 C 0.14783(18) 0.3680(2) 0.2876(2)
H32 H 0.1747 0.3431 0.2896
H33 H 0.1113 0.3599 0.3067
H34 H 0.1671 0.3918 0.3143
C28 C 0.0992(3) 0.3444(2) 0.1730(4)
H35 H 0.0942 0.3511 0.1240
H36 H 0.0601 0.3407 0.1890
H37 H 0.1220 0.3177 0.1809
C29 C 0.09038(17) 0.42169(19) 0.2086(3)
H38 H 0.1109 0.4465 0.2314
H39 H 0.0552 0.4148 0.2311
H40 H 0.0783 0.4287 0.1604
C30 C 0.33997(9) 0.36041(6) 0.02809(10)
C31 C 0.37945(9) 0.39024(6) 0.06513(10)
C32 C 0.44236(9) 0.38828(7) 0.06030(10)
C33 C 0.46241(9) 0.35149(7) 0.02518(10)
H41 H 0.5038 0.3487 0.0230
C34 C 0.42475(10) 0.31896(7) -0.00662(11)
C35 C 0.36275(9) 0.32515(7) -0.00661(10)
H42 H 0.3360 0.3052 -0.0304
C36 C 0.48824(10) 0.42327(7) 0.08983(11)
C37 C 0.46324(12) 0.46994(8) 0.07544(14)
H43 H 0.4482 0.4726 0.0269
H44 H 0.4949 0.4911 0.0870
H45 H 0.4310 0.4753 0.1034
C38 C 0.50520(11) 0.41583(8) 0.16853(12)
H46 H 0.4690 0.4127 0.1909
H47 H 0.5280 0.4406 0.1882
H48 H 0.5292 0.3896 0.1757
C39 C 0.54797(11) 0.42092(10) 0.05591(14)
H49 H 0.5676 0.3932 0.0673
H50 H 0.5741 0.4446 0.0733
H51 H 0.5393 0.4235 0.0061
C40 C 0.44826(10) 0.27809(8) -0.04251(12)
C41 C 0.51699(11) 0.27284(10) -0.02756(15)
H52 H 0.5366 0.2969 -0.0483
H53 H 0.5290 0.2455 -0.0471
H54 H 0.5285 0.2728 0.0220
C42 C 0.43177(12) 0.28187(9) -0.12172(13)
H55 H 0.3888 0.2857 -0.1320
H56 H 0.4440 0.2555 -0.1439
H57 H 0.4522 0.3068 -0.1389
C43 C 0.41874(12) 0.23647(8) -0.01634(13)
H58 H 0.4299 0.2334 0.0330
H59 H 0.4323 0.2111 -0.0400
H60 H 0.3755 0.2389 -0.0256
C44 C 0.2700(2) 0.16077(16) 0.2710(3)
H61 H 0.2336 0.1567 0.2390
H62 H 0.2641 0.1473 0.3154
C45 C 0.3222(2) 0.14073(11) 0.2424(2)
H63 H 0.3587 0.1455 0.2742
H64 H 0.3161 0.1092 0.2370
C46 C 0.3816(2) 0.14991(10) 0.1475(2)
H65 H 0.3746 0.1532 0.0972
H66 H 0.3918 0.1193 0.1575
C47 C 0.43501(16) 0.17892(10) 0.17577(19)
H67 H 0.4454 0.1739 0.2254
H68 H 0.4701 0.1724 0.1519
C48 C 0.46281(12) 0.25422(9) 0.18294(14)
H69 H 0.4931 0.2533 0.1505
H70 H 0.4823 0.2477 0.2294
C49 C 0.43363(12) 0.29855(8) 0.18167(13)
H71 H 0.4640 0.3214 0.1908
H72 H 0.4111 0.3040 0.1363
C50 C 0.35660(13) 0.33642(8) 0.23214(15)
H73 H 0.3318 0.3382 0.1874
H74 H 0.3812 0.3628 0.2384
C51 C 0.31798(15) 0.33220(12) 0.28930(17)
H75 H 0.3428 0.3283 0.3337
H76 H 0.2935 0.3585 0.2920
C52 C 0.26282(17) 0.27394(17) 0.33383(18)
H77 H 0.2327 0.2916 0.3537
H78 H 0.2976 0.2706 0.3687
C53 C 0.23780(16) 0.23080(18) 0.3130(2)
H79 H 0.2272 0.2150 0.3537
H80 H 0.2015 0.2343 0.2805
C54 C 0.26336(9) 0.41301(6) -0.02432(10)
C55 C 0.22286(11) 0.44585(8) -0.01034(11)
H81 H 0.2019 0.4432 0.0285
C56 C 0.21318(13) 0.48245(8) -0.05337(13)
H82 H 0.1862 0.5042 -0.0427
C57 C 0.24321(13) 0.48691(8) -0.11200(12)
H83 H 0.2364 0.5112 -0.1412
C58 C 0.28347(12) 0.45450(8) -0.12622(12)
H84 H 0.3039 0.4570 -0.1656
C59 C 0.29410(10) 0.41809(7) -0.08261(11)
H85 H 0.3221 0.3969 -0.0926
Na2 Na 0.16717(4) 0.57421(3) 0.73094(4)
O8 O 0.17476(6) 0.61039(5) 0.62874(7)
O9 O 0.34677(7) 0.56819(5) 0.53459(7)
O10 O 0.26371(8) 0.60157(6) 0.79337(9)
O11 O 0.16787(9) 0.58840(6) 0.86285(9)
O12 O 0.06899(8) 0.55196(6) 0.78720(10)
O13 O 0.13489(9) 0.49703(6) 0.71043(10)
O14 O 0.25421(8) 0.52154(6) 0.72802(8)
C60 C 0.15507(9) 0.63916(6) 0.58197(10)
C61 C 0.10139(9) 0.66527(7) 0.58600(11)
C62 C 0.08090(10) 0.69404(8) 0.53242(13)
H86 H 0.0458 0.7100 0.5366
C63 C 0.10977(12) 0.70050(9) 0.47267(13)
C64 C 0.16299(11) 0.67679(8) 0.46959(12)
H87 H 0.1842 0.6808 0.4312
C65 C 0.18595(9) 0.64721(7) 0.52152(11)
C66 C 0.06599(10) 0.65952(8) 0.64930(12)
C67 C 0.04000(11) 0.61242(9) 0.64785(14)
H88 H 0.0101 0.6092 0.6081
H89 H 0.0217 0.6072 0.6899
H90 H 0.0720 0.5916 0.6446
C68 C 0.10703(12) 0.66889(8) 0.71695(12)
H91 H 0.1444 0.6531 0.7165
H92 H 0.0873 0.6595 0.7562
H93 H 0.1152 0.6999 0.7205
C69 C 0.01250(13) 0.69137(10) 0.64853(15)
H94 H 0.0270 0.7212 0.6480
H95 H -0.0075 0.6868 0.6895
H96 H -0.0154 0.6861 0.6076
C70 C 0.08220(16) 0.73081(12) 0.41334(18)
C71 C 0.0192(2) 0.7172(2) 0.3886(3)
H97 H 0.0197 0.6889 0.3662
H98 H 0.0010 0.7385 0.3560
H99 H -0.0038 0.7152 0.4278
C72 C 0.0784(3) 0.77851(16) 0.4417(3)
H100 H 0.0569 0.7784 0.4822
H101 H 0.0575 0.7969 0.4063
H102 H 0.1186 0.7897 0.4542
C73 C 0.1220(3) 0.7332(3) 0.3551(3)
H103 H 0.1611 0.7444 0.3730
H104 H 0.1039 0.7525 0.3190
H105 H 0.1264 0.7043 0.3361
C74 C 0.24538(10) 0.62233(7) 0.51451(11)
C75 C 0.29505(9) 0.63201(7) 0.57296(11)
C76 C 0.34774(9) 0.60696(7) 0.57413(11)
C77 C 0.40231(10) 0.62141(7) 0.61063(11)
C78 C 0.39815(10) 0.65707(7) 0.65562(12)
H106 H 0.4334 0.6670 0.6816
C79 C 0.34412(11) 0.67872(7) 0.66388(13)
C80 C 0.29333(10) 0.66688(7) 0.61958(12)
H107 H 0.2575 0.6825 0.6210
C81 C 0.46486(10) 0.60289(8) 0.59930(11)
C82 C 0.47232(10) 0.60664(9) 0.52059(12)
H108 H 0.4388 0.5926 0.4936
H109 H 0.5093 0.5925 0.5116
H110 H 0.4736 0.6372 0.5077
C83 C 0.47076(11) 0.55504(8) 0.62364(12)
H111 H 0.4604 0.5528 0.6705
H112 H 0.5117 0.5453 0.6224
H113 H 0.4439 0.5369 0.5933
C84 C 0.51661(10) 0.62905(9) 0.63899(13)
H114 H 0.5129 0.6596 0.6261
H115 H 0.5546 0.6179 0.6274
H116 H 0.5149 0.6261 0.6883
C85 C 0.34453(11) 0.71594(8) 0.71808(16)
C86 C 0.27953(13) 0.72842(11) 0.7308(2)
H117 H 0.2591 0.7415 0.6892
H118 H 0.2808 0.7491 0.7686
H119 H 0.2582 0.7024 0.7424
C87 C 0.37783(14) 0.70156(10) 0.78811(15)
H120 H 0.3589 0.6756 0.8042
H121 H 0.3762 0.7248 0.8217
H122 H 0.4193 0.6952 0.7825
C88 C 0.37656(14) 0.75607(9) 0.69155(18)
H123 H 0.4166 0.7479 0.6823
H124 H 0.3792 0.7789 0.7264
H125 H 0.3541 0.7667 0.6494
C89 C 0.23801(10) 0.57262(7) 0.51188(10)
C90 C 0.29082(9) 0.54759(7) 0.51652(10)
C91 C 0.28873(10) 0.50226(7) 0.49998(10)
C92 C 0.23155(11) 0.48371(8) 0.48485(12)
H126 H 0.2291 0.4538 0.4744
C93 C 0.17758(11) 0.50727(8) 0.48438(13)
C94 C 0.18199(10) 0.55226(8) 0.49709(11)
H127 H 0.1469 0.5691 0.4957
C95 C 0.34495(11) 0.47262(7) 0.50004(12)
C96 C 0.33015(14) 0.42780(9) 0.46498(18)
H128 H 0.3031 0.4118 0.4911
H129 H 0.3668 0.4113 0.4637
H130 H 0.3113 0.4324 0.4182
C97 C 0.39271(11) 0.49450(8) 0.45964(12)
H131 H 0.3756 0.5000 0.4124
H132 H 0.4270 0.4753 0.4595
H133 H 0.4054 0.5219 0.4817
C98 C 0.37054(12) 0.46367(9) 0.57626(14)
H134 H 0.3741 0.4910 0.6016
H135 H 0.4097 0.4502 0.5774
H136 H 0.3438 0.4442 0.5974
C99 C 0.11602(14) 0.48466(11) 0.4686(2)
C100 C 0.26801(14) 0.61266(10) 0.86521(14)
H137 H 0.2957 0.6371 0.8751
H138 H 0.2831 0.5877 0.8935
C101 C 0.20621(14) 0.62511(9) 0.88187(14)
H139 H 0.2069 0.6314 0.9313
H140 H 0.1919 0.6511 0.8556
C102 C 0.11031(14) 0.59175(11) 0.88682(14)
H141 H 0.0897 0.6182 0.8684
H142 H 0.1144 0.5931 0.9374
C103 C 0.07539(13) 0.55153(11) 0.86134(15)
H143 H 0.0967 0.5252 0.8787
H144 H 0.0359 0.5517 0.8780
C104 C 0.04318(14) 0.51320(10) 0.75572(18)
H145 H 0.0232 0.5202 0.7097
H146 H 0.0129 0.5019 0.7836
C105 C 0.09040(15) 0.47827(9) 0.74930(18)
H147 H 0.1087 0.4693 0.7952
H148 H 0.0722 0.4526 0.7253
C106 C 0.18167(14) 0.46674(9) 0.69884(15)
H149 H 0.1666 0.4448 0.6646
H150 H 0.1962 0.4518 0.7420
C107 C 0.23172(14) 0.49284(9) 0.67274(14)
H151 H 0.2635 0.4734 0.6606
H152 H 0.2165 0.5097 0.6316
C108 C 0.29630(12) 0.55318(8) 0.70871(13)
H153 H 0.2775 0.5721 0.6718
H154 H 0.3308 0.5387 0.6923
C109 C 0.31573(12) 0.57970(9) 0.77330(15)
H155 H 0.3330 0.5605 0.8106
H156 H 0.3461 0.6011 0.7638
C110 C 0.26925(11) 0.63492(8) 0.44364(13)
C111 C 0.31244(14) 0.66746(10) 0.44028(18)
H157 H 0.3286 0.6822 0.4805
C112 C 0.33157(19) 0.67802(13) 0.3747(3)
H158 H 0.3614 0.6993 0.3722
C113 C 0.3067(2) 0.65732(13) 0.3146(2)
H159 H 0.3186 0.6653 0.2717
C114 C 0.2650(2) 0.62545(11) 0.31817(17)
H160 H 0.2488 0.6111 0.2776
C115 C 0.24608(16) 0.61382(9) 0.38212(14)
H161 H 0.2175 0.5916 0.3838
C116 C 0.0797(2) 0.49551(19) 0.5375(3)
H162 H 0.1055 0.4887 0.5795
H163 H 0.0437 0.4779 0.5352
H164 H 0.0691 0.5262 0.5374
C117 C 0.1231(3) 0.43166(19) 0.4837(4)
H165 H 0.1462 0.4186 0.4499
H166 H 0.0838 0.4183 0.4803
H167 H 0.1436 0.4270 0.5298
C118 C 0.0846(3) 0.4954(3) 0.4087(3)
H168 H 0.0753 0.5263 0.4088
H169 H 0.0477 0.4787 0.4027
H170 H 0.1080 0.4891 0.3710
C119 C 0.5486(2) 0.42086(17) 0.6688(2)
H171 H 0.5915 0.4172 0.6791
H172 H 0.5401 0.4484 0.6452
H173 H 0.5324 0.3971 0.6394
C120 C 0.52030(16) 0.42052(11) 0.73445(17)
C121 C 0.5414(2) 0.39190(13) 0.7894(2)
H174 H 0.5742 0.3736 0.7849
C122 C 0.5148(3) 0.39078(16) 0.8476(2)
H175 H 0.5297 0.3718 0.8833
C123 C 0.4629(3) 0.41859(19) 0.85695(18)
H176 H 0.4434 0.4171 0.8971
C124 C 0.4449(2) 0.44605(18) 0.8055(3)
H177 H 0.4129 0.4651 0.8100
C125 C 0.47398(15) 0.44694(11) 0.74328(16)
H178 H 0.4602 0.4665 0.7079
C126 C 0.2256(2) 0.6887(3) 0.0843(3)
C127 C 0.2451(3) 0.71694(16) 0.0363(4)
H179 H 0.2241 0.7428 0.0241
C128 C 0.2975(3) 0.70609(19) 0.0059(3)
H180 H 0.3118 0.7254 -0.0260
C129 C 0.3274(2) 0.66815(18) 0.0219(3)
H181 H 0.3616 0.6607 0.0009
C130 C 0.3069(2) 0.64191(18) 0.0682(3)
H182 H 0.3279 0.6159 0.0796
C131 C 0.2574(3) 0.6504(2) 0.0998(3)
H183 H 0.2448 0.6306 0.1319
C132 C 0.1673(5) 0.6872(9) 0.1267(9)
H184 H 0.1803 0.6876 0.1760
H185 H 0.1447 0.6608 0.1149
H186 H 0.1423 0.7124 0.1145
C133? C 0.1722(7) 0.7178(9) 0.1078(10)
H187? H 0.1826 0.7484 0.1054
H188? H 0.1659 0.7104 0.1549
H189? H 0.1358 0.7122 0.0773
C134? C 0.0625(3) 0.5212(2) 0.4487(4)
H190? H 0.0555 0.5374 0.4899
H191? H 0.0259 0.5065 0.4303
H192? H 0.0747 0.5413 0.4144
C135? C 0.1002(3) 0.4556(2) 0.5161(5)
H193? H 0.1005 0.4699 0.5606
H194? H 0.1286 0.4316 0.5203
H195? H 0.0604 0.4445 0.5015
C136? C 0.1166(4) 0.4631(4) 0.3882(5)
H196? H 0.1559 0.4672 0.3730
H197? H 0.0867 0.4775 0.3562
H198? H 0.1077 0.4321 0.3894
C137? C 0.8706(8) 0.4710(6) 0.8999(8)
H199? H 0.8602 0.4963 0.8709
H200? H 0.8403 0.4667 0.9311
H201? H 0.8725 0.4454 0.8711
C138? C 0.9966(2) 0.52250(17) 1.0177(3)
C139? C 1.0400(2) 0.4894(2) 1.0200(3)
H202? H 1.0772 0.4932 1.0467
C140? C 1.0278(2) 0.45069(17) 0.9824(3)
H203? H 1.0569 0.4286 0.9840
C141? C 0.9722(3) 0.44507(16) 0.9425(3)
H204? H 0.9641 0.4192 0.9174
C142? C 0.9288(2) 0.4782(2) 0.9402(3)
C143? C 0.9410(2) 0.51688(17) 0.9778(3)
H205? H 0.9120 0.5390 0.9762
C144? C 1.0028(9) 0.5557(6) 1.0788(9)
H206? H 1.0415 0.5521 1.1057
H207? H 0.9714 0.5505 1.1081
H208? H 0.9993 0.5852 1.0606
C145? C 0.9003(4) 0.4152(4) 0.7716(6)
H209? H 0.9158 0.4074 0.7305
C146? C 0.8811(4) 0.4582(3) 0.7810(6)
H210? H 0.8837 0.4791 0.7461
C147? C 0.8579(4) 0.4699(3) 0.8424(7)
H211? H 0.8450 0.4986 0.8487
C148? C 0.8539(4) 0.4386(4) 0.8945(6)
H212? H 0.8384 0.4465 0.9356
C149? C 0.8732(4) 0.3957(3) 0.8851(6)
H213? H 0.8706 0.3748 0.9200
C150? C 0.8964(4) 0.3840(3) 0.8237(7)
H214? H 0.9093 0.3552 0.8174
loop_
_geom_bond_atom_site_label_1
_geom_bond_atom_site_label_2
_geom_bond_site_symmetry_1
_geom_bond_site_symmetry_2
Na1 O1 1_555 1_555
O1 C1 1_555 1_555
O2 C17 1_555 1_555
O3 Na1 1_555 1_555
O4 Na1 1_555 1_555
O5 Na1 1_555 1_555
O6 Na1 1_555 1_555
O7 Na1 1_555 1_555
C1 C2 1_555 1_555
C2 C3 1_555 1_555
C3 H1 1_555 1_555
C4 C3 1_555 1_555
C5 C4 1_555 1_555
H2 C5 1_555 1_555
C6 C1 1_555 1_555
C7 C2 1_555 1_555
C8 C7 1_555 1_555
H3 C8 1_555 1_555
H4 C8 1_555 1_555
H5 C8 1_555 1_555
C9 C7 1_555 1_555
H6 C9 1_555 1_555
H7 C9 1_555 1_555
H8 C9 1_555 1_555
C10 C7 1_555 1_555
H9 C10 1_555 1_555
H10 C10 1_555 1_555
H11 C10 1_555 1_555
C11 C4 1_555 1_555
C12 C11 1_555 1_555
H12 C12 1_555 1_555
H13 C12 1_555 1_555
H14 C12 1_555 1_555
C13 C11 1_555 1_555
H15 C13 1_555 1_555
H16 C13 1_555 1_555
H17 C13 1_555 1_555
C14 C11 1_555 1_555
H18 C14 1_555 1_555
H19 C14 1_555 1_555
H20 C14 1_555 1_555
C15 C6 1_555 1_555
C16 C15 1_555 1_555
C17 C16 1_555 1_555
C18 C17 1_555 1_555
C19 C18 1_555 1_555
H21 C19 1_555 1_555
C20 C19 1_555 1_555
C21 C16 1_555 1_555
H22 C21 1_555 1_555
C22 C18 1_555 1_555
C23 C22 1_555 1_555
H23 C23 1_555 1_555
H24 C23 1_555 1_555
H25 C23 1_555 1_555
C24 C22 1_555 1_555
H26 C24 1_555 1_555
H27 C24 1_555 1_555
H28 C24 1_555 1_555
C25 C22 1_555 1_555
H29 C25 1_555 1_555
H30 C25 1_555 1_555
H31 C25 1_555 1_555
C26 C20 1_555 1_555
C27 C26 1_555 1_555
H32 C27 1_555 1_555
H33 C27 1_555 1_555
H34 C27 1_555 1_555
C28 C26 1_555 1_555
H35 C28 1_555 1_555
H36 C28 1_555 1_555
H37 C28 1_555 1_555
C29 C26 1_555 1_555
H38 C29 1_555 1_555
H39 C29 1_555 1_555
H40 C29 1_555 1_555
C30 C15 1_555 1_555
C31 O2 1_555 1_555
C32 C31 1_555 1_555
C33 C32 1_555 1_555
H41 C33 1_555 1_555
C34 C33 1_555 1_555
C35 C30 1_555 1_555
H42 C35 1_555 1_555
C36 C32 1_555 1_555
C37 C36 1_555 1_555
H43 C37 1_555 1_555
H44 C37 1_555 1_555
H45 C37 1_555 1_555
C38 C36 1_555 1_555
H46 C38 1_555 1_555
H47 C38 1_555 1_555
H48 C38 1_555 1_555
C39 C36 1_555 1_555
H49 C39 1_555 1_555
H50 C39 1_555 1_555
H51 C39 1_555 1_555
C40 C34 1_555 1_555
C41 C40 1_555 1_555
H52 C41 1_555 1_555
H53 C41 1_555 1_555
H54 C41 1_555 1_555
C42 C40 1_555 1_555
H55 C42 1_555 1_555
H56 C42 1_555 1_555
H57 C42 1_555 1_555
C43 C40 1_555 1_555
H58 C43 1_555 1_555
H59 C43 1_555 1_555
H60 C43 1_555 1_555
C44 O3 1_555 1_555
H61 C44 1_555 1_555
H62 C44 1_555 1_555
C45 O4 1_555 1_555
H63 C45 1_555 1_555
H64 C45 1_555 1_555
C46 O4 1_555 1_555
H65 C46 1_555 1_555
H66 C46 1_555 1_555
C47 O5 1_555 1_555
H67 C47 1_555 1_555
H68 C47 1_555 1_555
C48 O5 1_555 1_555
H69 C48 1_555 1_555
H70 C48 1_555 1_555
C49 O6 1_555 1_555
H71 C49 1_555 1_555
H72 C49 1_555 1_555
C50 O6 1_555 1_555
H73 C50 1_555 1_555
H74 C50 1_555 1_555
C51 O7 1_555 1_555
H75 C51 1_555 1_555
H76 C51 1_555 1_555
C52 O7 1_555 1_555
H77 C52 1_555 1_555
H78 C52 1_555 1_555
C53 O3 1_555 1_555
H79 C53 1_555 1_555
H80 C53 1_555 1_555
C54 C15 1_555 1_555
C55 C54 1_555 1_555
H81 C55 1_555 1_555
C56 C55 1_555 1_555
H82 C56 1_555 1_555
C57 C56 1_555 1_555
H83 C57 1_555 1_555
C58 C57 1_555 1_555
H84 C58 1_555 1_555
C59 C54 1_555 1_555
H85 C59 1_555 1_555
Na2 O8 1_555 1_555
O8 C60 1_555 1_555
O9 C76 1_555 1_555
O10 Na2 1_555 1_555
O11 Na2 1_555 1_555
O12 Na2 1_555 1_555
O13 Na2 1_555 1_555
O14 Na2 1_555 1_555
C60 C61 1_555 1_555
C61 C62 1_555 1_555
C62 H86 1_555 1_555
C63 C62 1_555 1_555
C64 C63 1_555 1_555
H87 C64 1_555 1_555
C65 C60 1_555 1_555
C66 C61 1_555 1_555
C67 C66 1_555 1_555
H88 C67 1_555 1_555
H89 C67 1_555 1_555
H90 C67 1_555 1_555
C68 C66 1_555 1_555
H91 C68 1_555 1_555
H92 C68 1_555 1_555
H93 C68 1_555 1_555
C69 C66 1_555 1_555
H94 C69 1_555 1_555
H95 C69 1_555 1_555
H96 C69 1_555 1_555
C70 C63 1_555 1_555
C71 C70 1_555 1_555
H97 C71 1_555 1_555
H98 C71 1_555 1_555
H99 C71 1_555 1_555
C72 C70 1_555 1_555
H100 C72 1_555 1_555
H101 C72 1_555 1_555
H102 C72 1_555 1_555
C73 C70 1_555 1_555
H103 C73 1_555 1_555
H104 C73 1_555 1_555
H105 C73 1_555 1_555
C74 C65 1_555 1_555
C75 C74 1_555 1_555
C76 C75 1_555 1_555
C77 C76 1_555 1_555
C78 C77 1_555 1_555
H106 C78 1_555 1_555
C79 C78 1_555 1_555
C80 C75 1_555 1_555
H107 C80 1_555 1_555
C81 C77 1_555 1_555
C82 C81 1_555 1_555
H108 C82 1_555 1_555
H109 C82 1_555 1_555
H110 C82 1_555 1_555
C83 C81 1_555 1_555
H111 C83 1_555 1_555
H112 C83 1_555 1_555
H113 C83 1_555 1_555
C84 C81 1_555 1_555
H114 C84 1_555 1_555
H115 C84 1_555 1_555
H116 C84 1_555 1_555
C85 C79 1_555 1_555
C86 C85 1_555 1_555
H117 C86 1_555 1_555
H118 C86 1_555 1_555
H119 C86 1_555 1_555
C87 C85 1_555 1_555
H120 C87 1_555 1_555
H121 C87 1_555 1_555
H122 C87 1_555 1_555
C88 C85 1_555 1_555
H123 C88 1_555 1_555
H124 C88 1_555 1_555
H125 C88 1_555 1_555
C89 C74 1_555 1_555
C90 O9 1_555 1_555
C91 C90 1_555 1_555
C92 C91 1_555 1_555
H126 C92 1_555 1_555
C93 C92 1_555 1_555
C94 C89 1_555 1_555
H127 C94 1_555 1_555
C95 C91 1_555 1_555
C96 C95 1_555 1_555
H128 C96 1_555 1_555
H129 C96 1_555 1_555
H130 C96 1_555 1_555
C97 C95 1_555 1_555
H131 C97 1_555 1_555
H132 C97 1_555 1_555
H133 C97 1_555 1_555
C98 C95 1_555 1_555
H134 C98 1_555 1_555
H135 C98 1_555 1_555
H136 C98 1_555 1_555
C99 C93 1_555 1_555
C100 O10 1_555 1_555
H137 C100 1_555 1_555
H138 C100 1_555 1_555
C101 O11 1_555 1_555
H139 C101 1_555 1_555
H140 C101 1_555 1_555
C102 O11 1_555 1_555
H141 C102 1_555 1_555
H142 C102 1_555 1_555
C103 O12 1_555 1_555
H143 C103 1_555 1_555
H144 C103 1_555 1_555
C104 O12 1_555 1_555
H145 C104 1_555 1_555
H146 C104 1_555 1_555
C105 O13 1_555 1_555
H147 C105 1_555 1_555
H148 C105 1_555 1_555
C106 O13 1_555 1_555
H149 C106 1_555 1_555
H150 C106 1_555 1_555
C107 O14 1_555 1_555
H151 C107 1_555 1_555
H152 C107 1_555 1_555
C108 O14 1_555 1_555
H153 C108 1_555 1_555
H154 C108 1_555 1_555
C109 O10 1_555 1_555
H155 C109 1_555 1_555
H156 C109 1_555 1_555
C110 C74 1_555 1_555
C111 C110 1_555 1_555
H157 C111 1_555 1_555
C112 C111 1_555 1_555
H158 C112 1_555 1_555
C113 C112 1_555 1_555
H159 C113 1_555 1_555
C114 C113 1_555 1_555
H160 C114 1_555 1_555
C115 C110 1_555 1_555
H161 C115 1_555 1_555
C116 C99 1_555 1_555
H162 C116 1_555 1_555
H163 C116 1_555 1_555
H164 C116 1_555 1_555
C117 C99 1_555 1_555
H165 C117 1_555 1_555
H166 C117 1_555 1_555
H167 C117 1_555 1_555
C118 C99 1_555 1_555
H168 C118 1_555 1_555
H169 C118 1_555 1_555
H170 C118 1_555 1_555
C119 H171 1_555 1_555
H172 C119 1_555 1_555
H173 C119 1_555 1_555
C120 C119 1_555 1_555
C121 C120 1_555 1_555
H174 C121 1_555 1_555
C122 C121 1_555 1_555
H175 C122 1_555 1_555
C123 C122 1_555 1_555
H176 C123 1_555 1_555
C124 C123 1_555 1_555
H177 C124 1_555 1_555
C125 C120 1_555 1_555
H178 C125 1_555 1_555
C126 C127 1_555 1_555
C127 H179 1_555 1_555
C128 C127 1_555 1_555
H180 C128 1_555 1_555
C129 C128 1_555 1_555
H181 C129 1_555 1_555
C130 C129 1_555 1_555
H182 C130 1_555 1_555
C131 C126 1_555 1_555
H183 C131 1_555 1_555
C132 C126 1_555 1_555
H184 C132 1_555 1_555
H185 C132 1_555 1_555
H186 C132 1_555 1_555
C5 C6 1_555 1_555
C20 C21 1_555 1_555
C30 C31 1_555 1_555
C34 C35 1_555 1_555
C44 C45 1_555 1_555
C46 C47 1_555 1_555
C48 C49 1_555 1_555
C50 C51 1_555 1_555
C52 C53 1_555 1_555
C58 C59 1_555 1_555
C64 C65 1_555 1_555
C79 C80 1_555 1_555
C89 C90 1_555 1_555
C93 C94 1_555 1_555
C100 C101 1_555 1_555
C102 C103 1_555 1_555
C104 C105 1_555 1_555
C106 C107 1_555 1_555
C108 C109 1_555 1_555
C114 C115 1_555 1_555
C124 C125 1_555 1_555
C130 C131 1_555 1_555

#END
