
#######################################################################
#
#                 Cambridge Crystallographic Data Centre
#                                CCDC 
#
#######################################################################
#
# If this CIF has been generated from an entry in the Cambridge 
# Structural Database, then it will include bibliographic, chemical, 
# crystal, experimental, refinement or atomic coordinate data resulting 
# from the CCDC's data processing and validation procedures.
#
#######################################################################

data_TUFRUI
_chemical_compound_source        'Briareum excavatum'
_chemical_name_common            'Briaexcavatin I'
_chemical_formula_moiety         'C26 H36 O10'
_chemical_name_systematic        
'2-Hydroxy-1,4a,8,11a-tetramethyl-11-oxo-2,3,4,4a,5,6,7,9a,11,11a,13,13a-dodecahydro-1H-benzo[4,5]cyclodeca[1,2-b]oxireno[c]furan-4,5,13-triyl triacetate'
_symmetry_cell_setting           orthorhombic
_symmetry_space_group_name_H-M   'P 21 21 21'
_symmetry_Int_Tables_number      19
_space_group_name_Hall           'P 2ac 2ab'
loop_
_symmetry_equiv_pos_site_id
_symmetry_equiv_pos_as_xyz
1 x,y,z
2 1/2-x,-y,1/2+z
3 -x,1/2+y,1/2-z
4 1/2+x,1/2-y,-z
_cell_length_a                   8.8287(10)
_cell_length_b                   13.9207(17)
_cell_length_c                   21.578(2)
_cell_angle_alpha                90
_cell_angle_beta                 90
_cell_angle_gamma                90
_cell_volume                     2651.97
_exptl_crystal_colour            colorless
_exptl_crystal_description       prism
_cell_formula_units_Z            4
_exptl_crystal_recrystallization_method methanol
loop_
_atom_site_label
_atom_site_type_symbol
_atom_site_fract_x
_atom_site_fract_y
_atom_site_fract_z
O1 O 0.3731(3) 0.34869(15) 0.89908(10)
O2 O 0.1881(4) 0.3109(2) 0.96634(15)
O3 O 0.3532(3) 0.79787(17) 1.01260(10)
O4 O 0.1619(2) 0.76574(15) 0.91220(10)
O5 O 0.5288(2) 0.66462(14) 0.85671(9)
O6 O 0.5835(3) 0.8082(2) 0.81782(19)
O7 O 0.0449(3) 0.57562(16) 0.67960(11)
H1 H 0.0091 0.6300 0.6787
O8 O 0.0782(2) 0.42398(14) 0.84411(10)
O9 O 0.0306(4) 0.27111(17) 0.81984(13)
O10 O 0.3066(3) 0.95274(17) 0.99639(12)
C1 C 0.3334(3) 0.48904(19) 0.83467(12)
C2 C 0.3464(4) 0.45309(19) 0.90300(14)
H2 H 0.2496 0.4643 0.9240
C3 C 0.4727(3) 0.4934(2) 0.94252(13)
H3 H 0.4944 0.5585 0.9292
H4 H 0.5634 0.4554 0.9360
C4 C 0.4353(4) 0.4944(3) 1.01174(14)
H5 H 0.4257 0.4287 1.0261
H6 H 0.5188 0.5237 1.0340
C5 C 0.2916(4) 0.5480(2) 1.02714(13)
C6 C 0.2617(4) 0.6375(3) 1.00968(14)
H7 H 0.1646 0.6596 1.0185
C7 C 0.3643(4) 0.7073(2) 0.97762(13)
H8 H 0.4688 0.6836 0.9779
C8 C 0.3172(3) 0.7346(2) 0.91205(14)
C9 C 0.3684(3) 0.6843(2) 0.85303(13)
H9 H 0.3577 0.7324 0.8201
C10 C 0.2727(3) 0.59563(19) 0.83072(13)
H10 H 0.1822 0.5963 0.8570
C11 C 0.2140(4) 0.6250(2) 0.76466(14)
H11 H 0.1605 0.6861 0.7703
C12 C 0.0956(4) 0.5544(2) 0.74124(15)
H12 H 0.0083 0.5558 0.7693
C13 C 0.1589(4) 0.4534(2) 0.73977(14)
H13 H 0.0815 0.4093 0.7254
H14 H 0.2432 0.4506 0.7110
C14 C 0.2119(4) 0.4236(2) 0.80334(13)
H15 H 0.2515 0.3580 0.8010
C15 C 0.4840(4) 0.4691(2) 0.80088(14)
H16 H 0.4717 0.4813 0.7574
H17 H 0.5125 0.4032 0.8070
H18 H 0.5615 0.5103 0.8172
C16 C 0.1774(4) 0.4921(3) 1.06368(17)
H19 H 0.0961 0.5338 1.0759
H20 H 0.2248 0.4658 1.0999
H21 H 0.1380 0.4409 1.0386
C17 C 0.2808(4) 0.8381(2) 0.91191(15)
C18 C 0.2788(5) 0.9095(2) 0.86011(16)
H22 H 0.1988 0.9550 0.8669
H23 H 0.2622 0.8766 0.8216
H24 H 0.3741 0.9426 0.8586
C19 C 0.3114(4) 0.8720(2) 0.97680(16)
C20 C 0.3377(5) 0.6449(2) 0.71657(13)
H25 H 0.2961 0.6818 0.6831
H26 H 0.3759 0.5851 0.7008
H27 H 0.4187 0.6801 0.7356
C21 C 0.2890(6) 0.2881(3) 0.93248(18)
C22 C 0.3391(7) 0.1861(3) 0.9204(2)
H28 H 0.2755 0.1427 0.9432
H29 H 0.4423 0.1784 0.9335
H30 H 0.3314 0.1725 0.8770
C23 C 0.6253(4) 0.7320(3) 0.83499(16)
C24 C 0.7846(4) 0.6979(3) 0.83546(18)
H31 H 0.8445 0.7396 0.8610
H32 H 0.8238 0.6984 0.7940
H33 H 0.7884 0.6338 0.8517
C25 C -0.0015(4) 0.3430(2) 0.84828(16)
C26 C -0.1324(5) 0.3538(3) 0.8913(2)
H34 H -0.1349 0.3003 0.9194
H35 H -0.2248 0.3556 0.8679
H36 H -0.1218 0.4123 0.9144
loop_
_geom_bond_atom_site_label_1
_geom_bond_atom_site_label_2
_geom_bond_site_symmetry_1
_geom_bond_site_symmetry_2
O1 C2 1_555 1_555
O2 C21 1_555 1_555
O3 C7 1_555 1_555
O4 C8 1_555 1_555
O5 C9 1_555 1_555
O6 C23 1_555 1_555
O7 H1 1_555 1_555
O8 C14 1_555 1_555
O9 C25 1_555 1_555
O10 C19 1_555 1_555
C1 C2 1_555 1_555
C2 H2 1_555 1_555
C3 C2 1_555 1_555
H3 C3 1_555 1_555
H4 C3 1_555 1_555
C4 C3 1_555 1_555
H5 C4 1_555 1_555
H6 C4 1_555 1_555
C5 C4 1_555 1_555
C6 C5 1_555 1_555
H7 C6 1_555 1_555
C7 C6 1_555 1_555
H8 C7 1_555 1_555
C8 C7 1_555 1_555
C9 C8 1_555 1_555
H9 C9 1_555 1_555
C10 C1 1_555 1_555
H10 C10 1_555 1_555
C11 C10 1_555 1_555
H11 C11 1_555 1_555
C12 O7 1_555 1_555
H12 C12 1_555 1_555
C13 C12 1_555 1_555
H13 C13 1_555 1_555
H14 C13 1_555 1_555
C14 C1 1_555 1_555
H15 C14 1_555 1_555
C15 C1 1_555 1_555
H16 C15 1_555 1_555
H17 C15 1_555 1_555
H18 C15 1_555 1_555
C16 C5 1_555 1_555
H19 C16 1_555 1_555
H20 C16 1_555 1_555
H21 C16 1_555 1_555
C17 O4 1_555 1_555
C18 C17 1_555 1_555
H22 C18 1_555 1_555
H23 C18 1_555 1_555
H24 C18 1_555 1_555
C19 O3 1_555 1_555
C20 C11 1_555 1_555
H25 C20 1_555 1_555
H26 C20 1_555 1_555
H27 C20 1_555 1_555
C21 O1 1_555 1_555
C22 C21 1_555 1_555
H28 C22 1_555 1_555
H29 C22 1_555 1_555
H30 C22 1_555 1_555
C23 O5 1_555 1_555
C24 C23 1_555 1_555
H31 C24 1_555 1_555
H32 C24 1_555 1_555
H33 C24 1_555 1_555
C25 O8 1_555 1_555
C26 C25 1_555 1_555
H34 C26 1_555 1_555
H35 C26 1_555 1_555
H36 C26 1_555 1_555
C8 C17 1_555 1_555
C9 C10 1_555 1_555
C11 C12 1_555 1_555
C13 C14 1_555 1_555
C17 C19 1_555 1_555

#END
