
#######################################################################
#
#                 Cambridge Crystallographic Data Centre
#                                CCDC 
#
#######################################################################
#
# If this CIF has been generated from an entry in the Cambridge 
# Structural Database, then it will include bibliographic, chemical, 
# crystal, experimental, refinement or atomic coordinate data resulting 
# from the CCDC's data processing and validation procedures.
#
#######################################################################

data_TUFSET
_chemical_name_common            X-7
_chemical_formula_moiety         'C17 H13 N1 O2'
_chemical_name_systematic        
8,13-Dihydro-1H-quino[8,1-cd][2,5]benzoxazocin-1-one
_symmetry_cell_setting           triclinic
_symmetry_space_group_name_H-M   'P -1'
_symmetry_Int_Tables_number      2
_space_group_name_Hall           '-P 1'
loop_
_symmetry_equiv_pos_site_id
_symmetry_equiv_pos_as_xyz
1 x,y,z
2 -x,-y,-z
_cell_length_a                   7.1400(10)
_cell_length_b                   8.5960(10)
_cell_length_c                   10.9760(10)
_cell_angle_alpha                76.520(10)
_cell_angle_beta                 79.990(10)
_cell_angle_gamma                71.600(10)
_cell_volume                     617.928
_exptl_crystal_colour            'light yellow'
_exptl_crystal_description       block
_chemical_melting_point          186-188deg.C
_cell_formula_units_Z            2
_exptl_crystal_recrystallization_method chloroform/hexane
loop_
_atom_site_label
_atom_site_type_symbol
_atom_site_fract_x
_atom_site_fract_y
_atom_site_fract_z
O1 O 0.1747(2) -0.31736(18) 0.17930(14)
C1 C 0.3324(4) -0.4388(3) 0.2425(2)
H1 H 0.431(4) -0.496(3) 0.174(2)
H2 H 0.274(4) -0.519(4) 0.306(3)
C2 C 0.4392(3) -0.3673(3) 0.31350(18)
C3 C 0.3516(3) -0.2245(2) 0.36373(19)
C4 C 0.1419(4) -0.1134(3) 0.3395(2)
H3 H 0.090(4) -0.047(3) 0.403(3)
H4 H 0.057(4) -0.185(3) 0.335(2)
N1 N 0.1465(2) 0.0126(2) 0.22208(16)
C5 C 0.1121(3) 0.1766(3) 0.2371(2)
O2 O 0.0690(3) 0.2116(2) 0.34277(19)
C6 C 0.1324(4) 0.2984(3) 0.1239(3)
H5 H 0.094(4) 0.416(4) 0.138(3)
C7 C 0.1942(4) 0.2547(3) 0.0118(3)
H6 H 0.204(4) 0.331(3) -0.060(3)
C8 C 0.2339(3) 0.0861(3) -0.0026(2)
C9 C 0.2975(3) 0.0408(3) -0.1208(2)
H7 H 0.312(4) 0.124(4) -0.190(3)
C10 C 0.3303(3) -0.1191(3) -0.1354(2)
H8 H 0.379(4) -0.162(4) -0.211(3)
C11 C 0.2947(3) -0.2374(3) -0.0318(2)
H9 H 0.325(3) -0.372(3) -0.019(2)
C12 C 0.2312(3) -0.1973(3) 0.08546(19)
C13 C 0.2039(3) -0.0340(2) 0.10484(19)
C14 C 0.6341(4) -0.4607(3) 0.3346(2)
H10 H 0.695(4) -0.568(3) 0.304(2)
C15 C 0.7397(4) -0.4106(3) 0.4058(2)
H11 H 0.872(5) -0.472(4) 0.414(3)
C16 C 0.6519(4) -0.2686(3) 0.4550(2)
H12 H 0.729(5) -0.235(4) 0.506(3)
C17 C 0.4599(4) -0.1771(3) 0.4342(2)
H13 H 0.393(4) -0.072(3) 0.471(2)
loop_
_geom_bond_atom_site_label_1
_geom_bond_atom_site_label_2
_geom_bond_site_symmetry_1
_geom_bond_site_symmetry_2
O1 C1 1_555 1_555
C1 H1 1_555 1_555
H2 C1 1_555 1_555
C2 C1 1_555 1_555
C3 C2 1_555 1_555
C4 C3 1_555 1_555
H3 C4 1_555 1_555
H4 C4 1_555 1_555
N1 C4 1_555 1_555
C5 N1 1_555 1_555
O2 C5 1_555 1_555
C6 C5 1_555 1_555
H5 C6 1_555 1_555
C7 C6 1_555 1_555
H6 C7 1_555 1_555
C8 C7 1_555 1_555
C9 C8 1_555 1_555
H7 C9 1_555 1_555
C10 C9 1_555 1_555
H8 C10 1_555 1_555
C11 C10 1_555 1_555
H9 C11 1_555 1_555
C12 O1 1_555 1_555
C13 N1 1_555 1_555
C14 C2 1_555 1_555
H10 C14 1_555 1_555
C15 C14 1_555 1_555
H11 C15 1_555 1_555
C16 C15 1_555 1_555
H12 C16 1_555 1_555
C17 C3 1_555 1_555
H13 C17 1_555 1_555
C8 C13 1_555 1_555
C11 C12 1_555 1_555
C12 C13 1_555 1_555
C16 C17 1_555 1_555

#END
