
#######################################################################
#
#                 Cambridge Crystallographic Data Centre
#                                CCDC 
#
#######################################################################
#
# If this CIF has been generated from an entry in the Cambridge 
# Structural Database, then it will include bibliographic, chemical, 
# crystal, experimental, refinement or atomic coordinate data resulting 
# from the CCDC's data processing and validation procedures.
#
#######################################################################

data_TUFVAT
_chemical_formula_moiety         
'C12 H16 Mg1 N2 O4 2+,C10 H6 O6 S2 2-,C12 H8 N2,4(H2 O1)'
_chemical_name_systematic        
'tetraaqua-(1,10-phenanthroline)-magnesium naphthalene-2,7-disulfonate 1,10-phenanthroline tetrahydrate'
_symmetry_cell_setting           monoclinic
_symmetry_space_group_name_H-M   'P 21'
_symmetry_Int_Tables_number      4
_space_group_name_Hall           'P 2yb'
loop_
_symmetry_equiv_pos_site_id
_symmetry_equiv_pos_as_xyz
1 x,y,z
2 -x,1/2+y,-z
_cell_length_a                   12.8768(11)
_cell_length_b                   20.6838(19)
_cell_length_c                   14.4091(13)
_cell_angle_alpha                90
_cell_angle_beta                 103.050(2)
_cell_angle_gamma                90
_cell_volume                     3738.62
_cell_formula_units_Z            4
loop_
_atom_site_label
_atom_site_type_symbol
_atom_site_fract_x
_atom_site_fract_y
_atom_site_fract_z
Mg1 Mg 0.8725(3) 0.2005(2) 0.6209(3)
N1 N 0.7247(8) 0.2523(5) 0.5682(7)
N2 N 0.9117(8) 0.3023(5) 0.6532(7)
O1 O 0.8503(6) 0.1918(4) 0.7572(6)
H1 H 0.8109 0.2193 0.7763
H2 H 0.8630 0.1611 0.7974
O2 O 0.9040(7) 0.2063(4) 0.4872(6)
H3 H 0.9071 0.2419 0.4584
H4 H 0.9611 0.1854 0.4888
O3 O 1.0202(7) 0.1641(4) 0.6655(6)
H5 H 1.0499 0.1459 0.7177
H6 H 1.0464 0.1485 0.6212
O4 O 0.8030(8) 0.1126(4) 0.5817(7)
H7 H 0.8006 0.0843 0.6239
H8 H 0.8286 0.0952 0.5384
C1 C 0.6299(11) 0.2281(8) 0.5234(10)
H9 H 0.6234 0.1835 0.5167
C2 C 0.5422(12) 0.2653(9) 0.4870(10)
H10 H 0.4783 0.2460 0.4567
C3 C 0.5491(11) 0.3277(8) 0.4950(10)
H11 H 0.4898 0.3528 0.4688
C4 C 0.6447(11) 0.3588(8) 0.5426(10)
C5 C 0.7294(10) 0.3173(7) 0.5752(9)
C6 C 0.8300(10) 0.3439(6) 0.6241(9)
C7 C 0.8414(12) 0.4124(7) 0.6346(10)
C8 C 0.9400(12) 0.4343(7) 0.6820(10)
H12 H 0.9515 0.4784 0.6912
C9 C 1.0204(13) 0.3923(8) 0.7156(10)
H13 H 1.0859 0.4073 0.7503
C10 C 1.0047(11) 0.3280(7) 0.6983(9)
H14 H 1.0621 0.3002 0.7190
C11 C 0.6597(13) 0.4256(8) 0.5567(11)
H15 H 0.6020 0.4528 0.5342
C12 C 0.7505(13) 0.4516(8) 0.5996(10)
H16 H 0.7555 0.4963 0.6074
Mg2 Mg 0.9018(3) 0.2039(2) 0.1246(3)
N3 N 0.7419(8) 0.2402(5) 0.0612(7)
N4 N 0.9110(7) 0.3080(5) 0.1552(7)
O5 O 0.9511(6) 0.2205(4) 0.0016(6)
H17 H 0.9396 0.2565 -0.0275
H18 H 1.0127 0.2073 -0.0015
O6 O 0.8541(7) 0.1804(4) 0.2485(6)
H19 H 0.8036 0.2014 0.2633
H20 H 0.8341 0.1415 0.2367
O7 O 1.0520(7) 0.1845(5) 0.1984(7)
H21 H 1.0765 0.1635 0.2495
H22 H 1.1033 0.2052 0.1842
O8 O 0.8676(6) 0.1134(4) 0.0758(6)
H23 H 0.8501 0.0826 0.1082
H24 H 0.8756 0.0984 0.0229
C13 C 0.6585(10) 0.2071(6) 0.0166(9)
H25 H 0.6652 0.1627 0.0093
C14 C 0.5601(10) 0.2363(7) -0.0203(9)
H26 H 0.5028 0.2112 -0.0511
C15 C 0.5473(10) 0.3007(7) -0.0118(9)
H27 H 0.4810 0.3196 -0.0352
C16 C 0.6350(9) 0.3390(6) 0.0328(9)
C17 C 0.7305(9) 0.3049(6) 0.0704(8)
C18 C 0.8206(9) 0.3443(6) 0.1187(8)
C19 C 0.8150(9) 0.4090(6) 0.1260(8)
C20 C 0.9056(10) 0.4426(6) 0.1722(9)
H28 H 0.9043 0.4874 0.1776
C21 C 0.9966(10) 0.4085(7) 0.2093(9)
H29 H 1.0582 0.4298 0.2406
C22 C 0.9958(10) 0.3430(6) 0.2000(9)
H30 H 1.0583 0.3208 0.2264
C23 C 0.6294(11) 0.4071(7) 0.0414(9)
H31 H 0.5656 0.4287 0.0173
C24 C 0.7176(10) 0.4407(6) 0.0850(9)
H32 H 0.7142 0.4855 0.0880
S1 S 0.8282(3) 0.66261(19) 0.0976(3)
S2 S 0.2930(3) 0.50758(19) -0.2032(3)
O9 O 0.8292(8) 0.7206(5) 0.1543(8)
O10 O 0.9019(7) 0.6162(5) 0.1524(7)
O11 O 0.8444(8) 0.6732(6) 0.0050(8)
O12 O 0.3226(13) 0.5446(7) -0.2751(9)
O13 O 0.3028(9) 0.4404(5) -0.2133(8)
O14 O 0.1882(9) 0.5263(6) -0.1959(9)
C25 C 0.6392(9) 0.6101(6) -0.0009(9)
H33 H 0.6628 0.6177 -0.0564
C26 C 0.7022(9) 0.6288(6) 0.0858(10)
C27 C 0.6675(10) 0.6162(6) 0.1703(9)
H34 H 0.7103 0.6284 0.2286
C28 C 0.5740(10) 0.5871(6) 0.1681(9)
H35 H 0.5516 0.5800 0.2242
C29 C 0.5094(9) 0.5672(6) 0.0793(8)
C30 C 0.5430(9) 0.5807(5) -0.0066(8)
C31 C 0.4731(10) 0.5621(6) -0.0944(9)
H36 H 0.4917 0.5710 -0.1518
C32 C 0.3804(10) 0.5318(6) -0.0946(9)
C33 C 0.3478(10) 0.5144(6) -0.0107(10)
H37 H 0.2852 0.4915 -0.0126
C34 C 0.4133(10) 0.5330(6) 0.0733(9)
H38 H 0.3935 0.5225 0.1297
S3 S 0.2970(3) 0.48242(16) 0.2868(2)
S4 S 0.1835(3) 0.13806(17) 0.4766(3)
O15 O 0.2872(8) 0.4427(4) 0.2016(6)
O16 O 0.2078(7) 0.5244(4) 0.2787(6)
O17 O 0.3966(7) 0.5170(5) 0.3134(7)
O18 O 0.2688(14) 0.0993(9) 0.5289(19)
O19 O 0.1723(16) 0.1241(9) 0.3691(14)
O20 O 0.0840(15) 0.1259(9) 0.5025(16)
C35 C 0.2674(9) 0.3656(6) 0.3648(9)
H39 H 0.2575 0.3494 0.3032
C36 C 0.2911(9) 0.4303(6) 0.3804(9)
C37 C 0.3061(9) 0.4561(6) 0.4747(9)
H40 H 0.3217 0.4997 0.4861
C38 C 0.2971(9) 0.4152(7) 0.5487(9)
H41 H 0.3095 0.4313 0.6105
C39 C 0.2697(9) 0.3502(6) 0.5319(9)
C40 C 0.2578(9) 0.3234(6) 0.4390(8)
C41 C 0.2307(9) 0.2592(6) 0.4242(9)
H42 H 0.2213 0.2424 0.3630
C42 C 0.2168(9) 0.2184(6) 0.4974(9)
C43 C 0.2308(10) 0.2472(7) 0.5905(10)
H43 H 0.2219 0.2218 0.6415
C44 C 0.2563(9) 0.3094(7) 0.6052(9)
H44 H 0.2655 0.3261 0.6664
N5 N 0.7224(11) 0.2851(7) 0.8124(9)
N6 N 0.9068(11) 0.3402(6) 0.9075(9)
C45 C 0.6298(14) 0.2573(9) 0.7712(11)
H45 H 0.6282 0.2126 0.7640
C46 C 0.5341(13) 0.2922(11) 0.7379(12)
H46 H 0.4708 0.2716 0.7091
C47 C 0.5389(15) 0.3529(11) 0.7493(12)
H47 H 0.4757 0.3758 0.7290
C48 C 0.6313(15) 0.3898(10) 0.7901(11)
C49 C 0.7238(13) 0.3491(9) 0.8252(10)
C50 C 0.8209(14) 0.3788(9) 0.8718(11)
C51 C 0.8320(16) 0.4491(9) 0.8831(11)
C52 C 0.9273(19) 0.4715(10) 0.9255(12)
H48 H 0.9349 0.5161 0.9322
C53 C 1.0062(17) 0.4382(10) 0.9568(13)
H49 H 1.0718 0.4571 0.9832
C54 C 0.9940(15) 0.3681(9) 0.9513(11)
H50 H 1.0514 0.3424 0.9805
C55 C 0.6456(16) 0.4563(10) 0.8020(12)
H51 H 0.5866 0.4828 0.7806
C56 C 0.7327(17) 0.4831(10) 0.8397(12)
H52 H 0.7343 0.5280 0.8401
N7 N 0.7089(8) 0.2648(6) 0.2999(8)
N8 N 0.8919(8) 0.3233(5) 0.3985(7)
C57 C 0.6166(12) 0.2358(8) 0.2573(10)
H53 H 0.6143 0.1913 0.2471
C58 C 0.5228(12) 0.2737(9) 0.2282(11)
H54 H 0.4592 0.2531 0.2004
C59 C 0.5225(11) 0.3359(8) 0.2389(10)
H55 H 0.4594 0.3588 0.2176
C60 C 0.6174(10) 0.3701(7) 0.2829(10)
C61 C 0.7094(9) 0.3279(7) 0.3162(9)
C62 C 0.8057(9) 0.3618(6) 0.3653(9)
C63 C 0.8078(10) 0.4281(6) 0.3738(9)
C64 C 0.9044(11) 0.4572(7) 0.4177(9)
H56 H 0.9088 0.5020 0.4231
C65 C 0.9902(11) 0.4212(7) 0.4519(9)
H57 H 1.0548 0.4404 0.4805
C66 C 0.9818(10) 0.3547(7) 0.4441(9)
H58 H 1.0410 0.3299 0.4716
C67 C 0.6225(12) 0.4356(7) 0.2978(10)
H59 H 0.5611 0.4605 0.2792
C68 C 0.7141(12) 0.4641(7) 0.3384(10)
H60 H 0.7166 0.5089 0.3436
O24 O 0.7654(9) 0.7403(7) 0.8159(10)
H61 H 0.7920 0.7266 0.8718
H62 H 0.7292 0.7098 0.7846
O25 O 0.5134(10) 0.5845(7) 0.4695(10)
H63 H 0.4806 0.5638 0.4206
H64 H 0.5785 0.5879 0.4670
O26 O 0.2900(10) 0.3336(6) 0.9045(11)
H65 H 0.2880 0.3628 0.8626
H66 H 0.2518 0.3020 0.8792
O27 O 0.5214(14) 0.0898(9) 0.3534(13)
H68 H 0.5769 0.0733 0.3406
H69 H 0.5232 0.0838 0.4122
O28 O 0.8880(11) 0.0578(6) 0.4327(9)
H70 H 0.8405 0.0653 0.3825
H71 H 0.9380 0.0851 0.4367
O29 O 0.3414(12) 0.1317(8) 0.2591(11)
H72 H 0.2945 0.1289 0.2921
H73 H 0.3999 0.1171 0.2919
O30 O 0.2598(12) 0.3374(7) 0.0860(11)
H74 H 0.2687 0.3703 0.1222
H75 H 0.2516 0.3045 0.1189
O31 O 0.0996(8) 0.5802(4) 0.1040(7)
H76 H 0.1359 0.5629 0.1545
H77 H 0.0399 0.5917 0.1142
O21? O 0.0834(15) 0.1386(10) 0.4062(17)
O22? O 0.1657(17) 0.1171(9) 0.5721(15)
O23? O 0.2686(17) 0.1079(10) 0.449(2)
H67? H 0.2676 0.3484 0.9515
loop_
_geom_bond_atom_site_label_1
_geom_bond_atom_site_label_2
_geom_bond_site_symmetry_1
_geom_bond_site_symmetry_2
Mg1 N1 1_555 1_555
N1 C1 1_555 1_555
N2 Mg1 1_555 1_555
O1 Mg1 1_555 1_555
H1 O1 1_555 1_555
H2 O1 1_555 1_555
O2 Mg1 1_555 1_555
H3 O2 1_555 1_555
H4 O2 1_555 1_555
O3 Mg1 1_555 1_555
H5 O3 1_555 1_555
H6 O3 1_555 1_555
O4 Mg1 1_555 1_555
H7 O4 1_555 1_555
H8 O4 1_555 1_555
C1 H9 1_555 1_555
C2 C1 1_555 1_555
H10 C2 1_555 1_555
C3 C2 1_555 1_555
H11 C3 1_555 1_555
C4 C3 1_555 1_555
C5 N1 1_555 1_555
C6 N2 1_555 1_555
C7 C6 1_555 1_555
C8 C7 1_555 1_555
H12 C8 1_555 1_555
C9 C8 1_555 1_555
H13 C9 1_555 1_555
C10 N2 1_555 1_555
H14 C10 1_555 1_555
C11 C4 1_555 1_555
H15 C11 1_555 1_555
C12 C7 1_555 1_555
H16 C12 1_555 1_555
Mg2 N3 1_555 1_555
N3 C13 1_555 1_555
N4 Mg2 1_555 1_555
O5 Mg2 1_555 1_555
H17 O5 1_555 1_555
H18 O5 1_555 1_555
O6 Mg2 1_555 1_555
H19 O6 1_555 1_555
H20 O6 1_555 1_555
O7 Mg2 1_555 1_555
H21 O7 1_555 1_555
H22 O7 1_555 1_555
O8 Mg2 1_555 1_555
H23 O8 1_555 1_555
H24 O8 1_555 1_555
C13 H25 1_555 1_555
C14 C13 1_555 1_555
H26 C14 1_555 1_555
C15 C14 1_555 1_555
H27 C15 1_555 1_555
C16 C15 1_555 1_555
C17 N3 1_555 1_555
C18 N4 1_555 1_555
C19 C18 1_555 1_555
C20 C19 1_555 1_555
H28 C20 1_555 1_555
C21 C20 1_555 1_555
H29 C21 1_555 1_555
C22 N4 1_555 1_555
H30 C22 1_555 1_555
C23 C16 1_555 1_555
H31 C23 1_555 1_555
C24 C19 1_555 1_555
H32 C24 1_555 1_555
S1 O9 1_555 1_555
S2 O12 1_555 1_555
O10 S1 1_555 1_555
O11 S1 1_555 1_555
O13 S2 1_555 1_555
O14 S2 1_555 1_555
C25 H33 1_555 1_555
C26 S1 1_555 1_555
C27 C26 1_555 1_555
H34 C27 1_555 1_555
C28 C27 1_555 1_555
H35 C28 1_555 1_555
C29 C28 1_555 1_555
C30 C25 1_555 1_555
C31 C30 1_555 1_555
H36 C31 1_555 1_555
C32 S2 1_555 1_555
C33 C32 1_555 1_555
H37 C33 1_555 1_555
C34 C29 1_555 1_555
H38 C34 1_555 1_555
S3 O15 1_555 1_555
S4 O18 1_555 1_555
O16 S3 1_555 1_555
O17 S3 1_555 1_555
O19 S4 1_555 1_555
O20 S4 1_555 1_555
C35 H39 1_555 1_555
C36 S3 1_555 1_555
C37 C36 1_555 1_555
H40 C37 1_555 1_555
C38 C37 1_555 1_555
H41 C38 1_555 1_555
C39 C38 1_555 1_555
C40 C35 1_555 1_555
C41 C40 1_555 1_555
H42 C41 1_555 1_555
C42 S4 1_555 1_555
C43 C42 1_555 1_555
H43 C43 1_555 1_555
C44 C39 1_555 1_555
H44 C44 1_555 1_555
N5 C45 1_555 1_555
N6 C50 1_555 1_555
C45 H45 1_555 1_555
C46 C45 1_555 1_555
H46 C46 1_555 1_555
C47 C46 1_555 1_555
H47 C47 1_555 1_555
C48 C47 1_555 1_555
C49 N5 1_555 1_555
C50 C49 1_555 1_555
C51 C50 1_555 1_555
C52 C51 1_555 1_555
H48 C52 1_555 1_555
C53 C52 1_555 1_555
H49 C53 1_555 1_555
C54 N6 1_555 1_555
H50 C54 1_555 1_555
C55 C48 1_555 1_555
H51 C55 1_555 1_555
C56 C51 1_555 1_555
H52 C56 1_555 1_555
N7 C57 1_555 1_555
N8 C62 1_555 1_555
C57 H53 1_555 1_555
C58 C57 1_555 1_555
H54 C58 1_555 1_555
C59 C58 1_555 1_555
H55 C59 1_555 1_555
C60 C59 1_555 1_555
C61 N7 1_555 1_555
C62 C61 1_555 1_555
C63 C62 1_555 1_555
C64 C63 1_555 1_555
H56 C64 1_555 1_555
C65 C64 1_555 1_555
H57 C65 1_555 1_555
C66 N8 1_555 1_555
H58 C66 1_555 1_555
C67 C60 1_555 1_555
H59 C67 1_555 1_555
C68 C63 1_555 1_555
H60 C68 1_555 1_555
O24 H61 1_555 1_555
H62 O24 1_555 1_555
O25 H63 1_555 1_555
H64 O25 1_555 1_555
O26 H65 1_555 1_555
H66 O26 1_555 1_555
O27 H68 1_555 1_555
H69 O27 1_555 1_555
O28 H70 1_555 1_555
H71 O28 1_555 1_555
O29 H72 1_555 1_555
H73 O29 1_555 1_555
O30 H74 1_555 1_555
H75 O30 1_555 1_555
O31 H76 1_555 1_555
H77 O31 1_555 1_555
C4 C5 1_555 1_555
C5 C6 1_555 1_555
C9 C10 1_555 1_555
C11 C12 1_555 1_555
C16 C17 1_555 1_555
C17 C18 1_555 1_555
C21 C22 1_555 1_555
C23 C24 1_555 1_555
C25 C26 1_555 1_555
C29 C30 1_555 1_555
C31 C32 1_555 1_555
C33 C34 1_555 1_555
C35 C36 1_555 1_555
C39 C40 1_555 1_555
C41 C42 1_555 1_555
C43 C44 1_555 1_555
C48 C49 1_555 1_555
C53 C54 1_555 1_555
C55 C56 1_555 1_555
C60 C61 1_555 1_555
C65 C66 1_555 1_555
C67 C68 1_555 1_555

#END
