
#######################################################################
#
#                 Cambridge Crystallographic Data Centre
#                                CCDC 
#
#######################################################################
#
# If this CIF has been generated from an entry in the Cambridge 
# Structural Database, then it will include bibliographic, chemical, 
# crystal, experimental, refinement or atomic coordinate data resulting 
# from the CCDC's data processing and validation procedures.
#
#######################################################################

data_TUFZIF
_chemical_formula_moiety         'C61 H89 K1 O8,2(C7 H8)'
_chemical_name_systematic        
'(2,4-di-t-butyl-6-(2,4,5,7-tetra-t-butyl-9-phenyl-9H-xanthen-9-yl)phenolato)-(1,4,7,10,13,16-hexaoxacyclooctadecane)-potassium toluene solvate'
_symmetry_cell_setting           monoclinic
_symmetry_space_group_name_H-M   'P 21'
_symmetry_Int_Tables_number      4
_space_group_name_Hall           'P 2yb'
loop_
_symmetry_equiv_pos_site_id
_symmetry_equiv_pos_as_xyz
1 x,y,z
2 -x,1/2+y,-z
_cell_length_a                   13.6270(6)
_cell_length_b                   20.5145(7)
_cell_length_c                   13.9260(6)
_cell_angle_alpha                90
_cell_angle_beta                 116.816(6)
_cell_angle_gamma                90
_cell_volume                     3474.37
_exptl_crystal_colour            'light green'
_exptl_crystal_description       block
_cell_formula_units_Z            2
loop_
_atom_site_label
_atom_site_type_symbol
_atom_site_fract_x
_atom_site_fract_y
_atom_site_fract_z
K1 K 0.01105(8) 0.27570(6) 0.18599(8)
O1 O 0.1351(2) 0.36522(15) 0.1172(2)
O2 O 0.4908(2) 0.40608(14) 0.3642(2)
O3 O 0.2115(2) 0.27267(17) 0.3653(2)
O4 O 0.1492(3) 0.16637(17) 0.2197(3)
O5 O -0.0698(3) 0.13823(18) 0.1084(3)
O6 O -0.2281(3) 0.23050(18) 0.0832(3)
O7 O -0.1609(3) 0.32924(17) 0.2437(3)
O8 O 0.0545(3) 0.37076(17) 0.3410(2)
C1 C 0.1349(3) 0.3958(2) 0.0360(3)
C2 C 0.0407(4) 0.3970(2) -0.0682(3)
C3 C 0.0492(4) 0.4242(2) -0.1558(3)
H1 H -0.0126 0.4235 -0.2224
C4 C 0.1444(4) 0.4523(2) -0.1496(3)
C5 C 0.2330(4) 0.4558(2) -0.0474(3)
H2 H 0.2967 0.4766 -0.0398
C6 C 0.2311(3) 0.4297(2) 0.0436(3)
C7 C 0.3359(3) 0.4306(2) 0.1521(3)
C8 C 0.3205(3) 0.4594(2) 0.2448(3)
C9 C 0.4064(3) 0.4505(2) 0.3487(3)
C10 C 0.4107(3) 0.4868(2) 0.4356(3)
C11 C 0.3183(4) 0.5248(2) 0.4149(3)
H3 H 0.3180 0.5482 0.4719
C12 C 0.2270(4) 0.5304(2) 0.3155(3)
C13 C 0.2317(4) 0.4980(2) 0.2305(3)
H4 H 0.1735 0.5023 0.1619
C14 C 0.5076(4) 0.4866(2) 0.5501(3)
C15 C 0.4992(6) 0.4262(4) 0.6093(4)
H5 H 0.4296 0.4260 0.6111
H6 H 0.5575 0.4265 0.6815
H7 H 0.5053 0.3879 0.5727
C16 C 0.6161(4) 0.4925(4) 0.5459(4)
H8 H 0.6291 0.4537 0.5149
H9 H 0.6742 0.4982 0.6174
H10 H 0.6139 0.5294 0.5026
C17 C 0.5024(4) 0.5450(4) 0.6165(4)
H11 H 0.4978 0.5846 0.5780
H12 H 0.5674 0.5458 0.6843
H13 H 0.4388 0.5411 0.6288
C18 C 0.1280(4) 0.5717(2) 0.3010(4)
C19 C 0.1176(4) 0.5780(2) 0.4062(4)
H14 H 0.1167 0.5354 0.4341
H15 H 0.0505 0.6004 0.3921
H16 H 0.1790 0.6022 0.4578
C20 C 0.1403(5) 0.6407(3) 0.2649(4)
H17 H 0.2063 0.6603 0.3185
H18 H 0.0781 0.6667 0.2559
H19 H 0.1441 0.6383 0.1979
C21 C 0.0212(4) 0.5411(3) 0.2161(4)
H20 H 0.0213 0.5421 0.1472
H21 H -0.0407 0.5653 0.2124
H22 H 0.0162 0.4968 0.2355
C22 C 0.3820(3) 0.3618(2) 0.1871(3)
C23 C 0.4671(3) 0.3550(2) 0.2908(3)
C24 C 0.4996(4) 0.2478(2) 0.2457(3)
H23 H 0.5409 0.2097 0.2643
C25 C 0.4087(4) 0.2508(2) 0.1440(3)
C26 C 0.3532(4) 0.3096(2) 0.1161(3)
H24 H 0.2949 0.3143 0.0477
C27 C 0.5324(3) 0.2982(2) 0.3209(3)
C28 C 0.6378(4) 0.2906(2) 0.4280(3)
C29 C 0.6092(5) 0.2893(5) 0.5206(4)
H25 H 0.5672 0.3274 0.5180
H26 H 0.6756 0.2886 0.5872
H27 H 0.5667 0.2510 0.5155
C30 C 0.7009(5) 0.2282(3) 0.4326(5)
H28 H 0.6560 0.1911 0.4276
H29 H 0.7671 0.2266 0.4993
H30 H 0.7193 0.2277 0.3737
C31 C 0.7158(5) 0.3471(3) 0.4420(6)
H31 H 0.7442 0.3431 0.3905
H32 H 0.7756 0.3461 0.5134
H33 H 0.6769 0.3876 0.4309
C32 C 0.3725(4) 0.1945(2) 0.0632(4)
C33 C 0.4451(6) 0.1342(3) 0.1106(4)
H34 H 0.5194 0.1442 0.1251
H35 H 0.4181 0.0989 0.0601
H36 H 0.4432 0.1219 0.1763
C34 C 0.3805(4) 0.2150(2) -0.0381(3)
H37 H 0.3332 0.2517 -0.0701
H38 H 0.3583 0.1794 -0.0882
H39 H 0.4550 0.2268 -0.0198
C35 C 0.2536(5) 0.1774(3) 0.0324(5)
H40 H 0.2475 0.1631 0.0951
H41 H 0.2300 0.1431 -0.0201
H42 H 0.2082 0.2151 0.0027
C36 C 0.4283(3) 0.4698(2) 0.1427(3)
C37 C 0.4491(4) 0.5343(2) 0.1739(3)
H43 H 0.4056 0.5551 0.2003
C38 C 0.5334(4) 0.5689(2) 0.1669(4)
H44 H 0.5459 0.6122 0.1890
C39 C 0.5984(4) 0.5392(2) 0.1275(4)
H45 H 0.6555 0.5620 0.1238
C40 C 0.5777(4) 0.4748(3) 0.0935(4)
H46 H 0.6201 0.4545 0.0653
C41 C 0.4941(4) 0.4409(2) 0.1015(4)
H47 H 0.4813 0.3977 0.0789
C42 C -0.0668(4) 0.3650(3) -0.0827(4)
C43 C -0.0478(6) 0.2911(3) -0.0662(5)
C44 C -0.1038(5) 0.3936(3) -0.0026(5)
C45 C -0.1623(5) 0.3756(4) -0.1961(4)
H48 H -0.1724 0.4214 -0.2112
H49 H -0.2285 0.3573 -0.1992
H50 H -0.1454 0.3546 -0.2485
C46 C 0.1542(4) 0.4734(3) -0.2504(4)
C47 C 0.2844(4) 0.2413(3) 0.3323(4)
H51 H 0.3595 0.2450 0.3884
H52 H 0.2799 0.2619 0.2677
C48 C 0.2525(4) 0.1711(3) 0.3108(4)
H53 H 0.3072 0.1475 0.2983
H54 H 0.2486 0.1520 0.3727
C49 C 0.1129(5) 0.1005(3) 0.1926(5)
H55 H 0.1012 0.0807 0.2499
H56 H 0.1679 0.0752 0.1828
C50 C 0.0081(5) 0.1013(3) 0.0910(5)
H57 H 0.0201 0.1206 0.0336
H58 H -0.0186 0.0572 0.0702
C51 C -0.1760(5) 0.1362(3) 0.0191(4)
H59 H -0.1959 0.0914 -0.0041
H60 H -0.1760 0.1607 -0.0405
C52 C -0.2563(5) 0.1646(3) 0.0513(5)
H61 H -0.3295 0.1626 -0.0086
H62 H -0.2566 0.1398 0.1105
C53 C -0.2947(4) 0.2545(3) 0.1300(5)
H63 H -0.2808 0.2294 0.1939
H64 H -0.3717 0.2497 0.0793
C54 C -0.2696(4) 0.3237(3) 0.1587(4)
H65 H -0.2758 0.3481 0.0965
H66 H -0.3217 0.3416 0.1813
C55 C -0.1336(4) 0.3951(3) 0.2762(4)
H67 H -0.1883 0.4141 0.2942
H68 H -0.1315 0.4203 0.2182
C56 C -0.0236(4) 0.3960(3) 0.3719(4)
H69 H -0.0042 0.4403 0.3982
H70 H -0.0251 0.3697 0.4291
C57 C 0.1630(4) 0.3695(3) 0.4272(4)
H71 H 0.1646 0.3437 0.4863
H72 H 0.1870 0.4134 0.4531
C58 C 0.2379(4) 0.3399(3) 0.3863(4)
H73 H 0.2283 0.3618 0.3209
H74 H 0.3139 0.3448 0.4396
C59 C 0.0729(8) 0.5275(5) -0.3098(7)
H75 H -0.0007 0.5119 -0.3329
H76 H 0.0822 0.5407 -0.3713
H77 H 0.0859 0.5641 -0.2625
C60 C 0.2730(7) 0.5028(5) -0.2227(7)
H78 H 0.2886 0.5386 -0.1735
H79 H 0.2738 0.5179 -0.2876
H80 H 0.3278 0.4696 -0.1903
C61 C 0.1406(10) 0.4153(6) -0.3210(8)
H81 H 0.1915 0.3819 -0.2798
H82 H 0.1549 0.4279 -0.3799
H83 H 0.0668 0.3991 -0.3484
H84 H -0.038(4) 0.394(3) 0.069(4)
H85 H 0.015(5) 0.280(3) -0.005(5)
H86 H -0.115(5) 0.269(4) -0.067(5)
H87 H -0.128(5) 0.441(3) -0.025(4)
H88 H -0.169(5) 0.374(3) -0.008(5)
H89 H -0.041(5) 0.270(4) -0.124(5)
C65 C 0.5006(6) 0.2931(4) 0.7849(5)
C66 C 0.5882(5) 0.2561(5) 0.7997(6)
H99 H 0.6564 0.2666 0.8557
C67 C 0.5812(7) 0.2049(5) 0.7373(8)
H100 H 0.6432 0.1798 0.7523
C68 C 0.4789(8) 0.1888(4) 0.6479(7)
H101 H 0.4728 0.1544 0.6020
C69 C 0.3882(6) 0.2273(4) 0.6325(5)
H102 H 0.3192 0.2181 0.5765
C70 C 0.4013(5) 0.2783(4) 0.7000(4)
H103 H 0.3406 0.3041 0.6880
C71 C 0.5131(9) 0.3484(5) 0.8565(6)
H104 H 0.4960 0.3346 0.9131
H105 H 0.4641 0.3827 0.8162
H106 H 0.5876 0.3639 0.8871
C72 C 0.1375(5) 0.1349(3) 0.5687(5)
C73 C 0.1586(5) 0.1631(4) 0.6673(5)
H107 H 0.2097 0.1438 0.7307
C74 C 0.1053(5) 0.2188(4) 0.6723(6)
H108 H 0.1216 0.2373 0.7388
C75 C 0.0289(6) 0.2470(4) 0.5807(6)
H109 H -0.0086 0.2842 0.5842
C76 C 0.0076(6) 0.2199(4) 0.4824(6)
H110 H -0.0436 0.2396 0.4195
C77 C 0.0611(5) 0.1641(4) 0.4760(5)
H111 H 0.0456 0.1463 0.4093
C78 C 0.1953(6) 0.0738(4) 0.5638(6)
H112 H 0.2732 0.0815 0.5961
H113 H 0.1701 0.0611 0.4900
H114 H 0.1798 0.0396 0.6020
C62? C 0.0307(12) 0.4716(8) -0.3543(9)
H90? H 0.0103 0.4272 -0.3761
H91? H 0.0316 0.4957 -0.4130
H92? H -0.0217 0.4908 -0.3343
C63? C 0.1932(13) 0.5397(8) -0.2420(10)
H93? H 0.1427 0.5686 -0.2328
H94? H 0.1984 0.5511 -0.3065
H95? H 0.2644 0.5433 -0.1813
C64? C 0.2229(15) 0.4225(9) -0.2733(12)
H96? H 0.2963 0.4223 -0.2155
H97? H 0.2251 0.4331 -0.3395
H98? H 0.1905 0.3802 -0.2793
loop_
_geom_bond_atom_site_label_1
_geom_bond_atom_site_label_2
_geom_bond_site_symmetry_1
_geom_bond_site_symmetry_2
K1 O1 1_555 1_555
O1 C1 1_555 1_555
O2 C9 1_555 1_555
O3 K1 1_555 1_555
O4 K1 1_555 1_555
O5 K1 1_555 1_555
O6 K1 1_555 1_555
O7 K1 1_555 1_555
O8 K1 1_555 1_555
C1 C2 1_555 1_555
C2 C3 1_555 1_555
C3 H1 1_555 1_555
C4 C3 1_555 1_555
C5 C4 1_555 1_555
H2 C5 1_555 1_555
C6 C1 1_555 1_555
C7 C6 1_555 1_555
C8 C7 1_555 1_555
C9 C8 1_555 1_555
C10 C9 1_555 1_555
C11 C10 1_555 1_555
H3 C11 1_555 1_555
C12 C11 1_555 1_555
C13 C8 1_555 1_555
H4 C13 1_555 1_555
C14 C10 1_555 1_555
C15 C14 1_555 1_555
H5 C15 1_555 1_555
H6 C15 1_555 1_555
H7 C15 1_555 1_555
C16 C14 1_555 1_555
H8 C16 1_555 1_555
H9 C16 1_555 1_555
H10 C16 1_555 1_555
C17 C14 1_555 1_555
H11 C17 1_555 1_555
H12 C17 1_555 1_555
H13 C17 1_555 1_555
C18 C12 1_555 1_555
C19 C18 1_555 1_555
H14 C19 1_555 1_555
H15 C19 1_555 1_555
H16 C19 1_555 1_555
C20 C18 1_555 1_555
H17 C20 1_555 1_555
H18 C20 1_555 1_555
H19 C20 1_555 1_555
C21 C18 1_555 1_555
H20 C21 1_555 1_555
H21 C21 1_555 1_555
H22 C21 1_555 1_555
C22 C7 1_555 1_555
C23 O2 1_555 1_555
C24 H23 1_555 1_555
C25 C24 1_555 1_555
C26 C22 1_555 1_555
H24 C26 1_555 1_555
C27 C23 1_555 1_555
C28 C27 1_555 1_555
C29 C28 1_555 1_555
H25 C29 1_555 1_555
H26 C29 1_555 1_555
H27 C29 1_555 1_555
C30 C28 1_555 1_555
H28 C30 1_555 1_555
H29 C30 1_555 1_555
H30 C30 1_555 1_555
C31 C28 1_555 1_555
H31 C31 1_555 1_555
H32 C31 1_555 1_555
H33 C31 1_555 1_555
C32 C25 1_555 1_555
C33 C32 1_555 1_555
H34 C33 1_555 1_555
H35 C33 1_555 1_555
H36 C33 1_555 1_555
C34 C32 1_555 1_555
H37 C34 1_555 1_555
H38 C34 1_555 1_555
H39 C34 1_555 1_555
C35 C32 1_555 1_555
H40 C35 1_555 1_555
H41 C35 1_555 1_555
H42 C35 1_555 1_555
C36 C7 1_555 1_555
C37 C36 1_555 1_555
H43 C37 1_555 1_555
C38 C37 1_555 1_555
H44 C38 1_555 1_555
C39 C38 1_555 1_555
H45 C39 1_555 1_555
C40 C39 1_555 1_555
H46 C40 1_555 1_555
C41 C36 1_555 1_555
H47 C41 1_555 1_555
C42 C2 1_555 1_555
C43 C42 1_555 1_555
C44 C42 1_555 1_555
C45 C42 1_555 1_555
H48 C45 1_555 1_555
H49 C45 1_555 1_555
H50 C45 1_555 1_555
C46 C4 1_555 1_555
C47 O3 1_555 1_555
H51 C47 1_555 1_555
H52 C47 1_555 1_555
C48 O4 1_555 1_555
H53 C48 1_555 1_555
H54 C48 1_555 1_555
C49 O4 1_555 1_555
H55 C49 1_555 1_555
H56 C49 1_555 1_555
C50 O5 1_555 1_555
H57 C50 1_555 1_555
H58 C50 1_555 1_555
C51 O5 1_555 1_555
H59 C51 1_555 1_555
H60 C51 1_555 1_555
C52 O6 1_555 1_555
H61 C52 1_555 1_555
H62 C52 1_555 1_555
C53 O6 1_555 1_555
H63 C53 1_555 1_555
H64 C53 1_555 1_555
C54 O7 1_555 1_555
H65 C54 1_555 1_555
H66 C54 1_555 1_555
C55 O7 1_555 1_555
H67 C55 1_555 1_555
H68 C55 1_555 1_555
C56 O8 1_555 1_555
H69 C56 1_555 1_555
H70 C56 1_555 1_555
C57 O8 1_555 1_555
H71 C57 1_555 1_555
H72 C57 1_555 1_555
C58 O3 1_555 1_555
H73 C58 1_555 1_555
H74 C58 1_555 1_555
C59 C46 1_555 1_555
H75 C59 1_555 1_555
H76 C59 1_555 1_555
H77 C59 1_555 1_555
C60 C46 1_555 1_555
H78 C60 1_555 1_555
H79 C60 1_555 1_555
H80 C60 1_555 1_555
C61 C46 1_555 1_555
H81 C61 1_555 1_555
H82 C61 1_555 1_555
H83 C61 1_555 1_555
H84 C44 1_555 1_555
H85 C43 1_555 1_555
H86 C43 1_555 1_555
H87 C44 1_555 1_555
H88 C44 1_555 1_555
H89 C43 1_555 1_555
C65 C66 1_555 1_555
C66 H99 1_555 1_555
C67 C66 1_555 1_555
H100 C67 1_555 1_555
C68 C67 1_555 1_555
H101 C68 1_555 1_555
C69 C68 1_555 1_555
H102 C69 1_555 1_555
C70 C65 1_555 1_555
H103 C70 1_555 1_555
C71 C65 1_555 1_555
H104 C71 1_555 1_555
H105 C71 1_555 1_555
H106 C71 1_555 1_555
C72 C73 1_555 1_555
C73 H107 1_555 1_555
C74 C73 1_555 1_555
H108 C74 1_555 1_555
C75 C74 1_555 1_555
H109 C75 1_555 1_555
C76 C75 1_555 1_555
H110 C76 1_555 1_555
C77 C72 1_555 1_555
H111 C77 1_555 1_555
C78 C72 1_555 1_555
H112 C78 1_555 1_555
H113 C78 1_555 1_555
H114 C78 1_555 1_555
C5 C6 1_555 1_555
C12 C13 1_555 1_555
C22 C23 1_555 1_555
C24 C27 1_555 1_555
C25 C26 1_555 1_555
C40 C41 1_555 1_555
C47 C48 1_555 1_555
C49 C50 1_555 1_555
C51 C52 1_555 1_555
C53 C54 1_555 1_555
C55 C56 1_555 1_555
C57 C58 1_555 1_555
C69 C70 1_555 1_555
C76 C77 1_555 1_555

#END
