
#######################################################################
#
#                 Cambridge Crystallographic Data Centre
#                                CCDC 
#
#######################################################################
#
# If this CIF has been generated from an entry in the Cambridge 
# Structural Database, then it will include bibliographic, chemical, 
# crystal, experimental, refinement or atomic coordinate data resulting 
# from the CCDC's data processing and validation procedures.
#
#######################################################################

data_TUFZEB
_chemical_formula_moiety         'C112 H146 K2 O6'
_chemical_name_systematic        
bis(2,4-di-t-butyl-6-(2,4,5,7-tetra-t-butyl-9-phenyl-9H-xanthen-9-yl)phenolato)-bis(\m-phenylmethanol)-di-potassium
_symmetry_cell_setting           monoclinic
_symmetry_space_group_name_H-M   'P 21/n'
_symmetry_Int_Tables_number      14
_space_group_name_Hall           '-P 2yn'
loop_
_symmetry_equiv_pos_site_id
_symmetry_equiv_pos_as_xyz
1 x,y,z
2 1/2-x,1/2+y,1/2-z
3 -x,-y,-z
4 1/2+x,1/2-y,1/2+z
_cell_length_a                   18.5313(12)
_cell_length_b                   15.0763(7)
_cell_length_c                   19.009(2)
_cell_angle_alpha                90
_cell_angle_beta                 113.597(12)
_cell_angle_gamma                90
_cell_volume                     4866.73
_exptl_crystal_colour            colorless
_exptl_crystal_description       block
_cell_formula_units_Z            2
loop_
_atom_site_label
_atom_site_type_symbol
_atom_site_fract_x
_atom_site_fract_y
_atom_site_fract_z
K1 K 0.39145(3) 0.01746(4) 0.53818(3)
O1 O 0.50256(7) 0.10172(8) 0.64390(7)
O2 O 0.44182(7) -0.10955(8) 0.73210(7)
O3 O 0.41587(8) -0.01327(10) 0.41232(8)
H1 H 0.4372 -0.0509 0.3912
C1 C 0.48726(10) 0.17580(12) 0.67203(10)
C2 C 0.48803(10) 0.26103(12) 0.63908(10)
C3 C 0.45887(10) 0.33350(12) 0.66449(10)
H2 H 0.4572 0.3879 0.6409
C4 C 0.43205(10) 0.32966(12) 0.72314(10)
C5 C 0.43757(10) 0.24779(12) 0.75896(10)
H3 H 0.4223 0.2436 0.7999
C6 C 0.46508(10) 0.17188(11) 0.73578(10)
C7 C 0.51936(11) 0.27224(13) 0.57604(11)
C8 C 0.47333(12) 0.21483(14) 0.50501(11)
H4 H 0.4870 0.2307 0.4646
H5 H 0.4887 0.1547 0.5187
H6 H 0.4196 0.2228 0.4894
C9 C 0.51262(13) 0.36847(14) 0.54713(13)
H7 H 0.5404 0.4071 0.5895
H8 H 0.4582 0.3854 0.5242
H9 H 0.5351 0.3729 0.5097
C10 C 0.60728(11) 0.24757(14) 0.60870(12)
H10 H 0.6355 0.2837 0.6528
H11 H 0.6278 0.2574 0.5703
H12 H 0.6134 0.1862 0.6234
C11 C 0.39506(11) 0.41055(13) 0.74493(11)
C12 C 0.4019(3) 0.4943(3) 0.7052(3)
H13 H 0.3604 0.4964 0.6548
H14 H 0.4519 0.4954 0.7012
H15 H 0.3979 0.5447 0.7343
C13 C 0.3063(2) 0.3893(3) 0.7226(3)
H16 H 0.2973 0.3271 0.7119
H17 H 0.2749 0.4228 0.6778
H18 H 0.2921 0.4050 0.7643
C14 C 0.4330(3) 0.4239(3) 0.8308(2)
H19 H 0.4135 0.3802 0.8555
H20 H 0.4206 0.4821 0.8432
H21 H 0.4891 0.4179 0.8483
C15 C 0.45453(10) 0.07983(11) 0.76589(10)
C16 C 0.52600(10) 0.01877(11) 0.78492(10)
C17 C 0.51651(10) -0.07231(12) 0.77393(10)
C18 C 0.58106(10) -0.13106(12) 0.80505(10)
C19 C 0.65439(11) -0.09197(12) 0.84524(10)
H22 H 0.6978 -0.1292 0.8665
C20 C 0.66697(10) -0.00099(12) 0.85570(10)
C21 C 0.60145(10) 0.05305(12) 0.82372(10)
H23 H 0.6080 0.1142 0.8283
C22 C 0.57470(11) -0.23300(12) 0.80267(12)
C23 C 0.53596(13) -0.26845(14) 0.72026(13)
H24 H 0.5662 -0.2502 0.6919
H25 H 0.4835 -0.2453 0.6960
H26 H 0.5339 -0.3320 0.7213
C24 C 0.52783(13) -0.26140(14) 0.84986(13)
H27 H 0.5530 -0.2386 0.9011
H28 H 0.5260 -0.3250 0.8515
H29 H 0.4752 -0.2383 0.8264
C25 C 0.65575(13) -0.27781(14) 0.83838(15)
H30 H 0.6865 -0.2614 0.8100
H31 H 0.6492 -0.3410 0.8367
H32 H 0.6823 -0.2590 0.8908
C26 C 0.74976(11) 0.03621(13) 0.90143(12)
C27 C 0.80201(14) -0.03191(16) 0.96020(15)
H33 H 0.8063 -0.0847 0.9339
H34 H 0.7788 -0.0464 0.9957
H35 H 0.8534 -0.0071 0.9876
C28 C 0.74623(12) 0.11771(14) 0.94772(13)
H36 H 0.7143 0.1625 0.9135
H37 H 0.7985 0.1403 0.9753
H38 H 0.7237 0.1015 0.9834
C29 C 0.78748(14) 0.0607(2) 0.84610(15)
H39 H 0.7549 0.1031 0.8095
H40 H 0.7927 0.0084 0.8197
H41 H 0.8385 0.0859 0.8743
C30 C 0.38277(10) 0.03673(12) 0.70375(10)
C31 C 0.37849(10) -0.05475(12) 0.69096(10)
C32 C 0.30895(10) -0.09375(12) 0.63632(10)
C33 C 0.24671(11) -0.03633(13) 0.59650(10)
H42 H 0.1982 -0.0622 0.5586
C34 C 0.24878(10) 0.05487(13) 0.60778(10)
C35 C 0.31833(10) 0.08943(12) 0.66193(10)
H43 H 0.3208 0.1530 0.6734
C36 C 0.30008(11) -0.19311(13) 0.61553(12)
C37 C 0.32378(13) -0.25242(13) 0.68640(13)
H44 H 0.3772 -0.2399 0.7204
H45 H 0.3193 -0.3135 0.6710
H46 H 0.2897 -0.2411 0.7124
C38 C 0.34915(15) -0.21182(16) 0.56860(14)
H47 H 0.4033 -0.1972 0.5986
H48 H 0.3298 -0.1765 0.5228
H49 H 0.3451 -0.2735 0.5551
C39 C 0.21435(14) -0.21837(17) 0.56457(16)
H50 H 0.1816 -0.2076 0.5921
H51 H 0.2119 -0.2801 0.5513
H52 H 0.1962 -0.1832 0.5186
C40 C 0.18019(11) 0.11750(14) 0.56497(12)
C41 C 0.20631(13) 0.18487(16) 0.51925(14)
H53 H 0.2205 0.1541 0.4824
H54 H 0.2509 0.2175 0.5537
H55 H 0.1639 0.2251 0.4930
C42 C 0.10745(12) 0.06849(17) 0.50960(14)
H56 H 0.1206 0.0367 0.4726
H57 H 0.0665 0.1105 0.4836
H58 H 0.0896 0.0275 0.5378
C43 C 0.15743(13) 0.16782(16) 0.62312(14)
H59 H 0.1409 0.1263 0.6520
H60 H 0.1151 0.2080 0.5964
H61 H 0.2021 0.2006 0.6574
C44 C 0.44159(10) 0.08498(11) 0.84187(10)
C45 C 0.37957(11) 0.04164(13) 0.85070(11)
H62 H 0.3423 0.0121 0.8090
C46 C 0.37206(13) 0.04160(15) 0.92048(12)
H63 H 0.3303 0.0115 0.9249
C47 C 0.42554(13) 0.08554(14) 0.98319(11)
H64 H 0.4204 0.0855 1.0299
C48 C 0.48716(12) 0.12979(13) 0.97490(11)
H65 H 0.5236 0.1604 1.0164
C49 C 0.49528(11) 0.12915(13) 0.90604(11)
H66 H 0.5375 0.1588 0.9021
C50 C 0.38111(12) 0.05069(14) 0.35367(11)
H67 H 0.3791 0.0272 0.3054
H68 H 0.4138 0.1034 0.3657
C51 C 0.29914(12) 0.07567(14) 0.34455(11)
C52 C 0.27164(13) 0.16122(15) 0.32367(12)
H69 H 0.3057 0.2044 0.3197
C53 C 0.19432(14) 0.18378(16) 0.30854(13)
H70 H 0.1766 0.2413 0.2939
C54 C 0.14403(13) 0.12094(17) 0.31525(13)
H71 H 0.0920 0.1356 0.3047
C55 C 0.17066(14) 0.03593(17) 0.33766(15)
H72 H 0.1367 -0.0064 0.3430
C56 C 0.24812(13) 0.01295(15) 0.35230(13)
H73 H 0.2657 -0.0446 0.3673
K1B K 0.60855(3) -0.01746(4) 0.46182(3)
O1B O 0.49744(7) -0.10172(8) 0.35610(7)
O2B O 0.55818(7) 0.10955(8) 0.26790(7)
O3B O 0.58413(8) 0.01327(10) 0.58768(8)
H1B H 0.5628 0.0509 0.6088
C1B C 0.51274(10) -0.17580(12) 0.32797(10)
C2B C 0.51197(10) -0.26103(12) 0.36092(10)
C3B C 0.54113(10) -0.33350(12) 0.33551(10)
H2B H 0.5428 -0.3879 0.3591
C4B C 0.56795(10) -0.32966(12) 0.27686(10)
C5B C 0.56243(10) -0.24779(12) 0.24104(10)
H3B H 0.5777 -0.2436 0.2001
C6B C 0.53492(10) -0.17188(11) 0.26422(10)
C7B C 0.48064(11) -0.27224(13) 0.42396(11)
C8B C 0.52667(12) -0.21483(14) 0.49499(11)
H4B H 0.5130 -0.2307 0.5354
H5B H 0.5113 -0.1547 0.4813
H6B H 0.5804 -0.2228 0.5106
C9B C 0.48738(13) -0.36847(14) 0.45287(13)
H7B H 0.4596 -0.4071 0.4105
H8B H 0.5418 -0.3854 0.4758
H9B H 0.4649 -0.3729 0.4903
C10B C 0.39272(11) -0.24757(14) 0.39130(12)
H10B H 0.3645 -0.2837 0.3472
H11B H 0.3722 -0.2574 0.4297
H12B H 0.3866 -0.1862 0.3766
C11B C 0.60494(11) -0.41055(13) 0.25507(11)
C12B C 0.5981(3) -0.4943(3) 0.2948(3)
H13B H 0.6396 -0.4964 0.3452
H14B H 0.5481 -0.4954 0.2988
H15B H 0.6021 -0.5447 0.2657
C13B C 0.6937(2) -0.3893(3) 0.2774(3)
H16B H 0.7027 -0.3271 0.2881
H17B H 0.7251 -0.4228 0.3222
H18B H 0.7079 -0.4050 0.2357
C14B C 0.5670(3) -0.4239(3) 0.1692(2)
H19B H 0.5865 -0.3802 0.1445
H20B H 0.5794 -0.4821 0.1568
H21B H 0.5109 -0.4179 0.1517
C15B C 0.54547(10) -0.07983(11) 0.23411(10)
C16B C 0.47400(10) -0.01877(11) 0.21508(10)
C17B C 0.48349(10) 0.07231(12) 0.22607(10)
C18B C 0.41894(10) 0.13106(12) 0.19495(10)
C19B C 0.34561(11) 0.09197(12) 0.15476(10)
H22B H 0.3022 0.1292 0.1335
C20B C 0.33303(10) 0.00099(12) 0.14430(10)
C21B C 0.39855(10) -0.05305(12) 0.17628(10)
H23B H 0.3920 -0.1142 0.1717
C22B C 0.42530(11) 0.23300(12) 0.19733(12)
C23B C 0.46404(13) 0.26845(14) 0.27974(13)
H24B H 0.4338 0.2502 0.3081
H25B H 0.5165 0.2453 0.3040
H26B H 0.4661 0.3320 0.2787
C24B C 0.47217(13) 0.26140(14) 0.15014(13)
H27B H 0.4470 0.2386 0.0989
H28B H 0.4740 0.3250 0.1485
H29B H 0.5248 0.2383 0.1736
C25B C 0.34425(13) 0.27781(14) 0.16162(15)
H30B H 0.3135 0.2614 0.1900
H31B H 0.3508 0.3410 0.1633
H32B H 0.3177 0.2590 0.1092
C26B C 0.25024(11) -0.03621(13) 0.09857(12)
C27B C 0.19799(14) 0.03191(16) 0.03980(15)
H33B H 0.1937 0.0847 0.0661
H34B H 0.2212 0.0464 0.0043
H35B H 0.1466 0.0071 0.0124
C28B C 0.25377(12) -0.11771(14) 0.05228(13)
H36B H 0.2857 -0.1625 0.0865
H37B H 0.2015 -0.1403 0.0247
H38B H 0.2763 -0.1015 0.0166
C29B C 0.21252(14) -0.0607(2) 0.15390(15)
H39B H 0.2451 -0.1031 0.1905
H40B H 0.2073 -0.0084 0.1803
H41B H 0.1615 -0.0859 0.1257
C30B C 0.61723(10) -0.03673(12) 0.29625(10)
C31B C 0.62151(10) 0.05475(12) 0.30904(10)
C32B C 0.69105(10) 0.09375(12) 0.36368(10)
C33B C 0.75329(11) 0.03633(13) 0.40350(10)
H42B H 0.8018 0.0622 0.4414
C34B C 0.75122(10) -0.05487(13) 0.39222(10)
C35B C 0.68167(10) -0.08943(12) 0.33807(10)
H43B H 0.6792 -0.1530 0.3266
C36B C 0.69992(11) 0.19311(13) 0.38447(12)
C37B C 0.67622(13) 0.25242(13) 0.31360(13)
H44B H 0.6228 0.2399 0.2796
H45B H 0.6807 0.3135 0.3290
H46B H 0.7103 0.2411 0.2876
C38B C 0.65085(15) 0.21182(16) 0.43140(14)
H47B H 0.5967 0.1972 0.4014
H48B H 0.6702 0.1765 0.4772
H49B H 0.6549 0.2735 0.4449
C39B C 0.78565(14) 0.21837(17) 0.43543(16)
H50B H 0.8184 0.2076 0.4079
H51B H 0.7881 0.2801 0.4487
H52B H 0.8038 0.1832 0.4814
C40B C 0.81981(11) -0.11750(14) 0.43503(12)
C41B C 0.79369(13) -0.18487(16) 0.48075(14)
H53B H 0.7795 -0.1541 0.5176
H54B H 0.7491 -0.2175 0.4463
H55B H 0.8361 -0.2251 0.5070
C42B C 0.89255(12) -0.06849(17) 0.49040(14)
H56B H 0.8794 -0.0367 0.5274
H57B H 0.9335 -0.1105 0.5164
H58B H 0.9104 -0.0275 0.4622
C43B C 0.84257(13) -0.16782(16) 0.37688(14)
H59B H 0.8591 -0.1263 0.3480
H60B H 0.8849 -0.2080 0.4036
H61B H 0.7979 -0.2006 0.3426
C44B C 0.55841(10) -0.08498(11) 0.15813(10)
C45B C 0.62043(11) -0.04164(13) 0.14930(11)
H62B H 0.6577 -0.0121 0.1910
C46B C 0.62794(13) -0.04160(15) 0.07952(12)
H63B H 0.6697 -0.0115 0.0751
C47B C 0.57446(13) -0.08554(14) 0.01681(11)
H64B H 0.5796 -0.0855 -0.0299
C48B C 0.51284(12) -0.12979(13) 0.02510(11)
H65B H 0.4764 -0.1604 -0.0164
C49B C 0.50472(11) -0.12915(13) 0.09396(11)
H66B H 0.4625 -0.1588 0.0979
C50B C 0.61889(12) -0.05069(14) 0.64633(11)
H67B H 0.6209 -0.0272 0.6946
H68B H 0.5862 -0.1034 0.6343
C51B C 0.70086(12) -0.07567(14) 0.65545(11)
C52B C 0.72836(13) -0.16122(15) 0.67633(12)
H69B H 0.6943 -0.2044 0.6803
C53B C 0.80568(14) -0.18378(16) 0.69146(13)
H70B H 0.8234 -0.2413 0.7061
C54B C 0.85597(13) -0.12094(17) 0.68475(13)
H71B H 0.9080 -0.1356 0.6953
C55B C 0.82934(14) -0.03593(17) 0.66234(15)
H72B H 0.8633 0.0064 0.6570
C56B C 0.75188(13) -0.01295(15) 0.64770(13)
H73B H 0.7343 0.0446 0.6327
C57? C 0.3706(4) 0.3951(4) 0.8105(4)
H74? H 0.3339 0.3467 0.7982
H75? H 0.3462 0.4477 0.8192
H76? H 0.4162 0.3810 0.8561
C58? C 0.3235(4) 0.4403(4) 0.6752(4)
H77? H 0.2857 0.3930 0.6588
H78? H 0.3392 0.4556 0.6344
H79? H 0.3003 0.4911 0.6885
C59? C 0.4556(4) 0.4905(4) 0.7698(4)
H80? H 0.5072 0.4690 0.7783
H81? H 0.4565 0.5164 0.8163
H82? H 0.4398 0.5344 0.7299
loop_
_geom_bond_atom_site_label_1
_geom_bond_atom_site_label_2
_geom_bond_site_symmetry_1
_geom_bond_site_symmetry_2
K1 O1 1_555 1_555
O1 C1 1_555 1_555
O2 C17 1_555 1_555
O3 K1 1_555 1_555
H1 O3 1_555 1_555
C1 C2 1_555 1_555
C2 C3 1_555 1_555
C3 H2 1_555 1_555
C4 C3 1_555 1_555
C5 C4 1_555 1_555
H3 C5 1_555 1_555
C6 C1 1_555 1_555
C7 C2 1_555 1_555
C8 C7 1_555 1_555
H4 C8 1_555 1_555
H5 C8 1_555 1_555
H6 C8 1_555 1_555
C9 C7 1_555 1_555
H7 C9 1_555 1_555
H8 C9 1_555 1_555
H9 C9 1_555 1_555
C10 C7 1_555 1_555
H10 C10 1_555 1_555
H11 C10 1_555 1_555
H12 C10 1_555 1_555
C11 C4 1_555 1_555
C12 C11 1_555 1_555
H13 C12 1_555 1_555
H14 C12 1_555 1_555
H15 C12 1_555 1_555
C13 C11 1_555 1_555
H16 C13 1_555 1_555
H17 C13 1_555 1_555
H18 C13 1_555 1_555
C14 C11 1_555 1_555
H19 C14 1_555 1_555
H20 C14 1_555 1_555
H21 C14 1_555 1_555
C15 C6 1_555 1_555
C16 C15 1_555 1_555
C17 C16 1_555 1_555
C18 C17 1_555 1_555
C19 C18 1_555 1_555
H22 C19 1_555 1_555
C20 C19 1_555 1_555
C21 C16 1_555 1_555
H23 C21 1_555 1_555
C22 C18 1_555 1_555
C23 C22 1_555 1_555
H24 C23 1_555 1_555
H25 C23 1_555 1_555
H26 C23 1_555 1_555
C24 C22 1_555 1_555
H27 C24 1_555 1_555
H28 C24 1_555 1_555
H29 C24 1_555 1_555
C25 C22 1_555 1_555
H30 C25 1_555 1_555
H31 C25 1_555 1_555
H32 C25 1_555 1_555
C26 C20 1_555 1_555
C27 C26 1_555 1_555
H33 C27 1_555 1_555
H34 C27 1_555 1_555
H35 C27 1_555 1_555
C28 C26 1_555 1_555
H36 C28 1_555 1_555
H37 C28 1_555 1_555
H38 C28 1_555 1_555
C29 C26 1_555 1_555
H39 C29 1_555 1_555
H40 C29 1_555 1_555
H41 C29 1_555 1_555
C30 K1 1_555 1_555
C31 K1 1_555 1_555
C32 K1 1_555 1_555
C33 K1 1_555 1_555
H42 C33 1_555 1_555
C34 K1 1_555 1_555
C35 K1 1_555 1_555
H43 C35 1_555 1_555
C36 C32 1_555 1_555
C37 C36 1_555 1_555
H44 C37 1_555 1_555
H45 C37 1_555 1_555
H46 C37 1_555 1_555
C38 C36 1_555 1_555
H47 C38 1_555 1_555
H48 C38 1_555 1_555
H49 C38 1_555 1_555
C39 C36 1_555 1_555
H50 C39 1_555 1_555
H51 C39 1_555 1_555
H52 C39 1_555 1_555
C40 C34 1_555 1_555
C41 C40 1_555 1_555
H53 C41 1_555 1_555
H54 C41 1_555 1_555
H55 C41 1_555 1_555
C42 C40 1_555 1_555
H56 C42 1_555 1_555
H57 C42 1_555 1_555
H58 C42 1_555 1_555
C43 C40 1_555 1_555
H59 C43 1_555 1_555
H60 C43 1_555 1_555
H61 C43 1_555 1_555
C44 C15 1_555 1_555
C45 C44 1_555 1_555
H62 C45 1_555 1_555
C46 C45 1_555 1_555
H63 C46 1_555 1_555
C47 C46 1_555 1_555
H64 C47 1_555 1_555
C48 C47 1_555 1_555
H65 C48 1_555 1_555
C49 C44 1_555 1_555
H66 C49 1_555 1_555
C50 O3 1_555 1_555
H67 C50 1_555 1_555
H68 C50 1_555 1_555
C51 C50 1_555 1_555
C52 C51 1_555 1_555
H69 C52 1_555 1_555
C53 C52 1_555 1_555
H70 C53 1_555 1_555
C54 C53 1_555 1_555
H71 C54 1_555 1_555
C55 C54 1_555 1_555
H72 C55 1_555 1_555
C56 C51 1_555 1_555
H73 C56 1_555 1_555
K1B O3 1_555 1_555
O1B K1B 1_555 1_555
O2B C17B 1_555 1_555
O3B K1 1_555 1_555
H1B O3B 1_555 1_555
C1B O1B 1_555 1_555
C2B C1B 1_555 1_555
C3B C2B 1_555 1_555
H2B C3B 1_555 1_555
C4B C3B 1_555 1_555
C5B C4B 1_555 1_555
H3B C5B 1_555 1_555
C6B C1B 1_555 1_555
C7B C2B 1_555 1_555
C8B C7B 1_555 1_555
H4B C8B 1_555 1_555
H5B C8B 1_555 1_555
H6B C8B 1_555 1_555
C9B C7B 1_555 1_555
H7B C9B 1_555 1_555
H8B C9B 1_555 1_555
H9B C9B 1_555 1_555
C10B C7B 1_555 1_555
H10B C10B 1_555 1_555
H11B C10B 1_555 1_555
H12B C10B 1_555 1_555
C11B C4B 1_555 1_555
C12B C11B 1_555 1_555
H13B C12B 1_555 1_555
H14B C12B 1_555 1_555
H15B C12B 1_555 1_555
C13B C11B 1_555 1_555
H16B C13B 1_555 1_555
H17B C13B 1_555 1_555
H18B C13B 1_555 1_555
C14B C11B 1_555 1_555
H19B C14B 1_555 1_555
H20B C14B 1_555 1_555
H21B C14B 1_555 1_555
C15B C6B 1_555 1_555
C16B C15B 1_555 1_555
C17B C16B 1_555 1_555
C18B C17B 1_555 1_555
C19B C18B 1_555 1_555
H22B C19B 1_555 1_555
C20B C19B 1_555 1_555
C21B C16B 1_555 1_555
H23B C21B 1_555 1_555
C22B C18B 1_555 1_555
C23B C22B 1_555 1_555
H24B C23B 1_555 1_555
H25B C23B 1_555 1_555
H26B C23B 1_555 1_555
C24B C22B 1_555 1_555
H27B C24B 1_555 1_555
H28B C24B 1_555 1_555
H29B C24B 1_555 1_555
C25B C22B 1_555 1_555
H30B C25B 1_555 1_555
H31B C25B 1_555 1_555
H32B C25B 1_555 1_555
C26B C20B 1_555 1_555
C27B C26B 1_555 1_555
H33B C27B 1_555 1_555
H34B C27B 1_555 1_555
H35B C27B 1_555 1_555
C28B C26B 1_555 1_555
H36B C28B 1_555 1_555
H37B C28B 1_555 1_555
H38B C28B 1_555 1_555
C29B C26B 1_555 1_555
H39B C29B 1_555 1_555
H40B C29B 1_555 1_555
H41B C29B 1_555 1_555
C30B K1B 1_555 1_555
C31B K1B 1_555 1_555
C32B K1B 1_555 1_555
C33B K1B 1_555 1_555
H42B C33B 1_555 1_555
C34B K1B 1_555 1_555
C35B K1B 1_555 1_555
H43B C35B 1_555 1_555
C36B C32B 1_555 1_555
C37B C36B 1_555 1_555
H44B C37B 1_555 1_555
H45B C37B 1_555 1_555
H46B C37B 1_555 1_555
C38B C36B 1_555 1_555
H47B C38B 1_555 1_555
H48B C38B 1_555 1_555
H49B C38B 1_555 1_555
C39B C36B 1_555 1_555
H50B C39B 1_555 1_555
H51B C39B 1_555 1_555
H52B C39B 1_555 1_555
C40B C34B 1_555 1_555
C41B C40B 1_555 1_555
H53B C41B 1_555 1_555
H54B C41B 1_555 1_555
H55B C41B 1_555 1_555
C42B C40B 1_555 1_555
H56B C42B 1_555 1_555
H57B C42B 1_555 1_555
H58B C42B 1_555 1_555
C43B C40B 1_555 1_555
H59B C43B 1_555 1_555
H60B C43B 1_555 1_555
H61B C43B 1_555 1_555
C44B C15B 1_555 1_555
C45B C44B 1_555 1_555
H62B C45B 1_555 1_555
C46B C45B 1_555 1_555
H63B C46B 1_555 1_555
C47B C46B 1_555 1_555
H64B C47B 1_555 1_555
C48B C47B 1_555 1_555
H65B C48B 1_555 1_555
C49B C44B 1_555 1_555
H66B C49B 1_555 1_555
C50B O3B 1_555 1_555
H67B C50B 1_555 1_555
H68B C50B 1_555 1_555
C51B C50B 1_555 1_555
C52B C51B 1_555 1_555
H69B C52B 1_555 1_555
C53B C52B 1_555 1_555
H70B C53B 1_555 1_555
C54B C53B 1_555 1_555
H71B C54B 1_555 1_555
C55B C54B 1_555 1_555
H72B C55B 1_555 1_555
C56B C51B 1_555 1_555
H73B C56B 1_555 1_555
O2 C31 1_555 1_555
C5 C6 1_555 1_555
C15 C30 1_555 1_555
C20 C21 1_555 1_555
C30 C31 1_555 1_555
C30 C35 1_555 1_555
C31 C32 1_555 1_555
C32 C33 1_555 1_555
C33 C34 1_555 1_555
C34 C35 1_555 1_555
C48 C49 1_555 1_555
C55 C56 1_555 1_555
K1B O3B 1_555 1_555
O2B C31B 1_555 1_555
C5B C6B 1_555 1_555
C15B C30B 1_555 1_555
C20B C21B 1_555 1_555
C30B C31B 1_555 1_555
C30B C35B 1_555 1_555
C31B C32B 1_555 1_555
C32B C33B 1_555 1_555
C33B C34B 1_555 1_555
C34B C35B 1_555 1_555
C48B C49B 1_555 1_555
C55B C56B 1_555 1_555

#END
