
#######################################################################
#
#                 Cambridge Crystallographic Data Centre
#                                CCDC 
#
#######################################################################
#
# If this CIF has been generated from an entry in the Cambridge 
# Structural Database, then it will include bibliographic, chemical, 
# crystal, experimental, refinement or atomic coordinate data resulting 
# from the CCDC's data processing and validation procedures.
#
#######################################################################

data_TUGBOO
_chemical_formula_moiety         'C20 H18 Cl1 F3 N4 O1'
_chemical_name_systematic        
3-butyl-1-chloro-N'-(4-(trifluoromethyl)benzylidene)imidazo[1,5-a]pyridine-7-carbohydrazide
_symmetry_cell_setting           monoclinic
_symmetry_space_group_name_H-M   'C c'
_symmetry_Int_Tables_number      9
_space_group_name_Hall           'C -2yc'
loop_
_symmetry_equiv_pos_site_id
_symmetry_equiv_pos_as_xyz
1 x,y,z
2 x,-y,1/2+z
3 1/2+x,1/2+y,z
4 1/2+x,1/2-y,1/2+z
_cell_length_a                   11.414(11)
_cell_length_b                   18.257(18)
_cell_length_c                   9.532(9)
_cell_angle_alpha                90
_cell_angle_beta                 91.871(16)
_cell_angle_gamma                90
_cell_volume                     1985.27
_exptl_crystal_colour            yellow
_exptl_crystal_description       block
_cell_formula_units_Z            4
loop_
_atom_site_label
_atom_site_type_symbol
_atom_site_fract_x
_atom_site_fract_y
_atom_site_fract_z
Cl1 Cl 0.5622(2) 0.15014(9) 0.1290(2)
O1 O 0.2552(5) 0.0343(2) 0.7093(4)
N1 N 0.5074(6) 0.2755(3) 0.2638(6)
N2 N 0.3916(5) 0.2379(2) 0.4300(5)
N3 N 0.2813(5) -0.0291(3) 0.5075(5)
H1 H 0.3025 -0.0282 0.4217
N4 N 0.2484(5) -0.0933(3) 0.5708(5)
F1 F 0.1749(10) -0.4521(4) 0.8298(11)
F2 F 0.0153(8) -0.4291(4) 0.7692(10)
F3 F 0.0900(13) -0.4759(3) 0.6240(12)
C1 C 0.4974(13) 0.5725(4) 0.3436(15)
H2 H 0.5665 0.5630 0.2918
H3 H 0.5123 0.6122 0.4077
H4 H 0.4340 0.5855 0.2796
C2 C 0.4648(9) 0.5045(4) 0.4250(9)
H5 H 0.5149 0.5013 0.5089
H6 H 0.3846 0.5093 0.4543
C3 C 0.4759(8) 0.4347(4) 0.3421(9)
H7 H 0.5568 0.4273 0.3173
H8 H 0.4281 0.4375 0.2562
C4 C 0.4353(7) 0.3714(3) 0.4317(7)
H9 H 0.4799 0.3725 0.5200
H10 H 0.3537 0.3797 0.4528
C5 C 0.4456(6) 0.2955(3) 0.3701(6)
C6 C 0.4962(6) 0.2024(3) 0.2532(6)
C7 C 0.4230(5) 0.1749(3) 0.3568(6)
C8 C 0.3854(6) 0.1059(3) 0.4031(5)
H11 H 0.4090 0.0633 0.3586
C9 C 0.3137(5) 0.1026(3) 0.5146(5)
C10 C 0.2760(7) 0.1673(3) 0.5817(6)
H12 H 0.2245 0.1642 0.6551
C11 C 0.3143(7) 0.2336(3) 0.5395(6)
H13 H 0.2891 0.2760 0.5835
C12 C 0.2790(6) 0.0316(3) 0.5850(6)
C13 C 0.2576(7) -0.1514(3) 0.4956(7)
H14 H 0.2862 -0.1486 0.4055
C14 C 0.2218(6) -0.2231(3) 0.5543(6)
C15 C 0.2411(8) -0.2854(4) 0.4766(8)
H15 H 0.2768 -0.2815 0.3906
C16 C 0.2081(9) -0.3536(4) 0.5250(9)
H16 H 0.2207 -0.3957 0.4726
C17 C 0.1544(9) -0.3575(4) 0.6570(10)
C18 C 0.1397(9) -0.2963(4) 0.7344(8)
H17 H 0.1091 -0.3000 0.8234
C19 C 0.1697(8) -0.2283(4) 0.6828(7)
H18 H 0.1548 -0.1862 0.7343
C20 C 0.1212(10) -0.4310(4) 0.7090(11)
loop_
_geom_bond_atom_site_label_1
_geom_bond_atom_site_label_2
_geom_bond_site_symmetry_1
_geom_bond_site_symmetry_2
Cl1 C6 1_555 1_555
O1 C12 1_555 1_555
N1 C5 1_555 1_555
N2 C5 1_555 1_555
N3 H1 1_555 1_555
N4 N3 1_555 1_555
F1 C20 1_555 1_555
F2 C20 1_555 1_555
F3 C20 1_555 1_555
C1 H2 1_555 1_555
H3 C1 1_555 1_555
H4 C1 1_555 1_555
C2 C1 1_555 1_555
H5 C2 1_555 1_555
H6 C2 1_555 1_555
C3 C2 1_555 1_555
H7 C3 1_555 1_555
H8 C3 1_555 1_555
C4 C3 1_555 1_555
H9 C4 1_555 1_555
H10 C4 1_555 1_555
C5 C4 1_555 1_555
C6 N1 1_555 1_555
C7 N2 1_555 1_555
C8 C7 1_555 1_555
H11 C8 1_555 1_555
C9 C8 1_555 1_555
C10 C9 1_555 1_555
H12 C10 1_555 1_555
C11 N2 1_555 1_555
H13 C11 1_555 1_555
C12 N3 1_555 1_555
C13 N4 1_555 1_555
H14 C13 1_555 1_555
C14 C13 1_555 1_555
C15 C14 1_555 1_555
H15 C15 1_555 1_555
C16 C15 1_555 1_555
H16 C16 1_555 1_555
C17 C16 1_555 1_555
C18 C17 1_555 1_555
H17 C18 1_555 1_555
C19 C14 1_555 1_555
H18 C19 1_555 1_555
C20 C17 1_555 1_555
C6 C7 1_555 1_555
C9 C12 1_555 1_555
C10 C11 1_555 1_555
C18 C19 1_555 1_555

#END
