
#######################################################################
#
#                 Cambridge Crystallographic Data Centre
#                                CCDC 
#
#######################################################################
#
# If this CIF has been generated from an entry in the Cambridge 
# Structural Database, then it will include bibliographic, chemical, 
# crystal, experimental, refinement or atomic coordinate data resulting 
# from the CCDC's data processing and validation procedures.
#
#######################################################################

data_TUGBUU
_chemical_formula_moiety         'C21 H18 Cl2 F1 N3 O2 S1'
_chemical_name_systematic        
2-(4-chlorophenyl)-N-((6-chloropyridin-3-yl)methyl)-N'-((4-fluorophenyl)sulfonyl)-N-methylethanimidamide
_symmetry_cell_setting           monoclinic
_symmetry_space_group_name_H-M   'P 21/a'
_symmetry_Int_Tables_number      14
_space_group_name_Hall           '-P 2yab'
loop_
_symmetry_equiv_pos_site_id
_symmetry_equiv_pos_as_xyz
1 x,y,z
2 1/2-x,1/2+y,-z
3 -x,-y,-z
4 1/2+x,1/2-y,z
_cell_length_a                   8.4235(4)
_cell_length_b                   26.0074(9)
_cell_length_c                   9.8397(4)
_cell_angle_alpha                90
_cell_angle_beta                 108.273(4)
_cell_angle_gamma                90
_cell_volume                     2046.92
_exptl_crystal_colour            'light yellow'
_exptl_crystal_description       block
_cell_formula_units_Z            4
loop_
_atom_site_label
_atom_site_type_symbol
_atom_site_fract_x
_atom_site_fract_y
_atom_site_fract_z
S1 S 0.16940(8) 0.61782(2) 0.92240(6)
Cl1 Cl 0.89203(10) 0.56777(3) 1.51014(7)
Cl2 Cl 0.09308(13) 0.74727(3) 0.17880(8)
O1 O 0.1073(2) 0.66967(7) 0.9116(2)
O2 O 0.0529(2) 0.57927(8) 0.8489(2)
F1 F 0.4172(3) 0.55887(9) 1.5249(2)
N1 N 0.3380(2) 0.61011(7) 0.8813(2)
N2 N 0.5709(2) 0.62861(8) 0.8259(2)
C1 C 0.8138(3) 0.56797(10) 1.3242(3)
N3 N 0.8094(3) 0.61327(8) 1.2643(2)
C2 C 0.4263(3) 0.64476(9) 0.8400(2)
C3 C 0.3117(3) 0.71169(8) 0.6486(2)
C4 C 0.2407(3) 0.60037(9) 1.1052(3)
C5 C 0.6946(3) 0.57271(9) 1.0349(2)
C6 C 0.3461(3) 0.75798(9) 0.5936(3)
H1 H 0.4162 0.7816 0.6548
C7 C 0.1773(3) 0.73426(10) 0.3608(3)
C8 C 0.7635(3) 0.52287(9) 1.2501(3)
H2 H 0.7705 0.4916 1.2973
C9 C 0.6311(3) 0.57695(9) 0.8739(3)
H3 H 0.7205 0.5680 0.8356
H4 H 0.5409 0.5525 0.8365
C10 C 0.7024(3) 0.52591(9) 1.1035(3)
H5 H 0.6661 0.4963 1.0500
C11 C 0.2089(3) 0.67698(9) 0.5550(3)
H6 H 0.1844 0.6457 0.5897
C12 C 0.7511(3) 0.61481(9) 1.1216(3)
H7 H 0.7484 0.6466 1.0775
C13 C 0.3810(3) 0.70070(9) 0.8075(3)
H8 H 0.4797 0.7216 0.8484
H9 H 0.2985 0.7105 0.8529
C14 C 0.2788(3) 0.76978(10) 0.4504(3)
H10 H 0.3016 0.8011 0.4151
C15 C 0.1422(3) 0.68790(10) 0.4115(3)
H11 H 0.0741 0.6641 0.3495
C16 C 0.6783(3) 0.66072(11) 0.7683(3)
H12 H 0.6142 0.6888 0.7154
H13 H 0.7213 0.6404 0.7062
H14 H 0.7696 0.6739 0.8458
C17 C 0.3675(3) 0.62809(11) 1.1985(3)
H15 H 0.4126 0.6564 1.1660
C18 C 0.1724(4) 0.55845(10) 1.1522(3)
H16 H 0.0871 0.5396 1.0886
C19 C 0.3587(5) 0.57263(14) 1.3848(3)
C20 C 0.2321(5) 0.54463(12) 1.2953(4)
H17 H 0.1867 0.5168 1.3295
C21 C 0.4276(4) 0.61385(14) 1.3404(3)
H18 H 0.5138 0.6322 1.4045
loop_
_geom_bond_atom_site_label_1
_geom_bond_atom_site_label_2
_geom_bond_site_symmetry_1
_geom_bond_site_symmetry_2
S1 O1 1_555 1_555
Cl1 C1 1_555 1_555
Cl2 C7 1_555 1_555
O2 S1 1_555 1_555
F1 C19 1_555 1_555
N1 S1 1_555 1_555
N2 C2 1_555 1_555
C1 N3 1_555 1_555
N3 C12 1_555 1_555
C2 N1 1_555 1_555
C3 C6 1_555 1_555
C4 S1 1_555 1_555
C5 C9 1_555 1_555
C6 H1 1_555 1_555
C7 C14 1_555 1_555
C8 C1 1_555 1_555
H2 C8 1_555 1_555
C9 N2 1_555 1_555
H3 C9 1_555 1_555
H4 C9 1_555 1_555
C10 C5 1_555 1_555
H5 C10 1_555 1_555
C11 C3 1_555 1_555
H6 C11 1_555 1_555
C12 C5 1_555 1_555
H7 C12 1_555 1_555
C13 C2 1_555 1_555
H8 C13 1_555 1_555
H9 C13 1_555 1_555
C14 C6 1_555 1_555
H10 C14 1_555 1_555
C15 C7 1_555 1_555
H11 C15 1_555 1_555
C16 N2 1_555 1_555
H12 C16 1_555 1_555
H13 C16 1_555 1_555
H14 C16 1_555 1_555
C17 C4 1_555 1_555
H15 C17 1_555 1_555
C18 C4 1_555 1_555
H16 C18 1_555 1_555
C19 C20 1_555 1_555
C20 C18 1_555 1_555
H17 C20 1_555 1_555
C21 C17 1_555 1_555
H18 C21 1_555 1_555
C3 C13 1_555 1_555
C8 C10 1_555 1_555
C11 C15 1_555 1_555
C19 C21 1_555 1_555

#END
