
#######################################################################
#
#                 Cambridge Crystallographic Data Centre
#                                CCDC 
#
#######################################################################
#
# If this CIF has been generated from an entry in the Cambridge 
# Structural Database, then it will include bibliographic, chemical, 
# crystal, experimental, refinement or atomic coordinate data resulting 
# from the CCDC's data processing and validation procedures.
#
#######################################################################

data_TUGJEL
_chemical_formula_moiety         'C60 H66 N6 O12,5(C3 H7 N1 O1),H2 O1'
_chemical_name_systematic        
'6,7,20,21,34,35-hexaethoxy-43,44,45,46,47,48-hexamethyl-3,10,17,24,31,38-hexaazaheptacyclo[38.2.2.2^12,15^.2^26,29^.0^4,9^.0^18,23^.0^32,37^]octatetraconta-1(42),2,4,6,8,10,12,14,16,18,20,22,24,26,28,30,32,34,36,38,40,43,45,47-tetracosaene-13,14,27,28,41,42-hexol N,N-dimethylformamide solvate monohydrate'
_symmetry_cell_setting           triclinic
_symmetry_space_group_name_H-M   'P -1'
_symmetry_Int_Tables_number      2
_space_group_name_Hall           '-P 1'
loop_
_symmetry_equiv_pos_site_id
_symmetry_equiv_pos_as_xyz
1 x,y,z
2 -x,-y,-z
_cell_length_a                   12.3499(14)
_cell_length_b                   17.709(3)
_cell_length_c                   19.450(3)
_cell_angle_alpha                64.827(5)
_cell_angle_beta                 84.172(6)
_cell_angle_gamma                80.874(6)
_cell_volume                     3798.31
_exptl_crystal_colour            red
_exptl_crystal_description       prism
_cell_formula_units_Z            2
loop_
_atom_site_label
_atom_site_type_symbol
_atom_site_fract_x
_atom_site_fract_y
_atom_site_fract_z
O1 O -0.8235(3) -0.1355(2) -0.2260(2)
O2 O -0.2745(3) -0.9300(2) 0.4585(2)
O3 O 0.2833(3) -0.0563(2) 0.2868(2)
O4 O -0.7655(3) 0.0133(2) -0.2638(2)
O5 O -0.1122(3) -0.9063(2) 0.5176(2)
N1 N -0.5514(3) -0.2662(3) -0.0280(3)
O6 O 0.1995(3) 0.0853(2) 0.1802(2)
O7 O -0.3193(3) -0.4763(3) 0.1892(3)
O8 O -0.1752(3) -0.1583(2) 0.1026(3)
C1 C -0.1976(4) -0.0069(3) 0.0307(3)
N2 N -0.0572(3) -0.0647(3) 0.1220(3)
C2 C -0.5710(4) -0.1153(3) -0.1089(3)
N3 N -0.3150(3) -0.6320(3) 0.2746(3)
C3 C -0.7409(4) -0.1326(3) -0.1857(3)
N4 N -0.4846(3) -0.1080(3) -0.0694(3)
O9 O -0.1768(3) -0.4606(3) 0.3364(3)
O10 O -0.4062(4) -0.3390(3) 0.0744(3)
C4 C -0.2282(4) -0.0864(4) 0.0495(3)
C5 C 0.1547(4) 0.0154(3) 0.1898(3)
O11 O -0.1103(3) -0.3135(3) 0.2966(3)
O12 O -0.3373(3) -0.1751(2) 0.0327(2)
C6 C -0.2467(4) -0.8495(3) 0.4261(3)
N5 N 0.0370(3) -0.2127(3) 0.2314(3)
C7 C -0.3940(4) -0.6357(3) 0.2372(3)
H1 H -0.4196 -0.6870 0.2508
C8 C -0.3005(4) -0.7830(3) 0.3667(3)
H2 H -0.3603 -0.7913 0.3465
C9 C 0.0698(4) 0.0149(3) 0.1492(3)
H3 H 0.0387 0.0652 0.1120
C10 C -0.4430(4) -0.5618(3) 0.1747(3)
C11 C -0.1754(4) -0.6910(3) 0.3681(3)
C12 C -0.5325(4) -0.5656(3) 0.1349(3)
C13 C -0.1576(4) -0.8370(3) 0.4580(3)
C14 C -0.4030(4) -0.4853(4) 0.1540(3)
N6 N -0.1433(4) -0.6092(3) 0.3391(3)
C15 C 0.0780(4) -0.1366(3) 0.2171(3)
C16 C -0.2658(4) -0.7033(3) 0.3367(3)
C17 C -0.0381(4) -0.3738(3) 0.2862(3)
C18 C -0.0720(4) -0.4528(3) 0.3073(3)
C19 C -0.3691(4) -0.0250(3) -0.0445(3)
C20 C -0.2553(4) 0.0659(3) -0.0274(3)
C21 C -0.3129(4) -0.0965(4) 0.0130(3)
C22 C -0.6870(4) -0.2012(3) -0.1288(3)
H4 H -0.7067 -0.2542 -0.1164
C23 C -0.1085(4) 0.0002(4) 0.0700(3)
H5 H -0.0880 0.0530 0.0573
C24 C 0.0295(4) -0.0603(3) 0.1631(3)
C25 C -0.4574(4) -0.0357(4) -0.0823(3)
H6 H -0.4964 0.0122 -0.1176
C26 C -0.6032(4) -0.1942(3) -0.0886(3)
C27 C -0.6255(4) -0.0456(3) -0.1679(3)
H7 H -0.6045 0.0072 -0.1813
C28 C -0.5913(4) -0.3364(4) -0.0007(3)
H8 H -0.6566 -0.3378 -0.0198
C29 C -0.5412(4) -0.4138(3) 0.0579(3)
C30 C -0.7087(4) -0.0520(3) -0.2068(3)
C31 C -0.5821(4) -0.4921(3) 0.0787(3)
C32 C 0.1047(4) -0.5028(3) 0.2628(3)
C33 C 0.2005(4) -0.0618(4) 0.2473(3)
C34 C -0.4505(5) -0.4113(4) 0.0937(3)
C35 C -0.1225(4) -0.7588(3) 0.4291(3)
H9 H -0.0634 -0.7508 0.4502
C36 C -0.3501(4) -0.9491(3) 0.4191(3)
H10 H -0.3214 -0.9397 0.3682
H11 H -0.4198 -0.9138 0.4153
C37 C 0.3245(4) -0.1327(4) 0.3499(3)
H12 H 0.3561 -0.1754 0.3322
H13 H 0.2656 -0.1543 0.3869
C38 C -0.3399(4) 0.0564(3) -0.0635(3)
C39 C -0.0022(4) -0.5179(3) 0.2977(3)
C40 C 0.1609(4) 0.1639(3) 0.1181(3)
H14 H 0.0831 0.1793 0.1254
H15 H 0.1728 0.1586 0.0702
C41 C -0.8621(4) -0.2158(3) -0.2017(3)
H16 H -0.8872 -0.2363 -0.1487
H17 H -0.8037 -0.2567 -0.2072
C42 C 0.1056(4) -0.2783(4) 0.2358(3)
H18 H 0.1800 -0.2733 0.2267
C43 C 0.1627(4) -0.1362(3) 0.2596(3)
H19 H 0.1940 -0.1866 0.2967
C44 C -0.6800(4) -0.4931(4) 0.0373(3)
H20 H -0.7029 -0.4372 0.0005
H21 H -0.7395 -0.5130 0.0733
H22 H -0.6594 -0.5298 0.0120
C45 C -0.4008(5) 0.1329(3) -0.1255(3)
H23 H -0.4565 0.1153 -0.1443
H24 H -0.3499 0.1595 -0.1663
H25 H -0.4341 0.1719 -0.1048
C46 C 0.0159(4) -0.9848(3) 0.6139(3)
H26 H 0.0786 -0.9827 0.6381
H27 H 0.0341 -1.0252 0.5924
H28 H -0.0437 -1.0010 0.6507
C47 C -0.2192(5) 0.1516(3) -0.0467(3)
H29 H -0.1597 0.1446 -0.0155
H30 H -0.2797 0.1879 -0.0375
H31 H -0.1955 0.1762 -0.0993
C48 C 0.1788(4) -0.5740(4) 0.2492(4)
H32 H 0.1411 -0.6227 0.2671
H33 H 0.2452 -0.5877 0.2761
H34 H 0.1963 -0.5559 0.1958
C49 C -0.5717(4) -0.6503(3) 0.1571(3)
H35 H -0.5275 -0.6930 0.1967
H36 H -0.5653 -0.6634 0.1136
H37 H -0.6470 -0.6481 0.1749
C50 C 0.4102(5) -0.1104(4) 0.3847(4)
H38 H 0.4397 -0.1595 0.4272
H39 H 0.3779 -0.0680 0.4018
H40 H 0.4680 -0.0892 0.3476
C51 C -0.7411(4) 0.0969(3) -0.2835(3)
H41 H -0.6648 0.1013 -0.3002
H42 H -0.7549 0.1108 -0.2400
C52 C -0.9562(4) -0.2024(4) -0.2518(3)
H43 H -0.9850 -0.2546 -0.2371
H44 H -0.9301 -0.1827 -0.3039
H45 H -1.0130 -0.1614 -0.2461
C53 C -0.0178(4) -0.8996(3) 0.5519(3)
H46 H -0.0364 -0.8581 0.5729
H47 H 0.0418 -0.8824 0.5143
C54 C -0.3644(5) -1.0407(3) 0.4648(4)
H48 H -0.4145 -1.0565 0.4401
H49 H -0.3931 -1.0489 0.5149
H50 H -0.2947 -1.0748 0.4683
C55 C 0.2506(4) -0.4050(4) 0.2003(4)
H51 H 0.2605 -0.3488 0.1910
H52 H 0.2521 -0.4096 0.1527
H53 H 0.3086 -0.4439 0.2308
C56 C 0.1407(4) -0.4254(3) 0.2420(3)
C57 C 0.2260(5) 0.2298(4) 0.1181(4)
H54 H 0.2032 0.2831 0.0773
H55 H 0.3028 0.2135 0.1111
H56 H 0.2131 0.2346 0.1657
C58 C -0.0408(5) -0.5990(3) 0.3217(3)
H57 H 0.0096 -0.6452 0.3247
C59 C 0.0691(4) -0.3598(3) 0.2546(3)
C60 C -0.8152(5) 0.1557(3) -0.3469(3)
H58 H -0.8014 0.2125 -0.3619
H59 H -0.8904 0.1507 -0.3296
H60 H -0.8008 0.1412 -0.3896
H96 H -0.399(5) -0.160(4) -0.005(4)
H97 H -0.192(4) -0.502(3) 0.339(3)
H98 H -0.131(6) -0.152(4) 0.128(4)
H99 H -0.451(6) -0.291(5) 0.033(4)
H100 H -0.289(7) -0.542(6) 0.232(6)
H101 H -0.083(4) -0.269(4) 0.279(3)
N7 N -0.3238(3) -1.1503(3) 0.6697(3)
C61 C -0.3436(5) -1.2044(4) 0.6432(3)
H61 H -0.2869 -1.2210 0.6153
O13 O -0.4296(3) -1.2347(3) 0.6522(2)
C62 C -0.4093(5) -1.1184(4) 0.7118(4)
H62 H -0.3807 -1.0806 0.7269
H63 H -0.4327 -1.1646 0.7562
H64 H -0.4705 -1.0891 0.6801
C63 C -0.2224(5) -1.1106(4) 0.6468(4)
H65 H -0.2215 -1.0736 0.6712
H66 H -0.2192 -1.0790 0.5927
H67 H -0.1601 -1.1533 0.6616
N8 N 0.0350(4) 0.3548(3) -0.0571(3)
C64 C -0.0342(6) 0.2995(5) -0.0376(4)
H68 H -0.0170 0.2566 -0.0540
O14 O -0.1202(4) 0.2994(4) 0.0007(3)
C65 C 0.1308(5) 0.3527(4) -0.1049(4)
H69 H 0.1703 0.3985 -0.1130
H70 H 0.1091 0.3578 -0.1529
H71 H 0.1770 0.3004 -0.0808
C66 C 0.0127(6) 0.4249(6) -0.0350(6)
H72 H 0.0712 0.4592 -0.0543
H73 H 0.0075 0.4036 0.0194
H74 H -0.0552 0.4580 -0.0557
N9 N -0.5594(4) 0.3027(3) -0.2730(3)
C67 C -0.4679(6) 0.3233(4) -0.2607(5)
H75 H -0.4670 0.3310 -0.2163
O15 O -0.3828(4) 0.3336(3) -0.3012(3)
C68 C -0.5745(6) 0.2926(5) -0.3411(5)
H76 H -0.6464 0.2774 -0.3391
H77 H -0.5201 0.2492 -0.3449
H78 H -0.5671 0.3446 -0.3847
C69 C -0.6508(5) 0.2858(5) -0.2179(4)
H79 H -0.7094 0.2718 -0.2374
H80 H -0.6760 0.3349 -0.2086
H81 H -0.6275 0.2396 -0.1713
N10 N -0.8624(4) 0.3745(3) -0.5102(3)
C70 C -0.8177(5) 0.3197(4) -0.5382(4)
H82 H -0.7441 0.3209 -0.5538
O16 O -0.8650(3) 0.2675(3) -0.5454(3)
C71 C -0.9780(5) 0.3782(5) -0.4861(4)
H83 H -0.9963 0.4210 -0.4674
H84 H -0.9918 0.3248 -0.4465
H85 H -1.0223 0.3913 -0.5285
C72 C -0.8010(6) 0.4378(5) -0.5080(5)
H86 H -0.8471 0.4714 -0.4859
H87 H -0.7779 0.4732 -0.5587
H88 H -0.7377 0.4102 -0.4778
N11 N -0.4844(5) -0.5815(4) 0.4071(4)
C73 C -0.4593(6) -0.6617(5) 0.4505(5)
H89 H -0.4932 -0.7004 0.4425
C74 C -0.4333(7) -0.5165(5) 0.4140(5)
H90 H -0.4632 -0.4622 0.3777
H91 H -0.3556 -0.5252 0.4045
H92 H -0.4476 -0.5193 0.4644
C75 C -0.5630(6) -0.5568(5) 0.3469(4)
H93 H -0.5736 -0.4966 0.3201
H94 H -0.6318 -0.5763 0.3693
H95 H -0.5348 -0.5814 0.3122
O17 O -0.3912(5) -0.6893(3) 0.5029(3)
O18 O -0.2312(4) 0.3439(4) -0.4205(3)
loop_
_geom_bond_atom_site_label_1
_geom_bond_atom_site_label_2
_geom_bond_site_symmetry_1
_geom_bond_site_symmetry_2
O1 C3 1_555 1_555
O2 C6 1_555 1_555
O3 C33 1_555 1_555
O4 C30 1_555 1_555
O5 C13 1_555 1_555
N1 C26 1_555 1_555
O6 C5 1_555 1_555
O7 C14 1_555 1_555
O8 C4 1_555 1_555
C1 C4 1_555 1_555
N2 C23 1_555 1_555
C2 N4 1_555 1_555
N3 C7 1_555 1_555
C3 C22 1_555 1_555
N4 C25 1_555 1_555
O9 C18 1_555 1_555
O10 C34 1_555 1_555
C4 C21 1_555 1_555
C5 C9 1_555 1_555
O11 C17 1_555 1_555
O12 C21 1_555 1_555
C6 C8 1_555 1_555
N5 C15 1_555 1_555
C7 H1 1_555 1_555
C8 H2 1_555 1_555
C9 H3 1_555 1_555
C10 C7 1_555 1_555
C11 N6 1_555 1_555
C12 C10 1_555 1_555
C13 C6 1_555 1_555
C14 C10 1_555 1_555
N6 C58 1_555 1_555
C15 C24 1_555 1_555
C16 N3 1_555 1_555
C17 C18 1_555 1_555
C18 C39 1_555 1_555
C19 C21 1_555 1_555
C20 C1 1_555 1_555
C22 H4 1_555 1_555
C23 C1 1_555 1_555
H5 C23 1_555 1_555
C24 N2 1_555 1_555
C25 C19 1_555 1_555
H6 C25 1_555 1_555
C26 C2 1_555 1_555
C27 C2 1_555 1_555
H7 C27 1_555 1_555
C28 N1 1_555 1_555
H8 C28 1_555 1_555
C29 C28 1_555 1_555
C30 C3 1_555 1_555
C31 C12 1_555 1_555
C32 C39 1_555 1_555
C33 C5 1_555 1_555
C34 C14 1_555 1_555
C35 C11 1_555 1_555
H9 C35 1_555 1_555
C36 O2 1_555 1_555
H10 C36 1_555 1_555
H11 C36 1_555 1_555
C37 O3 1_555 1_555
H12 C37 1_555 1_555
H13 C37 1_555 1_555
C38 C19 1_555 1_555
C39 C58 1_555 1_555
C40 O6 1_555 1_555
H14 C40 1_555 1_555
H15 C40 1_555 1_555
C41 O1 1_555 1_555
H16 C41 1_555 1_555
H17 C41 1_555 1_555
C42 N5 1_555 1_555
H18 C42 1_555 1_555
C43 C15 1_555 1_555
H19 C43 1_555 1_555
C44 C31 1_555 1_555
H20 C44 1_555 1_555
H21 C44 1_555 1_555
H22 C44 1_555 1_555
C45 C38 1_555 1_555
H23 C45 1_555 1_555
H24 C45 1_555 1_555
H25 C45 1_555 1_555
C46 H26 1_555 1_555
H27 C46 1_555 1_555
H28 C46 1_555 1_555
C47 C20 1_555 1_555
H29 C47 1_555 1_555
H30 C47 1_555 1_555
H31 C47 1_555 1_555
C48 C32 1_555 1_555
H32 C48 1_555 1_555
H33 C48 1_555 1_555
H34 C48 1_555 1_555
C49 C12 1_555 1_555
H35 C49 1_555 1_555
H36 C49 1_555 1_555
H37 C49 1_555 1_555
C50 C37 1_555 1_555
H38 C50 1_555 1_555
H39 C50 1_555 1_555
H40 C50 1_555 1_555
C51 O4 1_555 1_555
H41 C51 1_555 1_555
H42 C51 1_555 1_555
C52 C41 1_555 1_555
H43 C52 1_555 1_555
H44 C52 1_555 1_555
H45 C52 1_555 1_555
C53 O5 1_555 1_555
H46 C53 1_555 1_555
H47 C53 1_555 1_555
C54 C36 1_555 1_555
H48 C54 1_555 1_555
H49 C54 1_555 1_555
H50 C54 1_555 1_555
C55 H51 1_555 1_555
H52 C55 1_555 1_555
H53 C55 1_555 1_555
C56 C32 1_555 1_555
C57 C40 1_555 1_555
H54 C57 1_555 1_555
H55 C57 1_555 1_555
H56 C57 1_555 1_555
C58 H57 1_555 1_555
C59 C17 1_555 1_555
C60 C51 1_555 1_555
H58 C60 1_555 1_555
H59 C60 1_555 1_555
H60 C60 1_555 1_555
N7 C61 1_555 1_555
C61 H61 1_555 1_555
O13 C61 1_555 1_555
C62 N7 1_555 1_555
H62 C62 1_555 1_555
H63 C62 1_555 1_555
H64 C62 1_555 1_555
C63 N7 1_555 1_555
H65 C63 1_555 1_555
H66 C63 1_555 1_555
H67 C63 1_555 1_555
N8 C64 1_555 1_555
C64 H68 1_555 1_555
O14 C64 1_555 1_555
C65 N8 1_555 1_555
H69 C65 1_555 1_555
H70 C65 1_555 1_555
H71 C65 1_555 1_555
C66 N8 1_555 1_555
H72 C66 1_555 1_555
H73 C66 1_555 1_555
H74 C66 1_555 1_555
N9 C67 1_555 1_555
C67 H75 1_555 1_555
O15 C67 1_555 1_555
C68 N9 1_555 1_555
H76 C68 1_555 1_555
H77 C68 1_555 1_555
H78 C68 1_555 1_555
C69 N9 1_555 1_555
H79 C69 1_555 1_555
H80 C69 1_555 1_555
H81 C69 1_555 1_555
N10 C70 1_555 1_555
C70 H82 1_555 1_555
O16 C70 1_555 1_555
C71 N10 1_555 1_555
H83 C71 1_555 1_555
H84 C71 1_555 1_555
H85 C71 1_555 1_555
C72 N10 1_555 1_555
H86 C72 1_555 1_555
H87 C72 1_555 1_555
H88 C72 1_555 1_555
N11 C73 1_555 1_555
C73 H89 1_555 1_555
C74 N11 1_555 1_555
H90 C74 1_555 1_555
H91 C74 1_555 1_555
H92 C74 1_555 1_555
C75 N11 1_555 1_555
H93 C75 1_555 1_555
H94 C75 1_555 1_555
H95 C75 1_555 1_555
O17 C73 1_555 1_555
H96 O12 1_555 1_555
H97 O9 1_555 1_555
H98 O8 1_555 1_555
H99 O10 1_555 1_555
H100 O7 1_555 1_555
H101 O11 1_555 1_555
C8 C16 1_555 1_555
C9 C24 1_555 1_555
C11 C16 1_555 1_555
C13 C35 1_555 1_555
C20 C38 1_555 1_555
C22 C26 1_555 1_555
C27 C30 1_555 1_555
C29 C31 1_555 1_555
C29 C34 1_555 1_555
C33 C43 1_555 1_555
C42 C59 1_555 1_555
C46 C53 1_555 1_555
C55 C56 1_555 1_555
C56 C59 1_555 1_555

#END
