
#######################################################################
#
#                 Cambridge Crystallographic Data Centre
#                                CCDC 
#
#######################################################################
#
# If this CIF has been generated from an entry in the Cambridge 
# Structural Database, then it will include bibliographic, chemical, 
# crystal, experimental, refinement or atomic coordinate data resulting 
# from the CCDC's data processing and validation procedures.
#
#######################################################################

data_TUGJAG
_chemical_formula_moiety         'C16 H17 N5 O4 S1,0.5(H2 O1)'
_chemical_name_systematic        
"5'-Deoxy-5'-(phenylsulfinyl(S~R~))adenosine hemihydrate"
_symmetry_cell_setting           tetragonal
_symmetry_space_group_name_H-M   'P 41 21 2'
_symmetry_Int_Tables_number      92
_space_group_name_Hall           'P 4abw 2nw'
loop_
_symmetry_equiv_pos_site_id
_symmetry_equiv_pos_as_xyz
1 x,y,z
2 1/2-y,1/2+x,1/4+z
3 1/2+x,1/2-y,3/4-z
4 -x,-y,1/2+z
5 y,x,-z
6 1/2+y,1/2-x,3/4+z
7 1/2-x,1/2+y,1/4-z
8 -y,-x,1/2-z
_cell_length_a                   9.728(4)
_cell_length_b                   9.728(4)
_cell_length_c                   39.070(17)
_cell_angle_alpha                90
_cell_angle_beta                 90
_cell_angle_gamma                90
_cell_volume                     3697.35
_exptl_crystal_colour            colorless
_cell_formula_units_Z            8
loop_
_atom_site_label
_atom_site_type_symbol
_atom_site_fract_x
_atom_site_fract_y
_atom_site_fract_z
N1 N -0.0668(4) 0.5233(4) 0.0022(1)
C1 C -0.1348(5) 0.5574(5) 0.0307(1)
H1 H -0.1880 0.6310 0.0282
N2 N -0.1329(4) 0.5004(4) 0.0616(1)
C2 C -0.0424(5) 0.3959(4) 0.0621(1)
C3 C 0.0367(5) 0.3497(5) 0.0355(1)
C4 C 0.0209(5) 0.4163(5) 0.0038(1)
N3 N 0.0869(6) 0.3779(5) -0.0241(1)
H2 H 0.1635 0.2946 -0.0272
H3 H 0.0672 0.4208 -0.0454
N4 N 0.1218(4) 0.2436(4) 0.0459(1)
C5 C 0.0885(5) 0.2259(4) 0.0781(1)
H4 H 0.1271 0.1609 0.0935
N5 N -0.0084(4) 0.3136(3) 0.0899(1)
C6 C -0.0713(4) 0.3085(4) 0.1235(4)
H5 H -0.0134 0.2583 0.1353
C7 C -0.0824(4) 0.4456(4) 0.1417(1)
H6 H -0.1014 0.5164 0.1260
O1 O 0.0420(3) 0.4805(3) 0.1579(1)
H7 H 0.0624 0.5749 0.1545
C8 C -0.2035(5) 0.4184(5) 0.1658(1)
H8 H -0.2339 0.5045 0.1723
O2 O -0.1658(4) 0.3301(3) 0.1932(1)
H9 H -0.1221 0.3983 0.2115
C9 C -0.2975(4) 0.3373(5) 0.1423(1)
H10 H -0.3570 0.2691 0.1552
O3 O -0.2082(3) 0.2590(3) 0.1200(1)
C10 C -0.3895(5) 0.4298(5) 0.1212(1)
H11 H -0.3518 0.4971 0.1110
H12 H -0.4549 0.4655 0.1373
S1 S -0.4786(1) 0.3375(1) 0.0884(1)
O4 O -0.5720(4) 0.2414(3) 0.1079(1)
C11 C -0.5836(5) 0.4738(5) 0.0732(1)
C12 C -0.7021(5) 0.5096(6) 0.0906(1)
H13 H -0.7275 0.4631 0.1113
C13 C -0.7828(7) 0.6131(7) 0.0779(2)
H14 H -0.8657 0.6383 0.0897
C14 C -0.7479(9) 0.6797(7) 0.0490(3)
H15 H -0.8032 0.7545 0.0407
C15 C -0.6330(10) 0.6405(11) 0.0314(3)
H16 H -0.6104 0.6845 0.0101
C16 C -0.5493(8) 0.5387(10) 0.0440(2)
H17 H -0.4670 0.5138 0.0319
O5 O 0.9574(13) 0.9574(13) 0.0000
H18 H 1.0585 0.9565 0.0113
H18D H 0.9565 1.0585 -0.0113
loop_
_geom_bond_atom_site_label_1
_geom_bond_atom_site_label_2
_geom_bond_site_symmetry_1
_geom_bond_site_symmetry_2
N1 C1 1_555 1_555
C1 H1 1_555 1_555
N2 C1 1_555 1_555
C2 N2 1_555 1_555
C3 C2 1_555 1_555
C4 N1 1_555 1_555
N3 C4 1_555 1_555
H2 N3 1_555 1_555
H3 N3 1_555 1_555
N4 C3 1_555 1_555
C5 N4 1_555 1_555
H4 C5 1_555 1_555
N5 C2 1_555 1_555
C6 N5 1_555 1_555
H5 C6 1_555 1_555
C7 C6 1_555 1_555
H6 C7 1_555 1_555
O1 C7 1_555 1_555
H7 O1 1_555 1_555
C8 C7 1_555 1_555
H8 C8 1_555 1_555
O2 C8 1_555 1_555
H9 O2 1_555 1_555
C9 C8 1_555 1_555
H10 C9 1_555 1_555
O3 C6 1_555 1_555
C10 C9 1_555 1_555
H11 C10 1_555 1_555
H12 C10 1_555 1_555
S1 C10 1_555 1_555
O4 S1 1_555 1_555
C11 S1 1_555 1_555
C12 C11 1_555 1_555
H13 C12 1_555 1_555
C13 C12 1_555 1_555
H14 C13 1_555 1_555
C14 C13 1_555 1_555
H15 C14 1_555 1_555
C15 C14 1_555 1_555
H16 C15 1_555 1_555
C16 C11 1_555 1_555
H17 C16 1_555 1_555
O5 H18 1_555 1_555
H18D O5 1_555 1_555
C3 C4 1_555 1_555
C5 N5 1_555 1_555
C9 O3 1_555 1_555
C15 C16 1_555 1_555

#END
