
#######################################################################
#
#                 Cambridge Crystallographic Data Centre
#                                CCDC 
#
#######################################################################
#
# If this CIF has been generated from an entry in the Cambridge 
# Structural Database, then it will include bibliographic, chemical, 
# crystal, experimental, refinement or atomic coordinate data resulting 
# from the CCDC's data processing and validation procedures.
#
#######################################################################

data_TUGQET
_chemical_name_common            
'5,11,17,23-tetra-t-butyl-25,26,27,28-tetrakis((diethoxyphosphoryl)oxy)-2,8,14,20-tetrathiacalix(4)arene hemihydrate'
_chemical_formula_moiety         'C56 H84 O16 P4 S4,0.5(H2 O1)'
_chemical_name_systematic        
'octaethyl 5,11,17,23-tetra-t-butyl-2,8,14,20-tetrathiapentacyclo[19.3.1.1^3,7^.1^9,13^.1^15,19^]octacosa-1(25),3(28),4,6,9(27),10,12,15(26),16,18,21,23-dodecaene-25,26,27,28-tetrayl tetrakis(phosphate) hemihydrate'
_symmetry_cell_setting           triclinic
_symmetry_space_group_name_H-M   'P -1'
_symmetry_Int_Tables_number      2
_space_group_name_Hall           '-P 1'
loop_
_symmetry_equiv_pos_site_id
_symmetry_equiv_pos_as_xyz
1 x,y,z
2 -x,-y,-z
_cell_length_a                   11.585(2)
_cell_length_b                   13.777(3)
_cell_length_c                   21.038(5)
_cell_angle_alpha                88.757(6)
_cell_angle_beta                 80.115(4)
_cell_angle_gamma                77.381(5)
_cell_volume                     3227.61
_exptl_crystal_colour            colorless
_exptl_crystal_description       prism
_cell_formula_units_Z            2
loop_
_atom_site_label
_atom_site_type_symbol
_atom_site_fract_x
_atom_site_fract_y
_atom_site_fract_z
C1 C 0.04550(13) 0.23530(11) 0.31858(8)
C2 C -0.01237(14) 0.18733(12) 0.27998(7)
C3 C -0.04786(14) 0.10032(12) 0.30160(8)
H1 H -0.0897 0.0695 0.2757
C4 C -0.02433(13) 0.05664(12) 0.35973(8)
C5 C 0.03843(14) 0.10400(12) 0.39581(8)
H2 H 0.0560 0.0761 0.4357
C6 C 0.07631(13) 0.19080(12) 0.37550(8)
C7 C -0.06780(14) -0.03758(12) 0.38381(8)
C8 C -0.09826(16) -0.09381(13) 0.32877(8)
H3 H -0.1667 -0.0526 0.3123
H4 H -0.1188 -0.1562 0.3450
H5 H -0.0287 -0.1085 0.2939
C9 C -0.18195(15) -0.00632(13) 0.43502(8)
H6 H -0.2445 0.0377 0.4155
H7 H -0.1636 0.0288 0.4707
H8 H -0.2104 -0.0656 0.4513
C10 C 0.02897(15) -0.10983(13) 0.41331(9)
H9 H -0.0020 -0.1679 0.4298
H10 H 0.0504 -0.0763 0.4488
H11 H 0.1003 -0.1313 0.3802
O1 O 0.07634(10) 0.32480(8) 0.29865(5)
P1 P -0.01110(4) 0.42662(3) 0.32952(2)
O2 O -0.05901(12) 0.41832(9) 0.39771(6)
O3 O -0.11289(11) 0.45727(9) 0.28822(6)
C11 C -0.08929(18) 0.48718(14) 0.22045(9)
H12 H -0.1414 0.4611 0.1955
H13 H -0.0046 0.4585 0.2015
C12 C -0.1134(2) 0.59937(15) 0.21602(12)
H14 H -0.1978 0.6276 0.2338
H15 H -0.0966 0.6181 0.1707
H16 H -0.0617 0.6251 0.2406
C13 C 0.16837(18) 0.50928(14) 0.34341(10)
H17 H 0.2438 0.4654 0.3218
H18 H 0.1509 0.4879 0.3886
C14 C 0.1809(5) 0.6153(2) 0.3418(2)
H19 H 0.2006 0.6350 0.2969
H20 H 0.2451 0.6220 0.3651
H21 H 0.1051 0.6582 0.3623
C15 C 0.40262(14) 0.21742(11) 0.36462(7)
C16 C 0.31001(13) 0.17062(12) 0.39141(7)
C17 C 0.33450(14) 0.06749(12) 0.39371(7)
H22 H 0.2729 0.0358 0.4137
C18 C 0.44649(14) 0.00850(11) 0.36764(7)
C19 C 0.53251(14) 0.05746(12) 0.33588(7)
H23 H 0.6074 0.0191 0.3151
O4 O 0.38441(10) 0.32110(8) 0.36784(5)
P2 P 0.41678(4) 0.37495(3) 0.42690(2)
O5 O 0.39757(12) 0.48211(8) 0.41736(6)
C20 C 0.51208(14) 0.16107(12) 0.33357(7)
C21 C 0.47518(14) -0.10411(12) 0.37974(8)
C22 C 0.50193(16) -0.11873(13) 0.44910(8)
H24 H 0.5216 -0.1900 0.4581
H25 H 0.4312 -0.0861 0.4798
H26 H 0.5701 -0.0894 0.4534
C23 C 0.36819(15) -0.15068(12) 0.37394(9)
H27 H 0.3459 -0.1370 0.3312
H28 H 0.2999 -0.1220 0.4073
H29 H 0.3907 -0.2228 0.3796
C24 C 0.58543(15) -0.15870(12) 0.33251(9)
H30 H 0.6569 -0.1368 0.3403
H31 H 0.5732 -0.1435 0.2881
H32 H 0.5965 -0.2306 0.3390
O6 O 0.34816(16) 0.33934(18) 0.49078(8)
C25 C 0.2341(2) 0.40095(16) 0.52409(11)
H33 H 0.1750 0.4167 0.4944
H34 H 0.2472 0.4641 0.5401
C26 C 0.1903(6) 0.3406(6) 0.5790(3)
H35 H 0.1896 0.2745 0.5631
H36 H 0.1089 0.3737 0.5991
H37 H 0.2438 0.3339 0.6110
O7 O 0.54766(11) 0.31653(9) 0.42945(6)
C27 C 0.6203(5) 0.3574(5) 0.4659(3)
H38 H 0.6284 0.4236 0.4488
H39 H 0.5800 0.3664 0.5115
C28 C 0.7355(12) 0.2953(8) 0.4628(7)
H40 H 0.7277 0.2297 0.4796
H41 H 0.7819 0.3248 0.4887
H42 H 0.7767 0.2882 0.4178
C29 C 0.54657(14) 0.22800(11) 0.17261(7)
C30 C 0.62684(14) 0.17652(12) 0.21085(7)
C31 C 0.70770(14) 0.09003(12) 0.18625(7)
H43 H 0.7629 0.0560 0.2121
C32 C 0.71070(14) 0.05130(12) 0.12488(7)
C33 C 0.62483(14) 0.10121(12) 0.08965(7)
H44 H 0.6234 0.0760 0.0482
C34 C 0.54074(14) 0.18717(12) 0.11330(7)
C35 C 0.80627(15) -0.04153(12) 0.09900(8)
C36 C 0.93087(16) -0.01706(16) 0.09247(10)
H45 H 0.9369 0.0361 0.0611
H46 H 0.9927 -0.0765 0.0776
H47 H 0.9425 0.0049 0.1345
C37 C 0.79985(19) -0.12739(14) 0.14693(10)
H48 H 0.8186 -0.1089 0.1881
H49 H 0.8580 -0.1874 0.1292
H50 H 0.7188 -0.1404 0.1539
C38 C 0.78922(18) -0.07649(15) 0.03339(9)
H51 H 0.7098 -0.0921 0.0373
H52 H 0.8512 -0.1361 0.0190
H53 H 0.7958 -0.0237 0.0019
O8 O 0.47032(10) 0.31807(8) 0.19531(5)
P3 P 0.50317(4) 0.42021(3) 0.16752(2)
O9 O 0.55274(13) 0.41430(9) 0.09886(6)
O10 O 0.59180(11) 0.44959(9) 0.20778(6)
C39 C 0.55665(19) 0.47738(14) 0.27628(9)
H54 H 0.6224 0.4469 0.2997
H55 H 0.4847 0.4519 0.2948
C40 C 0.5299(2) 0.58821(15) 0.28461(11)
H56 H 0.5994 0.6137 0.2638
H57 H 0.5128 0.6055 0.3307
H58 H 0.4599 0.6178 0.2648
O11 O 0.38223(12) 0.49604(9) 0.19064(6)
C41 C 0.2777(8) 0.4903(4) 0.1607(7)
H59 H 0.2285 0.4489 0.1872
H60 H 0.3050 0.4595 0.1171
C42 C 0.2044(3) 0.5941(2) 0.1563(2)
H61 H 0.1805 0.6250 0.1994
H62 H 0.1325 0.5913 0.1383
H63 H 0.2524 0.6336 0.1281
C43 C 0.19704(14) 0.21799(11) 0.12709(7)
C44 C 0.31627(14) 0.16985(12) 0.10461(7)
C45 C 0.35050(14) 0.06764(12) 0.11339(7)
H64 H 0.4301 0.0341 0.0960
C46 C 0.27201(14) 0.01293(12) 0.14672(7)
C47 C 0.15570(14) 0.06401(12) 0.17059(8)
H65 H 0.1006 0.0284 0.1936
C48 C 0.11747(14) 0.16582(12) 0.16188(7)
C49 C 0.31605(15) -0.09882(12) 0.15669(8)
C50 C 0.43294(16) -0.11573(14) 0.18451(9)
H66 H 0.4961 -0.0968 0.1526
H67 H 0.4574 -0.1861 0.1949
H68 H 0.4199 -0.0750 0.2238
C51 C 0.33968(18) -0.15414(14) 0.09144(9)
H69 H 0.2658 -0.1413 0.0729
H70 H 0.3657 -0.2257 0.0979
H71 H 0.4026 -0.1307 0.0619
C52 C 0.22356(16) -0.14152(13) 0.20378(9)
H72 H 0.2037 -0.1037 0.2446
H73 H 0.2573 -0.2115 0.2117
H74 H 0.1507 -0.1366 0.1851
O12 O 0.16023(10) 0.32028(8) 0.11865(5)
P4 P 0.09502(4) 0.36653(3) 0.06045(2)
O13 O 0.04998(12) 0.47330(9) 0.07149(6)
O14 O 0.18732(11) 0.33450(9) -0.00314(6)
C53 C 0.25232(19) 0.40448(15) -0.03810(10)
H75 H 0.2932 0.4348 -0.0087
H76 H 0.1959 0.4583 -0.0560
C54 C 0.34246(19) 0.34806(16) -0.09134(10)
H77 H 0.3979 0.2951 -0.0731
H78 H 0.3876 0.3933 -0.1156
H79 H 0.3011 0.3187 -0.1203
O15 O 0.0002(5) 0.3016(5) 0.0598(5)
C55 C -0.0715(2) 0.3138(2) 0.00804(13)
H80 H -0.0300 0.2692 -0.0291
H81 H -0.0855 0.3833 -0.0069
C56 C -0.1864(4) 0.2875(4) 0.0363(3)
H82 H -0.1710 0.2185 0.0508
H83 H -0.2386 0.2946 0.0036
H84 H -0.2259 0.3319 0.0731
S1 S -0.02969(4) 0.22875(3) 0.20032(2)
S2 S 0.42349(4) 0.23973(3) 0.06909(2)
S3 S 0.62644(3) 0.21878(3) 0.29082(2)
S4 S 0.16336(3) 0.24367(3) 0.42229(2)
O16 O 0.06931(11) 0.50340(8) 0.30960(6)
O19 O 0.4292(3) 0.5785(3) 0.03184(15)
C57? C 0.1597(11) 0.6127(4) 0.3674(4)
H85? H 0.1427 0.6601 0.3330
H86? H 0.2358 0.6172 0.3802
H87? H 0.0948 0.6284 0.4047
O17? O 0.3205(6) 0.3451(6) 0.4811(2)
C58? C 0.2914(8) 0.3877(6) 0.5471(3)
H88? H 0.2579 0.4601 0.5455
H89? H 0.3657 0.3781 0.5659
C59? C 0.203(2) 0.340(2) 0.5888(10)
H90? H 0.1818 0.3714 0.6317
H91? H 0.2379 0.2688 0.5927
H92? H 0.1303 0.3472 0.5694
C60? C 0.6446(6) 0.3583(6) 0.4449(3)
H93? H 0.6156 0.4016 0.4839
H94? H 0.6729 0.3991 0.4087
C61? C 0.7465(11) 0.2743(8) 0.4567(6)
H95? H 0.7188 0.2357 0.4937
H96? H 0.8133 0.3018 0.4658
H97? H 0.7736 0.2309 0.4183
C62? C 0.2748(15) 0.4951(8) 0.1621(11)
H98? H 0.2039 0.4987 0.1965
H99? H 0.2868 0.4332 0.1365
C63? C 0.2561(7) 0.5843(5) 0.1194(4)
H100? H 0.2459 0.6450 0.1451
H101? H 0.1843 0.5868 0.1002
H102? H 0.3262 0.5792 0.0851
O18? O 0.0088(14) 0.2941(13) 0.0586(12)
C64? C -0.1214(5) 0.3397(5) 0.0465(4)
H103? H -0.1725 0.3716 0.0864
H104? H -0.1204 0.3899 0.0121
C65? C -0.1664(9) 0.2546(6) 0.0264(7)
H105? H -0.1106 0.2202 -0.0107
H106? H -0.2457 0.2788 0.0145
H107? H -0.1727 0.2083 0.0623
loop_
_geom_bond_atom_site_label_1
_geom_bond_atom_site_label_2
_geom_bond_site_symmetry_1
_geom_bond_site_symmetry_2
C1 C2 1_555 1_555
C2 C3 1_555 1_555
C3 H1 1_555 1_555
C4 C3 1_555 1_555
C5 C4 1_555 1_555
H2 C5 1_555 1_555
C6 C1 1_555 1_555
C7 C4 1_555 1_555
C8 C7 1_555 1_555
H3 C8 1_555 1_555
H4 C8 1_555 1_555
H5 C8 1_555 1_555
C9 C7 1_555 1_555
H6 C9 1_555 1_555
H7 C9 1_555 1_555
H8 C9 1_555 1_555
C10 C7 1_555 1_555
H9 C10 1_555 1_555
H10 C10 1_555 1_555
H11 C10 1_555 1_555
O1 C1 1_555 1_555
P1 O1 1_555 1_555
O2 P1 1_555 1_555
O3 P1 1_555 1_555
C11 O3 1_555 1_555
H12 C11 1_555 1_555
H13 C11 1_555 1_555
C12 C11 1_555 1_555
H14 C12 1_555 1_555
H15 C12 1_555 1_555
H16 C12 1_555 1_555
C13 H17 1_555 1_555
H18 C13 1_555 1_555
C14 C13 1_555 1_555
H19 C14 1_555 1_555
H20 C14 1_555 1_555
H21 C14 1_555 1_555
C15 C16 1_555 1_555
C16 C17 1_555 1_555
C17 H22 1_555 1_555
C18 C17 1_555 1_555
C19 C18 1_555 1_555
H23 C19 1_555 1_555
O4 C15 1_555 1_555
P2 O4 1_555 1_555
O5 P2 1_555 1_555
C20 C15 1_555 1_555
C21 C18 1_555 1_555
C22 C21 1_555 1_555
H24 C22 1_555 1_555
H25 C22 1_555 1_555
H26 C22 1_555 1_555
C23 C21 1_555 1_555
H27 C23 1_555 1_555
H28 C23 1_555 1_555
H29 C23 1_555 1_555
C24 C21 1_555 1_555
H30 C24 1_555 1_555
H31 C24 1_555 1_555
H32 C24 1_555 1_555
O6 P2 1_555 1_555
C25 O6 1_555 1_555
H33 C25 1_555 1_555
H34 C25 1_555 1_555
C26 C25 1_555 1_555
H35 C26 1_555 1_555
H36 C26 1_555 1_555
H37 C26 1_555 1_555
O7 P2 1_555 1_555
C27 O7 1_555 1_555
H38 C27 1_555 1_555
H39 C27 1_555 1_555
C28 C27 1_555 1_555
H40 C28 1_555 1_555
H41 C28 1_555 1_555
H42 C28 1_555 1_555
C29 C30 1_555 1_555
C30 C31 1_555 1_555
C31 H43 1_555 1_555
C32 C31 1_555 1_555
C33 C32 1_555 1_555
H44 C33 1_555 1_555
C34 C29 1_555 1_555
C35 C32 1_555 1_555
C36 C35 1_555 1_555
H45 C36 1_555 1_555
H46 C36 1_555 1_555
H47 C36 1_555 1_555
C37 C35 1_555 1_555
H48 C37 1_555 1_555
H49 C37 1_555 1_555
H50 C37 1_555 1_555
C38 C35 1_555 1_555
H51 C38 1_555 1_555
H52 C38 1_555 1_555
H53 C38 1_555 1_555
O8 C29 1_555 1_555
P3 O8 1_555 1_555
O9 P3 1_555 1_555
O10 P3 1_555 1_555
C39 O10 1_555 1_555
H54 C39 1_555 1_555
H55 C39 1_555 1_555
C40 C39 1_555 1_555
H56 C40 1_555 1_555
H57 C40 1_555 1_555
H58 C40 1_555 1_555
O11 P3 1_555 1_555
C41 O11 1_555 1_555
H59 C41 1_555 1_555
H60 C41 1_555 1_555
C42 C41 1_555 1_555
H61 C42 1_555 1_555
H62 C42 1_555 1_555
H63 C42 1_555 1_555
C43 C44 1_555 1_555
C44 C45 1_555 1_555
C45 H64 1_555 1_555
C46 C45 1_555 1_555
C47 C46 1_555 1_555
H65 C47 1_555 1_555
C48 C43 1_555 1_555
C49 C46 1_555 1_555
C50 C49 1_555 1_555
H66 C50 1_555 1_555
H67 C50 1_555 1_555
H68 C50 1_555 1_555
C51 C49 1_555 1_555
H69 C51 1_555 1_555
H70 C51 1_555 1_555
H71 C51 1_555 1_555
C52 C49 1_555 1_555
H72 C52 1_555 1_555
H73 C52 1_555 1_555
H74 C52 1_555 1_555
O12 C43 1_555 1_555
P4 O12 1_555 1_555
O13 P4 1_555 1_555
O14 P4 1_555 1_555
C53 O14 1_555 1_555
H75 C53 1_555 1_555
H76 C53 1_555 1_555
C54 C53 1_555 1_555
H77 C54 1_555 1_555
H78 C54 1_555 1_555
H79 C54 1_555 1_555
O15 P4 1_555 1_555
C55 O15 1_555 1_555
H80 C55 1_555 1_555
H81 C55 1_555 1_555
C56 C55 1_555 1_555
H82 C56 1_555 1_555
H83 C56 1_555 1_555
H84 C56 1_555 1_555
S1 C2 1_555 1_555
S2 C34 1_555 1_555
S3 C20 1_555 1_555
S4 C6 1_555 1_555
O16 P1 1_555 1_555
C5 C6 1_555 1_555
C13 O16 1_555 1_555
C16 S4 1_555 1_555
C19 C20 1_555 1_555
C30 S3 1_555 1_555
C33 C34 1_555 1_555
C44 S2 1_555 1_555
C47 C48 1_555 1_555
C48 S1 1_555 1_555

#END
