
#######################################################################
#
#                 Cambridge Crystallographic Data Centre
#                                CCDC 
#
#######################################################################
#
# If this CIF has been generated from an entry in the Cambridge 
# Structural Database, then it will include bibliographic, chemical, 
# crystal, experimental, refinement or atomic coordinate data resulting 
# from the CCDC's data processing and validation procedures.
#
#######################################################################

data_TUGROE02
_chemical_formula_moiety         'C18 H14 N2 O1'
_chemical_name_systematic        N,N-diphenylpyridine-2-carboxamide
_symmetry_cell_setting           orthorhombic
_symmetry_space_group_name_H-M   'P b c a'
_symmetry_Int_Tables_number      61
_space_group_name_Hall           '-P 2ac 2ab'
loop_
_symmetry_equiv_pos_site_id
_symmetry_equiv_pos_as_xyz
1 x,y,z
2 1/2-x,-y,1/2+z
3 1/2+x,1/2-y,-z
4 -x,1/2+y,1/2-z
5 -x,-y,-z
6 1/2+x,y,1/2-z
7 1/2-x,1/2+y,z
8 x,1/2-y,1/2+z
_cell_length_a                   17.2919(6)
_cell_length_b                   9.4277(3)
_cell_length_c                   17.5279(6)
_cell_angle_alpha                90
_cell_angle_beta                 90
_cell_angle_gamma                90
_cell_volume                     2857.45
_exptl_crystal_colour            colorless
_exptl_crystal_description       prism
_cell_formula_units_Z            8
loop_
_atom_site_label
_atom_site_type_symbol
_atom_site_fract_x
_atom_site_fract_y
_atom_site_fract_z
C1 C 0.27503(10) 0.7101(2) 0.20565(11)
C2 C 0.33117(10) 0.73542(19) 0.14162(10)
C3 C 0.35692(12) 0.8702(2) 0.12498(11)
H1 H 0.3437 0.9468 0.1558
C4 C 0.40296(13) 0.8888(2) 0.06132(12)
H2 H 0.4211 0.9784 0.0483
C5 C 0.42160(12) 0.7729(3) 0.01762(11)
H3 H 0.4526 0.7822 -0.0255
C6 C 0.39331(12) 0.6431(2) 0.03915(11)
H4 H 0.4064 0.5649 0.0095
C7 C 0.24247(10) 0.75044(19) 0.33880(10)
C8 C 0.17324(12) 0.8214(2) 0.33113(13)
H5 H 0.1620 0.8703 0.2864
C9 C 0.12062(13) 0.8194(2) 0.39045(16)
H6 H 0.0735 0.8657 0.3851
C10 C 0.13734(13) 0.7495(3) 0.45710(14)
H7 H 0.1020 0.7500 0.4971
C11 C 0.20669(13) 0.6787(3) 0.46469(12)
H8 H 0.2182 0.6314 0.5099
C12 C 0.25897(11) 0.6780(2) 0.40507(10)
H9 H 0.3053 0.6286 0.4097
C13 C 0.37690(9) 0.78278(17) 0.29639(9)
C14 C 0.39474(10) 0.91342(18) 0.32747(10)
H10 H 0.3561 0.9805 0.3353
C15 C 0.47056(10) 0.94360(19) 0.34682(10)
H11 H 0.4827 1.0313 0.3680
C16 C 0.52814(10) 0.8454(2) 0.33506(10)
H12 H 0.5789 0.8665 0.3484
C17 C 0.51038(10) 0.7157(2) 0.30355(11)
H13 H 0.5494 0.6498 0.2947
C18 C 0.43443(10) 0.68283(18) 0.28488(10)
H14 H 0.4223 0.5943 0.2648
N1 N 0.29774(8) 0.75135(15) 0.27747(8)
N2 N 0.34834(10) 0.62179(16) 0.09969(9)
O1 O 0.21115(9) 0.66164(19) 0.19316(9)
loop_
_geom_bond_atom_site_label_1
_geom_bond_atom_site_label_2
_geom_bond_site_symmetry_1
_geom_bond_site_symmetry_2
C1 C2 1_555 1_555
C2 C3 1_555 1_555
C3 H1 1_555 1_555
C4 C3 1_555 1_555
H2 C4 1_555 1_555
C5 C4 1_555 1_555
H3 C5 1_555 1_555
C6 C5 1_555 1_555
H4 C6 1_555 1_555
C7 C8 1_555 1_555
C8 H5 1_555 1_555
C9 C8 1_555 1_555
H6 C9 1_555 1_555
C10 C9 1_555 1_555
H7 C10 1_555 1_555
C11 C10 1_555 1_555
H8 C11 1_555 1_555
C12 C7 1_555 1_555
H9 C12 1_555 1_555
C13 C14 1_555 1_555
C14 H10 1_555 1_555
C15 C14 1_555 1_555
H11 C15 1_555 1_555
C16 C15 1_555 1_555
H12 C16 1_555 1_555
C17 C16 1_555 1_555
H13 C17 1_555 1_555
C18 C13 1_555 1_555
H14 C18 1_555 1_555
N1 C1 1_555 1_555
N2 C2 1_555 1_555
O1 C1 1_555 1_555
C6 N2 1_555 1_555
C7 N1 1_555 1_555
C11 C12 1_555 1_555
C13 N1 1_555 1_555
C17 C18 1_555 1_555

#END
