
#######################################################################
#
#                 Cambridge Crystallographic Data Centre
#                                CCDC 
#
#######################################################################
#
# If this CIF has been generated from an entry in the Cambridge 
# Structural Database, then it will include bibliographic, chemical, 
# crystal, experimental, refinement or atomic coordinate data resulting 
# from the CCDC's data processing and validation procedures.
#
#######################################################################

data_TUGTOG
_chemical_compound_source        'fruits of Trichilia connaroides'
_chemical_formula_moiety         'C27 H34 O10,C1 H4 O1'
_chemical_name_systematic        
'methyl (6-(3-furyl)-2,10,16-trihydroxy-7,13,15,15-tetramethyl-4,12-dioxo-5,17-dioxapentacyclo[11.4.1.0^1,10^.0^2,7^.0^11,16^]octadec-14-yl)acetate methanol solvate'
_chemical_properties_biological  'NO inhibitor activity'
_symmetry_cell_setting           orthorhombic
_symmetry_space_group_name_H-M   'P 21 21 21'
_symmetry_Int_Tables_number      19
_space_group_name_Hall           'P 2ac 2ab'
loop_
_symmetry_equiv_pos_site_id
_symmetry_equiv_pos_as_xyz
1 x,y,z
2 1/2-x,-y,1/2+z
3 1/2+x,1/2-y,-z
4 -x,1/2+y,1/2-z
_cell_length_a                   10.03740(10)
_cell_length_b                   12.63980(10)
_cell_length_c                   21.0812(2)
_cell_angle_alpha                90
_cell_angle_beta                 90
_cell_angle_gamma                90
_cell_volume                     2674.59
_exptl_crystal_colour            colorless
_exptl_crystal_description       block
_cell_formula_units_Z            4
_chemical_properties_physical    Air-sensitive
loop_
_atom_site_label
_atom_site_type_symbol
_atom_site_fract_x
_atom_site_fract_y
_atom_site_fract_z
O1 O 0.27692(15) 0.19710(12) 0.18323(7)
O2 O 0.35444(16) 0.20188(14) 0.01283(7)
H1 H 0.2763 0.2136 0.0040
O3 O 0.08740(16) 0.24942(15) 0.04394(8)
H2 H 0.0064 0.2524 0.0394
O4 O 0.10902(18) 0.12609(13) 0.24463(8)
H3 H 0.1705 0.1010 0.2653
O5 O 0.2445(2) 0.69173(15) 0.25869(11)
O6 O 0.5673(2) 0.01306(17) 0.03953(10)
C1 C 0.2637(2) 0.22448(17) 0.11737(10)
O7 O 0.7252(2) 0.1158(2) 0.07519(14)
O8 O -0.04976(19) 0.41391(18) 0.13667(11)
C2 C 0.1177(2) 0.19706(18) 0.10220(10)
C3 C 0.2306(2) 0.40818(18) 0.22495(11)
H4 H 0.3277 0.3995 0.2255
C4 C 0.2857(2) 0.34463(18) 0.11172(11)
H5 H 0.2756 0.3649 0.0676
H6 H 0.3765 0.3606 0.1242
C5 C 0.3321(2) 0.03809(19) 0.07377(11)
C6 C 0.0517(2) 0.24718(19) 0.16133(11)
H7 H -0.0376 0.2189 0.1694
C7 C 0.0896(2) 0.0791(2) 0.09664(12)
H8 H -0.0005 0.0689 0.0813
H9 H 0.0957 0.0470 0.1384
C8 C 0.5061(2) 0.1745(2) 0.09755(11)
H10 H 0.5324 0.2464 0.0873
H11 H 0.5093 0.1675 0.1433
O9 O 0.4173(2) 0.58548(19) 0.24190(14)
C9 C 0.3629(2) 0.15911(18) 0.07635(10)
C10 C 0.3001(3) 0.5974(2) 0.25163(12)
C11 C 0.0506(2) 0.3649(2) 0.14891(11)
C12 C 0.1888(2) 0.41303(19) 0.15272(11)
C13 C 0.0363(3) 0.3347(2) 0.29352(13)
H12 H -0.0216 0.3687 0.2635
H13 H 0.0495 0.3802 0.3294
H14 H -0.0034 0.2695 0.3073
C14 C 0.1867(3) 0.0233(2) 0.05183(12)
H15 H 0.1764 0.0517 0.0094
H16 H 0.1658 -0.0516 0.0504
C15 C 0.1518(2) 0.21934(18) 0.21480(10)
C16 C 0.2011(3) 0.5105(2) 0.26164(13)
H17 H 0.1138 0.5360 0.2492
H18 H 0.1977 0.4941 0.3066
C17 C 0.3542(3) -0.0184(2) 0.13729(11)
H19 H 0.3040 0.0168 0.1698
H20 H 0.4471 -0.0167 0.1479
H21 H 0.3251 -0.0905 0.1339
C18 C 0.4280(3) -0.0082(2) 0.02353(12)
H22 H 0.4086 0.0258 -0.0172
C19 C 0.6074(3) 0.1005(2) 0.06955(13)
C20 C 0.2721(3) 0.2797(2) 0.31361(12)
H23 H 0.2343 0.2248 0.3394
H24 H 0.2919 0.3401 0.3396
H25 H 0.3526 0.2545 0.2942
C21 C 0.1721(2) 0.31140(18) 0.26177(10)
C22 C 0.1891(3) 0.5254(2) 0.12518(14)
H26 H 0.1630 0.5230 0.0814
H27 H 0.2770 0.5548 0.1285
H28 H 0.1276 0.5687 0.1484
C23 C 0.3298(5) 0.7819(3) 0.2531(2)
H29 H 0.3962 0.7798 0.2858
H30 H 0.2779 0.8454 0.2573
H31 H 0.3725 0.7812 0.2123
C24 C 0.4216(3) -0.1256(2) 0.01414(13)
O10 O 0.479(2) -0.2992(16) 0.0233(10)
C25 C 0.3551(9) -0.2918(5) -0.0079(3)
H32 H 0.3070 -0.3491 -0.0234
C26 C 0.3171(8) -0.1920(5) -0.0119(3)
H33 H 0.2367 -0.1682 -0.0285
C27 C 0.5138(12) -0.1955(10) 0.0341(6)
H34 H 0.5933 -0.1754 0.0533
O12 O 0.3291(3) 0.0245(2) 0.30159(12)
C31 C 0.3566(4) 0.0065(3) 0.36534(17)
H38 H 0.3977 0.0682 0.3833
H39 H 0.4160 -0.0527 0.3692
H40 H 0.2752 -0.0085 0.3875
H41 H 0.4007(16) 0.050(4) 0.2862(6)
C28? C 0.3976(10) -0.1615(6) -0.0443(4)
H35? H 0.3827 -0.1190 -0.0796
O11? O 0.432(3) -0.297(2) 0.0136(15)
C29? C 0.3981(11) -0.2673(6) -0.0447(4)
H36? H 0.3787 -0.3113 -0.0788
C30? C 0.4472(15) -0.2120(14) 0.0520(9)
H37? H 0.4700 -0.2121 0.0947
loop_
_geom_bond_atom_site_label_1
_geom_bond_atom_site_label_2
_geom_bond_site_symmetry_1
_geom_bond_site_symmetry_2
O1 C1 1_555 1_555
O2 H1 1_555 1_555
O3 H2 1_555 1_555
O4 H3 1_555 1_555
O5 C10 1_555 1_555
O6 C18 1_555 1_555
C1 C2 1_555 1_555
O7 C19 1_555 1_555
O8 C11 1_555 1_555
C2 O3 1_555 1_555
C3 H4 1_555 1_555
C4 C1 1_555 1_555
H5 C4 1_555 1_555
H6 C4 1_555 1_555
C5 C9 1_555 1_555
C6 C2 1_555 1_555
H7 C6 1_555 1_555
C7 C2 1_555 1_555
H8 C7 1_555 1_555
H9 C7 1_555 1_555
C8 H10 1_555 1_555
H11 C8 1_555 1_555
O9 C10 1_555 1_555
C9 O2 1_555 1_555
C10 C16 1_555 1_555
C11 C6 1_555 1_555
C12 C3 1_555 1_555
C13 H12 1_555 1_555
H13 C13 1_555 1_555
H14 C13 1_555 1_555
C14 C5 1_555 1_555
H15 C14 1_555 1_555
H16 C14 1_555 1_555
C15 O1 1_555 1_555
C16 C3 1_555 1_555
H17 C16 1_555 1_555
H18 C16 1_555 1_555
C17 C5 1_555 1_555
H19 C17 1_555 1_555
H20 C17 1_555 1_555
H21 C17 1_555 1_555
C18 C5 1_555 1_555
H22 C18 1_555 1_555
C19 O6 1_555 1_555
C20 H23 1_555 1_555
H24 C20 1_555 1_555
H25 C20 1_555 1_555
C21 C3 1_555 1_555
C22 C12 1_555 1_555
H26 C22 1_555 1_555
H27 C22 1_555 1_555
H28 C22 1_555 1_555
C23 O5 1_555 1_555
H29 C23 1_555 1_555
H30 C23 1_555 1_555
H31 C23 1_555 1_555
C24 C18 1_555 1_555
O10 C25 1_555 1_555
C25 H32 1_555 1_555
C26 C24 1_555 1_555
H33 C26 1_555 1_555
C27 C24 1_555 1_555
H34 C27 1_555 1_555
O12 C31 1_555 1_555
C31 H38 1_555 1_555
H39 C31 1_555 1_555
H40 C31 1_555 1_555
H41 O12 1_555 1_555
O4 C15 1_555 1_555
C1 C9 1_555 1_555
C4 C12 1_555 1_555
C6 C15 1_555 1_555
C7 C14 1_555 1_555
C8 C9 1_555 1_555
C8 C19 1_555 1_555
C11 C12 1_555 1_555
C13 C21 1_555 1_555
C15 C21 1_555 1_555
C20 C21 1_555 1_555
O10 C27 1_555 1_555
C25 C26 1_555 1_555

#END
