
#######################################################################
#
#                 Cambridge Crystallographic Data Centre
#                                CCDC 
#
#######################################################################
#
# If this CIF has been generated from an entry in the Cambridge 
# Structural Database, then it will include bibliographic, chemical, 
# crystal, experimental, refinement or atomic coordinate data resulting 
# from the CCDC's data processing and validation procedures.
#
#######################################################################

data_TUGWOI
_chemical_formula_moiety         'C28 H20 I1 N1'
_chemical_name_systematic        
4-(4-Iodophenyl)-4,5-dihydro-3H-dinaphtho[2,1-c:1',2'-e]azepine
_symmetry_cell_setting           orthorhombic
_symmetry_space_group_name_H-M   'P 21 21 21'
_symmetry_Int_Tables_number      19
_space_group_name_Hall           'P 2ac 2ab'
loop_
_symmetry_equiv_pos_site_id
_symmetry_equiv_pos_as_xyz
1 x,y,z
2 1/2-x,-y,1/2+z
3 -x,1/2+y,1/2-z
4 1/2+x,1/2-y,-z
_cell_length_a                   7.6592(11)
_cell_length_b                   10.6769(12)
_cell_length_c                   26.055(3)
_cell_angle_alpha                90
_cell_angle_beta                 90
_cell_angle_gamma                90
_cell_volume                     2130.69
_exptl_crystal_colour            colorless
_cell_formula_units_Z            4
loop_
_atom_site_label
_atom_site_type_symbol
_atom_site_fract_x
_atom_site_fract_y
_atom_site_fract_z
I1 I 0.08357(3) 0.00264(3) 0.078466(10)
C1 C 0.3096(5) 0.1128(4) 0.08525(13)
C2 C 0.4567(5) 0.0627(4) 0.10844(13)
H1 H 0.4546 -0.0193 0.1216
C3 C 0.6067(5) 0.1345(4) 0.11205(13)
H2 H 0.7067 0.0996 0.1273
C4 C 0.6138(5) 0.2577(4) 0.09361(14)
C5 C 0.4623(5) 0.3047(4) 0.07021(18)
H3 H 0.4626 0.3867 0.0571
C6 C 0.3111(5) 0.2324(4) 0.06589(15)
H4 H 0.2112 0.2654 0.0499
N1 N 0.7683(4) 0.3272(3) 0.09570(11)
C7 C 0.8830(5) 0.3194(4) 0.14166(15)
H5 H 1.0055 0.3216 0.1308
H6 H 0.8626 0.2397 0.1593
C8 C 0.8490(5) 0.4257(4) 0.17817(14)
C9 C 0.9078(5) 0.5463(4) 0.16708(13)
C10 C 1.0094(4) 0.5636(4) 0.11797(13)
C11 C 1.1796(4) 0.6207(3) 0.11642(14)
C12 C 1.2639(5) 0.6359(3) 0.06845(13)
C13 C 1.1837(5) 0.5902(4) 0.02358(15)
H7 H 1.2384 0.6014 -0.0084
C14 C 1.0260(5) 0.5296(4) 0.02625(14)
H8 H 0.9764 0.4960 -0.0038
C15 C 0.9376(4) 0.5169(3) 0.07335(13)
C16 C 0.7608(5) 0.4538(3) 0.07362(14)
H9 H 0.6788 0.5048 0.0936
H10 H 0.7167 0.4487 0.0384
C17 C 1.4310(6) 0.6940(4) 0.06601(17)
H11 H 1.4857 0.7056 0.0341
C18 C 1.5120(5) 0.7330(4) 0.10972(17)
H12 H 1.6217 0.7722 0.1078
C19 C 1.4318(5) 0.7146(4) 0.15773(15)
H13 H 1.4901 0.7392 0.1878
C20 C 1.2701(5) 0.6612(4) 0.16102(15)
H14 H 1.2177 0.6511 0.1934
C21 C 0.8603(4) 0.6489(4) 0.19934(13)
C22 C 0.7642(5) 0.6229(4) 0.24502(13)
C23 C 0.7119(4) 0.4999(5) 0.25567(13)
H15 H 0.6493 0.4830 0.2859
C24 C 0.7502(6) 0.4049(4) 0.22310(14)
H16 H 0.7102 0.3237 0.2305
C25 C 0.7153(5) 0.7249(4) 0.27692(15)
H17 H 0.6546 0.7087 0.3076
C26 C 0.7541(5) 0.8453(4) 0.26427(16)
H18 H 0.7191 0.9112 0.2859
C27 C 0.8465(5) 0.8711(4) 0.21882(15)
H19 H 0.8726 0.9544 0.2100
C28 C 0.8987(5) 0.7756(4) 0.18730(14)
H20 H 0.9610 0.7943 0.1572
loop_
_geom_bond_atom_site_label_1
_geom_bond_atom_site_label_2
_geom_bond_site_symmetry_1
_geom_bond_site_symmetry_2
I1 C1 1_555 1_555
C1 C2 1_555 1_555
C2 H1 1_555 1_555
C3 C2 1_555 1_555
H2 C3 1_555 1_555
C4 C3 1_555 1_555
C5 C4 1_555 1_555
H3 C5 1_555 1_555
C6 C1 1_555 1_555
H4 C6 1_555 1_555
N1 C4 1_555 1_555
C7 N1 1_555 1_555
H5 C7 1_555 1_555
H6 C7 1_555 1_555
C8 C7 1_555 1_555
C9 C8 1_555 1_555
C10 C9 1_555 1_555
C11 C10 1_555 1_555
C12 C11 1_555 1_555
C13 C12 1_555 1_555
H7 C13 1_555 1_555
C14 C13 1_555 1_555
H8 C14 1_555 1_555
C15 C10 1_555 1_555
C16 N1 1_555 1_555
H9 C16 1_555 1_555
H10 C16 1_555 1_555
C17 C12 1_555 1_555
H11 C17 1_555 1_555
C18 C17 1_555 1_555
H12 C18 1_555 1_555
C19 C18 1_555 1_555
H13 C19 1_555 1_555
C20 C11 1_555 1_555
H14 C20 1_555 1_555
C21 C9 1_555 1_555
C22 C21 1_555 1_555
C23 C22 1_555 1_555
H15 C23 1_555 1_555
C24 C8 1_555 1_555
H16 C24 1_555 1_555
C25 C22 1_555 1_555
H17 C25 1_555 1_555
C26 C25 1_555 1_555
H18 C26 1_555 1_555
C27 C26 1_555 1_555
H19 C27 1_555 1_555
C28 C21 1_555 1_555
H20 C28 1_555 1_555
C5 C6 1_555 1_555
C14 C15 1_555 1_555
C15 C16 1_555 1_555
C19 C20 1_555 1_555
C23 C24 1_555 1_555
C27 C28 1_555 1_555

#END
