
#######################################################################
#
#                 Cambridge Crystallographic Data Centre
#                                CCDC 
#
#######################################################################
#
# If this CIF has been generated from an entry in the Cambridge 
# Structural Database, then it will include bibliographic, chemical, 
# crystal, experimental, refinement or atomic coordinate data resulting 
# from the CCDC's data processing and validation procedures.
#
#######################################################################

data_TUGXID
_chemical_formula_moiety         'C28 H25 N1 O2'
_chemical_name_systematic        
3-Methyl-1,5-diphenyl-4,5,9,13b-tetrahydro-8H-furo[3',4':4,5][1,2]oxazepino[3,2-a]isoquinoline
_symmetry_cell_setting           monoclinic
_symmetry_space_group_name_H-M   'P 21/n'
_symmetry_Int_Tables_number      14
_space_group_name_Hall           '-P 2yn'
loop_
_symmetry_equiv_pos_site_id
_symmetry_equiv_pos_as_xyz
1 x,y,z
2 1/2-x,1/2+y,1/2-z
3 -x,-y,-z
4 1/2+x,1/2-y,1/2+z
_cell_length_a                   9.5186(19)
_cell_length_b                   14.724(3)
_cell_length_c                   15.186(3)
_cell_angle_alpha                90
_cell_angle_beta                 95.88(3)
_cell_angle_gamma                90
_cell_volume                     2117.15
_cell_formula_units_Z            4
loop_
_atom_site_label
_atom_site_type_symbol
_atom_site_fract_x
_atom_site_fract_y
_atom_site_fract_z
O1 O 0.45974(14) 0.35894(9) 0.04333(8)
O2 O 0.45750(14) 0.06530(9) 0.13248(8)
N1 N 0.34336(18) 0.33123(11) -0.02010(10)
C1 C 0.2637(2) 0.26209(13) 0.02554(11)
H1 H 0.2275 0.2913 0.0767
C2 C 0.1367(2) 0.23434(14) -0.03933(11)
C3 C 0.0782(2) 0.14739(14) -0.03765(11)
H2 H 0.1191 0.1046 0.0021
C4 C -0.0399(2) 0.12369(16) -0.09435(12)
H3 H -0.0771 0.0654 -0.0930
C5 C -0.1017(2) 0.18742(16) -0.15280(12)
H4 H -0.1826 0.1727 -0.1897
C6 C -0.0431(2) 0.27301(16) -0.15627(12)
H5 H -0.0847 0.3152 -0.1964
C7 C 0.0766(2) 0.29746(15) -0.10114(12)
C8 C 0.1423(2) 0.38935(16) -0.11234(13)
H6 H 0.0691 0.4354 -0.1149
H7 H 0.1839 0.3906 -0.1680
C9 C 0.2555(2) 0.41211(14) -0.03748(13)
H8 H 0.3126 0.4626 -0.0543
H9 H 0.2121 0.4291 0.0152
C10 C 0.5906(2) 0.32918(14) 0.01165(12)
H10 H 0.6136 0.3702 -0.0356
C11 C 0.7014(2) 0.33953(13) 0.08958(12)
C12 C 0.8405(2) 0.35948(14) 0.07479(13)
H11 H 0.8644 0.3648 0.0171
C13 C 0.9430(2) 0.37144(14) 0.14528(13)
H12 H 1.0354 0.3844 0.1348
C14 C 0.9086(2) 0.36421(14) 0.23136(14)
H13 H 0.9772 0.3736 0.2787
C15 C 0.7727(2) 0.34310(16) 0.24655(13)
H14 H 0.7498 0.3369 0.3043
C16 C 0.6691(2) 0.33087(14) 0.17632(13)
H15 H 0.5774 0.3168 0.1874
C17 C 0.5770(2) 0.23200(13) -0.02543(12)
H16 H 0.5257 0.2334 -0.0840
H17 H 0.6703 0.2076 -0.0308
C18 C 0.5011(2) 0.17144(13) 0.03350(12)
C19 C 0.5545(2) 0.09804(14) 0.07928(13)
C20 C 0.6882(2) 0.04612(16) 0.08176(14)
H18 H 0.6699 -0.0122 0.0548
H19 H 0.7271 0.0382 0.1421
H20 H 0.7542 0.0788 0.0499
C21 C 0.3613(2) 0.18644(13) 0.05947(11)
C22 C 0.3399(2) 0.12117(13) 0.12133(11)
C23 C 0.2310(2) 0.09893(13) 0.17887(11)
C24 C 0.1061(2) 0.14935(14) 0.17924(12)
H21 H 0.0909 0.1991 0.1418
C25 C 0.0048(2) 0.12582(16) 0.23494(13)
H22 H -0.0772 0.1602 0.2346
C26 C 0.0247(2) 0.05204(16) 0.29052(13)
H23 H -0.0441 0.0356 0.3268
C27 C 0.1482(2) 0.00276(16) 0.29172(12)
H24 H 0.1629 -0.0465 0.3298
C28 C 0.2497(2) 0.02532(14) 0.23760(12)
H25 H 0.3323 -0.0087 0.2399
loop_
_geom_bond_atom_site_label_1
_geom_bond_atom_site_label_2
_geom_bond_site_symmetry_1
_geom_bond_site_symmetry_2
O1 N1 1_555 1_555
O2 C19 1_555 1_555
N1 C1 1_555 1_555
C1 H1 1_555 1_555
C2 C1 1_555 1_555
C3 C2 1_555 1_555
H2 C3 1_555 1_555
C4 C3 1_555 1_555
H3 C4 1_555 1_555
C5 C4 1_555 1_555
H4 C5 1_555 1_555
C6 C5 1_555 1_555
H5 C6 1_555 1_555
C7 C2 1_555 1_555
C8 C7 1_555 1_555
H6 C8 1_555 1_555
H7 C8 1_555 1_555
C9 N1 1_555 1_555
H8 C9 1_555 1_555
H9 C9 1_555 1_555
C10 O1 1_555 1_555
H10 C10 1_555 1_555
C11 C10 1_555 1_555
C12 C11 1_555 1_555
H11 C12 1_555 1_555
C13 C12 1_555 1_555
H12 C13 1_555 1_555
C14 C13 1_555 1_555
H13 C14 1_555 1_555
C15 C14 1_555 1_555
H14 C15 1_555 1_555
C16 C11 1_555 1_555
H15 C16 1_555 1_555
C17 C10 1_555 1_555
H16 C17 1_555 1_555
H17 C17 1_555 1_555
C18 C17 1_555 1_555
C19 C18 1_555 1_555
C20 C19 1_555 1_555
H18 C20 1_555 1_555
H19 C20 1_555 1_555
H20 C20 1_555 1_555
C21 C1 1_555 1_555
C22 O2 1_555 1_555
C23 C22 1_555 1_555
C24 C23 1_555 1_555
H21 C24 1_555 1_555
C25 C24 1_555 1_555
H22 C25 1_555 1_555
C26 C25 1_555 1_555
H23 C26 1_555 1_555
C27 C26 1_555 1_555
H24 C27 1_555 1_555
C28 C23 1_555 1_555
H25 C28 1_555 1_555
C6 C7 1_555 1_555
C8 C9 1_555 1_555
C15 C16 1_555 1_555
C18 C21 1_555 1_555
C21 C22 1_555 1_555
C27 C28 1_555 1_555

#END
