
#######################################################################
#
#                 Cambridge Crystallographic Data Centre
#                                CCDC 
#
#######################################################################
#
# If this CIF has been generated from an entry in the Cambridge 
# Structural Database, then it will include bibliographic, chemical, 
# crystal, experimental, refinement or atomic coordinate data resulting 
# from the CCDC's data processing and validation procedures.
#
#######################################################################

data_TUGYUR
_chemical_formula_moiety         'C24 H20 O2'
_chemical_name_systematic        
3,5-Dimethyl-5-(2-(1-naphthyl)vinyl)-4-phenylfuran-2(5H)-one
_symmetry_cell_setting           monoclinic
_symmetry_space_group_name_H-M   'P 21/c'
_symmetry_Int_Tables_number      14
_space_group_name_Hall           '-P 2ybc'
loop_
_symmetry_equiv_pos_site_id
_symmetry_equiv_pos_as_xyz
1 x,y,z
2 -x,1/2+y,1/2-z
3 -x,-y,-z
4 x,1/2-y,1/2+z
_cell_length_a                   8.0753(4)
_cell_length_b                   18.2222(12)
_cell_length_c                   12.7261(7)
_cell_angle_alpha                90
_cell_angle_beta                 106.720(3)
_cell_angle_gamma                90
_cell_volume                     1793.47
_exptl_crystal_colour            colorless
_cell_formula_units_Z            4
loop_
_atom_site_label
_atom_site_type_symbol
_atom_site_fract_x
_atom_site_fract_y
_atom_site_fract_z
O1 O 1.32047(15) 0.43681(7) 0.83370(10)
O2 O 1.57839(16) 0.46985(7) 0.81528(12)
C1 C 0.3582(2) 0.19717(11) 0.64605(16)
H1 H 0.2536 0.1742 0.6483
C2 C 0.4495(2) 0.17014(10) 0.57963(15)
H2 H 0.4080 0.1281 0.5358
C3 C 0.6055(2) 0.20386(10) 0.57493(14)
C4 C 0.6686(2) 0.26717(10) 0.64083(14)
C5 C 0.8268(2) 0.30108(10) 0.63527(14)
C6 C 0.9010(2) 0.36451(10) 0.70588(14)
H3 H 0.8331 0.3861 0.7475
C7 C 1.0552(2) 0.39337(10) 0.71529(15)
H4 H 1.1209 0.3710 0.6729
C8 C 1.1386(2) 0.45755(10) 0.78529(14)
C9 C 1.1517(2) 0.52266(9) 0.71350(14)
C10 C 1.0015(2) 0.56851(10) 0.65692(14)
C11 C 1.0012(2) 0.64190(10) 0.68815(15)
H5 H 1.0960 0.6609 0.7443
C12 C 0.8639(2) 0.68718(10) 0.63792(15)
H6 H 0.8642 0.7370 0.6601
C13 C 0.7258(2) 0.66007(10) 0.55532(15)
H7 H 0.6314 0.6912 0.5210
C14 C 0.6987(2) 0.17582(11) 0.50514(15)
H8 H 0.6587 0.1332 0.4624
C15 C 0.8466(2) 0.21012(11) 0.49917(15)
H9 H 0.9073 0.1917 0.4510
C16 C 0.9092(2) 0.27217(11) 0.56342(15)
H10 H 1.0117 0.2951 0.5573
C17 C 0.5701(2) 0.29345(10) 0.70939(14)
H11 H 0.6091 0.3352 0.7544
C18 C 0.4202(2) 0.25952(10) 0.71151(15)
H12 H 0.3565 0.2782 0.7579
C19 C 1.4239(2) 0.47931(10) 0.79029(15)
C20 C 1.3162(2) 0.53337(10) 0.71488(14)
C21 C 0.7256(2) 0.58764(10) 0.52285(15)
H13 H 0.6313 0.5693 0.4656
C22 C 0.8622(2) 0.54172(10) 0.57335(14)
H14 H 0.8609 0.4919 0.5510
C23 C 1.3919(2) 0.58649(11) 0.65253(16)
H15 H 1.3841 0.5663 0.5799
H16 H 1.5134 0.5953 0.6925
H17 H 1.3278 0.6328 0.6442
C24 C 1.0626(2) 0.47764(11) 0.87760(15)
H18 H 1.0664 0.4348 0.9248
H19 H 0.9424 0.4934 0.8466
H20 H 1.1300 0.5177 0.9210
loop_
_geom_bond_atom_site_label_1
_geom_bond_atom_site_label_2
_geom_bond_site_symmetry_1
_geom_bond_site_symmetry_2
O1 C8 1_555 1_555
O2 C19 1_555 1_555
C1 H1 1_555 1_555
C2 C1 1_555 1_555
H2 C2 1_555 1_555
C3 C2 1_555 1_555
C4 C3 1_555 1_555
C5 C4 1_555 1_555
C6 C5 1_555 1_555
H3 C6 1_555 1_555
C7 C6 1_555 1_555
H4 C7 1_555 1_555
C8 C7 1_555 1_555
C9 C8 1_555 1_555
C10 C9 1_555 1_555
C11 C10 1_555 1_555
H5 C11 1_555 1_555
C12 C11 1_555 1_555
H6 C12 1_555 1_555
C13 C12 1_555 1_555
H7 C13 1_555 1_555
C14 C3 1_555 1_555
H8 C14 1_555 1_555
C15 C14 1_555 1_555
H9 C15 1_555 1_555
C16 C5 1_555 1_555
H10 C16 1_555 1_555
C17 C4 1_555 1_555
H11 C17 1_555 1_555
C18 C1 1_555 1_555
H12 C18 1_555 1_555
C19 O1 1_555 1_555
C20 C9 1_555 1_555
C21 C13 1_555 1_555
H13 C21 1_555 1_555
C22 C10 1_555 1_555
H14 C22 1_555 1_555
C23 C20 1_555 1_555
H15 C23 1_555 1_555
H16 C23 1_555 1_555
H17 C23 1_555 1_555
C24 C8 1_555 1_555
H18 C24 1_555 1_555
H19 C24 1_555 1_555
H20 C24 1_555 1_555
C15 C16 1_555 1_555
C17 C18 1_555 1_555
C19 C20 1_555 1_555
C21 C22 1_555 1_555

#END
