
#######################################################################
#
#                 Cambridge Crystallographic Data Centre
#                                CCDC 
#
#######################################################################
#
# If this CIF has been generated from an entry in the Cambridge 
# Structural Database, then it will include bibliographic, chemical, 
# crystal, experimental, refinement or atomic coordinate data resulting 
# from the CCDC's data processing and validation procedures.
#
#######################################################################

data_TUGYOL
_chemical_formula_moiety         'C20 H18 O2'
_chemical_name_systematic        
3,5-Dimethyl-4-phenyl-5-(2-phenylvinyl)furan-2(5H)-one
_symmetry_cell_setting           monoclinic
_symmetry_space_group_name_H-M   'P 21/c'
_symmetry_Int_Tables_number      14
_space_group_name_Hall           '-P 2ybc'
loop_
_symmetry_equiv_pos_site_id
_symmetry_equiv_pos_as_xyz
1 x,y,z
2 -x,1/2+y,1/2-z
3 -x,-y,-z
4 x,1/2-y,1/2+z
_cell_length_a                   9.9332(8)
_cell_length_b                   17.0970(10)
_cell_length_c                   9.4240(7)
_cell_angle_alpha                90
_cell_angle_beta                 97.096(4)
_cell_angle_gamma                90
_cell_volume                     1588.2
_exptl_crystal_colour            colorless
_cell_formula_units_Z            4
loop_
_atom_site_label
_atom_site_type_symbol
_atom_site_fract_x
_atom_site_fract_y
_atom_site_fract_z
O1 O 0.75913(15) 0.09276(9) 0.24113(15)
O2 O 0.87728(17) -0.01462(11) 0.20079(17)
C1 C 0.6042(3) 0.08727(13) 0.8931(3)
H1 H 0.5788 0.0918 0.9867
C2 C 0.7385(3) 0.07497(13) 0.8743(2)
H2 H 0.8056 0.0716 0.9552
C3 C 0.7754(2) 0.06752(13) 0.7385(2)
H3 H 0.8677 0.0585 0.7266
C4 C 0.6787(2) 0.07313(10) 0.6188(2)
C5 C 0.7208(2) 0.06339(11) 0.4745(2)
C6 C 0.6904(2) 0.12446(11) 0.3573(2)
C7 C 0.5424(2) 0.12816(12) 0.2984(2)
H4 H 0.5029 0.0810 0.2593
C8 C 0.4619(2) 0.18930(12) 0.2950(2)
H5 H 0.5006 0.2369 0.3329
C9 C 0.3175(2) 0.19075(12) 0.2380(2)
C10 C 0.2595(2) 0.13610(13) 0.1388(2)
H6 H 0.3157 0.0980 0.1021
C11 C 0.1225(2) 0.13623(15) 0.0932(3)
H7 H 0.0849 0.0984 0.0258
C12 C 0.0400(3) 0.19119(16) 0.1450(3)
H8 H -0.0549 0.1908 0.1152
C13 C 0.5074(3) 0.09286(12) 0.7758(3)
H9 H 0.4151 0.1011 0.7886
C14 C 0.5439(2) 0.08653(11) 0.6394(2)
H10 H 0.4766 0.0913 0.5589
C15 C 0.8171(2) 0.02260(13) 0.2810(2)
C16 C 0.7929(2) 0.00507(12) 0.4279(2)
C17 C 0.8438(2) -0.06930(13) 0.4974(2)
H11 H 0.8180 -0.0718 0.5944
H12 H 0.9428 -0.0713 0.5021
H13 H 0.8040 -0.1138 0.4415
C18 C 0.2326(3) 0.24642(13) 0.2869(3)
H14 H 0.2693 0.2849 0.3535
C19 C 0.0957(3) 0.24654(15) 0.2401(3)
H15 H 0.0391 0.2854 0.2739
C20 C 0.7549(3) 0.20288(13) 0.4006(3)
H16 H 0.8524 0.1957 0.4292
H17 H 0.7131 0.2244 0.4811
H18 H 0.7410 0.2391 0.3195
loop_
_geom_bond_atom_site_label_1
_geom_bond_atom_site_label_2
_geom_bond_site_symmetry_1
_geom_bond_site_symmetry_2
O1 C6 1_555 1_555
O2 C15 1_555 1_555
C1 H1 1_555 1_555
C2 C1 1_555 1_555
H2 C2 1_555 1_555
C3 C2 1_555 1_555
H3 C3 1_555 1_555
C4 C3 1_555 1_555
C5 C4 1_555 1_555
C6 C5 1_555 1_555
C7 C6 1_555 1_555
H4 C7 1_555 1_555
C8 C7 1_555 1_555
H5 C8 1_555 1_555
C9 C8 1_555 1_555
C10 C9 1_555 1_555
H6 C10 1_555 1_555
C11 C10 1_555 1_555
H7 C11 1_555 1_555
C12 C11 1_555 1_555
H8 C12 1_555 1_555
C13 C1 1_555 1_555
H9 C13 1_555 1_555
C14 C4 1_555 1_555
H10 C14 1_555 1_555
C15 O1 1_555 1_555
C16 C5 1_555 1_555
C17 C16 1_555 1_555
H11 C17 1_555 1_555
H12 C17 1_555 1_555
H13 C17 1_555 1_555
C18 C9 1_555 1_555
H14 C18 1_555 1_555
C19 C12 1_555 1_555
H15 C19 1_555 1_555
C20 C6 1_555 1_555
H16 C20 1_555 1_555
H17 C20 1_555 1_555
H18 C20 1_555 1_555
C13 C14 1_555 1_555
C15 C16 1_555 1_555
C18 C19 1_555 1_555

#END
