
#######################################################################
#
#                 Cambridge Crystallographic Data Centre
#                                CCDC 
#
#######################################################################
#
# If this CIF has been generated from an entry in the Cambridge 
# Structural Database, then it will include bibliographic, chemical, 
# crystal, experimental, refinement or atomic coordinate data resulting 
# from the CCDC's data processing and validation procedures.
#
#######################################################################

data_TUGZUR
_chemical_formula_moiety         'C24 H20 N2 O4'
_chemical_name_systematic        
3-((2S*,3S*,4R*)-2-(4-Methoxyphenyl)-3-nitro-3,4-dihydro-2H-chromen-4-yl)-1H-indole
_symmetry_cell_setting           monoclinic
_symmetry_space_group_name_H-M   'P 21/n'
_symmetry_Int_Tables_number      14
_space_group_name_Hall           '-P 2yn'
loop_
_symmetry_equiv_pos_site_id
_symmetry_equiv_pos_as_xyz
1 x,y,z
2 1/2-x,1/2+y,1/2-z
3 -x,-y,-z
4 1/2+x,1/2-y,1/2+z
_cell_length_a                   12.9428(14)
_cell_length_b                   10.0881(10)
_cell_length_c                   15.9582(18)
_cell_angle_alpha                90
_cell_angle_beta                 108.301(7)
_cell_angle_gamma                90
_cell_volume                     1978.24
_exptl_crystal_colour            colorless
_exptl_crystal_description       prism
_chemical_melting_point          '201-203 deg.C'
_cell_formula_units_Z            4
_exptl_crystal_recrystallization_method 'hexane/ethyl acetate'
loop_
_atom_site_label
_atom_site_type_symbol
_atom_site_fract_x
_atom_site_fract_y
_atom_site_fract_z
C1 C 0.6302(2) 0.2131(3) 0.96469(18)
H1 H 0.5838 0.2097 1.0028
C2 C 0.7466(2) 0.2355(3) 1.0236(2)
H2 H 0.7922 0.2580 0.9869
C3 C 0.7964(2) 0.1199(3) 1.0824(2)
C4 C 0.8843(3) 0.0561(3) 1.0714(2)
H3 H 0.9153 0.0881 1.0301
C5 C 0.9285(3) -0.0556(3) 1.1208(2)
H4 H 0.9878 -0.0988 1.1121
C6 C 0.8837(3) -0.1011(3) 1.1823(2)
C7 C 1.0124(4) -0.2778(3) 1.2243(3)
H5 H 1.0282 -0.3545 1.2619
H6 H 1.0731 -0.2180 1.2414
H7 H 0.9992 -0.3047 1.1642
C8 C 0.7974(3) -0.0365(3) 1.1962(2)
H8 H 0.7681 -0.0670 1.2389
C9 C 0.7538(3) 0.0751(3) 1.1463(2)
H9 H 0.6957 0.1195 1.1560
C10 C 0.6905(3) 0.4587(3) 1.0363(2)
C11 C 0.7164(3) 0.5771(3) 1.0824(2)
H10 H 0.7671 0.5786 1.1385
C12 C 0.6663(3) 0.6921(3) 1.0443(3)
H11 H 0.6830 0.7718 1.0749
C13 C 0.5918(3) 0.6900(3) 0.9612(3)
H12 H 0.5593 0.7684 0.9351
C14 C 0.5652(3) 0.5716(3) 0.9166(2)
H13 H 0.5127 0.5701 0.8613
C15 C 0.6160(2) 0.4547(3) 0.9533(2)
C16 C 0.5895(2) 0.3277(2) 0.89908(18)
H14 H 0.5101 0.3205 0.8742
C17 C 0.6364(2) 0.3341(3) 0.82342(19)
C18 C 0.7166(3) 0.4159(3) 0.8180(2)
H15 H 0.7539 0.4746 0.8620
C19 C 0.6651(3) 0.3071(3) 0.6905(2)
C20 C 0.6533(3) 0.2620(3) 0.6067(2)
H16 H 0.6966 0.2940 0.5745
C21 C 0.5753(3) 0.1684(4) 0.5727(2)
H17 H 0.5661 0.1346 0.5166
C22 C 0.5089(3) 0.1225(3) 0.6207(2)
H18 H 0.4554 0.0599 0.5955
C23 C 0.5214(3) 0.1682(3) 0.7045(2)
H19 H 0.4773 0.1366 0.7362
C24 C 0.6013(2) 0.2629(3) 0.74095(19)
N1 N 0.6170(3) 0.0846(3) 0.91575(17)
N2 N 0.7354(2) 0.4008(3) 0.73952(19)
H20 H 0.7834 0.4431 0.7231
O1 O 0.5304(3) 0.0284(2) 0.90043(18)
O2 O 0.6924(2) 0.0490(2) 0.89124(16)
O3 O 0.9184(2) -0.2132(2) 1.23255(15)
O4 O 0.74311(17) 0.34670(19) 1.07960(13)
loop_
_geom_bond_atom_site_label_1
_geom_bond_atom_site_label_2
_geom_bond_site_symmetry_1
_geom_bond_site_symmetry_2
C1 H1 1_555 1_555
C2 C1 1_555 1_555
H2 C2 1_555 1_555
C3 C2 1_555 1_555
C4 C3 1_555 1_555
H3 C4 1_555 1_555
C5 C4 1_555 1_555
H4 C5 1_555 1_555
C6 C5 1_555 1_555
C7 H5 1_555 1_555
H6 C7 1_555 1_555
H7 C7 1_555 1_555
C8 C6 1_555 1_555
H8 C8 1_555 1_555
C9 C3 1_555 1_555
H9 C9 1_555 1_555
C10 C11 1_555 1_555
C11 H10 1_555 1_555
C12 C11 1_555 1_555
H11 C12 1_555 1_555
C13 C12 1_555 1_555
H12 C13 1_555 1_555
C14 C13 1_555 1_555
H13 C14 1_555 1_555
C15 C10 1_555 1_555
C16 C1 1_555 1_555
H14 C16 1_555 1_555
C17 C16 1_555 1_555
C18 C17 1_555 1_555
H15 C18 1_555 1_555
C19 C20 1_555 1_555
C20 H16 1_555 1_555
C21 C20 1_555 1_555
H17 C21 1_555 1_555
C22 C21 1_555 1_555
H18 C22 1_555 1_555
C23 C22 1_555 1_555
H19 C23 1_555 1_555
C24 C17 1_555 1_555
N1 C1 1_555 1_555
N2 C18 1_555 1_555
H20 N2 1_555 1_555
O1 N1 1_555 1_555
O2 N1 1_555 1_555
O3 C6 1_555 1_555
O4 C2 1_555 1_555
C7 O3 1_555 1_555
C8 C9 1_555 1_555
C10 O4 1_555 1_555
C14 C15 1_555 1_555
C15 C16 1_555 1_555
C19 C24 1_555 1_555
C19 N2 1_555 1_555
C23 C24 1_555 1_555

#END
