
#######################################################################
#
#                 Cambridge Crystallographic Data Centre
#                                CCDC 
#
#######################################################################
#
# If this CIF has been generated from an entry in the Cambridge 
# Structural Database, then it will include bibliographic, chemical, 
# crystal, experimental, refinement or atomic coordinate data resulting 
# from the CCDC's data processing and validation procedures.
#
#######################################################################

data_TUHBAA
_chemical_formula_moiety         'C24 H20 N2 O4'
_chemical_name_systematic        
3-((2S*,3R*,4R*)-2-(4-Methoxyphenyl)-3-nitro-3,4-dihydro-2H-chromen-4-yl)-1H-indole
_symmetry_cell_setting           triclinic
_symmetry_space_group_name_H-M   'P -1'
_symmetry_Int_Tables_number      2
_space_group_name_Hall           '-P 1'
loop_
_symmetry_equiv_pos_site_id
_symmetry_equiv_pos_as_xyz
1 x,y,z
2 -x,-y,-z
_cell_length_a                   9.5512(2)
_cell_length_b                   9.7059(2)
_cell_length_c                   22.4393(4)
_cell_angle_alpha                84.9330(10)
_cell_angle_beta                 89.4700(10)
_cell_angle_gamma                81.5060(10)
_cell_volume                     2049.32
_exptl_crystal_colour            colorless
_exptl_crystal_description       prism
_chemical_melting_point          '185-187 deg.C'
_cell_formula_units_Z            4
loop_
_atom_site_label
_atom_site_type_symbol
_atom_site_fract_x
_atom_site_fract_y
_atom_site_fract_z
C1 C 1.2251(2) 0.3848(3) 0.38913(11)
H1 H 1.1841 0.4129 0.3492
C2 C 1.1674(2) 0.2520(3) 0.41383(11)
H2 H 1.2261 0.1715 0.3984
C3 C 1.0192(2) 0.2587(3) 0.39056(11)
C4 C 0.9817(2) 0.2490(3) 0.32941(11)
C5 C 1.0603(3) 0.2323(3) 0.27731(12)
H3 H 1.1587 0.2207 0.2784
C6 C 0.9893(4) 0.2334(3) 0.22407(13)
H4 H 1.0403 0.2242 0.1888
C7 C 0.8423(4) 0.2481(3) 0.22241(14)
H5 H 0.7971 0.2478 0.1859
C8 C 0.7622(3) 0.2632(3) 0.27305(13)
H6 H 0.6640 0.2724 0.2716
C9 C 0.8335(3) 0.2642(3) 0.32663(12)
C10 C 0.8952(3) 0.2798(3) 0.42123(12)
H7 H 0.8877 0.2905 0.4620
C11 C 1.1747(2) 0.2340(3) 0.48126(11)
C12 C 1.1534(3) 0.1091(3) 0.51248(13)
H8 H 1.1370 0.0349 0.4913
C13 C 1.1557(3) 0.0920(3) 0.57377(14)
H9 H 1.1396 0.0077 0.5937
C14 C 1.1820(3) 0.1999(3) 0.60555(13)
H10 H 1.1838 0.1889 0.6471
C15 C 1.2056(3) 0.3242(3) 0.57603(12)
H11 H 1.2250 0.3967 0.5976
C16 C 1.2007(2) 0.3420(3) 0.51436(11)
C17 C 1.1821(3) 0.5049(3) 0.42812(11)
H12 H 1.0784 0.5239 0.4282
C18 C 1.2348(3) 0.6383(3) 0.40539(11)
C19 C 1.1660(3) 0.7210(3) 0.35810(13)
H13 H 1.0854 0.6951 0.3420
C20 C 1.2138(3) 0.8401(3) 0.33443(13)
H14 H 1.1652 0.8946 0.3028
C21 C 1.3342(3) 0.8797(3) 0.35741(12)
C22 C 1.5126(5) 1.0259(4) 0.34280(19)
H15 H 1.5286 1.1120 0.3212
H16 H 1.5812 0.9508 0.3309
H17 H 1.5215 1.0330 0.3850
C23 C 1.4035(3) 0.8001(3) 0.40452(13)
H18 H 1.4839 0.8266 0.4205
C24 C 1.3536(3) 0.6793(3) 0.42848(13)
H19 H 1.4011 0.6257 0.4605
N1 N 1.3833(2) 0.3605(3) 0.38284(12)
N2 N 0.7835(2) 0.2829(2) 0.38322(10)
H39 H 0.6957 0.2947 0.3933
O1 O 1.4548(2) 0.3110(3) 0.42601(11)
O2 O 1.4324(2) 0.3902(3) 0.33413(12)
O3 O 1.22715(19) 0.46904(19) 0.48843(7)
O4 O 1.3750(2) 0.9990(2) 0.33004(10)
C25 C 0.3511(2) 0.8981(3) 0.12729(11)
H20 H 0.4120 0.8073 0.1331
C26 C 0.4070(2) 0.9984(3) 0.16801(11)
H21 H 0.3646 0.9848 0.2076
C27 C 0.5640(2) 0.9550(3) 0.17429(10)
C28 C 0.6300(2) 0.8321(3) 0.20892(10)
C29 C 0.5790(3) 0.7263(3) 0.24632(11)
H22 H 0.4824 0.7288 0.2529
C30 C 0.6744(3) 0.6196(3) 0.27280(12)
H23 H 0.6419 0.5489 0.2974
C31 C 0.8194(3) 0.6153(3) 0.26338(12)
H24 H 0.8815 0.5413 0.2818
C32 C 0.8726(3) 0.7166(3) 0.22797(12)
H25 H 0.9696 0.7133 0.2223
C33 C 0.7771(3) 0.8247(3) 0.20073(10)
C34 C 0.6699(3) 1.0146(3) 0.14671(12)
H26 H 0.6572 1.0962 0.1211
C35 C 0.3632(3) 1.1486(3) 0.14431(12)
C36 C 0.3774(3) 1.2569(3) 0.17987(14)
H27 H 0.4191 1.2354 0.2175
C37 C 0.3317(4) 1.3937(4) 0.16078(17)
H28 H 0.3442 1.4640 0.1850
C38 C 0.2670(4) 1.4274(4) 0.10574(17)
H29 H 0.2333 1.5201 0.0932
C39 C 0.2525(3) 1.3236(3) 0.06958(15)
H30 H 0.2098 1.3461 0.0322
C40 C 0.3014(3) 1.1853(3) 0.08863(12)
C41 C 0.3596(3) 0.9523(3) 0.06166(11)
H31 H 0.4592 0.9586 0.0528
C42 C 0.3111(3) 0.8554(3) 0.01974(11)
C43 C 0.1717(3) 0.8650(4) 0.00295(14)
H32 H 0.1054 0.9372 0.0151
C44 C 0.1296(4) 0.7683(4) -0.03175(16)
H33 H 0.0350 0.7759 -0.0429
C45 C 0.2250(4) 0.6613(4) -0.04996(13)
C46 C 0.2563(5) 0.4673(4) -0.1063(2)
H34 H 0.2019 0.4141 -0.1288
H35 H 0.3059 0.4073 -0.0746
H36 H 0.3232 0.5071 -0.1322
C47 C 0.3654(4) 0.6531(3) -0.03530(13)
H37 H 0.4318 0.5826 -0.0487
C48 C 0.4071(3) 0.7502(3) -0.00057(11)
H38 H 0.5022 0.7443 0.0093
N3 N 0.2037(2) 0.8762(3) 0.14329(11)
N4 N 0.7980(2) 0.9373(2) 0.16204(10)
H40 H 0.8789 0.9563 0.1494
O5 O 0.1827(3) 0.7572(3) 0.15539(16)
O6 O 0.1119(2) 0.9758(3) 0.14192(12)
O7 O 0.2820(2) 1.0881(2) 0.04933(8)
O8 O 0.1686(4) 0.5712(3) -0.08275(12)
loop_
_geom_bond_atom_site_label_1
_geom_bond_atom_site_label_2
_geom_bond_site_symmetry_1
_geom_bond_site_symmetry_2
C1 H1 1_555 1_555
C2 C1 1_555 1_555
H2 C2 1_555 1_555
C3 C2 1_555 1_555
C4 C3 1_555 1_555
C5 C4 1_555 1_555
H3 C5 1_555 1_555
C6 C5 1_555 1_555
H4 C6 1_555 1_555
C7 C6 1_555 1_555
H5 C7 1_555 1_555
C8 C7 1_555 1_555
H6 C8 1_555 1_555
C9 C4 1_555 1_555
C10 C3 1_555 1_555
H7 C10 1_555 1_555
C11 C2 1_555 1_555
C12 C11 1_555 1_555
H8 C12 1_555 1_555
C13 C12 1_555 1_555
H9 C13 1_555 1_555
C14 C13 1_555 1_555
H10 C14 1_555 1_555
C15 C14 1_555 1_555
H11 C15 1_555 1_555
C16 C11 1_555 1_555
C17 C1 1_555 1_555
H12 C17 1_555 1_555
C18 C17 1_555 1_555
C19 C18 1_555 1_555
H13 C19 1_555 1_555
C20 C19 1_555 1_555
H14 C20 1_555 1_555
C21 C20 1_555 1_555
C22 H15 1_555 1_555
H16 C22 1_555 1_555
H17 C22 1_555 1_555
C23 C21 1_555 1_555
H18 C23 1_555 1_555
C24 C18 1_555 1_555
H19 C24 1_555 1_555
C25 H20 1_555 1_555
C26 C25 1_555 1_555
H21 C26 1_555 1_555
C27 C26 1_555 1_555
C28 C27 1_555 1_555
C29 C28 1_555 1_555
H22 C29 1_555 1_555
C30 C29 1_555 1_555
H23 C30 1_555 1_555
C31 C30 1_555 1_555
H24 C31 1_555 1_555
C32 C31 1_555 1_555
H25 C32 1_555 1_555
C33 C28 1_555 1_555
C34 C27 1_555 1_555
H26 C34 1_555 1_555
C35 C26 1_555 1_555
C36 C35 1_555 1_555
H27 C36 1_555 1_555
C37 C36 1_555 1_555
H28 C37 1_555 1_555
C38 C37 1_555 1_555
H29 C38 1_555 1_555
C39 C38 1_555 1_555
H30 C39 1_555 1_555
C40 C35 1_555 1_555
C41 C25 1_555 1_555
H31 C41 1_555 1_555
C42 C41 1_555 1_555
C43 C42 1_555 1_555
H32 C43 1_555 1_555
C44 C43 1_555 1_555
H33 C44 1_555 1_555
C45 C44 1_555 1_555
C46 H34 1_555 1_555
H35 C46 1_555 1_555
H36 C46 1_555 1_555
C47 C45 1_555 1_555
H37 C47 1_555 1_555
C48 C42 1_555 1_555
H38 C48 1_555 1_555
N1 C1 1_555 1_555
N2 C9 1_555 1_555
H39 N2 1_555 1_555
N3 C25 1_555 1_555
N4 C33 1_555 1_555
H40 N4 1_555 1_555
O1 N1 1_555 1_555
O2 N1 1_555 1_555
O3 C16 1_555 1_555
O4 C21 1_555 1_555
O5 N3 1_555 1_555
O6 N3 1_555 1_555
O7 C40 1_555 1_555
O8 C45 1_555 1_555
C8 C9 1_555 1_555
C10 N2 1_555 1_555
C15 C16 1_555 1_555
C17 O3 1_555 1_555
C22 O4 1_555 1_555
C23 C24 1_555 1_555
C32 C33 1_555 1_555
C34 N4 1_555 1_555
C39 C40 1_555 1_555
C41 O7 1_555 1_555
C46 O8 1_555 1_555
C47 C48 1_555 1_555

#END
