
#######################################################################
#
#                 Cambridge Crystallographic Data Centre
#                                CCDC 
#
#######################################################################
#
# If this CIF has been generated from an entry in the Cambridge 
# Structural Database, then it will include bibliographic, chemical, 
# crystal, experimental, refinement or atomic coordinate data resulting 
# from the CCDC's data processing and validation procedures.
#
#######################################################################

data_TUHBII
_chemical_formula_moiety         'C19 H18 N2 O3'
_chemical_name_systematic        
3-((3S*,4S*)-2,2-Dimethyl-3-nitro-3,4-dihydro-2H-chromen-4-yl)-1H-indole
_symmetry_cell_setting           triclinic
_symmetry_space_group_name_H-M   'P -1'
_symmetry_Int_Tables_number      2
_space_group_name_Hall           '-P 1'
loop_
_symmetry_equiv_pos_site_id
_symmetry_equiv_pos_as_xyz
1 x,y,z
2 -x,-y,-z
_cell_length_a                   8.8496(3)
_cell_length_b                   9.1080(3)
_cell_length_c                   10.2057(4)
_cell_angle_alpha                83.9730(10)
_cell_angle_beta                 81.0530(10)
_cell_angle_gamma                80.941(2)
_cell_volume                     799.719
_exptl_crystal_colour            colorless
_exptl_crystal_description       prism
_chemical_melting_point          '197-199 deg.C'
_cell_formula_units_Z            2
loop_
_atom_site_label
_atom_site_type_symbol
_atom_site_fract_x
_atom_site_fract_y
_atom_site_fract_z
O1 O -0.1564(2) -0.37924(18) 0.24734(19)
O2 O -0.2775(2) -0.2519(2) 0.40847(19)
O3 O -0.15452(18) 0.11040(16) 0.12625(16)
N1 N -0.1917(2) -0.2633(2) 0.3027(2)
N2 N 0.2216(2) -0.4118(2) 0.49178(19)
H1 H 0.2398 -0.4752 0.5607
C1 C -0.1193(2) -0.1308(2) 0.2386(2)
H2 H -0.0558 -0.1589 0.1525
C2 C -0.2422(2) 0.0038(2) 0.2082(2)
C3 C -0.3494(3) -0.0374(3) 0.1205(3)
H3 H -0.2883 -0.0871 0.0448
H4 H -0.4128 0.0531 0.0878
H5 H -0.4167 -0.1050 0.1721
C4 C -0.3320(3) 0.0797(3) 0.3281(2)
H6 H -0.2596 0.1049 0.3828
H7 H -0.3984 0.0122 0.3810
H8 H -0.3960 0.1711 0.2978
C5 C -0.0252(2) 0.1426(2) 0.1726(2)
C6 C 0.0240(3) 0.2768(2) 0.1204(2)
H9 H -0.0329 0.3420 0.0607
C7 C 0.1565(3) 0.3150(3) 0.1561(3)
H10 H 0.1905 0.4070 0.1212
C8 C 0.2392(3) 0.2194(3) 0.2422(2)
H11 H 0.3310 0.2449 0.2656
C9 C 0.1883(2) 0.0865(2) 0.2943(2)
H12 H 0.2466 0.0211 0.3529
C10 C 0.0535(2) 0.0462(2) 0.2631(2)
C11 C -0.0109(2) -0.0929(2) 0.3295(2)
H13 H -0.0773 -0.0633 0.4139
C12 C 0.1062(2) -0.2223(2) 0.3675(2)
C13 C 0.0982(3) -0.3004(2) 0.4892(2)
H14 H 0.0186 -0.2805 0.5618
C14 C 0.3122(2) -0.4090(2) 0.3699(2)
C15 C 0.4492(3) -0.4986(2) 0.3257(3)
H15 H 0.4952 -0.5762 0.3830
C16 C 0.5151(3) -0.4711(3) 0.1972(3)
H16 H 0.6087 -0.5306 0.1645
C17 C 0.4473(3) -0.3568(3) 0.1121(3)
H17 H 0.4956 -0.3413 0.0229
C18 C 0.3121(3) -0.2662(3) 0.1554(2)
H18 H 0.2673 -0.1890 0.0972
C19 C 0.2424(2) -0.2912(2) 0.2875(2)
loop_
_geom_bond_atom_site_label_1
_geom_bond_atom_site_label_2
_geom_bond_site_symmetry_1
_geom_bond_site_symmetry_2
O1 N1 1_555 1_555
O2 N1 1_555 1_555
O3 C2 1_555 1_555
N1 C1 1_555 1_555
N2 H1 1_555 1_555
C1 H2 1_555 1_555
C2 C1 1_555 1_555
C3 C2 1_555 1_555
H3 C3 1_555 1_555
H4 C3 1_555 1_555
H5 C3 1_555 1_555
C4 C2 1_555 1_555
H6 C4 1_555 1_555
H7 C4 1_555 1_555
H8 C4 1_555 1_555
C5 O3 1_555 1_555
C6 C5 1_555 1_555
H9 C6 1_555 1_555
C7 C6 1_555 1_555
H10 C7 1_555 1_555
C8 C7 1_555 1_555
H11 C8 1_555 1_555
C9 C8 1_555 1_555
H12 C9 1_555 1_555
C10 C5 1_555 1_555
C11 C1 1_555 1_555
H13 C11 1_555 1_555
C12 C11 1_555 1_555
C13 N2 1_555 1_555
H14 C13 1_555 1_555
C14 N2 1_555 1_555
C15 C14 1_555 1_555
H15 C15 1_555 1_555
C16 C15 1_555 1_555
H16 C16 1_555 1_555
C17 C16 1_555 1_555
H17 C17 1_555 1_555
C18 C17 1_555 1_555
H18 C18 1_555 1_555
C19 C12 1_555 1_555
C9 C10 1_555 1_555
C10 C11 1_555 1_555
C12 C13 1_555 1_555
C14 C19 1_555 1_555
C18 C19 1_555 1_555

#END
