
#######################################################################
#
#                 Cambridge Crystallographic Data Centre
#                                CCDC 
#
#######################################################################
#
# If this CIF has been generated from an entry in the Cambridge 
# Structural Database, then it will include bibliographic, chemical, 
# crystal, experimental, refinement or atomic coordinate data resulting 
# from the CCDC's data processing and validation procedures.
#
#######################################################################

data_TUHCUV
_chemical_formula_moiety         'C17 H25 N3 O1'
_chemical_name_systematic        1-(1H-Indol-7-yl)-3-octylurea
_symmetry_cell_setting           monoclinic
_symmetry_space_group_name_H-M   'P c'
_symmetry_Int_Tables_number      7
_space_group_name_Hall           'P -2yc'
loop_
_symmetry_equiv_pos_site_id
_symmetry_equiv_pos_as_xyz
1 x,y,z
2 x,-y,1/2+z
_cell_length_a                   16.3756(6)
_cell_length_b                   4.67870(10)
_cell_length_c                   10.1995(4)
_cell_angle_alpha                90
_cell_angle_beta                 91.120(2)
_cell_angle_gamma                90
_cell_volume                     781.301
_exptl_crystal_colour            colorless
_exptl_crystal_description       block
_cell_formula_units_Z            2
loop_
_atom_site_label
_atom_site_type_symbol
_atom_site_fract_x
_atom_site_fract_y
_atom_site_fract_z
O1 O 0.46696(12) 0.0888(3) 0.86770(19)
N1 N 0.22490(13) 0.5543(5) 0.8814(2)
H1 H 0.2508(15) 0.666(5) 0.828(3)
N2 N 0.40400(13) 0.4904(4) 0.9429(2)
H2 H 0.4001(17) 0.679(4) 0.934(3)
N3 N 0.51520(13) 0.5224(4) 0.8088(2)
H3 H 0.5085(17) 0.711(4) 0.807(3)
C1 C 0.14181(17) 0.5169(6) 0.8812(3)
H4 H 0.1039 0.6164 0.8263
C2 C 0.12187(16) 0.3159(6) 0.9716(3)
H5 H 0.0684 0.2510 0.9907
C3 C 0.21678(16) 0.0131(6) 1.1281(2)
H6 H 0.1755 -0.0973 1.1683
C4 C 0.29784(16) -0.0254(5) 1.1616(3)
H7 H 0.3122 -0.1645 1.2259
C5 C 0.36004(16) 0.1347(5) 1.1036(2)
H8 H 0.4153 0.1044 1.1304
C6 C 0.34197(15) 0.3357(5) 1.0080(2)
C7 C 0.25995(14) 0.3768(5) 0.9736(2)
C8 C 0.19654(15) 0.2204(5) 1.0326(2)
C9 C 0.46263(16) 0.3535(5) 0.8722(3)
C10 C 0.57276(16) 0.4012(6) 0.7189(3)
H9 H 0.5426 0.2882 0.6516
H10 H 0.6098 0.2696 0.7675
C11 C 0.62333(15) 0.6279(6) 0.6514(2)
H11 H 0.6518 0.7462 0.7185
H12 H 0.5867 0.7544 0.5993
C12 C 0.68593(15) 0.4945(6) 0.5617(3)
H13 H 0.7197 0.3584 0.6136
H14 H 0.6566 0.3839 0.4928
C13 C 0.74223(16) 0.7065(6) 0.4961(3)
H15 H 0.7721 0.8172 0.5644
H16 H 0.7090 0.8423 0.4432
C14 C 0.80371(16) 0.5609(6) 0.4077(3)
H17 H 0.7735 0.4432 0.3423
H18 H 0.8380 0.4304 0.4618
C15 C 0.85939(16) 0.7663(6) 0.3354(3)
H19 H 0.8254 0.8943 0.2796
H20 H 0.8891 0.8865 0.4004
C16 C 0.92099(15) 0.6150(6) 0.2502(3)
H21 H 0.8913 0.4903 0.1870
H22 H 0.9560 0.4913 0.3065
C17 C 0.97548(18) 0.8201(7) 0.1742(3)
H23 H 1.0131 0.7100 0.1204
H24 H 1.0068 0.9395 0.2361
H25 H 0.9414 0.9422 0.1174
loop_
_geom_bond_atom_site_label_1
_geom_bond_atom_site_label_2
_geom_bond_site_symmetry_1
_geom_bond_site_symmetry_2
O1 C9 1_555 1_555
N1 H1 1_555 1_555
N2 H2 1_555 1_555
N3 H3 1_555 1_555
C1 N1 1_555 1_555
H4 C1 1_555 1_555
C2 C1 1_555 1_555
H5 C2 1_555 1_555
C3 H6 1_555 1_555
C4 C3 1_555 1_555
H7 C4 1_555 1_555
C5 C4 1_555 1_555
H8 C5 1_555 1_555
C6 N2 1_555 1_555
C7 N1 1_555 1_555
C8 C2 1_555 1_555
C9 N2 1_555 1_555
C10 N3 1_555 1_555
H9 C10 1_555 1_555
H10 C10 1_555 1_555
C11 C10 1_555 1_555
H11 C11 1_555 1_555
H12 C11 1_555 1_555
C12 C11 1_555 1_555
H13 C12 1_555 1_555
H14 C12 1_555 1_555
C13 C12 1_555 1_555
H15 C13 1_555 1_555
H16 C13 1_555 1_555
C14 C13 1_555 1_555
H17 C14 1_555 1_555
H18 C14 1_555 1_555
C15 C14 1_555 1_555
H19 C15 1_555 1_555
H20 C15 1_555 1_555
C16 C15 1_555 1_555
H21 C16 1_555 1_555
H22 C16 1_555 1_555
C17 C16 1_555 1_555
H23 C17 1_555 1_555
H24 C17 1_555 1_555
H25 C17 1_555 1_555
N3 C9 1_555 1_555
C3 C8 1_555 1_555
C5 C6 1_555 1_555
C6 C7 1_555 1_555
C7 C8 1_555 1_555

#END
