
#######################################################################
#
#                 Cambridge Crystallographic Data Centre
#                                CCDC 
#
#######################################################################
#
# If this CIF has been generated from an entry in the Cambridge 
# Structural Database, then it will include bibliographic, chemical, 
# crystal, experimental, refinement or atomic coordinate data resulting 
# from the CCDC's data processing and validation procedures.
#
#######################################################################

data_TUHKOW
_chemical_formula_moiety         'C15 H22 O5'
_chemical_name_systematic        
(5R*,6S*,11S*,17S*)-17-Hydroxy-1,7,12-trioxatrispiro(4.0.4.0.4.3)octadecan-16-one
_symmetry_cell_setting           triclinic
_symmetry_space_group_name_H-M   'P -1'
_symmetry_Int_Tables_number      2
_space_group_name_Hall           '-P 1'
loop_
_symmetry_equiv_pos_site_id
_symmetry_equiv_pos_as_xyz
1 x,y,z
2 -x,-y,-z
_cell_length_a                   6.6042(5)
_cell_length_b                   8.5115(6)
_cell_length_c                   13.4195(10)
_cell_angle_alpha                76.664(2)
_cell_angle_beta                 79.3160(10)
_cell_angle_gamma                67.4260(10)
_cell_volume                     673.807
_exptl_crystal_colour            colorless
_chemical_melting_point          98-100deg.C
_cell_formula_units_Z            2
loop_
_atom_site_label
_atom_site_type_symbol
_atom_site_fract_x
_atom_site_fract_y
_atom_site_fract_z
O1 O -0.4937(3) -1.2147(3) -0.1813(2)
O2 O -0.6189(3) -1.0960(2) -0.3754(1)
O3 O -0.4255(3) -0.6254(2) -0.3283(1)
O4 O -0.0622(3) -0.8758(2) -0.2156(1)
O5 O -0.0134(2) -1.1685(2) -0.2889(1)
C1 C -0.3923(4) -1.1347(3) -0.2414(2)
C2 C -0.4549(4) -1.0508(3) -0.3488(2)
C3 C -0.5202(4) -0.8560(3) -0.3552(2)
C4 C -0.3345(3) -0.8077(3) -0.3337(2)
C5 C -0.2560(4) -0.9053(3) -0.2267(2)
C6 C -0.1970(4) -1.1021(3) -0.2143(2)
C7 C -0.1487(4) -0.8256(3) -0.4238(2)
C8 C -0.1728(5) -0.6425(4) -0.4737(2)
C9 C -0.2829(5) -0.5412(3) -0.3900(2)
C10 C -0.4302(4) -0.8333(3) -0.1382(2)
C11 C -0.3247(9) -0.7806(8) -0.0712(4)
C12 C -0.1336(9) -0.7545(6) -0.1391(4)
C15 C -0.1192(4) -1.2068(3) -0.1100(2)
C16 C 0.0659(5) -1.3676(4) -0.1356(2)
C17 C 0.0909(4) -1.3496(3) -0.2504(2)
H1 H -0.7193(25) -1.0906(39) -0.3262(9)
H2 H -0.3201(4) -1.0901(3) -0.3983(2)
H3 H -0.5360(4) -0.7961(3) -0.4248(2)
H4 H -0.6504(4) -0.8153(3) -0.3048(2)
H5 H -0.0023(4) -0.8883(3) -0.3982(2)
H6 H -0.1665(4) -0.8884(3) -0.4732(2)
H7 H -0.0269(5) -0.6328(4) -0.4997(2)
H8 H -0.2642(5) -0.6025(4) -0.5317(2)
H9 H -0.1729(5) -0.5415(3) -0.3488(2)
H10 H -0.3686(5) -0.4201(3) -0.4186(2)
H11 H -0.5548(4) -0.7330(3) -0.1667(2)
H12 H -0.4882(4) -0.9233(3) -0.0982(2)
H15 H -0.2773(9) -0.8721(8) -0.0106(4)
H16 H -0.4253(9) -0.6725(8) -0.0472(4)
H17 H -0.0115(9) -0.7791(6) -0.0980(4)
H18 H -0.1746(9) -0.6333(6) -0.1756(4)
H23 H -0.0664(4) -1.1409(3) -0.0755(2)
H24 H -0.2404(4) -1.2361(3) -0.0642(2)
H25 H 0.2041(5) -1.3777(4) -0.1116(2)
H26 H 0.0297(5) -1.4716(4) -0.1024(2)
H27 H 0.2489(4) -1.3906(3) -0.2775(2)
H28 H 0.0185(4) -1.4178(3) -0.2711(2)
C13? C -0.3257(11) -0.7128(8) -0.1066(4)
C14? C -0.0692(10) -0.8100(8) -0.1325(5)
H13? H -0.4422(4) -0.9268(3) -0.0804(2)
H14? H -0.5771(4) -0.7658(3) -0.1624(2)
H19? H -0.3760(11) -0.5947(8) -0.1477(4)
H20? H -0.3639(11) -0.7057(8) -0.0324(4)
H21? H 0.0115(10) -0.7287(8) -0.1488(5)
H22? H -0.0066(10) -0.9025(8) -0.0747(5)
loop_
_geom_bond_atom_site_label_1
_geom_bond_atom_site_label_2
_geom_bond_site_symmetry_1
_geom_bond_site_symmetry_2
O1 C1 1_555 1_555
O2 C2 1_555 1_555
O3 C4 1_555 1_555
O4 C5 1_555 1_555
O5 C6 1_555 1_555
C1 C2 1_555 1_555
C2 C3 1_555 1_555
C3 C4 1_555 1_555
C4 C5 1_555 1_555
C5 C6 1_555 1_555
C6 C1 1_555 1_555
C7 C4 1_555 1_555
C8 C7 1_555 1_555
C9 O3 1_555 1_555
C10 C5 1_555 1_555
C11 C10 1_555 1_555
C12 O4 1_555 1_555
C15 C6 1_555 1_555
C16 C15 1_555 1_555
C17 O5 1_555 1_555
H1 O2 1_555 1_555
H2 C2 1_555 1_555
H3 C3 1_555 1_555
H4 C3 1_555 1_555
H5 C7 1_555 1_555
H6 C7 1_555 1_555
H7 C8 1_555 1_555
H8 C8 1_555 1_555
H9 C9 1_555 1_555
H10 C9 1_555 1_555
H11 C10 1_555 1_555
H12 C10 1_555 1_555
H15 C11 1_555 1_555
H16 C11 1_555 1_555
H17 C12 1_555 1_555
H18 C12 1_555 1_555
H23 C15 1_555 1_555
H24 C15 1_555 1_555
H25 C16 1_555 1_555
H26 C16 1_555 1_555
H27 C17 1_555 1_555
H28 C17 1_555 1_555
C8 C9 1_555 1_555
C11 C12 1_555 1_555
C16 C17 1_555 1_555

#END
