
#######################################################################
#
#                 Cambridge Crystallographic Data Centre
#                                CCDC 
#
#######################################################################
#
# If this CIF has been generated from an entry in the Cambridge 
# Structural Database, then it will include bibliographic, chemical, 
# crystal, experimental, refinement or atomic coordinate data resulting 
# from the CCDC's data processing and validation procedures.
#
#######################################################################

data_TUHKEM
_chemical_formula_moiety         'C19 H24 O2'
_chemical_name_systematic        
(5R*,6S*)-6-Allyl-7-((E)-benzylidene)-1-oxaspiro(4.5)decan-6-ol
_symmetry_cell_setting           monoclinic
_symmetry_space_group_name_H-M   'P 21/n'
_symmetry_Int_Tables_number      14
_space_group_name_Hall           '-P 2yn'
loop_
_symmetry_equiv_pos_site_id
_symmetry_equiv_pos_as_xyz
1 x,y,z
2 1/2-x,1/2+y,1/2-z
3 -x,-y,-z
4 1/2+x,1/2-y,1/2+z
_cell_length_a                   14.193(5)
_cell_length_b                   6.692(1)
_cell_length_c                   16.816(7)
_cell_angle_alpha                90
_cell_angle_beta                 92.93(3)
_cell_angle_gamma                90
_cell_volume                     1595.09
_exptl_crystal_colour            colorless
_chemical_melting_point          84-86deg.C
_cell_formula_units_Z            4
loop_
_atom_site_label
_atom_site_type_symbol
_atom_site_fract_x
_atom_site_fract_y
_atom_site_fract_z
O1 O -0.7383(3) -0.4538(7) -0.6595(3)
O2 O -0.8919(3) -0.1887(7) -0.6984(2)
C1 C -0.6787(5) -0.3883(12) -0.5941(5)
C2 C -0.7385(5) -0.2575(12) -0.5458(5)
C3 C -0.8327(4) -0.3633(10) -0.5515(4)
C4 C -0.8314(4) -0.4831(10) -0.6296(4)
C5 C -0.8468(4) -0.7043(10) -0.6151(4)
C6 C -0.9457(4) -0.7493(10) -0.5896(4)
C7 C -1.0197(4) -0.6680(10) -0.6492(4)
C8 C -1.0040(4) -0.4506(10) -0.6688(3)
C9 C -1.0695(4) -0.3063(10) -0.6656(3)
C10 C -1.1709(4) -0.3300(10) -0.6512(4)
C11 C -1.2161(5) -0.1840(11) -0.6064(3)
C12 C -1.3107(5) -0.2010(14) -0.5923(4)
C13 C -1.3626(5) -0.3575(14) -0.6222(4)
C14 C -1.3212(5) -0.4972(12) -0.6691(4)
C15 C -1.2258(5) -0.4842(12) -0.6832(4)
C16 C -0.9047(4) -0.4013(9) -0.6929(4)
C17 C -0.8894(4) -0.4917(11) -0.7752(4)
C18 C -0.9604(6) -0.4280(16) -0.8374(5)
C19 C -0.9550(6) -0.3637(15) -0.9023(5)
H1 H -0.9578 -0.1349 -0.7221
H2 H -0.6572(5) -0.4987(12) -0.5627(5)
H3 H -0.6260(5) -0.3170(12) -0.6122(5)
H4 H -0.7142(5) -0.2438(12) -0.4924(5)
H5 H -0.7444(5) -0.1292(12) -0.5697(5)
H6 H -0.8368(4) -0.4521(10) -0.5078(4)
H7 H -0.8840(4) -0.2720(10) -0.5522(4)
H8 H -0.8013(4) -0.7493(10) -0.5757(4)
H9 H -0.8390(4) -0.7746(10) -0.6634(4)
H10 H -0.9537(4) -0.8884(10) -0.5810(4)
H11 H -0.9536(4) -0.6792(10) -0.5413(4)
H12 H -1.0143(4) -0.7438(10) -0.6965(4)
H13 H -1.0811(4) -0.6851(10) -0.6302(4)
H14 H -1.0477(4) -0.1740(10) -0.6734(3)
H15 H -1.1801(5) -0.0740(11) -0.5859(3)
H16 H -1.3411(5) -0.1038(14) -0.5614(4)
H17 H -1.4273(5) -0.3680(14) -0.6111(4)
H18 H -1.3583(5) -0.6047(12) -0.6904(4)
H19 H -1.1970(5) -0.5794(12) -0.7161(4)
H20 H -0.8916(4) -0.6331(11) -0.7707(4)
H21 H -0.8291(4) -0.4522(11) -0.7916(4)
H22 H -1.0236(6) -0.4412(16) -0.8224(5)
H23 H -0.8971(6) -0.3481(15) -0.9186(5)
H24 H -1.0104(6) -0.3376(15) -0.9285(5)
loop_
_geom_bond_atom_site_label_1
_geom_bond_atom_site_label_2
_geom_bond_site_symmetry_1
_geom_bond_site_symmetry_2
O1 C1 1_555 1_555
O2 C16 1_555 1_555
C1 C2 1_555 1_555
C2 C3 1_555 1_555
C3 C4 1_555 1_555
C4 O1 1_555 1_555
C5 C4 1_555 1_555
C6 C5 1_555 1_555
C7 C6 1_555 1_555
C8 C7 1_555 1_555
C9 C8 1_555 1_555
C10 C9 1_555 1_555
C11 C10 1_555 1_555
C12 C11 1_555 1_555
C13 C12 1_555 1_555
C14 C13 1_555 1_555
C15 C10 1_555 1_555
C16 C4 1_555 1_555
C17 C16 1_555 1_555
C18 C17 1_555 1_555
C19 C18 1_555 1_555
H1 O2 1_555 1_555
H2 C1 1_555 1_555
H3 C1 1_555 1_555
H4 C2 1_555 1_555
H5 C2 1_555 1_555
H6 C3 1_555 1_555
H7 C3 1_555 1_555
H8 C5 1_555 1_555
H9 C5 1_555 1_555
H10 C6 1_555 1_555
H11 C6 1_555 1_555
H12 C7 1_555 1_555
H13 C7 1_555 1_555
H14 C9 1_555 1_555
H15 C11 1_555 1_555
H16 C12 1_555 1_555
H17 C13 1_555 1_555
H18 C14 1_555 1_555
H19 C15 1_555 1_555
H20 C17 1_555 1_555
H21 C17 1_555 1_555
H22 C18 1_555 1_555
H23 C19 1_555 1_555
H24 C19 1_555 1_555
C8 C16 1_555 1_555
C14 C15 1_555 1_555

#END
