
#######################################################################
#
#                 Cambridge Crystallographic Data Centre
#                                CCDC 
#
#######################################################################
#
# If this CIF has been generated from an entry in the Cambridge 
# Structural Database, then it will include bibliographic, chemical, 
# crystal, experimental, refinement or atomic coordinate data resulting 
# from the CCDC's data processing and validation procedures.
#
#######################################################################

data_TUHKIQ
_chemical_formula_moiety         'C12 H18 O4'
_chemical_name_systematic        
(5R*,6S*,12S*)-12-Hydroxy-1,7-dioxadispiro(4.0.4.4)tetradecan-11-one
_symmetry_cell_setting           monoclinic
_symmetry_space_group_name_H-M   'P 21/n'
_symmetry_Int_Tables_number      14
_space_group_name_Hall           '-P 2yn'
loop_
_symmetry_equiv_pos_site_id
_symmetry_equiv_pos_as_xyz
1 x,y,z
2 1/2-x,1/2+y,1/2-z
3 -x,-y,-z
4 1/2+x,1/2-y,1/2+z
_cell_length_a                   8.329(2)
_cell_length_b                   13.835(4)
_cell_length_c                   10.338(3)
_cell_angle_alpha                90
_cell_angle_beta                 106.040(4)
_cell_angle_gamma                90
_cell_volume                     1144.89
_exptl_crystal_colour            colorless
_chemical_melting_point          90-91deg.C
_cell_formula_units_Z            4
loop_
_atom_site_label
_atom_site_type_symbol
_atom_site_fract_x
_atom_site_fract_y
_atom_site_fract_z
O1 O 0.3376(2) 0.4197(1) 0.9009(1)
O2 O 0.5534(2) 0.5545(1) 0.8103(1)
O3 O 0.5110(1) 0.2324(1) 0.7493(1)
O4 O 0.1621(1) 0.3865(1) 0.5793(1)
C1 C 0.3726(2) 0.4140(1) 0.7833(2)
C2 C 0.4692(2) 0.4830(1) 0.7204(2)
C3 C 0.5885(2) 0.4239(1) 0.6646(2)
C4 C 0.4978(2) 0.3457(1) 0.5686(2)
C5 C 0.3987(2) 0.2775(1) 0.6337(1)
C6 C 0.2743(2) 0.3352(1) 0.6898(1)
C7 C 0.1652(2) 0.2756(1) 0.7566(2)
C8 C 0.0027(4) 0.3268(3) 0.7166(3)
C9 C -0.0061(4) 0.3542(3) 0.5700(3)
C12 C 0.3200(2) 0.1947(1) 0.5384(2)
C13 C 0.4066(6) 0.1057(3) 0.6091(6)
C14 C 0.5621(5) 0.1430(2) 0.7146(4)
H1 H 0.5505(25) 0.5409(9) 0.8868(4)
H2 H 0.3899(2) 0.5153(1) 0.6449(2)
H3 H 0.6460(2) 0.4665(1) 0.6176(2)
H4 H 0.6717(2) 0.3942(1) 0.7385(2)
H5 H 0.5788(2) 0.3085(1) 0.5378(2)
H6 H 0.4222(2) 0.3759(1) 0.4907(2)
H7 H 0.1540(2) 0.2096(1) 0.7236(2)
H8 H 0.2109(2) 0.2749(1) 0.8536(2)
H11 H 0.0031(4) 0.3836(3) 0.7717(3)
H12 H -0.0888(4) 0.2848(3) 0.7211(3)
H13 H -0.0360(4) 0.2988(3) 0.5107(3)
H14 H -0.0865(4) 0.4055(3) 0.5375(3)
H19 H 0.2005(2) 0.1914(1) 0.5264(2)
H20 H 0.3406(2) 0.2026(1) 0.4511(2)
H23 H 0.4379(6) 0.0629(3) 0.5458(6)
H24 H 0.3341(6) 0.0708(3) 0.6520(6)
H25 H 0.5931(5) 0.1002(2) 0.7919(4)
H26 H 0.6560(5) 0.1494(2) 0.6768(4)
C10? C -0.0161(5) 0.2935(3) 0.6686(6)
C11? C -0.0043(4) 0.3791(3) 0.5881(5)
C15? C 0.4511(5) 0.1171(2) 0.5734(4)
C16? C 0.5119(5) 0.1278(2) 0.7244(4)
H9? H 0.1786(2) 0.2970(1) 0.8483(2)
H10? H 0.1935(2) 0.2076(1) 0.7576(2)
H15? H -0.0572(5) 0.2383(3) 0.6110(6)
H16? H -0.0904(5) 0.3053(3) 0.7244(6)
H17? H -0.0808(4) 0.3731(3) 0.4987(5)
H18? H -0.0337(4) 0.4365(3) 0.6302(5)
H21? H 0.2164(2) 0.1732(1) 0.5545(2)
H22? H 0.2984(2) 0.2142(1) 0.4450(2)
H27? H 0.5400(5) 0.1287(2) 0.5314(4)
H28? H 0.4036(5) 0.0536(2) 0.5477(4)
H29? H 0.4380(5) 0.0944(2) 0.7674(4)
H30? H 0.6237(5) 0.1017(2) 0.7585(4)
loop_
_geom_bond_atom_site_label_1
_geom_bond_atom_site_label_2
_geom_bond_site_symmetry_1
_geom_bond_site_symmetry_2
O1 C1 1_555 1_555
O2 C2 1_555 1_555
O3 C5 1_555 1_555
O4 C6 1_555 1_555
C1 C2 1_555 1_555
C2 C3 1_555 1_555
C3 C4 1_555 1_555
C4 C5 1_555 1_555
C5 C6 1_555 1_555
C6 C1 1_555 1_555
C7 C6 1_555 1_555
C8 C7 1_555 1_555
C9 O4 1_555 1_555
C12 C5 1_555 1_555
C13 C12 1_555 1_555
C14 O3 1_555 1_555
H1 O2 1_555 1_555
H2 C2 1_555 1_555
H3 C3 1_555 1_555
H4 C3 1_555 1_555
H5 C4 1_555 1_555
H6 C4 1_555 1_555
H7 C7 1_555 1_555
H8 C7 1_555 1_555
H11 C8 1_555 1_555
H12 C8 1_555 1_555
H13 C9 1_555 1_555
H14 C9 1_555 1_555
H19 C12 1_555 1_555
H20 C12 1_555 1_555
H23 C13 1_555 1_555
H24 C13 1_555 1_555
H25 C14 1_555 1_555
H26 C14 1_555 1_555
C8 C9 1_555 1_555
C13 C14 1_555 1_555

#END
