
#######################################################################
#
#                 Cambridge Crystallographic Data Centre
#                                CCDC 
#
#######################################################################
#
# If this CIF has been generated from an entry in the Cambridge 
# Structural Database, then it will include bibliographic, chemical, 
# crystal, experimental, refinement or atomic coordinate data resulting 
# from the CCDC's data processing and validation procedures.
#
#######################################################################

data_TUHMOZ01
_chemical_formula_moiety         'H12 Mg1 O6 2+,2(C8 H5 N8 1-),2(H2 O1)'
_chemical_name_systematic        
'hexa-aqua-magnesium bis(5-[4-(1H-tetrazol-5-yl)phenyl]tetrazol-1-ide) dihydrate'
_symmetry_cell_setting           monoclinic
_symmetry_space_group_name_H-M   'P 21/c'
_symmetry_Int_Tables_number      14
_space_group_name_Hall           '-P 2ybc'
loop_
_symmetry_equiv_pos_site_id
_symmetry_equiv_pos_as_xyz
1 x,y,z
2 -x,1/2+y,1/2-z
3 -x,-y,-z
4 x,1/2-y,1/2+z
_cell_length_a                   7.388(2)
_cell_length_b                   13.334(4)
_cell_length_c                   13.325(4)
_cell_angle_alpha                90
_cell_angle_beta                 96.513(7)
_cell_angle_gamma                90
_cell_volume                     1304.2
_exptl_crystal_colour            brown
_exptl_crystal_description       block
_cell_formula_units_Z            2
loop_
_atom_site_label
_atom_site_type_symbol
_atom_site_fract_x
_atom_site_fract_y
_atom_site_fract_z
Mg1 Mg 0.5000 0.5000 1.0000
O1 O 0.6243(3) 0.54276(15) 0.86941(12)
O2 O 0.5343(3) 0.64434(13) 1.04623(14)
O3 O 0.2515(3) 0.53537(16) 0.92445(15)
H1 H 0.632(4) 0.4987(15) 0.8214(18)
H2 H 0.207(4) 0.502(2) 0.8712(18)
H3 H 0.512(4) 0.667(2) 1.1041(13)
H4 H 0.578(4) 0.5961(13) 0.8398(19)
H5 H 0.495(4) 0.6884(18) 1.0013(15)
H6 H 0.171(4) 0.5728(18) 0.9428(19)
O1B O 0.3757(3) 0.45724(15) 1.13059(12)
O2B O 0.4657(3) 0.35566(13) 0.95377(14)
O3B O 0.7485(3) 0.46463(16) 1.07555(15)
H1B H 0.368(4) 0.5013(15) 1.1786(18)
H2B H 0.793(4) 0.498(2) 1.1288(18)
H3B H 0.488(4) 0.333(2) 0.8959(13)
H4B H 0.422(4) 0.4039(13) 1.1602(19)
H5B H 0.505(4) 0.3116(18) 0.9987(15)
H6B H 0.829(4) 0.4272(18) 1.0572(19)
N1 N 0.3810(3) 0.61175(16) 0.27511(15)
N2 N 0.4257(3) 0.72970(16) 0.39150(15)
N3 N 0.4509(3) 0.69419(16) 0.23528(16)
N4 N 0.0689(3) 0.28547(16) 0.66633(15)
H7 H 0.0620 0.2504 0.6101
N5 N 0.1141(3) 0.40745(17) 0.77047(16)
N6 N 0.0528(3) 0.32553(18) 0.81744(16)
C1 C 0.1247(3) 0.38103(19) 0.67563(19)
N7 N 0.4774(3) 0.76438(16) 0.30466(16)
N8 N 0.0250(3) 0.25116(17) 0.75476(17)
C2 C 0.1856(3) 0.44476(19) 0.59659(19)
C3 C 0.2020(3) 0.4079(2) 0.50023(19)
H8 H 0.1737 0.3397 0.4850
C4 C 0.3031(3) 0.56940(19) 0.44791(19)
C5 C 0.2281(4) 0.5448(2) 0.61791(19)
H9 H 0.2176 0.5709 0.6834
C6 C 0.2854(4) 0.6065(2) 0.5443(2)
H10 H 0.3131 0.6748 0.5594
C7 C 0.3682(3) 0.63595(19) 0.37101(18)
C8 C 0.2589(3) 0.46932(19) 0.42677(19)
H11 H 0.2681 0.4433 0.3612
O4 O 0.9521(3) 0.64206(15) 0.97626(15)
H12 H 0.961(4) 0.656(2) 1.0386(14)
H13 H 0.861(4) 0.606(3) 0.959(2)
loop_
_geom_bond_atom_site_label_1
_geom_bond_atom_site_label_2
_geom_bond_site_symmetry_1
_geom_bond_site_symmetry_2
Mg1 O1 1_555 1_555
O1 H1 1_555 1_555
O2 Mg1 1_555 1_555
O3 Mg1 1_555 1_555
H2 O3 1_555 1_555
H3 O2 1_555 1_555
H4 O1 1_555 1_555
H5 O2 1_555 1_555
H6 O3 1_555 1_555
N1 N3 1_555 1_555
N2 N7 1_555 1_555
N3 N7 1_555 1_555
N4 H7 1_555 1_555
N5 N6 1_555 1_555
N6 N8 1_555 1_555
C1 N4 1_555 1_555
N8 N4 1_555 1_555
C2 C1 1_555 1_555
C3 C2 1_555 1_555
H8 C3 1_555 1_555
C4 C6 1_555 1_555
C5 C2 1_555 1_555
H9 C5 1_555 1_555
C6 C5 1_555 1_555
H10 C6 1_555 1_555
C7 N1 1_555 1_555
C8 C3 1_555 1_555
H11 C8 1_555 1_555
O4 H12 1_555 1_555
H13 O4 1_555 1_555
O1B Mg1 1_555 1_555
O2B Mg1 1_555 1_555
O3B Mg1 1_555 1_555
H1B O1B 1_555 1_555
H2B O3B 1_555 1_555
H3B O2B 1_555 1_555
H4B O1B 1_555 1_555
H5B O2B 1_555 1_555
H6B O3B 1_555 1_555
N2 C7 1_555 1_555
N5 C1 1_555 1_555
C4 C7 1_555 1_555
C4 C8 1_555 1_555

#END
