
#######################################################################
#
#                 Cambridge Crystallographic Data Centre
#                                CCDC 
#
#######################################################################
#
# If this CIF has been generated from an entry in the Cambridge 
# Structural Database, then it will include bibliographic, chemical, 
# crystal, experimental, refinement or atomic coordinate data resulting 
# from the CCDC's data processing and validation procedures.
#
#######################################################################

data_TUHNAL
_chemical_formula_moiety         'C15 H24 N2 O5,H2 O1'
_chemical_name_systematic        
'(6R,8aR)-6-t-Butoxycarbonylamino-8a-carboxyindolizidin-5-one methyl ester monohydrate'
_symmetry_cell_setting           orthorhombic
_symmetry_space_group_name_H-M   'P b c a'
_symmetry_Int_Tables_number      61
_space_group_name_Hall           '-P 2ac 2ab'
loop_
_symmetry_equiv_pos_site_id
_symmetry_equiv_pos_as_xyz
1 x,y,z
2 1/2-x,-y,1/2+z
3 1/2+x,1/2-y,-z
4 -x,1/2+y,1/2-z
5 -x,-y,-z
6 1/2+x,y,1/2-z
7 1/2-x,1/2+y,z
8 x,1/2-y,1/2+z
_cell_length_a                   10.808(2)
_cell_length_b                   12.657(3)
_cell_length_c                   25.472(7)
_cell_angle_alpha                90
_cell_angle_beta                 90
_cell_angle_gamma                90
_cell_volume                     3484.49
_chemical_melting_point          89-92deg.C
_cell_formula_units_Z            8
loop_
_atom_site_label
_atom_site_type_symbol
_atom_site_fract_x
_atom_site_fract_y
_atom_site_fract_z
N1 N 0.3358(3) 0.4265(2) 0.1677(1)
C1 C 0.3431(4) 0.4341(3) 0.2202(1)
C2 C 0.2449(3) 0.3754(2) 0.2526(1)
C3 C 0.1730(3) 0.2888(3) 0.2237(1)
C4 C 0.1424(3) 0.3245(3) 0.1680(1)
C5 C 0.2612(3) 0.3498(3) 0.1384(1)
C6 C 0.2445(4) 0.4072(3) 0.0858(1)
C7 C 0.3710(3) 0.4606(3) 0.0776(1)
C8 C 0.4153(3) 0.4899(3) 0.1328(1)
O1 O 0.4194(2) 0.4911(2) 0.2419(1)
N2 N 0.2988(3) 0.3329(2) 0.3001(1)
C9 C 0.2886(3) 0.3816(3) 0.3470(1)
O2 O 0.2353(3) 0.4641(2) 0.3558(1)
O3 O 0.3490(2) 0.3216(2) 0.3829(1)
C10 C 0.3290(4) 0.3363(3) 0.4395(1)
C11 C 0.4102(4) 0.2497(4) 0.4623(2)
C12 C 0.1946(3) 0.3183(3) 0.4527(2)
C13 C 0.3737(4) 0.4438(4) 0.4571(2)
C14 C 0.3337(4) 0.2468(3) 0.1292(1)
O4 O 0.2989(3) 0.1795(2) 0.0991(1)
O5 O 0.4357(2) 0.2398(2) 0.1576(1)
C15 C 0.5051(4) 0.1428(3) 0.1535(2)
O6 O 0.3839(3) 0.1216(2) 0.2885(1)
loop_
_geom_bond_atom_site_label_1
_geom_bond_atom_site_label_2
_geom_bond_site_symmetry_1
_geom_bond_site_symmetry_2
N1 C1 1_555 1_555
C1 C2 1_555 1_555
C2 C3 1_555 1_555
C3 C4 1_555 1_555
C4 C5 1_555 1_555
C5 N1 1_555 1_555
C6 C5 1_555 1_555
C7 C6 1_555 1_555
C8 N1 1_555 1_555
O1 C1 1_555 1_555
N2 C2 1_555 1_555
C9 N2 1_555 1_555
O2 C9 1_555 1_555
O3 C9 1_555 1_555
C10 O3 1_555 1_555
C11 C10 1_555 1_555
C12 C10 1_555 1_555
C13 C10 1_555 1_555
C14 C5 1_555 1_555
O4 C14 1_555 1_555
O5 C14 1_555 1_555
C15 O5 1_555 1_555
C7 C8 1_555 1_555

#END
