
#######################################################################
#
#                 Cambridge Crystallographic Data Centre
#                                CCDC 
#
#######################################################################
#
# If this CIF has been generated from an entry in the Cambridge 
# Structural Database, then it will include bibliographic, chemical, 
# crystal, experimental, refinement or atomic coordinate data resulting 
# from the CCDC's data processing and validation procedures.
#
#######################################################################

data_TUHNOB
_chemical_formula_moiety         'C35 H28 F1 N3 O6'
_chemical_name_systematic        
"dimethyl 1,10'-dibenzyl-5-fluoro-2-oxo-1,2,10',10a'-tetrahydrospiro[indole-3,2'-[1,3]oxazino[3,2-a]benzimidazole]-3',4'-dicarboxylate"
_symmetry_cell_setting           monoclinic
_symmetry_space_group_name_H-M   'P 21/c'
_symmetry_Int_Tables_number      14
_space_group_name_Hall           '-P 2ybc'
loop_
_symmetry_equiv_pos_site_id
_symmetry_equiv_pos_as_xyz
1 x,y,z
2 -x,1/2+y,1/2-z
3 -x,-y,-z
4 x,1/2-y,1/2+z
_cell_length_a                   17.115(2)
_cell_length_b                   10.7765(11)
_cell_length_c                   18.9908(17)
_cell_angle_alpha                90
_cell_angle_beta                 123.196(7)
_cell_angle_gamma                90
_cell_volume                     2931.03
_cell_formula_units_Z            4
loop_
_atom_site_label
_atom_site_type_symbol
_atom_site_fract_x
_atom_site_fract_y
_atom_site_fract_z
C1 C 0.10015(15) 0.3528(2) 0.81032(14)
H1 H 0.1476 0.4052 0.8184
C2 C 0.01872(19) 0.3454(2) 0.73219(14)
H2 H 0.0109 0.3934 0.6881
C3 C -0.05068(18) 0.2674(3) 0.71955(16)
H3 H -0.1064 0.2631 0.6670
C4 C -0.03831(17) 0.1958(3) 0.78387(17)
H4 H -0.0850 0.1411 0.7747
C5 C 0.04297(15) 0.2038(2) 0.86261(14)
H5 H 0.0505 0.1547 0.9062
C6 C 0.11282(12) 0.28364(17) 0.87713(12)
C7 C 0.20039(13) 0.29563(17) 0.96370(13)
H6 H 0.2051 0.2238 0.9966
H7 H 0.2537 0.2941 0.9585
C8 C 0.16034(12) 0.42487(17) 1.05121(11)
C9 C 0.12586(15) 0.3392(2) 1.08111(14)
H8 H 0.1280 0.2547 1.0724
C10 C 0.08805(17) 0.3827(3) 1.12436(17)
H9 H 0.0642 0.3262 1.1450
C11 C 0.08451(17) 0.5069(3) 1.13783(16)
H10 H 0.0596 0.5330 1.1683
C12 C 0.11742(14) 0.5940(2) 1.10676(13)
H11 H 0.1146 0.6785 1.1152
C13 C 0.15428(12) 0.55108(17) 1.06317(11)
C14 C 0.22274(12) 0.52462(16) 0.98610(11)
H12 H 0.1874 0.5328 0.9247
C15 C 0.21693(12) 0.73330(16) 1.02245(10)
C16 C 0.16486(15) 0.83200(17) 1.03769(13)
C17 C 0.1789(2) 0.9822(2) 1.13344(17)
H13 H 0.1123 0.9727 1.1014
H14 H 0.1946 1.0600 1.1195
H15 H 0.2026 0.9807 1.1924
C18 C 0.27834(11) 0.75975(15) 1.00044(10)
C19 C 0.28722(13) 0.88794(17) 0.98067(11)
C20 C 0.35782(19) 1.0184(2) 0.93096(16)
H16 H 0.3796 1.0745 0.9774
H17 H 0.2991 1.0472 0.8839
H18 H 0.4026 1.0145 0.9155
C21 C 0.32873(13) 0.64069(16) 0.91206(11)
C22 C 0.33917(11) 0.65914(15) 0.99833(10)
C23 C 0.44257(11) 0.67943(14) 1.05652(10)
C24 C 0.49575(12) 0.70372(15) 1.14153(11)
H19 H 0.4688 0.7144 1.1723
C25 C 0.59074(13) 0.71151(17) 1.17873(11)
C26 C 0.63308(13) 0.69350(18) 1.13593(13)
H20 H 0.6978 0.6972 1.1641
C27 C 0.57910(13) 0.66974(17) 1.05039(12)
H21 H 0.6065 0.6573 1.0201
C28 C 0.48416(12) 0.66502(15) 1.01161(11)
C29 C 0.43333(14) 0.63086(17) 0.85938(12)
H22 H 0.3809 0.5891 0.8115
H23 H 0.4884 0.5800 0.8795
C30 C 0.44784(13) 0.75493(17) 0.83153(10)
C31 C 0.53531(15) 0.7972(2) 0.85759(12)
H24 H 0.5872 0.7476 0.8917
C32 C 0.54679(19) 0.9153(3) 0.83291(14)
H25 H 0.6062 0.9447 0.8518
C33 C 0.4701(2) 0.9866(2) 0.78106(15)
H26 H 0.4776 1.0645 0.7644
C34 C 0.38328(19) 0.9446(2) 0.75368(14)
H27 H 0.3314 0.9932 0.7178
C35 C 0.37195(15) 0.8299(2) 0.77900(13)
H28 H 0.3122 0.8023 0.7604
F1 F 0.64607(8) 0.73654(12) 1.26256(7)
N1 N 0.20616(10) 0.40746(13) 1.00991(10)
N2 N 0.19145(10) 0.61390(13) 1.02233(9)
N3 N 0.41538(10) 0.64288(13) 0.92615(9)
O1 O 0.08487(10) 0.85622(14) 0.98855(10)
O2 O 0.21995(10) 0.88183(12) 1.11384(8)
O3 O 0.24616(10) 0.97655(12) 0.98459(9)
O4 O 0.34589(10) 0.89651(11) 0.95515(9)
O5 O 0.25648(9) 0.62094(13) 0.84542(8)
O6 O 0.32045(8) 0.54026(10) 1.02218(7)
loop_
_geom_bond_atom_site_label_1
_geom_bond_atom_site_label_2
_geom_bond_site_symmetry_1
_geom_bond_site_symmetry_2
C1 H1 1_555 1_555
C2 C1 1_555 1_555
H2 C2 1_555 1_555
C3 C2 1_555 1_555
H3 C3 1_555 1_555
C4 C3 1_555 1_555
H4 C4 1_555 1_555
C5 C4 1_555 1_555
H5 C5 1_555 1_555
C6 C1 1_555 1_555
C7 C6 1_555 1_555
H6 C7 1_555 1_555
H7 C7 1_555 1_555
C8 C9 1_555 1_555
C9 H8 1_555 1_555
C10 C9 1_555 1_555
H9 C10 1_555 1_555
C11 C10 1_555 1_555
H10 C11 1_555 1_555
C12 C11 1_555 1_555
H11 C12 1_555 1_555
C13 C8 1_555 1_555
C14 H12 1_555 1_555
C15 C16 1_555 1_555
C16 O1 1_555 1_555
C17 H13 1_555 1_555
H14 C17 1_555 1_555
H15 C17 1_555 1_555
C18 C15 1_555 1_555
C19 C18 1_555 1_555
C20 H16 1_555 1_555
H17 C20 1_555 1_555
H18 C20 1_555 1_555
C21 C22 1_555 1_555
C22 C18 1_555 1_555
C23 C22 1_555 1_555
C24 C23 1_555 1_555
H19 C24 1_555 1_555
C25 C24 1_555 1_555
C26 C25 1_555 1_555
H20 C26 1_555 1_555
C27 C26 1_555 1_555
H21 C27 1_555 1_555
C28 C23 1_555 1_555
C29 H22 1_555 1_555
H23 C29 1_555 1_555
C30 C29 1_555 1_555
C31 C30 1_555 1_555
H24 C31 1_555 1_555
C32 C31 1_555 1_555
H25 C32 1_555 1_555
C33 C32 1_555 1_555
H26 C33 1_555 1_555
C34 C33 1_555 1_555
H27 C34 1_555 1_555
C35 C30 1_555 1_555
H28 C35 1_555 1_555
F1 C25 1_555 1_555
N1 C7 1_555 1_555
N2 C13 1_555 1_555
N3 C21 1_555 1_555
O2 C16 1_555 1_555
O3 C19 1_555 1_555
O4 C19 1_555 1_555
O5 C21 1_555 1_555
O6 C14 1_555 1_555
C5 C6 1_555 1_555
C8 N1 1_555 1_555
C12 C13 1_555 1_555
C14 N1 1_555 1_555
C14 N2 1_555 1_555
C15 N2 1_555 1_555
C17 O2 1_555 1_555
C20 O4 1_555 1_555
C22 O6 1_555 1_555
C27 C28 1_555 1_555
C28 N3 1_555 1_555
C29 N3 1_555 1_555
C34 C35 1_555 1_555

#END
