
#######################################################################
#
#                 Cambridge Crystallographic Data Centre
#                                CCDC 
#
#######################################################################
#
# If this CIF has been generated from an entry in the Cambridge 
# Structural Database, then it will include bibliographic, chemical, 
# crystal, experimental, refinement or atomic coordinate data resulting 
# from the CCDC's data processing and validation procedures.
#
#######################################################################

data_TUHPAP
_chemical_formula_moiety         'C23 H16 Cl1 N5 O3'
_chemical_name_systematic        
"2'-amino-1'-benzyl-5-chloro-6'-methyl-2,5',7'-trioxo-1,1',2,5',6',7'-hexahydrospiro[indole-3,4'-pyrrolo[3,4-b]pyridine]-3'-carbonitrile unknown solvate"
_symmetry_cell_setting           triclinic
_symmetry_space_group_name_H-M   'P -1'
_symmetry_Int_Tables_number      2
_space_group_name_Hall           '-P 1'
loop_
_symmetry_equiv_pos_site_id
_symmetry_equiv_pos_as_xyz
1 x,y,z
2 -x,-y,-z
_cell_length_a                   9.7861(18)
_cell_length_b                   10.7929(18)
_cell_length_c                   12.634(2)
_cell_angle_alpha                84.595(5)
_cell_angle_beta                 78.279(5)
_cell_angle_gamma                83.495(5)
_cell_volume                     1294.69
_cell_formula_units_Z            2
loop_
_atom_site_label
_atom_site_type_symbol
_atom_site_fract_x
_atom_site_fract_y
_atom_site_fract_z
C1 C 0.4407(4) 1.1152(3) 0.3665(2)
H1 H 0.4113 1.0391 0.3561
C2 C 0.3922(4) 1.1695(3) 0.4654(2)
H2 H 0.3311 1.1293 0.5206
C3 C 0.4345(4) 1.2811(3) 0.4804(2)
H3 H 0.4022 1.3171 0.5461
C4 C 0.5222(3) 1.3396(3) 0.4015(3)
H4 H 0.5506 1.4160 0.4123
C5 C 0.5708(3) 1.2866(2) 0.3038(2)
H5 H 0.6316 1.3283 0.2493
C6 C 0.5309(2) 1.17350(19) 0.28551(17)
C7 C 0.5918(2) 1.12038(18) 0.17881(16)
H6 H 0.5675 1.1799 0.1215
H7 H 0.6931 1.1113 0.1699
C8 C 0.6857(2) 0.6824(2) 0.22839(17)
C9 C 0.5750(2) 0.77555(18) 0.19804(16)
C10 C 0.6179(2) 0.88891(19) 0.19554(15)
C11 C 0.7581(3) 0.8755(2) 0.23026(18)
C12 C 0.9200(3) 0.6920(3) 0.2810(2)
H8 H 0.9077 0.6081 0.3111
H9 H 0.9424 0.7399 0.3344
H10 H 0.9950 0.6907 0.2188
C13 C 0.3709(2) 0.87298(18) 0.13276(16)
C14 C 0.2464(3) 0.86900(19) 0.09341(18)
C15 C 0.4192(2) 0.98776(19) 0.13299(15)
C16 C 0.4676(2) 0.65058(18) 0.08633(18)
C17 C 0.4399(2) 0.74875(18) 0.17288(16)
C18 C 0.3452(2) 0.67899(19) 0.26560(16)
C19 C 0.2833(2) 0.7151(2) 0.36785(18)
H11 H 0.2953 0.7922 0.3902
C20 C 0.2023(3) 0.6305(3) 0.43565(18)
C21 C 0.1843(3) 0.5165(3) 0.4028(2)
H12 H 0.1294 0.4624 0.4503
C22 C 0.2461(3) 0.4810(2) 0.3007(2)
H13 H 0.2342 0.4041 0.2781
C23 C 0.3263(2) 0.5647(2) 0.23379(18)
Cl1 Cl 0.12147(9) 0.67046(9) 0.56468(6)
N1 N 0.54552(18) 0.99885(15) 0.16504(13)
N2 N 0.7905(2) 0.74895(17) 0.24865(15)
N3 N 0.1464(2) 0.8632(2) 0.06029(18)
N4 N 0.34725(19) 1.09514(16) 0.10416(14)
H14 H 0.2682 1.0935 0.0847
H15 H 0.3803 1.1654 0.1052
N5 N 0.3994(2) 0.55108(16) 0.12687(15)
H16 H 0.4000 0.4864 0.0918
O1 O 0.82966(19) 0.95546(16) 0.24141(15)
O2 O 0.68895(18) 0.56986(15) 0.23544(15)
O3 O 0.54176(17) 0.66376(13) -0.00458(12)
loop_
_geom_bond_atom_site_label_1
_geom_bond_atom_site_label_2
_geom_bond_site_symmetry_1
_geom_bond_site_symmetry_2
C1 H1 1_555 1_555
C2 C1 1_555 1_555
H2 C2 1_555 1_555
C3 C2 1_555 1_555
H3 C3 1_555 1_555
C4 C3 1_555 1_555
H4 C4 1_555 1_555
C5 C4 1_555 1_555
H5 C5 1_555 1_555
C6 C1 1_555 1_555
C7 C6 1_555 1_555
H6 C7 1_555 1_555
H7 C7 1_555 1_555
C8 C9 1_555 1_555
C9 C10 1_555 1_555
C10 C11 1_555 1_555
C11 N2 1_555 1_555
C12 H8 1_555 1_555
H9 C12 1_555 1_555
H10 C12 1_555 1_555
C13 C14 1_555 1_555
C14 N3 1_555 1_555
C15 C13 1_555 1_555
C16 C17 1_555 1_555
C17 C9 1_555 1_555
C18 C17 1_555 1_555
C19 C18 1_555 1_555
H11 C19 1_555 1_555
C20 C19 1_555 1_555
C21 C20 1_555 1_555
H12 C21 1_555 1_555
C22 C21 1_555 1_555
H13 C22 1_555 1_555
C23 C18 1_555 1_555
Cl1 C20 1_555 1_555
N1 C7 1_555 1_555
N2 C8 1_555 1_555
N4 C15 1_555 1_555
H14 N4 1_555 1_555
H15 N4 1_555 1_555
N5 C16 1_555 1_555
H16 N5 1_555 1_555
O1 C11 1_555 1_555
O2 C8 1_555 1_555
O3 C16 1_555 1_555
C5 C6 1_555 1_555
C10 N1 1_555 1_555
C12 N2 1_555 1_555
C13 C17 1_555 1_555
C15 N1 1_555 1_555
C22 C23 1_555 1_555
C23 N5 1_555 1_555

#END
