
#######################################################################
#
#                 Cambridge Crystallographic Data Centre
#                                CCDC 
#
#######################################################################
#
# If this CIF has been generated from an entry in the Cambridge 
# Structural Database, then it will include bibliographic, chemical, 
# crystal, experimental, refinement or atomic coordinate data resulting 
# from the CCDC's data processing and validation procedures.
#
#######################################################################

data_TUHPIX
_chemical_formula_moiety         'C22 H13 Cl1 F1 N5 O3'
_chemical_name_systematic        
"2'-amino-1'-(4-chlorophenyl)-5-fluoro-6'-methyl-2,5',7'-trioxo-1,1',2,5',6',7'-hexahydrospiro[indole-3,4'-pyrrolo[3,4-b]pyridine]-3'-carbonitrile unknown solvate"
_symmetry_cell_setting           triclinic
_symmetry_space_group_name_H-M   'P -1'
_symmetry_Int_Tables_number      2
_space_group_name_Hall           '-P 1'
loop_
_symmetry_equiv_pos_site_id
_symmetry_equiv_pos_as_xyz
1 x,y,z
2 -x,-y,-z
_cell_length_a                   11.0539(15)
_cell_length_b                   11.2298(15)
_cell_length_c                   11.5107(17)
_cell_angle_alpha                94.053(4)
_cell_angle_beta                 115.915(4)
_cell_angle_gamma                108.994(4)
_cell_volume                     1176.5
_cell_formula_units_Z            2
loop_
_atom_site_label
_atom_site_type_symbol
_atom_site_fract_x
_atom_site_fract_y
_atom_site_fract_z
C1 C 0.7273(2) 0.51102(18) 0.19752(17)
C2 C 0.73463(18) 0.37516(16) 0.18676(17)
C3 C 0.57365(18) 0.28613(17) 0.12838(16)
C4 C 0.5076(2) 0.15316(18) 0.09601(19)
H1 H 0.5607 0.1016 0.1052
C5 C 0.3581(2) 0.09938(19) 0.0490(2)
C6 C 0.2758(2) 0.1717(2) 0.0332(2)
H2 H 0.1754 0.1310 0.0007
C7 C 0.3434(2) 0.3051(2) 0.0659(2)
H3 H 0.2900 0.3564 0.0559
C8 C 0.4923(2) 0.36048(18) 0.11376(18)
C9 C 0.83071(19) 0.35904(17) 0.32233(17)
C10 C 0.7912(2) 0.37607(18) 0.4216(2)
C11 C 0.94332(19) 0.31960(17) 0.35113(17)
C12 C 0.74574(19) 0.36520(17) -0.03827(18)
C13 C 0.79808(18) 0.35489(16) 0.10031(17)
C14 C 0.90886(18) 0.31746(17) 0.13426(17)
C15 C 0.9350(2) 0.30182(18) 0.01682(19)
C16 C 0.8158(3) 0.3298(2) -0.2153(2)
H4 H 0.9069 0.3406 -0.2126
H5 H 0.7877 0.3987 -0.2464
H6 H 0.7413 0.2476 -0.2747
C17 C 1.0958(2) 0.2446(2) 0.28276(19)
C18 C 1.2427(2) 0.3260(2) 0.3466(2)
H7 H 1.2717 0.4156 0.3705
C19 C 1.3459(2) 0.2735(3) 0.3744(2)
H8 H 1.4451 0.3272 0.4175
C20 C 1.3009(3) 0.1425(3) 0.3382(2)
C21 C 1.1559(3) 0.0614(3) 0.2743(3)
H9 H 1.1273 -0.0281 0.2497
C22 C 1.0526(2) 0.1137(2) 0.2466(2)
H10 H 0.9534 0.0595 0.2033
Cl1 Cl 1.43092(9) 0.07589(9) 0.37574(8)
F1 F 0.28919(13) -0.03317(12) 0.01602(15)
N1 N 0.58683(17) 0.49314(15) 0.15630(16)
H11 H 0.5581 0.5557 0.1560
N2 N 0.7564(2) 0.39066(19) 0.50052(19)
N3 N 1.01829(18) 0.29708(17) 0.46965(16)
H12 H 0.9962 0.3074 0.5316
H13 H 1.0883 0.2724 0.4835
N4 N 0.83318(17) 0.33353(16) -0.08202(15)
N5 N 0.98572(16) 0.29784(15) 0.25627(14)
O1 O 0.83247(15) 0.61422(13) 0.23689(13)
O2 O 0.64530(15) 0.39503(14) -0.10619(13)
O3 O 1.02359(16) 0.26835(16) 0.00789(15)
loop_
_geom_bond_atom_site_label_1
_geom_bond_atom_site_label_2
_geom_bond_site_symmetry_1
_geom_bond_site_symmetry_2
C1 C2 1_555 1_555
C2 C3 1_555 1_555
C3 C4 1_555 1_555
C4 H1 1_555 1_555
C5 C4 1_555 1_555
C6 C5 1_555 1_555
H2 C6 1_555 1_555
C7 C6 1_555 1_555
H3 C7 1_555 1_555
C8 C3 1_555 1_555
C9 C2 1_555 1_555
C10 C9 1_555 1_555
C11 C9 1_555 1_555
C12 C13 1_555 1_555
C13 C2 1_555 1_555
C14 C13 1_555 1_555
C15 C14 1_555 1_555
C16 H4 1_555 1_555
H5 C16 1_555 1_555
H6 C16 1_555 1_555
C17 C18 1_555 1_555
C18 H7 1_555 1_555
C19 C18 1_555 1_555
H8 C19 1_555 1_555
C20 C19 1_555 1_555
C21 C20 1_555 1_555
H9 C21 1_555 1_555
C22 C17 1_555 1_555
H10 C22 1_555 1_555
Cl1 C20 1_555 1_555
F1 C5 1_555 1_555
N1 C1 1_555 1_555
H11 N1 1_555 1_555
N2 C10 1_555 1_555
N3 C11 1_555 1_555
H12 N3 1_555 1_555
H13 N3 1_555 1_555
N4 C12 1_555 1_555
N5 C11 1_555 1_555
O1 C1 1_555 1_555
O2 C12 1_555 1_555
O3 C15 1_555 1_555
C7 C8 1_555 1_555
C8 N1 1_555 1_555
C14 N5 1_555 1_555
C15 N4 1_555 1_555
C16 N4 1_555 1_555
C17 N5 1_555 1_555
C21 C22 1_555 1_555

#END
