
#######################################################################
#
#                 Cambridge Crystallographic Data Centre
#                                CCDC 
#
#######################################################################
#
# If this CIF has been generated from an entry in the Cambridge 
# Structural Database, then it will include bibliographic, chemical, 
# crystal, experimental, refinement or atomic coordinate data resulting 
# from the CCDC's data processing and validation procedures.
#
#######################################################################

data_TUHPIV
_chemical_name_common            'BILD 1351'
_chemical_formula_moiety         'C39 H68 N4 O7,C2 H6 O1'
_chemical_name_systematic        
"N-(1-(N'-(N''-2,6-Dimethylcyclohexylcarbamoyl)pseudoleucyl)-3-neopentoyl-2-propionyl)-\a-(1-carboxycyclopentyl)glycine 2,2-dimethylpent-3-ylamide ethanol solvate"
_chemical_properties_biological  'potent antiherpetic agent'
_symmetry_cell_setting           hexagonal
_symmetry_space_group_name_H-M   'P 65'
_symmetry_Int_Tables_number      170
_space_group_name_Hall           'P 65'
loop_
_symmetry_equiv_pos_site_id
_symmetry_equiv_pos_as_xyz
1 x,y,z
2 x-y,x,5/6+z
3 -y,x-y,2/3+z
4 -x,-y,1/2+z
5 -x+y,-x,1/3+z
6 y,-x+y,1/6+z
_cell_length_a                   17.299(2)
_cell_length_b                   17.299(2)
_cell_length_c                   26.329(5)
_cell_angle_alpha                90
_cell_angle_beta                 90
_cell_angle_gamma                120
_cell_volume                     6823.5
_exptl_crystal_colour            colorless
_cell_formula_units_Z            6
loop_
_atom_site_label
_atom_site_type_symbol
_atom_site_fract_x
_atom_site_fract_y
_atom_site_fract_z
O1 O 0.0812(5) 0.0981(5) 0.1337
N1 N 0.0779(6) 0.1216(5) 0.2173(4)
N2 N 0.0662(6) -0.0098(6) 0.1896(4)
O2 O 0.2553(6) 0.2639(5) 0.2016(4)
C1 C 0.0985(7) 0.2128(7) 0.2092(5)
C2 C 0.2891(7) 0.3906(7) 0.1233(5)
O3 O 0.4359(6) 0.5001(7) 0.0617(4)
O4 O 0.6356(7) 0.6063(7) 0.2274(4)
N3 N 0.5780(7) 0.5637(7) 0.1480(5)
C3 C 0.2792(9) 0.4335(8) 0.0733(5)
C4 C 0.3659(10) 0.4872(8) 0.0447(5)
C5 C -0.0200(8) 0.2047(9) 0.2679(5)
O5 O 0.5111(8) 0.3883(7) 0.2412(5)
C6 C 0.0808(8) 0.2542(8) 0.2580(5)
C7 C 0.0761(8) 0.0699(9) 0.1780(5)
C8 C 0.1291(9) 0.2427(9) 0.3047(5)
C9 C 0.1922(8) 0.2695(8) 0.1873(5)
O6 O 0.3392(7) 0.5319(7) 0.1645(5)
C10 C 0.6619(9) 0.6110(9) 0.1192(5)
O7 O 0.5345(8) 0.4259(9) 0.3234(4)
N4 N 0.4103(7) 0.4570(6) 0.1851(4)
C11 C 0.0737(9) -0.0677(8) 0.1518(5)
C12 C 0.3478(8) 0.4681(9) 0.1602(5)
C13 C 0.6904(9) 0.5453(10) 0.0993(6)
C14 C -0.0162(9) -0.1506(8) 0.1390(5)
C15 C 0.5125(9) 0.5744(9) 0.3133(6)
C16 C 0.3683(9) 0.4381(10) 0.2921(6)
C17 C 0.2335(9) -0.0125(11) 0.1815(7)
C18 C 0.4744(7) 0.5252(8) 0.2189(5)
C19 C 0.6536(9) 0.6729(9) 0.0809(6)
C20 C 0.3638(10) 0.5288(9) -0.0079(5)
C21 C 0.1075(11) -0.1612(10) 0.2110(6)
C22 C 0.4672(8) 0.4908(9) 0.2755(5)
C23 C -0.0487(10) -0.2165(9) 0.1826(6)
C24 C 0.1143(8) 0.3530(7) 0.2514(6)
C25 C 0.1978(8) 0.3314(8) 0.1443(5)
C26 C 0.3658(13) 0.4663(12) 0.3451(8)
C27 C -0.0859(9) -0.1288(9) 0.1228(6)
C28 C 0.1452(10) -0.0918(10) 0.1688(5)
C29 C 0.4176(16) 0.5076(16) -0.0417(7)
C30 C 0.5722(10) 0.5693(9) 0.1993(6)
C31 C 0.0197(12) -0.2431(10) 0.1984(6)
C32 C 0.4060(16) 0.6253(10) 0.0000(8)
C33 C 0.4422(13) 0.5563(14) 0.3530(6)
C34 C 0.7798(11) 0.5966(12) 0.0708(7)
C35 C 0.2697(11) 0.4932(13) -0.0271(6)
C36 C 0.6254(12) 0.7351(10) 0.1035(7)
C37 C 0.5062(10) 0.4309(11) 0.2770(8)
C38 C 0.6204(13) 0.4758(13) 0.0658(8)
C39 C 0.7018(12) 0.4938(13) 0.1434(7)
H1 H 0.0680 0.0994 0.2491
H2 H 0.0538 -0.0295 0.2219
H3 H 0.0573 0.2099 0.1838
H4 H 0.3165 0.3553 0.1163
H5 H 0.5277 0.5291 0.1304
H6 H 0.2560 0.4717 0.0823
H7 H 0.2364 0.3874 0.0516
H8 H -0.0503 0.2109 0.2389
H9 H -0.0412 0.1426 0.2739
H10 H -0.0317 0.2304 0.2971
H11 H 0.1922 0.2729 0.2985
H12 H 0.1173 0.2684 0.3340
H13 H 0.1078 0.1805 0.3108
H14 H 0.7061 0.6495 0.1434
H15 H 0.4123 0.4066 0.1803
H16 H 0.0950 -0.0329 0.1213
H17 H -0.0060 -0.1791 0.1106
H18 H 0.5291 0.6286 0.2951
H19 H 0.5646 0.5797 0.3295
H20 H 0.3460 0.3751 0.2895
H21 H 0.3326 0.4529 0.2706
H22 H 0.2763 -0.0294 0.1917
H23 H 0.2551 0.0252 0.1521
H24 H 0.2248 0.0194 0.2087
H25 H 0.4590 0.5714 0.2198
H26 H 0.6094 0.6358 0.0564
H27 H 0.7094 0.7071 0.0635
H28 H 0.0983 -0.1322 0.2395
H29 H 0.1507 -0.1778 0.2206
H30 H -0.1022 -0.2690 0.1719
H31 H -0.0633 -0.1913 0.2110
H32 H 0.0865 0.3636 0.2228
H33 H 0.1003 0.3743 0.2817
H34 H 0.1778 0.3839 0.2466
H35 H 0.1584 0.2971 0.1172
H36 H 0.1776 0.3702 0.1573
H37 H 0.3715 0.4265 0.3683
H38 H 0.3099 0.4638 0.3513
H39 H -0.0641 -0.0863 0.0955
H40 H -0.1382 -0.1823 0.1119
H41 H -0.1007 -0.1039 0.1513
H42 H 0.1549 -0.1215 0.1408
H43 H 0.4777 0.5348 -0.0291
H44 H 0.3921 0.4410 -0.0424
H45 H 0.4179 0.5290 -0.0753
H46 H -0.0019 -0.2817 0.2274
H47 H 0.0292 -0.2748 0.1714
H48 H 0.4663 0.6496 0.0118
H49 H 0.4059 0.6528 -0.0316
H50 H 0.3721 0.6367 0.0247
H51 H 0.4214 0.5980 0.3484
H52 H 0.4666 0.5641 0.3866
H53 H 0.7744 0.6293 0.0429
H54 H 0.8240 0.6374 0.0942
H55 H 0.7975 0.5556 0.0583
H56 H 0.2686 0.5187 -0.0593
H57 H 0.2451 0.4300 -0.0309
H58 H 0.2349 0.5044 -0.0029
H59 H 0.6200 0.7712 0.0776
H60 H 0.5691 0.7009 0.1205
H61 H 0.6700 0.7728 0.1276
H62 H 0.6097 0.5047 0.0378
H63 H 0.6401 0.4365 0.0533
H64 H 0.5662 0.4422 0.0849
H65 H 0.7467 0.5358 0.1660
H66 H 0.6467 0.4599 0.1616
H67 H 0.7206 0.4542 0.1301
O8 O 0.2785(7) 0.6414(8) 0.1626(5)
C40 C 0.2623(14) 0.7677(13) 0.1345(6)
C41 C 0.3041(12) 0.7112(13) 0.1258(7)
H68 H 0.2225 0.6066 0.1604
H69 H 0.2799 0.8145 0.1099
H70 H 0.1990 0.7280 0.1325
H71 H 0.2776 0.7931 0.1679
H72 H 0.2894 0.6856 0.0923
H73 H 0.3676 0.7503 0.1275
loop_
_geom_bond_atom_site_label_1
_geom_bond_atom_site_label_2
_geom_bond_site_symmetry_1
_geom_bond_site_symmetry_2
O1 C7 1_555 1_555
N1 C1 1_555 1_555
N2 C7 1_555 1_555
O2 C9 1_555 1_555
C1 C6 1_555 1_555
C2 C3 1_555 1_555
O3 C4 1_555 1_555
O4 C30 1_555 1_555
N3 C10 1_555 1_555
C3 C4 1_555 1_555
C4 C20 1_555 1_555
C5 C6 1_555 1_555
O5 C37 1_555 1_555
C6 C8 1_555 1_555
C7 N1 1_555 1_555
C8 H11 1_555 1_555
C9 C1 1_555 1_555
O6 C12 1_555 1_555
C10 C13 1_555 1_555
O7 C37 1_555 1_555
N4 C12 1_555 1_555
C11 N2 1_555 1_555
C12 C2 1_555 1_555
C13 C34 1_555 1_555
C14 C11 1_555 1_555
C15 C22 1_555 1_555
C16 C22 1_555 1_555
C17 C28 1_555 1_555
C18 N4 1_555 1_555
C19 C10 1_555 1_555
C20 C29 1_555 1_555
C21 C28 1_555 1_555
C22 C18 1_555 1_555
C23 C14 1_555 1_555
C24 C6 1_555 1_555
C25 C2 1_555 1_555
C26 C16 1_555 1_555
C27 C14 1_555 1_555
C28 C11 1_555 1_555
C29 H43 1_555 1_555
C30 N3 1_555 1_555
C31 C21 1_555 1_555
C32 C20 1_555 1_555
C33 C15 1_555 1_555
C34 H53 1_555 1_555
C35 C20 1_555 1_555
C36 C19 1_555 1_555
C37 C22 1_555 1_555
C38 C13 1_555 1_555
C39 C13 1_555 1_555
O8 C41 1_555 1_555
C40 C41 1_555 1_555
C41 H72 1_555 1_555
H1 N1 1_555 1_555
H2 N2 1_555 1_555
H3 C1 1_555 1_555
H4 C2 1_555 1_555
H5 N3 1_555 1_555
H6 C3 1_555 1_555
H7 C3 1_555 1_555
H8 C5 1_555 1_555
H9 C5 1_555 1_555
H10 C5 1_555 1_555
H12 C8 1_555 1_555
H13 C8 1_555 1_555
H14 C10 1_555 1_555
H15 N4 1_555 1_555
H16 C11 1_555 1_555
H17 C14 1_555 1_555
H18 C15 1_555 1_555
H19 C15 1_555 1_555
H20 C16 1_555 1_555
H21 C16 1_555 1_555
H22 C17 1_555 1_555
H23 C17 1_555 1_555
H24 C17 1_555 1_555
H25 C18 1_555 1_555
H26 C19 1_555 1_555
H27 C19 1_555 1_555
H28 C21 1_555 1_555
H29 C21 1_555 1_555
H30 C23 1_555 1_555
H31 C23 1_555 1_555
H32 C24 1_555 1_555
H33 C24 1_555 1_555
H34 C24 1_555 1_555
H35 C25 1_555 1_555
H36 C25 1_555 1_555
H37 C26 1_555 1_555
H38 C26 1_555 1_555
H39 C27 1_555 1_555
H40 C27 1_555 1_555
H41 C27 1_555 1_555
H42 C28 1_555 1_555
H44 C29 1_555 1_555
H45 C29 1_555 1_555
H46 C31 1_555 1_555
H47 C31 1_555 1_555
H48 C32 1_555 1_555
H49 C32 1_555 1_555
H50 C32 1_555 1_555
H51 C33 1_555 1_555
H52 C33 1_555 1_555
H54 C34 1_555 1_555
H55 C34 1_555 1_555
H56 C35 1_555 1_555
H57 C35 1_555 1_555
H58 C35 1_555 1_555
H59 C36 1_555 1_555
H60 C36 1_555 1_555
H61 C36 1_555 1_555
H62 C38 1_555 1_555
H63 C38 1_555 1_555
H64 C38 1_555 1_555
H65 C39 1_555 1_555
H66 C39 1_555 1_555
H67 C39 1_555 1_555
H68 O8 1_555 1_555
H69 C40 1_555 1_555
H70 C40 1_555 1_555
H71 C40 1_555 1_555
H73 C41 1_555 1_555
C9 C25 1_555 1_555
C18 C30 1_555 1_555
C23 C31 1_555 1_555
C26 C33 1_555 1_555

#END
