
#######################################################################
#
#                 Cambridge Crystallographic Data Centre
#                                CCDC 
#
#######################################################################
#
# If this CIF has been generated from an entry in the Cambridge 
# Structural Database, then it will include bibliographic, chemical, 
# crystal, experimental, refinement or atomic coordinate data resulting 
# from the CCDC's data processing and validation procedures.
#
#######################################################################

data_TUHRAR
_chemical_formula_moiety         'C54 H38 O2,2(C2 H3 N1)'
_chemical_name_systematic        
"1,1':2',1'':4'',1''':2''',1'''':4'''',1''''':2''''',1'''''':4'''''',1''''''':2''''''',1''''''''-noviphenyl-4,4''''''''-diol acetonitrile solvate"
_symmetry_cell_setting           triclinic
_symmetry_space_group_name_H-M   'P -1'
_symmetry_Int_Tables_number      2
_space_group_name_Hall           '-P 1'
loop_
_symmetry_equiv_pos_site_id
_symmetry_equiv_pos_as_xyz
1 x,y,z
2 -x,-y,-z
_cell_length_a                   6.311(3)
_cell_length_b                   12.907(8)
_cell_length_c                   14.773(8)
_cell_angle_alpha                109.86(5)
_cell_angle_beta                 101.10(4)
_cell_angle_gamma                99.93(5)
_cell_volume                     1073.1
_exptl_crystal_colour            colorless
_exptl_crystal_description       prismatic
_cell_formula_units_Z            1
loop_
_atom_site_label
_atom_site_type_symbol
_atom_site_fract_x
_atom_site_fract_y
_atom_site_fract_z
O1 O 0.9946(4) 0.4356(2) 0.16398(16)
C1 C 0.2311(5) -0.1092(3) 0.0969(2)
C2 C 0.2912(5) -0.0897(3) 0.2000(2)
C3 C 1.2558(5) 0.2949(3) 0.48284(19)
C4 C 1.4611(5) 0.3550(3) 0.5542(2)
C5 C 1.1909(5) 0.1763(3) 0.5764(2)
C6 C 1.0498(5) 0.4007(3) 0.2418(2)
C7 C 0.7051(5) 0.1179(3) 0.4432(2)
C8 C 0.5061(5) 0.0490(3) 0.3725(2)
C9 C 0.9048(5) 0.1324(3) 0.4171(2)
C10 C 1.1190(5) 0.2040(3) 0.49373(19)
C11 C 0.5050(5) -0.0105(3) 0.27255(19)
C12 C 1.1834(5) 0.3307(3) 0.3979(2)
C13 C 0.9028(5) 0.0738(3) 0.3177(2)
C14 C 0.1447(5) -0.1514(3) 0.2351(2)
C15 C 1.5318(5) 0.3261(3) 0.6354(2)
C16 C 0.7056(5) 0.0027(3) 0.24754(19)
C17 C 0.0282(6) -0.1880(3) 0.0352(3)
C18 C 0.3694(5) -0.0519(3) 0.0478(2)
C19 C 1.3068(5) 0.3266(3) 0.3291(2)
C20 C 1.2403(5) 0.3603(3) 0.2503(2)
C21 C 0.9266(6) 0.4067(3) 0.3104(3)
C22 C 0.9920(5) 0.3708(3) 0.3880(2)
C23 C 1.3961(6) 0.2374(3) 0.6466(2)
C24 C 0.4385(6) 0.0672(3) 0.0813(2)
C25 C 0.4333(6) -0.1175(3) -0.0339(2)
C26 C -0.0548(5) -0.2289(3) 0.1729(3)
C27 C -0.1132(6) -0.2469(3) 0.0726(3)
H1 H 0.8758 0.4565 0.1646
H2 H 1.5535 0.4164 0.5469
H3 H 1.0993 0.1155 0.5848
H4 H 0.7043 0.1557 0.5106
H5 H 0.3705 0.0420 0.3916
H6 H 1.0374 0.0829 0.2981
H7 H 0.1835 -0.1397 0.3039
H8 H 1.6721 0.3669 0.6829
H9 H 0.7085 -0.0379 0.1809
H10 H -0.0131 -0.2012 -0.0338
H11 H 1.4385 0.3004 0.3359
H12 H 1.3242 0.3557 0.2027
H13 H 0.7978 0.4353 0.3048
H14 H 0.9057 0.3736 0.4344
H15 H 1.4429 0.2179 0.7023
H16 H 0.3971 0.1135 0.1368
H17 H 0.3878 -0.1983 -0.0575
H18 H -0.1505 -0.2692 0.1990
H19 H -0.2498 -0.2994 0.0294
O1A O 0.0054(4) -0.4356(2) -0.16398(16)
C1A C 0.7689(5) 0.1092(3) -0.0969(2)
C2A C 0.7088(5) 0.0897(3) -0.2000(2)
C3A C -0.2558(5) -0.2949(3) -0.48284(19)
C4A C -0.4611(5) -0.3550(3) -0.5542(2)
C5A C -0.1909(5) -0.1763(3) -0.5764(2)
C6A C -0.0498(5) -0.4007(3) -0.2418(2)
C7A C 0.2949(5) -0.1179(3) -0.4432(2)
C8A C 0.4939(5) -0.0490(3) -0.3725(2)
C9A C 0.0952(5) -0.1324(3) -0.4171(2)
C10A C -0.1190(5) -0.2040(3) -0.49373(19)
C11A C 0.4950(5) 0.0105(3) -0.27255(19)
C12A C -0.1834(5) -0.3307(3) -0.3979(2)
C13A C 0.0972(5) -0.0738(3) -0.3177(2)
C14A C 0.8553(5) 0.1514(3) -0.2351(2)
C15A C -0.5318(5) -0.3261(3) -0.6354(2)
C16A C 0.2944(5) -0.0027(3) -0.24754(19)
C17A C 0.9718(6) 0.1880(3) -0.0352(3)
C18A C 0.6306(5) 0.0519(3) -0.0478(2)
C19A C -0.3068(5) -0.3266(3) -0.3291(2)
C20A C -0.2403(5) -0.3603(3) -0.2503(2)
C21A C 0.0734(6) -0.4067(3) -0.3104(3)
C22A C 0.0080(5) -0.3708(3) -0.3880(2)
C23A C -0.3961(6) -0.2374(3) -0.6466(2)
C24A C 0.5615(6) -0.0672(3) -0.0813(2)
C25A C 0.5667(6) 0.1175(3) 0.0339(2)
C26A C 1.0548(5) 0.2289(3) -0.1729(3)
C27A C 1.1132(6) 0.2469(3) -0.0726(3)
H1A H 0.1242 -0.4565 -0.1646
H2A H -0.5535 -0.4164 -0.5469
H3A H -0.0993 -0.1155 -0.5848
H4A H 0.2957 -0.1557 -0.5106
H5A H 0.6295 -0.0420 -0.3916
H6A H -0.0374 -0.0829 -0.2981
H7A H 0.8165 0.1397 -0.3039
H8A H -0.6721 -0.3669 -0.6829
H9A H 0.2915 0.0379 -0.1809
H10A H 1.0131 0.2012 0.0338
H11A H -0.4385 -0.3004 -0.3359
H12A H -0.3242 -0.3557 -0.2027
H13A H 0.2022 -0.4353 -0.3048
H14A H 0.0943 -0.3736 -0.4344
H15A H -0.4429 -0.2179 -0.7023
H16A H 0.6029 -0.1135 -0.1368
H17A H 0.6122 0.1983 0.0575
H18A H 1.1505 0.2692 -0.1990
H19A H 1.2498 0.2994 -0.0294
N1 N 0.5829(5) 0.4954(3) 0.12944(19)
C28 C 0.4542(5) 0.5427(3) 0.1108(2)
C29 C 0.2912(6) 0.6035(3) 0.0880(3)
H20 H 0.2749 0.6000 0.0197
H21 H 0.3419 0.6832 0.1351
H22 H 0.1468 0.5681 0.0939
loop_
_geom_bond_atom_site_label_1
_geom_bond_atom_site_label_2
_geom_bond_site_symmetry_1
_geom_bond_site_symmetry_2
O1 C6 1_555 1_555
C1 C2 1_555 1_555
C2 C11 1_555 1_555
C3 C4 1_555 1_555
C4 C15 1_555 1_555
C5 C10 1_555 1_555
C6 C20 1_555 1_555
C7 C8 1_555 1_555
C8 C11 1_555 1_555
C9 C7 1_555 1_555
C10 C3 1_555 1_555
C11 C16 1_555 1_555
C12 C3 1_555 1_555
C13 C9 1_555 1_555
C14 C2 1_555 1_555
C15 C23 1_555 1_555
C16 C13 1_555 1_555
C17 C1 1_555 1_555
C18 C1 1_555 1_555
C19 C12 1_555 1_555
C20 C19 1_555 1_555
C21 C6 1_555 1_555
C22 C12 1_555 1_555
C23 C5 1_555 1_555
C24 C18 1_555 1_555
C25 C18 1_555 1_555
C26 C14 1_555 1_555
C27 C17 1_555 1_555
H1 O1 1_555 1_555
H2 C4 1_555 1_555
H3 C5 1_555 1_555
H4 C7 1_555 1_555
H5 C8 1_555 1_555
H6 C13 1_555 1_555
H7 C14 1_555 1_555
H8 C15 1_555 1_555
H9 C16 1_555 1_555
H10 C17 1_555 1_555
H11 C19 1_555 1_555
H12 C20 1_555 1_555
H13 C21 1_555 1_555
H14 C22 1_555 1_555
H15 C23 1_555 1_555
H16 C24 1_555 1_555
H17 C25 1_555 1_555
H18 C26 1_555 1_555
H19 C27 1_555 1_555
N1 C28 1_555 1_555
C28 C29 1_555 1_555
C29 H20 1_555 1_555
H21 C29 1_555 1_555
H22 C29 1_555 1_555
O1A C6A 1_555 1_555
C1A C2A 1_555 1_555
C2A C11A 1_555 1_555
C3A C4A 1_555 1_555
C4A C15A 1_555 1_555
C5A C10A 1_555 1_555
C6A C20A 1_555 1_555
C7A C8A 1_555 1_555
C8A C11A 1_555 1_555
C9A C7A 1_555 1_555
C10A C3A 1_555 1_555
C11A C16A 1_555 1_555
C12A C3A 1_555 1_555
C13A C9A 1_555 1_555
C14A C2A 1_555 1_555
C15A C23A 1_555 1_555
C16A C13A 1_555 1_555
C17A C1A 1_555 1_555
C18A C1A 1_555 1_555
C19A C12A 1_555 1_555
C20A C19A 1_555 1_555
C21A C6A 1_555 1_555
C22A C12A 1_555 1_555
C23A C5A 1_555 1_555
C24A C25 1_555 1_555
C25A C24 1_555 1_555
C26A C14A 1_555 1_555
C27A C17A 1_555 1_555
H1A O1A 1_555 1_555
H2A C4A 1_555 1_555
H3A C5A 1_555 1_555
H4A C7A 1_555 1_555
H5A C8A 1_555 1_555
H6A C13A 1_555 1_555
H7A C14A 1_555 1_555
H8A C15A 1_555 1_555
H9A C16A 1_555 1_555
H10A C17A 1_555 1_555
H11A C19A 1_555 1_555
H12A C20A 1_555 1_555
H13A C21A 1_555 1_555
H14A C22A 1_555 1_555
H15A C23A 1_555 1_555
H16A C24A 1_555 1_555
H17A C25A 1_555 1_555
H18A C26A 1_555 1_555
H19A C27A 1_555 1_555
C9 C10 1_555 1_555
C21 C22 1_555 1_555
C26 C27 1_555 1_555
C9A C10A 1_555 1_555
C18A C24A 1_555 1_555
C18A C25A 1_555 1_555
C21A C22A 1_555 1_555
C26A C27A 1_555 1_555

#END
