
#######################################################################
#
#                 Cambridge Crystallographic Data Centre
#                                CCDC 
#
#######################################################################
#
# If this CIF has been generated from an entry in the Cambridge 
# Structural Database, then it will include bibliographic, chemical, 
# crystal, experimental, refinement or atomic coordinate data resulting 
# from the CCDC's data processing and validation procedures.
#
#######################################################################

data_TUHSAS
_chemical_formula_moiety         'C16 H20 N1 P1 Se1'
_chemical_name_systematic        'N-t-butyl-P,P-diphenylphosphinoselenoic amide'
_symmetry_cell_setting           orthorhombic
_symmetry_space_group_name_H-M   'P 21 21 21'
_symmetry_Int_Tables_number      19
_space_group_name_Hall           'P 2ac 2ab'
loop_
_symmetry_equiv_pos_site_id
_symmetry_equiv_pos_as_xyz
1 x,y,z
2 1/2-x,-y,1/2+z
3 1/2+x,1/2-y,-z
4 -x,1/2+y,1/2-z
_cell_length_a                   9.5205(3)
_cell_length_b                   9.5544(3)
_cell_length_c                   17.5037(6)
_cell_angle_alpha                90
_cell_angle_beta                 90
_cell_angle_gamma                90
_cell_volume                     1592.18
_exptl_crystal_colour            colorless
_exptl_crystal_description       plate
_cell_formula_units_Z            4
loop_
_atom_site_label
_atom_site_type_symbol
_atom_site_fract_x
_atom_site_fract_y
_atom_site_fract_z
Se1 Se 0.89364(3) -0.02722(4) 0.323446(19)
P1 P 0.75657(8) 0.13211(7) 0.28434(4)
N1 N 0.7911(3) 0.2973(3) 0.30550(14)
H1 H 0.7895 0.3554 0.2680
C1 C 0.8652(3) 0.1920(3) 0.1403(2)
H2 H 0.9419 0.2281 0.1667
C2 C 0.6410(4) 0.0753(4) 0.0614(2)
H3 H 0.5664 0.0353 0.0350
C3 C 0.6414(3) 0.0748(4) 0.1409(2)
H4 H 0.5675 0.0335 0.1674
C4 C 0.3953(4) -0.0356(4) 0.37255(19)
H5 H 0.3681 -0.1158 0.3988
C5 C 0.7507(4) 0.1348(4) 0.0217(2)
H6 H 0.7499 0.1355 -0.0314
C6 C 0.7512(3) 0.1356(3) 0.18063(18)
C7 C 0.5761(3) 0.1034(3) 0.31394(18)
C8 C 0.5353(4) -0.0179(4) 0.35227(18)
H7 H 0.6012 -0.0864 0.3641
C9 C 0.3359(4) 0.1846(4) 0.3155(2)
H8 H 0.2687 0.2509 0.3024
C10 C 0.8632(4) 0.1941(4) 0.0614(2)
H9 H 0.9370 0.2350 0.0346
C11 C 0.9808(4) 0.3375(4) 0.4007(2)
H10 H 1.0011 0.2394 0.4051
H11 H 1.0025 0.3835 0.4480
H12 H 1.0366 0.3771 0.3604
C12 C 0.2965(4) 0.0639(4) 0.3544(2)
H13 H 0.2031 0.0505 0.3682
C13 C 0.7337(4) 0.2876(4) 0.4433(2)
H14 H 0.6363 0.3021 0.4315
H15 H 0.7544 0.3280 0.4923
H16 H 0.7533 0.1891 0.4445
C14 C 0.8246(4) 0.3574(4) 0.38219(19)
C15 C 0.4756(4) 0.2059(3) 0.29629(19)
H17 H 0.5026 0.2879 0.2718
C16 C 0.7904(4) 0.5131(4) 0.3772(2)
H18 H 0.8453 0.5551 0.3373
H19 H 0.8120 0.5573 0.4250
H20 H 0.6924 0.5249 0.3661
loop_
_geom_bond_atom_site_label_1
_geom_bond_atom_site_label_2
_geom_bond_site_symmetry_1
_geom_bond_site_symmetry_2
Se1 P1 1_555 1_555
P1 N1 1_555 1_555
N1 H1 1_555 1_555
C1 H2 1_555 1_555
C2 H3 1_555 1_555
C3 C2 1_555 1_555
H4 C3 1_555 1_555
C4 H5 1_555 1_555
C5 C2 1_555 1_555
H6 C5 1_555 1_555
C6 P1 1_555 1_555
C7 P1 1_555 1_555
C8 C4 1_555 1_555
H7 C8 1_555 1_555
C9 H8 1_555 1_555
C10 C1 1_555 1_555
H9 C10 1_555 1_555
C11 H10 1_555 1_555
H11 C11 1_555 1_555
H12 C11 1_555 1_555
C12 C4 1_555 1_555
H13 C12 1_555 1_555
C13 H14 1_555 1_555
H15 C13 1_555 1_555
H16 C13 1_555 1_555
C14 N1 1_555 1_555
C15 C7 1_555 1_555
H17 C15 1_555 1_555
C16 C14 1_555 1_555
H18 C16 1_555 1_555
H19 C16 1_555 1_555
H20 C16 1_555 1_555
C1 C6 1_555 1_555
C3 C6 1_555 1_555
C5 C10 1_555 1_555
C7 C8 1_555 1_555
C9 C12 1_555 1_555
C9 C15 1_555 1_555
C11 C14 1_555 1_555
C13 C14 1_555 1_555

#END
