
#######################################################################
#
#                 Cambridge Crystallographic Data Centre
#                                CCDC 
#
#######################################################################
#
# If this CIF has been generated from an entry in the Cambridge 
# Structural Database, then it will include bibliographic, chemical, 
# crystal, experimental, refinement or atomic coordinate data resulting 
# from the CCDC's data processing and validation procedures.
#
#######################################################################

data_TUHSIA
_chemical_formula_moiety         'C40 H54 Ca1 N2 O2 P2 Se2,C4 H8 O1'
_chemical_name_systematic        
'bis(t-butyl(diphenylphosphoroselenoyl)amino)-bis(tetrahydrofuran)-calcium tetrahydrofuran solvate'
_symmetry_cell_setting           triclinic
_symmetry_space_group_name_H-M   'P -1'
_symmetry_Int_Tables_number      2
_space_group_name_Hall           '-P 1'
loop_
_symmetry_equiv_pos_site_id
_symmetry_equiv_pos_as_xyz
1 x,y,z
2 -x,-y,-z
_cell_length_a                   9.0371(8)
_cell_length_b                   10.3328(8)
_cell_length_c                   13.0838(8)
_cell_angle_alpha                88.738(5)
_cell_angle_beta                 75.676(7)
_cell_angle_gamma                69.287(8)
_cell_volume                     1104.36
_exptl_crystal_colour            colorless
_exptl_crystal_description       plates
_cell_formula_units_Z            1
loop_
_atom_site_label
_atom_site_type_symbol
_atom_site_fract_x
_atom_site_fract_y
_atom_site_fract_z
C21 C 0.3595(10) 0.0405(10) 0.5364(7)
H28 H 0.3374 0.1192 0.5844
H29 H 0.2545 0.0429 0.5286
C22 C 0.4466(14) 0.0633(13) 0.4377(8)
H30 H 0.4545 -0.0099 0.3892
H31 H 0.3751 0.1488 0.4173
O2 O 0.420(2) -0.0716(16) 0.5837(9)
C21A C 0.6405(10) -0.0405(10) 0.4636(7)
H28A H 0.6626 -0.1192 0.4156
H29A H 0.7455 -0.0429 0.4714
C22A C 0.5534(14) -0.0633(13) 0.5623(8)
H30A H 0.5455 0.0099 0.6108
H31A H 0.6249 -0.1488 0.5827
O2A O 0.580(2) 0.0716(16) 0.4163(9)
Ca1 Ca 0.5000 0.5000 0.0000
Se1 Se 0.58030(4) 0.63955(3) 0.16263(2)
P1 P 0.32134(9) 0.67916(7) 0.22646(5)
O1 O 0.4442(3) 0.7132(2) -0.09548(17)
N1 N 0.2594(3) 0.6072(3) 0.14804(19)
C1 C 0.0861(4) 0.6295(3) 0.1501(2)
C2 C 0.0459(4) 0.7066(4) 0.0538(3)
H1 H 0.0563 0.7956 0.0575
H2 H -0.0642 0.7191 0.0530
H3 H 0.1204 0.6537 -0.0095
C3 C 0.0748(4) 0.4867(4) 0.1405(3)
H4 H 0.1535 0.4353 0.0780
H5 H -0.0332 0.4970 0.1361
H6 H 0.0970 0.4378 0.2015
C4 C -0.0433(4) 0.7107(4) 0.2482(3)
H7 H -0.0196 0.6651 0.3102
H8 H -0.1492 0.7150 0.2435
H9 H -0.0424 0.8030 0.2528
C5 C 0.2977(4) 0.6208(3) 0.3609(2)
C6 C 0.3457(4) 0.6778(4) 0.4371(3)
H10 H 0.3906 0.7462 0.4200
C7 C 0.3264(5) 0.6322(4) 0.5387(3)
H11 H 0.3572 0.6713 0.5895
C8 C 0.2622(5) 0.5300(5) 0.5648(3)
H12 H 0.2490 0.5005 0.6330
C9 C 0.2178(5) 0.4719(5) 0.4903(3)
H13 H 0.1752 0.4022 0.5080
C10 C 0.2358(4) 0.5161(4) 0.3873(3)
H14 H 0.2061 0.4752 0.3369
C11 C 0.2150(4) 0.8678(3) 0.2451(2)
C12 C 0.2224(4) 0.9404(3) 0.1541(2)
H15 H 0.2855 0.8931 0.0892
C13 C 0.1369(4) 1.0821(4) 0.1588(3)
H16 H 0.1423 1.1290 0.0973
C14 C 0.0442(4) 1.1533(3) 0.2542(3)
H17 H -0.0130 1.2483 0.2574
C15 C 0.0363(5) 1.0832(4) 0.3452(3)
H18 H -0.0255 1.1314 0.4099
C16 C 0.1200(5) 0.9409(4) 0.3408(3)
H19 H 0.1124 0.8944 0.4024
C17 C 0.3556(5) 0.7490(4) -0.1758(3)
H20 H 0.2685 0.7118 -0.1631
H21 H 0.4279 0.7143 -0.2455
C18 C 0.2873(5) 0.9055(4) -0.1654(3)
H22 H 0.1839 0.9400 -0.1120
H23 H 0.2711 0.9427 -0.2322
C19 C 0.4180(5) 0.9438(4) -0.1326(3)
H24 H 0.4754 0.9832 -0.1900
H25 H 0.3700 1.0100 -0.0714
C20 C 0.5330(4) 0.8064(4) -0.1065(3)
H26 H 0.6328 0.7713 -0.1629
H27 H 0.5612 0.8177 -0.0413
Se1A Se 0.41970(4) 0.36045(3) -0.16263(2)
P1A P 0.67866(9) 0.32084(7) -0.22646(5)
O1A O 0.5558(3) 0.2868(2) 0.09548(17)
N1A N 0.7406(3) 0.3928(3) -0.14804(19)
C1A C 0.9139(4) 0.3705(3) -0.1501(2)
C2A C 0.9541(4) 0.2934(4) -0.0538(3)
H1A H 0.9437 0.2044 -0.0575
H2A H 1.0642 0.2809 -0.0530
H3A H 0.8796 0.3463 0.0095
C3A C 0.9252(4) 0.5133(4) -0.1405(3)
H4A H 0.8465 0.5647 -0.0780
H5A H 1.0332 0.5030 -0.1361
H6A H 0.9030 0.5622 -0.2015
C4A C 1.0433(4) 0.2893(4) -0.2482(3)
H7A H 1.0196 0.3349 -0.3102
H8A H 1.1492 0.2850 -0.2435
H9A H 1.0424 0.1970 -0.2528
C5A C 0.7023(4) 0.3792(3) -0.3609(2)
C6A C 0.6543(4) 0.3222(4) -0.4371(3)
H10A H 0.6094 0.2538 -0.4200
C7A C 0.6736(5) 0.3678(4) -0.5387(3)
H11A H 0.6428 0.3287 -0.5895
C8A C 0.7378(5) 0.4700(5) -0.5648(3)
H12A H 0.7510 0.4995 -0.6330
C9A C 0.7822(5) 0.5281(5) -0.4903(3)
H13A H 0.8248 0.5978 -0.5080
C10A C 0.7642(4) 0.4839(4) -0.3873(3)
H14A H 0.7939 0.5248 -0.3369
C11A C 0.7850(4) 0.1322(3) -0.2451(2)
C12A C 0.7776(4) 0.0596(3) -0.1541(2)
H15A H 0.7145 0.1069 -0.0892
C13A C 0.8631(4) -0.0821(4) -0.1588(3)
H16A H 0.8577 -0.1290 -0.0973
C14A C 0.9558(4) -0.1533(3) -0.2542(3)
H17A H 1.0130 -0.2483 -0.2574
C15A C 0.9637(5) -0.0832(4) -0.3452(3)
H18A H 1.0255 -0.1314 -0.4099
C16A C 0.8800(5) 0.0591(4) -0.3408(3)
H19A H 0.8876 0.1056 -0.4024
C17A C 0.6444(5) 0.2510(4) 0.1758(3)
H20A H 0.7315 0.2882 0.1631
H21A H 0.5721 0.2857 0.2455
C18A C 0.7127(5) 0.0945(4) 0.1654(3)
H22A H 0.8161 0.0600 0.1120
H23A H 0.7289 0.0573 0.2322
C19A C 0.5820(5) 0.0562(4) 0.1326(3)
H24A H 0.5246 0.0168 0.1900
H25A H 0.6300 -0.0100 0.0714
C20A C 0.4670(4) 0.1936(4) 0.1065(3)
H26A H 0.3672 0.2287 0.1629
H27A H 0.4388 0.1823 0.0413
loop_
_geom_bond_atom_site_label_1
_geom_bond_atom_site_label_2
_geom_bond_site_symmetry_1
_geom_bond_site_symmetry_2
Ca1 Se1 1_555 1_555
Se1 P1 1_555 1_555
P1 N1 1_555 1_555
O1 Ca1 1_555 1_555
N1 Ca1 1_555 1_555
C1 N1 1_555 1_555
C2 C1 1_555 1_555
H1 C2 1_555 1_555
H2 C2 1_555 1_555
H3 C2 1_555 1_555
C3 C1 1_555 1_555
H4 C3 1_555 1_555
H5 C3 1_555 1_555
H6 C3 1_555 1_555
C4 C1 1_555 1_555
H7 C4 1_555 1_555
H8 C4 1_555 1_555
H9 C4 1_555 1_555
C5 P1 1_555 1_555
C6 C5 1_555 1_555
H10 C6 1_555 1_555
C7 C6 1_555 1_555
H11 C7 1_555 1_555
C8 C7 1_555 1_555
H12 C8 1_555 1_555
C9 C8 1_555 1_555
H13 C9 1_555 1_555
C10 C5 1_555 1_555
H14 C10 1_555 1_555
C11 P1 1_555 1_555
C12 C11 1_555 1_555
H15 C12 1_555 1_555
C13 C12 1_555 1_555
H16 C13 1_555 1_555
C14 C13 1_555 1_555
H17 C14 1_555 1_555
C15 C14 1_555 1_555
H18 C15 1_555 1_555
C16 C11 1_555 1_555
H19 C16 1_555 1_555
C17 O1 1_555 1_555
H20 C17 1_555 1_555
H21 C17 1_555 1_555
C18 C17 1_555 1_555
H22 C18 1_555 1_555
H23 C18 1_555 1_555
C19 C18 1_555 1_555
H24 C19 1_555 1_555
H25 C19 1_555 1_555
C20 O1 1_555 1_555
H26 C20 1_555 1_555
H27 C20 1_555 1_555
C21 H28 1_555 1_555
H29 C21 1_555 1_555
C22 C21 1_555 1_555
H30 C22 1_555 1_555
H31 C22 1_555 1_555
O2 C21 1_555 1_555
Se1A Ca1 1_555 1_555
P1A Se1A 1_555 1_555
O1A Ca1 1_555 1_555
N1A Ca1 1_555 1_555
C1A N1A 1_555 1_555
C2A C1A 1_555 1_555
H1A C2A 1_555 1_555
H2A C2A 1_555 1_555
H3A C2A 1_555 1_555
C3A C1A 1_555 1_555
H4A C3A 1_555 1_555
H5A C3A 1_555 1_555
H6A C3A 1_555 1_555
C4A C1A 1_555 1_555
H7A C4A 1_555 1_555
H8A C4A 1_555 1_555
H9A C4A 1_555 1_555
C5A P1A 1_555 1_555
C6A C5A 1_555 1_555
H10A C6A 1_555 1_555
C7A C6A 1_555 1_555
H11A C7A 1_555 1_555
C8A C7A 1_555 1_555
H12A C8A 1_555 1_555
C9A C8A 1_555 1_555
H13A C9A 1_555 1_555
C10A C5A 1_555 1_555
H14A C10A 1_555 1_555
C11A P1A 1_555 1_555
C12A C11A 1_555 1_555
H15A C12A 1_555 1_555
C13A C12A 1_555 1_555
H16A C13A 1_555 1_555
C14A C13A 1_555 1_555
H17A C14A 1_555 1_555
C15A C14A 1_555 1_555
H18A C15A 1_555 1_555
C16A C11A 1_555 1_555
H19A C16A 1_555 1_555
C17A O1A 1_555 1_555
H20A C17A 1_555 1_555
H21A C17A 1_555 1_555
C18A C17A 1_555 1_555
H22A C18A 1_555 1_555
H23A C18A 1_555 1_555
C19A C18A 1_555 1_555
H24A C19A 1_555 1_555
H25A C19A 1_555 1_555
C20A O1A 1_555 1_555
H26A C20A 1_555 1_555
H27A C20A 1_555 1_555
C21A C22 1_555 1_555
H28A C21A 1_555 1_555
H29A C21A 1_555 1_555
C22A C21 1_555 1_555
H30A C22A 1_555 1_555
H31A C22A 1_555 1_555
O2A C22 1_555 1_555
C9 C10 1_555 1_555
C15 C16 1_555 1_555
C19 C20 1_555 1_555
O2 C22A 1_555 1_555
P1A N1A 1_555 1_555
C9A C10A 1_555 1_555
C15A C16A 1_555 1_555
C19A C20A 1_555 1_555
C21A C22A 1_555 1_555
C21A O2A 1_555 1_555

#END
