
#######################################################################
#
#                 Cambridge Crystallographic Data Centre
#                                CCDC 
#
#######################################################################
#
# If this CIF has been generated from an entry in the Cambridge 
# Structural Database, then it will include bibliographic, chemical, 
# crystal, experimental, refinement or atomic coordinate data resulting 
# from the CCDC's data processing and validation procedures.
#
#######################################################################

data_TUHTAT
_chemical_formula_moiety         'C10 H6 F4 O4'
_chemical_name_systematic        'dimethyl 2,3,5,6-tetrafluoroterephthalate'
_symmetry_cell_setting           monoclinic
_symmetry_space_group_name_H-M   'P 21/n'
_symmetry_Int_Tables_number      14
_space_group_name_Hall           '-P 2yn'
loop_
_symmetry_equiv_pos_site_id
_symmetry_equiv_pos_as_xyz
1 x,y,z
2 1/2-x,1/2+y,1/2-z
3 -x,-y,-z
4 1/2+x,1/2-y,1/2+z
_cell_length_a                   6.332(6)
_cell_length_b                   4.701(5)
_cell_length_c                   17.423(16)
_cell_angle_alpha                90
_cell_angle_beta                 95.605(15)
_cell_angle_gamma                90
_cell_volume                     516.146
_exptl_crystal_colour            'light yellow'
_exptl_crystal_description       block-like
_cell_formula_units_Z            2
loop_
_atom_site_label
_atom_site_type_symbol
_atom_site_fract_x
_atom_site_fract_y
_atom_site_fract_z
F1 F -0.20183(18) 0.9270(3) 0.12670(7)
O1 O 0.3788(2) 0.6589(4) 0.13614(10)
C1 C 0.1754(3) 0.6231(4) 0.12055(12)
C2 C -0.1020(3) 0.9549(4) 0.06401(12)
C3 C 0.0880(3) 0.8176(4) 0.05847(12)
O2 O 0.0694(2) 0.4616(4) 0.15222(12)
C4 C -0.1878(3) 1.1322(4) 0.00726(12)
C5 C 0.4822(4) 0.4789(7) 0.19515(16)
H1 H 0.4396 0.5338 0.2444
H2 H 0.6332 0.4984 0.1956
H3 H 0.4427 0.2845 0.1848
F2 F -0.36486(18) 1.2686(3) 0.01874(8)
F1B F 0.20183(18) 1.0730(3) -0.12670(7)
O1B O -0.3788(2) 1.3411(4) -0.13614(10)
C1B C -0.1754(3) 1.3769(4) -0.12055(12)
C2B C 0.1020(3) 1.0451(4) -0.06401(12)
C3B C -0.0880(3) 1.1824(4) -0.05847(12)
O2B O -0.0694(2) 1.5384(4) -0.15222(12)
C4B C 0.1878(3) 0.8678(4) -0.00726(12)
C5B C -0.4822(4) 1.5211(7) -0.19515(16)
H1B H -0.4396 1.4662 -0.2444
H2B H -0.6332 1.5016 -0.1956
H3B H -0.4427 1.7155 -0.1848
F2B F 0.36486(18) 0.7314(3) -0.01874(8)
loop_
_geom_bond_atom_site_label_1
_geom_bond_atom_site_label_2
_geom_bond_site_symmetry_1
_geom_bond_site_symmetry_2
F1 C2 1_555 1_555
O1 C1 1_555 1_555
C1 C3 1_555 1_555
C2 C3 1_555 1_555
C3 C4B 1_555 1_555
O2 C1 1_555 1_555
C4 C2 1_555 1_555
C5 O1 1_555 1_555
H1 C5 1_555 1_555
H2 C5 1_555 1_555
H3 C5 1_555 1_555
F2 C4 1_555 1_555
F1B C2B 1_555 1_555
O1B C1B 1_555 1_555
C1B C3B 1_555 1_555
C2B C3B 1_555 1_555
C3B C4 1_555 1_555
O2B C1B 1_555 1_555
C4B C2B 1_555 1_555
C5B O1B 1_555 1_555
H1B C5B 1_555 1_555
H2B C5B 1_555 1_555
H3B C5B 1_555 1_555
F2B C4B 1_555 1_555

#END
