
#######################################################################
#
#                 Cambridge Crystallographic Data Centre
#                                CCDC 
#
#######################################################################
#
# If this CIF has been generated from an entry in the Cambridge 
# Structural Database, then it will include bibliographic, chemical, 
# crystal, experimental, refinement or atomic coordinate data resulting 
# from the CCDC's data processing and validation procedures.
#
#######################################################################

data_TUJDUZ
_chemical_compound_source        'Isolated from the leaves of Psidium guajava.'
_chemical_name_common            'guadial B'
_chemical_formula_moiety         'C25 H26 O5'
_chemical_name_systematic        
6,8-dihydroxy-2,14,14-trimethyl-10-phenyl-3-oxatetracyclo[11.1.1.0^2,11^.0^4,9^]pentadeca-4,6,8-triene-5,7-dicarbaldehyde
_symmetry_cell_setting           orthorhombic
_symmetry_space_group_name_H-M   'P 21 21 21'
_symmetry_Int_Tables_number      19
_space_group_name_Hall           'P 2ac 2ab'
loop_
_symmetry_equiv_pos_site_id
_symmetry_equiv_pos_as_xyz
1 x,y,z
2 1/2-x,-y,1/2+z
3 -x,1/2+y,1/2-z
4 1/2+x,1/2-y,-z
_cell_length_a                   7.9775(3)
_cell_length_b                   15.0089(5)
_cell_length_c                   17.2984(8)
_cell_angle_alpha                90
_cell_angle_beta                 90
_cell_angle_gamma                90
_cell_volume                     2071.2
_exptl_crystal_colour            colorless
_exptl_crystal_description       block
_cell_formula_units_Z            4
loop_
_atom_site_label
_atom_site_type_symbol
_atom_site_fract_x
_atom_site_fract_y
_atom_site_fract_z
O1 O 0.2168(2) 0.43405(11) 1.00012(11)
O2 O 0.3231(4) 0.17852(15) 1.03855(17)
O3 O 0.4300(3) 0.16507(12) 0.89886(16)
H1 H 0.4100 0.1495 0.9433
O4 O 0.5523(3) 0.27944(17) 0.69605(15)
O5 O 0.4225(2) 0.42638(14) 0.74461(12)
H2 H 0.4709 0.3923 0.7151
C1 C 0.3523(3) 0.54101(17) 1.07910(16)
H3 H 0.3105 0.5154 1.1275
C2 C 0.2320(3) 0.53279(15) 1.01111(15)
C3 C 0.3001(3) 0.58101(16) 0.93799(16)
H4 H 0.2360 0.6365 0.9337
C4 C 0.4874(3) 0.60941(18) 0.94451(16)
H5 H 0.5538 0.5719 0.9106
H6 H 0.4984 0.6703 0.9264
C5 C 0.5587(4) 0.60352(17) 1.02569(17)
H7 H 0.6737 0.6255 1.0315
C6 C 0.4329(4) 0.63690(18) 1.08777(16)
C7 C 0.5284(4) 0.50829(18) 1.05516(17)
H8 H 0.5994 0.4910 1.0981
H9 H 0.5280 0.4632 1.0149
C8 C 0.0552(4) 0.56020(18) 1.03286(17)
H10 H 0.0212 0.5286 1.0785
H11 H -0.0197 0.5462 0.9912
H12 H 0.0524 0.6231 1.0427
C9 C 0.5141(4) 0.6463(2) 1.16735(18)
H13 H 0.5621 0.7047 1.1723
H14 H 0.6004 0.6022 1.1731
H15 H 0.4307 0.6379 1.2067
C10 C 0.3357(4) 0.72238(18) 1.07254(18)
H16 H 0.4074 0.7728 1.0814
H17 H 0.2411 0.7254 1.1067
H18 H 0.2974 0.7229 1.0199
C11 C 0.2709(3) 0.53049(16) 0.86159(15)
H19 H 0.3474 0.5565 0.8234
C12 C 0.3220(3) 0.43427(17) 0.87142(16)
C13 C 0.2898(3) 0.39240(16) 0.94075(17)
C14 C 0.3246(4) 0.29994(17) 0.95268(18)
C15 C 0.3954(3) 0.25225(19) 0.89090(19)
C16 C 0.4337(4) 0.29340(18) 0.82069(19)
C17 C 0.3934(3) 0.38505(18) 0.81171(16)
C18 C 0.0942(3) 0.53922(17) 0.82848(15)
C19 C 0.0580(4) 0.60817(18) 0.77788(17)
H20 H 0.1416 0.6488 0.7652
C20 C -0.0997(4) 0.6179(2) 0.74589(19)
H21 H -0.1210 0.6643 0.7116
C21 C -0.2256(4) 0.5588(2) 0.76475(19)
H22 H -0.3319 0.5650 0.7434
C22 C -0.1918(4) 0.4903(2) 0.81575(18)
H23 H -0.2764 0.4506 0.8292
C23 C -0.0343(3) 0.48017(18) 0.84688(17)
H24 H -0.0134 0.4333 0.8807
C24 C 0.2972(4) 0.2582(2) 1.0265(2)
H25 H 0.2580 0.2931 1.0671
C25 C 0.5157(4) 0.2462(2) 0.7588(2)
H26 H 0.5429 0.1867 0.7669
loop_
_geom_bond_atom_site_label_1
_geom_bond_atom_site_label_2
_geom_bond_site_symmetry_1
_geom_bond_site_symmetry_2
O1 C2 1_555 1_555
O2 C24 1_555 1_555
O3 H1 1_555 1_555
O4 C25 1_555 1_555
O5 H2 1_555 1_555
C1 H3 1_555 1_555
C2 C1 1_555 1_555
C3 C2 1_555 1_555
H4 C3 1_555 1_555
C4 C3 1_555 1_555
H5 C4 1_555 1_555
H6 C4 1_555 1_555
C5 C4 1_555 1_555
H7 C5 1_555 1_555
C6 C1 1_555 1_555
C7 C1 1_555 1_555
H8 C7 1_555 1_555
H9 C7 1_555 1_555
C8 C2 1_555 1_555
H10 C8 1_555 1_555
H11 C8 1_555 1_555
H12 C8 1_555 1_555
C9 C6 1_555 1_555
H13 C9 1_555 1_555
H14 C9 1_555 1_555
H15 C9 1_555 1_555
C10 C6 1_555 1_555
H16 C10 1_555 1_555
H17 C10 1_555 1_555
H18 C10 1_555 1_555
C11 C3 1_555 1_555
H19 C11 1_555 1_555
C12 C11 1_555 1_555
C13 O1 1_555 1_555
C14 C13 1_555 1_555
C15 O3 1_555 1_555
C16 C15 1_555 1_555
C17 O5 1_555 1_555
C18 C11 1_555 1_555
C19 C18 1_555 1_555
H20 C19 1_555 1_555
C20 C19 1_555 1_555
H21 C20 1_555 1_555
C21 C20 1_555 1_555
H22 C21 1_555 1_555
C22 C21 1_555 1_555
H23 C22 1_555 1_555
C23 C18 1_555 1_555
H24 C23 1_555 1_555
C24 C14 1_555 1_555
H25 C24 1_555 1_555
C25 C16 1_555 1_555
H26 C25 1_555 1_555
C5 C6 1_555 1_555
C5 C7 1_555 1_555
C12 C13 1_555 1_555
C12 C17 1_555 1_555
C14 C15 1_555 1_555
C16 C17 1_555 1_555
C22 C23 1_555 1_555

#END
