
#######################################################################
#
#                 Cambridge Crystallographic Data Centre
#                                CCDC 
#
#######################################################################
#
# If this CIF has been generated from an entry in the Cambridge 
# Structural Database, then it will include bibliographic, chemical, 
# crystal, experimental, refinement or atomic coordinate data resulting 
# from the CCDC's data processing and validation procedures.
#
#######################################################################

data_TUJKUG
_chemical_formula_moiety         'C25 H24 O10'
_chemical_name_systematic        
'3-(4-acetoxyphenyl)-1-(2,4,6-triacetoxyphenyl)prop-1-en-1-yl acetate'
_symmetry_cell_setting           monoclinic
_symmetry_space_group_name_H-M   'P 21/c'
_symmetry_Int_Tables_number      14
_space_group_name_Hall           '-P 2ybc'
loop_
_symmetry_equiv_pos_site_id
_symmetry_equiv_pos_as_xyz
1 x,y,z
2 -x,1/2+y,1/2-z
3 -x,-y,-z
4 x,1/2-y,1/2+z
_cell_length_a                   11.875(6)
_cell_length_b                   16.159(8)
_cell_length_c                   13.910(7)
_cell_angle_alpha                90
_cell_angle_beta                 112.101(7)
_cell_angle_gamma                90
_cell_volume                     2473.04
_exptl_crystal_colour            colorless
_exptl_crystal_description       Block
_cell_formula_units_Z            4
loop_
_atom_site_label
_atom_site_type_symbol
_atom_site_fract_x
_atom_site_fract_y
_atom_site_fract_z
O1 O 0.2743(2) 0.26465(16) 0.3304(2)
O2 O 0.4679(3) 0.2800(2) 0.4366(3)
O3 O 0.3410(3) -0.02386(18) 0.4306(2)
O4 O 0.2815(5) -0.0305(3) 0.2585(3)
O5 O 0.1365(3) 0.14906(17) 0.5841(2)
O6 O -0.0442(3) 0.1012(2) 0.4794(3)
O7 O 0.2400(2) 0.35814(16) 0.4914(2)
O8 O 0.3504(3) 0.3063(3) 0.6484(3)
O9 O -0.2270(9) 0.3209(8) 0.7555(8)
O10 O -0.2804(7) 0.4508(6) 0.7733(7)
C1 C 0.2633(3) 0.1970(2) 0.3891(3)
C2 C 0.3070(4) 0.1212(3) 0.3740(3)
H1 H 0.3480 0.1152 0.3291
C3 C 0.2879(4) 0.0546(3) 0.4278(3)
C4 C 0.2273(4) 0.0627(3) 0.4941(3)
H2 H 0.2142 0.0170 0.5291
C5 C 0.1862(4) 0.1399(2) 0.5079(3)
C6 C 0.2024(3) 0.2095(2) 0.4562(3)
C7 C 0.3848(4) 0.3025(3) 0.3625(4)
C8 C 0.3822(2) 0.37401(16) 0.29541(19)
H3 H 0.4627 0.3963 0.3148
H4 H 0.3291 0.4158 0.3036
H5 H 0.3533 0.3564 0.2243
C9 C 0.3381(3) -0.05937(15) 0.3420(2)
C10 C 0.4023(4) -0.13936(16) 0.3607(2)
H6 H 0.4004(4) -0.16150(16) 0.2961(2)
H7 H 0.3631(3) -0.17724(15) 0.3914(2)
H8 H 0.4851(3) -0.13145(17) 0.4069(3)
C11 C 0.0203(3) 0.12426(16) 0.5622(3)
C12 C -0.0125(3) 0.13454(16) 0.6552(3)
H9 H -0.0843 0.1029 0.6460
H10 H -0.0276 0.1920 0.6636
H11 H 0.0533 0.1153 0.7158
C13 C 0.3344(4) 0.3589(3) 0.5842(4)
C14 C 0.4116(5) 0.4329(3) 0.5932(5)
H12 H 0.3788 0.4652 0.5309
H13 H 0.4927 0.4157 0.6033
H14 H 0.4134 0.4657 0.6513
C15 C 0.1552(4) 0.2917(2) 0.4681(3)
C16 C 0.0413(4) 0.3094(3) 0.4498(3)
H15 H -0.0144 0.2665 0.4250
C17 C -0.0088(4) 0.3913(3) 0.4645(4)
H16 H -0.0663 0.4108 0.3983
H17 H 0.0567 0.4312 0.4897
C18 C -0.0715(4) 0.3848(3) 0.5409(4)
C19 C -0.1936(4) 0.3660(3) 0.5074(4)
H18 H -0.2419 0.3689 0.4371
C20 C -0.245(3) 0.3426(12) 0.579(2)
H19 H -0.3251 0.3240 0.5565
C21 C -0.1760(13) 0.3475(9) 0.6838(12)
C22 C -0.056(2) 0.3683(11) 0.717(2)
H20 H -0.0101 0.3719 0.7878
C23 C -0.004(6) 0.384(3) 0.646(6)
H21 H 0.0795 0.3941 0.6699
C24 C -0.2796(12) 0.3791(16) 0.7948(13)
C25 C -0.350(5) 0.344(3) 0.854(4)
H22 H -0.3521 0.3834 0.9051
H23 H -0.3118 0.2940 0.8882
H24 H -0.4314 0.3321 0.8074
O11? O -0.2630(9) 0.3942(9) 0.7384(11)
O12? O -0.2172(9) 0.2626(10) 0.7891(9)
H25? H 0.4778 0.4326 0.6595
H26? H 0.3639 0.4820 0.5870
H27? H 0.4432 0.4320 0.5390
C26? C -0.258(4) 0.3758(16) 0.572(3)
H28? H -0.3423 0.3731 0.5441
C27? C -0.1966(19) 0.3894(13) 0.6757(16)
C28? C -0.074(3) 0.4036(15) 0.714(3)
H29? H -0.0309 0.4107 0.7847
C29? C -0.014(8) 0.407(4) 0.646(8)
H30? H 0.0659 0.4250 0.6697
C30? C -0.267(2) 0.327(2) 0.7928(19)
C31? C -0.323(6) 0.339(4) 0.872(6)
H31? H -0.3755 0.2933 0.8685
H32? H -0.3687 0.3896 0.8573
H33? H -0.2599 0.3420 0.9396
loop_
_geom_bond_atom_site_label_1
_geom_bond_atom_site_label_2
_geom_bond_site_symmetry_1
_geom_bond_site_symmetry_2
O1 C1 1_555 1_555
O2 C7 1_555 1_555
O3 C3 1_555 1_555
O4 C9 1_555 1_555
O5 C5 1_555 1_555
O6 C11 1_555 1_555
O7 C13 1_555 1_555
O8 C13 1_555 1_555
O9 C21 1_555 1_555
O10 C24 1_555 1_555
C1 C2 1_555 1_555
C2 H1 1_555 1_555
C3 C2 1_555 1_555
C4 C3 1_555 1_555
H2 C4 1_555 1_555
C5 C4 1_555 1_555
C6 C1 1_555 1_555
C7 O1 1_555 1_555
C8 C7 1_555 1_555
H3 C8 1_555 1_555
H4 C8 1_555 1_555
H5 C8 1_555 1_555
C9 O3 1_555 1_555
C10 C9 1_555 1_555
H6 C10 1_555 1_555
H7 C10 1_555 1_555
H8 C10 1_555 1_555
C11 O5 1_555 1_555
C12 C11 1_555 1_555
H9 C12 1_555 1_555
H10 C12 1_555 1_555
H11 C12 1_555 1_555
C13 C14 1_555 1_555
C14 H12 1_555 1_555
H13 C14 1_555 1_555
H14 C14 1_555 1_555
C15 O7 1_555 1_555
C16 C15 1_555 1_555
H15 C16 1_555 1_555
C17 C16 1_555 1_555
H16 C17 1_555 1_555
H17 C17 1_555 1_555
C18 C17 1_555 1_555
C19 C18 1_555 1_555
H18 C19 1_555 1_555
C20 C19 1_555 1_555
H19 C20 1_555 1_555
C21 C20 1_555 1_555
C22 C21 1_555 1_555
H20 C22 1_555 1_555
C23 C18 1_555 1_555
H21 C23 1_555 1_555
C24 O9 1_555 1_555
C25 C24 1_555 1_555
H22 C25 1_555 1_555
H23 C25 1_555 1_555
H24 C25 1_555 1_555
C5 C6 1_555 1_555
C6 C15 1_555 1_555
C22 C23 1_555 1_555

#END
