
#######################################################################
#
#                 Cambridge Crystallographic Data Centre
#                                CCDC 
#
#######################################################################
#
# If this CIF has been generated from an entry in the Cambridge 
# Structural Database, then it will include bibliographic, chemical, 
# crystal, experimental, refinement or atomic coordinate data resulting 
# from the CCDC's data processing and validation procedures.
#
#######################################################################

data_TUJLAN
_chemical_formula_moiety         'C21 H18 O7'
_chemical_name_systematic        
'3-(4-acetoxybenzyl)-5-hydroxy-2-methyl-4-oxo-4H-chromen-7-yl acetate'
_symmetry_cell_setting           monoclinic
_symmetry_space_group_name_H-M   'P 21/c'
_symmetry_Int_Tables_number      14
_space_group_name_Hall           '-P 2ybc'
loop_
_symmetry_equiv_pos_site_id
_symmetry_equiv_pos_as_xyz
1 x,y,z
2 -x,1/2+y,1/2-z
3 -x,-y,-z
4 x,1/2-y,1/2+z
_cell_length_a                   7.8575(11)
_cell_length_b                   14.470(2)
_cell_length_c                   34.172(5)
_cell_angle_alpha                90
_cell_angle_beta                 101.719(4)
_cell_angle_gamma                90
_cell_volume                     3804.3
_exptl_crystal_colour            colorless
_exptl_crystal_description       plate
_cell_formula_units_Z            8
loop_
_atom_site_label
_atom_site_type_symbol
_atom_site_fract_x
_atom_site_fract_y
_atom_site_fract_z
O1 O 0.415(2) 0.1265(10) 0.0389(4)
O2 O 0.5252(13) 0.0956(5) -0.0150(2)
O3 O 0.9537(5) 0.4243(2) 0.21378(11)
O4 O 0.9601(6) 0.1440(3) 0.21175(13)
O5 O 0.8742(6) 0.1431(3) 0.28170(13)
H1 H 0.8973 0.1215 0.2612
O6 O 0.7906(5) 0.4345(3) 0.33837(12)
O7 O 1.0228(6) 0.3892(4) 0.38353(13)
C1 C 0.218(4) 0.0767(15) -0.0190(8)
H2 H 0.1951 0.0982 -0.0462
H3 H 0.1388 0.1054 -0.0048
H4 H 0.2038 0.0108 -0.0187
C2 C 0.399(2) 0.1008(9) 0.0005(5)
C3 C 0.5882(11) 0.1529(6) 0.0600(2)
C4 C 0.6666(11) 0.2334(6) 0.0551(2)
H5 H 0.6204 0.2720 0.0338
C5 C 0.8166(10) 0.2586(5) 0.0819(2)
H6 H 0.8702 0.3142 0.0780
C6 C 0.8893(8) 0.2039(4) 0.11414(17)
C7 C 0.8047(8) 0.1218(5) 0.11762(18)
H7 H 0.8486 0.0823 0.1387
C8 C 0.6550(9) 0.0965(5) 0.0903(2)
H8 H 0.6012 0.0403 0.0932
C9 C 1.0475(8) 0.2341(4) 0.14443(18)
H9 H 1.1181 0.2742 0.1315
H10 H 1.1166 0.1802 0.1542
C10 C 1.0324(8) 0.4470(4) 0.15270(18)
H11 H 1.0716 0.4156 0.1314
H12 H 1.1207 0.4890 0.1656
H13 H 0.9281 0.4808 0.1420
C11 C 0.9959(7) 0.3775(4) 0.18250(18)
C12 C 0.9993(7) 0.2848(4) 0.17953(17)
C13 C 0.9582(7) 0.2300(4) 0.21178(18)
C14 C 0.9175(7) 0.2800(4) 0.24537(17)
C15 C 0.8760(7) 0.2365(4) 0.27976(19)
C16 C 0.8408(7) 0.2866(4) 0.31056(18)
H14 H 0.8169 0.2573 0.3330
C17 C 0.8409(7) 0.3822(4) 0.30822(18)
C18 C 0.8779(7) 0.4286(4) 0.27594(18)
H15 H 0.8766 0.4928 0.2748
C19 C 0.9169(7) 0.3763(4) 0.24541(17)
C20 C 0.8912(9) 0.4326(5) 0.3755(2)
C21 C 0.8120(9) 0.4893(5) 0.4036(2)
H16 H 0.7475 0.4499 0.4179
H17 H 0.7353 0.5344 0.3887
H18 H 0.9021 0.5201 0.4222
O10 O 0.3371(6) 0.3917(3) 0.09702(12)
O11 O 0.5895(5) 0.4144(3) 0.13948(11)
O12 O 0.4676(6) 0.1238(3) 0.19253(12)
H22 H 0.4398 0.1021 0.2125
O13 O 0.3899(5) 0.1238(3) 0.26327(12)
O14 O 0.4175(5) 0.4039(2) 0.26357(10)
O15 O 0.9180(9) 0.1822(4) 0.45444(18)
O16 O 0.8004(13) 0.0979(6) 0.4945(2)
C24 C 0.5600(9) 0.4797(5) 0.07576(18)
H23 H 0.4713 0.5095 0.0564
H24 H 0.6280 0.4403 0.0623
H25 H 0.6337 0.5257 0.0908
C25 C 0.4774(8) 0.4232(4) 0.10337(17)
C26 C 0.5324(7) 0.3621(4) 0.16936(16)
C27 C 0.4987(7) 0.4091(4) 0.20181(16)
H26 H 0.5066 0.4731 0.2036
C28 C 0.4524(6) 0.3565(4) 0.23176(15)
C29 C 0.4412(7) 0.2601(4) 0.23013(16)
C30 C 0.4765(7) 0.2165(4) 0.19567(17)
C31 C 0.5212(7) 0.2673(4) 0.16528(17)
H27 H 0.5434 0.2385 0.1425
C32 C 0.3959(7) 0.2094(4) 0.26339(17)
C33 C 0.3597(6) 0.2649(4) 0.29636(16)
C34 C 0.3711(7) 0.3579(4) 0.29465(16)
C35 C 0.3389(8) 0.4254(4) 0.32532(18)
H28 H 0.2719 0.3963 0.3424
H29 H 0.2760 0.4776 0.3123
H30 H 0.4480 0.4459 0.3410
C36 C 0.3144(7) 0.2160(4) 0.33180(16)
H31 H 0.2655 0.1560 0.3233
H32 H 0.2260 0.2514 0.3413
C37 C 0.4687(7) 0.2029(4) 0.36590(16)
C38 C 0.4850(9) 0.2525(5) 0.40073(18)
H33 H 0.3961 0.2919 0.4044
C39 C 0.6334(10) 0.2443(5) 0.43046(19)
H34 H 0.6451 0.2791 0.4537
C40 C 0.7601(9) 0.1857(5) 0.42554(18)
C41 C 0.7481(8) 0.1345(4) 0.39155(17)
H35 H 0.8366 0.0942 0.3885
C42 C 0.6025(8) 0.1441(4) 0.36211(16)
H36 H 0.5935 0.1098 0.3388
C43 C 0.9273(16) 0.1350(9) 0.4861(4)
C44 C 1.1059(19) 0.1361(12) 0.5118(4)
H37 H 1.1082 0.0974 0.5348
H38 H 1.1361 0.1982 0.5204
H39 H 1.1879 0.1133 0.4968
O8? O 0.492(5) 0.134(3) 0.0198(15)
O9? O 0.298(4) 0.177(2) 0.0554(9)
C22? C 0.207(14) 0.122(5) -0.010(2)
H19? H 0.2103 0.0557 -0.0106
H20? H 0.2287 0.1467 -0.0343
H21? H 0.0948 0.1418 -0.0060
C23? C 0.344(9) 0.156(4) 0.024(2)
O17? O 1.093(5) 0.174(3) 0.4197(13)
C45? C 1.073(10) 0.173(4) 0.4545(19)
C46? C 1.208(9) 0.163(6) 0.4923(19)
H40? H 1.1761 0.2014 0.5128
H41? H 1.3186 0.1826 0.4876
H42? H 1.2139 0.1001 0.5008
loop_
_geom_bond_atom_site_label_1
_geom_bond_atom_site_label_2
_geom_bond_site_symmetry_1
_geom_bond_site_symmetry_2
O1 C2 1_555 1_555
O2 C2 1_555 1_555
O3 C11 1_555 1_555
O4 C13 1_555 1_555
O5 H1 1_555 1_555
O6 C17 1_555 1_555
O7 C20 1_555 1_555
C1 H2 1_555 1_555
H3 C1 1_555 1_555
H4 C1 1_555 1_555
C2 C1 1_555 1_555
C3 O1 1_555 1_555
C4 C3 1_555 1_555
H5 C4 1_555 1_555
C5 C4 1_555 1_555
H6 C5 1_555 1_555
C6 C5 1_555 1_555
C7 C6 1_555 1_555
H7 C7 1_555 1_555
C8 C3 1_555 1_555
H8 C8 1_555 1_555
C9 C6 1_555 1_555
H9 C9 1_555 1_555
H10 C9 1_555 1_555
C10 H11 1_555 1_555
H12 C10 1_555 1_555
H13 C10 1_555 1_555
C11 C10 1_555 1_555
C12 C9 1_555 1_555
C13 C12 1_555 1_555
C14 C13 1_555 1_555
C15 O5 1_555 1_555
C16 C15 1_555 1_555
H14 C16 1_555 1_555
C17 C16 1_555 1_555
C18 C17 1_555 1_555
H15 C18 1_555 1_555
C19 O3 1_555 1_555
C20 O6 1_555 1_555
C21 C20 1_555 1_555
H16 C21 1_555 1_555
H17 C21 1_555 1_555
H18 C21 1_555 1_555
O10 C25 1_555 1_555
O11 C25 1_555 1_555
O12 H22 1_555 1_555
O13 C32 1_555 1_555
O14 C28 1_555 1_555
O15 C40 1_555 1_555
O16 C43 1_555 1_555
C24 H23 1_555 1_555
H24 C24 1_555 1_555
H25 C24 1_555 1_555
C25 C24 1_555 1_555
C26 O11 1_555 1_555
C27 C26 1_555 1_555
H26 C27 1_555 1_555
C28 C27 1_555 1_555
C29 C28 1_555 1_555
C30 O12 1_555 1_555
C31 C26 1_555 1_555
H27 C31 1_555 1_555
C32 C29 1_555 1_555
C33 C32 1_555 1_555
C34 O14 1_555 1_555
C35 C34 1_555 1_555
H28 C35 1_555 1_555
H29 C35 1_555 1_555
H30 C35 1_555 1_555
C36 C33 1_555 1_555
H31 C36 1_555 1_555
H32 C36 1_555 1_555
C37 C36 1_555 1_555
C38 C37 1_555 1_555
H33 C38 1_555 1_555
C39 C38 1_555 1_555
H34 C39 1_555 1_555
C40 C39 1_555 1_555
C41 C40 1_555 1_555
H35 C41 1_555 1_555
C42 C37 1_555 1_555
H36 C42 1_555 1_555
C43 O15 1_555 1_555
C44 C43 1_555 1_555
H37 C44 1_555 1_555
H38 C44 1_555 1_555
H39 C44 1_555 1_555
C7 C8 1_555 1_555
C11 C12 1_555 1_555
C14 C15 1_555 1_555
C14 C19 1_555 1_555
C18 C19 1_555 1_555
C29 C30 1_555 1_555
C30 C31 1_555 1_555
C33 C34 1_555 1_555
C41 C42 1_555 1_555

#END
