
#######################################################################
#
#                 Cambridge Crystallographic Data Centre
#                                CCDC 
#
#######################################################################
#
# If this CIF has been generated from an entry in the Cambridge 
# Structural Database, then it will include bibliographic, chemical, 
# crystal, experimental, refinement or atomic coordinate data resulting 
# from the CCDC's data processing and validation procedures.
#
#######################################################################

data_TUJTAV
_chemical_formula_moiety         'C14 H19 N1 O5'
_chemical_name_systematic        
Morpholin-4-yl(3,4,5-trimethoxyphenyl)methanone
_symmetry_cell_setting           triclinic
_symmetry_space_group_name_H-M   'P -1'
_symmetry_Int_Tables_number      2
_space_group_name_Hall           '-P 1'
loop_
_symmetry_equiv_pos_site_id
_symmetry_equiv_pos_as_xyz
1 x,y,z
2 -x,-y,-z
_cell_length_a                   8.6577(9)
_cell_length_b                   9.5460(10)
_cell_length_c                   9.8578(10)
_cell_angle_alpha                64.1760(10)
_cell_angle_beta                 77.037(2)
_cell_angle_gamma                71.6540(10)
_cell_volume                     692.442
_exptl_crystal_colour            colorless
_exptl_crystal_description       block
_cell_formula_units_Z            2
loop_
_atom_site_label
_atom_site_type_symbol
_atom_site_fract_x
_atom_site_fract_y
_atom_site_fract_z
O1 O 1.04022(11) 0.85639(11) 0.30900(10)
O2 O 0.84175(11) 1.14937(11) 0.22862(10)
O3 O 0.60073(12) 1.23335(11) 0.42349(11)
O4 O 0.72483(16) 0.55828(12) 0.82333(12)
O5 O 0.81370(15) 0.65772(15) 1.21566(11)
N1 N 0.70587(15) 0.72126(14) 0.94013(12)
C1 C 0.92205(15) 0.88402(15) 0.41843(14)
C2 C 0.81876(15) 1.03858(15) 0.37366(14)
C3 C 0.69457(15) 1.07993(15) 0.47761(15)
C4 C 0.67284(16) 0.96758(16) 0.62393(15)
H1 H 0.5908 0.9954 0.6934
C5 C 0.77415(16) 0.81355(15) 0.66602(14)
C6 C 0.89877(15) 0.77104(15) 0.56408(15)
H2 H 0.9661 0.6675 0.5934
C7 C 0.73693(16) 0.68547(15) 0.81642(15)
C8 C 0.76779(19) 0.83919(18) 0.95516(16)
H3 H 0.6775 0.9156 0.9834
H4 H 0.8230 0.8976 0.8591
C9 C 0.8856(2) 0.7536(2) 1.07493(17)
H5 H 0.9809 0.6860 1.0408
H6 H 0.9218 0.8324 1.0889
C10 C 0.7656(2) 0.5388(2) 1.19762(17)
H7 H 0.7196 0.4714 1.2946
H8 H 0.8608 0.4713 1.1631
C11 C 0.6413(2) 0.6135(2) 1.08529(16)
H9 H 0.6142 0.5299 1.0711
H10 H 0.5421 0.6732 1.1238
C12 C 1.1425(2) 0.6986(2) 0.34614(19)
H11 H 1.1981 0.6698 0.4320
H12 H 1.2214 0.6946 0.2614
H13 H 1.0771 0.6246 0.3701
C13 C 0.7255(2) 1.1748(2) 0.13329(17)
H14 H 0.7353 1.0763 0.1239
H15 H 0.7457 1.2555 0.0350
H16 H 0.6172 1.2098 0.1767
C14 C 0.46396(19) 1.27817(19) 0.52013(19)
H17 H 0.3968 1.2035 0.5555
H18 H 0.4012 1.3841 0.4650
H19 H 0.5016 1.2772 0.6051
loop_
_geom_bond_atom_site_label_1
_geom_bond_atom_site_label_2
_geom_bond_site_symmetry_1
_geom_bond_site_symmetry_2
O1 C1 1_555 1_555
O2 C2 1_555 1_555
O3 C3 1_555 1_555
O4 C7 1_555 1_555
O5 C9 1_555 1_555
N1 C7 1_555 1_555
C1 C2 1_555 1_555
C2 C3 1_555 1_555
C3 C4 1_555 1_555
C4 H1 1_555 1_555
C5 C4 1_555 1_555
C6 C1 1_555 1_555
H2 C6 1_555 1_555
C7 C5 1_555 1_555
C8 N1 1_555 1_555
H3 C8 1_555 1_555
H4 C8 1_555 1_555
C9 C8 1_555 1_555
H5 C9 1_555 1_555
H6 C9 1_555 1_555
C10 O5 1_555 1_555
H7 C10 1_555 1_555
H8 C10 1_555 1_555
C11 N1 1_555 1_555
H9 C11 1_555 1_555
H10 C11 1_555 1_555
C12 O1 1_555 1_555
H11 C12 1_555 1_555
H12 C12 1_555 1_555
H13 C12 1_555 1_555
C13 O2 1_555 1_555
H14 C13 1_555 1_555
H15 C13 1_555 1_555
H16 C13 1_555 1_555
C14 O3 1_555 1_555
H17 C14 1_555 1_555
H18 C14 1_555 1_555
H19 C14 1_555 1_555
C5 C6 1_555 1_555
C10 C11 1_555 1_555

#END
