
#######################################################################
#
#                 Cambridge Crystallographic Data Centre
#                                CCDC 
#
#######################################################################
#
# If this CIF has been generated from an entry in the Cambridge 
# Structural Database, then it will include bibliographic, chemical, 
# crystal, experimental, refinement or atomic coordinate data resulting 
# from the CCDC's data processing and validation procedures.
#
#######################################################################

data_TUJZIJ
_chemical_formula_moiety         'C11 H25 N5 O2,O4 S1 2-,2(C16 H36 N1 1+)'
_chemical_name_systematic        
"bis(tetra-n-butylammonium) 1,1'-((methylimino)diethane-2,1-diyl)bis(3-ethylurea) sulfate"
_symmetry_cell_setting           monoclinic
_symmetry_space_group_name_H-M   'P 21'
_symmetry_Int_Tables_number      4
_space_group_name_Hall           'P 2yb'
loop_
_symmetry_equiv_pos_site_id
_symmetry_equiv_pos_as_xyz
1 x,y,z
2 -x,1/2+y,-z
_cell_length_a                   9.1475(3)
_cell_length_b                   22.3413(7)
_cell_length_c                   12.6753(4)
_cell_angle_alpha                90
_cell_angle_beta                 100.5590(10)
_cell_angle_gamma                90
_cell_volume                     2546.55
_exptl_crystal_colour            colorless
_exptl_crystal_description       irregular
_cell_formula_units_Z            2
loop_
_atom_site_label
_atom_site_type_symbol
_atom_site_fract_x
_atom_site_fract_y
_atom_site_fract_z
S1 S 0.09713(5) 0.75449(2) 0.28697(3)
O1 O 0.15837(16) 0.70203(6) 0.23916(11)
O2 O 0.04204(18) 0.79842(6) 0.20017(11)
O3 O -0.02746(17) 0.73653(7) 0.33859(13)
O4 O 0.21480(17) 0.78343(7) 0.36591(12)
O5 O 0.03684(19) 0.72486(8) -0.15792(12)
O6 O 0.0001(2) 0.48848(7) -0.37977(13)
N1 N 0.1693(2) 0.54305(8) -0.06900(15)
C1 C 0.1005(2) 0.59780(10) -0.03738(18)
H1 H 0.0577 0.5897 0.0275
H2 H 0.0184 0.6099 -0.0956
C2 C 0.2128(2) 0.64900(10) -0.01413(17)
H3 H 0.2937 0.6369 0.0450
H4 H 0.2574 0.6561 -0.0785
N2 N 0.1481(2) 0.70437(9) 0.01501(14)
H5 H 0.1665 0.7166 0.0821
C3 C 0.0587(2) 0.73775(10) -0.06119(17)
N3 N -0.0012(2) 0.78691(9) -0.02325(14)
H6 H 0.0271 0.7973 0.0444
C4 C -0.1114(3) 0.82276(12) -0.09257(19)
H7 H -0.1740 0.8434 -0.0479
H8 H -0.1767 0.7958 -0.1423
C5 C -0.0470(4) 0.86856(15) -0.1569(3)
H9 H -0.1276 0.8896 -0.2041
H10 H 0.0170 0.8487 -0.2005
H11 H 0.0120 0.8974 -0.1085
C6 C 0.0564(2) 0.50220(10) -0.12608(17)
H12 H -0.0105 0.5248 -0.1825
H13 H -0.0043 0.4866 -0.0751
C7 C 0.1234(3) 0.44973(10) -0.17755(19)
H14 H 0.1999 0.4649 -0.2168
H15 H 0.1728 0.4223 -0.1206
N4 N 0.0120(2) 0.41699(8) -0.25088(15)
H16 H -0.0233 0.3831 -0.2306
C8 C -0.0380(3) 0.43861(10) -0.35130(17)
N5 N -0.1356(3) 0.40301(9) -0.41648(16)
H17 H -0.1621 0.3686 -0.3921
C9 C -0.1968(3) 0.42066(12) -0.5252(2)
H18 H -0.2247 0.4635 -0.5263
H19 H -0.2880 0.3972 -0.5514
C10 C -0.0869(3) 0.41087(13) -0.5992(2)
H20 H -0.1335 0.4213 -0.6728
H21 H -0.0564 0.3688 -0.5964
H22 H 0.0006 0.4362 -0.5764
C11 C 0.2576(4) 0.51347(13) 0.0246(2)
H23 H 0.3289 0.5421 0.0638
H24 H 0.3116 0.4796 0.0008
H25 H 0.1916 0.4989 0.0717
N6 N 0.43353(19) 0.27911(8) -0.21985(13)
C12 C 0.3361(2) 0.32018(9) -0.29918(17)
H26 H 0.2515 0.2965 -0.3379
H27 H 0.2948 0.3517 -0.2582
C13 C 0.4136(2) 0.35025(9) -0.38144(17)
H28 H 0.4632 0.3197 -0.4192
H29 H 0.4902 0.3784 -0.3451
C14 C 0.2976(3) 0.38425(10) -0.46218(18)
H30 H 0.2182 0.3562 -0.4946
H31 H 0.2517 0.4157 -0.4240
C15 C 0.3659(3) 0.41301(11) -0.55097(19)
H32 H 0.2888 0.4348 -0.6000
H33 H 0.4082 0.3818 -0.5907
H34 H 0.4445 0.4409 -0.5192
C16 C 0.4891(2) 0.22608(9) -0.27698(16)
H35 H 0.5433 0.2414 -0.3322
H36 H 0.5606 0.2030 -0.2243
C17 C 0.3670(2) 0.18404(10) -0.33049(17)
H37 H 0.2994 0.2058 -0.3877
H38 H 0.3081 0.1703 -0.2769
C18 C 0.4320(2) 0.13005(10) -0.37877(17)
H39 H 0.3497 0.1067 -0.4213
H40 H 0.4960 0.1444 -0.4287
C19 C 0.5232(3) 0.08875(11) -0.2964(2)
H41 H 0.5501 0.0526 -0.3323
H42 H 0.4643 0.0776 -0.2422
H43 H 0.6137 0.1095 -0.2617
C20 C 0.5723(2) 0.31137(9) -0.16267(17)
H44 H 0.6279 0.2839 -0.1084
H45 H 0.6365 0.3199 -0.2158
C21 C 0.5459(2) 0.36969(10) -0.10710(17)
H46 H 0.4860 0.3619 -0.0510
H47 H 0.4901 0.3979 -0.1599
C22 C 0.6953(3) 0.39746(10) -0.05619(19)
H48 H 0.7517 0.3686 -0.0051
H49 H 0.7541 0.4056 -0.1129
C23 C 0.6755(3) 0.45560(11) 0.0028(2)
H50 H 0.7733 0.4725 0.0323
H51 H 0.6215 0.4474 0.0612
H52 H 0.6190 0.4842 -0.0474
C24 C 0.3358(2) 0.25809(10) -0.14115(16)
H53 H 0.3140 0.2929 -0.0982
H54 H 0.2401 0.2436 -0.1828
C25 C 0.4032(2) 0.20865(10) -0.06461(17)
H55 H 0.4925 0.2241 -0.0161
H56 H 0.4344 0.1750 -0.1062
C26 C 0.2909(3) 0.18639(11) 0.00163(19)
H57 H 0.2693 0.2190 0.0495
H58 H 0.1970 0.1760 -0.0472
C27 C 0.3467(3) 0.13214(12) 0.0688(2)
H59 H 0.2742 0.1211 0.1136
H60 H 0.4421 0.1416 0.1149
H61 H 0.3599 0.0986 0.0215
C28 C -0.2999(3) 0.74051(12) 0.6271(2)
H62 H -0.3866 0.7335 0.6607
H63 H -0.3331 0.7498 0.5509
H64 H -0.2422 0.7742 0.6625
C29 C -0.2039(2) 0.68497(10) 0.63786(17)
H65 H -0.2617 0.6515 0.5996
H66 H -0.1774 0.6740 0.7146
N7 N 0.18162(19) 0.63614(7) 0.58086(13)
C30 C 0.2601(2) 0.69626(9) 0.59135(16)
H67 H 0.1935 0.7263 0.5499
H68 H 0.3499 0.6932 0.5583
C31 C 0.3066(2) 0.71898(9) 0.70551(17)
H69 H 0.3971 0.6976 0.7410
H70 H 0.2264 0.7110 0.7466
C32 C 0.3377(3) 0.78627(10) 0.70470(19)
H71 H 0.4069 0.7945 0.6549
H72 H 0.2436 0.8078 0.6778
C33 C 0.4048(3) 0.80981(12) 0.8155(2)
H73 H 0.4196 0.8532 0.8118
H74 H 0.5006 0.7902 0.8408
H75 H 0.3373 0.8012 0.8654
C34 C 0.2724(2) 0.58805(9) 0.64754(16)
H76 H 0.2821 0.5991 0.7241
H77 H 0.2156 0.5501 0.6370
C35 C 0.4267(2) 0.57640(9) 0.62464(17)
H78 H 0.4878 0.6131 0.6381
H79 H 0.4204 0.5648 0.5486
C36 C 0.4983(2) 0.52590(10) 0.69806(17)
H80 H 0.4936 0.5361 0.7734
H81 H 0.4408 0.4886 0.6796
C37 C 0.6597(3) 0.51498(12) 0.6886(2)
H82 H 0.6990 0.4811 0.7342
H83 H 0.7186 0.5509 0.7117
H84 H 0.6654 0.5060 0.6138
C38 C 0.1514(2) 0.62194(9) 0.46069(16)
H85 H 0.0733 0.6495 0.4247
H86 H 0.2430 0.6305 0.4322
C39 C 0.1029(3) 0.55811(10) 0.42985(17)
H87 H 0.0146 0.5478 0.4611
H88 H 0.1838 0.5300 0.4591
C40 C 0.0653(3) 0.55188(10) 0.30729(17)
H89 H 0.1451 0.5709 0.2758
H90 H 0.0631 0.5089 0.2884
C41 C -0.0826(3) 0.57991(11) 0.25787(19)
H91 H -0.1046 0.5712 0.1808
H92 H -0.0774 0.6233 0.2688
H93 H -0.1614 0.5633 0.2921
C42 C 0.0365(2) 0.63881(9) 0.62376(16)
H94 H -0.0225 0.6027 0.5986
H95 H 0.0609 0.6368 0.7031
C43 C -0.0608(2) 0.69340(10) 0.59273(16)
H96 H -0.0846 0.6974 0.5137
H97 H -0.0083 0.7301 0.6229
loop_
_geom_bond_atom_site_label_1
_geom_bond_atom_site_label_2
_geom_bond_site_symmetry_1
_geom_bond_site_symmetry_2
S1 O1 1_555 1_555
O2 S1 1_555 1_555
O3 S1 1_555 1_555
O4 S1 1_555 1_555
O5 C3 1_555 1_555
O6 C8 1_555 1_555
N1 C1 1_555 1_555
C1 H1 1_555 1_555
H2 C1 1_555 1_555
C2 C1 1_555 1_555
H3 C2 1_555 1_555
H4 C2 1_555 1_555
N2 C2 1_555 1_555
H5 N2 1_555 1_555
C3 N2 1_555 1_555
N3 C3 1_555 1_555
H6 N3 1_555 1_555
C4 N3 1_555 1_555
H7 C4 1_555 1_555
H8 C4 1_555 1_555
C5 C4 1_555 1_555
H9 C5 1_555 1_555
H10 C5 1_555 1_555
H11 C5 1_555 1_555
C6 N1 1_555 1_555
H12 C6 1_555 1_555
H13 C6 1_555 1_555
C7 C6 1_555 1_555
H14 C7 1_555 1_555
H15 C7 1_555 1_555
N4 C7 1_555 1_555
H16 N4 1_555 1_555
C8 N4 1_555 1_555
N5 C8 1_555 1_555
H17 N5 1_555 1_555
C9 N5 1_555 1_555
H18 C9 1_555 1_555
H19 C9 1_555 1_555
C10 C9 1_555 1_555
H20 C10 1_555 1_555
H21 C10 1_555 1_555
H22 C10 1_555 1_555
C11 N1 1_555 1_555
H23 C11 1_555 1_555
H24 C11 1_555 1_555
H25 C11 1_555 1_555
N6 C12 1_555 1_555
C12 H26 1_555 1_555
H27 C12 1_555 1_555
C13 C12 1_555 1_555
H28 C13 1_555 1_555
H29 C13 1_555 1_555
C14 C13 1_555 1_555
H30 C14 1_555 1_555
H31 C14 1_555 1_555
C15 C14 1_555 1_555
H32 C15 1_555 1_555
H33 C15 1_555 1_555
H34 C15 1_555 1_555
C16 N6 1_555 1_555
H35 C16 1_555 1_555
H36 C16 1_555 1_555
C17 C16 1_555 1_555
H37 C17 1_555 1_555
H38 C17 1_555 1_555
C18 C17 1_555 1_555
H39 C18 1_555 1_555
H40 C18 1_555 1_555
C19 C18 1_555 1_555
H41 C19 1_555 1_555
H42 C19 1_555 1_555
H43 C19 1_555 1_555
C20 N6 1_555 1_555
H44 C20 1_555 1_555
H45 C20 1_555 1_555
C21 C20 1_555 1_555
H46 C21 1_555 1_555
H47 C21 1_555 1_555
C22 C21 1_555 1_555
H48 C22 1_555 1_555
H49 C22 1_555 1_555
C23 C22 1_555 1_555
H50 C23 1_555 1_555
H51 C23 1_555 1_555
H52 C23 1_555 1_555
C24 N6 1_555 1_555
H53 C24 1_555 1_555
H54 C24 1_555 1_555
C25 C24 1_555 1_555
H55 C25 1_555 1_555
H56 C25 1_555 1_555
C26 C25 1_555 1_555
H57 C26 1_555 1_555
H58 C26 1_555 1_555
C27 C26 1_555 1_555
H59 C27 1_555 1_555
H60 C27 1_555 1_555
H61 C27 1_555 1_555
C28 H62 1_555 1_555
H63 C28 1_555 1_555
H64 C28 1_555 1_555
C29 C28 1_555 1_555
H65 C29 1_555 1_555
H66 C29 1_555 1_555
N7 C30 1_555 1_555
C30 H67 1_555 1_555
H68 C30 1_555 1_555
C31 C30 1_555 1_555
H69 C31 1_555 1_555
H70 C31 1_555 1_555
C32 C31 1_555 1_555
H71 C32 1_555 1_555
H72 C32 1_555 1_555
C33 C32 1_555 1_555
H73 C33 1_555 1_555
H74 C33 1_555 1_555
H75 C33 1_555 1_555
C34 N7 1_555 1_555
H76 C34 1_555 1_555
H77 C34 1_555 1_555
C35 C34 1_555 1_555
H78 C35 1_555 1_555
H79 C35 1_555 1_555
C36 C35 1_555 1_555
H80 C36 1_555 1_555
H81 C36 1_555 1_555
C37 C36 1_555 1_555
H82 C37 1_555 1_555
H83 C37 1_555 1_555
H84 C37 1_555 1_555
C38 N7 1_555 1_555
H85 C38 1_555 1_555
H86 C38 1_555 1_555
C39 C38 1_555 1_555
H87 C39 1_555 1_555
H88 C39 1_555 1_555
C40 C39 1_555 1_555
H89 C40 1_555 1_555
H90 C40 1_555 1_555
C41 C40 1_555 1_555
H91 C41 1_555 1_555
H92 C41 1_555 1_555
H93 C41 1_555 1_555
C42 N7 1_555 1_555
H94 C42 1_555 1_555
H95 C42 1_555 1_555
C43 C29 1_555 1_555
H96 C43 1_555 1_555
H97 C43 1_555 1_555
C42 C43 1_555 1_555

#END
