
#######################################################################
#
#                 Cambridge Crystallographic Data Centre
#                                CCDC 
#
#######################################################################
#
# If this CIF has been generated from an entry in the Cambridge 
# Structural Database, then it will include bibliographic, chemical, 
# crystal, experimental, refinement or atomic coordinate data resulting 
# from the CCDC's data processing and validation procedures.
#
#######################################################################

data_TUKCIN
_chemical_formula_moiety         'C28 H31 N3'
_chemical_name_systematic        
N,1-dicyclohexyl-3-phenylpyrrolo[2,3-b]indol-2(1H)-imine
_symmetry_cell_setting           monoclinic
_symmetry_space_group_name_H-M   'C 2/c'
_symmetry_Int_Tables_number      15
_space_group_name_Hall           '-C 2yn'
loop_
_symmetry_equiv_pos_site_id
_symmetry_equiv_pos_as_xyz
1 x,y,z
2 -x,y,1/2-z
3 1/2+x,1/2+y,z
4 1/2-x,1/2+y,1/2-z
5 -x,-y,-z
6 x,-y,1/2+z
7 1/2-x,1/2-y,-z
8 1/2+x,1/2-y,1/2+z
_cell_length_a                   31.282(3)
_cell_length_b                   8.8017(7)
_cell_length_c                   19.4725(19)
_cell_angle_alpha                90
_cell_angle_beta                 121.270(3)
_cell_angle_gamma                90
_cell_volume                     4582.6
_exptl_crystal_colour            red
_exptl_crystal_description       block
_cell_formula_units_Z            8
loop_
_atom_site_label
_atom_site_type_symbol
_atom_site_fract_x
_atom_site_fract_y
_atom_site_fract_z
N1 N 0.11588(10) 0.3468(2) 0.08028(16)
N2 N 0.07391(10) 0.4362(3) 0.14936(16)
N3 N 0.15229(11) 0.3627(3) 0.00317(16)
C1 C 0.12352(13) 0.4229(3) 0.02242(19)
C2 C 0.09385(11) 0.5683(3) 0.00056(18)
C3 C 0.07239(11) 0.5726(3) 0.04502(18)
C4 C 0.08784(12) 0.4393(3) 0.09736(19)
C5 C 0.04337(11) 0.6601(3) 0.06967(18)
C6 C 0.04665(12) 0.5755(3) 0.13392(19)
C7 C 0.02458(13) 0.6291(4) 0.1742(2)
H1 H 0.0272 0.5755 0.2174
C8 C -0.00160(14) 0.7642(4) 0.1495(2)
H2 H -0.0168 0.8012 0.1764
C9 C -0.00566(14) 0.8452(4) 0.0860(2)
H3 H -0.0237 0.9354 0.0702
C10 C 0.01702(12) 0.7933(3) 0.0453(2)
H4 H 0.0144 0.8478 0.0023
C11 C 0.14656(13) 0.2201(3) 0.1297(2)
H5 H 0.1613 0.1710 0.1016
C12 C 0.11577(15) 0.1031(3) 0.1416(2)
H6 H 0.0911 0.0607 0.0900
H7 H 0.0982 0.1516 0.1646
C13 C 0.14846(17) -0.0241(4) 0.1969(2)
H8 H 0.1279 -0.0938 0.2060
H9 H 0.1628 -0.0801 0.1708
C14 C 0.18977(15) 0.0344(4) 0.2762(2)
H10 H 0.2111 -0.0494 0.3078
H11 H 0.1756 0.0793 0.3055
C15 C 0.22062(14) 0.1514(4) 0.2647(2)
H12 H 0.2385 0.1026 0.2424
H13 H 0.2451 0.1935 0.3165
C16 C 0.18905(13) 0.2782(3) 0.2098(2)
H14 H 0.2100 0.3454 0.2004
H15 H 0.1752 0.3367 0.2360
C17 C 0.16565(13) 0.4353(3) -0.05028(19)
H16 H 0.1423 0.5189 -0.0785
C18 C 0.21746(16) 0.4988(4) -0.0013(2)
H17 H 0.2403 0.4184 0.0311
H18 H 0.2181 0.5759 0.0348
C19 C 0.23506(17) 0.5684(4) -0.0541(3)
H19 H 0.2146 0.6562 -0.0820
H20 H 0.2694 0.6024 -0.0207
C20 C 0.23173(17) 0.4558(4) -0.1140(3)
H21 H 0.2549 0.3732 -0.0862
H22 H 0.2412 0.5042 -0.1489
C21 C 0.1795(2) 0.3934(4) -0.1637(2)
H23 H 0.1787 0.3170 -0.2002
H24 H 0.1569 0.4745 -0.1956
C22 C 0.16195(16) 0.3232(3) -0.1112(2)
H25 H 0.1275 0.2900 -0.1447
H26 H 0.1823 0.2348 -0.0838
C23 C 0.09113(11) 0.6898(3) -0.05455(18)
C24 C 0.11390(15) 0.8260(3) -0.0235(2)
H27 H 0.1303 0.8414 0.0317
C25 C 0.11319(17) 0.9403(4) -0.0717(3)
H28 H 0.1290 1.0320 -0.0490
C26 C 0.08963(15) 0.9208(4) -0.1519(3)
H29 H 0.0891 0.9988 -0.1846
C27 C 0.06667(15) 0.7867(5) -0.1849(2)
H30 H 0.0507 0.7721 -0.2401
C28 C 0.06706(15) 0.6731(4) -0.1368(2)
H31 H 0.0507 0.5824 -0.1600
loop_
_geom_bond_atom_site_label_1
_geom_bond_atom_site_label_2
_geom_bond_site_symmetry_1
_geom_bond_site_symmetry_2
N1 C1 1_555 1_555
N2 C4 1_555 1_555
N3 C1 1_555 1_555
C1 C2 1_555 1_555
C2 C3 1_555 1_555
C3 C4 1_555 1_555
C4 N1 1_555 1_555
C5 C3 1_555 1_555
C6 N2 1_555 1_555
C7 C6 1_555 1_555
H1 C7 1_555 1_555
C8 C7 1_555 1_555
H2 C8 1_555 1_555
C9 C8 1_555 1_555
H3 C9 1_555 1_555
C10 C5 1_555 1_555
H4 C10 1_555 1_555
C11 N1 1_555 1_555
H5 C11 1_555 1_555
C12 C11 1_555 1_555
H6 C12 1_555 1_555
H7 C12 1_555 1_555
C13 C12 1_555 1_555
H8 C13 1_555 1_555
H9 C13 1_555 1_555
C14 C13 1_555 1_555
H10 C14 1_555 1_555
H11 C14 1_555 1_555
C15 C14 1_555 1_555
H12 C15 1_555 1_555
H13 C15 1_555 1_555
C16 C11 1_555 1_555
H14 C16 1_555 1_555
H15 C16 1_555 1_555
C17 N3 1_555 1_555
H16 C17 1_555 1_555
C18 C17 1_555 1_555
H17 C18 1_555 1_555
H18 C18 1_555 1_555
C19 C18 1_555 1_555
H19 C19 1_555 1_555
H20 C19 1_555 1_555
C20 C19 1_555 1_555
H21 C20 1_555 1_555
H22 C20 1_555 1_555
C21 C20 1_555 1_555
H23 C21 1_555 1_555
H24 C21 1_555 1_555
C22 C17 1_555 1_555
H25 C22 1_555 1_555
H26 C22 1_555 1_555
C23 C2 1_555 1_555
C24 C23 1_555 1_555
H27 C24 1_555 1_555
C25 C24 1_555 1_555
H28 C25 1_555 1_555
C26 C25 1_555 1_555
H29 C26 1_555 1_555
C27 C26 1_555 1_555
H30 C27 1_555 1_555
C28 C23 1_555 1_555
H31 C28 1_555 1_555
C5 C6 1_555 1_555
C9 C10 1_555 1_555
C15 C16 1_555 1_555
C21 C22 1_555 1_555
C27 C28 1_555 1_555

#END
