
#######################################################################
#
#                 Cambridge Crystallographic Data Centre
#                                CCDC 
#
#######################################################################
#
# If this CIF has been generated from an entry in the Cambridge 
# Structural Database, then it will include bibliographic, chemical, 
# crystal, experimental, refinement or atomic coordinate data resulting 
# from the CCDC's data processing and validation procedures.
#
#######################################################################

data_TUKMAO
_chemical_formula_moiety         'C17 H19 N1 O4'
_chemical_name_systematic        
2-((2,3,4-Trimethoxy-6-methylbenzylidene)amino)phenol
_symmetry_cell_setting           monoclinic
_symmetry_space_group_name_H-M   'P 21/c'
_symmetry_Int_Tables_number      14
_space_group_name_Hall           '-P 2ybc'
loop_
_symmetry_equiv_pos_site_id
_symmetry_equiv_pos_as_xyz
1 x,y,z
2 -x,1/2+y,1/2-z
3 -x,-y,-z
4 x,1/2-y,1/2+z
_cell_length_a                   10.4458(14)
_cell_length_b                   8.3870(10)
_cell_length_c                   17.780(2)
_cell_angle_alpha                90
_cell_angle_beta                 91.102(2)
_cell_angle_gamma                90
_cell_volume                     1557.4
_cell_formula_units_Z            4
loop_
_atom_site_label
_atom_site_type_symbol
_atom_site_fract_x
_atom_site_fract_y
_atom_site_fract_z
N1 N 0.3117(2) 0.1840(3) 0.43664(12)
O1 O 0.68215(17) 0.2701(3) 0.43245(10)
O2 O 0.82740(16) 0.4210(2) 0.54367(10)
O3 O 0.71928(18) 0.4992(2) 0.67400(10)
O4 O 0.07396(18) 0.2664(3) 0.38685(13)
H1 H 0.1190 0.2999 0.4217
C1 C 0.4309(3) 0.2018(3) 0.44499(14)
H2 H 0.4818 0.1621 0.4070
C2 C 0.4970(2) 0.2782(3) 0.50799(13)
C3 C 0.6298(2) 0.3071(3) 0.50033(13)
C4 C 0.7014(2) 0.3790(3) 0.55621(14)
C5 C 0.6422(2) 0.4255(3) 0.62216(14)
C6 C 0.5129(2) 0.3979(3) 0.63058(14)
H3 H 0.4744 0.4281 0.6751
C7 C 0.4391(2) 0.3267(3) 0.57475(14)
C8 C 0.7815(3) 0.1607(5) 0.43174(19)
H4 H 0.8601 0.2128 0.4461
H5 H 0.7888 0.1173 0.3821
H6 H 0.7643 0.0764 0.4666
C9 C 0.9230(3) 0.3364(4) 0.58699(18)
H7 H 1.0065 0.3646 0.5698
H8 H 0.9102 0.2237 0.5810
H9 H 0.9162 0.3642 0.6391
C10 C 0.6627(3) 0.5637(4) 0.73913(16)
H10 H 0.5985 0.6401 0.7245
H11 H 0.7274 0.6150 0.7696
H12 H 0.6240 0.4795 0.7674
C11 C 0.2976(2) 0.3089(4) 0.58787(15)
H13 H 0.2791 0.3407 0.6384
H14 H 0.2731 0.1996 0.5805
H15 H 0.2506 0.3752 0.5530
C12 C 0.2605(2) 0.1041(3) 0.37302(14)
C13 C 0.1373(3) 0.1490(4) 0.35011(16)
C14 C 0.0780(3) 0.0760(4) 0.28954(18)
H16 H -0.0049 0.1052 0.2753
C15 C 0.1407(3) -0.0395(4) 0.25017(17)
H17 H 0.1012 -0.0865 0.2084
C16 C 0.2615(3) -0.0862(4) 0.27205(17)
H18 H 0.3033 -0.1657 0.2456
C17 C 0.3211(3) -0.0153(3) 0.33337(16)
H19 H 0.4028 -0.0480 0.3482
H20? H 0.8821 0.2703 0.6235
H21? H 0.9784 0.4113 0.6123
H22? H 0.9725 0.2708 0.5542
loop_
_geom_bond_atom_site_label_1
_geom_bond_atom_site_label_2
_geom_bond_site_symmetry_1
_geom_bond_site_symmetry_2
N1 C1 1_555 1_555
O1 C3 1_555 1_555
O2 C4 1_555 1_555
O3 C5 1_555 1_555
O4 H1 1_555 1_555
C1 H2 1_555 1_555
C2 C1 1_555 1_555
C3 C2 1_555 1_555
C4 C3 1_555 1_555
C5 C4 1_555 1_555
C6 C5 1_555 1_555
H3 C6 1_555 1_555
C7 C2 1_555 1_555
C8 O1 1_555 1_555
H4 C8 1_555 1_555
H5 C8 1_555 1_555
H6 C8 1_555 1_555
C9 O2 1_555 1_555
H7 C9 1_555 1_555
H8 C9 1_555 1_555
H9 C9 1_555 1_555
C10 O3 1_555 1_555
H10 C10 1_555 1_555
H11 C10 1_555 1_555
H12 C10 1_555 1_555
C11 C7 1_555 1_555
H13 C11 1_555 1_555
H14 C11 1_555 1_555
H15 C11 1_555 1_555
C12 N1 1_555 1_555
C13 O4 1_555 1_555
C14 C13 1_555 1_555
H16 C14 1_555 1_555
C15 C14 1_555 1_555
H17 C15 1_555 1_555
C16 C15 1_555 1_555
H18 C16 1_555 1_555
C17 C12 1_555 1_555
H19 C17 1_555 1_555
C6 C7 1_555 1_555
C12 C13 1_555 1_555
C16 C17 1_555 1_555

#END
