
#######################################################################
#
#                 Cambridge Crystallographic Data Centre
#                                CCDC 
#
#######################################################################
#
# If this CIF has been generated from an entry in the Cambridge 
# Structural Database, then it will include bibliographic, chemical, 
# crystal, experimental, refinement or atomic coordinate data resulting 
# from the CCDC's data processing and validation procedures.
#
#######################################################################

data_TUKSUP
_chemical_formula_moiety         'C22 H17 N1 O3'
_chemical_name_systematic        
'methyl 5-methyl-6-oxo-10-phenyl-5,6-dihydrophenanthridine-7-carboxylate'
_symmetry_cell_setting           triclinic
_symmetry_space_group_name_H-M   'P -1'
_symmetry_Int_Tables_number      2
_space_group_name_Hall           '-P 1'
loop_
_symmetry_equiv_pos_site_id
_symmetry_equiv_pos_as_xyz
1 x,y,z
2 -x,-y,-z
_cell_length_a                   7.5083(4)
_cell_length_b                   8.3474(4)
_cell_length_c                   13.8763(7)
_cell_angle_alpha                85.855(3)
_cell_angle_beta                 78.471(3)
_cell_angle_gamma                81.450(3)
_cell_volume                     841.863
_exptl_crystal_description       block
_cell_formula_units_Z            2
loop_
_atom_site_label
_atom_site_type_symbol
_atom_site_fract_x
_atom_site_fract_y
_atom_site_fract_z
N1 N 0.21360(16) -0.13901(14) 0.40100(9)
O1 O 0.12654(16) -0.25522(13) 0.27858(8)
O2 O 0.21072(15) -0.23977(13) 0.05908(8)
O3 O -0.06189(16) -0.09951(15) 0.12119(10)
C1 C 0.1762(2) -0.28182(19) 0.46579(13)
H1 H 0.0635 -0.2561 0.5119
H2 H 0.2748 -0.3133 0.5008
H3 H 0.1659 -0.3695 0.4270
C2 C 0.18481(19) -0.14073(17) 0.30688(11)
C3 C 0.23813(18) -0.00375(17) 0.23909(10)
C4 C 0.32592(18) 0.11666(16) 0.26876(10)
C5 C 0.31613(18) 0.12725(17) 0.37496(10)
C6 C 0.3453(2) 0.26568(17) 0.41824(11)
H4 H 0.3766 0.3552 0.3780
C7 C 0.3289(2) 0.27264(19) 0.51828(11)
H5 H 0.3490 0.3660 0.5449
C8 C 0.2826(2) 0.1410(2) 0.57946(11)
H6 H 0.2754 0.1443 0.6470
C9 C 0.2473(2) 0.00508(18) 0.54012(11)
H7 H 0.2149 -0.0829 0.5815
C10 C 0.25950(18) -0.00247(17) 0.43897(10)
C11 C 0.2133(2) -0.00603(18) 0.14178(11)
C12 C 0.2858(2) 0.1059(2) 0.07225(11)
H8 H 0.2662 0.1082 0.0080
C13 C 0.3877(2) 0.2147(2) 0.09904(11)
H9 H 0.4415 0.2855 0.0509
C14 C 0.41265(19) 0.22189(17) 0.19469(10)
C15 C 0.1023(2) -0.12041(19) 0.10984(11)
C16 C 0.1193(3) -0.3546(2) 0.02163(13)
H10 H 0.0388 -0.4020 0.0751
H11 H 0.2089 -0.4382 -0.0103
H12 H 0.0493 -0.3001 -0.0249
C17 C 0.5431(2) 0.33058(17) 0.21206(10)
C18 C 0.5069(2) 0.49787(19) 0.19831(12)
H13 H 0.3984 0.5447 0.1790
C19 C 0.6326(3) 0.5952(2) 0.21333(13)
H14 H 0.6074 0.7071 0.2044
C20 C 0.7940(3) 0.5279(2) 0.24125(12)
H15 H 0.8766 0.5939 0.2525
C21 C 0.8325(2) 0.3618(2) 0.25252(12)
H16 H 0.9427 0.3156 0.2702
C22 C 0.7087(2) 0.26332(19) 0.23772(11)
H17 H 0.7364 0.1513 0.2450
loop_
_geom_bond_atom_site_label_1
_geom_bond_atom_site_label_2
_geom_bond_site_symmetry_1
_geom_bond_site_symmetry_2
N1 C1 1_555 1_555
O1 C2 1_555 1_555
O2 C15 1_555 1_555
O3 C15 1_555 1_555
C1 H1 1_555 1_555
H2 C1 1_555 1_555
H3 C1 1_555 1_555
C2 N1 1_555 1_555
C3 C2 1_555 1_555
C4 C3 1_555 1_555
C5 C4 1_555 1_555
C6 C5 1_555 1_555
H4 C6 1_555 1_555
C7 C6 1_555 1_555
H5 C7 1_555 1_555
C8 C7 1_555 1_555
H6 C8 1_555 1_555
C9 C8 1_555 1_555
H7 C9 1_555 1_555
C10 N1 1_555 1_555
C11 C3 1_555 1_555
C12 C11 1_555 1_555
H8 C12 1_555 1_555
C13 C12 1_555 1_555
H9 C13 1_555 1_555
C14 C4 1_555 1_555
C15 C11 1_555 1_555
C16 O2 1_555 1_555
H10 C16 1_555 1_555
H11 C16 1_555 1_555
H12 C16 1_555 1_555
C17 C14 1_555 1_555
C18 C17 1_555 1_555
H13 C18 1_555 1_555
C19 C18 1_555 1_555
H14 C19 1_555 1_555
C20 C19 1_555 1_555
H15 C20 1_555 1_555
C21 C20 1_555 1_555
H16 C21 1_555 1_555
C22 C17 1_555 1_555
H17 C22 1_555 1_555
C5 C10 1_555 1_555
C9 C10 1_555 1_555
C13 C14 1_555 1_555
C21 C22 1_555 1_555

#END
