
#######################################################################
#
#                 Cambridge Crystallographic Data Centre
#                                CCDC 
#
#######################################################################
#
# If this CIF has been generated from an entry in the Cambridge 
# Structural Database, then it will include bibliographic, chemical, 
# crystal, experimental, refinement or atomic coordinate data resulting 
# from the CCDC's data processing and validation procedures.
#
#######################################################################

data_TUKTUP
_chemical_formula_moiety         'C20 H44 N1 1+,Br1 1-,0.6(C1 H4),38.2(H2 O1)'
_chemical_name_systematic        
'Tetra-iso-amylammonium bromide semi-clathrate methane hydrate'
_symmetry_cell_setting           orthorhombic
_symmetry_space_group_name_H-M   'P m m a'
_symmetry_Int_Tables_number      51
_space_group_name_Hall           '-P 2a 2a'
loop_
_symmetry_equiv_pos_site_id
_symmetry_equiv_pos_as_xyz
1 x,y,z
2 1/2-x,-y,z
3 -x,y,-z
4 1/2+x,-y,-z
5 -x,-y,-z
6 1/2+x,y,-z
7 x,-y,z
8 1/2-x,y,z
_cell_length_a                   21.374(4)
_cell_length_b                   12.753(2)
_cell_length_c                   11.904(2)
_cell_angle_alpha                90
_cell_angle_beta                 90
_cell_angle_gamma                90
_cell_volume                     3244.82
_exptl_crystal_colour            colorless
_exptl_crystal_description       prism
_chemical_melting_point          '303.3 K'
_cell_formula_units_Z            2
loop_
_atom_site_label
_atom_site_type_symbol
_atom_site_fract_x
_atom_site_fract_y
_atom_site_fract_z
N1 N 0.2500 0.0000 -0.0070(12)
C1 C 0.1957(2) -0.0386(4) -0.0784(4)
C2 C 0.1708(2) 0.0380(4) -0.1642(4)
C3 C 0.10536(17) 0.0000 -0.2059(3)
C4 C 0.1067(4) -0.1032(6) -0.2664(7)
C5 C 0.0791(3) 0.0873(6) -0.2837(6)
C6 C 0.2273(2) 0.0891(4) 0.0658(4)
C7 C 0.2730(2) 0.1293(4) 0.1550(4)
C8 C 0.2500 0.2331(3) 0.2059(3)
C9 C 0.1873(3) 0.2238(7) 0.2647(6)
C10 C 0.2995(3) 0.2728(6) 0.2888(5)
C1F C 0.1957(2) 0.0386(4) -0.0784(4)
C1A C 0.3043(2) 0.0386(4) -0.0784(4)
C1G C 0.3043(2) -0.0386(4) -0.0784(4)
C2G C 0.3292(2) 0.0380(4) -0.1642(4)
C2A C 0.3292(2) -0.0380(4) -0.1642(4)
C2F C 0.1708(2) -0.0380(4) -0.1642(4)
C3A C 0.39464(17) 0.0000 -0.2059(3)
C4G C 0.3933(4) -0.1032(6) -0.2664(7)
C4A C 0.3933(4) 0.1032(6) -0.2664(7)
C4F C 0.1067(4) 0.1032(6) -0.2664(7)
C5A C 0.4209(3) -0.0873(6) -0.2837(6)
C5G C 0.4209(3) 0.0873(6) -0.2837(6)
C5F C 0.0791(3) -0.0873(6) -0.2837(6)
C6G C 0.2727(2) 0.0891(4) 0.0658(4)
C6A C 0.2727(2) -0.0891(4) 0.0658(4)
C6F C 0.2273(2) -0.0891(4) 0.0658(4)
C7F C 0.2730(2) -0.1293(4) 0.1550(4)
C7A C 0.2270(2) -0.1293(4) 0.1550(4)
C7G C 0.2270(2) 0.1293(4) 0.1550(4)
C8A C 0.2500 -0.2331(3) 0.2059(3)
C9F C 0.1873(3) -0.2238(7) 0.2647(6)
C9A C 0.3127(3) -0.2238(7) 0.2647(6)
C9G C 0.3127(3) 0.2238(7) 0.2647(6)
C10A C 0.2005(3) -0.2728(6) 0.2888(5)
C10F C 0.2995(3) -0.2728(6) 0.2888(5)
C10G C 0.2005(3) 0.2728(6) 0.2888(5)
O1 O 0.08405(7) 0.39257(15) 0.75213(12)
H45 H 0.1032(9) 0.3756(19) 0.8120(10)
H47 H 0.0786(13) 0.4586(3) 0.7509(19)
O2 O 0.03640(7) 0.32180(15) 0.25190(12)
H49 H 0.0583(9) 0.3774(10) 0.2519(19)
H50 H 0.0446(11) 0.2860(16) 0.3103(13)
O3 O 0.14107(7) 0.32279(14) 0.55910(13)
H55 H 0.1527(10) 0.3774(14) 0.524(2)
H56 H 0.1221(11) 0.341(2) 0.6189(12)
O4 O 0.05588(7) 0.19849(14) 0.44100(13)
H57 H 0.0727(10) 0.1389(8) 0.430(2)
H59 H 0.0239(7) 0.1916(19) 0.4829(18)
O5 O 0.14050(7) 0.32650(15) 0.94748(13)
H62 H 0.1202(11) 0.2823(14) 0.987(2)
H63 H 0.1502(11) 0.3788(16) 0.988(2)
O6 O 0.05495(7) 0.19978(14) 0.06179(13)
H67 H 0.0230(8) 0.1928(19) 0.020(2)
H68 H 0.0447(14) 0.2319(18) 0.1216(12)
O7 O 0.18375(10) 0.5000 0.44998(19)
H71 H 0.1653(14) 0.5000 0.3868(13)
O8 O 0.11157(10) 0.5000 0.25696(18)
H73 H 0.1352(11) 0.5000 0.3144(15)
H74 H 0.1339(11) 0.5000 0.1979(14)
O9 O 0.18391(10) 0.5000 0.06506(19)
H77 H 0.1691(15) 0.5000 0.1313(11)
O10 O 0.10276(10) 0.0000 0.3828(2)
H78 H 0.1415(5) 0.0000 0.399(4)
H79 H 0.0841(9) 0.0557(8) 0.403(5)
H79F H 0.0841(9) -0.0557(8) 0.403(5)
O11 O 0.07990(12) 0.0000 0.1466(2)
H81 H 0.089(2) 0.0000 0.2160(10)
O12 O 0.2500 0.2234(2) 0.6179(2)
H83 H 0.2178(6) 0.2573(13) 0.597(5)
H83G H 0.2822(6) 0.2573(13) 0.597(5)
O13 O 0.2500 0.2776(2) 0.8417(2)
H84 H 0.2500 0.315(3) 0.782(2)
C21 C 0.0000 0.5000 1.0000
C22 C 0.0000 0.5000 0.5000
O18 O 0.2500 0.5000 0.708(3)
Br1 Br 0.2500 0.0000 0.48597(4)
H1? H 0.2091 -0.1029 -0.1182
H2? H 0.1609 -0.0584 -0.0276
H3? H 0.2001 0.0427 -0.2284
H4? H 0.1670 0.1086 -0.1301
H5? H 0.0771 -0.0068 -0.1394
H6? H 0.1225 -0.1577 -0.2157
H7? H 0.1343 -0.0980 -0.3320
H8? H 0.0643 -0.1215 -0.2911
H9? H 0.0786 0.1541 -0.2431
H10? H 0.0365 0.0692 -0.3068
H11? H 0.1058 0.0938 -0.3504
H12? H 0.1886 0.0663 0.1041
H13? H 0.2162 0.1486 0.0162
H14? H 0.3147 0.1399 0.1207
H15? H 0.2773 0.0762 0.2153
H16? H 0.2459 0.2856 0.1439
H17? H 0.1558 0.1990 0.2112
H18? H 0.1749 0.2926 0.2939
H19? H 0.1908 0.1739 0.3270
H20? H 0.3400 0.2785 0.2504
H21? H 0.3031 0.2235 0.3516
H22? H 0.2872 0.3419 0.3173
Br2? Br 0.2500 0.0000 0.0139(15)
N2? N 0.2500 0.0000 0.509(3)
C11? C 0.2710(16) -0.093(3) 0.441(4)
H23? H 0.2788 -0.1519 0.4933
H24? H 0.3114 -0.0751 0.4054
C12? C 0.2271(15) -0.131(3) 0.350(3)
H25? H 0.2229 -0.0758 0.2924
H26? H 0.1853 -0.1431 0.3834
C13? C 0.2500 -0.233(3) 0.294(3)
H27? H 0.2538 -0.2856 0.3562
C14? C 0.2003(15) -0.275(4) 0.215(4)
H28? H 0.1602 -0.2809 0.2542
H29? H 0.2129 -0.3449 0.1877
H30? H 0.1958 -0.2278 0.1504
C15? C 0.3132(13) -0.229(5) 0.238(5)
H31? H 0.3438 -0.1975 0.2894
H32? H 0.3104 -0.1866 0.1696
H33? H 0.3265 -0.3003 0.2188
C16? C 0.3051(16) 0.040(3) 0.577(3)
H34? H 0.3406 0.0508 0.5244
H35? H 0.2939 0.1094 0.6078
C17? C 0.3273(15) -0.028(3) 0.671(3)
H36? H 0.3274 -0.1020 0.6460
H37? H 0.2972 -0.0223 0.7344
C18? C 0.3927(14) 0.0000 0.714(3)
H38? H 0.4195 0.0021 0.6456
C19? C 0.421(2) -0.086(3) 0.787(5)
H39? H 0.4160 -0.1540 0.7484
H40? H 0.3991 -0.0887 0.8591
H41? H 0.4653 -0.0721 0.7989
C20? C 0.400(2) 0.107(2) 0.767(4)
H42? H 0.3831 0.1605 0.7171
H43? H 0.4447 0.1209 0.7805
H44? H 0.3777 0.1088 0.8392
H46? H 0.1057(9) 0.3742(19) 0.6955(11)
H48? H 0.0488(6) 0.3619(19) 0.7501(19)
H51? H 0.0448(11) 0.2858(16) 0.1937(13)
H52? H -0.0022(3) 0.3379(18) 0.252(2)
H53? H 0.1729(6) 0.2861(15) 0.576(2)
H54? H 0.1166(9) 0.2870(16) 0.518(2)
H58? H 0.0449(11) 0.224(2) 0.3782(10)
H60? H 0.0820(9) 0.2392(16) 0.473(2)
H61? H 0.1736(6) 0.2979(16) 0.9223(19)
H64? H 0.1180(10) 0.347(2) 0.8928(13)
H65? H 0.0694(10) 0.1397(8) 0.078(2)
H66? H 0.0827(8) 0.2348(17) 0.027(2)
H69? H 0.1733(8) 0.44558(4) 0.4867(8)
H70? H 0.2231(3) 0.5000 0.440(3)
H72? H 0.08861(11) 0.44558(4) 0.2578(14)
H75? H 0.1714(8) 0.44558(4) 0.0304(9)
H76? H 0.22364(14) 0.5000 0.068(3)
H80? H 0.0606(15) 0.0554(6) 0.127(3)
H82? H 0.2500 0.1646(14) 0.584(3)
H85? H 0.2158(3) 0.270(6) 0.877(2)
O14? O 0.1080(12) 0.0000 0.109(2)
O15? O 0.0790(16) 0.0000 0.338(3)
O16? O 0.2500 0.227(2) 0.880(2)
O17? O 0.2500 0.268(2) 0.661(2)
loop_
_geom_bond_atom_site_label_1
_geom_bond_atom_site_label_2
_geom_bond_site_symmetry_1
_geom_bond_site_symmetry_2
N1 C1 1_555 1_555
C1 C2 1_555 1_555
C2 C3 1_555 1_555
C3 C4 1_555 1_555
C4 C5F 1_555 1_555
C5 C3 1_555 1_555
C6 N1 1_555 1_555
C7 C6 1_555 1_555
C8 C7 1_555 1_555
C9 C8 1_555 1_555
C10 C8 1_555 1_555
O1 H45 1_555 1_555
H47 O1 1_555 1_555
O2 H49 1_555 1_555
H50 O2 1_555 1_555
O3 H55 1_555 1_555
H56 O3 1_555 1_555
O4 H57 1_555 1_555
H59 O4 1_555 1_555
O5 H62 1_555 1_555
H63 O5 1_555 1_555
O6 H67 1_555 1_555
H68 O6 1_555 1_555
O7 H71 1_555 1_555
O8 H73 1_555 1_555
H74 O8 1_555 1_555
O9 H77 1_555 1_555
O10 H78 1_555 1_555
H79 O10 1_555 1_555
O11 H81 1_555 1_555
O12 H83 1_555 1_555
O13 H84 1_555 1_555
C1F N1 1_555 1_555
C1A N1 1_555 1_555
C1G N1 1_555 1_555
C2G C1A 1_555 1_555
C2A C1A 1_555 1_555
C2F C1 1_555 1_555
C3A C2G 1_555 1_555
C4G C3A 1_555 1_555
C4A C3A 1_555 1_555
C4F C3 1_555 1_555
C5A C3A 1_555 1_555
C5G C3A 1_555 1_555
C5F C3 1_555 1_555
C6G N1 1_555 1_555
C6A N1 1_555 1_555
C6F N1 1_555 1_555
C7F C6A 1_555 1_555
C7A C6A 1_555 1_555
C7G C6 1_555 1_555
C8A C7F 1_555 1_555
C9F C8A 1_555 1_555
C9A C8A 1_555 1_555
C9G C8 1_555 1_555
C10A C8A 1_555 1_555
C10F C8A 1_555 1_555
C10G C8 1_555 1_555
H79F O10 1_555 1_555
H83G O12 1_555 1_555
C1 C1F 1_555 1_555
C2 C1F 1_555 1_555
C2 C2F 1_555 1_555
C3 C2F 1_555 1_555
C5 C4F 1_555 1_555
C6 C6G 1_555 1_555
C7 C6G 1_555 1_555
C7 C7G 1_555 1_555
C8 C7G 1_555 1_555
C9 C10G 1_555 1_555
C10 C9G 1_555 1_555
C1F C2F 1_555 1_555
C1A C1G 1_555 1_555
C1G C2G 1_555 1_555
C1G C2A 1_555 1_555
C2G C2A 1_555 1_555
C2A C3A 1_555 1_555
C4G C5A 1_555 1_555
C4A C5G 1_555 1_555
C6G C7G 1_555 1_555
C6A C6F 1_555 1_555
C6F C7F 1_555 1_555
C6F C7A 1_555 1_555
C7F C7A 1_555 1_555
C7A C8A 1_555 1_555
C9F C10A 1_555 1_555
C9A C10F 1_555 1_555

#END
