
#######################################################################
#
#                 Cambridge Crystallographic Data Centre
#                                CCDC 
#
#######################################################################
#
# If this CIF has been generated from an entry in the Cambridge 
# Structural Database, then it will include bibliographic, chemical, 
# crystal, experimental, refinement or atomic coordinate data resulting 
# from the CCDC's data processing and validation procedures.
#
#######################################################################

data_TUKTAW
_chemical_formula_moiety         'C34 H24 N1 O6 P1,C1 H1 Cl3'
_chemical_name_systematic        
'methyl 6-(4-nitrophenyl)-2-oxo-3-(triphenylphosphoranylidene)-2,3-dihydro-1-benzofuran-5-carboxylate chloroform solvate'
_symmetry_cell_setting           monoclinic
_symmetry_space_group_name_H-M   'P 21/c'
_symmetry_Int_Tables_number      14
_space_group_name_Hall           '-P 2ybc'
loop_
_symmetry_equiv_pos_site_id
_symmetry_equiv_pos_as_xyz
1 x,y,z
2 -x,1/2+y,1/2-z
3 -x,-y,-z
4 x,1/2-y,1/2+z
_cell_length_a                   18.186(2)
_cell_length_b                   10.1882(11)
_cell_length_c                   18.380(2)
_cell_angle_alpha                90
_cell_angle_beta                 110.688(3)
_cell_angle_gamma                90
_cell_volume                     3185.9
_exptl_crystal_colour            yellow
_exptl_crystal_description       Columnar
_cell_formula_units_Z            4
loop_
_atom_site_label
_atom_site_type_symbol
_atom_site_fract_x
_atom_site_fract_y
_atom_site_fract_z
C1 C 0.3984(2) 0.7706(4) 0.1962(2)
C2 C 0.3216(3) 0.7500(5) 0.1447(3)
H1 H 0.2796 0.7418 0.1638
C3 C 0.3072(3) 0.7418(6) 0.0656(3)
H2 H 0.2553 0.7274 0.0302
C4 C 0.3683(3) 0.7545(5) 0.0385(3)
H3 H 0.3580 0.7488 -0.0158
C5 C 0.4434(3) 0.7753(4) 0.0882(2)
H4 H 0.4848 0.7847 0.0683
C6 C 0.4595(2) 0.7828(4) 0.1678(2)
H5 H 0.5119 0.7962 0.2025
C7 C 0.5163(2) 0.7596(4) 0.3531(2)
C8 C 0.5463(3) 0.6463(4) 0.3951(3)
H6 H 0.5117 0.5775 0.3970
C9 C 0.6261(3) 0.6334(5) 0.4341(3)
H7 H 0.6464 0.5556 0.4626
C10 C 0.6768(3) 0.7334(6) 0.4318(3)
H8 H 0.7317 0.7239 0.4588
C11 C 0.6484(3) 0.8461(5) 0.3907(3)
H9 H 0.6835 0.9141 0.3892
C12 C 0.5684(2) 0.8609(5) 0.3516(2)
H10 H 0.5487 0.9394 0.3237
C13 C 0.3920(2) 0.9473(3) 0.3204(2)
C14 C 0.4108(2) 0.9765(4) 0.3998(2)
H11 H 0.4391 0.9150 0.4385
C15 C 0.3877(2) 1.0958(4) 0.4211(3)
H12 H 0.3990 1.1153 0.4745
C16 C 0.3483(3) 1.1866(4) 0.3647(3)
H13 H 0.3328 1.2682 0.3798
C17 C 0.3313(3) 1.1593(4) 0.2867(3)
H14 H 0.3051 1.2228 0.2484
C18 C 0.3527(2) 1.0387(4) 0.2641(2)
H15 H 0.3403 1.0193 0.2106
C19 C 0.3497(2) 0.6820(4) 0.3220(2)
C20 C 0.2778(2) 0.7102(4) 0.3357(2)
C21 C 0.2359(2) 0.8211(4) 0.3422(2)
H16 H 0.2549 0.9061 0.3370
C22 C 0.1651(2) 0.8069(4) 0.3566(2)
C23 C 0.1362(2) 0.6824(4) 0.3657(2)
C24 C 0.1783(2) 0.5706(4) 0.3587(2)
H17 H 0.1601 0.4851 0.3642
C25 C 0.2463(2) 0.5881(4) 0.3438(2)
C26 C 0.3544(2) 0.5442(4) 0.3157(3)
C27 C 0.1188(2) 0.9276(4) 0.3548(2)
C28 C 0.1253(3) 1.1603(4) 0.3642(3)
H18 H 0.0945 1.1763 0.3093
H19 H 0.1645 1.2300 0.3837
H20 H 0.0903 1.1595 0.3943
C29 C 0.0634(2) 0.6574(4) 0.3835(2)
C30 C 0.0543(2) 0.7104(4) 0.4497(2)
H21 H 0.0930 0.7685 0.4820
C31 C -0.0110(2) 0.6786(4) 0.4690(2)
H22 H -0.0173 0.7143 0.5142
C32 C -0.0663(2) 0.5946(4) 0.4213(2)
C33 C -0.0588(2) 0.5389(4) 0.3555(2)
H23 H -0.0976 0.4807 0.3236
C34 C 0.0071(2) 0.5705(4) 0.3373(2)
H24 H 0.0137 0.5325 0.2928
N1 N -0.1352(2) 0.5605(3) 0.4419(2)
O1 O 0.39936(19) 0.4709(3) 0.2989(2)
O2 O 0.29134(18) 0.4870(3) 0.3333(2)
O3 O 0.16464(17) 1.0352(3) 0.37213(19)
O4 O 0.04853(17) 0.9325(3) 0.33878(18)
O5 O -0.13873(18) 0.6065(3) 0.50231(19)
O6 O -0.18489(19) 0.4876(4) 0.3983(2)
P1 P 0.41354(6) 0.78424(9) 0.29797(6)
C35 C 0.1037(3) 0.4857(5) 0.1273(3)
H25 H 0.0472 0.4591 0.1110
Cl1 Cl 0.13123(11) 0.46370(14) 0.04556(10)
Cl2 Cl 0.15552(14) 0.37256(19) 0.19306(12)
Cl3 Cl 0.10752(7) 0.65184(13) 0.15277(7)
loop_
_geom_bond_atom_site_label_1
_geom_bond_atom_site_label_2
_geom_bond_site_symmetry_1
_geom_bond_site_symmetry_2
C1 C2 1_555 1_555
C2 H1 1_555 1_555
C3 C2 1_555 1_555
H2 C3 1_555 1_555
C4 C3 1_555 1_555
H3 C4 1_555 1_555
C5 C4 1_555 1_555
H4 C5 1_555 1_555
C6 C1 1_555 1_555
H5 C6 1_555 1_555
C7 C8 1_555 1_555
C8 H6 1_555 1_555
C9 C8 1_555 1_555
H7 C9 1_555 1_555
C10 C9 1_555 1_555
H8 C10 1_555 1_555
C11 C10 1_555 1_555
H9 C11 1_555 1_555
C12 C7 1_555 1_555
H10 C12 1_555 1_555
C13 C14 1_555 1_555
C14 H11 1_555 1_555
C15 C14 1_555 1_555
H12 C15 1_555 1_555
C16 C15 1_555 1_555
H13 C16 1_555 1_555
C17 C16 1_555 1_555
H14 C17 1_555 1_555
C18 C13 1_555 1_555
H15 C18 1_555 1_555
C19 C20 1_555 1_555
C20 C21 1_555 1_555
C21 H16 1_555 1_555
C22 C21 1_555 1_555
C23 C22 1_555 1_555
C24 C23 1_555 1_555
H17 C24 1_555 1_555
C25 C20 1_555 1_555
C26 C19 1_555 1_555
C27 C22 1_555 1_555
C28 H18 1_555 1_555
H19 C28 1_555 1_555
H20 C28 1_555 1_555
C29 C23 1_555 1_555
C30 C29 1_555 1_555
H21 C30 1_555 1_555
C31 C30 1_555 1_555
H22 C31 1_555 1_555
C32 C31 1_555 1_555
C33 C32 1_555 1_555
H23 C33 1_555 1_555
C34 C29 1_555 1_555
H24 C34 1_555 1_555
N1 C32 1_555 1_555
O1 C26 1_555 1_555
O2 C25 1_555 1_555
O3 C27 1_555 1_555
O4 C27 1_555 1_555
O5 N1 1_555 1_555
O6 N1 1_555 1_555
P1 C1 1_555 1_555
C35 H25 1_555 1_555
Cl1 C35 1_555 1_555
Cl2 C35 1_555 1_555
Cl3 C35 1_555 1_555
C5 C6 1_555 1_555
C7 P1 1_555 1_555
C11 C12 1_555 1_555
C13 P1 1_555 1_555
C17 C18 1_555 1_555
C19 P1 1_555 1_555
C24 C25 1_555 1_555
C26 O2 1_555 1_555
C28 O3 1_555 1_555
C33 C34 1_555 1_555

#END
