
#######################################################################
#
#                 Cambridge Crystallographic Data Centre
#                                CCDC 
#
#######################################################################
#
# If this CIF has been generated from an entry in the Cambridge 
# Structural Database, then it will include bibliographic, chemical, 
# crystal, experimental, refinement or atomic coordinate data resulting 
# from the CCDC's data processing and validation procedures.
#
#######################################################################

data_TUKTEY
_chemical_compound_source        'Ripe pods of Bixa orellana L'
_chemical_formula_moiety         'C25 H30 O4'
_chemical_name_systematic        \a-Bixin
_symmetry_cell_setting           triclinic
_symmetry_space_group_name_H-M   'P -1'
_symmetry_Int_Tables_number      2
_space_group_name_Hall           '-P 1'
loop_
_symmetry_equiv_pos_site_id
_symmetry_equiv_pos_as_xyz
1 x,y,z
2 -x,-y,-z
_cell_length_a                   11.3970(8)
_cell_length_b                   11.859(1)
_cell_length_c                   8.8225(7)
_cell_angle_alpha                104.331(7)
_cell_angle_beta                 93.476(6)
_cell_angle_gamma                91.303(7)
_cell_volume                     1152.31
_exptl_crystal_colour            'dark purple'
_chemical_melting_point          190deg.C
_cell_formula_units_Z            2
loop_
_atom_site_label
_atom_site_type_symbol
_atom_site_fract_x
_atom_site_fract_y
_atom_site_fract_z
O1 O 0.1674(2) 0.7883(2) 1.2440(3)
O2 O 0.0842(2) 0.6247(3) 1.2716(3)
O3 O 1.0484(2) 1.2329(2) -0.7937(2)
O4 O 0.9832(2) 1.2770(2) -0.5545(3)
C1 C 0.1410(3) 0.6868(3) 1.1910(4)
C2 C 0.1665(3) 0.6176(3) 1.0345(4)
C3 C 0.2237(3) 0.6642(3) 0.9374(4)
C4 C 0.2575(3) 0.6082(3) 0.7829(4)
C5 C 0.3136(3) 0.6725(3) 0.7012(4)
C6 C 0.3536(3) 0.6348(3) 0.5478(4)
C7 C 0.4059(3) 0.7048(3) 0.4713(4)
C8 C 0.4444(3) 0.6735(3) 0.3155(4)
C9 C 0.4906(3) 0.7567(3) 0.2523(4)
C10 C 0.5261(3) 0.7431(3) 0.0974(4)
C11 C 0.5736(3) 0.8288(3) 0.0414(4)
C12 C 0.6064(3) 0.8144(3) -0.1149(4)
C13 C 0.6608(3) 0.8932(3) -0.1779(4)
C14 C 0.6899(3) 0.8589(3) -0.3385(4)
C15 C 0.7494(3) 0.9217(3) -0.4199(4)
C16 C 0.7803(3) 0.8711(3) -0.5760(4)
C17 C 0.8434(3) 0.9176(3) -0.6717(4)
C18 C 0.8877(3) 1.0375(3) -0.6291(4)
C19 C 0.9482(3) 1.0854(3) -0.7226(4)
C20 C 0.9928(3) 1.2072(3) -0.6771(4)
C21 C 0.2290(5) 0.4797(3) 0.7205(5)
C22 C 0.4304(5) 0.5479(3) 0.2263(6)
C23 C 0.6965(3) 1.0147(3) -0.0845(4)
C24 C 0.8717(4) 0.8425(4) -0.8283(5)
C25 C 1.0966(6) 1.3496(4) -0.7664(7)
H1 H 0.068(4) 0.673(4) 1.381(5)
H2 H 0.141(2) 0.537(2) 1.009(3)
H3 H 0.246(2) 0.744(2) 0.976(3)
H4 H 0.330(2) 0.756(2) 0.755(3)
H5 H 0.343(2) 0.553(2) 0.495(3)
H6 H 0.414(2) 0.784(2) 0.522(3)
H7 H 0.497(2) 0.839(2) 0.325(3)
H8 H 0.517(2) 0.667(2) 0.024(3)
H9 H 0.584(2) 0.904(2) 0.113(3)
H10 H 0.587(2) 0.739(2) -0.181(3)
H11 H 0.671(2) 0.780(2) -0.393(3)
H12 H 0.771(2) 1.003(2) -0.371(3)
H13 H 0.757(2) 0.791(2) -0.612(3)
H14 H 0.872(2) 1.086(2) -0.522(3)
H15 H 0.969(2) 1.045(2) -0.828(3)
H16 H 0.240(5) 0.454(4) 0.600(7)
H17 H 0.142(5) 0.460(4) 0.744(7)
H18 H 0.2792 0.4357 0.7805
H22 H 0.338(4) 0.527(4) 0.220(5)
H23 H 0.478(5) 0.498(4) 0.297(6)
H24 H 0.470(5) 0.535(4) 0.130(6)
H28 H 0.783(3) 1.022(3) -0.087(4)
H29 H 0.666(3) 1.072(3) -0.146(4)
H30 H 0.670(3) 1.032(3) 0.028(4)
H34 H 0.960(3) 0.839(3) -0.832(4)
H35 H 0.836(3) 0.876(3) -0.920(4)
H36 H 0.838(4) 0.765(3) -0.840(4)
H40 H 1.112(6) 1.361(5) -0.876(7)
H41 H 1.170(6) 1.356(5) -0.683(8)
H42 H 1.031(6) 1.402(5) -0.708(10)
H19? H 0.297(6) 0.432(5) 0.649(9)
H20? H 0.153(6) 0.491(5) 0.649(8)
H21? H 0.231(6) 0.444(5) 0.817(7)
H25? H 0.403(9) 0.494(7) 0.27(1)
H26? H 0.503(8) 0.507(7) 0.21(1)
H27? H 0.398(8) 0.544(6) 0.109(10)
H31? H 0.7351 1.0572 -0.1526
H32? H 0.6258 1.0559 -0.0444
H33? H 0.7520 1.0108 0.0046
H37? H 0.9272 0.8857 -0.8775
H38? H 0.80(1) 0.81(1) -0.90(2)
H39? H 0.9081 0.7705 -0.8134
H43? H 1.174(6) 1.338(5) -0.824(10)
H44? H 1.107(9) 1.395(6) -0.663(9)
H45? H 1.039(6) 1.415(6) -0.797(10)
loop_
_geom_bond_atom_site_label_1
_geom_bond_atom_site_label_2
_geom_bond_site_symmetry_1
_geom_bond_site_symmetry_2
O1 C1 1_555 1_555
O2 C1 1_555 1_555
O3 C20 1_555 1_555
O4 C20 1_555 1_555
C1 C2 1_555 1_555
C2 C3 1_555 1_555
C3 C4 1_555 1_555
C4 C5 1_555 1_555
C5 C6 1_555 1_555
C6 C7 1_555 1_555
C7 C8 1_555 1_555
C8 C9 1_555 1_555
C9 C10 1_555 1_555
C10 C11 1_555 1_555
C11 C12 1_555 1_555
C12 C13 1_555 1_555
C13 C14 1_555 1_555
C14 C15 1_555 1_555
C15 C16 1_555 1_555
C16 C17 1_555 1_555
C17 C18 1_555 1_555
C18 C19 1_555 1_555
C19 C20 1_555 1_555
C21 C4 1_555 1_555
C22 C8 1_555 1_555
C23 C13 1_555 1_555
C24 C17 1_555 1_555
C25 O3 1_555 1_555
H1 O2 1_555 1_555
H2 C2 1_555 1_555
H3 C3 1_555 1_555
H4 C5 1_555 1_555
H5 C6 1_555 1_555
H6 C7 1_555 1_555
H7 C9 1_555 1_555
H8 C10 1_555 1_555
H9 C11 1_555 1_555
H10 C12 1_555 1_555
H11 C14 1_555 1_555
H12 C15 1_555 1_555
H13 C16 1_555 1_555
H14 C18 1_555 1_555
H15 C19 1_555 1_555
H16 C21 1_555 1_555
H17 C21 1_555 1_555
H18 C21 1_555 1_555
H22 C22 1_555 1_555
H23 C22 1_555 1_555
H24 C22 1_555 1_555
H28 C23 1_555 1_555
H29 C23 1_555 1_555
H30 C23 1_555 1_555
H34 C24 1_555 1_555
H35 C24 1_555 1_555
H36 C24 1_555 1_555
H40 C25 1_555 1_555
H41 C25 1_555 1_555
H42 C25 1_555 1_555

#END
