
#######################################################################
#
#                 Cambridge Crystallographic Data Centre
#                                CCDC 
#
#######################################################################
#
# If this CIF has been generated from an entry in the Cambridge 
# Structural Database, then it will include bibliographic, chemical, 
# crystal, experimental, refinement or atomic coordinate data resulting 
# from the CCDC's data processing and validation procedures.
#
#######################################################################

data_TULDAH
_chemical_formula_moiety         'C17 H19 N1 O4'
_chemical_name_systematic        
N-(3,4-dimethoxyphenyl)-1-(3,5-dimethoxyphenyl)methanimine
_symmetry_cell_setting           monoclinic
_symmetry_space_group_name_H-M   'P 21/c'
_symmetry_Int_Tables_number      14
_space_group_name_Hall           '-P 2ybc'
loop_
_symmetry_equiv_pos_site_id
_symmetry_equiv_pos_as_xyz
1 x,y,z
2 -x,1/2+y,1/2-z
3 -x,-y,-z
4 x,1/2-y,1/2+z
_cell_length_a                   11.1898(4)
_cell_length_b                   17.5567(6)
_cell_length_c                   8.1013(3)
_cell_angle_alpha                90
_cell_angle_beta                 98.0720(10)
_cell_angle_gamma                90
_cell_volume                     1575.78
_exptl_crystal_colour            brown
_exptl_crystal_description       BLOCK
_cell_formula_units_Z            4
loop_
_atom_site_label
_atom_site_type_symbol
_atom_site_fract_x
_atom_site_fract_y
_atom_site_fract_z
O1 O 1.00728(9) -0.22669(5) 0.88319(14)
O2 O 0.45402(8) 0.10899(5) 1.18604(11)
O3 O 0.33414(8) 0.19917(5) 0.97351(11)
O4 O 1.18240(9) -0.00977(6) 0.66168(15)
N1 N 0.76315(10) 0.07468(6) 0.81854(14)
C1 C 0.65612(11) 0.10757(7) 0.86209(16)
C2 C 0.89481(11) -0.03460(7) 0.82541(15)
C3 C 0.90455(12) -0.11073(7) 0.86596(17)
H1 H 0.8436 -0.1346 0.9137
C4 C 0.61075(11) 0.08974(7) 1.01052(15)
H2 H 0.6526 0.0561 1.0862
C5 C 1.00536(12) -0.15192(7) 0.83569(16)
C6 C 0.50472(11) 0.12181(7) 1.04456(14)
C7 C 0.44023(11) 0.17230(7) 0.93005(15)
C8 C 1.09524(11) -0.11653(8) 0.76381(17)
H3 H 1.1619 -0.1441 0.7407
C9 C 0.48704(12) 0.19147(7) 0.78706(16)
H4 H 0.4460 0.2258 0.7120
C10 C 1.08531(11) -0.03908(8) 0.72599(16)
C11 C 0.59521(12) 0.15983(8) 0.75444(17)
H5 H 0.6268 0.1741 0.6588
C12 C 0.98627(11) 0.00255(7) 0.75484(16)
H6 H 0.9801 0.0541 0.7282
C13 C 1.10797(18) -0.27148(9) 0.8539(3)
H7 H 1.0983 -0.3225 0.8926
H8 H 1.1805 -0.2498 0.9126
H9 H 1.1131 -0.2724 0.7366
C14 C 0.78694(12) 0.00618(8) 0.86044(17)
H10 H 0.7326 -0.0198 0.9169
C15 C 1.18348(15) 0.06969(9) 0.6300(2)
H11 H 1.2559 0.0828 0.5854
H12 H 1.1808 0.0970 0.7320
H13 H 1.1145 0.0830 0.5510
C16 C 0.51785(15) 0.06157(10) 1.31040(18)
H14 H 0.4730 0.0572 1.4026
H15 H 0.5955 0.0835 1.3481
H16 H 0.5283 0.0120 1.2645
C17 C 0.27153(13) 0.25605(8) 0.86987(19)
H17 H 0.1991 0.2700 0.9134
H18 H 0.2511 0.2364 0.7589
H19 H 0.3222 0.3001 0.8675
loop_
_geom_bond_atom_site_label_1
_geom_bond_atom_site_label_2
_geom_bond_site_symmetry_1
_geom_bond_site_symmetry_2
O1 C5 1_555 1_555
O2 C6 1_555 1_555
O3 C7 1_555 1_555
O4 C10 1_555 1_555
N1 C1 1_555 1_555
C1 C4 1_555 1_555
C2 C3 1_555 1_555
C3 H1 1_555 1_555
C4 H2 1_555 1_555
C5 C3 1_555 1_555
C6 C4 1_555 1_555
C7 C6 1_555 1_555
C8 C5 1_555 1_555
H3 C8 1_555 1_555
C9 C7 1_555 1_555
H4 C9 1_555 1_555
C10 C8 1_555 1_555
C11 C1 1_555 1_555
H5 C11 1_555 1_555
C12 C2 1_555 1_555
H6 C12 1_555 1_555
C13 O1 1_555 1_555
H7 C13 1_555 1_555
H8 C13 1_555 1_555
H9 C13 1_555 1_555
C14 N1 1_555 1_555
H10 C14 1_555 1_555
C15 O4 1_555 1_555
H11 C15 1_555 1_555
H12 C15 1_555 1_555
H13 C15 1_555 1_555
C16 O2 1_555 1_555
H14 C16 1_555 1_555
H15 C16 1_555 1_555
H16 C16 1_555 1_555
C17 O3 1_555 1_555
H17 C17 1_555 1_555
H18 C17 1_555 1_555
H19 C17 1_555 1_555
C2 C14 1_555 1_555
C9 C11 1_555 1_555
C10 C12 1_555 1_555

#END
