
#######################################################################
#
#                 Cambridge Crystallographic Data Centre
#                                CCDC 
#
#######################################################################
#
# If this CIF has been generated from an entry in the Cambridge 
# Structural Database, then it will include bibliographic, chemical, 
# crystal, experimental, refinement or atomic coordinate data resulting 
# from the CCDC's data processing and validation procedures.
#
#######################################################################

data_TULMAQ
_chemical_formula_moiety         'C26 H23 Cl1 N4 O1'
_chemical_name_systematic        
(R)-4-(4-Chlorophenyl)-3-methyl-1-phenyl-1,4,6,7,8,9-hexahydropyrazolo[4',3':5,6]pyrano[2,3-b]quinolin-5-amine
_symmetry_cell_setting           monoclinic
_symmetry_space_group_name_H-M   'P 21'
_symmetry_Int_Tables_number      4
_space_group_name_Hall           'P 2yb'
loop_
_symmetry_equiv_pos_site_id
_symmetry_equiv_pos_as_xyz
1 x,y,z
2 -x,1/2+y,-z
_cell_length_a                   8.1418(16)
_cell_length_b                   12.894(3)
_cell_length_c                   10.541(2)
_cell_angle_alpha                90
_cell_angle_beta                 105.75(3)
_cell_angle_gamma                90
_cell_volume                     1065.05
_exptl_crystal_colour            colorless
_exptl_crystal_description       prism
_chemical_melting_point          '288-290 deg.C'
_cell_formula_units_Z            2
loop_
_atom_site_label
_atom_site_type_symbol
_atom_site_fract_x
_atom_site_fract_y
_atom_site_fract_z
Cl1 Cl -0.01137(7) 0.70733(5) 0.53807(5)
O1 O 0.19134(14) 0.92567(9) -0.11839(10)
N1 N 0.58929(17) 0.88226(12) 0.11117(13)
N2 N 0.47527(18) 0.87668(12) -0.01315(14)
N3 N -0.06336(18) 0.99416(11) -0.21152(13)
N4 N -0.1297(2) 1.10251(12) 0.14225(14)
H1 H -0.2375(13) 1.1164(15) 0.1426(17)
H2 H -0.0728(19) 1.0671(14) 0.2157(13)
C1 C 0.5858(2) 0.94425(17) 0.32907(17)
H3 H 0.7041 0.9198 0.3507
H4 H 0.5238 0.9063 0.3821
H5 H 0.5843 1.0186 0.3482
C2 C 0.5026(2) 0.92614(15) 0.18659(16)
C3 C 0.3329(2) 0.95024(14) 0.11452(15)
C4 C 0.1832(2) 0.99366(14) 0.15204(15)
H6 H 0.2160 1.0624 0.1955
C5 C 0.0413(2) 1.01081(14) 0.02455(15)
C6 C -0.1101(2) 1.06227(13) 0.02659(16)
C7 C -0.2398(2) 1.07681(14) -0.09149(16)
C8 C -0.4040(2) 1.12913(15) -0.08976(17)
H7 H -0.3817 1.2039 -0.0715
H8 H -0.4445 1.0997 -0.0169
C9 C -0.5446(2) 1.11748(16) -0.21801(18)
H9 H -0.5942 1.0470 -0.2230
H10 H -0.6364 1.1683 -0.2201
C10 C -0.4736(2) 1.13516(18) -0.33468(18)
H11 H -0.4225 1.2053 -0.3288
H12 H -0.5672 1.1313 -0.4172
C11 C -0.3392(2) 1.05447(15) -0.33793(16)
H13 H -0.3958 0.9869 -0.3648
H14 H -0.2804 1.0747 -0.4050
C12 C -0.2087(2) 1.04198(13) -0.20680(16)
C13 C 0.0511(2) 0.97941(13) -0.09869(16)
C14 C 0.3239(2) 0.91815(14) -0.00924(15)
C15 C 0.5272(2) 0.82994(14) -0.11777(16)
C16 C 0.4082(2) 0.79934(15) -0.23254(16)
H15 H 0.2895 0.8069 -0.2417
C17 C 0.4658(2) 0.75750(16) -0.33354(18)
H16 H 0.3857 0.7371 -0.4132
C18 C 0.6376(3) 0.74507(15) -0.32017(19)
H17 H 0.6756 0.7177 -0.3910
C19 C 0.7549(2) 0.77256(15) -0.2034(2)
H18 H 0.8734 0.7624 -0.1934
C20 C 0.7001(2) 0.81481(15) -0.10126(17)
H19 H 0.7802 0.8332 -0.0207
C21 C 0.1289(2) 0.92236(13) 0.24856(15)
C22 C 0.1394(2) 0.95553(15) 0.37584(16)
H20 H 0.1789 1.0236 0.4020
C23 C 0.0929(2) 0.89044(17) 0.46591(17)
H21 H 0.0987 0.9135 0.5526
C24 C 0.0382(2) 0.79173(15) 0.42551(17)
C25 C 0.0259(2) 0.75667(15) 0.30009(18)
H22 H -0.0136 0.6885 0.2742
C26 C 0.0724(2) 0.82301(15) 0.21220(16)
H23 H 0.0652 0.7996 0.1254
loop_
_geom_bond_atom_site_label_1
_geom_bond_atom_site_label_2
_geom_bond_site_symmetry_1
_geom_bond_site_symmetry_2
Cl1 C24 1_555 1_555
O1 C13 1_555 1_555
N1 N2 1_555 1_555
N2 C14 1_555 1_555
N3 C12 1_555 1_555
N4 H1 1_555 1_555
H2 N4 1_555 1_555
C1 H3 1_555 1_555
H4 C1 1_555 1_555
H5 C1 1_555 1_555
C2 N1 1_555 1_555
C3 C2 1_555 1_555
C4 C3 1_555 1_555
H6 C4 1_555 1_555
C5 C4 1_555 1_555
C6 N4 1_555 1_555
C7 C6 1_555 1_555
C8 C7 1_555 1_555
H7 C8 1_555 1_555
H8 C8 1_555 1_555
C9 C8 1_555 1_555
H9 C9 1_555 1_555
H10 C9 1_555 1_555
C10 C9 1_555 1_555
H11 C10 1_555 1_555
H12 C10 1_555 1_555
C11 C10 1_555 1_555
H13 C11 1_555 1_555
H14 C11 1_555 1_555
C12 C7 1_555 1_555
C13 N3 1_555 1_555
C14 O1 1_555 1_555
C15 N2 1_555 1_555
C16 C15 1_555 1_555
H15 C16 1_555 1_555
C17 C16 1_555 1_555
H16 C17 1_555 1_555
C18 C17 1_555 1_555
H17 C18 1_555 1_555
C19 C18 1_555 1_555
H18 C19 1_555 1_555
C20 C15 1_555 1_555
H19 C20 1_555 1_555
C21 C4 1_555 1_555
C22 C21 1_555 1_555
H20 C22 1_555 1_555
C23 C22 1_555 1_555
H21 C23 1_555 1_555
C24 C23 1_555 1_555
C25 C24 1_555 1_555
H22 C25 1_555 1_555
C26 C21 1_555 1_555
H23 C26 1_555 1_555
C1 C2 1_555 1_555
C3 C14 1_555 1_555
C5 C6 1_555 1_555
C5 C13 1_555 1_555
C11 C12 1_555 1_555
C19 C20 1_555 1_555
C25 C26 1_555 1_555

#END
