
#######################################################################
#
#                 Cambridge Crystallographic Data Centre
#                                CCDC 
#
#######################################################################
#
# If this CIF has been generated from an entry in the Cambridge 
# Structural Database, then it will include bibliographic, chemical, 
# crystal, experimental, refinement or atomic coordinate data resulting 
# from the CCDC's data processing and validation procedures.
#
#######################################################################

data_TULVON
_chemical_formula_moiety         'C50 H62 B12'
_chemical_name_systematic        
1,2-bis(4-(Dimesitylboryl)phenyl)-1,2-dicarba-closo-dodecaborane
_symmetry_cell_setting           orthorhombic
_symmetry_space_group_name_H-M   'P b c n'
_symmetry_Int_Tables_number      60
_space_group_name_Hall           '-P 2n 2ab'
loop_
_symmetry_equiv_pos_site_id
_symmetry_equiv_pos_as_xyz
1 x,y,z
2 1/2-x,1/2-y,1/2+z
3 -x,y,1/2-z
4 1/2+x,1/2-y,-z
5 -x,-y,-z
6 1/2+x,1/2+y,1/2-z
7 x,-y,1/2+z
8 1/2-x,1/2+y,z
_cell_length_a                   30.290(4)
_cell_length_b                   12.4277(15)
_cell_length_c                   26.818(3)
_cell_angle_alpha                90
_cell_angle_beta                 90
_cell_angle_gamma                90
_cell_volume                     10095.2
_exptl_crystal_colour            colorless
_exptl_crystal_description       block
_cell_formula_units_Z            8
_exptl_crystal_recrystallization_method dichloromethane/n-hexane
loop_
_atom_site_label
_atom_site_type_symbol
_atom_site_fract_x
_atom_site_fract_y
_atom_site_fract_z
B1 B -0.05327(11) 0.6490(2) 0.43806(13)
H1 H -0.0334 0.6243 0.4704
B2 B -0.05959(12) 0.7861(3) 0.42116(16)
H2 H -0.0443 0.8512 0.4429
B3 B -0.06375(12) 0.7924(3) 0.35569(16)
H3 H -0.0512 0.8618 0.3345
B4 B -0.05998(11) 0.6593(3) 0.33223(14)
H4 H -0.0446 0.6411 0.2960
B5 B -0.10578(10) 0.5851(3) 0.35490(15)
H5 H -0.1207 0.5192 0.3333
B6 B -0.10138(11) 0.5789(3) 0.42042(14)
H6 H -0.1133 0.5089 0.4416
B7 B -0.10524(12) 0.7121(3) 0.44410(17)
H7 H -0.1200 0.7292 0.4807
B8 B -0.11163(12) 0.8001(3) 0.39276(18)
H8 H -0.1308 0.8750 0.3959
B9 B -0.11172(12) 0.7222(3) 0.33752(18)
H9 H -0.1307 0.7460 0.3043
B10 B -0.13787(12) 0.6732(3) 0.39229(17)
H10 H -0.1740 0.6653 0.3950
B11 B 0.16437(10) 0.6873(2) 0.37984(14)
B12 B 0.06554(10) 0.2120(2) 0.34966(12)
C1 C -0.03039(8) 0.70033(19) 0.38394(10)
C2 C -0.05557(8) 0.57618(19) 0.38348(10)
C3 C 0.01896(8) 0.70321(19) 0.38136(11)
C4 C 0.04169(9) 0.6807(2) 0.33780(11)
H11 H 0.0261 0.6663 0.3087
C5 C 0.08742(9) 0.6794(2) 0.33701(11)
H12 H 0.1018 0.6657 0.3071
C6 C 0.11249(9) 0.6981(2) 0.37976(12)
C7 C 0.08884(10) 0.7222(3) 0.42284(13)
H13 H 0.1043 0.7363 0.4521
C8 C 0.04340(10) 0.7259(2) 0.42382(12)
H14 H 0.0289 0.7439 0.4533
C9 C 0.18751(9) 0.6565(2) 0.42987(12)
C10 C 0.22073(10) 0.7229(3) 0.45037(14)
C11 C 0.24040(12) 0.6953(4) 0.49497(16)
H15 H 0.2617 0.7411 0.5082
C12 C 0.22988(13) 0.6025(4) 0.52090(14)
C13 C 0.19773(11) 0.5366(3) 0.50081(12)
H16 H 0.1903 0.4733 0.5173
C14 C 0.17637(9) 0.5625(2) 0.45676(12)
C15 C 0.23422(12) 0.8263(3) 0.42485(16)
H17 H 0.2555 0.8634 0.4451
H18 H 0.2087 0.8712 0.4203
H19 H 0.2470 0.8101 0.3930
C16 C 0.25206(18) 0.5731(5) 0.56973(16)
H20 H 0.2758 0.6222 0.5761
H21 H 0.2635 0.5011 0.5676
H22 H 0.2309 0.5772 0.5963
C17 C 0.14159(11) 0.4838(3) 0.43811(13)
H23 H 0.1509 0.4116 0.4450
H24 H 0.1378 0.4927 0.4028
H25 H 0.1141 0.4976 0.4547
C18 C 0.18975(8) 0.7039(2) 0.32969(12)
C19 C 0.21779(9) 0.6230(3) 0.31070(12)
C20 C 0.23946(11) 0.6371(4) 0.26595(14)
H26 H 0.2575 0.5821 0.2542
C21 C 0.23537(13) 0.7293(5) 0.23800(15)
C22 C 0.20834(13) 0.8095(4) 0.25646(16)
H27 H 0.2054 0.8730 0.2384
C23 C 0.18546(10) 0.7987(3) 0.30099(15)
C24 C 0.22450(12) 0.5177(3) 0.33779(14)
H28 H 0.2395 0.4679 0.3163
H29 H 0.1963 0.4884 0.3471
H30 H 0.2419 0.5297 0.3672
C25 C 0.25964(19) 0.7438(6) 0.18865(16)
H31 H 0.2605 0.8188 0.1802
H32 H 0.2445 0.7048 0.1629
H33 H 0.2892 0.7168 0.1918
C26 C 0.15710(12) 0.8925(3) 0.31825(19)
H34 H 0.1656 0.9565 0.3007
H35 H 0.1611 0.9032 0.3534
H36 H 0.1266 0.8771 0.3116
C27 C -0.02633(8) 0.47925(19) 0.37727(9)
C28 C 0.00258(9) 0.4458(2) 0.41402(9)
H37 H 0.0034 0.4821 0.4444
C29 C 0.03046(8) 0.3588(2) 0.40613(9)
H38 H 0.0493 0.3370 0.4316
C30 C 0.03104(8) 0.30314(19) 0.36104(9)
C31 C 0.00074(9) 0.3364(2) 0.32538(10)
H39 H -0.0006 0.2996 0.2952
C32 C -0.02748(9) 0.4221(2) 0.33308(10)
H40 H -0.0474 0.4415 0.3083
C33 C 0.08458(9) 0.14165(19) 0.39328(10)
C34 C 0.05638(12) 0.0850(2) 0.42542(12)
C35 C 0.07411(17) 0.0201(3) 0.46314(13)
H41 H 0.0551 -0.0185 0.4836
C36 C 0.11896(18) 0.0120(3) 0.47074(13)
C37 C 0.14609(14) 0.0699(3) 0.43998(13)
H42 H 0.1764 0.0676 0.4456
C38 C 0.13041(10) 0.1320(2) 0.40079(11)
C39 C 0.00652(13) 0.0881(3) 0.41967(17)
H43 H -0.0060 0.0235 0.4332
H44 H -0.0009 0.0936 0.3850
H45 H -0.0050 0.1493 0.4372
C40 C 0.1365(2) -0.0589(4) 0.51230(14)
H46 H 0.1561 -0.1118 0.4986
H47 H 0.1124 -0.0942 0.5287
H48 H 0.1523 -0.0154 0.5360
C41 C 0.16362(10) 0.1892(3) 0.36851(14)
H49 H 0.1928 0.1766 0.3813
H50 H 0.1576 0.2650 0.3687
H51 H 0.1617 0.1623 0.3350
C42 C 0.07947(8) 0.1960(2) 0.29380(10)
C43 C 0.07178(9) 0.0966(2) 0.26916(11)
C44 C 0.08408(11) 0.0849(3) 0.21989(13)
H52 H 0.0780 0.0201 0.2040
C45 C 0.10487(12) 0.1648(3) 0.19321(13)
C46 C 0.11262(10) 0.2609(3) 0.21739(11)
H53 H 0.1268 0.3160 0.2002
C47 C 0.09998(9) 0.2783(2) 0.26632(10)
C48 C 0.04780(11) 0.0061(2) 0.29544(14)
H54 H 0.0179 0.0275 0.3021
H55 H 0.0625 -0.0099 0.3263
H56 H 0.0478 -0.0567 0.2746
C49 C 0.11811(17) 0.1494(5) 0.13901(14)
H57 H 0.0986 0.0984 0.1236
H58 H 0.1479 0.1232 0.1374
H59 H 0.1162 0.2170 0.1218
C50 C 0.10943(12) 0.3882(2) 0.28883(12)
H60 H 0.1352 0.4184 0.2734
H61 H 0.1144 0.3807 0.3240
H62 H 0.0846 0.4348 0.2833
loop_
_geom_bond_atom_site_label_1
_geom_bond_atom_site_label_2
_geom_bond_site_symmetry_1
_geom_bond_site_symmetry_2
B1 H1 1_555 1_555
B2 B1 1_555 1_555
H2 B2 1_555 1_555
B3 B2 1_555 1_555
H3 B3 1_555 1_555
B4 B3 1_555 1_555
H4 B4 1_555 1_555
B5 B4 1_555 1_555
H5 B5 1_555 1_555
B6 B1 1_555 1_555
H6 B6 1_555 1_555
B7 B1 1_555 1_555
H7 B7 1_555 1_555
B8 B2 1_555 1_555
H8 B8 1_555 1_555
B9 B3 1_555 1_555
H9 B9 1_555 1_555
B10 B5 1_555 1_555
H10 B10 1_555 1_555
B11 C6 1_555 1_555
B12 C30 1_555 1_555
C1 B1 1_555 1_555
C2 B1 1_555 1_555
C3 C1 1_555 1_555
C4 C3 1_555 1_555
H11 C4 1_555 1_555
C5 C4 1_555 1_555
H12 C5 1_555 1_555
C6 C5 1_555 1_555
C7 C6 1_555 1_555
H13 C7 1_555 1_555
C8 C3 1_555 1_555
H14 C8 1_555 1_555
C9 B11 1_555 1_555
C10 C9 1_555 1_555
C11 C10 1_555 1_555
H15 C11 1_555 1_555
C12 C11 1_555 1_555
C13 C12 1_555 1_555
H16 C13 1_555 1_555
C14 C9 1_555 1_555
C15 C10 1_555 1_555
H17 C15 1_555 1_555
H18 C15 1_555 1_555
H19 C15 1_555 1_555
C16 C12 1_555 1_555
H20 C16 1_555 1_555
H21 C16 1_555 1_555
H22 C16 1_555 1_555
C17 C14 1_555 1_555
H23 C17 1_555 1_555
H24 C17 1_555 1_555
H25 C17 1_555 1_555
C18 B11 1_555 1_555
C19 C18 1_555 1_555
C20 C19 1_555 1_555
H26 C20 1_555 1_555
C21 C20 1_555 1_555
C22 C21 1_555 1_555
H27 C22 1_555 1_555
C23 C18 1_555 1_555
C24 C19 1_555 1_555
H28 C24 1_555 1_555
H29 C24 1_555 1_555
H30 C24 1_555 1_555
C25 C21 1_555 1_555
H31 C25 1_555 1_555
H32 C25 1_555 1_555
H33 C25 1_555 1_555
C26 C23 1_555 1_555
H34 C26 1_555 1_555
H35 C26 1_555 1_555
H36 C26 1_555 1_555
C27 C2 1_555 1_555
C28 C27 1_555 1_555
H37 C28 1_555 1_555
C29 C28 1_555 1_555
H38 C29 1_555 1_555
C30 C29 1_555 1_555
C31 C30 1_555 1_555
H39 C31 1_555 1_555
C32 C27 1_555 1_555
H40 C32 1_555 1_555
C33 B12 1_555 1_555
C34 C33 1_555 1_555
C35 C34 1_555 1_555
H41 C35 1_555 1_555
C36 C35 1_555 1_555
C37 C36 1_555 1_555
H42 C37 1_555 1_555
C38 C33 1_555 1_555
C39 C34 1_555 1_555
H43 C39 1_555 1_555
H44 C39 1_555 1_555
H45 C39 1_555 1_555
C40 C36 1_555 1_555
H46 C40 1_555 1_555
H47 C40 1_555 1_555
H48 C40 1_555 1_555
C41 C38 1_555 1_555
H49 C41 1_555 1_555
H50 C41 1_555 1_555
H51 C41 1_555 1_555
C42 B12 1_555 1_555
C43 C42 1_555 1_555
C44 C43 1_555 1_555
H52 C44 1_555 1_555
C45 C44 1_555 1_555
C46 C45 1_555 1_555
H53 C46 1_555 1_555
C47 C42 1_555 1_555
C48 C43 1_555 1_555
H54 C48 1_555 1_555
H55 C48 1_555 1_555
H56 C48 1_555 1_555
C49 C45 1_555 1_555
H57 C49 1_555 1_555
H58 C49 1_555 1_555
H59 C49 1_555 1_555
C50 C47 1_555 1_555
H60 C50 1_555 1_555
H61 C50 1_555 1_555
H62 C50 1_555 1_555
B2 B7 1_555 1_555
B2 C1 1_555 1_555
B3 B8 1_555 1_555
B3 C1 1_555 1_555
B4 B9 1_555 1_555
B4 C1 1_555 1_555
B4 C2 1_555 1_555
B5 B6 1_555 1_555
B5 B9 1_555 1_555
B5 C2 1_555 1_555
B6 B7 1_555 1_555
B6 B10 1_555 1_555
B6 C2 1_555 1_555
B7 B8 1_555 1_555
B7 B10 1_555 1_555
B8 B9 1_555 1_555
B8 B10 1_555 1_555
B9 B10 1_555 1_555
C1 C2 1_555 1_555
C7 C8 1_555 1_555
C13 C14 1_555 1_555
C22 C23 1_555 1_555
C31 C32 1_555 1_555
C37 C38 1_555 1_555
C46 C47 1_555 1_555

#END
