
#######################################################################
#
#                 Cambridge Crystallographic Data Centre
#                                CCDC 
#
#######################################################################
#
# If this CIF has been generated from an entry in the Cambridge 
# Structural Database, then it will include bibliographic, chemical, 
# crystal, experimental, refinement or atomic coordinate data resulting 
# from the CCDC's data processing and validation procedures.
#
#######################################################################

data_TULVIH
_chemical_formula_moiety         'C50 H62 B12'
_chemical_name_systematic        
1,2-bis(3-(Dimesitylboryl)phenyl)-1,2-dicarba-closo-dodecaborane
_symmetry_cell_setting           triclinic
_symmetry_space_group_name_H-M   'P -1'
_symmetry_Int_Tables_number      2
_space_group_name_Hall           '-P 1'
loop_
_symmetry_equiv_pos_site_id
_symmetry_equiv_pos_as_xyz
1 x,y,z
2 -x,-y,-z
_cell_length_a                   12.174(3)
_cell_length_b                   14.430(3)
_cell_length_c                   15.288(3)
_cell_angle_alpha                66.980(4)
_cell_angle_beta                 84.020(5)
_cell_angle_gamma                88.816(5)
_cell_volume                     2457.75
_exptl_crystal_colour            colorless
_exptl_crystal_description       block
_cell_formula_units_Z            2
_exptl_crystal_recrystallization_method dichloromethane/n-hexane
loop_
_atom_site_label
_atom_site_type_symbol
_atom_site_fract_x
_atom_site_fract_y
_atom_site_fract_z
B1 B 0.9945(2) 0.60816(17) 0.23815(18)
H1 H 0.9426 0.6735 0.2311
B2 B 1.0599(2) 0.54251(19) 0.34339(19)
H2 H 1.0521 0.5655 0.4044
B3 B 1.0641(2) 0.41318(19) 0.3591(2)
H3 H 1.0591 0.3521 0.4306
B4 B 1.0019(2) 0.40134(18) 0.26425(18)
H4 H 0.9548 0.3331 0.2741
B5 B 1.0822(2) 0.47164(18) 0.15471(19)
H5 H 1.0888 0.4488 0.0937
B6 B 1.0779(2) 0.60001(18) 0.13921(19)
H6 H 1.0817 0.6608 0.0676
B7 B 1.1396(2) 0.6138(2) 0.2335(2)
H7 H 1.1839 0.6836 0.2232
B8 B 1.1841(2) 0.4929(2) 0.3083(2)
H8 H 1.2579 0.4837 0.3465
B9 B 1.1464(2) 0.4046(2) 0.2601(2)
H9 H 1.1954 0.3376 0.2675
B10 B 1.1948(2) 0.5283(2) 0.1829(2)
H10 H 1.2758 0.5421 0.1401
B11 B 0.6441(2) 0.2394(2) 0.51416(18)
B12 B 0.6956(2) 0.75839(19) -0.01567(18)
C1 C 0.95497(17) 0.48599(15) 0.31360(15)
C2 C 0.96589(17) 0.52115(14) 0.19118(15)
C3 C 0.84247(18) 0.46734(15) 0.36880(16)
C4 C 0.7835(2) 0.54525(18) 0.3813(2)
H11 H 0.8128 0.6106 0.3534
C5 C 0.6819(2) 0.5268(2) 0.4346(2)
H12 H 0.6433 0.5795 0.4430
C6 C 0.6374(2) 0.43084(19) 0.4754(2)
H13 H 0.5681 0.4198 0.5102
C7 C 0.69360(19) 0.34955(17) 0.46590(17)
C8 C 0.79689(18) 0.37062(16) 0.41275(16)
H14 H 0.8370 0.3176 0.4065
C9 C 0.51516(19) 0.22428(17) 0.53983(17)
C10 C 0.4402(2) 0.26437(18) 0.47026(18)
C11 C 0.3272(2) 0.2490(2) 0.4969(2)
H15 H 0.2793 0.2742 0.4498
C12 C 0.2835(2) 0.1982(2) 0.5899(2)
C13 C 0.3563(2) 0.1594(2) 0.6579(2)
H16 H 0.3282 0.1243 0.7212
C14 C 0.4706(2) 0.17067(18) 0.63533(18)
C15 C 0.4783(2) 0.3217(2) 0.3654(2)
H17 H 0.4257 0.3112 0.3274
H18 H 0.5491 0.2981 0.3502
H19 H 0.4841 0.3923 0.3523
C16 C 0.1609(2) 0.1832(3) 0.6174(3)
H20 H 0.1415 0.1132 0.6374
H21 H 0.1226 0.2224 0.5635
H22 H 0.1404 0.2043 0.6690
C17 C 0.5431(2) 0.1263(2) 0.71525(19)
H23 H 0.5791 0.1796 0.7249
H24 H 0.5977 0.0852 0.6989
H25 H 0.4987 0.0858 0.7729
C18 C 0.72414(18) 0.14834(16) 0.53572(15)
C19 C 0.7113(2) 0.07436(17) 0.49817(17)
C20 C 0.7795(2) -0.00745(18) 0.52140(19)
H26 H 0.7705 -0.0548 0.4952
C21 C 0.8608(2) -0.02199(18) 0.58196(18)
C22 C 0.8737(2) 0.05015(19) 0.61842(18)
H27 H 0.9277 0.0418 0.6595
C23 C 0.80865(19) 0.13488(17) 0.59581(16)
C24 C 0.6272(3) 0.0848(2) 0.4296(2)
H28 H 0.6463 0.1422 0.3713
H29 H 0.5555 0.0937 0.4576
H30 H 0.6260 0.0252 0.4162
C25 C 0.9322(3) -0.1131(2) 0.6068(2)
H31 H 0.8900 -0.1713 0.6503
H32 H 0.9944 -0.1031 0.6362
H33 H 0.9580 -0.1232 0.5497
C26 C 0.8290(2) 0.2070(2) 0.6422(2)
H34 H 0.8384 0.1697 0.7083
H35 H 0.7670 0.2504 0.6372
H36 H 0.8945 0.2469 0.6105
C27 C 0.86274(18) 0.53443(15) 0.14206(15)
C28 C 0.82496(18) 0.63084(16) 0.09382(16)
H37 H 0.8614 0.6853 0.0969
C29 C 0.73405(18) 0.64886(16) 0.04077(16)
C30 C 0.6815(2) 0.56505(18) 0.0384(2)
H38 H 0.6202 0.5742 0.0045
C31 C 0.7181(2) 0.46934(19) 0.0851(2)
H39 H 0.6820 0.4146 0.0822
C32 C 0.8079(2) 0.45406(17) 0.13631(19)
H40 H 0.8323 0.3890 0.1675
C33 C 0.77772(17) 0.85138(15) -0.04352(15)
C34 C 0.88348(18) 0.85590(16) -0.09341(15)
C35 C 0.95052(19) 0.94147(17) -0.12064(16)
H41 H 1.0193 0.9432 -0.1541
C36 C 0.9197(2) 1.02345(16) -0.10027(17)
C37 C 0.8173(2) 1.01884(17) -0.05066(18)
H42 H 0.7952 1.0732 -0.0353
C38 C 0.74608(19) 0.93630(17) -0.02285(17)
C39 C 0.9255(2) 0.77250(18) -0.12308(19)
H43 H 0.9747 0.8003 -0.1808
H44 H 0.8643 0.7388 -0.1339
H45 H 0.9643 0.7252 -0.0734
C40 C 0.9948(2) 1.11528(18) -0.1302(2)
H46 H 1.0704 1.0949 -0.1284
H47 H 0.9782 1.1487 -0.0871
H48 H 0.9834 1.1605 -0.1939
C41 C 0.6366(2) 0.9394(2) 0.0323(3)
H49 H 0.6355 0.9975 0.0483
H50 H 0.6269 0.8796 0.0899
H51 H 0.5779 0.9430 -0.0061
C42 C 0.57471(17) 0.77408(16) -0.04601(16)
C43 C 0.55691(19) 0.82105(18) -0.14280(17)
C44 C 0.4498(2) 0.8373(2) -0.16791(19)
H52 H 0.4393 0.8683 -0.2323
C45 C 0.3585(2) 0.8092(2) -0.1014(2)
C46 C 0.3755(2) 0.76248(18) -0.0072(2)
H53 H 0.3147 0.7430 0.0387
C47 C 0.48117(19) 0.74321(18) 0.02213(18)
C48 C 0.6518(2) 0.8534(2) -0.22158(19)
H54 H 0.6231 0.8813 -0.2825
H55 H 0.6956 0.7962 -0.2177
H56 H 0.6968 0.9033 -0.2144
C49 C 0.2428(2) 0.8301(3) -0.1317(3)
H57 H 0.1914 0.7832 -0.0838
H58 H 0.2402 0.8229 -0.1913
H59 H 0.2236 0.8975 -0.1393
C50 C 0.4906(2) 0.6919(2) 0.12832(19)
H60 H 0.4262 0.7053 0.1631
H61 H 0.5551 0.7174 0.1434
H62 H 0.4964 0.6206 0.1458
loop_
_geom_bond_atom_site_label_1
_geom_bond_atom_site_label_2
_geom_bond_site_symmetry_1
_geom_bond_site_symmetry_2
B1 H1 1_555 1_555
B2 B1 1_555 1_555
H2 B2 1_555 1_555
B3 B2 1_555 1_555
H3 B3 1_555 1_555
B4 B3 1_555 1_555
H4 B4 1_555 1_555
B5 B4 1_555 1_555
H5 B5 1_555 1_555
B6 B1 1_555 1_555
H6 B6 1_555 1_555
B7 B1 1_555 1_555
H7 B7 1_555 1_555
B8 B2 1_555 1_555
H8 B8 1_555 1_555
B9 B3 1_555 1_555
H9 B9 1_555 1_555
B10 B5 1_555 1_555
H10 B10 1_555 1_555
B11 C7 1_555 1_555
B12 C29 1_555 1_555
C1 B1 1_555 1_555
C2 B1 1_555 1_555
C3 C1 1_555 1_555
C4 C3 1_555 1_555
H11 C4 1_555 1_555
C5 C4 1_555 1_555
H12 C5 1_555 1_555
C6 C5 1_555 1_555
H13 C6 1_555 1_555
C7 C6 1_555 1_555
C8 C3 1_555 1_555
H14 C8 1_555 1_555
C9 B11 1_555 1_555
C10 C9 1_555 1_555
C11 C10 1_555 1_555
H15 C11 1_555 1_555
C12 C11 1_555 1_555
C13 C12 1_555 1_555
H16 C13 1_555 1_555
C14 C9 1_555 1_555
C15 C10 1_555 1_555
H17 C15 1_555 1_555
H18 C15 1_555 1_555
H19 C15 1_555 1_555
C16 C12 1_555 1_555
H20 C16 1_555 1_555
H21 C16 1_555 1_555
H22 C16 1_555 1_555
C17 C14 1_555 1_555
H23 C17 1_555 1_555
H24 C17 1_555 1_555
H25 C17 1_555 1_555
C18 B11 1_555 1_555
C19 C18 1_555 1_555
C20 C19 1_555 1_555
H26 C20 1_555 1_555
C21 C20 1_555 1_555
C22 C21 1_555 1_555
H27 C22 1_555 1_555
C23 C18 1_555 1_555
C24 C19 1_555 1_555
H28 C24 1_555 1_555
H29 C24 1_555 1_555
H30 C24 1_555 1_555
C25 C21 1_555 1_555
H31 C25 1_555 1_555
H32 C25 1_555 1_555
H33 C25 1_555 1_555
C26 C23 1_555 1_555
H34 C26 1_555 1_555
H35 C26 1_555 1_555
H36 C26 1_555 1_555
C27 C2 1_555 1_555
C28 C27 1_555 1_555
H37 C28 1_555 1_555
C29 C28 1_555 1_555
C30 C29 1_555 1_555
H38 C30 1_555 1_555
C31 C30 1_555 1_555
H39 C31 1_555 1_555
C32 C27 1_555 1_555
H40 C32 1_555 1_555
C33 B12 1_555 1_555
C34 C33 1_555 1_555
C35 C34 1_555 1_555
H41 C35 1_555 1_555
C36 C35 1_555 1_555
C37 C36 1_555 1_555
H42 C37 1_555 1_555
C38 C33 1_555 1_555
C39 C34 1_555 1_555
H43 C39 1_555 1_555
H44 C39 1_555 1_555
H45 C39 1_555 1_555
C40 C36 1_555 1_555
H46 C40 1_555 1_555
H47 C40 1_555 1_555
H48 C40 1_555 1_555
C41 C38 1_555 1_555
H49 C41 1_555 1_555
H50 C41 1_555 1_555
H51 C41 1_555 1_555
C42 B12 1_555 1_555
C43 C42 1_555 1_555
C44 C43 1_555 1_555
H52 C44 1_555 1_555
C45 C44 1_555 1_555
C46 C45 1_555 1_555
H53 C46 1_555 1_555
C47 C42 1_555 1_555
C48 C43 1_555 1_555
H54 C48 1_555 1_555
H55 C48 1_555 1_555
H56 C48 1_555 1_555
C49 C45 1_555 1_555
H57 C49 1_555 1_555
H58 C49 1_555 1_555
H59 C49 1_555 1_555
C50 C47 1_555 1_555
H60 C50 1_555 1_555
H61 C50 1_555 1_555
H62 C50 1_555 1_555
B2 B7 1_555 1_555
B2 C1 1_555 1_555
B3 B8 1_555 1_555
B3 C1 1_555 1_555
B4 B9 1_555 1_555
B4 C1 1_555 1_555
B4 C2 1_555 1_555
B5 B6 1_555 1_555
B5 B9 1_555 1_555
B5 C2 1_555 1_555
B6 B7 1_555 1_555
B6 B10 1_555 1_555
B6 C2 1_555 1_555
B7 B8 1_555 1_555
B7 B10 1_555 1_555
B8 B9 1_555 1_555
B8 B10 1_555 1_555
B9 B10 1_555 1_555
C1 C2 1_555 1_555
C7 C8 1_555 1_555
C13 C14 1_555 1_555
C22 C23 1_555 1_555
C31 C32 1_555 1_555
C37 C38 1_555 1_555
C46 C47 1_555 1_555

#END
