
#######################################################################
#
#                 Cambridge Crystallographic Data Centre
#                                CCDC 
#
#######################################################################
#
# If this CIF has been generated from an entry in the Cambridge 
# Structural Database, then it will include bibliographic, chemical, 
# crystal, experimental, refinement or atomic coordinate data resulting 
# from the CCDC's data processing and validation procedures.
#
#######################################################################

data_TULWII
_chemical_formula_moiety         'C19 H17 Cl1 N1 O1 P1'
_chemical_name_systematic        
2-(Chloromethyl)-6-((diphenylphosphoryl)methyl)pyridine
_symmetry_cell_setting           triclinic
_symmetry_space_group_name_H-M   'P -1'
_symmetry_Int_Tables_number      2
_space_group_name_Hall           '-P 1'
loop_
_symmetry_equiv_pos_site_id
_symmetry_equiv_pos_as_xyz
1 x,y,z
2 -x,-y,-z
_cell_length_a                   8.1110(4)
_cell_length_b                   8.5777(3)
_cell_length_c                   12.2437(6)
_cell_angle_alpha                80.667(2)
_cell_angle_beta                 78.769(3)
_cell_angle_gamma                84.168(2)
_cell_volume                     822.306
_exptl_crystal_colour            colorless
_exptl_crystal_description       block
_chemical_melting_point          '391 K'
_cell_formula_units_Z            2
_exptl_crystal_recrystallization_method 'Dichloromethane/diethyl ether'
loop_
_atom_site_label
_atom_site_type_symbol
_atom_site_fract_x
_atom_site_fract_y
_atom_site_fract_z
P1 P 0.78751(5) 0.15859(4) 0.70002(3)
O1 O 0.93750(14) 0.04367(13) 0.68778(10)
N1 N 0.75142(17) -0.10131(15) 0.94755(11)
Cl1 Cl 0.71170(6) -0.44966(5) 1.10148(5)
C1 C 0.8828(2) -0.32318(19) 1.05415(15)
H1 H 0.9596 -0.342 1.1094
H2 H 0.9475 -0.3495 0.9813
C2 C 0.8199(2) -0.15182(18) 1.04016(13)
C3 C 0.8357(2) -0.0540(2) 1.11616(14)
H3 H 0.8848 -0.094 1.1805
C4 C 0.7782(2) 0.1042(2) 1.09625(14)
H4 H 0.7876 0.1748 1.1467
C5 C 0.7071(2) 0.15752(19) 1.00190(14)
H5 H 0.6659 0.2651 0.987
C6 C 0.69666(19) 0.05165(18) 0.92905(13)
C7 C 0.6264(2) 0.10204(18) 0.82240(13)
H6 H 0.5422 0.1928 0.833
H7 H 0.5677 0.0138 0.8081
C8 C 0.8465(2) 0.35342(17) 0.70816(13)
C9 C 1.0065(2) 0.3926(2) 0.65084(15)
H8 H 1.0785 0.3175 0.6115
C10 C 1.0609(3) 0.5411(2) 0.65112(16)
H9 H 1.1693 0.5677 0.611
C11 C 0.9581(2) 0.6501(2) 0.70954(16)
H10 H 0.9956 0.7514 0.7096
C12 C 0.8004(2) 0.61149(19) 0.76786(15)
H11 H 0.7306 0.6859 0.8091
C13 C 0.7432(2) 0.46439(18) 0.76661(14)
H12 H 0.6337 0.4395 0.8056
C14 C 0.6795(2) 0.17989(17) 0.58222(13)
C15 C 0.5355(2) 0.28268(19) 0.57337(14)
H13 H 0.489 0.3438 0.6317
C16 C 0.4610(2) 0.2950(2) 0.47935(15)
H14 H 0.3638 0.3651 0.473
C17 C 0.5282(2) 0.2053(2) 0.39455(15)
H15 H 0.4768 0.2142 0.3302
C18 C 0.6698(2) 0.1026(2) 0.40308(14)
H16 H 0.715 0.0409 0.345
C19 C 0.7455(2) 0.09015(18) 0.49687(13)
H17 H 0.8428 0.0199 0.5027
loop_
_geom_bond_atom_site_label_1
_geom_bond_atom_site_label_2
_geom_bond_site_symmetry_1
_geom_bond_site_symmetry_2
P1 O1 1_555 1_555
N1 C2 1_555 1_555
Cl1 C1 1_555 1_555
C1 H1 1_555 1_555
H2 C1 1_555 1_555
C2 C1 1_555 1_555
C3 C2 1_555 1_555
H3 C3 1_555 1_555
C4 C3 1_555 1_555
H4 C4 1_555 1_555
C5 C4 1_555 1_555
H5 C5 1_555 1_555
C6 N1 1_555 1_555
C7 P1 1_555 1_555
H6 C7 1_555 1_555
H7 C7 1_555 1_555
C8 P1 1_555 1_555
C9 C8 1_555 1_555
H8 C9 1_555 1_555
C10 C9 1_555 1_555
H9 C10 1_555 1_555
C11 C10 1_555 1_555
H10 C11 1_555 1_555
C12 C11 1_555 1_555
H11 C12 1_555 1_555
C13 C8 1_555 1_555
H12 C13 1_555 1_555
C14 P1 1_555 1_555
C15 C14 1_555 1_555
H13 C15 1_555 1_555
C16 C15 1_555 1_555
H14 C16 1_555 1_555
C17 C16 1_555 1_555
H15 C17 1_555 1_555
C18 C17 1_555 1_555
H16 C18 1_555 1_555
C19 C14 1_555 1_555
H17 C19 1_555 1_555
C5 C6 1_555 1_555
C6 C7 1_555 1_555
C12 C13 1_555 1_555
C18 C19 1_555 1_555

#END
