
#######################################################################
#
#                 Cambridge Crystallographic Data Centre
#                                CCDC 
#
#######################################################################
#
# If this CIF has been generated from an entry in the Cambridge 
# Structural Database, then it will include bibliographic, chemical, 
# crystal, experimental, refinement or atomic coordinate data resulting 
# from the CCDC's data processing and validation procedures.
#
#######################################################################

data_TULYOQ
_chemical_formula_moiety         'C15 H18 O8'
_chemical_name_systematic        
6,9,12-trihydroxy-2,11-dimethyl-4,8,14-trioxapentacyclo[7.4.2.1^7,10^.0^1,10^.0^2,6^]hexadecane-5,15-dione
_symmetry_cell_setting           orthorhombic
_symmetry_space_group_name_H-M   'P 21 21 21'
_symmetry_Int_Tables_number      19
_space_group_name_Hall           'P 2ac 2ab'
loop_
_symmetry_equiv_pos_site_id
_symmetry_equiv_pos_as_xyz
1 x,y,z
2 1/2-x,-y,1/2+z
3 1/2+x,1/2-y,-z
4 -x,1/2+y,1/2-z
_cell_length_a                   7.3608(3)
_cell_length_b                   13.4259(6)
_cell_length_c                   13.9975(6)
_cell_angle_alpha                90
_cell_angle_beta                 90
_cell_angle_gamma                90
_cell_volume                     1383.31
_cell_formula_units_Z            4
loop_
_atom_site_label
_atom_site_type_symbol
_atom_site_fract_x
_atom_site_fract_y
_atom_site_fract_z
O1 O 0.9850(3) 0.71314(16) 0.26992(14)
H1 H 1.0289 0.6938 0.2194
O2 O 0.5542(2) 0.49348(13) 0.27578(12)
O3 O 0.5706(3) 0.36439(14) 0.57533(13)
H2 H 0.6405 0.3175 0.5674
O4 O 0.3151(2) 0.53490(13) 0.43074(13)
O5 O 0.3127(2) 0.69687(13) 0.37311(14)
H3 H 0.2176 0.6915 0.3430
O6 O 0.3071(3) 0.56292(16) 0.21053(15)
O7 O 0.2570(3) 0.31193(14) 0.45140(16)
O8 O 0.5002(3) 0.29230(14) 0.36014(14)
C1 C 0.7314(3) 0.69602(19) 0.38116(18)
H4 H 0.8273 0.6965 0.4297
C2 C 0.8201(4) 0.6604(2) 0.28832(19)
H5 H 0.7358 0.6690 0.2348
C3 C 0.8536(4) 0.5501(2) 0.3061(2)
H6 H 0.8719 0.5146 0.2464
H7 H 0.9589 0.5401 0.3466
C4 C 0.6810(3) 0.51560(19) 0.35556(17)
C5 C 0.7003(3) 0.42036(18) 0.41874(17)
C6 C 0.5303(3) 0.40886(18) 0.48557(18)
C7 C 0.4332(3) 0.50680(18) 0.50899(18)
H8 H 0.3643 0.5009 0.5686
C8 C 0.5696(4) 0.59139(18) 0.51500(17)
H9 H 0.6803 0.5712 0.5472
H10 H 0.5190 0.6494 0.5466
C9 C 0.6008(3) 0.60986(18) 0.40801(17)
C10 C 0.4042(3) 0.60825(19) 0.37105(18)
C11 C 0.4109(4) 0.55595(19) 0.27521(19)
C12 C 0.4112(3) 0.33563(18) 0.4313(2)
C13 C 0.8825(4) 0.4220(2) 0.4720(2)
H11 H 0.8831 0.3710 0.5200
H12 H 0.8990 0.4859 0.5016
H13 H 0.9795 0.4102 0.4275
C14 C 0.6883(4) 0.32581(19) 0.3573(2)
H14 H 0.7242 0.3402 0.2921
H15 H 0.7680 0.2747 0.3825
C15 C 0.6571(4) 0.8016(2) 0.3763(2)
H16 H 0.7524 0.8464 0.3578
H17 H 0.6111 0.8206 0.4378
H18 H 0.5607 0.8045 0.3301
loop_
_geom_bond_atom_site_label_1
_geom_bond_atom_site_label_2
_geom_bond_site_symmetry_1
_geom_bond_site_symmetry_2
O1 H1 1_555 1_555
O2 C4 1_555 1_555
O3 H2 1_555 1_555
O4 C7 1_555 1_555
O5 H3 1_555 1_555
O6 C11 1_555 1_555
O7 C12 1_555 1_555
O8 C12 1_555 1_555
C1 H4 1_555 1_555
C2 O1 1_555 1_555
H5 C2 1_555 1_555
C3 C2 1_555 1_555
H6 C3 1_555 1_555
H7 C3 1_555 1_555
C4 C3 1_555 1_555
C5 C4 1_555 1_555
C6 O3 1_555 1_555
C7 C6 1_555 1_555
H8 C7 1_555 1_555
C8 C7 1_555 1_555
H9 C8 1_555 1_555
H10 C8 1_555 1_555
C9 C1 1_555 1_555
C10 O4 1_555 1_555
C11 O2 1_555 1_555
C12 C6 1_555 1_555
C13 C5 1_555 1_555
H11 C13 1_555 1_555
H12 C13 1_555 1_555
H13 C13 1_555 1_555
C14 O8 1_555 1_555
H14 C14 1_555 1_555
H15 C14 1_555 1_555
C15 C1 1_555 1_555
H16 C15 1_555 1_555
H17 C15 1_555 1_555
H18 C15 1_555 1_555
O5 C10 1_555 1_555
C1 C2 1_555 1_555
C4 C9 1_555 1_555
C5 C6 1_555 1_555
C5 C14 1_555 1_555
C8 C9 1_555 1_555
C9 C10 1_555 1_555
C10 C11 1_555 1_555

#END
