
#######################################################################
#
#                 Cambridge Crystallographic Data Centre
#                                CCDC 
#
#######################################################################
#
# If this CIF has been generated from an entry in the Cambridge 
# Structural Database, then it will include bibliographic, chemical, 
# crystal, experimental, refinement or atomic coordinate data resulting 
# from the CCDC's data processing and validation procedures.
#
#######################################################################

data_TUMSEA
_chemical_formula_moiety         'C25 H17 Br1 N4'
_chemical_name_systematic        
4-(2-Bromophenyl)-6-(1H-indol-3-yl)-1,4-dihydro-2,2'-bipyridine-5-carbonitrile
_symmetry_cell_setting           triclinic
_symmetry_space_group_name_H-M   'P -1'
_symmetry_Int_Tables_number      2
_space_group_name_Hall           '-P 1'
loop_
_symmetry_equiv_pos_site_id
_symmetry_equiv_pos_as_xyz
1 x,y,z
2 -x,-y,-z
_cell_length_a                   11.286(2)
_cell_length_b                   13.516(2)
_cell_length_c                   14.423(3)
_cell_angle_alpha                90.685(2)
_cell_angle_beta                 108.077(3)
_cell_angle_gamma                102.674(3)
_cell_volume                     2032.94
_exptl_crystal_colour            colorless
_exptl_crystal_description       block
_chemical_melting_point          '262-264 deg.C'
_cell_formula_units_Z            4
loop_
_atom_site_label
_atom_site_type_symbol
_atom_site_fract_x
_atom_site_fract_y
_atom_site_fract_z
Br1 Br 0.07148(5) 0.62848(4) 0.62355(4)
N1 N 0.1958(4) 0.2928(3) 0.8869(2)
H1 H 0.2190 0.2437 0.9213
N2 N 0.2300(4) 0.0768(3) 0.6553(3)
H2 H 0.2094 0.0350 0.6034
N3 N 0.1788(4) 0.3911(3) 0.5652(3)
N4 N 0.1807(4) 0.2645(3) 1.0634(3)
C1 C 0.1955(4) 0.2926(3) 0.7910(3)
C2 C 0.1680(4) 0.3711(3) 0.7387(3)
C3 C 0.1429(4) 0.4657(3) 0.7813(3)
H3 H 0.0604 0.4768 0.7382
C4 C 0.1316(4) 0.4491(3) 0.8818(3)
H4 H 0.1034 0.4973 0.9118
C5 C 0.1598(4) 0.3694(3) 0.9303(3)
C6 C 0.2291(4) 0.2045(3) 0.7556(3)
C7 C 0.1716(4) 0.1533(3) 0.6638(3)
H5 H 0.1027 0.1687 0.6146
C8 C 0.3263(4) 0.0758(3) 0.7413(3)
C9 C 0.4105(5) 0.0127(4) 0.7676(4)
H6 H 0.4068 -0.0405 0.7235
C10 C 0.4976(5) 0.0289(4) 0.8575(4)
H7 H 0.5550 -0.0137 0.8760
C11 C 0.5050(5) 0.1081(4) 0.9245(4)
H8 H 0.5673 0.1179 0.9868
C12 C 0.4223(4) 0.1713(4) 0.9001(3)
H9 H 0.4279 0.2244 0.9451
C13 C 0.3288(4) 0.1559(3) 0.8066(3)
C14 C 0.1754(4) 0.3776(3) 0.6425(3)
C15 C 0.2489(4) 0.5592(3) 0.7832(3)
C16 C 0.2335(4) 0.6330(3) 0.7184(3)
C17 C 0.3317(5) 0.7147(4) 0.7184(4)
H10 H 0.3180 0.7629 0.6721
C18 C 0.4499(6) 0.7238(4) 0.7877(5)
H11 H 0.5176 0.7794 0.7897
C19 C 0.4696(5) 0.6514(5) 0.8545(4)
H12 H 0.5511 0.6578 0.9009
C20 C 0.3707(4) 0.5697(4) 0.8537(3)
H13 H 0.3846 0.5216 0.8999
C21 C 0.1579(4) 0.3536(3) 1.0306(3)
C22 C 0.1357(4) 0.4272(4) 1.0881(3)
H14 H 0.1221 0.4894 1.0636
C23 C 0.1343(4) 0.4073(4) 1.1814(3)
H15 H 0.1185 0.4553 1.2210
C24 C 0.1562(5) 0.3162(4) 1.2158(3)
H16 H 0.1550 0.3004 1.2788
C25 C 0.1798(5) 0.2493(4) 1.1554(3)
H17 H 0.1967 0.1880 1.1801
Br2 Br 0.04823(5) 1.12946(4) 0.39908(3)
N5 N 0.1791(4) 0.7878(3) 0.1975(2)
H18 H 0.1931 0.7380 0.1669
N6 N 0.2361(4) 0.5587(3) 0.4297(3)
H19 H 0.2214 0.5149 0.4709
N7 N 0.1945(4) 0.8738(3) 0.5256(3)
N8 N 0.1640(4) 0.7730(3) 0.0127(3)
C26 C 0.1861(4) 0.7805(3) 0.2940(3)
C27 C 0.1628(4) 0.8581(3) 0.3418(3)
C28 C 0.1343(4) 0.9552(3) 0.2958(3)
H20 H 0.0507 0.9629 0.2998
C29 C 0.1269(4) 0.9478(3) 0.1903(3)
H21 H 0.1040 1.0009 0.1524
C30 C 0.1510(4) 0.8700(3) 0.1471(3)
C31 C 0.2228(4) 0.6908(3) 0.3374(3)
C32 C 0.1776(4) 0.6369(3) 0.4046(3)
H22 H 0.1152 0.6518 0.4295
C33 C 0.3227(4) 0.5598(3) 0.3794(3)
C34 C 0.4045(5) 0.4957(4) 0.3828(3)
H23 H 0.4060 0.4409 0.4224
C35 C 0.4830(5) 0.5154(4) 0.3259(4)
H24 H 0.5391 0.4732 0.3261
C36 C 0.4808(5) 0.5972(4) 0.2676(4)
H25 H 0.5363 0.6092 0.2299
C37 C 0.3998(4) 0.6608(4) 0.2641(3)
H26 H 0.3999 0.7157 0.2248
C38 C 0.3180(4) 0.6422(3) 0.3197(3)
C39 C 0.1803(4) 0.8609(3) 0.4429(3)
C40 C 0.2393(4) 1.0466(3) 0.3536(3)
C41 C 0.2169(4) 1.1264(3) 0.4022(3)
C42 C 0.3152(5) 1.2052(4) 0.4581(3)
H27 H 0.2977 1.2580 0.4908
C43 C 0.4398(5) 1.2041(4) 0.4643(4)
H28 H 0.5076 1.2571 0.5016
C44 C 0.4663(5) 1.1271(4) 0.4171(4)
H29 H 0.5517 1.1278 0.4229
C45 C 0.3685(5) 1.0486(4) 0.3611(3)
H30 H 0.3873 0.9967 0.3280
C46 C 0.1531(4) 0.8633(3) 0.0446(3)
C47 C 0.1467(4) 0.9440(3) -0.0134(3)
H31 H 0.1369 1.0058 0.0102
C48 C 0.1548(4) 0.9330(4) -0.1065(3)
H32 H 0.1518 0.9874 -0.1465
C49 C 0.1672(5) 0.8417(4) -0.1397(3)
H33 H 0.1727 0.8320 -0.2027
C50 C 0.1714(5) 0.7644(4) -0.0779(3)
H34 H 0.1800 0.7018 -0.1008
loop_
_geom_bond_atom_site_label_1
_geom_bond_atom_site_label_2
_geom_bond_site_symmetry_1
_geom_bond_site_symmetry_2
Br1 C16 1_555 1_555
N1 H1 1_555 1_555
N2 H2 1_555 1_555
N3 C14 1_555 1_555
N4 C21 1_555 1_555
C1 N1 1_555 1_555
C2 C1 1_555 1_555
C3 C2 1_555 1_555
H3 C3 1_555 1_555
C4 C3 1_555 1_555
H4 C4 1_555 1_555
C5 N1 1_555 1_555
C6 C1 1_555 1_555
C7 N2 1_555 1_555
H5 C7 1_555 1_555
C8 N2 1_555 1_555
C9 C8 1_555 1_555
H6 C9 1_555 1_555
C10 C9 1_555 1_555
H7 C10 1_555 1_555
C11 C10 1_555 1_555
H8 C11 1_555 1_555
C12 C11 1_555 1_555
H9 C12 1_555 1_555
C13 C6 1_555 1_555
C14 C2 1_555 1_555
C15 C3 1_555 1_555
C16 C15 1_555 1_555
C17 C16 1_555 1_555
H10 C17 1_555 1_555
C18 C17 1_555 1_555
H11 C18 1_555 1_555
C19 C18 1_555 1_555
H12 C19 1_555 1_555
C20 C15 1_555 1_555
H13 C20 1_555 1_555
C21 C5 1_555 1_555
C22 C21 1_555 1_555
H14 C22 1_555 1_555
C23 C22 1_555 1_555
H15 C23 1_555 1_555
C24 C23 1_555 1_555
H16 C24 1_555 1_555
C25 N4 1_555 1_555
H17 C25 1_555 1_555
Br2 C41 1_555 1_555
N5 H18 1_555 1_555
N6 H19 1_555 1_555
N7 C39 1_555 1_555
N8 C46 1_555 1_555
C26 N5 1_555 1_555
C27 C26 1_555 1_555
C28 C27 1_555 1_555
H20 C28 1_555 1_555
C29 C28 1_555 1_555
H21 C29 1_555 1_555
C30 N5 1_555 1_555
C31 C26 1_555 1_555
C32 N6 1_555 1_555
H22 C32 1_555 1_555
C33 N6 1_555 1_555
C34 C33 1_555 1_555
H23 C34 1_555 1_555
C35 C34 1_555 1_555
H24 C35 1_555 1_555
C36 C35 1_555 1_555
H25 C36 1_555 1_555
C37 C36 1_555 1_555
H26 C37 1_555 1_555
C38 C31 1_555 1_555
C39 C27 1_555 1_555
C40 C28 1_555 1_555
C41 C40 1_555 1_555
C42 C41 1_555 1_555
H27 C42 1_555 1_555
C43 C42 1_555 1_555
H28 C43 1_555 1_555
C44 C43 1_555 1_555
H29 C44 1_555 1_555
C45 C40 1_555 1_555
H30 C45 1_555 1_555
C46 C30 1_555 1_555
C47 C46 1_555 1_555
H31 C47 1_555 1_555
C48 C47 1_555 1_555
H32 C48 1_555 1_555
C49 C48 1_555 1_555
H33 C49 1_555 1_555
C50 N8 1_555 1_555
H34 C50 1_555 1_555
C4 C5 1_555 1_555
C6 C7 1_555 1_555
C8 C13 1_555 1_555
C12 C13 1_555 1_555
C19 C20 1_555 1_555
C24 C25 1_555 1_555
C29 C30 1_555 1_555
C31 C32 1_555 1_555
C33 C38 1_555 1_555
C37 C38 1_555 1_555
C44 C45 1_555 1_555
C49 C50 1_555 1_555

#END
