
#######################################################################
#
#                 Cambridge Crystallographic Data Centre
#                                CCDC 
#
#######################################################################
#
# If this CIF has been generated from an entry in the Cambridge 
# Structural Database, then it will include bibliographic, chemical, 
# crystal, experimental, refinement or atomic coordinate data resulting 
# from the CCDC's data processing and validation procedures.
#
#######################################################################

data_TUMWAB
_chemical_formula_moiety         'C7 H3 N2 O7 1-,C3 H5 N2 1+'
_chemical_name_systematic        
'1H-imidazol-3-ium 2-carboxy-4,6-dinitrophenolate'
_symmetry_cell_setting           triclinic
_symmetry_space_group_name_H-M   'P -1'
_symmetry_Int_Tables_number      2
_space_group_name_Hall           '-P 1'
loop_
_symmetry_equiv_pos_site_id
_symmetry_equiv_pos_as_xyz
1 x,y,z
2 -x,-y,-z
_cell_length_a                   7.3901(7)
_cell_length_b                   8.2691(6)
_cell_length_c                   10.8120(10)
_cell_angle_alpha                70.6800(10)
_cell_angle_beta                 83.041(2)
_cell_angle_gamma                76.1560(10)
_cell_volume                     604.759
_exptl_crystal_colour            colorless
_exptl_crystal_description       block
_cell_formula_units_Z            2
loop_
_atom_site_label
_atom_site_type_symbol
_atom_site_fract_x
_atom_site_fract_y
_atom_site_fract_z
N1 N 0.7509(3) 0.0526(3) 0.17783(19)
H1 H 0.6880 -0.0157 0.2346
N2 N 0.9529(3) 0.2056(3) 0.0938(2)
H2 H 1.0451 0.2556 0.0857
C1 C 0.8926(4) 0.1035(4) 0.2025(3)
H3 H 0.9424 0.0721 0.2842
C2 C 0.8476(4) 0.2204(4) -0.0041(3)
H4 H 0.8618 0.2851 -0.0919
C3 C 0.7189(4) 0.1248(4) 0.0483(2)
H5 H 0.6258 0.1107 0.0045
N3 N 0.3407(3) 0.7995(3) 0.3312(2)
N4 N 0.2131(3) 0.4376(3) 0.7728(2)
O1 O 0.7645(3) 0.6810(3) 0.81668(17)
O2 O 0.8383(3) 0.8365(3) 0.61558(16)
H6 H 0.7998 0.8645 0.5418
O3 O 0.6518(2) 0.8708(2) 0.43167(14)
O4 O 0.4441(3) 0.8730(3) 0.24647(17)
O5 O 0.1939(3) 0.7778(3) 0.30616(19)
O6 O 0.0914(3) 0.4004(3) 0.7262(2)
O7 O 0.2445(3) 0.3837(3) 0.88886(19)
C4 C 0.7356(4) 0.7354(4) 0.7004(2)
C5 C 0.5817(3) 0.6969(3) 0.6465(2)
C6 C 0.5476(3) 0.7724(3) 0.5078(2)
C7 C 0.3915(3) 0.7321(3) 0.4681(2)
C8 C 0.2840(3) 0.6250(3) 0.5531(2)
H7 H 0.1841 0.6005 0.5230
C9 C 0.3256(3) 0.5540(3) 0.6836(2)
C10 C 0.4734(3) 0.5896(3) 0.7300(2)
H8 H 0.4994 0.5404 0.8183
loop_
_geom_bond_atom_site_label_1
_geom_bond_atom_site_label_2
_geom_bond_site_symmetry_1
_geom_bond_site_symmetry_2
N1 H1 1_555 1_555
N2 H2 1_555 1_555
C1 N1 1_555 1_555
H3 C1 1_555 1_555
C2 N2 1_555 1_555
H4 C2 1_555 1_555
C3 N1 1_555 1_555
H5 C3 1_555 1_555
N3 O4 1_555 1_555
N4 O6 1_555 1_555
O1 C4 1_555 1_555
O2 H6 1_555 1_555
O3 C6 1_555 1_555
O5 N3 1_555 1_555
O7 N4 1_555 1_555
C4 O2 1_555 1_555
C5 C4 1_555 1_555
C6 C5 1_555 1_555
C7 N3 1_555 1_555
C8 C7 1_555 1_555
H7 C8 1_555 1_555
C9 N4 1_555 1_555
C10 C5 1_555 1_555
H8 C10 1_555 1_555
N2 C1 1_555 1_555
C2 C3 1_555 1_555
C6 C7 1_555 1_555
C8 C9 1_555 1_555
C9 C10 1_555 1_555

#END
