
#######################################################################
#
#                 Cambridge Crystallographic Data Centre
#                                CCDC 
#
#######################################################################
#
# If this CIF has been generated from an entry in the Cambridge 
# Structural Database, then it will include bibliographic, chemical, 
# crystal, experimental, refinement or atomic coordinate data resulting 
# from the CCDC's data processing and validation procedures.
#
#######################################################################

data_TUNGOA
_chemical_formula_moiety         'C25 H19 O2 P1'
_chemical_name_systematic        
'2-(4-methoxyphenyl)-1-phenyl-1H-benzo[f]phosphindole 1-oxide'
_symmetry_cell_setting           monoclinic
_symmetry_space_group_name_H-M   'P 21'
_symmetry_Int_Tables_number      4
_space_group_name_Hall           'P 2yb'
loop_
_symmetry_equiv_pos_site_id
_symmetry_equiv_pos_as_xyz
1 x,y,z
2 -x,1/2+y,-z
_cell_length_a                   12.2059(5)
_cell_length_b                   6.2367(2)
_cell_length_c                   13.0601(5)
_cell_angle_alpha                90
_cell_angle_beta                 108.2880(10)
_cell_angle_gamma                90
_cell_volume                     943.979
_exptl_crystal_colour            'pale yellow'
_exptl_crystal_description       column
_cell_formula_units_Z            2
_exptl_crystal_recrystallization_method 'dichloromethane and hexane'
loop_
_atom_site_label
_atom_site_type_symbol
_atom_site_fract_x
_atom_site_fract_y
_atom_site_fract_z
P1 P 0.35722(5) 0.36695(11) 0.62866(6)
O1 O 0.36672(16) 0.1399(3) 0.59784(16)
O2 O 0.09597(17) 0.6613(3) 0.11072(16)
C1 C 0.3115(2) 0.6013(4) 0.4293(2)
C2 C 0.4655(2) 0.4733(4) 0.7475(2)
C3 C 0.1702(2) 0.6503(5) 0.2148(2)
C4 C 0.6315(2) 0.7142(5) 0.9026(2)
C5 C 0.5055(2) 0.3958(5) 0.8495(2)
H1 H 0.4764 0.2644 0.8673
C6 C 0.4594(2) 0.7181(4) 0.6023(2)
H2 H 0.4822 0.8413 0.5713
C7 C 0.2397(2) 0.4336(4) 0.3736(2)
H3 H 0.2393 0.3007 0.4090
C8 C 0.5919(2) 0.5126(5) 0.9309(2)
C9 C 0.3113(2) 0.7921(4) 0.3726(2)
H4 H 0.3593 0.9076 0.4076
C10 C 0.2157(2) 0.4235(4) 0.6396(2)
C11 C 0.1701(2) 0.4601(5) 0.2685(2)
H5 H 0.1216 0.3460 0.2327
C12 C 0.5080(2) 0.6692(4) 0.7175(2)
C13 C 0.5866(2) 0.7887(4) 0.7942(2)
H6 H 0.6115 0.9228 0.7750
C14 C 0.2425(2) 0.8153(4) 0.2665(2)
H7 H 0.2447 0.9449 0.2290
C15 C 0.3810(2) 0.5794(4) 0.5431(2)
C16 C 0.0221(2) 0.3078(5) 0.6187(2)
H8 H -0.0352 0.1988 0.6006
C17 C 0.1322(2) 0.2646(4) 0.6138(2)
H9 H 0.1501 0.1265 0.5928
C18 C 0.1882(2) 0.6271(5) 0.6696(2)
H10 H 0.2446 0.7376 0.6863
C19 C 0.6387(2) 0.4385(5) 1.0375(2)
H11 H 0.6129 0.3064 1.0580
C20 C -0.0044(2) 0.5064(5) 0.6495(2)
H12 H -0.0796 0.5341 0.6533
C21 C 0.7165(2) 0.8288(5) 0.9824(2)
H13 H 0.7434 0.9621 0.9644
C22 C 0.7609(2) 0.7509(5) 1.0855(2)
H14 H 0.8181 0.8297 1.1383
C23 C 0.7214(2) 0.5551(5) 1.1122(2)
H15 H 0.7524 0.5015 1.1836
C24 C 0.0786(2) 0.6668(5) 0.6750(2)
H16 H 0.0601 0.8042 0.6963
C25 C 0.0847(3) 0.8628(6) 0.0577(2)
H17 H 0.0607 0.9714 0.1005
H18 H 0.0265 0.8521 -0.0136
H19 H 0.1589 0.9040 0.0495
loop_
_geom_bond_atom_site_label_1
_geom_bond_atom_site_label_2
_geom_bond_site_symmetry_1
_geom_bond_site_symmetry_2
P1 O1 1_555 1_555
O2 C3 1_555 1_555
C1 C7 1_555 1_555
C2 P1 1_555 1_555
C3 C11 1_555 1_555
C4 C8 1_555 1_555
C5 C2 1_555 1_555
H1 C5 1_555 1_555
C6 H2 1_555 1_555
C7 H3 1_555 1_555
C8 C5 1_555 1_555
C9 C1 1_555 1_555
H4 C9 1_555 1_555
C10 P1 1_555 1_555
C11 C7 1_555 1_555
H5 C11 1_555 1_555
C12 C2 1_555 1_555
C13 C4 1_555 1_555
H6 C13 1_555 1_555
C14 C3 1_555 1_555
H7 C14 1_555 1_555
C15 P1 1_555 1_555
C16 H8 1_555 1_555
C17 C10 1_555 1_555
H9 C17 1_555 1_555
C18 C10 1_555 1_555
H10 C18 1_555 1_555
C19 C8 1_555 1_555
H11 C19 1_555 1_555
C20 C16 1_555 1_555
H12 C20 1_555 1_555
C21 C4 1_555 1_555
H13 C21 1_555 1_555
C22 C21 1_555 1_555
H14 C22 1_555 1_555
C23 C19 1_555 1_555
H15 C23 1_555 1_555
C24 C18 1_555 1_555
H16 C24 1_555 1_555
C25 O2 1_555 1_555
H17 C25 1_555 1_555
H18 C25 1_555 1_555
H19 C25 1_555 1_555
C1 C15 1_555 1_555
C6 C12 1_555 1_555
C6 C15 1_555 1_555
C9 C14 1_555 1_555
C12 C13 1_555 1_555
C16 C17 1_555 1_555
C20 C24 1_555 1_555
C22 C23 1_555 1_555

#END
