
#######################################################################
#
#                 Cambridge Crystallographic Data Centre
#                                CCDC 
#
#######################################################################
#
# If this CIF has been generated from an entry in the Cambridge 
# Structural Database, then it will include bibliographic, chemical, 
# crystal, experimental, refinement or atomic coordinate data resulting 
# from the CCDC's data processing and validation procedures.
#
#######################################################################

data_TUNNIA
_chemical_formula_moiety         'C9 H5 Cl2 N1'
_chemical_name_systematic        2,4-Dichloroquinoline
_symmetry_cell_setting           monoclinic
_symmetry_space_group_name_H-M   'P 21/n'
_symmetry_Int_Tables_number      14
_space_group_name_Hall           '-P 2yn'
loop_
_symmetry_equiv_pos_site_id
_symmetry_equiv_pos_as_xyz
1 x,y,z
2 1/2-x,1/2+y,1/2-z
3 -x,-y,-z
4 1/2+x,1/2-y,1/2+z
_cell_length_a                   10.3689(3)
_cell_length_b                   11.9215(3)
_cell_length_c                   13.6380(5)
_cell_angle_alpha                90
_cell_angle_beta                 98.937(3)
_cell_angle_gamma                90
_cell_volume                     1665.37
_exptl_crystal_colour            yellow
_exptl_crystal_description       block
_chemical_melting_point          '335 K'
_cell_formula_units_Z            8
loop_
_atom_site_label
_atom_site_type_symbol
_atom_site_fract_x
_atom_site_fract_y
_atom_site_fract_z
Cl1 Cl 0.13384(3) 0.03305(3) 0.08803(3)
Cl2 Cl 0.52857(3) 0.32412(3) 0.17438(3)
C1 C 0.30194(13) 0.05798(11) 0.10998(10)
C2 C 0.34206(13) 0.16982(11) 0.12943(10)
H1 H 0.2808 0.2290 0.1297
C3 C 0.47285(13) 0.18864(11) 0.14782(10)
C4 C 0.56380(13) 0.09974(11) 0.14534(9)
C5 C 0.70140(13) 0.11242(12) 0.16231(10)
H2 H 0.7389 0.1842 0.1779
C6 C 0.78035(14) 0.02124(13) 0.15621(11)
H3 H 0.8725 0.0303 0.1677
C7 C 0.72627(14) -0.08561(13) 0.13307(10)
H4 H 0.7821 -0.1479 0.1285
C8 C 0.59391(14) -0.10019(12) 0.11718(10)
H5 H 0.5585 -0.1728 0.1021
C9 C 0.50939(13) -0.00843(11) 0.12290(9)
N1 N 0.37727(11) -0.02819(9) 0.10649(8)
Cl3 Cl -0.36457(3) 0.59016(3) 0.06753(3)
Cl4 Cl 0.02870(3) 0.30160(3) 0.16841(3)
C10 C -0.19672(13) 0.56562(11) 0.09168(10)
C11 C -0.15678(13) 0.45494(11) 0.11711(10)
H6 H -0.2182 0.3964 0.1204
C12 C -0.02595(13) 0.43615(11) 0.13660(9)
C13 C 0.06551(13) 0.52382(11) 0.13046(9)
C14 C 0.20256(13) 0.51151(12) 0.14938(10)
H7 H 0.2400 0.4406 0.1684
C15 C 0.28175(14) 0.60210(13) 0.14029(11)
H8 H 0.3739 0.5931 0.1530
C16 C 0.22853(15) 0.70773(13) 0.11250(11)
H9 H 0.2847 0.7694 0.1063
C17 C 0.09590(15) 0.72227(12) 0.09421(10)
H10 H 0.0607 0.7941 0.0756
C18 C 0.01108(13) 0.63129(11) 0.10277(10)
N2 N -0.12097(11) 0.65102(9) 0.08387(8)
loop_
_geom_bond_atom_site_label_1
_geom_bond_atom_site_label_2
_geom_bond_site_symmetry_1
_geom_bond_site_symmetry_2
Cl1 C1 1_555 1_555
Cl2 C3 1_555 1_555
Cl3 C10 1_555 1_555
Cl4 C12 1_555 1_555
C1 C2 1_555 1_555
C2 H1 1_555 1_555
C3 C2 1_555 1_555
C4 C3 1_555 1_555
C5 C4 1_555 1_555
H2 C5 1_555 1_555
C6 C5 1_555 1_555
H3 C6 1_555 1_555
C7 C6 1_555 1_555
H4 C7 1_555 1_555
C8 C7 1_555 1_555
H5 C8 1_555 1_555
C9 C4 1_555 1_555
N1 C1 1_555 1_555
C10 C11 1_555 1_555
C11 H6 1_555 1_555
C12 C11 1_555 1_555
C13 C12 1_555 1_555
C14 C13 1_555 1_555
H7 C14 1_555 1_555
C15 C14 1_555 1_555
H8 C15 1_555 1_555
C16 C15 1_555 1_555
H9 C16 1_555 1_555
C17 C16 1_555 1_555
H10 C17 1_555 1_555
C18 C13 1_555 1_555
N2 C10 1_555 1_555
C8 C9 1_555 1_555
C9 N1 1_555 1_555
C17 C18 1_555 1_555
C18 N2 1_555 1_555

#END
