
#######################################################################
#
#                 Cambridge Crystallographic Data Centre
#                                CCDC 
#
#######################################################################
#
# If this CIF has been generated from an entry in the Cambridge 
# Structural Database, then it will include bibliographic, chemical, 
# crystal, experimental, refinement or atomic coordinate data resulting 
# from the CCDC's data processing and validation procedures.
#
#######################################################################

data_TUNPEY
_chemical_formula_moiety         'C12 H20 N4 2+,2(B1 F4 1-)'
_chemical_name_systematic        
"3,3'-Dimethyl-1,1'-(butane-1,4-diyl)diimidazolium bis(tetrafluoroborate)"
_symmetry_cell_setting           monoclinic
_symmetry_space_group_name_H-M   'P 21/c'
_symmetry_Int_Tables_number      14
_space_group_name_Hall           '-P 2ybc'
loop_
_symmetry_equiv_pos_site_id
_symmetry_equiv_pos_as_xyz
1 x,y,z
2 -x,1/2+y,1/2-z
3 -x,-y,-z
4 x,1/2-y,1/2+z
_cell_length_a                   5.1950(10)
_cell_length_b                   14.836(3)
_cell_length_c                   11.790(2)
_cell_angle_alpha                90
_cell_angle_beta                 99.53(3)
_cell_angle_gamma                90
_cell_volume                     896.15
_exptl_crystal_colour            colorless
_exptl_crystal_description       block
_chemical_melting_point          95-97deg.C
_cell_formula_units_Z            2
_exptl_crystal_recrystallization_method 'dichloromethane/diethyl ether'
loop_
_atom_site_label
_atom_site_type_symbol
_atom_site_fract_x
_atom_site_fract_y
_atom_site_fract_z
N1 N 0.9683(4) 0.16123(13) 0.88401(17)
C1 C 0.9656(7) 0.24171(19) 0.9557(2)
H1 H 1.0716 0.2877 0.9296
H2 H 1.0336 0.2269 1.0343
H3 H 0.7897 0.2632 0.9504
N2 N 1.0555(4) 0.07197(13) 0.75168(16)
C2 C 0.8390(5) 0.08211(17) 0.8951(2)
H4 H 0.7331 0.0695 0.9494
C3 C 0.8937(5) 0.02637(17) 0.8132(2)
H5 H 0.8334 -0.0324 0.8002
C4 C 1.0970(5) 0.15315(16) 0.7964(2)
H6 H 1.1997 0.1975 0.7706
C5 C 1.1592(5) 0.03798(17) 0.6510(2)
H7 H 1.2626 -0.0156 0.6726
H8 H 1.2728 0.0832 0.6261
C6 C 0.9446(5) 0.01564(17) 0.55255(19)
H9 H 0.8367 0.0685 0.5327
H10 H 0.8352 -0.0315 0.5761
N1B N 1.0317(4) -0.16123(13) 0.11599(17)
C1B C 1.0344(7) -0.24171(19) 0.0443(2)
H1B H 0.9284 -0.2877 0.0704
H2B H 0.9664 -0.2269 -0.0343
H3B H 1.2103 -0.2632 0.0496
N2B N 0.9445(4) -0.07197(13) 0.24832(16)
C2B C 1.1610(5) -0.08211(17) 0.1049(2)
H4B H 1.2669 -0.0695 0.0506
C3B C 1.1063(5) -0.02637(17) 0.1868(2)
H5B H 1.1666 0.0324 0.1998
C4B C 0.9030(5) -0.15315(16) 0.2036(2)
H6B H 0.8003 -0.1975 0.2294
C5B C 0.8408(5) -0.03798(17) 0.3490(2)
H7B H 0.7374 0.0156 0.3274
H8B H 0.7272 -0.0832 0.3739
C6B C 1.0554(5) -0.01564(17) 0.44745(19)
H9B H 1.1633 -0.0685 0.4673
H10B H 1.1648 0.0315 0.4239
B1 B 0.5724(6) 0.3204(2) 0.6816(3)
F1 F 0.4655(4) 0.37487(13) 0.59228(16)
F2 F 0.5357(3) 0.23068(11) 0.65187(17)
F3 F 0.4510(3) 0.33750(12) 0.77629(15)
F4 F 0.8355(3) 0.33695(11) 0.70959(16)
loop_
_geom_bond_atom_site_label_1
_geom_bond_atom_site_label_2
_geom_bond_site_symmetry_1
_geom_bond_site_symmetry_2
N1 C1 1_555 1_555
C1 H1 1_555 1_555
H2 C1 1_555 1_555
H3 C1 1_555 1_555
N2 C3 1_555 1_555
C2 N1 1_555 1_555
H4 C2 1_555 1_555
C3 C2 1_555 1_555
H5 C3 1_555 1_555
C4 N1 1_555 1_555
H6 C4 1_555 1_555
C5 N2 1_555 1_555
H7 C5 1_555 1_555
H8 C5 1_555 1_555
C6 C5 1_555 1_555
H9 C6 1_555 1_555
H10 C6 1_555 1_555
B1 F1 1_555 1_555
F2 B1 1_555 1_555
F3 B1 1_555 1_555
F4 B1 1_555 1_555
N1B C1B 1_555 1_555
C1B H1B 1_555 1_555
H2B C1B 1_555 1_555
H3B C1B 1_555 1_555
N2B C3B 1_555 1_555
C2B N1B 1_555 1_555
H4B C2B 1_555 1_555
C3B C2B 1_555 1_555
H5B C3B 1_555 1_555
C4B N1B 1_555 1_555
H6B C4B 1_555 1_555
C5B N2B 1_555 1_555
H7B C5B 1_555 1_555
H8B C5B 1_555 1_555
C6B C6 1_555 1_555
H9B C6B 1_555 1_555
H10B C6B 1_555 1_555
N2 C4 1_555 1_555
N2B C4B 1_555 1_555
C5B C6B 1_555 1_555

#END
