
#######################################################################
#
#                 Cambridge Crystallographic Data Centre
#                                CCDC 
#
#######################################################################
#
# If this CIF has been generated from an entry in the Cambridge 
# Structural Database, then it will include bibliographic, chemical, 
# crystal, experimental, refinement or atomic coordinate data resulting 
# from the CCDC's data processing and validation procedures.
#
#######################################################################

data_TUNQUO
_chemical_formula_moiety         'C18 H19 N3 O1'
_chemical_name_systematic        
1-(2-Aminophenyl)-5-ethoxy-4-methyl-3-phenylpyrazole
_symmetry_cell_setting           orthorhombic
_symmetry_space_group_name_H-M   'P b c a'
_symmetry_Int_Tables_number      61
_space_group_name_Hall           '-P 2ac 2ab'
loop_
_symmetry_equiv_pos_site_id
_symmetry_equiv_pos_as_xyz
1 x,y,z
2 1/2-x,-y,1/2+z
3 1/2+x,1/2-y,-z
4 -x,1/2+y,1/2-z
5 -x,-y,-z
6 1/2+x,y,1/2-z
7 1/2-x,1/2+y,z
8 x,1/2-y,1/2+z
_cell_length_a                   16.86(2)
_cell_length_b                   8.070(6)
_cell_length_c                   24.11(2)
_cell_angle_alpha                90
_cell_angle_beta                 90
_cell_angle_gamma                90
_cell_volume                     3280.41
_chemical_melting_point          95-97deg.C
_cell_formula_units_Z            8
loop_
_atom_site_label
_atom_site_type_symbol
_atom_site_fract_x
_atom_site_fract_y
_atom_site_fract_z
N1 N 0.3595(3) 0.2712(8) 0.2926(3)
N2 N 0.3846(4) 0.2829(8) 0.2389(3)
C1 C 0.3155(5) 0.2805(9) 0.2080(4)
C2 C 0.2484(5) 0.2668(10) 0.2425(3)
C3 C 0.2788(4) 0.2638(10) 0.2940(4)
C4 C 0.4169(5) 0.2699(11) 0.3372(4)
C5 C 0.4757(5) 0.1556(11) 0.3389(4)
C6 C 0.5287(5) 0.1573(12) 0.3835(5)
C7 C 0.5215(6) 0.2652(14) 0.4251(5)
C8 C 0.4628(6) 0.3838(14) 0.4257(4)
C9 C 0.4102(5) 0.3864(10) 0.3804(4)
N3 N 0.4784(4) 0.0356(11) 0.2969(4)
C10 C 0.3225(6) 0.2929(11) 0.1487(4)
C11 C 0.3862(5) 0.2193(12) 0.1218(4)
C12 C 0.3916(6) 0.2373(12) 0.0659(5)
C13 C 0.3366(7) 0.3220(13) 0.0356(4)
C14 C 0.2740(6) 0.3932(12) 0.0641(5)
C15 C 0.2665(6) 0.3807(12) 0.1195(4)
C16 C 0.1641(4) 0.2452(10) 0.2256(3)
O1 O 0.2450(3) 0.2385(6) 0.3467(2)
C17 C 0.1813(5) 0.3465(11) 0.3620(4)
C18 C 0.1600(6) 0.3332(13) 0.4201(4)
loop_
_geom_bond_atom_site_label_1
_geom_bond_atom_site_label_2
_geom_bond_site_symmetry_1
_geom_bond_site_symmetry_2
N1 N2 1_555 1_555
N2 C1 1_555 1_555
C1 C2 1_555 1_555
C2 C3 1_555 1_555
C3 N1 1_555 1_555
C4 N1 1_555 1_555
C5 C4 1_555 1_555
C6 C5 1_555 1_555
C7 C6 1_555 1_555
C8 C7 1_555 1_555
C9 C4 1_555 1_555
N3 C5 1_555 1_555
C10 C1 1_555 1_555
C11 C10 1_555 1_555
C12 C11 1_555 1_555
C13 C12 1_555 1_555
C14 C13 1_555 1_555
C15 C10 1_555 1_555
C16 C2 1_555 1_555
O1 C3 1_555 1_555
C17 O1 1_555 1_555
C18 C17 1_555 1_555
C8 C9 1_555 1_555
C14 C15 1_555 1_555

#END
