
#######################################################################
#
#                 Cambridge Crystallographic Data Centre
#                                CCDC 
#
#######################################################################
#
# If this CIF has been generated from an entry in the Cambridge 
# Structural Database, then it will include bibliographic, chemical, 
# crystal, experimental, refinement or atomic coordinate data resulting 
# from the CCDC's data processing and validation procedures.
#
#######################################################################

data_TUNRAV
_chemical_formula_moiety         'C16 H13 N3'
_chemical_name_systematic        3-Methyl-2-phenylpyrazolo(5,1-b)benzimidazole
_symmetry_cell_setting           orthorhombic
_symmetry_space_group_name_H-M   'P b c a'
_symmetry_Int_Tables_number      61
_space_group_name_Hall           '-P 2ac 2ab'
loop_
_symmetry_equiv_pos_site_id
_symmetry_equiv_pos_as_xyz
1 x,y,z
2 1/2-x,-y,1/2+z
3 1/2+x,1/2-y,-z
4 -x,1/2+y,1/2-z
5 -x,-y,-z
6 1/2+x,y,1/2-z
7 1/2-x,1/2+y,z
8 x,1/2-y,1/2+z
_cell_length_a                   11.302(4)
_cell_length_b                   10.220(5)
_cell_length_c                   22.683(8)
_cell_angle_alpha                90
_cell_angle_beta                 90
_cell_angle_gamma                90
_cell_volume                     2620.03
_chemical_melting_point          252-254deg.C
_cell_formula_units_Z            8
loop_
_atom_site_label
_atom_site_type_symbol
_atom_site_fract_x
_atom_site_fract_y
_atom_site_fract_z
N1 N 0.3612(1) 0.1137(1) 0.8053(1)
C1 C 0.2847(1) 0.1847(2) 0.8383(1)
C2 C 0.1712(1) 0.1969(2) 0.8129(1)
C3 C 0.1812(1) 0.1280(2) 0.7613(1)
N2 N 0.1212(1) 0.0858(2) 0.7123(1)
C4 C 0.1988(1) 0.0126(2) 0.6779(1)
C5 C 0.1829(1) -0.0500(2) 0.6245(1)
C6 C 0.2779(2) -0.1171(2) 0.6015(1)
C7 C 0.3860(2) -0.1223(2) 0.6301(1)
C8 C 0.4031(1) -0.0591(2) 0.6832(1)
C9 C 0.3086(1) 0.0078(2) 0.7064(1)
N3 N 0.2934(1) 0.0800(1) 0.7578(1)
C10 C 0.3259(1) 0.2364(2) 0.8952(1)
C11 C 0.2977(2) 0.3621(2) 0.9134(1)
C12 C 0.3384(2) 0.4106(2) 0.9662(1)
C13 C 0.4084(2) 0.3360(2) 1.0021(1)
C14 C 0.4390(2) 0.2113(2) 0.9850(1)
C15 C 0.3966(2) 0.1615(2) 0.9320(1)
C16 C 0.0624(1) 0.2633(2) 0.8365(1)
loop_
_geom_bond_atom_site_label_1
_geom_bond_atom_site_label_2
_geom_bond_site_symmetry_1
_geom_bond_site_symmetry_2
N1 C1 1_555 1_555
C1 C2 1_555 1_555
C2 C3 1_555 1_555
C3 N2 1_555 1_555
N2 C4 1_555 1_555
C4 C5 1_555 1_555
C5 C6 1_555 1_555
C6 C7 1_555 1_555
C7 C8 1_555 1_555
C8 C9 1_555 1_555
C9 C4 1_555 1_555
N3 N1 1_555 1_555
C10 C1 1_555 1_555
C11 C10 1_555 1_555
C12 C11 1_555 1_555
C13 C12 1_555 1_555
C14 C13 1_555 1_555
C15 C10 1_555 1_555
C16 C2 1_555 1_555
C3 N3 1_555 1_555
C9 N3 1_555 1_555
C14 C15 1_555 1_555

#END
