
#######################################################################
#
#                 Cambridge Crystallographic Data Centre
#                                CCDC 
#
#######################################################################
#
# If this CIF has been generated from an entry in the Cambridge 
# Structural Database, then it will include bibliographic, chemical, 
# crystal, experimental, refinement or atomic coordinate data resulting 
# from the CCDC's data processing and validation procedures.
#
#######################################################################

data_TUNSEA01
_chemical_name_common            
(E)-2-(4-nitrobenzylidene)-2,3-dihydro-1H-tetral-1-one
_chemical_formula_moiety         'C17 H13 N1 O3'
_chemical_name_systematic        
(E)-2-(4-nitrobenzylidene)-3,4-dihydronaphthalen-1(2H)-one
_symmetry_cell_setting           triclinic
_symmetry_space_group_name_H-M   'P -1'
_symmetry_Int_Tables_number      2
_space_group_name_Hall           '-P 1'
loop_
_symmetry_equiv_pos_site_id
_symmetry_equiv_pos_as_xyz
1 x,y,z
2 -x,-y,-z
_cell_length_a                   7.8732(2)
_cell_length_b                   11.7558(3)
_cell_length_c                   14.5546(4)
_cell_angle_alpha                81.045(2)
_cell_angle_beta                 82.539(2)
_cell_angle_gamma                77.567(2)
_cell_volume                     1292.99
_exptl_crystal_colour            yellow
_exptl_crystal_description       block
_cell_formula_units_Z            4
loop_
_atom_site_label
_atom_site_type_symbol
_atom_site_fract_x
_atom_site_fract_y
_atom_site_fract_z
O1 O 1.04562(10) 0.83893(7) 0.23314(6)
O2 O 0.40446(11) 0.35607(8) 0.09270(6)
O3 O 0.17645(11) 0.49100(8) 0.12037(7)
N1 N 0.33530(12) 0.45324(9) 0.11435(7)
C1 C 0.93512(14) 0.90193(9) 0.18565(7)
C2 C 0.77665(14) 0.86093(9) 0.16767(7)
C3 C 0.62503(14) 0.95476(9) 0.13645(8)
H1 H 0.5650 0.9940 0.1906
H2 H 0.5403 0.9180 0.1129
C4 C 0.68478(15) 1.04651(10) 0.05955(8)
H3 H 0.7179 1.0114 0.0006
H4 H 0.5858 1.1135 0.0492
C5 C 0.86715(16) 1.20219(10) 0.04197(8)
H5 H 0.7883 1.2504 0.0009
C6 C 0.83722(14) 1.09134(9) 0.08257(7)
C7 C 1.01020(17) 1.24262(10) 0.06079(8)
H6 H 1.0279 1.3183 0.0329
C8 C 1.12795(16) 1.17327(10) 0.12011(8)
H7 H 1.2257 1.2013 0.1331
C9 C 1.10120(14) 1.06297(10) 0.16008(8)
H8 H 1.1820 1.0147 0.2000
C10 C 0.95598(14) 1.02193(9) 0.14220(7)
C11 C 0.66487(14) 0.67427(9) 0.16215(7)
C12 C 0.73455(14) 0.56563(9) 0.12996(8)
H9 H 0.8577 0.5417 0.1183
C13 C 0.62749(14) 0.49287(9) 0.11501(7)
H10 H 0.6754 0.4193 0.0935
C14 C 0.44835(14) 0.53004(9) 0.13224(7)
C15 C 0.37394(14) 0.63517(10) 0.16576(7)
H11 H 0.2507 0.6579 0.1777
C16 C 0.48323(14) 0.70682(9) 0.18153(8)
H12 H 0.4344 0.7787 0.2057
C17 C 0.79023(14) 0.74393(9) 0.17743(7)
H13 H 0.8978 0.6992 0.1973
O4 O 0.34865(10) 0.33609(7) 0.31010(6)
O5 O 1.25936(10) 0.66438(7) 0.39721(6)
O6 O 1.04257(11) 0.77820(7) 0.46599(6)
N2 N 1.10397(12) 0.69233(8) 0.42502(6)
C18 C 0.48317(13) 0.26714(9) 0.33018(7)
C19 C 0.64639(13) 0.30910(9) 0.33888(7)
C20 C 0.81487(13) 0.22143(9) 0.32721(8)
H14 H 0.9096 0.2514 0.3483
H15 H 0.8449 0.2129 0.2601
C21 C 0.80437(14) 0.10113(9) 0.38240(8)
H16 H 0.9069 0.0430 0.3610
H17 H 0.8109 0.1048 0.4493
C22 C 0.63785(14) -0.06041(9) 0.39144(7)
H18 H 0.7415 -0.1153 0.4060
C23 C 0.64119(13) 0.05931(9) 0.37291(7)
C24 C 0.48567(15) -0.10024(10) 0.38883(8)
H19 H 0.4854 -0.1819 0.4021
C25 C 0.33260(14) -0.02083(10) 0.36681(8)
H20 H 0.2279 -0.0482 0.3657
C26 C 0.33429(14) 0.09766(10) 0.34673(8)
H21 H 0.2307 0.1518 0.3310
C27 C 0.48816(13) 0.13866(9) 0.34935(7)
C28 C 0.75600(14) 0.48562(9) 0.37278(7)
C29 C 0.81414(14) 0.63965(9) 0.45123(7)
H22 H 0.7767 0.6973 0.4925
C30 C 0.70117(14) 0.57305(9) 0.43212(7)
H23 H 0.5837 0.5867 0.4598
C31 C 0.98381(14) 0.61970(9) 0.40827(7)
C32 C 1.04338(14) 0.53533(9) 0.34901(7)
H24 H 1.1606 0.5232 0.3210
C33 C 0.92877(14) 0.46871(9) 0.33122(7)
H25 H 0.9680 0.4108 0.2903
C34 C 0.62525(14) 0.42026(9) 0.35725(7)
H26 H 0.5080 0.4629 0.3607
loop_
_geom_bond_atom_site_label_1
_geom_bond_atom_site_label_2
_geom_bond_site_symmetry_1
_geom_bond_site_symmetry_2
O1 C1 1_555 1_555
O2 N1 1_555 1_555
O3 N1 1_555 1_555
N1 C14 1_555 1_555
C1 C2 1_555 1_555
C2 C3 1_555 1_555
C3 H1 1_555 1_555
H2 C3 1_555 1_555
C4 C3 1_555 1_555
H3 C4 1_555 1_555
H4 C4 1_555 1_555
C5 H5 1_555 1_555
C6 C4 1_555 1_555
C7 C5 1_555 1_555
H6 C7 1_555 1_555
C8 C7 1_555 1_555
H7 C8 1_555 1_555
C9 C8 1_555 1_555
H8 C9 1_555 1_555
C10 C1 1_555 1_555
C11 C12 1_555 1_555
C12 H9 1_555 1_555
C13 C12 1_555 1_555
H10 C13 1_555 1_555
C14 C13 1_555 1_555
C15 C14 1_555 1_555
H11 C15 1_555 1_555
C16 C11 1_555 1_555
H12 C16 1_555 1_555
C17 C2 1_555 1_555
H13 C17 1_555 1_555
O4 C18 1_555 1_555
O5 N2 1_555 1_555
O6 N2 1_555 1_555
N2 C31 1_555 1_555
C18 C19 1_555 1_555
C19 C20 1_555 1_555
C20 H14 1_555 1_555
H15 C20 1_555 1_555
C21 C20 1_555 1_555
H16 C21 1_555 1_555
H17 C21 1_555 1_555
C22 H18 1_555 1_555
C23 C21 1_555 1_555
C24 C22 1_555 1_555
H19 C24 1_555 1_555
C25 C24 1_555 1_555
H20 C25 1_555 1_555
C26 C25 1_555 1_555
H21 C26 1_555 1_555
C27 C18 1_555 1_555
C28 C30 1_555 1_555
C29 H22 1_555 1_555
C30 C29 1_555 1_555
H23 C30 1_555 1_555
C31 C29 1_555 1_555
C32 C31 1_555 1_555
H24 C32 1_555 1_555
C33 C28 1_555 1_555
H25 C33 1_555 1_555
C34 C19 1_555 1_555
H26 C34 1_555 1_555
C5 C6 1_555 1_555
C6 C10 1_555 1_555
C9 C10 1_555 1_555
C11 C17 1_555 1_555
C15 C16 1_555 1_555
C22 C23 1_555 1_555
C23 C27 1_555 1_555
C26 C27 1_555 1_555
C28 C34 1_555 1_555
C32 C33 1_555 1_555

#END
