
#######################################################################
#
#                 Cambridge Crystallographic Data Centre
#                                CCDC 
#
#######################################################################
#
# If this CIF has been generated from an entry in the Cambridge 
# Structural Database, then it will include bibliographic, chemical, 
# crystal, experimental, refinement or atomic coordinate data resulting 
# from the CCDC's data processing and validation procedures.
#
#######################################################################

data_TUNTED
_chemical_formula_moiety         'C26 H23 N3 O4 S2,C1 H1 Cl3'
_chemical_name_systematic        
'4-Methyl-N-((3-(phenylsulfonyl)-1,2,3,6-tetrahydroazepino[4,5-b]indol-5-yl)methylene)benzenesulfonamide chloroform solvate'
_symmetry_cell_setting           triclinic
_symmetry_space_group_name_H-M   'P -1'
_symmetry_Int_Tables_number      2
_space_group_name_Hall           '-P 1'
loop_
_symmetry_equiv_pos_site_id
_symmetry_equiv_pos_as_xyz
1 x,y,z
2 -x,-y,-z
_cell_length_a                   11.3585(10)
_cell_length_b                   11.9810(10)
_cell_length_c                   13.4380(12)
_cell_angle_alpha                106.420(2)
_cell_angle_beta                 108.985(2)
_cell_angle_gamma                104.217(2)
_cell_volume                     1539.58
_exptl_crystal_colour            colorless
_exptl_crystal_description       prismatic
_cell_formula_units_Z            2
loop_
_atom_site_label
_atom_site_type_symbol
_atom_site_fract_x
_atom_site_fract_y
_atom_site_fract_z
S1 S 0.69666(6) 0.46452(6) 0.42662(5)
S2 S 0.03178(6) 0.48422(6) 0.18283(5)
N1 N 0.2370(2) 0.35880(19) -0.01615(16)
N2 N 0.59108(19) 0.4563(2) 0.30233(16)
N3 N 0.14660(19) 0.4552(2) 0.14070(16)
O1 O 0.77062(19) 0.39036(19) 0.40029(17)
O2 O 0.61619(18) 0.43486(19) 0.48460(15)
O3 O 0.07462(19) 0.51845(19) 0.30365(15)
O4 O -0.0073(2) 0.56937(19) 0.13573(17)
C1 C 0.2455(2) 0.2974(2) -0.11387(19)
C2 C 0.1523(3) 0.2466(2) -0.2277(2)
H1 H 0.0682 0.2523 -0.2477
C3 C 0.1890(3) 0.1877(2) -0.3090(2)
H2 H 0.1284 0.1521 -0.3857
C4 C 0.3154(3) 0.1799(3) -0.2792(2)
H3 H 0.3374 0.1394 -0.3365
C5 C 0.4074(3) 0.2304(3) -0.1679(2)
H4 H 0.4915 0.2249 -0.1493
C6 C 0.3736(2) 0.2906(2) -0.0822(2)
C7 C 0.4408(2) 0.3492(2) 0.03968(19)
C8 C 0.3537(2) 0.3886(2) 0.07760(19)
C9 C 0.3641(2) 0.4401(2) 0.19379(19)
C10 C 0.4695(2) 0.4618(2) 0.2911(2)
H5 H 0.4570 0.4829 0.3580
C11 C 0.6476(2) 0.4768(2) 0.2216(2)
H6 H 0.7428 0.4929 0.2555
H7 H 0.6375 0.5506 0.2094
C12 C 0.5818(3) 0.3675(3) 0.1082(2)
H8 H 0.6334 0.3800 0.0646
H9 H 0.5830 0.2920 0.1212
C13 C 0.2553(2) 0.4633(2) 0.21701(19)
H10 H 0.2644 0.4857 0.2920
C14 C -0.0980(2) 0.3366(3) 0.1086(2)
C15 C -0.1636(3) 0.2904(3) -0.0094(2)
H11 H -0.1421 0.3389 -0.0488
C16 C -0.2608(3) 0.1723(4) -0.0678(3)
H12 H -0.3052 0.1413 -0.1472
C17 C -0.2940(3) 0.0984(3) -0.0114(3)
C18 C -0.2288(3) 0.1485(4) 0.1067(3)
H13 H -0.2518 0.1012 0.1465
C19 C -0.1306(3) 0.2665(3) 0.1670(3)
H14 H -0.0870 0.2982 0.2465
C20 C -0.3991(5) -0.0318(4) -0.0772(5)
H15 H -0.4826 -0.0279 -0.1210
H16 H -0.4104 -0.0689 -0.0247
H17 H -0.3715 -0.0817 -0.1280
C21 C 0.8046(3) 0.6213(3) 0.5006(2)
C22 C 0.7579(4) 0.7069(3) 0.5495(3)
H18 H 0.6702 0.6821 0.5423
C23 C 0.8437(6) 0.8304(4) 0.6095(4)
H19 H 0.8140 0.8904 0.6426
C24 C 0.9743(6) 0.8652(4) 0.6204(3)
H20 H 1.0325 0.9484 0.6623
C25 C 1.0179(4) 0.7795(4) 0.5711(3)
H21 H 1.1058 0.8046 0.5787
C26 C 0.9340(3) 0.6551(3) 0.5094(3)
H22 H 0.9637 0.5959 0.4749
H23 H 0.175(2) 0.378(3) -0.012(2)
Cl1 Cl 0.42871(17) 0.88963(12) 0.60171(12)
Cl2 Cl 0.42071(17) 0.77890(12) 0.38037(15)
Cl3 Cl 0.22821(14) 0.88493(14) 0.40953(17)
C27 C 0.3269(4) 0.8050(3) 0.4572(3)
H24 H 0.2680 0.7236 0.4470
loop_
_geom_bond_atom_site_label_1
_geom_bond_atom_site_label_2
_geom_bond_site_symmetry_1
_geom_bond_site_symmetry_2
S1 N2 1_555 1_555
S2 N3 1_555 1_555
N1 C1 1_555 1_555
N2 C10 1_555 1_555
N3 C13 1_555 1_555
O1 S1 1_555 1_555
O2 S1 1_555 1_555
O3 S2 1_555 1_555
O4 S2 1_555 1_555
C1 C2 1_555 1_555
C2 H1 1_555 1_555
C3 C2 1_555 1_555
H2 C3 1_555 1_555
C4 C3 1_555 1_555
H3 C4 1_555 1_555
C5 C4 1_555 1_555
H4 C5 1_555 1_555
C6 C1 1_555 1_555
C7 C6 1_555 1_555
C8 N1 1_555 1_555
C9 C8 1_555 1_555
C10 C9 1_555 1_555
H5 C10 1_555 1_555
C11 N2 1_555 1_555
H6 C11 1_555 1_555
H7 C11 1_555 1_555
C12 C7 1_555 1_555
H8 C12 1_555 1_555
H9 C12 1_555 1_555
C13 C9 1_555 1_555
H10 C13 1_555 1_555
C14 S2 1_555 1_555
C15 C14 1_555 1_555
H11 C15 1_555 1_555
C16 C15 1_555 1_555
H12 C16 1_555 1_555
C17 C16 1_555 1_555
C18 C17 1_555 1_555
H13 C18 1_555 1_555
C19 C14 1_555 1_555
H14 C19 1_555 1_555
C20 C17 1_555 1_555
H15 C20 1_555 1_555
H16 C20 1_555 1_555
H17 C20 1_555 1_555
C21 S1 1_555 1_555
C22 C21 1_555 1_555
H18 C22 1_555 1_555
C23 C22 1_555 1_555
H19 C23 1_555 1_555
C24 C23 1_555 1_555
H20 C24 1_555 1_555
C25 C24 1_555 1_555
H21 C25 1_555 1_555
C26 C21 1_555 1_555
H22 C26 1_555 1_555
H23 N1 1_555 1_555
Cl1 C27 1_555 1_555
Cl2 C27 1_555 1_555
Cl3 C27 1_555 1_555
C27 H24 1_555 1_555
C5 C6 1_555 1_555
C7 C8 1_555 1_555
C11 C12 1_555 1_555
C18 C19 1_555 1_555
C25 C26 1_555 1_555

#END
