
#######################################################################
#
#                 Cambridge Crystallographic Data Centre
#                                CCDC 
#
#######################################################################
#
# If this CIF has been generated from an entry in the Cambridge 
# Structural Database, then it will include bibliographic, chemical, 
# crystal, experimental, refinement or atomic coordinate data resulting 
# from the CCDC's data processing and validation procedures.
#
#######################################################################

data_TUNVUU
_chemical_formula_moiety         'C11 H18 N4 O3'
_chemical_name_systematic        
't-Butyl 4-(2-diazoacetyl)piperazine-1-carboxylate'
_symmetry_cell_setting           monoclinic
_symmetry_space_group_name_H-M   'P 21/c'
_symmetry_Int_Tables_number      14
_space_group_name_Hall           '-P 2ybc'
loop_
_symmetry_equiv_pos_site_id
_symmetry_equiv_pos_as_xyz
1 x,y,z
2 -x,1/2+y,1/2-z
3 -x,-y,-z
4 x,1/2-y,1/2+z
_cell_length_a                   14.654(10)
_cell_length_b                   10.548(7)
_cell_length_c                   8.553(6)
_cell_angle_alpha                90
_cell_angle_beta                 91.122(6)
_cell_angle_gamma                90
_cell_volume                     1321.79
_exptl_crystal_colour            yellow
_exptl_crystal_description       plate
_cell_formula_units_Z            4
loop_
_atom_site_label
_atom_site_type_symbol
_atom_site_fract_x
_atom_site_fract_y
_atom_site_fract_z
O1 O 0.02567(7) 0.20344(9) 0.19361(12)
O2 O 0.38950(6) 0.35633(9) 0.62995(11)
O3 O 0.33388(6) 0.55670(8) 0.64091(11)
N1 N -0.14125(10) 0.34028(15) -0.00383(19)
N2 N -0.08817(8) 0.37402(12) 0.08229(16)
N3 N 0.10933(7) 0.34931(10) 0.32642(14)
N4 N 0.27460(8) 0.42179(11) 0.46913(15)
C1 C -0.02502(10) 0.41229(14) 0.18201(17)
H1 H -0.0254(10) 0.4999(17) 0.2058(19)
C2 C 0.03721(9) 0.31392(13) 0.23569(16)
C3 C 0.11676(9) 0.47080(12) 0.40835(18)
H2 H 0.0971 0.4604 0.5177
H3 H 0.0760 0.5337 0.3568
C4 C 0.17261(10) 0.25284(13) 0.38538(18)
H4 H 0.1681 0.1763 0.3188
H5 H 0.1561 0.2287 0.4931
C5 C 0.21342(9) 0.51824(13) 0.40729(18)
H6 H 0.2304 0.5397 0.2990
H7 H 0.2188 0.5960 0.4717
C6 C 0.26896(10) 0.30251(13) 0.38538(19)
H8 H 0.3104 0.2399 0.4357
H9 H 0.2886 0.3150 0.2763
C7 C 0.33775(9) 0.43825(12) 0.58409(16)
C8 C 0.39795(9) 0.59837(13) 0.76528(15)
C9 C 0.36780(11) 0.73381(14) 0.79087(18)
H10 H 0.3721 0.7811 0.6927
H11 H 0.4073 0.7734 0.8707
H12 H 0.3045 0.7346 0.8258
C10 C 0.49473(10) 0.59327(15) 0.70952(17)
H13 H 0.4989 0.6386 0.6099
H14 H 0.5129 0.5047 0.6951
H15 H 0.5354 0.6333 0.7873
C11 C 0.38403(10) 0.52052(14) 0.91124(17)
H16 H 0.3190 0.5190 0.9358
H17 H 0.4186 0.5583 0.9987
H18 H 0.4055 0.4337 0.8939
loop_
_geom_bond_atom_site_label_1
_geom_bond_atom_site_label_2
_geom_bond_site_symmetry_1
_geom_bond_site_symmetry_2
O1 C2 1_555 1_555
O2 C7 1_555 1_555
O3 C7 1_555 1_555
N1 N2 1_555 1_555
N2 C1 1_555 1_555
N3 C2 1_555 1_555
N4 C5 1_555 1_555
C1 H1 1_555 1_555
C2 C1 1_555 1_555
C3 N3 1_555 1_555
H2 C3 1_555 1_555
H3 C3 1_555 1_555
C4 N3 1_555 1_555
H4 C4 1_555 1_555
H5 C4 1_555 1_555
C5 C3 1_555 1_555
H6 C5 1_555 1_555
H7 C5 1_555 1_555
C6 N4 1_555 1_555
H8 C6 1_555 1_555
H9 C6 1_555 1_555
C7 N4 1_555 1_555
C8 O3 1_555 1_555
C9 C8 1_555 1_555
H10 C9 1_555 1_555
H11 C9 1_555 1_555
H12 C9 1_555 1_555
C10 C8 1_555 1_555
H13 C10 1_555 1_555
H14 C10 1_555 1_555
H15 C10 1_555 1_555
C11 C8 1_555 1_555
H16 C11 1_555 1_555
H17 C11 1_555 1_555
H18 C11 1_555 1_555
C4 C6 1_555 1_555

#END
