
#######################################################################
#
#                 Cambridge Crystallographic Data Centre
#                                CCDC 
#
#######################################################################
#
# If this CIF has been generated from an entry in the Cambridge 
# Structural Database, then it will include bibliographic, chemical, 
# crystal, experimental, refinement or atomic coordinate data resulting 
# from the CCDC's data processing and validation procedures.
#
#######################################################################

data_TUPCOW
_chemical_name_common            
'bis(2.2.2-Crypt-potassium) tetra-arseniohexaselenate'
_chemical_formula_moiety         '2(C18 H36 K1 N2 O6 1+),As4 Se6 2-'
_chemical_name_systematic        
'bis((4,7,13,16,21,24-Hexaoxa-1,10-diazabicyclo(8.8.8)hexacosane)-potassium) tetra-arseniohexaselenate'
_symmetry_cell_setting           triclinic
_symmetry_space_group_name_H-M   'P -1'
_symmetry_Int_Tables_number      2
_space_group_name_Hall           '-P 1'
loop_
_symmetry_equiv_pos_site_id
_symmetry_equiv_pos_as_xyz
1 x,y,z
2 -x,-y,-z
_cell_length_a                   12.749(4)
_cell_length_b                   20.990(11)
_cell_length_c                   22.742(7)
_cell_angle_alpha                74.89(3)
_cell_angle_beta                 81.16(2)
_cell_angle_gamma                87.88(3)
_cell_volume                     5805.57
_exptl_crystal_colour            red-orange
_cell_formula_units_Z            4
loop_
_atom_site_label
_atom_site_type_symbol
_atom_site_fract_x
_atom_site_fract_y
_atom_site_fract_z
As1 As 1.18072(10) 0.68300(6) 1.13328(7)
As2 As 1.08977(12) 0.68109(7) 1.29208(8)
As3 As 1.22458(13) 0.58793(7) 1.28451(8)
As4 As 0.96002(13) 0.52516(7) 1.32591(7)
Se1 Se 1.25875(12) 0.74367(7) 1.04012(8)
Se2 Se 1.14370(12) 0.76046(7) 1.19863(9)
Se3 Se 0.93549(11) 0.63883(7) 1.26904(7)
Se4 Se 1.0187(2) 0.53504(8) 1.41254(7)
Se5 Se 1.12080(12) 0.51022(7) 1.25859(6)
Se6 Se 1.32753(11) 0.63338(7) 1.18756(9)
As5 As 0.50677(9) 0.95337(6) 0.73700(6)
As6 As 0.35747(9) 0.84725(7) 0.67581(6)
As7 As 0.45504(9) 0.77721(6) 0.76125(5)
As8 As 0.18577(9) 0.78538(7) 0.81555(7)
Se7 Se 0.64248(10) 1.02674(7) 0.71183(7)
Se8 Se 0.46363(10) 0.94411(7) 0.63859(6)
Se9 Se 0.21346(10) 0.88774(7) 0.73536(7)
Se10 Se 0.22501(10) 0.70876(7) 0.76003(7)
Se11 Se 0.35207(10) 0.79298(7) 0.85221(6)
Se12 Se 0.59925(8) 0.84834(6) 0.75341(6)
K1 K 1.2481(2) 2.08254(11) -1.02787(11)
N1 N 1.1882(8) 2.0703(5) -0.8954(4)
N2 N 1.3035(8) 2.0938(5) -1.1608(4)
O1 O 1.1652(6) 1.9614(4) -0.9490(4)
O2 O 1.1818(6) 1.9803(4) -1.0779(4)
O3 O 1.4680(6) 2.0896(4) -1.0805(4)
O4 O 1.4065(6) 2.1042(4) -0.9620(4)
O5 O 1.0913(6) 2.1691(4) -0.9898(4)
O6 O 1.1790(6) 2.1965(4) -1.1139(4)
C1 C 1.1754(11) 2.0012(7) -0.8609(6)
C2 C 1.1151(12) 1.9608(7) -0.8905(7)
C3 C 1.1151(10) 1.9200(6) -0.9773(7)
C4 C 1.1761(10) 1.9174(6) -1.0355(7)
C5 C 1.2352(12) 1.9781(7) -1.1355(7)
C6 C 1.2399(12) 2.0460(7) -1.1780(6)
C7 C 1.4181(10) 2.0804(7) -1.1744(6)
C8 C 1.4878(10) 2.1128(7) -1.1447(6)
C9 C 1.5369(10) 2.1166(7) -1.0502(7)
C10 C 1.5118(9) 2.0893(7) -0.9831(7)
C11 C 1.3825(10) 2.0809(7) -0.8965(6)
C12 C 1.2719(9) 2.1021(7) -0.8756(6)
C13 C 1.0866(10) 2.1056(7) -0.8851(6)
C14 C 1.0835(10) 2.1740(7) -0.9289(6)
C15 C 1.0838(9) 2.2321(6) -1.0316(6)
C16 C 1.0821(9) 2.2253(6) -1.0937(6)
C17 C 1.1785(10) 2.1878(7) -1.1742(6)
C18 C 1.2821(10) 2.1617(6) -1.1962(6)
H1 H 1.1377(11) 1.9990(7) -0.8190(6)
H2 H 1.2465(11) 1.9815(7) -0.8567(6)
H3 H 1.1091(12) 1.9147(7) -0.8647(7)
H4 H 1.0425(12) 1.9787(7) -0.8928(7)
H5 H 1.0432(10) 1.9371(6) -0.9839(7)
H6 H 1.1073(10) 1.8749(6) -0.9496(7)
H7 H 1.2487(10) 1.9017(6) -1.0292(7)
H8 H 1.1428(10) 1.8857(6) -1.0526(7)
H9 H 1.1976(12) 1.9480(7) -1.1524(7)
H10 H 1.3080(12) 1.9611(7) -1.1318(7)
H11 H 1.2700(12) 2.0430(7) -1.2200(6)
H12 H 1.1666(12) 2.0631(7) -1.1794(6)
H13 H 1.4292(10) 2.0321(7) -1.1613(6)
H14 H 1.4401(10) 2.0947(7) -1.2196(6)
H15 H 1.5629(10) 2.1044(7) -1.1595(6)
H16 H 1.4761(10) 2.1611(7) -1.1566(6)
H17 H 1.5292(10) 2.1652(7) -1.0605(7)
H18 H 1.6113(10) 2.1061(7) -1.0644(7)
H19 H 1.5215(9) 2.0408(7) -0.9728(7)
H20 H 1.5610(9) 2.1081(7) -0.9623(7)
H21 H 1.4343(10) 2.0992(7) -0.8770(6)
H22 H 1.3875(10) 2.0322(7) -0.8841(6)
H23 H 1.2600(9) 2.0921(7) -0.8301(6)
H24 H 1.2664(9) 2.1505(7) -0.8917(6)
H25 H 1.0748(10) 2.1099(7) -0.8422(6)
H26 H 1.0277(10) 2.0788(7) -0.8899(6)
H27 H 1.0163(10) 2.1961(4) -0.9178(6)
H28 H 1.1431(10) 2.2009(7) -0.9253(6)
H29 H 1.1451(9) 2.2597(6) -1.0317(6)
H30 H 1.0182(9) 2.2544(6) -1.0181(6)
H31 H 1.0217(9) 2.1970(6) -1.0937(6)
H32 H 1.0733(9) 2.2692(6) -1.1220(6)
H33 H 1.1647(10) 2.2305(7) -1.2029(6)
H34 H 1.1213(10) 2.1566(7) -1.1730(6)
H35 H 1.3390(10) 2.1914(6) -1.1937(6)
H36 H 1.2847(10) 2.1622(6) -1.2400(6)
K2 K 0.7560(2) 0.58429(11) 1.00599(10)
N3 N 0.7500(8) 0.5395(5) 1.1411(4)
N4 N 0.7620(6) 0.6301(4) 0.8705(4)
O7 O 0.6888(6) 0.4543(3) 1.0659(4)
O8 O 0.6577(5) 0.5066(4) 0.9433(4)
O9 O 0.9575(5) 0.6080(4) 0.9281(4)
O10 O 0.9456(6) 0.5888(4) 1.0554(4)
O11 O 0.6252(6) 0.6491(4) 1.0841(4)
O12 O 0.6563(5) 0.7053(3) 0.9567(3)
C19 C 0.7436(11) 0.4675(6) 1.1570(6)
C20 C 0.6616(10) 0.4409(6) 1.1304(6)
C21 C 0.6140(9) 0.4266(6) 1.0393(6)
C22 C 0.6514(9) 0.4365(6) 0.9728(6)
C23 C 0.6910(10) 0.5164(6) 0.8816(6)
C24 C 0.6881(10) 0.5911(6) 0.8490(6)
C25 C 0.8690(9) 0.6225(6) 0.8401(5)
C26 C 0.9534(8) 0.6473(6) 0.8687(6)
C27 C 1.0402(9) 0.6287(7) 0.9549(7)
C28 C 1.0435(9) 0.5850(7) 1.0172(7)
C29 C 0.9476(11) 0.5495(7) 1.1155(7)
C30 C 0.6586(11) 0.5694(7) 1.1720(6)
C31 C 0.8484(11) 0.5604(7) 1.1574(6)
C32 C 0.6441(11) 0.6410(6) 1.1456(6)
C33 C 0.5929(10) 0.7146(6) 1.0567(6)
C34 C 0.5643(8) 0.7184(6) 0.9973(6)
C35 C 0.6328(9) 0.7147(6) 0.8959(6)
C36 C 0.7299(8) 0.7001(5) 0.8551(5)
H37 H 0.7291(11) 0.4509(6) 1.2024(6)
H38 H 0.8135(11) 0.4500(6) 1.1429(6)
H39 H 0.6549(10) 0.3927(6) 1.1483(6)
H40 H 0.5922(10) 0.4613(6) 1.1407(6)
H41 H 0.5441(9) 0.4480(6) 1.0455(6)
H42 H 0.6055(9) 0.3788(6) 1.0596(6)
H43 H 0.7221(9) 0.4161(6) 0.9665(6)
H44 H 0.6015(9) 0.4151(6) 0.9543(6)
H45 H 0.6442(10) 0.4918(6) 0.8642(6)
H46 H 0.7642(10) 0.4995(6) 0.8747(6)
H47 H 0.7073(10) 0.5973(6) 0.8040(6)
H48 H 0.6150(10) 0.6077(6) 0.8569(6)
H49 H 0.8749(9) 0.6469(6) 0.7962(5)
H50 H 0.8818(9) 0.5753(6) 0.8420(5)
H51 H 1.0233(8) 0.6467(6) 0.8430(6)
H52 H 0.9377(8) 0.6934(6) 0.8703(6)
H53 H 1.0275(8) 0.6748(7) 0.9576(7)
H54 H 1.1093(9) 0.6273(7) 0.9286(7)
H55 H 1.0564(9) 0.5390(7) 1.0146(7)
H56 H 1.1023(9) 0.5987(7) 1.0351(7)
H57 H 1.0108(11) 0.5609(7) 1.1312(7)
H58 H 0.9526(11) 0.5025(7) 1.1152(7)
H59 H 0.6668(11) 0.5622(7) 1.2159(6)
H60 H 0.5934(11) 0.5460(7) 1.1707(6)
H61 H 0.8550(11) 0.5358(7) 1.2002(6)
H62 H 0.8431(11) 0.6079(7) 1.1562(6)
H63 H 0.5830(11) 0.6576(6) 1.1698(6)
H64 H 0.7084(11) 0.6657(6) 1.1461(6)
H65 H 0.6516(10) 0.7459(6) 1.0523(6)
H66 H 0.5314(10) 0.7273(6) 1.0836(6)
H67 H 0.5365(8) 0.7629(6) 0.9800(6)
H68 H 0.5079(8) 0.6857(6) 1.0013(6)
H69 H 0.6101(9) 0.7609(6) 0.8800(6)
H70 H 0.5740(9) 0.6851(6) 0.8962(6)
H71 H 0.7162(8) 0.7130(5) 0.8118(5)
H72 H 0.7895(8) 0.7275(5) 0.8580(5)
K3 K 1.5135(2) 2.33412(12) -1.49350(11)
N5 N 1.5412(10) 2.2866(7) -1.3615(5)
N6 N 1.4845(9) 2.3852(6) -1.6253(5)
O13 O 1.4528(7) 2.2026(5) -1.4298(5)
O14 O 1.4678(6) 2.2446(4) -1.5585(4)
O15 O 1.6884(6) 2.3927(4) -1.5832(4)
O16 O 1.7161(6) 2.3229(5) -1.4633(5)
O17 O 1.4113(7) 2.4044(5) -1.4061(5)
O18 O 1.3619(6) 2.4315(4) -1.5251(4)
C37 C 1.4785(14) 2.2278(9) -1.3357(7)
C38 C 1.492(2) 2.1761(8) -1.3733(9)
C39 C 1.4643(12) 2.1582(8) -1.4676(10)
C40 C 1.4156(12) 2.1845(8) -1.5240(9)
C41 C 1.4218(11) 2.2710(9) -1.6137(7)
C42 C 1.4843(12) 2.3283(8) -1.6526(6)
C43 C 1.5722(13) 2.4303(9) -1.6564(7)
C44 C 1.6764(12) 2.4048(8) -1.6473(6)
C45 C 1.7840(11) 2.3595(8) -1.5707(8)
C46 C 1.7996(8) 2.3591(7) -1.5091(8)
C47 C 1.7265(12) 2.3222(9) -1.4034(8)
C48 C 1.6558(12) 2.2733(9) -1.3579(7)
C49 C 1.499(2) 2.3392(9) -1.3294(7)
C50 C 1.397(2) 2.3681(10) -1.3448(9)
C51 C 1.3154(11) 2.4365(8) -1.4235(8)
C52 C 1.3323(12) 2.4737(8) -1.4858(9)
C53 C 1.3653(13) 2.4672(8) -1.5887(8)
C54 C 1.3834(12) 2.4184(8) -1.6264(8)
H73 H 1.4028(14) 2.2406(9) -1.3304(7)
H74 H 1.4967(14) 2.2069(9) -1.2942(7)
H75 H 1.567(2) 2.1644(8) -1.3814(9)
H76 H 1.452(2) 2.1355(8) -1.3499(9)
H77 H 1.4304(12) 2.1155(8) -1.4443(10)
H78 H 1.4228(12) 2.1520(8) -1.5491(10)
H79 H 1.3476(11) 2.2845(9) -1.6029(7)
H80 H 1.4211(11) 2.2368(9) -1.6365(7)
H81 H 1.5585(12) 2.3141(8) -1.6619(6)
H82 H 1.5687(13) 2.4427(9) -1.7012(7)
H83 H 1.5622(13) 2.4710(9) -1.6420(7)
H84 H 1.7308(12) 2.4369(8) -1.6729(6)
H85 H 1.6871(12) 2.3632(8) -1.6602(6)
H86 H 1.8443(11) 2.3822(8) -1.6008(8)
H87 H 1.7805(11) 2.3136(8) -1.5743(8)
H88 H 1.8010(8) 2.4051(7) -1.5057(8)
H89 H 1.8690(8) 2.3388(7) -1.5011(8)
H90 H 1.7098(12) 2.3666(9) -1.3970(8)
H91 H 1.8010(12) 2.3120(9) -1.3970(8)
H92 H 1.6694(12) 2.2728(9) -1.3161(7)
H93 H 1.6731(12) 2.2290(9) -1.3643(7)
H94 H 1.492(2) 2.3198(9) -1.2844(7)
H95 H 1.553(2) 2.3751(9) -1.3401(7)
H96 H 1.344(2) 2.3326(10) -1.3385(9)
H97 H 1.370(2) 2.3970(10) -1.3178(9)
H98 H 1.2595(11) 2.4030(8) -1.4178(8)
H99 H 1.2908(11) 2.4661(8) -1.3967(8)
H100 H 1.3889(12) 2.5068(8) -1.4918(9)
H101 H 1.2664(12) 2.4975(8) -1.4963(9)
H102 H 1.4235(13) 2.5001(8) -1.6009(8)
H103 H 1.2975(13) 2.4907(8) -1.5949(8)
H104 H 1.3264(12) 2.3848(8) -1.6117(8)
H105 H 1.3772(12) 2.4415(8) -1.6696(8)
K4 K 0.0768(2) 1.16934(12) 0.49434(11)
N8 N 0.083(3) 1.101(2) 0.6226(14)
N10 N 0.079(2) 1.240(2) 0.3591(12)
O20 O 0.200(2) 1.0667(14) 0.5196(14)
O22 O 0.116(2) 1.0942(12) 0.400(2)
O24 O 0.140(2) 1.306(2) 0.4520(12)
O26 O 0.122(3) 1.242(2) 0.573(2)
O27 O -0.1067(8) 1.1254(6) 0.5760(6)
O28 O -0.1176(8) 1.1950(10) 0.4504(6)
C56 C 0.198(2) 1.0552(11) 0.6217(12)
C57 C 0.193(3) 1.022(2) 0.574(2)
C58 C 0.216(4) 1.025(2) 0.465(2)
C60 C 0.215(5) 1.070(3) 0.426(3)
C63 C 0.081(4) 1.135(3) 0.340(2)
C64 C 0.146(3) 1.203(3) 0.3213(14)
C66 C 0.127(6) 1.306(4) 0.346(4)
C69 C 0.099(2) 1.338(2) 0.396(2)
C70 C 0.148(8) 1.335(5) 0.504(5)
C73 C 0.166(3) 1.302(2) 0.553(2)
C74 C 0.087(5) 1.210(3) 0.644(2)
C77 C 0.104(3) 1.148(3) 0.658(2)
C79 C -0.024(3) 1.093(3) 0.654(2)
C80 C -0.117(2) 1.117(2) 0.6362(14)
C81 C -0.2008(14) 1.1551(10) 0.5481(13)
C82 C -0.199(2) 1.1558(13) 0.4877(11)
C83 C -0.1131(14) 1.1880(12) 0.3910(10)
C84 C -0.032(2) 1.232(2) 0.3459(11)
H108 H 0.253(3) 0.990(2) 0.573(2)
H109 H 0.126(3) 0.997(2) 0.582(2)
H110 H 0.284(4) 1.001(2) 0.463(2)
H111 H 0.156(4) 0.995(2) 0.469(2)
H116 H 0.004(4) 1.144(3) 0.347(2)
H117 H 0.096(4) 1.112(3) 0.307(2)
H118 H 0.219(3) 1.196(3) 0.3325(14)
H119 H 0.151(3) 1.224(3) 0.2768(14)
H122 H 0.104(6) 1.334(4) 0.308(4)
H123 H 0.205(6) 1.302(4) 0.338(4)
H128 H 0.125(2) 1.384(2) 0.382(2)
H129 H 0.020(2) 1.340(2) 0.406(2)
H130 H 0.205(8) 1.369(5) 0.490(5)
H131 H 0.081(8) 1.359(5) 0.512(5)
H134 H 0.142(3) 1.327(2) 0.584(2)
H135 H 0.244(3) 1.297(2) 0.551(2)
H136 H 0.014(5) 1.224(3) 0.657(2)
H137 H 0.127(5) 1.205(3) 0.679(2)
H142 H 0.141(3) 1.123(3) 0.692(2)
H146 H -0.006(3) 1.054(3) 0.638(2)
H147 H -0.035(3) 1.077(3) 0.699(2)
H148 H -0.2647(14) 1.1306(10) 0.5725(13)
H149 H -0.2079(14) 1.2011(10) 0.5517(13)
N7? N 0.081(3) 1.144(2) 0.632(2)
N9? N 0.076(2) 1.188(2) 0.3628(12)
O19? O 0.222(2) 1.0744(14) 0.555(2)
O21? O 0.146(3) 1.064(2) 0.440(2)
O23? O 0.1472(14) 1.2906(11) 0.4111(14)
O25? O 0.101(2) 1.279(2) 0.5360(14)
O29? O -0.099(4) 1.144(4) 0.458(2)
C55? C 0.189(4) 1.111(3) 0.638(2)
C59? C 0.238(4) 1.027(3) 0.523(2)
C61? C 0.211(5) 1.088(2) 0.382(3)
C62? C 0.260(2) 1.039(2) 0.4713(13)
C65? C 0.129(2) 1.1214(14) 0.3450(13)
C67? C 0.146(4) 1.237(3) 0.331(2)
C68? C 0.136(4) 1.296(4) 0.348(3)
C71? C 0.110(3) 1.340(2) 0.436(3)
C72? C 0.121(6) 1.342(4) 0.492(3)
C75? C 0.138(4) 1.263(3) 0.593(2)
C76? C 0.167(3) 1.211(2) 0.627(2)
C78? C 0.000(7) 1.057(5) 0.645(5)
H106? H 0.246(4) 1.142(3) 0.613(2)
H107? H 0.201(4) 1.102(3) 0.682(2)
H112? H 0.294(4) 0.997(3) 0.540(2)
H113? H 0.172(4) 1.000(3) 0.534(2)
H114? H 0.245(5) 1.051(2) 0.366(3)
H115? H 0.266(5) 1.119(2) 0.383(3)
H120? H 0.071(2) 1.0893(14) 0.3498(13)
H121? H 0.160(2) 1.1336(14) 0.3010(13)
H124? H 0.138(4) 1.246(3) 0.287(2)
H125? H 0.219(4) 1.220(3) 0.335(2)
H126? H 0.190(4) 1.327(4) 0.321(3)
H127? H 0.065(4) 1.314(4) 0.341(3)
H132? H 0.141(3) 1.381(2) 0.408(3)
H133? H 0.032(3) 1.342(2) 0.435(3)
H138? H 0.134(4) 1.304(3) 0.607(2)
H139? H 0.214(4) 1.252(3) 0.585(2)
H140? H 0.162(3) 1.240(2) 0.655(2)
H141? H 0.243(3) 1.200(2) 0.616(2)
H143? H 0.034(3) 1.161(3) 0.678(2)
H144? H 0.001(7) 1.032(5) 0.688(5)
H145? H -0.001(7) 1.025(5) 0.619(5)
loop_
_geom_bond_atom_site_label_1
_geom_bond_atom_site_label_2
_geom_bond_site_symmetry_1
_geom_bond_site_symmetry_2
As1 Se1 1_555 1_555
As2 As3 1_555 1_555
As3 Se5 1_555 1_555
As4 Se3 1_555 1_555
As5 Se7 1_555 1_555
As6 As7 1_555 1_555
As7 Se11 1_555 1_555
As8 Se9 1_555 1_555
Se2 As1 1_555 1_555
Se3 As2 1_555 1_555
Se4 As4 1_555 1_555
Se5 As4 1_555 1_555
Se6 As1 1_555 1_555
Se8 As5 1_555 1_555
Se9 As6 1_555 1_555
Se10 As8 1_555 1_555
Se11 As8 1_555 1_555
Se12 As5 1_555 1_555
K1 N1 1_555 1_555
K2 N3 1_555 1_555
K3 N5 1_555 1_555
K4 N8 1_555 1_555
N1 C1 1_555 1_555
N2 K1 1_555 1_555
N3 C19 1_555 1_555
N4 K2 1_555 1_555
N5 C37 1_555 1_555
N6 K3 1_555 1_555
N8 C56 1_555 1_555
N10 K4 1_555 1_555
O1 K1 1_555 1_555
O2 K1 1_555 1_555
O3 K1 1_555 1_555
O4 K1 1_555 1_555
O5 K1 1_555 1_555
O6 K1 1_555 1_555
O7 K2 1_555 1_555
O8 K2 1_555 1_555
O9 K2 1_555 1_555
O10 K2 1_555 1_555
O11 K2 1_555 1_555
O12 K2 1_555 1_555
O13 K3 1_555 1_555
O14 K3 1_555 1_555
O15 K3 1_555 1_555
O16 K3 1_555 1_555
O17 K3 1_555 1_555
O18 K3 1_555 1_555
O20 K4 1_555 1_555
O22 K4 1_555 1_555
O24 K4 1_555 1_555
O26 K4 1_555 1_555
O27 K4 1_555 1_555
O28 K4 1_555 1_555
C1 C2 1_555 1_555
C2 O1 1_555 1_555
C3 O1 1_555 1_555
C4 O2 1_555 1_555
C5 O2 1_555 1_555
C6 N2 1_555 1_555
C7 N2 1_555 1_555
C8 O3 1_555 1_555
C9 O3 1_555 1_555
C10 O4 1_555 1_555
C11 O4 1_555 1_555
C12 N1 1_555 1_555
C13 N1 1_555 1_555
C14 O5 1_555 1_555
C15 O5 1_555 1_555
C16 O6 1_555 1_555
C17 O6 1_555 1_555
C18 N2 1_555 1_555
C19 C20 1_555 1_555
C20 O7 1_555 1_555
C21 O7 1_555 1_555
C22 O8 1_555 1_555
C23 O8 1_555 1_555
C24 N4 1_555 1_555
C25 N4 1_555 1_555
C26 O9 1_555 1_555
C27 O9 1_555 1_555
C28 O10 1_555 1_555
C29 O10 1_555 1_555
C30 N3 1_555 1_555
C31 N3 1_555 1_555
C32 O11 1_555 1_555
C33 O11 1_555 1_555
C34 O12 1_555 1_555
C35 O12 1_555 1_555
C36 N4 1_555 1_555
C37 C38 1_555 1_555
C38 O13 1_555 1_555
C39 O13 1_555 1_555
C40 O14 1_555 1_555
C41 O14 1_555 1_555
C42 N6 1_555 1_555
C43 N6 1_555 1_555
C44 O15 1_555 1_555
C45 O15 1_555 1_555
C46 O16 1_555 1_555
C47 O16 1_555 1_555
C48 N5 1_555 1_555
C49 N5 1_555 1_555
C50 O17 1_555 1_555
C51 O17 1_555 1_555
C52 O18 1_555 1_555
C53 O18 1_555 1_555
C54 N6 1_555 1_555
C56 C57 1_555 1_555
C57 O20 1_555 1_555
C58 O20 1_555 1_555
C60 O22 1_555 1_555
C63 O22 1_555 1_555
C64 N10 1_555 1_555
C66 N10 1_555 1_555
C69 O24 1_555 1_555
C70 O24 1_555 1_555
C73 O26 1_555 1_555
C74 O26 1_555 1_555
C77 N8 1_555 1_555
C79 N8 1_555 1_555
C80 O27 1_555 1_555
C81 O27 1_555 1_555
C82 O28 1_555 1_555
C83 O28 1_555 1_555
C84 N10 1_555 1_555
H1 C1 1_555 1_555
H2 C1 1_555 1_555
H3 C2 1_555 1_555
H4 C2 1_555 1_555
H5 C3 1_555 1_555
H6 C3 1_555 1_555
H7 C4 1_555 1_555
H8 C4 1_555 1_555
H9 C5 1_555 1_555
H10 C5 1_555 1_555
H11 C6 1_555 1_555
H12 C6 1_555 1_555
H13 C7 1_555 1_555
H14 C7 1_555 1_555
H15 C8 1_555 1_555
H16 C8 1_555 1_555
H17 C9 1_555 1_555
H18 C9 1_555 1_555
H19 C10 1_555 1_555
H20 C10 1_555 1_555
H21 C11 1_555 1_555
H22 C11 1_555 1_555
H23 C12 1_555 1_555
H24 C12 1_555 1_555
H25 C13 1_555 1_555
H26 C13 1_555 1_555
H27 C14 1_555 1_555
H28 C14 1_555 1_555
H29 C15 1_555 1_555
H30 C15 1_555 1_555
H31 C16 1_555 1_555
H32 C16 1_555 1_555
H33 C17 1_555 1_555
H34 C17 1_555 1_555
H35 C18 1_555 1_555
H36 C18 1_555 1_555
H37 C19 1_555 1_555
H38 C19 1_555 1_555
H39 C20 1_555 1_555
H40 C20 1_555 1_555
H41 C21 1_555 1_555
H42 C21 1_555 1_555
H43 C22 1_555 1_555
H44 C22 1_555 1_555
H45 C23 1_555 1_555
H46 C23 1_555 1_555
H47 C24 1_555 1_555
H48 C24 1_555 1_555
H49 C25 1_555 1_555
H50 C25 1_555 1_555
H51 C26 1_555 1_555
H52 C26 1_555 1_555
H53 C27 1_555 1_555
H54 C27 1_555 1_555
H55 C28 1_555 1_555
H56 C28 1_555 1_555
H57 C29 1_555 1_555
H58 C29 1_555 1_555
H59 C30 1_555 1_555
H60 C30 1_555 1_555
H61 C31 1_555 1_555
H62 C31 1_555 1_555
H63 C32 1_555 1_555
H64 C32 1_555 1_555
H65 C33 1_555 1_555
H66 C33 1_555 1_555
H67 C34 1_555 1_555
H68 C34 1_555 1_555
H69 C35 1_555 1_555
H70 C35 1_555 1_555
H71 C36 1_555 1_555
H72 C36 1_555 1_555
H73 C37 1_555 1_555
H74 C37 1_555 1_555
H75 C38 1_555 1_555
H76 C38 1_555 1_555
H77 C39 1_555 1_555
H78 C40 1_555 1_555
H79 C41 1_555 1_555
H80 C41 1_555 1_555
H81 C42 1_555 1_555
H82 C43 1_555 1_555
H83 C43 1_555 1_555
H84 C44 1_555 1_555
H85 C44 1_555 1_555
H86 C45 1_555 1_555
H87 C45 1_555 1_555
H88 C46 1_555 1_555
H89 C46 1_555 1_555
H90 C47 1_555 1_555
H91 C47 1_555 1_555
H92 C48 1_555 1_555
H93 C48 1_555 1_555
H94 C49 1_555 1_555
H95 C49 1_555 1_555
H96 C50 1_555 1_555
H97 C50 1_555 1_555
H98 C51 1_555 1_555
H99 C51 1_555 1_555
H100 C52 1_555 1_555
H101 C52 1_555 1_555
H102 C53 1_555 1_555
H103 C53 1_555 1_555
H104 C54 1_555 1_555
H105 C54 1_555 1_555
H108 C57 1_555 1_555
H109 C57 1_555 1_555
H110 C58 1_555 1_555
H111 C58 1_555 1_555
H116 C63 1_555 1_555
H117 C63 1_555 1_555
H118 C64 1_555 1_555
H119 C64 1_555 1_555
H122 C66 1_555 1_555
H123 C66 1_555 1_555
H128 C69 1_555 1_555
H129 C69 1_555 1_555
H130 C70 1_555 1_555
H131 C70 1_555 1_555
H134 C73 1_555 1_555
H135 C73 1_555 1_555
H136 C74 1_555 1_555
H137 C74 1_555 1_555
H142 C77 1_555 1_555
H146 C79 1_555 1_555
H147 C79 1_555 1_555
H148 C81 1_555 1_555
H149 C81 1_555 1_555
As2 Se2 1_555 1_555
As3 Se6 1_555 1_555
As6 Se8 1_555 1_555
As7 Se12 1_555 1_555
C3 C4 1_555 1_555
C5 C6 1_555 1_555
C7 C8 1_555 1_555
C9 C10 1_555 1_555
C11 C12 1_555 1_555
C13 C14 1_555 1_555
C15 C16 1_555 1_555
C17 C18 1_555 1_555
C21 C22 1_555 1_555
C23 C24 1_555 1_555
C25 C26 1_555 1_555
C27 C28 1_555 1_555
C29 C31 1_555 1_555
C30 C32 1_555 1_555
C33 C34 1_555 1_555
C35 C36 1_555 1_555
C39 C40 1_555 1_555
C41 C42 1_555 1_555
C43 C44 1_555 1_555
C45 C46 1_555 1_555
C47 C48 1_555 1_555
C49 C50 1_555 1_555
C51 C52 1_555 1_555
C53 C54 1_555 1_555
C58 C60 1_555 1_555
C63 C64 1_555 1_555
C66 C69 1_555 1_555
C70 C73 1_555 1_555
C74 C77 1_555 1_555
C79 C80 1_555 1_555
C81 C82 1_555 1_555
C83 C84 1_555 1_555

#END
