
#######################################################################
#
#                 Cambridge Crystallographic Data Centre
#                                CCDC 
#
#######################################################################
#
# If this CIF has been generated from an entry in the Cambridge 
# Structural Database, then it will include bibliographic, chemical, 
# crystal, experimental, refinement or atomic coordinate data resulting 
# from the CCDC's data processing and validation procedures.
#
#######################################################################

data_TUPCIQ
_chemical_name_common            
'bis(2.2.2-Crypt-potassium) deca-arseniotrithiolate'
_chemical_formula_moiety         '2(C18 H36 K1 N2 O6 1+),As10 S3 2-'
_chemical_name_systematic        
'bis((4,7,13,16,21,24-Hexaoxa-1,10-diazabicyclo(8.8.8)hexacosane)-potassium) deca-arseniotrithiolate'
_symmetry_cell_setting           triclinic
_symmetry_space_group_name_H-M   'P -1'
_symmetry_Int_Tables_number      2
_space_group_name_Hall           '-P 1'
loop_
_symmetry_equiv_pos_site_id
_symmetry_equiv_pos_as_xyz
1 x,y,z
2 -x,-y,-z
_cell_length_a                   11.698(2)
_cell_length_b                   13.058(3)
_cell_length_c                   21.606(4)
_cell_angle_alpha                95.57(3)
_cell_angle_beta                 93.96(3)
_cell_angle_gamma                108.94(3)
_cell_volume                     3089.17
_exptl_crystal_colour            red
_cell_formula_units_Z            2
loop_
_atom_site_label
_atom_site_type_symbol
_atom_site_fract_x
_atom_site_fract_y
_atom_site_fract_z
As1 As 1.2034(2) 0.5914(2) 0.19467(10)
As2 As 1.0056(2) 0.5881(2) 0.14796(9)
As3 As 0.9901(2) 0.7255(2) 0.22838(10)
As4 As 0.7236(2) 0.4837(2) 0.23415(10)
As5 As 0.8611(2) 0.4187(2) 0.17118(8)
As6 As 0.9837(2) 0.36206(14) 0.24842(8)
As7 As 0.8536(2) 0.3441(2) 0.33352(8)
As8 As 0.8295(2) 0.5244(2) 0.33819(9)
As9 As 1.0282(2) 0.6514(2) 0.32561(8)
As10 As 1.1386(2) 0.5271(2) 0.29396(9)
S1 S 1.2681(4) 0.7673(4) 0.2229(2)
S2 S 0.7825(5) 0.6602(4) 0.2152(2)
S3 S 0.6795(4) 0.2545(3) 0.2797(2)
K1 K 0.6924(3) 0.8547(2) 0.50196(13)
N1 N 0.7150(11) 0.9249(10) 0.3737(5)
N2 N 0.6711(12) 0.7859(11) 0.6315(5)
O1 O 0.5143(9) 0.7371(8) 0.4028(5)
O2 O 0.5212(9) 0.6536(8) 0.5194(5)
O3 O 0.8869(9) 0.8043(8) 0.5635(4)
O4 O 0.8848(8) 0.8412(8) 0.4360(4)
O5 O 0.7091(8) 1.0707(7) 0.4853(4)
O6 O 0.6511(9) 0.9975(8) 0.6007(4)
C1 C 0.595(2) 0.8781(13) 0.3395(7)
C2 C 0.539(2) 0.757(2) 0.3423(8)
C3 C 0.470(2) 0.6245(13) 0.4084(8)
C4 C 0.4243(14) 0.6077(12) 0.4705(9)
C5 C 0.478(2) 0.6503(13) 0.5789(8)
C6 C 0.585(2) 0.6743(13) 0.6290(8)
C7 C 0.791(2) 0.7895(14) 0.6571(8)
C8 C 0.858(2) 0.740(2) 0.6123(8)
C9 C 0.9474(14) 0.7594(13) 0.5189(8)
C10 C 0.9886(14) 0.8335(12) 0.4714(7)
C11 C 0.918(2) 0.9059(13) 0.3868(7)
C12 C 0.8074(13) 0.8918(13) 0.3438(7)
C13 C 0.7508(14) 1.0469(13) 0.3788(7)
C14 C 0.6849(14) 1.0960(13) 0.4240(7)
C15 C 0.660(2) 1.1282(12) 0.5324(7)
C16 C 0.699(2) 1.1091(12) 0.5944(7)
C17 C 0.688(2) 0.983(2) 0.6615(7)
C18 C 0.628(2) 0.8587(13) 0.6700(7)
H1 H 0.600(2) 0.8910(13) 0.2953(7)
H2 H 0.541(2) 0.9158(13) 0.3571(7)
H3 H 0.463(2) 0.727(2) 0.3137(8)
H4 H 0.596(2) 0.720(2) 0.3283(8)
H5 H 0.536(2) 0.5934(13) 0.4039(8)
H6 H 0.404(2) 0.5865(13) 0.3747(8)
H7 H 0.3614(14) 0.6425(12) 0.4759(9)
H8 H 0.3866(14) 0.5286(12) 0.4727(9)
H9 H 0.419(2) 0.5772(13) 0.5812(8)
H10 H 0.437(2) 0.7051(13) 0.5859(8)
H11 H 0.554(2) 0.6642(13) 0.6702(8)
H12 H 0.629(2) 0.6216(13) 0.6202(8)
H13 H 0.782(2) 0.7504(14) 0.6945(8)
H14 H 0.841(2) 0.8666(14) 0.6710(8)
H15 H 0.933(2) 0.737(2) 0.6345(8)
H16 H 0.806(2) 0.665(2) 0.5951(8)
H17 H 0.8914(14) 0.6881(13) 0.4981(8)
H18 H 1.0183(14) 0.7470(13) 0.5405(8)
H19 H 1.0398(14) 0.9067(12) 0.4922(7)
H20 H 1.0379(14) 0.8051(12) 0.4434(7)
H21 H 0.978(2) 0.8832(13) 0.3636(7)
H22 H 0.956(2) 0.9837(13) 0.4042(7)
H23 H 0.8315(13) 0.9350(13) 0.3087(7)
H24 H 0.7717(13) 0.8140(13) 0.3259(7)
H25 H 0.7356(14) 1.0675(13) 0.3369(7)
H26 H 0.8392(14) 1.0789(13) 0.3919(7)
H27 H 0.7123(14) 1.1762(13) 0.4241(7)
H28 H 0.5964(14) 1.0667(13) 0.4108(7)
H29 H 0.689(2) 1.2074(12) 0.5290(7)
H30 H 0.570(2) 1.1016(12) 0.5253(7)
H31 H 0.789(2) 1.1335(12) 0.6008(7)
H32 H 0.671(2) 1.1518(12) 0.6266(7)
H33 H 0.662(2) 1.030(2) 0.6925(7)
H34 H 0.778(2) 1.005(2) 0.6678(7)
H35 H 0.644(2) 0.8498(13) 0.7144(7)
H36 H 0.539(2) 0.8376(13) 0.6601(7)
K2 K 0.6976(3) 0.8514(2) 0.00356(13)
N3 N 0.6309(11) 0.7172(10) -0.1220(5)
N4 N 0.7656(10) 0.9917(9) 0.1275(5)
O7 O 0.6062(9) 0.9347(7) -0.1010(4)
O8 O 0.7219(8) 1.0746(7) 0.0106(4)
O9 O 0.5482(8) 0.7950(7) 0.0976(4)
O10 O 0.5165(8) 0.6419(7) -0.0106(4)
O11 O 0.8743(9) 0.7767(8) -0.0522(4)
O12 O 0.9119(8) 0.8691(8) 0.0755(4)
C19 C 0.558(2) 0.7614(14) -0.1618(7)
C20 C 0.608(2) 0.8828(14) -0.1616(7)
C21 C 0.6625(14) 1.0493(12) -0.1002(6)
C22 C 0.6529(14) 1.1053(12) -0.0380(7)
C23 C 0.726(2) 1.1342(12) 0.0691(7)
C24 C 0.8060(14) 1.1065(12) 0.1170(7)
C25 C 0.6571(14) 0.9675(12) 0.1613(6)
C26 C 0.5913(13) 0.8455(12) 0.1610(6)
C27 C 0.4880(14) 0.6802(12) 0.0965(7)
C28 C 0.4278(12) 0.6340(12) 0.0323(7)
C29 C 0.4627(13) 0.5973(12) -0.0712(7)
C30 C 0.560(2) 0.6030(11) -0.1150(7)
C31 C 0.744(2) 0.7196(14) -0.1482(7)
C32 C 0.8347(14) 0.6930(14) -0.1048(8)
C33 C 0.947(2) 0.747(2) -0.0043(8)
C34 C 1.004(2) 0.842(2) 0.0443(8)
C35 C 0.9624(13) 0.9567(14) 0.1236(7)
C36 C 0.8638(14) 0.9685(13) 0.1636(7)
H37 H 0.475(2) 0.7422(14) -0.1482(7)
H38 H 0.550(2) 0.7260(14) -0.2052(7)
H39 H 0.692(2) 0.9042(14) -0.1730(7)
H40 H 0.558(2) 0.9058(14) -0.1927(7)
H41 H 0.6218(14) 1.0754(12) -0.1339(6)
H42 H 0.7490(14) 1.0660(12) -0.1073(6)
H43 H 0.6846(14) 1.1853(12) -0.0382(7)
H44 H 0.5666(14) 1.0844(12) -0.0299(7)
H45 H 0.643(2) 1.1169(12) 0.0821(7)
H46 H 0.758(2) 1.2133(12) 0.0658(7)
H47 H 0.8890(14) 1.1259(12) 0.1039(7)
H48 H 0.8107(14) 1.1520(12) 0.1572(7)
H49 H 0.6000(14) 1.0001(12) 0.1420(6)
H50 H 0.6812(14) 1.0023(12) 0.2051(6)
H51 H 0.6476(13) 0.8115(12) 0.1798(6)
H52 H 0.5219(13) 0.8343(12) 0.1864(6)
H53 H 0.4268(14) 0.6670(12) 0.1268(7)
H54 H 0.5478(14) 0.6445(12) 0.1082(7)
H55 H 0.3777(12) 0.5565(12) 0.0319(7)
H56 H 0.3735(12) 0.6743(12) 0.0194(7)
H57 H 0.4102(13) 0.6381(12) -0.0858(7)
H58 H 0.4112(13) 0.5203(12) -0.0712(7)
H59 H 0.615(2) 0.5665(11) -0.0985(7)
H60 H 0.521(2) 0.5635(11) -0.1565(7)
H61 H 0.783(2) 0.7932(14) -0.1603(7)
H62 H 0.724(2) 0.6669(14) -0.1868(7)
H63 H 0.7963(14) 0.6211(14) -0.0906(8)
H64 H 0.9051(14) 0.6899(14) -0.1270(8)
H65 H 1.010(2) 0.724(2) -0.0234(8)
H66 H 0.895(2) 0.685(2) 0.0150(8)
H67 H 1.060(2) 0.824(2) 0.0749(8)
H68 H 1.053(2) 0.905(2) 0.0247(8)
H69 H 0.9987(13) 1.0250(14) 0.1052(7)
H70 H 1.0275(13) 0.9434(14) 0.1499(7)
H71 H 0.8289(14) 0.9002(13) 0.1822(7)
H72 H 0.9009(14) 1.0283(13) 0.1982(7)
loop_
_geom_bond_atom_site_label_1
_geom_bond_atom_site_label_2
_geom_bond_site_symmetry_1
_geom_bond_site_symmetry_2
As1 As2 1_555 1_555
As2 As3 1_555 1_555
As3 As9 1_555 1_555
As4 As5 1_555 1_555
As5 As2 1_555 1_555
As6 As5 1_555 1_555
As7 As6 1_555 1_555
As8 As4 1_555 1_555
As9 As8 1_555 1_555
As10 As1 1_555 1_555
S1 As1 1_555 1_555
S2 As3 1_555 1_555
S3 As7 1_555 1_555
K1 N1 1_555 1_555
K2 N3 1_555 1_555
N1 C1 1_555 1_555
N2 K1 1_555 1_555
N3 C19 1_555 1_555
N4 K2 1_555 1_555
O1 K1 1_555 1_555
O2 K1 1_555 1_555
O3 K1 1_555 1_555
O4 K1 1_555 1_555
O5 K1 1_555 1_555
O6 K1 1_555 1_555
O7 K2 1_555 1_555
O8 K2 1_555 1_555
O9 K2 1_555 1_555
O10 K2 1_555 1_555
O11 K2 1_555 1_555
O12 K2 1_555 1_555
C1 C2 1_555 1_555
C2 O1 1_555 1_555
C3 O1 1_555 1_555
C4 O2 1_555 1_555
C5 O2 1_555 1_555
C6 N2 1_555 1_555
C7 N2 1_555 1_555
C8 O3 1_555 1_555
C9 O3 1_555 1_555
C10 O4 1_555 1_555
C11 O4 1_555 1_555
C12 N1 1_555 1_555
C13 N1 1_555 1_555
C14 O5 1_555 1_555
C15 O5 1_555 1_555
C16 O6 1_555 1_555
C17 O6 1_555 1_555
C18 N2 1_555 1_555
C19 C20 1_555 1_555
C20 O7 1_555 1_555
C21 O7 1_555 1_555
C22 O8 1_555 1_555
C23 O8 1_555 1_555
C24 N4 1_555 1_555
C25 N4 1_555 1_555
C26 O9 1_555 1_555
C27 O9 1_555 1_555
C28 O10 1_555 1_555
C29 O10 1_555 1_555
C30 N3 1_555 1_555
C31 N3 1_555 1_555
C32 O11 1_555 1_555
C33 O11 1_555 1_555
C34 O12 1_555 1_555
C35 O12 1_555 1_555
C36 N4 1_555 1_555
H1 C1 1_555 1_555
H2 C1 1_555 1_555
H3 C2 1_555 1_555
H4 C2 1_555 1_555
H5 C3 1_555 1_555
H6 C3 1_555 1_555
H7 C4 1_555 1_555
H8 C4 1_555 1_555
H9 C5 1_555 1_555
H10 C5 1_555 1_555
H11 C6 1_555 1_555
H12 C6 1_555 1_555
H13 C7 1_555 1_555
H14 C7 1_555 1_555
H15 C8 1_555 1_555
H16 C8 1_555 1_555
H17 C9 1_555 1_555
H18 C9 1_555 1_555
H19 C10 1_555 1_555
H20 C10 1_555 1_555
H21 C11 1_555 1_555
H22 C11 1_555 1_555
H23 C12 1_555 1_555
H24 C12 1_555 1_555
H25 C13 1_555 1_555
H26 C13 1_555 1_555
H27 C14 1_555 1_555
H28 C14 1_555 1_555
H29 C15 1_555 1_555
H30 C15 1_555 1_555
H31 C16 1_555 1_555
H32 C16 1_555 1_555
H33 C17 1_555 1_555
H34 C17 1_555 1_555
H35 C18 1_555 1_555
H36 C18 1_555 1_555
H37 C19 1_555 1_555
H38 C19 1_555 1_555
H39 C20 1_555 1_555
H40 C20 1_555 1_555
H41 C21 1_555 1_555
H42 C21 1_555 1_555
H43 C22 1_555 1_555
H44 C22 1_555 1_555
H45 C23 1_555 1_555
H46 C23 1_555 1_555
H47 C24 1_555 1_555
H48 C24 1_555 1_555
H49 C25 1_555 1_555
H50 C25 1_555 1_555
H51 C26 1_555 1_555
H52 C26 1_555 1_555
H53 C27 1_555 1_555
H54 C27 1_555 1_555
H55 C28 1_555 1_555
H56 C28 1_555 1_555
H57 C29 1_555 1_555
H58 C29 1_555 1_555
H59 C30 1_555 1_555
H60 C30 1_555 1_555
H61 C31 1_555 1_555
H62 C31 1_555 1_555
H63 C32 1_555 1_555
H64 C32 1_555 1_555
H65 C33 1_555 1_555
H66 C33 1_555 1_555
H67 C34 1_555 1_555
H68 C34 1_555 1_555
H69 C35 1_555 1_555
H70 C35 1_555 1_555
H71 C36 1_555 1_555
H72 C36 1_555 1_555
As4 S2 1_555 1_555
As6 As10 1_555 1_555
As7 As8 1_555 1_555
As9 As10 1_555 1_555
C3 C4 1_555 1_555
C5 C6 1_555 1_555
C7 C8 1_555 1_555
C9 C10 1_555 1_555
C11 C12 1_555 1_555
C13 C14 1_555 1_555
C15 C16 1_555 1_555
C17 C18 1_555 1_555
C21 C22 1_555 1_555
C23 C24 1_555 1_555
C25 C26 1_555 1_555
C27 C28 1_555 1_555
C29 C30 1_555 1_555
C31 C32 1_555 1_555
C33 C34 1_555 1_555
C35 C36 1_555 1_555

#END
