
#######################################################################
#
#                 Cambridge Crystallographic Data Centre
#                                CCDC 
#
#######################################################################
#
# If this CIF has been generated from an entry in the Cambridge 
# Structural Database, then it will include bibliographic, chemical, 
# crystal, experimental, refinement or atomic coordinate data resulting 
# from the CCDC's data processing and validation procedures.
#
#######################################################################

data_TUPHOC
_chemical_formula_moiety         'C16 H18 N2 O1'
_chemical_name_systematic        
4-[(E)-(2-Methoxyphenyl)iminomethyl]-N,N-dimethylaniline
_symmetry_cell_setting           orthorhombic
_symmetry_space_group_name_H-M   'P n a 21'
_symmetry_Int_Tables_number      33
_space_group_name_Hall           'P 2c -2n'
loop_
_symmetry_equiv_pos_site_id
_symmetry_equiv_pos_as_xyz
1 x,y,z
2 -x,-y,1/2+z
3 1/2+x,1/2-y,z
4 1/2-x,1/2+y,1/2+z
_cell_length_a                   15.182(8)
_cell_length_b                   11.756(6)
_cell_length_c                   7.809(4)
_cell_angle_alpha                90
_cell_angle_beta                 90
_cell_angle_gamma                90
_cell_volume                     1393.75
_exptl_crystal_colour            yellow
_exptl_crystal_description       block
_cell_formula_units_Z            4
_exptl_crystal_recrystallization_method 'anhydrous ethanol'
loop_
_atom_site_label
_atom_site_type_symbol
_atom_site_fract_x
_atom_site_fract_y
_atom_site_fract_z
N1 N 0.08529(16) 0.7420(2) 1.1920(4)
N2 N 0.1439(2) 1.0507(2) 0.5158(4)
O1 O -0.04554(14) 0.71462(18) 1.4179(3)
C1 C 0.10910(19) 0.7230(3) 1.0385(5)
H1 H 0.1249 0.6490 1.0095
C2 C 0.11330(18) 0.8091(2) 0.9052(4)
C3 C 0.0861(2) 0.9208(2) 0.9266(5)
H2 H 0.0622 0.9424 1.0313
C4 C 0.0930(2) 1.0008(3) 0.7990(4)
H3 H 0.0721 1.0742 0.8172
C5 C 0.1316(2) 0.9720(3) 0.6405(4)
C6 C 0.1559(2) 0.8582(3) 0.6161(4)
H4 H 0.1789 0.8354 0.5112
C7 C 0.1464(2) 0.7804(3) 0.7451(4)
H5 H 0.1628 0.7053 0.7247
C8 C 0.1310(2) 1.1711(3) 0.5473(6)
H6 H 0.1425 1.2130 0.4441
H7 H 0.1706 1.1959 0.6356
H8 H 0.0714 1.1843 0.5832
C9 C 0.1775(3) 1.0189(3) 0.3522(5)
H9 H 0.1816 1.0850 0.2805
H10 H 0.1386 0.9645 0.3003
H11 H 0.2349 0.9858 0.3656
C10 C 0.09047(19) 0.6513(2) 1.3124(4)
C11 C 0.0228(2) 0.6391(2) 1.4323(4)
C12 C 0.0272(2) 0.5535(2) 1.5526(5)
H12 H -0.0182 0.5450 1.6315
C13 C 0.0982(2) 0.4804(3) 1.5570(5)
H13 H 0.1005 0.4228 1.6385
C14 C 0.1645(2) 0.4925(3) 1.4428(5)
H14 H 0.2124 0.4433 1.4462
C15 C 0.1615(2) 0.5780(2) 1.3207(5)
H15 H 0.2077 0.5861 1.2435
C16 C -0.1075(3) 0.7158(4) 1.5491(7)
H16 H -0.1517 0.7718 1.5246
H17 H -0.0789 0.7341 1.6553
H18 H -0.1345 0.6422 1.5578
loop_
_geom_bond_atom_site_label_1
_geom_bond_atom_site_label_2
_geom_bond_site_symmetry_1
_geom_bond_site_symmetry_2
N1 C1 1_555 1_555
N2 C5 1_555 1_555
O1 C11 1_555 1_555
C1 H1 1_555 1_555
C2 C1 1_555 1_555
C3 C2 1_555 1_555
H2 C3 1_555 1_555
C4 C3 1_555 1_555
H3 C4 1_555 1_555
C5 C4 1_555 1_555
C6 C5 1_555 1_555
H4 C6 1_555 1_555
C7 C2 1_555 1_555
H5 C7 1_555 1_555
C8 N2 1_555 1_555
H6 C8 1_555 1_555
H7 C8 1_555 1_555
H8 C8 1_555 1_555
C9 N2 1_555 1_555
H9 C9 1_555 1_555
H10 C9 1_555 1_555
H11 C9 1_555 1_555
C10 N1 1_555 1_555
C11 C10 1_555 1_555
C12 C11 1_555 1_555
H12 C12 1_555 1_555
C13 C12 1_555 1_555
H13 C13 1_555 1_555
C14 C13 1_555 1_555
H14 C14 1_555 1_555
C15 C10 1_555 1_555
H15 C15 1_555 1_555
C16 O1 1_555 1_555
H16 C16 1_555 1_555
H17 C16 1_555 1_555
H18 C16 1_555 1_555
C6 C7 1_555 1_555
C14 C15 1_555 1_555

#END
