
#######################################################################
#
#                 Cambridge Crystallographic Data Centre
#                                CCDC 
#
#######################################################################
#
# If this CIF has been generated from an entry in the Cambridge 
# Structural Database, then it will include bibliographic, chemical, 
# crystal, experimental, refinement or atomic coordinate data resulting 
# from the CCDC's data processing and validation procedures.
#
#######################################################################

data_TUPHUI
_chemical_formula_moiety         'C4 H4 N4 O1'
_chemical_name_systematic        'N,N-bis(cyanomethyl)nitrous amide'
_symmetry_cell_setting           monoclinic
_symmetry_space_group_name_H-M   'P 21/c'
_symmetry_Int_Tables_number      14
_space_group_name_Hall           '-P 2ybc'
loop_
_symmetry_equiv_pos_site_id
_symmetry_equiv_pos_as_xyz
1 x,y,z
2 -x,1/2+y,1/2-z
3 -x,-y,-z
4 x,1/2-y,1/2+z
_cell_length_a                   6.5622(13)
_cell_length_b                   8.9765(18)
_cell_length_c                   11.008(4)
_cell_angle_alpha                90
_cell_angle_beta                 108.55(3)
_cell_angle_gamma                90
_cell_volume                     614.744
_exptl_crystal_colour            colorless
_exptl_crystal_description       prism
_cell_formula_units_Z            4
_exptl_crystal_recrystallization_method 'ethyl acetate'
loop_
_atom_site_label
_atom_site_type_symbol
_atom_site_fract_x
_atom_site_fract_y
_atom_site_fract_z
O1 O 0.1721(2) -0.00421(14) 0.24979(14)
N1 N 0.1213(3) 0.3227(2) 0.03826(14)
N2 N 0.6354(3) 0.36079(17) 0.61699(14)
N3 N 0.3553(2) 0.02971(15) 0.31634(14)
N4 N 0.38510(18) 0.17474(12) 0.33544(10)
C1 C 0.6201(2) 0.29919(17) 0.52436(14)
C2 C 0.6039(2) 0.22069(18) 0.40327(13)
H1 H 0.6543 0.2860 0.3487
H2 H 0.6962 0.1336 0.4222
C3 C 0.1609(2) 0.30241(19) 0.14509(15)
C4 C 0.2111(2) 0.28025(16) 0.28328(13)
H3 H 0.2504 0.3752 0.3264
H4 H 0.0835 0.2446 0.3006
loop_
_geom_bond_atom_site_label_1
_geom_bond_atom_site_label_2
_geom_bond_site_symmetry_1
_geom_bond_site_symmetry_2
O1 N3 1_555 1_555
N1 C3 1_555 1_555
N2 C1 1_555 1_555
N3 N4 1_555 1_555
N4 C2 1_555 1_555
C1 C2 1_555 1_555
C2 H1 1_555 1_555
H2 C2 1_555 1_555
C3 C4 1_555 1_555
C4 N4 1_555 1_555
H3 C4 1_555 1_555
H4 C4 1_555 1_555

#END
