
#######################################################################
#
#                 Cambridge Crystallographic Data Centre
#                                CCDC 
#
#######################################################################
#
# If this CIF has been generated from an entry in the Cambridge 
# Structural Database, then it will include bibliographic, chemical, 
# crystal, experimental, refinement or atomic coordinate data resulting 
# from the CCDC's data processing and validation procedures.
#
#######################################################################

data_TUPJET
_chemical_compound_source        'Whole plant of Ajugata parviflora'
_chemical_formula_moiety         'C24 H35 Cl1 O7'
_chemical_name_systematic        'Ajugarin-I chlorohydrin'
_symmetry_cell_setting           orthorhombic
_symmetry_space_group_name_H-M   'P 21 21 21'
_symmetry_Int_Tables_number      19
_space_group_name_Hall           'P 2ac 2ab'
loop_
_symmetry_equiv_pos_site_id
_symmetry_equiv_pos_as_xyz
1 x,y,z
2 1/2-x,-y,1/2+z
3 1/2+x,1/2-y,-z
4 -x,1/2+y,1/2-z
_cell_length_a                   8.870(2)
_cell_length_b                   12.534(3)
_cell_length_c                   21.086(4)
_cell_angle_alpha                90
_cell_angle_beta                 90
_cell_angle_gamma                90
_cell_volume                     2344.27
_exptl_crystal_colour            colorless
_chemical_melting_point          165-166deg.C
_cell_formula_units_Z            4
loop_
_atom_site_label
_atom_site_type_symbol
_atom_site_fract_x
_atom_site_fract_y
_atom_site_fract_z
Cl1 Cl 0.3271(1) 0.5335(1) 0.7137(1)
C1 C 0.5121(5) 0.2767(3) 0.8668(2)
C2 C 0.3954(5) 0.2939(3) 0.8151(2)
C3 C 0.2975(5) 0.3898(3) 0.8312(2)
C4 C 0.3889(5) 0.4913(3) 0.8400(2)
C5 C 0.5119(5) 0.4765(3) 0.8939(2)
C6 C 0.6235(5) 0.5698(3) 0.8941(2)
C7 C 0.7581(4) 0.5576(3) 0.9376(2)
C8 C 0.8500(4) 0.4579(3) 0.9204(2)
C9 C 0.7515(4) 0.3559(3) 0.9201(2)
C10 C 0.6106(5) 0.3758(3) 0.8770(2)
C11 C 0.8446(5) 0.2610(3) 0.8931(2)
C12 C 0.8899(5) 0.2664(3) 0.8234(2)
C13 C 0.9887(4) 0.1761(3) 0.8028(2)
C14 C 1.0505(5) 0.0970(3) 0.8357(2)
C15 C 1.1351(5) 0.0279(3) 0.7928(2)
C16 C 1.0294(5) 0.1626(3) 0.7345(2)
C17 C 0.9883(4) 0.4530(4) 0.9639(2)
C18 C 0.4619(5) 0.5283(4) 0.7773(2)
C19 C 0.4206(4) 0.4632(3) 0.9569(2)
C20 C 0.7090(5) 0.3233(3) 0.9879(2)
C21 C 0.4115(5) 0.6145(3) 1.0276(2)
C22 C 0.5054(5) 0.6737(3) 1.0739(2)
C23 C 0.5836(5) 0.7591(3) 0.8819(2)
C24 C 0.4836(5) 0.8493(3) 0.9023(2)
O1 O 1.1221(3) 0.0678(2) 0.7328(1)
O2 O 1.2083(3) -0.0515(2) 0.8027(1)
O3 O 0.2792(3) 0.5715(2) 0.8573(1)
O4 O 0.4819(3) 0.5227(2) 1.0099(1)
O5 O 0.2906(3) 0.6422(2) 1.0067(1)
O6 O 0.5396(3) 0.6676(2) 0.9103(1)
O7 O 0.6861(3) 0.7638(2) 0.8451(1)
H1 H 0.5757(5) 0.2174(3) 0.8561(2)
H2 H 0.4615(5) 0.2603(3) 0.9058(2)
H3 H 0.3330(5) 0.2317(3) 0.8107(2)
H4 H 0.4455(5) 0.3064(3) 0.7754(2)
H5 H 0.2442(5) 0.3743(3) 0.8698(2)
H6 H 0.2239(5) 0.4012(3) 0.7985(2)
H7 H 0.6614(5) 0.5781(3) 0.8517(2)
H8 H 0.8211(4) 0.6197(3) 0.9347(2)
H9 H 0.7227(4) 0.5520(3) 0.9805(2)
H10 H 0.8863(4) 0.4680(3) 0.8779(2)
H11 H 0.6511(5) 0.3905(3) 0.8357(2)
H12 H 0.9349(5) 0.2547(3) 0.9179(2)
H13 H 0.7867(5) 0.1971(3) 0.8995(2)
H14 H 0.8000(5) 0.2668(3) 0.7980(2)
H15 H 0.9422(5) 0.3323(3) 0.8160(2)
H16 H 1.0411(5) 0.0874(3) 0.8807(2)
H17 H 1.0826(5) 0.2239(3) 0.7189(2)
H18 H 0.9407(5) 0.1518(3) 0.7092(2)
H19 H 1.0465(4) 0.3908(4) 0.9536(2)
H20 H 0.9569(4) 0.4492(4) 1.0074(2)
H21 H 1.0486(4) 0.5157(4) 0.9577(2)
H22 H 0.5411(5) 0.4795(4) 0.7661(2)
H23 H 0.5056(5) 0.5977(4) 0.7830(2)
H24 H 0.4168(4) 0.3889(3) 0.9679(2)
H25 H 0.3191(4) 0.4869(3) 0.9498(2)
H26 H 0.7988(5) 0.3128(3) 1.0126(2)
H27 H 0.6525(5) 0.2580(3) 0.9865(2)
H28 H 0.6487(5) 0.3782(3) 1.0071(2)
H29 H 0.4543(5) 0.7380(3) 1.0861(2)
H30 H 0.6006(5) 0.6914(3) 1.0549(2)
H31 H 0.5221(5) 0.6302(3) 1.1107(2)
H32 H 0.5163(5) 0.9132(3) 0.8814(2)
H33 H 0.4906(5) 0.8587(3) 0.9474(2)
H34 H 0.3809(5) 0.8345(3) 0.8910(2)
H35 H 0.3409(3) 0.6318(2) 0.8734(1)
loop_
_geom_bond_atom_site_label_1
_geom_bond_atom_site_label_2
_geom_bond_site_symmetry_1
_geom_bond_site_symmetry_2
Cl1 C18 1_555 1_555
C1 C2 1_555 1_555
C2 C3 1_555 1_555
C3 C4 1_555 1_555
C4 C5 1_555 1_555
C5 C6 1_555 1_555
C6 C7 1_555 1_555
C7 C8 1_555 1_555
C8 C9 1_555 1_555
C9 C10 1_555 1_555
C10 C1 1_555 1_555
C11 C9 1_555 1_555
C12 C11 1_555 1_555
C13 C12 1_555 1_555
C14 C13 1_555 1_555
C15 C14 1_555 1_555
C16 C13 1_555 1_555
C17 C8 1_555 1_555
C18 C4 1_555 1_555
C19 C5 1_555 1_555
C20 C9 1_555 1_555
C21 C22 1_555 1_555
C22 H29 1_555 1_555
C23 C24 1_555 1_555
C24 H32 1_555 1_555
O1 C15 1_555 1_555
O2 C15 1_555 1_555
O3 C4 1_555 1_555
O4 C19 1_555 1_555
O5 C21 1_555 1_555
O6 C6 1_555 1_555
O7 C23 1_555 1_555
H1 C1 1_555 1_555
H2 C1 1_555 1_555
H3 C2 1_555 1_555
H4 C2 1_555 1_555
H5 C3 1_555 1_555
H6 C3 1_555 1_555
H7 C6 1_555 1_555
H8 C7 1_555 1_555
H9 C7 1_555 1_555
H10 C8 1_555 1_555
H11 C10 1_555 1_555
H12 C11 1_555 1_555
H13 C11 1_555 1_555
H14 C12 1_555 1_555
H15 C12 1_555 1_555
H16 C14 1_555 1_555
H17 C16 1_555 1_555
H18 C16 1_555 1_555
H19 C17 1_555 1_555
H20 C17 1_555 1_555
H21 C17 1_555 1_555
H22 C18 1_555 1_555
H23 C18 1_555 1_555
H24 C19 1_555 1_555
H25 C19 1_555 1_555
H26 C20 1_555 1_555
H27 C20 1_555 1_555
H28 C20 1_555 1_555
H30 C22 1_555 1_555
H31 C22 1_555 1_555
H33 C24 1_555 1_555
H34 C24 1_555 1_555
H35 O3 1_555 1_555
C5 C10 1_555 1_555
C16 O1 1_555 1_555
C21 O4 1_555 1_555
C23 O6 1_555 1_555

#END
