
#######################################################################
#
#                 Cambridge Crystallographic Data Centre
#                                CCDC 
#
#######################################################################
#
# If this CIF has been generated from an entry in the Cambridge 
# Structural Database, then it will include bibliographic, chemical, 
# crystal, experimental, refinement or atomic coordinate data resulting 
# from the CCDC's data processing and validation procedures.
#
#######################################################################

data_TUPJIY
_chemical_formula_moiety         'C9 H10 N1 O4 1+,2(H2 O1),Cl1 1-'
_chemical_name_systematic        
'3,5-Dicarboxy-2,6-dimethylpyridinium chloride dihydrate'
_symmetry_cell_setting           monoclinic
_symmetry_space_group_name_H-M   'C 2/c'
_symmetry_Int_Tables_number      15
_space_group_name_Hall           '-C 2yn'
loop_
_symmetry_equiv_pos_site_id
_symmetry_equiv_pos_as_xyz
1 x,y,z
2 -x,y,1/2-z
3 1/2+x,1/2+y,z
4 1/2-x,1/2+y,1/2-z
5 -x,-y,-z
6 x,-y,1/2+z
7 1/2-x,1/2-y,-z
8 1/2+x,1/2-y,1/2+z
_cell_length_a                   8.2301(10)
_cell_length_b                   10.7825(10)
_cell_length_c                   13.882(2)
_cell_angle_alpha                90
_cell_angle_beta                 98.11(3)
_cell_angle_gamma                90
_cell_volume                     1219.58
_exptl_crystal_colour            colorless
_exptl_crystal_description       prism
_cell_formula_units_Z            4
loop_
_atom_site_label
_atom_site_type_symbol
_atom_site_fract_x
_atom_site_fract_y
_atom_site_fract_z
Cl1 Cl 0.0000 0.47434(6) 0.2500
O1 O 0.80009(19) 0.97343(12) 0.46240(10)
H1 H 0.7609 1.0230 0.4976
N1 N 1.0000 0.76737(19) 0.2500
C1 C 0.8456(2) 1.03196(17) 0.38880(13)
O3 O 0.8329(2) 1.14346(13) 0.37602(13)
C2 C 0.9224(2) 0.95307(16) 0.31833(12)
C3 C 0.9200(2) 0.82364(16) 0.31650(12)
C4 C 0.8353(3) 0.73948(19) 0.37910(16)
H2 H 0.8362 0.6563 0.3545
H3 H 0.7240 0.7664 0.3784
H4 H 0.8915 0.7417 0.4446
C5 C 1.0000 1.0148(2) 0.2500
H5 H 1.0000 1.1011 0.2500
H6 H 1.0000 0.679(4) 0.2500
O1A O 1.19991(19) 0.97343(12) 0.03760(10)
H1A H 1.2391 1.0230 0.0024
C1A C 1.1544(2) 1.03196(17) 0.11120(13)
O3A O 1.1671(2) 1.14346(13) 0.12398(13)
C2A C 1.0776(2) 0.95307(16) 0.18167(12)
C3A C 1.0800(2) 0.82364(16) 0.18350(12)
C4A C 1.1647(3) 0.73948(19) 0.12090(16)
H2A H 1.1638 0.6563 0.1455
H3A H 1.2760 0.7664 0.1216
H4A H 1.1085 0.7417 0.0554
O2 O 0.8401(3) 0.38706(18) 0.42729(16)
H7 H 0.844(4) 0.315(4) 0.422(2)
H8 H 0.880(4) 0.409(3) 0.380(3)
loop_
_geom_bond_atom_site_label_1
_geom_bond_atom_site_label_2
_geom_bond_site_symmetry_1
_geom_bond_site_symmetry_2
O1 H1 1_555 1_555
N1 C3 1_555 1_555
O2 H7 1_555 1_555
C1 O1 1_555 1_555
O3 C1 1_555 1_555
C2 C1 1_555 1_555
C3 C2 1_555 1_555
C4 C3 1_555 1_555
H2 C4 1_555 1_555
H3 C4 1_555 1_555
H4 C4 1_555 1_555
C5 C2 1_555 1_555
H5 C5 1_555 1_555
H6 N1 1_555 1_555
H8 O2 1_555 1_555
O1A H1A 1_555 1_555
C1A O1A 1_555 1_555
O3A C1A 1_555 1_555
C2A C5 1_555 1_555
C3A N1 1_555 1_555
C4A C3A 1_555 1_555
H2A C4A 1_555 1_555
H3A C4A 1_555 1_555
H4A C4A 1_555 1_555
C1A C2A 1_555 1_555
C2A C3A 1_555 1_555

#END
