
#######################################################################
#
#                 Cambridge Crystallographic Data Centre
#                                CCDC 
#
#######################################################################
#
# If this CIF has been generated from an entry in the Cambridge 
# Structural Database, then it will include bibliographic, chemical, 
# crystal, experimental, refinement or atomic coordinate data resulting 
# from the CCDC's data processing and validation procedures.
#
#######################################################################

data_TUPMAT
_chemical_formula_moiety         'C14 H16 Cl1 N3 O2 S1'
_chemical_name_systematic        
4-Chloro-N-(3-methyl-1-(5-thioxo-4,5-dihydro-1,3,4-oxadiazol-2-yl)butyl)benzamide
_symmetry_cell_setting           orthorhombic
_symmetry_space_group_name_H-M   'P 21 21 21'
_symmetry_Int_Tables_number      19
_space_group_name_Hall           'P 2ac 2ab'
loop_
_symmetry_equiv_pos_site_id
_symmetry_equiv_pos_as_xyz
1 x,y,z
2 1/2-x,-y,1/2+z
3 -x,1/2+y,1/2-z
4 1/2+x,1/2-y,-z
_cell_length_a                   6.0171(6)
_cell_length_b                   15.3120(15)
_cell_length_c                   18.1493(17)
_cell_angle_alpha                90
_cell_angle_beta                 90
_cell_angle_gamma                90
_cell_volume                     1672.16
_exptl_crystal_colour            colorless
_exptl_crystal_description       block
_cell_formula_units_Z            4
_exptl_crystal_recrystallization_method ethanol
loop_
_atom_site_label
_atom_site_type_symbol
_atom_site_fract_x
_atom_site_fract_y
_atom_site_fract_z
Cl1 Cl 1.2875(3) 0.07537(10) -0.04447(8)
N1 N 0.4961(8) 0.5638(3) 0.2486(2)
H1 H 0.4553 0.6175 0.2515
N2 N 0.6705(8) 0.5299(2) 0.2891(2)
N3 N 0.9177(6) 0.3351(2) 0.22952(19)
H2 H 1.0323 0.3577 0.2086
O1 O 0.5141(6) 0.4303(2) 0.21792(16)
O2 O 0.6632(6) 0.22820(19) 0.23058(17)
S1 S 0.1860(3) 0.51382(10) 0.14928(8)
C1 C 0.3976(8) 0.5066(3) 0.2049(2)
C2 C 0.6745(10) 0.4498(3) 0.2683(2)
C3 C 0.8216(9) 0.3780(3) 0.2935(2)
H3 H 0.7295 0.3352 0.3195
C4 C 0.9999(9) 0.4102(3) 0.3469(2)
H4 H 1.0827 0.4567 0.3233
H5 H 0.9271 0.4348 0.3898
C5 C 1.1631(10) 0.3406(3) 0.3725(3)
H6 H 1.2452 0.3206 0.3290
C6 C 1.3329(10) 0.3803(4) 0.4260(3)
H7 H 1.2604 0.3948 0.4715
H8 H 1.3955 0.4321 0.4046
H9 H 1.4490 0.3387 0.4353
C7 C 1.0511(12) 0.2623(4) 0.4053(3)
H10 H 0.9645 0.2799 0.4471
H11 H 1.1615 0.2208 0.4205
H12 H 0.9557 0.2360 0.3692
C8 C 0.8305(9) 0.2601(3) 0.2021(2)
C9 C 0.9491(9) 0.2185(3) 0.1398(3)
C10 C 0.8393(9) 0.1520(3) 0.1025(2)
H13 H 0.6966 0.1359 0.1168
C11 C 0.9413(10) 0.1093(3) 0.0440(3)
H14 H 0.8661 0.0660 0.0181
C12 C 1.1541(11) 0.1319(3) 0.0247(3)
C13 C 1.2613(9) 0.1986(3) 0.0598(3)
H15 H 1.4027 0.2153 0.0446
C14 C 1.1604(9) 0.2411(3) 0.1174(3)
H16 H 1.2355 0.2858 0.1416
loop_
_geom_bond_atom_site_label_1
_geom_bond_atom_site_label_2
_geom_bond_site_symmetry_1
_geom_bond_site_symmetry_2
Cl1 C12 1_555 1_555
N1 H1 1_555 1_555
N2 N1 1_555 1_555
N3 H2 1_555 1_555
O1 C1 1_555 1_555
O2 C8 1_555 1_555
S1 C1 1_555 1_555
C1 N1 1_555 1_555
C2 N2 1_555 1_555
C3 N3 1_555 1_555
H3 C3 1_555 1_555
C4 C3 1_555 1_555
H4 C4 1_555 1_555
H5 C4 1_555 1_555
C5 C4 1_555 1_555
H6 C5 1_555 1_555
C6 C5 1_555 1_555
H7 C6 1_555 1_555
H8 C6 1_555 1_555
H9 C6 1_555 1_555
C7 C5 1_555 1_555
H10 C7 1_555 1_555
H11 C7 1_555 1_555
H12 C7 1_555 1_555
C8 N3 1_555 1_555
C9 C8 1_555 1_555
C10 C9 1_555 1_555
H13 C10 1_555 1_555
C11 C10 1_555 1_555
H14 C11 1_555 1_555
C12 C11 1_555 1_555
C13 C12 1_555 1_555
H15 C13 1_555 1_555
C14 C9 1_555 1_555
H16 C14 1_555 1_555
O1 C2 1_555 1_555
C2 C3 1_555 1_555
C13 C14 1_555 1_555

#END
