
#######################################################################
#
#                 Cambridge Crystallographic Data Centre
#                                CCDC 
#
#######################################################################
#
# If this CIF has been generated from an entry in the Cambridge 
# Structural Database, then it will include bibliographic, chemical, 
# crystal, experimental, refinement or atomic coordinate data resulting 
# from the CCDC's data processing and validation procedures.
#
#######################################################################

data_TUPMIB
_chemical_formula_moiety         'C15 H15 N1 O4'
_chemical_name_systematic        'Dimethyl 2-(2-quinolylmethyl)malonate'
_symmetry_cell_setting           monoclinic
_symmetry_space_group_name_H-M   'P 21/c'
_symmetry_Int_Tables_number      14
_space_group_name_Hall           '-P 2ybc'
loop_
_symmetry_equiv_pos_site_id
_symmetry_equiv_pos_as_xyz
1 x,y,z
2 -x,1/2+y,1/2-z
3 -x,-y,-z
4 x,1/2-y,1/2+z
_cell_length_a                   10.626(2)
_cell_length_b                   16.198(3)
_cell_length_c                   8.1859(16)
_cell_angle_alpha                90
_cell_angle_beta                 107.92(3)
_cell_angle_gamma                90
_cell_volume                     1340.6
_exptl_crystal_colour            colorless
_exptl_crystal_description       prism
_cell_formula_units_Z            4
_exptl_crystal_recrystallization_method hexane
loop_
_atom_site_label
_atom_site_type_symbol
_atom_site_fract_x
_atom_site_fract_y
_atom_site_fract_z
O1 O 0.42646(9) 0.11002(5) 0.37324(10)
O2 O 0.28197(9) 0.17212(5) 0.48439(11)
O3 O 0.57807(9) 0.20028(5) 0.71040(11)
O4 O 0.58734(10) 0.12269(6) 0.94065(12)
N1 N 0.24000(10) -0.02029(6) 0.47394(13)
C1 C 0.14301(12) -0.06967(7) 0.37093(16)
C2 C 0.13159(14) -0.07574(8) 0.19515(17)
H1 H 0.1898 -0.0466 0.1519
C3 C 0.03559(14) -0.12414(8) 0.08742(17)
H2 H 0.0287 -0.1271 -0.0285
C4 C -0.05277(13) -0.16937(8) 0.15063(17)
H3 H -0.1164 -0.2029 0.0771
C5 C -0.04480(13) -0.16388(8) 0.32021(17)
H4 H -0.1036 -0.1937 0.3612
C6 C 0.05144(13) -0.11361(7) 0.43356(16)
C7 C 0.06142(13) -0.10242(8) 0.60895(16)
H5 H 0.0030 -0.1293 0.6554
C8 C 0.15648(13) -0.05239(8) 0.70838(16)
H6 H 0.1631 -0.0444 0.8232
C9 C 0.24603(12) -0.01216(7) 0.63656(15)
C10 C 0.35008(13) 0.04359(8) 0.74929(15)
H7 H 0.4004 0.0127 0.8496
H8 H 0.3065 0.0886 0.7886
C11 C 0.44620(12) 0.07996(7) 0.66261(15)
H9 H 0.4954 0.0344 0.6324
C12 C 0.37365(12) 0.12590(7) 0.49881(15)
C13 C 0.35706(15) 0.14582(9) 0.20836(16)
H10 H 0.2709 0.1213 0.1651
H11 H 0.4060 0.1357 0.1295
H12 H 0.3481 0.2042 0.2211
C14 C 0.54437(12) 0.13576(8) 0.78861(16)
C15 C 0.67016(15) 0.25858(9) 0.81881(19)
H13 H 0.6337 0.2801 0.9038
H14 H 0.6855 0.3030 0.7498
H15 H 0.7522 0.2312 0.8747
loop_
_geom_bond_atom_site_label_1
_geom_bond_atom_site_label_2
_geom_bond_site_symmetry_1
_geom_bond_site_symmetry_2
O1 C12 1_555 1_555
O2 C12 1_555 1_555
O3 C14 1_555 1_555
O4 C14 1_555 1_555
N1 C1 1_555 1_555
C1 C2 1_555 1_555
C2 H1 1_555 1_555
C3 C2 1_555 1_555
H2 C3 1_555 1_555
C4 C3 1_555 1_555
H3 C4 1_555 1_555
C5 C4 1_555 1_555
H4 C5 1_555 1_555
C6 C1 1_555 1_555
C7 C6 1_555 1_555
H5 C7 1_555 1_555
C8 C7 1_555 1_555
H6 C8 1_555 1_555
C9 N1 1_555 1_555
C10 C9 1_555 1_555
H7 C10 1_555 1_555
H8 C10 1_555 1_555
C11 C10 1_555 1_555
H9 C11 1_555 1_555
C12 C11 1_555 1_555
C13 O1 1_555 1_555
H10 C13 1_555 1_555
H11 C13 1_555 1_555
H12 C13 1_555 1_555
C14 C11 1_555 1_555
C15 O3 1_555 1_555
H13 C15 1_555 1_555
H14 C15 1_555 1_555
H15 C15 1_555 1_555
C5 C6 1_555 1_555
C8 C9 1_555 1_555

#END
