
#######################################################################
#
#                 Cambridge Crystallographic Data Centre
#                                CCDC 
#
#######################################################################
#
# If this CIF has been generated from an entry in the Cambridge 
# Structural Database, then it will include bibliographic, chemical, 
# crystal, experimental, refinement or atomic coordinate data resulting 
# from the CCDC's data processing and validation procedures.
#
#######################################################################

data_TUPNOI
_chemical_formula_moiety         'C17 H10 F6 O4'
_chemical_name_systematic        
"4,4'-(1,1,1,3,3,3-Hexafluoropropane-2,2-diyl)dibenzoic acid"
_symmetry_cell_setting           monoclinic
_symmetry_space_group_name_H-M   'P 21/c'
_symmetry_Int_Tables_number      14
_space_group_name_Hall           '-P 2ybc'
loop_
_symmetry_equiv_pos_site_id
_symmetry_equiv_pos_as_xyz
1 x,y,z
2 -x,1/2+y,1/2-z
3 -x,-y,-z
4 x,1/2-y,1/2+z
_cell_length_a                   7.7523(16)
_cell_length_b                   13.381(3)
_cell_length_c                   16.134(3)
_cell_angle_alpha                90
_cell_angle_beta                 102.294(4)
_cell_angle_gamma                90
_cell_volume                     1635.26
_exptl_crystal_colour            colorless
_exptl_crystal_description       prism
_cell_formula_units_Z            4
loop_
_atom_site_label
_atom_site_type_symbol
_atom_site_fract_x
_atom_site_fract_y
_atom_site_fract_z
C1 C -0.2346(4) 0.0955(2) 0.4514(2)
C2 C -0.1474(3) 0.04538(17) 0.38975(18)
C3 C 0.0256(3) 0.06770(16) 0.38831(17)
H1 H 0.0908 0.1094 0.4295
C4 C 0.1019(3) 0.02807(17) 0.32574(17)
H2 H 0.2188 0.0435 0.3254
C5 C 0.0090(3) -0.03396(17) 0.26363(17)
C6 C -0.1618(3) -0.05959(18) 0.26780(19)
H3 H -0.2251 -0.1042 0.2286
C7 C -0.2381(3) -0.01936(19) 0.32963(19)
H4 H -0.3539 -0.0363 0.3309
C8 C 0.1010(3) -0.07485(17) 0.19469(18)
C9 C 0.2103(4) -0.1652(2) 0.2347(2)
C10 C -0.0290(4) -0.1105(2) 0.1152(2)
C11 C 0.2132(3) 0.00552(17) 0.16376(15)
C12 C 0.1452(3) 0.10175(17) 0.14883(16)
H5 H 0.0372 0.1171 0.1621
C13 C 0.2346(3) 0.17475(18) 0.11477(16)
H6 H 0.1856 0.2382 0.1045
C14 C 0.3958(3) 0.15424(18) 0.09593(16)
C15 C 0.4658(3) 0.05969(19) 0.11157(18)
H7 H 0.5758 0.0454 0.1002
C16 C 0.3744(3) -0.01372(19) 0.14386(17)
H8 H 0.4223 -0.0776 0.1524
C17 C 0.4938(4) 0.2307(2) 0.05836(17)
O1 O -0.1535(2) 0.15916(13) 0.50126(12)
O2 O -0.3969(3) 0.07246(13) 0.44691(15)
H9 H -0.4415 0.1127 0.4745
O3 O 0.6508(3) 0.20695(12) 0.05373(14)
H10 H 0.7020 0.2563 0.0408
O4 O 0.4229(2) 0.31255(13) 0.03316(12)
F1 F -0.14945(18) -0.04108(11) 0.08519(10)
F2 F -0.11835(19) -0.19326(11) 0.12709(10)
F3 F 0.05259(19) -0.13151(11) 0.05246(11)
F4 F 0.1158(2) -0.22673(10) 0.27230(11)
F5 F 0.2745(2) -0.22093(10) 0.17918(11)
F6 F 0.3482(2) -0.13628(10) 0.29418(11)
loop_
_geom_bond_atom_site_label_1
_geom_bond_atom_site_label_2
_geom_bond_site_symmetry_1
_geom_bond_site_symmetry_2
C1 C2 1_555 1_555
C2 C3 1_555 1_555
C3 H1 1_555 1_555
C4 C3 1_555 1_555
H2 C4 1_555 1_555
C5 C4 1_555 1_555
C6 C5 1_555 1_555
H3 C6 1_555 1_555
C7 C2 1_555 1_555
H4 C7 1_555 1_555
C8 C5 1_555 1_555
C9 C8 1_555 1_555
C10 C8 1_555 1_555
C11 C8 1_555 1_555
C12 C11 1_555 1_555
H5 C12 1_555 1_555
C13 C12 1_555 1_555
H6 C13 1_555 1_555
C14 C13 1_555 1_555
C15 C14 1_555 1_555
H7 C15 1_555 1_555
C16 C11 1_555 1_555
H8 C16 1_555 1_555
C17 C14 1_555 1_555
O1 C1 1_555 1_555
O2 C1 1_555 1_555
H9 O2 1_555 1_555
O3 C17 1_555 1_555
H10 O3 1_555 1_555
O4 C17 1_555 1_555
F1 C10 1_555 1_555
F2 C10 1_555 1_555
F3 C10 1_555 1_555
F4 C9 1_555 1_555
F5 C9 1_555 1_555
F6 C9 1_555 1_555
C6 C7 1_555 1_555
C15 C16 1_555 1_555

#END
