
#######################################################################
#
#                 Cambridge Crystallographic Data Centre
#                                CCDC 
#
#######################################################################
#
# If this CIF has been generated from an entry in the Cambridge 
# Structural Database, then it will include bibliographic, chemical, 
# crystal, experimental, refinement or atomic coordinate data resulting 
# from the CCDC's data processing and validation procedures.
#
#######################################################################

data_TUPTUT01
_chemical_name_common            (+)-Antrocin
_chemical_formula_moiety         'C15 H22 O2'
_chemical_name_systematic        
7,7-dimethyl-4-methylenedecahydronaphtho[1,8a-c]furan-1-one
_symmetry_cell_setting           monoclinic
_symmetry_space_group_name_H-M   'P 21'
_symmetry_Int_Tables_number      4
_space_group_name_Hall           'P 2yb'
loop_
_symmetry_equiv_pos_site_id
_symmetry_equiv_pos_as_xyz
1 x,y,z
2 -x,1/2+y,-z
_cell_length_a                   6.1762(4)
_cell_length_b                   15.9914(7)
_cell_length_c                   7.1677(4)
_cell_angle_alpha                90
_cell_angle_beta                 114.107(7)
_cell_angle_gamma                90
_cell_volume                     646.183
_cell_formula_units_Z            2
loop_
_atom_site_label
_atom_site_type_symbol
_atom_site_fract_x
_atom_site_fract_y
_atom_site_fract_z
O1 O 1.0053(5) 0.26949(17) 0.9515(4)
O2 O 0.8626(5) 0.39646(19) 0.9387(5)
C1 C 1.0140(6) 0.3534(2) 0.9286(5)
C2 C 1.2418(5) 0.3778(2) 0.9065(5)
C3 C 1.4182(6) 0.4084(2) 1.1184(5)
H1 H 1.4076 0.3714 1.2250
H2 H 1.5815 0.4044 1.1259
C4 C 1.3709(7) 0.4979(3) 1.1619(6)
H3 H 1.2114 0.5019 1.1630
H4 H 1.4895 0.5152 1.2979
C5 C 1.3850(7) 0.5552(2) 0.9985(6)
H5 H 1.5447 0.5502 0.9984
H6 H 1.3654 0.6138 1.0338
C6 C 1.1993(6) 0.5366(2) 0.7838(5)
C7 C 1.2120(6) 0.4419(2) 0.7357(5)
H7 H 1.3608 0.4365 0.7130
C8 C 1.0139(7) 0.4136(2) 0.5333(5)
H8 H 0.8583 0.4278 0.5342
H9 H 1.0284 0.4445 0.4193
C9 C 1.0221(7) 0.3183(2) 0.4958(5)
H10 H 0.8982 0.2896 0.5263
H11 H 0.9883 0.3083 0.3502
C10 C 1.2599(6) 0.2826(2) 0.6273(5)
C11 C 1.3288(6) 0.2932(2) 0.8555(5)
H12 H 1.5047 0.2885 0.9315
C12 C 1.2050(7) 0.2286(2) 0.9359(6)
H13 H 1.1508 0.1805 0.8410
H14 H 1.3156 0.2078 1.0715
C13 C 0.9538(7) 0.5658(3) 0.7653(7)
H15 H 0.9597 0.6256 0.7970
H16 H 0.9093 0.5343 0.8616
H17 H 0.8361 0.5561 0.6257
C14 C 1.2604(8) 0.5884(2) 0.6310(7)
H18 H 1.2532 0.6480 0.6591
H19 H 1.1462 0.5759 0.4916
H20 H 1.4206 0.5741 0.6451
C15 C 1.4026(8) 0.2457(3) 0.5572(6)
H21 H 1.3566 0.2404 0.4141
H22 H 1.5514 0.2244 0.6498
loop_
_geom_bond_atom_site_label_1
_geom_bond_atom_site_label_2
_geom_bond_site_symmetry_1
_geom_bond_site_symmetry_2
O1 C1 1_555 1_555
O2 C1 1_555 1_555
C1 C2 1_555 1_555
C2 C3 1_555 1_555
C3 H1 1_555 1_555
H2 C3 1_555 1_555
C4 C3 1_555 1_555
H3 C4 1_555 1_555
H4 C4 1_555 1_555
C5 C4 1_555 1_555
H5 C5 1_555 1_555
H6 C5 1_555 1_555
C6 C5 1_555 1_555
C7 C2 1_555 1_555
H7 C7 1_555 1_555
C8 C7 1_555 1_555
H8 C8 1_555 1_555
H9 C8 1_555 1_555
C9 C8 1_555 1_555
H10 C9 1_555 1_555
H11 C9 1_555 1_555
C10 C9 1_555 1_555
C11 C2 1_555 1_555
H12 C11 1_555 1_555
C12 O1 1_555 1_555
H13 C12 1_555 1_555
H14 C12 1_555 1_555
C13 C6 1_555 1_555
H15 C13 1_555 1_555
H16 C13 1_555 1_555
H17 C13 1_555 1_555
C14 C6 1_555 1_555
H18 C14 1_555 1_555
H19 C14 1_555 1_555
H20 C14 1_555 1_555
C15 C10 1_555 1_555
H21 C15 1_555 1_555
H22 C15 1_555 1_555
C6 C7 1_555 1_555
C10 C11 1_555 1_555
C11 C12 1_555 1_555

#END
