
#######################################################################
#
#                 Cambridge Crystallographic Data Centre
#                                CCDC 
#
#######################################################################
#
# If this CIF has been generated from an entry in the Cambridge 
# Structural Database, then it will include bibliographic, chemical, 
# crystal, experimental, refinement or atomic coordinate data resulting 
# from the CCDC's data processing and validation procedures.
#
#######################################################################

data_TUPWOS
_chemical_formula_moiety         'C19 H18 Cl2 N4'
_chemical_name_systematic        
4'-(4,6-Dichloro-1,3,5-triazin-2-yl)-N,N-diethylbiphenyl-4-amine
_symmetry_cell_setting           monoclinic
_symmetry_space_group_name_H-M   'P 21'
_symmetry_Int_Tables_number      4
_space_group_name_Hall           'P 2yb'
loop_
_symmetry_equiv_pos_site_id
_symmetry_equiv_pos_as_xyz
1 x,y,z
2 -x,1/2+y,-z
_cell_length_a                   7.6007(2)
_cell_length_b                   7.3647(2)
_cell_length_c                   16.1100(4)
_cell_angle_alpha                90
_cell_angle_beta                 93.9836(10)
_cell_angle_gamma                90
_cell_volume                     899.609
_exptl_crystal_colour            orange
_exptl_crystal_description       'thin plate'
_cell_formula_units_Z            2
loop_
_atom_site_label
_atom_site_type_symbol
_atom_site_fract_x
_atom_site_fract_y
_atom_site_fract_z
Cl1 Cl 0.09322(7) 0.19339(13) 0.58872(3)
Cl2 Cl 0.68377(6) 0.15047(12) 0.45031(3)
N1 N 0.38096(17) 0.1677(3) 0.51275(8)
N2 N 0.11285(18) 0.1999(3) 0.42917(8)
N3 N 0.38326(17) 0.1758(3) 0.36521(8)
N4 N -0.49033(18) 0.2299(2) -0.18673(9)
C1 C 0.2074(2) 0.1867(4) 0.49983(10)
C2 C 0.4577(2) 0.1662(3) 0.44115(11)
C3 C 0.2067(2) 0.1938(3) 0.36121(10)
C4 C 0.1103(2) 0.2064(3) 0.27994(10)
C5 C -0.0641(2) 0.2668(3) 0.27347(11)
H1 H -0.1182 0.3004 0.3212
C6 C 0.1890(2) 0.1594(3) 0.20688(10)
H2 H 0.3062 0.1222 0.2095
C7 C -0.1567(2) 0.2772(3) 0.19722(11)
H3 H -0.2723 0.3192 0.1944
C8 C 0.09327(19) 0.1680(3) 0.13113(9)
H4 H 0.1469 0.1338 0.0834
C9 C -0.0821(2) 0.2266(2) 0.12394(10)
C10 C -0.18647(19) 0.2303(2) 0.04323(9)
C11 C -0.3353(2) 0.3410(2) 0.02911(11)
H5 H -0.3679 0.4165 0.0717
C12 C -0.1439(2) 0.1215(3) -0.02291(10)
H6 H -0.0454 0.0466 -0.0163
C13 C -0.4349(2) 0.3423(3) -0.04519(11)
H7 H -0.5328 0.4180 -0.0516
C14 C -0.2426(2) 0.1207(3) -0.09804(10)
H8 H -0.2093 0.0450 -0.1404
C15 C -0.3918(2) 0.2312(2) -0.11200(10)
C16 C -0.6373(2) 0.3549(3) -0.20450(12)
H9 H -0.6467 0.3821 -0.2636
H10 H -0.6127 0.4678 -0.1748
C17 C -0.8104(3) 0.2806(3) -0.18012(15)
H11 H -0.9020 0.3680 -0.1931
H12 H -0.8030 0.2561 -0.1215
H13 H -0.8369 0.1703 -0.2102
C18 C -0.4497(2) 0.1085(3) -0.25413(11)
H14 H -0.5564 0.0876 -0.2894
H15 H -0.4117 -0.0075 -0.2306
C19 C -0.3086(3) 0.1799(4) -0.30700(11)
H16 H -0.2883 0.0938 -0.3501
H17 H -0.2014 0.1981 -0.2729
H18 H -0.3463 0.2933 -0.3317
loop_
_geom_bond_atom_site_label_1
_geom_bond_atom_site_label_2
_geom_bond_site_symmetry_1
_geom_bond_site_symmetry_2
Cl1 C1 1_555 1_555
Cl2 C2 1_555 1_555
N1 C1 1_555 1_555
N2 C1 1_555 1_555
N3 C2 1_555 1_555
N4 C15 1_555 1_555
C2 N1 1_555 1_555
C3 N2 1_555 1_555
C4 C3 1_555 1_555
C5 C4 1_555 1_555
H1 C5 1_555 1_555
C6 C4 1_555 1_555
H2 C6 1_555 1_555
C7 C5 1_555 1_555
H3 C7 1_555 1_555
C8 C6 1_555 1_555
H4 C8 1_555 1_555
C9 C7 1_555 1_555
C10 C9 1_555 1_555
C11 C10 1_555 1_555
H5 C11 1_555 1_555
C12 C10 1_555 1_555
H6 C12 1_555 1_555
C13 C11 1_555 1_555
H7 C13 1_555 1_555
C14 C12 1_555 1_555
H8 C14 1_555 1_555
C15 C13 1_555 1_555
C16 N4 1_555 1_555
H9 C16 1_555 1_555
H10 C16 1_555 1_555
C17 C16 1_555 1_555
H11 C17 1_555 1_555
H12 C17 1_555 1_555
H13 C17 1_555 1_555
C18 N4 1_555 1_555
H14 C18 1_555 1_555
H15 C18 1_555 1_555
C19 C18 1_555 1_555
H16 C19 1_555 1_555
H17 C19 1_555 1_555
H18 C19 1_555 1_555
N3 C3 1_555 1_555
C8 C9 1_555 1_555
C14 C15 1_555 1_555

#END
