
#######################################################################
#
#                 Cambridge Crystallographic Data Centre
#                                CCDC 
#
#######################################################################
#
# If this CIF has been generated from an entry in the Cambridge 
# Structural Database, then it will include bibliographic, chemical, 
# crystal, experimental, refinement or atomic coordinate data resulting 
# from the CCDC's data processing and validation procedures.
#
#######################################################################

data_TUPWOR
_chemical_name_common            'Methyl 3-(4-methylbenzylidene)carbazate'
_chemical_formula_moiety         'C10 H12 N2 O2'
_chemical_name_systematic        
'Methyl 2-(4-methylbenzylidene)hydrazinecarboxylate'
_symmetry_cell_setting           monoclinic
_symmetry_space_group_name_H-M   'P 21/c'
_symmetry_Int_Tables_number      14
_space_group_name_Hall           '-P 2ybc'
loop_
_symmetry_equiv_pos_site_id
_symmetry_equiv_pos_as_xyz
1 x,y,z
2 -x,1/2+y,1/2-z
3 -x,-y,-z
4 x,1/2-y,1/2+z
_cell_length_a                   10.038(2)
_cell_length_b                   13.308(3)
_cell_length_c                   7.7923(16)
_cell_angle_alpha                90
_cell_angle_beta                 99.71(3)
_cell_angle_gamma                90
_cell_volume                     1026.03
_exptl_crystal_colour            colorless
_exptl_crystal_description       block
_cell_formula_units_Z            4
loop_
_atom_site_label
_atom_site_type_symbol
_atom_site_fract_x
_atom_site_fract_y
_atom_site_fract_z
O1 O 0.44060(12) 0.82548(9) 0.19195(16)
C1 C 0.55062(16) 0.81674(12) 0.1159(2)
N1 N 0.75692(13) 0.73089(10) 0.14969(17)
O2 O 0.56744(12) 0.86340(9) -0.01208(15)
C2 C 0.95735(16) 0.62998(12) 0.1941(2)
N2 N 0.63541(14) 0.74964(11) 0.20247(18)
H1 H 0.6141 0.7184 0.2906
C3 C 0.82561(17) 0.66004(13) 0.2311(2)
H2 H 0.7903 0.6261 0.3176
C4 C 1.15344(17) 0.65532(14) 0.0599(2)
H3 H 1.2004 0.6951 -0.0078
C5 C 1.20961(17) 0.56483(14) 0.1252(2)
C6 C 1.13692(18) 0.50763(15) 0.2245(2)
H4 H 1.1719 0.4465 0.2692
C7 C 1.01357(17) 0.53927(13) 0.2585(2)
H5 H 0.9668 0.4992 0.3260
C8 C 1.02987(18) 0.68754(13) 0.0931(2)
H6 H 0.9947 0.7484 0.0475
C9 C 0.3380(2) 0.89244(15) 0.1047(3)
H7 H 0.2630 0.8938 0.1665
H8 H 0.3080 0.8693 -0.0120
H9 H 0.3749 0.9589 0.1017
C10 C 1.3469(2) 0.53239(18) 0.0914(3)
H10 H 1.3699 0.4687 0.1463
H11 H 1.4131 0.5815 0.1383
H12 H 1.3449 0.5263 -0.0317
loop_
_geom_bond_atom_site_label_1
_geom_bond_atom_site_label_2
_geom_bond_site_symmetry_1
_geom_bond_site_symmetry_2
O1 C1 1_555 1_555
C1 O2 1_555 1_555
N1 N2 1_555 1_555
C2 C3 1_555 1_555
N2 C1 1_555 1_555
H1 N2 1_555 1_555
C3 N1 1_555 1_555
H2 C3 1_555 1_555
C4 H3 1_555 1_555
C5 C4 1_555 1_555
C6 C5 1_555 1_555
H4 C6 1_555 1_555
C7 C2 1_555 1_555
H5 C7 1_555 1_555
C8 C2 1_555 1_555
H6 C8 1_555 1_555
C9 O1 1_555 1_555
H7 C9 1_555 1_555
H8 C9 1_555 1_555
H9 C9 1_555 1_555
C10 C5 1_555 1_555
H10 C10 1_555 1_555
H11 C10 1_555 1_555
H12 C10 1_555 1_555
C4 C8 1_555 1_555
C6 C7 1_555 1_555

#END
