
#######################################################################
#
#                 Cambridge Crystallographic Data Centre
#                                CCDC 
#
#######################################################################
#
# If this CIF has been generated from an entry in the Cambridge 
# Structural Database, then it will include bibliographic, chemical, 
# crystal, experimental, refinement or atomic coordinate data resulting 
# from the CCDC's data processing and validation procedures.
#
#######################################################################

data_TUPXOS01
_chemical_formula_moiety         'C24 H26 O1'
_chemical_name_systematic        
(E,E)-2,6-bis(2,4-Dimethylbenzylidene)cyclohexanone
_symmetry_cell_setting           monoclinic
_symmetry_space_group_name_H-M   'P 21/c'
_symmetry_Int_Tables_number      14
_space_group_name_Hall           '-P 2ybc'
loop_
_symmetry_equiv_pos_site_id
_symmetry_equiv_pos_as_xyz
1 x,y,z
2 -x,1/2+y,1/2-z
3 -x,-y,-z
4 x,1/2-y,1/2+z
_cell_length_a                   7.1262(7)
_cell_length_b                   19.3291(19)
_cell_length_c                   14.3727(15)
_cell_angle_alpha                90
_cell_angle_beta                 101.800(2)
_cell_angle_gamma                90
_cell_volume                     1937.9
_exptl_crystal_colour            green
_exptl_crystal_description       prismatic
_cell_formula_units_Z            4
_exptl_crystal_recrystallization_method chloroform/methanol
loop_
_atom_site_label
_atom_site_type_symbol
_atom_site_fract_x
_atom_site_fract_y
_atom_site_fract_z
O1 O 0.0668(4) 0.89271(9) 0.7551(2)
C1 C 0.1693(4) 0.89563(12) 0.6966(2)
C2 C 0.2213(3) 0.96405(11) 0.66084(16)
C3 C 0.1560(3) 1.02042(11) 0.69642(16)
H1 H 0.0822 1.0128 0.7418
C4 C 0.2389(3) 0.83089(10) 0.65845(15)
C5 C 0.1853(3) 0.77088(10) 0.69015(15)
H2 H 0.1166 0.7740 0.7385
C6 C 0.2198(3) 0.70068(10) 0.65941(14)
C7 C 0.2019(3) 0.68437(12) 0.56345(16)
H3 H 0.1781 0.7197 0.5186
C8 C 0.2184(4) 0.61760(13) 0.53346(18)
H4 H 0.2048 0.6082 0.4690
C9 C 0.2551(3) 0.56421(12) 0.5988(2)
C10 C 0.2748(3) 0.58002(11) 0.69313(18)
H5 H 0.3008 0.5444 0.7373
C11 C 0.2578(3) 0.64653(11) 0.72566(15)
C12 C 0.1850(3) 1.09334(10) 0.67352(15)
C13 C 0.1634(3) 1.11576(11) 0.58003(16)
H6 H 0.1316 1.0839 0.5309
C14 C 0.1882(3) 1.18425(12) 0.55857(16)
H7 H 0.1729 1.1979 0.4954
C15 C 0.2354(3) 1.23287(11) 0.62997(17)
C16 C 0.2542(3) 1.21041(11) 0.72203(17)
H8 H 0.2854 1.2428 0.7706
C17 C 0.2294(3) 1.14221(11) 0.74684(15)
C18 C 0.3509(3) 0.96525(11) 0.59060(17)
H9 H 0.4259 1.0075 0.5988
H10 H 0.2739 0.9650 0.5266
C19 C 0.4844(3) 0.90352(10) 0.60339(19)
H11 H 0.5677 0.9058 0.5579
H12 H 0.5639 0.9040 0.6668
C20 C 0.3685(3) 0.83770(11) 0.58873(16)
H13 H 0.2918 0.8371 0.5247
H14 H 0.4548 0.7984 0.5954
C21 C 0.2819(3) 0.65979(12) 0.83001(15)
H15 H 0.3052 0.6168 0.8639
H16 H 0.1675 0.6807 0.8426
H17 H 0.3886 0.6904 0.8504
C22 C 0.2714(5) 0.49011(13) 0.5671(2)
H18 H 0.3992 0.4736 0.5908
H19 H 0.2435 0.4881 0.4989
H20 H 0.1817 0.4617 0.5913
C23 C 0.2704(4) 1.30753(12) 0.6096(2)
H21 H 0.2088 1.3366 0.6486
H22 H 0.2191 1.3172 0.5438
H23 H 0.4058 1.3165 0.6234
C24 C 0.2548(3) 1.12256(12) 0.84932(16)
H24 H 0.2998 1.1619 0.8884
H25 H 0.3467 1.0857 0.8632
H26 H 0.1343 1.1075 0.8621
loop_
_geom_bond_atom_site_label_1
_geom_bond_atom_site_label_2
_geom_bond_site_symmetry_1
_geom_bond_site_symmetry_2
O1 C1 1_555 1_555
C1 C2 1_555 1_555
C2 C3 1_555 1_555
C3 H1 1_555 1_555
C4 C1 1_555 1_555
C5 C4 1_555 1_555
H2 C5 1_555 1_555
C6 C5 1_555 1_555
C7 C6 1_555 1_555
H3 C7 1_555 1_555
C8 C7 1_555 1_555
H4 C8 1_555 1_555
C9 C8 1_555 1_555
C10 C9 1_555 1_555
H5 C10 1_555 1_555
C11 C6 1_555 1_555
C12 C3 1_555 1_555
C13 C12 1_555 1_555
H6 C13 1_555 1_555
C14 C13 1_555 1_555
H7 C14 1_555 1_555
C15 C14 1_555 1_555
C16 C15 1_555 1_555
H8 C16 1_555 1_555
C17 C12 1_555 1_555
C18 C2 1_555 1_555
H9 C18 1_555 1_555
H10 C18 1_555 1_555
C19 C18 1_555 1_555
H11 C19 1_555 1_555
H12 C19 1_555 1_555
C20 C4 1_555 1_555
H13 C20 1_555 1_555
H14 C20 1_555 1_555
C21 C11 1_555 1_555
H15 C21 1_555 1_555
H16 C21 1_555 1_555
H17 C21 1_555 1_555
C22 C9 1_555 1_555
H18 C22 1_555 1_555
H19 C22 1_555 1_555
H20 C22 1_555 1_555
C23 C15 1_555 1_555
H21 C23 1_555 1_555
H22 C23 1_555 1_555
H23 C23 1_555 1_555
C24 C17 1_555 1_555
H24 C24 1_555 1_555
H25 C24 1_555 1_555
H26 C24 1_555 1_555
C10 C11 1_555 1_555
C16 C17 1_555 1_555
C19 C20 1_555 1_555

#END
