
#######################################################################
#
#                 Cambridge Crystallographic Data Centre
#                                CCDC 
#
#######################################################################
#
# If this CIF has been generated from an entry in the Cambridge 
# Structural Database, then it will include bibliographic, chemical, 
# crystal, experimental, refinement or atomic coordinate data resulting 
# from the CCDC's data processing and validation procedures.
#
#######################################################################

data_TUPYIN
_chemical_name_common            
2,2-Dimethyl-5-hydroxy-7-methoxy-6-acetylchromene
_chemical_formula_moiety         'C14 H16 O4'
_chemical_name_systematic        
1-(5-Hydroxy-7-methoxy-2,2-dimethyl-2H-chromen-6-yl)ethan-1-one
_symmetry_cell_setting           triclinic
_symmetry_space_group_name_H-M   'P -1'
_symmetry_Int_Tables_number      2
_space_group_name_Hall           '-P 1'
loop_
_symmetry_equiv_pos_site_id
_symmetry_equiv_pos_as_xyz
1 x,y,z
2 -x,-y,-z
_cell_length_a                   7.3797(9)
_cell_length_b                   8.0066(10)
_cell_length_c                   11.2878(14)
_cell_angle_alpha                77.9480(10)
_cell_angle_beta                 77.4110(10)
_cell_angle_gamma                84.465(2)
_cell_volume                     635.665
_exptl_crystal_colour            colorless
_exptl_crystal_description       block
_cell_formula_units_Z            2
loop_
_atom_site_label
_atom_site_type_symbol
_atom_site_fract_x
_atom_site_fract_y
_atom_site_fract_z
O1 O 0.1836(2) 0.20248(18) 0.25325(13)
O2 O 0.2390(2) 0.76852(19) 0.29434(15)
H1 H 0.2508 0.8241 0.3453
O3 O 0.2742(3) 0.8220(2) 0.49648(17)
O4 O 0.2615(2) 0.30717(19) 0.63521(13)
C1 C 0.2377(3) 0.2453(3) 0.11859(19)
C2 C 0.2004(4) 0.4317(3) 0.0732(2)
H2 H 0.1813 0.4684 -0.0072
C3 C 0.1938(3) 0.5467(3) 0.1434(2)
H3 H 0.1751 0.6624 0.1116
C4 C 0.2160(3) 0.4900(3) 0.27044(19)
C5 C 0.2349(3) 0.6020(3) 0.3466(2)
C6 C 0.2498(3) 0.5431(3) 0.47159(19)
C7 C 0.2432(3) 0.3632(3) 0.51639(19)
C8 C 0.2232(3) 0.2528(3) 0.44272(19)
H4 H 0.2184 0.1360 0.4741
C9 C 0.2101(3) 0.3175(3) 0.32112(19)
C10 C 0.1212(4) 0.1353(3) 0.0740(2)
H5 H 0.1443 0.0172 0.1090
H6 H 0.1534 0.1517 -0.0146
H7 H -0.0081 0.1672 0.0992
C11 C 0.4434(4) 0.1947(4) 0.0849(2)
H8 H 0.5131 0.2610 0.1191
H9 H 0.4831 0.2157 -0.0035
H10 H 0.4640 0.0754 0.1176
C12 C 0.2686(3) 0.6685(3) 0.5448(2)
C13 C 0.2816(3) 0.6241(3) 0.6777(2)
H11 H 0.2903 0.7267 0.7070
H12 H 0.3900 0.5500 0.6867
H13 H 0.1727 0.5670 0.7251
C14 C 0.2647(4) 0.1275(3) 0.6819(2)
H14 H 0.1481 0.0845 0.6811
H15 H 0.2846 0.1051 0.7652
H16 H 0.3635 0.0720 0.6310
loop_
_geom_bond_atom_site_label_1
_geom_bond_atom_site_label_2
_geom_bond_site_symmetry_1
_geom_bond_site_symmetry_2
O1 C1 1_555 1_555
O2 H1 1_555 1_555
O3 C12 1_555 1_555
O4 C7 1_555 1_555
C1 C2 1_555 1_555
C2 H2 1_555 1_555
C3 C2 1_555 1_555
H3 C3 1_555 1_555
C4 C3 1_555 1_555
C5 O2 1_555 1_555
C6 C5 1_555 1_555
C7 C6 1_555 1_555
C8 C7 1_555 1_555
H4 C8 1_555 1_555
C9 O1 1_555 1_555
C10 C1 1_555 1_555
H5 C10 1_555 1_555
H6 C10 1_555 1_555
H7 C10 1_555 1_555
C11 C1 1_555 1_555
H8 C11 1_555 1_555
H9 C11 1_555 1_555
H10 C11 1_555 1_555
C12 C6 1_555 1_555
C13 C12 1_555 1_555
H11 C13 1_555 1_555
H12 C13 1_555 1_555
H13 C13 1_555 1_555
C14 O4 1_555 1_555
H14 C14 1_555 1_555
H15 C14 1_555 1_555
H16 C14 1_555 1_555
C4 C5 1_555 1_555
C4 C9 1_555 1_555
C8 C9 1_555 1_555

#END
