
#######################################################################
#
#                 Cambridge Crystallographic Data Centre
#                                CCDC 
#
#######################################################################
#
# If this CIF has been generated from an entry in the Cambridge 
# Structural Database, then it will include bibliographic, chemical, 
# crystal, experimental, refinement or atomic coordinate data resulting 
# from the CCDC's data processing and validation procedures.
#
#######################################################################

data_TUPYAF
_chemical_formula_moiety         'C15 H11 Br2 N2 1+,2(H2 O1),Cl1 1-'
_chemical_name_systematic        
'1,3-bis(4-bromophenyl)-1H-imidazol-3-ium chloride dihydrate'
_symmetry_cell_setting           tetragonal
_symmetry_space_group_name_H-M   'P 42 21 2'
_symmetry_Int_Tables_number      94
_space_group_name_Hall           'P 4n 2n'
loop_
_symmetry_equiv_pos_site_id
_symmetry_equiv_pos_as_xyz
1 x,y,z
2 -x,-y,z
3 1/2-x,1/2+y,1/2-z
4 1/2+x,1/2-y,1/2-z
5 y,x,-z
6 -y,-x,-z
7 1/2-y,1/2+x,1/2+z
8 1/2+y,1/2-x,1/2+z
_cell_length_a                   17.8377(7)
_cell_length_b                   17.8377(7)
_cell_length_c                   5.12700(10)
_cell_angle_alpha                90
_cell_angle_beta                 90
_cell_angle_gamma                90
_cell_volume                     1631.33
_exptl_crystal_colour            colorless
_exptl_crystal_description       needle
_cell_formula_units_Z            4
loop_
_atom_site_label
_atom_site_type_symbol
_atom_site_fract_x
_atom_site_fract_y
_atom_site_fract_z
Br1 Br 0.100493(18) 0.463088(18) 0.00124(12)
N1 N 0.32639(19) 0.38584(18) 0.8472(7)
C1 C 0.32553(19) 0.32553(19) 1.0000
H3 H 0.2879 0.2879 1.0000
C2 C 0.3893(3) 0.4253(3) 0.9090(14)
H4 H 0.4044 0.4714 0.8322
C3 C 0.2714(2) 0.4041(2) 0.6525(7)
C4 C 0.2720(2) 0.4748(2) 0.5411(11)
H5 H 0.3075 0.5111 0.5974
C5 C 0.2207(3) 0.4925(3) 0.3464(9)
H6 H 0.2209 0.5408 0.2685
C6 C 0.1696(2) 0.4391(2) 0.2680(7)
C7 C 0.1683(2) 0.3694(2) 0.3799(8)
H7 H 0.1325 0.3334 0.3241
C8 C 0.2194(2) 0.3512(2) 0.5749(8)
H8 H 0.2185 0.3030 0.6536
Br1D Br 0.463088(18) 0.100493(18) 1.99876(12)
N1D N 0.38584(18) 0.32639(19) 1.1528(7)
C2D C 0.4253(3) 0.3893(3) 1.0910(14)
H4D H 0.4714 0.4044 1.1678
C3D C 0.4041(2) 0.2714(2) 1.3475(7)
C4D C 0.4748(2) 0.2720(2) 1.4589(11)
H5D H 0.5111 0.3075 1.4026
C5D C 0.4925(3) 0.2207(3) 1.6536(9)
H6D H 0.5408 0.2209 1.7315
C6D C 0.4391(2) 0.1696(2) 1.7320(7)
C7D C 0.3694(2) 0.1683(2) 1.6201(8)
H7D H 0.3334 0.1325 1.6759
C8D C 0.3512(2) 0.2194(2) 1.4251(8)
H8D H 0.3030 0.2185 1.3464
Cl1 Cl 0.13502(7) 0.13502(7) 0.5000
O1 O 0.20493(17) 0.20493(17) 1.0000
H1 H 0.186(5) 0.181(5) 1.125(8)
H1D H 0.181(5) 0.186(5) 0.875(8)
O2 O 0.0584(3) 0.0584(3) 1.0000
H2 H 0.067(5) 0.087(4) 0.867(10)
H2D H 0.087(4) 0.067(5) 1.133(10)
loop_
_geom_bond_atom_site_label_1
_geom_bond_atom_site_label_2
_geom_bond_site_symmetry_1
_geom_bond_site_symmetry_2
Br1 C6 1_555 1_555
O1 H1 1_555 1_555
O2 H2 1_555 1_555
N1 C1 1_555 1_555
C1 H3 1_555 1_555
C2 N1 1_555 1_555
H4 C2 1_555 1_555
C3 N1 1_555 1_555
C4 C3 1_555 1_555
H5 C4 1_555 1_555
C5 C4 1_555 1_555
H6 C5 1_555 1_555
C6 C5 1_555 1_555
C7 C6 1_555 1_555
H7 C7 1_555 1_555
C8 C3 1_555 1_555
H8 C8 1_555 1_555
Br1D C6D 1_555 1_555
H1D O1 1_555 1_555
H2D O2 1_555 1_555
N1D C1 1_555 1_555
C2D C2 1_555 1_555
H4D C2D 1_555 1_555
C3D N1D 1_555 1_555
C4D C3D 1_555 1_555
H5D C4D 1_555 1_555
C5D C4D 1_555 1_555
H6D C5D 1_555 1_555
C6D C5D 1_555 1_555
C7D C6D 1_555 1_555
H7D C7D 1_555 1_555
C8D C3D 1_555 1_555
H8D C8D 1_555 1_555
C7 C8 1_555 1_555
N1D C2D 1_555 1_555
C7D C8D 1_555 1_555

#END
