
#######################################################################
#
#                 Cambridge Crystallographic Data Centre
#                                CCDC 
#
#######################################################################
#
# If this CIF has been generated from an entry in the Cambridge 
# Structural Database, then it will include bibliographic, chemical, 
# crystal, experimental, refinement or atomic coordinate data resulting 
# from the CCDC's data processing and validation procedures.
#
#######################################################################

data_TUPZUA01
_chemical_formula_moiety         'C12 H11 N3 O4'
_chemical_name_systematic        
4-[(dimethylamino)methylidene]-2-(4-nitrophenyl)-1,3-oxazol-5(4H)-one
_symmetry_cell_setting           monoclinic
_symmetry_space_group_name_H-M   'P 21/c'
_symmetry_Int_Tables_number      14
_space_group_name_Hall           '-P 2ybc'
loop_
_symmetry_equiv_pos_site_id
_symmetry_equiv_pos_as_xyz
1 x,y,z
2 -x,1/2+y,1/2-z
3 -x,-y,-z
4 x,1/2-y,1/2+z
_cell_length_a                   9.5313(2)
_cell_length_b                   9.5204(3)
_cell_length_c                   13.0349(4)
_cell_angle_alpha                90
_cell_angle_beta                 106.6610(16)
_cell_angle_gamma                90
_cell_volume                     1133.15
_exptl_crystal_colour            red
_exptl_crystal_description       block
_cell_formula_units_Z            4
loop_
_atom_site_label
_atom_site_type_symbol
_atom_site_fract_x
_atom_site_fract_y
_atom_site_fract_z
O1 O 0.8806(3) 0.0985(3) 0.3355(2)
O2 O 1.3418(4) 0.6002(4) 0.6328(3)
O3 O 1.2439(4) 0.5747(4) 0.7613(3)
O4 O 0.7552(4) -0.0520(3) 0.2057(2)
N1 N 1.2557(4) 0.5430(4) 0.6734(3)
N2 N 0.5530(4) -0.1940(4) 0.4444(3)
N3 N 0.7873(4) 0.0457(4) 0.4711(3)
C1 C 0.8781(5) 0.1218(4) 0.4391(3)
C2 C 0.7182(5) -0.0383(4) 0.3831(3)
C3 C 0.7760(5) -0.0081(5) 0.2956(3)
C4 C 0.6135(5) -0.1411(4) 0.3736(3)
H1 H 0.582(6) -0.175(5) 0.302(4)
C5 C 0.5937(5) -0.1536(5) 0.5569(3)
H2 H 0.638407 -0.233918 0.601316
H3 H 0.506018 -0.123823 0.576087
H4 H 0.663865 -0.075812 0.568968
C6 C 0.4452(5) -0.3053(5) 0.4138(4)
H5 H 0.423481 -0.323247 0.336780
H6 H 0.355275 -0.276912 0.430394
H7 H 0.483836 -0.391038 0.453521
C7 C 0.9767(4) 0.2287(4) 0.4994(3)
C8 C 0.9799(5) 0.2570(5) 0.6051(3)
H8 H 0.918540 0.205691 0.637621
C9 C 1.0718(5) 0.3592(5) 0.6623(3)
H9 H 1.073964 0.379773 0.734103
C10 C 1.1609(5) 0.4314(4) 0.6133(3)
C11 C 1.1609(4) 0.4059(4) 0.5090(3)
H10 H 1.223452 0.457005 0.477399
C12 C 1.0671(5) 0.3036(4) 0.4518(3)
H11 H 1.064395 0.284370 0.379710
loop_
_geom_bond_atom_site_label_1
_geom_bond_atom_site_label_2
_geom_bond_site_symmetry_1
_geom_bond_site_symmetry_2
O1 C1 1_555 1_555
O2 N1 1_555 1_555
O3 N1 1_555 1_555
O4 C3 1_555 1_555
N1 C10 1_555 1_555
N2 C4 1_555 1_555
N3 C1 1_555 1_555
C1 C7 1_555 1_555
C2 N3 1_555 1_555
C3 O1 1_555 1_555
C4 C2 1_555 1_555
H1 C4 1_555 1_555
C5 N2 1_555 1_555
H2 C5 1_555 1_555
H3 C5 1_555 1_555
H4 C5 1_555 1_555
C6 N2 1_555 1_555
H5 C6 1_555 1_555
H6 C6 1_555 1_555
H7 C6 1_555 1_555
C7 C8 1_555 1_555
C8 H8 1_555 1_555
C9 C8 1_555 1_555
H9 C9 1_555 1_555
C10 C9 1_555 1_555
C11 C10 1_555 1_555
H10 C11 1_555 1_555
C12 C7 1_555 1_555
H11 C12 1_555 1_555
C2 C3 1_555 1_555
C11 C12 1_555 1_555

#END
