
#######################################################################
#
#                 Cambridge Crystallographic Data Centre
#                                CCDC 
#
#######################################################################
#
# If this CIF has been generated from an entry in the Cambridge 
# Structural Database, then it will include bibliographic, chemical, 
# crystal, experimental, refinement or atomic coordinate data resulting 
# from the CCDC's data processing and validation procedures.
#
#######################################################################

data_TUPZUA
_chemical_name_common            
4-((Dimethylamino)methylene)-2-(4-nitrophenyl)-1,3-oxazol-5(4H)-one
_chemical_formula_moiety         'C12 H11 N3 O4'
_chemical_name_systematic        
4-[(Dimethylamino)methylidene]-2-(4-nitrophenyl)-1,3-oxazol-5(4H)-one
_symmetry_cell_setting           monoclinic
_symmetry_space_group_name_H-M   'P 21/c'
_symmetry_Int_Tables_number      14
_space_group_name_Hall           '-P 2ybc'
loop_
_symmetry_equiv_pos_site_id
_symmetry_equiv_pos_as_xyz
1 x,y,z
2 -x,1/2+y,1/2-z
3 -x,-y,-z
4 x,1/2-y,1/2+z
_cell_length_a                   9.5313(2)
_cell_length_b                   9.5204(3)
_cell_length_c                   13.0349(4)
_cell_angle_alpha                90
_cell_angle_beta                 106.661(2)
_cell_angle_gamma                90
_cell_volume                     1133.15
_exptl_crystal_colour            red
_exptl_crystal_description       block
_cell_formula_units_Z            4
loop_
_atom_site_label
_atom_site_type_symbol
_atom_site_fract_x
_atom_site_fract_y
_atom_site_fract_z
O1 O 0.3806(2) 0.5986(2) 0.33548(17)
O2 O 0.2556(3) 0.4481(2) 0.20576(17)
O3 O 0.8419(3) 1.1001(3) 0.6327(2)
O4 O 0.7443(3) 1.0746(3) 0.76142(19)
N1 N 0.2875(3) 0.5457(3) 0.4711(2)
N2 N 0.0528(3) 0.3059(3) 0.4441(2)
N3 N 0.7556(3) 1.0430(3) 0.6733(2)
C1 C 0.3786(3) 0.6220(3) 0.4393(2)
C2 C 0.2186(3) 0.4617(3) 0.3831(2)
C3 C 0.2761(3) 0.4921(3) 0.2958(2)
C4 C 0.1130(3) 0.3590(3) 0.3735(2)
H1 H 0.0778 0.3199 0.3038
C5 C 0.0939(4) 0.3462(4) 0.5569(3)
H2 H 0.1378 0.2655 0.6012
H3 H 0.0066 0.3768 0.5761
H4 H 0.1649 0.4233 0.5691
C6 C -0.0548(4) 0.1947(4) 0.4138(3)
H5 H -0.0780 0.1778 0.3366
H6 H -0.1440 0.2223 0.4317
H7 H -0.0152 0.1086 0.4526
C7 C 0.4765(3) 0.7290(3) 0.4994(2)
C8 C 0.4797(3) 0.7571(3) 0.6051(2)
H8 H 0.4184 0.7056 0.6375
C9 C 0.5715(3) 0.8590(3) 0.6624(2)
H9 H 0.5735 0.8794 0.7342
C10 C 0.6608(3) 0.9314(3) 0.6135(2)
C11 C 0.6608(3) 0.9058(3) 0.5089(2)
H10 H 0.7231 0.9571 0.4772
C12 C 0.5676(3) 0.8035(3) 0.4519(2)
H11 H 0.5655 0.7838 0.3800
loop_
_geom_bond_atom_site_label_1
_geom_bond_atom_site_label_2
_geom_bond_site_symmetry_1
_geom_bond_site_symmetry_2
O1 C1 1_555 1_555
O2 C3 1_555 1_555
O3 N3 1_555 1_555
O4 N3 1_555 1_555
N1 C1 1_555 1_555
N2 C4 1_555 1_555
N3 C10 1_555 1_555
C1 C7 1_555 1_555
C2 N1 1_555 1_555
C3 O1 1_555 1_555
C4 C2 1_555 1_555
H1 C4 1_555 1_555
C5 N2 1_555 1_555
H2 C5 1_555 1_555
H3 C5 1_555 1_555
H4 C5 1_555 1_555
C6 N2 1_555 1_555
H5 C6 1_555 1_555
H6 C6 1_555 1_555
H7 C6 1_555 1_555
C7 C8 1_555 1_555
C8 H8 1_555 1_555
C9 C8 1_555 1_555
H9 C9 1_555 1_555
C10 C9 1_555 1_555
C11 C10 1_555 1_555
H10 C11 1_555 1_555
C12 C7 1_555 1_555
H11 C12 1_555 1_555
C2 C3 1_555 1_555
C11 C12 1_555 1_555

#END
