
#######################################################################
#
#                 Cambridge Crystallographic Data Centre
#                                CCDC 
#
#######################################################################
#
# If this CIF has been generated from an entry in the Cambridge 
# Structural Database, then it will include bibliographic, chemical, 
# crystal, experimental, refinement or atomic coordinate data resulting 
# from the CCDC's data processing and validation procedures.
#
#######################################################################

data_TUPZEJ
_chemical_formula_moiety         'C8 H8 O2 Se3'
_chemical_name_systematic        4,7-Dimethoxybenzotriselenole
_symmetry_cell_setting           monoclinic
_symmetry_space_group_name_H-M   'P 21/c'
_symmetry_Int_Tables_number      14
_space_group_name_Hall           '-P 2ybc'
loop_
_symmetry_equiv_pos_site_id
_symmetry_equiv_pos_as_xyz
1 x,y,z
2 -x,1/2+y,1/2-z
3 -x,-y,-z
4 x,1/2-y,1/2+z
_cell_length_a                   17.453(3)
_cell_length_b                   6.923(3)
_cell_length_c                   18.767(2)
_cell_angle_alpha                90
_cell_angle_beta                 114.172(8)
_cell_angle_gamma                90
_cell_volume                     2068.74
_exptl_crystal_colour            'dark red'
_exptl_crystal_description       prismatic
_chemical_melting_point          122.5-124.0deg.C
_cell_formula_units_Z            8
loop_
_atom_site_label
_atom_site_type_symbol
_atom_site_fract_x
_atom_site_fract_y
_atom_site_fract_z
Se1 Se -0.0294(1) 0.6698(3) -0.19744(9)
Se2 Se 0.1100(1) 0.5859(3) -0.16847(9)
Se3 Se 0.1607(1) 0.8209(3) -0.07064(9)
O1 O 0.1684(7) 0.861(2) 0.0893(5)
O2 O -0.1477(7) 0.638(2) -0.1219(5)
C1 C 0.087(1) 0.806(2) 0.0403(7)
C2 C 0.024(1) 0.781(2) 0.0654(8)
C3 C -0.056(1) 0.728(2) 0.0129(9)
C4 C -0.070(1) 0.692(2) -0.0646(8)
C5 C -0.008(1) 0.718(2) -0.0906(8)
C6 C 0.074(1) 0.774(2) -0.0362(8)
C7 C 0.190(2) 0.877(4) 0.171(1)
C8 C -0.214(2) 0.624(4) -0.097(1)
H1 H 0.031(7) 0.81(2) 0.120(7)
H2 H -0.095(9) 0.73(2) 0.037(9)
H3 H 0.22(2) 0.97(4) 0.18(2)
H4 H 0.177(7) 0.75(2) 0.188(7)
H5 H 0.138(9) 0.95(2) 0.187(9)
H6 H -0.198(5) 0.52(1) -0.050(5)
H7 H -0.23(1) 0.75(3) -0.07(1)
H8 H -0.253(10) 0.57(3) -0.129(9)
Se4 Se 0.2892(1) 0.3171(3) -0.06010(10)
Se5 Se 0.2460(1) 0.1129(3) -0.16785(10)
Se6 Se 0.3574(1) 0.2081(3) -0.19798(9)
O3 O 0.5412(7) 0.163(2) -0.1317(6)
O4 O 0.4271(7) 0.339(2) 0.0944(5)
C9 C 0.516(1) 0.204(2) -0.0733(7)
C10 C 0.574(1) 0.225(3) 0.0059(10)
C11 C 0.548(1) 0.268(3) 0.0629(9)
C12 C 0.465(1) 0.292(2) 0.0444(8)
C13 C 0.405(1) 0.272(2) -0.0339(8)
C14 C 0.433(1) 0.227(2) -0.0908(7)
C15 C 0.630(2) 0.145(5) -0.114(1)
C16 C 0.481(1) 0.346(4) 0.1762(8)
H9 H 0.620(6) 0.21(2) 0.012(6)
H10 H 0.585(10) 0.32(2) 0.108(9)
H11 H 0.630(10) 0.13(2) -0.156(10)
H12 H 0.65(1) 0.28(2) -0.11(1)
H13 H 0.654(10) 0.00(3) -0.07(1)
H14 H 0.532(9) 0.40(2) 0.191(8)
H15 H 0.525(10) 0.25(2) 0.200(9)
H16 H 0.425(10) 0.37(2) 0.20(1)
loop_
_geom_bond_atom_site_label_1
_geom_bond_atom_site_label_2
_geom_bond_site_symmetry_1
_geom_bond_site_symmetry_2
Se1 Se2 1_555 1_555
Se2 Se3 1_555 1_555
Se3 C6 1_555 1_555
O1 C1 1_555 1_555
O2 C4 1_555 1_555
C1 C2 1_555 1_555
C2 C3 1_555 1_555
C3 C4 1_555 1_555
C4 C5 1_555 1_555
C5 Se1 1_555 1_555
C6 C1 1_555 1_555
C7 O1 1_555 1_555
C8 O2 1_555 1_555
H1 C2 1_555 1_555
H2 C3 1_555 1_555
H3 C7 1_555 1_555
H4 C7 1_555 1_555
H5 C7 1_555 1_555
H6 C8 1_555 1_555
H7 C8 1_555 1_555
H8 C8 1_555 1_555
Se4 Se5 1_555 1_555
Se5 Se6 1_555 1_555
Se6 C14 1_555 1_555
O3 C9 1_555 1_555
O4 C12 1_555 1_555
C9 C10 1_555 1_555
C10 C11 1_555 1_555
C11 C12 1_555 1_555
C12 C13 1_555 1_555
C13 Se4 1_555 1_555
C14 C9 1_555 1_555
C15 O3 1_555 1_555
C16 O4 1_555 1_555
H9 C10 1_555 1_555
H10 C11 1_555 1_555
H11 C15 1_555 1_555
H12 C15 1_555 1_555
H13 C15 1_555 1_555
H14 C16 1_555 1_555
H15 C16 1_555 1_555
H16 C16 1_555 1_555
C5 C6 1_555 1_555
C13 C14 1_555 1_555

#END
