
#######################################################################
#
#                 Cambridge Crystallographic Data Centre
#                                CCDC 
#
#######################################################################
#
# If this CIF has been generated from an entry in the Cambridge 
# Structural Database, then it will include bibliographic, chemical, 
# crystal, experimental, refinement or atomic coordinate data resulting 
# from the CCDC's data processing and validation procedures.
#
#######################################################################

data_TUQCEO
_chemical_name_common            
2-(2,2-Dimethyl-2,3-dihydro-1-benzofuran-7-yloxy)-N-(o-tolyl)acetamide
_chemical_formula_moiety         'C19 H21 N1 O3'
_chemical_name_systematic        
2-((2,2-Dimethyl-2,3-dihydro-1-benzofuran-7-yl)oxy)-N-(2-methylphenyl)acetamide
_symmetry_cell_setting           monoclinic
_symmetry_space_group_name_H-M   'P 21/n'
_symmetry_Int_Tables_number      14
_space_group_name_Hall           '-P 2yn'
loop_
_symmetry_equiv_pos_site_id
_symmetry_equiv_pos_as_xyz
1 x,y,z
2 1/2-x,1/2+y,1/2-z
3 -x,-y,-z
4 1/2+x,1/2-y,1/2+z
_cell_length_a                   9.0868(18)
_cell_length_b                   8.9708(18)
_cell_length_c                   20.230(4)
_cell_angle_alpha                90
_cell_angle_beta                 92.18(3)
_cell_angle_gamma                90
_cell_volume                     1647.87
_exptl_crystal_colour            colorless
_exptl_crystal_description       block
_chemical_melting_point          '363.75 K'
_cell_formula_units_Z            4
loop_
_atom_site_label
_atom_site_type_symbol
_atom_site_fract_x
_atom_site_fract_y
_atom_site_fract_z
C1 C 0.4155(3) 0.3064(3) 0.23529(11)
H1 H 0.3140 0.2780 0.2254
H2 H 0.4243 0.3430 0.2804
C2 C 0.6148(2) 0.4224(2) 0.09104(10)
C3 C 0.5545(2) 0.3488(2) 0.14345(10)
C4 C 0.4665(2) 0.4205(3) 0.18741(10)
C5 C 0.5867(3) 0.5737(3) 0.08464(11)
H3 H 0.6271 0.6269 0.0503
C6 C 0.5210(3) 0.1749(2) 0.22464(10)
C7 C 0.4988(3) 0.6465(3) 0.12900(12)
H4 H 0.4804 0.7479 0.1239
C8 C 0.4384(3) 0.5705(3) 0.18046(12)
H5 H 0.3795 0.6198 0.2101
C9 C 0.6543(3) 0.1807(3) 0.27130(12)
H6 H 0.7220 0.1034 0.2601
H7 H 0.6243 0.1664 0.3159
H8 H 0.7014 0.2759 0.2677
C10 C 0.4475(3) 0.0248(3) 0.22421(12)
H9 H 0.3673 0.0243 0.1919
H10 H 0.4107 0.0046 0.2672
H11 H 0.5177 -0.0505 0.2133
O1 O 0.57451(16) 0.20069(15) 0.15680(7)
O2 O 0.69720(17) 0.34027(15) 0.04836(7)
N1 N 0.83327(19) 0.16952(19) -0.03274(8)
H12 H 0.7740 0.1490 -0.0019
C11 C 0.8592(3) 0.3146(3) -0.04218(11)
O3 O 0.9383(2) 0.36591(19) -0.08343(9)
C12 C 0.7796(3) 0.4201(2) 0.00151(11)
H13 H 0.8503 0.4844 0.0246
H14 H 0.7138 0.4823 -0.0254
C13 C 0.8900(3) 0.0448(2) -0.06653(10)
C14 C 0.8094(3) -0.0865(3) -0.06628(11)
C15 C 1.0776(4) -0.0718(4) -0.12804(13)
H15 H 1.1673 -0.0671 -0.1486
C16 C 0.6654(3) -0.0952(3) -0.03299(13)
H16 H 0.6813 -0.0796 0.0137
H17 H 0.6224 -0.1918 -0.0405
H18 H 0.6001 -0.0199 -0.0508
C17 C 0.8674(4) -0.2095(3) -0.09801(14)
H19 H 0.8155 -0.2989 -0.0985
C18 C 0.9987(5) -0.2025(4) -0.12855(15)
H20 H 1.0347 -0.2863 -0.1497
C19 C 1.0232(3) 0.0530(3) -0.09684(10)
H21 H 1.0761 0.1417 -0.0963
loop_
_geom_bond_atom_site_label_1
_geom_bond_atom_site_label_2
_geom_bond_site_symmetry_1
_geom_bond_site_symmetry_2
C1 H1 1_555 1_555
H2 C1 1_555 1_555
C2 C3 1_555 1_555
C3 C4 1_555 1_555
C4 C1 1_555 1_555
C5 C2 1_555 1_555
H3 C5 1_555 1_555
C6 C1 1_555 1_555
C7 C5 1_555 1_555
H4 C7 1_555 1_555
C8 C4 1_555 1_555
H5 C8 1_555 1_555
C9 C6 1_555 1_555
H6 C9 1_555 1_555
H7 C9 1_555 1_555
H8 C9 1_555 1_555
C10 C6 1_555 1_555
H9 C10 1_555 1_555
H10 C10 1_555 1_555
H11 C10 1_555 1_555
O1 C3 1_555 1_555
O2 C2 1_555 1_555
N1 H12 1_555 1_555
C11 N1 1_555 1_555
O3 C11 1_555 1_555
C12 O2 1_555 1_555
H13 C12 1_555 1_555
H14 C12 1_555 1_555
C13 N1 1_555 1_555
C14 C13 1_555 1_555
C15 H15 1_555 1_555
C16 C14 1_555 1_555
H16 C16 1_555 1_555
H17 C16 1_555 1_555
H18 C16 1_555 1_555
C17 C14 1_555 1_555
H19 C17 1_555 1_555
C18 C15 1_555 1_555
H20 C18 1_555 1_555
C19 C13 1_555 1_555
H21 C19 1_555 1_555
C6 O1 1_555 1_555
C7 C8 1_555 1_555
C11 C12 1_555 1_555
C15 C19 1_555 1_555
C17 C18 1_555 1_555

#END
