
#######################################################################
#
#                 Cambridge Crystallographic Data Centre
#                                CCDC 
#
#######################################################################
#
# If this CIF has been generated from an entry in the Cambridge 
# Structural Database, then it will include bibliographic, chemical, 
# crystal, experimental, refinement or atomic coordinate data resulting 
# from the CCDC's data processing and validation procedures.
#
#######################################################################

data_TUQDUF
_chemical_formula_moiety         'C5 H7 N3 O2'
_chemical_name_systematic        
'Methyl 1-methyl-1H-1,2,3-triazole-4-carboxylate'
_symmetry_cell_setting           triclinic
_symmetry_space_group_name_H-M   'P -1'
_symmetry_Int_Tables_number      2
_space_group_name_Hall           '-P 1'
loop_
_symmetry_equiv_pos_site_id
_symmetry_equiv_pos_as_xyz
1 x,y,z
2 -x,-y,-z
_cell_length_a                   5.6970(10)
_cell_length_b                   7.1314(11)
_cell_length_c                   8.6825(16)
_cell_angle_alpha                71.053(16)
_cell_angle_beta                 86.865(15)
_cell_angle_gamma                76.528(14)
_cell_volume                     324.372
_exptl_crystal_colour            colorless
_exptl_crystal_description       block
_cell_formula_units_Z            2
loop_
_atom_site_label
_atom_site_type_symbol
_atom_site_fract_x
_atom_site_fract_y
_atom_site_fract_z
O1 O 0.6694(5) 0.2352(5) 0.5832(3)
O2 O 0.2797(4) 0.2639(4) 0.6475(3)
N1 N 0.7108(5) 0.2390(4) 1.0644(3)
N2 N 0.4740(5) 0.2478(5) 1.0897(4)
N3 N 0.3757(5) 0.2534(5) 0.9553(4)
C1 C 0.8687(7) 0.2325(6) 1.1941(5)
C2 C 0.7651(6) 0.2415(5) 0.9131(4)
C3 C 0.5521(6) 0.2492(5) 0.8434(4)
C4 C 0.5106(6) 0.2486(5) 0.6793(4)
C5 C 0.2257(7) 0.2676(7) 0.4852(5)
H1 H 0.77460 0.24230 1.28750
H2 H 0.94680 0.34440 1.15670
H3 H 0.98850 0.10660 1.22340
H4 H 0.91520 0.23860 0.86500
H5 H 0.26750 0.38410 0.40620
H6 H 0.05650 0.27540 0.47490
H7 H 0.31730 0.14580 0.46690
loop_
_geom_bond_atom_site_label_1
_geom_bond_atom_site_label_2
_geom_bond_site_symmetry_1
_geom_bond_site_symmetry_2
O1 C4 1_555 1_555
O2 C4 1_555 1_555
N1 N2 1_555 1_555
N2 N3 1_555 1_555
N3 C3 1_555 1_555
C1 N1 1_555 1_555
C2 N1 1_555 1_555
C3 C2 1_555 1_555
C4 C3 1_555 1_555
C5 O2 1_555 1_555
H1 C1 1_555 1_555
H2 C1 1_555 1_555
H3 C1 1_555 1_555
H4 C2 1_555 1_555
H5 C5 1_555 1_555
H6 C5 1_555 1_555
H7 C5 1_555 1_555

#END
