
#######################################################################
#
#                 Cambridge Crystallographic Data Centre
#                                CCDC 
#
#######################################################################
#
# If this CIF has been generated from an entry in the Cambridge 
# Structural Database, then it will include bibliographic, chemical, 
# crystal, experimental, refinement or atomic coordinate data resulting 
# from the CCDC's data processing and validation procedures.
#
#######################################################################

data_TUQFUH
_chemical_formula_moiety         'C9 H13 N2 O1 1+,Cl1 O4 1-'
_chemical_name_systematic        
'4-(N-Propan-2-ylcarbamoyl)pyridinium perchlorate'
_symmetry_cell_setting           triclinic
_symmetry_space_group_name_H-M   'P -1'
_symmetry_Int_Tables_number      2
_space_group_name_Hall           '-P 1'
loop_
_symmetry_equiv_pos_site_id
_symmetry_equiv_pos_as_xyz
1 x,y,z
2 -x,-y,-z
_cell_length_a                   4.9342(3)
_cell_length_b                   8.973(4)
_cell_length_c                   13.715(10)
_cell_angle_alpha                93.046(12)
_cell_angle_beta                 91.07(2)
_cell_angle_gamma                101.01(3)
_cell_volume                     594.95
_exptl_crystal_colour            colorless
_exptl_crystal_description       prism
_chemical_melting_point          '408 K'
_cell_formula_units_Z            2
loop_
_atom_site_label
_atom_site_type_symbol
_atom_site_fract_x
_atom_site_fract_y
_atom_site_fract_z
C1 C 0.8695(6) 0.8140(3) 0.8363(2)
H1 H 0.8291 0.9111 0.8408
C2 C 0.7491(5) 0.7102(3) 0.76352(19)
H2 H 0.6249 0.7363 0.7187
C3 C 0.8135(4) 0.5660(2) 0.75713(17)
C4 C 0.9972(5) 0.5295(3) 0.82555(19)
H3 H 1.0437 0.4337 0.8223
C5 C 1.1098(5) 0.6358(3) 0.8980(2)
H4 H 1.2303 0.6120 0.9451
C6 C 0.6751(5) 0.4515(3) 0.67827(17)
C7 C 0.7297(5) 0.2295(3) 0.5718(2)
H5 H 0.5280 0.2151 0.5658
C8 C 0.8048(8) 0.0860(3) 0.6075(2)
H6 H 0.7233 0.0652 0.6695
H7 H 1.0020 0.0989 0.6144
H8 H 0.7368 0.0026 0.5612
C9 C 0.8498(9) 0.2688(4) 0.4730(2)
H9 H 0.7961 0.3603 0.4532
H10 H 0.7815 0.1871 0.4256
H11 H 1.0476 0.2840 0.4779
N1 N 1.0451(5) 0.7740(3) 0.90049(17)
H12 H 1.1202 0.8401 0.9455
N2 N 0.8294(4) 0.3550(2) 0.64449(17)
H13 H 0.9970 0.3667 0.6664
O1 O 0.4371(3) 0.4521(2) 0.65134(14)
Cl1 Cl 0.42620(12) 0.18228(8) 0.88680(5)
O2 O 0.7111(4) 0.1708(2) 0.89323(17)
O3 O 0.3117(6) 0.1454(5) 0.79332(19)
O4 O 0.4067(6) 0.3375(3) 0.9161(3)
O5 O 0.2732(4) 0.0877(2) 0.95541(15)
loop_
_geom_bond_atom_site_label_1
_geom_bond_atom_site_label_2
_geom_bond_site_symmetry_1
_geom_bond_site_symmetry_2
C1 H1 1_555 1_555
C2 C1 1_555 1_555
H2 C2 1_555 1_555
C3 C2 1_555 1_555
C4 C3 1_555 1_555
H3 C4 1_555 1_555
C5 C4 1_555 1_555
H4 C5 1_555 1_555
C6 C3 1_555 1_555
C7 H5 1_555 1_555
C8 C7 1_555 1_555
H6 C8 1_555 1_555
H7 C8 1_555 1_555
H8 C8 1_555 1_555
C9 C7 1_555 1_555
H9 C9 1_555 1_555
H10 C9 1_555 1_555
H11 C9 1_555 1_555
Cl1 O2 1_555 1_555
N1 C1 1_555 1_555
H12 N1 1_555 1_555
N2 C6 1_555 1_555
H13 N2 1_555 1_555
O1 C6 1_555 1_555
O3 Cl1 1_555 1_555
O4 Cl1 1_555 1_555
O5 Cl1 1_555 1_555
C5 N1 1_555 1_555
C7 N2 1_555 1_555

#END
