
#######################################################################
#
#                 Cambridge Crystallographic Data Centre
#                                CCDC 
#
#######################################################################
#
# If this CIF has been generated from an entry in the Cambridge 
# Structural Database, then it will include bibliographic, chemical, 
# crystal, experimental, refinement or atomic coordinate data resulting 
# from the CCDC's data processing and validation procedures.
#
#######################################################################

data_TUQMUO
_chemical_formula_moiety         'C19 H20 N4 O4'
_chemical_name_systematic        N^6^,3'-Cyclo-5'-O-cyanomethylthymidine
_symmetry_cell_setting           orthorhombic
_symmetry_space_group_name_H-M   'P 21 21 21'
_symmetry_Int_Tables_number      19
_space_group_name_Hall           'P 2ac 2ab'
loop_
_symmetry_equiv_pos_site_id
_symmetry_equiv_pos_as_xyz
1 x,y,z
2 1/2-x,-y,1/2+z
3 -x,1/2+y,1/2-z
4 1/2+x,1/2-y,-z
_cell_length_a                   10.1682(7)
_cell_length_b                   11.0867(8)
_cell_length_c                   15.8882(11)
_cell_angle_alpha                90
_cell_angle_beta                 90
_cell_angle_gamma                90
_cell_volume                     1791.11
_exptl_crystal_colour            colorless
_exptl_crystal_description       block
_cell_formula_units_Z            4
_exptl_crystal_recrystallization_method 'ethanol/ethyl acetate'
loop_
_atom_site_label
_atom_site_type_symbol
_atom_site_fract_x
_atom_site_fract_y
_atom_site_fract_z
O1 O 0.26037(18) 0.41221(14) 0.18977(11)
O2 O 0.2659(2) 0.16696(16) -0.04016(11)
O3 O 0.01006(15) 0.29016(14) 0.30360(10)
O4 O -0.26649(17) 0.29459(15) 0.27577(11)
N1 N 0.0436(2) 0.04989(18) 0.20934(13)
H1 H 0.034(2) -0.023(2) 0.1935(14)
N2 N 0.16403(18) 0.22763(16) 0.20033(12)
N3 N 0.2616(2) 0.29017(17) 0.07452(12)
N4 N -0.5475(2) 0.1380(3) 0.2508(2)
C1 C 0.2157(3) 0.4766(2) -0.00647(16)
C2 C 0.2429(3) 0.5985(2) -0.01234(16)
H2 H 0.3247 0.6274 0.0044
C3 C 0.1488(3) 0.6782(2) -0.04317(17)
H3 H 0.1688 0.7598 -0.0476
C4 C 0.0270(3) 0.6379(3) -0.06705(17)
H4 H -0.0360 0.6917 -0.0867
C5 C -0.0002(3) 0.5186(3) -0.0617(2)
H5 H -0.0823 0.4903 -0.0784
C6 C 0.0925(3) 0.4386(3) -0.0316(2)
H6 H 0.0715 0.3571 -0.0282
C7 C 0.3192(3) 0.3888(2) 0.02538(17)
H7 H 0.3665 0.3554 -0.0222
H8 H 0.3819 0.4321 0.0601
C8 C 0.2318(3) 0.1800(2) 0.03381(15)
C9 C 0.1612(2) 0.0937(2) 0.08223(15)
C10 C 0.1238(2) 0.12081(19) 0.16251(15)
C11 C 0.2314(2) 0.3165(2) 0.15690(15)
C12 C 0.1264(3) -0.0252(2) 0.04249(17)
H9 H 0.1788 -0.0880 0.0672
H10 H 0.1433 -0.0215 -0.0169
H11 H 0.0349 -0.0420 0.0518
C13 C 0.1405(2) 0.2471(2) 0.29099(15)
H12 H 0.2054 0.3027 0.3149
C14 C 0.1430(2) 0.1270(2) 0.33571(15)
H13 H 0.1374 0.1356 0.3964
H14 H 0.2197 0.0794 0.3210
C15 C 0.0176(2) 0.0765(2) 0.29797(14)
H15 H -0.0133 0.0051 0.3285
C16 C -0.0762(2) 0.1842(2) 0.30890(15)
H16 H -0.1137 0.1809 0.3657
C17 C -0.1865(2) 0.1961(2) 0.24724(16)
H17 H -0.1524 0.2125 0.1914
H18 H -0.2376 0.1223 0.2452
C18 C -0.3794(3) 0.3126(3) 0.22543(18)
H19 H -0.3540 0.3150 0.1666
H20 H -0.4192 0.3895 0.2395
C19 C -0.4758(3) 0.2153(3) 0.23850(19)
loop_
_geom_bond_atom_site_label_1
_geom_bond_atom_site_label_2
_geom_bond_site_symmetry_1
_geom_bond_site_symmetry_2
O1 C11 1_555 1_555
O2 C8 1_555 1_555
O3 C13 1_555 1_555
O4 C17 1_555 1_555
N1 H1 1_555 1_555
N2 C10 1_555 1_555
N3 C7 1_555 1_555
N4 C19 1_555 1_555
C1 C2 1_555 1_555
C2 H2 1_555 1_555
C3 C2 1_555 1_555
H3 C3 1_555 1_555
C4 C3 1_555 1_555
H4 C4 1_555 1_555
C5 C4 1_555 1_555
H5 C5 1_555 1_555
C6 C1 1_555 1_555
H6 C6 1_555 1_555
C7 C1 1_555 1_555
H7 C7 1_555 1_555
H8 C7 1_555 1_555
C8 N3 1_555 1_555
C9 C8 1_555 1_555
C10 N1 1_555 1_555
C11 N2 1_555 1_555
C12 C9 1_555 1_555
H9 C12 1_555 1_555
H10 C12 1_555 1_555
H11 C12 1_555 1_555
C13 N2 1_555 1_555
H12 C13 1_555 1_555
C14 C13 1_555 1_555
H13 C14 1_555 1_555
H14 C14 1_555 1_555
C15 N1 1_555 1_555
H15 C15 1_555 1_555
C16 O3 1_555 1_555
H16 C16 1_555 1_555
C17 C16 1_555 1_555
H17 C17 1_555 1_555
H18 C17 1_555 1_555
C18 O4 1_555 1_555
H19 C18 1_555 1_555
H20 C18 1_555 1_555
C19 C18 1_555 1_555
N3 C11 1_555 1_555
C5 C6 1_555 1_555
C9 C10 1_555 1_555
C14 C15 1_555 1_555
C15 C16 1_555 1_555

#END
