
#######################################################################
#
#                 Cambridge Crystallographic Data Centre
#                                CCDC 
#
#######################################################################
#
# If this CIF has been generated from an entry in the Cambridge 
# Structural Database, then it will include bibliographic, chemical, 
# crystal, experimental, refinement or atomic coordinate data resulting 
# from the CCDC's data processing and validation procedures.
#
#######################################################################

data_TUQMAU
_chemical_name_common            'Lansoprazole intermediate chloranilic acid'
_chemical_formula_moiety         '2(C16 H15 F3 N3 O1 S1 1+),C6 Cl2 O4 2-'
_chemical_name_systematic        
'bis(2-(((3-Methyl-4-(2,2,2-trifluoroethoxy)pyridin-2-yl)methyl)sulfanyl)-1H-benzimidazol-3-ium) 2,5-dichloro-3,6-dioxocyclohexa-1,4-diene-1,4-diolate'
_symmetry_cell_setting           monoclinic
_symmetry_space_group_name_H-M   'P 21/n'
_symmetry_Int_Tables_number      14
_space_group_name_Hall           '-P 2yn'
loop_
_symmetry_equiv_pos_site_id
_symmetry_equiv_pos_as_xyz
1 x,y,z
2 1/2-x,1/2+y,1/2-z
3 -x,-y,-z
4 1/2+x,1/2-y,1/2+z
_cell_length_a                   9.48575(8)
_cell_length_b                   23.6316(2)
_cell_length_c                   17.86775(15)
_cell_angle_alpha                90
_cell_angle_beta                 100.2065(9)
_cell_angle_gamma                90
_cell_volume                     3941.91
_exptl_crystal_colour            'red brown'
_exptl_crystal_description       prism
_chemical_melting_point          '441-444 K'
_cell_formula_units_Z            4
_exptl_crystal_recrystallization_method dimethylformamide
loop_
_atom_site_label
_atom_site_type_symbol
_atom_site_fract_x
_atom_site_fract_y
_atom_site_fract_z
Cl1 Cl -0.02389(6) 0.28125(3) 0.75775(3)
Cl2 Cl 0.65326(6) 0.29242(4) 0.82221(3)
O1 O 0.16831(17) 0.31643(8) 0.65093(9)
O2 O 0.45465(16) 0.32221(7) 0.67875(8)
O3 O 0.45948(16) 0.26157(7) 0.92935(8)
O4 O 0.17567(16) 0.25255(8) 0.90012(9)
C1 C 0.1616(2) 0.28648(9) 0.77553(11)
C2 C 0.2306(2) 0.30329(8) 0.71610(11)
C3 C 0.3966(2) 0.30515(8) 0.73206(11)
C4 C 0.4674(2) 0.28877(9) 0.80369(11)
C5 C 0.3979(2) 0.27343(8) 0.86360(10)
C6 C 0.2333(2) 0.27039(8) 0.84730(11)
S1 S 0.76555(7) 0.36213(3) 0.55737(3)
F1 F 1.0095(2) 0.51401(8) 0.15374(14)
F2 F 1.21213(17) 0.52535(11) 0.2249(2)
F3 F 1.0897(4) 0.59702(6) 0.1800(2)
O5 O 0.9921(3) 0.49361(8) 0.29873(12)
N1 N 0.68513(19) 0.27244(9) 0.63087(10)
H1 H 0.6338 0.2931 0.6552
N2 N 0.8291(2) 0.24764(8) 0.55373(10)
H2 H 0.8853 0.2497 0.5210
N3 N 0.8120(2) 0.45798(9) 0.48750(13)
C7 C 0.7631(2) 0.29124(10) 0.58035(11)
C8 C 0.7007(2) 0.21455(11) 0.63736(12)
C9 C 0.6439(3) 0.17509(13) 0.68139(16)
H3 H 0.5843 0.1858 0.7150
C10 C 0.6802(4) 0.11919(14) 0.67281(19)
H4 H 0.6447 0.0916 0.7016
C11 C 0.7691(4) 0.10301(14) 0.62188(19)
H5 H 0.7894 0.0648 0.6169
C12 C 0.8277(3) 0.14224(12) 0.57871(15)
H6 H 0.8879 0.1315 0.5454
C13 C 0.7919(2) 0.19858(11) 0.58771(12)
C14 C 0.8823(3) 0.36051(11) 0.48755(15)
H7 H 0.9794 0.3513 0.5116
H8 H 0.8497 0.3323 0.4490
C15 C 0.8769(3) 0.41856(10) 0.45245(14)
C16 C 0.8074(3) 0.51054(12) 0.45988(16)
H9 H 0.7620 0.5382 0.4840
C17 C 0.8657(3) 0.52621(12) 0.39785(16)
H10 H 0.8612 0.5634 0.3807
C18 C 0.9315(3) 0.48433(11) 0.36190(15)
C19 C 0.9393(3) 0.42859(10) 0.38825(14)
C20 C 1.0114(3) 0.38352(12) 0.34966(17)
H11 H 1.0194 0.3496 0.3797
H12 H 1.1052 0.3961 0.3442
H13 H 0.9558 0.3759 0.3004
C21 C 1.0090(6) 0.54929(14) 0.2751(2)
H14 H 1.0667 0.5708 0.3156
H15 H 0.9165 0.5676 0.2615
C22 C 1.08337(16) 0.54588(6) 0.20623(10)
S2 S 0.37775(7) 0.35551(3) 0.47949(3)
F4 F 0.46185(16) 0.52009(8) 0.0783(2)
F5 F 0.68815(15) 0.52999(10) 0.10037(18)
F6 F 0.5535(3) 0.60246(6) 0.08372(17)
O6 O 0.5855(3) 0.50090(9) 0.22645(11)
N4 N 0.2888(2) 0.26340(9) 0.54297(11)
H16 H 0.2374 0.2835 0.5679
N5 N 0.4330(2) 0.24045(8) 0.46559(10)
H17 H 0.4892 0.2434 0.4329
N6 N 0.4174(3) 0.45403(9) 0.41534(12)
C23 C 0.3674(2) 0.28334(10) 0.49428(11)
C24 C 0.3029(3) 0.20543(11) 0.54709(14)
C25 C 0.2441(4) 0.16568(14) 0.58983(19)
H18 H 0.1832 0.1759 0.6230
C26 C 0.2813(5) 0.10991(17) 0.5801(2)
H19 H 0.2449 0.0817 0.6077
C27 C 0.3720(5) 0.09494(15) 0.5299(3)
H20 H 0.3935 0.0569 0.5245
C28 C 0.4311(4) 0.13501(13) 0.48792(18)
H21 H 0.4922 0.1247 0.4549
C29 C 0.3950(3) 0.19064(11) 0.49732(13)
C30 C 0.4554(3) 0.35551(11) 0.39369(13)
H22 H 0.5487 0.3375 0.4032
H23 H 0.3941 0.3350 0.3535
C31 C 0.4691(3) 0.41622(10) 0.37107(12)
C32 C 0.4281(4) 0.50877(12) 0.39791(16)
H24 H 0.3962 0.5355 0.4293
C33 C 0.4831(3) 0.52773(12) 0.33653(15)
H25 H 0.4876 0.5662 0.3260
C34 C 0.5319(3) 0.48743(11) 0.29059(13)
C35 C 0.5295(3) 0.43033(10) 0.30822(12)
C36 C 0.5910(3) 0.38603(12) 0.26233(15)
H26 H 0.6283 0.4040 0.2218
H27 H 0.5171 0.3598 0.2415
H28 H 0.6667 0.3661 0.2946
C37 C 0.5554(4) 0.55470(13) 0.19478(18)
H29 H 0.6229 0.5822 0.2207
H30 H 0.4595 0.5663 0.2001
C38 C 0.56725(15) 0.55150(6) 0.11217(10)
F7? F 0.9879(2) 0.53715(13) 0.14545(16)
F8? F 0.5025(3) 0.59349(8) 0.0729(2)
F9? F 1.1807(2) 0.50633(8) 0.2122(2)
F10? F 0.5274(3) 0.50406(7) 0.0777(2)
F11? F 1.1443(3) 0.59488(7) 0.2010(3)
F12? F 0.70535(15) 0.55741(14) 0.1178(3)
loop_
_geom_bond_atom_site_label_1
_geom_bond_atom_site_label_2
_geom_bond_site_symmetry_1
_geom_bond_site_symmetry_2
Cl1 C1 1_555 1_555
Cl2 C4 1_555 1_555
O1 C2 1_555 1_555
O2 C3 1_555 1_555
O3 C5 1_555 1_555
O4 C6 1_555 1_555
C1 C2 1_555 1_555
C2 C3 1_555 1_555
C3 C4 1_555 1_555
C4 C5 1_555 1_555
C5 C6 1_555 1_555
C6 C1 1_555 1_555
S1 C7 1_555 1_555
F1 C22 1_555 1_555
F2 C22 1_555 1_555
F3 C22 1_555 1_555
O5 C18 1_555 1_555
N1 H1 1_555 1_555
N2 H2 1_555 1_555
N3 C15 1_555 1_555
C7 N1 1_555 1_555
C8 N1 1_555 1_555
C9 C8 1_555 1_555
H3 C9 1_555 1_555
C10 C9 1_555 1_555
H4 C10 1_555 1_555
C11 C10 1_555 1_555
H5 C11 1_555 1_555
C12 C11 1_555 1_555
H6 C12 1_555 1_555
C13 N2 1_555 1_555
C14 S1 1_555 1_555
H7 C14 1_555 1_555
H8 C14 1_555 1_555
C15 C14 1_555 1_555
C16 N3 1_555 1_555
H9 C16 1_555 1_555
C17 C16 1_555 1_555
H10 C17 1_555 1_555
C18 C17 1_555 1_555
C19 C15 1_555 1_555
C20 C19 1_555 1_555
H11 C20 1_555 1_555
H12 C20 1_555 1_555
H13 C20 1_555 1_555
C21 O5 1_555 1_555
H14 C21 1_555 1_555
H15 C21 1_555 1_555
C22 C21 1_555 1_555
S2 C23 1_555 1_555
F4 C38 1_555 1_555
F5 C38 1_555 1_555
F6 C38 1_555 1_555
O6 C34 1_555 1_555
N4 H16 1_555 1_555
N5 H17 1_555 1_555
N6 C31 1_555 1_555
C23 N4 1_555 1_555
C24 N4 1_555 1_555
C25 C24 1_555 1_555
H18 C25 1_555 1_555
C26 C25 1_555 1_555
H19 C26 1_555 1_555
C27 C26 1_555 1_555
H20 C27 1_555 1_555
C28 C27 1_555 1_555
H21 C28 1_555 1_555
C29 N5 1_555 1_555
C30 S2 1_555 1_555
H22 C30 1_555 1_555
H23 C30 1_555 1_555
C31 C30 1_555 1_555
C32 N6 1_555 1_555
H24 C32 1_555 1_555
C33 C32 1_555 1_555
H25 C33 1_555 1_555
C34 C33 1_555 1_555
C35 C31 1_555 1_555
C36 C35 1_555 1_555
H26 C36 1_555 1_555
H27 C36 1_555 1_555
H28 C36 1_555 1_555
C37 O6 1_555 1_555
H29 C37 1_555 1_555
H30 C37 1_555 1_555
C38 C37 1_555 1_555
N2 C7 1_555 1_555
C8 C13 1_555 1_555
C12 C13 1_555 1_555
C18 C19 1_555 1_555
N5 C23 1_555 1_555
C24 C29 1_555 1_555
C28 C29 1_555 1_555
C34 C35 1_555 1_555

#END
