
#######################################################################
#
#                 Cambridge Crystallographic Data Centre
#                                CCDC 
#
#######################################################################
#
# If this CIF has been generated from an entry in the Cambridge 
# Structural Database, then it will include bibliographic, chemical, 
# crystal, experimental, refinement or atomic coordinate data resulting 
# from the CCDC's data processing and validation procedures.
#
#######################################################################

data_TUQMAV
_chemical_formula_moiety         'C22 H34 O4'
_chemical_name_systematic        
4-(hydroxymethyl)-1-((2,5,5,8a-tetramethyl-1,4,4a,5,6,7,8,8a-octahydronaphthalen-1-yl)methyl)-7-oxabicyclo[4.1.0]hept-3-ene-2,5-diol
_symmetry_cell_setting           orthorhombic
_symmetry_space_group_name_H-M   'P 21 21 21'
_symmetry_Int_Tables_number      19
_space_group_name_Hall           'P 2ac 2ab'
loop_
_symmetry_equiv_pos_site_id
_symmetry_equiv_pos_as_xyz
1 x,y,z
2 1/2-x,-y,1/2+z
3 1/2+x,1/2-y,-z
4 -x,1/2+y,1/2-z
_cell_length_a                   6.01838(16)
_cell_length_b                   7.26226(11)
_cell_length_c                   46.4328(9)
_cell_angle_alpha                90
_cell_angle_beta                 90
_cell_angle_gamma                90
_cell_volume                     2029.44
_cell_formula_units_Z            4
loop_
_atom_site_label
_atom_site_type_symbol
_atom_site_fract_x
_atom_site_fract_y
_atom_site_fract_z
O1 O 0.1402(2) 0.68218(18) 0.07863(3)
O2 O 0.3681(2) 0.36900(18) 0.05231(3)
H1 H 0.3998 0.2604 0.0498
O3 O 0.0482(3) 0.43850(18) -0.02977(3)
H2 H -0.0111 0.3478 -0.0370
O4 O -0.4150(2) 0.69550(19) 0.04445(3)
H3 H -0.4458 0.6149 0.0327
C1 C 0.1310(3) 0.3915(2) 0.05083(4)
H4 H 0.0647 0.2684 0.0519
C2 C -0.0955(3) 0.6546(2) 0.07539(4)
C3 C -0.2474(3) 0.7110(3) 0.10000(4)
H5 H -0.3735 0.6278 0.1002
H6 H -0.3040 0.8333 0.0959
C4 C 0.1587(3) 0.3865(3) -0.00392(4)
H7 H 0.3142 0.4206 -0.0053
H8 H 0.1512 0.2537 -0.0018
C5 C -0.4887(4) 0.3383(3) 0.17138(4)
H9 H -0.6322 0.3968 0.1740
H10 H -0.5139 0.2105 0.1663
C6 C -0.5131(4) 0.6353(3) 0.22142(4)
H11 H -0.4819 0.7609 0.2264
H12 H -0.5594 0.5693 0.2383
H13 H -0.6295 0.6319 0.2073
C7 C -0.3621(4) 0.4348(3) 0.14717(4)
H14 H -0.4488 0.4270 0.1296
H15 H -0.2232 0.3704 0.1439
C8 C -0.0519(3) 0.9024(3) 0.13873(4)
C9 C 0.0598(3) 0.4754(2) 0.02257(4)
C10 C -0.1416(4) 0.8526(3) 0.19085(4)
H16 H -0.2763 0.9124 0.1975
H17 H -0.0349 0.8553 0.2065
C11 C -0.1777(3) 0.7163(3) 0.04602(4)
H18 H -0.1435 0.8476 0.0440
C12 C -0.0769(3) 0.6175(3) 0.02099(4)
H19 H -0.1137 0.6597 0.0027
C13 C -0.5274(3) 0.7519(3) 0.15197(4)
H20 H -0.5912 0.7400 0.1331
H21 H -0.4954 0.8792 0.1557
H22 H -0.6306 0.7069 0.1661
C14 C -0.0499(3) 0.9582(3) 0.16583(4)
H23 H 0.0137 1.0723 0.1697
C15 C -0.1941(3) 0.6519(2) 0.18333(4)
H24 H -0.0491 0.5931 0.1805
C16 C 0.0555(3) 0.4965(3) 0.07701(4)
H25 H 0.0536 0.4274 0.0951
C17 C 0.0462(4) 1.0229(3) 0.11552(4)
H26 H -0.0681 1.0579 0.1022
H27 H 0.1602 0.9562 0.1055
H28 H 0.1091 1.1313 0.1241
C18 C -0.3035(4) 0.5457(3) 0.20903(4)
C19 C -0.3115(3) 0.6394(3) 0.15355(4)
C20 C -0.1439(3) 0.7131(3) 0.13049(4)
H29 H -0.0178 0.6276 0.1302
C21 C -0.1346(4) 0.5321(3) 0.23375(4)
H30 H -0.1052 0.6529 0.2412
H31 H 0.0010 0.4790 0.2267
H32 H -0.1941 0.4558 0.2488
C22 C -0.3563(4) 0.3483(3) 0.19938(4)
H33 H -0.2179 0.2816 0.1969
H34 H -0.4399 0.2873 0.2145
loop_
_geom_bond_atom_site_label_1
_geom_bond_atom_site_label_2
_geom_bond_site_symmetry_1
_geom_bond_site_symmetry_2
O1 C2 1_555 1_555
O2 H1 1_555 1_555
O3 H2 1_555 1_555
O4 H3 1_555 1_555
C1 O2 1_555 1_555
H4 C1 1_555 1_555
C2 C3 1_555 1_555
C3 H5 1_555 1_555
H6 C3 1_555 1_555
C4 O3 1_555 1_555
H7 C4 1_555 1_555
H8 C4 1_555 1_555
C5 H9 1_555 1_555
H10 C5 1_555 1_555
C6 H11 1_555 1_555
H12 C6 1_555 1_555
H13 C6 1_555 1_555
C7 C5 1_555 1_555
H14 C7 1_555 1_555
H15 C7 1_555 1_555
C8 C14 1_555 1_555
C9 C1 1_555 1_555
C10 H16 1_555 1_555
H17 C10 1_555 1_555
C11 O4 1_555 1_555
H18 C11 1_555 1_555
C12 C9 1_555 1_555
H19 C12 1_555 1_555
C13 H20 1_555 1_555
H21 C13 1_555 1_555
H22 C13 1_555 1_555
C14 C10 1_555 1_555
H23 C14 1_555 1_555
C15 C10 1_555 1_555
H24 C15 1_555 1_555
C16 O1 1_555 1_555
H25 C16 1_555 1_555
C17 C8 1_555 1_555
H26 C17 1_555 1_555
H27 C17 1_555 1_555
H28 C17 1_555 1_555
C18 C6 1_555 1_555
C19 C7 1_555 1_555
C20 C3 1_555 1_555
H29 C20 1_555 1_555
C21 C18 1_555 1_555
H30 C21 1_555 1_555
H31 C21 1_555 1_555
H32 C21 1_555 1_555
C22 C5 1_555 1_555
H33 C22 1_555 1_555
H34 C22 1_555 1_555
C1 C16 1_555 1_555
C2 C11 1_555 1_555
C2 C16 1_555 1_555
C4 C9 1_555 1_555
C8 C20 1_555 1_555
C11 C12 1_555 1_555
C13 C19 1_555 1_555
C15 C18 1_555 1_555
C15 C19 1_555 1_555
C18 C22 1_555 1_555
C19 C20 1_555 1_555

#END
