
#######################################################################
#
#                 Cambridge Crystallographic Data Centre
#                                CCDC 
#
#######################################################################
#
# If this CIF has been generated from an entry in the Cambridge 
# Structural Database, then it will include bibliographic, chemical, 
# crystal, experimental, refinement or atomic coordinate data resulting 
# from the CCDC's data processing and validation procedures.
#
#######################################################################

data_TUQNIC
_chemical_formula_moiety         '2(C1 H6 N3 1+),C10 H6 O6 S2 2-,C6 H8 N2'
_chemical_name_systematic        
'bis(Guanidinium) 1,5-naphthalenedisulfonate adiponitrile clathrate'
_symmetry_cell_setting           orthorhombic
_symmetry_space_group_name_H-M   'C m c 21'
_symmetry_Int_Tables_number      36
_space_group_name_Hall           'C 2n -2'
loop_
_symmetry_equiv_pos_site_id
_symmetry_equiv_pos_as_xyz
1 x,y,z
2 -x,-y,1/2+z
3 -x,y,z
4 x,-y,1/2+z
5 1/2+x,1/2+y,z
6 1/2-x,1/2-y,1/2+z
7 1/2-x,1/2+y,z
8 1/2+x,1/2-y,1/2+z
_cell_length_a                   7.4445(1)
_cell_length_b                   40.8924(4)
_cell_length_c                   8.0962(1)
_cell_angle_alpha                90
_cell_angle_beta                 90
_cell_angle_gamma                90
_cell_volume                     2464.67
_exptl_crystal_colour            colorless
_chemical_melting_point          587-589K
_cell_formula_units_Z            4
loop_
_atom_site_label
_atom_site_type_symbol
_atom_site_fract_x
_atom_site_fract_y
_atom_site_fract_z
S1 S 1.0000 0.949600(15) 0.57244(8)
S2 S 1.0000 0.805638(14) 1.01498(8)
O1 O 1.0000 0.98292(4) 0.6392(3)
O2 O 0.8366(2) 0.94194(3) 0.4806(2)
O3 O 0.8373(2) 0.81241(3) 1.1107(2)
O4 O 1.0000 0.77269(4) 0.9453(3)
C1 C 1.0000 0.92321(6) 0.7488(4)
C2 C 1.0000 0.88821(6) 0.7254(4)
C3 C 1.0000 0.87357(6) 0.5661(4)
H1 H 1.0000 0.88708(6) 0.4706(4)
C4 C 1.0000 0.84017(7) 0.5483(4)
H2 H 1.0000 0.83078(7) 0.4410(4)
C5 C 1.0000 0.81976(6) 0.6887(4)
H3 H 1.0000 0.79667(6) 0.6755(4)
C6 C 1.0000 0.83311(6) 0.8442(4)
C7 C 1.0000 0.86797(6) 0.8697(4)
C8 C 1.0000 0.88279(6) 1.0283(4)
H4 H 1.0000 0.86939(6) 1.1242(4)
C9 C 1.0000 0.91622(6) 1.0451(4)
H5 H 1.0000 0.92571(6) 1.1522(4)
C10 C 1.0000 0.93651(7) 0.9046(4)
H6 H 1.0000 0.95960(7) 0.9177(4)
O2B O 1.1634(2) 0.94194(3) 0.4806(2)
O3B O 1.1627(2) 0.81241(3) 1.1107(2)
N1 N 0.8445(2) 0.76120(4) 0.3815(2)
H7 H 0.8452(31) 0.7782(4) 0.3120(26)
H8 H 0.7409(19) 0.7519(5) 0.4085(32)
N2 N 1.0000 0.72144(5) 0.5215(4)
H9 H 0.8979(19) 0.7123(5) 0.5570(31)
C11 C 1.0000 0.74768(6) 0.4276(4)
N1B N 1.1555(2) 0.76120(4) 0.3815(2)
H7B H 1.1548(31) 0.7782(4) 0.3120(26)
H8B H 1.2591(19) 0.7519(5) 0.4085(32)
H9B H 1.1021(19) 0.7123(5) 0.5570(31)
N3 N 0.8453(2) 0.48804(4) 0.2148(3)
H10 H 0.8467(34) 0.4683(4) 0.2630(33)
H11 H 0.7452(20) 0.4987(5) 0.1889(33)
N4 N 1.0000 0.53230(6) 0.1117(4)
H12 H 0.8921(18) 0.5407(5) 0.0849(34)
C12 C 1.0000 0.50248(8) 0.1795(4)
N3B N 1.1547(2) 0.48804(4) 0.2148(3)
H10B H 1.1533(34) 0.4683(4) 0.2630(33)
H11B H 1.2548(20) 0.4987(5) 0.1889(33)
H12B H 1.1079(18) 0.5407(5) 0.0849(34)
N5 N 1.0000 0.68399(8) -0.1278(4)
C13 C 1.0000 0.66165(9) -0.0448(4)
C14 C 1.0000 0.63357(7) 0.0684(4)
H13 H 0.8923 0.61995(7) 0.0479(4)
C15 C 1.0000 0.64512(8) 0.2491(4)
H14 H 0.8924 0.65881(8) 0.2689(4)
C16 C 1.0000 0.61639(7) 0.3695(4)
H15 H 0.8923 0.60268(7) 0.3505(4)
C17 C 1.0000 0.62905(6) 0.5477(4)
H16 H 0.8925 0.64288(6) 0.5652(4)
C18 C 1.0000 0.60236(7) 0.6692(4)
N6 N 1.0000 0.58121(6) 0.7608(4)
H13B H 1.1077 0.61995(7) 0.0479(4)
H14B H 1.1076 0.65881(8) 0.2689(4)
H15B H 1.1077 0.60268(7) 0.3505(4)
H16B H 1.1075 0.64288(6) 0.5652(4)
loop_
_geom_bond_atom_site_label_1
_geom_bond_atom_site_label_2
_geom_bond_site_symmetry_1
_geom_bond_site_symmetry_2
S1 O1 1_555 1_555
S2 O3 1_555 1_555
O2 S1 1_555 1_555
O4 S2 1_555 1_555
C1 S1 1_555 1_555
C2 C1 1_555 1_555
C3 C2 1_555 1_555
H1 C3 1_555 1_555
C4 C3 1_555 1_555
H2 C4 1_555 1_555
C5 C4 1_555 1_555
H3 C5 1_555 1_555
C6 S2 1_555 1_555
C7 C2 1_555 1_555
C8 C7 1_555 1_555
H4 C8 1_555 1_555
C9 C8 1_555 1_555
H5 C9 1_555 1_555
C10 C1 1_555 1_555
H6 C10 1_555 1_555
N1 H7 1_555 1_555
H8 N1 1_555 1_555
N2 H9 1_555 1_555
C11 N1 1_555 1_555
N3 H10 1_555 1_555
H11 N3 1_555 1_555
N4 H12 1_555 1_555
C12 N3 1_555 1_555
N5 C13 1_555 1_555
C13 C14 1_555 1_555
C14 H13 1_555 1_555
C15 C14 1_555 1_555
H14 C15 1_555 1_555
C16 C15 1_555 1_555
H15 C16 1_555 1_555
C17 C16 1_555 1_555
H16 C17 1_555 1_555
C18 C17 1_555 1_555
N6 C18 1_555 1_555
O2B S1 1_555 1_555
O3B S2 1_555 1_555
N1B C11 1_555 1_555
H7B N1B 1_555 1_555
H8B N1B 1_555 1_555
H9B N2 1_555 1_555
N3B C12 1_555 1_555
H10B N3B 1_555 1_555
H11B N3B 1_555 1_555
H12B N4 1_555 1_555
H13B C14 1_555 1_555
H14B C15 1_555 1_555
H15B C16 1_555 1_555
H16B C17 1_555 1_555
C5 C6 1_555 1_555
C6 C7 1_555 1_555
C9 C10 1_555 1_555
N2 C11 1_555 1_555
N4 C12 1_555 1_555

#END
