
#######################################################################
#
#                 Cambridge Crystallographic Data Centre
#                                CCDC 
#
#######################################################################
#
# If this CIF has been generated from an entry in the Cambridge 
# Structural Database, then it will include bibliographic, chemical, 
# crystal, experimental, refinement or atomic coordinate data resulting 
# from the CCDC's data processing and validation procedures.
#
#######################################################################

data_TUQNOK
_chemical_formula_moiety         'C32 H27 N1 O2'
_chemical_name_systematic        
2,3-bis(4-methoxyphenyl)-1-phenyl-5-(2-phenylvinyl)-1H-pyrrole
_symmetry_cell_setting           monoclinic
_symmetry_space_group_name_H-M   'P 21'
_symmetry_Int_Tables_number      4
_space_group_name_Hall           'P 2yb'
loop_
_symmetry_equiv_pos_site_id
_symmetry_equiv_pos_as_xyz
1 x,y,z
2 -x,1/2+y,-z
_cell_length_a                   10.897(2)
_cell_length_b                   9.847(2)
_cell_length_c                   12.743(3)
_cell_angle_alpha                90
_cell_angle_beta                 114.83(3)
_cell_angle_gamma                90
_cell_volume                     1240.96
_exptl_crystal_colour            colorless
_exptl_crystal_description       Prism
_cell_formula_units_Z            2
loop_
_atom_site_label
_atom_site_type_symbol
_atom_site_fract_x
_atom_site_fract_y
_atom_site_fract_z
N1 N 0.41575(11) -0.09314(12) 0.28532(10)
O1 O 1.01582(9) 0.16053(10) 0.44020(9)
O2 O 0.34045(12) 0.62204(11) -0.00288(10)
C1 C 0.46076(14) 0.02937(14) 0.26008(12)
C2 C 0.34767(14) 0.10356(14) 0.18941(12)
C3 C 0.23319(15) 0.02382(15) 0.17314(12)
H1 H 0.1419 0.0494 0.1284
C4 C 0.27451(14) -0.09597(15) 0.23196(12)
C5 C 0.60616(13) 0.06367(14) 0.30832(12)
C6 C 0.69406(14) 0.00130(14) 0.26922(12)
H2 H 0.6605 -0.0663 0.2108
C7 C 0.82935(14) 0.03646(15) 0.31421(12)
H3 H 0.8877 -0.0065 0.2862
C8 C 0.88023(14) 0.13446(14) 0.40036(12)
C9 C 0.79442(14) 0.19812(15) 0.44017(13)
H4 H 0.8283 0.2655 0.4988
C10 C 0.65819(14) 0.16251(15) 0.39348(13)
H5 H 0.5995 0.2068 0.4205
C11 C 1.07196(15) 0.25660(16) 0.53368(13)
H6 H 1.0280 0.3449 0.5086
H7 H 1.1693 0.2659 0.5560
H8 H 1.0568 0.2243 0.6000
C12 C 0.34563(14) 0.23964(14) 0.14086(12)
C13 C 0.44346(14) 0.28085(15) 0.10289(12)
H9 H 0.5150 0.2208 0.1106
C14 C 0.43716(15) 0.40763(15) 0.05440(12)
H10 H 0.5041 0.4337 0.0289
C15 C 0.33366(16) 0.49741(15) 0.04263(12)
C16 C 0.23535(15) 0.45905(16) 0.07872(12)
H11 H 0.1639 0.5194 0.0705
C17 C 0.24236(14) 0.33121(15) 0.12718(12)
H12 H 0.1746 0.3054 0.1518
C18 C 0.2266(2) 0.70986(17) -0.03255(16)
H13 H 0.1454 0.6640 -0.0879
H14 H 0.2419 0.7932 -0.0675
H15 H 0.2144 0.7328 0.0373
C19 C 0.19745(14) -0.20868(15) 0.24559(12)
H16 H 0.2453 -0.2789 0.2978
C20 C 0.06333(14) -0.22045(15) 0.18950(12)
H17 H 0.0178 -0.1505 0.1359
C21 C -0.02084(14) -0.32910(15) 0.20156(12)
C22 C -0.16066(14) -0.30837(15) 0.15914(12)
H18 H -0.1989 -0.2271 0.1184
C23 C -0.24421(15) -0.40390(16) 0.17544(13)
H19 H -0.3385 -0.3872 0.1473
C24 C -0.19000(16) -0.52355(17) 0.23281(13)
H20 H -0.2467 -0.5884 0.2458
C25 C -0.05306(16) -0.54870(16) 0.27132(13)
H21 H -0.0165 -0.6326 0.3079
C26 C 0.03104(15) -0.45210(15) 0.25678(13)
H22 H 0.1252 -0.4698 0.2848
C27 C 0.49966(13) -0.19770(15) 0.35855(12)
C28 C 0.50374(15) -0.32347(15) 0.31163(14)
H23 H 0.4543 -0.3388 0.2311
C29 C 0.58049(16) -0.42711(17) 0.38291(15)
H24 H 0.5820 -0.5141 0.3513
C30 C 0.65449(16) -0.40409(17) 0.49933(15)
H25 H 0.7070 -0.4752 0.5478
C31 C 0.65245(15) -0.27815(17) 0.54560(14)
H26 H 0.7049 -0.2625 0.6257
C32 C 0.57423(14) -0.17361(16) 0.47596(12)
H27 H 0.5718 -0.0872 0.5082
loop_
_geom_bond_atom_site_label_1
_geom_bond_atom_site_label_2
_geom_bond_site_symmetry_1
_geom_bond_site_symmetry_2
N1 C1 1_555 1_555
O1 C8 1_555 1_555
O2 C15 1_555 1_555
C1 C2 1_555 1_555
C2 C3 1_555 1_555
C3 H1 1_555 1_555
C4 N1 1_555 1_555
C5 C1 1_555 1_555
C6 C5 1_555 1_555
H2 C6 1_555 1_555
C7 C6 1_555 1_555
H3 C7 1_555 1_555
C8 C7 1_555 1_555
C9 C8 1_555 1_555
H4 C9 1_555 1_555
C10 C5 1_555 1_555
H5 C10 1_555 1_555
C11 O1 1_555 1_555
H6 C11 1_555 1_555
H7 C11 1_555 1_555
H8 C11 1_555 1_555
C12 C2 1_555 1_555
C13 C12 1_555 1_555
H9 C13 1_555 1_555
C14 C13 1_555 1_555
H10 C14 1_555 1_555
C15 C14 1_555 1_555
C16 C15 1_555 1_555
H11 C16 1_555 1_555
C17 C12 1_555 1_555
H12 C17 1_555 1_555
C18 O2 1_555 1_555
H13 C18 1_555 1_555
H14 C18 1_555 1_555
H15 C18 1_555 1_555
C19 C4 1_555 1_555
H16 C19 1_555 1_555
C20 C19 1_555 1_555
H17 C20 1_555 1_555
C21 C20 1_555 1_555
C22 C21 1_555 1_555
H18 C22 1_555 1_555
C23 C22 1_555 1_555
H19 C23 1_555 1_555
C24 C23 1_555 1_555
H20 C24 1_555 1_555
C25 C24 1_555 1_555
H21 C25 1_555 1_555
C26 C21 1_555 1_555
H22 C26 1_555 1_555
C27 N1 1_555 1_555
C28 C27 1_555 1_555
H23 C28 1_555 1_555
C29 C28 1_555 1_555
H24 C29 1_555 1_555
C30 C29 1_555 1_555
H25 C30 1_555 1_555
C31 C30 1_555 1_555
H26 C31 1_555 1_555
C32 C27 1_555 1_555
H27 C32 1_555 1_555
C3 C4 1_555 1_555
C9 C10 1_555 1_555
C16 C17 1_555 1_555
C25 C26 1_555 1_555
C31 C32 1_555 1_555

#END
