
#######################################################################
#
#                 Cambridge Crystallographic Data Centre
#                                CCDC 
#
#######################################################################
#
# If this CIF has been generated from an entry in the Cambridge 
# Structural Database, then it will include bibliographic, chemical, 
# crystal, experimental, refinement or atomic coordinate data resulting 
# from the CCDC's data processing and validation procedures.
#
#######################################################################

data_TUQNAU
_chemical_formula_moiety         '2(C1 H6 N3 1+),C2 H4 O6 S2 2-'
_chemical_name_systematic        'bis(Guanidinium) 1,2-ethanedisulfonate'
_symmetry_cell_setting           monoclinic
_symmetry_space_group_name_H-M   'C 2/m'
_symmetry_Int_Tables_number      12
_space_group_name_Hall           '-C 2y'
loop_
_symmetry_equiv_pos_site_id
_symmetry_equiv_pos_as_xyz
1 x,y,z
2 -x,y,-z
3 1/2+x,1/2+y,z
4 1/2-x,1/2+y,-z
5 -x,-y,-z
6 x,-y,z
7 1/2-x,1/2-y,-z
8 1/2+x,1/2-y,z
_cell_length_a                   12.80(3)
_cell_length_b                   7.34(1)
_cell_length_c                   8.464(5)
_cell_angle_alpha                90
_cell_angle_beta                 96.1(1)
_cell_angle_gamma                90
_cell_volume                     790.707
_exptl_crystal_colour            colorless
_chemical_melting_point          578K
_cell_formula_units_Z            2
loop_
_atom_site_label
_atom_site_type_symbol
_atom_site_fract_x
_atom_site_fract_y
_atom_site_fract_z
N1 N 0.1553(5) 0.5000 0.330(1)
N2 N 0.3094(3) 0.6540(6) 0.3349(5)
C1 C 0.2578(5) 0.5000 0.3324(9)
H1 H 0.1181 0.6121 0.3280
H2 H 0.2726 0.7664 0.3348
H3 H 0.3837 0.6535 0.3369
N2E N 0.3094(3) 0.3460(6) 0.3349(5)
H2E H 0.2726 0.2336 0.3348
H3E H 0.3837 0.3465 0.3369
H1E H 0.1181 0.3879 0.3280
S1 S 0.0825(1) 1.0000 0.2375(2)
O1 O 0.0342(2) 0.8361(5) 0.2922(4)
O2 O 0.1958(3) 1.0000 0.2714(6)
C2 C 0.0573(5) 1.0000 0.0260(8)
H4 H 0.0879 0.8943 -0.0146
O1E O 0.0342(2) 1.1639(5) 0.2922(4)
C2A C -0.0573(5) 1.0000 -0.0260(8)
S1A S -0.0825(1) 1.0000 -0.2375(2)
O1A O -0.0342(2) 0.8361(5) -0.2922(4)
O1D O -0.0342(2) 1.1639(5) -0.2922(4)
O2A O -0.1958(3) 1.0000 -0.2714(6)
H4A H -0.0879 0.8943 0.0146
H4D H -0.0879 1.1057 0.0146
H4E H 0.0879 1.1057 -0.0146
loop_
_geom_bond_atom_site_label_1
_geom_bond_atom_site_label_2
_geom_bond_site_symmetry_1
_geom_bond_site_symmetry_2
N1 C1 1_555 1_555
N2 C1 1_555 1_555
C1 N2E 1_555 1_555
H1 N1 1_555 1_555
H2 N2 1_555 1_555
H3 N2 1_555 1_555
S1 O1 1_555 1_555
O2 S1 1_555 1_555
C2 S1 1_555 1_555
H4 C2 1_555 1_555
N2E H2E 1_555 1_555
H3E N2E 1_555 1_555
H1E N1 1_555 1_555
O1E S1 1_555 1_555
C2A C2 1_555 1_555
S1A C2A 1_555 1_555
O1A S1A 1_555 1_555
O1D S1A 1_555 1_555
O2A S1A 1_555 1_555
H4A C2A 1_555 1_555
H4D C2A 1_555 1_555
H4E C2 1_555 1_555

#END
