
#######################################################################
#
#                 Cambridge Crystallographic Data Centre
#                                CCDC 
#
#######################################################################
#
# If this CIF has been generated from an entry in the Cambridge 
# Structural Database, then it will include bibliographic, chemical, 
# crystal, experimental, refinement or atomic coordinate data resulting 
# from the CCDC's data processing and validation procedures.
#
#######################################################################

data_TUQPAW
_chemical_formula_moiety         '2(C1 H6 N3 1+),C10 H6 O6 S2 2-,2(C1 H4 O1)'
_chemical_name_systematic        
'bis(Guanidinium) 1,5-naphthalenedisulfonate bis(methanol) clathrate'
_symmetry_cell_setting           orthorhombic
_symmetry_space_group_name_H-M   'P b a m'
_symmetry_Int_Tables_number      55
_space_group_name_Hall           '-P 2 2ab'
loop_
_symmetry_equiv_pos_site_id
_symmetry_equiv_pos_as_xyz
1 x,y,z
2 -x,-y,z
3 1/2+x,1/2-y,-z
4 1/2-x,1/2+y,-z
5 -x,-y,-z
6 x,y,-z
7 1/2-x,1/2+y,z
8 1/2+x,1/2-y,z
_cell_length_a                   7.8909(5)
_cell_length_b                   18.7184(12)
_cell_length_c                   7.4083(5)
_cell_angle_alpha                90
_cell_angle_beta                 90
_cell_angle_gamma                90
_cell_volume                     1094.24
_exptl_crystal_colour            colorless
_chemical_melting_point          587-591K
_cell_formula_units_Z            2
loop_
_atom_site_label
_atom_site_type_symbol
_atom_site_fract_x
_atom_site_fract_y
_atom_site_fract_z
S1 S 0.27987(12) 0.64057(5) 1.0000
O1 O 0.3689(2) 0.61983(10) 0.8359(3)
O2 O 0.2340(4) 0.71654(13) 1.0000
C1 C 0.0809(4) 0.5169(2) 1.0000
C2 C 0.0842(4) 0.5938(2) 1.0000
C3 C -0.0628(5) 0.6326(2) 1.0000
H1 H -0.0580(5) 0.6833(2) 1.0000
C4 C -0.2207(5) 0.5981(2) 1.0000
H2 H -0.3217(5) 0.6257(2) 1.0000
C5 C 0.2306(5) 0.4750(2) 1.0000
H3 H 0.3383(5) 0.4976(2) 1.0000
O1E O 0.3689(2) 0.61983(10) 1.1641(3)
C1A C -0.0809(4) 0.4831(2) 1.0000
C2A C -0.0842(4) 0.4062(2) 1.0000
S1A S -0.27987(12) 0.35943(5) 1.0000
O1A O -0.3689(2) 0.38017(10) 0.8359(3)
O1D O -0.3689(2) 0.38017(10) 1.1641(3)
O2A O -0.2340(4) 0.28346(13) 1.0000
C3A C 0.0628(5) 0.3674(2) 1.0000
H1A H 0.0580(5) 0.3167(2) 1.0000
C4A C 0.2207(5) 0.4019(2) 1.0000
H2A H 0.3217(5) 0.3743(2) 1.0000
C5A C -0.2306(5) 0.5250(2) 1.0000
H3A H -0.3383(5) 0.5024(2) 1.0000
C6 C 0.1932(5) 0.7523(2) 0.5000
N1 N 0.2515(5) 0.6868(2) 0.5000
H4 H 0.2728(5) 0.6645(2) 0.6052
N2 N 0.1637(4) 0.78545(14) 0.6548(4)
H5 H 0.1833(4) 0.76348(14) 0.7577(4)
H6 H 0.1245(4) 0.82946(14) 0.6548(4)
H4E H 0.2728(5) 0.6645(2) 0.3948
N2E N 0.1637(4) 0.78545(14) 0.3452(4)
H5E H 0.1833(4) 0.76348(14) 0.2423(4)
H6E H 0.1245(4) 0.82946(14) 0.3452(4)
O3 O 0.1274(14) 0.9380(3) 0.5000
C7 C 0.2786(18) 0.9684(5) 0.5000
H8 H 0.3699(18) 0.9345(5) 0.5000
H9 H 0.2745(18) 0.9997(5) 0.6027
H9E H 0.2745(18) 0.9997(5) 0.3973
H7? H 0.0299(14) 0.9480(3) 0.5599
loop_
_geom_bond_atom_site_label_1
_geom_bond_atom_site_label_2
_geom_bond_site_symmetry_1
_geom_bond_site_symmetry_2
S1 O1 1_555 1_555
O2 S1 1_555 1_555
C1 C2 1_555 1_555
C2 S1 1_555 1_555
C3 C2 1_555 1_555
H1 C3 1_555 1_555
C4 C3 1_555 1_555
H2 C4 1_555 1_555
C5 C1 1_555 1_555
H3 C5 1_555 1_555
C6 N1 1_555 1_555
N1 H4 1_555 1_555
N2 C6 1_555 1_555
H5 N2 1_555 1_555
H6 N2 1_555 1_555
O3 C7 1_555 1_555
C7 H8 1_555 1_555
H9 C7 1_555 1_555
O1E S1 1_555 1_555
C1A C1 1_555 1_555
C2A C1A 1_555 1_555
S1A C2A 1_555 1_555
O1A S1A 1_555 1_555
O1D S1A 1_555 1_555
O2A S1A 1_555 1_555
C3A C2A 1_555 1_555
H1A C3A 1_555 1_555
C4A C5 1_555 1_555
H2A C4A 1_555 1_555
C5A C4 1_555 1_555
H3A C5A 1_555 1_555
H4E N1 1_555 1_555
N2E C6 1_555 1_555
H5E N2E 1_555 1_555
H6E N2E 1_555 1_555
H9E C7 1_555 1_555
C1A C5A 1_555 1_555
C3A C4A 1_555 1_555

#END
