
#######################################################################
#
#                 Cambridge Crystallographic Data Centre
#                                CCDC 
#
#######################################################################
#
# If this CIF has been generated from an entry in the Cambridge 
# Structural Database, then it will include bibliographic, chemical, 
# crystal, experimental, refinement or atomic coordinate data resulting 
# from the CCDC's data processing and validation procedures.
#
#######################################################################

data_TUQQAX
_chemical_formula_moiety         '2(C1 H6 N3 1+),C12 H8 O6 S2 2-,C8 H8'
_chemical_name_systematic        
"bis(Guanidinium) 4,4'-biphenyldisulfonate styrene clathrate"
_symmetry_cell_setting           triclinic
_symmetry_space_group_name_H-M   'P -1'
_symmetry_Int_Tables_number      2
_space_group_name_Hall           '-P 1'
loop_
_symmetry_equiv_pos_site_id
_symmetry_equiv_pos_as_xyz
1 x,y,z
2 -x,-y,-z
_cell_length_a                   6.1701(1)
_cell_length_b                   7.2682(2)
_cell_length_c                   14.0856(4)
_cell_angle_alpha                96.304(2)
_cell_angle_beta                 92.817(1)
_cell_angle_gamma                93.253(1)
_cell_volume                     625.868
_exptl_crystal_colour            colorless
_chemical_melting_point          599-603K
_cell_formula_units_Z            1
loop_
_atom_site_label
_atom_site_type_symbol
_atom_site_fract_x
_atom_site_fract_y
_atom_site_fract_z
C7 C -0.0425(3) 0.7439(2) 0.40271(11)
N1 N -0.1373(2) 0.5763(2) 0.40593(10)
H5 H -0.0582(2) 0.4791(2) 0.40443(10)
H6 H -0.2791(2) 0.5624(2) 0.40958(10)
N2 N 0.1711(2) 0.7638(2) 0.39722(12)
H7 H 0.2495(2) 0.6662(2) 0.39574(12)
H8 H 0.2347(2) 0.8747(2) 0.39507(12)
N3 N -0.1599(2) 0.8923(2) 0.40313(10)
H9 H -0.0955(2) 1.0023(2) 0.39979(10)
H10 H -0.3019(2) 0.8801(2) 0.40676(10)
C8 C 0.0262(7) 0.4738(5) -0.0309(3)
C9 C 0.1546(12) 0.4678(15) 0.0520(3)
H11 H 0.2917(12) 0.4150(15) 0.0485(3)
C10 C -0.0853(7) 0.4619(6) -0.1399(3)
H12 H -0.1731(7) 0.4696(6) -0.1965(3)
C11 C 0.1118(10) 0.3805(12) -0.1454(4)
H13 H 0.1570(10) 0.3274(12) -0.2053(4)
C12 C 0.2426(6) 0.3771(5) -0.0629(3)
H14 H 0.3812(6) 0.3271(5) -0.0666(3)
C13 C -0.1717(12) 0.5537(16) -0.0250(3)
H15 H 0.2595(12) 0.4389(16) 0.0816(3)
C14 C 0.0965(18) 0.4007(17) -0.1280(8)
H16 H -0.0035(18) 0.4109(17) -0.1804(8)
C15 C 0.2724(11) 0.3271(7) -0.1488(4)
H17 H 0.3791(11) 0.3129(7) -0.0997(4)
H18 H 0.2973(11) 0.2863(7) -0.2136(4)
C8A C -0.0262(7) 0.5262(5) 0.0309(3)
C9A C -0.1546(12) 0.5322(15) -0.0520(3)
C10A C 0.0853(7) 0.5381(6) 0.1399(3)
C13A C 0.1717(12) 0.4463(16) 0.0250(3)
C12A C -0.2426(6) 0.6229(5) 0.0629(3)
C11A C -0.1118(10) 0.6195(12) 0.1454(4)
H12A H 0.1731(7) 0.5304(6) 0.1965(3)
C14A C -0.0965(18) 0.5993(17) 0.1280(8)
H11A H -0.2917(12) 0.5850(15) -0.0485(3)
H15A H -0.2595(12) 0.5611(16) -0.0816(3)
H14A H -0.3812(6) 0.6729(5) 0.0666(3)
C15A C -0.2724(11) 0.6729(7) 0.1488(4)
H13A H -0.1570(10) 0.6726(12) 0.2053(4)
H16A H 0.0035(18) 0.5891(17) 0.1804(8)
H17A H -0.3791(11) 0.6871(7) 0.0997(4)
H18A H -0.2973(11) 0.7137(7) 0.2136(4)
S1 S 0.32841(6) 0.24555(5) 0.35791(3)
O1 O 0.0913(2) 0.2297(2) 0.36283(8)
O2 O 0.4155(2) 0.4386(2) 0.37347(8)
O3 O 0.4378(2) 0.1266(2) 0.41955(8)
C1 C 0.3835(3) 0.1625(2) 0.23858(11)
C2 C 0.2298(3) 0.0529(3) 0.18020(13)
H1 H 0.0923(3) 0.0213(3) 0.20357(13)
C3 C 0.2759(3) -0.0113(3) 0.08731(13)
H2 H 0.1689(3) -0.0873(3) 0.04800(13)
C4 C 0.4760(3) 0.0331(2) 0.05020(11)
C5 C 0.6287(3) 0.1433(3) 0.11115(13)
H3 H 0.7667(3) 0.1750(3) 0.08827(13)
C6 C 0.5846(3) 0.2078(3) 0.20421(13)
H4 H 0.6914(3) 0.2826(3) 0.24419(13)
C4A C 0.5240(3) -0.0331(2) -0.05020(11)
C3A C 0.7241(3) 0.0113(3) -0.08731(13)
C2A C 0.7702(3) -0.0529(3) -0.18020(13)
C1A C 0.6165(3) -0.1625(2) -0.23858(11)
S1A S 0.67159(6) -0.24555(5) -0.35791(3)
O1A O 0.9087(2) -0.2297(2) -0.36283(8)
O2A O 0.5845(2) -0.4386(2) -0.37347(8)
O3A O 0.5622(2) -0.1266(2) -0.41955(8)
C6A C 0.4154(3) -0.2078(3) -0.20421(13)
C5A C 0.3713(3) -0.1433(3) -0.11115(13)
H3A H 0.2333(3) -0.1750(3) -0.08827(13)
H4A H 0.3086(3) -0.2826(3) -0.24419(13)
H1A H 0.9077(3) -0.0213(3) -0.20357(13)
H2A H 0.8311(3) 0.0873(3) -0.04800(13)
loop_
_geom_bond_atom_site_label_1
_geom_bond_atom_site_label_2
_geom_bond_site_symmetry_1
_geom_bond_site_symmetry_2
S1 O1 1_555 1_555
O2 S1 1_555 1_555
O3 S1 1_555 1_555
C1 S1 1_555 1_555
C2 C1 1_555 1_555
H1 C2 1_555 1_555
C3 C2 1_555 1_555
H2 C3 1_555 1_555
C4 C3 1_555 1_555
C5 C4 1_555 1_555
H3 C5 1_555 1_555
C6 C1 1_555 1_555
H4 C6 1_555 1_555
C7 N1 1_555 1_555
N1 H5 1_555 1_555
H6 N1 1_555 1_555
N2 C7 1_555 1_555
H7 N2 1_555 1_555
H8 N2 1_555 1_555
N3 C7 1_555 1_555
H9 N3 1_555 1_555
H10 N3 1_555 1_555
C8 C9 1_555 1_555
C9 H11 1_555 1_555
H11 H15 1_555 1_555
C10 C8 1_555 1_555
H12 C10 1_555 1_555
C11 C10 1_555 1_555
H13 C11 1_555 1_555
C12 C8 1_555 1_555
H14 C12 1_555 1_555
C13 C8 1_555 1_555
H15 C9 1_555 1_555
C14 C8 1_555 1_555
H16 C10 1_555 1_555
C15 C11 1_555 1_555
H17 C12 1_555 1_555
H18 C15 1_555 1_555
C4A C4 1_555 1_555
C3A C4A 1_555 1_555
C2A C3A 1_555 1_555
C1A C2A 1_555 1_555
S1A C1A 1_555 1_555
O1A S1A 1_555 1_555
O2A S1A 1_555 1_555
O3A S1A 1_555 1_555
C6A C1A 1_555 1_555
C5A C4A 1_555 1_555
H3A C5A 1_555 1_555
H4A C6A 1_555 1_555
H1A C2A 1_555 1_555
H2A C3A 1_555 1_555
C8A C8 1_555 1_555
C9A C8 1_555 1_555
C10A C9 1_555 1_555
C13A C8 1_555 1_555
C12A C13 1_555 1_555
C11A C10A 1_555 1_555
H12A C10A 1_555 1_555
C14A C8A 1_555 1_555
H11A C13 1_555 1_555
H15A C13 1_555 1_555
H14A C12A 1_555 1_555
C15A C12A 1_555 1_555
H13A C11A 1_555 1_555
H16A C10A 1_555 1_555
H17A C12A 1_555 1_555
H18A C15A 1_555 1_555
C5 C6 1_555 1_555
C9 C8A 1_555 1_555
C9 C13A 1_555 1_555
H11 C13A 1_555 1_555
C10 C9A 1_555 1_555
C10 C14 1_555 1_555
C11 C12 1_555 1_555
C11 C14 1_555 1_555
C11 H16 1_555 1_555
H13 C14 1_555 1_555
H13 C15 1_555 1_555
C12 C15 1_555 1_555
C12 C14 1_555 1_555
C12 C13A 1_555 1_555
H14 C15 1_555 1_555
H14 H17 1_555 1_555
C13 C8A 1_555 1_555
C13 C9A 1_555 1_555
H15 C13A 1_555 1_555
C14 C15 1_555 1_555
C14 H16 1_555 1_555
C15 H17 1_555 1_555
C6A C5A 1_555 1_555
C8A C9A 1_555 1_555
C8A C10A 1_555 1_555
C8A C12A 1_555 1_555
C8A C13A 1_555 1_555
C9A H11A 1_555 1_555
C9A H15A 1_555 1_555
C10A C14A 1_555 1_555
C12A C11A 1_555 1_555
C12A C14A 1_555 1_555
C11A H16A 1_555 1_555
C11A C15A 1_555 1_555
C11A C14A 1_555 1_555
C14A H13A 1_555 1_555
C14A H16A 1_555 1_555
C14A C15A 1_555 1_555
H11A H15A 1_555 1_555
H14A C15A 1_555 1_555
H14A H17A 1_555 1_555
C15A H17A 1_555 1_555
C15A H13A 1_555 1_555

#END
