
#######################################################################
#
#                 Cambridge Crystallographic Data Centre
#                                CCDC 
#
#######################################################################
#
# If this CIF has been generated from an entry in the Cambridge 
# Structural Database, then it will include bibliographic, chemical, 
# crystal, experimental, refinement or atomic coordinate data resulting 
# from the CCDC's data processing and validation procedures.
#
#######################################################################

data_TUQVUY
_chemical_formula_moiety         'C14 H12 N4 O1,0.4(H2 O1)'
_chemical_name_systematic        
'5-(1H-imidazol-4-ylmethylene)-3-methyl-2-phenyl-3,5-dihydro-4H-imidazol-4-one hydrate'
_symmetry_cell_setting           monoclinic
_symmetry_space_group_name_H-M   'P 21/c'
_symmetry_Int_Tables_number      14
_space_group_name_Hall           '-P 2ybc'
loop_
_symmetry_equiv_pos_site_id
_symmetry_equiv_pos_as_xyz
1 x,y,z
2 -x,1/2+y,1/2-z
3 -x,-y,-z
4 x,1/2-y,1/2+z
_cell_length_a                   8.761(2)
_cell_length_b                   16.167(5)
_cell_length_c                   9.689(3)
_cell_angle_alpha                90
_cell_angle_beta                 108.314(4)
_cell_angle_gamma                90
_cell_volume                     1302.83
_cell_formula_units_Z            4
loop_
_atom_site_label
_atom_site_type_symbol
_atom_site_fract_x
_atom_site_fract_y
_atom_site_fract_z
C1 C 0.5657(2) -0.08890(11) 0.2334(2)
C2 C 0.4153(3) -0.12628(14) 0.1961(3)
H1 H 0.3653 -0.1342 0.2667
C3 C 0.3394(3) -0.15173(15) 0.0550(3)
H2 H 0.2390 -0.1769 0.0314
C4 C 0.4116(3) -0.14000(14) -0.0506(3)
H3 H 0.3598 -0.1571 -0.1454
C5 C 0.5608(3) -0.10294(13) -0.0162(2)
H4 H 0.6093 -0.0950 -0.0878
C6 C 0.6378(2) -0.07770(11) 0.1247(2)
H5 H 0.7386 -0.0530 0.1476
C7 C 0.6505(2) -0.05590(11) 0.3786(2)
C8 C 0.7433(2) -0.04501(12) 0.6218(2)
C9 C 0.8040(2) 0.02113(11) 0.5480(2)
C10 C 0.5671(3) -0.16671(13) 0.5342(3)
H6 H 0.6260 -0.1886 0.6279
H7 H 0.5666 -0.2064 0.4603
H8 H 0.4586 -0.1553 0.5311
C11 C 0.9017(2) 0.08261(11) 0.61658(19)
H9 H 0.9322 0.0827 0.7176
C12 C 0.9639(2) 0.14820(10) 0.54977(18)
C13 C 1.0874(2) 0.26148(11) 0.53922(19)
H10 H 1.1448 0.3105 0.5646
C14 C 0.9571(2) 0.15979(11) 0.40783(18)
H11 H 0.9082 0.1252 0.3298
N1 N 0.6433(2) -0.09040(9) 0.50864(18)
N2 N 0.74147(19) 0.00961(9) 0.39779(17)
N3 N 1.04815(18) 0.21368(9) 0.63210(15)
N4 N 1.03532(18) 0.23146(9) 0.40328(15)
H12 H 1.0582 0.2545 0.3203
O1 O 0.7722(2) -0.06049(9) 0.75120(16)
O2 O 1.0169(8) 0.0310(4) 0.9741(6)
H13? H 0.9137 0.0261 0.9170
H14? H 1.0290 0.0133 1.0655
loop_
_geom_bond_atom_site_label_1
_geom_bond_atom_site_label_2
_geom_bond_site_symmetry_1
_geom_bond_site_symmetry_2
C1 C2 1_555 1_555
C2 H1 1_555 1_555
C3 C2 1_555 1_555
H2 C3 1_555 1_555
C4 C3 1_555 1_555
H3 C4 1_555 1_555
C5 C4 1_555 1_555
H4 C5 1_555 1_555
C6 C1 1_555 1_555
H5 C6 1_555 1_555
C7 C1 1_555 1_555
C8 C9 1_555 1_555
C9 C11 1_555 1_555
C10 H6 1_555 1_555
H7 C10 1_555 1_555
H8 C10 1_555 1_555
C11 H9 1_555 1_555
C12 C11 1_555 1_555
C13 H10 1_555 1_555
C14 C12 1_555 1_555
H11 C14 1_555 1_555
N1 C7 1_555 1_555
N2 C7 1_555 1_555
N3 C12 1_555 1_555
N4 C13 1_555 1_555
H12 N4 1_555 1_555
O1 C8 1_555 1_555
C5 C6 1_555 1_555
C8 N1 1_555 1_555
C9 N2 1_555 1_555
C10 N1 1_555 1_555
C13 N3 1_555 1_555
C14 N4 1_555 1_555

#END
