
#######################################################################
#
#                 Cambridge Crystallographic Data Centre
#                                CCDC 
#
#######################################################################
#
# If this CIF has been generated from an entry in the Cambridge 
# Structural Database, then it will include bibliographic, chemical, 
# crystal, experimental, refinement or atomic coordinate data resulting 
# from the CCDC's data processing and validation procedures.
#
#######################################################################

data_TUQWAF
_chemical_formula_moiety         'C46 H32 N4,C1 H1 Cl3'
_chemical_name_systematic        
"6,7-diphenylspiro[5,8-diazapentacyclo[10.8.2.0^3,18^.0^4,8^.0^10,15^]docosa-1(20),2,4,6,10,12,14,18-octaene-9,2'-phenanthro[9,10-d]imidazole] chloroform solvate"
_symmetry_cell_setting           triclinic
_symmetry_space_group_name_H-M   'P -1'
_symmetry_Int_Tables_number      2
_space_group_name_Hall           '-P 1'
loop_
_symmetry_equiv_pos_site_id
_symmetry_equiv_pos_as_xyz
1 x,y,z
2 -x,-y,-z
_cell_length_a                   12.347(2)
_cell_length_b                   13.031(4)
_cell_length_c                   13.621(2)
_cell_angle_alpha                107.495(3)
_cell_angle_beta                 115.250(2)
_cell_angle_gamma                93.094(3)
_cell_volume                     1847.8
_exptl_crystal_colour            yellow
_exptl_crystal_description       plate
_cell_formula_units_Z            2
loop_
_atom_site_label
_atom_site_type_symbol
_atom_site_fract_x
_atom_site_fract_y
_atom_site_fract_z
Cl1 Cl 0.20069(6) 0.75197(6) 0.19312(6)
Cl2 Cl 0.07972(7) 0.66400(6) 0.30006(7)
Cl3 Cl -0.06324(6) 0.71328(6) 0.09341(7)
C1 C 0.0754(2) 0.7520(2) 0.2235(2)
H1 H 0.0817 0.8284 0.2734
N1 N 0.15742(15) 0.01473(14) 0.37903(15)
N2 N 0.32264(16) 0.27929(14) 0.74541(15)
N3 N 0.46610(15) 0.26398(14) 0.66801(14)
N4 N 0.26730(15) 0.14219(14) 0.55589(14)
C2 C 0.52504(18) 0.08717(16) 0.73540(16)
H2 H 0.5631 0.1172 0.6996
C3 C 0.48016(19) 0.36393(17) 0.73256(17)
C4 C 0.57372(18) 0.00897(17) 0.78226(18)
C5 C 0.37314(19) -0.10017(17) 0.52279(17)
H3 H 0.4045 -0.0820 0.4761
C6 C 0.23629(17) 0.03229(16) 0.48753(17)
C7 C 0.27477(18) -0.05833(16) 0.53044(17)
C8 C 0.42201(18) 0.12270(16) 0.73944(16)
C9 C 0.5655(2) 0.46193(18) 0.75790(18)
C10 C 0.20109(19) 0.31521(17) 0.52175(18)
C11 C 0.13610(18) 0.11699(17) 0.37383(18)
C12 C 0.4310(2) 0.02031(18) 0.86032(18)
H4 H 0.4046 0.0031 0.9107
C13 C 0.36768(18) 0.20048(16) 0.67562(17)
C14 C 0.39317(19) 0.37279(17) 0.78115(17)
C15 C 0.3894(2) 0.47886(18) 0.85396(18)
C16 C 0.3610(2) -0.21277(18) 0.62850(19)
H5 H 0.3872 -0.2691 0.6583
C17 C 0.20224(18) 0.19688(17) 0.48192(18)
C18 C 0.04743(18) 0.12522(19) 0.26326(19)
C19 C 0.3061(2) 0.4863(2) 0.89832(19)
H6 H 0.2536 0.4216 0.8839
C20 C 0.2590(2) -0.17594(18) 0.6307(2)
H7 H 0.2143 -0.2093 0.6592
C21 C 0.5594(2) 0.56428(18) 0.82813(19)
C22 C 0.22067(19) -0.09020(18) 0.59170(19)
C23 C 0.36540(19) 0.07976(17) 0.79348(18)
C24 C 0.6491(2) 0.45469(19) 0.7139(2)
H8 H 0.6507 0.3852 0.6662
C25 C 0.1472(2) -0.0195(2) 0.6369(2)
H9 H 0.0853 -0.0669 0.6414
H10 H 0.1032 0.0170 0.5819
C26 C 0.6458(2) -0.06276(19) 0.7353(2)
H11 H 0.7034 -0.0866 0.7971
H12 H 0.6949 -0.0187 0.7147
C27 C 0.6432(2) 0.65766(19) 0.8518(2)
H13 H 0.6425 0.7279 0.8988
C28 C 0.4263(2) -0.16865(17) 0.58314(18)
C29 C 0.4700(2) 0.57323(18) 0.87461(19)
C30 C 0.2718(2) 0.39104(18) 0.50771(19)
H14 H 0.3252 0.3675 0.4759
C31 C -0.0047(2) 0.0320(2) 0.1635(2)
H15 H 0.0202 -0.0352 0.1667
C32 C 0.4599(2) 0.6749(2) 0.9404(2)
H16 H 0.5116 0.7404 0.9555
C33 C 0.1230(2) 0.35047(19) 0.5684(2)
H17 H 0.0741 0.2989 0.5775
C34 C 0.7301(2) 0.5483(2) 0.7393(2)
H18 H 0.7877 0.5433 0.7099
C35 C 0.5333(2) -0.01443(18) 0.85577(18)
H19 H 0.5760 -0.0543 0.9029
C36 C 0.5612(2) -0.16850(19) 0.62424(19)
H20 H 0.5811 -0.1711 0.5606
H21 H 0.5786 -0.2354 0.6432
C37 C 0.2311(2) 0.07101(19) 0.7612(2)
H22 H 0.2095 0.1432 0.7617
H23 H 0.2156 0.0521 0.8199
C38 C 0.1870(2) 0.5356(2) 0.5869(2)
H24 H 0.1820 0.6110 0.6091
C39 C 0.3769(3) 0.6820(2) 0.9835(2)
H25 H 0.3724 0.7521 1.0274
C40 C 0.7257(2) 0.6493(2) 0.8085(2)
H26 H 0.7807 0.7137 0.8261
C41 C 0.3000(2) 0.5886(2) 0.9638(2)
H27 H 0.2437 0.5944 0.9947
C42 C 0.2643(2) 0.5012(2) 0.5402(2)
H28 H 0.3124 0.5529 0.5303
C43 C -0.0928(2) 0.0346(2) 0.0585(2)
H29 H -0.1283 -0.0308 -0.0086
C44 C 0.1165(2) 0.4604(2) 0.6015(2)
H30 H 0.0638 0.4844 0.6341
C45 C -0.1288(2) 0.1312(3) 0.0510(2)
H31 H -0.1881 0.1333 -0.0209
C46 C 0.0089(3) 0.2225(2) 0.2556(3)
H32 H 0.0418 0.2876 0.3229
C47 C -0.0778(3) 0.2245(3) 0.1492(3)
H33 H -0.1019 0.2916 0.1447
loop_
_geom_bond_atom_site_label_1
_geom_bond_atom_site_label_2
_geom_bond_site_symmetry_1
_geom_bond_site_symmetry_2
Cl1 C1 1_555 1_555
Cl2 C1 1_555 1_555
Cl3 C1 1_555 1_555
C1 H1 1_555 1_555
N1 C6 1_555 1_555
N2 C13 1_555 1_555
N3 C3 1_555 1_555
N4 C6 1_555 1_555
C2 H2 1_555 1_555
C3 C9 1_555 1_555
C4 C2 1_555 1_555
C5 H3 1_555 1_555
C6 C7 1_555 1_555
C7 C5 1_555 1_555
C8 C2 1_555 1_555
C9 C21 1_555 1_555
C10 C17 1_555 1_555
C11 N1 1_555 1_555
C12 H4 1_555 1_555
C13 N3 1_555 1_555
C14 N2 1_555 1_555
C15 C14 1_555 1_555
C16 H5 1_555 1_555
C17 N4 1_555 1_555
C18 C11 1_555 1_555
C19 C15 1_555 1_555
H6 C19 1_555 1_555
C20 C16 1_555 1_555
H7 C20 1_555 1_555
C21 C27 1_555 1_555
C22 C7 1_555 1_555
C23 C8 1_555 1_555
C24 C9 1_555 1_555
H8 C24 1_555 1_555
C25 C22 1_555 1_555
H9 C25 1_555 1_555
H10 C25 1_555 1_555
C26 C4 1_555 1_555
H11 C26 1_555 1_555
H12 C26 1_555 1_555
C27 H13 1_555 1_555
C28 C5 1_555 1_555
C29 C15 1_555 1_555
C30 C10 1_555 1_555
H14 C30 1_555 1_555
C31 C18 1_555 1_555
H15 C31 1_555 1_555
C32 C29 1_555 1_555
H16 C32 1_555 1_555
C33 C10 1_555 1_555
H17 C33 1_555 1_555
C34 C24 1_555 1_555
H18 C34 1_555 1_555
C35 C4 1_555 1_555
H19 C35 1_555 1_555
C36 C26 1_555 1_555
H20 C36 1_555 1_555
H21 C36 1_555 1_555
C37 C23 1_555 1_555
H22 C37 1_555 1_555
H23 C37 1_555 1_555
C38 H24 1_555 1_555
C39 C32 1_555 1_555
H25 C39 1_555 1_555
C40 C27 1_555 1_555
H26 C40 1_555 1_555
C41 C19 1_555 1_555
H27 C41 1_555 1_555
C42 C30 1_555 1_555
H28 C42 1_555 1_555
C43 C31 1_555 1_555
H29 C43 1_555 1_555
C44 C33 1_555 1_555
H30 C44 1_555 1_555
C45 C43 1_555 1_555
H31 C45 1_555 1_555
C46 C18 1_555 1_555
H32 C46 1_555 1_555
C47 C45 1_555 1_555
H33 C47 1_555 1_555
N4 C13 1_555 1_555
C3 C14 1_555 1_555
C8 C13 1_555 1_555
C11 C17 1_555 1_555
C12 C23 1_555 1_555
C12 C35 1_555 1_555
C16 C28 1_555 1_555
C20 C22 1_555 1_555
C21 C29 1_555 1_555
C25 C37 1_555 1_555
C28 C36 1_555 1_555
C34 C40 1_555 1_555
C38 C42 1_555 1_555
C38 C44 1_555 1_555
C39 C41 1_555 1_555
C46 C47 1_555 1_555

#END
