
#######################################################################
#
#                 Cambridge Crystallographic Data Centre
#                                CCDC 
#
#######################################################################
#
# If this CIF has been generated from an entry in the Cambridge 
# Structural Database, then it will include bibliographic, chemical, 
# crystal, experimental, refinement or atomic coordinate data resulting 
# from the CCDC's data processing and validation procedures.
#
#######################################################################

data_TUQXUA
_chemical_formula_moiety         'C34 H36 Cl2 N2 O4 S4'
_chemical_name_systematic        
'octyl (2-chloro-6-(2-chloro-4-(1-cyano-2-(octyloxy)-2-oxoethylidene)thieno[3,4-b]thiophen-6(4H)-ylidene)thieno[3,4-b]thiophen-4(6H)-ylidene)(cyano)acetate'
_symmetry_cell_setting           triclinic
_symmetry_space_group_name_H-M   'P -1'
_symmetry_Int_Tables_number      2
_space_group_name_Hall           '-P 1'
loop_
_symmetry_equiv_pos_site_id
_symmetry_equiv_pos_as_xyz
1 x,y,z
2 -x,-y,-z
_cell_length_a                   5.4021(11)
_cell_length_b                   8.6247(17)
_cell_length_c                   19.004(4)
_cell_angle_alpha                77.45(3)
_cell_angle_beta                 82.55(3)
_cell_angle_gamma                89.45(3)
_cell_volume                     856.815
_exptl_crystal_colour            green
_exptl_crystal_description       needle
_cell_formula_units_Z            1
loop_
_atom_site_label
_atom_site_type_symbol
_atom_site_fract_x
_atom_site_fract_y
_atom_site_fract_z
Cl1 Cl 1.4729(5) 0.4750(3) -0.20060(11)
S1 S 1.7506(4) 0.0228(3) 0.09955(11)
S2 S 1.8170(4) 0.2351(3) -0.13132(12)
O1 O 1.4704(12) 0.0379(8) 0.2285(3)
O2 O 1.1179(12) 0.1856(7) 0.2384(3)
N1 N 1.0044(14) 0.4109(10) 0.0821(4)
C1 C 1.5523(17) 0.3564(10) -0.1230(4)
C2 C 1.4453(17) 0.3408(11) -0.0532(4)
H1 H 1.3042 0.3991 -0.0392
C3 C 1.5678(16) 0.2265(10) -0.0022(4)
C4 C 1.5238(17) 0.1642(11) 0.0742(4)
C5 C 1.8984(16) 0.0455(11) 0.0097(5)
C6 C 1.7692(17) 0.1620(11) -0.0387(4)
C7 C 1.3371(16) 0.2016(11) 0.1238(5)
C8 C 1.1529(16) 0.3176(11) 0.1000(4)
C9 C 1.3158(18) 0.1314(12) 0.2010(5)
C10 C 1.0900(18) 0.1367(12) 0.3181(4)
H2 H 1.2224 0.1873 0.3374
H3 H 1.1033 0.0200 0.3333
C11 C 0.8392(17) 0.1880(12) 0.3464(5)
H4 H 0.7091 0.1201 0.3354
H5 H 0.8130 0.2989 0.3212
C12 C 0.8103(18) 0.1778(12) 0.4286(5)
H6 H 0.8403 0.0674 0.4536
H7 H 0.9387 0.2473 0.4394
C13 C 0.5557(17) 0.2264(11) 0.4583(4)
H8 H 0.4294 0.1486 0.4531
H9 H 0.5168 0.3312 0.4289
C14 C 0.5358(17) 0.2367(12) 0.5380(4)
H10 H 0.6645 0.3127 0.5435
H11 H 0.5703 0.1313 0.5677
C15 C 0.2741(18) 0.2909(12) 0.5674(5)
H12 H 0.1476 0.2098 0.5659
H13 H 0.2334 0.3914 0.5349
C16 C 0.2571(17) 0.3166(12) 0.6465(5)
H14 H 0.3018 0.2172 0.6791
H15 H 0.3787 0.4005 0.6480
C17 C -0.0037(19) 0.3642(13) 0.6738(5)
H16 H -0.0510 0.4603 0.6406
H17 H -0.0053 0.3852 0.7225
H18 H -0.1227 0.2778 0.6758
Cl1A Cl 2.5271(5) -0.4750(3) 0.20060(11)
S1A S 2.2494(4) -0.0228(3) -0.09955(11)
S2A S 2.1830(4) -0.2351(3) 0.13132(12)
O1A O 2.5296(12) -0.0379(8) -0.2285(3)
O2A O 2.8821(12) -0.1856(7) -0.2384(3)
N1A N 2.9956(14) -0.4109(10) -0.0821(4)
C1A C 2.4477(17) -0.3564(10) 0.1230(4)
C2A C 2.5547(17) -0.3408(11) 0.0532(4)
H1A H 2.6958 -0.3991 0.0392
C3A C 2.4322(16) -0.2265(10) 0.0022(4)
C4A C 2.4762(17) -0.1642(11) -0.0742(4)
C5A C 2.1016(16) -0.0455(11) -0.0097(5)
C6A C 2.2308(17) -0.1620(11) 0.0387(4)
C7A C 2.6629(16) -0.2016(11) -0.1238(5)
C8A C 2.8471(16) -0.3176(11) -0.1000(4)
C9A C 2.6842(18) -0.1314(12) -0.2010(5)
C10A C 2.9100(18) -0.1367(12) -0.3181(4)
H2A H 2.7776 -0.1873 -0.3374
H3A H 2.8967 -0.0200 -0.3333
C11A C 3.1608(17) -0.1880(12) -0.3464(5)
H4A H 3.2909 -0.1201 -0.3354
H5A H 3.1870 -0.2989 -0.3212
C12A C 3.1897(18) -0.1778(12) -0.4286(5)
H6A H 3.1597 -0.0674 -0.4536
H7A H 3.0613 -0.2473 -0.4394
C13A C 3.4443(17) -0.2264(11) -0.4583(4)
H8A H 3.5706 -0.1486 -0.4531
H9A H 3.4832 -0.3312 -0.4289
C14A C 3.4642(17) -0.2367(12) -0.5380(4)
H10A H 3.3355 -0.3127 -0.5435
H11A H 3.4297 -0.1313 -0.5677
C15A C 3.7259(18) -0.2909(12) -0.5674(5)
H12A H 3.8524 -0.2098 -0.5659
H13A H 3.7666 -0.3914 -0.5349
C16A C 3.7429(17) -0.3166(12) -0.6465(5)
H14A H 3.6982 -0.2172 -0.6791
H15A H 3.6213 -0.4005 -0.6480
C17A C 4.0037(19) -0.3642(13) -0.6738(5)
H16A H 4.0510 -0.4603 -0.6406
H17A H 4.0053 -0.3852 -0.7225
H18A H 4.1227 -0.2778 -0.6758
loop_
_geom_bond_atom_site_label_1
_geom_bond_atom_site_label_2
_geom_bond_site_symmetry_1
_geom_bond_site_symmetry_2
Cl1 C1 1_555 1_555
S1 C4 1_555 1_555
S2 C1 1_555 1_555
O1 C9 1_555 1_555
O2 C9 1_555 1_555
N1 C8 1_555 1_555
C1 C2 1_555 1_555
C2 H1 1_555 1_555
C3 C2 1_555 1_555
C4 C3 1_555 1_555
C5 S1 1_555 1_555
C6 S2 1_555 1_555
C7 C4 1_555 1_555
C8 C7 1_555 1_555
C9 C7 1_555 1_555
C10 O2 1_555 1_555
H2 C10 1_555 1_555
H3 C10 1_555 1_555
C11 C10 1_555 1_555
H4 C11 1_555 1_555
H5 C11 1_555 1_555
C12 C11 1_555 1_555
H6 C12 1_555 1_555
H7 C12 1_555 1_555
C13 C12 1_555 1_555
H8 C13 1_555 1_555
H9 C13 1_555 1_555
C14 C13 1_555 1_555
H10 C14 1_555 1_555
H11 C14 1_555 1_555
C15 C14 1_555 1_555
H12 C15 1_555 1_555
H13 C15 1_555 1_555
C16 C15 1_555 1_555
H14 C16 1_555 1_555
H15 C16 1_555 1_555
C17 C16 1_555 1_555
H16 C17 1_555 1_555
H17 C17 1_555 1_555
H18 C17 1_555 1_555
Cl1A C1A 1_555 1_555
S1A C4A 1_555 1_555
S2A C1A 1_555 1_555
O1A C9A 1_555 1_555
O2A C9A 1_555 1_555
N1A C8A 1_555 1_555
C1A C2A 1_555 1_555
C2A H1A 1_555 1_555
C3A C2A 1_555 1_555
C4A C3A 1_555 1_555
C5A C5 1_555 1_555
C6A S2A 1_555 1_555
C7A C4A 1_555 1_555
C8A C7A 1_555 1_555
C9A C7A 1_555 1_555
C10A O2A 1_555 1_555
H2A C10A 1_555 1_555
H3A C10A 1_555 1_555
C11A C10A 1_555 1_555
H4A C11A 1_555 1_555
H5A C11A 1_555 1_555
C12A C11A 1_555 1_555
H6A C12A 1_555 1_555
H7A C12A 1_555 1_555
C13A C12A 1_555 1_555
H8A C13A 1_555 1_555
H9A C13A 1_555 1_555
C14A C13A 1_555 1_555
H10A C14A 1_555 1_555
H11A C14A 1_555 1_555
C15A C14A 1_555 1_555
H12A C15A 1_555 1_555
H13A C15A 1_555 1_555
C16A C15A 1_555 1_555
H14A C16A 1_555 1_555
H15A C16A 1_555 1_555
C17A C16A 1_555 1_555
H16A C17A 1_555 1_555
H17A C17A 1_555 1_555
H18A C17A 1_555 1_555
C3 C6 1_555 1_555
C5 C6 1_555 1_555
S1A C5A 1_555 1_555
C3A C6A 1_555 1_555
C5A C6A 1_555 1_555

#END
