
#######################################################################
#
#                 Cambridge Crystallographic Data Centre
#                                CCDC 
#
#######################################################################
#
# If this CIF has been generated from an entry in the Cambridge 
# Structural Database, then it will include bibliographic, chemical, 
# crystal, experimental, refinement or atomic coordinate data resulting 
# from the CCDC's data processing and validation procedures.
#
#######################################################################

data_TUQYAH
_chemical_formula_moiety         'C6 H1 Br2 Cl1 S2'
_chemical_name_systematic        4,6-dibromo-2-chlorothieno[3,4-b]thiophene
_symmetry_cell_setting           monoclinic
_symmetry_space_group_name_H-M   'C 2/c'
_symmetry_Int_Tables_number      15
_space_group_name_Hall           '-C 2yn'
loop_
_symmetry_equiv_pos_site_id
_symmetry_equiv_pos_as_xyz
1 x,y,z
2 -x,y,1/2-z
3 1/2+x,1/2+y,z
4 1/2-x,1/2+y,1/2-z
5 -x,-y,-z
6 x,-y,1/2+z
7 1/2-x,1/2-y,-z
8 1/2+x,1/2-y,1/2+z
_cell_length_a                   26.280(5)
_cell_length_b                   3.8865(8)
_cell_length_c                   17.871(4)
_cell_angle_alpha                90
_cell_angle_beta                 102.99(3)
_cell_angle_gamma                90
_cell_volume                     1778.58
_exptl_crystal_colour            white
_exptl_crystal_description       needle
_cell_formula_units_Z            8
loop_
_atom_site_label
_atom_site_type_symbol
_atom_site_fract_x
_atom_site_fract_y
_atom_site_fract_z
Br1 Br 0.255414(15) 1.17990(10) 0.65185(2)
Br2 Br 0.030520(16) 0.87218(12) 0.66743(3)
S1 S 0.14788(4) 1.0995(2) 0.69818(5)
Cl1 Cl 0.10100(4) 0.5033(2) 0.35365(5)
C1 C 0.18534(14) 1.0461(9) 0.6307(2)
C2 C 0.09345(15) 0.9261(10) 0.6369(2)
C3 C 0.15672(15) 0.9021(9) 0.5647(2)
C4 C 0.10406(15) 0.8333(9) 0.5685(2)
C5 C 0.11401(14) 0.6596(9) 0.4460(2)
C6 C 0.0801(4) 0.674(4) 0.4908(6)
H1 H 0.033(4) 0.65(2) 0.483(5)
S2 S 0.17759(8) 0.7930(7) 0.48073(12)
S3? S 0.06205(9) 0.6584(8) 0.49039(13)
C7? C 0.1604(3) 0.789(3) 0.4872(5)
H2? H 0.1906 0.8123 0.4665
loop_
_geom_bond_atom_site_label_1
_geom_bond_atom_site_label_2
_geom_bond_site_symmetry_1
_geom_bond_site_symmetry_2
Br1 C1 1_555 1_555
Br2 C2 1_555 1_555
S1 C1 1_555 1_555
Cl1 C5 1_555 1_555
C1 C3 1_555 1_555
C2 S1 1_555 1_555
C3 C4 1_555 1_555
C4 C2 1_555 1_555
C5 C6 1_555 1_555
C6 C4 1_555 1_555
H1 C6 1_555 1_555
S2 C3 1_555 1_555
C5 S2 1_555 1_555

#END
