
#######################################################################
#
#                 Cambridge Crystallographic Data Centre
#                                CCDC 
#
#######################################################################
#
# If this CIF has been generated from an entry in the Cambridge 
# Structural Database, then it will include bibliographic, chemical, 
# crystal, experimental, refinement or atomic coordinate data resulting 
# from the CCDC's data processing and validation procedures.
#
#######################################################################

data_TURCAL
_chemical_formula_moiety         'C22 H23 N1 O2 S1'
_chemical_name_systematic        
(1S,5R,Z)-4-Methyl-6-((4-methylphenyl)sulfonyl)-8-phenyl-6-azabicyclo[3.2.2]nona-2,8-diene
_symmetry_cell_setting           triclinic
_symmetry_space_group_name_H-M   'P -1'
_symmetry_Int_Tables_number      2
_space_group_name_Hall           '-P 1'
loop_
_symmetry_equiv_pos_site_id
_symmetry_equiv_pos_as_xyz
1 x,y,z
2 -x,-y,-z
_cell_length_a                   9.5596(13)
_cell_length_b                   10.1932(10)
_cell_length_c                   11.0816(17)
_cell_angle_alpha                79.966(8)
_cell_angle_beta                 86.998(6)
_cell_angle_gamma                65.475(8)
_cell_volume                     967.136
_exptl_crystal_colour            'pale yellow'
_exptl_crystal_description       prism
_cell_formula_units_Z            2
loop_
_atom_site_label
_atom_site_type_symbol
_atom_site_fract_x
_atom_site_fract_y
_atom_site_fract_z
S1 S 0.50866(12) 0.94300(10) 0.24197(9)
O1 O 0.5911(4) 0.9262(4) 0.1304(3)
O2 O 0.5885(4) 0.8759(4) 0.3562(3)
N1 N 0.4237(4) 1.1189(4) 0.2445(3)
C1 C 0.3619(6) 0.8849(4) 0.2340(4)
C2 C 0.2913(7) 0.8470(5) 0.3398(6)
H1 H 0.3312 0.8400 0.4166
C3 C 0.1640(8) 0.8202(6) 0.3306(7)
H2 H 0.1188 0.7941 0.4017
C4 C 0.1016(7) 0.8310(6) 0.2195(8)
C5 C 0.1756(7) 0.8641(6) 0.1134(7)
H3 H 0.1369 0.8682 0.0369
C6 C 0.3046(6) 0.8906(5) 0.1207(5)
H4 H 0.3527 0.9123 0.0497
C7 C -0.0416(9) 0.8049(10) 0.2107(11)
H5 H -0.0135 0.7079 0.1940
H6 H -0.1076 0.8750 0.1457
H7 H -0.0947 0.8151 0.2868
C8 C 0.3284(5) 1.2093(4) 0.1345(4)
H8 H 0.3570 1.1508 0.0685
C9 C 0.1625(5) 1.2468(5) 0.1607(4)
H9 H 0.0994 1.2383 0.1042
C10 C 0.1060(5) 1.2924(4) 0.2650(4)
C11 C 0.2191(6) 1.3036(5) 0.3463(4)
H10 H 0.1721 1.3206 0.4261
C12 C 0.3592(6) 1.1569(5) 0.3650(4)
H11 H 0.4368 1.1625 0.4143
H12 H 0.3297 1.0813 0.4082
C13 C 0.3631(6) 1.3454(5) 0.0927(5)
H13 H 0.4743 1.3098 0.0809
C14 C 0.3236(7) 1.4444(5) 0.1866(6)
H14 H 0.3461 1.5259 0.1666
C15 C 0.2609(6) 1.4295(5) 0.2940(6)
H15 H 0.2408 1.5021 0.3413
C16 C 0.2863(10) 1.4288(7) -0.0291(6)
H16 H 0.1767 1.4704 -0.0201
H17 H 0.3135 1.3636 -0.0878
H18 H 0.3196 1.5056 -0.0570
C17 C -0.0554(5) 1.3317(5) 0.3032(4)
C18 C -0.1328(6) 1.4539(5) 0.3568(5)
H19 H -0.0812 1.5088 0.3733
C19 C -0.2867(7) 1.4964(6) 0.3865(6)
H20 H -0.3388 1.5806 0.4205
C20 C -0.3599(7) 1.4130(7) 0.3652(5)
H21 H -0.4624 1.4399 0.3863
C21 C -0.2858(7) 1.2903(8) 0.3131(6)
H22 H -0.3379 1.2350 0.2985
C22 C -0.1314(6) 1.2484(6) 0.2820(5)
H23 H -0.0802 1.1647 0.2472
loop_
_geom_bond_atom_site_label_1
_geom_bond_atom_site_label_2
_geom_bond_site_symmetry_1
_geom_bond_site_symmetry_2
S1 O1 1_555 1_555
O2 S1 1_555 1_555
N1 S1 1_555 1_555
C1 S1 1_555 1_555
C2 C1 1_555 1_555
H1 C2 1_555 1_555
C3 C2 1_555 1_555
H2 C3 1_555 1_555
C4 C3 1_555 1_555
C5 C4 1_555 1_555
H3 C5 1_555 1_555
C6 C1 1_555 1_555
H4 C6 1_555 1_555
C7 C4 1_555 1_555
H5 C7 1_555 1_555
H6 C7 1_555 1_555
H7 C7 1_555 1_555
C8 N1 1_555 1_555
H8 C8 1_555 1_555
C9 C8 1_555 1_555
H9 C9 1_555 1_555
C10 C9 1_555 1_555
C11 C10 1_555 1_555
H10 C11 1_555 1_555
C12 N1 1_555 1_555
H11 C12 1_555 1_555
H12 C12 1_555 1_555
C13 C8 1_555 1_555
H13 C13 1_555 1_555
C14 C13 1_555 1_555
H14 C14 1_555 1_555
C15 C11 1_555 1_555
H15 C15 1_555 1_555
C16 C13 1_555 1_555
H16 C16 1_555 1_555
H17 C16 1_555 1_555
H18 C16 1_555 1_555
C17 C10 1_555 1_555
C18 C17 1_555 1_555
H19 C18 1_555 1_555
C19 C18 1_555 1_555
H20 C19 1_555 1_555
C20 C19 1_555 1_555
H21 C20 1_555 1_555
C21 C20 1_555 1_555
H22 C21 1_555 1_555
C22 C17 1_555 1_555
H23 C22 1_555 1_555
C5 C6 1_555 1_555
C11 C12 1_555 1_555
C14 C15 1_555 1_555
C21 C22 1_555 1_555

#END
