
#######################################################################
#
#                 Cambridge Crystallographic Data Centre
#                                CCDC 
#
#######################################################################
#
# If this CIF has been generated from an entry in the Cambridge 
# Structural Database, then it will include bibliographic, chemical, 
# crystal, experimental, refinement or atomic coordinate data resulting 
# from the CCDC's data processing and validation procedures.
#
#######################################################################

data_TURDER
_chemical_formula_moiety         'C18 H23 N1 O2'
_chemical_name_systematic        N,N-diisopropyl-3-(4-methylphenyl)-2-furamide
_symmetry_cell_setting           orthorhombic
_symmetry_space_group_name_H-M   'P 21 21 21'
_symmetry_Int_Tables_number      19
_space_group_name_Hall           'P 2ac 2ab'
loop_
_symmetry_equiv_pos_site_id
_symmetry_equiv_pos_as_xyz
1 x,y,z
2 1/2-x,-y,1/2+z
3 -x,1/2+y,1/2-z
4 1/2+x,1/2-y,-z
_cell_length_a                   7.4930(12)
_cell_length_b                   12.872(2)
_cell_length_c                   17.207(3)
_cell_angle_alpha                90
_cell_angle_beta                 90
_cell_angle_gamma                90
_cell_volume                     1659.61
_exptl_crystal_colour            colorless
_exptl_crystal_description       block
_cell_formula_units_Z            4
loop_
_atom_site_label
_atom_site_type_symbol
_atom_site_fract_x
_atom_site_fract_y
_atom_site_fract_z
C1 C 0.8187(3) 0.23028(18) 0.56877(11)
H1 H 0.8307 0.1689 0.6001
H2 H 0.7046 0.2616 0.5783
H3 H 0.9116 0.2786 0.5819
C2 C 0.8333(2) 0.20148(15) 0.48400(10)
C3 C 0.8799(3) 0.10326(15) 0.46066(10)
H4 H 0.9034 0.0531 0.4982
C4 C 0.8932(3) 0.07632(14) 0.38256(10)
H5 H 0.9244 0.0088 0.3690
C5 C 0.8602(2) 0.14909(12) 0.32451(9)
C6 C 0.8151(3) 0.24908(13) 0.34845(11)
H6 H 0.7935 0.2999 0.3112
C7 C 0.8019(3) 0.27432(15) 0.42618(11)
H7 H 0.7711 0.3418 0.4401
C8 C 0.8706(2) 0.11851(12) 0.24190(9)
C9 C 0.8253(2) 0.17377(11) 0.17791(9)
O1 O 0.85204(18) 0.11677(9) 0.11147(6)
C10 C 0.9148(3) 0.02238(13) 0.13589(11)
H8 H 0.9447 -0.0322 0.1030
C11 C 0.7661(2) 0.28377(12) 0.16366(9)
C12 C 0.5244(3) 0.40778(13) 0.14101(10)
H9 H 0.3948 0.4022 0.1344
C13 C 0.5543(3) 0.47447(16) 0.21175(13)
H10 H 0.5123 0.4385 0.2571
H11 H 0.4902 0.5386 0.2061
H12 H 0.6794 0.4888 0.2172
C14 C 0.5951(4) 0.45689(16) 0.06766(12)
H13 H 0.7205 0.4700 0.0733
H14 H 0.5338 0.5212 0.0584
H15 H 0.5759 0.4107 0.0246
C15 C 0.4594(3) 0.21544(15) 0.15110(12)
H16 H 0.5231 0.1512 0.1639
C16 C 0.3168(3) 0.2303(2) 0.2126(2)
H17 H 0.3718 0.2341 0.2629
H18 H 0.2355 0.1727 0.2112
H19 H 0.2529 0.2935 0.2025
C17 C 0.3827(5) 0.2018(2) 0.06968(18)
H20 H 0.3257 0.2650 0.0537
H21 H 0.2970 0.1464 0.0700
H22 H 0.4773 0.1853 0.0341
N1 N 0.59152(18) 0.30011(10) 0.15261(7)
O2 O 0.87878(17) 0.35266(9) 0.16410(8)
C18 C 0.9275(2) 0.01908(12) 0.21299(11)
H23 H 0.9659 -0.0371 0.2426
loop_
_geom_bond_atom_site_label_1
_geom_bond_atom_site_label_2
_geom_bond_site_symmetry_1
_geom_bond_site_symmetry_2
C1 H1 1_555 1_555
H2 C1 1_555 1_555
H3 C1 1_555 1_555
C2 C1 1_555 1_555
C3 C2 1_555 1_555
H4 C3 1_555 1_555
C4 C3 1_555 1_555
H5 C4 1_555 1_555
C5 C4 1_555 1_555
C6 C5 1_555 1_555
H6 C6 1_555 1_555
C7 C2 1_555 1_555
H7 C7 1_555 1_555
C8 C5 1_555 1_555
C9 C8 1_555 1_555
O1 C9 1_555 1_555
C10 O1 1_555 1_555
H8 C10 1_555 1_555
C11 C9 1_555 1_555
C12 H9 1_555 1_555
C13 C12 1_555 1_555
H10 C13 1_555 1_555
H11 C13 1_555 1_555
H12 C13 1_555 1_555
C14 C12 1_555 1_555
H13 C14 1_555 1_555
H14 C14 1_555 1_555
H15 C14 1_555 1_555
C15 H16 1_555 1_555
C16 C15 1_555 1_555
H17 C16 1_555 1_555
H18 C16 1_555 1_555
H19 C16 1_555 1_555
C17 C15 1_555 1_555
H20 C17 1_555 1_555
H21 C17 1_555 1_555
H22 C17 1_555 1_555
N1 C11 1_555 1_555
O2 C11 1_555 1_555
C18 C8 1_555 1_555
H23 C18 1_555 1_555
C6 C7 1_555 1_555
C10 C18 1_555 1_555
C12 N1 1_555 1_555
C15 N1 1_555 1_555

#END
