
#######################################################################
#
#                 Cambridge Crystallographic Data Centre
#                                CCDC 
#
#######################################################################
#
# If this CIF has been generated from an entry in the Cambridge 
# Structural Database, then it will include bibliographic, chemical, 
# crystal, experimental, refinement or atomic coordinate data resulting 
# from the CCDC's data processing and validation procedures.
#
#######################################################################

data_TURDAN
_chemical_formula_moiety         'C38 H59 N1 O1'
_chemical_name_systematic        
N-methoxy-28-(4-methylphenyl)lanost-8-en-3-imine
_symmetry_cell_setting           monoclinic
_symmetry_space_group_name_H-M   'P 21'
_symmetry_Int_Tables_number      4
_space_group_name_Hall           'P 2yb'
loop_
_symmetry_equiv_pos_site_id
_symmetry_equiv_pos_as_xyz
1 x,y,z
2 -x,1/2+y,-z
_cell_length_a                   10.928(2)
_cell_length_b                   7.4634(14)
_cell_length_c                   20.727(4)
_cell_angle_alpha                90
_cell_angle_beta                 101.834(3)
_cell_angle_gamma                90
_cell_volume                     1654.56
_exptl_crystal_colour            colorless
_exptl_crystal_description       planar
_cell_formula_units_Z            2
loop_
_atom_site_label
_atom_site_type_symbol
_atom_site_fract_x
_atom_site_fract_y
_atom_site_fract_z
C1 C 1.2932(4) 0.0329(7) 0.8131(2)
H1 H 1.3222 0.0639 0.8586
H2 H 1.3517 0.0754 0.7879
H3 H 1.2857 -0.0949 0.8089
C2 C 1.0753(4) 0.0645(9) 0.8304(2)
H4 H 0.9977 0.1271 0.8161
H5 H 1.1097 0.0945 0.8756
H6 H 1.0607 -0.0623 0.8267
C3 C 1.1666(4) 0.1187(6) 0.78767(18)
H7 H 1.1774 0.2490 0.7910
C4 C 1.1194(4) 0.0720(6) 0.71466(18)
H8 H 1.1857 0.0964 0.6912
H9 H 1.1022 -0.0555 0.7112
C5 C 1.0032(4) 0.1719(6) 0.68081(17)
H10 H 1.0171 0.2996 0.6871
H11 H 0.9340 0.1388 0.7011
C6 C 0.9683(4) 0.1313(6) 0.60671(18)
H12 H 0.9643 0.0023 0.6009
H13 H 1.0348 0.1752 0.5863
C7 C 0.8450(3) 0.2116(5) 0.57031(18)
H14 H 0.7794 0.1753 0.5935
C8 C 0.8515(4) 0.4169(6) 0.57101(19)
H15 H 0.8818 0.4579 0.6153
H16 H 0.7697 0.4652 0.5546
H17 H 0.9072 0.4562 0.5436
C9 C 0.8117(3) 0.1349(5) 0.49967(18)
H18 H 0.8792 0.1688 0.4774
C10 C 0.8032(3) -0.0726(5) 0.49830(18)
H19 H 0.8827 -0.1240 0.4941
H20 H 0.7823 -0.1165 0.5388
C11 C 0.7005(4) -0.1256(5) 0.43867(19)
H21 H 0.7300 -0.2185 0.4129
H22 H 0.6265 -0.1684 0.4529
C12 C 0.6724(3) 0.0472(5) 0.39861(17)
C13 C 0.6866(3) 0.1920(5) 0.45414(17)
C14 C 0.5797(3) 0.1769(6) 0.49208(17)
H23 H 0.5892 0.2682 0.5254
H24 H 0.5823 0.0611 0.5125
H25 H 0.5009 0.1920 0.4620
C15 C 0.7709(4) 0.0647(6) 0.35493(18)
H26 H 0.7574 -0.0275 0.3219
H27 H 0.8531 0.0524 0.3818
H28 H 0.7632 0.1800 0.3340
C16 C 0.5452(4) 0.0646(5) 0.35186(17)
C17 C 0.5008(4) 0.2285(6) 0.33338(18)
C18 C 0.5654(4) 0.3964(5) 0.36428(18)
H29 H 0.5038 0.4681 0.3803
H30 H 0.5917 0.4646 0.3297
C19 C 0.6808(3) 0.3751(6) 0.42185(19)
H31 H 0.7564 0.3940 0.4051
H32 H 0.6776 0.4664 0.4548
C20 C 0.4821(4) -0.1061(5) 0.32480(19)
H33 H 0.4773 -0.1859 0.3611
H34 H 0.5327 -0.1643 0.2976
C21 C 0.3516(4) -0.0768(6) 0.28416(19)
H35 H 0.2932 -0.0587 0.3131
H36 H 0.3251 -0.1814 0.2571
C22 C 0.3521(3) 0.0865(6) 0.24056(17)
H37 H 0.4259 0.0696 0.2212
C23 C 0.3802(3) 0.2578(6) 0.28106(18)
C24 C 0.2740(4) 0.3184(6) 0.3145(2)
H38 H 0.2984 0.4261 0.3391
H39 H 0.2573 0.2260 0.3437
H40 H 0.2001 0.3408 0.2815
C25 C 0.2397(4) 0.0920(5) 0.17924(18)
C26 C 0.2197(4) 0.2790(6) 0.14981(19)
C27 C 0.2933(4) 0.4395(6) 0.17681(19)
H41 H 0.2379 0.5228 0.1925
H42 H 0.3233 0.4978 0.1412
C28 C 0.4051(4) 0.4037(5) 0.23275(19)
H43 H 0.4277 0.5141 0.2570
H44 H 0.4757 0.3675 0.2141
C29 C 0.1172(4) 0.0251(6) 0.1965(2)
H45 H 0.0955 0.1003 0.2300
H46 H 0.1280 -0.0959 0.2124
H47 H 0.0515 0.0290 0.1578
C30 C 0.2717(4) -0.0361(6) 0.12531(18)
H48 H 0.2817 -0.1566 0.1431
H49 H 0.2017 -0.0374 0.0880
C31 C 0.3882(4) 0.0140(6) 0.10112(18)
C32 C 0.3874(4) 0.1450(6) 0.05364(19)
H50 H 0.3119 0.1968 0.0334
C33 C 0.4966(4) 0.2004(7) 0.0358(2)
H51 H 0.4930 0.2903 0.0044
C34 C 0.6107(4) 0.1256(7) 0.0633(2)
C35 C 0.6118(4) -0.0100(7) 0.1084(2)
H52 H 0.6870 -0.0659 0.1267
C36 C 0.5022(4) -0.0653(6) 0.12715(19)
H53 H 0.5058 -0.1573 0.1578
C37 C 0.7282(4) 0.1871(8) 0.0436(2)
H54 H 0.7991 0.1506 0.0765
H55 H 0.7273 0.3153 0.0399
H56 H 0.7334 0.1348 0.0020
C38 C 0.0225(4) 0.4593(7) 0.0139(2)
H57 H 0.0464 0.3772 -0.0170
H58 H 0.0115 0.5767 -0.0053
H59 H -0.0546 0.4202 0.0247
N1 N 0.1305(3) 0.2885(4) 0.09832(16)
O1 O 0.1180(2) 0.4649(4) 0.07253(12)
loop_
_geom_bond_atom_site_label_1
_geom_bond_atom_site_label_2
_geom_bond_site_symmetry_1
_geom_bond_site_symmetry_2
C1 H1 1_555 1_555
H2 C1 1_555 1_555
H3 C1 1_555 1_555
C2 H4 1_555 1_555
H5 C2 1_555 1_555
H6 C2 1_555 1_555
C3 C1 1_555 1_555
H7 C3 1_555 1_555
C4 C3 1_555 1_555
H8 C4 1_555 1_555
H9 C4 1_555 1_555
C5 C4 1_555 1_555
H10 C5 1_555 1_555
H11 C5 1_555 1_555
C6 C5 1_555 1_555
H12 C6 1_555 1_555
H13 C6 1_555 1_555
C7 C6 1_555 1_555
H14 C7 1_555 1_555
C8 C7 1_555 1_555
H15 C8 1_555 1_555
H16 C8 1_555 1_555
H17 C8 1_555 1_555
C9 C7 1_555 1_555
H18 C9 1_555 1_555
C10 C9 1_555 1_555
H19 C10 1_555 1_555
H20 C10 1_555 1_555
C11 C10 1_555 1_555
H21 C11 1_555 1_555
H22 C11 1_555 1_555
C12 C11 1_555 1_555
C13 C9 1_555 1_555
C14 C13 1_555 1_555
H23 C14 1_555 1_555
H24 C14 1_555 1_555
H25 C14 1_555 1_555
C15 C12 1_555 1_555
H26 C15 1_555 1_555
H27 C15 1_555 1_555
H28 C15 1_555 1_555
C16 C12 1_555 1_555
C17 C16 1_555 1_555
C18 C17 1_555 1_555
H29 C18 1_555 1_555
H30 C18 1_555 1_555
C19 C13 1_555 1_555
H31 C19 1_555 1_555
H32 C19 1_555 1_555
C20 C16 1_555 1_555
H33 C20 1_555 1_555
H34 C20 1_555 1_555
C21 C20 1_555 1_555
H35 C21 1_555 1_555
H36 C21 1_555 1_555
C22 C21 1_555 1_555
H37 C22 1_555 1_555
C23 C17 1_555 1_555
C24 C23 1_555 1_555
H38 C24 1_555 1_555
H39 C24 1_555 1_555
H40 C24 1_555 1_555
C25 C22 1_555 1_555
C26 C25 1_555 1_555
C27 C26 1_555 1_555
H41 C27 1_555 1_555
H42 C27 1_555 1_555
C28 C23 1_555 1_555
H43 C28 1_555 1_555
H44 C28 1_555 1_555
C29 C25 1_555 1_555
H45 C29 1_555 1_555
H46 C29 1_555 1_555
H47 C29 1_555 1_555
C30 C25 1_555 1_555
H48 C30 1_555 1_555
H49 C30 1_555 1_555
C31 C30 1_555 1_555
C32 C31 1_555 1_555
H50 C32 1_555 1_555
C33 C32 1_555 1_555
H51 C33 1_555 1_555
C34 C33 1_555 1_555
C35 C34 1_555 1_555
H52 C35 1_555 1_555
C36 C31 1_555 1_555
H53 C36 1_555 1_555
C37 C34 1_555 1_555
H54 C37 1_555 1_555
H55 C37 1_555 1_555
H56 C37 1_555 1_555
C38 H57 1_555 1_555
H58 C38 1_555 1_555
H59 C38 1_555 1_555
N1 C26 1_555 1_555
O1 C38 1_555 1_555
C2 C3 1_555 1_555
C12 C13 1_555 1_555
C18 C19 1_555 1_555
C22 C23 1_555 1_555
C27 C28 1_555 1_555
C35 C36 1_555 1_555
N1 O1 1_555 1_555

#END
