
#######################################################################
#
#                 Cambridge Crystallographic Data Centre
#                                CCDC 
#
#######################################################################
#
# If this CIF has been generated from an entry in the Cambridge 
# Structural Database, then it will include bibliographic, chemical, 
# crystal, experimental, refinement or atomic coordinate data resulting 
# from the CCDC's data processing and validation procedures.
#
#######################################################################

data_TURSIK
_chemical_formula_moiety         'C12 H4 N2 S2'
_chemical_name_systematic        
7H-thieno[3',2':3,4]cyclopenta[1,2-b]thiophen-7-ylidenemalononitrile
_symmetry_cell_setting           orthorhombic
_symmetry_space_group_name_H-M   'P 21 21 21'
_symmetry_Int_Tables_number      19
_space_group_name_Hall           'P 2ac 2ab'
loop_
_symmetry_equiv_pos_site_id
_symmetry_equiv_pos_as_xyz
1 x,y,z
2 1/2-x,-y,1/2+z
3 1/2+x,1/2-y,-z
4 -x,1/2+y,1/2-z
_cell_length_a                   3.8226(10)
_cell_length_b                   8.471(2)
_cell_length_c                   31.554(8)
_cell_angle_alpha                90
_cell_angle_beta                 90
_cell_angle_gamma                90
_cell_volume                     1021.76
_exptl_crystal_colour            brown
_exptl_crystal_description       needle
_chemical_melting_point          '273 deg.C'
_cell_formula_units_Z            4
loop_
_atom_site_label
_atom_site_type_symbol
_atom_site_fract_x
_atom_site_fract_y
_atom_site_fract_z
S1 S 1.2472(2) -0.04967(8) 0.29137(2)
S2 S 0.8357(2) 0.08672(9) 0.46218(2)
C1 C 1.1040(8) 0.1022(4) 0.37400(9)
N1 N 1.5168(8) 0.3442(4) 0.29986(9)
N2 N 1.1641(8) 0.4524(3) 0.43089(8)
C2 C 0.6926(8) -0.2005(4) 0.43845(9)
H1 H 0.6149 -0.3045 0.4387
C3 C 0.8496(8) -0.1253(4) 0.40346(9)
C4 C 0.9382(8) 0.0301(4) 0.41149(9)
C5 C 1.2217(9) 0.2527(4) 0.36942(8)
C6 C 0.6705(8) -0.0982(4) 0.47231(9)
H2 H 0.5747 -0.1266 0.4983
C7 C 1.1073(8) -0.0253(4) 0.34289(9)
C8 C 1.1111(8) -0.2430(4) 0.29223(9)
H3 H 1.1363 -0.3110 0.2693
C9 C 1.3827(9) 0.3050(4) 0.33060(10)
C10 C 0.9609(9) -0.1614(4) 0.35918(10)
C11 C 0.9599(8) -0.2885(4) 0.33043(10)
H4 H 0.8709 -0.3885 0.3361
C12 C 1.1931(9) 0.3656(4) 0.40325(9)
loop_
_geom_bond_atom_site_label_1
_geom_bond_atom_site_label_2
_geom_bond_site_symmetry_1
_geom_bond_site_symmetry_2
S1 C7 1_555 1_555
S2 C4 1_555 1_555
C1 C4 1_555 1_555
N1 C9 1_555 1_555
N2 C12 1_555 1_555
C2 H1 1_555 1_555
C3 C2 1_555 1_555
C4 C3 1_555 1_555
C5 C1 1_555 1_555
C6 S2 1_555 1_555
H2 C6 1_555 1_555
C7 C1 1_555 1_555
C8 S1 1_555 1_555
H3 C8 1_555 1_555
C9 C5 1_555 1_555
C10 C3 1_555 1_555
C11 C8 1_555 1_555
H4 C11 1_555 1_555
C12 C5 1_555 1_555
C2 C6 1_555 1_555
C7 C10 1_555 1_555
C10 C11 1_555 1_555

#END
