
#######################################################################
#
#                 Cambridge Crystallographic Data Centre
#                                CCDC 
#
#######################################################################
#
# If this CIF has been generated from an entry in the Cambridge 
# Structural Database, then it will include bibliographic, chemical, 
# crystal, experimental, refinement or atomic coordinate data resulting 
# from the CCDC's data processing and validation procedures.
#
#######################################################################

data_TURXOV
_chemical_compound_source        'soft coral-derived Lophiostoma sp. fungus'
_chemical_formula_moiety         'C10 H13 Cl1 O4'
_chemical_name_systematic        
(3Z,5S,6E,8S,9S,10R)-8-Chloro-5,9-dihydroxy-10-methyl-5,8,9,10-tetrahydro-2H-oxecin-2-one
_chemical_properties_biological  'antibacterial activity'
_symmetry_cell_setting           monoclinic
_symmetry_space_group_name_H-M   'P 21'
_symmetry_Int_Tables_number      4
_space_group_name_Hall           'P 2yb'
loop_
_symmetry_equiv_pos_site_id
_symmetry_equiv_pos_as_xyz
1 x,y,z
2 -x,1/2+y,-z
_cell_length_a                   10.48124(11)
_cell_length_b                   8.27265(7)
_cell_length_c                   12.90997(13)
_cell_angle_alpha                90
_cell_angle_beta                 91.7155(9)
_cell_angle_gamma                90
_cell_volume                     1118.89
_cell_formula_units_Z            4
loop_
_atom_site_label
_atom_site_type_symbol
_atom_site_fract_x
_atom_site_fract_y
_atom_site_fract_z
Cl1 Cl 0.27322(4) 0.22314(5) 0.15893(3)
O1 O 0.59399(11) 0.39141(15) 0.28661(10)
H1 H 0.6501 0.3327 0.3113
O2 O 0.36968(11) 0.50642(14) 0.38761(9)
O3 O 0.15972(11) 0.45663(15) 0.40171(10)
C1 C 0.39844(17) 0.3341(2) 0.37984(13)
H2 H 0.3186 0.2726 0.3742
C2 C 0.24702(16) 0.5492(2) 0.39143(12)
O4 O 0.13048(11) 0.83585(15) 0.13052(9)
H3 H 0.0645 0.7965 0.1519
C3 C 0.37318(16) 0.5306(2) 0.17607(12)
H4 H 0.4412 0.6029 0.1768
C4 C 0.22792(16) 0.7282(2) 0.38652(13)
H5 H 0.2202 0.7810 0.4496
C5 C 0.47604(16) 0.3064(2) 0.28265(12)
H6 H 0.4954 0.1907 0.2787
C6 C 0.40862(16) 0.3559(2) 0.17926(13)
H7 H 0.4681 0.3360 0.1235
C7 C 0.22068(17) 0.8201(2) 0.30235(14)
H8 H 0.2026 0.9286 0.3140
C8 C 0.25844(16) 0.5964(2) 0.17234(12)
H9 H 0.1880 0.5306 0.1584
C9 C 0.47197(18) 0.2845(3) 0.47711(13)
H10 H 0.5465 0.3512 0.4857
H11 H 0.4973 0.1734 0.4716
H12 H 0.4189 0.2975 0.5359
C10 C 0.23760(15) 0.7740(2) 0.18987(13)
H13 H 0.3137 0.8305 0.1664
Cl2 Cl 0.42720(4) 0.41287(5) 0.86022(3)
O5 O 0.11754(13) 0.90721(16) 0.92937(9)
H14 H 0.1187 0.9792 0.8857
O6 O 0.09369(11) 0.18043(14) 0.82882(9)
H15 H 0.0516 0.2585 0.8469
O7 O 0.11669(10) 0.43765(14) 0.68965(8)
O8 O 0.26783(11) 0.61301(15) 0.64012(9)
C11 C 0.06554(15) 0.7159(2) 0.68332(13)
H16 H 0.0186 0.7468 0.6243
C12 C 0.20829(16) 0.3033(2) 0.69078(13)
H17 H 0.2924 0.3437 0.6721
C13 C 0.21643(15) 0.2331(2) 0.79976(13)
H18 H 0.2725 0.1384 0.7986
C14 C 0.26726(16) 0.3479(2) 0.88635(13)
H19 H 0.2714 0.2858 0.9510
C15 C 0.19795(16) 0.6421(2) 0.88340(12)
H20 H 0.2799 0.6802 0.8722
C16 C 0.03978(16) 0.7928(2) 0.77034(13)
H21 H -0.0147 0.8811 0.7633
C17 C 0.16156(16) 0.5851(2) 0.66972(12)
C18 C 0.08731(16) 0.75590(19) 0.87976(13)
H22 H 0.0173 0.7057 0.9168
C19 C 0.17933(16) 0.4872(2) 0.90249(12)
H23 H 0.1008 0.4612 0.9297
C20 C 0.16198(19) 0.1808(2) 0.61071(14)
H24 H 0.0800 0.1403 0.6293
H25 H 0.2216 0.0929 0.6082
H26 H 0.1550 0.2316 0.5439
loop_
_geom_bond_atom_site_label_1
_geom_bond_atom_site_label_2
_geom_bond_site_symmetry_1
_geom_bond_site_symmetry_2
Cl1 C6 1_555 1_555
O1 H1 1_555 1_555
O2 C1 1_555 1_555
O3 C2 1_555 1_555
C1 H2 1_555 1_555
C2 O2 1_555 1_555
O4 H3 1_555 1_555
C3 H4 1_555 1_555
C4 C2 1_555 1_555
H5 C4 1_555 1_555
C5 O1 1_555 1_555
H6 C5 1_555 1_555
C6 C3 1_555 1_555
H7 C6 1_555 1_555
C7 C4 1_555 1_555
H8 C7 1_555 1_555
C8 C3 1_555 1_555
H9 C8 1_555 1_555
C9 C1 1_555 1_555
H10 C9 1_555 1_555
H11 C9 1_555 1_555
H12 C9 1_555 1_555
C10 O4 1_555 1_555
H13 C10 1_555 1_555
Cl2 C14 1_555 1_555
O5 H14 1_555 1_555
O6 H15 1_555 1_555
O7 C12 1_555 1_555
O8 C17 1_555 1_555
C11 H16 1_555 1_555
C12 H17 1_555 1_555
C13 O6 1_555 1_555
H18 C13 1_555 1_555
C14 C13 1_555 1_555
H19 C14 1_555 1_555
C15 H20 1_555 1_555
C16 C11 1_555 1_555
H21 C16 1_555 1_555
C17 O7 1_555 1_555
C18 O5 1_555 1_555
H22 C18 1_555 1_555
C19 C14 1_555 1_555
H23 C19 1_555 1_555
C20 C12 1_555 1_555
H24 C20 1_555 1_555
H25 C20 1_555 1_555
H26 C20 1_555 1_555
C1 C5 1_555 1_555
C5 C6 1_555 1_555
C7 C10 1_555 1_555
C8 C10 1_555 1_555
C11 C17 1_555 1_555
C12 C13 1_555 1_555
C15 C18 1_555 1_555
C15 C19 1_555 1_555
C16 C18 1_555 1_555

#END
