
#######################################################################
#
#                 Cambridge Crystallographic Data Centre
#                                CCDC 
#
#######################################################################
#
# If this CIF has been generated from an entry in the Cambridge 
# Structural Database, then it will include bibliographic, chemical, 
# crystal, experimental, refinement or atomic coordinate data resulting 
# from the CCDC's data processing and validation procedures.
#
#######################################################################

data_TUSBIU
_chemical_formula_moiety         'C22 H26 F1 N1 O1 S1'
_chemical_name_systematic        
1-(2-(4-Fluorophenyl)-5-(3-methoxyphenyl)pyrrolidin-1-yl)-2,2-dimethylpropane-1-thione
_symmetry_cell_setting           monoclinic
_symmetry_space_group_name_H-M   'P 21/c'
_symmetry_Int_Tables_number      14
_space_group_name_Hall           '-P 2ybc'
loop_
_symmetry_equiv_pos_site_id
_symmetry_equiv_pos_as_xyz
1 x,y,z
2 -x,1/2+y,1/2-z
3 -x,-y,-z
4 x,1/2-y,1/2+z
_cell_length_a                   10.0831(3)
_cell_length_b                   15.9696(6)
_cell_length_c                   12.6575(4)
_cell_angle_alpha                90
_cell_angle_beta                 107.508(2)
_cell_angle_gamma                90
_cell_volume                     1943.73
_exptl_crystal_colour            colorless
_exptl_crystal_description       plate
_cell_formula_units_Z            4
loop_
_atom_site_label
_atom_site_type_symbol
_atom_site_fract_x
_atom_site_fract_y
_atom_site_fract_z
S1 S 0.51597(3) 0.76071(2) 0.00190(2)
F1 F 0.96383(9) 0.56413(6) 0.34340(8)
O1 O 0.00220(9) 0.64381(7) -0.26181(8)
N1 N 0.34827(10) 0.69963(6) 0.10454(8)
C1 C 0.82956(14) 0.57834(9) 0.28276(12)
C2 C 0.74625(16) 0.62455(9) 0.32916(11)
H1 H 0.7820 0.6466 0.4019
C3 C 0.60869(15) 0.63828(8) 0.26736(11)
H2 H 0.5492 0.6692 0.2985
C4 C 0.55754(13) 0.60707(7) 0.16030(10)
C5 C 0.40619(13) 0.61554(7) 0.09307(10)
H3 H 0.3960 0.6046 0.0132
C6 C 0.21773(13) 0.69041(8) 0.13487(10)
H4 H 0.2063 0.7382 0.1825
C7 C 0.09032(13) 0.68218(8) 0.03352(11)
C8 C 0.09968(13) 0.67014(8) -0.07262(11)
H5 H 0.1882 0.6708 -0.0847
C9 C -0.01988(13) 0.65713(8) -0.16179(11)
C10 C -0.11494(15) 0.61703(10) -0.35111(12)
H6 H -0.1563 0.5672 -0.3284
H7 H -0.0845 0.6035 -0.4157
H8 H -0.1842 0.6620 -0.3703
C11 C 0.78317(14) 0.54622(8) 0.17754(12)
H9 H 0.8428 0.5143 0.1476
C12 C 0.64655(13) 0.56186(8) 0.11633(10)
H10 H 0.6128 0.5412 0.0427
C13 C 0.40045(12) 0.76945(8) 0.07210(9)
C14 C 0.35997(13) 0.85633(8) 0.10676(10)
C15 C 0.39835(14) 0.85955(8) 0.23404(11)
H11 H 0.4978 0.8479 0.2663
H12 H 0.3442 0.8175 0.2596
H13 H 0.3774 0.9153 0.2571
C16 C 0.20528(14) 0.87640(8) 0.05067(11)
H14 H 0.1871 0.9350 0.0647
H15 H 0.1476 0.8398 0.0809
H16 H 0.1827 0.8672 -0.0293
C17 C 0.44287(15) 0.92603(8) 0.07206(12)
H17 H 0.4177 0.9802 0.0969
H18 H 0.4213 0.9263 -0.0088
H19 H 0.5426 0.9161 0.1059
C18 C -0.04100(14) 0.68267(8) 0.04960(12)
H20 H -0.0491 0.6910 0.1217
C19 C -0.15872(14) 0.67103(9) -0.03921(13)
H21 H -0.2474 0.6721 -0.0275
C20 C -0.15011(14) 0.65776(8) -0.14553(12)
H22 H -0.2318 0.6493 -0.2059
C21 C 0.24506(14) 0.60869(8) 0.20152(11)
H23 H 0.3088 0.6178 0.2771
H24 H 0.1574 0.5835 0.2066
C22 C 0.31222(14) 0.55438(8) 0.13278(11)
H25 H 0.2408 0.5293 0.0690
H26 H 0.3679 0.5089 0.1783
loop_
_geom_bond_atom_site_label_1
_geom_bond_atom_site_label_2
_geom_bond_site_symmetry_1
_geom_bond_site_symmetry_2
S1 C13 1_555 1_555
F1 C1 1_555 1_555
O1 C9 1_555 1_555
N1 C5 1_555 1_555
C1 C2 1_555 1_555
C2 H1 1_555 1_555
C3 C2 1_555 1_555
H2 C3 1_555 1_555
C4 C3 1_555 1_555
C5 C4 1_555 1_555
H3 C5 1_555 1_555
C6 N1 1_555 1_555
H4 C6 1_555 1_555
C7 C6 1_555 1_555
C8 C7 1_555 1_555
H5 C8 1_555 1_555
C9 C8 1_555 1_555
C10 O1 1_555 1_555
H6 C10 1_555 1_555
H7 C10 1_555 1_555
H8 C10 1_555 1_555
C11 C1 1_555 1_555
H9 C11 1_555 1_555
C12 C4 1_555 1_555
H10 C12 1_555 1_555
C13 N1 1_555 1_555
C14 C13 1_555 1_555
C15 C14 1_555 1_555
H11 C15 1_555 1_555
H12 C15 1_555 1_555
H13 C15 1_555 1_555
C16 C14 1_555 1_555
H14 C16 1_555 1_555
H15 C16 1_555 1_555
H16 C16 1_555 1_555
C17 C14 1_555 1_555
H17 C17 1_555 1_555
H18 C17 1_555 1_555
H19 C17 1_555 1_555
C18 C7 1_555 1_555
H20 C18 1_555 1_555
C19 C18 1_555 1_555
H21 C19 1_555 1_555
C20 C9 1_555 1_555
H22 C20 1_555 1_555
C21 C6 1_555 1_555
H23 C21 1_555 1_555
H24 C21 1_555 1_555
C22 C5 1_555 1_555
H25 C22 1_555 1_555
H26 C22 1_555 1_555
C11 C12 1_555 1_555
C19 C20 1_555 1_555
C21 C22 1_555 1_555

#END
