
#######################################################################
#
#                 Cambridge Crystallographic Data Centre
#                                CCDC 
#
#######################################################################
#
# If this CIF has been generated from an entry in the Cambridge 
# Structural Database, then it will include bibliographic, chemical, 
# crystal, experimental, refinement or atomic coordinate data resulting 
# from the CCDC's data processing and validation procedures.
#
#######################################################################

data_TUTCER
_chemical_formula_moiety         'C29 H23 Cl2 N1'
_chemical_name_systematic        
8-(4-Chlorobenzylidene)-4-(4-chlorophenyl)-6-methyl-2-phenyl-5,6,7,8-tetrahydroquinoline
_symmetry_cell_setting           monoclinic
_symmetry_space_group_name_H-M   'P 21/a'
_symmetry_Int_Tables_number      14
_space_group_name_Hall           '-P 2yab'
loop_
_symmetry_equiv_pos_site_id
_symmetry_equiv_pos_as_xyz
1 x,y,z
2 1/2-x,1/2+y,-z
3 -x,-y,-z
4 1/2+x,1/2-y,z
_cell_length_a                   11.3525(18)
_cell_length_b                   12.706(2)
_cell_length_c                   16.328(3)
_cell_angle_alpha                90
_cell_angle_beta                 97.006(2)
_cell_angle_gamma                90
_cell_volume                     2337.64
_chemical_melting_point          '191 deg.C'
_cell_formula_units_Z            4
loop_
_atom_site_label
_atom_site_type_symbol
_atom_site_fract_x
_atom_site_fract_y
_atom_site_fract_z
C1 C 0.5777(2) 0.18287(18) 0.33487(14)
C2 C 0.5655(2) 0.07399(18) 0.34047(15)
H1 H 0.6232 0.0350 0.3725
C3 C 0.4688(2) 0.02408(18) 0.29893(14)
C4 C 0.3839(2) 0.08391(18) 0.24959(14)
C5 C 0.4031(2) 0.19301(17) 0.24506(14)
C6 C 0.3170(2) 0.26222(18) 0.19411(14)
C7 C 0.2146(2) 0.2084(2) 0.14259(17)
H2 H 0.1454 0.2116 0.1720
H3 H 0.1961 0.2472 0.0915
C8 C 0.2374(3) 0.0952(2) 0.12227(17)
C9 C 0.2768(2) 0.03460(19) 0.20043(16)
H4 H 0.2121 0.0321 0.2341
H5 H 0.2956 -0.0371 0.1863
C10 C 0.1267(3) 0.0459(2) 0.0747(2)
H6 H 0.1059 0.0837 0.0241
H7 H 0.0622 0.0494 0.1075
H8 H 0.1426 -0.0263 0.0626
C11 C 0.6749(2) 0.24074(19) 0.38463(14)
C12 C 0.6601(2) 0.34613(19) 0.40457(16)
H9 H 0.5900 0.3805 0.3849
C13 C 0.7479(3) 0.4002(2) 0.45297(17)
H10 H 0.7362 0.4703 0.4661
C14 C 0.8530(3) 0.3509(3) 0.48210(17)
H11 H 0.9124 0.3878 0.5144
C15 C 0.8692(3) 0.2474(3) 0.46310(17)
H12 H 0.9400 0.2138 0.4825
C16 C 0.7810(2) 0.1926(2) 0.41531(16)
H13 H 0.7929 0.1221 0.4034
C17 C 0.4574(2) -0.09233(18) 0.31027(14)
C18 C 0.5430(2) -0.1600(2) 0.28849(16)
H14 H 0.6057 -0.1334 0.2631
C19 C 0.5372(3) -0.2669(2) 0.30378(17)
H15 H 0.5944 -0.3123 0.2876
C20 C 0.4458(3) -0.30509(19) 0.34313(17)
C21 C 0.3595(3) -0.2403(2) 0.36562(18)
H16 H 0.2983 -0.2671 0.3924
C22 C 0.3646(2) -0.13446(19) 0.34807(17)
H17 H 0.3048 -0.0902 0.3618
C23 C 0.3325(2) 0.36677(18) 0.19773(15)
H18 H 0.4006 0.3884 0.2309
C24 C 0.2603(2) 0.45321(18) 0.15834(15)
C25 C 0.3146(3) 0.5503(2) 0.15107(18)
H19 H 0.3948 0.5572 0.1702
C26 C 0.2540(3) 0.6369(2) 0.1165(2)
H20 H 0.2926 0.7008 0.1122
C27 C 0.1352(3) 0.6266(2) 0.08838(17)
C28 C 0.0777(3) 0.5337(2) 0.09680(17)
H21 H -0.0031 0.5283 0.0792
C29 C 0.1391(2) 0.4478(2) 0.13136(16)
H22 H 0.0988 0.3849 0.1368
N1 N 0.49791(17) 0.24083(14) 0.28747(12)
Cl1 Cl 0.44289(9) -0.43840(5) 0.36759(6)
Cl2 Cl 0.05732(10) 0.73486(7) 0.04398(7)
loop_
_geom_bond_atom_site_label_1
_geom_bond_atom_site_label_2
_geom_bond_site_symmetry_1
_geom_bond_site_symmetry_2
C1 C2 1_555 1_555
C2 H1 1_555 1_555
C3 C2 1_555 1_555
C4 C3 1_555 1_555
C5 C4 1_555 1_555
C6 C5 1_555 1_555
C7 C6 1_555 1_555
H2 C7 1_555 1_555
H3 C7 1_555 1_555
C8 C7 1_555 1_555
C9 C4 1_555 1_555
H4 C9 1_555 1_555
H5 C9 1_555 1_555
C10 C8 1_555 1_555
H6 C10 1_555 1_555
H7 C10 1_555 1_555
H8 C10 1_555 1_555
C11 C1 1_555 1_555
C12 C11 1_555 1_555
H9 C12 1_555 1_555
C13 C12 1_555 1_555
H10 C13 1_555 1_555
C14 C13 1_555 1_555
H11 C14 1_555 1_555
C15 C14 1_555 1_555
H12 C15 1_555 1_555
C16 C11 1_555 1_555
H13 C16 1_555 1_555
C17 C3 1_555 1_555
C18 C17 1_555 1_555
H14 C18 1_555 1_555
C19 C18 1_555 1_555
H15 C19 1_555 1_555
C20 C19 1_555 1_555
C21 C20 1_555 1_555
H16 C21 1_555 1_555
C22 C17 1_555 1_555
H17 C22 1_555 1_555
C23 C6 1_555 1_555
H18 C23 1_555 1_555
C24 C23 1_555 1_555
C25 C24 1_555 1_555
H19 C25 1_555 1_555
C26 C25 1_555 1_555
H20 C26 1_555 1_555
C27 C26 1_555 1_555
C28 C27 1_555 1_555
H21 C28 1_555 1_555
C29 C24 1_555 1_555
H22 C29 1_555 1_555
N1 C1 1_555 1_555
Cl1 C20 1_555 1_555
Cl2 C27 1_555 1_555
C5 N1 1_555 1_555
C8 C9 1_555 1_555
C15 C16 1_555 1_555
C21 C22 1_555 1_555
C28 C29 1_555 1_555

#END
