
#######################################################################
#
#                 Cambridge Crystallographic Data Centre
#                                CCDC 
#
#######################################################################
#
# If this CIF has been generated from an entry in the Cambridge 
# Structural Database, then it will include bibliographic, chemical, 
# crystal, experimental, refinement or atomic coordinate data resulting 
# from the CCDC's data processing and validation procedures.
#
#######################################################################

data_TUTFOF
_chemical_formula_moiety         'C20 H28 O5'
_chemical_name_systematic        6,7,15-trihydroxy-7,20-epoxykaur-2-en-1-one
_symmetry_cell_setting           orthorhombic
_symmetry_space_group_name_H-M   'P 21 21 21'
_symmetry_Int_Tables_number      19
_space_group_name_Hall           'P 2ac 2ab'
loop_
_symmetry_equiv_pos_site_id
_symmetry_equiv_pos_as_xyz
1 x,y,z
2 1/2+x,1/2-y,-z
3 -x,1/2+y,1/2-z
4 1/2-x,-y,1/2+z
_cell_length_a                   5.90940(10)
_cell_length_b                   11.3015(2)
_cell_length_c                   25.5068(5)
_cell_angle_alpha                90
_cell_angle_beta                 90
_cell_angle_gamma                90
_cell_volume                     1703.47
_exptl_crystal_colour            colorless
_exptl_crystal_description       prism
_cell_formula_units_Z            4
loop_
_atom_site_label
_atom_site_type_symbol
_atom_site_fract_x
_atom_site_fract_y
_atom_site_fract_z
O1 O 0.7292(3) 0.22922(15) 0.74028(6)
O2 O 1.3330(3) 0.20755(13) 0.93830(5)
H1 H 1.4298 0.2594 0.9310
O3 O 1.2824(3) 0.17291(14) 0.85159(5)
O4 O 0.9163(3) 0.11219(13) 0.96412(5)
H2 H 0.8469 0.1768 0.9668
O5 O 0.7177(3) 0.34048(13) 0.95134(5)
H3 H 0.6822 0.3515 0.9829
C1 C 0.6490(4) -0.0460(2) 0.80388(8)
H4 H 0.5711 -0.1175 0.7962
C2 C 0.7836(4) -0.04114(19) 0.85391(8)
C3 C 0.8313(4) 0.08983(18) 0.86914(7)
H5 H 0.6871 0.1194 0.8850
C4 C 1.0106(4) 0.10232(18) 0.91276(7)
H6 H 1.1043 0.0287 0.9122
C5 C 1.1678(4) 0.20522(17) 0.89933(7)
C6 C 1.0447(4) 0.32392(18) 0.89133(7)
C7 C 0.9467(4) 0.37709(18) 0.94313(8)
H7 H 1.0403 0.3480 0.9731
C8 C 0.9800(4) 0.51412(18) 0.93827(9)
H8 H 1.1129 0.5343 0.9608
C9 C 0.7841(5) 0.5885(2) 0.95842(9)
H9 H 0.8181 0.6725 0.9532
H10 H 0.7618 0.5730 0.9959
H11 H 0.6460 0.5678 0.9392
C10 C 0.9963(4) -0.1194(2) 0.84552(10)
H12 H 0.9516 -0.1944 0.8293
H13 H 1.0684 -0.1350 0.8794
H14 H 1.1032 -0.0781 0.8225
C11 C 0.6310(4) 0.0418(2) 0.76984(8)
H15 H 0.5399 0.0292 0.7397
C12 C 0.7417(4) 0.15715(19) 0.77539(8)
C13 C 0.8880(4) 0.17887(18) 0.82435(8)
C14 C 0.8559(4) 0.30494(18) 0.84843(7)
H16 H 0.7072 0.3046 0.8671
C15 C 0.8517(4) 0.41045(19) 0.81033(8)
H17 H 0.9817 0.4046 0.7860
H18 H 0.7110 0.4078 0.7893
C16 C 0.8637(4) 0.52842(19) 0.84014(8)
H19 H 0.7179 0.5419 0.8583
H20 H 0.8853 0.5935 0.8146
C17 C 1.0582(4) 0.53224(19) 0.88106(9)
H21 H 1.1488 0.6065 0.8775
C18 C 1.2083(4) 0.42250(19) 0.87403(8)
H22 H 1.3439 0.4259 0.8968
H23 H 1.2559 0.4124 0.8371
C19 C 1.1347(4) 0.1678(2) 0.80666(7)
H24 H 1.1566 0.0918 0.7880
H25 H 1.1720 0.2328 0.7821
C20 C 0.6423(4) -0.09744(19) 0.89791(9)
H26 H 0.5005 -0.0535 0.9020
H27 H 0.7278 -0.0949 0.9308
H28 H 0.6086 -0.1799 0.8889
loop_
_geom_bond_atom_site_label_1
_geom_bond_atom_site_label_2
_geom_bond_site_symmetry_1
_geom_bond_site_symmetry_2
O1 C12 1_555 1_555
O2 H1 1_555 1_555
O3 C5 1_555 1_555
O4 H2 1_555 1_555
O5 H3 1_555 1_555
C1 H4 1_555 1_555
C2 C1 1_555 1_555
C3 C2 1_555 1_555
H5 C3 1_555 1_555
C4 O4 1_555 1_555
H6 C4 1_555 1_555
C5 O2 1_555 1_555
C6 C5 1_555 1_555
C7 O5 1_555 1_555
H7 C7 1_555 1_555
C8 C7 1_555 1_555
H8 C8 1_555 1_555
C9 C8 1_555 1_555
H9 C9 1_555 1_555
H10 C9 1_555 1_555
H11 C9 1_555 1_555
C10 C2 1_555 1_555
H12 C10 1_555 1_555
H13 C10 1_555 1_555
H14 C10 1_555 1_555
C11 C1 1_555 1_555
H15 C11 1_555 1_555
C12 C11 1_555 1_555
C13 C3 1_555 1_555
C14 C6 1_555 1_555
H16 C14 1_555 1_555
C15 C14 1_555 1_555
H17 C15 1_555 1_555
H18 C15 1_555 1_555
C16 C15 1_555 1_555
H19 C16 1_555 1_555
H20 C16 1_555 1_555
C17 C8 1_555 1_555
H21 C17 1_555 1_555
C18 C6 1_555 1_555
H22 C18 1_555 1_555
H23 C18 1_555 1_555
C19 O3 1_555 1_555
H24 C19 1_555 1_555
H25 C19 1_555 1_555
C20 C2 1_555 1_555
H26 C20 1_555 1_555
H27 C20 1_555 1_555
H28 C20 1_555 1_555
C3 C4 1_555 1_555
C4 C5 1_555 1_555
C6 C7 1_555 1_555
C12 C13 1_555 1_555
C13 C14 1_555 1_555
C13 C19 1_555 1_555
C16 C17 1_555 1_555
C17 C18 1_555 1_555

#END
