
#######################################################################
#
#                 Cambridge Crystallographic Data Centre
#                                CCDC 
#
#######################################################################
#
# If this CIF has been generated from an entry in the Cambridge 
# Structural Database, then it will include bibliographic, chemical, 
# crystal, experimental, refinement or atomic coordinate data resulting 
# from the CCDC's data processing and validation procedures.
#
#######################################################################

data_TUTFIY
_chemical_name_common            
'Guanidinium 3,5-dicarboxy-1,3,5-trimethylcyclohexanecarboxylate'
_chemical_formula_moiety         'C12 H17 O6 1-,C1 H6 N3 1+'
_chemical_name_systematic        
'Diaminomethaniminium 3,5-dicarboxy-1,3,5-trimethylcyclohexanecarboxylate'
_symmetry_cell_setting           monoclinic
_symmetry_space_group_name_H-M   'P 21/n'
_symmetry_Int_Tables_number      14
_space_group_name_Hall           '-P 2yn'
loop_
_symmetry_equiv_pos_site_id
_symmetry_equiv_pos_as_xyz
1 x,y,z
2 1/2-x,1/2+y,1/2-z
3 -x,-y,-z
4 1/2+x,1/2-y,1/2+z
_cell_length_a                   12.720(7)
_cell_length_b                   10.051(5)
_cell_length_c                   13.118(7)
_cell_angle_alpha                90
_cell_angle_beta                 114.182(7)
_cell_angle_gamma                90
_cell_volume                     1529.95
_exptl_crystal_colour            colorless
_exptl_crystal_description       block
_cell_formula_units_Z            4
loop_
_atom_site_label
_atom_site_type_symbol
_atom_site_fract_x
_atom_site_fract_y
_atom_site_fract_z
C1 C 0.87127(13) 0.76245(16) 0.57206(13)
C2 C 0.88764(12) 0.62021(15) 0.53813(13)
H1 H 0.8811 0.6225 0.4618
H2 H 0.9654 0.5919 0.5852
C3 C 0.80387(12) 0.51528(15) 0.54540(12)
C4 C 0.80956(13) 0.51409(15) 0.66477(12)
H3 H 0.8851 0.4823 0.7150
H4 H 0.7533 0.4506 0.6674
C5 C 0.78772(12) 0.64849(15) 0.70909(12)
C6 C 0.85644(13) 0.76056(16) 0.68352(13)
H5 H 0.9331 0.7605 0.7435
H6 H 0.8207 0.8441 0.6885
C7 C 0.77660(15) 0.83553(16) 0.47451(14)
C8 C 0.98261(16) 0.8421(2) 0.59393(17)
H7 H 1.0462 0.8022 0.6547
H8 H 0.9731 0.9322 0.6128
H9 H 0.9977 0.8412 0.5279
C9 C 0.68264(12) 0.53295(16) 0.45490(12)
C10 C 0.84142(15) 0.37713(17) 0.52018(15)
H10 H 0.8370 0.3762 0.4453
H11 H 0.7913 0.3100 0.5276
H12 H 0.9192 0.3595 0.5720
C11 C 0.65714(13) 0.67110(16) 0.66706(12)
C12 C 0.83302(15) 0.63833(18) 0.83747(13)
H13 H 0.7912 0.5704 0.8566
H14 H 0.8225 0.7221 0.8672
H15 H 0.9135 0.6162 0.8684
O1 O 0.79132(12) 0.85937(13) 0.38861(11)
O2 O 0.68691(11) 0.87938(13) 0.48560(11)
O3 O 0.66048(10) 0.59078(14) 0.36828(10)
O4 O 0.60396(10) 0.46896(14) 0.47775(10)
H16 H 0.5410 0.4490 0.4233
O5 O 0.60882(10) 0.76920(13) 0.60239(10)
H17 H 0.6364 0.8080 0.5612
O6 O 0.59979(10) 0.59568(13) 0.69871(10)
C13 C 0.37130(13) 0.82477(16) 0.70336(12)
N1 N 0.29199(13) 0.89051(16) 0.72431(13)
H18 H 0.2653 0.9645 0.6908
H19 H 0.2673 0.8592 0.7714
N2 N 0.41297(13) 0.71136(15) 0.75513(12)
H20 H 0.4647 0.6691 0.7417
H21 H 0.3884 0.6798 0.8023
N3 N 0.40859(13) 0.87398(15) 0.63080(12)
H22 H 0.4603 0.8322 0.6170
H23 H 0.3811 0.9478 0.5974
loop_
_geom_bond_atom_site_label_1
_geom_bond_atom_site_label_2
_geom_bond_site_symmetry_1
_geom_bond_site_symmetry_2
C1 C2 1_555 1_555
C2 H1 1_555 1_555
H2 C2 1_555 1_555
C3 C2 1_555 1_555
C4 C3 1_555 1_555
H3 C4 1_555 1_555
H4 C4 1_555 1_555
C5 C4 1_555 1_555
C6 C1 1_555 1_555
H5 C6 1_555 1_555
H6 C6 1_555 1_555
C7 C1 1_555 1_555
C8 C1 1_555 1_555
H7 C8 1_555 1_555
H8 C8 1_555 1_555
H9 C8 1_555 1_555
C9 C3 1_555 1_555
C10 C3 1_555 1_555
H10 C10 1_555 1_555
H11 C10 1_555 1_555
H12 C10 1_555 1_555
C11 C5 1_555 1_555
C12 C5 1_555 1_555
H13 C12 1_555 1_555
H14 C12 1_555 1_555
H15 C12 1_555 1_555
O1 C7 1_555 1_555
O2 C7 1_555 1_555
O3 C9 1_555 1_555
O4 C9 1_555 1_555
H16 O4 1_555 1_555
O5 C11 1_555 1_555
H17 O5 1_555 1_555
O6 C11 1_555 1_555
C13 N1 1_555 1_555
N1 H18 1_555 1_555
H19 N1 1_555 1_555
N2 C13 1_555 1_555
H20 N2 1_555 1_555
H21 N2 1_555 1_555
N3 C13 1_555 1_555
H22 N3 1_555 1_555
H23 N3 1_555 1_555
C5 C6 1_555 1_555

#END
