
#######################################################################
#
#                 Cambridge Crystallographic Data Centre
#                                CCDC 
#
#######################################################################
#
# If this CIF has been generated from an entry in the Cambridge 
# Structural Database, then it will include bibliographic, chemical, 
# crystal, experimental, refinement or atomic coordinate data resulting 
# from the CCDC's data processing and validation procedures.
#
#######################################################################

data_TUTGAR
_chemical_name_common            
'bis(Diaminomethaniminium) N,N,N-trimethylmethanaminium 1,3,5-trimethylcyclohexane-1,3,5-tricarboxylate dihydrate'
_chemical_formula_moiety         
'C12 H15 O6 3-,C4 H12 N1 1+,2(C1 H6 N3 1+),2(H2 O1)'
_chemical_name_systematic        
'bis(Guanidinium) tetramethylammonium 1,3,5-trimethylcyclohexane-1,3,5-tricarboxylate dihydrate'
_symmetry_cell_setting           orthorhombic
_symmetry_space_group_name_H-M   'P b c n'
_symmetry_Int_Tables_number      60
_space_group_name_Hall           '-P 2n 2ab'
loop_
_symmetry_equiv_pos_site_id
_symmetry_equiv_pos_as_xyz
1 x,y,z
2 1/2-x,1/2-y,1/2+z
3 -x,y,1/2-z
4 1/2+x,1/2-y,-z
5 -x,-y,-z
6 1/2+x,1/2+y,1/2-z
7 x,-y,1/2+z
8 1/2-x,1/2+y,z
_cell_length_a                   27.246(4)
_cell_length_b                   11.8332(15)
_cell_length_c                   16.125(4)
_cell_angle_alpha                90
_cell_angle_beta                 90
_cell_angle_gamma                90
_cell_volume                     5198.82
_exptl_crystal_colour            colorless
_exptl_crystal_description       block
_cell_formula_units_Z            8
loop_
_atom_site_label
_atom_site_type_symbol
_atom_site_fract_x
_atom_site_fract_y
_atom_site_fract_z
O1 O 0.68927(5) 0.42819(12) 0.30789(10)
C1 C 0.60567(7) 0.54489(14) 0.23918(12)
H1 H 0.6355 0.5777 0.2613
H2 H 0.5783 0.5798 0.2678
O2 O 0.66605(5) 0.27204(11) 0.24494(9)
C2 C 0.60559(6) 0.41743(14) 0.25920(11)
O3 O 0.67212(4) 0.27723(10) 0.05553(7)
C3 C 0.57661(5) 0.35232(13) 0.19334(10)
H3 H 0.5428 0.3782 0.1944
H4 H 0.5766 0.2729 0.2081
O4 O 0.61060(4) 0.16596(9) 0.09134(8)
C4 C 0.59625(6) 0.36413(12) 0.10419(10)
O5 O 0.67921(4) 0.67204(11) 0.13441(12)
C5 C 0.62359(6) 0.47704(12) 0.09490(10)
H5 H 0.6233 0.4985 0.0368
H6 H 0.6575 0.4660 0.1111
O6 O 0.61321(5) 0.77125(11) 0.11819(16)
C6 C 0.60220(6) 0.57510(13) 0.14621(11)
C7 C 0.65789(6) 0.36953(15) 0.26985(10)
C8 C 0.58116(9) 0.39930(19) 0.34453(13)
H7 H 0.5811 0.3202 0.3577
H8 H 0.5480 0.4266 0.3428
H9 H 0.5992 0.4398 0.3862
C9 C 0.62961(6) 0.26216(13) 0.08337(10)
C10 C 0.55431(7) 0.35630(15) 0.03971(13)
H10 H 0.5676 0.3642 -0.0151
H11 H 0.5310 0.4155 0.0497
H12 H 0.5383 0.2843 0.0446
C11 C 0.63407(6) 0.68032(13) 0.13031(13)
C12 C 0.54905(6) 0.60423(15) 0.12351(16)
H13 H 0.5472 0.6227 0.0656
H14 H 0.5384 0.6677 0.1558
H15 H 0.5283 0.5405 0.1349
N1 N 0.38680(7) 0.96285(16) 0.16970(10)
C15 C 0.37965(18) 1.0667(4) 0.1169(3)
H28 H 0.3592 1.0485 0.0704
H29 H 0.4109 1.0930 0.0975
H30 H 0.3643 1.1249 0.1493
C16 C 0.33854(12) 0.9267(4) 0.2027(2)
H31 H 0.3428 0.8610 0.2368
H32 H 0.3170 0.9091 0.1574
H33 H 0.3246 0.9867 0.2352
C17 C 0.4077(2) 0.8762(4) 0.1189(3)
H34 H 0.4127 0.8093 0.1515
H35 H 0.4386 0.9016 0.0972
H36 H 0.3859 0.8595 0.0739
C18 C 0.41773(12) 0.9976(3) 0.23904(18)
H37 H 0.4234 0.9341 0.2748
H38 H 0.4016 1.0565 0.2696
H39 H 0.4485 1.0251 0.2183
C13 C 0.79003(6) 0.47216(13) 0.09603(10)
N2 N 0.76579(5) 0.37797(12) 0.11205(11)
H16 H 0.7812 0.3147 0.1146
H17 H 0.7346 0.3800 0.1199
N3 N 0.76775(6) 0.57146(13) 0.09150(11)
H18 H 0.7845 0.6314 0.0810
H19 H 0.7366 0.5760 0.0991
N4 N 0.83755(5) 0.46778(12) 0.08417(10)
H20 H 0.8526 0.4040 0.0869
H21 H 0.8537 0.5286 0.0737
C14 C 0.73603(6) 0.68266(16) 0.36987(11)
N5 N 0.74922(6) 0.66144(17) 0.29314(10)
H22 H 0.7365 0.6053 0.2670
H23 H 0.7706 0.7036 0.2691
N6 N 0.70342(7) 0.61884(15) 0.40735(11)
H24 H 0.6905 0.5626 0.3816
H25 H 0.6950 0.6333 0.4576
N7 N 0.75601(7) 0.77000(15) 0.40812(11)
H26 H 0.7771 0.8115 0.3827
H27 H 0.7479 0.7854 0.4584
O7 O 0.51695(6) 0.08309(14) 0.10478(11)
H40 H 0.5025 0.0981 0.0589
H41 H 0.5465 0.1105 0.1004
O8 O 0.46757(8) 0.12980(15) -0.04217(16)
H42 H 0.4435 0.1584 -0.0664
H43 H 0.4728 0.0610 -0.0736
loop_
_geom_bond_atom_site_label_1
_geom_bond_atom_site_label_2
_geom_bond_site_symmetry_1
_geom_bond_site_symmetry_2
O1 C7 1_555 1_555
C1 H1 1_555 1_555
H2 C1 1_555 1_555
O2 C7 1_555 1_555
C2 C1 1_555 1_555
O3 C9 1_555 1_555
C3 C2 1_555 1_555
H3 C3 1_555 1_555
H4 C3 1_555 1_555
O4 C9 1_555 1_555
C4 C3 1_555 1_555
O5 C11 1_555 1_555
C5 C4 1_555 1_555
H5 C5 1_555 1_555
H6 C5 1_555 1_555
O6 C11 1_555 1_555
C6 C1 1_555 1_555
C7 C2 1_555 1_555
N1 C15 1_555 1_555
C8 C2 1_555 1_555
H7 C8 1_555 1_555
H8 C8 1_555 1_555
H9 C8 1_555 1_555
C9 C4 1_555 1_555
C10 C4 1_555 1_555
H10 C10 1_555 1_555
H11 C10 1_555 1_555
H12 C10 1_555 1_555
C11 C6 1_555 1_555
C12 C6 1_555 1_555
H13 C12 1_555 1_555
H14 C12 1_555 1_555
H15 C12 1_555 1_555
C13 N2 1_555 1_555
N2 H16 1_555 1_555
H17 N2 1_555 1_555
N3 C13 1_555 1_555
H18 N3 1_555 1_555
H19 N3 1_555 1_555
N4 C13 1_555 1_555
H20 N4 1_555 1_555
H21 N4 1_555 1_555
C14 N5 1_555 1_555
N5 H22 1_555 1_555
H23 N5 1_555 1_555
N6 C14 1_555 1_555
H24 N6 1_555 1_555
H25 N6 1_555 1_555
N7 C14 1_555 1_555
H26 N7 1_555 1_555
H27 N7 1_555 1_555
C15 H28 1_555 1_555
H29 C15 1_555 1_555
H30 C15 1_555 1_555
C16 N1 1_555 1_555
H31 C16 1_555 1_555
H32 C16 1_555 1_555
H33 C16 1_555 1_555
C17 N1 1_555 1_555
H34 C17 1_555 1_555
H35 C17 1_555 1_555
H36 C17 1_555 1_555
C18 N1 1_555 1_555
H37 C18 1_555 1_555
H38 C18 1_555 1_555
H39 C18 1_555 1_555
O7 H40 1_555 1_555
H41 O7 1_555 1_555
O8 H42 1_555 1_555
H43 O8 1_555 1_555
C5 C6 1_555 1_555

#END
