
#######################################################################
#
#                 Cambridge Crystallographic Data Centre
#                                CCDC 
#
#######################################################################
#
# If this CIF has been generated from an entry in the Cambridge 
# Structural Database, then it will include bibliographic, chemical, 
# crystal, experimental, refinement or atomic coordinate data resulting 
# from the CCDC's data processing and validation procedures.
#
#######################################################################

data_TUTKIE
_chemical_formula_moiety         'C18 H22 N4'
_chemical_name_systematic        
N,N'-butane-1,4-diylbis(1-(pyridin-2-yl)ethanimine)
_symmetry_cell_setting           orthorhombic
_symmetry_space_group_name_H-M   'P b c a'
_symmetry_Int_Tables_number      61
_space_group_name_Hall           '-P 2ac 2ab'
loop_
_symmetry_equiv_pos_site_id
_symmetry_equiv_pos_as_xyz
1 x,y,z
2 1/2-x,-y,1/2+z
3 -x,1/2+y,1/2-z
4 1/2+x,1/2-y,-z
5 -x,-y,-z
6 1/2+x,y,1/2-z
7 x,1/2-y,1/2+z
8 1/2-x,1/2+y,z
_cell_length_a                   12.304(2)
_cell_length_b                   22.631(4)
_cell_length_c                   24.176(4)
_cell_angle_alpha                90
_cell_angle_beta                 90
_cell_angle_gamma                90
_cell_volume                     6731.85
_exptl_crystal_colour            yellow
_exptl_crystal_description       platy-prism
_cell_formula_units_Z            16
loop_
_atom_site_label
_atom_site_type_symbol
_atom_site_fract_x
_atom_site_fract_y
_atom_site_fract_z
N1 N 0.14341(17) 0.55220(9) 0.36747(9)
N2 N 0.13541(17) 0.33419(9) 0.52368(9)
N3 N 0.21297(18) 0.65951(10) 0.26754(9)
N4 N 0.08360(19) 0.21734(11) 0.61684(10)
C1 C 0.1935(2) 0.50621(12) 0.40156(11)
H1 H 0.2408 0.5246 0.4287
H2 H 0.2378 0.4810 0.3783
C2 C 0.1102(2) 0.46918(11) 0.43087(11)
H3 H 0.0605 0.4527 0.4039
H4 H 0.0686 0.4941 0.4557
C3 C 0.1614(2) 0.41961(11) 0.46349(11)
H5 H 0.2058 0.3960 0.4388
H6 H 0.2089 0.4365 0.4913
C4 C 0.0805(2) 0.37987(12) 0.49153(12)
H7 H 0.0345 0.4032 0.5158
H8 H 0.0344 0.3615 0.4639
C5 C 0.14812(19) 0.62511(11) 0.29733(10)
C6 C 0.0375(2) 0.63152(14) 0.29581(14)
H9 H -0.0067 0.6063 0.3162
C7 C -0.0078(2) 0.67538(14) 0.26409(14)
H10 H -0.0829 0.6802 0.2630
C8 C 0.0572(3) 0.71129(13) 0.23454(12)
H11 H 0.0285 0.7415 0.2129
C9 C 0.1664(3) 0.70192(14) 0.23739(13)
H12 H 0.2115 0.7267 0.2170
C10 C 0.20181(19) 0.57851(11) 0.33172(10)
C11 C 0.3200(2) 0.56662(14) 0.32080(13)
H13 H 0.3595 0.5679 0.3550
H14 H 0.3480 0.5961 0.2960
H15 H 0.3279 0.5282 0.3044
C12 C 0.1421(2) 0.25437(11) 0.58591(10)
C13 C 0.2543(2) 0.25088(12) 0.58312(11)
H16 H 0.2932 0.2777 0.5617
C14 C 0.3074(2) 0.20764(13) 0.61217(12)
H17 H 0.3827 0.2043 0.6102
C15 C 0.2481(3) 0.16934(13) 0.64413(13)
H18 H 0.2820 0.1397 0.6644
C16 C 0.1382(3) 0.17587(14) 0.64529(14)
H19 H 0.0983 0.1500 0.6672
C17 C 0.0806(2) 0.30000(12) 0.55404(11)
C18 C -0.0408(2) 0.30094(16) 0.55944(15)
H20 H -0.0731 0.3006 0.5233
H21 H -0.0627 0.3361 0.5787
H22 H -0.0643 0.2668 0.5797
N5 N 0.63075(16) 0.20257(9) 0.64434(9)
N6 N 0.64229(17) 0.41635(10) 0.48258(9)
N7 N 0.69997(16) 0.08256(10) 0.73195(9)
N8 N 0.60156(17) 0.53723(10) 0.39429(9)
C19 C 0.6826(2) 0.24792(12) 0.61022(12)
H23 H 0.7270 0.2289 0.5823
H24 H 0.7302 0.2716 0.6333
C20 C 0.6018(2) 0.28766(11) 0.58235(11)
H25 H 0.5584 0.3075 0.6102
H26 H 0.5534 0.2641 0.5597
C21 C 0.6579(2) 0.33353(11) 0.54635(11)
H27 H 0.7034 0.3581 0.5697
H28 H 0.7051 0.3133 0.5204
C22 C 0.5820(2) 0.37233(12) 0.51478(11)
H29 H 0.5382 0.3484 0.4901
H30 H 0.5334 0.3923 0.5403
C23 C 0.63636(18) 0.11894(10) 0.70339(9)
C24 C 0.52410(19) 0.11370(12) 0.70386(11)
H31 H 0.4812 0.1399 0.6838
C25 C 0.4774(2) 0.06957(13) 0.73423(12)
H32 H 0.4022 0.0654 0.7350
C26 C 0.5420(2) 0.03152(13) 0.76357(11)
H33 H 0.5122 0.0009 0.7842
C27 C 0.6518(2) 0.04019(12) 0.76147(12)
H34 H 0.6958 0.0149 0.7819
C28 C 0.69125(19) 0.16601(11) 0.66994(10)
C29 C 0.8137(2) 0.16544(13) 0.66873(13)
H35 H 0.8386 0.1824 0.6346
H36 H 0.8392 0.1255 0.6715
H37 H 0.8412 0.1881 0.6993
C30 C 0.65723(19) 0.49285(11) 0.41695(10)
C31 C 0.7694(2) 0.48839(12) 0.41224(11)
H38 H 0.8062 0.4568 0.4281
C32 C 0.8255(2) 0.53135(13) 0.38380(11)
H39 H 0.9005 0.5290 0.3799
C33 C 0.7691(2) 0.57762(13) 0.36126(12)
H40 H 0.8050 0.6075 0.3422
C34 C 0.6586(2) 0.57874(13) 0.36741(13)
H41 H 0.6207 0.6102 0.3520
C35 C 0.5921(2) 0.44795(11) 0.44799(10)
C36 C 0.4725(2) 0.44494(14) 0.43571(13)
H42 H 0.4323 0.4483 0.4696
H43 H 0.4560 0.4079 0.4183
H44 H 0.4529 0.4767 0.4114
loop_
_geom_bond_atom_site_label_1
_geom_bond_atom_site_label_2
_geom_bond_site_symmetry_1
_geom_bond_site_symmetry_2
N1 C1 1_555 1_555
N2 C4 1_555 1_555
N3 C5 1_555 1_555
N4 C12 1_555 1_555
C1 H1 1_555 1_555
H2 C1 1_555 1_555
C2 C1 1_555 1_555
H3 C2 1_555 1_555
H4 C2 1_555 1_555
C3 C2 1_555 1_555
H5 C3 1_555 1_555
H6 C3 1_555 1_555
C4 C3 1_555 1_555
H7 C4 1_555 1_555
H8 C4 1_555 1_555
C5 C6 1_555 1_555
C6 H9 1_555 1_555
C7 C6 1_555 1_555
H10 C7 1_555 1_555
C8 C7 1_555 1_555
H11 C8 1_555 1_555
C9 N3 1_555 1_555
H12 C9 1_555 1_555
C10 N1 1_555 1_555
C11 C10 1_555 1_555
H13 C11 1_555 1_555
H14 C11 1_555 1_555
H15 C11 1_555 1_555
C12 C13 1_555 1_555
C13 H16 1_555 1_555
C14 C13 1_555 1_555
H17 C14 1_555 1_555
C15 C14 1_555 1_555
H18 C15 1_555 1_555
C16 N4 1_555 1_555
H19 C16 1_555 1_555
C17 N2 1_555 1_555
C18 C17 1_555 1_555
H20 C18 1_555 1_555
H21 C18 1_555 1_555
H22 C18 1_555 1_555
N5 C19 1_555 1_555
N6 C22 1_555 1_555
N7 C23 1_555 1_555
N8 C30 1_555 1_555
C19 H23 1_555 1_555
H24 C19 1_555 1_555
C20 C19 1_555 1_555
H25 C20 1_555 1_555
H26 C20 1_555 1_555
C21 C20 1_555 1_555
H27 C21 1_555 1_555
H28 C21 1_555 1_555
C22 C21 1_555 1_555
H29 C22 1_555 1_555
H30 C22 1_555 1_555
C23 C24 1_555 1_555
C24 H31 1_555 1_555
C25 C24 1_555 1_555
H32 C25 1_555 1_555
C26 C25 1_555 1_555
H33 C26 1_555 1_555
C27 N7 1_555 1_555
H34 C27 1_555 1_555
C28 N5 1_555 1_555
C29 C28 1_555 1_555
H35 C29 1_555 1_555
H36 C29 1_555 1_555
H37 C29 1_555 1_555
C30 C31 1_555 1_555
C31 H38 1_555 1_555
C32 C31 1_555 1_555
H39 C32 1_555 1_555
C33 C32 1_555 1_555
H40 C33 1_555 1_555
C34 N8 1_555 1_555
H41 C34 1_555 1_555
C35 N6 1_555 1_555
C36 C35 1_555 1_555
H42 C36 1_555 1_555
H43 C36 1_555 1_555
H44 C36 1_555 1_555
C5 C10 1_555 1_555
C8 C9 1_555 1_555
C12 C17 1_555 1_555
C15 C16 1_555 1_555
C23 C28 1_555 1_555
C26 C27 1_555 1_555
C30 C35 1_555 1_555
C33 C34 1_555 1_555

#END
