
#######################################################################
#
#                 Cambridge Crystallographic Data Centre
#                                CCDC 
#
#######################################################################
#
# If this CIF has been generated from an entry in the Cambridge 
# Structural Database, then it will include bibliographic, chemical, 
# crystal, experimental, refinement or atomic coordinate data resulting 
# from the CCDC's data processing and validation procedures.
#
#######################################################################

data_TUTMOM
_chemical_formula_moiety         'C35 H24 S1'
_chemical_name_systematic        
4-(4-(3,4-diphenylcyclopenta-1,3-dien-1-yl)phenyl)dibenzo[b,d]thiophene
_symmetry_cell_setting           orthorhombic
_symmetry_space_group_name_H-M   'P c a 21'
_symmetry_Int_Tables_number      29
_space_group_name_Hall           'P 2c -2ac'
loop_
_symmetry_equiv_pos_site_id
_symmetry_equiv_pos_as_xyz
1 x,y,z
2 -x,-y,1/2+z
3 1/2+x,-y,z
4 1/2-x,y,1/2+z
_cell_length_a                   13.805(3)
_cell_length_b                   23.501(6)
_cell_length_c                   7.6773(18)
_cell_angle_alpha                90
_cell_angle_beta                 90
_cell_angle_gamma                90
_cell_volume                     2490.76
_exptl_crystal_colour            yellow
_exptl_crystal_description       block
_cell_formula_units_Z            4
loop_
_atom_site_label
_atom_site_type_symbol
_atom_site_fract_x
_atom_site_fract_y
_atom_site_fract_z
C1 C 0.3922(2) 0.16543(10) 0.2700(4)
C2 C 0.3293(2) 0.12241(10) 0.2278(3)
C3 C 0.2294(2) 0.14385(11) 0.2391(4)
H1 H 0.1736 0.1234 0.2126
C4 C 0.2327(2) 0.20062(10) 0.2968(3)
C5 C 0.3333(2) 0.21610(10) 0.3171(4)
H2 H 0.3462 0.2272 0.4365
H3 H 0.3492 0.2478 0.2414
C6 C 0.4980(2) 0.16672(11) 0.2701(4)
C7 C 0.5484(2) 0.20282(11) 0.3823(4)
H4 H 0.5140 0.2262 0.4579
C8 C 0.6483(2) 0.20453(13) 0.3832(5)
H5 H 0.6801 0.2290 0.4594
C9 C 0.7009(3) 0.17114(15) 0.2748(6)
H6 H 0.7682 0.1715 0.2793
C10 C 0.6533(3) 0.13666(14) 0.1581(5)
H7 H 0.6889 0.1147 0.0802
C11 C 0.5532(3) 0.13413(12) 0.1550(4)
H8 H 0.5223 0.1105 0.0754
C12 C 0.3516(2) 0.06191(10) 0.1853(4)
C13 C 0.3000(2) 0.03393(12) 0.0549(4)
H9 H 0.2514 0.0532 -0.0049
C14 C 0.3197(3) -0.02145(14) 0.0135(5)
H10 H 0.2860 -0.0389 -0.0768
C15 C 0.3886(3) -0.05164(13) 0.1036(5)
H11 H 0.4012 -0.0894 0.0755
C16 C 0.4385(3) -0.02540(12) 0.2355(5)
H12 H 0.4848 -0.0456 0.2980
C17 C 0.4204(2) 0.03109(11) 0.2765(4)
H13 H 0.4548 0.0484 0.3660
C18 C 0.1510(2) 0.23815(10) 0.3395(3)
C19 C 0.0540(2) 0.22221(11) 0.3174(4)
H14 H 0.0399 0.1869 0.2689
C20 C -0.0206(2) 0.25726(11) 0.3653(4)
H15 H -0.0840 0.2454 0.3468
C21 C -0.0042(2) 0.31026(11) 0.4410(3)
C22 C 0.0921(2) 0.32616(11) 0.4610(4)
H16 H 0.1063 0.3615 0.5091
C23 C 0.1672(2) 0.29107(10) 0.4117(4)
H17 H 0.2306 0.3034 0.4275
C24 C -0.0852(2) 0.34649(12) 0.5033(4)
C25 C -0.1656(3) 0.32043(14) 0.5784(4)
H18 H -0.1666 0.2810 0.5890
C26 C -0.2442(3) 0.35168(15) 0.6381(5)
H19 H -0.2975 0.3329 0.6849
C27 C -0.2444(3) 0.40966(15) 0.6288(4)
H20 H -0.2971 0.4303 0.6696
C28 C -0.1651(2) 0.43748(13) 0.5581(4)
C29 C -0.0859(2) 0.40597(11) 0.4933(3)
C30 C -0.1502(2) 0.49809(13) 0.5358(3)
C31 C -0.2078(3) 0.54328(15) 0.5957(4)
H21 H -0.2655 0.5360 0.6541
C32 C -0.1785(3) 0.59764(17) 0.5677(5)
H22 H -0.2168 0.6274 0.6080
C33 C -0.0932(3) 0.60995(13) 0.4807(5)
H23 H -0.0751 0.6476 0.4633
C34 C -0.0339(3) 0.56589(12) 0.4186(4)
H24 H 0.0230 0.5735 0.3583
C35 C -0.0634(2) 0.51098(12) 0.4505(4)
S1 S 0.00245(6) 0.44919(3) 0.39835(11)
loop_
_geom_bond_atom_site_label_1
_geom_bond_atom_site_label_2
_geom_bond_site_symmetry_1
_geom_bond_site_symmetry_2
C1 C2 1_555 1_555
C2 C3 1_555 1_555
C3 H1 1_555 1_555
C4 C3 1_555 1_555
C5 C1 1_555 1_555
H2 C5 1_555 1_555
H3 C5 1_555 1_555
C6 C1 1_555 1_555
C7 C6 1_555 1_555
H4 C7 1_555 1_555
C8 C7 1_555 1_555
H5 C8 1_555 1_555
C9 C8 1_555 1_555
H6 C9 1_555 1_555
C10 C9 1_555 1_555
H7 C10 1_555 1_555
C11 C6 1_555 1_555
H8 C11 1_555 1_555
C12 C2 1_555 1_555
C13 C12 1_555 1_555
H9 C13 1_555 1_555
C14 C13 1_555 1_555
H10 C14 1_555 1_555
C15 C14 1_555 1_555
H11 C15 1_555 1_555
C16 C15 1_555 1_555
H12 C16 1_555 1_555
C17 C12 1_555 1_555
H13 C17 1_555 1_555
C18 C4 1_555 1_555
C19 C18 1_555 1_555
H14 C19 1_555 1_555
C20 C19 1_555 1_555
H15 C20 1_555 1_555
C21 C20 1_555 1_555
C22 C21 1_555 1_555
H16 C22 1_555 1_555
C23 C18 1_555 1_555
H17 C23 1_555 1_555
C24 C21 1_555 1_555
C25 C24 1_555 1_555
H18 C25 1_555 1_555
C26 C25 1_555 1_555
H19 C26 1_555 1_555
C27 C26 1_555 1_555
H20 C27 1_555 1_555
C28 C27 1_555 1_555
C29 C24 1_555 1_555
C30 C28 1_555 1_555
C31 C30 1_555 1_555
H21 C31 1_555 1_555
C32 C31 1_555 1_555
H22 C32 1_555 1_555
C33 C32 1_555 1_555
H23 C33 1_555 1_555
C34 C33 1_555 1_555
H24 C34 1_555 1_555
C35 C30 1_555 1_555
S1 C29 1_555 1_555
C4 C5 1_555 1_555
C10 C11 1_555 1_555
C16 C17 1_555 1_555
C22 C23 1_555 1_555
C28 C29 1_555 1_555
C34 C35 1_555 1_555
C35 S1 1_555 1_555

#END
