
#######################################################################
#
#                 Cambridge Crystallographic Data Centre
#                                CCDC 
#
#######################################################################
#
# If this CIF has been generated from an entry in the Cambridge 
# Structural Database, then it will include bibliographic, chemical, 
# crystal, experimental, refinement or atomic coordinate data resulting 
# from the CCDC's data processing and validation procedures.
#
#######################################################################

data_TUTMIG
_chemical_formula_moiety         'C27 H20 S1'
_chemical_name_systematic        
2-(4-(3,4-diphenylcyclopenta-1,3-dien-1-yl)phenyl)thiophene
_symmetry_cell_setting           orthorhombic
_symmetry_space_group_name_H-M   'F d d 2'
_symmetry_Int_Tables_number      43
_space_group_name_Hall           'F 2 -2d'
loop_
_symmetry_equiv_pos_site_id
_symmetry_equiv_pos_as_xyz
1 x,y,z
2 -x,-y,z
3 1/4-x,1/4+y,1/4+z
4 3/4+x,3/4-y,1/4+z
5 x,1/2+y,1/2+z
6 -x,1/2-y,1/2+z
7 1/4-x,3/4+y,3/4+z
8 3/4+x,1/4-y,3/4+z
9 1/2+x,y,1/2+z
10 1/2-x,-y,1/2+z
11 3/4-x,1/4+y,3/4+z
12 1/4+x,3/4-y,3/4+z
13 1/2+x,1/2+y,z
14 1/2-x,1/2-y,z
15 3/4-x,3/4+y,1/4+z
16 1/4+x,1/4-y,1/4+z
_cell_length_a                   15.8997(19)
_cell_length_b                   10.5761(12)
_cell_length_c                   94.805(11)
_cell_angle_alpha                90
_cell_angle_beta                 90
_cell_angle_gamma                90
_cell_volume                     15942.1
_exptl_crystal_colour            yellow
_exptl_crystal_description       block
_cell_formula_units_Z            32
loop_
_atom_site_label
_atom_site_type_symbol
_atom_site_fract_x
_atom_site_fract_y
_atom_site_fract_z
S1 S 0.8163(19) 0.177(3) 0.3115(3)
C1 C 0.632(3) 0.460(4) 0.2063(5)
H1 H 0.5949 0.4504 0.2139
C2 C 0.612(4) 0.543(5) 0.1957(6)
H2 H 0.5610 0.5870 0.1960
C3 C 0.665(4) 0.561(5) 0.1847(6)
H3 H 0.6517 0.6187 0.1776
C4 C 0.738(4) 0.495(5) 0.1840(8)
H4 H 0.7749 0.5066 0.1764
C5 C 0.758(3) 0.411(5) 0.1947(6)
H5 H 0.8082 0.3660 0.1942
C6 C 0.706(3) 0.390(3) 0.2060(5)
C7 C 0.729(3) 0.306(5) 0.2177(5)
C8 C 0.716(3) 0.347(5) 0.2325(5)
H6 H 0.7441 0.4266 0.2342
H7 H 0.6564 0.3578 0.2344
C9 C 0.7500 0.2500 0.2417(7)
C10 C 0.7500 0.2500 0.2566(7)
C11 C 0.707(3) 0.342(5) 0.2645(6)
H8 H 0.6764 0.4041 0.2598
C12 C 0.709(3) 0.344(5) 0.2789(6)
H9 H 0.6824 0.4092 0.2837
C13 C 0.7500 0.2500 0.2864(7)
C14 C 0.7500 0.2500 0.3023(7)
C15 C 0.782(5) 0.211(7) 0.3262(6)
H10 H 0.8077 0.1847 0.3346
S1M S 0.6837(19) 0.323(3) 0.3115(3)
C1M C 0.868(3) 0.040(4) 0.2063(5)
H1M H 0.9051 0.0496 0.2139
C2M C 0.888(4) -0.043(5) 0.1957(6)
H2M H 0.9390 -0.0870 0.1960
C3M C 0.835(4) -0.061(5) 0.1847(6)
H3M H 0.8483 -0.1187 0.1776
C4M C 0.762(4) 0.005(5) 0.1840(8)
H4M H 0.7251 -0.0066 0.1764
C5M C 0.742(3) 0.089(5) 0.1947(6)
H5M H 0.6918 0.1340 0.1942
C6M C 0.794(3) 0.110(3) 0.2060(5)
C7M C 0.771(3) 0.194(5) 0.2177(5)
C8M C 0.784(3) 0.153(5) 0.2325(5)
H6M H 0.7559 0.0734 0.2342
H7M H 0.8436 0.1422 0.2344
C11M C 0.793(3) 0.158(5) 0.2645(6)
H8M H 0.8236 0.0959 0.2598
C12M C 0.791(3) 0.156(5) 0.2789(6)
H9M H 0.8176 0.0908 0.2837
C15M C 0.718(5) 0.289(7) 0.3262(6)
H10M H 0.6923 0.3153 0.3346
S2 S 0.455(10) 0.892(15) 0.2798(15)
C16 C 0.441(3) 0.745(4) 0.1735(5)
H11 H 0.4054 0.7292 0.1811
C17 C 0.440(4) 0.665(5) 0.1617(7)
H12 H 0.4039 0.5954 0.1618
C18 C 0.489(5) 0.685(6) 0.1504(6)
H13 H 0.4864 0.6317 0.1426
C19 C 0.543(5) 0.787(6) 0.1507(7)
H14 H 0.5783 0.8025 0.1431
C20 C 0.545(4) 0.864(5) 0.1622(6)
H15 H 0.5824 0.9315 0.1622
C21 C 0.494(2) 0.849(4) 0.1738(4)
C22 C 0.496(2) 0.936(4) 0.1860(4)
C23 C 0.492(3) 0.891(3) 0.2007(4)
H16 H 0.4383 0.8492 0.2025
H17 H 0.5366 0.8314 0.2026
C24 C 0.5000 1.0000 0.2098(6)
C25 C 0.5000 1.0000 0.2250(5)
C26 C 0.458(3) 0.906(3) 0.2329(5)
H18 H 0.4303 0.8415 0.2282
C27 C 0.458(3) 0.907(4) 0.2471(5)
H19 H 0.4286 0.8440 0.2519
C28 C 0.5000 1.0000 0.2551(6)
C29 C 0.5000 1.0000 0.2703(9)
C30 C 0.478(4) 0.946(5) 0.2945(6)
H20 H 0.48(2) 0.93(3) 0.3082(8)
S2A S 0.545(10) 1.108(15) 0.2798(15)
C16A C 0.559(3) 1.255(4) 0.1735(5)
H11A H 0.5946 1.2708 0.1811
C17A C 0.560(4) 1.335(5) 0.1617(7)
H12A H 0.5961 1.4046 0.1618
C18A C 0.511(5) 1.315(6) 0.1504(6)
H13A H 0.5136 1.3683 0.1426
C19A C 0.457(5) 1.213(6) 0.1507(7)
H14A H 0.4217 1.1975 0.1431
C20A C 0.455(4) 1.136(5) 0.1622(6)
H15A H 0.4176 1.0685 0.1622
C21A C 0.506(2) 1.151(4) 0.1738(4)
C22A C 0.504(2) 1.064(4) 0.1860(4)
C23A C 0.508(3) 1.109(3) 0.2007(4)
H16A H 0.5617 1.1508 0.2025
H17A H 0.4634 1.1686 0.2026
C26A C 0.542(3) 1.094(3) 0.2329(5)
H18A H 0.5697 1.1585 0.2282
C27A C 0.542(3) 1.093(4) 0.2471(5)
H19A H 0.5714 1.1560 0.2519
C30A C 0.522(4) 1.054(5) 0.2945(6)
H20A H 0.52(2) 1.07(3) 0.3082(8)
S3 S 0.433(12) 0.428(16) -0.0191(16)
C31 C 0.382(3) 0.290(4) 0.0861(5)
H21 H 0.3454 0.3011 0.0786
C32 C 0.363(3) 0.204(4) 0.0967(5)
H22 H 0.3132 0.1580 0.0960
C33 C 0.413(4) 0.187(5) 0.1079(6)
H23 H 0.3987 0.1300 0.1150
C34 C 0.487(4) 0.254(6) 0.1086(7)
H24 H 0.5225 0.2431 0.1163
C35 C 0.508(3) 0.338(5) 0.0982(5)
H25 H 0.5592 0.3815 0.0988
C36 C 0.456(3) 0.359(3) 0.0867(5)
C37 C 0.480(3) 0.443(5) 0.0748(5)
C38 C 0.466(3) 0.405(4) 0.0601(5)
H26 H 0.4933 0.3247 0.0582
H27 H 0.4062 0.3955 0.0583
C39 C 0.5000 0.5000 0.0514(7)
C40 C 0.5000 0.5000 0.0356(7)
C41 C 0.459(3) 0.406(5) 0.0281(6)
H28 H 0.4320 0.3412 0.0330
C42 C 0.457(3) 0.407(4) 0.0137(6)
H29 H 0.4269 0.3447 0.0090
C43 C 0.5000 0.5000 0.0059(7)
C44 C 0.5000 0.5000 -0.0093(8)
C45 C 0.466(5) 0.463(6) -0.0336(7)
H30 H 0.4454 0.4257 -0.0418
S3A S 0.567(12) 0.572(16) -0.0191(16)
C31A C 0.618(3) 0.710(4) 0.0861(5)
H21A H 0.6546 0.6989 0.0786
C32A C 0.637(3) 0.796(4) 0.0967(5)
H22A H 0.6868 0.8420 0.0960
C33A C 0.587(4) 0.813(5) 0.1079(6)
H23A H 0.6013 0.8700 0.1150
C34A C 0.513(4) 0.746(6) 0.1086(7)
H24A H 0.4775 0.7569 0.1163
C35A C 0.492(3) 0.662(5) 0.0982(5)
H25A H 0.4408 0.6185 0.0988
C36A C 0.544(3) 0.641(3) 0.0867(5)
C37A C 0.520(3) 0.557(5) 0.0748(5)
C38A C 0.534(3) 0.595(4) 0.0601(5)
H26A H 0.5067 0.6753 0.0582
H27A H 0.5938 0.6045 0.0583
C41A C 0.541(3) 0.594(5) 0.0281(6)
H28A H 0.5680 0.6588 0.0330
C42A C 0.543(3) 0.593(4) 0.0137(6)
H29A H 0.5731 0.6553 0.0090
C45A C 0.534(5) 0.537(6) -0.0336(7)
H30A H 0.5546 0.5743 -0.0418
S4 S 0.295(9) 0.642(14) 0.0117(13)
C46 C 0.298(3) 0.492(4) 0.1183(5)
H31 H 0.3305 0.4705 0.1105
C47 C 0.298(4) 0.415(6) 0.1299(7)
H32 H 0.3308 0.3423 0.1299
C48 C 0.250(4) 0.443(5) 0.1412(6)
H33 H 0.2516 0.3917 0.1491
C49 C 0.200(4) 0.547(5) 0.1409(6)
H34 H 0.1667 0.5657 0.1487
C50 C 0.197(4) 0.626(5) 0.1294(6)
H35 H 0.1615 0.6955 0.1292
C51 C 0.250(2) 0.600(4) 0.1179(4)
C52 C 0.251(2) 0.686(3) 0.1056(4)
C53 C 0.255(3) 0.643(4) 0.0908(4)
H36 H 0.3069 0.5974 0.0891
H37 H 0.2083 0.5859 0.0889
C54 C 0.2500 0.7500 0.0821(6)
C55 C 0.2500 0.7500 0.0666(5)
C56 C 0.210(2) 0.844(3) 0.0589(4)
H38 H 0.1822 0.9079 0.0637
C57 C 0.209(3) 0.845(4) 0.0443(5)
H39 H 0.1820 0.9102 0.0395
C58 C 0.2500 0.7500 0.0367(6)
C59 C 0.2500 0.7500 0.0211(9)
C60 C 0.273(4) 0.696(5) -0.0030(6)
H40 H 0.2912 0.6556 -0.0112
S4M S 0.205(9) 0.858(14) 0.0117(13)
C46M C 0.202(3) 1.008(4) 0.1183(5)
H31M H 0.1695 1.0295 0.1105
C47M C 0.202(4) 1.085(6) 0.1299(7)
H32M H 0.1692 1.1577 0.1299
C48M C 0.250(4) 1.057(5) 0.1412(6)
H33M H 0.2484 1.1083 0.1491
C49M C 0.300(4) 0.953(5) 0.1409(6)
H34M H 0.3333 0.9343 0.1487
C50M C 0.303(4) 0.874(5) 0.1294(6)
H35M H 0.3385 0.8045 0.1292
C51M C 0.250(2) 0.900(4) 0.1179(4)
C52M C 0.249(2) 0.814(3) 0.1056(4)
C53M C 0.245(3) 0.857(4) 0.0908(4)
H36M H 0.1931 0.9026 0.0891
H37M H 0.2917 0.9141 0.0889
C56M C 0.290(2) 0.656(3) 0.0589(4)
H38M H 0.3178 0.5921 0.0637
C57M C 0.291(3) 0.655(4) 0.0443(5)
H39M H 0.3180 0.5898 0.0395
C60M C 0.227(4) 0.804(5) -0.0030(6)
H40M H 0.2088 0.8444 -0.0112
C61? C 0.29(4) 0.64(6) 0.012(5)
H41? H 0.3242 0.5695 0.0144
C62? C 0.43(5) 0.43(6) -0.019(6)
H42? H 0.3864 0.3793 -0.0166
C63? C 0.8163(19) 0.177(3) 0.3115(3)
H43? H 0.8622 0.1274 0.3089
C64? C 0.46(4) 0.89(6) 0.280(6)
H44? H 0.4252 0.8204 0.2772
loop_
_geom_bond_atom_site_label_1
_geom_bond_atom_site_label_2
_geom_bond_site_symmetry_1
_geom_bond_site_symmetry_2
S1 C14 1_555 1_555
C1 H1 1_555 1_555
C2 C1 1_555 1_555
H2 C2 1_555 1_555
C3 C2 1_555 1_555
H3 C3 1_555 1_555
C4 C3 1_555 1_555
H4 C4 1_555 1_555
C5 C4 1_555 1_555
H5 C5 1_555 1_555
C6 C1 1_555 1_555
C7 C6 1_555 1_555
C8 C7 1_555 1_555
H6 C8 1_555 1_555
H7 C8 1_555 1_555
C9 C8 1_555 1_555
C10 C9 1_555 1_555
C11 C10 1_555 1_555
H8 C11 1_555 1_555
C12 C11 1_555 1_555
H9 C12 1_555 1_555
C13 C12 1_555 1_555
C14 C13 1_555 1_555
C15 S1 1_555 1_555
H10 C15 1_555 1_555
S2 C29 1_555 1_555
C16 H11 1_555 1_555
C17 C16 1_555 1_555
H12 C17 1_555 1_555
C18 C17 1_555 1_555
H13 C18 1_555 1_555
C19 C18 1_555 1_555
H14 C19 1_555 1_555
C20 C19 1_555 1_555
H15 C20 1_555 1_555
C21 C16 1_555 1_555
C22 C21 1_555 1_555
C23 C22 1_555 1_555
H16 C23 1_555 1_555
H17 C23 1_555 1_555
C24 C23 1_555 1_555
C25 C24 1_555 1_555
C26 C25 1_555 1_555
H18 C26 1_555 1_555
C27 C26 1_555 1_555
H19 C27 1_555 1_555
C28 C27 1_555 1_555
C29 C28 1_555 1_555
C30 S2 1_555 1_555
H20 C30 1_555 1_555
S3 C44 1_555 1_555
C31 H21 1_555 1_555
C32 C31 1_555 1_555
H22 C32 1_555 1_555
C33 C32 1_555 1_555
H23 C33 1_555 1_555
C34 C33 1_555 1_555
H24 C34 1_555 1_555
C35 C34 1_555 1_555
H25 C35 1_555 1_555
C36 C31 1_555 1_555
C37 C36 1_555 1_555
C38 C37 1_555 1_555
H26 C38 1_555 1_555
H27 C38 1_555 1_555
C39 C38 1_555 1_555
C40 C39 1_555 1_555
C41 C40 1_555 1_555
H28 C41 1_555 1_555
C42 C41 1_555 1_555
H29 C42 1_555 1_555
C43 C42 1_555 1_555
C44 C43 1_555 1_555
C45 S3 1_555 1_555
H30 C45 1_555 1_555
S4 C59 1_555 1_555
C46 H31 1_555 1_555
C47 C46 1_555 1_555
H32 C47 1_555 1_555
C48 C47 1_555 1_555
H33 C48 1_555 1_555
C49 C48 1_555 1_555
H34 C49 1_555 1_555
C50 C49 1_555 1_555
H35 C50 1_555 1_555
C51 C46 1_555 1_555
C52 C51 1_555 1_555
C53 C52 1_555 1_555
H36 C53 1_555 1_555
H37 C53 1_555 1_555
C54 C53 1_555 1_555
C55 C54 1_555 1_555
C56 C55 1_555 1_555
H38 C56 1_555 1_555
C57 C56 1_555 1_555
H39 C57 1_555 1_555
C58 C57 1_555 1_555
C59 C58 1_555 1_555
C60 S4 1_555 1_555
H40 C60 1_555 1_555
S1M C14 1_555 1_555
C1M H1M 1_555 1_555
C2M C1M 1_555 1_555
H2M C2M 1_555 1_555
C3M C2M 1_555 1_555
H3M C3M 1_555 1_555
C4M C3M 1_555 1_555
H4M C4M 1_555 1_555
C5M C4M 1_555 1_555
H5M C5M 1_555 1_555
C6M C1M 1_555 1_555
C7M C7 1_555 1_555
C8M C9 1_555 1_555
H6M C8M 1_555 1_555
H7M C8M 1_555 1_555
C11M C10 1_555 1_555
H8M C11M 1_555 1_555
C12M C13 1_555 1_555
H9M C12M 1_555 1_555
C15M C15 1_555 1_555
H10M C15M 1_555 1_555
S2A C29 1_555 1_555
C16A H11A 1_555 1_555
C17A C16A 1_555 1_555
H12A C17A 1_555 1_555
C18A C17A 1_555 1_555
H13A C18A 1_555 1_555
C19A C18A 1_555 1_555
H14A C19A 1_555 1_555
C20A C19A 1_555 1_555
H15A C20A 1_555 1_555
C21A C16A 1_555 1_555
C22A C22 1_555 1_555
C23A C24 1_555 1_555
H16A C23A 1_555 1_555
H17A C23A 1_555 1_555
C26A C25 1_555 1_555
H18A C26A 1_555 1_555
C27A C28 1_555 1_555
H19A C27A 1_555 1_555
C30A C30 1_555 1_555
H20A C30A 1_555 1_555
S3A C44 1_555 1_555
C31A H21A 1_555 1_555
C32A C31A 1_555 1_555
H22A C32A 1_555 1_555
C33A C32A 1_555 1_555
H23A C33A 1_555 1_555
C34A C33A 1_555 1_555
H24A C34A 1_555 1_555
C35A C34A 1_555 1_555
H25A C35A 1_555 1_555
C36A C31A 1_555 1_555
C37A C37 1_555 1_555
C38A C39 1_555 1_555
H26A C38A 1_555 1_555
H27A C38A 1_555 1_555
C41A C40 1_555 1_555
H28A C41A 1_555 1_555
C42A C43 1_555 1_555
H29A C42A 1_555 1_555
C45A C45 1_555 1_555
H30A C45A 1_555 1_555
S4M C59 1_555 1_555
C46M H31M 1_555 1_555
C47M C46M 1_555 1_555
H32M C47M 1_555 1_555
C48M C47M 1_555 1_555
H33M C48M 1_555 1_555
C49M C48M 1_555 1_555
H34M C49M 1_555 1_555
C50M C49M 1_555 1_555
H35M C50M 1_555 1_555
C51M C46M 1_555 1_555
C52M C52 1_555 1_555
C53M C54 1_555 1_555
H36M C53M 1_555 1_555
H37M C53M 1_555 1_555
C56M C55 1_555 1_555
H38M C56M 1_555 1_555
C57M C58 1_555 1_555
H39M C57M 1_555 1_555
C60M C60 1_555 1_555
H40M C60M 1_555 1_555
C5 C6 1_555 1_555
C20 C21 1_555 1_555
C35 C36 1_555 1_555
C50 C51 1_555 1_555
S1M C15M 1_555 1_555
C5M C6M 1_555 1_555
C6M C7M 1_555 1_555
C7M C8M 1_555 1_555
C11M C12M 1_555 1_555
S2A C30A 1_555 1_555
C20A C21A 1_555 1_555
C21A C22A 1_555 1_555
C22A C23A 1_555 1_555
C26A C27A 1_555 1_555
S3A C45A 1_555 1_555
C35A C36A 1_555 1_555
C36A C37A 1_555 1_555
C37A C38A 1_555 1_555
C41A C42A 1_555 1_555
S4M C60M 1_555 1_555
C50M C51M 1_555 1_555
C51M C52M 1_555 1_555
C52M C53M 1_555 1_555
C56M C57M 1_555 1_555

#END
