
#######################################################################
#
#                 Cambridge Crystallographic Data Centre
#                                CCDC 
#
#######################################################################
#
# If this CIF has been generated from an entry in the Cambridge 
# Structural Database, then it will include bibliographic, chemical, 
# crystal, experimental, refinement or atomic coordinate data resulting 
# from the CCDC's data processing and validation procedures.
#
#######################################################################

data_TUTROQ
_chemical_name_common            
1,4-dibromo-2,3,5-trifluoro-6-(4-propylphenoxy)benzene
_chemical_formula_moiety         'C15 H11 Br2 F3 O1'
_chemical_name_systematic        
'2,5-Dibromo-3,4,6-trifluorophenyl 4-propylphenyl ether'
_symmetry_cell_setting           triclinic
_symmetry_space_group_name_H-M   'P -1'
_symmetry_Int_Tables_number      2
_space_group_name_Hall           '-P 1'
loop_
_symmetry_equiv_pos_site_id
_symmetry_equiv_pos_as_xyz
1 x,y,z
2 -x,-y,-z
_cell_length_a                   5.2846(2)
_cell_length_b                   11.6877(4)
_cell_length_c                   12.1611(4)
_cell_angle_alpha                79.08(1)
_cell_angle_beta                 81.76(1)
_cell_angle_gamma                83.89(1)
_cell_volume                     727.48
_exptl_crystal_colour            colorless
_exptl_crystal_description       plate
_chemical_melting_point          '58-60 deg.C'
_cell_formula_units_Z            2
loop_
_atom_site_label
_atom_site_type_symbol
_atom_site_fract_x
_atom_site_fract_y
_atom_site_fract_z
Br1 Br 0.94812(3) 0.512744(13) 0.845621(14)
Br2 Br 0.33300(3) 0.077146(14) 0.781905(15)
F1 F 0.5709(2) 0.50553(9) 0.68078(10)
F2 F 0.3118(2) 0.32931(9) 0.65771(10)
F3 F 0.7114(2) 0.08231(8) 0.94851(9)
O1 O 0.9931(2) 0.25786(10) 0.96909(10)
C1 C 0.8100(3) 0.27786(14) 0.89706(13)
C2 C 0.7732(3) 0.38701(13) 0.82894(13)
C3 C 0.6062(3) 0.40206(14) 0.74823(14)
C4 C 0.4730(3) 0.31094(15) 0.73583(14)
C5 C 0.5063(3) 0.20162(13) 0.80280(14)
C6 C 0.6742(3) 0.18689(13) 0.88303(13)
C7 C 0.9120(3) 0.22845(13) 1.08469(13)
C8 C 0.6803(3) 0.27263(14) 1.13532(14)
C9 C 0.6207(3) 0.24343(14) 1.25212(14)
C10 C 0.7889(3) 0.17129(14) 1.31883(14)
C11 C 1.0218(3) 0.12806(14) 1.26404(14)
C12 C 1.0847(3) 0.15589(14) 1.14788(14)
C13 C 0.7289(4) 0.14298(17) 1.44554(15)
C14 C 0.9020(4) 0.19910(17) 1.50753(15)
C15 C 0.8822(5) 0.33155(19) 1.47796(17)
H1 H 0.566(4) 0.324(2) 1.100(2)
H2 H 0.465(5) 0.275(2) 1.286(2)
H3 H 1.143(5) 0.075(2) 1.309(2)
H4 H 1.238(5) 0.125(2) 1.112(2)
H5 H 0.550(5) 0.178(2) 1.465(2)
H6 H 0.747(5) 0.058(2) 1.471(2)
H7 H 0.859(5) 0.169(2) 1.594(2)
H8 H 1.088(5) 0.166(2) 1.492(2)
H9 H 0.936(5) 0.360(2) 1.400(2)
H10 H 0.988(5) 0.365(2) 1.521(2)
H11 H 0.718(5) 0.363(2) 1.494(2)
loop_
_geom_bond_atom_site_label_1
_geom_bond_atom_site_label_2
_geom_bond_site_symmetry_1
_geom_bond_site_symmetry_2
Br1 C2 1_555 1_555
Br2 C5 1_555 1_555
F1 C3 1_555 1_555
F2 C4 1_555 1_555
F3 C6 1_555 1_555
O1 C1 1_555 1_555
C1 C2 1_555 1_555
C2 C3 1_555 1_555
C3 C4 1_555 1_555
C4 C5 1_555 1_555
C5 C6 1_555 1_555
C6 C1 1_555 1_555
C7 O1 1_555 1_555
C8 C7 1_555 1_555
C9 C8 1_555 1_555
C10 C9 1_555 1_555
C11 C10 1_555 1_555
C12 C7 1_555 1_555
C13 C10 1_555 1_555
C14 C13 1_555 1_555
C15 C14 1_555 1_555
H1 C8 1_555 1_555
H2 C9 1_555 1_555
H3 C11 1_555 1_555
H4 C12 1_555 1_555
H5 C13 1_555 1_555
H6 C13 1_555 1_555
H7 C14 1_555 1_555
H8 C14 1_555 1_555
H9 C15 1_555 1_555
H10 C15 1_555 1_555
H11 C15 1_555 1_555
C11 C12 1_555 1_555

#END
