
#######################################################################
#
#                 Cambridge Crystallographic Data Centre
#                                CCDC 
#
#######################################################################
#
# If this CIF has been generated from an entry in the Cambridge 
# Structural Database, then it will include bibliographic, chemical, 
# crystal, experimental, refinement or atomic coordinate data resulting 
# from the CCDC's data processing and validation procedures.
#
#######################################################################

data_TUTRUW
_chemical_name_common            
1,4-Dibromo-2,5-difluoro-3,6-bis(4-propylphenoxy)benzene
_chemical_formula_moiety         'C24 H22 Br2 F2 O2'
_chemical_name_systematic        
4,4'-(2,5-dibromo-3,6-difluoro-1,4-phenylene)bis(oxy-p-propylbenzene)
_symmetry_cell_setting           monoclinic
_symmetry_space_group_name_H-M   'C 2/c'
_symmetry_Int_Tables_number      15
_space_group_name_Hall           '-C 2yn'
loop_
_symmetry_equiv_pos_site_id
_symmetry_equiv_pos_as_xyz
1 x,y,z
2 -x,y,1/2-z
3 1/2+x,1/2+y,z
4 1/2-x,1/2+y,1/2-z
5 -x,-y,-z
6 x,-y,1/2+z
7 1/2-x,1/2-y,-z
8 1/2+x,1/2-y,1/2+z
_cell_length_a                   24.6912(9)
_cell_length_b                   5.7125(2)
_cell_length_c                   18.2830(7)
_cell_angle_alpha                90
_cell_angle_beta                 122.68(2)
_cell_angle_gamma                90
_cell_volume                     2170.57
_exptl_crystal_colour            colorless
_exptl_crystal_description       needle
_chemical_melting_point          '117-119 deg.C'
_cell_formula_units_Z            4
loop_
_atom_site_label
_atom_site_type_symbol
_atom_site_fract_x
_atom_site_fract_y
_atom_site_fract_z
Br1 Br -0.065084(8) 0.32553(3) 0.799238(10)
F1 F 0.09361(5) 0.23779(19) 1.13192(6)
O1 O 0.03829(5) 0.07838(19) 0.96689(8)
C1 C -0.02721(7) 0.4262(3) 0.91451(10)
C2 C 0.04726(7) 0.3685(3) 1.06673(10)
C3 C 0.02094(7) 0.2928(3) 0.98210(10)
C4 C 0.08016(7) 0.0746(3) 0.93748(10)
C5 C 0.07652(8) -0.1219(3) 0.89064(11)
C6 C 0.11848(8) -0.1436(3) 0.86259(11)
C7 C 0.16416(7) 0.0285(3) 0.88068(9)
C8 C 0.16586(8) 0.2243(3) 0.92687(11)
C9 C 0.12414(8) 0.2499(3) 0.95582(11)
C10 C 0.20966(8) 0.0013(3) 0.84967(10)
C11 C 0.25330(9) -0.2131(3) 0.88591(13)
C12 C 0.29687(10) -0.2340(4) 0.85120(14)
H1 H 0.0461(10) -0.237(4) 0.8775(13)
H2 H 0.1135(10) -0.271(4) 0.8272(14)
H3 H 0.1970(10) 0.353(4) 0.9398(14)
H4 H 0.1269(9) 0.384(3) 0.9887(12)
H5 H 0.2361(10) 0.142(4) 0.8646(13)
H6 H 0.1842(9) -0.004(4) 0.7846(13)
H7 H 0.2771(11) -0.210(4) 0.9469(16)
H8 H 0.2274(10) -0.348(4) 0.8694(14)
H9 H 0.2716(11) -0.253(4) 0.7899(16)
H10 H 0.3238(13) -0.371(5) 0.8718(18)
H11 H 0.3222(12) -0.098(5) 0.8621(16)
Br1D Br 0.065084(8) 0.67447(3) 1.200762(10)
F1D F -0.09361(5) 0.76221(19) 0.86808(6)
O1D O -0.03829(5) 0.92162(19) 1.03311(8)
C1D C 0.02721(7) 0.5738(3) 1.08549(10)
C2D C -0.04726(7) 0.6315(3) 0.93327(10)
C3D C -0.02094(7) 0.7072(3) 1.01790(10)
C4D C -0.08016(7) 0.9254(3) 1.06252(10)
C5D C -0.07652(8) 1.1219(3) 1.10936(11)
C6D C -0.11848(8) 1.1436(3) 1.13741(11)
C7D C -0.16416(7) 0.9715(3) 1.11932(9)
C8D C -0.16586(8) 0.7757(3) 1.07313(11)
C9D C -0.12414(8) 0.7501(3) 1.04418(11)
C10D C -0.20966(8) 0.9987(3) 1.15033(10)
C11D C -0.25330(9) 1.2131(3) 1.11409(13)
C12D C -0.29687(10) 1.2340(4) 1.14880(14)
H1D H -0.0461(10) 1.237(4) 1.1225(13)
H2D H -0.1135(10) 1.271(4) 1.1728(14)
H3D H -0.1970(10) 0.647(4) 1.0602(14)
H4D H -0.1269(9) 0.616(3) 1.0113(12)
H5D H -0.2361(10) 0.858(4) 1.1354(13)
H6D H -0.1842(9) 1.004(4) 1.2154(13)
H7D H -0.2771(11) 1.210(4) 1.0531(16)
H8D H -0.2274(10) 1.348(4) 1.1306(14)
H9D H -0.2716(11) 1.253(4) 1.2101(16)
H10D H -0.3238(13) 1.371(5) 1.1282(18)
H11D H -0.3222(12) 1.098(5) 1.1379(16)
loop_
_geom_bond_atom_site_label_1
_geom_bond_atom_site_label_2
_geom_bond_site_symmetry_1
_geom_bond_site_symmetry_2
Br1 C1 1_555 1_555
F1 C2 1_555 1_555
O1 C3 1_555 1_555
C1 C3 1_555 1_555
C2 C3 1_555 1_555
C4 O1 1_555 1_555
C5 C4 1_555 1_555
C6 C5 1_555 1_555
C7 C6 1_555 1_555
C8 C7 1_555 1_555
C9 C4 1_555 1_555
C10 C7 1_555 1_555
C11 C10 1_555 1_555
C12 C11 1_555 1_555
H1 C5 1_555 1_555
H2 C6 1_555 1_555
H3 C8 1_555 1_555
H4 C9 1_555 1_555
H5 C10 1_555 1_555
H6 C10 1_555 1_555
H7 C11 1_555 1_555
H8 C11 1_555 1_555
H9 C12 1_555 1_555
H10 C12 1_555 1_555
H11 C12 1_555 1_555
Br1D C1D 1_555 1_555
F1D C2D 1_555 1_555
O1D C3D 1_555 1_555
C1D C2 1_555 1_555
C2D C1 1_555 1_555
C3D C1D 1_555 1_555
C4D O1D 1_555 1_555
C5D C4D 1_555 1_555
C6D C5D 1_555 1_555
C7D C6D 1_555 1_555
C8D C7D 1_555 1_555
C9D C4D 1_555 1_555
C10D C7D 1_555 1_555
C11D C10D 1_555 1_555
C12D C11D 1_555 1_555
H1D C5D 1_555 1_555
H2D C6D 1_555 1_555
H3D C8D 1_555 1_555
H4D C9D 1_555 1_555
H5D C10D 1_555 1_555
H6D C10D 1_555 1_555
H7D C11D 1_555 1_555
H8D C11D 1_555 1_555
H9D C12D 1_555 1_555
H10D C12D 1_555 1_555
H11D C12D 1_555 1_555
C8 C9 1_555 1_555
C2D C3D 1_555 1_555
C8D C9D 1_555 1_555

#END
