
#######################################################################
#
#                 Cambridge Crystallographic Data Centre
#                                CCDC 
#
#######################################################################
#
# If this CIF has been generated from an entry in the Cambridge 
# Structural Database, then it will include bibliographic, chemical, 
# crystal, experimental, refinement or atomic coordinate data resulting 
# from the CCDC's data processing and validation procedures.
#
#######################################################################

data_TUVBOC
_chemical_formula_moiety         'C15 H16 O4'
_chemical_name_systematic        
'Methyl hydroxy(4-oxocyclohex-2-en-1-yl)phenylacetate'
_symmetry_cell_setting           monoclinic
_symmetry_space_group_name_H-M   'P 21'
_symmetry_Int_Tables_number      4
_space_group_name_Hall           'P 2yb'
loop_
_symmetry_equiv_pos_site_id
_symmetry_equiv_pos_as_xyz
1 x,y,z
2 -x,1/2+y,-z
_cell_length_a                   8.519(2)
_cell_length_b                   8.800(2)
_cell_length_c                   8.940(2)
_cell_angle_alpha                90
_cell_angle_beta                 102.620(10)
_cell_angle_gamma                90
_cell_volume                     654.015
_cell_formula_units_Z            2
loop_
_atom_site_label
_atom_site_type_symbol
_atom_site_fract_x
_atom_site_fract_y
_atom_site_fract_z
O1 O 1.1273(2) 0.4073(18) 0.5925(3)
C1 C 1.2076(3) 0.4121(18) 0.8777(4)
O2 O 0.4483(2) 0.3894(18) 0.5390(3)
C2 C 0.5904(3) 0.4117(18) 0.5918(5)
C3 C 1.2837(4) 0.396(2) 1.1557(5)
C4 C 1.1677(5) 0.9004(19) 0.8115(6)
C5 C 1.1084(3) 0.4849(18) 0.7283(4)
C6 C 1.1681(3) 0.6487(18) 0.7193(4)
O3 O 1.1165(3) 0.7437(18) 0.8151(3)
C7 C 0.8623(3) 0.3237(18) 0.7395(4)
C8 C 0.9260(3) 0.4852(18) 0.7308(3)
C9 C 1.1972(4) 0.4650(18) 1.0155(5)
O4 O 1.2548(3) 0.6840(18) 0.6324(3)
C10 C 1.3849(4) 0.2761(19) 1.1413(5)
C11 C 1.3081(3) 0.2914(18) 0.8717(4)
C12 C 1.3978(4) 0.2238(18) 0.9960(5)
C13 C 0.6794(3) 0.3278(18) 0.7281(5)
C14 C 0.6781(3) 0.5329(18) 0.5251(4)
C15 C 0.8319(3) 0.5676(18) 0.5915(4)
H1 H 0.91191 0.54414 0.81993
H2 H 0.90954 0.65912 0.53912
H3 H 0.66448 0.36671 0.79014
H4 H 0.61111 0.60185 0.44470
H5 H 1.21789 0.42141 0.54184
H6 H 1.11384 0.95835 0.87026
H7 H 1.14858 0.93016 0.70927
H8 H 1.28160 0.90031 0.85507
H9 H 1.12702 0.54179 1.01974
H10 H 1.27793 0.43665 1.26517
H11 H 1.44397 0.21890 1.23427
H12 H 1.47440 0.13941 0.98331
H13 H 1.31217 0.25291 0.77071
H14 H 0.91307 0.28140 0.84079
H15 H 0.88935 0.26308 0.66467
H16 H 0.64487 0.21716 0.71736
loop_
_geom_bond_atom_site_label_1
_geom_bond_atom_site_label_2
_geom_bond_site_symmetry_1
_geom_bond_site_symmetry_2
O1 C5 1_555 1_555
C1 C5 1_555 1_555
O2 C2 1_555 1_555
C2 C13 1_555 1_555
C3 C9 1_555 1_555
C4 O3 1_555 1_555
C5 C6 1_555 1_555
C6 O3 1_555 1_555
C7 C8 1_555 1_555
C8 C5 1_555 1_555
C9 C1 1_555 1_555
O4 C6 1_555 1_555
C10 C3 1_555 1_555
C11 C1 1_555 1_555
C12 C10 1_555 1_555
C13 C7 1_555 1_555
C14 C2 1_555 1_555
C15 C8 1_555 1_555
H1 C8 1_555 1_555
H2 C15 1_555 1_555
H3 C13 1_555 1_555
H4 C14 1_555 1_555
H5 O1 1_555 1_555
H6 C4 1_555 1_555
H7 C4 1_555 1_555
H8 C4 1_555 1_555
H9 C9 1_555 1_555
H10 C3 1_555 1_555
H11 C10 1_555 1_555
H12 C12 1_555 1_555
H13 C11 1_555 1_555
H14 C7 1_555 1_555
H15 C7 1_555 1_555
H16 C13 1_555 1_555
C11 C12 1_555 1_555
C14 C15 1_555 1_555

#END
