
#######################################################################
#
#                 Cambridge Crystallographic Data Centre
#                                CCDC 
#
#######################################################################
#
# If this CIF has been generated from an entry in the Cambridge 
# Structural Database, then it will include bibliographic, chemical, 
# crystal, experimental, refinement or atomic coordinate data resulting 
# from the CCDC's data processing and validation procedures.
#
#######################################################################

data_TUVCUJ
_chemical_formula_moiety         'C42 H24 N8,4(C2 H6 O1 S1)'
_chemical_name_systematic        
"14,15-bis(1H-indol-3-yl)-5,6-dihydrodiindolo[3,2-a:2',3'-c]pyrazino[2,3-i]phenazine dimethyl sulfoxide solvate"
_symmetry_cell_setting           monoclinic
_symmetry_space_group_name_H-M   'P 21/n'
_symmetry_Int_Tables_number      14
_space_group_name_Hall           '-P 2yn'
loop_
_symmetry_equiv_pos_site_id
_symmetry_equiv_pos_as_xyz
1 x,y,z
2 1/2-x,1/2+y,1/2-z
3 -x,-y,-z
4 1/2+x,1/2-y,1/2+z
_cell_length_a                   11.762(2)
_cell_length_b                   13.138(3)
_cell_length_c                   30.506(6)
_cell_angle_alpha                90
_cell_angle_beta                 96.23(3)
_cell_angle_gamma                90
_cell_volume                     4686.23
_cell_formula_units_Z            4
loop_
_atom_site_label
_atom_site_type_symbol
_atom_site_fract_x
_atom_site_fract_y
_atom_site_fract_z
S1 S 0.78387(8) 0.74910(6) 0.17115(2)
O1 O 0.7050(3) 0.6650(2) 0.15440(9)
C43 C 0.7275(3) 0.8638(3) 0.14557(11)
H25 H 0.6579 0.8818 0.1574
H26 H 0.7122 0.8534 0.1143
H27 H 0.7822 0.9177 0.1512
C44 C 0.9073(3) 0.7394(3) 0.14172(11)
H28 H 0.9504 0.6799 0.1514
H29 H 0.9542 0.7988 0.1473
H30 H 0.8835 0.7342 0.1107
S2 S 0.52831(7) 0.54607(5) 0.28615(2)
O2 O 0.5425(2) 0.43308(15) 0.29186(7)
C45 C 0.5638(4) 0.5734(3) 0.23174(12)
H31 H 0.6447 0.5659 0.2310
H32 H 0.5416 0.6419 0.2239
H33 H 0.5240 0.5270 0.2111
C46 C 0.3783(3) 0.5655(3) 0.27733(12)
H34 H 0.3454 0.5536 0.3043
H35 H 0.3455 0.5193 0.2551
H36 H 0.3629 0.6343 0.2678
S3 S 0.48288(6) 0.52962(5) 0.10758(2)
O3 O 0.39337(16) 0.46386(15) 0.08157(7)
C47 C 0.5349(3) 0.6144(3) 0.06898(12)
H37 H 0.4767 0.6632 0.0594
H38 H 0.5549 0.5766 0.0440
H39 H 0.6013 0.6492 0.0826
C48 C 0.6069(2) 0.4528(2) 0.11827(10)
H40 H 0.5932 0.4008 0.1392
H41 H 0.6701 0.4943 0.1301
H42 H 0.6245 0.4218 0.0913
N1 N 0.47215(17) 0.30094(15) 0.22134(6)
H1 H 0.4987 0.3316 0.2452
N2 N 0.16941(18) 0.52910(15) 0.18530(7)
H2 H 0.2025 0.5876 0.1872
N3 N 0.24144(16) 0.12608(14) 0.11670(6)
N4 N 0.03214(16) 0.22875(14) 0.12753(6)
N5 N 0.03351(16) -0.13514(14) 0.03244(6)
N6 N -0.17765(16) -0.04041(14) 0.05040(6)
N7 N -0.16392(17) -0.39169(14) -0.05012(6)
H3 H -0.2172 -0.4268 -0.0646
N8 N -0.39495(16) -0.28488(15) -0.03031(6)
H4 H -0.4161 -0.3342 -0.0479
C1 C 0.3592(2) 0.29313(17) 0.20595(8)
H5 H 0.2992 0.3200 0.2198
C2 C 0.5376(2) 0.25180(17) 0.19256(8)
C3 C 0.6562(2) 0.2408(2) 0.19431(8)
H6 H 0.7046 0.2685 0.2174
C4 C 0.6995(2) 0.1875(2) 0.16061(8)
H7 H 0.7782 0.1797 0.1610
C5 C 0.6266(2) 0.1454(2) 0.12612(8)
H8 H 0.6577 0.1097 0.1039
C6 C 0.5086(2) 0.15567(19) 0.12425(8)
H9 H 0.4612 0.1270 0.1011
C7 C 0.4618(2) 0.21005(17) 0.15782(8)
C8 C 0.3471(2) 0.23906(17) 0.16651(8)
C9 C 0.2397(2) 0.21006(17) 0.14086(8)
C10 C 0.1379(2) 0.08875(17) 0.09714(7)
C11 C 0.1360(2) -0.00021(17) 0.07228(8)
H10 H 0.2046 -0.0298 0.0664
C12 C 0.03212(19) -0.04591(17) 0.05600(7)
C13 C -0.06796(19) -0.17472(17) 0.01771(7)
C14 C -0.0741(2) -0.26654(17) -0.00815(7)
C15 C 0.0115(2) -0.33626(17) -0.02134(8)
C16 C 0.1311(2) -0.34339(18) -0.01233(8)
H11 H 0.1721 -0.2941 0.0046
C17 C 0.1871(2) -0.42524(19) -0.02923(9)
H12 H 0.2659 -0.4314 -0.0228
C18 C 0.1270(2) -0.49886(19) -0.05589(9)
H13 H 0.1670 -0.5518 -0.0674
C19 C 0.0096(2) -0.49397(19) -0.06526(8)
H14 H -0.0303 -0.5428 -0.0829
C20 C -0.0473(2) -0.41274(18) -0.04727(8)
C21 C -0.1796(2) -0.30514(17) -0.02593(7)
C22 C -0.28435(19) -0.25818(17) -0.01685(8)
C23 C -0.4680(2) -0.21912(18) -0.01090(8)
C24 C -0.5872(2) -0.21533(18) -0.01488(8)
H15 H -0.6309 -0.2598 -0.0335
C25 C -0.6390(2) -0.14306(19) 0.00986(8)
H16 H -0.7184 -0.1387 0.0075
C26 C -0.5728(2) -0.07668(19) 0.03842(8)
H17 H -0.6091 -0.0309 0.0555
C27 C -0.4543(2) -0.07843(18) 0.04145(8)
H18 H -0.4113 -0.0332 0.0599
C28 C -0.40002(19) -0.14960(17) 0.01613(8)
C29 C -0.28212(19) -0.17375(17) 0.01100(7)
C30 C -0.17557(19) -0.12636(17) 0.02726(7)
C31 C -0.07341(19) 0.00196(17) 0.06482(7)
C32 C -0.0713(2) 0.09372(17) 0.08846(8)
H19 H -0.1396 0.1255 0.0932
C33 C 0.0323(2) 0.13714(17) 0.10483(7)
C34 C 0.1316(2) 0.26654(17) 0.14341(8)
C35 C 0.1279(2) 0.36759(17) 0.16473(8)
C36 C 0.0464(2) 0.39962(18) 0.19394(8)
C37 C -0.0459(2) 0.3544(2) 0.21196(10)
H20 H -0.0692 0.2890 0.2035
C38 C -0.1025(3) 0.4073(3) 0.24232(12)
H21 H -0.1627 0.3764 0.2546
C39 C -0.0700(3) 0.5078(2) 0.25490(11)
H22 H -0.1093 0.5421 0.2753
C40 C 0.0194(2) 0.5556(2) 0.23730(10)
H23 H 0.0409 0.6218 0.2453
C41 C 0.0765(2) 0.50066(18) 0.20697(8)
C42 C 0.1998(2) 0.44878(18) 0.16044(8)
H24 H 0.2602 0.4491 0.1432
S4 S 0.24412(13) 0.81132(9) 0.16256(4)
O4 O 0.2520(5) 0.7313(4) 0.19764(17)
C49 C 0.2421(10) 0.7438(7) 0.1116(3)
H43 H 0.1704 0.7088 0.1056
H44 H 0.3035 0.6953 0.1137
H45 H 0.2512 0.7910 0.0883
C50 C 0.3807(8) 0.8667(8) 0.1634(3)
H46 H 0.3969 0.9063 0.1898
H47 H 0.3827 0.9099 0.1381
H48 H 0.4371 0.8140 0.1628
C51? C 0.256(2) 0.749(2) 0.1143(8)
C52? C 0.3055(10) 0.8947(6) 0.1719(3)
H49? H 0.2678 0.6820 0.1031
H50? H 0.2692 0.7986 0.0923
H51? H 0.1790 0.7549 0.1216
H52? H 0.3454 0.9183 0.1991
H53? H 0.2247 0.8948 0.1741
H54? H 0.3219 0.9388 0.1483
O5? O 0.3076(6) 0.7059(5) 0.1967(2)
S5? S 0.35038(17) 0.76951(14) 0.16113(6)
loop_
_geom_bond_atom_site_label_1
_geom_bond_atom_site_label_2
_geom_bond_site_symmetry_1
_geom_bond_site_symmetry_2
S1 O1 1_555 1_555
S2 O2 1_555 1_555
S3 O3 1_555 1_555
N1 H1 1_555 1_555
N2 H2 1_555 1_555
N3 C9 1_555 1_555
N4 C33 1_555 1_555
N5 C12 1_555 1_555
N6 C30 1_555 1_555
N7 H3 1_555 1_555
N8 H4 1_555 1_555
C1 N1 1_555 1_555
H5 C1 1_555 1_555
C2 N1 1_555 1_555
C3 C2 1_555 1_555
H6 C3 1_555 1_555
C4 C3 1_555 1_555
H7 C4 1_555 1_555
C5 C4 1_555 1_555
H8 C5 1_555 1_555
C6 C5 1_555 1_555
H9 C6 1_555 1_555
C7 C2 1_555 1_555
C8 C1 1_555 1_555
C9 C8 1_555 1_555
C10 N3 1_555 1_555
C11 C10 1_555 1_555
H10 C11 1_555 1_555
C12 C11 1_555 1_555
C13 N5 1_555 1_555
C14 C13 1_555 1_555
C15 C14 1_555 1_555
C16 C15 1_555 1_555
H11 C16 1_555 1_555
C17 C16 1_555 1_555
H12 C17 1_555 1_555
C18 C17 1_555 1_555
H13 C18 1_555 1_555
C19 C18 1_555 1_555
H14 C19 1_555 1_555
C20 N7 1_555 1_555
C21 N7 1_555 1_555
C22 N8 1_555 1_555
C23 N8 1_555 1_555
C24 C23 1_555 1_555
H15 C24 1_555 1_555
C25 C24 1_555 1_555
H16 C25 1_555 1_555
C26 C25 1_555 1_555
H17 C26 1_555 1_555
C27 C26 1_555 1_555
H18 C27 1_555 1_555
C28 C23 1_555 1_555
C29 C22 1_555 1_555
C30 C13 1_555 1_555
C31 N6 1_555 1_555
C32 C31 1_555 1_555
H19 C32 1_555 1_555
C33 C10 1_555 1_555
C34 N4 1_555 1_555
C35 C34 1_555 1_555
C36 C35 1_555 1_555
C37 C36 1_555 1_555
H20 C37 1_555 1_555
C38 C37 1_555 1_555
H21 C38 1_555 1_555
C39 C38 1_555 1_555
H22 C39 1_555 1_555
C40 C39 1_555 1_555
H23 C40 1_555 1_555
C41 N2 1_555 1_555
C42 N2 1_555 1_555
H24 C42 1_555 1_555
C43 S1 1_555 1_555
H25 C43 1_555 1_555
H26 C43 1_555 1_555
H27 C43 1_555 1_555
C44 S1 1_555 1_555
H28 C44 1_555 1_555
H29 C44 1_555 1_555
H30 C44 1_555 1_555
C45 S2 1_555 1_555
H31 C45 1_555 1_555
H32 C45 1_555 1_555
H33 C45 1_555 1_555
C46 S2 1_555 1_555
H34 C46 1_555 1_555
H35 C46 1_555 1_555
H36 C46 1_555 1_555
C47 S3 1_555 1_555
H37 C47 1_555 1_555
H38 C47 1_555 1_555
H39 C47 1_555 1_555
C48 S3 1_555 1_555
H40 C48 1_555 1_555
H41 C48 1_555 1_555
H42 C48 1_555 1_555
S4 O4 1_555 1_555
C49 S4 1_555 1_555
H43 C49 1_555 1_555
H44 C49 1_555 1_555
H45 C49 1_555 1_555
C50 S4 1_555 1_555
H46 C50 1_555 1_555
H47 C50 1_555 1_555
H48 C50 1_555 1_555
C6 C7 1_555 1_555
C7 C8 1_555 1_555
C9 C34 1_555 1_555
C12 C31 1_555 1_555
C14 C21 1_555 1_555
C15 C20 1_555 1_555
C19 C20 1_555 1_555
C21 C22 1_555 1_555
C27 C28 1_555 1_555
C28 C29 1_555 1_555
C29 C30 1_555 1_555
C32 C33 1_555 1_555
C35 C42 1_555 1_555
C36 C41 1_555 1_555
C40 C41 1_555 1_555

#END
