
#######################################################################
#
#                 Cambridge Crystallographic Data Centre
#                                CCDC 
#
#######################################################################
#
# If this CIF has been generated from an entry in the Cambridge 
# Structural Database, then it will include bibliographic, chemical, 
# crystal, experimental, refinement or atomic coordinate data resulting 
# from the CCDC's data processing and validation procedures.
#
#######################################################################

data_TUVCAP
_chemical_formula_moiety         'C28 H36 N2 O3'
_chemical_name_systematic        
'4-(1H-Imidazol-1-yl)phenyl 4-(dodecyloxy)benzoate'
_symmetry_cell_setting           triclinic
_symmetry_space_group_name_H-M   'P -1'
_symmetry_Int_Tables_number      2
_space_group_name_Hall           '-P 1'
loop_
_symmetry_equiv_pos_site_id
_symmetry_equiv_pos_as_xyz
1 x,y,z
2 -x,-y,-z
_cell_length_a                   6.988(5)
_cell_length_b                   12.565(5)
_cell_length_c                   15.054(5)
_cell_angle_alpha                80.395(5)
_cell_angle_beta                 83.604(5)
_cell_angle_gamma                81.783(5)
_cell_volume                     1284.69
_cell_formula_units_Z            2
loop_
_atom_site_label
_atom_site_type_symbol
_atom_site_fract_x
_atom_site_fract_y
_atom_site_fract_z
O1 O -0.5997(5) 0.4095(3) 0.1651(2)
O2 O -0.6563(6) 0.5602(3) 0.0619(3)
O3 O -0.0010(6) 0.6644(3) 0.2899(2)
N1 N -1.0980(6) 0.1496(4) 0.0651(3)
N2 N -1.2470(8) 0.0108(4) 0.0599(4)
C1 C -1.2276(8) 0.1811(4) 0.0014(4)
H2 H -1.2495 0.2499 -0.0327
C2 C -1.3169(8) 0.0962(5) -0.0032(4)
H3 H -1.4103 0.0943 -0.0422
C3 C -1.1102(9) 0.0433(5) 0.1006(4)
H4 H -1.0369 0.0014 0.1449
C4 C -0.9697(8) 0.2182(5) 0.0900(3)
C5 C -0.7873(8) 0.1758(4) 0.1130(3)
H5 H -0.7441 0.1025 0.1120
C6 C -0.6683(7) 0.2419(4) 0.1376(3)
H6 H -0.5459 0.2130 0.1554
C7 C -0.7315(8) 0.3514(4) 0.1357(3)
C8 C -0.9128(7) 0.3953(4) 0.1107(3)
H7 H -0.9547 0.4691 0.1095
C9 C -1.0318(7) 0.3271(4) 0.0871(3)
H8 H -1.1544 0.3554 0.0694
C10 C -0.5716(8) 0.5124(5) 0.1243(4)
C11 C -0.4216(8) 0.5533(4) 0.1681(4)
C12 C -0.3466(7) 0.4965(4) 0.2462(4)
H9 H -0.3876 0.4302 0.2722
C13 C -0.2096(8) 0.5391(5) 0.2855(4)
H10 H -0.1634 0.5033 0.3396
C14 C -0.1432(8) 0.6340(5) 0.2441(4)
C15 C -0.2153(7) 0.6928(4) 0.1673(4)
H11 H -0.1731 0.7590 0.1416
C16 C -0.3565(7) 0.6492(4) 0.1287(3)
H12 H -0.4059 0.6864 0.0757
C17 C 0.0756(8) 0.7596(4) 0.2543(3)
H13 H -0.0252 0.8213 0.2536
H14 H 0.1323 0.7564 0.1929
C18 C 0.2311(7) 0.7706(4) 0.3149(3)
H15 H 0.1748 0.7663 0.3771
H16 H 0.3346 0.7107 0.3119
C19 C 0.3151(7) 0.8773(4) 0.2869(3)
H17 H 0.2107 0.9367 0.2904
H18 H 0.3683 0.8816 0.2243
C20 C 0.4731(7) 0.8930(4) 0.3439(3)
H19 H 0.4227 0.8838 0.4070
H20 H 0.5814 0.8364 0.3371
C21 C 0.5467(7) 1.0014(4) 0.3201(3)
H21 H 0.4388 1.0578 0.3280
H22 H 0.5946 1.0111 0.2567
C22 C 0.7056(7) 1.0168(4) 0.3748(4)
H23 H 0.8142 0.9609 0.3665
H24 H 0.6583 1.0065 0.4383
C23 C 0.7774(7) 1.1266(4) 0.3510(4)
H25 H 0.8247 1.1367 0.2875
H26 H 0.6683 1.1823 0.3590
C24 C 0.9348(8) 1.1435(4) 0.4050(4)
H27 H 0.8867 1.1321 0.4684
H28 H 1.0427 1.0872 0.3968
C25 C 1.0112(8) 1.2488(5) 0.3858(4)
H29 H 0.9021 1.3049 0.3926
H30 H 1.0609 1.2592 0.3226
C26 C 1.1646(9) 1.2697(5) 0.4389(4)
H31 H 1.1163 1.2584 0.5023
H32 H 1.2751 1.2148 0.4312
C27 C 1.2329(12) 1.3720(7) 0.4200(6)
H33 H 1.1842 1.4254 0.3747
C28 C 1.3696(11) 1.3901(6) 0.4691(5)
H34 H 1.4049 1.4618 0.4484
H35 H 1.4817 1.3372 0.4626
H36 H 1.3203 1.3844 0.5316
H1? H -1.2851 -0.0525 0.0711
loop_
_geom_bond_atom_site_label_1
_geom_bond_atom_site_label_2
_geom_bond_site_symmetry_1
_geom_bond_site_symmetry_2
O1 C7 1_555 1_555
O2 C10 1_555 1_555
O3 C14 1_555 1_555
N1 C1 1_555 1_555
N2 C2 1_555 1_555
C1 H2 1_555 1_555
C2 C1 1_555 1_555
H3 C2 1_555 1_555
C3 N1 1_555 1_555
H4 C3 1_555 1_555
C4 N1 1_555 1_555
C5 C4 1_555 1_555
H5 C5 1_555 1_555
C6 C5 1_555 1_555
H6 C6 1_555 1_555
C7 C6 1_555 1_555
C8 C7 1_555 1_555
H7 C8 1_555 1_555
C9 C4 1_555 1_555
H8 C9 1_555 1_555
C10 O1 1_555 1_555
C11 C10 1_555 1_555
C12 C11 1_555 1_555
H9 C12 1_555 1_555
C13 C12 1_555 1_555
H10 C13 1_555 1_555
C14 C13 1_555 1_555
C15 C14 1_555 1_555
H11 C15 1_555 1_555
C16 C11 1_555 1_555
H12 C16 1_555 1_555
C17 O3 1_555 1_555
H13 C17 1_555 1_555
H14 C17 1_555 1_555
C18 C17 1_555 1_555
H15 C18 1_555 1_555
H16 C18 1_555 1_555
C19 C18 1_555 1_555
H17 C19 1_555 1_555
H18 C19 1_555 1_555
C20 C19 1_555 1_555
H19 C20 1_555 1_555
H20 C20 1_555 1_555
C21 C20 1_555 1_555
H21 C21 1_555 1_555
H22 C21 1_555 1_555
C22 C21 1_555 1_555
H23 C22 1_555 1_555
H24 C22 1_555 1_555
C23 C22 1_555 1_555
H25 C23 1_555 1_555
H26 C23 1_555 1_555
C24 C23 1_555 1_555
H27 C24 1_555 1_555
H28 C24 1_555 1_555
C25 C24 1_555 1_555
H29 C25 1_555 1_555
H30 C25 1_555 1_555
C26 C25 1_555 1_555
H31 C26 1_555 1_555
H32 C26 1_555 1_555
C27 C26 1_555 1_555
H33 C27 1_555 1_555
C28 C27 1_555 1_555
H34 C28 1_555 1_555
H35 C28 1_555 1_555
H36 C28 1_555 1_555
N2 C3 1_555 1_555
C8 C9 1_555 1_555
C15 C16 1_555 1_555

#END
