
#######################################################################
#
#                 Cambridge Crystallographic Data Centre
#                                CCDC 
#
#######################################################################
#
# If this CIF has been generated from an entry in the Cambridge 
# Structural Database, then it will include bibliographic, chemical, 
# crystal, experimental, refinement or atomic coordinate data resulting 
# from the CCDC's data processing and validation procedures.
#
#######################################################################

data_TUVDIY
_chemical_formula_moiety         
'C42 H24 N8,2.5(C3 H7 N1 O1),H2 O4 P1 1-,C16 H36 N1 1+'
_chemical_name_systematic        
"14,15-bis(1H-indol-3-yl)-5,6-dihydrodiindolo[3,2-a:2',3'-c]pyrazino[2,3-i]phenazinetetra-n-butylammonium dihydrogen phosphate N,N-dimethylformamide solvate"
_symmetry_cell_setting           triclinic
_symmetry_space_group_name_H-M   'P -1'
_symmetry_Int_Tables_number      2
_space_group_name_Hall           '-P 1'
loop_
_symmetry_equiv_pos_site_id
_symmetry_equiv_pos_as_xyz
1 x,y,z
2 -x,-y,-z
_cell_length_a                   12.556(3)
_cell_length_b                   14.228(3)
_cell_length_c                   18.905(4)
_cell_angle_alpha                77.81(3)
_cell_angle_beta                 75.65(3)
_cell_angle_gamma                86.64(3)
_cell_volume                     3198.1
_cell_formula_units_Z            2
loop_
_atom_site_label
_atom_site_type_symbol
_atom_site_fract_x
_atom_site_fract_y
_atom_site_fract_z
C1 C 0.9326(3) 0.5403(3) 0.2884(2)
C2 C 1.0354(3) 0.4837(3) 0.2860(2)
C3 C 1.1061(3) 0.4691(3) 0.2210(2)
H1 H 1.0939 0.4894 0.1735
C4 C 1.1877(3) 0.4037(3) 0.3119(2)
C5 C 1.2627(3) 0.3611(3) 0.3525(3)
H2 H 1.3291 0.3358 0.3295
C6 C 1.2346(4) 0.3578(3) 0.4285(3)
H3 H 1.2836 0.3312 0.4570
C7 C 1.1329(4) 0.3940(3) 0.4632(3)
H4 H 1.1151 0.3896 0.5146
C8 C 1.0596(3) 0.4358(3) 0.4227(2)
H5 H 0.9926 0.4595 0.4463
C9 C 1.0867(3) 0.4422(3) 0.3455(2)
C10 C 0.8244(3) 0.5047(3) 0.3351(2)
C11 C 0.8033(3) 0.4046(3) 0.3729(2)
C12 C 0.8723(3) 0.3257(3) 0.3668(2)
H6 H 0.9438 0.3281 0.3375
C13 C 0.7160(3) 0.2666(3) 0.4450(2)
C14 C 0.6361(3) 0.2058(3) 0.4946(2)
H7 H 0.6498 0.1404 0.5084
C15 C 0.5362(4) 0.2454(3) 0.5228(3)
H8 H 0.4814 0.2066 0.5566
C16 C 0.5166(3) 0.3439(3) 0.5005(2)
H9 H 0.4479 0.3692 0.5191
C17 C 0.5969(3) 0.4047(3) 0.4518(2)
H10 H 0.5824 0.4700 0.4381
C18 C 0.7002(3) 0.3664(3) 0.4233(2)
C19 C 0.8523(3) 0.6853(3) 0.2490(2)
C20 C 0.8620(3) 0.7766(3) 0.2031(2)
H11 H 0.9279 0.7948 0.1685
C21 C 0.7736(3) 0.8408(3) 0.2089(2)
C22 C 0.6987(3) 0.9891(3) 0.1705(2)
C23 C 0.5934(3) 0.9575(3) 0.2230(2)
C24 C 0.6705(3) 0.8110(3) 0.2617(2)
C25 C 0.6615(3) 0.7189(3) 0.3062(2)
H12 H 0.5954 0.6995 0.3401
C26 C 0.7510(3) 0.6553(3) 0.3002(2)
C27 C 0.7059(3) 1.0832(3) 0.1247(2)
C28 C 0.7963(3) 1.1352(3) 0.0702(2)
C29 C 0.9065(3) 1.1140(3) 0.0414(2)
H13 H 0.9357 1.0536 0.0567
C30 C 0.9708(3) 1.1839(3) -0.0097(2)
H14 H 1.0446 1.1707 -0.0284
C31 C 0.9285(3) 1.2751(3) -0.0349(2)
H15 H 0.9744 1.3205 -0.0702
C32 C 0.8193(3) 1.2982(3) -0.0077(2)
H16 H 0.7909 1.3586 -0.0235
C33 C 0.7538(3) 1.2270(3) 0.0445(2)
C34 C 0.6152(3) 1.1447(3) 0.1282(2)
C35 C 0.5124(3) 1.1146(3) 0.1777(2)
C36 C 0.5022(3) 1.0236(3) 0.2246(2)
C37 C 0.3914(3) 1.0176(3) 0.2700(2)
C38 C 0.3315(3) 0.9492(3) 0.3281(2)
H17 H 0.3634 0.8905 0.3444
C39 C 0.2240(3) 0.9700(3) 0.3614(2)
H18 H 0.1837 0.9253 0.4007
C40 C 0.1753(3) 1.0578(3) 0.3362(3)
H19 H 0.1027 1.0700 0.3589
C41 C 0.2323(3) 1.1265(3) 0.2786(2)
H20 H 0.1996 1.1847 0.2622
C42 C 0.3399(3) 1.1054(3) 0.2463(2)
H21 H 1.251(3) 0.399(4) 0.202(2)
H22 H 0.849(3) 0.1839(13) 0.415(2)
H23 H 0.594(3) 1.277(3) 0.068(3)
H24 H 0.390(4) 1.2201(18) 0.170(3)
N1 N 1.1974(3) 0.4201(3) 0.2366(2)
N2 N 0.8212(3) 0.2444(2) 0.4096(2)
N3 N 0.9437(3) 0.6263(2) 0.24533(19)
N4 N 0.7389(3) 0.5636(2) 0.34177(18)
N5 N 0.7858(3) 0.9307(2) 0.16408(18)
N6 N 0.5810(3) 0.8714(2) 0.26773(18)
N7 N 0.6437(3) 1.2316(2) 0.08026(19)
N8 N 0.4156(3) 1.1637(2) 0.19061(19)
C43 C 0.4381(5) 0.6246(4) 0.1614(3)
H25 H 0.3802 0.5772 0.1814
H26 H 0.4575 0.6313 0.1077
C44 C 0.5362(6) 0.5863(5) 0.1900(4)
H27 H 0.5244 0.5908 0.2419
H28 H 0.6006 0.6237 0.1615
C45 C 0.5538(7) 0.4817(5) 0.1824(4)
H29 H 0.4885 0.4453 0.2105
H30 H 0.5645 0.4781 0.1304
C46 C 0.6474(8) 0.4390(7) 0.2088(6)
H31 H 0.6556 0.3734 0.2029
H32 H 0.6364 0.4410 0.2605
H33 H 0.7124 0.4741 0.1805
C47 C 0.3622(4) 0.7128(4) 0.2637(3)
H34 H 0.4294 0.7144 0.2799
H35 H 0.3192 0.7693 0.2742
C48 C 0.2983(5) 0.6246(4) 0.3092(3)
H36 H 0.3437 0.5677 0.3042
H37 H 0.2340 0.6186 0.2907
C49 C 0.2623(4) 0.6320(4) 0.3917(3)
H38 H 0.2475 0.5680 0.4222
H39 H 0.3221 0.6585 0.4052
C50 C 0.1624(5) 0.6933(4) 0.4081(3)
H40 H 0.1438 0.6961 0.4601
H41 H 0.1022 0.6664 0.3963
H42 H 0.1768 0.7571 0.3786
C51 C 0.2911(5) 0.7389(4) 0.1470(4)
H43 H 0.3130 0.7319 0.0954
H44 H 0.2381 0.6888 0.1734
C52 C 0.2325(6) 0.8352(5) 0.1488(5)
H45 H 0.2849 0.8812 0.1512
H46 H 0.2114 0.8567 0.1020
C53 C 0.1388(7) 0.8386(8) 0.2068(6)
H47 H 0.1599 0.8264 0.2539
H48 H 0.0883 0.7886 0.2087
C54 C 0.0782(6) 0.9413(7) 0.1954(5)
H49 H 0.0151 0.9418 0.2362
H50 H 0.0552 0.9526 0.1495
H51 H 0.1280 0.9909 0.1936
C55 C 0.4756(4) 0.7993(4) 0.1453(3)
H52 H 0.4459 0.8565 0.1637
H53 H 0.5415 0.7809 0.1631
C56 C 0.5080(5) 0.8250(4) 0.0615(3)
H54 H 0.4475 0.8578 0.0428
H55 H 0.5252 0.7670 0.0415
C57 C 0.6087(6) 0.8906(5) 0.0367(4)
H56 H 0.5880 0.9503 0.0536
H57 H 0.6648 0.8600 0.0612
C58 C 0.6568(7) 0.9133(6) -0.0444(4)
H58 H 0.7190 0.9547 -0.0549
H59 H 0.6028 0.9453 -0.0693
H60 H 0.6801 0.8550 -0.0617
N9 N 0.3924(4) 0.7192(3) 0.1791(2)
C59 C 0.5656(7) 0.0350(7) 0.3895(5)
H61 H 0.5289 -0.0174 0.4230
C60 C 0.3952(6) 0.1192(5) 0.4248(4)
H62 H 0.3753 0.0567 0.4550
H63 H 0.3475 0.1372 0.3914
H64 H 0.3879 0.1653 0.4562
C61 C 0.5469(6) 0.2041(7) 0.3352(4)
H65 H 0.6212 0.1954 0.3084
H66 H 0.5448 0.2520 0.3645
H67 H 0.5017 0.2245 0.3005
N10 N 0.5074(5) 0.1172(4) 0.3822(3)
O1 O 0.6518(6) 0.0213(6) 0.3607(5)
C62 C 1.0862(7) 0.2739(8) 0.1158(5)
H68 H 1.1402 0.2265 0.1180
C63 C 0.9408(10) 0.1734(7) 0.2148(5)
H69 H 0.9996 0.1271 0.2137
H70 H 0.8801 0.1477 0.2027
H71 H 0.9176 0.1876 0.2638
C64 C 0.8997(8) 0.3395(8) 0.1533(7)
H72 H 0.9356 0.3921 0.1159
H73 H 0.8738 0.3599 0.1999
H74 H 0.8386 0.3187 0.1385
N11 N 0.9780(6) 0.2593(6) 0.1619(4)
O2 O 1.1054(8) 0.3543(7) 0.0718(5)
C65 C 0.8703(4) 0.9965(4) 0.4018(3)
H75 H 0.8365 1.0186 0.3628
C66 C 0.8455(6) 0.8356(4) 0.3860(4)
H76 H 0.8162 0.8707 0.3457
H77 H 0.7891 0.7958 0.4214
H78 H 0.9057 0.7959 0.3668
C67 C 0.9317(4) 0.8632(4) 0.4836(3)
H79 H 0.9538 0.9147 0.5022
H80 H 0.9947 0.8247 0.4672
H81 H 0.8786 0.8241 0.5225
N12 N 0.8836(3) 0.9022(3) 0.4221(2)
O3 O 0.8996(3) 1.0569(2) 0.4312(2)
H82 H 0.402(4) 0.544(3) 0.036(3)
H83 H 0.265(3) 0.391(5) 0.001(4)
O4 O 0.3573(2) 0.4994(2) 0.05999(17)
O5 O 0.3300(3) 0.3678(3) -0.0032(2)
O6 O 0.5068(2) 0.37583(19) 0.02870(16)
O7 O 0.3355(2) 0.3331(2) 0.13171(17)
P1 P 0.38514(9) 0.39143(7) 0.05662(6)
C68? C 1.0887(11) 0.3836(12) 0.0477(7)
H84? H 1.1269 0.3276 0.0619
C69? C 0.9107(14) 0.4700(12) 0.0808(12)
H85? H 0.8415 0.4632 0.1171
H86? H 0.8982 0.4755 0.0320
H87? H 0.9469 0.5268 0.0826
C70? C 0.9418(16) 0.3083(12) 0.1580(9)
H88? H 0.8692 0.3213 0.1855
H89? H 0.9913 0.2998 0.1903
H90? H 0.9410 0.2508 0.1392
N13? N 0.9779(10) 0.3881(9) 0.0965(7)
O8? O 1.1416(9) 0.4380(8) -0.0080(7)
loop_
_geom_bond_atom_site_label_1
_geom_bond_atom_site_label_2
_geom_bond_site_symmetry_1
_geom_bond_site_symmetry_2
C1 C2 1_555 1_555
C2 C3 1_555 1_555
C3 H1 1_555 1_555
C4 C5 1_555 1_555
C5 H2 1_555 1_555
C6 C5 1_555 1_555
H3 C6 1_555 1_555
C7 C6 1_555 1_555
H4 C7 1_555 1_555
C8 C7 1_555 1_555
H5 C8 1_555 1_555
C9 C2 1_555 1_555
C10 C1 1_555 1_555
C11 C10 1_555 1_555
C12 C11 1_555 1_555
H6 C12 1_555 1_555
C13 C14 1_555 1_555
C14 H7 1_555 1_555
C15 C14 1_555 1_555
H8 C15 1_555 1_555
C16 C15 1_555 1_555
H9 C16 1_555 1_555
C17 C16 1_555 1_555
H10 C17 1_555 1_555
C18 C11 1_555 1_555
C19 C20 1_555 1_555
C20 H11 1_555 1_555
C21 C20 1_555 1_555
C22 C23 1_555 1_555
C23 C36 1_555 1_555
C24 C21 1_555 1_555
C25 C24 1_555 1_555
H12 C25 1_555 1_555
C26 C19 1_555 1_555
C27 C22 1_555 1_555
C28 C27 1_555 1_555
C29 C28 1_555 1_555
H13 C29 1_555 1_555
C30 C29 1_555 1_555
H14 C30 1_555 1_555
C31 C30 1_555 1_555
H15 C31 1_555 1_555
C32 C31 1_555 1_555
H16 C32 1_555 1_555
C33 C28 1_555 1_555
C34 C27 1_555 1_555
C35 C34 1_555 1_555
C36 C35 1_555 1_555
C37 C36 1_555 1_555
C38 C37 1_555 1_555
H17 C38 1_555 1_555
C39 C38 1_555 1_555
H18 C39 1_555 1_555
C40 C39 1_555 1_555
H19 C40 1_555 1_555
C41 C40 1_555 1_555
H20 C41 1_555 1_555
C42 C37 1_555 1_555
H21 N1 1_555 1_555
H22 N2 1_555 1_555
H23 N7 1_555 1_555
H24 N8 1_555 1_555
N1 C3 1_555 1_555
N2 C12 1_555 1_555
N3 C1 1_555 1_555
N4 C10 1_555 1_555
N5 C21 1_555 1_555
N6 C23 1_555 1_555
N7 C33 1_555 1_555
N8 C35 1_555 1_555
C43 H25 1_555 1_555
H26 C43 1_555 1_555
C44 C43 1_555 1_555
H27 C44 1_555 1_555
H28 C44 1_555 1_555
C45 C44 1_555 1_555
H29 C45 1_555 1_555
H30 C45 1_555 1_555
C46 C45 1_555 1_555
H31 C46 1_555 1_555
H32 C46 1_555 1_555
H33 C46 1_555 1_555
C47 H34 1_555 1_555
H35 C47 1_555 1_555
C48 C47 1_555 1_555
H36 C48 1_555 1_555
H37 C48 1_555 1_555
C49 C48 1_555 1_555
H38 C49 1_555 1_555
H39 C49 1_555 1_555
C50 C49 1_555 1_555
H40 C50 1_555 1_555
H41 C50 1_555 1_555
H42 C50 1_555 1_555
C51 H43 1_555 1_555
H44 C51 1_555 1_555
C52 C51 1_555 1_555
H45 C52 1_555 1_555
H46 C52 1_555 1_555
C53 C52 1_555 1_555
H47 C53 1_555 1_555
H48 C53 1_555 1_555
C54 C53 1_555 1_555
H49 C54 1_555 1_555
H50 C54 1_555 1_555
H51 C54 1_555 1_555
C55 H52 1_555 1_555
H53 C55 1_555 1_555
C56 C55 1_555 1_555
H54 C56 1_555 1_555
H55 C56 1_555 1_555
C57 C56 1_555 1_555
H56 C57 1_555 1_555
H57 C57 1_555 1_555
C58 C57 1_555 1_555
H58 C58 1_555 1_555
H59 C58 1_555 1_555
H60 C58 1_555 1_555
N9 C43 1_555 1_555
C59 H61 1_555 1_555
C60 H62 1_555 1_555
H63 C60 1_555 1_555
H64 C60 1_555 1_555
C61 H65 1_555 1_555
H66 C61 1_555 1_555
H67 C61 1_555 1_555
N10 C59 1_555 1_555
O1 C59 1_555 1_555
C62 H68 1_555 1_555
C63 H69 1_555 1_555
H70 C63 1_555 1_555
H71 C63 1_555 1_555
C64 H72 1_555 1_555
H73 C64 1_555 1_555
H74 C64 1_555 1_555
N11 C62 1_555 1_555
O2 C62 1_555 1_555
C65 H75 1_555 1_555
C66 H76 1_555 1_555
H77 C66 1_555 1_555
H78 C66 1_555 1_555
C67 H79 1_555 1_555
H80 C67 1_555 1_555
H81 C67 1_555 1_555
N12 C65 1_555 1_555
O3 C65 1_555 1_555
H82 O4 1_555 1_555
H83 O5 1_555 1_555
O4 P1 1_555 1_555
O5 P1 1_555 1_555
O6 P1 1_555 1_555
O7 P1 1_555 1_555
C4 C9 1_555 1_555
C4 N1 1_555 1_555
C8 C9 1_555 1_555
C13 C18 1_555 1_555
C13 N2 1_555 1_555
C17 C18 1_555 1_555
C19 N3 1_555 1_555
C22 N5 1_555 1_555
C24 N6 1_555 1_555
C25 C26 1_555 1_555
C26 N4 1_555 1_555
C32 C33 1_555 1_555
C34 N7 1_555 1_555
C41 C42 1_555 1_555
C42 N8 1_555 1_555
C47 N9 1_555 1_555
C51 N9 1_555 1_555
C55 N9 1_555 1_555
C60 N10 1_555 1_555
C61 N10 1_555 1_555
C63 N11 1_555 1_555
C64 N11 1_555 1_555
C66 N12 1_555 1_555
C67 N12 1_555 1_555

#END
