
#######################################################################
#
#                 Cambridge Crystallographic Data Centre
#                                CCDC 
#
#######################################################################
#
# If this CIF has been generated from an entry in the Cambridge 
# Structural Database, then it will include bibliographic, chemical, 
# crystal, experimental, refinement or atomic coordinate data resulting 
# from the CCDC's data processing and validation procedures.
#
#######################################################################

data_TUVDOE
_chemical_formula_moiety         
'C42 H26 N8,3(C3 H7 N1 O1),2(H2 O4 P1 1-),H2 O1,2(C16 H36 N1 1+)'
_chemical_name_systematic        
'2,3,7,8-tetrakis(1H-indol-3-yl)pyrazino[2,3-g]quinoxaline bis(tetra-n-butylmmnonium dihydrogen phosphate) N,N-dimethylformamide solvate monohydrate'
_symmetry_cell_setting           triclinic
_symmetry_space_group_name_H-M   'P 1'
_symmetry_Int_Tables_number      1
_space_group_name_Hall           'P 1'
loop_
_symmetry_equiv_pos_site_id
_symmetry_equiv_pos_as_xyz
1 x,y,z
_cell_length_a                   11.243(2)
_cell_length_b                   13.811(3)
_cell_length_c                   14.311(3)
_cell_angle_alpha                94.54(3)
_cell_angle_beta                 100.60(3)
_cell_angle_gamma                103.11(3)
_cell_volume                     2110.29
_cell_formula_units_Z            1
loop_
_atom_site_label
_atom_site_type_symbol
_atom_site_fract_x
_atom_site_fract_y
_atom_site_fract_z
C1 C 1.1331(3) 1.0451(3) 1.0932(2)
H1 H 1.0678 1.0661 1.0576
C2 C 1.2743(3) 1.0270(3) 1.2182(3)
C3 C 1.3465(3) 1.0320(3) 1.3086(3)
H2 H 1.3398 1.0741 1.3603
C4 C 1.4295(4) 0.9712(4) 1.3183(3)
H3 H 1.4781 0.9711 1.3783
C5 C 1.4416(4) 0.9105(4) 1.2404(3)
H4 H 1.4986 0.8709 1.2494
C6 C 1.3714(3) 0.9074(3) 1.1502(3)
H5 H 1.3812 0.8666 1.0987
C7 C 1.2849(3) 0.9665(3) 1.1370(2)
C8 C 1.1938(3) 0.9802(3) 1.0573(2)
C9 C 1.1634(3) 0.9317(3) 0.9579(2)
C10 C 1.0137(3) 0.8388(3) 0.8296(2)
C11 C 0.8893(3) 0.7976(3) 0.7866(2)
H6 H 0.8266 0.8101 0.8166
C12 C 0.8583(3) 0.7371(3) 0.6981(2)
C13 C 0.7094(3) 0.6360(3) 0.5747(2)
C14 C 0.5792(3) 0.5829(3) 0.5365(2)
C15 C 0.4700(3) 0.6214(3) 0.5402(2)
C16 C 0.4535(3) 0.7131(3) 0.5731(3)
H7 H 0.5218 0.7657 0.6009
C17 C 0.3338(3) 0.7250(3) 0.5638(3)
H8 H 0.3214 0.7863 0.5861
C18 C 0.2300(3) 0.6461(3) 0.5211(3)
H9 H 0.1500 0.6558 0.5165
C19 C 0.2449(3) 0.5549(3) 0.4861(2)
H10 H 0.1766 0.5032 0.4563
C20 C 0.3667(3) 0.5431(3) 0.4970(2)
C21 C 0.5346(3) 0.4855(3) 0.4928(2)
H11 H 0.5846 0.4426 0.4811
C22 C 0.8545(3) 0.5122(3) 0.3954(3)
H12 H 0.9188 0.4939 0.4352
C23 C 0.7218(3) 0.5264(3) 0.2639(3)
C24 C 0.6602(3) 0.5216(3) 0.1699(3)
H13 H 0.6788 0.4839 0.1202
C25 C 0.5714(4) 0.5741(3) 0.1531(3)
H14 H 0.5285 0.5724 0.0906
C26 C 0.5429(3) 0.6313(3) 0.2288(3)
H15 H 0.4822 0.6670 0.2153
C27 C 0.6034(3) 0.6345(3) 0.3212(3)
H16 H 0.5834 0.6714 0.3706
C28 C 0.6959(3) 0.5820(3) 0.3412(3)
C29 C 0.7827(3) 0.5727(3) 0.4258(2)
C30 C 0.8083(3) 0.6248(3) 0.5232(2)
C31 C 0.9551(3) 0.7190(3) 0.6525(2)
C32 C 1.0782(3) 0.7590(3) 0.6968(2)
H17 H 1.1408 0.7444 0.6681
C33 C 1.1103(3) 0.8204(3) 0.7835(2)
C34 C 1.2615(3) 0.9251(3) 0.9046(2)
C35 C 1.3892(3) 0.9841(3) 0.9307(2)
C36 C 1.4922(3) 0.9672(3) 0.8881(2)
C37 C 1.5053(3) 0.8945(3) 0.8200(2)
H18 H 1.4377 0.8419 0.7909
C38 C 1.6209(3) 0.9023(3) 0.7968(2)
H19 H 1.6306 0.8540 0.7516
C39 C 1.7230(3) 0.9806(3) 0.8396(3)
H20 H 1.7993 0.9840 0.8218
C40 C 1.7137(3) 1.0533(3) 0.9075(3)
H21 H 1.7819 1.1054 0.9368
C41 C 1.5965(3) 1.0448(3) 0.9303(2)
C42 C 1.4386(3) 1.0717(3) 0.9942(3)
H22 H 1.3939 1.1014 1.0317
H116 H 1.148(3) 1.108(3) 1.230(2)
H117 H 0.357(3) 0.3991(13) 0.448(2)
H118 H 0.857(3) 0.446(3) 0.268(2)
H119 H 1.608(3) 1.1640(16) 1.029(2)
N1 N 1.1814(3) 1.0749(3) 1.1884(2)
N2 N 1.0455(2) 0.8921(2) 0.92102(19)
N3 N 0.7346(2) 0.6939(2) 0.6575(2)
N4 N 0.4074(2) 0.4606(2) 0.4692(2)
N5 N 0.8182(3) 0.4835(2) 0.3001(2)
N6 N 0.9265(2) 0.6644(2) 0.56346(19)
N7 N 1.2329(2) 0.8649(2) 0.82157(19)
N8 N 1.5612(3) 1.1076(2) 0.9936(2)
C43 C 0.2263(3) 0.2783(3) 0.7874(3)
H23 H 0.2938 0.2565 0.8254
H24 H 0.1826 0.3056 0.8314
C44 C 0.1368(4) 0.1874(3) 0.7258(3)
H25 H 0.1773 0.1610 0.6788
H26 H 0.0643 0.2064 0.6917
C45 C 0.0960(4) 0.1073(3) 0.7887(3)
H27 H 0.0412 0.0486 0.7480
H28 H 0.1690 0.0878 0.8209
C46 C 0.0290(4) 0.1403(3) 0.8633(3)
H29 H 0.0874 0.1887 0.9118
H30 H -0.0075 0.0833 0.8919
H31 H -0.0355 0.1698 0.8334
C47 C 0.1814(3) 0.3922(3) 0.6659(3)
H32 H 0.2207 0.4469 0.6347
H33 H 0.1402 0.3363 0.6166
C48 C 0.0832(3) 0.4246(3) 0.7113(3)
H34 H 0.1196 0.4883 0.7514
H35 H 0.0520 0.3755 0.7514
C49 C -0.0244(4) 0.4349(3) 0.6329(3)
H36 H 0.0059 0.4896 0.5980
H37 H -0.0522 0.3739 0.5880
C50 C -0.1342(4) 0.4543(4) 0.6718(4)
H38 H -0.1604 0.4034 0.7108
H39 H -0.2018 0.4532 0.6196
H40 H -0.1100 0.5187 0.7099
C51 C 0.3672(3) 0.3288(3) 0.6732(3)
H41 H 0.4055 0.3859 0.6444
H42 H 0.3162 0.2784 0.6215
C52 C 0.4706(4) 0.2862(3) 0.7264(3)
H43 H 0.5193 0.3341 0.7808
H44 H 0.4337 0.2251 0.7504
C53 C 0.5551(4) 0.2639(4) 0.6612(3)
H45 H 0.5057 0.2172 0.6062
H46 H 0.5925 0.3254 0.6379
C54 C 0.6574(4) 0.2201(4) 0.7109(4)
H47 H 0.7074 0.2665 0.7649
H48 H 0.7089 0.2077 0.6670
H49 H 0.6210 0.1583 0.7325
C55 C 0.3559(4) 0.4486(3) 0.8100(3)
H50 H 0.2989 0.4670 0.8475
H51 H 0.4177 0.4252 0.8529
C56 C 0.4217(4) 0.5414(3) 0.7741(3)
H52 H 0.3626 0.5630 0.7271
H53 H 0.4865 0.5265 0.7433
C57 C 0.4797(4) 0.6256(3) 0.8573(3)
H54 H 0.5348 0.6020 0.9058
H55 H 0.5298 0.6817 0.8340
C58 C 0.3822(4) 0.6616(3) 0.9031(3)
H56 H 0.3194 0.6747 0.8539
H57 H 0.4219 0.7220 0.9461
H58 H 0.3443 0.6109 0.9380
N9 N 0.2824(3) 0.3615(2) 0.7339(2)
C59 C 1.0882(3) 0.9529(3) 0.4182(3)
H59 H 1.0662 1.0169 0.4219
H60 H 1.1520 0.9578 0.3803
C60 C 1.1442(3) 0.9366(3) 0.5185(3)
H61 H 1.1523 0.8682 0.5188
H62 H 1.0901 0.9478 0.5617
C61 C 1.2729(3) 1.0097(3) 0.5521(3)
H63 H 1.3286 0.9935 0.5123
H64 H 1.2653 1.0772 0.5440
C62 C 1.3290(4) 1.0058(3) 0.6559(3)
H65 H 1.2746 1.0225 0.6957
H66 H 1.4090 1.0530 0.6741
H67 H 1.3389 0.9395 0.6639
C63 C 0.8726(3) 0.8572(3) 0.4229(3)
H68 H 0.9035 0.8316 0.4814
H69 H 0.8022 0.8055 0.3863
C64 C 0.8253(4) 0.9480(3) 0.4501(4)
H70 H 0.8947 1.0014 0.4850
H71 H 0.7881 0.9717 0.3925
C65 C 0.7305(4) 0.9218(4) 0.5109(4)
H72 H 0.6556 0.8787 0.4701
H73 H 0.7621 0.8822 0.5581
C66 C 0.6928(6) 1.0039(5) 0.5631(4)
H74 H 0.7633 1.0433 0.6096
H75 H 0.6273 0.9755 0.5948
H76 H 0.6633 1.0458 0.5183
C67 C 0.9318(4) 0.9107(3) 0.2707(3)
H77 H 0.9227 0.9783 0.2841
H78 H 0.9973 0.9143 0.2346
C68 C 0.8111(4) 0.8483(4) 0.2082(3)
H79 H 0.7419 0.8525 0.2387
H80 H 0.8145 0.7786 0.1998
C69 C 0.7908(5) 0.8869(4) 0.1098(3)
H81 H 0.7868 0.9563 0.1183
H82 H 0.8608 0.8836 0.0799
C70 C 0.6726(4) 0.8255(4) 0.0459(4)
H83 H 0.6784 0.7575 0.0348
H84 H 0.6601 0.8522 -0.0141
H85 H 0.6036 0.8276 0.0760
C71 C 1.0049(3) 0.7720(3) 0.3493(3)
H86 H 1.0161 0.7451 0.4100
H87 H 0.9338 0.7264 0.3064
C72 C 1.1200(4) 0.7736(3) 0.3079(3)
H88 H 1.1942 0.7988 0.3580
H89 H 1.1229 0.8183 0.2588
C73 C 1.1179(4) 0.6685(4) 0.2645(3)
H90 H 1.2013 0.6673 0.2563
H91 H 1.0954 0.6217 0.3092
C74 C 1.0290(5) 0.6340(5) 0.1701(3)
H92 H 0.9472 0.6395 0.1763
H93 H 1.0264 0.5654 0.1501
H94 H 1.0565 0.6749 0.1232
N10 N 0.9742(3) 0.8737(2) 0.3656(2)
C75 C 0.7774(4) 0.1826(3) 0.3797(3)
H95 H 0.8124 0.1471 0.3388
C76 C 0.6169(4) 0.1792(4) 0.2405(3)
H96 H 0.6235 0.2395 0.2107
H97 H 0.5305 0.1449 0.2322
H98 H 0.6602 0.1366 0.2115
C77 C 0.6184(4) 0.2681(4) 0.3989(3)
H99 H 0.6576 0.2740 0.4653
H100 H 0.5304 0.2392 0.3908
H101 H 0.6315 0.3333 0.3779
N11 N 0.6721(3) 0.2043(3) 0.3425(3)
O9 O 0.8344(3) 0.2052(2) 0.4645(2)
C78 C 0.9204(4) 0.4541(4) 0.9480(3)
H102 H 0.8464 0.4114 0.9548
C79 C 1.0265(4) 0.6161(4) 0.9142(4)
H103 H 1.0974 0.5879 0.9283
H104 H 1.0394 0.6758 0.9577
H105 H 1.0163 0.6322 0.8496
C80 C 0.7984(4) 0.5756(4) 0.9089(4)
H106 H 0.7327 0.5217 0.9185
H107 H 0.7795 0.5915 0.8446
H108 H 0.8058 0.6334 0.9534
N12 N 0.9169(3) 0.5450(3) 0.9246(3)
O10 O 1.0170(3) 0.4230(2) 0.9614(2)
C81 C 0.3017(4) 0.3657(4) 0.0576(3)
H109 H 0.2475 0.3949 0.0188
C82 C 0.2424(4) 0.4457(4) 0.1918(4)
H110 H 0.1968 0.4744 0.1424
H111 H 0.3004 0.4984 0.2365
H112 H 0.1852 0.4065 0.2246
C83 C 0.3902(5) 0.3382(4) 0.2148(3)
H113 H 0.4170 0.2877 0.1798
H114 H 0.3450 0.3084 0.2603
H115 H 0.4618 0.3894 0.2480
N13 N 0.3103(3) 0.3819(3) 0.1490(2)
O11 O 0.3595(3) 0.3145(3) 0.0170(2)
H120 H 0.538(5) 0.344(4) 0.997(4)
H121 H 0.647(5) 0.330(5) 0.990(4)
O12 O 0.5952(3) 0.3675(2) 0.9649(2)
H122 H 0.930(3) 0.163(3) 0.214(2)
H123 H 0.970(6) 0.308(4) 0.023(3)
O1 O 0.8724(2) 0.1653(2) 0.16689(18)
O2 O 0.7602(2) 0.2734(2) 0.07098(18)
O3 O 0.9835(2) 0.2712(2) 0.0667(2)
O4 O 0.9328(2) 0.35232(19) 0.21403(16)
P1 P 0.88283(8) 0.27080(7) 0.13055(6)
H124 H 0.024(4) 0.340(4) 0.3216(16)
H125 H -0.0061(15) 0.200(5) 0.472(4)
O5 O 0.2585(2) 0.2686(2) 0.41665(18)
O6 O 0.0598(2) 0.16455(18) 0.30482(16)
O7 O 0.0689(2) 0.33856(19) 0.37616(18)
O8 O 0.0720(2) 0.2043(2) 0.48243(18)
P2 P 0.12015(8) 0.24295(7) 0.39084(7)
loop_
_geom_bond_atom_site_label_1
_geom_bond_atom_site_label_2
_geom_bond_site_symmetry_1
_geom_bond_site_symmetry_2
C1 H1 1_555 1_555
C2 C3 1_555 1_555
C3 H2 1_555 1_555
C4 C3 1_555 1_555
H3 C4 1_555 1_555
C5 C4 1_555 1_555
H4 C5 1_555 1_555
C6 C5 1_555 1_555
H5 C6 1_555 1_555
C7 C2 1_555 1_555
C8 C1 1_555 1_555
C9 C8 1_555 1_555
C10 C11 1_555 1_555
C11 H6 1_555 1_555
C12 C11 1_555 1_555
C13 C14 1_555 1_555
C14 C15 1_555 1_555
C15 C16 1_555 1_555
C16 H7 1_555 1_555
C17 C16 1_555 1_555
H8 C17 1_555 1_555
C18 C17 1_555 1_555
H9 C18 1_555 1_555
C19 C18 1_555 1_555
H10 C19 1_555 1_555
C20 C15 1_555 1_555
C21 C14 1_555 1_555
H11 C21 1_555 1_555
C22 H12 1_555 1_555
C23 C24 1_555 1_555
C24 H13 1_555 1_555
C25 C24 1_555 1_555
H14 C25 1_555 1_555
C26 C25 1_555 1_555
H15 C26 1_555 1_555
C27 C26 1_555 1_555
H16 C27 1_555 1_555
C28 C23 1_555 1_555
C29 C22 1_555 1_555
C30 C13 1_555 1_555
C31 C12 1_555 1_555
C32 C31 1_555 1_555
H17 C32 1_555 1_555
C33 C10 1_555 1_555
C34 C9 1_555 1_555
C35 C34 1_555 1_555
C36 C35 1_555 1_555
C37 C36 1_555 1_555
H18 C37 1_555 1_555
C38 C37 1_555 1_555
H19 C38 1_555 1_555
C39 C38 1_555 1_555
H20 C39 1_555 1_555
C40 C39 1_555 1_555
H21 C40 1_555 1_555
C41 C36 1_555 1_555
C42 C35 1_555 1_555
H22 C42 1_555 1_555
C43 H23 1_555 1_555
H24 C43 1_555 1_555
C44 C43 1_555 1_555
H25 C44 1_555 1_555
H26 C44 1_555 1_555
C45 C44 1_555 1_555
H27 C45 1_555 1_555
H28 C45 1_555 1_555
C46 C45 1_555 1_555
H29 C46 1_555 1_555
H30 C46 1_555 1_555
H31 C46 1_555 1_555
C47 H32 1_555 1_555
H33 C47 1_555 1_555
C48 C47 1_555 1_555
H34 C48 1_555 1_555
H35 C48 1_555 1_555
C49 C48 1_555 1_555
H36 C49 1_555 1_555
H37 C49 1_555 1_555
C50 C49 1_555 1_555
H38 C50 1_555 1_555
H39 C50 1_555 1_555
H40 C50 1_555 1_555
C51 H41 1_555 1_555
H42 C51 1_555 1_555
C52 C51 1_555 1_555
H43 C52 1_555 1_555
H44 C52 1_555 1_555
C53 C52 1_555 1_555
H45 C53 1_555 1_555
H46 C53 1_555 1_555
C54 C53 1_555 1_555
H47 C54 1_555 1_555
H48 C54 1_555 1_555
H49 C54 1_555 1_555
C55 H50 1_555 1_555
H51 C55 1_555 1_555
C56 C55 1_555 1_555
H52 C56 1_555 1_555
H53 C56 1_555 1_555
C57 C56 1_555 1_555
H54 C57 1_555 1_555
H55 C57 1_555 1_555
C58 C57 1_555 1_555
H56 C58 1_555 1_555
H57 C58 1_555 1_555
H58 C58 1_555 1_555
C59 H59 1_555 1_555
H60 C59 1_555 1_555
C60 C59 1_555 1_555
H61 C60 1_555 1_555
H62 C60 1_555 1_555
C61 C60 1_555 1_555
H63 C61 1_555 1_555
H64 C61 1_555 1_555
C62 C61 1_555 1_555
H65 C62 1_555 1_555
H66 C62 1_555 1_555
H67 C62 1_555 1_555
C63 H68 1_555 1_555
H69 C63 1_555 1_555
C64 C63 1_555 1_555
H70 C64 1_555 1_555
H71 C64 1_555 1_555
C65 C64 1_555 1_555
H72 C65 1_555 1_555
H73 C65 1_555 1_555
C66 C65 1_555 1_555
H74 C66 1_555 1_555
H75 C66 1_555 1_555
H76 C66 1_555 1_555
C67 H77 1_555 1_555
H78 C67 1_555 1_555
C68 C67 1_555 1_555
H79 C68 1_555 1_555
H80 C68 1_555 1_555
C69 C68 1_555 1_555
H81 C69 1_555 1_555
H82 C69 1_555 1_555
C70 C69 1_555 1_555
H83 C70 1_555 1_555
H84 C70 1_555 1_555
H85 C70 1_555 1_555
C71 H86 1_555 1_555
H87 C71 1_555 1_555
C72 C71 1_555 1_555
H88 C72 1_555 1_555
H89 C72 1_555 1_555
C73 C72 1_555 1_555
H90 C73 1_555 1_555
H91 C73 1_555 1_555
C74 C73 1_555 1_555
H92 C74 1_555 1_555
H93 C74 1_555 1_555
H94 C74 1_555 1_555
C75 H95 1_555 1_555
C76 H96 1_555 1_555
H97 C76 1_555 1_555
H98 C76 1_555 1_555
C77 H99 1_555 1_555
H100 C77 1_555 1_555
H101 C77 1_555 1_555
C78 H102 1_555 1_555
C79 H103 1_555 1_555
H104 C79 1_555 1_555
H105 C79 1_555 1_555
C80 H106 1_555 1_555
H107 C80 1_555 1_555
H108 C80 1_555 1_555
C81 H109 1_555 1_555
C82 H110 1_555 1_555
H111 C82 1_555 1_555
H112 C82 1_555 1_555
C83 H113 1_555 1_555
H114 C83 1_555 1_555
H115 C83 1_555 1_555
H116 N1 1_555 1_555
H117 N4 1_555 1_555
H118 N5 1_555 1_555
H119 N8 1_555 1_555
H120 O12 1_555 1_555
H121 O12 1_555 1_555
H122 O1 1_555 1_555
H123 O3 1_555 1_555
H124 O7 1_555 1_555
H125 O8 1_555 1_555
N1 C1 1_555 1_555
N2 C9 1_555 1_555
N3 C12 1_555 1_555
N4 C20 1_555 1_555
N5 C22 1_555 1_555
N6 C30 1_555 1_555
N7 C33 1_555 1_555
N8 C41 1_555 1_555
N9 C43 1_555 1_555
N10 C59 1_555 1_555
N11 C75 1_555 1_555
N12 C78 1_555 1_555
N13 C81 1_555 1_555
O1 P1 1_555 1_555
O2 P1 1_555 1_555
O3 P1 1_555 1_555
O4 P1 1_555 1_555
O5 P2 1_555 1_555
O6 P2 1_555 1_555
O7 P2 1_555 1_555
O8 P2 1_555 1_555
O9 C75 1_555 1_555
O10 C78 1_555 1_555
O11 C81 1_555 1_555
C2 N1 1_555 1_555
C6 C7 1_555 1_555
C7 C8 1_555 1_555
C10 N2 1_555 1_555
C13 N3 1_555 1_555
C19 C20 1_555 1_555
C21 N4 1_555 1_555
C23 N5 1_555 1_555
C27 C28 1_555 1_555
C28 C29 1_555 1_555
C29 C30 1_555 1_555
C31 N6 1_555 1_555
C32 C33 1_555 1_555
C34 N7 1_555 1_555
C40 C41 1_555 1_555
C42 N8 1_555 1_555
C47 N9 1_555 1_555
C51 N9 1_555 1_555
C55 N9 1_555 1_555
C63 N10 1_555 1_555
C67 N10 1_555 1_555
C71 N10 1_555 1_555
C76 N11 1_555 1_555
C77 N11 1_555 1_555
C79 N12 1_555 1_555
C80 N12 1_555 1_555
C82 N13 1_555 1_555
C83 N13 1_555 1_555

#END
