
#######################################################################
#
#                 Cambridge Crystallographic Data Centre
#                                CCDC 
#
#######################################################################
#
# If this CIF has been generated from an entry in the Cambridge 
# Structural Database, then it will include bibliographic, chemical, 
# crystal, experimental, refinement or atomic coordinate data resulting 
# from the CCDC's data processing and validation procedures.
#
#######################################################################

data_TUVDEU
_chemical_formula_moiety         
'C42 H22 N8,5(C3 H7 N1 O1),2(H2 O4 P1 1-),2(C16 H36 N1 1+)'
_chemical_name_systematic        
"5,6,18,19-Tetrahydrodiindolo[2',3':7,8;3'',2'':5,6]quinoxalino[2,3-i]diindolo[3,2-a:2',3'-c]phenazine bis(tetra-n-butylammonium dihydrogen phosphate) N,N-dimethylformamide solvate"
_symmetry_cell_setting           monoclinic
_symmetry_space_group_name_H-M   'P 21/n'
_symmetry_Int_Tables_number      14
_space_group_name_Hall           '-P 2yn'
loop_
_symmetry_equiv_pos_site_id
_symmetry_equiv_pos_as_xyz
1 x,y,z
2 1/2-x,1/2+y,1/2-z
3 -x,-y,-z
4 1/2+x,1/2-y,1/2+z
_cell_length_a                   17.406(4)
_cell_length_b                   24.364(5)
_cell_length_c                   21.895(4)
_cell_angle_alpha                90
_cell_angle_beta                 101.99(3)
_cell_angle_gamma                90
_cell_volume                     9082.66
_cell_formula_units_Z            4
loop_
_atom_site_label
_atom_site_type_symbol
_atom_site_fract_x
_atom_site_fract_y
_atom_site_fract_z
C1 C 0.16518(12) 0.10426(8) 0.30407(9)
C2 C 0.20440(12) 0.14907(9) 0.33563(9)
H1 H 0.2148 0.1510 0.3790
C3 C 0.22739(12) 0.19061(9) 0.30037(10)
H2 H 0.2532 0.2211 0.3204
C4 C 0.21252(13) 0.18761(9) 0.23470(10)
H3 H 0.2292 0.2160 0.2122
C5 C 0.17356(12) 0.14327(9) 0.20316(9)
H4 H 0.1638 0.1417 0.1598
C6 C 0.14885(12) 0.10057(8) 0.23791(9)
C7 C 0.10665(12) 0.05006(8) 0.22254(9)
C8 C 0.07051(12) 0.02557(8) 0.16375(9)
C9 C 0.03615(12) 0.02599(8) 0.05631(9)
C10 C 0.03466(12) 0.05240(9) -0.00077(9)
H5 H 0.0569 0.0870 -0.0013
C11 C 0.00012(12) -0.02695(8) 0.05698(9)
C12 C 0.02983(12) -0.02736(8) 0.16465(9)
C13 C 0.02439(12) -0.05044(8) 0.22383(9)
C14 C -0.01602(12) -0.09820(8) 0.24035(9)
C15 C -0.06071(13) -0.14039(8) 0.20639(10)
H6 H -0.0671 -0.1423 0.1632
C16 C -0.09490(14) -0.17886(9) 0.23838(10)
H7 H -0.1252 -0.2067 0.2163
C17 C -0.08477(14) -0.17685(9) 0.30418(10)
H8 H -0.1088 -0.2033 0.3245
C18 C -0.04007(13) -0.13647(9) 0.33889(10)
H9 H -0.0327 -0.1355 0.3822
C19 C -0.00631(12) -0.09710(8) 0.30617(9)
C20 C 0.05702(12) -0.02386(8) 0.27989(9)
C21 C 0.09937(12) 0.02622(8) 0.27933(9)
N1 N 0.13453(10) 0.05869(7) 0.32790(7)
H130 H 0.1372 0.0519 0.3668
N2 N 0.07246(10) 0.05141(7) 0.11072(7)
N3 N -0.00346(10) -0.05287(7) 0.11218(7)
N4 N 0.03887(10) -0.05186(7) 0.32927(7)
H131 H 0.0531 -0.0429 0.3680
C1B C -0.16518(12) -0.10426(8) -0.30407(9)
C2B C -0.20440(12) -0.14907(9) -0.33563(9)
H1B H -0.2148 -0.1510 -0.3790
C3B C -0.22739(12) -0.19061(9) -0.30037(10)
H2B H -0.2532 -0.2211 -0.3204
C4B C -0.21252(13) -0.18761(9) -0.23470(10)
H3B H -0.2292 -0.2160 -0.2122
C5B C -0.17356(12) -0.14327(9) -0.20316(9)
H4B H -0.1638 -0.1417 -0.1598
C6B C -0.14885(12) -0.10057(8) -0.23791(9)
C7B C -0.10665(12) -0.05006(8) -0.22254(9)
C8B C -0.07051(12) -0.02557(8) -0.16375(9)
C9B C -0.03615(12) -0.02599(8) -0.05631(9)
C10B C -0.03466(12) -0.05240(9) 0.00077(9)
H5B H -0.0569 -0.0870 0.0013
C11B C -0.00012(12) 0.02695(8) -0.05698(9)
C12B C -0.02983(12) 0.02736(8) -0.16465(9)
C13B C -0.02439(12) 0.05044(8) -0.22383(9)
C14B C 0.01602(12) 0.09820(8) -0.24035(9)
C15B C 0.06071(13) 0.14039(8) -0.20639(10)
H6B H 0.0671 0.1423 -0.1632
C16B C 0.09490(14) 0.17886(9) -0.23838(10)
H7B H 0.1252 0.2067 -0.2163
C17B C 0.08477(14) 0.17685(9) -0.30418(10)
H8B H 0.1088 0.2033 -0.3245
C18B C 0.04007(13) 0.13647(9) -0.33889(10)
H9B H 0.0327 0.1355 -0.3822
C19B C 0.00631(12) 0.09710(8) -0.30617(9)
C20B C -0.05702(12) 0.02386(8) -0.27989(9)
C21B C -0.09937(12) -0.02622(8) -0.27933(9)
N1B N -0.13453(10) -0.05869(7) -0.32790(7)
H130B H -0.1372 -0.0519 -0.3668
N2B N -0.07246(10) -0.05141(7) -0.11072(7)
N3B N 0.00346(10) 0.05287(7) -0.11218(7)
N4B N -0.03887(10) 0.05186(7) -0.32927(7)
H131B H -0.0531 0.0429 -0.3680
C22 C 0.32551(12) 0.90892(8) 0.69257(9)
C23 C 0.27572(13) 0.86965(9) 0.65910(10)
H10 H 0.2578 0.8726 0.6162
C24 C 0.25411(14) 0.82616(10) 0.69226(10)
H11 H 0.2205 0.7995 0.6712
C25 C 0.28152(13) 0.82112(9) 0.75684(10)
H12 H 0.2664 0.7910 0.7776
C26 C 0.33079(12) 0.86030(9) 0.79033(10)
H13 H 0.3489 0.8566 0.8332
C27 C 0.35284(12) 0.90568(8) 0.75821(9)
C28 C 0.39995(12) 0.95408(8) 0.77556(9)
C29 C 0.43840(12) 0.97597(8) 0.83532(9)
C30 C 0.46998(11) 0.97358(8) 0.94254(9)
C31 C 0.46903(12) 0.94660(9) 0.99876(9)
H14 H 0.4495 0.9110 0.9980
C32 C 0.50292(12) 1.02764(8) 0.94386(9)
C33 C 0.47661(12) 1.03008(8) 0.83677(9)
C34 C 0.47984(12) 1.05591(8) 0.77842(9)
C35 C 0.51970(12) 1.10433(8) 0.76328(9)
C36 C 0.56688(13) 1.14460(9) 0.79833(10)
H15 H 0.5775 1.1436 0.8417
C37 C 0.59729(14) 1.18577(9) 0.76705(10)
H16 H 0.6281 1.2130 0.7899
C38 C 0.58273(14) 1.18745(9) 0.70151(10)
H17 H 0.6045 1.2155 0.6818
C39 C 0.53679(13) 1.14830(9) 0.66584(10)
H18 H 0.5276 1.1492 0.6225
C40 C 0.50453(12) 1.10712(8) 0.69720(9)
C41 C 0.44237(12) 1.03300(8) 0.72164(9)
C42 C 0.39964(12) 0.98279(8) 0.72050(9)
N5 N 0.35561(10) 0.95605(7) 0.67079(8)
H132 H 0.3478 0.9665 0.6325
N6 N 0.43751(10) 0.94819(7) 0.88737(7)
N7 N 0.50779(10) 1.05494(7) 0.88996(7)
N8 N 0.45592(10) 1.06407(7) 0.67273(7)
H133 H 0.4375 1.0579 0.6338
C22B C 0.67449(12) 1.09108(8) 1.30743(9)
C23B C 0.72428(13) 1.13035(9) 1.34090(10)
H10B H 0.7422 1.1274 1.3838
C24B C 0.74589(14) 1.17384(10) 1.30774(10)
H11B H 0.7795 1.2005 1.3288
C25B C 0.71848(13) 1.17888(9) 1.24316(10)
H12B H 0.7336 1.2090 1.2224
C26B C 0.66921(12) 1.13970(9) 1.20967(10)
H13B H 0.6511 1.1434 1.1668
C27B C 0.64716(12) 1.09432(8) 1.24179(9)
C28B C 0.60005(12) 1.04592(8) 1.22444(9)
C29B C 0.56160(12) 1.02403(8) 1.16468(9)
C30B C 0.53002(11) 1.02642(8) 1.05746(9)
C31B C 0.53097(12) 1.05340(9) 1.00124(9)
H14B H 0.5505 1.0890 1.0020
C32B C 0.49708(12) 0.97236(8) 1.05614(9)
C33B C 0.52339(12) 0.96992(8) 1.16323(9)
C34B C 0.52016(12) 0.94409(8) 1.22158(9)
C35B C 0.48030(12) 0.89567(8) 1.23672(9)
C36B C 0.43312(13) 0.85540(9) 1.20167(10)
H15B H 0.4225 0.8564 1.1583
C37B C 0.40271(14) 0.81423(9) 1.23295(10)
H16B H 0.3719 0.7870 1.2101
C38B C 0.41727(14) 0.81255(9) 1.29849(10)
H17B H 0.3955 0.7845 1.3182
C39B C 0.46321(13) 0.85170(9) 1.33416(10)
H18B H 0.4724 0.8508 1.3775
C40B C 0.49547(12) 0.89288(8) 1.30280(9)
C41B C 0.55763(12) 0.96700(8) 1.27836(9)
C42B C 0.60036(12) 1.01721(8) 1.27950(9)
N5B N 0.64439(10) 1.04395(7) 1.32921(8)
H132B H 0.6522 1.0335 1.3675
N6B N 0.56249(10) 1.05181(7) 1.11263(7)
N7B N 0.49221(10) 0.94506(7) 1.11004(7)
N8B N 0.54408(10) 0.93593(7) 1.32727(7)
H133B H 0.5625 0.9421 1.3662
C43 C 0.44822(13) 0.19835(9) 0.31091(9)
H19 H 0.3919 0.1929 0.2991
H20 H 0.4573 0.2373 0.3182
C44 C 0.48385(14) 0.18181(10) 0.25620(10)
H21 H 0.4782 0.1425 0.2494
H22 H 0.5394 0.1906 0.2651
C45 C 0.44231(14) 0.21249(10) 0.19781(10)
H23 H 0.3867 0.2038 0.1898
H24 H 0.4479 0.2517 0.2054
C46 C 0.47445(16) 0.19819(11) 0.14016(11)
H25 H 0.5284 0.2093 0.1465
H26 H 0.4445 0.2170 0.1045
H27 H 0.4707 0.1593 0.1332
C47 C 0.56408(12) 0.18278(9) 0.39802(10)
H28 H 0.5847 0.1579 0.4321
H29 H 0.5934 0.1765 0.3655
C48 C 0.57918(13) 0.24145(9) 0.42147(11)
H30 H 0.5598 0.2461 0.4596
H31 H 0.5510 0.2667 0.3905
C49 C 0.66718(14) 0.25462(11) 0.43408(11)
H32 H 0.6960 0.2261 0.4601
H33 H 0.6848 0.2551 0.3949
C50 C 0.68466(17) 0.30992(12) 0.46646(13)
H34 H 0.6557 0.3381 0.4410
H35 H 0.7398 0.3175 0.4726
H36 H 0.6695 0.3089 0.5062
C51 C 0.42706(12) 0.18632(9) 0.41709(10)
H37 H 0.4310 0.2259 0.4215
H38 H 0.3729 0.1777 0.3985
C52 C 0.44692(13) 0.16078(9) 0.48190(10)
H39 H 0.5019 0.1670 0.5003
H40 H 0.4379 0.1215 0.4789
C53 C 0.39567(14) 0.18642(11) 0.52307(11)
H41 H 0.3416 0.1868 0.5002
H42 H 0.3981 0.1635 0.5597
C54 C 0.41947(17) 0.24449(11) 0.54414(12)
H43 H 0.4736 0.2448 0.5655
H44 H 0.3872 0.2572 0.5719
H45 H 0.4127 0.2682 0.5084
C55 C 0.47334(13) 0.10654(9) 0.36245(10)
H46 H 0.4935 0.0887 0.4021
H47 H 0.5073 0.0964 0.3343
C56 C 0.39137(13) 0.08452(9) 0.33619(10)
H48 H 0.3678 0.1049 0.2990
H49 H 0.3587 0.0892 0.3667
C57 C 0.39562(14) 0.02396(9) 0.32023(11)
H50 H 0.4220 0.0201 0.2856
H51 H 0.4267 0.0048 0.3558
C58 C 0.31527(16) -0.00256(10) 0.30299(13)
H52 H 0.2891 0.0007 0.3373
H53 H 0.3210 -0.0407 0.2937
H54 H 0.2848 0.0155 0.2670
N9 N 0.47832(10) 0.16814(7) 0.37227(8)
C59 C 0.12842(12) 0.91410(9) 0.89083(10)
H55 H 0.1092 0.8976 0.9251
H56 H 0.0916 0.9426 0.8731
C60 C 0.12876(13) 0.87064(9) 0.84144(10)
H57 H 0.1591 0.8393 0.8601
H58 H 0.1536 0.8852 0.8092
C61 C 0.04577(14) 0.85236(10) 0.81243(12)
H59 H 0.0195 0.8413 0.8454
H60 H 0.0171 0.8832 0.7907
C62 C 0.04329(17) 0.80506(11) 0.76692(13)
H61 H 0.0750 0.8138 0.7372
H62 H -0.0099 0.7989 0.7454
H63 H 0.0633 0.7725 0.7894
C63 C 0.23786(13) 0.97180(9) 0.86598(10)
H64 H 0.2897 0.9860 0.8839
H65 H 0.2436 0.9458 0.8337
C64 C 0.18704(13) 1.01935(9) 0.83531(10)
H66 H 0.1951 1.0510 0.8627
H67 H 0.1321 1.0091 0.8284
C65 C 0.20847(14) 1.03403(9) 0.77281(10)
H68 H 0.1908 1.0711 0.7613
H69 H 0.2652 1.0333 0.7778
C66 C 0.17229(16) 0.99509(11) 0.72036(11)
H70 H 0.1901 0.9584 0.7311
H71 H 0.1878 1.0059 0.6825
H72 H 0.1161 0.9964 0.7143
C67 C 0.19715(13) 0.98044(9) 0.96841(10)
H73 H 0.1668 1.0116 0.9492
H74 H 0.1667 0.9622 0.9949
C68 C 0.27273(14) 1.00170(9) 1.00950(11)
H75 H 0.3073 1.0152 0.9834
H76 H 0.2993 0.9719 1.0348
C69 C 0.25583(14) 1.04769(10) 1.05196(11)
H77 H 0.2352 1.0792 1.0267
H78 H 0.2160 1.0356 1.0741
C70 C 0.32890(17) 1.06484(13) 1.09908(14)
H79 H 0.3476 1.0344 1.1260
H80 H 0.3163 1.0949 1.1236
H81 H 0.3689 1.0760 1.0774
C71 C 0.26802(12) 0.89707(9) 0.94196(9)
H82 H 0.3180 0.9149 0.9576
H83 H 0.2743 0.8736 0.9076
C72 C 0.24883(13) 0.86121(9) 0.99362(10)
H84 H 0.2043 0.8379 0.9767
H85 H 0.2346 0.8842 1.0257
C73 C 0.31918(14) 0.82565(9) 1.02228(10)
H86 H 0.3370 0.8059 0.9894
H87 H 0.3618 0.8490 1.0430
C74 C 0.29893(15) 0.78476(10) 1.06910(11)
H88 H 0.2811 0.8042 1.1017
H89 H 0.3447 0.7637 1.0868
H90 H 0.2582 0.7606 1.0483
N10 N 0.20765(10) 0.94076(7) 0.91698(8)
C75 C 0.92917(17) 0.15133(11) 0.46920(12)
H91 H 0.8832 0.1314 0.4678
C76 C 0.95106(16) 0.09518(11) 0.38283(12)
H92 H 0.9878 0.0656 0.3940
H93 H 0.9520 0.1074 0.3413
H94 H 0.8992 0.0826 0.3844
C77 C 1.04759(16) 0.16575(12) 0.42881(16)
H95 H 1.0569 0.1927 0.4615
H96 H 1.0480 0.1832 0.3896
H97 H 1.0881 0.1383 0.4370
N11 N 0.97253(12) 0.14032(8) 0.42635(10)
O9 O 0.94712(17) 0.18586(10) 0.50946(11)
C78 C 0.67188(15) 0.16725(11) 0.57212(12)
H98 H 0.6413 0.1357 0.5644
C79 C 0.78451(17) 0.10689(12) 0.58667(14)
H99 H 0.8120 0.0992 0.6285
H100 H 0.8206 0.1056 0.5590
H101 H 0.7440 0.0800 0.5740
C80 C 0.80144(18) 0.20707(13) 0.59860(15)
H102 H 0.7710 0.2402 0.5946
H103 H 0.8366 0.2080 0.5701
H104 H 0.8312 0.2039 0.6406
N12 N 0.74983(12) 0.16079(8) 0.58440(9)
O10 O 0.63727(11) 0.21116(8) 0.57022(9)
C81 C 0.37286(16) 0.35454(10) 0.37837(12)
H105 H 0.3822 0.3729 0.4164
C82 C 0.28239(16) 0.42835(11) 0.33922(14)
H106 H 0.2980 0.4403 0.3818
H107 H 0.2266 0.4227 0.3292
H108 H 0.2964 0.4558 0.3120
C83 C 0.3081(2) 0.35369(15) 0.26876(14)
H109 H 0.3284 0.3778 0.2413
H110 H 0.2527 0.3488 0.2535
H111 H 0.3340 0.3188 0.2704
N13 N 0.32182(12) 0.37747(8) 0.33108(10)
O11 O 0.40801(13) 0.31194(8) 0.37596(11)
C84 C 0.22962(18) 0.21088(13) 0.59498(13)
H112 H 0.1981 0.2067 0.5554
C85 C 0.30382(19) 0.17012(13) 0.68864(15)
H113 H 0.3151 0.2080 0.6986
H114 H 0.3521 0.1503 0.6915
H115 H 0.2749 0.1548 0.7175
C86 C 0.2425(2) 0.11094(13) 0.60188(18)
H116 H 0.2094 0.1116 0.5609
H117 H 0.2171 0.0906 0.6296
H118 H 0.2916 0.0937 0.5999
N14 N 0.25657(13) 0.16572(9) 0.62446(10)
O12 O 0.24183(13) 0.25811(8) 0.61431(9)
C87 C 0.3559(2) 0.12725(14) 0.88500(18)
H119 H 0.3467 0.1224 0.8420
C88 C 0.4172(3) 0.18076(17) 0.97309(17)
H120 H 0.4027 0.1498 0.9953
H121 H 0.3917 0.2131 0.9842
H122 H 0.4731 0.1857 0.9838
C89 C 0.4236(3) 0.21140(14) 0.8687(2)
H123 H 0.4800 0.2105 0.8792
H124 H 0.4055 0.2472 0.8774
H125 H 0.4060 0.2033 0.8251
N15 N 0.39264(15) 0.17111(9) 0.90521(12)
O13 O 0.33087(13) 0.09042(9) 0.91418(11)
H126 H 0.0359(8) 0.0415(11) 0.5313(13)
H127 H 0.2229(8) -0.0278(12) 0.5384(14)
O1 O 0.08117(9) 0.05149(6) 0.52745(7)
O2 O 0.17643(9) -0.02637(7) 0.54367(7)
O3 O 0.05965(8) -0.02864(6) 0.45400(6)
O4 O 0.17211(8) 0.03831(6) 0.45372(6)
P1 P 0.12164(3) 0.00822(2) 0.49150(2)
H128 H 0.4582(8) -0.0384(14) 0.4657(16)
H129 H 0.2769(7) 0.0404(13) 0.4650(15)
O5 O 0.41061(9) -0.04130(7) 0.46805(8)
O6 O 0.32576(9) 0.04267(7) 0.46529(7)
O7 O 0.32648(8) -0.02985(6) 0.54636(6)
O8 O 0.44611(8) 0.03145(6) 0.54996(6)
P2 P 0.37803(3) 0.00097(2) 0.51057(2)
loop_
_geom_bond_atom_site_label_1
_geom_bond_atom_site_label_2
_geom_bond_site_symmetry_1
_geom_bond_site_symmetry_2
C1 C2 1_555 1_555
C2 H1 1_555 1_555
C3 C2 1_555 1_555
H2 C3 1_555 1_555
C4 C3 1_555 1_555
H3 C4 1_555 1_555
C5 C4 1_555 1_555
H4 C5 1_555 1_555
C6 C1 1_555 1_555
C7 C6 1_555 1_555
C8 C7 1_555 1_555
C9 C10 1_555 1_555
C10 H5 1_555 1_555
C11 C9 1_555 1_555
C12 C8 1_555 1_555
C13 C12 1_555 1_555
C14 C13 1_555 1_555
C15 C14 1_555 1_555
H6 C15 1_555 1_555
C16 C15 1_555 1_555
H7 C16 1_555 1_555
C17 C16 1_555 1_555
H8 C17 1_555 1_555
C18 C17 1_555 1_555
H9 C18 1_555 1_555
C19 C14 1_555 1_555
C20 C13 1_555 1_555
C21 C7 1_555 1_555
C22 C23 1_555 1_555
C23 H10 1_555 1_555
C24 C23 1_555 1_555
H11 C24 1_555 1_555
C25 C24 1_555 1_555
H12 C25 1_555 1_555
C26 C25 1_555 1_555
H13 C26 1_555 1_555
C27 C22 1_555 1_555
C28 C27 1_555 1_555
C29 C28 1_555 1_555
C30 C31 1_555 1_555
C31 H14 1_555 1_555
C32 C30 1_555 1_555
C33 C29 1_555 1_555
C34 C33 1_555 1_555
C35 C34 1_555 1_555
C36 C35 1_555 1_555
H15 C36 1_555 1_555
C37 C36 1_555 1_555
H16 C37 1_555 1_555
C38 C37 1_555 1_555
H17 C38 1_555 1_555
C39 C38 1_555 1_555
H18 C39 1_555 1_555
C40 C35 1_555 1_555
C41 C34 1_555 1_555
C42 C28 1_555 1_555
C43 H19 1_555 1_555
H20 C43 1_555 1_555
C44 C43 1_555 1_555
H21 C44 1_555 1_555
H22 C44 1_555 1_555
C45 C44 1_555 1_555
H23 C45 1_555 1_555
H24 C45 1_555 1_555
C46 C45 1_555 1_555
H25 C46 1_555 1_555
H26 C46 1_555 1_555
H27 C46 1_555 1_555
C47 H28 1_555 1_555
H29 C47 1_555 1_555
C48 C47 1_555 1_555
H30 C48 1_555 1_555
H31 C48 1_555 1_555
C49 C48 1_555 1_555
H32 C49 1_555 1_555
H33 C49 1_555 1_555
C50 C49 1_555 1_555
H34 C50 1_555 1_555
H35 C50 1_555 1_555
H36 C50 1_555 1_555
C51 H37 1_555 1_555
H38 C51 1_555 1_555
C52 C51 1_555 1_555
H39 C52 1_555 1_555
H40 C52 1_555 1_555
C53 C52 1_555 1_555
H41 C53 1_555 1_555
H42 C53 1_555 1_555
C54 C53 1_555 1_555
H43 C54 1_555 1_555
H44 C54 1_555 1_555
H45 C54 1_555 1_555
C55 H46 1_555 1_555
H47 C55 1_555 1_555
C56 C55 1_555 1_555
H48 C56 1_555 1_555
H49 C56 1_555 1_555
C57 C56 1_555 1_555
H50 C57 1_555 1_555
H51 C57 1_555 1_555
C58 C57 1_555 1_555
H52 C58 1_555 1_555
H53 C58 1_555 1_555
H54 C58 1_555 1_555
C59 H55 1_555 1_555
H56 C59 1_555 1_555
C60 C59 1_555 1_555
H57 C60 1_555 1_555
H58 C60 1_555 1_555
C61 C60 1_555 1_555
H59 C61 1_555 1_555
H60 C61 1_555 1_555
C62 C61 1_555 1_555
H61 C62 1_555 1_555
H62 C62 1_555 1_555
H63 C62 1_555 1_555
C63 H64 1_555 1_555
H65 C63 1_555 1_555
C64 C63 1_555 1_555
H66 C64 1_555 1_555
H67 C64 1_555 1_555
C65 C64 1_555 1_555
H68 C65 1_555 1_555
H69 C65 1_555 1_555
C66 C65 1_555 1_555
H70 C66 1_555 1_555
H71 C66 1_555 1_555
H72 C66 1_555 1_555
C67 H73 1_555 1_555
H74 C67 1_555 1_555
C68 C67 1_555 1_555
H75 C68 1_555 1_555
H76 C68 1_555 1_555
C69 C68 1_555 1_555
H77 C69 1_555 1_555
H78 C69 1_555 1_555
C70 C69 1_555 1_555
H79 C70 1_555 1_555
H80 C70 1_555 1_555
H81 C70 1_555 1_555
C71 H82 1_555 1_555
H83 C71 1_555 1_555
C72 C71 1_555 1_555
H84 C72 1_555 1_555
H85 C72 1_555 1_555
C73 C72 1_555 1_555
H86 C73 1_555 1_555
H87 C73 1_555 1_555
C74 C73 1_555 1_555
H88 C74 1_555 1_555
H89 C74 1_555 1_555
H90 C74 1_555 1_555
C75 H91 1_555 1_555
C76 H92 1_555 1_555
H93 C76 1_555 1_555
H94 C76 1_555 1_555
C77 H95 1_555 1_555
H96 C77 1_555 1_555
H97 C77 1_555 1_555
C78 H98 1_555 1_555
C79 H99 1_555 1_555
H100 C79 1_555 1_555
H101 C79 1_555 1_555
C80 H102 1_555 1_555
H103 C80 1_555 1_555
H104 C80 1_555 1_555
C81 H105 1_555 1_555
C82 H106 1_555 1_555
H107 C82 1_555 1_555
H108 C82 1_555 1_555
C83 H109 1_555 1_555
H110 C83 1_555 1_555
H111 C83 1_555 1_555
C84 H112 1_555 1_555
C85 H113 1_555 1_555
H114 C85 1_555 1_555
H115 C85 1_555 1_555
C86 H116 1_555 1_555
H117 C86 1_555 1_555
H118 C86 1_555 1_555
C87 H119 1_555 1_555
C88 H120 1_555 1_555
H121 C88 1_555 1_555
H122 C88 1_555 1_555
C89 H123 1_555 1_555
H124 C89 1_555 1_555
H125 C89 1_555 1_555
H126 O1 1_555 1_555
H127 O2 1_555 1_555
H128 O5 1_555 1_555
H129 O6 1_555 1_555
N1 C1 1_555 1_555
H130 N1 1_555 1_555
N2 C8 1_555 1_555
N3 C11 1_555 1_555
N4 C19 1_555 1_555
H131 N4 1_555 1_555
N5 C22 1_555 1_555
H132 N5 1_555 1_555
N6 C29 1_555 1_555
N7 C32 1_555 1_555
N8 C40 1_555 1_555
H133 N8 1_555 1_555
N9 C43 1_555 1_555
N10 C59 1_555 1_555
N11 C75 1_555 1_555
N12 C78 1_555 1_555
N13 C81 1_555 1_555
N14 C84 1_555 1_555
N15 C87 1_555 1_555
O1 P1 1_555 1_555
O2 P1 1_555 1_555
O3 P1 1_555 1_555
O4 P1 1_555 1_555
O5 P2 1_555 1_555
O6 P2 1_555 1_555
O7 P2 1_555 1_555
O8 P2 1_555 1_555
O9 C75 1_555 1_555
O10 C78 1_555 1_555
O11 C81 1_555 1_555
O12 C84 1_555 1_555
O13 C87 1_555 1_555
C1B C2B 1_555 1_555
C2B H1B 1_555 1_555
C3B C2B 1_555 1_555
H2B C3B 1_555 1_555
C4B C3B 1_555 1_555
H3B C4B 1_555 1_555
C5B C4B 1_555 1_555
H4B C5B 1_555 1_555
C6B C1B 1_555 1_555
C7B C6B 1_555 1_555
C8B C7B 1_555 1_555
C9B C10B 1_555 1_555
C10B C11 1_555 1_555
H5B C10B 1_555 1_555
C11B C10 1_555 1_555
C12B C8B 1_555 1_555
C13B C12B 1_555 1_555
C14B C13B 1_555 1_555
C15B C14B 1_555 1_555
H6B C15B 1_555 1_555
C16B C15B 1_555 1_555
H7B C16B 1_555 1_555
C17B C16B 1_555 1_555
H8B C17B 1_555 1_555
C18B C17B 1_555 1_555
H9B C18B 1_555 1_555
C19B C14B 1_555 1_555
C20B C13B 1_555 1_555
C21B C7B 1_555 1_555
C22B C23B 1_555 1_555
C23B H10B 1_555 1_555
C24B C23B 1_555 1_555
H11B C24B 1_555 1_555
C25B C24B 1_555 1_555
H12B C25B 1_555 1_555
C26B C25B 1_555 1_555
H13B C26B 1_555 1_555
C27B C22B 1_555 1_555
C28B C27B 1_555 1_555
C29B C28B 1_555 1_555
C30B C31B 1_555 1_555
C31B C32 1_555 1_555
H14B C31B 1_555 1_555
C32B C31 1_555 1_555
C33B C29B 1_555 1_555
C34B C33B 1_555 1_555
C35B C34B 1_555 1_555
C36B C35B 1_555 1_555
H15B C36B 1_555 1_555
C37B C36B 1_555 1_555
H16B C37B 1_555 1_555
C38B C37B 1_555 1_555
H17B C38B 1_555 1_555
C39B C38B 1_555 1_555
H18B C39B 1_555 1_555
C40B C35B 1_555 1_555
C41B C34B 1_555 1_555
C42B C28B 1_555 1_555
N1B C1B 1_555 1_555
H130B N1B 1_555 1_555
N2B C8B 1_555 1_555
N3B C11B 1_555 1_555
N4B C19B 1_555 1_555
H131B N4B 1_555 1_555
N5B C22B 1_555 1_555
H132B N5B 1_555 1_555
N6B C29B 1_555 1_555
N7B C32B 1_555 1_555
N8B C40B 1_555 1_555
H133B N8B 1_555 1_555
C5 C6 1_555 1_555
C9 N2 1_555 1_555
C12 N3 1_555 1_555
C18 C19 1_555 1_555
C20 C21 1_555 1_555
C20 N4 1_555 1_555
C21 N1 1_555 1_555
C26 C27 1_555 1_555
C30 N6 1_555 1_555
C33 N7 1_555 1_555
C39 C40 1_555 1_555
C41 C42 1_555 1_555
C41 N8 1_555 1_555
C42 N5 1_555 1_555
C47 N9 1_555 1_555
C51 N9 1_555 1_555
C55 N9 1_555 1_555
C63 N10 1_555 1_555
C67 N10 1_555 1_555
C71 N10 1_555 1_555
C76 N11 1_555 1_555
C77 N11 1_555 1_555
C79 N12 1_555 1_555
C80 N12 1_555 1_555
C82 N13 1_555 1_555
C83 N13 1_555 1_555
C85 N14 1_555 1_555
C86 N14 1_555 1_555
C88 N15 1_555 1_555
C89 N15 1_555 1_555
C5B C6B 1_555 1_555
C9B C11B 1_555 1_555
C9B N2B 1_555 1_555
C12B N3B 1_555 1_555
C18B C19B 1_555 1_555
C20B C21B 1_555 1_555
C20B N4B 1_555 1_555
C21B N1B 1_555 1_555
C26B C27B 1_555 1_555
C30B C32B 1_555 1_555
C30B N6B 1_555 1_555
C33B N7B 1_555 1_555
C39B C40B 1_555 1_555
C41B C42B 1_555 1_555
C41B N8B 1_555 1_555
C42B N5B 1_555 1_555

#END
