
#######################################################################
#
#                 Cambridge Crystallographic Data Centre
#                                CCDC 
#
#######################################################################
#
# If this CIF has been generated from an entry in the Cambridge 
# Structural Database, then it will include bibliographic, chemical, 
# crystal, experimental, refinement or atomic coordinate data resulting 
# from the CCDC's data processing and validation procedures.
#
#######################################################################

data_TUVHOJ
_chemical_formula_moiety         'C31 H22 F1 N1 O3'
_chemical_name_systematic        
11-(5-fluoro-2-methylphenyl)-1,8-diphenyl-14-oxa-11-azatetracyclo[6.5.1.0^2,7^.0^9,13^]tetradeca-2,4,6-triene-10,12-dione
_symmetry_cell_setting           orthorhombic
_symmetry_space_group_name_H-M   'P c a 21'
_symmetry_Int_Tables_number      29
_space_group_name_Hall           'P 2c -2ac'
loop_
_symmetry_equiv_pos_site_id
_symmetry_equiv_pos_as_xyz
1 x,y,z
2 -x,-y,1/2+z
3 1/2+x,-y,z
4 1/2-x,y,1/2+z
_cell_length_a                   7.9995(12)
_cell_length_b                   19.124(3)
_cell_length_c                   15.191(2)
_cell_angle_alpha                90
_cell_angle_beta                 90
_cell_angle_gamma                90
_cell_volume                     2323.96
_exptl_crystal_colour            colorless
_exptl_crystal_description       tablet
_cell_formula_units_Z            4
loop_
_atom_site_label
_atom_site_type_symbol
_atom_site_fract_x
_atom_site_fract_y
_atom_site_fract_z
O1 O 0.4866(2) 0.12983(9) 0.48270(13)
O2 O 0.6216(3) 0.31586(11) 0.65044(15)
O3 O 0.1437(3) 0.31727(10) 0.48742(17)
N1 N 0.3819(3) 0.33196(12) 0.56903(17)
C1 C 0.5987(3) 0.17909(13) 0.52555(18)
C2 C 0.4702(4) 0.21538(14) 0.58944(19)
H1 H 0.4552 0.1879 0.6449
C3 C 0.5068(4) 0.29215(15) 0.60903(18)
C4 C 0.2625(4) 0.29251(14) 0.52541(19)
C5 C 0.3092(3) 0.21586(14) 0.53380(18)
H2 H 0.2182 0.1886 0.5631
C6 C 0.3690(3) 0.17868(13) 0.44598(18)
C7 C 0.4856(4) 0.22971(14) 0.40031(19)
C8 C 0.6295(3) 0.23074(13) 0.45100(18)
C9 C 0.7607(4) 0.27576(14) 0.4326(2)
H3 H 0.8564 0.2781 0.4696
C10 C 0.7466(4) 0.31746(15) 0.3578(2)
H4 H 0.8361 0.3477 0.3421
C11 C 0.6044(4) 0.31564(15) 0.3059(2)
H5 H 0.5990 0.3441 0.2547
C12 C 0.4683(4) 0.27277(14) 0.32733(19)
H6 H 0.3685 0.2732 0.2934
C13 C 0.7475(4) 0.14182(14) 0.56400(19)
C14 C 0.8329(4) 0.16837(15) 0.6362(2)
H7 H 0.7964 0.2105 0.6633
C15 C 0.9727(4) 0.13300(15) 0.6688(2)
H8 H 1.0301 0.1507 0.7188
C16 C 1.0275(4) 0.07261(15) 0.6288(2)
H9 H 1.1233 0.0490 0.6509
C17 C 0.9434(4) 0.04622(15) 0.5565(2)
H10 H 0.9809 0.0044 0.5292
C18 C 0.8048(4) 0.08082(15) 0.5240(2)
H11 H 0.7482 0.0628 0.4739
C19 C 0.2377(3) 0.14315(14) 0.39144(18)
C20 C 0.2577(4) 0.07423(15) 0.3642(2)
H12 H 0.3534 0.0485 0.3820
C21 C 0.1376(4) 0.04299(14) 0.3109(2)
H13 H 0.1518 -0.0041 0.2926
C22 C -0.0027(4) 0.07994(16) 0.2843(2)
H14 H -0.0836 0.0586 0.2472
C23 C -0.0237(4) 0.14892(16) 0.3124(2)
H15 H -0.1204 0.1745 0.2955
C24 C 0.0964(4) 0.17996(15) 0.3650(2)
H16 H 0.0821 0.2271 0.3833
C25 C 0.3855(4) 0.40805(16) 0.5632(3)
C26 C 0.3288(4) 0.44728(17) 0.6341(2)
C27 C 0.3306(5) 0.5198(2) 0.6233(3)
H17 H 0.2922 0.5484 0.6703
C28 C 0.3859(5) 0.5517(2) 0.5472(3)
H18 H 0.3853 0.6012 0.5414
C29 C 0.4418(4) 0.50966(18) 0.4802(3)
C30 C 0.4418(5) 0.43787(18) 0.4861(3)
H19 H 0.4794 0.4097 0.4385
C31 C 0.2648(6) 0.4136(2) 0.7163(3)
H20 H 0.1804 0.3785 0.7011
H21 H 0.2147 0.4492 0.7544
H22 H 0.3576 0.3909 0.7474
F1 F 0.4968(4) 0.53944(13) 0.40471(18)
C32? C 0.356(4) 0.4038(8) 0.5998(15)
C33? C 0.387(3) 0.4522(11) 0.5343(14)
C34? C 0.357(5) 0.5228(13) 0.5568(18)
H23? H 0.3784 0.5583 0.5145
C35? C 0.298(4) 0.5413(13) 0.6392(16)
H24? H 0.2790 0.5891 0.6532
C36? C 0.266(4) 0.4904(11) 0.7003(14)
C37? C 0.304(4) 0.4227(12) 0.6826(16)
H25? H 0.2937 0.3884 0.7275
C38? C 0.455(4) 0.4299(16) 0.4476(17)
H26? H 0.5429 0.3951 0.4565
H27? H 0.5008 0.4706 0.4167
H28? H 0.3645 0.4094 0.4123
F2? F 0.216(3) 0.5129(11) 0.7794(12)
loop_
_geom_bond_atom_site_label_1
_geom_bond_atom_site_label_2
_geom_bond_site_symmetry_1
_geom_bond_site_symmetry_2
O1 C1 1_555 1_555
O2 C3 1_555 1_555
O3 C4 1_555 1_555
N1 C3 1_555 1_555
C1 C2 1_555 1_555
C2 H1 1_555 1_555
C3 C2 1_555 1_555
C4 N1 1_555 1_555
C5 C2 1_555 1_555
H2 C5 1_555 1_555
C6 O1 1_555 1_555
C7 C6 1_555 1_555
C8 C1 1_555 1_555
C9 C8 1_555 1_555
H3 C9 1_555 1_555
C10 C9 1_555 1_555
H4 C10 1_555 1_555
C11 C10 1_555 1_555
H5 C11 1_555 1_555
C12 C7 1_555 1_555
H6 C12 1_555 1_555
C13 C1 1_555 1_555
C14 C13 1_555 1_555
H7 C14 1_555 1_555
C15 C14 1_555 1_555
H8 C15 1_555 1_555
C16 C15 1_555 1_555
H9 C16 1_555 1_555
C17 C16 1_555 1_555
H10 C17 1_555 1_555
C18 C13 1_555 1_555
H11 C18 1_555 1_555
C19 C6 1_555 1_555
C20 C19 1_555 1_555
H12 C20 1_555 1_555
C21 C20 1_555 1_555
H13 C21 1_555 1_555
C22 C21 1_555 1_555
H14 C22 1_555 1_555
C23 C22 1_555 1_555
H15 C23 1_555 1_555
C24 C19 1_555 1_555
H16 C24 1_555 1_555
C25 N1 1_555 1_555
C26 C25 1_555 1_555
C27 C26 1_555 1_555
H17 C27 1_555 1_555
C28 C27 1_555 1_555
H18 C28 1_555 1_555
C29 C28 1_555 1_555
C30 C25 1_555 1_555
H19 C30 1_555 1_555
C31 C26 1_555 1_555
H20 C31 1_555 1_555
H21 C31 1_555 1_555
H22 C31 1_555 1_555
F1 C29 1_555 1_555
C4 C5 1_555 1_555
C5 C6 1_555 1_555
C7 C8 1_555 1_555
C11 C12 1_555 1_555
C17 C18 1_555 1_555
C23 C24 1_555 1_555
C29 C30 1_555 1_555

#END
