
#######################################################################
#
#                 Cambridge Crystallographic Data Centre
#                                CCDC 
#
#######################################################################
#
# If this CIF has been generated from an entry in the Cambridge 
# Structural Database, then it will include bibliographic, chemical, 
# crystal, experimental, refinement or atomic coordinate data resulting 
# from the CCDC's data processing and validation procedures.
#
#######################################################################

data_TUVHUP
_chemical_formula_moiety         'C32 H25 N1 O3'
_chemical_name_systematic        
11-(2,5-dimethylphenyl)-1,8-diphenyl-14-oxa-11-azatetracyclo[6.5.1.0^2,7^.0^9,13^]tetradeca-2,4,6-triene-10,12-dione
_symmetry_cell_setting           monoclinic
_symmetry_space_group_name_H-M   'P 21/n'
_symmetry_Int_Tables_number      14
_space_group_name_Hall           '-P 2yn'
loop_
_symmetry_equiv_pos_site_id
_symmetry_equiv_pos_as_xyz
1 x,y,z
2 1/2-x,1/2+y,1/2-z
3 -x,-y,-z
4 1/2+x,1/2-y,1/2+z
_cell_length_a                   14.530(2)
_cell_length_b                   9.5628(15)
_cell_length_c                   17.641(3)
_cell_angle_alpha                90
_cell_angle_beta                 100.683(3)
_cell_angle_gamma                90
_cell_volume                     2408.69
_exptl_crystal_colour            colorless
_exptl_crystal_description       block
_cell_formula_units_Z            4
loop_
_atom_site_label
_atom_site_type_symbol
_atom_site_fract_x
_atom_site_fract_y
_atom_site_fract_z
O1 O 0.49088(7) 0.40492(9) 0.32283(5)
O2 O 0.73102(7) 0.12047(10) 0.29513(6)
O3 O 0.58401(7) 0.38069(10) 0.09170(6)
N1 N 0.66128(8) 0.22927(12) 0.18308(6)
C1 C 0.55116(9) 0.28386(13) 0.33943(8)
C2 C 0.63442(10) 0.33096(14) 0.29821(8)
H1 H 0.6809 0.3898 0.3332
C3 C 0.68255(9) 0.21309(14) 0.26269(8)
C4 C 0.60665(10) 0.34652(14) 0.15842(8)
C5 C 0.58283(9) 0.41686(13) 0.22948(8)
H2 H 0.6034 0.5168 0.2330
C6 C 0.47794(10) 0.40187(13) 0.23910(8)
C7 C 0.45045(9) 0.24886(13) 0.22323(8)
C8 C 0.49594(9) 0.17504(14) 0.28743(8)
C9 C 0.48807(10) 0.03103(14) 0.29179(8)
H3 H 0.5193 -0.0192 0.3355
C10 C 0.43296(10) -0.03761(14) 0.23008(8)
H4 H 0.4256 -0.1362 0.2319
C11 C 0.38843(10) 0.03623(14) 0.16572(8)
H5 H 0.3517 -0.0128 0.1240
C12 C 0.39690(10) 0.18156(14) 0.16149(8)
H6 H 0.3667 0.2321 0.1175
C13 C 0.57533(10) 0.25284(14) 0.42442(8)
C14 C 0.64099(11) 0.15055(15) 0.45131(8)
H7 H 0.6703 0.1001 0.4159
C15 C 0.66413(11) 0.12145(15) 0.52956(9)
H8 H 0.7081 0.0497 0.5474
C16 C 0.62328(11) 0.19675(15) 0.58184(8)
H9 H 0.6405 0.1786 0.6356
C17 C 0.55750(11) 0.29806(16) 0.55549(8)
H10 H 0.5292 0.3496 0.5911
C18 C 0.53242(10) 0.32504(15) 0.47664(8)
H11 H 0.4858 0.3930 0.4586
C19 C 0.40891(9) 0.51012(13) 0.20236(8)
C20 C 0.33347(10) 0.54635(14) 0.23705(8)
H12 H 0.3277 0.5062 0.2852
C21 C 0.26677(10) 0.64091(15) 0.20147(8)
H13 H 0.2159 0.6658 0.2256
C22 C 0.27403(10) 0.69918(14) 0.13089(8)
H14 H 0.2280 0.7634 0.1066
C23 C 0.34843(10) 0.66369(14) 0.09590(8)
H15 H 0.3536 0.7037 0.0476
C24 C 0.41566(10) 0.56945(14) 0.13147(8)
H16 H 0.4666 0.5453 0.1072
C25 C 0.68723(10) 0.13000(14) 0.12914(8)
C26 C 0.63430(10) 0.00834(15) 0.11458(8)
H17 H 0.5843 -0.0081 0.1413
C27 C 0.65376(11) -0.08925(15) 0.06145(8)
C28 C 0.72757(10) -0.05909(15) 0.02357(8)
H18 H 0.7420 -0.1232 -0.0136
C29 C 0.78003(10) 0.06099(14) 0.03858(8)
H19 H 0.8299 0.0773 0.0117
C30 C 0.76176(10) 0.15984(14) 0.09257(8)
C31 C 0.59784(13) -0.22270(18) 0.04710(10)
H20 H 0.5745 -0.2487 0.0938
H21 H 0.6379 -0.2976 0.0336
H22 H 0.5448 -0.2085 0.0046
C32 C 0.81819(12) 0.29004(16) 0.10967(11)
H23 H 0.7764 0.3714 0.1031
H24 H 0.8626 0.2974 0.0743
H25 H 0.8527 0.2870 0.1629
loop_
_geom_bond_atom_site_label_1
_geom_bond_atom_site_label_2
_geom_bond_site_symmetry_1
_geom_bond_site_symmetry_2
O1 C1 1_555 1_555
O2 C3 1_555 1_555
O3 C4 1_555 1_555
N1 C3 1_555 1_555
C1 C2 1_555 1_555
C2 H1 1_555 1_555
C3 C2 1_555 1_555
C4 N1 1_555 1_555
C5 C2 1_555 1_555
H2 C5 1_555 1_555
C6 O1 1_555 1_555
C7 C6 1_555 1_555
C8 C1 1_555 1_555
C9 C8 1_555 1_555
H3 C9 1_555 1_555
C10 C9 1_555 1_555
H4 C10 1_555 1_555
C11 C10 1_555 1_555
H5 C11 1_555 1_555
C12 C7 1_555 1_555
H6 C12 1_555 1_555
C13 C1 1_555 1_555
C14 C13 1_555 1_555
H7 C14 1_555 1_555
C15 C14 1_555 1_555
H8 C15 1_555 1_555
C16 C15 1_555 1_555
H9 C16 1_555 1_555
C17 C16 1_555 1_555
H10 C17 1_555 1_555
C18 C13 1_555 1_555
H11 C18 1_555 1_555
C19 C6 1_555 1_555
C20 C19 1_555 1_555
H12 C20 1_555 1_555
C21 C20 1_555 1_555
H13 C21 1_555 1_555
C22 C21 1_555 1_555
H14 C22 1_555 1_555
C23 C22 1_555 1_555
H15 C23 1_555 1_555
C24 C19 1_555 1_555
H16 C24 1_555 1_555
C25 N1 1_555 1_555
C26 C25 1_555 1_555
H17 C26 1_555 1_555
C27 C26 1_555 1_555
C28 C27 1_555 1_555
H18 C28 1_555 1_555
C29 C28 1_555 1_555
H19 C29 1_555 1_555
C30 C25 1_555 1_555
C31 C27 1_555 1_555
H20 C31 1_555 1_555
H21 C31 1_555 1_555
H22 C31 1_555 1_555
C32 C30 1_555 1_555
H23 C32 1_555 1_555
H24 C32 1_555 1_555
H25 C32 1_555 1_555
C4 C5 1_555 1_555
C5 C6 1_555 1_555
C7 C8 1_555 1_555
C11 C12 1_555 1_555
C17 C18 1_555 1_555
C23 C24 1_555 1_555
C29 C30 1_555 1_555

#END
