
#######################################################################
#
#                 Cambridge Crystallographic Data Centre
#                                CCDC 
#
#######################################################################
#
# If this CIF has been generated from an entry in the Cambridge 
# Structural Database, then it will include bibliographic, chemical, 
# crystal, experimental, refinement or atomic coordinate data resulting 
# from the CCDC's data processing and validation procedures.
#
#######################################################################

data_TUVHID
_chemical_formula_moiety         'C32 H25 N1 O4'
_chemical_name_systematic        
11-(5-methoxy-2-methylphenyl)-1,8-diphenyl-14-oxa-11-azatetracyclo[6.5.1.0^2,7^.0^9,13^]tetradeca-2,4,6-triene-10,12-dione
_symmetry_cell_setting           monoclinic
_symmetry_space_group_name_H-M   'P 21/n'
_symmetry_Int_Tables_number      14
_space_group_name_Hall           '-P 2yn'
loop_
_symmetry_equiv_pos_site_id
_symmetry_equiv_pos_as_xyz
1 x,y,z
2 1/2-x,1/2+y,1/2-z
3 -x,-y,-z
4 1/2+x,1/2-y,1/2+z
_cell_length_a                   14.6828(13)
_cell_length_b                   9.6380(8)
_cell_length_c                   17.5477(15)
_cell_angle_alpha                90
_cell_angle_beta                 100.688(2)
_cell_angle_gamma                90
_cell_volume                     2440.14
_exptl_crystal_colour            colorless
_exptl_crystal_description       plate
_cell_formula_units_Z            4
loop_
_atom_site_label
_atom_site_type_symbol
_atom_site_fract_x
_atom_site_fract_y
_atom_site_fract_z
O1 O 0.48991(7) 0.40877(9) 0.32271(5)
O2 O 0.73453(7) 0.13938(11) 0.29396(6)
O3 O 0.58216(7) 0.39058(10) 0.08999(6)
O4 O 0.62930(8) -0.17687(11) 0.02449(6)
N1 N 0.66001(8) 0.24146(12) 0.18139(7)
C1 C 0.55169(10) 0.29074(14) 0.33932(8)
C2 C 0.63218(10) 0.34043(14) 0.29727(8)
H1 H 0.6770 0.4010 0.3322
C3 C 0.68271(10) 0.22736(14) 0.26157(8)
C4 C 0.60431(10) 0.35609(14) 0.15689(8)
C5 C 0.57963(10) 0.42391(14) 0.22820(8)
H2 H 0.5984 0.5238 0.2318
C6 C 0.47621(10) 0.40546(14) 0.23876(8)
C7 C 0.45179(10) 0.25312(14) 0.22281(8)
C8 C 0.49770(10) 0.18131(14) 0.28724(8)
C9 C 0.49178(10) 0.03886(14) 0.29240(8)
H3 H 0.5225 -0.0097 0.3369
C10 C 0.43906(10) -0.03128(15) 0.22977(9)
H4 H 0.4331 -0.1293 0.2318
C11 C 0.39535(10) 0.04029(15) 0.16474(9)
H5 H 0.3608 -0.0098 0.1224
C12 C 0.40102(10) 0.18481(14) 0.16014(8)
H6 H 0.3710 0.2339 0.1155
C13 C 0.57656(10) 0.26075(14) 0.42454(8)
C14 C 0.64698(11) 0.16725(14) 0.45216(9)
H7 H 0.6797 0.1232 0.4169
C15 C 0.66977(11) 0.13778(15) 0.53036(9)
H8 H 0.7169 0.0718 0.5485
C16 C 0.62427(11) 0.20401(15) 0.58252(9)
H9 H 0.6407 0.1847 0.6364
C17 C 0.55481(11) 0.29848(16) 0.55566(9)
H10 H 0.5239 0.3450 0.5913
C18 C 0.53018(10) 0.32551(15) 0.47683(8)
H11 H 0.4813 0.3887 0.4586
C19 C 0.40588(10) 0.51096(14) 0.20291(8)
C20 C 0.33612(11) 0.55262(15) 0.24166(9)
H12 H 0.3345 0.5170 0.2919
C21 C 0.26893(11) 0.64585(16) 0.20741(9)
H13 H 0.2217 0.6743 0.2344
C22 C 0.27041(11) 0.69757(15) 0.13419(9)
H14 H 0.2243 0.7616 0.1109
C23 C 0.33902(11) 0.65598(15) 0.09505(9)
H15 H 0.3401 0.6911 0.0446
C24 C 0.40643(11) 0.56299(14) 0.12923(8)
H16 H 0.4534 0.5346 0.1020
C25 C 0.69297(10) 0.15028(14) 0.12754(8)
C26 C 0.64238(10) 0.03063(14) 0.10490(8)
H17 H 0.5891 0.0083 0.1260
C27 C 0.67150(11) -0.05550(14) 0.05080(8)
C28 C 0.74913(10) -0.02013(15) 0.01994(8)
H18 H 0.7684 -0.0778 -0.0180
C29 C 0.79777(10) 0.09834(14) 0.04456(8)
H19 H 0.8510 0.1207 0.0234
C30 C 0.77170(10) 0.18688(14) 0.09947(8)
C31 C 0.55398(13) -0.22311(19) 0.05859(10)
H20 H 0.5309 -0.3118 0.0353
H21 H 0.5041 -0.1541 0.0494
H22 H 0.5750 -0.2353 0.1145
C32 C 0.82655(12) 0.31459(16) 0.12638(10)
H23 H 0.7845 0.3940 0.1246
H24 H 0.8713 0.3324 0.0924
H25 H 0.8597 0.3009 0.1797
loop_
_geom_bond_atom_site_label_1
_geom_bond_atom_site_label_2
_geom_bond_site_symmetry_1
_geom_bond_site_symmetry_2
O1 C1 1_555 1_555
O2 C3 1_555 1_555
O3 C4 1_555 1_555
O4 C27 1_555 1_555
N1 C3 1_555 1_555
C1 C2 1_555 1_555
C2 H1 1_555 1_555
C3 C2 1_555 1_555
C4 N1 1_555 1_555
C5 C2 1_555 1_555
H2 C5 1_555 1_555
C6 O1 1_555 1_555
C7 C6 1_555 1_555
C8 C1 1_555 1_555
C9 C8 1_555 1_555
H3 C9 1_555 1_555
C10 C9 1_555 1_555
H4 C10 1_555 1_555
C11 C10 1_555 1_555
H5 C11 1_555 1_555
C12 C7 1_555 1_555
H6 C12 1_555 1_555
C13 C1 1_555 1_555
C14 C13 1_555 1_555
H7 C14 1_555 1_555
C15 C14 1_555 1_555
H8 C15 1_555 1_555
C16 C15 1_555 1_555
H9 C16 1_555 1_555
C17 C16 1_555 1_555
H10 C17 1_555 1_555
C18 C13 1_555 1_555
H11 C18 1_555 1_555
C19 C6 1_555 1_555
C20 C19 1_555 1_555
H12 C20 1_555 1_555
C21 C20 1_555 1_555
H13 C21 1_555 1_555
C22 C21 1_555 1_555
H14 C22 1_555 1_555
C23 C22 1_555 1_555
H15 C23 1_555 1_555
C24 C19 1_555 1_555
H16 C24 1_555 1_555
C25 N1 1_555 1_555
C26 C25 1_555 1_555
H17 C26 1_555 1_555
C27 C26 1_555 1_555
C28 C27 1_555 1_555
H18 C28 1_555 1_555
C29 C28 1_555 1_555
H19 C29 1_555 1_555
C30 C25 1_555 1_555
C31 O4 1_555 1_555
H20 C31 1_555 1_555
H21 C31 1_555 1_555
H22 C31 1_555 1_555
C32 C30 1_555 1_555
H23 C32 1_555 1_555
H24 C32 1_555 1_555
H25 C32 1_555 1_555
C4 C5 1_555 1_555
C5 C6 1_555 1_555
C7 C8 1_555 1_555
C11 C12 1_555 1_555
C17 C18 1_555 1_555
C23 C24 1_555 1_555
C29 C30 1_555 1_555

#END
