
#######################################################################
#
#                 Cambridge Crystallographic Data Centre
#                                CCDC 
#
#######################################################################
#
# If this CIF has been generated from an entry in the Cambridge 
# Structural Database, then it will include bibliographic, chemical, 
# crystal, experimental, refinement or atomic coordinate data resulting 
# from the CCDC's data processing and validation procedures.
#
#######################################################################

data_TUVJAX
_chemical_formula_moiety         'C21 H17 N1 O4'
_chemical_name_systematic        
'4-(10,12-dioxo-11-azatetracyclo[6.5.1.0^2,7^.0^9,13^]tetradeca-2,4,6-trien-11-yl)-3-methylbenzoic acid'
_symmetry_cell_setting           monoclinic
_symmetry_space_group_name_H-M   'P 21/n'
_symmetry_Int_Tables_number      14
_space_group_name_Hall           '-P 2yn'
loop_
_symmetry_equiv_pos_site_id
_symmetry_equiv_pos_as_xyz
1 x,y,z
2 1/2-x,1/2+y,1/2-z
3 -x,-y,-z
4 1/2+x,1/2-y,1/2+z
_cell_length_a                   12.1430(9)
_cell_length_b                   7.6745(5)
_cell_length_c                   17.9084(13)
_cell_angle_alpha                90
_cell_angle_beta                 92.807(2)
_cell_angle_gamma                90
_cell_volume                     1666.91
_exptl_crystal_colour            colorless
_exptl_crystal_description       plate
_cell_formula_units_Z            4
loop_
_atom_site_label
_atom_site_type_symbol
_atom_site_fract_x
_atom_site_fract_y
_atom_site_fract_z
O1 O 0.71631(8) 0.31316(14) 0.21375(6)
O2 O 0.47182(8) 0.00739(12) 0.34882(5)
O3 O 0.70479(10) 0.67615(15) 0.57902(7)
O4 O 0.56377(9) 0.81651(14) 0.52032(6)
H1 H 0.5640(18) 0.877(3) 0.5638(14)
N1 N 0.59733(9) 0.18591(14) 0.29405(6)
C1 C 0.49726(12) -0.10037(19) 0.09859(8)
H2 H 0.5432 -0.2070 0.0997
H3 H 0.4458 -0.1009 0.0540
C2 C 0.56673(11) 0.06879(18) 0.10545(8)
H4 H 0.6147 0.0942 0.0630
C3 C 0.62766(11) 0.03471(18) 0.18261(7)
H5 H 0.6949 -0.0382 0.1766
C4 C 0.65554(11) 0.19502(18) 0.22811(7)
C5 C 0.52990(11) 0.04070(17) 0.29743(7)
C6 C 0.54217(11) -0.06463(17) 0.22731(7)
H6 H 0.5687 -0.1850 0.2397
C7 C 0.43808(12) -0.07084(18) 0.17236(8)
H7 H 0.3806 -0.1586 0.1841
C8 C 0.39773(11) 0.11405(18) 0.15962(8)
C9 C 0.47611(11) 0.19903(18) 0.11786(8)
C10 C 0.46327(13) 0.3723(2) 0.09742(8)
H8 H 0.5175 0.4306 0.0702
C11 C 0.36816(14) 0.4582(2) 0.11809(10)
H9 H 0.3567 0.5764 0.1039
C12 C 0.29033(13) 0.3743(2) 0.15888(10)
H10 H 0.2261 0.4355 0.1721
C13 C 0.30472(12) 0.2004(2) 0.18109(9)
H11 H 0.2520 0.1435 0.2101
C14 C 0.60793(11) 0.31401(17) 0.35275(7)
C15 C 0.67709(11) 0.27806(18) 0.41549(8)
C16 C 0.68598(11) 0.40514(19) 0.47118(8)
H12 H 0.7327 0.3853 0.5145
C17 C 0.62736(11) 0.56071(18) 0.46418(8)
C18 C 0.55857(12) 0.59242(18) 0.40114(8)
H13 H 0.5183 0.6984 0.3967
C19 C 0.54920(11) 0.46853(18) 0.34497(8)
H14 H 0.5030 0.4892 0.3015
C20 C 0.73652(15) 0.1103(2) 0.42321(10)
H15 H 0.7885 0.1153 0.4668
H16 H 0.7769 0.0885 0.3781
H17 H 0.6835 0.0161 0.4299
C21 C 0.63754(12) 0.68870(18) 0.52733(8)
H18? H 0.7165 0.1714 0.4201
C22? C 0.4692(6) 0.5021(10) 0.2824(3)
H19? H 0.4110 0.4137 0.2820
H20? H 0.5067 0.4971 0.2352
H21? H 0.4366 0.6178 0.2881
loop_
_geom_bond_atom_site_label_1
_geom_bond_atom_site_label_2
_geom_bond_site_symmetry_1
_geom_bond_site_symmetry_2
O1 C4 1_555 1_555
O2 C5 1_555 1_555
O3 C21 1_555 1_555
O4 H1 1_555 1_555
N1 C4 1_555 1_555
C1 H2 1_555 1_555
H3 C1 1_555 1_555
C2 C1 1_555 1_555
H4 C2 1_555 1_555
C3 C2 1_555 1_555
H5 C3 1_555 1_555
C4 C3 1_555 1_555
C5 N1 1_555 1_555
C6 C3 1_555 1_555
H6 C6 1_555 1_555
C7 C1 1_555 1_555
H7 C7 1_555 1_555
C8 C7 1_555 1_555
C9 C2 1_555 1_555
C10 C9 1_555 1_555
H8 C10 1_555 1_555
C11 C10 1_555 1_555
H9 C11 1_555 1_555
C12 C11 1_555 1_555
H10 C12 1_555 1_555
C13 C8 1_555 1_555
H11 C13 1_555 1_555
C14 N1 1_555 1_555
C15 C14 1_555 1_555
C16 C15 1_555 1_555
H12 C16 1_555 1_555
C17 C16 1_555 1_555
C18 C17 1_555 1_555
H13 C18 1_555 1_555
C19 C14 1_555 1_555
H14 C19 1_555 1_555
C20 C15 1_555 1_555
H15 C20 1_555 1_555
H16 C20 1_555 1_555
H17 C20 1_555 1_555
C21 O4 1_555 1_555
C5 C6 1_555 1_555
C6 C7 1_555 1_555
C8 C9 1_555 1_555
C12 C13 1_555 1_555
C17 C21 1_555 1_555
C18 C19 1_555 1_555

#END
