
#######################################################################
#
#                 Cambridge Crystallographic Data Centre
#                                CCDC 
#
#######################################################################
#
# If this CIF has been generated from an entry in the Cambridge 
# Structural Database, then it will include bibliographic, chemical, 
# crystal, experimental, refinement or atomic coordinate data resulting 
# from the CCDC's data processing and validation procedures.
#
#######################################################################

data_TUVKAW
_chemical_formula_moiety         'C76 H14,C1 H1 Cl3,C1 S2'
_chemical_name_systematic        
'1,2-Di-p-tolylC62fullerene chloroform carbon disulfide solvate'
_symmetry_cell_setting           orthorhombic
_symmetry_space_group_name_H-M   'P 21 21 21'
_symmetry_Int_Tables_number      19
_space_group_name_Hall           'P 2ac 2ab'
loop_
_symmetry_equiv_pos_site_id
_symmetry_equiv_pos_as_xyz
1 x,y,z
2 1/2-x,-y,1/2+z
3 -x,1/2+y,1/2-z
4 1/2+x,1/2-y,-z
_cell_length_a                   10.0834(13)
_cell_length_b                   17.335(2)
_cell_length_c                   25.586(3)
_cell_angle_alpha                90
_cell_angle_beta                 90
_cell_angle_gamma                90
_cell_volume                     4472.32
_exptl_crystal_colour            black
_exptl_crystal_description       tablet
_cell_formula_units_Z            4
loop_
_atom_site_label
_atom_site_type_symbol
_atom_site_fract_x
_atom_site_fract_y
_atom_site_fract_z
C1 C 0.7400(4) 0.5343(2) 0.93618(15)
C2 C 0.7284(5) 0.4847(2) 0.88059(16)
C3 C 0.5817(5) 0.4777(2) 0.89452(16)
C4 C 0.5911(5) 0.5190(3) 0.94092(15)
C5 C 0.4943(4) 0.5701(2) 0.95736(14)
C6 C 0.3708(4) 0.5564(3) 0.93514(16)
C7 C 0.3572(4) 0.5121(2) 0.88669(17)
C8 C 0.4744(5) 0.4845(2) 0.86230(16)
C9 C 0.4958(5) 0.5027(2) 0.80666(16)
C10 C 0.3865(5) 0.5300(2) 0.77915(17)
C11 C 0.2632(4) 0.5501(2) 0.80300(18)
C12 C 0.2489(4) 0.5438(3) 0.8571(2)
C13 C 0.1919(4) 0.6058(3) 0.88627(18)
C14 C 0.2664(5) 0.6138(3) 0.93388(17)
C15 C 0.2962(5) 0.6857(3) 0.95314(16)
C16 C 0.4318(5) 0.7043(3) 0.97125(15)
C17 C 0.5300(5) 0.6505(3) 0.97010(15)
C18 C 0.6655(5) 0.6745(2) 0.95344(15)
C19 C 0.6853(5) 0.7531(3) 0.94078(17)
C20 C 0.5777(5) 0.8082(3) 0.94417(17)
C21 C 0.4523(5) 0.7842(3) 0.95858(16)
C22 C 0.3361(5) 0.8146(3) 0.93168(18)
C23 C 0.2430(5) 0.7546(3) 0.92821(18)
C24 C 0.1646(4) 0.7455(3) 0.88227(16)
C25 C 0.1840(5) 0.8000(3) 0.83971(19)
C26 C 0.2766(5) 0.8599(2) 0.84343(18)
C27 C 0.3610(5) 0.8784(2) 0.80004(17)
C28 C 0.4884(5) 0.8991(2) 0.81898(17)
C29 C 0.4858(5) 0.8925(2) 0.87714(17)
C30 C 0.3545(5) 0.8678(2) 0.89155(16)
C31 C 0.5964(5) 0.8644(2) 0.90226(19)
C32 C 0.7131(5) 0.8439(2) 0.87530(18)
C33 C 0.7714(5) 0.7770(3) 0.89998(19)
C34 C 0.8342(4) 0.7225(3) 0.86894(17)
C35 C 0.8375(4) 0.7267(3) 0.81363(18)
C36 C 0.7795(4) 0.7930(3) 0.78890(18)
C37 C 0.7189(5) 0.8522(3) 0.8204(2)
C38 C 0.6042(5) 0.8793(2) 0.79267(19)
C39 C 0.5912(5) 0.8347(2) 0.74455(16)
C40 C 0.7017(4) 0.7808(3) 0.74299(17)
C41 C 0.6804(5) 0.7076(3) 0.72281(15)
C42 C 0.5520(5) 0.6848(3) 0.70449(16)
C43 C 0.4472(5) 0.7356(3) 0.70507(15)
C44 C 0.4697(5) 0.8137(3) 0.72541(16)
C45 C 0.3502(5) 0.8359(3) 0.75318(17)
C46 C 0.2545(5) 0.7749(3) 0.74957(17)
C47 C 0.3159(5) 0.7124(3) 0.72004(15)
C48 C 0.2931(5) 0.6357(3) 0.73377(17)
C49 C 0.2082(5) 0.6167(3) 0.7763(2)
C50 C 0.1477(4) 0.6754(3) 0.80555(18)
C51 C 0.1740(5) 0.7559(3) 0.79125(18)
C52 C 0.1413(4) 0.6711(3) 0.86170(19)
C53 C 0.4053(5) 0.5824(3) 0.73446(17)
C54 C 0.5284(5) 0.6061(3) 0.72005(15)
C55 C 0.6436(5) 0.5799(3) 0.74980(16)
C56 C 0.7370(5) 0.6403(3) 0.74909(18)
C57 C 0.8193(4) 0.6535(3) 0.79327(18)
C58 C 0.8150(4) 0.5972(2) 0.83450(17)
C59 C 0.8252(4) 0.6422(3) 0.88467(17)
C60 C 0.7545(4) 0.6187(2) 0.92787(16)
C61 C 0.7331(4) 0.5337(2) 0.83287(18)
C62 C 0.6296(4) 0.5282(2) 0.79257(16)
C63 C 0.8097(4) 0.4124(2) 0.87653(15)
C64 C 0.7584(4) 0.3421(2) 0.89341(16)
H1 H 0.6725 0.3404 0.9086
C65 C 0.8310(4) 0.2744(2) 0.88836(15)
H2 H 0.7944 0.2275 0.9011
C66 C 0.9541(5) 0.2733(2) 0.86541(16)
C67 C 1.0245(5) 0.1979(2) 0.85629(18)
H3 H 1.1196 0.2045 0.8626
H4 H 1.0103 0.1812 0.8201
H5 H 0.9892 0.1587 0.8802
C68 C 1.0051(4) 0.3431(2) 0.84904(16)
H6 H 1.0908 0.3440 0.8336
C69 C 0.9368(5) 0.4117(3) 0.85414(17)
H7 H 0.9758 0.4586 0.8425
C70 C 0.8336(4) 0.5023(2) 0.97648(15)
C71 C 0.7888(4) 0.4551(3) 1.01644(17)
H8 H 0.6972 0.4427 1.0186
C72 C 0.8765(5) 0.4257(3) 1.05349(17)
H9 H 0.8435 0.3941 1.0809
C73 C 1.0088(4) 0.4416(2) 1.05107(15)
C74 C 1.1059(5) 0.4133(3) 1.09151(16)
H10 H 1.0891 0.3586 1.0988
H11 H 1.0952 0.4433 1.1237
H12 H 1.1965 0.4195 1.0783
C75 C 1.0557(4) 0.4885(2) 1.00989(16)
H13 H 1.1477 0.4996 1.0072
C76 C 0.9705(4) 0.5176(2) 0.97428(16)
H14 H 1.0040 0.5492 0.9470
C77 C 0.9969(5) 0.9760(3) 0.84657(19)
S1 S 1.00833(16) 0.98336(8) 0.78688(6)
S2 S 0.98648(17) 0.96715(8) 0.90702(6)
C78 C 0.2784(8) 0.3336(5) 0.9540(3)
H15 H 0.229(9) 0.378(5) 0.938(3)
Cl1 Cl 0.37120(18) 0.28555(9) 0.90413(6)
Cl2 Cl 0.16817(13) 0.27180(9) 0.98270(5)
Cl3 Cl 0.39840(13) 0.36866(7) 1.00082(5)
C79? C 0.3445(13) 0.2823(7) 0.9749(4)
H16? H 0.393(12) 0.238(7) 0.991(4)
loop_
_geom_bond_atom_site_label_1
_geom_bond_atom_site_label_2
_geom_bond_site_symmetry_1
_geom_bond_site_symmetry_2
C1 C2 1_555 1_555
C2 C3 1_555 1_555
C3 C4 1_555 1_555
C4 C1 1_555 1_555
C5 C4 1_555 1_555
C6 C5 1_555 1_555
C7 C6 1_555 1_555
C8 C3 1_555 1_555
C9 C8 1_555 1_555
C10 C9 1_555 1_555
C11 C10 1_555 1_555
C12 C7 1_555 1_555
C13 C12 1_555 1_555
C14 C6 1_555 1_555
C15 C14 1_555 1_555
C16 C15 1_555 1_555
C17 C5 1_555 1_555
C18 C17 1_555 1_555
C19 C18 1_555 1_555
C20 C19 1_555 1_555
C21 C16 1_555 1_555
C22 C21 1_555 1_555
C23 C15 1_555 1_555
C24 C23 1_555 1_555
C25 C24 1_555 1_555
C26 C25 1_555 1_555
C27 C26 1_555 1_555
C28 C27 1_555 1_555
C29 C28 1_555 1_555
C30 C22 1_555 1_555
C31 C20 1_555 1_555
C32 C31 1_555 1_555
C33 C19 1_555 1_555
C34 C33 1_555 1_555
C35 C34 1_555 1_555
C36 C35 1_555 1_555
C37 C32 1_555 1_555
C38 C28 1_555 1_555
C39 C38 1_555 1_555
C40 C36 1_555 1_555
C41 C40 1_555 1_555
C42 C41 1_555 1_555
C43 C42 1_555 1_555
C44 C39 1_555 1_555
C45 C27 1_555 1_555
C46 C45 1_555 1_555
C47 C43 1_555 1_555
C48 C47 1_555 1_555
C49 C11 1_555 1_555
C50 C49 1_555 1_555
C51 C25 1_555 1_555
C52 C13 1_555 1_555
C53 C10 1_555 1_555
C54 C42 1_555 1_555
C55 C54 1_555 1_555
C56 C41 1_555 1_555
C57 C35 1_555 1_555
C58 C57 1_555 1_555
C59 C34 1_555 1_555
C60 C1 1_555 1_555
C61 C2 1_555 1_555
C62 C9 1_555 1_555
C63 C2 1_555 1_555
C64 C63 1_555 1_555
H1 C64 1_555 1_555
C65 C64 1_555 1_555
H2 C65 1_555 1_555
C66 C65 1_555 1_555
C67 C66 1_555 1_555
H3 C67 1_555 1_555
H4 C67 1_555 1_555
H5 C67 1_555 1_555
C68 C66 1_555 1_555
H6 C68 1_555 1_555
C69 C63 1_555 1_555
H7 C69 1_555 1_555
C70 C1 1_555 1_555
C71 C70 1_555 1_555
H8 C71 1_555 1_555
C72 C71 1_555 1_555
H9 C72 1_555 1_555
C73 C72 1_555 1_555
C74 C73 1_555 1_555
H10 C74 1_555 1_555
H11 C74 1_555 1_555
H12 C74 1_555 1_555
C75 C73 1_555 1_555
H13 C75 1_555 1_555
C76 C70 1_555 1_555
H14 C76 1_555 1_555
C77 S1 1_555 1_555
S2 C77 1_555 1_555
C78 H15 1_555 1_555
Cl1 C78 1_555 1_555
Cl2 C78 1_555 1_555
Cl3 C78 1_555 1_555
C7 C8 1_555 1_555
C11 C12 1_555 1_555
C13 C14 1_555 1_555
C16 C17 1_555 1_555
C18 C60 1_555 1_555
C20 C21 1_555 1_555
C22 C23 1_555 1_555
C24 C52 1_555 1_555
C26 C30 1_555 1_555
C29 C31 1_555 1_555
C29 C30 1_555 1_555
C32 C33 1_555 1_555
C36 C37 1_555 1_555
C37 C38 1_555 1_555
C39 C40 1_555 1_555
C43 C44 1_555 1_555
C44 C45 1_555 1_555
C46 C51 1_555 1_555
C46 C47 1_555 1_555
C48 C49 1_555 1_555
C48 C53 1_555 1_555
C50 C52 1_555 1_555
C50 C51 1_555 1_555
C53 C54 1_555 1_555
C55 C56 1_555 1_555
C55 C62 1_555 1_555
C56 C57 1_555 1_555
C58 C59 1_555 1_555
C58 C61 1_555 1_555
C59 C60 1_555 1_555
C61 C62 1_555 1_555
C68 C69 1_555 1_555
C75 C76 1_555 1_555

#END
