
#######################################################################
#
#                 Cambridge Crystallographic Data Centre
#                                CCDC 
#
#######################################################################
#
# If this CIF has been generated from an entry in the Cambridge 
# Structural Database, then it will include bibliographic, chemical, 
# crystal, experimental, refinement or atomic coordinate data resulting 
# from the CCDC's data processing and validation procedures.
#
#######################################################################

data_TUVKAY
_chemical_formula_moiety         'C26 H19 N1 O4'
_chemical_name_systematic        
'4-(16,18-dioxo-17-azapentacyclo[6.6.5.0^2,7^.0^9,14^.0^15,19^]nonadeca-2,4,6,9,11,13-hexaen-17-yl)-3-methylbenzoic acid'
_symmetry_cell_setting           rhombohedral
_symmetry_space_group_name_H-M   'R -3'
_symmetry_Int_Tables_number      148
_space_group_name_Hall           '-R 3'
loop_
_symmetry_equiv_pos_site_id
_symmetry_equiv_pos_as_xyz
1 x,y,z
2 -y,x-y,z
3 -x+y,-x,z
4 2/3+x,1/3+y,1/3+z
5 2/3-y,1/3+x-y,1/3+z
6 2/3-x+y,1/3-x,1/3+z
7 1/3+x,2/3+y,2/3+z
8 1/3-y,2/3+x-y,2/3+z
9 1/3-x+y,2/3-x,2/3+z
10 -x,-y,-z
11 y,-x+y,-z
12 x-y,x,-z
13 1/3-x,2/3-y,2/3-z
14 1/3+y,2/3-x+y,2/3-z
15 1/3+x-y,2/3+x,2/3-z
16 2/3-x,1/3-y,1/3-z
17 2/3+y,1/3-x+y,1/3-z
18 2/3+x-y,1/3+x,1/3-z
_cell_length_a                   29.9603(12)
_cell_length_b                   29.9603(12)
_cell_length_c                   14.0693(11)
_cell_angle_alpha                90
_cell_angle_beta                 90
_cell_angle_gamma                120
_cell_volume                     10936.9
_exptl_crystal_colour            colorless
_exptl_crystal_description       tablet
_cell_formula_units_Z            18
loop_
_atom_site_label
_atom_site_type_symbol
_atom_site_fract_x
_atom_site_fract_y
_atom_site_fract_z
O1 O 0.36269(4) 0.07059(4) 0.34299(7)
O2 O 0.30712(4) 0.17231(4) 0.47929(7)
O3 O 0.23439(5) -0.05417(4) 0.75892(7)
O4 O 0.29422(4) 0.01253(4) 0.84123(7)
H1 H 0.2812(7) -0.0082(8) 0.8877(14)
N1 N 0.33608(5) 0.11724(4) 0.43326(8)
C1 C 0.42682(6) 0.18212(6) 0.25856(10)
H2 H 0.4411 0.1611 0.2309
C2 C 0.36799(6) 0.14894(5) 0.28017(9)
H3 H 0.3487 0.1332 0.2200
C3 C 0.35609(6) 0.10734(5) 0.35228(9)
C4 C 0.32799(6) 0.15945(6) 0.42111(10)
C5 C 0.34854(6) 0.18314(5) 0.32461(9)
H4 H 0.3198 0.1811 0.2851
C6 C 0.39327(6) 0.24001(6) 0.32954(10)
H5 H 0.3819 0.2636 0.3565
C7 C 0.43664(6) 0.24093(6) 0.38663(10)
C8 C 0.45431(6) 0.20935(6) 0.34908(10)
C9 C 0.49375(6) 0.20579(7) 0.39320(11)
H6 H 0.5052 0.1838 0.3684
C10 C 0.51643(7) 0.23512(7) 0.47486(12)
H7 H 0.5436 0.2331 0.5056
C11 C 0.49973(7) 0.26697(7) 0.51115(12)
H8 H 0.5159 0.2872 0.5660
C12 C 0.45939(7) 0.26984(6) 0.46830(11)
H9 H 0.4475 0.2912 0.4944
C13 C 0.41236(6) 0.25388(6) 0.22786(10)
C14 C 0.43070(6) 0.22301(6) 0.19011(10)
C15 C 0.44938(7) 0.23062(6) 0.09782(11)
H10 H 0.4620 0.2097 0.0722
C16 C 0.44928(7) 0.26940(6) 0.04327(11)
H11 H 0.4619 0.2749 -0.0201
C17 C 0.43098(7) 0.29984(6) 0.08081(11)
H12 H 0.4312 0.3262 0.0429
C18 C 0.41221(6) 0.29236(6) 0.17333(10)
H13 H 0.3995 0.3133 0.1987
C19 C 0.32030(6) 0.08552(6) 0.51749(9)
C20 C 0.34505(6) 0.10684(5) 0.60354(9)
C21 C 0.32772(5) 0.07476(5) 0.68303(9)
H14 H 0.3434 0.0880 0.7429
C22 C 0.28810(6) 0.02408(5) 0.67674(9)
C23 C 0.26448(6) 0.00374(6) 0.58978(10)
H15 H 0.2375 -0.0311 0.5853
C24 C 0.28081(6) 0.03497(6) 0.50990(10)
H16 H 0.2649 0.0217 0.4501
C25 C 0.38865(6) 0.16145(6) 0.61146(10)
H17 H 0.4147 0.1678 0.5631
H18 H 0.4042 0.1670 0.6748
H19 H 0.3755 0.1852 0.6017
C26 C 0.26937(6) -0.01022(6) 0.76180(9)
loop_
_geom_bond_atom_site_label_1
_geom_bond_atom_site_label_2
_geom_bond_site_symmetry_1
_geom_bond_site_symmetry_2
O1 C3 1_555 1_555
O2 C4 1_555 1_555
O3 C26 1_555 1_555
O4 H1 1_555 1_555
N1 C3 1_555 1_555
C1 H2 1_555 1_555
C2 C1 1_555 1_555
H3 C2 1_555 1_555
C3 C2 1_555 1_555
C4 N1 1_555 1_555
C5 C2 1_555 1_555
H4 C5 1_555 1_555
C6 C5 1_555 1_555
H5 C6 1_555 1_555
C7 C6 1_555 1_555
C8 C1 1_555 1_555
C9 C8 1_555 1_555
H6 C9 1_555 1_555
C10 C9 1_555 1_555
H7 C10 1_555 1_555
C11 C10 1_555 1_555
H8 C11 1_555 1_555
C12 C7 1_555 1_555
H9 C12 1_555 1_555
C13 C6 1_555 1_555
C14 C1 1_555 1_555
C15 C14 1_555 1_555
H10 C15 1_555 1_555
C16 C15 1_555 1_555
H11 C16 1_555 1_555
C17 C16 1_555 1_555
H12 C17 1_555 1_555
C18 C13 1_555 1_555
H13 C18 1_555 1_555
C19 N1 1_555 1_555
C20 C19 1_555 1_555
C21 C20 1_555 1_555
H14 C21 1_555 1_555
C22 C21 1_555 1_555
C23 C22 1_555 1_555
H15 C23 1_555 1_555
C24 C19 1_555 1_555
H16 C24 1_555 1_555
C25 C20 1_555 1_555
H17 C25 1_555 1_555
H18 C25 1_555 1_555
H19 C25 1_555 1_555
C26 O4 1_555 1_555
C4 C5 1_555 1_555
C7 C8 1_555 1_555
C11 C12 1_555 1_555
C13 C14 1_555 1_555
C17 C18 1_555 1_555
C22 C26 1_555 1_555
C23 C24 1_555 1_555

#END
