
#######################################################################
#
#                 Cambridge Crystallographic Data Centre
#                                CCDC 
#
#######################################################################
#
# If this CIF has been generated from an entry in the Cambridge 
# Structural Database, then it will include bibliographic, chemical, 
# crystal, experimental, refinement or atomic coordinate data resulting 
# from the CCDC's data processing and validation procedures.
#
#######################################################################

data_TUVPIL
_chemical_formula_moiety         'C28 H21 N3 O3'
_chemical_name_systematic        
1,16-dimethyl-19-(2-methylphenyl)-4,13,19-triazahexacyclo[14.5.1.0^2,15^.0^3,8^.0^9,14^.0^17,21^]docosa-2(15),3,5,7,9,11,13-heptaene-18,20,22-trione
_symmetry_cell_setting           monoclinic
_symmetry_space_group_name_H-M   'C 2/c'
_symmetry_Int_Tables_number      15
_space_group_name_Hall           '-C 2yn'
loop_
_symmetry_equiv_pos_site_id
_symmetry_equiv_pos_as_xyz
1 x,y,z
2 -x,y,1/2-z
3 1/2+x,1/2+y,z
4 1/2-x,1/2+y,1/2-z
5 -x,-y,-z
6 x,-y,1/2+z
7 1/2-x,1/2-y,-z
8 1/2+x,1/2-y,1/2+z
_cell_length_a                   27.901(5)
_cell_length_b                   13.660(2)
_cell_length_c                   12.465(2)
_cell_angle_alpha                90
_cell_angle_beta                 110.734(3)
_cell_angle_gamma                90
_cell_volume                     4443.07
_exptl_crystal_colour            colorless
_exptl_crystal_description       plate
_cell_formula_units_Z            8
loop_
_atom_site_label
_atom_site_type_symbol
_atom_site_fract_x
_atom_site_fract_y
_atom_site_fract_z
O1 O 0.50528(5) 0.47224(10) 0.37740(10)
O2 O 0.30395(5) 0.37484(9) 0.31097(11)
O3 O 0.42494(5) 0.18778(10) 0.57439(12)
N1 N 0.35597(5) 0.26704(10) 0.44419(12)
N2 N 0.33991(6) 0.35513(12) 0.06566(13)
C1 C 0.47147(7) 0.41566(13) 0.36899(14)
C2 C 0.41344(7) 0.42318(12) 0.30111(14)
C3 C 0.39518(7) 0.40945(12) 0.40646(14)
H1 H 0.3929 0.4740 0.4422
C4 C 0.34554(7) 0.35253(12) 0.37834(14)
C5 C 0.40780(7) 0.25668(13) 0.51218(15)
C6 C 0.43627(7) 0.34362(12) 0.49153(14)
H2 H 0.4548 0.3792 0.5647
C7 C 0.47359(7) 0.31572(13) 0.42707(15)
C8 C 0.44184(7) 0.26022(13) 0.31927(15)
C9 C 0.40788(7) 0.32271(12) 0.24518(14)
C10 C 0.37206(7) 0.28933(13) 0.13693(14)
C11 C 0.30765(8) 0.32114(18) -0.03278(17)
H3 H 0.2849 0.3665 -0.0835
C12 C 0.30463(8) 0.22375(17) -0.06752(17)
H4 H 0.2804 0.2038 -0.1393
C13 C 0.33687(8) 0.15818(16) 0.00311(16)
H5 H 0.3358 0.0915 -0.0193
C14 C 0.37213(8) 0.18866(14) 0.11000(15)
N3 N 0.4831(2) 0.1010(5) 0.3760(8)
C15 C 0.4101(8) 0.1222(6) 0.1860(11)
C16 C 0.4157(2) 0.0192(5) 0.1733(6)
H6 H 0.3945 -0.0112 0.1044
C17 C 0.4500(3) -0.0378(5) 0.2549(5)
H7 H 0.4510 -0.1066 0.2444
C18 C 0.4833(3) 0.0067(4) 0.3536(5)
H8 H 0.5078 -0.0335 0.4084
C19 C 0.4464(4) 0.1583(5) 0.2906(9)
C20 C 0.39520(8) 0.51509(13) 0.23119(15)
H9 H 0.4083 0.5726 0.2798
H10 H 0.3577 0.5166 0.2013
H11 H 0.4078 0.5157 0.1671
C21 C 0.52601(8) 0.27982(16) 0.50278(17)
H12 H 0.5455 0.2593 0.4548
H13 H 0.5221 0.2241 0.5486
H14 H 0.5444 0.3328 0.5539
C22 C 0.31828(10) 0.19254(16) 0.43240(17)
C23 C 0.30220(10) 0.16928(16) 0.52287(16)
C24 C 0.26866(9) 0.09165(17) 0.5126(2)
H15 H 0.2577 0.0758 0.5745
C25 C 0.25119(8) 0.03728(14) 0.4119(2)
H16 H 0.2283 -0.0158 0.4049
C26 C 0.26726(7) 0.06054(13) 0.3214(2)
H17 H 0.2553 0.0234 0.2526
C27 C 0.30081(9) 0.13817(16) 0.33168(16)
H18 H 0.3118 0.1541 0.2698
C28 C 0.32109(11) 0.2269(2) 0.6351(3)
H19 H 0.3525 0.1967 0.6878
H20 H 0.2947 0.2263 0.6701
H21 H 0.3282 0.2946 0.6196
N4? N 0.4629(3) 0.0963(7) 0.3814(11)
C29? C 0.4016(10) 0.1210(8) 0.1987(15)
C30? C 0.3933(3) 0.0205(7) 0.1749(8)
H22? H 0.3693 -0.0034 0.1048
C31? C 0.4219(3) -0.0395(6) 0.2597(6)
H23? H 0.4185 -0.1085 0.2508
C32? C 0.4567(3) 0.0004(6) 0.3605(7)
H24? H 0.4772 -0.0434 0.4176
C33? C 0.4356(6) 0.1557(7) 0.3041(12)
C34? C 0.3230(3) 0.1948(5) 0.4632(5)
C35? C 0.2986(3) 0.1261(5) 0.3794(5)
C36? C 0.2630(3) 0.0622(5) 0.3955(6)
H25? H 0.2463 0.0152 0.3382
C37? C 0.2518(2) 0.0670(5) 0.4955(7)
H26? H 0.2274 0.0233 0.5065
C38? C 0.2761(2) 0.1357(5) 0.5793(5)
H27? H 0.2685 0.1389 0.6477
C39? C 0.3118(2) 0.1996(5) 0.5632(5)
H28? H 0.3284 0.2465 0.6205
C40? C 0.3139(3) 0.1195(7) 0.2758(7)
H29? H 0.3028 0.1787 0.2292
H30? H 0.2978 0.0621 0.2303
H31? H 0.3513 0.1135 0.3003
loop_
_geom_bond_atom_site_label_1
_geom_bond_atom_site_label_2
_geom_bond_site_symmetry_1
_geom_bond_site_symmetry_2
O1 C1 1_555 1_555
O2 C4 1_555 1_555
O3 C5 1_555 1_555
N1 C4 1_555 1_555
N2 C10 1_555 1_555
C1 C2 1_555 1_555
C2 C3 1_555 1_555
C3 H1 1_555 1_555
C4 C3 1_555 1_555
C5 N1 1_555 1_555
C6 C3 1_555 1_555
H2 C6 1_555 1_555
C7 C1 1_555 1_555
C8 C7 1_555 1_555
C9 C2 1_555 1_555
C10 C9 1_555 1_555
C11 N2 1_555 1_555
H3 C11 1_555 1_555
C12 C11 1_555 1_555
H4 C12 1_555 1_555
C13 C12 1_555 1_555
H5 C13 1_555 1_555
C14 C10 1_555 1_555
N3 C18 1_555 1_555
C15 C14 1_555 1_555
C16 C15 1_555 1_555
H6 C16 1_555 1_555
C17 C16 1_555 1_555
H7 C17 1_555 1_555
C18 C17 1_555 1_555
H8 C18 1_555 1_555
C19 C8 1_555 1_555
C20 C2 1_555 1_555
H9 C20 1_555 1_555
H10 C20 1_555 1_555
H11 C20 1_555 1_555
C21 C7 1_555 1_555
H12 C21 1_555 1_555
H13 C21 1_555 1_555
H14 C21 1_555 1_555
C22 N1 1_555 1_555
C23 C22 1_555 1_555
C24 C23 1_555 1_555
H15 C24 1_555 1_555
C25 C24 1_555 1_555
H16 C25 1_555 1_555
C26 C25 1_555 1_555
H17 C26 1_555 1_555
C27 C22 1_555 1_555
H18 C27 1_555 1_555
C28 C23 1_555 1_555
H19 C28 1_555 1_555
H20 C28 1_555 1_555
H21 C28 1_555 1_555
C5 C6 1_555 1_555
C6 C7 1_555 1_555
C8 C9 1_555 1_555
C13 C14 1_555 1_555
N3 C19 1_555 1_555
C15 C19 1_555 1_555
C26 C27 1_555 1_555

#END
