
#######################################################################
#
#                 Cambridge Crystallographic Data Centre
#                                CCDC 
#
#######################################################################
#
# If this CIF has been generated from an entry in the Cambridge 
# Structural Database, then it will include bibliographic, chemical, 
# crystal, experimental, refinement or atomic coordinate data resulting 
# from the CCDC's data processing and validation procedures.
#
#######################################################################

data_TUVQIM
_chemical_formula_moiety         'C41 H26 N2 O3'
_chemical_name_systematic        
17-(3-methylpyridin-2-yl)-14,20-diphenyl-17-azaheptacyclo[10.9.2.1^14,20^.0^5,22^.0^8,23^.0^13,21^.0^15,19^]tetracosa-1,3,5,7,9,11,13(21),22-octaene-16,18,24-trione
_symmetry_cell_setting           monoclinic
_symmetry_space_group_name_H-M   'P 21/c'
_symmetry_Int_Tables_number      14
_space_group_name_Hall           '-P 2ybc'
loop_
_symmetry_equiv_pos_site_id
_symmetry_equiv_pos_as_xyz
1 x,y,z
2 -x,1/2+y,1/2-z
3 -x,-y,-z
4 x,1/2-y,1/2+z
_cell_length_a                   21.161(2)
_cell_length_b                   17.4083(16)
_cell_length_c                   16.5300(15)
_cell_angle_alpha                90
_cell_angle_beta                 111.823(2)
_cell_angle_gamma                90
_cell_volume                     5652.89
_exptl_crystal_colour            'light brown'
_exptl_crystal_description       plate
_cell_formula_units_Z            8
loop_
_atom_site_label
_atom_site_type_symbol
_atom_site_fract_x
_atom_site_fract_y
_atom_site_fract_z
O1 O 0.33382(7) 0.54638(8) 0.89891(9)
O2 O 0.37626(9) 0.61766(9) 0.59246(10)
O3 O 0.34975(8) 0.36181(9) 0.62916(10)
N1 N 0.36738(9) 0.48615(10) 0.59604(11)
N2 N 0.34870(10) 0.48305(11) 0.44741(12)
C1 C 0.35317(9) 0.53443(11) 0.84119(13)
C2 C 0.37290(10) 0.59158(11) 0.78103(12)
C3 C 0.32847(10) 0.55617(11) 0.69062(13)
H1 H 0.2819 0.5793 0.6685
C4 C 0.35986(11) 0.56081(13) 0.62147(13)
C5 C 0.34826(10) 0.42961(12) 0.64251(13)
C6 C 0.32476(10) 0.46949(11) 0.70797(13)
H2 H 0.2768 0.4545 0.6977
C7 C 0.37074(10) 0.45756(11) 0.80632(12)
C8 C 0.44382(10) 0.48164(11) 0.81998(12)
C9 C 0.44453(10) 0.55912(11) 0.80414(12)
C10 C 0.50524(10) 0.59849(11) 0.80706(12)
C11 C 0.50658(10) 0.67529(12) 0.78264(12)
H3 H 0.4656 0.7043 0.7624
C12 C 0.56723(11) 0.70934(12) 0.78771(13)
H4 H 0.5673 0.7615 0.7709
C13 C 0.62760(11) 0.66828(12) 0.81701(13)
H5 H 0.6688 0.6929 0.8212
C14 C 0.62858(10) 0.59124(12) 0.84037(12)
C15 C 0.69030(11) 0.54703(13) 0.86887(14)
H6 H 0.7319 0.5711 0.8738
C16 C 0.69025(11) 0.47194(13) 0.88872(14)
H7 H 0.7320 0.4443 0.9080
C17 C 0.62883(10) 0.43267(12) 0.88150(13)
C18 C 0.62818(11) 0.35393(12) 0.89719(13)
H8 H 0.6696 0.3258 0.9160
C19 C 0.56774(11) 0.31632(12) 0.88561(13)
H9 H 0.5680 0.2624 0.8948
C20 C 0.50681(11) 0.35658(12) 0.86067(13)
H10 H 0.4659 0.3299 0.8536
C21 C 0.50467(10) 0.43600(11) 0.84580(12)
C22 C 0.56669(10) 0.47494(11) 0.85532(12)
C23 C 0.56671(10) 0.55471(11) 0.83496(12)
C24 C 0.36013(10) 0.67405(12) 0.79746(13)
C25 C 0.31611(11) 0.72108(12) 0.73263(15)
H11 H 0.2962 0.7026 0.6745
C26 C 0.30108(12) 0.79483(13) 0.75244(16)
H12 H 0.2712 0.8265 0.7078
C27 C 0.32921(12) 0.82201(13) 0.83631(17)
H13 H 0.3188 0.8724 0.8497
C28 C 0.37289(13) 0.77558(13) 0.90154(16)
H14 H 0.3920 0.7942 0.9597
C29 C 0.38869(11) 0.70241(12) 0.88230(14)
H15 H 0.4192 0.6713 0.9271
C30 C 0.35879(10) 0.38629(11) 0.84991(13)
C31 C 0.39158(11) 0.37898(12) 0.94001(13)
H16 H 0.4182 0.4203 0.9729
C32 C 0.38565(11) 0.31204(13) 0.98180(14)
H17 H 0.4094 0.3070 1.0429
C33 C 0.34522(11) 0.25222(12) 0.93490(14)
H18 H 0.3412 0.2063 0.9637
C34 C 0.31071(11) 0.25988(12) 0.84565(14)
H19 H 0.2822 0.2195 0.8135
C35 C 0.31759(10) 0.32634(12) 0.80317(13)
H20 H 0.2941 0.3310 0.7420
C36 C 0.39111(12) 0.46524(13) 0.52715(14)
C37 C 0.45270(12) 0.42594(15) 0.54639(16)
C38 C 0.46947(14) 0.40709(15) 0.47517(17)
H21 H 0.5107 0.3804 0.4842
C39 C 0.42753(13) 0.42630(15) 0.39225(16)
H22 H 0.4394 0.4142 0.3437
C40 C 0.36745(13) 0.46378(14) 0.38140(16)
H23 H 0.3379 0.4766 0.3239
C41 C 0.49819(13) 0.40665(17) 0.63820(16)
H24 H 0.5015 0.4511 0.6759
H25 H 0.5436 0.3933 0.6397
H26 H 0.4791 0.3630 0.6589
O4 O 0.80743(8) 0.48151(9) 0.44210(9)
O5 O 0.87777(8) 0.39685(8) 0.78887(10)
O6 O 0.85112(8) 0.65530(8) 0.74235(9)
N3 N 0.87195(9) 0.52933(10) 0.78499(11)
N4 N 0.85985(9) 0.51683(11) 0.91910(12)
C42 C 0.83603(10) 0.49170(11) 0.51858(13)
C43 C 0.86340(10) 0.43274(12) 0.59427(12)
C44 C 0.82393(10) 0.46465(11) 0.65053(13)
H27 H 0.7774 0.4414 0.6314
C45 C 0.86055(10) 0.45573(12) 0.74822(13)
C46 C 0.84872(10) 0.58824(12) 0.72389(13)
C47 C 0.81887(10) 0.55238(11) 0.63413(13)
H28 H 0.7700 0.5677 0.6053
C48 C 0.85742(10) 0.56739(11) 0.57058(12)
C49 C 0.93189(10) 0.54435(11) 0.61874(12)
C50 C 0.93543(10) 0.46660(11) 0.63320(12)
C51 C 0.99832(10) 0.42866(11) 0.68308(12)
C52 C 1.00359(10) 0.35062(11) 0.70568(12)
H29 H 0.9640 0.3193 0.6869
C53 C 1.06607(10) 0.31880(12) 0.75520(13)
H30 H 1.0688 0.2658 0.7696
C54 C 1.12458(10) 0.36295(12) 0.78403(13)
H31 H 1.1670 0.3399 0.8175
C55 C 1.12181(10) 0.44121(12) 0.76429(13)
C56 C 1.18172(10) 0.48840(12) 0.79571(13)
H32 H 1.2243 0.4658 0.8294
C57 C 1.17856(10) 0.56434(12) 0.77813(14)
H33 H 1.2191 0.5941 0.7989
C58 C 1.11526(10) 0.60107(12) 0.72871(13)
C59 C 1.11145(11) 0.68051(12) 0.71539(13)
H34 H 1.1518 0.7106 0.7365
C60 C 1.04949(11) 0.71564(12) 0.67175(13)
H35 H 1.0476 0.7698 0.6643
C61 C 0.98995(10) 0.67276(12) 0.63858(13)
H36 H 0.9479 0.6979 0.6083
C62 C 0.99130(10) 0.59301(11) 0.64931(12)
C63 C 1.05481(10) 0.55592(11) 0.69577(12)
C64 C 1.05821(10) 0.47533(11) 0.71327(12)
C65 C 0.85168(10) 0.35045(11) 0.56446(13)
C66 C 0.81248(11) 0.30060(12) 0.59259(14)
H37 H 0.7945 0.3176 0.6343
C67 C 0.79937(11) 0.22609(13) 0.56010(14)
H38 H 0.7722 0.1928 0.5793
C68 C 0.82562(11) 0.20047(12) 0.50011(14)
H39 H 0.8171 0.1494 0.4785
C69 C 0.86457(11) 0.24959(13) 0.47146(14)
H40 H 0.8825 0.2321 0.4299
C70 C 0.87747(11) 0.32407(12) 0.50304(14)
H41 H 0.9040 0.3574 0.4828
C71 C 0.84044(10) 0.63975(11) 0.51661(13)
C72 C 0.86178(11) 0.64693(12) 0.44662(13)
H42 H 0.8843 0.6053 0.4316
C73 C 0.85031(11) 0.71432(12) 0.39885(13)
H43 H 0.8656 0.7190 0.3518
C74 C 0.81664(11) 0.77479(12) 0.41936(14)
H44 H 0.8091 0.8211 0.3867
C75 C 0.79402(11) 0.76797(12) 0.48735(14)
H45 H 0.7702 0.8092 0.5008
C76 C 0.80621(10) 0.70055(12) 0.53613(13)
H46 H 0.7909 0.6962 0.5832
C77 C 0.89865(11) 0.54407(12) 0.87797(13)
C78 C 0.95911(11) 0.58534(12) 0.91674(14)
C79 C 0.97872(12) 0.59829(13) 1.00559(15)
H47 H 1.0192 0.6262 1.0358
C80 C 0.93997(12) 0.57108(14) 1.05031(15)
H48 H 0.9532 0.5799 1.1111
C81 C 0.88106(12) 0.53044(13) 1.00459(14)
H49 H 0.8545 0.5114 1.0356
C82 C 1.00082(12) 0.61335(15) 0.86662(15)
H50 H 0.9802 0.6601 0.8346
H51 H 1.0024 0.5736 0.8254
H52 H 1.0472 0.6247 0.9071
loop_
_geom_bond_atom_site_label_1
_geom_bond_atom_site_label_2
_geom_bond_site_symmetry_1
_geom_bond_site_symmetry_2
O1 C1 1_555 1_555
O2 C4 1_555 1_555
O3 C5 1_555 1_555
N1 C4 1_555 1_555
N2 C36 1_555 1_555
C1 C2 1_555 1_555
C2 C3 1_555 1_555
C3 H1 1_555 1_555
C4 C3 1_555 1_555
C5 N1 1_555 1_555
C6 C3 1_555 1_555
H2 C6 1_555 1_555
C7 C1 1_555 1_555
C8 C7 1_555 1_555
C9 C2 1_555 1_555
C10 C9 1_555 1_555
C11 C10 1_555 1_555
H3 C11 1_555 1_555
C12 C11 1_555 1_555
H4 C12 1_555 1_555
C13 C12 1_555 1_555
H5 C13 1_555 1_555
C14 C13 1_555 1_555
C15 C14 1_555 1_555
H6 C15 1_555 1_555
C16 C15 1_555 1_555
H7 C16 1_555 1_555
C17 C16 1_555 1_555
C18 C17 1_555 1_555
H8 C18 1_555 1_555
C19 C18 1_555 1_555
H9 C19 1_555 1_555
C20 C19 1_555 1_555
H10 C20 1_555 1_555
C21 C8 1_555 1_555
C22 C17 1_555 1_555
C23 C10 1_555 1_555
C24 C2 1_555 1_555
C25 C24 1_555 1_555
H11 C25 1_555 1_555
C26 C25 1_555 1_555
H12 C26 1_555 1_555
C27 C26 1_555 1_555
H13 C27 1_555 1_555
C28 C27 1_555 1_555
H14 C28 1_555 1_555
C29 C24 1_555 1_555
H15 C29 1_555 1_555
C30 C7 1_555 1_555
C31 C30 1_555 1_555
H16 C31 1_555 1_555
C32 C31 1_555 1_555
H17 C32 1_555 1_555
C33 C32 1_555 1_555
H18 C33 1_555 1_555
C34 C33 1_555 1_555
H19 C34 1_555 1_555
C35 C30 1_555 1_555
H20 C35 1_555 1_555
C36 N1 1_555 1_555
C37 C36 1_555 1_555
C38 C37 1_555 1_555
H21 C38 1_555 1_555
C39 C38 1_555 1_555
H22 C39 1_555 1_555
C40 N2 1_555 1_555
H23 C40 1_555 1_555
C41 C37 1_555 1_555
H24 C41 1_555 1_555
H25 C41 1_555 1_555
H26 C41 1_555 1_555
O4 C42 1_555 1_555
O5 C45 1_555 1_555
O6 C46 1_555 1_555
N3 C45 1_555 1_555
N4 C77 1_555 1_555
C42 C43 1_555 1_555
C43 C44 1_555 1_555
C44 H27 1_555 1_555
C45 C44 1_555 1_555
C46 N3 1_555 1_555
C47 C44 1_555 1_555
H28 C47 1_555 1_555
C48 C42 1_555 1_555
C49 C48 1_555 1_555
C50 C43 1_555 1_555
C51 C50 1_555 1_555
C52 C51 1_555 1_555
H29 C52 1_555 1_555
C53 C52 1_555 1_555
H30 C53 1_555 1_555
C54 C53 1_555 1_555
H31 C54 1_555 1_555
C55 C54 1_555 1_555
C56 C55 1_555 1_555
H32 C56 1_555 1_555
C57 C56 1_555 1_555
H33 C57 1_555 1_555
C58 C57 1_555 1_555
C59 C58 1_555 1_555
H34 C59 1_555 1_555
C60 C59 1_555 1_555
H35 C60 1_555 1_555
C61 C60 1_555 1_555
H36 C61 1_555 1_555
C62 C49 1_555 1_555
C63 C58 1_555 1_555
C64 C51 1_555 1_555
C65 C43 1_555 1_555
C66 C65 1_555 1_555
H37 C66 1_555 1_555
C67 C66 1_555 1_555
H38 C67 1_555 1_555
C68 C67 1_555 1_555
H39 C68 1_555 1_555
C69 C68 1_555 1_555
H40 C69 1_555 1_555
C70 C65 1_555 1_555
H41 C70 1_555 1_555
C71 C48 1_555 1_555
C72 C71 1_555 1_555
H42 C72 1_555 1_555
C73 C72 1_555 1_555
H43 C73 1_555 1_555
C74 C73 1_555 1_555
H44 C74 1_555 1_555
C75 C74 1_555 1_555
H45 C75 1_555 1_555
C76 C71 1_555 1_555
H46 C76 1_555 1_555
C77 N3 1_555 1_555
C78 C77 1_555 1_555
C79 C78 1_555 1_555
H47 C79 1_555 1_555
C80 C79 1_555 1_555
H48 C80 1_555 1_555
C81 N4 1_555 1_555
H49 C81 1_555 1_555
C82 C78 1_555 1_555
H50 C82 1_555 1_555
H51 C82 1_555 1_555
H52 C82 1_555 1_555
C5 C6 1_555 1_555
C6 C7 1_555 1_555
C8 C9 1_555 1_555
C14 C23 1_555 1_555
C20 C21 1_555 1_555
C21 C22 1_555 1_555
C22 C23 1_555 1_555
C28 C29 1_555 1_555
C34 C35 1_555 1_555
C39 C40 1_555 1_555
C46 C47 1_555 1_555
C47 C48 1_555 1_555
C49 C50 1_555 1_555
C55 C64 1_555 1_555
C61 C62 1_555 1_555
C62 C63 1_555 1_555
C63 C64 1_555 1_555
C69 C70 1_555 1_555
C75 C76 1_555 1_555
C80 C81 1_555 1_555

#END
