
#######################################################################
#
#                 Cambridge Crystallographic Data Centre
#                                CCDC 
#
#######################################################################
#
# If this CIF has been generated from an entry in the Cambridge 
# Structural Database, then it will include bibliographic, chemical, 
# crystal, experimental, refinement or atomic coordinate data resulting 
# from the CCDC's data processing and validation procedures.
#
#######################################################################

data_TUVVEM
_chemical_formula_moiety         'C30 H29 B1 Br1 N3'
_chemical_name_systematic        
9-Bromo-6,6-dimesityl-6H-7\l^5^,6\l^5^-pyrido[1'',2'':1',5'][1,4,2]diazaborolo[4',3':1,5]pyrrolo[2,3-b]pyridine
_symmetry_cell_setting           monoclinic
_symmetry_space_group_name_H-M   'P 21/n'
_symmetry_Int_Tables_number      14
_space_group_name_Hall           '-P 2yn'
loop_
_symmetry_equiv_pos_site_id
_symmetry_equiv_pos_as_xyz
1 x,y,z
2 1/2-x,1/2+y,1/2-z
3 -x,-y,-z
4 1/2+x,1/2-y,1/2+z
_cell_length_a                   10.8153(4)
_cell_length_b                   19.6577(4)
_cell_length_c                   11.6788(3)
_cell_angle_alpha                90
_cell_angle_beta                 92.402(2)
_cell_angle_gamma                90
_cell_volume                     2480.78
_exptl_crystal_description       block
_cell_formula_units_Z            4
loop_
_atom_site_label
_atom_site_type_symbol
_atom_site_fract_x
_atom_site_fract_y
_atom_site_fract_z
B1 B 1.1278(4) 0.2577(2) 0.8858(4)
Br1 Br 0.88144(4) 0.03531(2) 0.70066(4)
C1 C 1.0489(4) 0.3176(2) 0.9497(3)
C2 C 1.0573(4) 0.3764(2) 1.0108(3)
H1 H 1.1317 0.3969 1.0399
C3 C 0.9343(4) 0.4023(2) 1.0240(3)
C4 C 0.8816(4) 0.45769(17) 1.0765(3)
H2 H 0.9319 0.4918 1.1125
C5 C 0.7545(5) 0.4622(2) 1.0752(4)
H3 H 0.7163 0.4979 1.1156
C6 C 0.6830(4) 0.4157(2) 1.0163(4)
H4 H 0.5958 0.4217 1.0144
C7 C 0.8514(4) 0.3580(2) 0.9685(3)
C8 C 0.9978(4) 0.1526(2) 0.7946(3)
H5 H 1.0723 0.1286 0.7822
C9 C 0.8853(4) 0.1232(2) 0.7649(3)
C10 C 0.7763(4) 0.1576(2) 0.7823(3)
H6 H 0.6990 0.1377 0.7597
C11 C 0.7808(4) 0.2214(2) 0.8330(3)
H7 H 0.7073 0.2462 0.8461
C12 C 0.8959(4) 0.2479(2) 0.8639(3)
C13 C 1.1932(3) 0.3025(2) 0.7855(3)
C14 C 1.1544(4) 0.3097(2) 0.6703(3)
C15 C 1.2090(4) 0.3589(2) 0.6013(3)
H8 H 1.1796 0.3632 0.5238
C16 C 1.3029(4) 0.4012(2) 0.6404(3)
C17 C 1.3446(4) 0.3925(2) 0.7535(3)
H9 H 1.4112 0.4197 0.7828
C18 C 1.2914(4) 0.34485(19) 0.8256(3)
C19 C 1.0567(4) 0.2650(2) 0.6116(3)
H10 H 1.0252 0.2325 0.6670
H11 H 1.0932 0.2401 0.5486
H12 H 0.9885 0.2934 0.5811
C20 C 1.3598(5) 0.4535(2) 0.5651(4)
H13 H 1.3185 0.4523 0.4888
H14 H 1.4481 0.4436 0.5586
H15 H 1.3499 0.4988 0.5987
C21 C 1.3494(4) 0.3409(2) 0.9455(3)
H16 H 1.3063 0.3064 0.9895
H17 H 1.3426 0.3852 0.9831
H18 H 1.4368 0.3285 0.9415
C22 C 1.2076(3) 0.20154(19) 0.9590(3)
C23 C 1.3060(4) 0.1645(2) 0.9127(3)
C24 C 1.3687(4) 0.1144(2) 0.9760(4)
H19 H 1.4329 0.0900 0.9412
C25 C 1.3410(4) 0.0988(2) 1.0882(4)
C26 C 1.2428(4) 0.1332(2) 1.1324(3)
H20 H 1.2206 0.1230 1.2084
C27 C 1.1748(4) 0.1821(2) 1.0716(3)
C28 C 1.3505(4) 0.1774(2) 0.7926(3)
H21 H 1.4191 0.1465 0.7775
H22 H 1.3788 0.2246 0.7867
H23 H 1.2824 0.1694 0.7362
C29 C 1.4147(5) 0.0465(3) 1.1580(5)
H24 H 1.3810 0.0427 1.2344
H25 H 1.5015 0.0607 1.1654
H26 H 1.4091 0.0022 1.1195
C30 C 1.0665(4) 0.2119(2) 1.1305(3)
H27 H 1.0611 0.1914 1.2067
H28 H 0.9902 0.2024 1.0851
H29 H 1.0775 0.2612 1.1383
N1 N 1.0024(3) 0.21508(17) 0.8412(3)
N2 N 0.9227(3) 0.30675(17) 0.9212(3)
N3 N 0.7292(3) 0.36073(18) 0.9596(3)
loop_
_geom_bond_atom_site_label_1
_geom_bond_atom_site_label_2
_geom_bond_site_symmetry_1
_geom_bond_site_symmetry_2
B1 C1 1_555 1_555
Br1 C9 1_555 1_555
C1 C2 1_555 1_555
C2 H1 1_555 1_555
C3 C2 1_555 1_555
C4 C3 1_555 1_555
H2 C4 1_555 1_555
C5 C4 1_555 1_555
H3 C5 1_555 1_555
C6 C5 1_555 1_555
H4 C6 1_555 1_555
C7 C3 1_555 1_555
C8 H5 1_555 1_555
C9 C8 1_555 1_555
C10 C9 1_555 1_555
H6 C10 1_555 1_555
C11 C10 1_555 1_555
H7 C11 1_555 1_555
C12 C11 1_555 1_555
C13 B1 1_555 1_555
C14 C13 1_555 1_555
C15 C14 1_555 1_555
H8 C15 1_555 1_555
C16 C15 1_555 1_555
C17 C16 1_555 1_555
H9 C17 1_555 1_555
C18 C13 1_555 1_555
C19 C14 1_555 1_555
H10 C19 1_555 1_555
H11 C19 1_555 1_555
H12 C19 1_555 1_555
C20 C16 1_555 1_555
H13 C20 1_555 1_555
H14 C20 1_555 1_555
H15 C20 1_555 1_555
C21 C18 1_555 1_555
H16 C21 1_555 1_555
H17 C21 1_555 1_555
H18 C21 1_555 1_555
C22 B1 1_555 1_555
C23 C22 1_555 1_555
C24 C23 1_555 1_555
H19 C24 1_555 1_555
C25 C24 1_555 1_555
C26 C25 1_555 1_555
H20 C26 1_555 1_555
C27 C22 1_555 1_555
C28 C23 1_555 1_555
H21 C28 1_555 1_555
H22 C28 1_555 1_555
H23 C28 1_555 1_555
C29 C25 1_555 1_555
H24 C29 1_555 1_555
H25 C29 1_555 1_555
H26 C29 1_555 1_555
C30 C27 1_555 1_555
H27 C30 1_555 1_555
H28 C30 1_555 1_555
H29 C30 1_555 1_555
N1 B1 1_555 1_555
N2 C1 1_555 1_555
N3 C6 1_555 1_555
C7 N2 1_555 1_555
C7 N3 1_555 1_555
C8 N1 1_555 1_555
C12 N1 1_555 1_555
C12 N2 1_555 1_555
C17 C18 1_555 1_555
C26 C27 1_555 1_555

#END
