
#######################################################################
#
#                 Cambridge Crystallographic Data Centre
#                                CCDC 
#
#######################################################################
#
# If this CIF has been generated from an entry in the Cambridge 
# Structural Database, then it will include bibliographic, chemical, 
# crystal, experimental, refinement or atomic coordinate data resulting 
# from the CCDC's data processing and validation procedures.
#
#######################################################################

data_TUVYUG
_chemical_formula_moiety         'C24 H24 N4 O2'
_chemical_name_systematic        
1',2',3',8',9',10',10a',10b'-octahydrodispiro[indole-3,5'-dipyrrolo[1,2-a:2',1'-c]pyrazine-6',3''-indole]-2,2''(1H,1''H)-dione
_symmetry_cell_setting           orthorhombic
_symmetry_space_group_name_H-M   'P b c n'
_symmetry_Int_Tables_number      60
_space_group_name_Hall           '-P 2n 2ab'
loop_
_symmetry_equiv_pos_site_id
_symmetry_equiv_pos_as_xyz
1 x,y,z
2 1/2-x,1/2-y,1/2+z
3 1/2+x,1/2-y,-z
4 -x,y,1/2-z
5 -x,-y,-z
6 1/2+x,1/2+y,1/2-z
7 1/2-x,1/2+y,z
8 x,-y,1/2+z
_cell_length_a                   27.5591(13)
_cell_length_b                   9.5215(5)
_cell_length_c                   15.8189(7)
_cell_angle_alpha                90
_cell_angle_beta                 90
_cell_angle_gamma                90
_cell_volume                     4150.94
_exptl_crystal_colour            white
_exptl_crystal_description       rectangular
_cell_formula_units_Z            8
loop_
_atom_site_label
_atom_site_type_symbol
_atom_site_fract_x
_atom_site_fract_y
_atom_site_fract_z
O1 O 0.47736(6) 0.00666(16) 0.09610(9)
O2 O 0.42143(6) -0.18112(17) 0.23493(10)
N1 N 0.32922(7) -0.00438(19) 0.19848(11)
N2 N 0.37904(7) -0.12235(18) 0.06374(11)
N3 N 0.44134(8) 0.1536(2) 0.00051(13)
N4 N 0.44324(7) 0.0348(2) 0.28452(12)
H1 H 0.4653 0.0075 0.3194
C1 C 0.37955(8) 0.0379(2) 0.18439(14)
C2 C 0.38833(8) 0.0247(2) 0.08689(13)
C3 C 0.31216(8) 0.1679(2) 0.02737(14)
H2 H 0.2891 0.1243 0.0614
C4 C 0.38916(9) -0.1635(2) -0.02402(14)
H3 H 0.4237 -0.1762 -0.0330
H4 H 0.3772 -0.0934 -0.0634
C5 C 0.33209(9) 0.3347(2) -0.08157(15)
H5 H 0.3219 0.4025 -0.1200
C6 C 0.39416(8) 0.2005(2) -0.01836(14)
C7 C 0.43044(8) 0.1756(3) 0.27229(14)
C8 C 0.36080(8) 0.1319(2) 0.03365(13)
C9 C 0.45221(9) 0.2928(3) 0.30693(15)
H6 H 0.4784 0.2847 0.3438
C10 C 0.32884(8) -0.1675(2) 0.07979(14)
H7 H 0.3066 -0.1103 0.0459
C11 C 0.31007(9) 0.0061(3) 0.28458(14)
H8 H 0.3070 0.1034 0.3021
H9 H 0.3306 -0.0432 0.3245
C12 C 0.39145(8) 0.1849(2) 0.21571(13)
C13 C 0.26049(9) -0.0641(3) 0.27688(15)
H10 H 0.2351 0.0056 0.2709
H11 H 0.2537 -0.1211 0.3263
C14 C 0.29838(9) 0.2701(2) -0.03053(14)
H12 H 0.2659 0.2952 -0.0349
C15 C 0.44158(8) 0.0587(2) 0.06331(14)
C16 C 0.43380(9) 0.4223(3) 0.28495(16)
H13 H 0.4483 0.5031 0.3063
C17 C 0.38107(9) 0.3004(2) -0.07665(15)
H14 H 0.4039 0.3433 -0.1113
C18 C 0.41706(8) -0.0538(3) 0.23532(14)
C19 C 0.37279(9) 0.3157(3) 0.19650(15)
H15 H 0.3463 0.3241 0.1605
C20 C 0.32999(9) -0.3165(2) 0.04479(15)
H16 H 0.2976 -0.3486 0.0302
H17 H 0.3442 -0.3812 0.0851
C21 C 0.36194(10) -0.3021(3) -0.03438(17)
H18 H 0.3845 -0.3800 -0.0383
H19 H 0.3421 -0.3005 -0.0850
C22 C 0.26389(9) -0.1568(3) 0.19676(15)
H20 H 0.2545 -0.2528 0.2089
H21 H 0.2434 -0.1203 0.1520
C23 C 0.31734(9) -0.1483(2) 0.17234(15)
C24 C 0.39400(10) 0.4347(3) 0.23147(16)
H22 H 0.3815 0.5230 0.2190
H23 H 0.3354(10) -0.217(3) 0.2033(15)
H24 H 0.4640(10) 0.182(3) -0.0248(18)
loop_
_geom_bond_atom_site_label_1
_geom_bond_atom_site_label_2
_geom_bond_site_symmetry_1
_geom_bond_site_symmetry_2
O1 C15 1_555 1_555
O2 C18 1_555 1_555
N1 C1 1_555 1_555
N2 C2 1_555 1_555
N3 C6 1_555 1_555
N4 H1 1_555 1_555
C1 C2 1_555 1_555
C2 C8 1_555 1_555
C3 H2 1_555 1_555
C4 N2 1_555 1_555
H3 C4 1_555 1_555
H4 C4 1_555 1_555
C5 H5 1_555 1_555
C6 C8 1_555 1_555
C7 N4 1_555 1_555
C8 C3 1_555 1_555
C9 C7 1_555 1_555
H6 C9 1_555 1_555
C10 N2 1_555 1_555
H7 C10 1_555 1_555
C11 N1 1_555 1_555
H8 C11 1_555 1_555
H9 C11 1_555 1_555
C12 C1 1_555 1_555
C13 C11 1_555 1_555
H10 C13 1_555 1_555
H11 C13 1_555 1_555
C14 C3 1_555 1_555
H12 C14 1_555 1_555
C15 N3 1_555 1_555
C16 C9 1_555 1_555
H13 C16 1_555 1_555
C17 C5 1_555 1_555
H14 C17 1_555 1_555
C18 N4 1_555 1_555
C19 C12 1_555 1_555
H15 C19 1_555 1_555
C20 C10 1_555 1_555
H16 C20 1_555 1_555
H17 C20 1_555 1_555
C21 C4 1_555 1_555
H18 C21 1_555 1_555
H19 C21 1_555 1_555
C22 C13 1_555 1_555
H20 C22 1_555 1_555
H21 C22 1_555 1_555
C23 N1 1_555 1_555
C24 C16 1_555 1_555
H22 C24 1_555 1_555
H23 C23 1_555 1_555
H24 N3 1_555 1_555
C1 C18 1_555 1_555
C2 C15 1_555 1_555
C5 C14 1_555 1_555
C6 C17 1_555 1_555
C7 C12 1_555 1_555
C10 C23 1_555 1_555
C19 C24 1_555 1_555
C20 C21 1_555 1_555
C22 C23 1_555 1_555

#END
