
#######################################################################
#
#                 Cambridge Crystallographic Data Centre
#                                CCDC 
#
#######################################################################
#
# If this CIF has been generated from an entry in the Cambridge 
# Structural Database, then it will include bibliographic, chemical, 
# crystal, experimental, refinement or atomic coordinate data resulting 
# from the CCDC's data processing and validation procedures.
#
#######################################################################

data_TUVYIU
_chemical_formula_moiety         'C4 H8 O1,H7 B2 N1'
_chemical_name_systematic        
'[(amino)borane](trihydrido)boron tetrahydrofuran solvate'
_symmetry_cell_setting           monoclinic
_symmetry_space_group_name_H-M   'P 21/m'
_symmetry_Int_Tables_number      11
_space_group_name_Hall           '-P 2yb'
loop_
_symmetry_equiv_pos_site_id
_symmetry_equiv_pos_as_xyz
1 x,y,z
2 -x,1/2+y,-z
3 -x,-y,-z
4 x,1/2-y,z
_cell_length_a                   7.9776(4)
_cell_length_b                   10.4105(4)
_cell_length_c                   9.8963(5)
_cell_angle_alpha                90
_cell_angle_beta                 94.742(2)
_cell_angle_gamma                90
_cell_volume                     819.082
_exptl_crystal_colour            colorless
_exptl_crystal_description       chunk
_cell_formula_units_Z            4
loop_
_atom_site_label
_atom_site_type_symbol
_atom_site_fract_x
_atom_site_fract_y
_atom_site_fract_z
O1 O 0.3818(3) 0.750 0.5634(3)
C1 C 0.4143(4) 0.8599(3) 0.6482(3)
H1 H 0.3379 0.9314 0.6187
H2 H 0.532 0.8892 0.6444
C2 C 0.3849(7) 0.8189(4) 0.7854(3)
H3 H 0.4747 0.8519 0.8513
H4 H 0.2754 0.8519 0.8108
C1C C 0.4143(4) 0.6401(3) 0.6482(3)
H1C H 0.3379 0.5686 0.6187
H2C H 0.532 0.6108 0.6444
C2C C 0.3849(7) 0.6811(4) 0.7854(3)
H3C H 0.4747 0.6481 0.8513
H4C H 0.2754 0.6481 0.8108
O2 O 0.8377(3) 0.750 0.1859(3)
C3 C 0.8573(4) 0.6389(3) 0.1044(4)
H5 H 0.7473 0.5968 0.0818
H6 H 0.9341 0.5765 0.1529
C4 C 0.928(2) 0.6843(15) -0.0193(13)
H7 H 1.0445 0.6519 -0.0222
H8 H 0.8599 0.6519 -0.1003
C3C C 0.8573(4) 0.8611(3) 0.1044(4)
H5C H 0.7473 0.9032 0.0818
H6C H 0.9341 0.9235 0.1529
C4C C 0.928(2) 0.8157(15) -0.0193(13)
H7C H 1.0445 0.8481 -0.0222
H8C H 0.8599 0.8481 -0.1003
N1 N 0.0076(5) 0.750 0.4684(4)
B1 B -0.0941(6) 0.6594(5) 0.5497(5)
H9 H 0.114(6) 0.750 0.491(4)
H10 H -0.016(5) 0.750 0.391(5)
H11 H -0.168(5) 0.750 0.603(4)
H12 H -0.021(4) 0.607(3) 0.626(3)
H13 H -0.196(4) 0.611(4) 0.490(3)
B1C B -0.0941(6) 0.8406(5) 0.5497(5)
H12C H -0.021(4) 0.893(3) 0.626(3)
H13C H -0.196(4) 0.889(4) 0.490(3)
N2 N 0.4907(5) 0.750 0.2880(4)
B2 B 0.3701(5) 0.6593(4) 0.2087(4)
H14 H 0.605(5) 0.750 0.269(4)
H15 H 0.484(5) 0.750 0.379(5)
H16 H 0.281(5) 0.750 0.155(4)
H17 H 0.425(4) 0.614(3) 0.130(3)
H18 H 0.276(4) 0.605(3) 0.270(3)
B2C B 0.3701(5) 0.8407(4) 0.2087(4)
H17C H 0.425(4) 0.886(3) 0.130(3)
H18C H 0.276(4) 0.895(3) 0.270(3)
H19? H 0.7646 0.5777 0.1162
H20? H 0.9649 0.5957 0.1333
C5? C 0.856(5) 0.675(2) -0.0353(17)
H21? H 0.7541 0.6417 -0.0877
H22? H 0.9566 0.6417 -0.0756
loop_
_geom_bond_atom_site_label_1
_geom_bond_atom_site_label_2
_geom_bond_site_symmetry_1
_geom_bond_site_symmetry_2
O1 C1 1_555 1_555
C1 H1 1_555 1_555
H2 C1 1_555 1_555
C2 C1 1_555 1_555
H3 C2 1_555 1_555
H4 C2 1_555 1_555
O2 C3 1_555 1_555
C3 H5 1_555 1_555
H6 C3 1_555 1_555
C4 C3 1_555 1_555
H7 C4 1_555 1_555
H8 C4 1_555 1_555
N1 B1 1_555 1_555
B1 H11 1_555 1_555
H9 N1 1_555 1_555
H10 N1 1_555 1_555
H11 B1C 1_555 1_555
H12 B1 1_555 1_555
H13 B1 1_555 1_555
N2 B2 1_555 1_555
B2 H16 1_555 1_555
H14 N2 1_555 1_555
H15 N2 1_555 1_555
H16 B2C 1_555 1_555
H17 B2 1_555 1_555
H18 B2 1_555 1_555
C1C O1 1_555 1_555
H1C C1C 1_555 1_555
H2C C1C 1_555 1_555
C2C C2 1_555 1_555
H3C C2C 1_555 1_555
H4C C2C 1_555 1_555
C3C O2 1_555 1_555
H5C C3C 1_555 1_555
H6C C3C 1_555 1_555
C4C C4 1_555 1_555
H7C C4C 1_555 1_555
H8C C4C 1_555 1_555
B1C N1 1_555 1_555
H12C B1C 1_555 1_555
H13C B1C 1_555 1_555
B2C N2 1_555 1_555
H17C B2C 1_555 1_555
H18C B2C 1_555 1_555
C1C C2C 1_555 1_555
C3C C4C 1_555 1_555

#END
