
#######################################################################
#
#                 Cambridge Crystallographic Data Centre
#                                CCDC 
#
#######################################################################
#
# If this CIF has been generated from an entry in the Cambridge 
# Structural Database, then it will include bibliographic, chemical, 
# crystal, experimental, refinement or atomic coordinate data resulting 
# from the CCDC's data processing and validation procedures.
#
#######################################################################

data_TUVYOA
_chemical_formula_moiety         'C20 H40 Na1 O8 1+,H8 B2 N1 1-'
_chemical_name_systematic        
'(18-crown-6)-bis(tetrahydrofuran)-sodium aminodiborane'
_symmetry_cell_setting           monoclinic
_symmetry_space_group_name_H-M   'P 21/n'
_symmetry_Int_Tables_number      14
_space_group_name_Hall           '-P 2yn'
loop_
_symmetry_equiv_pos_site_id
_symmetry_equiv_pos_as_xyz
1 x,y,z
2 1/2-x,1/2+y,1/2-z
3 -x,-y,-z
4 1/2+x,1/2-y,1/2+z
_cell_length_a                   11.0094(2)
_cell_length_b                   12.8704(3)
_cell_length_c                   19.9165(4)
_cell_angle_alpha                90
_cell_angle_beta                 103.9570(10)
_cell_angle_gamma                90
_cell_volume                     2738.76
_exptl_crystal_colour            colorless
_exptl_crystal_description       plate
_cell_formula_units_Z            4
loop_
_atom_site_label
_atom_site_type_symbol
_atom_site_fract_x
_atom_site_fract_y
_atom_site_fract_z
C1 C 0.21506(17) 0.22525(17) 0.11554(10)
H1 H 0.1594 0.1763 0.0841
H2 H 0.2238 0.2888 0.0891
C2 C 0.16004(17) 0.25198(16) 0.17440(10)
H3 H 0.0744 0.2798 0.1568
H4 H 0.1546 0.1889 0.202
C3 C 0.18673(17) 0.35659(17) 0.27345(10)
H5 H 0.1768 0.2942 0.3007
H6 H 0.1034 0.3888 0.2563
C4 C 0.27349(18) 0.43196(17) 0.31800(11)
H7 H 0.2851 0.4936 0.2905
H8 H 0.2379 0.4553 0.3566
C5 C 0.47501(18) 0.44815(17) 0.39112(10)
H9 H 0.4416 0.4637 0.4319
H10 H 0.4853 0.5145 0.368
C6 C 0.59821(18) 0.39445(17) 0.41343(10)
H11 H 0.657 0.4376 0.4477
H12 H 0.5876 0.3271 0.4353
C7 C 0.77353(17) 0.34391(17) 0.37267(10)
H13 H 0.7795 0.2767 0.3974
H14 H 0.8258 0.3954 0.4037
C8 C 0.81873(17) 0.33192(17) 0.30836(10)
H15 H 0.8039 0.3969 0.281
H16 H 0.9097 0.3175 0.3204
C9 C 0.78927(18) 0.23396(16) 0.20536(10)
H17 H 0.8801 0.2194 0.2147
H18 H 0.7716 0.2977 0.1769
C10 C 0.71688(17) 0.14491(16) 0.16781(11)
H19 H 0.7432 0.1307 0.1245
H20 H 0.7317 0.0817 0.1969
C11 C 0.50887(17) 0.09243(15) 0.11659(10)
H21 H 0.5019 0.0354 0.1488
H22 H 0.5443 0.0637 0.0793
C12 C 0.38346(17) 0.13816(16) 0.08673(10)
H23 H 0.3905 0.1943 0.0539
H24 H 0.3264 0.0842 0.0612
C13 C 0.4143(2) 0.10670(19) 0.34417(11)
H25 H 0.34 0.0757 0.3123
H26 H 0.3899 0.1745 0.3604
C14 C 0.4624(2) 0.03578(19) 0.40453(12)
H27 H 0.4325 -0.0362 0.3937
H28 H 0.4361 0.0599 0.446
C15 C 0.6030(2) 0.0426(2) 0.41518(12)
H29 H 0.6379 0.1027 0.4447
H30 H 0.6448 -0.0218 0.4361
C16 C 0.6157(2) 0.05681(19) 0.34224(12)
H31 H 0.6959 0.0913 0.3418
H32 H 0.6122 -0.011 0.3184
Na1 Na 0.50912(7) 0.26895(6) 0.24127(4)
O1 O 0.33457(11) 0.17889(10) 0.14147(6)
O2 O 0.23660(11) 0.32768(10) 0.21671(6)
O3 O 0.39025(11) 0.38213(10) 0.34446(6)
O4 O 0.64679(11) 0.37799(11) 0.35407(6)
O5 O 0.75320(11) 0.24839(10) 0.26884(6)
O6 O 0.58782(11) 0.17244(10) 0.15248(6)
O7 O 0.51241(13) 0.12042(12) 0.30958(8)
O8 O 0.5482(13) 0.4180(9) 0.1785(6)
C17 C 0.5196(7) 0.5184(7) 0.1993(4)
H33 H 0.5918 0.5658 0.2034
H34 H 0.4969 0.5155 0.2445
C18 C 0.4108(7) 0.5540(8) 0.1435(3)
H35 H 0.3307 0.5333 0.1539
H36 H 0.4119 0.6304 0.1382
C19 C 0.4272(6) 0.5021(7) 0.0808(3)
H37 H 0.4462 0.5532 0.0476
H38 H 0.3508 0.4631 0.0581
C20 C 0.5367(10) 0.4287(7) 0.1060(6)
H39 H 0.52 0.3605 0.0826
H40 H 0.6142 0.4581 0.0969
B1 B 0.1519(2) 0.3276(3) 0.46669(14)
H49 H 0.118(2) 0.272(2) 0.5053(14)
H50 H 0.088(2) 0.327(2) 0.4113(14)
H51 H 0.183(2) 0.415(2) 0.4902(12)
B2 B 0.3861(2) 0.2588(2) 0.53090(13)
H52 H 0.348(2) 0.2123(19) 0.5718(12)
H53 H 0.408(2) 0.345(2) 0.5519(14)
H54 H 0.479(2) 0.2133(19) 0.5189(12)
N1 N 0.27693(16) 0.26570(16) 0.46341(9)
H55 H 0.313(2) 0.294(2) 0.4203(14)
H56 H 0.237(4) 0.189(3) 0.449(2)
O9? O 0.516(2) 0.4174(13) 0.1759(10)
C21? C 0.4740(12) 0.5100(10) 0.2009(7)
H41? H 0.5292 0.5293 0.2462
H42? H 0.3876 0.5015 0.2065
C22? C 0.4781(14) 0.5907(6) 0.1482(4)
H43? H 0.4035 0.6361 0.1411
H44? H 0.5539 0.6342 0.1633
C23? C 0.4802(15) 0.5349(7) 0.0835(5)
H45? H 0.5507 0.5595 0.0647
H46? H 0.4011 0.5462 0.0481
C24? C 0.4962(19) 0.4217(11) 0.1028(10)
H47? H 0.4204 0.3819 0.0802
H48? H 0.5689 0.3921 0.0883
loop_
_geom_bond_atom_site_label_1
_geom_bond_atom_site_label_2
_geom_bond_site_symmetry_1
_geom_bond_site_symmetry_2
C1 H1 1_555 1_555
H2 C1 1_555 1_555
C2 C1 1_555 1_555
H3 C2 1_555 1_555
H4 C2 1_555 1_555
C3 H5 1_555 1_555
H6 C3 1_555 1_555
C4 C3 1_555 1_555
H7 C4 1_555 1_555
H8 C4 1_555 1_555
C5 H9 1_555 1_555
H10 C5 1_555 1_555
C6 C5 1_555 1_555
H11 C6 1_555 1_555
H12 C6 1_555 1_555
C7 H13 1_555 1_555
H14 C7 1_555 1_555
C8 C7 1_555 1_555
H15 C8 1_555 1_555
H16 C8 1_555 1_555
C9 H17 1_555 1_555
H18 C9 1_555 1_555
C10 C9 1_555 1_555
H19 C10 1_555 1_555
H20 C10 1_555 1_555
C11 H21 1_555 1_555
H22 C11 1_555 1_555
C12 C11 1_555 1_555
H23 C12 1_555 1_555
H24 C12 1_555 1_555
C13 H25 1_555 1_555
H26 C13 1_555 1_555
C14 C13 1_555 1_555
H27 C14 1_555 1_555
H28 C14 1_555 1_555
C15 C14 1_555 1_555
H29 C15 1_555 1_555
H30 C15 1_555 1_555
C16 C15 1_555 1_555
H31 C16 1_555 1_555
H32 C16 1_555 1_555
Na1 O1 1_555 1_555
O1 C1 1_555 1_555
O2 C2 1_555 1_555
O3 C4 1_555 1_555
O4 C6 1_555 1_555
O5 C8 1_555 1_555
O6 C10 1_555 1_555
O7 C13 1_555 1_555
O8 Na1 1_555 1_555
C17 O8 1_555 1_555
H33 C17 1_555 1_555
H34 C17 1_555 1_555
C18 C17 1_555 1_555
H35 C18 1_555 1_555
H36 C18 1_555 1_555
C19 C18 1_555 1_555
H37 C19 1_555 1_555
H38 C19 1_555 1_555
C20 O8 1_555 1_555
H39 C20 1_555 1_555
H40 C20 1_555 1_555
B1 H49 1_555 1_555
H50 B1 1_555 1_555
H51 B1 1_555 1_555
B2 H52 1_555 1_555
H53 B2 1_555 1_555
H54 B2 1_555 1_555
N1 B1 1_555 1_555
H55 N1 1_555 1_555
H56 N1 1_555 1_555
C3 O2 1_555 1_555
C5 O3 1_555 1_555
C7 O4 1_555 1_555
C9 O5 1_555 1_555
C11 O6 1_555 1_555
C12 O1 1_555 1_555
C16 O7 1_555 1_555
Na1 O2 1_555 1_555
Na1 O4 1_555 1_555
Na1 O5 1_555 1_555
Na1 O6 1_555 1_555
Na1 O7 1_555 1_555
C19 C20 1_555 1_555
B2 N1 1_555 1_555

#END
