
#######################################################################
#
#                 Cambridge Crystallographic Data Centre
#                                CCDC 
#
#######################################################################
#
# If this CIF has been generated from an entry in the Cambridge 
# Structural Database, then it will include bibliographic, chemical, 
# crystal, experimental, refinement or atomic coordinate data resulting 
# from the CCDC's data processing and validation procedures.
#
#######################################################################

data_TUVZER
_chemical_formula_moiety         'C27 H29 N3 O3'
_chemical_name_systematic        
2-(2-(dimethylamino)ethyl)-6-(4-(piperidin-1-yl)phenoxy)-1H-benzo[de]isoquinoline-1,3(2H)-dione
_symmetry_cell_setting           triclinic
_symmetry_space_group_name_H-M   'P -1'
_symmetry_Int_Tables_number      2
_space_group_name_Hall           '-P 1'
loop_
_symmetry_equiv_pos_site_id
_symmetry_equiv_pos_as_xyz
1 x,y,z
2 -x,-y,-z
_cell_length_a                   6.6657(12)
_cell_length_b                   8.9418(16)
_cell_length_c                   19.201(4)
_cell_angle_alpha                87.395(3)
_cell_angle_beta                 87.173(4)
_cell_angle_gamma                88.605(4)
_cell_volume                     1141.59
_exptl_crystal_colour            colorless
_exptl_crystal_description       prism
_cell_formula_units_Z            2
loop_
_atom_site_label
_atom_site_type_symbol
_atom_site_fract_x
_atom_site_fract_y
_atom_site_fract_z
N1 N 0.7331(3) 0.7276(2) -0.11684(9)
N2 N 0.9533(4) 0.9598(3) -0.26856(11)
N3 N 0.6799(3) 0.7104(3) 0.46234(11)
O1 O 0.7907(3) 0.51435(19) -0.17503(8)
O2 O 0.6950(3) 0.94403(19) -0.05964(9)
O3 O 0.7091(3) 0.46478(18) 0.19841(8)
C1 C 0.7635(3) 0.5730(3) -0.11910(11)
C2 C 0.7637(3) 0.4869(2) -0.05142(11)
C3 C 0.7837(3) 0.3336(3) -0.05096(12)
H1 H 0.8009 0.2843 -0.0937
C4 C 0.7788(4) 0.2496(3) 0.01270(12)
H2 H 0.7931 0.1436 0.0128
C5 C 0.7535(3) 0.3197(3) 0.07507(12)
H3 H 0.7485 0.2615 0.1178
C6 C 0.7349(3) 0.4771(2) 0.07603(11)
C7 C 0.7110(3) 0.5562(3) 0.13886(11)
C8 C 0.6932(4) 0.7089(3) 0.13770(11)
H4 H 0.6805 0.7596 0.1802
C9 C 0.6940(4) 0.7906(3) 0.07340(12)
H5 H 0.6778 0.8965 0.0729
C10 C 0.7175(3) 0.7202(2) 0.01126(11)
C11 C 0.7387(3) 0.5619(2) 0.01179(11)
C12 C 0.7139(4) 0.8075(3) -0.05564(11)
C13 C 0.7311(4) 0.8163(3) -0.18313(11)
H6 H 0.6398 0.9045 -0.1780
H7 H 0.6811 0.7550 -0.2200
C14 C 0.9435(4) 0.8678(3) -0.20402(12)
H8 H 0.9939 0.9257 -0.1660
H9 H 1.0330 0.7787 -0.2096
C15 C 1.1618(5) 0.9756(4) -0.29296(16)
H10 H 1.2363 1.0223 -0.2573
H11 H 1.1687 1.0384 -0.3361
H12 H 1.2212 0.8765 -0.3019
C16 C 0.8601(6) 1.1047(4) -0.2584(2)
H13 H 0.9357 1.1586 -0.2254
H14 H 0.7216 1.0922 -0.2398
H15 H 0.8595 1.1620 -0.3032
C17 C 0.7019(4) 0.5309(3) 0.26346(11)
C18 C 0.5239(4) 0.5918(3) 0.29048(12)
H16 H 0.4060 0.5924 0.2646
C19 C 0.5192(4) 0.6524(3) 0.35618(12)
H17 H 0.3977 0.6964 0.3744
C20 C 0.6895(4) 0.6496(3) 0.39556(12)
C21 C 0.8665(4) 0.5848(3) 0.36714(12)
H18 H 0.9840 0.5802 0.3933
C22 C 0.8723(4) 0.5273(3) 0.30116(12)
H19 H 0.9940 0.4854 0.2820
C23 C 0.5290(10) 0.6558(8) 0.5106(3)
H20 H 0.5650 0.5515 0.5255
H21 H 0.4006 0.6537 0.4869
C24 C 0.4983(12) 0.7466(9) 0.5742(4)
H22 H 0.4078 0.6925 0.6086
H23 H 0.4316 0.8431 0.5609
C25 C 0.6920(11) 0.7773(9) 0.6080(3)
H24 H 0.7488 0.6825 0.6281
H25 H 0.6646 0.8463 0.6464
C26 C 0.8441(14) 0.8471(9) 0.5545(4)
H26 H 0.8043 0.9530 0.5444
H27 H 0.9777 0.8458 0.5749
C27 C 0.8600(14) 0.7685(11) 0.4884(5)
H28 H 0.9189 0.8383 0.4519
H29 H 0.9571 0.6838 0.4943
C28? C 0.4897(10) 0.7779(10) 0.4866(3)
H30? H 0.3799 0.7108 0.4764
H31? H 0.4685 0.8736 0.4597
C29? C 0.4755(14) 0.8076(11) 0.5631(4)
H32? H 0.3592 0.8760 0.5724
H33? H 0.4498 0.7121 0.5898
C30? C 0.6601(10) 0.8751(10) 0.5889(4)
H34? H 0.6513 0.8734 0.6406
H35? H 0.6682 0.9808 0.5715
C31? C 0.8463(13) 0.7903(10) 0.5645(5)
H36? H 0.9605 0.8575 0.5689
H37? H 0.8648 0.7055 0.5988
C32? C 0.8712(13) 0.7275(11) 0.4941(5)
H38? H 0.9565 0.7945 0.4634
H39? H 0.9409 0.6286 0.4980
loop_
_geom_bond_atom_site_label_1
_geom_bond_atom_site_label_2
_geom_bond_site_symmetry_1
_geom_bond_site_symmetry_2
N1 C1 1_555 1_555
N2 C14 1_555 1_555
N3 C20 1_555 1_555
O1 C1 1_555 1_555
O2 C12 1_555 1_555
O3 C7 1_555 1_555
C1 C2 1_555 1_555
C2 C3 1_555 1_555
C3 H1 1_555 1_555
C4 C3 1_555 1_555
H2 C4 1_555 1_555
C5 C4 1_555 1_555
H3 C5 1_555 1_555
C6 C5 1_555 1_555
C7 C6 1_555 1_555
C8 C7 1_555 1_555
H4 C8 1_555 1_555
C9 C8 1_555 1_555
H5 C9 1_555 1_555
C10 C9 1_555 1_555
C11 C2 1_555 1_555
C12 N1 1_555 1_555
C13 N1 1_555 1_555
H6 C13 1_555 1_555
H7 C13 1_555 1_555
C14 C13 1_555 1_555
H8 C14 1_555 1_555
H9 C14 1_555 1_555
C15 N2 1_555 1_555
H10 C15 1_555 1_555
H11 C15 1_555 1_555
H12 C15 1_555 1_555
C16 N2 1_555 1_555
H13 C16 1_555 1_555
H14 C16 1_555 1_555
H15 C16 1_555 1_555
C17 O3 1_555 1_555
C18 C17 1_555 1_555
H16 C18 1_555 1_555
C19 C18 1_555 1_555
H17 C19 1_555 1_555
C20 C19 1_555 1_555
C21 C20 1_555 1_555
H18 C21 1_555 1_555
C22 C17 1_555 1_555
H19 C22 1_555 1_555
C23 N3 1_555 1_555
H20 C23 1_555 1_555
H21 C23 1_555 1_555
C24 C23 1_555 1_555
H22 C24 1_555 1_555
H23 C24 1_555 1_555
C25 C24 1_555 1_555
H24 C25 1_555 1_555
H25 C25 1_555 1_555
C26 C25 1_555 1_555
H26 C26 1_555 1_555
H27 C26 1_555 1_555
C27 N3 1_555 1_555
H28 C27 1_555 1_555
H29 C27 1_555 1_555
C6 C11 1_555 1_555
C10 C11 1_555 1_555
C10 C12 1_555 1_555
C21 C22 1_555 1_555
C26 C27 1_555 1_555

#END
