
#######################################################################
#
#                 Cambridge Crystallographic Data Centre
#                                CCDC 
#
#######################################################################
#
# If this CIF has been generated from an entry in the Cambridge 
# Structural Database, then it will include bibliographic, chemical, 
# crystal, experimental, refinement or atomic coordinate data resulting 
# from the CCDC's data processing and validation procedures.
#
#######################################################################

data_TUWCIX
_chemical_formula_moiety         'C23 H30 N2 O3 S2,0.5(C4 H10 O1)'
_chemical_name_systematic        
'2-Methyl-N-(1-(p-tolylsulfonyl)-4-(1-phenylvinyl)pyrrolidin-3-yl)propane-2-sulfinamide diethyl ether solvate'
_symmetry_cell_setting           monoclinic
_symmetry_space_group_name_H-M   'P 21'
_symmetry_Int_Tables_number      4
_space_group_name_Hall           'P 2yb'
loop_
_symmetry_equiv_pos_site_id
_symmetry_equiv_pos_as_xyz
1 x,y,z
2 -x,1/2+y,-z
_cell_length_a                   11.3880(1)
_cell_length_b                   18.3750(2)
_cell_length_c                   13.0830(1)
_cell_angle_alpha                90
_cell_angle_beta                 112.227(1)
_cell_angle_gamma                90
_cell_volume                     2534.25
_exptl_crystal_colour            colorless
_exptl_crystal_description       needle
_cell_formula_units_Z            4
loop_
_atom_site_label
_atom_site_type_symbol
_atom_site_fract_x
_atom_site_fract_y
_atom_site_fract_z
S1 S 0.88104(4) 0.80609(2) 1.18700(4)
S2 S 1.01184(4) 0.98919(2) 1.57056(4)
O1 O 0.74601(14) 0.80396(9) 1.10954(12)
O2 O 0.90794(14) 1.02878(8) 1.58061(12)
O3 O 1.14040(14) 1.00874(9) 1.63771(12)
N1 N 0.99848(15) 0.99663(9) 1.44339(13)
N2 N 0.89863(17) 0.86300(9) 1.29222(14)
C1 C 1.05248(18) 0.93599(11) 1.09963(16)
C2 C 1.0565(2) 0.87802(13) 1.03192(18)
H1 H 1.0890 0.8323 1.0642
C3 C 1.0132(2) 0.88628(15) 0.91719(19)
H2 H 1.0172 0.8464 0.8724
C4 C 0.9650(2) 0.95171(15) 0.86913(18)
H3 H 0.9366 0.9574 0.7913
C5 C 0.9579(2) 1.00934(14) 0.93437(18)
H4 H 0.9242 1.0547 0.9013
C6 C 1.00029(19) 1.00110(12) 1.04885(17)
H5 H 0.9933 1.0408 1.0927
C7 C 1.10485(19) 0.92731(11) 1.22232(16)
C8 C 1.2104(2) 0.88962(13) 1.27319(19)
H6 H 1.2536 0.8678 1.2316
H7 H 1.2427 0.8845 1.3512
C9 C 1.03567(18) 0.96706(10) 1.28435(15)
H8 H 1.0287 1.0191 1.2604
C10 C 0.90018(18) 0.94132(10) 1.26628(15)
H9 H 0.8391 0.9526 1.1899
C11 C 0.87193(17) 0.98615(11) 1.35299(15)
H10 H 0.8333 1.0335 1.3222
H11 H 0.8137 0.9596 1.3801
C12 C 1.10018(18) 0.96690(11) 1.41010(16)
H12 H 1.1246 0.9170 1.4391
H13 H 1.1763 0.9985 1.4356
C13 C 0.9110(2) 0.72037(11) 1.26735(18)
C14 C 0.8144(2) 0.71003(13) 1.3208(2)
H14 H 0.8199 0.6602 1.3489
H15 H 0.7289 0.7188 1.2660
H16 H 0.8322 0.7445 1.3821
C15 C 1.0470(2) 0.72219(14) 1.3520(2)
H17 H 1.0542 0.7591 1.4081
H18 H 1.1049 0.7342 1.3149
H19 H 1.0693 0.6744 1.3874
C16 C 0.8943(3) 0.66107(13) 1.1807(2)
H20 H 0.9525 0.6702 1.1429
H21 H 0.8067 0.6617 1.1267
H22 H 0.9128 0.6134 1.2170
C17 C 0.99163(18) 0.89677(11) 1.59600(15)
C18 C 0.87333(19) 0.87154(11) 1.58918(16)
H23 H 0.8036 0.9041 1.5717
C19 C 0.8585(2) 0.79823(12) 1.60819(17)
H24 H 0.7781 0.7811 1.6040
C20 C 0.9587(2) 0.74972(12) 1.63307(18)
C21 C 1.0768(2) 0.77653(13) 1.64045(19)
H25 H 1.1466 0.7440 1.6583
C22 C 1.0941(2) 0.84904(13) 1.62241(17)
H26 H 1.1750 0.8662 1.6279
C23 C 0.9422(3) 0.66967(14) 1.6509(2)
H27 H 0.8591 0.6617 1.6552
H28 H 1.0091 0.6538 1.7199
H29 H 0.9477 0.6417 1.5891
H69 H 0.855(3) 0.8571(18) 1.321(3)
S3 S 0.71599(5) 1.09542(3) 1.01460(4)
S4 S 0.50995(4) 0.92112(3) 0.65864(4)
O4 O 0.76734(18) 1.09243(9) 1.13655(13)
O5 O 0.61804(15) 0.88573(8) 0.64939(13)
O6 O 0.38380(14) 0.89603(8) 0.59404(12)
N3 N 0.52624(15) 0.91503(10) 0.78694(13)
N4 N 0.58621(17) 1.04365(10) 0.96061(16)
C24 C 0.45980(19) 0.94784(11) 1.13159(16)
C25 C 0.4340(2) 1.00011(13) 1.19810(19)
H30 H 0.3862 1.0422 1.1653
C26 C 0.4778(2) 0.99073(15) 1.31175(19)
H31 H 0.4609 1.0270 1.3560
C27 C 0.5454(2) 0.92972(15) 1.36116(18)
H32 H 0.5718 0.9226 1.4385
C28 C 0.5743(2) 0.87897(13) 1.29618(17)
H33 H 0.6227 0.8372 1.3297
C29 C 0.5335(2) 0.88819(11) 1.18232(17)
H34 H 0.5562 0.8535 1.1392
C30 C 0.4045(2) 0.95561(11) 1.00846(17)
C31 C 0.2915(2) 0.98646(15) 0.9581(2)
H35 H 0.2452 1.0038 1.0002
H36 H 0.2570 0.9912 0.8800
C32 C 0.48091(17) 0.92600(11) 0.94502(15)
H37 H 0.4985 0.8735 0.9651
C33 C 0.60944(18) 0.96387(10) 0.96859(16)
H38 H 0.6731 0.9500 1.0428
C34 C 0.64847(19) 0.93628(12) 0.87614(16)
H39 H 0.6913 0.9750 0.8506
H40 H 0.7061 0.8940 0.9009
C35 C 0.41773(18) 0.93067(12) 0.81896(16)
H41 H 0.3498 0.8939 0.7889
H42 H 0.3824 0.9797 0.7945
C36 C 0.6368(2) 1.18391(11) 0.97308(17)
C37 C 0.5160(3) 1.18921(16) 0.9953(3)
H43 H 0.5332 1.1746 1.0717
H44 H 0.4516 1.1570 0.9447
H45 H 0.4851 1.2395 0.9840
C38 C 0.7336(3) 1.24011(14) 1.0408(3)
H46 H 0.7027 1.2891 1.0145
H47 H 0.8146 1.2318 1.0327
H48 H 0.7456 1.2356 1.1188
C39 C 0.6101(4) 1.19236(17) 0.8500(2)
H49 H 0.5756 1.2410 0.8255
H50 H 0.5484 1.1555 0.8082
H51 H 0.6891 1.1860 0.8376
C40 C 0.52027(18) 1.01380(11) 0.62741(16)
C41 C 0.41440(19) 1.05911(12) 0.60267(16)
H52 H 0.3368 1.0405 0.6031
C42 C 0.4242(2) 1.13132(13) 0.57751(18)
H53 H 0.3518 1.1619 0.5593
C43 C 0.5379(2) 1.16050(13) 0.57820(19)
C44 C 0.6418(2) 1.11437(13) 0.6038(2)
H54 H 0.7199 1.1332 0.6047
C45 C 0.63420(19) 1.04136(12) 0.62821(17)
H55 H 0.7062 1.0106 0.6453
C46 C 0.5504(3) 1.24050(15) 0.5592(3)
H56 H 0.4735 1.2576 0.4994
H57 H 0.6239 1.2484 0.5388
H58 H 0.5621 1.2675 0.6269
H70 H 0.532(3) 1.060(2) 1.005(3)
O7 O 0.5984(3) 0.68091(14) 0.7872(3)
C47 C 0.8171(7) 0.6808(5) 0.8848(4)
H59 H 0.8138 0.6517 0.9464
H60 H 0.8930 0.7115 0.9107
H61 H 0.8202 0.6483 0.8264
C48 C 0.7056(7) 0.7261(3) 0.8418(4)
H62 H 0.6937 0.7529 0.9028
H63 H 0.7154 0.7620 0.7892
C49 C 0.4823(7) 0.7206(2) 0.7281(4)
H64 H 0.4947 0.7530 0.6725
H65 H 0.4598 0.7512 0.7803
C50 C 0.3792(5) 0.6688(3) 0.6730(4)
H66 H 0.4045 0.6363 0.6256
H67 H 0.3026 0.6955 0.6280
H68 H 0.3618 0.6400 0.7288
loop_
_geom_bond_atom_site_label_1
_geom_bond_atom_site_label_2
_geom_bond_site_symmetry_1
_geom_bond_site_symmetry_2
S1 O1 1_555 1_555
S2 O2 1_555 1_555
S3 O4 1_555 1_555
S4 O5 1_555 1_555
O3 S2 1_555 1_555
O6 S4 1_555 1_555
O7 C48 1_555 1_555
N1 S2 1_555 1_555
N2 S1 1_555 1_555
N3 S4 1_555 1_555
N4 S3 1_555 1_555
C1 C2 1_555 1_555
C2 H1 1_555 1_555
C3 C2 1_555 1_555
H2 C3 1_555 1_555
C4 C3 1_555 1_555
H3 C4 1_555 1_555
C5 C4 1_555 1_555
H4 C5 1_555 1_555
C6 C1 1_555 1_555
H5 C6 1_555 1_555
C7 C1 1_555 1_555
C8 C7 1_555 1_555
H6 C8 1_555 1_555
H7 C8 1_555 1_555
C9 C7 1_555 1_555
H8 C9 1_555 1_555
C10 N2 1_555 1_555
H9 C10 1_555 1_555
C11 N1 1_555 1_555
H10 C11 1_555 1_555
H11 C11 1_555 1_555
C12 N1 1_555 1_555
H12 C12 1_555 1_555
H13 C12 1_555 1_555
C13 S1 1_555 1_555
C14 C13 1_555 1_555
H14 C14 1_555 1_555
H15 C14 1_555 1_555
H16 C14 1_555 1_555
C15 C13 1_555 1_555
H17 C15 1_555 1_555
H18 C15 1_555 1_555
H19 C15 1_555 1_555
C16 C13 1_555 1_555
H20 C16 1_555 1_555
H21 C16 1_555 1_555
H22 C16 1_555 1_555
C17 S2 1_555 1_555
C18 C17 1_555 1_555
H23 C18 1_555 1_555
C19 C18 1_555 1_555
H24 C19 1_555 1_555
C20 C19 1_555 1_555
C21 C20 1_555 1_555
H25 C21 1_555 1_555
C22 C17 1_555 1_555
H26 C22 1_555 1_555
C23 C20 1_555 1_555
H27 C23 1_555 1_555
H28 C23 1_555 1_555
H29 C23 1_555 1_555
C24 C25 1_555 1_555
C25 H30 1_555 1_555
C26 C25 1_555 1_555
H31 C26 1_555 1_555
C27 C26 1_555 1_555
H32 C27 1_555 1_555
C28 C27 1_555 1_555
H33 C28 1_555 1_555
C29 C24 1_555 1_555
H34 C29 1_555 1_555
C30 C24 1_555 1_555
C31 C30 1_555 1_555
H35 C31 1_555 1_555
H36 C31 1_555 1_555
C32 C30 1_555 1_555
H37 C32 1_555 1_555
C33 N4 1_555 1_555
H38 C33 1_555 1_555
C34 N3 1_555 1_555
H39 C34 1_555 1_555
H40 C34 1_555 1_555
C35 N3 1_555 1_555
H41 C35 1_555 1_555
H42 C35 1_555 1_555
C36 S3 1_555 1_555
C37 C36 1_555 1_555
H43 C37 1_555 1_555
H44 C37 1_555 1_555
H45 C37 1_555 1_555
C38 C36 1_555 1_555
H46 C38 1_555 1_555
H47 C38 1_555 1_555
H48 C38 1_555 1_555
C39 C36 1_555 1_555
H49 C39 1_555 1_555
H50 C39 1_555 1_555
H51 C39 1_555 1_555
C40 S4 1_555 1_555
C41 C40 1_555 1_555
H52 C41 1_555 1_555
C42 C41 1_555 1_555
H53 C42 1_555 1_555
C43 C42 1_555 1_555
C44 C43 1_555 1_555
H54 C44 1_555 1_555
C45 C40 1_555 1_555
H55 C45 1_555 1_555
C46 C43 1_555 1_555
H56 C46 1_555 1_555
H57 C46 1_555 1_555
H58 C46 1_555 1_555
C47 H59 1_555 1_555
H60 C47 1_555 1_555
H61 C47 1_555 1_555
C48 C47 1_555 1_555
H62 C48 1_555 1_555
H63 C48 1_555 1_555
C49 O7 1_555 1_555
H64 C49 1_555 1_555
H65 C49 1_555 1_555
C50 C49 1_555 1_555
H66 C50 1_555 1_555
H67 C50 1_555 1_555
H68 C50 1_555 1_555
H69 N2 1_555 1_555
H70 N4 1_555 1_555
C5 C6 1_555 1_555
C9 C10 1_555 1_555
C9 C12 1_555 1_555
C10 C11 1_555 1_555
C21 C22 1_555 1_555
C28 C29 1_555 1_555
C32 C33 1_555 1_555
C32 C35 1_555 1_555
C33 C34 1_555 1_555
C44 C45 1_555 1_555

#END
