
#######################################################################
#
#                 Cambridge Crystallographic Data Centre
#                                CCDC 
#
#######################################################################
#
# If this CIF has been generated from an entry in the Cambridge 
# Structural Database, then it will include bibliographic, chemical, 
# crystal, experimental, refinement or atomic coordinate data resulting 
# from the CCDC's data processing and validation procedures.
#
#######################################################################

data_TUWNUW
_chemical_formula_moiety         'C24 H24 N4 O2'
_chemical_name_systematic        
1',2',3',8',9',10',10a',10b'-Octahydrodispiro[indole-3,5'-dipyrrolo[1,2-a:2',1'-c]pyrazine-6',3''-indole]-2,2''(1H,1''H)-dione
_symmetry_cell_setting           rhombohedral
_symmetry_space_group_name_H-M   'R -3'
_symmetry_Int_Tables_number      148
_space_group_name_Hall           '-R 3'
loop_
_symmetry_equiv_pos_site_id
_symmetry_equiv_pos_as_xyz
1 x,y,z
2 -y,x-y,z
3 -x+y,-x,z
4 2/3+x,1/3+y,1/3+z
5 2/3-y,1/3+x-y,1/3+z
6 2/3-x+y,1/3-x,1/3+z
7 1/3+x,2/3+y,2/3+z
8 1/3-y,2/3+x-y,2/3+z
9 1/3-x+y,2/3-x,2/3+z
10 -x,-y,-z
11 y,-x+y,-z
12 x-y,x,-z
13 1/3-x,2/3-y,2/3-z
14 1/3+y,2/3-x+y,2/3-z
15 1/3+x-y,2/3+x,2/3-z
16 2/3-x,1/3-y,1/3-z
17 2/3+y,1/3-x+y,1/3-z
18 2/3+x-y,1/3+x,1/3-z
_cell_length_a                   32.703(2)
_cell_length_b                   32.703(2)
_cell_length_c                   20.7189(14)
_cell_angle_alpha                90
_cell_angle_beta                 90
_cell_angle_gamma                120
_cell_volume                     19189.9
_exptl_crystal_colour            colorless
_exptl_crystal_description       block
_cell_formula_units_Z            36
loop_
_atom_site_label
_atom_site_type_symbol
_atom_site_fract_x
_atom_site_fract_y
_atom_site_fract_z
O1 O 0.58218(4) -0.13958(4) 0.75010(5)
O2 O 0.58799(4) -0.02690(4) 0.55642(5)
N1 N 0.61577(5) -0.09893(5) 0.61420(6)
N2 N 0.52958(5) -0.10773(4) 0.65077(6)
N3 N 0.64641(5) -0.06799(4) 0.77524(6)
N4 N 0.59171(5) 0.01518(5) 0.64639(6)
C1 C 0.57201(5) -0.06382(5) 0.66554(6)
C2 C 0.61531(5) -0.07306(5) 0.67090(6)
C3 C 0.67600(5) -0.02473(5) 0.74447(7)
C4 C 0.58350(5) 0.00726(5) 0.71284(7)
C5 C 0.55573(5) -0.05635(5) 0.78846(7)
H1 H 0.5444 -0.0880 0.7980
C6 C 0.66092(5) -0.02676(5) 0.68100(7)
C7 C 0.58486(5) -0.02385(5) 0.61485(7)
C8 C 0.56866(5) -0.03976(5) 0.72653(7)
C9 C 0.71432(6) 0.01430(6) 0.77042(7)
H2 H 0.7231 0.0151 0.8133
C10 C 0.58797(6) 0.03925(6) 0.75965(9)
H3 H 0.5982 0.0706 0.7497
C11 C 0.73930(6) 0.05264(6) 0.72944(8)
H4 H 0.7649 0.0800 0.7455
C12 C 0.61137(5) -0.09855(5) 0.73642(7)
C13 C 0.57637(6) 0.02230(6) 0.82249(8)
H5 H 0.5798 0.0430 0.8555
C14 C 0.68732(5) 0.01104(6) 0.64010(7)
H6 H 0.6789 0.0099 0.5970
C15 C 0.57132(6) -0.14341(6) 0.60186(7)
C16 C 0.55990(6) -0.02462(6) 0.83688(7)
H7 H 0.5515 -0.0352 0.8791
C17 C 0.65299(7) -0.11144(7) 0.61229(8)
H8 H 0.6545 -0.1258 0.6525
H9 H 0.6836 -0.0840 0.6036
C18 C 0.48650(6) -0.10514(6) 0.64304(9)
H10 H 0.4919 -0.0790 0.6153
H11 H 0.4748 -0.1015 0.6845
C19 C 0.53253(6) -0.13221(6) 0.59237(7)
C20 C 0.58500(7) -0.16284(6) 0.54419(8)
H12 H 0.5812 -0.1498 0.5041
H13 H 0.5660 -0.1970 0.5424
C21 C 0.72673(6) 0.05080(6) 0.66505(8)
H14 H 0.7448 0.0764 0.6382
C22 C 0.48194(7) -0.17333(7) 0.58868(9)
H15 H 0.4777 -0.1991 0.6164
H16 H 0.4738 -0.1849 0.5448
C23 C 0.63708(8) -0.14706(8) 0.55628(9)
H17 H 0.6557 -0.1323 0.5180
H18 H 0.6406 -0.1739 0.5678
C24 C 0.45181(7) -0.15261(7) 0.61179(10)
H19 H 0.4285 -0.1734 0.6429
H20 H 0.4356 -0.1480 0.5758
H21 H 0.5406(7) -0.1119(7) 0.5536(10)
H22 H 0.5643(7) -0.1655(7) 0.6399(9)
H23 H 0.6530(8) -0.0736(8) 0.8149(11)
H24 H 0.6012(9) 0.0430(9) 0.6243(12)
O3 O 0.39170(4) -0.24974(4) 1.04593(6)
O4 O 0.55884(4) -0.12948(4) 0.93899(6)
N5 N 0.49833(4) -0.18630(5) 1.06316(6)
N6 N 0.42049(5) -0.29806(5) 1.01675(7)
N7 N 0.45837(4) -0.15281(4) 0.97454(6)
N8 N 0.51537(5) -0.17330(5) 0.85298(7)
C25 C 0.47440(5) -0.21621(5) 1.00769(7)
C26 C 0.48046(6) -0.15495(6) 1.08401(8)
C27 C 0.49705(5) -0.24571(5) 0.98921(7)
C28 C 0.42328(5) -0.25578(5) 1.02520(8)
C29 C 0.47262(5) -0.18559(5) 0.95043(7)
C30 C 0.46363(5) -0.29326(5) 0.99610(8)
C31 C 0.44068(5) -0.21417(5) 0.89431(8)
C32 C 0.48633(6) -0.12280(6) 1.02861(8)
C33 C 0.46754(6) -0.20372(6) 0.83836(8)
C34 C 0.39199(6) -0.24132(6) 0.88991(8)
H25 H 0.3734 -0.2486 0.9267
C35 C 0.54280(6) -0.23300(6) 0.97222(9)
H26 H 0.5658 -0.2014 0.9681
C36 C 0.45484(6) -0.12164(6) 0.92667(9)
H27 H 0.4257 -0.1383 0.9023
H28 H 0.4813 -0.1092 0.8969
C37 C 0.50033(6) -0.21063(7) 1.12191(8)
H29 H 0.5255 -0.2181 1.1190
H30 H 0.4706 -0.2396 1.1289
C38 C 0.37131(6) -0.25764(6) 0.82981(9)
H31 H 0.3387 -0.2763 0.8266
C39 C 0.47385(6) -0.32898(6) 0.98560(9)
H32 H 0.4510 -0.3606 0.9904
C40 C 0.44760(7) -0.21904(7) 0.77789(8)
H33 H 0.4662 -0.2113 0.7410
C41 C 0.55380(6) -0.26839(6) 0.96133(9)
H34 H 0.5844 -0.2603 0.9497
C42 C 0.39890(7) -0.24632(7) 0.77435(9)
H35 H 0.3845 -0.2572 0.7345
C43 C 0.50959(7) -0.13311(8) 1.14442(9)
H36 H 0.4949 -0.1203 1.1722
H37 H 0.5413 -0.1083 1.1337
C44 C 0.46526(7) -0.09083(7) 1.03650(10)
H38 H 0.4873 -0.0615 1.0577
H39 H 0.4363 -0.1063 1.0614
C45 C 0.45568(7) -0.08185(6) 0.96715(11)
H40 H 0.4804 -0.0513 0.9522
H41 H 0.4256 -0.0828 0.9643
C46 C 0.51984(7) -0.31538(6) 0.96755(9)
H42 H 0.5279 -0.3384 0.9595
C47 C 0.52151(5) -0.15923(5) 0.91525(8)
C48 C 0.51001(7) -0.17503(8) 1.17609(9)
H43 H 0.5404 -0.1651 1.1959
H44 H 0.4858 -0.1889 1.2091
H45 H 0.5209(7) -0.1028(7) 1.0176(9)
H46 H 0.4462(7) -0.1734(7) 1.0967(9)
H47 H 0.5389(7) -0.1626(7) 0.8231(10)
H48 H 0.3953(9) -0.3274(9) 1.0277(11)
loop_
_geom_bond_atom_site_label_1
_geom_bond_atom_site_label_2
_geom_bond_site_symmetry_1
_geom_bond_site_symmetry_2
O1 C12 1_555 1_555
O2 C7 1_555 1_555
N1 C2 1_555 1_555
N2 C1 1_555 1_555
N3 C3 1_555 1_555
N4 C4 1_555 1_555
C1 C2 1_555 1_555
C2 C6 1_555 1_555
C3 C6 1_555 1_555
C4 C8 1_555 1_555
C5 H1 1_555 1_555
C6 C14 1_555 1_555
C7 N4 1_555 1_555
C8 C1 1_555 1_555
C9 C3 1_555 1_555
H2 C9 1_555 1_555
C10 C4 1_555 1_555
H3 C10 1_555 1_555
C11 C9 1_555 1_555
H4 C11 1_555 1_555
C12 N3 1_555 1_555
C13 C10 1_555 1_555
H5 C13 1_555 1_555
C14 H6 1_555 1_555
C15 N1 1_555 1_555
C16 C5 1_555 1_555
H7 C16 1_555 1_555
C17 N1 1_555 1_555
H8 C17 1_555 1_555
H9 C17 1_555 1_555
C18 N2 1_555 1_555
H10 C18 1_555 1_555
H11 C18 1_555 1_555
C19 N2 1_555 1_555
C20 C15 1_555 1_555
H12 C20 1_555 1_555
H13 C20 1_555 1_555
C21 C11 1_555 1_555
H14 C21 1_555 1_555
C22 C19 1_555 1_555
H15 C22 1_555 1_555
H16 C22 1_555 1_555
C23 C17 1_555 1_555
H17 C23 1_555 1_555
H18 C23 1_555 1_555
C24 C18 1_555 1_555
H19 C24 1_555 1_555
H20 C24 1_555 1_555
H21 C19 1_555 1_555
H22 C15 1_555 1_555
H23 N3 1_555 1_555
H24 N4 1_555 1_555
O3 C28 1_555 1_555
O4 C47 1_555 1_555
N5 C25 1_555 1_555
N6 C28 1_555 1_555
N7 C29 1_555 1_555
N8 C33 1_555 1_555
C25 C27 1_555 1_555
C26 N5 1_555 1_555
C27 C30 1_555 1_555
C28 C25 1_555 1_555
C29 C25 1_555 1_555
C30 N6 1_555 1_555
C31 C29 1_555 1_555
C32 N7 1_555 1_555
C33 C31 1_555 1_555
C34 C31 1_555 1_555
H25 C34 1_555 1_555
C35 C27 1_555 1_555
H26 C35 1_555 1_555
C36 N7 1_555 1_555
H27 C36 1_555 1_555
H28 C36 1_555 1_555
C37 N5 1_555 1_555
H29 C37 1_555 1_555
H30 C37 1_555 1_555
C38 C34 1_555 1_555
H31 C38 1_555 1_555
C39 C30 1_555 1_555
H32 C39 1_555 1_555
C40 C33 1_555 1_555
H33 C40 1_555 1_555
C41 C35 1_555 1_555
H34 C41 1_555 1_555
C42 C38 1_555 1_555
H35 C42 1_555 1_555
C43 C26 1_555 1_555
H36 C43 1_555 1_555
H37 C43 1_555 1_555
C44 C32 1_555 1_555
H38 C44 1_555 1_555
H39 C44 1_555 1_555
C45 C36 1_555 1_555
H40 C45 1_555 1_555
H41 C45 1_555 1_555
C46 C39 1_555 1_555
H42 C46 1_555 1_555
C47 N8 1_555 1_555
C48 C37 1_555 1_555
H43 C48 1_555 1_555
H44 C48 1_555 1_555
H45 C32 1_555 1_555
H46 C26 1_555 1_555
H47 N8 1_555 1_555
H48 N6 1_555 1_555
C1 C7 1_555 1_555
C2 C12 1_555 1_555
C5 C8 1_555 1_555
C13 C16 1_555 1_555
C14 C21 1_555 1_555
C15 C19 1_555 1_555
C20 C23 1_555 1_555
C22 C24 1_555 1_555
C26 C32 1_555 1_555
C29 C47 1_555 1_555
C40 C42 1_555 1_555
C41 C46 1_555 1_555
C43 C48 1_555 1_555
C44 C45 1_555 1_555

#END
