
#######################################################################
#
#                 Cambridge Crystallographic Data Centre
#                                CCDC 
#
#######################################################################
#
# If this CIF has been generated from an entry in the Cambridge 
# Structural Database, then it will include bibliographic, chemical, 
# crystal, experimental, refinement or atomic coordinate data resulting 
# from the CCDC's data processing and validation procedures.
#
#######################################################################

data_TUXHID
_chemical_formula_moiety         'C41 H60 N10'
_chemical_name_systematic        
2,3,7,8,17,18-Hexapropyl-(1,4,5,7-tetramethyl-1,4-diazacyclohepta(2,3-l))-5,10,15,20-tetra-azaporphyrin
_symmetry_cell_setting           triclinic
_symmetry_space_group_name_H-M   'P -1'
_symmetry_Int_Tables_number      2
_space_group_name_Hall           '-P 1'
loop_
_symmetry_equiv_pos_site_id
_symmetry_equiv_pos_as_xyz
1 x,y,z
2 -x,-y,-z
_cell_length_a                   12.196(2)
_cell_length_b                   16.856(3)
_cell_length_c                   23.660(5)
_cell_angle_alpha                97.10(2)
_cell_angle_beta                 104.64(2)
_cell_angle_gamma                109.938(13)
_cell_volume                     4304.65
_exptl_crystal_colour            purple
_exptl_crystal_description       'platy needles'
_chemical_melting_point          105deg.C
_cell_formula_units_Z            4
_exptl_crystal_preparation       iridescent
loop_
_atom_site_label
_atom_site_type_symbol
_atom_site_fract_x
_atom_site_fract_y
_atom_site_fract_z
N1 N 0.3357(6) 0.2296(4) 0.8329(3)
C1 C 0.3072(7) 0.2428(4) 0.8835(3)
N2 N 0.3192(5) 0.3199(3) 0.9165(2)
C2 C 0.2520(8) 0.1715(4) 0.9094(4)
C3 C 0.2312(8) 0.2056(5) 0.9586(3)
C4 C 0.2741(7) 0.2988(5) 0.9623(3)
N3 N 0.2641(6) 0.3532(4) 1.0062(2)
C5 C 0.2981(8) 0.4378(5) 1.0089(3)
N4 N 0.3496(6) 0.4832(4) 0.9720(2)
H1 H 0.3676(6) 0.4608(4) 0.9406(2)
C6 C 0.2857(7) 0.4965(5) 1.0539(3)
C7 C 0.3315(8) 0.5768(5) 1.0427(3)
C8 C 0.3692(7) 0.5680(5) 0.9905(3)
N5 N 0.4137(6) 0.6318(4) 0.9648(3)
C9 C 0.4433(8) 0.6193(5) 0.9146(4)
N6 N 0.4403(6) 0.5425(4) 0.8840(3)
C10 C 0.4858(9) 0.6888(5) 0.8847(5)
C11 C 0.5052(9) 0.6547(5) 0.8362(4)
C12 C 0.4781(8) 0.5635(5) 0.8358(4)
N7 N 0.4874(7) 0.5089(4) 0.7927(3)
C13 C 0.4559(7) 0.4253(5) 0.7901(3)
N8 N 0.4131(5) 0.3802(4) 0.8288(2)
H2 H 0.4048(5) 0.4038(4) 0.8629(2)
C14 C 0.4631(8) 0.3647(5) 0.7434(3)
C15 C 0.4163(8) 0.2843(5) 0.7537(3)
C16 C 0.3844(7) 0.2940(5) 0.8087(3)
N9 N 0.5116(8) 0.3876(5) 0.6983(3)
C17 C 0.4681(12) 0.3379(7) 0.6402(5)
H3 H 0.5337(12) 0.3234(7) 0.6307(5)
C18 C 0.3574(13) 0.2563(7) 0.6293(4)
H4 H 0.2978(13) 0.2729(7) 0.6427(4)
H5 H 0.3221(13) 0.2338(7) 0.5862(4)
C19 C 0.3669(10) 0.1889(7) 0.6539(4)
H6 H 0.4392(10) 0.1825(7) 0.6464(4)
N10 N 0.3974(7) 0.2048(5) 0.7199(3)
C20 C 0.6318(13) 0.4524(9) 0.7137(5)
H7 H 0.6909(13) 0.4271(9) 0.7261(5)
H8 H 0.6435(13) 0.4981(9) 0.7460(5)
H9 H 0.6425(13) 0.4757(9) 0.6795(5)
C21 C 0.4313(18) 0.3950(10) 0.5990(7)
H10 H 0.5013(18) 0.4476(10) 0.6054(7)
H11 H 0.3667(18) 0.4089(10) 0.6082(7)
H12 H 0.4031(18) 0.3642(10) 0.5578(7)
C22 C 0.2626(10) 0.1008(7) 0.6225(5)
H13 H 0.2766(10) 0.0574(7) 0.6426(5)
H14 H 0.2598(10) 0.0861(7) 0.5815(5)
H15 H 0.1858(10) 0.1036(7) 0.6236(5)
C23 C 0.4320(12) 0.1430(7) 0.7492(5)
H16 H 0.4862(12) 0.1262(7) 0.7318(5)
H17 H 0.3599(12) 0.0927(7) 0.7442(5)
H18 H 0.4733(12) 0.1689(7) 0.7912(5)
C24 C 0.2269(13) 0.0779(6) 0.8836(5)
H19 H 0.2933(13) 0.0785(6) 0.8679(5)
H20 H 0.2346(13) 0.0501(6) 0.9171(5)
C25 C 0.1182(24) 0.0237(13) 0.8393(11)
H23 H 0.1064(24) 0.0487(13) 0.8046(11)
H24 H 0.0491(24) 0.0166(13) 0.8543(11)
C26 C 0.1258(34) -0.0655(13) 0.8215(14)
H25 H 0.0510(34) -0.1038(13) 0.7908(14)
H26 H 0.1370(34) -0.0900(13) 0.8560(14)
H27 H 0.1940(34) -0.0580(13) 0.8065(14)
C29 C 0.1721(11) 0.1640(6) 1.0022(4)
H33 H 0.2198(11) 0.1981(6) 1.0427(4)
H34 H 0.1740(11) 0.1066(6) 0.9999(4)
C30 C 0.0405(11) 0.1561(7) 0.9900(5)
H35 H -0.0075(11) 0.1203(7) 0.9500(5)
H36 H 0.0385(11) 0.2133(7) 0.9907(5)
C31 C -0.0193(11) 0.1173(8) 1.0347(5)
H37 H -0.1023(11) 0.1143(8) 1.0243(5)
H38 H 0.0263(11) 0.1532(8) 1.0743(5)
H39 H -0.0198(11) 0.0601(8) 1.0336(5)
C32 C 0.2258(9) 0.4685(6) 1.1008(3)
H40 H 0.2563(9) 0.4276(6) 1.1177(3)
H41 H 0.2504(9) 0.5188(6) 1.1330(3)
C33 C 0.0884(10) 0.4275(8) 1.0776(5)
H42 H 0.0633(10) 0.3795(8) 1.0437(5)
H43 H 0.0572(10) 0.4697(8) 1.0634(5)
C34 C 0.0313(13) 0.3947(10) 1.1242(6)
H44 H -0.0565(13) 0.3692(10) 1.1068(6)
H45 H 0.0541(13) 0.4421(10) 1.1575(6)
H46 H 0.0602(13) 0.3519(10) 1.1377(6)
C35 C 0.3403(9) 0.6626(5) 1.0755(4)
H47 H 0.3399(9) 0.6592(5) 1.1161(4)
H48 H 0.4180(9) 0.7074(5) 1.0781(4)
C36 C 0.2383(12) 0.6876(8) 1.0458(6)
H49 H 0.1608(12) 0.6455(8) 1.0459(6)
H50 H 0.2348(12) 0.6874(8) 1.0044(6)
C37 C 0.2562(15) 0.7770(9) 1.0778(8)
H51 H 0.1893(15) 0.7917(9) 1.0579(8)
H52 H 0.3322(15) 0.8189(9) 1.0772(8)
H53 H 0.2584(15) 0.7770(9) 1.1186(8)
C38 C 0.4962(12) 0.7799(6) 0.9081(5)
H54 H 0.5336(12) 0.8178(6) 0.8847(5)
H55 H 0.5498(12) 0.8010(6) 0.9494(5)
C39 C 0.3724(22) 0.7841(15) 0.9053(12)
H58 H 0.3388(22) 0.7491(15) 0.9311(12)
H59 H 0.3864(22) 0.8436(15) 0.9219(12)
C40 C 0.2825(22) 0.7566(20) 0.8479(14)
H60 H 0.2087(22) 0.7621(20) 0.8516(14)
H61 H 0.2650(22) 0.6971(20) 0.8312(14)
H62 H 0.3128(22) 0.7919(20) 0.8220(14)
C43 C 0.5472(15) 0.6985(7) 0.7871(6)
H68 H 0.5125(15) 0.6570(7) 0.7487(6)
H69 H 0.5210(15) 0.7463(7) 0.7829(6)
C44 C 0.6854(22) 0.7307(24) 0.8078(14)
H72 H 0.7141(22) 0.7759(24) 0.8439(14)
H73 H 0.7053(22) 0.6831(24) 0.8201(14)
C45 C 0.7596(23) 0.7633(17) 0.7724(12)
H74 H 0.8445(23) 0.7798(17) 0.7951(12)
H75 H 0.7470(23) 0.8131(17) 0.7611(12)
H76 H 0.7381(23) 0.7194(17) 0.7370(12)
N11 N 0.7487(7) 0.3378(4) 0.5844(3)
C48 C 0.6479(9) 0.2985(5) 0.5372(3)
N12 N 0.5629(6) 0.2166(4) 0.5238(2)
C49 C 0.6129(9) 0.3453(5) 0.4918(4)
C50 C 0.5055(9) 0.2900(6) 0.4516(3)
C51 C 0.4752(8) 0.2091(5) 0.4724(3)
N13 N 0.3722(7) 0.1395(5) 0.4422(2)
C52 C 0.3406(8) 0.0677(6) 0.4615(3)
N14 N 0.4023(6) 0.0512(4) 0.5124(3)
H82 H 0.4755(6) 0.0878(4) 0.5385(3)
C53 C 0.2281(8) -0.0081(6) 0.4312(3)
C54 C 0.2251(8) -0.0672(5) 0.4657(4)
C55 C 0.3354(8) -0.0297(5) 0.5176(4)
N15 N 0.3604(7) -0.0685(4) 0.5612(3)
C56 C 0.4599(8) -0.0296(5) 0.6093(4)
N16 N 0.5507(6) 0.0512(3) 0.6206(3)
C57 C 0.4867(8) -0.0724(5) 0.6582(4)
C58 C 0.5931(8) -0.0157(5) 0.6990(4)
C59 C 0.6329(8) 0.0603(5) 0.6751(3)
N17 N 0.7371(6) 0.1294(4) 0.7051(3)
C60 C 0.7730(7) 0.2003(5) 0.6845(3)
N18 N 0.7128(6) 0.2164(4) 0.6317(3)
H83 H 0.6422(6) 0.1786(4) 0.6043(3)
C61 C 0.8826(8) 0.2764(6) 0.7150(4)
C62 C 0.8858(8) 0.3368(6) 0.6804(3)
C63 C 0.7779(7) 0.2990(5) 0.6279(3)
N19 N 0.9613(8) 0.2889(6) 0.7712(4)
C64 C 1.0205(13) 0.3785(11) 0.8095(5)
H84 H 0.9539(13) 0.3996(11) 0.7998(5)
C65 C 1.1073(16) 0.4340(8) 0.7902(6)
H85 H 1.1816(16) 0.4237(8) 0.8058(6)
H86 H 1.1234(16) 0.4918(8) 0.8115(6)
C66 C 1.0994(12) 0.4396(7) 0.7313(7)
H87 H 1.1544(12) 0.4974(7) 0.7308(7)
N20 N 0.9770(8) 0.4175(5) 0.6889(4)
C67 C 1.0009(13) 0.2225(11) 0.7881(6)
H89 H 0.9396(13) 0.1670(11) 0.7651(6)
H90 H 1.0130(13) 0.2252(11) 0.8301(6)
H91 H 1.0768(13) 0.2306(11) 0.7801(6)
C68 C 1.0382(15) 0.3771(11) 0.8756(6)
H92 H 0.9666(15) 0.3337(11) 0.8791(6)
H93 H 1.0504(15) 0.4328(11) 0.8976(6)
H94 H 1.1088(15) 0.3639(11) 0.8915(6)
C69 C 1.1281(16) 0.3683(13) 0.6957(8)
H95 H 1.1210(16) 0.3759(13) 0.6556(8)
H96 H 1.0708(16) 0.3119(13) 0.6943(8)
H97 H 1.2102(16) 0.3735(13) 0.7155(8)
C70 C 0.9529(14) 0.4977(8) 0.6803(8)
H98 H 0.9834(14) 0.5187(8) 0.6491(8)
H99 H 0.9937(14) 0.5415(8) 0.7170(8)
H100 H 0.8660(14) 0.4839(8) 0.6691(8)
C73 C 0.6837(11) 0.4378(6) 0.4936(5)
H107 H 0.7265(11) 0.4700(6) 0.5350(5)
H108 H 0.6281(11) 0.4637(6) 0.4751(5)
C74 C 0.7788(31) 0.4419(15) 0.4589(20)
H111 H 0.8256(31) 0.4079(15) 0.4732(20)
H112 H 0.7359(31) 0.4179(15) 0.4164(20)
C75 C 0.8615(25) 0.5321(17) 0.4689(18)
H113 H 0.9199(25) 0.5351(17) 0.4479(18)
H114 H 0.9041(25) 0.5553(17) 0.5111(18)
H115 H 0.8147(25) 0.5653(17) 0.4544(18)
C78 C 0.4199(11) 0.3042(7) 0.3984(4)
H121 H 0.3822(11) 0.2521(7) 0.3663(4)
H122 H 0.4672(11) 0.3510(7) 0.3835(4)
C79 C 0.3179(15) 0.3267(10) 0.4158(6)
H123 H 0.2754(15) 0.2822(10) 0.4339(6)
H124 H 0.3555(15) 0.3813(10) 0.4456(6)
C80 C 0.2280(15) 0.3336(13) 0.3639(8)
H125 H 0.1668(15) 0.3476(13) 0.3768(8)
H126 H 0.1892(15) 0.2794(13) 0.3347(8)
H127 H 0.2693(15) 0.3784(13) 0.3463(8)
C81 C 0.1350(10) -0.0122(7) 0.3737(4)
H128 H 0.0779(10) -0.0719(7) 0.3565(4)
H129 H 0.1774(10) 0.0068(7) 0.3452(4)
C82 C 0.0631(11) 0.0436(9) 0.3829(5)
H130 H 0.1192(11) 0.1023(9) 0.4040(5)
H131 H 0.0111(11) 0.0204(9) 0.4068(5)
C83 C -0.0156(13) 0.0436(11) 0.3214(7)
H132 H -0.0617(13) 0.0786(11) 0.3265(7)
H133 H -0.0712(13) -0.0147(11) 0.3010(7)
H134 H 0.0365(13) 0.0670(11) 0.2982(7)
C84 C 0.1283(9) -0.1552(6) 0.4582(4)
H135 H 0.1678(9) -0.1940(6) 0.4709(4)
H136 H 0.0805(9) -0.1785(6) 0.4160(4)
C85 C 0.0416(10) -0.1517(7) 0.4948(5)
H137 H 0.0902(10) -0.1223(7) 0.5362(5)
H138 H -0.0048(10) -0.1182(7) 0.4791(5)
C86 C -0.0446(12) -0.2390(9) 0.4930(6)
H139 H -0.0969(12) -0.2340(9) 0.5164(6)
H140 H 0.0009(12) -0.2720(9) 0.5093(6)
H141 H -0.0940(12) -0.2679(9) 0.4522(6)
C87 C 0.4003(9) -0.1597(5) 0.6607(4)
H142 H 0.4465(9) -0.1847(5) 0.6874(4)
H143 H 0.3669(9) -0.1978(5) 0.6210(4)
C88 C 0.2955(11) -0.1554(7) 0.6822(6)
H144 H 0.3287(11) -0.1204(7) 0.7229(6)
H145 H 0.2525(11) -0.1270(7) 0.6571(6)
C89 C 0.2057(14) -0.2429(9) 0.6809(8)
H146 H 0.1413(14) -0.2363(9) 0.6949(8)
H147 H 0.2471(14) -0.2709(9) 0.7063(8)
H148 H 0.1709(14) -0.2776(9) 0.6405(8)
C90 C 0.6672(10) -0.0264(6) 0.7572(4)
H149 H 0.6484(10) -0.0878(6) 0.7547(4)
H150 H 0.7539(10) 0.0013(6) 0.7617(4)
C91 C 0.6450(14) 0.0093(8) 0.8099(5)
H151 H 0.5590(14) -0.0199(8) 0.8063(5)
H152 H 0.6613(14) 0.0703(8) 0.8119(5)
C92 C 0.7240(16) 0.0002(8) 0.8674(5)
H153 H 0.7059(16) 0.0248(8) 0.9010(5)
H154 H 0.8092(16) 0.0300(8) 0.8717(5)
H155 H 0.7069(16) -0.0601(8) 0.8660(5)
H21? H 0.1820(13) 0.0620(6) 0.8415(5)
H22? H 0.1760(13) 0.0424(6) 0.9033(5)
C27? C 0.3220(28) 0.0473(16) 0.8896(13)
H28? H 0.3759(28) 0.0784(16) 0.8689(13)
H29? H 0.2853(28) -0.0132(16) 0.8683(13)
C28? C 0.3976(40) 0.0528(32) 0.9487(18)
H30? H 0.4579(40) 0.0294(32) 0.9454(18)
H31? H 0.3470(40) 0.0202(32) 0.9698(18)
H32? H 0.4382(40) 0.1124(32) 0.9704(18)
H56? H 0.5581(12) 0.8193(6) 0.8955(5)
H57? H 0.5235(12) 0.7923(6) 0.9512(5)
C41? C 0.3918(38) 0.8012(25) 0.8759(20)
H63? H 0.3153(38) 0.7510(25) 0.8653(20)
H64? H 0.4034(38) 0.8173(25) 0.8392(20)
C42? C 0.3860(47) 0.8763(31) 0.9165(23)
H65? H 0.3189(47) 0.8903(31) 0.8959(23)
H66? H 0.4616(47) 0.9260(31) 0.9265(23)
H67? H 0.3738(47) 0.8599(31) 0.9526(23)
H70? H 0.5723(15) 0.7603(7) 0.7977(6)
H71? H 0.4815(15) 0.6761(7) 0.7496(6)
C46? C 0.6443(25) 0.6839(28) 0.7720(14)
H77? H 0.6490(25) 0.7026(28) 0.7352(14)
H78? H 0.6250(25) 0.6220(28) 0.7639(14)
C47? C 0.7630(22) 0.7269(28) 0.8167(15)
H79? H 0.8231(22) 0.7132(28) 0.8026(15)
H80? H 0.7607(22) 0.7077(28) 0.8531(15)
H81? H 0.7847(22) 0.7884(28) 0.8244(15)
H88? H 1.1553(12) 0.4223(7) 0.7158(7)
C71? C 1.1420(37) 0.5403(10) 0.7386(17)
H101? H 1.1409(37) 0.5541(10) 0.7003(17)
H102? H 1.2239(37) 0.5687(10) 0.7663(17)
H103? H 1.0872(37) 0.5599(10) 0.7536(17)
C72? C 1.0268(31) 0.4271(23) 0.6301(12)
H104? H 1.0990(31) 0.4139(23) 0.6363(12)
H105? H 1.0465(31) 0.4855(23) 0.6252(12)
H106? H 0.9638(31) 0.3877(23) 0.5947(12)
H109? H 0.6953(11) 0.4722(6) 0.5318(5)
H110? H 0.6387(11) 0.4571(6) 0.4627(5)
C76? C 0.8059(26) 0.4547(28) 0.4846(18)
H116? H 0.8556(26) 0.5164(28) 0.4962(18)
H117? H 0.8492(26) 0.4258(28) 0.5091(18)
C77? C 0.7839(44) 0.4206(34) 0.4200(17)
H118? H 0.8612(44) 0.4307(34) 0.4131(17)
H119? H 0.7413(44) 0.4497(34) 0.3963(17)
H120? H 0.7349(44) 0.3595(34) 0.4091(17)
loop_
_geom_bond_atom_site_label_1
_geom_bond_atom_site_label_2
_geom_bond_site_symmetry_1
_geom_bond_site_symmetry_2
N1 C1 1_555 1_555
C1 N2 1_555 1_555
N2 C4 1_555 1_555
C2 C1 1_555 1_555
C3 C2 1_555 1_555
C4 C3 1_555 1_555
N3 C4 1_555 1_555
C5 N3 1_555 1_555
N4 C5 1_555 1_555
H1 N4 1_555 1_555
C6 C5 1_555 1_555
C7 C6 1_555 1_555
C8 N4 1_555 1_555
N5 C8 1_555 1_555
C9 N5 1_555 1_555
N6 C9 1_555 1_555
C10 C9 1_555 1_555
C11 C10 1_555 1_555
C12 N6 1_555 1_555
N7 C12 1_555 1_555
C13 N7 1_555 1_555
N8 C13 1_555 1_555
H2 N8 1_555 1_555
C14 C13 1_555 1_555
C15 C14 1_555 1_555
C16 N1 1_555 1_555
N9 C14 1_555 1_555
C17 N9 1_555 1_555
H3 C17 1_555 1_555
C18 C17 1_555 1_555
H4 C18 1_555 1_555
H5 C18 1_555 1_555
C19 C18 1_555 1_555
H6 C19 1_555 1_555
N10 C15 1_555 1_555
C20 N9 1_555 1_555
H7 C20 1_555 1_555
H8 C20 1_555 1_555
H9 C20 1_555 1_555
C21 C17 1_555 1_555
H10 C21 1_555 1_555
H11 C21 1_555 1_555
H12 C21 1_555 1_555
C22 C19 1_555 1_555
H13 C22 1_555 1_555
H14 C22 1_555 1_555
H15 C22 1_555 1_555
C23 N10 1_555 1_555
H16 C23 1_555 1_555
H17 C23 1_555 1_555
H18 C23 1_555 1_555
C24 C2 1_555 1_555
H19 C24 1_555 1_555
H20 C24 1_555 1_555
C25 C24 1_555 1_555
H23 C25 1_555 1_555
H24 C25 1_555 1_555
C26 C25 1_555 1_555
H25 C26 1_555 1_555
H26 C26 1_555 1_555
H27 C26 1_555 1_555
C29 C3 1_555 1_555
H33 C29 1_555 1_555
H34 C29 1_555 1_555
C30 C29 1_555 1_555
H35 C30 1_555 1_555
H36 C30 1_555 1_555
C31 C30 1_555 1_555
H37 C31 1_555 1_555
H38 C31 1_555 1_555
H39 C31 1_555 1_555
C32 C6 1_555 1_555
H40 C32 1_555 1_555
H41 C32 1_555 1_555
C33 C32 1_555 1_555
H42 C33 1_555 1_555
H43 C33 1_555 1_555
C34 C33 1_555 1_555
H44 C34 1_555 1_555
H45 C34 1_555 1_555
H46 C34 1_555 1_555
C35 C7 1_555 1_555
H47 C35 1_555 1_555
H48 C35 1_555 1_555
C36 C35 1_555 1_555
H49 C36 1_555 1_555
H50 C36 1_555 1_555
C37 C36 1_555 1_555
H51 C37 1_555 1_555
H52 C37 1_555 1_555
H53 C37 1_555 1_555
C38 C10 1_555 1_555
H54 C38 1_555 1_555
H55 C38 1_555 1_555
C39 C38 1_555 1_555
H58 C39 1_555 1_555
H59 C39 1_555 1_555
C40 C39 1_555 1_555
H60 C40 1_555 1_555
H61 C40 1_555 1_555
H62 C40 1_555 1_555
C43 C11 1_555 1_555
H68 C43 1_555 1_555
H69 C43 1_555 1_555
C44 C43 1_555 1_555
H72 C44 1_555 1_555
H73 C44 1_555 1_555
C45 C44 1_555 1_555
H74 C45 1_555 1_555
H75 C45 1_555 1_555
H76 C45 1_555 1_555
N11 C48 1_555 1_555
C48 N12 1_555 1_555
N12 C51 1_555 1_555
C49 C48 1_555 1_555
C50 C49 1_555 1_555
C51 C50 1_555 1_555
N13 C51 1_555 1_555
C52 N13 1_555 1_555
N14 C52 1_555 1_555
H82 N14 1_555 1_555
C53 C52 1_555 1_555
C54 C53 1_555 1_555
C55 N14 1_555 1_555
N15 C55 1_555 1_555
C56 N15 1_555 1_555
N16 C56 1_555 1_555
C57 C56 1_555 1_555
C58 C57 1_555 1_555
C59 N16 1_555 1_555
N17 C59 1_555 1_555
C60 N17 1_555 1_555
N18 C60 1_555 1_555
H83 N18 1_555 1_555
C61 C60 1_555 1_555
C62 C61 1_555 1_555
C63 N11 1_555 1_555
N19 C61 1_555 1_555
C64 N19 1_555 1_555
H84 C64 1_555 1_555
C65 C64 1_555 1_555
H85 C65 1_555 1_555
H86 C65 1_555 1_555
C66 C65 1_555 1_555
H87 C66 1_555 1_555
N20 C62 1_555 1_555
C67 N19 1_555 1_555
H89 C67 1_555 1_555
H90 C67 1_555 1_555
H91 C67 1_555 1_555
C68 C64 1_555 1_555
H92 C68 1_555 1_555
H93 C68 1_555 1_555
H94 C68 1_555 1_555
C69 C66 1_555 1_555
H95 C69 1_555 1_555
H96 C69 1_555 1_555
H97 C69 1_555 1_555
C70 N20 1_555 1_555
H98 C70 1_555 1_555
H99 C70 1_555 1_555
H100 C70 1_555 1_555
C73 C49 1_555 1_555
H107 C73 1_555 1_555
H108 C73 1_555 1_555
C74 C73 1_555 1_555
H111 C74 1_555 1_555
H112 C74 1_555 1_555
C75 C74 1_555 1_555
H113 C75 1_555 1_555
H114 C75 1_555 1_555
H115 C75 1_555 1_555
C78 C50 1_555 1_555
H121 C78 1_555 1_555
H122 C78 1_555 1_555
C79 C78 1_555 1_555
H123 C79 1_555 1_555
H124 C79 1_555 1_555
C80 C79 1_555 1_555
H125 C80 1_555 1_555
H126 C80 1_555 1_555
H127 C80 1_555 1_555
C81 C53 1_555 1_555
H128 C81 1_555 1_555
H129 C81 1_555 1_555
C82 C81 1_555 1_555
H130 C82 1_555 1_555
H131 C82 1_555 1_555
C83 C82 1_555 1_555
H132 C83 1_555 1_555
H133 C83 1_555 1_555
H134 C83 1_555 1_555
C84 C54 1_555 1_555
H135 C84 1_555 1_555
H136 C84 1_555 1_555
C85 C84 1_555 1_555
H137 C85 1_555 1_555
H138 C85 1_555 1_555
C86 C85 1_555 1_555
H139 C86 1_555 1_555
H140 C86 1_555 1_555
H141 C86 1_555 1_555
C87 C57 1_555 1_555
H142 C87 1_555 1_555
H143 C87 1_555 1_555
C88 C87 1_555 1_555
H144 C88 1_555 1_555
H145 C88 1_555 1_555
C89 C88 1_555 1_555
H146 C89 1_555 1_555
H147 C89 1_555 1_555
H148 C89 1_555 1_555
C90 C58 1_555 1_555
H149 C90 1_555 1_555
H150 C90 1_555 1_555
C91 C90 1_555 1_555
H151 C91 1_555 1_555
H152 C91 1_555 1_555
C92 C91 1_555 1_555
H153 C92 1_555 1_555
H154 C92 1_555 1_555
H155 C92 1_555 1_555
C7 C8 1_555 1_555
C11 C12 1_555 1_555
N8 C16 1_555 1_555
C15 C16 1_555 1_555
C19 N10 1_555 1_555
C54 C55 1_555 1_555
C58 C59 1_555 1_555
N18 C63 1_555 1_555
C62 C63 1_555 1_555
C66 N20 1_555 1_555

#END
