
#######################################################################
#
#                 Cambridge Crystallographic Data Centre
#                                CCDC 
#
#######################################################################
#
# If this CIF has been generated from an entry in the Cambridge 
# Structural Database, then it will include bibliographic, chemical, 
# crystal, experimental, refinement or atomic coordinate data resulting 
# from the CCDC's data processing and validation procedures.
#
#######################################################################

data_TUXHEZ
_chemical_formula_moiety         'C34 H44 Mg1 N10 O1 Se1,C1 H2 Cl2'
_chemical_name_systematic        
'Aqua-(2,3,7,8,12,13-hexapropyl-(1,2,5)-selenadiazo(3,4-q)-5,10,15,20-tetra-azaporphyrin)-magnesium dichloromethane solvate'
_symmetry_cell_setting           triclinic
_symmetry_space_group_name_H-M   'P -1'
_symmetry_Int_Tables_number      2
_space_group_name_Hall           '-P 1'
loop_
_symmetry_equiv_pos_site_id
_symmetry_equiv_pos_as_xyz
1 x,y,z
2 -x,-y,-z
_cell_length_a                   9.2259(13)
_cell_length_b                   13.660(2)
_cell_length_c                   16.894(4)
_cell_angle_alpha                70.437(13)
_cell_angle_beta                 75.672(14)
_cell_angle_gamma                87.194(14)
_cell_volume                     1942.43
_exptl_crystal_colour            purple
_exptl_crystal_description       needles
_chemical_melting_point          57-67deg.C
_cell_formula_units_Z            2
_exptl_crystal_preparation       iridescent
loop_
_atom_site_label
_atom_site_type_symbol
_atom_site_fract_x
_atom_site_fract_y
_atom_site_fract_z
Se1 Se 0.01270(13) 0.45785(8) 1.21870(6)
Mg1 Mg 0.4132(3) 0.6188(2) 0.8144(2)
O1 O 0.5592(7) 0.7041(4) 0.8404(3)
H1 H 0.6512(36) 0.7165(60) 0.8042(40)
H2 H 0.590(14) 0.680(10) 0.8897(45)
N1 N 0.4115(8) 0.4015(5) 0.9914(4)
C1 C 0.3017(10) 0.4695(6) 0.9990(5)
N2 N 0.2721(8) 0.5551(5) 0.9352(4)
C2 C 0.1938(10) 0.4641(6) 1.0803(5)
C3 C 0.0976(9) 0.5487(7) 1.0594(5)
C4 C 0.1503(9) 0.6040(6) 0.9670(5)
N3 N 0.0821(8) 0.6866(5) 0.9243(4)
C5 C 0.1268(10) 0.7350(6) 0.8380(5)
N4 N 0.2458(9) 0.7115(5) 0.7825(4)
C6 C 0.0405(10) 0.8192(6) 0.7917(5)
C7 C 0.1076(11) 0.8404(6) 0.7069(6)
C8 C 0.2376(11) 0.7739(6) 0.7005(5)
N5 N 0.3261(9) 0.7742(5) 0.6256(4)
C9 C 0.4397(11) 0.7095(6) 0.6204(5)
N6 N 0.4804(9) 0.6357(5) 0.6869(4)
C10 C 0.5330(11) 0.7061(7) 0.5375(5)
C11 C 0.6289(11) 0.6276(6) 0.5560(5)
C12 C 0.5932(10) 0.5826(6) 0.6505(5)
N7 N 0.6589(8) 0.5008(5) 0.6923(4)
C13 C 0.6197(11) 0.4511(7) 0.7772(5)
N8 N 0.5091(8) 0.4788(5) 0.8371(4)
C14 C 0.6880(10) 0.3568(6) 0.8211(5)
C15 C 0.6177(10) 0.3289(6) 0.9068(5)
C16 C 0.5062(9) 0.4061(6) 0.9144(5)
N9 N 0.1721(9) 0.4037(5) 1.1613(4)
N10 N -0.0086(9) 0.5604(5) 1.1221(4)
C17 C -0.0833(11) 0.8686(7) 0.8369(6)
H3 H -0.1502(11) 0.8147(7) 0.8836(6)
H4 H -0.1413(11) 0.9084(7) 0.7961(6)
C18 C -0.0234(13) 0.9420(8) 0.8754(8)
H5 H 0.0336(13) 0.9019(8) 0.9167(8)
H6 H 0.0445(13) 0.9954(8) 0.8288(8)
C19 C -0.1509(14) 0.9943(8) 0.9214(8)
H7 H -0.1099(14) 1.0396(8) 0.9447(8)
H8 H -0.2173(14) 0.9416(8) 0.9682(8)
H9 H -0.2064(14) 1.0350(8) 0.8804(8)
C20 C 0.0673(12) 0.9158(7) 0.6282(6)
H10 H 0.1570(12) 0.9571(7) 0.5895(6)
H11 H -0.0061(12) 0.9635(7) 0.6460(6)
C21 C 0.0021(16) 0.8603(10) 0.5789(7)
H14 H 0.0004(16) 0.9090(10) 0.5214(7)
H15 H 0.0654(16) 0.8028(10) 0.5712(7)
C22 C -0.1557(19) 0.8186(19) 0.6287(13)
H16 H -0.1960(19) 0.7836(19) 0.5970(13)
H17 H -0.2184(19) 0.8758(19) 0.6356(13)
H18 H -0.1534(19) 0.7698(19) 0.6853(13)
C25 C 0.5164(13) 0.7781(7) 0.4503(5)
H24 H 0.5588(13) 0.7459(7) 0.4063(5)
H25 H 0.4097(13) 0.7873(7) 0.4524(5)
C26 C 0.5922(17) 0.8827(8) 0.4243(7)
H26 H 0.7004(17) 0.8746(8) 0.4166(7)
H27 H 0.5565(17) 0.9127(8) 0.4705(7)
C27 C 0.5604(22) 0.9576(10) 0.3386(9)
H28 H 0.6108(22) 1.0245(10) 0.3233(9)
H29 H 0.4535(22) 0.9666(10) 0.3464(9)
H30 H 0.5972(22) 0.9285(10) 0.2925(9)
C28 C 0.7485(12) 0.5874(8) 0.4987(6)
H31 H 0.8395(12) 0.5798(8) 0.5199(6)
H32 H 0.7712(12) 0.6386(8) 0.4401(6)
C29 C 0.7059(12) 0.4837(7) 0.4942(6)
H33 H 0.6632(12) 0.4370(7) 0.5532(6)
H34 H 0.6279(12) 0.4947(7) 0.4622(6)
C30 C 0.8350(14) 0.4308(10) 0.4513(7)
H35 H 0.7991(14) 0.3654(10) 0.4510(7)
H36 H 0.9118(14) 0.4177(10) 0.4834(7)
H37 H 0.8765(14) 0.4754(10) 0.3923(7)
C31 C 0.8043(11) 0.3020(7) 0.7733(6)
H38 H 0.8763(11) 0.3540(7) 0.7280(6)
H39 H 0.8588(11) 0.2567(7) 0.8137(6)
C32 C 0.7406(13) 0.2385(8) 0.7326(7)
H40 H 0.6795(13) 0.2826(8) 0.6956(7)
H41 H 0.6747(13) 0.1831(8) 0.7782(7)
C33 C 0.8607(16) 0.1893(10) 0.6777(8)
H42 H 0.8124(16) 0.1491(10) 0.6531(8)
H43 H 0.9202(16) 0.1440(10) 0.7141(8)
H44 H 0.9250(16) 0.2437(10) 0.6314(8)
C34 C 0.6452(11) 0.2370(6) 0.9802(5)
H45 H 0.7421(11) 0.2092(6) 0.9603(5)
H46 H 0.6528(11) 0.2613(6) 1.0274(5)
C35 C 0.5288(12) 0.1502(7) 1.0157(6)
H47 H 0.5305(12) 0.1189(7) 0.9710(6)
H48 H 0.4299(12) 0.1790(7) 1.0289(6)
C36 C 0.5505(14) 0.0662(8) 1.0963(6)
H49 H 0.4719(14) 0.0126(8) 1.1159(6)
H50 H 0.5464(14) 0.0960(8) 1.1415(6)
H51 H 0.6471(14) 0.0359(8) 1.0835(6)
C37 C 0.2768(13) 0.2900(9) 0.8307(7)
H52 H 0.3771(13) 0.2747(9) 0.8405(7)
H53 H 0.2218(13) 0.3204(9) 0.8738(7)
Cl1 Cl 0.2930(4) 0.3807(3) 0.7271(2)
Cl2 Cl 0.1867(7) 0.1765(3) 0.8451(4)
H12? H 0.1378(12) 0.9091(7) 0.5781(6)
H13? H 0.0801(12) 0.9853(7) 0.6278(6)
C23? C -0.0862(17) 0.8878(17) 0.6224(16)
H19? H -0.1247(17) 0.9474(17) 0.5828(16)
H20? H -0.1562(17) 0.8692(17) 0.6797(16)
C24? C -0.0714(35) 0.7961(22) 0.5893(22)
H21? H -0.1686(35) 0.7772(22) 0.5852(22)
H22? H -0.0338(35) 0.7375(22) 0.6290(22)
H23? H -0.0023(35) 0.8153(22) 0.5325(22)
loop_
_geom_bond_atom_site_label_1
_geom_bond_atom_site_label_2
_geom_bond_site_symmetry_1
_geom_bond_site_symmetry_2
Se1 N9 1_555 1_555
Mg1 O1 1_555 1_555
O1 H1 1_555 1_555
H2 O1 1_555 1_555
N1 C1 1_555 1_555
C1 N2 1_555 1_555
N2 Mg1 1_555 1_555
C2 C1 1_555 1_555
C3 C2 1_555 1_555
C4 N2 1_555 1_555
N3 C4 1_555 1_555
C5 N3 1_555 1_555
N4 Mg1 1_555 1_555
C6 C5 1_555 1_555
C7 C6 1_555 1_555
C8 N4 1_555 1_555
N5 C8 1_555 1_555
C9 N5 1_555 1_555
N6 Mg1 1_555 1_555
C10 C9 1_555 1_555
C11 C10 1_555 1_555
C12 N6 1_555 1_555
N7 C12 1_555 1_555
C13 N7 1_555 1_555
N8 Mg1 1_555 1_555
C14 C13 1_555 1_555
C15 C14 1_555 1_555
C16 N1 1_555 1_555
N9 C2 1_555 1_555
N10 Se1 1_555 1_555
C17 C6 1_555 1_555
H3 C17 1_555 1_555
H4 C17 1_555 1_555
C18 C17 1_555 1_555
H5 C18 1_555 1_555
H6 C18 1_555 1_555
C19 C18 1_555 1_555
H7 C19 1_555 1_555
H8 C19 1_555 1_555
H9 C19 1_555 1_555
C20 C7 1_555 1_555
H10 C20 1_555 1_555
H11 C20 1_555 1_555
C21 C20 1_555 1_555
H14 C21 1_555 1_555
H15 C21 1_555 1_555
C22 C21 1_555 1_555
H16 C22 1_555 1_555
H17 C22 1_555 1_555
H18 C22 1_555 1_555
C25 C10 1_555 1_555
H24 C25 1_555 1_555
H25 C25 1_555 1_555
C26 C25 1_555 1_555
H26 C26 1_555 1_555
H27 C26 1_555 1_555
C27 C26 1_555 1_555
H28 C27 1_555 1_555
H29 C27 1_555 1_555
H30 C27 1_555 1_555
C28 C11 1_555 1_555
H31 C28 1_555 1_555
H32 C28 1_555 1_555
C29 C28 1_555 1_555
H33 C29 1_555 1_555
H34 C29 1_555 1_555
C30 C29 1_555 1_555
H35 C30 1_555 1_555
H36 C30 1_555 1_555
H37 C30 1_555 1_555
C31 C14 1_555 1_555
H38 C31 1_555 1_555
H39 C31 1_555 1_555
C32 C31 1_555 1_555
H40 C32 1_555 1_555
H41 C32 1_555 1_555
C33 C32 1_555 1_555
H42 C33 1_555 1_555
H43 C33 1_555 1_555
H44 C33 1_555 1_555
C34 C15 1_555 1_555
H45 C34 1_555 1_555
H46 C34 1_555 1_555
C35 C34 1_555 1_555
H47 C35 1_555 1_555
H48 C35 1_555 1_555
C36 C35 1_555 1_555
H49 C36 1_555 1_555
H50 C36 1_555 1_555
H51 C36 1_555 1_555
C37 H52 1_555 1_555
H53 C37 1_555 1_555
Cl1 C37 1_555 1_555
Cl2 C37 1_555 1_555
C3 C4 1_555 1_555
C3 N10 1_555 1_555
C5 N4 1_555 1_555
C7 C8 1_555 1_555
C9 N6 1_555 1_555
C11 C12 1_555 1_555
C13 N8 1_555 1_555
N8 C16 1_555 1_555
C15 C16 1_555 1_555

#END
