
#######################################################################
#
#                 Cambridge Crystallographic Data Centre
#                                CCDC 
#
#######################################################################
#
# If this CIF has been generated from an entry in the Cambridge 
# Structural Database, then it will include bibliographic, chemical, 
# crystal, experimental, refinement or atomic coordinate data resulting 
# from the CCDC's data processing and validation procedures.
#
#######################################################################

data_TUXLUV
_chemical_formula_moiety         'C22 H18 N1 O2 P1'
_chemical_name_systematic        
17-(2,3-dihydro-1H-inden-1-yl)-8,10-dioxa-17-aza-9-phosphatetracyclo[7.7.1.0^2,7^.0^11,16^]heptadeca-2,4,6,11,13,15-hexaene
_symmetry_cell_setting           orthorhombic
_symmetry_space_group_name_H-M   'P 21 21 21'
_symmetry_Int_Tables_number      19
_space_group_name_Hall           'P 2ac 2ab'
loop_
_symmetry_equiv_pos_site_id
_symmetry_equiv_pos_as_xyz
1 x,y,z
2 1/2+x,1/2-y,-z
3 -x,1/2+y,1/2-z
4 1/2-x,-y,1/2+z
_cell_length_a                   9.1843(3)
_cell_length_b                   10.2725(3)
_cell_length_c                   18.8705(6)
_cell_angle_alpha                90
_cell_angle_beta                 90
_cell_angle_gamma                90
_cell_volume                     1780.35
_exptl_crystal_colour            colorless
_exptl_crystal_description       block
_cell_formula_units_Z            4
loop_
_atom_site_label
_atom_site_type_symbol
_atom_site_fract_x
_atom_site_fract_y
_atom_site_fract_z
P1 P 0.02166(7) -0.02502(5) 0.90205(3)
O1 O 0.14792(18) -0.13861(13) 0.90889(9)
O2 O -0.01317(18) -0.00024(14) 0.98668(8)
N1 N 0.1194(2) 0.10880(17) 0.88630(9)
C1 C 0.1286(3) 0.1605(2) 0.81365(11)
H1 H 0.0346 0.1413 0.7890
C2 C 0.2538(3) 0.1091(2) 0.76704(12)
H2 H 0.3406 0.0893 0.7962
H3 H 0.2238 0.0292 0.7416
C3 C 0.2866(3) 0.2190(3) 0.71461(12)
H4 H 0.3912 0.2210 0.7020
H5 H 0.2281 0.2098 0.6708
C4 C 0.2431(3) 0.3396(2) 0.75564(12)
C5 C 0.2810(3) 0.4693(3) 0.74409(12)
H6 H 0.3433 0.4924 0.7059
C6 C 0.2264(3) 0.5637(2) 0.78910(13)
H7 H 0.2528 0.6522 0.7820
C7 C 0.1337(3) 0.5315(2) 0.84455(13)
H8 H 0.0955 0.5978 0.8743
C8 C 0.0967(3) 0.4014(2) 0.85645(12)
H9 H 0.0341 0.3779 0.8944
C9 C 0.1532(3) 0.3075(2) 0.81167(11)
C10 C 0.2448(2) 0.12698(19) 0.93356(11)
H10 H 0.2998 0.2064 0.9186
C11 C 0.3471(2) 0.0111(2) 0.93365(11)
C12 C 0.4947(3) 0.0269(2) 0.94808(11)
H11 H 0.5330 0.1121 0.9540
C13 C 0.5865(3) -0.0793(2) 0.95397(12)
H12 H 0.6869 -0.0670 0.9640
C14 C 0.5307(3) -0.2041(2) 0.94506(12)
H13 H 0.5932 -0.2774 0.9493
C15 C 0.3849(3) -0.2218(2) 0.93002(12)
H14 H 0.3472 -0.3071 0.9236
C16 C 0.2936(3) -0.1146(2) 0.92431(11)
C17 C 0.1888(2) 0.14617(19) 1.00832(11)
C18 C 0.2650(3) 0.2227(2) 1.05698(11)
H15 H 0.3491 0.2688 1.0419
C19 C 0.2200(3) 0.2322(2) 1.12667(12)
H16 H 0.2738 0.2833 1.1594
C20 C 0.0959(3) 0.1669(2) 1.14846(12)
H17 H 0.0643 0.1738 1.1963
C21 C 0.0174(3) 0.0915(2) 1.10085(11)
H18 H -0.0689 0.0483 1.1155
C22 C 0.0663(2) 0.08006(19) 1.03165(11)
loop_
_geom_bond_atom_site_label_1
_geom_bond_atom_site_label_2
_geom_bond_site_symmetry_1
_geom_bond_site_symmetry_2
P1 O1 1_555 1_555
O1 C16 1_555 1_555
O2 P1 1_555 1_555
N1 P1 1_555 1_555
C1 N1 1_555 1_555
H1 C1 1_555 1_555
C2 C1 1_555 1_555
H2 C2 1_555 1_555
H3 C2 1_555 1_555
C3 C2 1_555 1_555
H4 C3 1_555 1_555
H5 C3 1_555 1_555
C4 C3 1_555 1_555
C5 C4 1_555 1_555
H6 C5 1_555 1_555
C6 C5 1_555 1_555
H7 C6 1_555 1_555
C7 C6 1_555 1_555
H8 C7 1_555 1_555
C8 C7 1_555 1_555
H9 C8 1_555 1_555
C9 C1 1_555 1_555
C10 N1 1_555 1_555
H10 C10 1_555 1_555
C11 C10 1_555 1_555
C12 C11 1_555 1_555
H11 C12 1_555 1_555
C13 C12 1_555 1_555
H12 C13 1_555 1_555
C14 C13 1_555 1_555
H13 C14 1_555 1_555
C15 C14 1_555 1_555
H14 C15 1_555 1_555
C16 C11 1_555 1_555
C17 C10 1_555 1_555
C18 C17 1_555 1_555
H15 C18 1_555 1_555
C19 C18 1_555 1_555
H16 C19 1_555 1_555
C20 C19 1_555 1_555
H17 C20 1_555 1_555
C21 C20 1_555 1_555
H18 C21 1_555 1_555
C22 O2 1_555 1_555
C4 C9 1_555 1_555
C8 C9 1_555 1_555
C15 C16 1_555 1_555
C17 C22 1_555 1_555
C21 C22 1_555 1_555

#END
