
#######################################################################
#
#                 Cambridge Crystallographic Data Centre
#                                CCDC 
#
#######################################################################
#
# If this CIF has been generated from an entry in the Cambridge 
# Structural Database, then it will include bibliographic, chemical, 
# crystal, experimental, refinement or atomic coordinate data resulting 
# from the CCDC's data processing and validation procedures.
#
#######################################################################

data_TUXMOQ
_chemical_formula_moiety         'C34 H44 N6 O8,H2 O1'
_chemical_name_systematic        
'ethyl 5-(((5-(((5-acetamido-1-isobutyl-4-oxo-1,4-dihydropyridin-3-yl)carbonyl)amino)-1-isobutyl-4-oxo-1,4-dihydropyridin-3-yl)carbonyl)amino)-1-isobutyl-4-oxo-1,4-dihydropyridine-3-carboxylate monohydrate'
_symmetry_cell_setting           triclinic
_symmetry_space_group_name_H-M   'P -1'
_symmetry_Int_Tables_number      2
_space_group_name_Hall           '-P 1'
loop_
_symmetry_equiv_pos_site_id
_symmetry_equiv_pos_as_xyz
1 x,y,z
2 -x,-y,-z
_cell_length_a                   12.1129(9)
_cell_length_b                   12.7793(10)
_cell_length_c                   13.0678(10)
_cell_angle_alpha                69.583(2)
_cell_angle_beta                 68.112(2)
_cell_angle_gamma                75.921(2)
_cell_volume                     1744.12
_exptl_crystal_colour            orange
_exptl_crystal_description       prism
_cell_formula_units_Z            2
loop_
_atom_site_label
_atom_site_type_symbol
_atom_site_fract_x
_atom_site_fract_y
_atom_site_fract_z
O1 O 0.6741(2) -0.2290(3) 0.7718(2)
O2 O 0.39944(18) 0.08947(17) 0.87653(17)
O3 O 0.17074(18) 0.00696(16) 1.22076(18)
O4 O 0.27220(18) 0.35250(17) 0.91737(17)
O5 O 0.0842(2) 0.64011(18) 1.02417(19)
O6 O 0.4007(2) 0.57459(19) 0.6831(2)
N1 N 0.5562(2) -0.0668(3) 0.7909(2)
H1 H 0.537(3) 0.0063(17) 0.754(3)
N2 N 0.4200(2) -0.2301(2) 1.0904(2)
N3 N 0.2255(2) 0.1478(2) 1.0535(2)
H2 H 0.282(2) 0.157(3) 0.9814(18)
N4 N 0.0006(2) 0.3261(2) 1.2212(2)
N5 N 0.2382(2) 0.5750(2) 0.8863(2)
H3 H 0.275(3) 0.513(2) 0.859(3)
N6 N 0.2889(2) 0.8715(2) 0.7651(3)
C1 C 0.7105(4) -0.0662(4) 0.6106(3)
H4 H 0.7496 -0.0086 0.6127
H5 H 0.6530 -0.0301 0.5681
H6 H 0.7712 -0.1186 0.5722
C2 C 0.6461(3) -0.1292(4) 0.7305(3)
C3 C 0.4854(3) -0.0999(3) 0.9058(3)
C4 C 0.4921(3) -0.2063(3) 0.9786(3)
H7 H 0.5477 -0.2647 0.9509
C5 C 0.3412(3) -0.1494(2) 1.1298(3)
H8 H 0.2925 -0.1679 1.2083
C6 C 0.3270(3) -0.0401(2) 1.0621(2)
C7 C 0.4021(3) -0.0093(3) 0.9456(3)
C8 C 0.4288(3) -0.3468(3) 1.1664(3)
H9 H 0.4046 -0.3449 1.2470
H10 H 0.5132 -0.3822 1.1452
C9 C 0.3488(4) -0.4189(3) 1.1581(4)
H11 H 0.3635 -0.4063 1.0744
C10 C 0.3739(7) -0.5371(4) 1.2077(9)
H12 H 0.3246 -0.5771 1.1928
H13 H 0.3555 -0.5534 1.2910
H14 H 0.4590 -0.5621 1.1734
C11 C 0.2194(4) -0.3820(4) 1.2094(4)
H15 H 0.1986 -0.3043 1.1665
H16 H 0.2030 -0.3862 1.2899
H17 H 0.1713 -0.4313 1.2055
C12 C 0.2342(3) 0.0389(2) 1.1196(3)
C13 C 0.1553(3) 0.2391(2) 1.0900(2)
C14 C 0.0636(3) 0.2317(2) 1.1903(3)
H18 H 0.0428 0.1598 1.2397
C15 C 0.0309(3) 0.4280(2) 1.1531(3)
H19 H -0.0126 0.4924 1.1775
C16 C 0.1219(3) 0.4433(2) 1.0498(2)
C17 C 0.1892(3) 0.3480(2) 1.0114(3)
C18 C -0.0953(3) 0.3122(3) 1.3332(3)
H20 H -0.1475 0.2595 1.3406
H21 H -0.1452 0.3858 1.3355
C19 C -0.0474(3) 0.2679(3) 1.4352(3)
H22 H 0.0027 0.1936 1.4324
C20 C -0.1556(3) 0.2493(3) 1.5442(3)
H23 H -0.1284 0.2223 1.6119
H24 H -0.1990 0.1931 1.5455
H25 H -0.2090 0.3204 1.5453
C21 C 0.0294(4) 0.3468(4) 1.4317(3)
H26 H -0.0174 0.4212 1.4305
H27 H 0.0997 0.3531 1.3623
H28 H 0.0558 0.3172 1.5000
C22 C 0.1449(3) 0.5615(3) 0.9867(3)
C23 C 0.2814(3) 0.6757(2) 0.8139(3)
C24 C 0.2418(3) 0.7746(3) 0.8414(3)
H29 H 0.1820 0.7771 0.9128
C25 C 0.3739(3) 0.8683(3) 0.6661(3)
H30 H 0.4058 0.9360 0.6164
C26 C 0.4181(3) 0.7720(3) 0.6317(3)
C27 C 0.3720(3) 0.6672(3) 0.7048(3)
C28 C 0.2343(3) 0.9774(3) 0.7976(3)
H31 H 0.2844 1.0376 0.7448
H32 H 0.2342 0.9661 0.8765
C29 C 0.1068(3) 1.0157(3) 0.7933(3)
H33 H 0.0589 0.9519 0.8422
C30 C 0.0507(4) 1.1147(3) 0.8433(4)
H34 H 0.0977 1.1776 0.7981
H35 H 0.0499 1.0920 0.9233
H36 H -0.0317 1.1381 0.8406
C31 C 0.1041(3) 1.0437(3) 0.6721(3)
H37 H 0.1488 1.1075 0.6228
H38 H 0.0208 1.0636 0.6719
H39 H 0.1411 0.9782 0.6428
O7 O 0.5246(5) 0.6881(3) 0.4674(4)
O8 O 0.5337(7) 0.8692(5) 0.4354(6)
C32 C 0.4958(7) 0.7793(5) 0.5049(6)
C33 C 0.6096(6) 0.6892(6) 0.3505(5)
H40 H 0.5907 0.6352 0.3223
H41 H 0.6016 0.7653 0.2964
C34 C 0.7342(8) 0.6575(10) 0.3556(11)
H42 H 0.7602 0.7209 0.3625
H43 H 0.7877 0.6386 0.2852
H44 H 0.7369 0.5922 0.4225
O11 O 0.4323(5) 0.5725(4) 0.4570(4)
H54 H 0.435(6) 0.549(6) 0.527(3)
H55 H 0.378(5) 0.544(6) 0.454(6)
O12 O 0.4453(5) 0.7972(4) 0.3313(5)
H56 H 0.436(7) 0.734(3) 0.384(5)
H57 H 0.512(4) 0.782(6) 0.280(5)
H45? H 0.3590 -0.4874 1.2224
C35? C 0.4204(11) -0.4612(10) 1.0662(9)
H46? H 0.5009 -0.4895 1.0732
H47? H 0.4260 -0.4012 0.9938
H48? H 0.3850 -0.5228 1.0670
O9? O 0.5887(4) 0.6910(4) 0.5208(5)
O10? O 0.5640(6) 0.8786(6) 0.4825(7)
C36? C 0.5358(6) 0.7906(6) 0.5376(9)
C37? C 0.6952(7) 0.7032(6) 0.4163(8)
H49? H 0.7536 0.7413 0.4223
H50? H 0.6714 0.7484 0.3472
C38? C 0.7498(9) 0.5855(9) 0.4081(13)
H51? H 0.7694 0.5408 0.4785
H52? H 0.8230 0.5893 0.3416
H53? H 0.6922 0.5501 0.3987
loop_
_geom_bond_atom_site_label_1
_geom_bond_atom_site_label_2
_geom_bond_site_symmetry_1
_geom_bond_site_symmetry_2
O1 C2 1_555 1_555
O2 C7 1_555 1_555
O3 C12 1_555 1_555
O4 C17 1_555 1_555
O5 C22 1_555 1_555
O6 C27 1_555 1_555
N1 H1 1_555 1_555
N2 C4 1_555 1_555
N3 H2 1_555 1_555
N4 C14 1_555 1_555
N5 H3 1_555 1_555
N6 C24 1_555 1_555
C1 H4 1_555 1_555
H5 C1 1_555 1_555
H6 C1 1_555 1_555
C2 N1 1_555 1_555
C3 N1 1_555 1_555
C4 C3 1_555 1_555
H7 C4 1_555 1_555
C5 N2 1_555 1_555
H8 C5 1_555 1_555
C6 C5 1_555 1_555
C7 C3 1_555 1_555
C8 N2 1_555 1_555
H9 C8 1_555 1_555
H10 C8 1_555 1_555
C9 C8 1_555 1_555
H11 C9 1_555 1_555
C10 C9 1_555 1_555
H12 C10 1_555 1_555
H13 C10 1_555 1_555
H14 C10 1_555 1_555
C11 C9 1_555 1_555
H15 C11 1_555 1_555
H16 C11 1_555 1_555
H17 C11 1_555 1_555
C12 N3 1_555 1_555
C13 N3 1_555 1_555
C14 C13 1_555 1_555
H18 C14 1_555 1_555
C15 N4 1_555 1_555
H19 C15 1_555 1_555
C16 C15 1_555 1_555
C17 C13 1_555 1_555
C18 N4 1_555 1_555
H20 C18 1_555 1_555
H21 C18 1_555 1_555
C19 C18 1_555 1_555
H22 C19 1_555 1_555
C20 C19 1_555 1_555
H23 C20 1_555 1_555
H24 C20 1_555 1_555
H25 C20 1_555 1_555
C21 C19 1_555 1_555
H26 C21 1_555 1_555
H27 C21 1_555 1_555
H28 C21 1_555 1_555
C22 N5 1_555 1_555
C23 N5 1_555 1_555
C24 C23 1_555 1_555
H29 C24 1_555 1_555
C25 N6 1_555 1_555
H30 C25 1_555 1_555
C26 C25 1_555 1_555
C27 C23 1_555 1_555
C28 N6 1_555 1_555
H31 C28 1_555 1_555
H32 C28 1_555 1_555
C29 C28 1_555 1_555
H33 C29 1_555 1_555
C30 C29 1_555 1_555
H34 C30 1_555 1_555
H35 C30 1_555 1_555
H36 C30 1_555 1_555
C31 C29 1_555 1_555
H37 C31 1_555 1_555
H38 C31 1_555 1_555
H39 C31 1_555 1_555
O7 C32 1_555 1_555
O8 C32 1_555 1_555
C32 C26 1_555 1_555
C33 O7 1_555 1_555
H40 C33 1_555 1_555
H41 C33 1_555 1_555
C34 C33 1_555 1_555
H42 C34 1_555 1_555
H43 C34 1_555 1_555
H44 C34 1_555 1_555
O11 H54 1_555 1_555
H55 O11 1_555 1_555
O12 H56 1_555 1_555
H57 O12 1_555 1_555
C1 C2 1_555 1_555
C6 C7 1_555 1_555
C6 C12 1_555 1_555
C16 C17 1_555 1_555
C16 C22 1_555 1_555
C26 C27 1_555 1_555

#END
