
#######################################################################
#
#                 Cambridge Crystallographic Data Centre
#                                CCDC 
#
#######################################################################
#
# If this CIF has been generated from an entry in the Cambridge 
# Structural Database, then it will include bibliographic, chemical, 
# crystal, experimental, refinement or atomic coordinate data resulting 
# from the CCDC's data processing and validation procedures.
#
#######################################################################

data_TUXNAD
_chemical_formula_moiety         'C31 H24 F2 N4 O9'
_chemical_name_systematic        
'methyl 3-((2-fluoro-3-((2-fluoro-3-((2-methoxy-3-nitrobenzoyl)amino)benzoyl)amino)benzoyl)amino)-2-methoxybenzoate'
_symmetry_cell_setting           triclinic
_symmetry_space_group_name_H-M   'P -1'
_symmetry_Int_Tables_number      2
_space_group_name_Hall           '-P 1'
loop_
_symmetry_equiv_pos_site_id
_symmetry_equiv_pos_as_xyz
1 x,y,z
2 -x,-y,-z
_cell_length_a                   7.6353(8)
_cell_length_b                   13.1566(13)
_cell_length_c                   15.6352(16)
_cell_angle_alpha                65.420(2)
_cell_angle_beta                 79.934(2)
_cell_angle_gamma                74.621(2)
_cell_volume                     1373.43
_exptl_crystal_colour            colorless
_exptl_crystal_description       block
_cell_formula_units_Z            2
loop_
_atom_site_label
_atom_site_type_symbol
_atom_site_fract_x
_atom_site_fract_y
_atom_site_fract_z
F1 F 0.14287(11) 0.82921(7) -0.13774(5)
F2 F -0.12653(11) 0.75307(7) 0.07794(6)
O1 O 0.74247(15) 0.35056(10) -0.06158(8)
O2 O 0.49844(15) 0.32292(9) -0.09326(8)
O3 O 0.47163(13) 0.59547(8) -0.15031(7)
O4 O 0.50376(15) 0.84450(9) -0.42949(7)
O5 O -0.16559(15) 1.14665(9) -0.14071(7)
O6 O -0.46756(17) 0.70648(10) 0.32584(8)
O7 O 0.00887(13) 0.46142(8) 0.20615(6)
O8 O 0.10492(16) 0.22510(9) 0.24086(7)
O9 O 0.12048(15) 0.12113(9) 0.39592(7)
N1 N 0.62703(16) 0.37023(10) -0.11440(8)
N2 N 0.35619(16) 0.80793(10) -0.28301(8)
H1 H 0.342(3) 0.7528(17) -0.2306(14)
N3 N -0.12187(16) 0.95434(10) -0.05735(8)
H2 H -0.063(3) 0.8895(18) -0.0564(13)
N4 N -0.21760(16) 0.61987(10) 0.25917(8)
H3 H -0.140(2) 0.6299(16) 0.2097(13)
C1 C 0.56686(18) 0.65263(11) -0.31836(9)
C2 C 0.56071(18) 0.57021(12) -0.22613(10)
C3 C 0.64156(19) 0.45690(12) -0.21104(10)
C4 C 0.7351(2) 0.42149(12) -0.28092(10)
H4 H 0.7883 0.3431 -0.2677
C5 C 0.7487(2) 0.50482(13) -0.37162(10)
H5 H 0.8166 0.4840 -0.4211
C6 C 0.66366(19) 0.61771(12) -0.38980(10)
H6 H 0.6710 0.6731 -0.4524
C7 C 0.5862(2) 0.62555(13) -0.10281(10)
H7 H 0.6578 0.5555 -0.0586
H8 H 0.5093 0.6707 -0.0682
H9 H 0.6686 0.6707 -0.1497
C8 C 0.47423(18) 0.77771(11) -0.34917(10)
C9 C 0.25234(18) 0.91793(11) -0.29430(9)
C10 C 0.13837(18) 0.92795(11) -0.21637(9)
C11 C 0.02934(18) 1.03015(11) -0.21552(9)
C12 C 0.03721(19) 1.12758(12) -0.29891(10)
H10 H -0.0357 1.1996 -0.3019
C13 C 0.1492(2) 1.12055(12) -0.37675(10)
H11 H 0.1524 1.1879 -0.4322
C14 C 0.25710(19) 1.01704(12) -0.37556(9)
H12 H 0.3336 1.0136 -0.4296
C15 C -0.09437(18) 1.04917(11) -0.13461(9)
C16 C -0.23652(17) 0.95120(12) 0.02472(9)
C17 C -0.23701(18) 0.84344(11) 0.09588(10)
C18 C -0.34266(18) 0.82503(12) 0.18058(10)
C19 C -0.45667(19) 0.92203(12) 0.19226(10)
H13 H -0.5331 0.9133 0.2487
C20 C -0.45918(19) 1.03001(12) 0.12277(10)
H14 H -0.5369 1.0946 0.1323
C21 C -0.34979(18) 1.04590(12) 0.03904(10)
H15 H -0.3523 1.1207 -0.0080
C22 C -0.34909(19) 0.71214(12) 0.26148(10)
C23 C -0.20335(18) 0.50506(12) 0.32321(9)
C24 C -0.08754(18) 0.42219(12) 0.29243(9)
C25 C -0.05998(18) 0.30626(12) 0.35177(9)
C26 C -0.14989(19) 0.27421(13) 0.44213(10)
H16 H -0.1322 0.1956 0.4831
C27 C -0.2638(2) 0.35544(13) 0.47225(10)
H17 H -0.3243 0.3323 0.5336
C28 C -0.29083(19) 0.47090(13) 0.41355(10)
H18 H -0.3687 0.5264 0.4349
C29 C -0.0797(2) 0.47409(13) 0.12692(10)
H19 H -0.0733 0.3984 0.1276
H20 H -0.0184 0.5194 0.0682
H21 H -0.2075 0.5131 0.1312
C30 C 0.06290(19) 0.21627(12) 0.32128(10)
C31 C 0.2390(2) 0.02805(13) 0.37380(11)
H22 H 0.1683 -0.0042 0.3487
H23 H 0.2930 -0.0314 0.4311
H24 H 0.3359 0.0568 0.3266
loop_
_geom_bond_atom_site_label_1
_geom_bond_atom_site_label_2
_geom_bond_site_symmetry_1
_geom_bond_site_symmetry_2
F1 C10 1_555 1_555
F2 C17 1_555 1_555
O1 N1 1_555 1_555
O2 N1 1_555 1_555
O3 C2 1_555 1_555
O4 C8 1_555 1_555
O5 C15 1_555 1_555
O6 C22 1_555 1_555
O7 C24 1_555 1_555
O8 C30 1_555 1_555
O9 C30 1_555 1_555
N1 C3 1_555 1_555
N2 H1 1_555 1_555
N3 H2 1_555 1_555
N4 H3 1_555 1_555
C1 C2 1_555 1_555
C2 C3 1_555 1_555
C3 C4 1_555 1_555
C4 H4 1_555 1_555
C5 C4 1_555 1_555
H5 C5 1_555 1_555
C6 C1 1_555 1_555
H6 C6 1_555 1_555
C7 O3 1_555 1_555
H7 C7 1_555 1_555
H8 C7 1_555 1_555
H9 C7 1_555 1_555
C8 N2 1_555 1_555
C9 N2 1_555 1_555
C10 C9 1_555 1_555
C11 C10 1_555 1_555
C12 C11 1_555 1_555
H10 C12 1_555 1_555
C13 C12 1_555 1_555
H11 C13 1_555 1_555
C14 C9 1_555 1_555
H12 C14 1_555 1_555
C15 N3 1_555 1_555
C16 N3 1_555 1_555
C17 C16 1_555 1_555
C18 C17 1_555 1_555
C19 C18 1_555 1_555
H13 C19 1_555 1_555
C20 C19 1_555 1_555
H14 C20 1_555 1_555
C21 C16 1_555 1_555
H15 C21 1_555 1_555
C22 N4 1_555 1_555
C23 N4 1_555 1_555
C24 C23 1_555 1_555
C25 C24 1_555 1_555
C26 C25 1_555 1_555
H16 C26 1_555 1_555
C27 C26 1_555 1_555
H17 C27 1_555 1_555
C28 C23 1_555 1_555
H18 C28 1_555 1_555
C29 O7 1_555 1_555
H19 C29 1_555 1_555
H20 C29 1_555 1_555
H21 C29 1_555 1_555
C30 C25 1_555 1_555
C31 O9 1_555 1_555
H22 C31 1_555 1_555
H23 C31 1_555 1_555
H24 C31 1_555 1_555
C1 C8 1_555 1_555
C5 C6 1_555 1_555
C11 C15 1_555 1_555
C13 C14 1_555 1_555
C18 C22 1_555 1_555
C20 C21 1_555 1_555
C27 C28 1_555 1_555

#END
