
#######################################################################
#
#                 Cambridge Crystallographic Data Centre
#                                CCDC 
#
#######################################################################
#
# If this CIF has been generated from an entry in the Cambridge 
# Structural Database, then it will include bibliographic, chemical, 
# crystal, experimental, refinement or atomic coordinate data resulting 
# from the CCDC's data processing and validation procedures.
#
#######################################################################

data_TUXNEH
_chemical_formula_moiety         'C52 H42 F1 N5 O12'
_chemical_name_systematic        
'methyl 3-((2-(benzyloxy)-3-((2-(benzyloxy)-3-((3-((2-fluoro-3-nitrobenzoyl)amino)-2-methoxybenzoyl)amino)benzoyl)amino)benzoyl)amino)-2-methoxybenzoate'
_symmetry_cell_setting           monoclinic
_symmetry_space_group_name_H-M   'P 21/c'
_symmetry_Int_Tables_number      14
_space_group_name_Hall           '-P 2ybc'
loop_
_symmetry_equiv_pos_site_id
_symmetry_equiv_pos_as_xyz
1 x,y,z
2 -x,1/2+y,1/2-z
3 -x,-y,-z
4 x,1/2-y,1/2+z
_cell_length_a                   14.2003(11)
_cell_length_b                   19.8416(15)
_cell_length_c                   16.9153(13)
_cell_angle_alpha                90
_cell_angle_beta                 111.9200(10)
_cell_angle_gamma                90
_cell_volume                     4421.45
_exptl_crystal_colour            colorless
_exptl_crystal_description       rod
_cell_formula_units_Z            4
loop_
_atom_site_label
_atom_site_type_symbol
_atom_site_fract_x
_atom_site_fract_y
_atom_site_fract_z
F1 F 1.13922(7) 0.39929(5) 0.87377(6)
O1 O 1.33515(10) 0.33402(6) 0.81048(9)
O2 O 1.24628(10) 0.42486(7) 0.76528(8)
O3 O 1.18616(9) 0.43972(6) 1.12969(7)
O4 O 0.88950(8) 0.40499(5) 0.87193(6)
O5 O 0.61542(9) 0.39775(6) 0.91752(7)
O6 O 0.71279(8) 0.42672(5) 0.67238(7)
O7 O 0.46901(8) 0.42080(6) 0.43645(7)
O8 O 0.80230(8) 0.33728(5) 0.51040(6)
O9 O 0.89573(8) 0.32416(6) 0.30394(7)
O10 O 1.03033(8) 0.27086(6) 0.60065(7)
O11 O 1.19678(9) 0.20676(7) 0.72230(8)
O12 O 1.33702(9) 0.20154(6) 0.69210(8)
N1 N 1.29713(11) 0.38649(7) 0.82194(10)
N2 N 1.06711(10) 0.41165(7) 1.00108(8)
H1 H 1.0587(14) 0.4075(9) 0.9465(7)
N3 N 0.68405(10) 0.40891(7) 0.81667(8)
H2 H 0.7429(9) 0.4159(9) 0.8100(11)
N4 N 0.63959(10) 0.40970(6) 0.50121(8)
H3 H 0.6881(11) 0.3991(9) 0.5507(7)
N5 N 0.95084(10) 0.32252(7) 0.44882(8)
H4 H 0.9294(13) 0.3277(9) 0.4920(9)
C1 C 1.23190(12) 0.41056(7) 0.93421(10)
C2 C 1.31466(12) 0.40468(8) 0.91006(11)
C3 C 1.41254(13) 0.41364(8) 0.96719(11)
H5 H 1.4688 0.4088 0.9501
C4 C 1.42624(13) 0.42998(9) 1.05024(12)
H6 H 1.4928 0.4379 1.0907
C5 C 1.34425(12) 0.43487(8) 1.07486(11)
H7 H 1.3558 0.4455 1.1325
C6 C 1.24467(12) 0.42468(7) 1.01772(10)
C7 C 1.16299(12) 0.42669(7) 1.05463(10)
C8 C 0.88639(12) 0.40488(7) 0.95307(9)
C9 C 0.98001(12) 0.40751(7) 1.02198(10)
C10 C 0.98240(13) 0.40388(8) 1.10494(10)
H8 H 1.0454 0.4033 1.1520
C11 C 0.89171(13) 0.40107(8) 1.11800(10)
H9 H 0.8929 0.3980 1.1744
C12 C 0.79983(12) 0.40267(7) 1.05034(10)
H10 H 0.7387 0.4028 1.0610
C13 C 0.79491(12) 0.40414(7) 0.96634(10)
C14 C 0.89560(13) 0.33811(8) 0.83985(10)
H11 H 0.9573 0.3156 0.8780
H12 H 0.8977 0.3416 0.7827
H13 H 0.8360 0.3119 0.8371
C15 C 0.68979(12) 0.40329(7) 0.89822(10)
C16 C 0.61405(11) 0.41387(7) 0.66544(10)
C17 C 0.59760(12) 0.40365(7) 0.74137(10)
C18 C 0.50121(12) 0.38624(8) 0.73774(11)
H14 H 0.4894 0.3788 0.7888
C19 C 0.42252(12) 0.37979(8) 0.65926(11)
H15 H 0.3567 0.3679 0.6568
C20 C 0.43835(12) 0.39032(8) 0.58488(10)
H16 H 0.3832 0.3861 0.5317
C21 C 0.53470(11) 0.40722(7) 0.58647(10)
C22 C 0.73538(12) 0.49924(8) 0.67154(10)
H17 H 0.7463 0.5196 0.7277
H18 H 0.6779 0.5227 0.6277
C23 C 0.82893(12) 0.50592(7) 0.65183(10)
C24 C 0.82201(14) 0.52605(8) 0.57111(11)
H19 H 0.7575 0.5356 0.5284
C25 C 0.90908(17) 0.53217(9) 0.55268(13)
H20 H 0.9042 0.5467 0.4978
C26 C 1.00255(15) 0.51708(9) 0.61407(14)
H21 H 1.0619 0.5204 0.6010
C27 C 1.01017(13) 0.49717(9) 0.69442(13)
H22 H 1.0747 0.4871 0.7367
C28 C 0.92389(12) 0.49193(8) 0.71320(11)
H23 H 0.9295 0.4786 0.7687
C29 C 0.54426(11) 0.41405(7) 0.50147(10)
C30 C 0.75123(11) 0.37112(7) 0.43451(9)
C31 C 0.66521(11) 0.40831(7) 0.42881(10)
C32 C 0.61274(12) 0.44431(7) 0.35479(10)
H24 H 0.5542 0.4697 0.3501
C33 C 0.64672(12) 0.44279(8) 0.28803(10)
H25 H 0.6107 0.4671 0.2373
C34 C 0.73205(12) 0.40663(8) 0.29388(10)
H26 H 0.7539 0.4062 0.2472
C35 C 0.78646(11) 0.37065(7) 0.36772(10)
C36 C 0.77693(12) 0.26521(7) 0.50923(10)
H27 H 0.8386 0.2397 0.5434
H28 H 0.7535 0.2483 0.4499
C37 C 0.69589(12) 0.25321(7) 0.54436(10)
C38 C 0.59419(12) 0.24858(8) 0.49104(11)
H29 H 0.5754 0.2521 0.4311
C39 C 0.52036(13) 0.23883(8) 0.52492(12)
H30 H 0.4510 0.2360 0.4882
C40 C 0.54708(13) 0.23324(8) 0.61191(12)
H31 H 0.4961 0.2266 0.6349
C41 C 0.64771(13) 0.23727(8) 0.66544(11)
H32 H 0.6661 0.2333 0.7253
C42 C 0.72201(13) 0.24716(8) 0.63178(10)
H33 H 0.7913 0.2498 0.6688
C43 C 0.88206(11) 0.33632(7) 0.36964(10)
C44 C 1.09282(12) 0.27134(7) 0.55554(10)
C45 C 1.04903(11) 0.29586(8) 0.47168(10)
C46 C 1.10374(12) 0.29525(8) 0.41842(11)
H34 H 1.0741 0.3117 0.3617
C47 C 1.20228(12) 0.27030(8) 0.44937(11)
H35 H 1.2400 0.2693 0.4133
C48 C 1.24586(12) 0.24692(8) 0.53187(11)
H36 H 1.3137 0.2308 0.5521
C49 C 1.19224(12) 0.24644(8) 0.58655(10)
C50 C 1.05293(16) 0.31755(10) 0.67020(12)
H37 H 1.0739 0.2926 0.7241
H38 H 0.9923 0.3443 0.6632
H39 H 1.1080 0.3476 0.6708
C51 C 1.23902(12) 0.21692(8) 0.67388(11)
C52 C 1.38761(14) 0.17002(10) 0.77427(12)
H40 H 1.3857 0.2004 0.8193
H41 H 1.4583 0.1605 0.7824
H42 H 1.3530 0.1278 0.7767
loop_
_geom_bond_atom_site_label_1
_geom_bond_atom_site_label_2
_geom_bond_site_symmetry_1
_geom_bond_site_symmetry_2
F1 C1 1_555 1_555
O1 N1 1_555 1_555
O2 N1 1_555 1_555
O3 C7 1_555 1_555
O4 C8 1_555 1_555
O5 C15 1_555 1_555
O6 C16 1_555 1_555
O7 C29 1_555 1_555
O8 C30 1_555 1_555
O9 C43 1_555 1_555
O10 C44 1_555 1_555
O11 C51 1_555 1_555
O12 C51 1_555 1_555
N1 C2 1_555 1_555
N2 H1 1_555 1_555
N3 H2 1_555 1_555
N4 H3 1_555 1_555
N5 H4 1_555 1_555
C1 C2 1_555 1_555
C2 C3 1_555 1_555
C3 H5 1_555 1_555
C4 C3 1_555 1_555
H6 C4 1_555 1_555
C5 C4 1_555 1_555
H7 C5 1_555 1_555
C6 C1 1_555 1_555
C7 N2 1_555 1_555
C8 C9 1_555 1_555
C9 N2 1_555 1_555
C10 C9 1_555 1_555
H8 C10 1_555 1_555
C11 C10 1_555 1_555
H9 C11 1_555 1_555
C12 C11 1_555 1_555
H10 C12 1_555 1_555
C13 C8 1_555 1_555
C14 O4 1_555 1_555
H11 C14 1_555 1_555
H12 C14 1_555 1_555
H13 C14 1_555 1_555
C15 N3 1_555 1_555
C16 C17 1_555 1_555
C17 N3 1_555 1_555
C18 C17 1_555 1_555
H14 C18 1_555 1_555
C19 C18 1_555 1_555
H15 C19 1_555 1_555
C20 C19 1_555 1_555
H16 C20 1_555 1_555
C21 C16 1_555 1_555
C22 O6 1_555 1_555
H17 C22 1_555 1_555
H18 C22 1_555 1_555
C23 C22 1_555 1_555
C24 C23 1_555 1_555
H19 C24 1_555 1_555
C25 C24 1_555 1_555
H20 C25 1_555 1_555
C26 C25 1_555 1_555
H21 C26 1_555 1_555
C27 C26 1_555 1_555
H22 C27 1_555 1_555
C28 C23 1_555 1_555
H23 C28 1_555 1_555
C29 N4 1_555 1_555
C30 C31 1_555 1_555
C31 N4 1_555 1_555
C32 C31 1_555 1_555
H24 C32 1_555 1_555
C33 C32 1_555 1_555
H25 C33 1_555 1_555
C34 C33 1_555 1_555
H26 C34 1_555 1_555
C35 C30 1_555 1_555
C36 O8 1_555 1_555
H27 C36 1_555 1_555
H28 C36 1_555 1_555
C37 C36 1_555 1_555
C38 C37 1_555 1_555
H29 C38 1_555 1_555
C39 C38 1_555 1_555
H30 C39 1_555 1_555
C40 C39 1_555 1_555
H31 C40 1_555 1_555
C41 C40 1_555 1_555
H32 C41 1_555 1_555
C42 C37 1_555 1_555
H33 C42 1_555 1_555
C43 N5 1_555 1_555
C44 C45 1_555 1_555
C45 N5 1_555 1_555
C46 C45 1_555 1_555
H34 C46 1_555 1_555
C47 C46 1_555 1_555
H35 C47 1_555 1_555
C48 C47 1_555 1_555
H36 C48 1_555 1_555
C49 C44 1_555 1_555
C50 O10 1_555 1_555
H37 C50 1_555 1_555
H38 C50 1_555 1_555
H39 C50 1_555 1_555
C51 C49 1_555 1_555
C52 O12 1_555 1_555
H40 C52 1_555 1_555
H41 C52 1_555 1_555
H42 C52 1_555 1_555
C5 C6 1_555 1_555
C6 C7 1_555 1_555
C12 C13 1_555 1_555
C13 C15 1_555 1_555
C20 C21 1_555 1_555
C21 C29 1_555 1_555
C27 C28 1_555 1_555
C34 C35 1_555 1_555
C35 C43 1_555 1_555
C41 C42 1_555 1_555
C48 C49 1_555 1_555

#END
