
#######################################################################
#
#                 Cambridge Crystallographic Data Centre
#                                CCDC 
#
#######################################################################
#
# If this CIF has been generated from an entry in the Cambridge 
# Structural Database, then it will include bibliographic, chemical, 
# crystal, experimental, refinement or atomic coordinate data resulting 
# from the CCDC's data processing and validation procedures.
#
#######################################################################

data_TUXPAF
_chemical_formula_moiety         'C98 H78 K1 N14 O20,2(C1 H2 Cl2)'
_chemical_name_systematic        
'bis(6,13-dibenzyl-37-hydroxy-38-methoxy-36-(methoxy)-2,6,9,13,16,23,30-heptaazahexacyclo[30.3.1.1^4,8^.1^11,15^.1^18,22^.1^25,29^]tetraconta-1(36),4,7,11,14,18(38),19,21,25(37),26,28,32,34-tridecaene-3,10,17,24,31,39,40-heptone)-potassium dichloromethane solvate'
_symmetry_cell_setting           monoclinic
_symmetry_space_group_name_H-M   'C 2/c'
_symmetry_Int_Tables_number      15
_space_group_name_Hall           '-C 2yn'
loop_
_symmetry_equiv_pos_site_id
_symmetry_equiv_pos_as_xyz
1 x,y,z
2 -x,y,1/2-z
3 1/2+x,1/2+y,z
4 1/2-x,1/2+y,1/2-z
5 -x,-y,-z
6 x,-y,1/2+z
7 1/2-x,1/2-y,-z
8 1/2+x,1/2-y,1/2+z
_cell_length_a                   18.6302(16)
_cell_length_b                   20.0894(19)
_cell_length_c                   23.762(2)
_cell_angle_alpha                90
_cell_angle_beta                 98.302(2)
_cell_angle_gamma                90
_cell_volume                     8800.2
_exptl_crystal_colour            green
_exptl_crystal_description       block
_cell_formula_units_Z            4
loop_
_atom_site_label
_atom_site_type_symbol
_atom_site_fract_x
_atom_site_fract_y
_atom_site_fract_z
C1 C 0.2224(10) 0.5065(14) 0.4256(7)
Cl1 Cl 0.2387(9) 0.4949(6) 0.3557(6)
Cl2 Cl 0.3014(7) 0.4771(8) 0.4686(6)
K1 K 0.5000 1.06068(14) 0.2500
O1 O 0.5349(4) 0.9649(3) 0.3267(3)
O2 O 0.4263(3) 0.9050(3) 0.4605(2)
O3 O 0.5000(3) 1.1047(4) 0.3773(2)
O4 O 0.4568(3) 1.2797(3) 0.4687(3)
O5 O 0.5429(3) 1.2336(3) 0.2940(3)
H1 H 0.5160 1.2097 0.3096
O6 O 0.6458(4) 1.4022(3) 0.2227(3)
O7 O 0.6605(3) 1.1654(4) 0.2145(3)
O8 O 0.7974(3) 1.0910(3) 0.0971(3)
O9 O 0.6406(4) 1.0006(4) 0.2247(3)
O10 O 0.6646(3) 0.7913(3) 0.2449(2)
N1 N 0.5384(4) 0.7706(3) 0.3729(3)
N2 N 0.4565(4) 0.9882(4) 0.4106(4)
H2 H 0.4753 0.9967 0.3804
N3 N 0.4870(4) 1.2430(5) 0.3878(4)
H3 H 0.4863 1.2087 0.3661
N4 N 0.6349(4) 1.2898(4) 0.2255(4)
H4 H 0.6162 1.2570 0.2415
N5 N 0.7111(4) 1.0633(4) 0.1562(4)
H5 H 0.6823 1.0802 0.1776
N6 N 0.7456(4) 0.8895(3) 0.1176(3)
N7 N 0.6080(4) 0.8829(4) 0.2742(3)
H6 H 0.6024 0.9249 0.2680
C3 C 0.5328(5) 0.9036(4) 0.3433(5)
C4 C 0.5749(5) 0.8543(5) 0.3141(4)
C5 C 0.5762(5) 0.7884(4) 0.3307(4)
H7 H 0.6024 0.7570 0.3133
C6 C 0.4996(5) 0.8161(5) 0.3993(4)
H8 H 0.4745 0.8009 0.4279
C7 C 0.4956(5) 0.8821(4) 0.3862(4)
C8 C 0.5380(5) 0.7014(4) 0.3888(4)
H9 H 0.5863 0.6839 0.3875
H10 H 0.5299 0.6994 0.4282
C9 C 0.4549(5) 0.9282(5) 0.4246(4)
C10 C 0.4561(4) 1.1050(5) 0.4202(3)
C11 C 0.4321(4) 1.0418(4) 0.4377(3)
C12 C 0.3872(4) 1.0397(4) 0.4784(3)
H11 H 0.3711 0.9991 0.4906
C13 C 0.3655(4) 1.0996(4) 0.5017(4)
H12 H 0.3340 1.0982 0.5286
C14 C 0.3897(5) 1.1591(5) 0.4856(4)
H13 H 0.3754 1.1978 0.5023
C15 C 0.4361(5) 1.1634(5) 0.4441(4)
C16 C 0.5771(4) 1.0995(5) 0.3990(4)
H14 H 0.5891 1.1303 0.4298
H15 H 0.6049 1.1098 0.3691
H16 H 0.5879 1.0550 0.4123
C17 C 0.4608(5) 1.2367(5) 0.4343(4)
C18 C 0.5470(4) 1.2948(4) 0.3187(3)
C19 C 0.5183(4) 1.3046(4) 0.3688(4)
C20 C 0.5203(5) 1.3665(5) 0.3948(4)
H17 H 0.5002 1.3728 0.4280
C21 C 0.5531(6) 1.4187(4) 0.3699(5)
H18 H 0.5551 1.4605 0.3870
C22 C 0.5818(5) 1.4104(4) 0.3224(4)
H19 H 0.6028 1.4467 0.3067
C23 C 0.5814(4) 1.3491(4) 0.2953(4)
C24 C 0.6232(6) 1.3482(5) 0.2429(5)
C25 C 0.6923(4) 1.2076(5) 0.1774(4)
C26 C 0.6773(5) 1.2746(7) 0.1810(4)
C27 C 0.7027(5) 1.3173(5) 0.1432(5)
H20 H 0.6930 1.3626 0.1448
C28 C 0.7433(5) 1.2931(5) 0.1019(4)
H21 H 0.7613 1.3223 0.0770
C29 C 0.7563(4) 1.2248(5) 0.0988(4)
H22 H 0.7821 1.2079 0.0713
C30 C 0.7299(4) 1.1818(4) 0.1381(3)
C31 C 0.7031(5) 1.1588(5) 0.2694(4)
H23 H 0.7322 1.1193 0.2703
H24 H 0.6715 1.1558 0.2979
H25 H 0.7340 1.1970 0.2769
C32 C 0.7480(6) 1.1055(6) 0.1289(4)
C33 C 0.6768(5) 0.9649(5) 0.1954(4)
C34 C 0.7143(5) 0.9942(5) 0.1539(4)
C35 C 0.7482(5) 0.9562(5) 0.1148(4)
H26 H 0.7719 0.9772 0.0878
C36 C 0.7141(4) 0.8609(5) 0.1601(3)
H27 H 0.7156 0.8148 0.1631
C37 C 0.6810(5) 0.8947(5) 0.1978(4)
C38 C 0.7767(5) 0.8482(5) 0.0763(4)
H28 H 0.8281 0.8421 0.0891
H29 H 0.7715 0.8712 0.0400
C39 C 0.7407(5) 0.7810(4) 0.0681(3)
C40 C 0.7740(5) 0.7242(4) 0.0914(4)
H30 H 0.8203 0.7271 0.1118
C41 C 0.7399(5) 0.6631(5) 0.0850(4)
H31 H 0.7638 0.6251 0.1002
C42 C 0.6711(6) 0.6584(6) 0.0564(4)
H32 H 0.6480 0.6173 0.0533
C43 C 0.6358(5) 0.7125(6) 0.0324(4)
H33 H 0.5895 0.7088 0.0119
C44 C 0.6713(5) 0.7749(5) 0.0392(4)
H34 H 0.6472 0.8127 0.0237
C45 C 0.6486(4) 0.8488(4) 0.2441(4)
C46 C 0.4876(4) 0.6570(3) 0.3573(3)
C47 C 0.4422(4) 0.6825(2) 0.3107(3)
H35 H 0.4444 0.7274 0.3017
C48 C 0.3937(4) 0.6408(3) 0.2776(3)
H36 H 0.3633 0.6579 0.2464
C49 C 0.3905(4) 0.5737(3) 0.2911(4)
H37 H 0.3580 0.5458 0.2689
C50 C 0.4358(5) 0.5482(3) 0.3377(4)
H38 H 0.4337 0.5033 0.3467
C51 C 0.4844(5) 0.5898(3) 0.3708(3)
H39 H 0.5147 0.5728 0.4020
O1A O 0.4651(4) 0.9649(3) 0.1733(3)
O2A O 0.5737(3) 0.9050(3) 0.0395(2)
O3A O 0.5000(3) 1.1047(4) 0.1227(2)
O4A O 0.5432(3) 1.2797(3) 0.0313(3)
O5A O 0.4571(3) 1.2336(3) 0.2060(3)
H1A H 0.4840 1.2097 0.1904
O6A O 0.3542(4) 1.4022(3) 0.2773(3)
O7A O 0.3395(3) 1.1654(4) 0.2855(3)
O8A O 0.2026(3) 1.0910(3) 0.4029(3)
O9A O 0.3594(4) 1.0006(4) 0.2753(3)
O10A O 0.3354(3) 0.7913(3) 0.2551(2)
N1A N 0.4616(4) 0.7706(3) 0.1271(3)
N2A N 0.5435(4) 0.9882(4) 0.0894(4)
H2A H 0.5247 0.9967 0.1196
N3A N 0.5130(4) 1.2430(5) 0.1122(4)
H3A H 0.5137 1.2087 0.1339
N4A N 0.3651(4) 1.2898(4) 0.2745(4)
H4A H 0.3838 1.2570 0.2585
N5A N 0.2889(4) 1.0633(4) 0.3438(4)
H5A H 0.3177 1.0802 0.3224
N6A N 0.2544(4) 0.8895(3) 0.3824(3)
N7A N 0.3920(4) 0.8829(4) 0.2258(3)
H6A H 0.3976 0.9249 0.2320
C3A C 0.4672(5) 0.9036(4) 0.1567(5)
C4A C 0.4251(5) 0.8543(5) 0.1859(4)
C5A C 0.4238(5) 0.7884(4) 0.1693(4)
H7A H 0.3976 0.7570 0.1867
C6A C 0.5004(5) 0.8161(5) 0.1007(4)
H8A H 0.5255 0.8009 0.0721
C7A C 0.5044(5) 0.8821(4) 0.1138(4)
C8A C 0.4620(5) 0.7014(4) 0.1112(4)
H9A H 0.4137 0.6839 0.1125
H10A H 0.4701 0.6994 0.0718
C9A C 0.5451(5) 0.9282(5) 0.0754(4)
C10A C 0.5439(4) 1.1050(5) 0.0798(3)
C11A C 0.5679(4) 1.0418(4) 0.0623(3)
C12A C 0.6128(4) 1.0397(4) 0.0216(3)
H11A H 0.6289 0.9991 0.0094
C13A C 0.6345(4) 1.0996(4) -0.0017(4)
H12A H 0.6660 1.0982 -0.0286
C14A C 0.6103(5) 1.1591(5) 0.0144(4)
H13A H 0.6246 1.1978 -0.0023
C15A C 0.5639(5) 1.1634(5) 0.0559(4)
C16A C 0.4229(4) 1.0995(5) 0.1010(4)
H14A H 0.4109 1.1303 0.0702
H15A H 0.3951 1.1098 0.1309
H16A H 0.4121 1.0550 0.0877
C17A C 0.5392(5) 1.2367(5) 0.0657(4)
C18A C 0.4530(4) 1.2948(4) 0.1813(3)
C19A C 0.4817(4) 1.3046(4) 0.1312(4)
C20A C 0.4797(5) 1.3665(5) 0.1052(4)
H17A H 0.4998 1.3728 0.0720
C21A C 0.4469(6) 1.4187(4) 0.1301(5)
H18A H 0.4449 1.4605 0.1130
C22A C 0.4182(5) 1.4104(4) 0.1776(4)
H19A H 0.3972 1.4467 0.1933
C23A C 0.4186(4) 1.3491(4) 0.2047(4)
C24A C 0.3768(6) 1.3482(5) 0.2571(5)
C25A C 0.3077(4) 1.2076(5) 0.3226(4)
C26A C 0.3227(5) 1.2746(7) 0.3190(4)
C27A C 0.2973(5) 1.3173(5) 0.3568(5)
H20A H 0.3070 1.3626 0.3552
C28A C 0.2567(5) 1.2931(5) 0.3981(4)
H21A H 0.2387 1.3223 0.4230
C29A C 0.2437(4) 1.2248(5) 0.4012(4)
H22A H 0.2179 1.2079 0.4287
C30A C 0.2701(4) 1.1818(4) 0.3619(3)
C31A C 0.2969(5) 1.1588(5) 0.2306(4)
H23A H 0.2678 1.1193 0.2297
H24A H 0.3285 1.1558 0.2021
H25A H 0.2660 1.1970 0.2231
C32A C 0.2520(6) 1.1055(6) 0.3711(4)
C33A C 0.3232(5) 0.9649(5) 0.3046(4)
C34A C 0.2857(5) 0.9942(5) 0.3461(4)
C35A C 0.2518(5) 0.9562(5) 0.3852(4)
H26A H 0.2281 0.9772 0.4122
C36A C 0.2859(4) 0.8609(5) 0.3399(3)
H27A H 0.2844 0.8148 0.3369
C37A C 0.3190(5) 0.8947(5) 0.3022(4)
C38A C 0.2233(5) 0.8482(5) 0.4237(4)
H28A H 0.1719 0.8421 0.4109
H29A H 0.2285 0.8712 0.4600
C39A C 0.2593(5) 0.7810(4) 0.4319(3)
C40A C 0.2260(5) 0.7242(4) 0.4086(4)
H30A H 0.1797 0.7271 0.3882
C41A C 0.2601(5) 0.6631(5) 0.4150(4)
H31A H 0.2362 0.6251 0.3998
C42A C 0.3289(6) 0.6584(6) 0.4436(4)
H32A H 0.3520 0.6173 0.4467
C43A C 0.3642(5) 0.7125(6) 0.4676(4)
H33A H 0.4105 0.7088 0.4881
C44A C 0.3287(5) 0.7749(5) 0.4608(4)
H34A H 0.3528 0.8127 0.4763
C45A C 0.3514(4) 0.8488(4) 0.2559(4)
C46A C 0.5124(4) 0.6570(3) 0.1427(3)
C47A C 0.5578(4) 0.6825(2) 0.1893(3)
H35A H 0.5556 0.7274 0.1983
C48A C 0.6063(4) 0.6408(3) 0.2224(3)
H36A H 0.6367 0.6579 0.2536
C49A C 0.6095(4) 0.5737(3) 0.2089(4)
H37A H 0.6420 0.5458 0.2311
C50A C 0.5642(5) 0.5482(3) 0.1623(4)
H38A H 0.5663 0.5033 0.1533
C51A C 0.5156(5) 0.5898(3) 0.1292(3)
H39A H 0.4853 0.5728 0.0980
C2? C 0.3698(9) 0.4246(12) 0.4829(11)
Cl3? Cl 0.3012(12) 0.4706(7) 0.4415(6)
Cl4? Cl 0.4493(7) 0.4694(5) 0.5031(5)
C52? C 0.4812(3) 0.6559(3) 0.3421(3)
C53? C 0.4235(4) 0.6840(2) 0.3064(3)
H40? H 0.4086 0.7271 0.3129
C54? C 0.3880(4) 0.6475(4) 0.2610(3)
H41? H 0.3494 0.6663 0.2370
C55? C 0.4103(5) 0.5830(4) 0.2513(3)
H42? H 0.3865 0.5586 0.2209
C56? C 0.4680(5) 0.5549(3) 0.2870(4)
H43? H 0.4829 0.5118 0.2805
C57? C 0.5035(3) 0.5914(3) 0.3324(4)
H44? H 0.5421 0.5726 0.3564
loop_
_geom_bond_atom_site_label_1
_geom_bond_atom_site_label_2
_geom_bond_site_symmetry_1
_geom_bond_site_symmetry_2
C1 Cl1 1_555 1_555
Cl2 C1 1_555 1_555
K1 O1 1_555 1_555
O1 C3 1_555 1_555
O2 C9 1_555 1_555
O3 K1 1_555 1_555
O4 C17 1_555 1_555
O5 H1 1_555 1_555
O6 C24 1_555 1_555
O7 C25 1_555 1_555
O8 C32 1_555 1_555
O9 K1 1_555 1_555
O10 C45 1_555 1_555
N1 C5 1_555 1_555
N2 H2 1_555 1_555
N3 H3 1_555 1_555
N4 H4 1_555 1_555
N5 H5 1_555 1_555
N6 C35 1_555 1_555
N7 H6 1_555 1_555
C3 C4 1_555 1_555
C4 N7 1_555 1_555
C5 C4 1_555 1_555
H7 C5 1_555 1_555
C6 N1 1_555 1_555
H8 C6 1_555 1_555
C7 C3 1_555 1_555
C8 N1 1_555 1_555
H9 C8 1_555 1_555
H10 C8 1_555 1_555
C9 N2 1_555 1_555
C10 O3 1_555 1_555
C11 N2 1_555 1_555
C12 C11 1_555 1_555
H11 C12 1_555 1_555
C13 C12 1_555 1_555
H12 C13 1_555 1_555
C14 C13 1_555 1_555
H13 C14 1_555 1_555
C15 C10 1_555 1_555
C16 O3 1_555 1_555
H14 C16 1_555 1_555
H15 C16 1_555 1_555
H16 C16 1_555 1_555
C17 N3 1_555 1_555
C18 O5 1_555 1_555
C19 N3 1_555 1_555
C20 C19 1_555 1_555
H17 C20 1_555 1_555
C21 C20 1_555 1_555
H18 C21 1_555 1_555
C22 C21 1_555 1_555
H19 C22 1_555 1_555
C23 C18 1_555 1_555
C24 N4 1_555 1_555
C25 C26 1_555 1_555
C26 N4 1_555 1_555
C27 C26 1_555 1_555
H20 C27 1_555 1_555
C28 C27 1_555 1_555
H21 C28 1_555 1_555
C29 C28 1_555 1_555
H22 C29 1_555 1_555
C30 C25 1_555 1_555
C31 O7 1_555 1_555
H23 C31 1_555 1_555
H24 C31 1_555 1_555
H25 C31 1_555 1_555
C32 N5 1_555 1_555
C33 O9 1_555 1_555
C34 N5 1_555 1_555
C35 C34 1_555 1_555
H26 C35 1_555 1_555
C36 N6 1_555 1_555
H27 C36 1_555 1_555
C37 C33 1_555 1_555
C38 N6 1_555 1_555
H28 C38 1_555 1_555
H29 C38 1_555 1_555
C39 C38 1_555 1_555
C40 C39 1_555 1_555
H30 C40 1_555 1_555
C41 C40 1_555 1_555
H31 C41 1_555 1_555
C42 C41 1_555 1_555
H32 C42 1_555 1_555
C43 C42 1_555 1_555
H33 C43 1_555 1_555
C44 C39 1_555 1_555
H34 C44 1_555 1_555
C45 N7 1_555 1_555
C46 C8 1_555 1_555
C47 C46 1_555 1_555
H35 C47 1_555 1_555
C48 C47 1_555 1_555
H36 C48 1_555 1_555
C49 C48 1_555 1_555
H37 C49 1_555 1_555
C50 C49 1_555 1_555
H38 C50 1_555 1_555
C51 C46 1_555 1_555
H39 C51 1_555 1_555
O1A K1 1_555 1_555
O2A C9A 1_555 1_555
O3A K1 1_555 1_555
O4A C17A 1_555 1_555
O5A H1A 1_555 1_555
O6A C24A 1_555 1_555
O7A C25A 1_555 1_555
O8A C32A 1_555 1_555
O9A K1 1_555 1_555
O10A C45A 1_555 1_555
N1A C5A 1_555 1_555
N2A H2A 1_555 1_555
N3A H3A 1_555 1_555
N4A H4A 1_555 1_555
N5A H5A 1_555 1_555
N6A C35A 1_555 1_555
N7A H6A 1_555 1_555
C3A O1A 1_555 1_555
C4A N7A 1_555 1_555
C5A C4A 1_555 1_555
H7A C5A 1_555 1_555
C6A N1A 1_555 1_555
H8A C6A 1_555 1_555
C7A C3A 1_555 1_555
C8A N1A 1_555 1_555
H9A C8A 1_555 1_555
H10A C8A 1_555 1_555
C9A N2A 1_555 1_555
C10A O3A 1_555 1_555
C11A N2A 1_555 1_555
C12A C11A 1_555 1_555
H11A C12A 1_555 1_555
C13A C12A 1_555 1_555
H12A C13A 1_555 1_555
C14A C13A 1_555 1_555
H13A C14A 1_555 1_555
C15A C10A 1_555 1_555
C16A O3A 1_555 1_555
H14A C16A 1_555 1_555
H15A C16A 1_555 1_555
H16A C16A 1_555 1_555
C17A N3A 1_555 1_555
C18A O5A 1_555 1_555
C19A N3A 1_555 1_555
C20A C19A 1_555 1_555
H17A C20A 1_555 1_555
C21A C20A 1_555 1_555
H18A C21A 1_555 1_555
C22A C21A 1_555 1_555
H19A C22A 1_555 1_555
C23A C18A 1_555 1_555
C24A N4A 1_555 1_555
C25A C26A 1_555 1_555
C26A N4A 1_555 1_555
C27A C26A 1_555 1_555
H20A C27A 1_555 1_555
C28A C27A 1_555 1_555
H21A C28A 1_555 1_555
C29A C28A 1_555 1_555
H22A C29A 1_555 1_555
C30A C25A 1_555 1_555
C31A O7A 1_555 1_555
H23A C31A 1_555 1_555
H24A C31A 1_555 1_555
H25A C31A 1_555 1_555
C32A N5A 1_555 1_555
C33A O9A 1_555 1_555
C34A N5A 1_555 1_555
C35A C34A 1_555 1_555
H26A C35A 1_555 1_555
C36A N6A 1_555 1_555
H27A C36A 1_555 1_555
C37A C33A 1_555 1_555
C38A N6A 1_555 1_555
H28A C38A 1_555 1_555
H29A C38A 1_555 1_555
C39A C38A 1_555 1_555
C40A C39A 1_555 1_555
H30A C40A 1_555 1_555
C41A C40A 1_555 1_555
H31A C41A 1_555 1_555
C42A C41A 1_555 1_555
H32A C42A 1_555 1_555
C43A C42A 1_555 1_555
H33A C43A 1_555 1_555
C44A C39A 1_555 1_555
H34A C44A 1_555 1_555
C45A N7A 1_555 1_555
C46A C8A 1_555 1_555
C47A C46A 1_555 1_555
H35A C47A 1_555 1_555
C48A C47A 1_555 1_555
H36A C48A 1_555 1_555
C49A C48A 1_555 1_555
H37A C49A 1_555 1_555
C50A C49A 1_555 1_555
H38A C50A 1_555 1_555
C51A C46A 1_555 1_555
H39A C51A 1_555 1_555
C6 C7 1_555 1_555
C7 C9 1_555 1_555
C10 C11 1_555 1_555
C14 C15 1_555 1_555
C15 C17 1_555 1_555
C18 C19 1_555 1_555
C22 C23 1_555 1_555
C23 C24 1_555 1_555
C29 C30 1_555 1_555
C30 C32 1_555 1_555
C33 C34 1_555 1_555
C36 C37 1_555 1_555
C37 C45 1_555 1_555
C43 C44 1_555 1_555
C50 C51 1_555 1_555
C3A C4A 1_555 1_555
C6A C7A 1_555 1_555
C7A C9A 1_555 1_555
C10A C11A 1_555 1_555
C14A C15A 1_555 1_555
C15A C17A 1_555 1_555
C18A C19A 1_555 1_555
C22A C23A 1_555 1_555
C23A C24A 1_555 1_555
C29A C30A 1_555 1_555
C30A C32A 1_555 1_555
C33A C34A 1_555 1_555
C36A C37A 1_555 1_555
C37A C45A 1_555 1_555
C43A C44A 1_555 1_555
C50A C51A 1_555 1_555

#END
