
#######################################################################
#
#                 Cambridge Crystallographic Data Centre
#                                CCDC 
#
#######################################################################
#
# If this CIF has been generated from an entry in the Cambridge 
# Structural Database, then it will include bibliographic, chemical, 
# crystal, experimental, refinement or atomic coordinate data resulting 
# from the CCDC's data processing and validation procedures.
#
#######################################################################

data_TUXQEJ
_chemical_formula_moiety         
'C86 H58 F24 N2 2+,2(Br1 1-),2(C1 H4 O1),2(H2 O1)'
_chemical_name_systematic        
"N,N'-bis(3,3'-bis(3,5-bis(Trifluoromethyl)phenyl)-1,1'-binaphthyl-2,2'-dimethylene)-4,4'-bipiperidinium dibromide methanol solvate dihydrate"
_symmetry_cell_setting           monoclinic
_symmetry_space_group_name_H-M   'P 21'
_symmetry_Int_Tables_number      4
_space_group_name_Hall           'P 2yb'
loop_
_symmetry_equiv_pos_site_id
_symmetry_equiv_pos_as_xyz
1 x,y,z
2 -x,1/2+y,-z
_cell_length_a                   15.947(5)
_cell_length_b                   15.889(5)
_cell_length_c                   17.873(5)
_cell_angle_alpha                90
_cell_angle_beta                 107.954(4)
_cell_angle_gamma                90
_cell_volume                     4308.17
_exptl_crystal_colour            colorless
_exptl_crystal_description       prism
_cell_formula_units_Z            2
loop_
_atom_site_label
_atom_site_type_symbol
_atom_site_fract_x
_atom_site_fract_y
_atom_site_fract_z
Br1 Br 0.07255(8) 0.56243(8) 0.15227(7)
Br2 Br 0.33454(14) 0.11689(11) 0.24417(11)
Br3 Br 0.1346(5) 0.1111(6) 0.1545(3)
N1 N 1.1727(4) 0.8358(4) 0.2700(4)
N2 N 0.8105(4) 0.8405(5) -0.0950(4)
C1 C 0.9562(5) 0.7961(5) 0.4634(5)
C2 C 1.0214(5) 0.8540(6) 0.4566(4)
H1 H 1.0074 0.9117 0.4457
C3 C 1.1069(5) 0.8243(6) 0.4662(5)
C4 C 1.1277(6) 0.7393(5) 0.4834(5)
H2 H 1.1866 0.7205 0.4932
C5 C 1.0626(7) 0.6824(6) 0.4862(5)
C6 C 0.9750(6) 0.7119(6) 0.4769(5)
H3 H 0.9303 0.6737 0.4801
C7 C 0.8647(6) 0.8263(5) 0.4550(4)
F1 F 0.8530(7) 0.9092(5) 0.4446(9)
F2 F 0.8056(5) 0.7858(6) 0.3913(5)
F3 F 0.8393(6) 0.7995(9) 0.5182(5)
C8 C 1.0822(8) 0.5926(7) 0.5016(7)
F4 F 1.0163(5) 0.5426(4) 0.4645(5)
F5 F 1.0987(5) 0.5735(4) 0.5786(4)
F6 F 1.1522(4) 0.5682(4) 0.4832(4)
C9 C 1.1765(5) 0.8855(5) 0.4654(5)
C10 C 1.1931(5) 0.9541(5) 0.5144(5)
H4 H 1.1585 0.9613 0.5487
C11 C 1.2565(6) 1.0128(5) 0.5167(5)
C12 C 1.2721(6) 1.0851(6) 0.5661(5)
H5 H 1.2369 1.0925 0.5998
C13 C 1.3349(7) 1.1447(7) 0.5677(6)
H6 H 1.3459 1.1901 0.6040
C14 C 1.3835(7) 1.1359(7) 0.5127(6)
H7 H 1.4228 1.1794 0.5087
C15 C 1.3745(5) 1.0673(6) 0.4667(5)
H8 H 1.4100 1.0619 0.4330
C16 C 1.3128(5) 1.0025(5) 0.4675(4)
C17 C 1.2984(5) 0.9294(6) 0.4182(4)
C18 C 1.2304(5) 0.8751(5) 0.4150(4)
C19 C 1.3581(5) 0.9125(5) 0.3689(5)
C20 C 1.4500(5) 0.8973(6) 0.4064(5)
C21 C 1.4885(6) 0.8938(6) 0.4903(6)
H9 H 1.4523 0.9002 0.5234
C22 C 1.5773(6) 0.8813(7) 0.5229(6)
H10 H 1.6026 0.8797 0.5784
C23 C 1.6315(6) 0.8708(7) 0.4740(6)
H11 H 1.6930 0.8617 0.4971
C24 C 1.5970(6) 0.8734(7) 0.3960(7)
H12 H 1.6351 0.8689 0.3645
C25 C 1.5034(6) 0.8830(6) 0.3579(6)
C26 C 1.4667(6) 0.8766(6) 0.2765(6)
H13 H 1.5039 0.8668 0.2448
C27 C 1.3768(5) 0.8843(5) 0.2415(5)
C28 C 1.3206(5) 0.9024(5) 0.2888(5)
C29 C 1.3399(5) 0.8730(6) 0.1542(5)
C30 C 1.3545(7) 0.7970(7) 0.1214(6)
H14 H 1.3867 0.7535 0.1544
C31 C 1.3216(7) 0.7846(7) 0.0396(6)
C32 C 1.2777(8) 0.8474(8) -0.0083(5)
H15 H 1.2560 0.8382 -0.0634
C33 C 1.2642(6) 0.9247(7) 0.0223(5)
C34 C 1.2951(6) 0.9390(7) 0.1024(5)
H16 H 1.2867 0.9923 0.1231
C35 C 1.3388(6) 0.7008(6) 0.0092(5)
F7 F 1.3297(16) 0.6350(7) 0.0541(8)
F8 F 1.4242(7) 0.7011(11) 0.0039(14)
F9 F 1.2838(12) 0.6878(10) -0.0659(6)
C36 C 1.2161(7) 0.9932(6) -0.0305(5)
F10 F 1.1974(11) 1.0603(7) 0.0053(7)
F11 F 1.2532(8) 1.0121(8) -0.0875(7)
F12 F 1.1328(6) 0.9571(8) -0.0750(7)
C37 C 1.2220(5) 0.9145(5) 0.2539(5)
H17 H 1.2069 0.9237 0.1965
H18 H 1.2033 0.9648 0.2774
C38 C 1.2158(5) 0.8036(5) 0.3543(4)
H19 H 1.1776 0.7600 0.3666
H20 H 1.2732 0.7772 0.3580
C39 C 1.1782(5) 0.7633(5) 0.2151(5)
H21 H 1.2404 0.7563 0.2168
H22 H 1.1597 0.7107 0.2352
C40 C 1.1239(5) 0.7747(6) 0.1325(5)
H23 H 1.1286 0.7240 0.1019
H24 H 1.1463 0.8233 0.1097
C41 C 1.0245(5) 0.7900(5) 0.1262(5)
H25 H 1.0068 0.7431 0.1555
C42 C 1.0227(6) 0.8710(5) 0.1725(5)
H26 H 0.9610 0.8857 0.1681
H27 H 1.0484 0.9180 0.1504
C43 C 1.0760(5) 0.8575(6) 0.2593(4)
H28 H 1.0733 0.9093 0.2893
H29 H 1.0489 0.8113 0.2811
C44 C 0.9625(5) 0.7865(5) 0.0419(4)
H30 H 0.9794 0.7358 0.0165
C45 C 0.9685(5) 0.8627(6) -0.0089(5)
H31 H 1.0299 0.8691 -0.0099
H32 H 0.9522 0.9143 0.0144
C46 C 0.9067(5) 0.8516(6) -0.0931(5)
H33 H 0.9253 0.8017 -0.1171
H34 H 0.9113 0.9015 -0.1247
C47 C 0.8046(5) 0.7655(5) -0.0430(5)
H35 H 0.7433 0.7605 -0.0413
H36 H 0.8189 0.7133 -0.0667
C48 C 0.8668(5) 0.7737(6) 0.0410(4)
H37 H 0.8630 0.7222 0.0710
H38 H 0.8484 0.8221 0.0671
C49 C 0.7590(5) 0.8159(6) -0.1790(4)
H39 H 0.7923 0.7722 -0.1974
H40 H 0.7018 0.7912 -0.1795
C50 C 0.7750(5) 0.9224(6) -0.0711(5)
H41 H 0.7991 0.9300 -0.0135
H42 H 0.7943 0.9706 -0.0968
C51 C 0.7556(7) 0.9297(8) 0.1718(6)
C52 C 0.7236(8) 0.9476(8) 0.0964(5)
H43 H 0.7364 0.9998 0.0764
C53 C 0.6690(7) 0.8864(8) 0.0452(6)
C54 C 0.6503(7) 0.8146(8) 0.0758(7)
H44 H 0.6114 0.7755 0.0421
C55 C 0.6855(8) 0.7953(8) 0.1548(6)
C56 C 0.7359(9) 0.8490(10) 0.2057(6)
H45 H 0.7582 0.8369 0.2604
C57 C 0.8137(7) 0.9906(7) 0.2323(5)
F13 F 0.8764(13) 0.9457(13) 0.2892(11)
F14 F 0.8624(14) 1.0412(12) 0.1957(11)
F15 F 0.7714(14) 1.0437(13) 0.2678(13)
C58 C 0.6633(7) 0.7129(7) 0.1897(5)
F16 F 0.7077(17) 0.6511(10) 0.1644(18)
F17 F 0.5754(10) 0.7071(14) 0.1507(18)
F18 F 0.674(2) 0.6981(14) 0.2690(8)
C59 C 0.6271(7) 0.9072(9) -0.0409(5)
C60 C 0.6759(6) 0.9203(7) -0.0951(5)
C61 C 0.6295(6) 0.9332(6) -0.1750(5)
C62 C 0.5357(6) 0.9253(7) -0.2039(6)
C63 C 0.4861(7) 0.9273(7) -0.2844(5)
H46 H 0.5162 0.9329 -0.3225
C64 C 0.3971(7) 0.9216(11) -0.3089(6)
H47 H 0.3658 0.9210 -0.3636
C65 C 0.3503(10) 0.9164(12) -0.2530(9)
H48 H 0.2880 0.9104 -0.2701
C66 C 0.3958(8) 0.9202(13) -0.1742(8)
H49 H 0.3639 0.9243 -0.1374
C67 C 0.4901(7) 0.9182(11) -0.1459(6)
C68 C 0.5366(7) 0.9083(10) -0.0664(7)
H50 H 0.5052 0.9021 -0.0294
C69 C 0.6790(6) 0.9481(6) -0.2311(5)
C70 C 0.7419(5) 0.8896(5) -0.2356(5)
C71 C 0.7889(5) 0.9019(6) -0.2908(5)
C72 C 0.7704(6) 0.9691(6) -0.3405(5)
H51 H 0.8014 0.9757 -0.3777
C73 C 0.7066(6) 1.0288(5) -0.3379(5)
C74 C 0.6818(5) 1.0963(6) -0.3946(5)
H52 H 0.7069 1.1008 -0.4363
C75 C 0.6217(6) 1.1532(7) -0.3867(6)
H53 H 0.6045 1.1969 -0.4246
C76 C 0.5837(6) 1.1513(7) -0.3266(6)
H54 H 0.5444 1.1944 -0.3216
C77 C 0.6046(6) 1.0855(6) -0.2743(5)
H55 H 0.5789 1.0837 -0.2329
C78 C 0.6622(5) 1.0210(5) -0.2797(5)
C79 C 0.8638(5) 0.8430(6) -0.2950(4)
C80 C 0.9437(6) 0.8774(6) -0.2869(5)
H56 H 0.9521 0.9361 -0.2772
C81 C 1.0139(6) 0.8286(5) -0.2924(5)
C82 C 0.9993(6) 0.7443(6) -0.3086(5)
H57 H 1.0458 0.7111 -0.3159
C83 C 0.9208(5) 0.7066(5) -0.3145(5)
C84 C 0.8487(6) 0.7589(6) -0.3105(5)
H58 H 0.7917 0.7356 -0.3185
C85 C 0.9079(7) 0.6150(6) -0.3312(6)
F19 F 0.8267(4) 0.5881(4) -0.3405(4)
F20 F 0.9616(5) 0.5681(4) -0.2763(5)
F21 F 0.9262(5) 0.5942(4) -0.3968(5)
C86 C 1.1032(5) 0.8640(5) -0.2829(4)
F22 F 1.0983(9) 0.9478(5) -0.3062(9)
F23 F 1.1599(8) 0.8596(9) -0.2087(5)
F24 F 1.1432(8) 0.8230(7) -0.3315(6)
C87 C 0.9365(6) 0.6566(8) 0.2724(6)
H59 H 0.9135 0.6130 0.2995
H60 H 0.9134 0.6478 0.2155
H61 H 0.9183 0.7121 0.2856
O1 O 1.0319(5) 0.6521(5) 0.2971(4)
H62 H 1.0483 0.6287 0.2619
C88 C 0.9106(12) 0.1028(15) 0.0538(13)
O2 O 0.9849(9) 0.0697(8) 0.0356(7)
C89 C 0.4594(12) 0.7268(15) 0.5982(11)
O3 O 0.3663(11) 0.7429(11) 0.5755(8)
O4 O 0.5185(11) 0.7085(10) 0.8727(9)
O5 O 0.5313(13) 0.0297(13) 0.1260(13)
F25? F 0.8596(10) 0.8564(12) 0.5264(5)
F26? F 0.8022(8) 0.7685(8) 0.4255(11)
F27? F 0.8444(8) 0.8968(7) 0.4057(7)
F28? F 1.2868(15) 0.6411(9) 0.0323(12)
F29? F 1.4242(8) 0.6747(13) 0.0411(13)
F30? F 1.3162(15) 0.6983(11) -0.0701(5)
F31? F 1.2630(11) 1.0690(7) -0.0051(9)
F32? F 1.1345(8) 1.0070(13) -0.0242(12)
F33? F 1.2134(13) 0.9834(11) -0.1061(6)
F34? F 0.8926(6) 0.9580(7) 0.2753(6)
F35? F 0.8256(9) 1.0647(7) 0.1992(7)
F36? F 0.7681(7) 1.0089(9) 0.2866(6)
F37? F 0.7273(7) 0.6762(8) 0.2509(7)
F38? F 0.6420(9) 0.6562(7) 0.1298(6)
F39? F 0.5893(7) 0.7210(7) 0.2132(7)
F40? F 1.1083(8) 0.9480(5) -0.2617(8)
F41? F 1.1667(7) 0.8246(7) -0.2215(6)
F42? F 1.1288(8) 0.8555(8) -0.3480(5)
O6? O 0.5911(16) 0.0837(14) 0.3808(13)
O7? O 0.6484(14) 0.0896(13) 0.3517(12)
loop_
_geom_bond_atom_site_label_1
_geom_bond_atom_site_label_2
_geom_bond_site_symmetry_1
_geom_bond_site_symmetry_2
N1 C37 1_555 1_555
N2 C46 1_555 1_555
C1 C2 1_555 1_555
C2 H1 1_555 1_555
C3 C2 1_555 1_555
C4 C3 1_555 1_555
H2 C4 1_555 1_555
C5 C4 1_555 1_555
C6 C1 1_555 1_555
H3 C6 1_555 1_555
C7 C1 1_555 1_555
F1 C7 1_555 1_555
F2 C7 1_555 1_555
F3 C7 1_555 1_555
C8 C5 1_555 1_555
F4 C8 1_555 1_555
F5 C8 1_555 1_555
F6 C8 1_555 1_555
C9 C3 1_555 1_555
C10 C9 1_555 1_555
H4 C10 1_555 1_555
C11 C10 1_555 1_555
C12 C11 1_555 1_555
H5 C12 1_555 1_555
C13 C12 1_555 1_555
H6 C13 1_555 1_555
C14 C13 1_555 1_555
H7 C14 1_555 1_555
C15 C14 1_555 1_555
H8 C15 1_555 1_555
C16 C11 1_555 1_555
C17 C16 1_555 1_555
C18 C9 1_555 1_555
C19 C17 1_555 1_555
C20 C19 1_555 1_555
C21 C20 1_555 1_555
H9 C21 1_555 1_555
C22 C21 1_555 1_555
H10 C22 1_555 1_555
C23 C22 1_555 1_555
H11 C23 1_555 1_555
C24 C23 1_555 1_555
H12 C24 1_555 1_555
C25 C20 1_555 1_555
C26 C25 1_555 1_555
H13 C26 1_555 1_555
C27 C26 1_555 1_555
C28 C19 1_555 1_555
C29 C27 1_555 1_555
C30 C29 1_555 1_555
H14 C30 1_555 1_555
C31 C30 1_555 1_555
C32 C31 1_555 1_555
H15 C32 1_555 1_555
C33 C32 1_555 1_555
C34 C29 1_555 1_555
H16 C34 1_555 1_555
C35 C31 1_555 1_555
F7 C35 1_555 1_555
F8 C35 1_555 1_555
F9 C35 1_555 1_555
C36 C33 1_555 1_555
F10 C36 1_555 1_555
F11 C36 1_555 1_555
F12 C36 1_555 1_555
C37 C28 1_555 1_555
H17 C37 1_555 1_555
H18 C37 1_555 1_555
C38 N1 1_555 1_555
H19 C38 1_555 1_555
H20 C38 1_555 1_555
C39 N1 1_555 1_555
H21 C39 1_555 1_555
H22 C39 1_555 1_555
C40 C39 1_555 1_555
H23 C40 1_555 1_555
H24 C40 1_555 1_555
C41 C40 1_555 1_555
H25 C41 1_555 1_555
C42 C41 1_555 1_555
H26 C42 1_555 1_555
H27 C42 1_555 1_555
C43 N1 1_555 1_555
H28 C43 1_555 1_555
H29 C43 1_555 1_555
C44 C41 1_555 1_555
H30 C44 1_555 1_555
C45 C44 1_555 1_555
H31 C45 1_555 1_555
H32 C45 1_555 1_555
C46 C45 1_555 1_555
H33 C46 1_555 1_555
H34 C46 1_555 1_555
C47 N2 1_555 1_555
H35 C47 1_555 1_555
H36 C47 1_555 1_555
C48 C44 1_555 1_555
H37 C48 1_555 1_555
H38 C48 1_555 1_555
C49 N2 1_555 1_555
H39 C49 1_555 1_555
H40 C49 1_555 1_555
C50 N2 1_555 1_555
H41 C50 1_555 1_555
H42 C50 1_555 1_555
C51 C52 1_555 1_555
C52 H43 1_555 1_555
C53 C52 1_555 1_555
C54 C53 1_555 1_555
H44 C54 1_555 1_555
C55 C54 1_555 1_555
C56 C51 1_555 1_555
H45 C56 1_555 1_555
C57 C51 1_555 1_555
F13 C57 1_555 1_555
F14 C57 1_555 1_555
F15 C57 1_555 1_555
C58 C55 1_555 1_555
F16 C58 1_555 1_555
F17 C58 1_555 1_555
F18 C58 1_555 1_555
C59 C53 1_555 1_555
C60 C50 1_555 1_555
C61 C60 1_555 1_555
C62 C61 1_555 1_555
C63 C62 1_555 1_555
H46 C63 1_555 1_555
C64 C63 1_555 1_555
H47 C64 1_555 1_555
C65 C64 1_555 1_555
H48 C65 1_555 1_555
C66 C65 1_555 1_555
H49 C66 1_555 1_555
C67 C62 1_555 1_555
C68 C59 1_555 1_555
H50 C68 1_555 1_555
C69 C61 1_555 1_555
C70 C49 1_555 1_555
C71 C70 1_555 1_555
C72 C71 1_555 1_555
H51 C72 1_555 1_555
C73 C72 1_555 1_555
C74 C73 1_555 1_555
H52 C74 1_555 1_555
C75 C74 1_555 1_555
H53 C75 1_555 1_555
C76 C75 1_555 1_555
H54 C76 1_555 1_555
C77 C76 1_555 1_555
H55 C77 1_555 1_555
C78 C69 1_555 1_555
C79 C71 1_555 1_555
C80 C79 1_555 1_555
H56 C80 1_555 1_555
C81 C80 1_555 1_555
C82 C81 1_555 1_555
H57 C82 1_555 1_555
C83 C82 1_555 1_555
C84 C79 1_555 1_555
H58 C84 1_555 1_555
C85 C83 1_555 1_555
F19 C85 1_555 1_555
F20 C85 1_555 1_555
F21 C85 1_555 1_555
C86 C81 1_555 1_555
F22 C86 1_555 1_555
F23 C86 1_555 1_555
F24 C86 1_555 1_555
C87 H59 1_555 1_555
H60 C87 1_555 1_555
H61 C87 1_555 1_555
O1 C87 1_555 1_555
H62 O1 1_555 1_555
C88 O2 1_555 1_555
C89 O3 1_555 1_555
C5 C6 1_555 1_555
C15 C16 1_555 1_555
C17 C18 1_555 1_555
C18 C38 1_555 1_555
C24 C25 1_555 1_555
C27 C28 1_555 1_555
C33 C34 1_555 1_555
C42 C43 1_555 1_555
C47 C48 1_555 1_555
C55 C56 1_555 1_555
C59 C60 1_555 1_555
C66 C67 1_555 1_555
C67 C68 1_555 1_555
C69 C70 1_555 1_555
C73 C78 1_555 1_555
C77 C78 1_555 1_555
C83 C84 1_555 1_555

#END
