
#######################################################################
#
#                 Cambridge Crystallographic Data Centre
#                                CCDC 
#
#######################################################################
#
# If this CIF has been generated from an entry in the Cambridge 
# Structural Database, then it will include bibliographic, chemical, 
# crystal, experimental, refinement or atomic coordinate data resulting 
# from the CCDC's data processing and validation procedures.
#
#######################################################################

data_TUXQIN
_chemical_formula_moiety         'C89 H64 F24 N2 2+,2(Br1 1-),6.25(H2 O1)'
_chemical_name_systematic        
"1,3-bis((3,3'-bis(3,5-bis(Trifluoromethyl)phenyl)-1,1'-binaphthyl-2,2'-dimethylene)piperidinio-4yl)propane dibromide hydrate"
_symmetry_cell_setting           monoclinic
_symmetry_space_group_name_H-M   'P 21'
_symmetry_Int_Tables_number      4
_space_group_name_Hall           'P 2yb'
loop_
_symmetry_equiv_pos_site_id
_symmetry_equiv_pos_as_xyz
1 x,y,z
2 -x,1/2+y,-z
_cell_length_a                   8.7777(18)
_cell_length_b                   36.677(7)
_cell_length_c                   14.439(3)
_cell_angle_alpha                90
_cell_angle_beta                 103.78(3)
_cell_angle_gamma                90
_cell_volume                     4514.69
_cell_formula_units_Z            2
loop_
_atom_site_label
_atom_site_type_symbol
_atom_site_fract_x
_atom_site_fract_y
_atom_site_fract_z
Br1 Br 0.90455(18) 0.61591(5) 0.47241(16)
F1 F 0.641(3) 0.5347(5) 0.149(2)
F2 F 0.7924(19) 0.5793(7) 0.1603(18)
F3 F 0.676(4) 0.5642(8) 0.0348(14)
F4 F 0.007(3) 0.6029(7) 0.032(2)
F5 F 0.125(5) 0.6137(11) -0.0611(19)
F6 F 0.071(3) 0.6605(5) 0.015(2)
F7 F 0.1153(8) 0.50455(18) 0.7562(6)
F8 F 0.2859(9) 0.46504(17) 0.8211(7)
F9 F 0.2126(8) 0.50566(17) 0.9099(5)
F10 F 0.8474(8) 0.4925(2) 0.8378(8)
F11 F 0.9187(7) 0.54827(17) 0.8450(7)
F12 F 0.8608(11) 0.5219(4) 0.9629(9)
F13 F 0.5337(11) 0.3773(3) 0.4570(8)
F14 F 0.4598(10) 0.3359(3) 0.5358(5)
F15 F 0.5983(9) 0.3228(2) 0.4371(6)
F16 F -0.2198(8) 0.3473(2) 0.2864(5)
F17 F -0.1128(10) 0.3987(2) 0.2945(8)
F18 F -0.0918(9) 0.3683(3) 0.4228(6)
F19 F 0.7852(8) 0.3872(2) -0.3371(6)
F20 F 0.7834(7) 0.3552(2) -0.2157(5)
F21 F 0.7931(9) 0.4132(2) -0.2035(7)
F22 F 0.2514(13) 0.44368(19) -0.5180(6)
F23 F 0.0882(11) 0.4531(2) -0.4300(9)
F24 F 0.3038(10) 0.48177(16) -0.4028(5)
N1 N 0.4127(8) 0.58922(17) 0.4802(5)
N2 N 0.2423(7) 0.36311(16) -0.0095(5)
C1 C 0.6436(16) 0.5694(4) 0.1198(10)
C2 C 0.521(2) 0.5958(3) 0.1409(12)
C3 C 0.386(3) 0.5961(4) 0.0818(12)
H1 H 0.3647 0.5815 0.0276
C4 C 0.278(2) 0.6187(5) 0.1021(12)
C5 C 0.308(2) 0.6404(4) 0.1909(11)
H2 H 0.2292 0.6549 0.2044
C6 C 0.4463(15) 0.6388(3) 0.2506(8)
C7 C 0.5676(18) 0.6158(3) 0.2240(8)
H3 H 0.6697 0.6149 0.2613
C8 C 0.1250(19) 0.6258(4) 0.0275(13)
C9 C 0.4928(11) 0.6616(2) 0.3346(7)
C10 C 0.5954(14) 0.6889(2) 0.3374(7)
H4 H 0.6256 0.6946 0.2815
C11 C 0.6608(12) 0.7098(2) 0.4200(7)
C12 C 0.7732(14) 0.7371(3) 0.4219(9)
H5 H 0.8002 0.7432 0.3653
C13 C 0.8439(15) 0.7549(3) 0.5026(8)
H6 H 0.9147 0.7736 0.5009
C14 C 0.8094(13) 0.7449(3) 0.5885(8)
H7 H 0.8631 0.7560 0.6448
C15 C 0.6966(10) 0.7189(2) 0.5915(7)
H8 H 0.6735 0.7130 0.6492
C16 C 0.6159(11) 0.7012(2) 0.5062(6)
C17 C 0.4966(11) 0.6739(2) 0.5049(7)
C18 C 0.4435(10) 0.6538(2) 0.4227(7)
C19 C 0.3278(11) 0.6228(2) 0.4256(6)
H9 H 0.2764 0.6157 0.3610
H10 H 0.2479 0.6313 0.4568
C20 C 0.5373(10) 0.6016(2) 0.5702(6)
H11 H 0.5760 0.5806 0.6097
H12 H 0.6252 0.6129 0.5513
C21 C 0.4651(10) 0.6284(2) 0.6261(6)
C22 C 0.4455(10) 0.6646(2) 0.5927(6)
C23 C 0.3711(11) 0.6905(2) 0.6408(7)
C24 C 0.3373(11) 0.7268(2) 0.6082(7)
H13 H 0.3623 0.7342 0.5521
C25 C 0.2687(13) 0.7510(2) 0.6575(8)
H14 H 0.2456 0.7745 0.6337
C26 C 0.2326(14) 0.7409(2) 0.7442(8)
H15 H 0.1888 0.7578 0.7782
C27 C 0.2617(14) 0.7063(3) 0.7780(8)
H16 H 0.2385 0.6994 0.8351
C28 C 0.3292(12) 0.6808(2) 0.7235(7)
C29 C 0.3631(12) 0.6437(2) 0.7631(7)
H17 H 0.3421 0.6375 0.8214
C30 C 0.4246(10) 0.6190(2) 0.7138(6)
C31 C 0.4646(11) 0.5816(2) 0.7567(6)
C32 C 0.3418(10) 0.5588(2) 0.7693(6)
H18 H 0.2380 0.5664 0.7498
C33 C 0.3777(11) 0.5245(3) 0.8117(8)
C34 C 0.5349(13) 0.5139(3) 0.8428(8)
H19 H 0.5593 0.4910 0.8699
C35 C 0.6508(11) 0.5366(3) 0.8336(7)
C36 C 0.6163(11) 0.5703(2) 0.7879(7)
H20 H 0.6975 0.5851 0.7786
C37 C 0.8156(15) 0.5250(3) 0.8663(11)
C38 C 0.2513(15) 0.4994(3) 0.8267(11)
C39 C 0.2957(11) 0.5647(2) 0.5077(6)
H21 H 0.2332 0.5788 0.5420
H22 H 0.3509 0.5461 0.5507
C40 C 0.1871(11) 0.5462(2) 0.4233(7)
H23 H 0.1228 0.5646 0.3840
H24 H 0.1177 0.5298 0.4463
C41 C 0.2780(11) 0.5246(2) 0.3620(7)
H25 H 0.3351 0.5052 0.4027
C42 C 0.3991(11) 0.5486(2) 0.3352(7)
H26 H 0.3463 0.5666 0.2895
H27 H 0.4640 0.5338 0.3041
C43 C 0.5041(10) 0.5681(2) 0.4193(7)
H28 H 0.5711 0.5850 0.3956
H29 H 0.5711 0.5504 0.4591
C44 C 0.1671(12) 0.5057(2) 0.2774(8)
H30 H 0.0894 0.4918 0.3003
H31 H 0.1124 0.5240 0.2335
C45 C 0.2545(11) 0.4806(3) 0.2256(7)
H32 H 0.3103 0.4624 0.2697
H33 H 0.3310 0.4945 0.2017
C46 C 0.1402(12) 0.4612(2) 0.1411(6)
H34 H 0.0645 0.4474 0.1659
H35 H 0.0830 0.4797 0.0985
C47 C 0.2193(11) 0.4356(2) 0.0836(7)
H36 H 0.3014 0.4493 0.0633
C48 C 0.2952(10) 0.4028(2) 0.1398(6)
H37 H 0.2183 0.3908 0.1677
H38 H 0.3800 0.4111 0.1916
C49 C 0.3610(9) 0.3748(2) 0.0792(6)
H39 H 0.4508 0.3854 0.0610
H40 H 0.3970 0.3534 0.1179
C50 C 0.1711(10) 0.3972(2) -0.0672(7)
H41 H 0.2525 0.4101 -0.0891
H42 H 0.0916 0.3897 -0.1228
C51 C 0.0990(11) 0.4224(2) -0.0072(6)
H43 H 0.0136 0.4099 0.0115
H44 H 0.0554 0.4435 -0.0451
C52 C 0.1104(10) 0.3408(2) 0.0177(6)
H45 H 0.0826 0.3522 0.0720
H46 H 0.0184 0.3413 -0.0352
C53 C 0.1547(11) 0.3023(2) 0.0417(6)
C54 C 0.1980(12) 0.2896(2) 0.1377(7)
C55 C 0.1951(11) 0.3133(2) 0.2217(6)
C56 C 0.0518(12) 0.3286(2) 0.2336(6)
H47 H -0.0417 0.3253 0.1880
C57 C 0.0569(12) 0.3490(3) 0.3166(7)
C58 C 0.1952(12) 0.3532(2) 0.3868(7)
H48 H 0.1958 0.3660 0.4425
C59 C 0.3305(12) 0.3382(2) 0.3721(7)
C60 C 0.3311(12) 0.3183(2) 0.2918(7)
H49 H 0.4244 0.3081 0.2844
C61 C -0.0914(12) 0.3660(4) 0.3307(9)
C62 C 0.4802(17) 0.3426(4) 0.4497(9)
C63 C 0.2471(13) 0.2539(2) 0.1563(7)
H50 H 0.2765 0.2458 0.2190
C64 C 0.2532(14) 0.2296(2) 0.0805(7)
C65 C 0.3092(19) 0.1933(3) 0.1002(9)
H51 H 0.3449 0.1856 0.1630
C66 C 0.311(2) 0.1702(3) 0.0284(10)
H52 H 0.3389 0.1460 0.0413
C67 C 0.269(3) 0.1826(3) -0.0663(11)
H53 H 0.2762 0.1665 -0.1148
C68 C 0.219(2) 0.2178(3) -0.0903(9)
H54 H 0.1949 0.2255 -0.1535
C69 C 0.2059(17) 0.2417(3) -0.0159(8)
C70 C 0.1571(13) 0.2786(2) -0.0344(6)
C71 C 0.1255(12) 0.2944(2) -0.1330(7)
C72 C -0.0035(14) 0.2808(3) -0.2043(7)
C73 C -0.1196(18) 0.2557(3) -0.1820(8)
H55 H -0.1066 0.2462 -0.1210
C74 C -0.247(2) 0.2468(4) -0.2521(9)
H56 H -0.3206 0.2309 -0.2383
C75 C -0.2697(19) 0.2607(4) -0.3443(8)
H57 H -0.3583 0.2539 -0.3904
C76 C -0.1658(14) 0.2841(3) -0.3683(8)
H58 H -0.1828 0.2928 -0.4304
C77 C -0.0276(14) 0.2955(2) -0.2970(7)
C78 C 0.0782(12) 0.3215(2) -0.3170(7)
H59 H 0.0684 0.3289 -0.3796
C79 C 0.1928(11) 0.3357(2) -0.2479(6)
C80 C 0.2159(11) 0.3227(2) -0.1532(6)
C81 C 0.3274(10) 0.3409(2) -0.0692(6)
H60 H 0.3896 0.3223 -0.0296
H61 H 0.3986 0.3566 -0.0928
C82 C 0.2965(11) 0.3643(2) -0.2750(7)
C83 C 0.2241(12) 0.3927(2) -0.3340(7)
H62 H 0.1153 0.3942 -0.3528
C84 C 0.3179(11) 0.4191(3) -0.3645(8)
C85 C 0.4794(12) 0.4173(2) -0.3389(7)
H63 H 0.5395 0.4351 -0.3592
C86 C 0.5517(12) 0.3884(3) -0.2823(7)
C87 C 0.4617(11) 0.3617(2) -0.2500(6)
H64 H 0.5107 0.3425 -0.2123
C88 C 0.2438(16) 0.4492(3) -0.4283(11)
C89 C 0.7278(12) 0.3847(3) -0.2582(9)
O1 O 0.6994(9) 0.50333(19) 0.6084(6)
O2 O 0.7695(11) 0.4910(3) 0.4263(7)
O3 O 0.4960(14) 0.7628(2) 0.1431(8)
O4 O 0.5895(14) 0.4287(4) 0.9723(9)
O5 O 0.3111(16) 0.7048(3) 0.0427(8)
O6 O 0.223(3) 0.7579(8) -0.028(2)
Br2? Br 0.9455(13) 0.5989(4) 0.5576(11)
Br3? Br 0.7308(3) 0.34396(15) 0.02385(17)
Br4? Br 0.7492(11) 0.3690(5) 0.0284(8)
F25? F 0.554(2) 0.5393(4) 0.0881(15)
F26? F 0.772(2) 0.5623(7) 0.1887(15)
F27? F 0.678(3) 0.5829(7) 0.0404(15)
F28? F 0.006(2) 0.6204(6) 0.0696(16)
F29? F 0.155(6) 0.6014(10) -0.036(2)
F30? F 0.138(4) 0.6582(6) -0.014(2)
O7? O 0.650(2) 0.4478(5) 1.0526(15)
O8? O 0.392(3) 0.7470(6) 0.0245(18)
O9? O 0.901(3) 0.6395(7) 0.726(2)
O10? O 0.960(2) 0.6063(4) 0.6956(13)
O11? O 0.027(3) 0.6804(6) 0.3333(18)
O12? O 0.009(3) 0.6602(9) 0.303(2)
loop_
_geom_bond_atom_site_label_1
_geom_bond_atom_site_label_2
_geom_bond_site_symmetry_1
_geom_bond_site_symmetry_2
F1 C1 1_555 1_555
F2 C1 1_555 1_555
F3 C1 1_555 1_555
F4 C8 1_555 1_555
F5 C8 1_555 1_555
F6 C8 1_555 1_555
F7 C38 1_555 1_555
F8 C38 1_555 1_555
F9 C38 1_555 1_555
F10 C37 1_555 1_555
F11 C37 1_555 1_555
F12 C37 1_555 1_555
F13 C62 1_555 1_555
F14 C62 1_555 1_555
F15 C62 1_555 1_555
F16 C61 1_555 1_555
F17 C61 1_555 1_555
F18 C61 1_555 1_555
F19 C89 1_555 1_555
F20 C89 1_555 1_555
F21 C89 1_555 1_555
F22 C88 1_555 1_555
F23 C88 1_555 1_555
F24 C88 1_555 1_555
N1 C19 1_555 1_555
N2 C49 1_555 1_555
C1 C2 1_555 1_555
C2 C3 1_555 1_555
C3 H1 1_555 1_555
C4 C3 1_555 1_555
C5 C4 1_555 1_555
H2 C5 1_555 1_555
C6 C5 1_555 1_555
C7 C2 1_555 1_555
H3 C7 1_555 1_555
C8 C4 1_555 1_555
C9 C6 1_555 1_555
C10 C9 1_555 1_555
H4 C10 1_555 1_555
C11 C10 1_555 1_555
C12 C11 1_555 1_555
H5 C12 1_555 1_555
C13 C12 1_555 1_555
H6 C13 1_555 1_555
C14 C13 1_555 1_555
H7 C14 1_555 1_555
C15 C14 1_555 1_555
H8 C15 1_555 1_555
C16 C11 1_555 1_555
C17 C16 1_555 1_555
C18 C9 1_555 1_555
C19 C18 1_555 1_555
H9 C19 1_555 1_555
H10 C19 1_555 1_555
C20 N1 1_555 1_555
H11 C20 1_555 1_555
H12 C20 1_555 1_555
C21 C20 1_555 1_555
C22 C17 1_555 1_555
C23 C22 1_555 1_555
C24 C23 1_555 1_555
H13 C24 1_555 1_555
C25 C24 1_555 1_555
H14 C25 1_555 1_555
C26 C25 1_555 1_555
H15 C26 1_555 1_555
C27 C26 1_555 1_555
H16 C27 1_555 1_555
C28 C23 1_555 1_555
C29 C28 1_555 1_555
H17 C29 1_555 1_555
C30 C21 1_555 1_555
C31 C30 1_555 1_555
C32 C31 1_555 1_555
H18 C32 1_555 1_555
C33 C32 1_555 1_555
C34 C33 1_555 1_555
H19 C34 1_555 1_555
C35 C34 1_555 1_555
C36 C31 1_555 1_555
H20 C36 1_555 1_555
C37 C35 1_555 1_555
C38 C33 1_555 1_555
C39 N1 1_555 1_555
H21 C39 1_555 1_555
H22 C39 1_555 1_555
C40 C39 1_555 1_555
H23 C40 1_555 1_555
H24 C40 1_555 1_555
C41 C40 1_555 1_555
H25 C41 1_555 1_555
C42 C41 1_555 1_555
H26 C42 1_555 1_555
H27 C42 1_555 1_555
C43 N1 1_555 1_555
H28 C43 1_555 1_555
H29 C43 1_555 1_555
C44 C41 1_555 1_555
H30 C44 1_555 1_555
H31 C44 1_555 1_555
C45 C44 1_555 1_555
H32 C45 1_555 1_555
H33 C45 1_555 1_555
C46 C45 1_555 1_555
H34 C46 1_555 1_555
H35 C46 1_555 1_555
C47 C46 1_555 1_555
H36 C47 1_555 1_555
C48 C47 1_555 1_555
H37 C48 1_555 1_555
H38 C48 1_555 1_555
C49 C48 1_555 1_555
H39 C49 1_555 1_555
H40 C49 1_555 1_555
C50 N2 1_555 1_555
H41 C50 1_555 1_555
H42 C50 1_555 1_555
C51 C47 1_555 1_555
H43 C51 1_555 1_555
H44 C51 1_555 1_555
C52 N2 1_555 1_555
H45 C52 1_555 1_555
H46 C52 1_555 1_555
C53 C52 1_555 1_555
C54 C53 1_555 1_555
C55 C54 1_555 1_555
C56 C55 1_555 1_555
H47 C56 1_555 1_555
C57 C56 1_555 1_555
C58 C57 1_555 1_555
H48 C58 1_555 1_555
C59 C58 1_555 1_555
C60 C55 1_555 1_555
H49 C60 1_555 1_555
C61 C57 1_555 1_555
C62 C59 1_555 1_555
C63 C54 1_555 1_555
H50 C63 1_555 1_555
C64 C63 1_555 1_555
C65 C64 1_555 1_555
H51 C65 1_555 1_555
C66 C65 1_555 1_555
H52 C66 1_555 1_555
C67 C66 1_555 1_555
H53 C67 1_555 1_555
C68 C67 1_555 1_555
H54 C68 1_555 1_555
C69 C64 1_555 1_555
C70 C53 1_555 1_555
C71 C70 1_555 1_555
C72 C71 1_555 1_555
C73 C72 1_555 1_555
H55 C73 1_555 1_555
C74 C73 1_555 1_555
H56 C74 1_555 1_555
C75 C74 1_555 1_555
H57 C75 1_555 1_555
C76 C75 1_555 1_555
H58 C76 1_555 1_555
C77 C72 1_555 1_555
C78 C77 1_555 1_555
H59 C78 1_555 1_555
C79 C78 1_555 1_555
C80 C71 1_555 1_555
C81 N2 1_555 1_555
H60 C81 1_555 1_555
H61 C81 1_555 1_555
C82 C79 1_555 1_555
C83 C82 1_555 1_555
H62 C83 1_555 1_555
C84 C83 1_555 1_555
C85 C84 1_555 1_555
H63 C85 1_555 1_555
C86 C85 1_555 1_555
C87 C82 1_555 1_555
H64 C87 1_555 1_555
C88 C84 1_555 1_555
C89 C86 1_555 1_555
C6 C7 1_555 1_555
C15 C16 1_555 1_555
C17 C18 1_555 1_555
C21 C22 1_555 1_555
C27 C28 1_555 1_555
C29 C30 1_555 1_555
C35 C36 1_555 1_555
C42 C43 1_555 1_555
C50 C51 1_555 1_555
C59 C60 1_555 1_555
C68 C69 1_555 1_555
C69 C70 1_555 1_555
C76 C77 1_555 1_555
C79 C80 1_555 1_555
C80 C81 1_555 1_555
C86 C87 1_555 1_555

#END
