
#######################################################################
#
#                 Cambridge Crystallographic Data Centre
#                                CCDC 
#
#######################################################################
#
# If this CIF has been generated from an entry in the Cambridge 
# Structural Database, then it will include bibliographic, chemical, 
# crystal, experimental, refinement or atomic coordinate data resulting 
# from the CCDC's data processing and validation procedures.
#
#######################################################################

data_TUXRIP
_chemical_formula_moiety         'C11 H11 I1 O2'
_chemical_name_systematic        '7-iodo-2-methylindane-1-carboxylic acid'
_symmetry_cell_setting           monoclinic
_symmetry_space_group_name_H-M   'P 21'
_symmetry_Int_Tables_number      4
_space_group_name_Hall           'P 2yb'
loop_
_symmetry_equiv_pos_site_id
_symmetry_equiv_pos_as_xyz
1 x,y,z
2 -x,1/2+y,-z
_cell_length_a                   8.6632(10)
_cell_length_b                   7.4512(8)
_cell_length_c                   16.987(2)
_cell_angle_alpha                90
_cell_angle_beta                 91.269(10)
_cell_angle_gamma                90
_cell_volume                     1096.26
_cell_formula_units_Z            4
loop_
_atom_site_label
_atom_site_type_symbol
_atom_site_fract_x
_atom_site_fract_y
_atom_site_fract_z
H1 H 0.6843 0.3269 0.9385
H2 H 0.4811 0.6053 0.8326
H3 H 1.2262 0.3732 0.8749
H4 H 1.2558 0.0915 0.8227
H5 H 1.0401 -0.0845 0.7869
H6 H 0.7279 -0.1204 0.8249
H7 H 0.6945 0.0204 0.7546
H8 H 0.5165 0.1341 0.8342
H9 H 0.5343 -0.1019 0.9263
H10 H 0.5184 0.0848 0.9720
H11 H 0.6832 -0.0110 0.9670
C1 C 0.6957(16) 0.2952(19) 0.8817(11)
C2 C 0.8637(17) 0.262(2) 0.8639(11)
C3 C 0.9915(17) 0.362(2) 0.8819(10)
C4 C 1.1383(18) 0.300(2) 0.8642(10)
C5 C 1.1550(17) 0.136(3) 0.8317(11)
C6 C 1.0264(18) 0.029(2) 0.8110(10)
C7 C 0.8787(16) 0.093(2) 0.8261(9)
C8 C 0.7259(18) 0.008(2) 0.8107(11)
C9 C 0.6163(16) 0.112(2) 0.8634(10)
C10 C 0.585(2) 0.012(3) 0.9388(15)
C11 C 0.6252(17) 0.438(2) 0.8303(10)
O1 O 0.6616(14) 0.4600(18) 0.7619(8)
O2 O 0.5172(13) 0.5284(17) 0.8642(7)
I1 I 0.96724(12) 0.60796(14) 0.93925(8)
H12 H 0.4352 0.1321 0.3018
H13 H 0.7898 0.4281 0.3214
H14 H 0.9967 -0.0185 0.5031
H15 H 0.8701 0.0708 0.6171
H16 H 0.6867 0.2959 0.6100
H17 H 0.5813 0.5771 0.5094
H18 H 0.4665 0.4245 0.4752
H19 H 0.5084 0.5500 0.3567
H20 H 0.6409 0.8034 0.4116
H21 H 0.7170 0.7420 0.3309
H22 H 0.7982 0.6909 0.4134
C12 C 0.7025(19) 0.377(2) 0.3519(10)
C13 C 0.7674(16) 0.279(2) 0.4236(10)
C14 C 0.8801(16) 0.146(2) 0.4283(10)
C15 C 0.9187(16) 0.071(3) 0.4999(9)
C16 C 0.8445(16) 0.125(3) 0.5679(10)
C17 C 0.7347(18) 0.256(2) 0.5634(11)
C18 C 0.6920(18) 0.333(2) 0.4915(12)
C19 C 0.5719(19) 0.475(2) 0.4724(10)
C20 C 0.6072(17) 0.535(2) 0.3875(8)
C21 C 0.699(2) 0.708(2) 0.3857(13)
C22 C 0.6038(17) 0.261(2) 0.2978(12)
O3 O 0.6137(13) 0.2710(17) 0.2272(7)
O4 O 0.5054(12) 0.1642(19) 0.3337(8)
I2 I 0.99673(11) 0.07294(14) 0.32591(7)
loop_
_geom_bond_atom_site_label_1
_geom_bond_atom_site_label_2
_geom_bond_site_symmetry_1
_geom_bond_site_symmetry_2
H1 C1 1_555 1_555
H2 O2 1_555 1_555
H3 C4 1_555 1_555
H4 C5 1_555 1_555
H5 C6 1_555 1_555
H6 C8 1_555 1_555
H7 C8 1_555 1_555
H8 C9 1_555 1_555
H9 C10 1_555 1_555
H10 C10 1_555 1_555
H11 C10 1_555 1_555
C1 C2 1_555 1_555
C2 C3 1_555 1_555
C3 C4 1_555 1_555
C4 C5 1_555 1_555
C5 C6 1_555 1_555
C6 C7 1_555 1_555
C7 C2 1_555 1_555
C8 C7 1_555 1_555
C9 C1 1_555 1_555
C10 C9 1_555 1_555
C11 C1 1_555 1_555
O1 C11 1_555 1_555
O2 C11 1_555 1_555
I1 C3 1_555 1_555
H12 O4 1_555 1_555
H13 C12 1_555 1_555
H14 C15 1_555 1_555
H15 C16 1_555 1_555
H16 C17 1_555 1_555
H17 C19 1_555 1_555
H18 C19 1_555 1_555
H19 C20 1_555 1_555
H20 C21 1_555 1_555
H21 C21 1_555 1_555
H22 C21 1_555 1_555
C12 C13 1_555 1_555
C13 C14 1_555 1_555
C14 C15 1_555 1_555
C15 C16 1_555 1_555
C16 C17 1_555 1_555
C17 C18 1_555 1_555
C18 C13 1_555 1_555
C19 C18 1_555 1_555
C20 C12 1_555 1_555
C21 C20 1_555 1_555
C22 C12 1_555 1_555
O3 C22 1_555 1_555
O4 C22 1_555 1_555
I2 C14 1_555 1_555
C8 C9 1_555 1_555
C19 C20 1_555 1_555

#END
