
#######################################################################
#
#                 Cambridge Crystallographic Data Centre
#                                CCDC 
#
#######################################################################
#
# If this CIF has been generated from an entry in the Cambridge 
# Structural Database, then it will include bibliographic, chemical, 
# crystal, experimental, refinement or atomic coordinate data resulting 
# from the CCDC's data processing and validation procedures.
#
#######################################################################

data_TUXYUG
_chemical_formula_moiety         'C17 H18'
_chemical_name_systematic        3-(4'-Ethyl-4-biphenyl)-1-propene
_symmetry_cell_setting           monoclinic
_symmetry_space_group_name_H-M   'P c'
_symmetry_Int_Tables_number      7
_space_group_name_Hall           'P -2yc'
loop_
_symmetry_equiv_pos_site_id
_symmetry_equiv_pos_as_xyz
1 x,y,z
2 x,-y,1/2+z
_cell_length_a                   13.90(5)
_cell_length_b                   5.75(10)
_cell_length_c                   9.54(5)
_cell_angle_alpha                90
_cell_angle_beta                 116.1(3)
_cell_angle_gamma                90
_cell_volume                     684.732
_exptl_crystal_description       block
_cell_formula_units_Z            2
_exptl_crystal_recrystallization_method methanol
loop_
_atom_site_label
_atom_site_type_symbol
_atom_site_fract_x
_atom_site_fract_y
_atom_site_fract_z
C1 C 0.415(2) 0.530(6) -0.374(3)
C2 C 0.4982(16) 0.344(5) -0.355(2)
C3 C 0.591(2) 0.298(3) -0.198(3)
C4 C 0.6789(17) 0.458(4) -0.134(3)
C5 C 0.7642(15) 0.446(3) 0.011(3)
C6 C 0.7777(15) 0.268(4) 0.107(2)
C7 C 0.7023(19) 0.092(4) 0.052(2)
C8 C 0.6101(18) 0.126(5) -0.090(3)
C9 C 0.8705(19) 0.242(4) 0.263(2)
C10 C 0.9506(18) 0.402(4) 0.316(2)
C11 C 1.0339(19) 0.397(3) 0.462(2)
C12 C 1.044(31) 0.209(5) 0.5517(18)
C13 C 0.9718(16) 0.032(4) 0.505(3)
C14 C 0.8831(14) 0.054(4) 0.358(2)
C15 C 1.1391(15) 0.194(4) 0.711(2)
C16 C 1.221(3) 0.045(7) 0.719(4)
C17 C 1.226(3) -0.113(7) 0.801(4)
loop_
_geom_bond_atom_site_label_1
_geom_bond_atom_site_label_2
_geom_bond_site_symmetry_1
_geom_bond_site_symmetry_2
C1 C2 1_555 1_555
C2 C3 1_555 1_555
C3 C4 1_555 1_555
C4 C5 1_555 1_555
C5 C6 1_555 1_555
C6 C7 1_555 1_555
C7 C8 1_555 1_555
C8 C3 1_555 1_555
C9 C6 1_555 1_555
C10 C9 1_555 1_555
C11 C10 1_555 1_555
C12 C11 1_555 1_555
C13 C12 1_555 1_555
C14 C9 1_555 1_555
C15 C12 1_555 1_555
C16 C15 1_555 1_555
C17 C16 1_555 1_555
C13 C14 1_555 1_555

#END
