
#######################################################################
#
#                 Cambridge Crystallographic Data Centre
#                                CCDC 
#
#######################################################################
#
# If this CIF has been generated from an entry in the Cambridge 
# Structural Database, then it will include bibliographic, chemical, 
# crystal, experimental, refinement or atomic coordinate data resulting 
# from the CCDC's data processing and validation procedures.
#
#######################################################################

data_TUYDUM
_chemical_formula_moiety         'C28 H21 Cl1 N2 O1'
_chemical_name_systematic        
rctt-1-(2-Benzoxazolyl)-2-(4-chlorophenyl)-4-phenyl-3-(4-pyridinyl)cyclobutane
_symmetry_cell_setting           triclinic
_symmetry_space_group_name_H-M   'P -1'
_symmetry_Int_Tables_number      2
_space_group_name_Hall           '-P 1'
loop_
_symmetry_equiv_pos_site_id
_symmetry_equiv_pos_as_xyz
1 x,y,z
2 -x,-y,-z
_cell_length_a                   9.648(3)
_cell_length_b                   10.458(4)
_cell_length_c                   12.106(4)
_cell_angle_alpha                89.089(7)
_cell_angle_beta                 75.644(6)
_cell_angle_gamma                68.441
_cell_volume                     1096.71
_exptl_crystal_colour            colorless
_exptl_crystal_description       prism
_chemical_melting_point          '172-173 deg.C'
_cell_formula_units_Z            2
_exptl_crystal_preparation       'irradiated product'
loop_
_atom_site_label
_atom_site_type_symbol
_atom_site_fract_x
_atom_site_fract_y
_atom_site_fract_z
Cl1 Cl 1.3530(1) 0.4997(1) 0.4365(1)
N1 N 0.9694(4) 0.2928(4) 0.0959(3)
N2 N 0.3550(5) 1.1180(4) 0.3868(3)
O1 O 0.8169(3) 0.3714(3) 0.2735(2)
C1 C 0.8175(4) 0.5431(4) 0.1351(3)
C2 C 0.8313(4) 0.6534(4) 0.2117(3)
C3 C 0.6592(4) 0.6940(4) 0.2738(3)
C4 C 0.6380(4) 0.6128(4) 0.1760(3)
C5 C 0.8761(4) 0.3960(4) 0.1614(4)
C6 C 0.9765(4) 0.1832(4) 0.1644(4)
C7 C 1.0587(5) 0.0403(5) 0.1377(5)
C8 C 1.0370(6) -0.0016(5) 0.2278(6)
C9 C 0.9439(6) 0.0122(6) 0.3341(5)
C10 C 0.8661(5) 0.1470(5) 0.3586(4)
C11 C 0.8842(4) 0.2300(4) 0.2724(4)
C12 C 0.9558(4) 0.6109(4) 0.2754(3)
C13 C 1.1004(4) 0.5255(4) 0.2190(3)
C14 C 1.2204(4) 0.4895(4) 0.2685(3)
C15 C 1.1970(4) 0.5408(4) 0.3771(3)
C16 C 1.0516(5) 0.6243(4) 0.4378(3)
C17 C 0.9311(4) 0.6585(4) 0.3854(3)
C18 C 0.5554(4) 0.8448(4) 0.3077(3)
C19 C 0.6084(4) 0.9455(5) 0.3214(3)
C20 C 0.5077(6) 1.0756(5) 0.3613(4)
C21 C 0.3052(5) 1.0196(6) 0.3690(4)
C22 C 0.3990(5) 0.8843(5) 0.3311(3)
C23 C 0.5623(4) 0.6884(4) 0.0874(3)
C24 C 0.4356(5) 0.6688(4) 0.0720(4)
C25 C 0.3625(5) 0.7295(6) -0.0003(5)
C26 C 0.4154(6) 0.8106(6) -0.0069(4)
C27 C 0.5406(6) 0.8373(5) -0.0070(4)
C28 C 0.6135(5) 0.7755(5) 0.0159(4)
loop_
_geom_bond_atom_site_label_1
_geom_bond_atom_site_label_2
_geom_bond_site_symmetry_1
_geom_bond_site_symmetry_2
Cl1 C15 1_555 1_555
N1 C5 1_555 1_555
N2 C20 1_555 1_555
O1 C5 1_555 1_555
C1 C2 1_555 1_555
C2 C3 1_555 1_555
C3 C4 1_555 1_555
C4 C1 1_555 1_555
C5 C1 1_555 1_555
C6 N1 1_555 1_555
C7 C6 1_555 1_555
C8 C7 1_555 1_555
C9 C8 1_555 1_555
C10 C9 1_555 1_555
C11 O1 1_555 1_555
C12 C2 1_555 1_555
C13 C12 1_555 1_555
C14 C13 1_555 1_555
C15 C14 1_555 1_555
C16 C15 1_555 1_555
C17 C12 1_555 1_555
C18 C3 1_555 1_555
C19 C18 1_555 1_555
C20 C19 1_555 1_555
C21 N2 1_555 1_555
C22 C18 1_555 1_555
C23 C4 1_555 1_555
C24 C23 1_555 1_555
C25 C24 1_555 1_555
C26 C25 1_555 1_555
C27 C26 1_555 1_555
C28 C23 1_555 1_555
C6 C11 1_555 1_555
C10 C11 1_555 1_555
C16 C17 1_555 1_555
C21 C22 1_555 1_555
C27 C28 1_555 1_555

#END
