
#######################################################################
#
#                 Cambridge Crystallographic Data Centre
#                                CCDC 
#
#######################################################################
#
# If this CIF has been generated from an entry in the Cambridge 
# Structural Database, then it will include bibliographic, chemical, 
# crystal, experimental, refinement or atomic coordinate data resulting 
# from the CCDC's data processing and validation procedures.
#
#######################################################################

data_TUYHEB
_chemical_formula_moiety         'C15 H16 O5'
_chemical_name_systematic        
'Dimethyl 12-oxatricyclo[7.2.1.0^2,7^]dodeca-2,4,6-triene-11,11-dicarboxylate'
_symmetry_cell_setting           orthorhombic
_symmetry_space_group_name_H-M   'P b c a'
_symmetry_Int_Tables_number      61
_space_group_name_Hall           '-P 2ac 2ab'
loop_
_symmetry_equiv_pos_site_id
_symmetry_equiv_pos_as_xyz
1 x,y,z
2 1/2-x,-y,1/2+z
3 1/2+x,1/2-y,-z
4 -x,1/2+y,1/2-z
5 -x,-y,-z
6 1/2+x,y,1/2-z
7 1/2-x,1/2+y,z
8 x,1/2-y,1/2+z
_cell_length_a                   8.1421(12)
_cell_length_b                   15.121(2)
_cell_length_c                   21.749(3)
_cell_angle_alpha                90
_cell_angle_beta                 90
_cell_angle_gamma                90
_cell_volume                     2677.66
_exptl_crystal_colour            colorless
_exptl_crystal_description       prism
_chemical_melting_point          '115-117 deg.C'
_cell_formula_units_Z            8
loop_
_atom_site_label
_atom_site_type_symbol
_atom_site_fract_x
_atom_site_fract_y
_atom_site_fract_z
O1 O 0.67925(11) -0.01404(6) 0.38638(4)
O2 O 1.18398(12) 0.06695(7) 0.32639(5)
O3 O 1.17007(11) 0.05239(6) 0.42916(4)
O4 O 0.77665(13) 0.13766(7) 0.46342(5)
O5 O 0.95637(13) 0.21523(6) 0.40661(5)
C1 C 0.68720(17) 0.00710(9) 0.32150(6)
H1 H 0.5814 0.0342 0.3077
C2 C 0.82811(17) 0.07517(9) 0.31644(6)
H2 H 0.7844 0.1357 0.3108
H3 H 0.9018 0.0608 0.2816
C3 C 0.91927(15) 0.06670(8) 0.37848(6)
C4 C 0.84764(15) -0.02143(8) 0.40321(6)
H4 H 0.8598 -0.0251 0.4489
C5 C 0.92318(15) -0.10171(8) 0.37240(6)
C6 C 0.85696(17) -0.13027(8) 0.31638(6)
C7 C 0.71850(19) -0.07865(9) 0.28697(7)
H5 H 0.6173 -0.1150 0.2870
H6 H 0.7470 -0.0652 0.2437
C8 C 1.05206(16) -0.14807(9) 0.39929(6)
H7 H 1.0978 -0.1280 0.4370
C9 C 1.11424(18) -0.22353(9) 0.37134(7)
H8 H 1.2035 -0.2544 0.3895
C10 C 1.04593(18) -0.25372(9) 0.31690(7)
H9 H 1.0863 -0.3062 0.2983
C11 C 0.91893(18) -0.20736(9) 0.28966(7)
H10 H 0.8731 -0.2282 0.2522
C12 C 1.10529(16) 0.06310(8) 0.37299(6)
C13 C 1.34597(16) 0.03735(10) 0.43125(8)
H11 H 1.3744 -0.0120 0.4040
H12 H 1.3788 0.0230 0.4734
H13 H 1.4035 0.0908 0.4177
C14 C 0.87349(16) 0.14212(8) 0.42186(6)
C15 C 0.9303(2) 0.29129(9) 0.44602(8)
H14 H 0.8123 0.2998 0.4526
H15 H 0.9766 0.3441 0.4264
H16 H 0.9846 0.2814 0.4857
loop_
_geom_bond_atom_site_label_1
_geom_bond_atom_site_label_2
_geom_bond_site_symmetry_1
_geom_bond_site_symmetry_2
O1 C1 1_555 1_555
O2 C12 1_555 1_555
O3 C12 1_555 1_555
O4 C14 1_555 1_555
O5 C14 1_555 1_555
C1 H1 1_555 1_555
C2 C1 1_555 1_555
H2 C2 1_555 1_555
H3 C2 1_555 1_555
C3 C2 1_555 1_555
C4 O1 1_555 1_555
H4 C4 1_555 1_555
C5 C4 1_555 1_555
C6 C5 1_555 1_555
C7 C1 1_555 1_555
H5 C7 1_555 1_555
H6 C7 1_555 1_555
C8 C5 1_555 1_555
H7 C8 1_555 1_555
C9 C8 1_555 1_555
H8 C9 1_555 1_555
C10 C9 1_555 1_555
H9 C10 1_555 1_555
C11 C6 1_555 1_555
H10 C11 1_555 1_555
C12 C3 1_555 1_555
C13 O3 1_555 1_555
H11 C13 1_555 1_555
H12 C13 1_555 1_555
H13 C13 1_555 1_555
C14 C3 1_555 1_555
C15 O5 1_555 1_555
H14 C15 1_555 1_555
H15 C15 1_555 1_555
H16 C15 1_555 1_555
C3 C4 1_555 1_555
C6 C7 1_555 1_555
C10 C11 1_555 1_555

#END
