
#######################################################################
#
#                 Cambridge Crystallographic Data Centre
#                                CCDC 
#
#######################################################################
#
# If this CIF has been generated from an entry in the Cambridge 
# Structural Database, then it will include bibliographic, chemical, 
# crystal, experimental, refinement or atomic coordinate data resulting 
# from the CCDC's data processing and validation procedures.
#
#######################################################################

data_TUYJEE
_chemical_formula_moiety         'C27 H23 N1 O4'
_chemical_name_systematic        
"(1R,5S)-ethyl 1'-acetyl-5-(1-naphthyl)-2'-oxo-1',2'-dihydrospiro[cyclopent-2-ene-1,3'-indole]-2-carboxylate"
_symmetry_cell_setting           monoclinic
_symmetry_space_group_name_H-M   'P 21'
_symmetry_Int_Tables_number      4
_space_group_name_Hall           'P 2yb'
loop_
_symmetry_equiv_pos_site_id
_symmetry_equiv_pos_as_xyz
1 x,y,z
2 -x,1/2+y,-z
_cell_length_a                   8.16260(10)
_cell_length_b                   12.2302(2)
_cell_length_c                   11.07420(10)
_cell_angle_alpha                90
_cell_angle_beta                 101.4020(10)
_cell_angle_gamma                90
_cell_volume                     1083.72
_exptl_crystal_colour            colorless
_exptl_crystal_description       block
_cell_formula_units_Z            2
loop_
_atom_site_label
_atom_site_type_symbol
_atom_site_fract_x
_atom_site_fract_y
_atom_site_fract_z
O1 O 0.1765(2) 0.55077(13) 0.47125(16)
O2 O 0.5708(2) 0.63352(14) 0.30940(16)
O3 O 0.39590(19) 0.72275(16) 0.68078(15)
O4 O 0.2243(2) 0.74247(18) 0.81590(14)
N1 N 0.3345(2) 0.67178(15) 0.37931(15)
C1 C 0.2097(2) 0.64248(18) 0.44340(18)
C2 C 0.1191(2) 0.74556(17) 0.47137(18)
C3 C 0.2202(3) 0.83498(18) 0.42726(18)
C4 C 0.2041(3) 0.94741(18) 0.4337(2)
H1 H 0.1215 0.9788 0.4727
C5 C 0.3110(3) 1.0137(2) 0.3823(2)
H2 H 0.3015 1.0910 0.3856
C6 C 0.4316(3) 0.9664(2) 0.3261(2)
H3 H 0.5028 1.0124 0.2903
C7 C 0.4510(3) 0.8535(2) 0.32064(19)
H4 H 0.5347 0.8220 0.2829
C8 C 0.3435(2) 0.78886(18) 0.37244(17)
C9 C 0.4459(3) 0.59864(19) 0.33713(18)
C10 C 0.3982(3) 0.48007(19) 0.3257(2)
H5 H 0.4669 0.4425 0.2753
H6 H 0.2800 0.4734 0.2866
H7 H 0.4167 0.4468 0.4078
C11 C 0.1074(3) 0.75356(17) 0.60593(18)
C12 C -0.0457(3) 0.77945(18) 0.62048(19)
H8 H -0.0755 0.7891 0.6985
C13 C -0.1658(3) 0.79174(18) 0.50020(19)
H9 H -0.1883 0.8698 0.4795
H10 H -0.2728 0.7542 0.5019
C14 C -0.0724(2) 0.73642(18) 0.40780(18)
H11 H -0.1017 0.6570 0.4066
C15 C -0.1159(2) 0.77594(19) 0.27512(19)
C16 C -0.1472(3) 0.8839(2) 0.2493(2)
H12 H -0.1403 0.9343 0.3154
C17 C -0.1895(3) 0.9228(2) 0.1268(2)
H13 H -0.2098 0.9985 0.1113
C18 C -0.2010(3) 0.8517(3) 0.0314(2)
H14 H -0.2300 0.8783 -0.0507
C19 C -0.1707(3) 0.7395(3) 0.0516(2)
C20 C -0.1848(3) 0.6631(3) -0.0481(2)
H15 H -0.2158 0.6891 -0.1303
C21 C -0.1552(4) 0.5552(3) -0.0285(2)
H16 H -0.1651 0.5064 -0.0963
C22 C -0.1092(3) 0.5152(3) 0.0934(2)
H17 H -0.0879 0.4394 0.1075
C23 C -0.0952(3) 0.5858(2) 0.1914(2)
H18 H -0.0641 0.5576 0.2727
C24 C -0.1258(2) 0.6993(2) 0.17520(19)
C25 C 0.2588(3) 0.7383(2) 0.7028(2)
C26 C 0.3666(3) 0.7285(3) 0.9171(2)
H19 H 0.4429 0.7920 0.9218
H20 H 0.4296 0.6616 0.9046
C27 C 0.2989(5) 0.7193(3) 1.0337(2)
H21 H 0.2408 0.7871 1.0467
H22 H 0.3913 0.7070 1.1036
H23 H 0.2205 0.6579 1.0266
loop_
_geom_bond_atom_site_label_1
_geom_bond_atom_site_label_2
_geom_bond_site_symmetry_1
_geom_bond_site_symmetry_2
O1 C1 1_555 1_555
O2 C9 1_555 1_555
O3 C25 1_555 1_555
O4 C25 1_555 1_555
N1 C1 1_555 1_555
C1 C2 1_555 1_555
C2 C3 1_555 1_555
C3 C4 1_555 1_555
C4 H1 1_555 1_555
C5 C4 1_555 1_555
H2 C5 1_555 1_555
C6 C5 1_555 1_555
H3 C6 1_555 1_555
C7 C6 1_555 1_555
H4 C7 1_555 1_555
C8 N1 1_555 1_555
C9 N1 1_555 1_555
C10 C9 1_555 1_555
H5 C10 1_555 1_555
H6 C10 1_555 1_555
H7 C10 1_555 1_555
C11 C2 1_555 1_555
C12 C11 1_555 1_555
H8 C12 1_555 1_555
C13 C12 1_555 1_555
H9 C13 1_555 1_555
H10 C13 1_555 1_555
C14 C2 1_555 1_555
H11 C14 1_555 1_555
C15 C14 1_555 1_555
C16 C15 1_555 1_555
H12 C16 1_555 1_555
C17 C16 1_555 1_555
H13 C17 1_555 1_555
C18 C17 1_555 1_555
H14 C18 1_555 1_555
C19 C18 1_555 1_555
C20 C19 1_555 1_555
H15 C20 1_555 1_555
C21 C20 1_555 1_555
H16 C21 1_555 1_555
C22 C21 1_555 1_555
H17 C22 1_555 1_555
C23 C22 1_555 1_555
H18 C23 1_555 1_555
C24 C15 1_555 1_555
C25 C11 1_555 1_555
C26 O4 1_555 1_555
H19 C26 1_555 1_555
H20 C26 1_555 1_555
C27 C26 1_555 1_555
H21 C27 1_555 1_555
H22 C27 1_555 1_555
H23 C27 1_555 1_555
C3 C8 1_555 1_555
C7 C8 1_555 1_555
C13 C14 1_555 1_555
C19 C24 1_555 1_555
C23 C24 1_555 1_555

#END
