
#######################################################################
#
#                 Cambridge Crystallographic Data Centre
#                                CCDC 
#
#######################################################################
#
# If this CIF has been generated from an entry in the Cambridge 
# Structural Database, then it will include bibliographic, chemical, 
# crystal, experimental, refinement or atomic coordinate data resulting 
# from the CCDC's data processing and validation procedures.
#
#######################################################################

data_TUYLOO
_chemical_formula_moiety         'C18 H23 N1 O7'
_chemical_name_systematic        
'cis-4-(2,3-Benzo-10-aza-1,4,7,13-tetraoxacyclopentadec-2-en-10-yl)-4-oxo-but-2-enoic acid'
_symmetry_cell_setting           triclinic
_symmetry_space_group_name_H-M   'P -1'
_symmetry_Int_Tables_number      2
_space_group_name_Hall           '-P 1'
loop_
_symmetry_equiv_pos_site_id
_symmetry_equiv_pos_as_xyz
1 x,y,z
2 -x,-y,-z
_cell_length_a                   8.0821(13)
_cell_length_b                   10.8777(13)
_cell_length_c                   10.9263(13)
_cell_angle_alpha                113.045(50)
_cell_angle_beta                 95.428(11)
_cell_angle_gamma                91.162(12)
_cell_volume                     878.238
_exptl_crystal_colour            'pale yellow'
_cell_formula_units_Z            2
_exptl_crystal_recrystallization_method 'dichloromethane/petroleum ether'
loop_
_atom_site_label
_atom_site_type_symbol
_atom_site_fract_x
_atom_site_fract_y
_atom_site_fract_z
O1 O -0.0123(2) 0.8071(1) 0.5914(1)
O2 O 0.3068(2) 0.9053(1) 0.5453(1)
O3 O -0.0407(2) 0.6640(1) 0.1617(1)
O4 O -0.2112(2) 0.6802(1) 0.3773(1)
O5 O 0.2284(2) 0.9304(1) 0.0372(1)
O6 O 0.4899(2) 1.3086(1) 0.1160(1)
O7 O 0.3450(2) 1.1207(1) -0.0055(1)
H1 H 0.2855(3) 1.0415(2) 0.0109(2)
C1 C -0.2020(2) 0.6251(2) 0.4712(2)
C2 C -0.2901(3) 0.5105(2) 0.4574(2)
H2 H -0.3605(2) 0.4673(2) 0.3833(2)
C3 C -0.2704(3) 0.4618(2) 0.5570(2)
H3 H -0.3285(2) 0.3833(2) 0.5433(2)
C4 C -0.1641(3) 0.5279(2) 0.6701(2)
H4 H -0.1522(2) 0.4950(2) 0.7399(2)
C5 C -0.0751(3) 0.6448(2) 0.6863(2)
H5 H -0.0029(2) 0.6919(2) 0.7648(2)
C6 C -0.0934(2) 0.6936(2) 0.5872(2)
C7 C 0.1243(3) 0.8662(2) 0.6927(2)
H6 H 0.1993(2) 0.7961(2) 0.6996(2)
H7 H 0.0801(2) 0.9124(2) 0.7785(2)
C8 C 0.2172(3) 0.9656(2) 0.6579(2)
H8 H 0.3031(2) 1.0127(2) 0.7338(2)
H9 H 0.1450(2) 1.0291(2) 0.6395(2)
C9 C 0.2188(3) 0.8895(2) 0.4208(2)
H10 H 0.1253(2) 0.8209(2) 0.3966(2)
H11 H 0.1782(2) 0.9762(2) 0.4248(2)
C10 C 0.3437(3) 0.8457(2) 0.3202(2)
H12 H 0.4523(2) 0.9104(2) 0.3567(2)
H13 H 0.3717(2) 0.7577(2) 0.3080(2)
C11 C 0.2066(3) 0.7118(2) 0.0842(2)
H14 H 0.2482(2) 0.6424(2) 0.1163(2)
H15 H 0.2476(3) 0.7075(2) 0.0045(2)
C12 C 0.0211(3) 0.6985(2) 0.0619(2)
H16 H -0.0280(3) 0.7795(2) 0.0616(2)
H17 H -0.0205(3) 0.6280(2) -0.0225(2)
C13 C -0.2169(3) 0.6546(2) 0.1520(2)
H18 H -0.2658(2) 0.5977(2) 0.0586(2)
H19 H -0.2629(2) 0.7451(2) 0.1770(2)
C14 C -0.2679(3) 0.5927(2) 0.2436(2)
H20 H -0.2221(2) 0.5068(2) 0.2228(2)
H21 H -0.3894(2) 0.5751(2) 0.2316(2)
C15 C 0.2857(2) 0.9444(2) 0.1527(2)
C16 C 0.3607(2) 1.0739(2) 0.2518(2)
H22 H 0.3746(2) 1.0780(2) 0.3374(2)
C17 C 0.4114(2) 1.1804(2) 0.2309(2)
H23 H 0.4584(2) 1.2556(2) 0.3058(2)
C18 C 0.4186(3) 1.2075(2) 0.1091(2)
N1 N 0.2769(2) 0.8400(1) 0.18814(1)
loop_
_geom_bond_atom_site_label_1
_geom_bond_atom_site_label_2
_geom_bond_site_symmetry_1
_geom_bond_site_symmetry_2
O1 C6 1_555 1_555
O2 C8 1_555 1_555
O3 C12 1_555 1_555
O4 C1 1_555 1_555
O5 C15 1_555 1_555
O6 C18 1_555 1_555
O7 H1 1_555 1_555
C1 C2 1_555 1_555
C2 H2 1_555 1_555
C3 C2 1_555 1_555
H3 C3 1_555 1_555
C4 C3 1_555 1_555
H4 C4 1_555 1_555
C5 C4 1_555 1_555
H5 C5 1_555 1_555
C6 C1 1_555 1_555
C7 O1 1_555 1_555
H6 C7 1_555 1_555
H7 C7 1_555 1_555
C8 C7 1_555 1_555
H8 C8 1_555 1_555
H9 C8 1_555 1_555
C9 O2 1_555 1_555
H10 C9 1_555 1_555
H11 C9 1_555 1_555
C10 C9 1_555 1_555
H12 C10 1_555 1_555
H13 C10 1_555 1_555
C11 H14 1_555 1_555
H15 C11 1_555 1_555
C12 C11 1_555 1_555
H16 C12 1_555 1_555
H17 C12 1_555 1_555
C13 O3 1_555 1_555
H18 C13 1_555 1_555
H19 C13 1_555 1_555
C14 O4 1_555 1_555
H20 C14 1_555 1_555
H21 C14 1_555 1_555
C15 C16 1_555 1_555
C16 H22 1_555 1_555
C17 C16 1_555 1_555
H23 C17 1_555 1_555
C18 O7 1_555 1_555
N1 C10 1_555 1_555
C5 C6 1_555 1_555
C11 N1 1_555 1_555
C13 C14 1_555 1_555
C15 N1 1_555 1_555
C17 C18 1_555 1_555

#END
