
#######################################################################
#
#                 Cambridge Crystallographic Data Centre
#                                CCDC 
#
#######################################################################
#
# If this CIF has been generated from an entry in the Cambridge 
# Structural Database, then it will include bibliographic, chemical, 
# crystal, experimental, refinement or atomic coordinate data resulting 
# from the CCDC's data processing and validation procedures.
#
#######################################################################

data_TUYMIL
_chemical_formula_moiety         'C17 H15 I1 O2'
_chemical_name_systematic        
2-iodo-3-methoxy-1-(4-methylphenyl)-3-phenylprop-2-en-1-one
_symmetry_cell_setting           triclinic
_symmetry_space_group_name_H-M   'P -1'
_symmetry_Int_Tables_number      2
_space_group_name_Hall           '-P 1'
loop_
_symmetry_equiv_pos_site_id
_symmetry_equiv_pos_as_xyz
1 x,y,z
2 -x,-y,-z
_cell_length_a                   8.0417(8)
_cell_length_b                   10.3944(17)
_cell_length_c                   10.9817(11)
_cell_angle_alpha                110.812(2)
_cell_angle_beta                 108.4480(10)
_cell_angle_gamma                97.565(2)
_cell_volume                     782.511
_cell_formula_units_Z            2
loop_
_atom_site_label
_atom_site_type_symbol
_atom_site_fract_x
_atom_site_fract_y
_atom_site_fract_z
C1 C -0.1769(7) -0.0668(5) 0.1061(5)
H1 H -0.2916 -0.1162 0.0990
H2 H -0.1058 -0.1330 0.0869
H3 H -0.1981 -0.0260 0.0385
C2 C -0.0747(5) 0.0513(4) 0.2541(4)
C3 C -0.1303(5) 0.0590(4) 0.3626(5)
H4 H -0.2351 -0.0074 0.3439
C4 C -0.0325(5) 0.1640(4) 0.4989(4)
H5 H -0.0723 0.1675 0.5705
C5 C 0.1246(4) 0.2640(4) 0.5293(4)
C6 C 0.1779(5) 0.2584(4) 0.4200(4)
H6 H 0.2811 0.3259 0.4379
C7 C 0.0787(5) 0.1528(4) 0.2838(4)
H7 H 0.1164 0.1505 0.2114
C8 C 0.2323(5) 0.3695(4) 0.6774(4)
C9 C 0.3975(5) 0.4799(4) 0.7074(4)
C10 C 0.5659(5) 0.4691(4) 0.7549(4)
C11 C 0.6001(4) 0.3400(4) 0.7777(4)
C12 C 0.6138(5) 0.2268(4) 0.6720(4)
H8 H 0.6019 0.2314 0.5867
C13 C 0.6450(6) 0.1059(4) 0.6908(5)
H9 H 0.6547 0.0303 0.6185
C14 C 0.6617(6) 0.0975(5) 0.8152(5)
H10 H 0.6826 0.0164 0.8279
C15 C 0.6474(6) 0.2100(5) 0.9217(5)
H11 H 0.6579 0.2043 1.0064
C16 C 0.6175(5) 0.3309(4) 0.9036(4)
H12 H 0.6090 0.4067 0.9764
C17 C 0.8888(6) 0.5699(6) 0.8442(8)
H13 H 0.9060 0.5629 0.9320
H14 H 0.9720 0.6560 0.8621
H15 H 0.9113 0.4886 0.7821
I1 I 0.34178(4) 0.65665(3) 0.67076(3)
O1 O 0.1887(4) 0.3688(4) 0.7736(3)
O2 O 0.7079(3) 0.5733(3) 0.7802(4)
loop_
_geom_bond_atom_site_label_1
_geom_bond_atom_site_label_2
_geom_bond_site_symmetry_1
_geom_bond_site_symmetry_2
C1 H1 1_555 1_555
H2 C1 1_555 1_555
H3 C1 1_555 1_555
C2 C1 1_555 1_555
C3 C2 1_555 1_555
H4 C3 1_555 1_555
C4 C3 1_555 1_555
H5 C4 1_555 1_555
C5 C4 1_555 1_555
C6 C5 1_555 1_555
H6 C6 1_555 1_555
C7 C2 1_555 1_555
H7 C7 1_555 1_555
C8 C5 1_555 1_555
C9 C8 1_555 1_555
C10 C9 1_555 1_555
C11 C10 1_555 1_555
C12 C11 1_555 1_555
H8 C12 1_555 1_555
C13 C12 1_555 1_555
H9 C13 1_555 1_555
C14 C13 1_555 1_555
H10 C14 1_555 1_555
C15 C14 1_555 1_555
H11 C15 1_555 1_555
C16 C11 1_555 1_555
H12 C16 1_555 1_555
C17 H13 1_555 1_555
H14 C17 1_555 1_555
H15 C17 1_555 1_555
I1 C9 1_555 1_555
O1 C8 1_555 1_555
O2 C10 1_555 1_555
C6 C7 1_555 1_555
C15 C16 1_555 1_555
C17 O2 1_555 1_555

#END
