
#######################################################################
#
#                 Cambridge Crystallographic Data Centre
#                                CCDC 
#
#######################################################################
#
# If this CIF has been generated from an entry in the Cambridge 
# Structural Database, then it will include bibliographic, chemical, 
# crystal, experimental, refinement or atomic coordinate data resulting 
# from the CCDC's data processing and validation procedures.
#
#######################################################################

data_TUYNAC
_chemical_formula_moiety         'C24 H12 O16 S8 4-,C2 H6 O1,9(H2 O1),4(Na1 1+)'
_chemical_name_systematic        
'Tetra-sodium 2,8,14,20-tetrathiacalix(4)arene-25,26,27,28-tetrasulfonate ethanol solvate nonahydrate'
_symmetry_cell_setting           triclinic
_symmetry_space_group_name_H-M   'P -1'
_symmetry_Int_Tables_number      2
_space_group_name_Hall           '-P 1'
loop_
_symmetry_equiv_pos_site_id
_symmetry_equiv_pos_as_xyz
1 x,y,z
2 -x,-y,-z
_cell_length_a                   10.820(5)
_cell_length_b                   14.109(6)
_cell_length_c                   14.514(6)
_cell_angle_alpha                99.702(7)
_cell_angle_beta                 93.535(7)
_cell_angle_gamma                93.445(8)
_cell_volume                     2174.25
_exptl_crystal_colour            colorless
_cell_formula_units_Z            2
loop_
_atom_site_label
_atom_site_type_symbol
_atom_site_fract_x
_atom_site_fract_y
_atom_site_fract_z
Na2 Na 0.5396(2) 0.3295(2) 0.2428(2)
Na3 Na 0.3415(3) 0.4804(2) 0.8343(2)
Na4 Na 0.2562(3) 0.4687(2) 1.0600(2)
S1 S 0.3930(1) 0.0640(1) 0.6885(1)
S2 S 0.4996(1) 0.3564(1) 0.9857(1)
O2 O 0.5942(7) 0.4082(4) 0.9519(7)
O3 O 0.3838(5) 0.3821(4) 0.9507(4)
O4 O 0.5094(8) 0.3639(3) 1.0823(3)
S3 S 0.6882(1) 0.0057(1) 0.9952(1)
S4 S 1.0484(1) 0.2919(1) 1.1252(1)
O6 O 0.9505(5) 0.3551(3) 1.1267(4)
O7 O 1.0655(5) 0.2607(3) 1.2153(3)
O8 O 1.1647(4) 0.3284(3) 1.0984(3)
S5 S 1.1133(1) 0.0317(1) 0.8071(1)
S6 S 1.1184(2) 0.3583(1) 0.6543(1)
O10 O 1.0284(5) 0.4183(3) 0.7011(4)
O11 O 1.1249(5) 0.3709(3) 0.5578(3)
O12 O 1.2373(5) 0.3685(3) 0.7059(4)
S7 S 0.8110(1) 0.0433(1) 0.4881(1)
S8 S 0.5181(1) 0.3464(1) 0.4851(1)
O14 O 0.5813(6) 0.4212(4) 0.5639(4)
O16 O 0.5825(12) 0.3496(9) 0.4037(7)
O18 O 0.3914(6) 0.3548(5) 0.4794(7)
O1 O 0.5528(3) -0.0441(2) 0.8010(2)
O5 O 0.8503(3) -0.0393(3) 0.8386(2)
O9 O 0.9264(3) -0.0437(2) 0.6505(2)
O13 O 0.6342(3) -0.0131(3) 0.6216(3)
Na1 Na 0.2586(2) 0.4786(2) 0.4921(2)
O15? O 0.4412(19) 0.3981(12) 0.5448(11)
O17? O 0.6190(20) 0.3784(19) 0.4450(20)
O19? O 0.4235(17) 0.3055(11) 0.3919(11)
loop_
_geom_bond_atom_site_label_1
_geom_bond_atom_site_label_2
_geom_bond_site_symmetry_1
_geom_bond_site_symmetry_2
S2 O2 1_555 1_555
S4 O6 1_555 1_555
S6 O10 1_555 1_555
S8 O14 1_555 1_555
O3 S2 1_555 1_555
O4 S2 1_555 1_555
O7 S4 1_555 1_555
O8 S4 1_555 1_555
O11 S6 1_555 1_555
O12 S6 1_555 1_555
O16 S8 1_555 1_555
O18 S8 1_555 1_555

#END
