
#######################################################################
#
#                 Cambridge Crystallographic Data Centre
#                                CCDC 
#
#######################################################################
#
# If this CIF has been generated from an entry in the Cambridge 
# Structural Database, then it will include bibliographic, chemical, 
# crystal, experimental, refinement or atomic coordinate data resulting 
# from the CCDC's data processing and validation procedures.
#
#######################################################################

data_TUYQOV
_chemical_formula_moiety         '2(C38 H28 O4),C1 H2 Cl2'
_chemical_name_systematic        
"benzyl 2'-(biphenyl-4-yl)-2-oxo-5'-phenylspiro[1-benzofuran-3,1'-cyclopent[3]ene]-3'-carboxylate dichloromethane solvate"
_symmetry_cell_setting           monoclinic
_symmetry_space_group_name_H-M   'C 2'
_symmetry_Int_Tables_number      5
_space_group_name_Hall           'C 2y'
loop_
_symmetry_equiv_pos_site_id
_symmetry_equiv_pos_as_xyz
1 x,y,z
2 -x,y,-z
3 1/2+x,1/2+y,z
4 1/2-x,1/2+y,-z
_cell_length_a                   16.8074(19)
_cell_length_b                   10.9989(12)
_cell_length_c                   16.649(2)
_cell_angle_alpha                90
_cell_angle_beta                 92.018(3)
_cell_angle_gamma                90
_cell_volume                     3075.87
_exptl_crystal_colour            colorless
_exptl_crystal_description       prism
_cell_formula_units_Z            2
loop_
_atom_site_label
_atom_site_type_symbol
_atom_site_fract_x
_atom_site_fract_y
_atom_site_fract_z
Cl1 Cl 0.91599(10) 0.99636(17) 0.98027(10)
C1 C 1.0000 0.9097(10) 1.0000
H1 H 1.0090 0.8577 0.9541
H1A H 0.9910 0.8577 1.0459
Cl1A Cl 1.08401(10) 0.99636(17) 1.01973(10)
O1 O 1.0360(3) -0.0405(4) 0.7322(4)
O2 O 1.0664(2) 0.0816(5) 0.6316(3)
O3 O 0.8881(2) 0.4044(4) 0.9396(2)
O4 O 0.81875(17) 0.2482(3) 0.89018(18)
C2 C 1.0456(2) 0.2688(4) 0.6878(2)
C3 C 1.0462(3) 0.3922(5) 0.6847(3)
H3 H 1.0314 0.4377 0.7288
C4 C 1.0693(4) 0.4505(7) 0.6143(4)
H4 H 1.0696 0.5350 0.6117
C5 C 1.0913(4) 0.3846(13) 0.5501(4)
H5 H 1.1070 0.4248 0.5041
C6 C 1.0908(4) 0.2610(11) 0.5512(4)
H6 H 1.1049 0.2157 0.5068
C7 C 1.0685(3) 0.2063(7) 0.6209(3)
C8 C 1.0431(3) 0.0604(5) 0.7081(4)
C9 C 1.0271(2) 0.1787(4) 0.7515(2)
C10 C 0.9404(2) 0.1799(4) 0.7823(2)
H7 H 0.9306 0.0992 0.8048
C11 C 0.9494(2) 0.2665(4) 0.8526(2)
C12 C 1.0248(2) 0.2725(4) 0.8792(2)
H8 H 1.0426 0.3207 0.9220
C13 C 1.0772(2) 0.1929(4) 0.8320(2)
H9 H 1.0769 0.1131 0.8582
C14 C 1.1638(2) 0.2283(4) 0.8260(2)
C15 C 1.1882(3) 0.3474(5) 0.8317(3)
H10 H 1.1507 0.4086 0.8377
C16 C 1.2676(3) 0.3768(6) 0.8287(3)
H11 H 1.2829 0.4580 0.8315
C17 C 1.3235(3) 0.2901(7) 0.8218(3)
H12 H 1.3771 0.3107 0.8208
C18 C 1.3001(4) 0.1722(8) 0.8163(4)
H13 H 1.3381 0.1117 0.8107
C19 C 1.2207(3) 0.1404(5) 0.8189(3)
H14 H 1.2059 0.0591 0.8159
C20 C 0.8835(3) 0.3159(5) 0.8981(2)
C21 C 0.7511(3) 0.2842(8) 0.9362(3)
H15 H 0.7439 0.3717 0.9347
H16 H 0.7578 0.2583 0.9917
C22 C 0.67964(18) 0.2185(4) 0.8941(2)
C23 C 0.6681(3) 0.2419(5) 0.8125(2)
H17 H 0.7072 0.2821 0.7845
C24 C 0.5981(3) 0.2053(5) 0.7726(3)
H18 H 0.5904 0.2209 0.7180
C25 C 0.5397(2) 0.1452(5) 0.8143(4)
H19 H 0.4928 0.1207 0.7876
C26 C 0.5512(2) 0.1218(4) 0.8959(4)
H20 H 0.5121 0.0817 0.9239
C27 C 0.6212(3) 0.1585(4) 0.9358(2)
H21 H 0.6289 0.1428 0.9904
C28 C 0.8755(2) 0.2023(3) 0.7193(2)
C29 C 0.8499(2) 0.3168(4) 0.6970(2)
H22 H 0.8718 0.3844 0.7229
C30 C 0.7924(2) 0.3328(4) 0.6369(2)
H23 H 0.7759 0.4112 0.6234
C31 C 0.7583(2) 0.2343(4) 0.5959(2)
C32 C 0.7839(2) 0.1197(4) 0.6195(2)
H24 H 0.7618 0.0516 0.5941
C33 C 0.8411(2) 0.1043(4) 0.6794(2)
H25 H 0.8571 0.0260 0.6935
C34 C 0.6998(2) 0.2514(4) 0.5288(2)
C35 C 0.6968(4) 0.1725(5) 0.4649(3)
H26 H 0.7317 0.1069 0.4645
C36 C 0.6432(4) 0.1887(6) 0.4015(4)
H27 H 0.6416 0.1327 0.3596
C37 C 0.5932(4) 0.2837(6) 0.3990(4)
H28 H 0.5576 0.2942 0.3555
C38 C 0.5950(3) 0.3642(6) 0.4607(4)
H29 H 0.5606 0.4306 0.4593
C39 C 0.6477(3) 0.3484(5) 0.5257(3)
H30 H 0.6479 0.4038 0.5679
H2? H 1.0090 0.8577 0.9541
H31? H 0.7501 0.3713 0.9361
H32? H 0.7594 0.2564 0.9904
C40? C 0.6782(2) 0.2390(4) 0.9063(2)
C41? C 0.6430(3) 0.2666(4) 0.8317(3)
H33? H 0.6665 0.3235 0.7987
C42? C 0.5728(2) 0.2093(4) 0.8066(3)
H34? H 0.5492 0.2278 0.7567
C43? C 0.5377(2) 0.1243(5) 0.8561(4)
H35? H 0.4907 0.0859 0.8392
C44? C 0.5729(3) 0.0967(4) 0.9306(4)
H36? H 0.5495 0.0398 0.9637
C45? C 0.6432(3) 0.1540(4) 0.9558(2)
H37? H 0.6667 0.1355 1.0057
loop_
_geom_bond_atom_site_label_1
_geom_bond_atom_site_label_2
_geom_bond_site_symmetry_1
_geom_bond_site_symmetry_2
Cl1 C1 1_555 1_555
C1 H1 1_555 1_555
O1 C8 1_555 1_555
O2 C7 1_555 1_555
O3 C20 1_555 1_555
O4 C20 1_555 1_555
C2 C3 1_555 1_555
C3 H3 1_555 1_555
C4 C3 1_555 1_555
H4 C4 1_555 1_555
C5 C4 1_555 1_555
H5 C5 1_555 1_555
C6 C5 1_555 1_555
H6 C6 1_555 1_555
C7 C2 1_555 1_555
C8 O2 1_555 1_555
C9 C2 1_555 1_555
C10 C9 1_555 1_555
H7 C10 1_555 1_555
C11 C10 1_555 1_555
C12 C11 1_555 1_555
H8 C12 1_555 1_555
C13 C9 1_555 1_555
H9 C13 1_555 1_555
C14 C13 1_555 1_555
C15 C14 1_555 1_555
H10 C15 1_555 1_555
C16 C15 1_555 1_555
H11 C16 1_555 1_555
C17 C16 1_555 1_555
H12 C17 1_555 1_555
C18 C17 1_555 1_555
H13 C18 1_555 1_555
C19 C14 1_555 1_555
H14 C19 1_555 1_555
C20 C11 1_555 1_555
C21 O4 1_555 1_555
H15 C21 1_555 1_555
H16 C21 1_555 1_555
C22 C21 1_555 1_555
C23 C22 1_555 1_555
H17 C23 1_555 1_555
C24 C23 1_555 1_555
H18 C24 1_555 1_555
C25 C24 1_555 1_555
H19 C25 1_555 1_555
C26 C25 1_555 1_555
H20 C26 1_555 1_555
C27 C22 1_555 1_555
H21 C27 1_555 1_555
C28 C10 1_555 1_555
C29 C28 1_555 1_555
H22 C29 1_555 1_555
C30 C29 1_555 1_555
H23 C30 1_555 1_555
C31 C30 1_555 1_555
C32 C31 1_555 1_555
H24 C32 1_555 1_555
C33 C28 1_555 1_555
H25 C33 1_555 1_555
C34 C31 1_555 1_555
C35 C34 1_555 1_555
H26 C35 1_555 1_555
C36 C35 1_555 1_555
H27 C36 1_555 1_555
C37 C36 1_555 1_555
H28 C37 1_555 1_555
C38 C37 1_555 1_555
H29 C38 1_555 1_555
C39 C34 1_555 1_555
H30 C39 1_555 1_555
H1A C1 1_555 1_555
Cl1A C1 1_555 1_555
C6 C7 1_555 1_555
C8 C9 1_555 1_555
C12 C13 1_555 1_555
C18 C19 1_555 1_555
C26 C27 1_555 1_555
C32 C33 1_555 1_555
C38 C39 1_555 1_555

#END
