
#######################################################################
#
#                 Cambridge Crystallographic Data Centre
#                                CCDC 
#
#######################################################################
#
# If this CIF has been generated from an entry in the Cambridge 
# Structural Database, then it will include bibliographic, chemical, 
# crystal, experimental, refinement or atomic coordinate data resulting 
# from the CCDC's data processing and validation procedures.
#
#######################################################################

data_TUYVIU
_chemical_formula_moiety         'C17 H17 F3 O3 S1'
_chemical_name_systematic        
1-((4-Methylphenyl)sulfonyl)-2-(4-(trifluoromethyl)phenyl)propan-2-ol
_symmetry_cell_setting           monoclinic
_symmetry_space_group_name_H-M   'C 2/c'
_symmetry_Int_Tables_number      15
_space_group_name_Hall           '-C 2yn'
loop_
_symmetry_equiv_pos_site_id
_symmetry_equiv_pos_as_xyz
1 x,y,z
2 -x,y,1/2-z
3 1/2+x,1/2+y,z
4 1/2-x,1/2+y,1/2-z
5 -x,-y,-z
6 x,-y,1/2+z
7 1/2-x,1/2-y,-z
8 1/2+x,1/2-y,1/2+z
_cell_length_a                   40.450(8)
_cell_length_b                   5.7775(12)
_cell_length_c                   14.604(3)
_cell_angle_alpha                90
_cell_angle_beta                 110.631(2)
_cell_angle_gamma                90
_cell_volume                     3194.08
_exptl_crystal_description       block
_cell_formula_units_Z            8
loop_
_atom_site_label
_atom_site_type_symbol
_atom_site_fract_x
_atom_site_fract_y
_atom_site_fract_z
C1 C 0.20320(7) 0.7531(6) 0.8142(2)
C2 C 0.16392(5) 0.7584(4) 0.76997(14)
C3 C 0.14535(5) 0.5756(4) 0.71476(15)
H1 H 0.1572 0.4439 0.7064
C4 C 0.10903(5) 0.5894(3) 0.67199(14)
H2 H 0.0965 0.4647 0.6360
C5 C 0.09098(5) 0.7869(3) 0.68195(12)
C6 C 0.11000(5) 0.9669(3) 0.73918(14)
H3 H 0.0983 1.0988 0.7481
C7 C 0.14631(6) 0.9517(4) 0.78316(15)
H4 H 0.1589 1.0729 0.8218
C8 C 0.05092(5) 0.8042(3) 0.63065(13)
C9 C 0.03268(5) 0.6193(4) 0.67076(16)
H5 H 0.0391 0.6389 0.7402
H6 H 0.0399 0.4686 0.6573
H7 H 0.0075 0.6341 0.6400
C10 C 0.03960(5) 0.7670(3) 0.51921(13)
H8 H 0.0140 0.7775 0.4922
H9 H 0.0457 0.6092 0.5089
C11 C 0.10095(5) 0.8731(3) 0.47335(13)
C12 C 0.12742(5) 1.0235(4) 0.52519(14)
H10 H 0.1218 1.1646 0.5467
C13 C 0.16219(6) 0.9634(4) 0.54494(16)
H11 H 0.1799 1.0663 0.5791
C14 C 0.17123(6) 0.7535(4) 0.51509(16)
C15 C 0.14426(6) 0.6053(4) 0.46218(16)
H12 H 0.1499 0.4642 0.4408
C16 C 0.10912(5) 0.6626(4) 0.44058(14)
H13 H 0.0913 0.5621 0.4048
C17 C 0.20941(7) 0.6887(6) 0.5391(2)
H14 H 0.2238 0.7764 0.5946
H15 H 0.2163 0.7218 0.4839
H16 H 0.2124 0.5265 0.5540
F1 F 0.21537(4) 0.7971(4) 0.90865(12)
F2 F 0.21841(5) 0.9089(5) 0.77554(17)
F3 F 0.21701(5) 0.5538(5) 0.8044(2)
O1 O 0.05564(4) 1.1884(2) 0.47530(11)
O2 O 0.03742(4) 0.8876(3) 0.34771(10)
O3 O 0.03866(4) 1.0275(2) 0.64379(10)
H17 H 0.0334 1.0280 0.6931
S1 S 0.056473(12) 0.95097(8) 0.44766(3)
loop_
_geom_bond_atom_site_label_1
_geom_bond_atom_site_label_2
_geom_bond_site_symmetry_1
_geom_bond_site_symmetry_2
C1 C2 1_555 1_555
C2 C3 1_555 1_555
C3 H1 1_555 1_555
C4 C3 1_555 1_555
H2 C4 1_555 1_555
C5 C4 1_555 1_555
C6 C5 1_555 1_555
H3 C6 1_555 1_555
C7 C2 1_555 1_555
H4 C7 1_555 1_555
C8 C5 1_555 1_555
C9 C8 1_555 1_555
H5 C9 1_555 1_555
H6 C9 1_555 1_555
H7 C9 1_555 1_555
C10 C8 1_555 1_555
H8 C10 1_555 1_555
H9 C10 1_555 1_555
C11 C12 1_555 1_555
C12 H10 1_555 1_555
C13 C12 1_555 1_555
H11 C13 1_555 1_555
C14 C13 1_555 1_555
C15 C14 1_555 1_555
H12 C15 1_555 1_555
C16 C11 1_555 1_555
H13 C16 1_555 1_555
C17 C14 1_555 1_555
H14 C17 1_555 1_555
H15 C17 1_555 1_555
H16 C17 1_555 1_555
F1 C1 1_555 1_555
F2 C1 1_555 1_555
F3 C1 1_555 1_555
O1 S1 1_555 1_555
O2 S1 1_555 1_555
O3 C8 1_555 1_555
H17 O3 1_555 1_555
S1 C10 1_555 1_555
C6 C7 1_555 1_555
C11 S1 1_555 1_555
C15 C16 1_555 1_555

#END
