
#######################################################################
#
#                 Cambridge Crystallographic Data Centre
#                                CCDC 
#
#######################################################################
#
# If this CIF has been generated from an entry in the Cambridge 
# Structural Database, then it will include bibliographic, chemical, 
# crystal, experimental, refinement or atomic coordinate data resulting 
# from the CCDC's data processing and validation procedures.
#
#######################################################################

data_TUYVUG
_chemical_formula_moiety         'C20 H16 F3 N1 O2'
_chemical_name_systematic        
'methyl 4-(4-methylphenyl)-1-phenyl-2-(trifluoromethyl)-1H-pyrrole-3-carboxylate'
_symmetry_cell_setting           monoclinic
_symmetry_space_group_name_H-M   'P 21/c'
_symmetry_Int_Tables_number      14
_space_group_name_Hall           '-P 2ybc'
loop_
_symmetry_equiv_pos_site_id
_symmetry_equiv_pos_as_xyz
1 x,y,z
2 -x,1/2+y,1/2-z
3 -x,-y,-z
4 x,1/2-y,1/2+z
_cell_length_a                   12.0055(14)
_cell_length_b                   15.3801(17)
_cell_length_c                   9.6624(11)
_cell_angle_alpha                90
_cell_angle_beta                 97.047(2)
_cell_angle_gamma                90
_cell_volume                     1770.64
_cell_formula_units_Z            4
loop_
_atom_site_label
_atom_site_type_symbol
_atom_site_fract_x
_atom_site_fract_y
_atom_site_fract_z
C1 C 0.25308(15) 0.05536(13) 0.82242(18)
C2 C 0.32473(18) 0.10954(15) 0.9042(2)
H1 H 0.3391 0.1655 0.8747
C3 C 0.3748(2) 0.0790(2) 1.0311(3)
H2 H 0.4237 0.1147 1.0877
C4 C 0.3533(2) -0.0029(2) 1.0740(3)
H3 H 0.3878 -0.0229 1.1594
C5 C 0.2814(2) -0.05579(18) 0.9924(3)
H4 H 0.2665 -0.1115 1.0229
C6 C 0.23074(19) -0.02693(14) 0.8650(2)
H5 H 0.1820 -0.0629 0.8088
C7 C 0.08225(15) 0.09571(12) 0.66945(19)
H6 H 0.0336 0.0857 0.7356
C8 C 0.05011(14) 0.12263(11) 0.53558(18)
C9 C 0.15024(15) 0.12888(11) 0.47185(18)
C10 C 0.23857(15) 0.10661(11) 0.57089(19)
C11 C 0.35898(17) 0.10131(15) 0.5541(2)
C12 C 0.15855(17) 0.15060(13) 0.3244(2)
C13 C 0.0758(2) 0.12439(18) 0.0940(2)
H7 H 0.0304 0.1757 0.0786
H8 H 0.0405 0.0772 0.0402
H9 H 0.1485 0.1351 0.0659
C14 C -0.06493(15) 0.14698(11) 0.47698(18)
C15 C -0.15759(16) 0.10837(12) 0.5243(2)
H10 H -0.1470 0.0645 0.5909
C16 C -0.26541(17) 0.13401(14) 0.4742(2)
H11 H -0.3259 0.1077 0.5090
C17 C -0.28526(17) 0.19769(14) 0.3737(2)
C18 C -0.19339(18) 0.23573(13) 0.3261(2)
H12 H -0.2045 0.2786 0.2579
C19 C -0.08509(16) 0.21197(12) 0.37690(19)
H13 H -0.0249 0.2398 0.3438
C20 C -0.4031(2) 0.2244(2) 0.3163(3)
H14 H -0.4472 0.1735 0.2912
H15 H -0.4006 0.2602 0.2353
H16 H -0.4363 0.2565 0.3859
F1 F 0.41506(10) 0.04323(11) 0.63746(15)
F2 F 0.41187(12) 0.17645(11) 0.57995(19)
F3 F 0.37522(11) 0.07861(11) 0.42620(14)
N1 N 0.19562(12) 0.08579(9) 0.69171(15)
O1 O 0.08770(11) 0.10198(9) 0.24045(13)
O2 O 0.21837(16) 0.20372(12) 0.28359(17)
loop_
_geom_bond_atom_site_label_1
_geom_bond_atom_site_label_2
_geom_bond_site_symmetry_1
_geom_bond_site_symmetry_2
C1 C2 1_555 1_555
C2 H1 1_555 1_555
C3 C2 1_555 1_555
H2 C3 1_555 1_555
C4 C3 1_555 1_555
H3 C4 1_555 1_555
C5 C4 1_555 1_555
H4 C5 1_555 1_555
C6 C1 1_555 1_555
H5 C6 1_555 1_555
C7 H6 1_555 1_555
C8 C7 1_555 1_555
C9 C8 1_555 1_555
C10 C9 1_555 1_555
C11 C10 1_555 1_555
C12 C9 1_555 1_555
C13 H7 1_555 1_555
H8 C13 1_555 1_555
H9 C13 1_555 1_555
C14 C8 1_555 1_555
C15 C14 1_555 1_555
H10 C15 1_555 1_555
C16 C15 1_555 1_555
H11 C16 1_555 1_555
C17 C16 1_555 1_555
C18 C17 1_555 1_555
H12 C18 1_555 1_555
C19 C14 1_555 1_555
H13 C19 1_555 1_555
C20 C17 1_555 1_555
H14 C20 1_555 1_555
H15 C20 1_555 1_555
H16 C20 1_555 1_555
F1 C11 1_555 1_555
F2 C11 1_555 1_555
F3 C11 1_555 1_555
N1 C1 1_555 1_555
O1 C12 1_555 1_555
O2 C12 1_555 1_555
C5 C6 1_555 1_555
C7 N1 1_555 1_555
C10 N1 1_555 1_555
C13 O1 1_555 1_555
C18 C19 1_555 1_555

#END
