
#######################################################################
#
#                 Cambridge Crystallographic Data Centre
#                                CCDC 
#
#######################################################################
#
# If this CIF has been generated from an entry in the Cambridge 
# Structural Database, then it will include bibliographic, chemical, 
# crystal, experimental, refinement or atomic coordinate data resulting 
# from the CCDC's data processing and validation procedures.
#
#######################################################################

data_TUZLUV
_chemical_formula_moiety         'C10 H2 Cl10'
_chemical_name_systematic        
cis-1,1,2,3,3,4,5,6,7,8-Decachloro-1,2,3,4-tetrahydroazulene
_symmetry_cell_setting           triclinic
_symmetry_space_group_name_H-M   'P -1'
_symmetry_Int_Tables_number      2
_space_group_name_Hall           '-P 1'
loop_
_symmetry_equiv_pos_site_id
_symmetry_equiv_pos_as_xyz
1 x,y,z
2 -x,-y,-z
_cell_length_a                   5.8505(5)
_cell_length_b                   8.3803(7)
_cell_length_c                   17.609(2)
_cell_angle_alpha                82.391(2)
_cell_angle_beta                 80.49(2)
_cell_angle_gamma                72.591(2)
_cell_volume                     809.317
_exptl_crystal_colour            colorless
_exptl_crystal_description       block
_chemical_melting_point          '109-111 deg.C'
_cell_formula_units_Z            2
loop_
_atom_site_label
_atom_site_type_symbol
_atom_site_fract_x
_atom_site_fract_y
_atom_site_fract_z
Cl1 Cl -0.3001(1) 0.6176(1) 0.2961(1)
Cl2 Cl 0.2998(1) 0.3382(1) 0.3822(1)
Cl3 Cl 0.2338(1) 0.6414(1) 0.4766(1)
Cl4 Cl -0.2039(1) 0.9541(1) 0.4445(1)
Cl5 Cl -0.1755(1) 1.1258(1) 0.2805(1)
Cl6 Cl 0.3857(1) 1.0387(1) 0.1781(1)
Cl7 Cl -0.0023(1) 1.0304(1) 0.0968(1)
Cl8 Cl 0.4806(1) 0.7819(1) 0.0188(1)
Cl9 Cl 0.0668(1) 0.5973(1) 0.0830(1)
Cl10 Cl 0.4943(1) 0.4176(1) 0.1543(1)
C1 C 0.1267(4) 0.6668(3) 0.2215(1)
C2 C 0.0276(5) 0.5487(3) 0.2795(2)
C3 C 0.1317(5) 0.5363(3) 0.3531(2)
C4 C 0.1050(5) 0.6685(4) 0.3926(2)
C5 C -0.0304(5) 0.8406(3) 0.3697(2)
C6 C -0.0233(5) 0.9162(3) 0.2965(2)
C7 C 0.1017(4) 0.8293(3) 0.2290(1)
C8 C 0.2173(4) 0.9097(3) 0.1562(1)
C9 C 0.3906(4) 0.7548(3) 0.1186(1)
C10 C 0.2687(4) 0.6143(3) 0.1451(1)
H1 H 0.0802 0.4353 0.2595
H2 H 0.5409 0.7237 0.1439
loop_
_geom_bond_atom_site_label_1
_geom_bond_atom_site_label_2
_geom_bond_site_symmetry_1
_geom_bond_site_symmetry_2
Cl1 C2 1_555 1_555
Cl2 C3 1_555 1_555
Cl3 C4 1_555 1_555
Cl4 C5 1_555 1_555
Cl5 C6 1_555 1_555
Cl6 C8 1_555 1_555
Cl7 C8 1_555 1_555
Cl8 C9 1_555 1_555
Cl9 C10 1_555 1_555
Cl10 C10 1_555 1_555
C1 C2 1_555 1_555
C2 C3 1_555 1_555
C3 C4 1_555 1_555
C4 C5 1_555 1_555
C5 C6 1_555 1_555
C6 C7 1_555 1_555
C7 C1 1_555 1_555
C8 C7 1_555 1_555
C9 C8 1_555 1_555
C10 C1 1_555 1_555
H1 C2 1_555 1_555
H2 C9 1_555 1_555
C9 C10 1_555 1_555

#END
