
#######################################################################
#
#                 Cambridge Crystallographic Data Centre
#                                CCDC 
#
#######################################################################
#
# If this CIF has been generated from an entry in the Cambridge 
# Structural Database, then it will include bibliographic, chemical, 
# crystal, experimental, refinement or atomic coordinate data resulting 
# from the CCDC's data processing and validation procedures.
#
#######################################################################

data_TUZQUB
_chemical_formula_moiety         'C15 H12 F5 N1 O2'
_chemical_name_systematic        
't-Butyl 1-cyano-2-(pentafluorophenyl)cyclopropanecarboxylate'
_symmetry_cell_setting           orthorhombic
_symmetry_space_group_name_H-M   'P 21 21 21'
_symmetry_Int_Tables_number      19
_space_group_name_Hall           'P 2ac 2ab'
loop_
_symmetry_equiv_pos_site_id
_symmetry_equiv_pos_as_xyz
1 x,y,z
2 1/2-x,-y,1/2+z
3 -x,1/2+y,1/2-z
4 1/2+x,1/2-y,-z
_cell_length_a                   6.0604(12)
_cell_length_b                   10.0127(19)
_cell_length_c                   24.814(5)
_cell_angle_alpha                90
_cell_angle_beta                 90
_cell_angle_gamma                90
_cell_volume                     1505.74
_exptl_crystal_colour            colorless
_exptl_crystal_description       plate
_cell_formula_units_Z            4
loop_
_atom_site_label
_atom_site_type_symbol
_atom_site_fract_x
_atom_site_fract_y
_atom_site_fract_z
C1 C 0.8755(4) 0.4677(2) 0.07836(9)
C2 C 0.7177(4) 0.4459(3) 0.17486(9)
H1 H 0.6766 0.5395 0.1692
C3 C 0.7941(4) 0.4141(2) 0.23042(9)
C4 C 0.7452(6) 0.3153(3) 0.31841(10)
C5 C 0.9929(5) 0.4628(2) 0.24919(10)
C6 C 0.9424(6) 0.3649(3) 0.33537(10)
C7 C 0.5961(4) 0.3495(4) 0.14088(9)
H2 H 0.4827 0.3845 0.1172
H3 H 0.5635 0.2626 0.1562
C8 C 1.1154(4) 0.4898(2) -0.00108(8)
C9 C 0.6720(5) 0.3386(3) 0.26718(9)
C10 C 1.2007(5) 0.6264(3) 0.01199(12)
H4 H 1.0846 0.6787 0.0277
H5 H 1.2513 0.6688 -0.0204
H6 H 1.3208 0.6192 0.0370
C11 C 0.8369(4) 0.3802(2) 0.12676(8)
C12 C 1.0689(5) 0.4406(3) 0.30059(11)
C13 C 1.2982(5) 0.3989(3) -0.01977(12)
H7 H 1.4111 0.3949 0.0073
H8 H 1.3598 0.4328 -0.0527
H9 H 1.2402 0.3109 -0.0259
C14 C 0.9259(6) 0.4912(4) -0.04081(11)
H10 H 0.8690 0.4023 -0.0449
H11 H 0.9772 0.5234 -0.0750
H12 H 0.8112 0.5488 -0.0277
F1 F 1.1169(3) 0.53697(19) 0.21590(8)
F2 F 0.4783(3) 0.2866(2) 0.25261(6)
F3 F 1.2599(3) 0.4922(2) 0.31709(8)
F4 F 1.0129(5) 0.3442(2) 0.38547(7)
F5 F 0.6224(4) 0.2418(2) 0.35238(6)
C15 C 0.9961(4) 0.2784(2) 0.13880(8)
O1 O 1.0440(3) 0.42288(16) 0.05004(6)
O2 O 0.7596(3) 0.5619(2) 0.06876(8)
N1 N 1.1214(4) 0.1983(2) 0.14972(10)
loop_
_geom_bond_atom_site_label_1
_geom_bond_atom_site_label_2
_geom_bond_site_symmetry_1
_geom_bond_site_symmetry_2
C1 C11 1_555 1_555
C2 H1 1_555 1_555
C3 C2 1_555 1_555
C4 C6 1_555 1_555
C5 C3 1_555 1_555
C6 C12 1_555 1_555
C7 C2 1_555 1_555
H2 C7 1_555 1_555
H3 C7 1_555 1_555
C8 C10 1_555 1_555
C9 C3 1_555 1_555
C10 H4 1_555 1_555
H5 C10 1_555 1_555
H6 C10 1_555 1_555
C11 C2 1_555 1_555
C12 C5 1_555 1_555
C13 C8 1_555 1_555
H7 C13 1_555 1_555
H8 C13 1_555 1_555
H9 C13 1_555 1_555
C14 C8 1_555 1_555
H10 C14 1_555 1_555
H11 C14 1_555 1_555
H12 C14 1_555 1_555
F1 C5 1_555 1_555
F2 C9 1_555 1_555
F3 C12 1_555 1_555
F4 C6 1_555 1_555
F5 C4 1_555 1_555
C15 C11 1_555 1_555
O1 C1 1_555 1_555
O2 C1 1_555 1_555
N1 C15 1_555 1_555
C4 C9 1_555 1_555
C7 C11 1_555 1_555
C8 O1 1_555 1_555

#END
