
#######################################################################
#
#                 Cambridge Crystallographic Data Centre
#                                CCDC 
#
#######################################################################
#
# If this CIF has been generated from an entry in the Cambridge 
# Structural Database, then it will include bibliographic, chemical, 
# crystal, experimental, refinement or atomic coordinate data resulting 
# from the CCDC's data processing and validation procedures.
#
#######################################################################

data_TUZRAI
_chemical_formula_moiety         'C14 H19 N1 O2'
_chemical_name_systematic        
't-Butyl 3-cyanotricyclo[3.2.1.0^2,4^]octane-3-carboxylate'
_symmetry_cell_setting           orthorhombic
_symmetry_space_group_name_H-M   'P m n 21'
_symmetry_Int_Tables_number      31
_space_group_name_Hall           'P 2ac -2'
loop_
_symmetry_equiv_pos_site_id
_symmetry_equiv_pos_as_xyz
1 x,y,z
2 1/2-x,-y,1/2+z
3 1/2+x,-y,1/2+z
4 -x,y,z
_cell_length_a                   8.5842(2)
_cell_length_b                   8.5197(2)
_cell_length_c                   8.4723(2)
_cell_angle_alpha                90
_cell_angle_beta                 90
_cell_angle_gamma                90
_cell_volume                     619.62
_cell_formula_units_Z            2
loop_
_atom_site_label
_atom_site_type_symbol
_atom_site_fract_x
_atom_site_fract_y
_atom_site_fract_z
C1 C 0.8680(2) 0.60553(16) 0.06370(18)
H1 H 0.7598 0.6398 0.0909
C2 C 0.9094(2) 0.60510(19) -0.11514(18)
H2 H 0.8678 0.5103 -0.1680
H3 H 0.8678 0.6996 -0.1685
C3 C 1.0000 0.1077(3) 0.7250(3)
H4 H 1.0929 0.1699 0.7493
H5 H 1.0006 0.0115 0.7884
C4 C 1.0000 0.2376(2) 0.3173(3)
C5 C 1.0000 0.0650(2) 0.5501(3)
C6 C 1.0000 0.5147(2) 0.4046(3)
C7 C 0.8519(2) -0.02259(17) 0.5059(2)
H6 H 0.8527 -0.0457 0.3926
H7 H 0.7611 0.0425 0.5312
H8 H 0.8464 -0.1210 0.5655
C8 C 0.9127(2) 0.44003(16) 0.11551(17)
H9 H 0.8581 0.3497 0.0644
C9 C 1.0000 0.4094(2) 0.2721(2)
C10 C 1.0000 0.7101(2) 0.1260(3)
H10 H 1.0000 0.7187 0.2426
H11 H 1.0000 0.8159 0.0777
N1 N 1.0000 0.5954(2) 0.5140(2)
O1 O 1.0000 0.22244(16) 0.47340(19)
O2 O 1.0000 0.13321(18) 0.22150(19)
C1C C 1.1320(2) 0.60553(16) 0.06370(18)
H1C H 1.2402 0.6398 0.0909
C2C C 1.0906(2) 0.60510(19) -0.11514(18)
H2C H 1.1322 0.5103 -0.1680
H3C H 1.1322 0.6996 -0.1685
H4C H 0.9071 0.1699 0.7493
C7C C 1.1481(2) -0.02259(17) 0.5059(2)
H6C H 1.1473 -0.0457 0.3926
H7C H 1.2389 0.0425 0.5312
H8C H 1.1536 -0.1210 0.5655
C8C C 1.0873(2) 0.44003(16) 0.11551(17)
H9C H 1.1419 0.3497 0.0644
H12? H 0.9065 0.1690 0.7495
loop_
_geom_bond_atom_site_label_1
_geom_bond_atom_site_label_2
_geom_bond_site_symmetry_1
_geom_bond_site_symmetry_2
C1 H1 1_555 1_555
C2 C1 1_555 1_555
H2 C2 1_555 1_555
H3 C2 1_555 1_555
C3 H4 1_555 1_555
H5 C3 1_555 1_555
C4 C9 1_555 1_555
C5 C3 1_555 1_555
C6 C9 1_555 1_555
C7 C5 1_555 1_555
H6 C7 1_555 1_555
H7 C7 1_555 1_555
H8 C7 1_555 1_555
C8 C1 1_555 1_555
H9 C8 1_555 1_555
C9 C8 1_555 1_555
C10 C1 1_555 1_555
H10 C10 1_555 1_555
H11 C10 1_555 1_555
N1 C6 1_555 1_555
O1 C4 1_555 1_555
O2 C4 1_555 1_555
C1C C10 1_555 1_555
H1C C1C 1_555 1_555
C2C C2 1_555 1_555
H2C C2C 1_555 1_555
H3C C2C 1_555 1_555
H4C C3 1_555 1_555
C7C C5 1_555 1_555
H6C C7C 1_555 1_555
H7C C7C 1_555 1_555
H8C C7C 1_555 1_555
C8C C8 1_555 1_555
H9C C8C 1_555 1_555
C5 O1 1_555 1_555
C9 C8C 1_555 1_555
C1C C2C 1_555 1_555
C1C C8C 1_555 1_555

#END
