
#######################################################################
#
#                 Cambridge Crystallographic Data Centre
#                                CCDC 
#
#######################################################################
#
# If this CIF has been generated from an entry in the Cambridge 
# Structural Database, then it will include bibliographic, chemical, 
# crystal, experimental, refinement or atomic coordinate data resulting 
# from the CCDC's data processing and validation procedures.
#
#######################################################################

data_TUZWEQ
_chemical_formula_moiety         'C102 H136 N4 O10'
_chemical_name_systematic        
7,13,21,27-Tetraphenyl-29,30,31,32-tetrakis((dipentylcarbamoyl)methoxy)-2,3,16,17-tetrahomo-3,17-dioxacalix[4]arene
_symmetry_cell_setting           triclinic
_symmetry_space_group_name_H-M   'P -1'
_symmetry_Int_Tables_number      2
_space_group_name_Hall           '-P 1'
loop_
_symmetry_equiv_pos_site_id
_symmetry_equiv_pos_as_xyz
1 x,y,z
2 -x,-y,-z
_cell_length_a                   14.183(5)
_cell_length_b                   15.081(5)
_cell_length_c                   11.297(5)
_cell_angle_alpha                103.055(5)
_cell_angle_beta                 96.035(5)
_cell_angle_gamma                83.425(5)
_cell_volume                     2330.56
_chemical_melting_point          178deg.C
_cell_formula_units_Z            1
_exptl_crystal_recrystallization_method acetonitrile/methanol
loop_
_atom_site_label
_atom_site_type_symbol
_atom_site_fract_x
_atom_site_fract_y
_atom_site_fract_z
O1 O 0.1283(2) 0.50426(19) 0.8008(2)
O2 O -0.27135(19) 0.4905(2) 0.4227(2)
O3 O -0.05373(19) 0.52840(19) 0.6342(2)
O4 O -0.1091(2) 0.4393(2) 0.7967(3)
O5 O 0.1488(3) 0.3196(3) 0.8508(4)
N1 N 0.2840(3) 0.3776(3) 0.9332(4)
N2 N -0.0771(3) 0.3006(3) 0.6784(4)
C1 C -0.1236(3) 0.6487(3) 0.7809(4)
C2 C -0.1296(3) 0.5932(3) 0.6640(4)
C3 C -0.2045(3) 0.6072(3) 0.5777(4)
C4 C -0.2777(3) 0.7275(3) 0.7325(4)
C5 C 0.2072(3) 0.6198(3) 0.7506(4)
C6 C -0.0380(3) 0.6346(3) 0.8688(4)
H1 H -0.0499 0.6715 0.9489
H2 H -0.0297 0.5710 0.8750
C7 C 0.0522(3) 0.6592(3) 0.8309(4)
C8 C -0.1974(3) 0.7149(3) 0.8121(4)
H3 H -0.1936 0.7529 0.8894
C9 C 0.1279(3) 0.5956(3) 0.7979(4)
C10 C -0.0867(3) 0.3925(3) 0.7001(5)
C11 C -0.2777(3) 0.6736(3) 0.6158(4)
H4 H -0.3292 0.6823 0.5601
C12 C -0.2064(3) 0.5587(3) 0.4471(4)
H5 H -0.1431 0.5305 0.4285
H6 H -0.2253 0.6022 0.3956
C13 C -0.3586(4) 0.7947(3) 0.7671(4)
C14 C 0.2864(3) 0.5511(3) 0.7039(4)
H7 H 0.3449 0.5807 0.7171
H8 H 0.2944 0.5037 0.7506
C15 C 0.1384(4) 0.7775(3) 0.7868(4)
C16 C 0.2095(3) 0.7099(4) 0.7463(4)
H9 H 0.2613 0.7263 0.7146
C17 C -0.0718(3) 0.4350(3) 0.5952(4)
H10 H -0.1280 0.4304 0.5381
H11 H -0.0185 0.4010 0.5527
C18 C 0.0588(3) 0.7487(3) 0.8249(4)
H12 H 0.0079 0.7918 0.8473
C19 C 0.1452(4) 0.8762(4) 0.7929(6)
C20 C 0.1915(4) 0.3869(4) 0.8979(4)
C21 C -0.0495(5) 0.2418(4) 0.5631(5)
H13 H -0.0800 0.1856 0.5490
H14 H -0.0724 0.2723 0.4972
C22 C -0.0899(4) 0.2566(4) 0.7776(5)
H15 H -0.0527 0.1976 0.7661
H16 H -0.0666 0.2939 0.8545
C23 C -0.4506(4) 0.7757(4) 0.7252(5)
H17 H -0.4611 0.7188 0.6759
C24 C 0.1339(4) 0.4795(4) 0.9160(4)
H18 H 0.0709 0.4754 0.9391
H19 H 0.1655 0.5241 0.9788
C25 C 0.3442(5) 0.4598(4) 1.1344(5)
H20 H 0.2807 0.4785 1.1609
H21 H 0.3640 0.4002 1.1523
C26 C 0.3402(5) 0.4515(4) 0.9988(5)
H22 H 0.3123 0.5087 0.9790
H23 H 0.4043 0.4399 0.9728
C27 C 0.3338(4) 0.2872(4) 0.9097(6)
H24 H 0.2921 0.2436 0.9209
H25 H 0.3887 0.2857 0.9686
C28 C 0.1946(4) 0.9032(5) 0.7092(6)
H26 H 0.2223 0.8593 0.6478
C29 C 0.1078(4) 0.9437(4) 0.8842(7)
H27 H 0.0762 0.9274 0.9430
C30 C -0.3471(5) 0.8793(4) 0.8416(5)
H28 H -0.2863 0.8942 0.8733
C31 C 0.2031(5) 0.9951(6) 0.7164(8)
H29 H 0.2357 1.0124 0.6592
C32 C -0.1949(6) 0.2433(6) 0.7828(7)
H30 H -0.2159 0.2004 0.7097
H31 H -0.2329 0.3012 0.7842
C33 C -0.4250(7) 0.9430(5) 0.8703(7)
H32 H -0.4162 1.0000 0.9205
C34 C -0.5264(5) 0.8380(5) 0.7543(7)
H33 H -0.5876 0.8229 0.7252
C35 C 0.4105(6) 0.5265(5) 1.2060(6)
H34 H 0.3948 0.5849 1.1826
H35 H 0.4752 0.5047 1.1862
C36 C 0.3675(6) 0.2582(5) 0.7801(7)
H36 H 0.3133 0.2642 0.7216
H37 H 0.4127 0.2993 0.7711
C37 C -0.5139(6) 0.9212(6) 0.8245(7)
H38 H -0.5661 0.9639 0.8418
C38 C 0.1160(6) 1.0352(5) 0.8905(9)
H39 H 0.0889 1.0797 0.9518
C39 C 0.0576(6) 0.2185(6) 0.5607(7)
H40 H 0.0815 0.1935 0.6312
H41 H 0.0876 0.2742 0.5667
C40 C 0.4052(10) 0.5401(7) 1.3422(7)
H42 H 0.3384 0.5496 1.3579
H43 H 0.4307 0.4834 1.3655
C41 C 0.1640(6) 1.0596(6) 0.8066(10)
H44 H 0.1700 1.1211 0.8111
C42 C 0.4494(12) 0.6080(9) 1.4162(9)
H45 H 0.4387 0.6096 1.4993
H46 H 0.4246 0.6651 1.3960
H47 H 0.5165 0.5979 1.4066
C43 C 0.1535(15) 0.0273(10) 0.3119(14)
H48 H 0.2152 0.0016 0.3379
H49 H 0.1108 -0.0198 0.2889
H50 H 0.1586 0.0537 0.2433
C44 C 0.4127(8) 0.1631(6) 0.7514(9)
H51 H 0.3728 0.1224 0.7738
H52 H 0.4739 0.1592 0.7978
C45 C 0.4268(13) 0.1326(16) 0.6073(15)
H53 H 0.4012 0.0743 0.5741
H54 H 0.3923 0.1774 0.5655
C46 C 0.5066(16) 0.126(3) 0.591(2)
H55 H 0.5168 0.1679 0.5416
H56 H 0.5255 0.0647 0.5494
H57 H 0.5436 0.1404 0.6676
C47 C -0.2115(7) 0.2088(7) 0.8912(8)
H58 H -0.1737 0.1509 0.8904
H59 H -0.1915 0.2519 0.9647
C48 C -0.3592(10) 0.2217(13) 0.9798(13)
H60 H -0.4204 0.1981 0.9641
H61 H -0.3246 0.2004 1.0473
H62 H -0.3674 0.2873 0.9990
C49 C 0.1178(14) 0.0963(9) 0.4093(12)
H63 H 0.1781 0.1043 0.4579
H64 H 0.0877 0.0563 0.4470
C50 C -0.3160(11) 0.1961(12) 0.8920(18)
H65 H -0.3217 0.1310 0.8653
H66 H -0.3498 0.2245 0.8289
C51 C 0.0854(12) 0.1512(11) 0.4476(11)
H67 H 0.1101 0.1925 0.4065
H68 H 0.0224 0.1424 0.4068
O2A O 0.27135(19) 0.5095(2) 0.5773(2)
C12A C 0.2064(3) 0.4413(3) 0.5529(4)
C3A C 0.2045(3) 0.3928(3) 0.4223(4)
C2A C 0.1296(3) 0.4068(3) 0.3360(4)
O3A O 0.05373(19) 0.47160(19) 0.3658(2)
C17A C 0.0718(3) 0.5650(3) 0.4048(4)
C10A C 0.0867(3) 0.6075(3) 0.2999(5)
O4A O 0.1091(2) 0.5607(2) 0.2033(3)
N2A N 0.0771(3) 0.6994(3) 0.3216(4)
C21A C 0.0495(5) 0.7582(4) 0.4369(5)
H13A H 0.0800 0.8144 0.4510
H14A H 0.0724 0.7277 0.5028
C39A C -0.0576(6) 0.7815(6) 0.4393(7)
H40A H -0.0815 0.8065 0.3688
H41A H -0.0876 0.7258 0.4333
C51A C -0.0854(12) 0.8488(11) 0.5524(11)
C49A C -0.1178(14) 0.9037(9) 0.5907(12)
C43A C -0.1535(15) 0.9727(10) 0.6881(14)
H48A H -0.2152 0.9984 0.6621
H49A H -0.1108 1.0198 0.7111
H50A H -0.1586 0.9463 0.7567
H63A H -0.1781 0.8957 0.5421
H64A H -0.0877 0.9437 0.5530
H67A H -0.1101 0.8075 0.5935
H68A H -0.0224 0.8576 0.5932
C22A C 0.0899(4) 0.7434(4) 0.2224(5)
H15A H 0.0527 0.8024 0.2339
H16A H 0.0666 0.7061 0.1455
C32A C 0.1949(6) 0.7567(6) 0.2172(7)
H30A H 0.2159 0.7996 0.2903
H31A H 0.2329 0.6988 0.2158
C47A C 0.2115(7) 0.7912(7) 0.1088(8)
H58A H 0.1737 0.8491 0.1096
H59A H 0.1915 0.7481 0.0353
C50A C 0.3160(11) 0.8039(12) 0.1080(18)
C48A C 0.3592(10) 0.7783(13) 0.0202(13)
H60A H 0.4204 0.8019 0.0359
H61A H 0.3246 0.7996 -0.0473
H62A H 0.3674 0.7127 0.0010
H65A H 0.3217 0.8690 0.1347
H66A H 0.3498 0.7755 0.1711
H10A H 0.1280 0.5696 0.4619
H11A H 0.0185 0.5990 0.4473
C1A C 0.1236(3) 0.3513(3) 0.2191(4)
C6A C 0.0380(3) 0.3654(3) 0.1312(4)
H1A H 0.0499 0.3285 0.0511
H2A H 0.0297 0.4290 0.1250
C7A C -0.0522(3) 0.3408(3) 0.1691(4)
C9A C -0.1279(3) 0.4044(3) 0.2021(4)
O1A O -0.1283(2) 0.49574(19) 0.1992(2)
C24A C -0.1339(4) 0.5205(4) 0.0840(4)
C20A C -0.1915(4) 0.6131(4) 0.1021(4)
O5A O -0.1488(3) 0.6804(3) 0.1492(4)
N1A N -0.2840(3) 0.6224(3) 0.0668(4)
C26A C -0.3402(5) 0.5485(4) 0.0012(5)
C25A C -0.3442(5) 0.5402(4) -0.1344(5)
H20A H -0.2807 0.5215 -0.1609
H21A H -0.3640 0.5998 -0.1523
C35A C -0.4105(6) 0.4735(5) -0.2060(6)
H34A H -0.3948 0.4151 -0.1826
H35A H -0.4752 0.4953 -0.1862
C40A C -0.4052(10) 0.4599(7) -0.3422(7)
H42A H -0.3384 0.4504 -0.3579
H43A H -0.4307 0.5166 -0.3655
C42A C -0.4494(12) 0.3920(9) -0.4162(9)
H45A H -0.4387 0.3904 -0.4993
H46A H -0.4246 0.3349 -0.3960
H47A H -0.5165 0.4021 -0.4066
H22A H -0.3123 0.4913 0.0210
H23A H -0.4043 0.5601 0.0272
C27A C -0.3338(4) 0.7128(4) 0.0903(6)
H24A H -0.2921 0.7564 0.0791
H25A H -0.3887 0.7143 0.0314
C36A C -0.3675(6) 0.7418(5) 0.2199(7)
H36A H -0.3133 0.7358 0.2784
H37A H -0.4127 0.7007 0.2289
C44A C -0.4127(8) 0.8369(6) 0.2486(9)
H51A H -0.3728 0.8776 0.2262
H52A H -0.4739 0.8408 0.2022
C45A C -0.4268(13) 0.8674(16) 0.3927(15)
H53A H -0.4012 0.9257 0.4259
H54A H -0.3923 0.8226 0.4345
C46A C -0.5066(16) 0.874(3) 0.409(2)
H55A H -0.5168 0.8321 0.4584
H56A H -0.5255 0.9353 0.4506
H57A H -0.5436 0.8596 0.3324
H18A H -0.0709 0.5246 0.0609
H19A H -0.1655 0.4759 0.0212
C5A C -0.2072(3) 0.3802(3) 0.2494(4)
C14A C -0.2864(3) 0.4489(3) 0.2961(4)
H7A H -0.3449 0.4193 0.2829
H8A H -0.2944 0.4963 0.2494
C16A C -0.2095(3) 0.2901(4) 0.2537(4)
C15A C -0.1384(4) 0.2225(3) 0.2132(4)
C18A C -0.0588(3) 0.2513(3) 0.1751(4)
H12A H -0.0079 0.2082 0.1527
C19A C -0.1452(4) 0.1238(4) 0.2071(6)
C28A C -0.1946(4) 0.0968(5) 0.2908(6)
H26A H -0.2223 0.1407 0.3522
C31A C -0.2031(5) 0.0049(6) 0.2836(8)
H29A H -0.2357 -0.0124 0.3408
C41A C -0.1640(6) -0.0596(6) 0.1934(10)
C38A C -0.1160(6) -0.0352(5) 0.1095(9)
C29A C -0.1078(4) 0.0563(4) 0.1158(7)
H27A H -0.0762 0.0726 0.0570
H39A H -0.0889 -0.0797 0.0482
H44A H -0.1700 -0.1211 0.1889
H9A H -0.2613 0.2737 0.2854
C8A C 0.1974(3) 0.2851(3) 0.1879(4)
C4A C 0.2777(3) 0.2725(3) 0.2675(4)
C11A C 0.2777(3) 0.3264(3) 0.3842(4)
H4A H 0.3292 0.3177 0.4399
C13A C 0.3586(4) 0.2053(3) 0.2329(4)
C23A C 0.4506(4) 0.2243(4) 0.2748(5)
H17A H 0.4611 0.2812 0.3241
C34A C 0.5264(5) 0.1620(5) 0.2457(7)
H33A H 0.5876 0.1771 0.2748
C37A C 0.5139(6) 0.0788(6) 0.1755(7)
C33A C 0.4250(7) 0.0570(5) 0.1297(7)
C30A C 0.3471(5) 0.1207(4) 0.1584(5)
H28A H 0.2863 0.1058 0.1267
H32A H 0.4162 0.0000 0.0795
H38A H 0.5661 0.0361 0.1582
H3A H 0.1936 0.2471 0.1106
H5A H 0.1431 0.4695 0.5715
H6A H 0.2253 0.3978 0.6044
loop_
_geom_bond_atom_site_label_1
_geom_bond_atom_site_label_2
_geom_bond_site_symmetry_1
_geom_bond_site_symmetry_2
O1 C9 1_555 1_555
O2 C12 1_555 1_555
O3 C2 1_555 1_555
O4 C10 1_555 1_555
O5 C20 1_555 1_555
N1 C20 1_555 1_555
N2 C10 1_555 1_555
C1 C2 1_555 1_555
C2 C3 1_555 1_555
C3 C11 1_555 1_555
C4 C8 1_555 1_555
C5 C9 1_555 1_555
C6 C1 1_555 1_555
H1 C6 1_555 1_555
H2 C6 1_555 1_555
C7 C6 1_555 1_555
C8 C1 1_555 1_555
H3 C8 1_555 1_555
C9 C7 1_555 1_555
C10 C17 1_555 1_555
C11 C4 1_555 1_555
H4 C11 1_555 1_555
C12 C3 1_555 1_555
H5 C12 1_555 1_555
H6 C12 1_555 1_555
C13 C4 1_555 1_555
C14 C5 1_555 1_555
H7 C14 1_555 1_555
H8 C14 1_555 1_555
C15 C16 1_555 1_555
C16 C5 1_555 1_555
H9 C16 1_555 1_555
C17 O3 1_555 1_555
H10 C17 1_555 1_555
H11 C17 1_555 1_555
C18 C7 1_555 1_555
H12 C18 1_555 1_555
C19 C15 1_555 1_555
C20 C24 1_555 1_555
C21 N2 1_555 1_555
H13 C21 1_555 1_555
H14 C21 1_555 1_555
C22 N2 1_555 1_555
H15 C22 1_555 1_555
H16 C22 1_555 1_555
C23 C13 1_555 1_555
H17 C23 1_555 1_555
C24 O1 1_555 1_555
H18 C24 1_555 1_555
H19 C24 1_555 1_555
C25 H20 1_555 1_555
H21 C25 1_555 1_555
C26 N1 1_555 1_555
H22 C26 1_555 1_555
H23 C26 1_555 1_555
C27 N1 1_555 1_555
H24 C27 1_555 1_555
H25 C27 1_555 1_555
C28 C19 1_555 1_555
H26 C28 1_555 1_555
C29 C19 1_555 1_555
H27 C29 1_555 1_555
C30 C13 1_555 1_555
H28 C30 1_555 1_555
C31 C28 1_555 1_555
H29 C31 1_555 1_555
C32 C22 1_555 1_555
H30 C32 1_555 1_555
H31 C32 1_555 1_555
C33 C30 1_555 1_555
H32 C33 1_555 1_555
C34 C23 1_555 1_555
H33 C34 1_555 1_555
C35 C25 1_555 1_555
H34 C35 1_555 1_555
H35 C35 1_555 1_555
C36 C27 1_555 1_555
H36 C36 1_555 1_555
H37 C36 1_555 1_555
C37 C33 1_555 1_555
H38 C37 1_555 1_555
C38 C29 1_555 1_555
H39 C38 1_555 1_555
C39 C21 1_555 1_555
H40 C39 1_555 1_555
H41 C39 1_555 1_555
C40 C35 1_555 1_555
H42 C40 1_555 1_555
H43 C40 1_555 1_555
C41 C31 1_555 1_555
H44 C41 1_555 1_555
C42 C40 1_555 1_555
H45 C42 1_555 1_555
H46 C42 1_555 1_555
H47 C42 1_555 1_555
C43 H48 1_555 1_555
H49 C43 1_555 1_555
H50 C43 1_555 1_555
C44 C36 1_555 1_555
H51 C44 1_555 1_555
H52 C44 1_555 1_555
C45 C44 1_555 1_555
H53 C45 1_555 1_555
H54 C45 1_555 1_555
C46 C45 1_555 1_555
H55 C46 1_555 1_555
H56 C46 1_555 1_555
H57 C46 1_555 1_555
C47 C32 1_555 1_555
H58 C47 1_555 1_555
H59 C47 1_555 1_555
C48 H60 1_555 1_555
H61 C48 1_555 1_555
H62 C48 1_555 1_555
C49 C43 1_555 1_555
H63 C49 1_555 1_555
H64 C49 1_555 1_555
C50 C47 1_555 1_555
H65 C50 1_555 1_555
H66 C50 1_555 1_555
C51 C39 1_555 1_555
H67 C51 1_555 1_555
H68 C51 1_555 1_555
O2A C14 1_555 1_555
C12A O2A 1_555 1_555
C3A C12A 1_555 1_555
C2A C3A 1_555 1_555
O3A C2A 1_555 1_555
C17A O3A 1_555 1_555
C10A C17A 1_555 1_555
O4A C10A 1_555 1_555
N2A C10A 1_555 1_555
C21A N2A 1_555 1_555
H13A C21A 1_555 1_555
H14A C21A 1_555 1_555
C39A C21A 1_555 1_555
H40A C39A 1_555 1_555
H41A C39A 1_555 1_555
C51A C39A 1_555 1_555
C49A C51A 1_555 1_555
C43A C49A 1_555 1_555
H48A C43A 1_555 1_555
H49A C43A 1_555 1_555
H50A C43A 1_555 1_555
H63A C49A 1_555 1_555
H64A C49A 1_555 1_555
H67A C51A 1_555 1_555
H68A C51A 1_555 1_555
C22A N2A 1_555 1_555
H15A C22A 1_555 1_555
H16A C22A 1_555 1_555
C32A C22A 1_555 1_555
H30A C32A 1_555 1_555
H31A C32A 1_555 1_555
C47A C32A 1_555 1_555
H58A C47A 1_555 1_555
H59A C47A 1_555 1_555
C50A C47A 1_555 1_555
C48A C50A 1_555 1_555
H60A C48A 1_555 1_555
H61A C48A 1_555 1_555
H62A C48A 1_555 1_555
H65A C50A 1_555 1_555
H66A C50A 1_555 1_555
H10A C17A 1_555 1_555
H11A C17A 1_555 1_555
C1A C2A 1_555 1_555
C6A C1A 1_555 1_555
H1A C6A 1_555 1_555
H2A C6A 1_555 1_555
C7A C6A 1_555 1_555
C9A C7A 1_555 1_555
O1A C9A 1_555 1_555
C24A O1A 1_555 1_555
C20A C24A 1_555 1_555
O5A C20A 1_555 1_555
N1A C20A 1_555 1_555
C26A N1A 1_555 1_555
C25A C26A 1_555 1_555
H20A C25A 1_555 1_555
H21A C25A 1_555 1_555
C35A C25A 1_555 1_555
H34A C35A 1_555 1_555
H35A C35A 1_555 1_555
C40A C35A 1_555 1_555
H42A C40A 1_555 1_555
H43A C40A 1_555 1_555
C42A C40A 1_555 1_555
H45A C42A 1_555 1_555
H46A C42A 1_555 1_555
H47A C42A 1_555 1_555
H22A C26A 1_555 1_555
H23A C26A 1_555 1_555
C27A N1A 1_555 1_555
H24A C27A 1_555 1_555
H25A C27A 1_555 1_555
C36A C27A 1_555 1_555
H36A C36A 1_555 1_555
H37A C36A 1_555 1_555
C44A C36A 1_555 1_555
H51A C44A 1_555 1_555
H52A C44A 1_555 1_555
C45A C44A 1_555 1_555
H53A C45A 1_555 1_555
H54A C45A 1_555 1_555
C46A C45A 1_555 1_555
H55A C46A 1_555 1_555
H56A C46A 1_555 1_555
H57A C46A 1_555 1_555
H18A C24A 1_555 1_555
H19A C24A 1_555 1_555
C5A C9A 1_555 1_555
C14A O2 1_555 1_555
H7A C14A 1_555 1_555
H8A C14A 1_555 1_555
C16A C5A 1_555 1_555
C15A C16A 1_555 1_555
C18A C7A 1_555 1_555
H12A C18A 1_555 1_555
C19A C15A 1_555 1_555
C28A C19A 1_555 1_555
H26A C28A 1_555 1_555
C31A C28A 1_555 1_555
H29A C31A 1_555 1_555
C41A C31A 1_555 1_555
C38A C41A 1_555 1_555
C29A C19A 1_555 1_555
H27A C29A 1_555 1_555
H39A C38A 1_555 1_555
H44A C41A 1_555 1_555
H9A C16A 1_555 1_555
C8A C1A 1_555 1_555
C4A C8A 1_555 1_555
C11A C3A 1_555 1_555
H4A C11A 1_555 1_555
C13A C4A 1_555 1_555
C23A C13A 1_555 1_555
H17A C23A 1_555 1_555
C34A C23A 1_555 1_555
H33A C34A 1_555 1_555
C37A C34A 1_555 1_555
C33A C37A 1_555 1_555
C30A C13A 1_555 1_555
H28A C30A 1_555 1_555
H32A C33A 1_555 1_555
H38A C37A 1_555 1_555
H3A C8A 1_555 1_555
H5A C12A 1_555 1_555
H6A C12A 1_555 1_555
C15 C18 1_555 1_555
C25 C26 1_555 1_555
C34 C37 1_555 1_555
C38 C41 1_555 1_555
C48 C50 1_555 1_555
C49 C51 1_555 1_555
C5A C14A 1_555 1_555
C15A C18A 1_555 1_555
C38A C29A 1_555 1_555
C4A C11A 1_555 1_555
C33A C30A 1_555 1_555

#END
