
#######################################################################
#
#                 Cambridge Crystallographic Data Centre
#                                CCDC 
#
#######################################################################
#
# If this CIF has been generated from an entry in the Cambridge 
# Structural Database, then it will include bibliographic, chemical, 
# crystal, experimental, refinement or atomic coordinate data resulting 
# from the CCDC's data processing and validation procedures.
#
#######################################################################

data_TUZZIX
_chemical_formula_moiety         'C16 H14 O2 S10,C16 H14 O2 S10 1+,Cl1 O4 1-'
_chemical_name_systematic        
'bis(2-[4,5-bis(ethylthio)-1,3-dithiol-2-ylidene]-5-(4,5-ethylenedithio-1,3-dithiol-2-ylidene)-1,3,4,6-tetrathiapentalene) perchlorate'
_symmetry_cell_setting           monoclinic
_symmetry_space_group_name_H-M   'C 2/c'
_symmetry_Int_Tables_number      15
_space_group_name_Hall           '-C 2yn'
loop_
_symmetry_equiv_pos_site_id
_symmetry_equiv_pos_as_xyz
1 x,y,z
2 -x,y,1/2-z
3 1/2+x,1/2+y,z
4 1/2-x,1/2+y,1/2-z
5 -x,-y,-z
6 x,-y,1/2+z
7 1/2-x,1/2-y,-z
8 1/2+x,1/2-y,1/2+z
_cell_length_a                   24.60(6)
_cell_length_b                   5.700(4)
_cell_length_c                   33.91(5)
_cell_angle_alpha                90
_cell_angle_beta                 101.7(2)
_cell_angle_gamma                90
_cell_volume                     4656.07
_exptl_crystal_colour            black
_exptl_crystal_description       needle
_cell_formula_units_Z            4
loop_
_atom_site_label
_atom_site_type_symbol
_atom_site_fract_x
_atom_site_fract_y
_atom_site_fract_z
S1 S 0.7640(2) -1.1244(9) 0.6517(1)
S2 S 0.6345(2) -1.1001(8) 0.6683(1)
S3 S 0.7318(1) -0.7205(8) 0.5954(1)
S4 S 0.6159(1) -0.7059(8) 0.6087(1)
S5 S 0.7041(1) -0.2610(7) 0.5358(1)
S6 S 0.5884(1) -0.2565(7) 0.5514(1)
S7 S 0.6770(1) 0.1725(7) 0.4808(1)
S8 S 0.5620(1) 0.1886(7) 0.4969(1)
S9 S 0.6467(1) 0.6095(8) 0.4206(1)
S10 S 0.5318(1) 0.6241(8) 0.4373(1)
O1 O 0.6160(3) 0.944(2) 0.3642(3)
O2 O 0.5064(4) 0.968(2) 0.3835(3)
C1 C 0.7962(5) -0.772(3) 0.7163(4)
C2 C 0.6619(9) -0.734(3) 0.7276(5)
C3 C 0.8200(7) -0.887(6) 0.6807(8)
C4 C 0.6042(9) -0.885(5) 0.7005(7)
C5 C 0.7138(5) -0.914(2) 0.6300(4)
C6 C 0.6622(5) -0.919(3) 0.6358(4)
C7 C 0.6538(5) -0.384(2) 0.5626(4)
C8 C 0.6680(6) -0.564(3) 0.5863(4)
C9 C 0.6591(5) -0.048(3) 0.5121(4)
C10 C 0.6050(5) -0.039(2) 0.5186(4)
C11 C 0.6131(6) 0.305(2) 0.4742(5)
C12 C 0.5985(6) 0.480(3) 0.4461(4)
C13 C 0.6027(8) 0.796(2) 0.3963(5)
C14 C 0.5476(6) 0.811(3) 0.4029(4)
C15 C 0.5662(8) 1.009(4) 0.3326(6)
C16 C 0.520(1) 1.164(4) 0.3646(7)
H1 H 0.8117 -0.8397 0.7408
H2 H 0.8075 -0.6055 0.7171
H3 H 0.7577 -0.7777 0.7102
H4 H 0.6631 -0.7392 0.7559
H5 H 0.6959 -0.8115 0.7232
H6 H 0.6632 -0.5770 0.7191
H7 H 0.8563 -0.9898 0.6883
H8 H 0.8308 -0.7945 0.6583
H9 H 0.5787 -0.7765 0.6843
H10 H 0.5841 -0.9624 0.7183
H11 H 0.5768 1.1127 0.3119
H12 H 0.5488 0.8750 0.3178
H13 H 0.4883 1.2428 0.3485
H14 H 0.5400 1.2773 0.3828
Cl1 Cl 0.5000 0.438(2) 0.2500
O3 O 0.473(1) 0.524(6) 0.2149(6)
O4 O 0.4475(6) 0.278(4) 0.2566(4)
O3A O 0.527(1) 0.524(6) 0.2851(6)
O4A O 0.5525(6) 0.278(4) 0.2434(4)
loop_
_geom_bond_atom_site_label_1
_geom_bond_atom_site_label_2
_geom_bond_site_symmetry_1
_geom_bond_site_symmetry_2
Cl1 O3 1_555 1_555
S1 C3 1_555 1_555
S2 C4 1_555 1_555
S3 C5 1_555 1_555
S4 C6 1_555 1_555
S5 C7 1_555 1_555
S6 C7 1_555 1_555
S7 C9 1_555 1_555
S8 C10 1_555 1_555
S9 C12 1_555 1_555
S10 C12 1_555 1_555
O1 C13 1_555 1_555
O2 C14 1_555 1_555
O4 Cl1 1_555 1_555
C1 C3 1_555 1_555
C2 C4 1_555 1_555
C3 H7 1_555 1_555
C4 H9 1_555 1_555
C5 S1 1_555 1_555
C6 S2 1_555 1_555
C7 C8 1_555 1_555
C8 S3 1_555 1_555
C9 S5 1_555 1_555
C10 S6 1_555 1_555
C11 S7 1_555 1_555
C12 C11 1_555 1_555
C13 S9 1_555 1_555
C14 S10 1_555 1_555
C15 O1 1_555 1_555
C16 O2 1_555 1_555
H1 C1 1_555 1_555
H2 C1 1_555 1_555
H3 C1 1_555 1_555
H4 C2 1_555 1_555
H5 C2 1_555 1_555
H6 C2 1_555 1_555
H8 C3 1_555 1_555
H10 C4 1_555 1_555
H11 C15 1_555 1_555
H12 C15 1_555 1_555
H13 C16 1_555 1_555
H14 C16 1_555 1_555
O3A Cl1 1_555 1_555
O4A Cl1 1_555 1_555
S4 C8 1_555 1_555
S8 C11 1_555 1_555
C5 C6 1_555 1_555
C9 C10 1_555 1_555
C13 C14 1_555 1_555

#END
