
#######################################################################
#
#                 Cambridge Crystallographic Data Centre
#                                CCDC 
#
#######################################################################
#
# If this CIF has been generated from an entry in the Cambridge 
# Structural Database, then it will include bibliographic, chemical, 
# crystal, experimental, refinement or atomic coordinate data resulting 
# from the CCDC's data processing and validation procedures.
#
#######################################################################

data_UBADOT
_chemical_formula_moiety         'C18 H26 N4 2+,2(Cl1 1-)'
_chemical_name_systematic        
"N,N'-bis(pyridin-3-ylmethyl)cyclohexane-1,4-diaminium dichloride"
_symmetry_cell_setting           monoclinic
_symmetry_space_group_name_H-M   'P 21/n'
_symmetry_Int_Tables_number      14
_space_group_name_Hall           '-P 2yn'
loop_
_symmetry_equiv_pos_site_id
_symmetry_equiv_pos_as_xyz
1 x,y,z
2 1/2-x,1/2+y,1/2-z
3 -x,-y,-z
4 1/2+x,1/2-y,1/2+z
_cell_length_a                   10.4637(2)
_cell_length_b                   8.1942(2)
_cell_length_c                   11.2797(2)
_cell_angle_alpha                90
_cell_angle_beta                 107.8120(10)
_cell_angle_gamma                90
_cell_volume                     920.781
_exptl_crystal_colour            colorless
_exptl_crystal_description       block
_cell_formula_units_Z            2
loop_
_atom_site_label
_atom_site_type_symbol
_atom_site_fract_x
_atom_site_fract_y
_atom_site_fract_z
Cl1 Cl 0.40846(3) 0.04783(3) 0.28633(2)
N1 N 0.63461(9) 0.19285(11) 0.51048(9)
H1 H 0.5756(14) 0.1538(18) 0.4416(13)
H2 H 0.6295(14) 0.1263(19) 0.5696(14)
N2 N 0.83020(13) -0.19199(14) 0.33231(10)
C1 C 0.54173(12) 0.64376(14) 0.44414(11)
H3 H 0.6086 0.6937 0.5170
H4 H 0.5352 0.7127 0.3704
C2 C 0.58760(13) 0.47226(14) 0.42261(11)
H5 H 0.5242 0.4254 0.3462
H6 H 0.6773 0.4780 0.4106
C3 C 0.59394(11) 0.36313(13) 0.53315(10)
H7 H 0.6618 0.4083 0.6089
C4 C 0.77439(12) 0.18178(15) 0.50226(12)
H8 H 0.8381 0.2237 0.5804
H9 H 0.7819 0.2515 0.4330
C5 C 0.81211(11) 0.00954(14) 0.48115(10)
C6 C 0.79449(14) -0.04487(16) 0.36097(12)
H10 H 0.7541 0.0278 0.2944
C7 C 0.88687(13) -0.29136(15) 0.42730(12)
H11 H 0.9154 -0.3959 0.4092
C8 C 0.90643(13) -0.25138(16) 0.54997(12)
H12 H 0.9454 -0.3275 0.6144
C9 C 0.86810(13) -0.09778(16) 0.57749(11)
H13 H 0.8801 -0.0667 0.6613
N1B N 0.36539(9) 0.80715(11) 0.48952(9)
H1B H 0.4244(14) 0.8462(18) 0.5584(13)
H2B H 0.3705(14) 0.8737(19) 0.4304(14)
N2B N 0.16980(13) 1.19199(14) 0.66769(10)
C1B C 0.45827(12) 0.35624(14) 0.55586(11)
H3B H 0.3914 0.3063 0.4830
H4B H 0.4648 0.2873 0.6296
C2B C 0.41240(13) 0.52774(14) 0.57739(11)
H5B H 0.4758 0.5746 0.6538
H6B H 0.3227 0.5220 0.5894
C3B C 0.40606(11) 0.63687(13) 0.46685(10)
H7B H 0.3382 0.5917 0.3911
C4B C 0.22561(12) 0.81822(15) 0.49774(12)
H8B H 0.1619 0.7763 0.4196
H9B H 0.2181 0.7485 0.5670
C5B C 0.18789(11) 0.99046(14) 0.51885(10)
C6B C 0.20551(14) 1.04487(16) 0.63903(12)
H10B H 0.2459 0.9722 0.7056
C7B C 0.11313(13) 1.29136(15) 0.57270(12)
H11B H 0.0846 1.3959 0.5908
C8B C 0.09357(13) 1.25138(16) 0.45003(12)
H12B H 0.0546 1.3275 0.3856
C9B C 0.13190(13) 1.09778(16) 0.42251(11)
H13B H 0.1199 1.0667 0.3387
loop_
_geom_bond_atom_site_label_1
_geom_bond_atom_site_label_2
_geom_bond_site_symmetry_1
_geom_bond_site_symmetry_2
N1 H1 1_555 1_555
H2 N1 1_555 1_555
N2 C6 1_555 1_555
C1 H3 1_555 1_555
H4 C1 1_555 1_555
C2 C1 1_555 1_555
H5 C2 1_555 1_555
H6 C2 1_555 1_555
C3 N1 1_555 1_555
H7 C3 1_555 1_555
C4 N1 1_555 1_555
H8 C4 1_555 1_555
H9 C4 1_555 1_555
C5 C4 1_555 1_555
C6 C5 1_555 1_555
H10 C6 1_555 1_555
C7 N2 1_555 1_555
H11 C7 1_555 1_555
C8 C7 1_555 1_555
H12 C8 1_555 1_555
C9 C5 1_555 1_555
H13 C9 1_555 1_555
N1B H1B 1_555 1_555
H2B N1B 1_555 1_555
N2B C6B 1_555 1_555
C1B C3 1_555 1_555
H3B C1B 1_555 1_555
H4B C1B 1_555 1_555
C2B C1B 1_555 1_555
H5B C2B 1_555 1_555
H6B C2B 1_555 1_555
C3B C1 1_555 1_555
H7B C3B 1_555 1_555
C4B N1B 1_555 1_555
H8B C4B 1_555 1_555
H9B C4B 1_555 1_555
C5B C4B 1_555 1_555
C6B C5B 1_555 1_555
H10B C6B 1_555 1_555
C7B N2B 1_555 1_555
H11B C7B 1_555 1_555
C8B C7B 1_555 1_555
H12B C8B 1_555 1_555
C9B C5B 1_555 1_555
H13B C9B 1_555 1_555
C2 C3 1_555 1_555
C8 C9 1_555 1_555
N1B C3B 1_555 1_555
C2B C3B 1_555 1_555
C8B C9B 1_555 1_555

#END
