
#######################################################################
#
#                 Cambridge Crystallographic Data Centre
#                                CCDC 
#
#######################################################################
#
# If this CIF has been generated from an entry in the Cambridge 
# Structural Database, then it will include bibliographic, chemical, 
# crystal, experimental, refinement or atomic coordinate data resulting 
# from the CCDC's data processing and validation procedures.
#
#######################################################################

data_UBALIV
_chemical_compound_source        
'roots and rhizomes of Pileostegia viburnoides var. glabrescens'
_chemical_name_common            n-butyl-beta-D-fructopyranoside
_chemical_formula_moiety         'C10 H20 O6'
_chemical_name_systematic        
2-butoxy-2-(hydroxymethyl)tetrahydro-2H-pyran-3,4,5-triol
_symmetry_cell_setting           triclinic
_symmetry_space_group_name_H-M   'P 1'
_symmetry_Int_Tables_number      1
_space_group_name_Hall           'P 1'
loop_
_symmetry_equiv_pos_site_id
_symmetry_equiv_pos_as_xyz
1 x,y,z
_cell_length_a                   5.358(2)
_cell_length_b                   8.027(4)
_cell_length_c                   14.290(6)
_cell_angle_alpha                80.60(2)
_cell_angle_beta                 85.23(2)
_cell_angle_gamma                70.550(15)
_cell_volume                     571.465
_exptl_crystal_colour            colorless
_cell_formula_units_Z            2
loop_
_atom_site_label
_atom_site_type_symbol
_atom_site_fract_x
_atom_site_fract_y
_atom_site_fract_z
O1 O 0.1043(4) 0.3748(2) 0.27985(15)
H1 H -0.0531 0.4435 0.2802
O2 O 0.5611(4) 0.5324(2) 0.20252(12)
O3 O 0.6512(4) 0.5845(2) 0.37829(12)
H2 H 0.6408 0.6085 0.4338
O4 O 0.5665(4) 0.9620(2) 0.32388(13)
H3 H 0.7090 0.9773 0.3020
O5 O 0.0333(4) 1.0529(2) 0.27464(14)
H4 H 0.0448 0.9849 0.3266
O6 O 0.1135(3) 0.7063(2) 0.21522(12)
C1 C 0.2624(6) 0.4425(3) 0.32706(19)
H5 H 0.4244 0.3438 0.3482
H6 H 0.1638 0.4881 0.3843
C2 C 0.3429(5) 0.5928(3) 0.26537(17)
C3 C 0.4296(5) 0.7013(3) 0.32784(17)
H7 H 0.2823 0.7484 0.3742
C4 C 0.4899(5) 0.8583(3) 0.26619(17)
H8 H 0.6381 0.8115 0.2201
C5 C 0.2450(5) 0.9728(3) 0.21153(18)
H9 H 0.2890 1.0690 0.1664
C6 C 0.1561(5) 0.8588(3) 0.15601(18)
H10 H -0.0105 0.9325 0.1243
H11 H 0.2919 0.8169 0.1061
C7 C 0.5456(6) 0.4108(3) 0.14150(18)
H12 H 0.3790 0.4600 0.1064
H13 H 0.5511 0.2946 0.1791
C8 C 0.7833(6) 0.3877(4) 0.0732(2)
H14 H 0.7945 0.2911 0.0363
H15 H 0.9457 0.3494 0.1104
C9 C 0.7768(7) 0.5548(4) 0.0042(2)
H16 H 0.7466 0.6549 0.0407
H17 H 0.9519 0.5347 -0.0289
C10 C 0.5672(9) 0.6078(5) -0.0687(2)
H18 H 0.5815 0.5047 -0.0998
H19 H 0.5916 0.7045 -0.1162
H20 H 0.3919 0.6487 -0.0376
O7 O -0.4224(4) 0.2847(2) 0.59209(15)
H21 H -0.5191 0.2238 0.5860
O8 O 0.1562(4) 0.1293(2) 0.66880(12)
O9 O 0.3776(4) 0.0754(2) 0.49396(13)
H22 H 0.4018 0.0584 0.4370
O10 O 0.6472(4) -0.3011(2) 0.54920(13)
H23 H 0.7249 -0.4001 0.5811
O11 O 0.1832(4) -0.3942(2) 0.59921(15)
H24 H 0.1690 -0.3339 0.5448
O12 O -0.1079(4) -0.0472(2) 0.65725(12)
C11 C -0.1767(5) 0.2165(3) 0.54482(19)
H25 H -0.1034 0.3150 0.5234
H26 H -0.2053 0.1709 0.4877
C12 C 0.0275(5) 0.0658(3) 0.60636(17)
C13 C 0.2512(5) -0.0421(3) 0.54454(17)
H27 H 0.1730 -0.0903 0.4983
C14 C 0.4406(5) -0.1972(3) 0.60643(17)
H28 H 0.5208 -0.1493 0.6522
C15 C 0.2877(5) -0.3128(3) 0.66167(18)
H29 H 0.4083 -0.4082 0.7069
C16 C 0.0601(5) -0.1977(3) 0.71698(19)
H30 H -0.0466 -0.2711 0.7494
H31 H 0.1320 -0.1543 0.7663
C17 C -0.0088(6) 0.2498(4) 0.72981(19)
H32 H -0.1460 0.2017 0.7624
H33 H -0.0981 0.3671 0.6923
C18 C 0.1667(7) 0.2701(4) 0.8016(2)
H34 H 0.0581 0.3593 0.8416
H35 H 0.3030 0.3173 0.7673
C19 C 0.3038(8) 0.0987(4) 0.8653(2)
H36 H 0.1681 0.0477 0.8966
H37 H 0.4207 0.0120 0.8255
C20 C 0.4665(9) 0.1203(5) 0.9407(2)
H38 H 0.5925 0.1793 0.9110
H39 H 0.5634 0.0026 0.9744
H40 H 0.3493 0.1930 0.9857
loop_
_geom_bond_atom_site_label_1
_geom_bond_atom_site_label_2
_geom_bond_site_symmetry_1
_geom_bond_site_symmetry_2
O1 H1 1_555 1_555
O2 C2 1_555 1_555
O3 H2 1_555 1_555
O4 H3 1_555 1_555
O5 H4 1_555 1_555
O6 C2 1_555 1_555
C1 O1 1_555 1_555
H5 C1 1_555 1_555
H6 C1 1_555 1_555
C2 C1 1_555 1_555
C3 O3 1_555 1_555
H7 C3 1_555 1_555
C4 O4 1_555 1_555
H8 C4 1_555 1_555
C5 O5 1_555 1_555
H9 C5 1_555 1_555
C6 O6 1_555 1_555
H10 C6 1_555 1_555
H11 C6 1_555 1_555
C7 O2 1_555 1_555
H12 C7 1_555 1_555
H13 C7 1_555 1_555
C8 C7 1_555 1_555
H14 C8 1_555 1_555
H15 C8 1_555 1_555
C9 C8 1_555 1_555
H16 C9 1_555 1_555
H17 C9 1_555 1_555
C10 C9 1_555 1_555
H18 C10 1_555 1_555
H19 C10 1_555 1_555
H20 C10 1_555 1_555
O7 H21 1_555 1_555
O8 C12 1_555 1_555
O9 H22 1_555 1_555
O10 H23 1_555 1_555
O11 H24 1_555 1_555
O12 C12 1_555 1_555
C11 O7 1_555 1_555
H25 C11 1_555 1_555
H26 C11 1_555 1_555
C12 C11 1_555 1_555
C13 O9 1_555 1_555
H27 C13 1_555 1_555
C14 O10 1_555 1_555
H28 C14 1_555 1_555
C15 O11 1_555 1_555
H29 C15 1_555 1_555
C16 O12 1_555 1_555
H30 C16 1_555 1_555
H31 C16 1_555 1_555
C17 O8 1_555 1_555
H32 C17 1_555 1_555
H33 C17 1_555 1_555
C18 C17 1_555 1_555
H34 C18 1_555 1_555
H35 C18 1_555 1_555
C19 C18 1_555 1_555
H36 C19 1_555 1_555
H37 C19 1_555 1_555
C20 C19 1_555 1_555
H38 C20 1_555 1_555
H39 C20 1_555 1_555
H40 C20 1_555 1_555
C2 C3 1_555 1_555
C3 C4 1_555 1_555
C4 C5 1_555 1_555
C5 C6 1_555 1_555
C12 C13 1_555 1_555
C13 C14 1_555 1_555
C14 C15 1_555 1_555
C15 C16 1_555 1_555

#END
