
#######################################################################
#
#                 Cambridge Crystallographic Data Centre
#                                CCDC 
#
#######################################################################
#
# If this CIF has been generated from an entry in the Cambridge 
# Structural Database, then it will include bibliographic, chemical, 
# crystal, experimental, refinement or atomic coordinate data resulting 
# from the CCDC's data processing and validation procedures.
#
#######################################################################

data_UBANIX
_chemical_formula_moiety         'C40 H40 N2 O5'
_chemical_name_systematic        
5,5'-oxybis{2-[2,6-bis(propan-2-yl)phenyl]-1H-isoindole-1,3(2H)-dione}
_symmetry_cell_setting           monoclinic
_symmetry_space_group_name_H-M   'P 21/c'
_symmetry_Int_Tables_number      14
_space_group_name_Hall           '-P 2ybc'
loop_
_symmetry_equiv_pos_site_id
_symmetry_equiv_pos_as_xyz
1 x,y,z
2 -x,1/2+y,1/2-z
3 -x,-y,-z
4 x,1/2-y,1/2+z
_cell_length_a                   13.8560(7)
_cell_length_b                   20.5314(11)
_cell_length_c                   13.6341(7)
_cell_angle_alpha                90
_cell_angle_beta                 116.970(2)
_cell_angle_gamma                90
_cell_volume                     3456.84
_exptl_crystal_colour            colorless
_exptl_crystal_description       block
_cell_formula_units_Z            4
_exptl_crystal_recrystallization_method Chloroform/n-Hexane
_exptl_crystal_preparation       Luminescent
loop_
_atom_site_label
_atom_site_type_symbol
_atom_site_fract_x
_atom_site_fract_y
_atom_site_fract_z
C1 C 0.2341(2) 0.37490(13) 0.7255(2)
C2 C 0.1939(3) 0.35968(16) 0.7988(3)
H1 H 0.1492 0.3891 0.8104
C3 C 0.2194(3) 0.30149(16) 0.8546(3)
H2 H 0.1917 0.2908 0.9032
C4 C 0.2869(2) 0.25961(14) 0.8363(2)
C5 C 0.3279(2) 0.27574(12) 0.7640(2)
C6 C 0.3022(2) 0.33350(13) 0.7064(2)
H3 H 0.3294 0.3440 0.6573
C7 C 0.3288(3) 0.19441(14) 0.8825(2)
C8 C 0.3978(2) 0.22174(13) 0.7627(2)
C9 C 0.4544(2) 0.11425(12) 0.8599(2)
C10 C 0.5582(2) 0.11254(13) 0.9482(2)
C11 C 0.6104(2) 0.05265(14) 0.9718(2)
H4 H 0.6785 0.0491 1.0318
C12 C 0.5642(3) -0.00111(14) 0.9091(3)
H5 H 0.6013 -0.0406 0.9265
C13 C 0.4630(3) 0.00272(14) 0.8201(3)
H6 H 0.4331 -0.0341 0.7772
C14 C 0.4050(2) 0.06071(13) 0.7935(2)
C15 C 0.6115(3) 0.17149(15) 1.0176(2)
H7 H 0.5774 0.2102 0.9732
C16 C 0.5940(4) 0.1742(2) 1.1186(3)
H8 H 0.6289 0.2122 1.1609
H9 H 0.6241 0.1360 1.1624
H10 H 0.5178 0.1762 1.0971
C17 C 0.7326(3) 0.1761(2) 1.0538(4)
H11 H 0.7455 0.1743 0.9904
H12 H 0.7688 0.1403 1.1019
H13 H 0.7598 0.2164 1.0921
C18 C 0.2941(2) 0.06371(15) 0.6969(2)
H14 H 0.2674 0.1083 0.6927
C19 C 0.2987(4) 0.0501(3) 0.5911(3)
H15 H 0.2270 0.0524 0.5310
H16 H 0.3280 0.0074 0.5939
H17 H 0.3440 0.0819 0.5806
C20 C 0.2152(3) 0.0190(3) 0.7115(5)
H18 H 0.2140 0.0288 0.7798
H19 H 0.2372 -0.0254 0.7123
H20 H 0.1441 0.0252 0.6518
C21 C 0.1492(2) 0.44083(12) 0.5643(2)
C22 C 0.1444(2) 0.50278(12) 0.5226(2)
H21 H 0.1835 0.5365 0.5694
C23 C 0.0818(2) 0.51493(12) 0.4117(2)
H22 H 0.0783 0.5565 0.3830
C24 C 0.02500(19) 0.46407(11) 0.3447(2)
C25 C 0.0312(2) 0.40262(12) 0.3878(2)
C26 C 0.0928(2) 0.38956(12) 0.4972(2)
H23 H 0.0965 0.3478 0.5253
C27 C -0.0499(2) 0.46212(12) 0.2266(2)
C28 C -0.0403(2) 0.35890(14) 0.2976(2)
C29 C -0.1714(2) 0.37615(12) 0.0993(2)
C30 C -0.1436(2) 0.34975(13) 0.0215(2)
C31 C -0.2270(3) 0.32846(17) -0.0762(3)
H24 H -0.2116 0.3105 -0.1302
C32 C -0.3331(3) 0.33378(18) -0.0942(3)
H25 H -0.3884 0.3186 -0.1600
C33 C -0.3585(3) 0.36091(18) -0.0173(3)
H26 H -0.4307 0.3644 -0.0317
C34 C -0.2779(2) 0.38319(15) 0.0818(2)
C35 C -0.0279(3) 0.34365(18) 0.0424(3)
H27 H 0.0161 0.3716 0.1052
C36 C 0.0113(4) 0.2743(2) 0.0732(4)
H28 H 0.0853 0.2712 0.0863
H29 H -0.0326 0.2456 0.0142
H30 H 0.0062 0.2622 0.1387
C37 C -0.0097(4) 0.3655(3) -0.0548(4)
H31 H 0.0654 0.3605 -0.0367
H32 H -0.0301 0.4104 -0.0709
H33 H -0.0529 0.3393 -0.1179
C38 C -0.3061(3) 0.41248(17) 0.1682(3)
H34 H -0.2400 0.4334 0.2228
C39 C -0.3899(4) 0.4643(3) 0.1239(4)
H35 H -0.3685 0.4963 0.0861
H36 H -0.3974 0.4847 0.1834
H37 H -0.4578 0.4454 0.0736
C40 C -0.3343(5) 0.3609(2) 0.2278(4)
H38 H -0.2782 0.3285 0.2548
H39 H -0.4016 0.3409 0.1785
H40 H -0.3412 0.3800 0.2886
N1 N 0.39594(17) 0.17516(10) 0.83621(17)
N2 N -0.08657(17) 0.39769(10) 0.20300(16)
O1 O 0.20928(18) 0.43609(9) 0.67668(15)
O2 O 0.4462(2) 0.21680(11) 0.7096(2)
O3 O 0.3096(2) 0.16238(12) 0.9453(2)
O4 O -0.0583(2) 0.30206(10) 0.30091(17)
O5 O -0.07748(17) 0.50516(9) 0.15942(16)
loop_
_geom_bond_atom_site_label_1
_geom_bond_atom_site_label_2
_geom_bond_site_symmetry_1
_geom_bond_site_symmetry_2
C1 C2 1_555 1_555
C2 H1 1_555 1_555
C3 C2 1_555 1_555
H2 C3 1_555 1_555
C4 C3 1_555 1_555
C5 C4 1_555 1_555
C6 C1 1_555 1_555
H3 C6 1_555 1_555
C7 C4 1_555 1_555
C8 C5 1_555 1_555
C9 C10 1_555 1_555
C10 C11 1_555 1_555
C11 H4 1_555 1_555
C12 C11 1_555 1_555
H5 C12 1_555 1_555
C13 C12 1_555 1_555
H6 C13 1_555 1_555
C14 C9 1_555 1_555
C15 C10 1_555 1_555
H7 C15 1_555 1_555
C16 C15 1_555 1_555
H8 C16 1_555 1_555
H9 C16 1_555 1_555
H10 C16 1_555 1_555
C17 C15 1_555 1_555
H11 C17 1_555 1_555
H12 C17 1_555 1_555
H13 C17 1_555 1_555
C18 C14 1_555 1_555
H14 C18 1_555 1_555
C19 C18 1_555 1_555
H15 C19 1_555 1_555
H16 C19 1_555 1_555
H17 C19 1_555 1_555
C20 C18 1_555 1_555
H18 C20 1_555 1_555
H19 C20 1_555 1_555
H20 C20 1_555 1_555
C21 C22 1_555 1_555
C22 H21 1_555 1_555
C23 C22 1_555 1_555
H22 C23 1_555 1_555
C24 C23 1_555 1_555
C25 C24 1_555 1_555
C26 C21 1_555 1_555
H23 C26 1_555 1_555
C27 C24 1_555 1_555
C28 C25 1_555 1_555
C29 C30 1_555 1_555
C30 C31 1_555 1_555
C31 H24 1_555 1_555
C32 C31 1_555 1_555
H25 C32 1_555 1_555
C33 C32 1_555 1_555
H26 C33 1_555 1_555
C34 C29 1_555 1_555
C35 C30 1_555 1_555
H27 C35 1_555 1_555
C36 C35 1_555 1_555
H28 C36 1_555 1_555
H29 C36 1_555 1_555
H30 C36 1_555 1_555
C37 C35 1_555 1_555
H31 C37 1_555 1_555
H32 C37 1_555 1_555
H33 C37 1_555 1_555
C38 C34 1_555 1_555
H34 C38 1_555 1_555
C39 C38 1_555 1_555
H35 C39 1_555 1_555
H36 C39 1_555 1_555
H37 C39 1_555 1_555
C40 C38 1_555 1_555
H38 C40 1_555 1_555
H39 C40 1_555 1_555
H40 C40 1_555 1_555
N1 C7 1_555 1_555
N2 C27 1_555 1_555
O1 C1 1_555 1_555
O2 C8 1_555 1_555
O3 C7 1_555 1_555
O4 C28 1_555 1_555
O5 C27 1_555 1_555
C5 C6 1_555 1_555
C8 N1 1_555 1_555
C9 N1 1_555 1_555
C13 C14 1_555 1_555
C21 O1 1_555 1_555
C25 C26 1_555 1_555
C28 N2 1_555 1_555
C29 N2 1_555 1_555
C33 C34 1_555 1_555

#END
