
#######################################################################
#
#                 Cambridge Crystallographic Data Centre
#                                CCDC 
#
#######################################################################
#
# If this CIF has been generated from an entry in the Cambridge 
# Structural Database, then it will include bibliographic, chemical, 
# crystal, experimental, refinement or atomic coordinate data resulting 
# from the CCDC's data processing and validation procedures.
#
#######################################################################

data_UBANET
_chemical_formula_moiety         'C30 H32 N2 O5'
_chemical_name_systematic        
5,5'-oxybis(2-cycloheptyl-1H-isoindole-1,3(2H)-dione)
_symmetry_cell_setting           monoclinic
_symmetry_space_group_name_H-M   'C 2/c'
_symmetry_Int_Tables_number      15
_space_group_name_Hall           '-C 2yn'
loop_
_symmetry_equiv_pos_site_id
_symmetry_equiv_pos_as_xyz
1 x,y,z
2 -x,y,1/2-z
3 1/2+x,1/2+y,z
4 1/2-x,1/2+y,1/2-z
5 -x,-y,-z
6 x,-y,1/2+z
7 1/2-x,1/2-y,-z
8 1/2+x,1/2-y,1/2+z
_cell_length_a                   32.3856(16)
_cell_length_b                   5.3119(2)
_cell_length_c                   15.6793(8)
_cell_angle_alpha                90
_cell_angle_beta                 110.527(3)
_cell_angle_gamma                90
_cell_volume                     2526.04
_exptl_crystal_colour            colorless
_exptl_crystal_description       rectangular
_cell_formula_units_Z            4
_exptl_crystal_recrystallization_method Chloroform/n-Hexane
_exptl_crystal_preparation       Luminescent
loop_
_atom_site_label
_atom_site_type_symbol
_atom_site_fract_x
_atom_site_fract_y
_atom_site_fract_z
C1 C 0.01955(12) 0.8888(6) 0.3302(2)
C2 C 0.05661(12) 0.7784(6) 0.3926(3)
H1 H 0.0692 0.6340 0.3787
C3 C 0.07385(12) 0.8948(7) 0.4766(2)
C4 C 0.05482(12) 1.1091(7) 0.4964(2)
C5 C 0.01814(13) 1.2172(6) 0.4325(3)
H2 H 0.0059 1.3640 0.4458
C6 C 0.00025(12) 1.1043(6) 0.3498(2)
H3 H -0.0249 1.1713 0.3063
C7 C 0.11233(15) 0.8240(9) 0.5581(3)
C8 C 0.07845(14) 1.1816(9) 0.5912(3)
C9 C 0.14476(15) 0.9985(11) 0.7183(3)
C10 C 0.18467(15) 1.1264(10) 0.7275(4)
H4 H 0.1765 1.2968 0.7060
H5 H 0.1962 1.0481 0.6846
C11 C 0.22158(17) 1.1481(12) 0.8134(4)
H6 H 0.2480 1.1352 0.7978
H7 H 0.2208 1.3198 0.8338
C12 C 0.2292(2) 1.0013(16) 0.8886(5)
H8 H 0.2542 1.0723 0.9367
H9 H 0.2381 0.8367 0.8746
C13 C 0.1930(3) 0.9609(16) 0.9274(4)
H10 H 0.2059 0.8750 0.9853
H11 H 0.1835 1.1253 0.9403
C14 C 0.15501(17) 0.8259(10) 0.8758(3)
H12 H 0.1333 0.8567 0.9042
H13 H 0.1627 0.6490 0.8853
C15 C 0.13247(16) 0.8562(11) 0.7798(3)
H14 H 0.1285 0.6866 0.7552
H15 H 0.1032 0.9157 0.7736
N1 N 0.11306(11) 1.0024(8) 0.6251(2)
O1 O 0.0000 0.7562(6) 0.2500
O2 O 0.07167(9) 1.3508(6) 0.63491(19)
O3 O 0.13812(11) 0.6552(6) 0.5675(2)
C1A C -0.01955(12) 0.8888(6) 0.1698(2)
C2A C -0.05661(12) 0.7784(6) 0.1074(3)
H1A H -0.0692 0.6340 0.1213
C3A C -0.07385(12) 0.8948(7) 0.0234(2)
C4A C -0.05482(12) 1.1091(7) 0.0036(2)
C5A C -0.01814(13) 1.2172(6) 0.0675(3)
H2A H -0.0059 1.3640 0.0542
C6A C -0.00025(12) 1.1043(6) 0.1502(2)
H3A H 0.0249 1.1713 0.1937
C7A C -0.11233(15) 0.8240(9) -0.0581(3)
C8A C -0.07845(14) 1.1816(9) -0.0912(3)
C9A C -0.14476(15) 0.9985(11) -0.2183(3)
C10A C -0.18467(15) 1.1264(10) -0.2275(4)
H4A H -0.1765 1.2968 -0.2060
H5A H -0.1962 1.0481 -0.1846
C11A C -0.22158(17) 1.1481(12) -0.3134(4)
H6A H -0.2480 1.1352 -0.2978
H7A H -0.2208 1.3198 -0.3338
C12A C -0.2292(2) 1.0013(16) -0.3886(5)
H8A H -0.2542 1.0723 -0.4367
H9A H -0.2381 0.8367 -0.3746
C13A C -0.1930(3) 0.9609(16) -0.4274(4)
H10A H -0.2059 0.8750 -0.4853
H11A H -0.1835 1.1253 -0.4403
C14A C -0.15501(17) 0.8259(10) -0.3758(3)
H12A H -0.1333 0.8567 -0.4042
H13A H -0.1627 0.6490 -0.3853
C15A C -0.13247(16) 0.8562(11) -0.2798(3)
H14A H -0.1285 0.6866 -0.2552
H15A H -0.1032 0.9157 -0.2736
N1A N -0.11306(11) 1.0024(8) -0.1251(2)
O2A O -0.07167(9) 1.3508(6) -0.13491(19)
O3A O -0.13812(11) 0.6552(6) -0.0675(2)
loop_
_geom_bond_atom_site_label_1
_geom_bond_atom_site_label_2
_geom_bond_site_symmetry_1
_geom_bond_site_symmetry_2
C1 C2 1_555 1_555
C2 H1 1_555 1_555
C3 C2 1_555 1_555
C4 C3 1_555 1_555
C5 C4 1_555 1_555
H2 C5 1_555 1_555
C6 C1 1_555 1_555
H3 C6 1_555 1_555
C7 C3 1_555 1_555
C8 C4 1_555 1_555
C9 C10 1_555 1_555
C10 H4 1_555 1_555
H5 C10 1_555 1_555
C11 C10 1_555 1_555
H6 C11 1_555 1_555
H7 C11 1_555 1_555
C12 C11 1_555 1_555
H8 C12 1_555 1_555
H9 C12 1_555 1_555
C13 C12 1_555 1_555
H10 C13 1_555 1_555
H11 C13 1_555 1_555
C14 C13 1_555 1_555
H12 C14 1_555 1_555
H13 C14 1_555 1_555
C15 C9 1_555 1_555
H14 C15 1_555 1_555
H15 C15 1_555 1_555
N1 C7 1_555 1_555
O1 C1 1_555 1_555
O2 C8 1_555 1_555
O3 C7 1_555 1_555
C1A O1 1_555 1_555
C2A C1A 1_555 1_555
H1A C2A 1_555 1_555
C3A C2A 1_555 1_555
C4A C3A 1_555 1_555
C5A C4A 1_555 1_555
H2A C5A 1_555 1_555
C6A C1A 1_555 1_555
H3A C6A 1_555 1_555
C7A C3A 1_555 1_555
C8A C4A 1_555 1_555
C9A C10A 1_555 1_555
C10A H4A 1_555 1_555
H5A C10A 1_555 1_555
C11A C10A 1_555 1_555
H6A C11A 1_555 1_555
H7A C11A 1_555 1_555
C12A C11A 1_555 1_555
H8A C12A 1_555 1_555
H9A C12A 1_555 1_555
C13A C12A 1_555 1_555
H10A C13A 1_555 1_555
H11A C13A 1_555 1_555
C14A C13A 1_555 1_555
H12A C14A 1_555 1_555
H13A C14A 1_555 1_555
C15A C9A 1_555 1_555
H14A C15A 1_555 1_555
H15A C15A 1_555 1_555
N1A C7A 1_555 1_555
O2A C8A 1_555 1_555
O3A C7A 1_555 1_555
C5 C6 1_555 1_555
C8 N1 1_555 1_555
C9 N1 1_555 1_555
C14 C15 1_555 1_555
C5A C6A 1_555 1_555
C8A N1A 1_555 1_555
C9A N1A 1_555 1_555
C14A C15A 1_555 1_555

#END
