
#######################################################################
#
#                 Cambridge Crystallographic Data Centre
#                                CCDC 
#
#######################################################################
#
# If this CIF has been generated from an entry in the Cambridge 
# Structural Database, then it will include bibliographic, chemical, 
# crystal, experimental, refinement or atomic coordinate data resulting 
# from the CCDC's data processing and validation procedures.
#
#######################################################################

data_UBEBUA
_chemical_formula_moiety         'C28 H21 N1 O2'
_chemical_name_systematic        
N-(3-((4-Methoxyphenyl)(phenyl)methylene)-2-benzofuran-1(3H)-ylidene)aniline
_symmetry_cell_setting           triclinic
_symmetry_space_group_name_H-M   'P -1'
_symmetry_Int_Tables_number      2
_space_group_name_Hall           '-P 1'
loop_
_symmetry_equiv_pos_site_id
_symmetry_equiv_pos_as_xyz
1 x,y,z
2 -x,-y,-z
_cell_length_a                   9.335(6)
_cell_length_b                   9.694(6)
_cell_length_c                   11.796(7)
_cell_angle_alpha                88.345(6)
_cell_angle_beta                 78.684(6)
_cell_angle_gamma                88.252(6)
_cell_volume                     1045.94
_exptl_crystal_colour            yellow
_exptl_crystal_description       block
_cell_formula_units_Z            2
loop_
_atom_site_label
_atom_site_type_symbol
_atom_site_fract_x
_atom_site_fract_y
_atom_site_fract_z
O1 O 1.08217(11) 0.74136(11) 0.58643(9)
C1 C 0.83259(16) 0.80554(15) 0.37820(13)
N1 N 1.30013(14) 0.65239(14) 0.63362(11)
C2 C 0.88810(17) 0.80945(15) 0.48845(13)
O2 O 0.71253(16) 0.77361(17) 0.05852(10)
C3 C 1.11056(17) 0.65722(16) 0.40214(13)
C4 C 0.73729(17) 0.70549(17) 0.36191(13)
H1 H 0.7003 0.6461 0.4233
C5 C 1.01467(17) 0.74053(16) 0.48944(13)
C6 C 0.80120(16) 0.88902(16) 0.58485(13)
C7 C 1.23204(17) 0.61524(16) 0.44755(13)
C8 C 1.26277(17) 0.69999(16) 0.74878(13)
C9 C 0.69485(18) 0.69056(18) 0.25703(14)
H2 H 0.6316 0.6213 0.2480
C10 C 0.74736(18) 0.77950(19) 0.16604(14)
C11 C 1.21383(16) 0.66823(16) 0.56384(13)
C12 C 0.88196(19) 0.89558(19) 0.28610(15)
H3 H 0.9445 0.9655 0.2952
C13 C 1.36203(19) 0.77688(19) 0.79077(15)
H4 H 1.4489 0.8019 0.7423
C14 C 1.33151(18) 0.49440(19) 0.27789(14)
H5 H 1.4046 0.4393 0.2350
C15 C 1.10025(18) 0.61629(18) 0.29143(14)
H6 H 1.0201 0.6431 0.2592
C16 C 0.8396(2) 0.8827(2) 0.18123(15)
H7 H 0.8735 0.9441 0.1205
C17 C 1.34385(18) 0.53395(17) 0.38635(13)
H8 H 1.4246 0.5070 0.4177
C18 C 0.81233(18) 0.86753(18) 0.70061(14)
H9 H 0.8762 0.7994 0.7200
C19 C 0.70001(19) 0.98907(18) 0.56063(16)
H10 H 0.6879 1.0036 0.4848
C20 C 1.2111(2) 0.5358(2) 0.23169(15)
H11 H 1.2055 0.5081 0.1579
C21 C 0.7294(2) 0.9465(2) 0.78668(16)
H12 H 0.7390 0.9316 0.8631
C22 C 1.1355(2) 0.6623(2) 0.82326(15)
H13 H 1.0678 0.6097 0.7966
C23 C 1.3330(2) 0.8169(2) 0.90455(17)
H14 H 1.4001 0.8698 0.9316
C24 C 0.6328(2) 1.0469(2) 0.76004(17)
H15 H 0.5785 1.1007 0.8180
C25 C 1.2075(2) 0.7801(2) 0.97787(16)
H16 H 1.1892 0.8072 1.0545
C26 C 0.6173(2) 1.06707(19) 0.64747(17)
H17 H 0.5508 1.1335 0.6294
C27 C 1.1084(2) 0.7025(2) 0.93738(16)
H18 H 1.0226 0.6768 0.9869
C28 C 0.6269(3) 0.6620(3) 0.03798(18)
H19 H 0.6755 0.5764 0.0520
H20 H 0.6140 0.6669 -0.0408
H21 H 0.5331 0.6674 0.0889
loop_
_geom_bond_atom_site_label_1
_geom_bond_atom_site_label_2
_geom_bond_site_symmetry_1
_geom_bond_site_symmetry_2
O1 C5 1_555 1_555
C1 C2 1_555 1_555
N1 C8 1_555 1_555
C2 C5 1_555 1_555
O2 C10 1_555 1_555
C3 C5 1_555 1_555
C4 C1 1_555 1_555
H1 C4 1_555 1_555
C6 C2 1_555 1_555
C7 C3 1_555 1_555
C8 C13 1_555 1_555
C9 C4 1_555 1_555
H2 C9 1_555 1_555
C10 C9 1_555 1_555
C11 O1 1_555 1_555
C12 C1 1_555 1_555
H3 C12 1_555 1_555
C13 H4 1_555 1_555
C14 H5 1_555 1_555
C15 C3 1_555 1_555
H6 C15 1_555 1_555
C16 C10 1_555 1_555
H7 C16 1_555 1_555
C17 C7 1_555 1_555
H8 C17 1_555 1_555
C18 C6 1_555 1_555
H9 C18 1_555 1_555
C19 C6 1_555 1_555
H10 C19 1_555 1_555
C20 C14 1_555 1_555
H11 C20 1_555 1_555
C21 C18 1_555 1_555
H12 C21 1_555 1_555
C22 C8 1_555 1_555
H13 C22 1_555 1_555
C23 C13 1_555 1_555
H14 C23 1_555 1_555
C24 C21 1_555 1_555
H15 C24 1_555 1_555
C25 C23 1_555 1_555
H16 C25 1_555 1_555
C26 C19 1_555 1_555
H17 C26 1_555 1_555
C27 C22 1_555 1_555
H18 C27 1_555 1_555
C28 O2 1_555 1_555
H19 C28 1_555 1_555
H20 C28 1_555 1_555
H21 C28 1_555 1_555
N1 C11 1_555 1_555
C7 C11 1_555 1_555
C12 C16 1_555 1_555
C14 C17 1_555 1_555
C15 C20 1_555 1_555
C24 C26 1_555 1_555
C25 C27 1_555 1_555

#END
