
#######################################################################
#
#                 Cambridge Crystallographic Data Centre
#                                CCDC 
#
#######################################################################
#
# If this CIF has been generated from an entry in the Cambridge 
# Structural Database, then it will include bibliographic, chemical, 
# crystal, experimental, refinement or atomic coordinate data resulting 
# from the CCDC's data processing and validation procedures.
#
#######################################################################

data_UBEBEK
_chemical_formula_moiety         'C29 H27 N1 O9,C1 H2 Cl2'
_chemical_name_systematic        
'Methyl 2-(benzyloxy)-3-(2,2-dimethyl-4,6-dioxo-1,3-dioxan-5-yl)-3-(4-nitrophenyl)-2-phenylpropanoate dichloromethane solvate'
_symmetry_cell_setting           monoclinic
_symmetry_space_group_name_H-M   'P 21/c'
_symmetry_Int_Tables_number      14
_space_group_name_Hall           '-P 2ybc'
loop_
_symmetry_equiv_pos_site_id
_symmetry_equiv_pos_as_xyz
1 x,y,z
2 -x,1/2+y,1/2-z
3 -x,-y,-z
4 x,1/2-y,1/2+z
_cell_length_a                   14.3476(4)
_cell_length_b                   10.1897(3)
_cell_length_c                   20.8480(5)
_cell_angle_alpha                90
_cell_angle_beta                 94.4190(10)
_cell_angle_gamma                90
_cell_volume                     3038.87
_exptl_crystal_colour            colorless
_exptl_crystal_description       block
_cell_formula_units_Z            4
loop_
_atom_site_label
_atom_site_type_symbol
_atom_site_fract_x
_atom_site_fract_y
_atom_site_fract_z
N1 N 0.05045(19) 1.0808(2) 0.60902(11)
C1 C 0.36556(16) 0.7045(2) 0.45613(12)
C2 C 0.38689(18) 0.7570(3) 0.39787(14)
H1 H 0.3485 0.7389 0.3610
C3 C 0.4644(2) 0.8361(3) 0.39369(17)
H2 H 0.4780 0.8709 0.3542
C4 C 0.5214(2) 0.8630(3) 0.4481(2)
H3 H 0.5735 0.9166 0.4456
C5 C 0.5018(2) 0.8113(3) 0.50573(19)
H4 H 0.5407 0.8297 0.5424
C6 C 0.42472(19) 0.7317(3) 0.51032(14)
H5 H 0.4124 0.6962 0.5499
C7 C 0.33288(18) 0.3208(3) 0.36744(12)
C8 C 0.2659(2) 0.2395(3) 0.39032(14)
H6 H 0.2358 0.2649 0.4263
C9 C 0.2428(3) 0.1217(3) 0.3610(2)
H7 H 0.1961 0.0698 0.3764
C10 C 0.2878(4) 0.0814(4) 0.3099(3)
H8 H 0.2727 0.0011 0.2907
C11 C 0.3543(4) 0.1574(5) 0.2869(2)
H9 H 0.3853 0.1288 0.2519
C12 C 0.3772(3) 0.2790(4) 0.31510(16)
H10 H 0.4224 0.3316 0.2983
C13 C 0.15466(16) 0.7966(2) 0.48548(10)
C14 C 0.07522(17) 0.7731(2) 0.51743(10)
H11 H 0.0438 0.6937 0.5111
C15 C 0.04168(17) 0.8650(2) 0.55848(10)
H12 H -0.0119 0.8484 0.5795
C16 C 0.08899(18) 0.9810(2) 0.56757(11)
C17 C 0.16838(19) 1.0079(2) 0.53738(12)
H13 H 0.1997 1.0872 0.5445
C18 C 0.20097(17) 0.9156(2) 0.49641(12)
H14 H 0.2548 0.9329 0.4757
C19 C 0.09107(15) 0.4914(2) 0.42762(10)
C20 C 0.11123(15) 0.6226(2) 0.39865(9)
H15 H 0.0538 0.6740 0.4006
C21 C 0.12854(16) 0.6148(2) 0.32802(10)
C22 C 0.02630(18) 0.4256(2) 0.32165(10)
C23 C 0.0330(2) 0.2988(3) 0.28593(12)
H16 H 0.0963 0.2675 0.2905
H17 H 0.0145 0.3125 0.2412
H18 H -0.0075 0.2350 0.3032
C24 C -0.06952(19) 0.4852(3) 0.31805(14)
H19 H -0.0678 0.5656 0.3421
H20 H -0.1122 0.4252 0.3358
H21 H -0.0898 0.5028 0.2739
C25 C 0.18908(15) 0.7039(2) 0.43563(10)
H22 H 0.2111 0.7627 0.4028
C26 C 0.27770(16) 0.6192(2) 0.45727(10)
C27 C 0.27171(17) 0.5623(2) 0.52522(12)
C28 C 0.2957(3) 0.3794(3) 0.59256(14)
H23 H 0.3163 0.2899 0.5914
H24 H 0.2328 0.3822 0.6052
H25 H 0.3359 0.4277 0.6230
C29 C 0.35966(18) 0.4475(3) 0.39979(13)
H26 H 0.3942 0.4309 0.4408
H27 H 0.3991 0.4981 0.3732
O1 O 0.09012(16) 1.1869(2) 0.61395(11)
O2 O -0.02050(17) 1.0570(2) 0.63479(10)
O3 O 0.29879(13) 0.43723(17) 0.52953(8)
O4 O 0.25043(13) 0.62581(18) 0.57011(8)
O5 O 0.27564(10) 0.51907(15) 0.40937(7)
O6 O 0.17201(12) 0.69490(17) 0.30081(7)
O7 O 0.09067(12) 0.51337(16) 0.29428(7)
O8 O 0.05743(12) 0.39700(15) 0.38751(7)
O9 O 0.10317(11) 0.46678(15) 0.48385(7)
C30 C 0.2899(3) 0.8401(4) 0.67829(17)
Cl1 Cl 0.2923(3) 1.0164(4) 0.68981(17)
Cl2 Cl 0.3910(4) 0.7789(7) 0.7051(3)
Cl3? Cl 0.3530(4) 0.9743(5) 0.6760(3)
Cl4? Cl 0.3649(3) 0.7083(4) 0.71304(17)
loop_
_geom_bond_atom_site_label_1
_geom_bond_atom_site_label_2
_geom_bond_site_symmetry_1
_geom_bond_site_symmetry_2
N1 C16 1_555 1_555
C1 C2 1_555 1_555
C2 H1 1_555 1_555
C3 C2 1_555 1_555
H2 C3 1_555 1_555
C4 C3 1_555 1_555
H3 C4 1_555 1_555
C5 C4 1_555 1_555
H4 C5 1_555 1_555
C6 C1 1_555 1_555
H5 C6 1_555 1_555
C7 C8 1_555 1_555
C8 H6 1_555 1_555
C9 C8 1_555 1_555
H7 C9 1_555 1_555
C10 C9 1_555 1_555
H8 C10 1_555 1_555
C11 C10 1_555 1_555
H9 C11 1_555 1_555
C12 C7 1_555 1_555
H10 C12 1_555 1_555
C13 C14 1_555 1_555
C14 H11 1_555 1_555
C15 C14 1_555 1_555
H12 C15 1_555 1_555
C16 C15 1_555 1_555
C17 C16 1_555 1_555
H13 C17 1_555 1_555
C18 C13 1_555 1_555
H14 C18 1_555 1_555
C19 C20 1_555 1_555
C20 H15 1_555 1_555
C21 C20 1_555 1_555
C22 C23 1_555 1_555
C23 H16 1_555 1_555
H17 C23 1_555 1_555
H18 C23 1_555 1_555
C24 C22 1_555 1_555
H19 C24 1_555 1_555
H20 C24 1_555 1_555
H21 C24 1_555 1_555
C25 C13 1_555 1_555
H22 C25 1_555 1_555
C26 C1 1_555 1_555
C27 C26 1_555 1_555
C28 H23 1_555 1_555
H24 C28 1_555 1_555
H25 C28 1_555 1_555
C29 C7 1_555 1_555
H26 C29 1_555 1_555
H27 C29 1_555 1_555
O1 N1 1_555 1_555
O2 N1 1_555 1_555
O3 C27 1_555 1_555
O4 C27 1_555 1_555
O5 C26 1_555 1_555
O6 C21 1_555 1_555
O7 C21 1_555 1_555
O8 C19 1_555 1_555
O9 C19 1_555 1_555
C30 Cl1 1_555 1_555
Cl2 C30 1_555 1_555
C5 C6 1_555 1_555
C11 C12 1_555 1_555
C17 C18 1_555 1_555
C20 C25 1_555 1_555
C22 O7 1_555 1_555
C22 O8 1_555 1_555
C25 C26 1_555 1_555
C28 O3 1_555 1_555
C29 O5 1_555 1_555

#END
