
#######################################################################
#
#                 Cambridge Crystallographic Data Centre
#                                CCDC 
#
#######################################################################
#
# If this CIF has been generated from an entry in the Cambridge 
# Structural Database, then it will include bibliographic, chemical, 
# crystal, experimental, refinement or atomic coordinate data resulting 
# from the CCDC's data processing and validation procedures.
#
#######################################################################

data_UBEBOV
_chemical_name_common            
(1R,8S)-3-fluoro-N-((S)-1-hydroxy-3-phenylpropan-2-yl)-11-oxatricyclo[6.2.1.0$2,7!]undeca-2,4,6-triene-1-carboxamide
_chemical_formula_moiety         'C20 H20 F1 N1 O3'
_chemical_name_systematic        
(1R,4S)-8-Fluoro-N-((S)-1-hydroxy-3-phenylpropan-2-yl)-1,2,3,4-tetrahydro-1,4-epoxynaphthalene-1-carboxamide
_symmetry_cell_setting           tetragonal
_symmetry_space_group_name_H-M   'P 41'
_symmetry_Int_Tables_number      76
_space_group_name_Hall           'P 4w'
loop_
_symmetry_equiv_pos_site_id
_symmetry_equiv_pos_as_xyz
1 x,y,z
2 -x,-y,1/2+z
3 -y,x,1/4+z
4 y,-x,3/4+z
_cell_length_a                   10.2370(3)
_cell_length_b                   10.2370(3)
_cell_length_c                   16.6750(4)
_cell_angle_alpha                90
_cell_angle_beta                 90
_cell_angle_gamma                90
_cell_volume                     1747.48
_exptl_crystal_colour            colorless
_exptl_crystal_description       Prism
_cell_formula_units_Z            4
loop_
_atom_site_label
_atom_site_type_symbol
_atom_site_fract_x
_atom_site_fract_y
_atom_site_fract_z
N1 N 0.16926(17) -0.01407(17) 0.31151(10)
H1 H 0.1376 -0.0439 0.2674
C1 C 0.2603(2) -0.0949(2) 0.35781(12)
H2 H 0.3285 -0.0376 0.3793
C2 C 0.1927(2) -0.1628(2) 0.42883(14)
H3 H 0.1246 -0.1061 0.4495
H4 H 0.1517 -0.2425 0.4101
C3 C 0.3230(3) -0.3223(3) 0.51321(19)
H5 H 0.2916 -0.3911 0.4823
C4 C 0.4073(3) -0.3472(4) 0.5772(2)
H6 H 0.4331 -0.4326 0.5880
C5 C 0.2361(3) 0.4707(3) 0.1810(2)
H7 H 0.3078 0.5261 0.1854
C6 C 0.4524(3) -0.2476(5) 0.6241(2)
H8 H 0.5071 -0.2654 0.6673
C7 C 0.2130(2) 0.3761(2) 0.23921(17)
C8 C 0.4170(3) -0.1217(4) 0.60777(17)
H9 H 0.4476 -0.0537 0.6397
F1 F 0.29454(16) 0.36826(17) 0.30291(13)
C9 C 0.1095(2) 0.29224(18) 0.23202(13)
O1 O 0.16861(16) 0.15102(16) 0.40164(9)
C10 C 0.1346(2) 0.1041(2) 0.33628(11)
C11 C 0.3251(3) -0.1943(3) 0.30330(15)
H10 H 0.3885 -0.2434 0.3343
H11 H 0.2593 -0.2552 0.2845
O2 O 0.38849(17) -0.1392(3) 0.23650(11)
H12 H 0.3380 -0.1372 0.1983
C12 C 0.3352(2) -0.0957(3) 0.54326(15)
H13 H 0.3129 -0.0097 0.5317
C13 C 0.0254(2) 0.3066(2) 0.16612(13)
C14 C 0.0479(2) 0.18313(19) 0.28163(12)
O3 O -0.00845(16) 0.10393(14) 0.21930(9)
C15 C -0.0810(2) 0.2087(2) 0.18014(15)
H14 H -0.1291 0.1825 0.1320
C16 C -0.1662(2) 0.2599(3) 0.24914(18)
H15 H -0.2453 0.2086 0.2550
H16 H -0.1893 0.3509 0.2413
C17 C 0.0448(3) 0.4015(2) 0.10863(15)
H17 H -0.0125 0.4109 0.0658
C18 C 0.2861(2) -0.1955(2) 0.49572(13)
C19 C 0.1519(3) 0.4819(3) 0.11666(18)
H18 H 0.1679 0.5452 0.0779
C20 C -0.0746(2) 0.2425(3) 0.32176(15)
H19 H -0.1117 0.1834 0.3612
H20 H -0.0551 0.3255 0.3471
loop_
_geom_bond_atom_site_label_1
_geom_bond_atom_site_label_2
_geom_bond_site_symmetry_1
_geom_bond_site_symmetry_2
N1 H1 1_555 1_555
C1 N1 1_555 1_555
H2 C1 1_555 1_555
C2 C1 1_555 1_555
H3 C2 1_555 1_555
H4 C2 1_555 1_555
C3 H5 1_555 1_555
C4 C3 1_555 1_555
H6 C4 1_555 1_555
C5 H7 1_555 1_555
C6 C4 1_555 1_555
H8 C6 1_555 1_555
C7 C5 1_555 1_555
C8 C6 1_555 1_555
H9 C8 1_555 1_555
F1 C7 1_555 1_555
C9 C7 1_555 1_555
O1 C10 1_555 1_555
C10 N1 1_555 1_555
C11 C1 1_555 1_555
H10 C11 1_555 1_555
H11 C11 1_555 1_555
O2 C11 1_555 1_555
H12 O2 1_555 1_555
C12 C8 1_555 1_555
H13 C12 1_555 1_555
C13 C9 1_555 1_555
C14 C9 1_555 1_555
O3 C14 1_555 1_555
C15 C13 1_555 1_555
H14 C15 1_555 1_555
C16 C15 1_555 1_555
H15 C16 1_555 1_555
H16 C16 1_555 1_555
C17 C13 1_555 1_555
H17 C17 1_555 1_555
C18 C2 1_555 1_555
C19 C5 1_555 1_555
H18 C19 1_555 1_555
C20 C14 1_555 1_555
H19 C20 1_555 1_555
H20 C20 1_555 1_555
C3 C18 1_555 1_555
C10 C14 1_555 1_555
C12 C18 1_555 1_555
O3 C15 1_555 1_555
C16 C20 1_555 1_555
C17 C19 1_555 1_555

#END
