
#######################################################################
#
#                 Cambridge Crystallographic Data Centre
#                                CCDC 
#
#######################################################################
#
# If this CIF has been generated from an entry in the Cambridge 
# Structural Database, then it will include bibliographic, chemical, 
# crystal, experimental, refinement or atomic coordinate data resulting 
# from the CCDC's data processing and validation procedures.
#
#######################################################################

data_UBEBAG
_chemical_formula_moiety         'C27 H26 O6'
_chemical_name_systematic        
'Dimethyl 2-(benzyloxy)-3-(2-oxo-2-phenylethyl)-2-phenylsuccinate'
_symmetry_cell_setting           monoclinic
_symmetry_space_group_name_H-M   'P 21/n'
_symmetry_Int_Tables_number      14
_space_group_name_Hall           '-P 2yn'
loop_
_symmetry_equiv_pos_site_id
_symmetry_equiv_pos_as_xyz
1 x,y,z
2 1/2-x,1/2+y,1/2-z
3 -x,-y,-z
4 1/2+x,1/2-y,1/2+z
_cell_length_a                   11.0595(9)
_cell_length_b                   12.4819(10)
_cell_length_c                   17.3890(14)
_cell_angle_alpha                90
_cell_angle_beta                 106.3950(10)
_cell_angle_gamma                90
_cell_volume                     2302.83
_exptl_crystal_colour            colorless
_exptl_crystal_description       prismatic
_cell_formula_units_Z            4
loop_
_atom_site_label
_atom_site_type_symbol
_atom_site_fract_x
_atom_site_fract_y
_atom_site_fract_z
O1 O -0.05334(9) 0.23587(8) 0.04166(6)
O2 O 0.23715(12) 0.53784(10) 0.10677(9)
O3 O 0.25466(10) 0.12018(10) 0.09882(8)
O4 O 0.07809(10) 0.09175(9) 0.13233(7)
O5 O 0.18204(13) 0.30664(11) 0.21646(7)
O6 O 0.01479(11) 0.40779(11) 0.16205(7)
C1 C 0.07346(13) 0.23134(11) 0.03810(9)
C2 C 0.12848(13) 0.34060(12) 0.07547(9)
H1 H 0.0788 0.3980 0.0428
C3 C 0.26620(14) 0.35692(12) 0.07769(10)
H2 H 0.3186 0.3094 0.1175
H3 H 0.2770 0.3378 0.0260
C4 C 0.30958(15) 0.47029(13) 0.09723(9)
C5 C 0.44423(15) 0.49719(13) 0.10627(9)
C6 C 0.48564(19) 0.59987(16) 0.13026(13)
H4 H 0.4303 0.6495 0.1416
C7 C 0.6078(2) 0.62855(19) 0.13730(15)
H5 H 0.6346 0.6978 0.1530
C8 C 0.6904(2) 0.5568(2) 0.12159(12)
H6 H 0.7731 0.5772 0.1265
C9 C 0.65195(17) 0.45423(18) 0.09848(11)
H7 H 0.7086 0.4050 0.0882
C10 C 0.52823(15) 0.42446(14) 0.09047(10)
H8 H 0.5017 0.3552 0.0744
C11 C 0.14647(13) 0.14122(12) 0.09230(9)
C12 C 0.14492(18) 0.01477(17) 0.19169(12)
H9 H 0.1836 -0.0382 0.1663
H10 H 0.0867 -0.0194 0.2156
H11 H 0.2087 0.0510 0.2324
C13 C 0.11347(14) 0.34918(13) 0.15933(10)
C14 C -0.0098(2) 0.4112(2) 0.23899(13)
H12 H -0.0245 0.3399 0.2550
H13 H -0.0829 0.4546 0.2354
H14 H 0.0616 0.4415 0.2779
C15 C 0.07828(13) 0.22310(11) -0.04883(9)
C16 C 0.15203(15) 0.15068(13) -0.07589(10)
H15 H 0.2052 0.1042 -0.0400
C17 C 0.14654(19) 0.14746(15) -0.15644(12)
H16 H 0.1973 0.0994 -0.1740
C18 C 0.0677(2) 0.21382(16) -0.21028(12)
H17 H 0.0640 0.2104 -0.2643
C19 C -0.00609(19) 0.28573(16) -0.18427(11)
H18 H -0.0601 0.3309 -0.2208
C20 C -0.00029(15) 0.29104(14) -0.10438(10)
H19 H -0.0496 0.3408 -0.0872
C21 C -0.13663(14) 0.15466(13) -0.00092(10)
H20 H -0.0928 0.0866 0.0040
H21 H -0.1665 0.1730 -0.0573
C22 C -0.24578(13) 0.14628(12) 0.03396(10)
C23 C -0.36712(15) 0.14410(16) -0.01485(12)
H22 H -0.3822 0.1505 -0.0700
C24 C -0.46785(16) 0.13236(17) 0.01764(16)
H23 H -0.5498 0.1308 -0.0160
C25 C -0.44747(18) 0.12324(16) 0.09780(16)
H24 H -0.5150 0.1154 0.1193
C26 C -0.32741(19) 0.12572(17) 0.14660(14)
H25 H -0.3130 0.1193 0.2017
C27 C -0.22715(16) 0.13754(15) 0.11541(11)
H26 H -0.1457 0.1397 0.1497
loop_
_geom_bond_atom_site_label_1
_geom_bond_atom_site_label_2
_geom_bond_site_symmetry_1
_geom_bond_site_symmetry_2
O1 C1 1_555 1_555
O2 C4 1_555 1_555
O3 C11 1_555 1_555
O4 C11 1_555 1_555
O5 C13 1_555 1_555
O6 C13 1_555 1_555
C1 C2 1_555 1_555
C2 H1 1_555 1_555
C3 C2 1_555 1_555
H2 C3 1_555 1_555
H3 C3 1_555 1_555
C4 C3 1_555 1_555
C5 C4 1_555 1_555
C6 C5 1_555 1_555
H4 C6 1_555 1_555
C7 C6 1_555 1_555
H5 C7 1_555 1_555
C8 C7 1_555 1_555
H6 C8 1_555 1_555
C9 C8 1_555 1_555
H7 C9 1_555 1_555
C10 C5 1_555 1_555
H8 C10 1_555 1_555
C11 C1 1_555 1_555
C12 O4 1_555 1_555
H9 C12 1_555 1_555
H10 C12 1_555 1_555
H11 C12 1_555 1_555
C13 C2 1_555 1_555
C14 O6 1_555 1_555
H12 C14 1_555 1_555
H13 C14 1_555 1_555
H14 C14 1_555 1_555
C15 C1 1_555 1_555
C16 C15 1_555 1_555
H15 C16 1_555 1_555
C17 C16 1_555 1_555
H16 C17 1_555 1_555
C18 C17 1_555 1_555
H17 C18 1_555 1_555
C19 C18 1_555 1_555
H18 C19 1_555 1_555
C20 C15 1_555 1_555
H19 C20 1_555 1_555
C21 O1 1_555 1_555
H20 C21 1_555 1_555
H21 C21 1_555 1_555
C22 C21 1_555 1_555
C23 C22 1_555 1_555
H22 C23 1_555 1_555
C24 C23 1_555 1_555
H23 C24 1_555 1_555
C25 C24 1_555 1_555
H24 C25 1_555 1_555
C26 C25 1_555 1_555
H25 C26 1_555 1_555
C27 C22 1_555 1_555
H26 C27 1_555 1_555
C9 C10 1_555 1_555
C19 C20 1_555 1_555
C26 C27 1_555 1_555

#END
