
#######################################################################
#
#                 Cambridge Crystallographic Data Centre
#                                CCDC 
#
#######################################################################
#
# If this CIF has been generated from an entry in the Cambridge 
# Structural Database, then it will include bibliographic, chemical, 
# crystal, experimental, refinement or atomic coordinate data resulting 
# from the CCDC's data processing and validation procedures.
#
#######################################################################

data_UBECOV
_chemical_formula_moiety         'C24 H21 N1 O2 S1'
_chemical_name_systematic        
3-(Phenylsulfonyl)-2,3,4,5-tetrahydro-1H-phenanthro[9,10-d]azepine
_symmetry_cell_setting           triclinic
_symmetry_space_group_name_H-M   'P -1'
_symmetry_Int_Tables_number      2
_space_group_name_Hall           '-P 1'
loop_
_symmetry_equiv_pos_site_id
_symmetry_equiv_pos_as_xyz
1 x,y,z
2 -x,-y,-z
_cell_length_a                   11.3229(7)
_cell_length_b                   12.5077(9)
_cell_length_c                   13.9083(10)
_cell_angle_alpha                89.843(3)
_cell_angle_beta                 84.564(2)
_cell_angle_gamma                75.634(2)
_cell_volume                     1899.13
_exptl_crystal_colour            colorless
_cell_formula_units_Z            4
loop_
_atom_site_label
_atom_site_type_symbol
_atom_site_fract_x
_atom_site_fract_y
_atom_site_fract_z
S1 S 0.02586(5) 0.04167(4) 0.21870(4)
O1 O -0.08334(13) 0.04022(12) 0.17500(10)
O2 O 0.07479(13) -0.04587(11) 0.28158(10)
N1 N -0.00126(15) 0.15792(13) 0.28150(11)
C1 C 0.3079(2) 0.53836(19) 0.46915(16)
H1 H 0.3677 0.5754 0.4846
C2 C 0.3156(2) 0.43070(19) 0.49905(16)
H2 H 0.3799 0.3946 0.5360
C3 C 0.23021(19) 0.37669(18) 0.47508(15)
H3 H 0.2370 0.3029 0.4952
C4 C 0.13229(18) 0.42832(16) 0.42112(14)
C5 C 0.04348(18) 0.37147(16) 0.39254(14)
C6 C 0.05159(19) 0.25323(16) 0.42196(14)
H4 H -0.0307 0.2472 0.4486
H5 H 0.1067 0.2351 0.4741
C7 C 0.09866(18) 0.16813(16) 0.33917(14)
H6 H 0.1632 0.1907 0.2968
H7 H 0.1355 0.0955 0.3661
C8 C 0.14057(18) 0.05025(15) 0.12580(14)
C9 C 0.10687(19) 0.08525(16) 0.03513(15)
H8 H 0.0240 0.0978 0.0214
C10 C 0.1960(2) 0.10155(17) -0.03507(15)
H9 H 0.1743 0.1249 -0.0975
C11 C 0.3162(2) 0.08378(17) -0.01422(16)
H10 H 0.3768 0.0954 -0.0624
C12 C -0.04685(19) 0.42189(16) 0.33631(14)
C13 C -0.12746(19) 0.35409(16) 0.29814(15)
H11 H -0.1914 0.4035 0.2635
H12 H -0.1692 0.3239 0.3536
C14 C -0.05777(19) 0.25828(16) 0.22982(15)
H13 H -0.1151 0.2402 0.1866
H14 H 0.0071 0.2821 0.1890
C15 C -0.06409(19) 0.53743(16) 0.31331(14)
C16 C 0.02063(19) 0.59602(17) 0.34174(14)
C17 C -0.0007(2) 0.70955(17) 0.32236(15)
H15 H 0.0570 0.7484 0.3389
C18 C -0.1021(2) 0.76530(18) 0.28041(15)
H16 H -0.1149 0.8421 0.2692
C19 C -0.1868(2) 0.70901(18) 0.25422(16)
H17 H -0.2581 0.7480 0.2264
C20 C -0.1673(2) 0.59768(18) 0.26849(15)
H18 H -0.2240 0.5600 0.2480
C21 C 0.12360(19) 0.53888(16) 0.39260(14)
C22 C 0.2141(2) 0.59073(18) 0.41747(16)
H19 H 0.2098 0.6643 0.3977
C23 C 0.26159(18) 0.03094(16) 0.14733(15)
H20 H 0.2838 0.0059 0.2092
C24 C 0.34914(19) 0.04899(17) 0.07664(16)
H21 H 0.4319 0.0375 0.0904
S2 S 0.50664(5) 0.06530(4) 0.31795(4)
O3 O 0.38134(13) 0.08467(12) 0.35677(11)
O4 O 0.56633(15) -0.03813(11) 0.27000(11)
N2 N 0.51387(15) 0.16179(13) 0.23884(12)
C25 C 0.4737(2) 0.74277(18) 0.15633(16)
H22 H 0.4670 0.8197 0.1623
C26 C 0.3792(2) 0.69839(18) 0.19638(15)
H23 H 0.3073 0.7453 0.2286
C27 C 0.3902(2) 0.58726(17) 0.18932(15)
H24 H 0.3254 0.5580 0.2173
C28 C 0.49566(19) 0.51447(16) 0.14131(14)
C29 C 0.50915(18) 0.39648(16) 0.13423(14)
C30 C 0.40972(19) 0.34565(17) 0.17988(16)
H25 H 0.3876 0.2991 0.1305
H26 H 0.3361 0.4057 0.1994
C31 C 0.44395(19) 0.27524(16) 0.26807(15)
H27 H 0.4938 0.3100 0.3069
H28 H 0.3684 0.2721 0.3089
C32 C 0.59341(19) 0.08629(16) 0.41179(14)
C33 C 0.5350(2) 0.14672(17) 0.49394(15)
H29 H 0.4484 0.1739 0.5008
C34 C 0.6036(2) 0.16710(19) 0.56563(17)
H30 H 0.5643 0.2084 0.6220
C35 C 0.7295(2) 0.12721(19) 0.55515(18)
H31 H 0.7765 0.1407 0.6048
C36 C 0.63487(19) 0.15363(17) 0.18636(15)
H32 H 0.6796 0.0749 0.1788
H33 H 0.6825 0.1912 0.2249
C37 C 0.6259(2) 0.20535(17) 0.08631(15)
H34 H 0.7003 0.1695 0.0438
H35 H 0.5546 0.1900 0.0581
C38 C 0.61266(19) 0.32876(17) 0.08753(14)
C39 C 0.70875(19) 0.37411(17) 0.04030(14)
C40 C 0.8144(2) 0.3074(2) -0.01301(16)
H36 H 0.8249 0.2297 -0.0155
C41 C 0.9015(2) 0.3520(2) -0.06097(17)
H37 H 0.9706 0.3055 -0.0969
C42 C 0.8886(2) 0.4653(2) -0.05699(17)
H38 H 0.9487 0.4964 -0.0906
C43 C 0.7894(2) 0.5322(2) -0.00463(16)
H39 H 0.7825 0.6094 -0.0016
C44 C 0.69721(19) 0.48938(18) 0.04496(14)
C45 C 0.58972(19) 0.56062(17) 0.09841(14)
C46 C 0.5760(2) 0.67518(17) 0.10843(15)
H40 H 0.6396 0.7064 0.0811
C47 C 0.7201(2) 0.04701(19) 0.40083(16)
H41 H 0.7600 0.0062 0.3443
C48 C 0.7874(2) 0.0681(2) 0.47330(18)
H42 H 0.8740 0.0416 0.4666
loop_
_geom_bond_atom_site_label_1
_geom_bond_atom_site_label_2
_geom_bond_site_symmetry_1
_geom_bond_site_symmetry_2
S1 O1 1_555 1_555
S2 O3 1_555 1_555
O2 S1 1_555 1_555
O4 S2 1_555 1_555
N1 S1 1_555 1_555
N2 S2 1_555 1_555
C1 H1 1_555 1_555
C2 C1 1_555 1_555
H2 C2 1_555 1_555
C3 C2 1_555 1_555
H3 C3 1_555 1_555
C4 C3 1_555 1_555
C5 C4 1_555 1_555
C6 C5 1_555 1_555
H4 C6 1_555 1_555
H5 C6 1_555 1_555
C7 N1 1_555 1_555
H6 C7 1_555 1_555
H7 C7 1_555 1_555
C8 S1 1_555 1_555
C9 C8 1_555 1_555
H8 C9 1_555 1_555
C10 C9 1_555 1_555
H9 C10 1_555 1_555
C11 C10 1_555 1_555
H10 C11 1_555 1_555
C12 C5 1_555 1_555
C13 C12 1_555 1_555
H11 C13 1_555 1_555
H12 C13 1_555 1_555
C14 N1 1_555 1_555
H13 C14 1_555 1_555
H14 C14 1_555 1_555
C15 C12 1_555 1_555
C16 C15 1_555 1_555
C17 C16 1_555 1_555
H15 C17 1_555 1_555
C18 C17 1_555 1_555
H16 C18 1_555 1_555
C19 C18 1_555 1_555
H17 C19 1_555 1_555
C20 C15 1_555 1_555
H18 C20 1_555 1_555
C21 C4 1_555 1_555
C22 C1 1_555 1_555
H19 C22 1_555 1_555
C23 C8 1_555 1_555
H20 C23 1_555 1_555
C24 C11 1_555 1_555
H21 C24 1_555 1_555
C25 H22 1_555 1_555
C26 C25 1_555 1_555
H23 C26 1_555 1_555
C27 C26 1_555 1_555
H24 C27 1_555 1_555
C28 C27 1_555 1_555
C29 C28 1_555 1_555
C30 C29 1_555 1_555
H25 C30 1_555 1_555
H26 C30 1_555 1_555
C31 N2 1_555 1_555
H27 C31 1_555 1_555
H28 C31 1_555 1_555
C32 S2 1_555 1_555
C33 C32 1_555 1_555
H29 C33 1_555 1_555
C34 C33 1_555 1_555
H30 C34 1_555 1_555
C35 C34 1_555 1_555
H31 C35 1_555 1_555
C36 N2 1_555 1_555
H32 C36 1_555 1_555
H33 C36 1_555 1_555
C37 C36 1_555 1_555
H34 C37 1_555 1_555
H35 C37 1_555 1_555
C38 C29 1_555 1_555
C39 C38 1_555 1_555
C40 C39 1_555 1_555
H36 C40 1_555 1_555
C41 C40 1_555 1_555
H37 C41 1_555 1_555
C42 C41 1_555 1_555
H38 C42 1_555 1_555
C43 C42 1_555 1_555
H39 C43 1_555 1_555
C44 C39 1_555 1_555
C45 C28 1_555 1_555
C46 C25 1_555 1_555
H40 C46 1_555 1_555
C47 C32 1_555 1_555
H41 C47 1_555 1_555
C48 C35 1_555 1_555
H42 C48 1_555 1_555
C6 C7 1_555 1_555
C13 C14 1_555 1_555
C16 C21 1_555 1_555
C19 C20 1_555 1_555
C21 C22 1_555 1_555
C23 C24 1_555 1_555
C30 C31 1_555 1_555
C37 C38 1_555 1_555
C43 C44 1_555 1_555
C44 C45 1_555 1_555
C45 C46 1_555 1_555
C47 C48 1_555 1_555

#END
