
#######################################################################
#
#                 Cambridge Crystallographic Data Centre
#                                CCDC 
#
#######################################################################
#
# If this CIF has been generated from an entry in the Cambridge 
# Structural Database, then it will include bibliographic, chemical, 
# crystal, experimental, refinement or atomic coordinate data resulting 
# from the CCDC's data processing and validation procedures.
#
#######################################################################

data_UBESID
_chemical_formula_moiety         'C36 H26 O4,C10 H2 N4'
_chemical_name_systematic        
'7,16-Diacetoxy-(6\a,8\a,15\a,17\a)-6,8,15,17-tetrahydro-6,17:8,15-dimethanoheptacene 1,2,4,5-tetracyanobenzene solvate'
_symmetry_cell_setting           orthorhombic
_symmetry_space_group_name_H-M   'P n m a'
_symmetry_Int_Tables_number      62
_space_group_name_Hall           '-P 2ac 2n'
loop_
_symmetry_equiv_pos_site_id
_symmetry_equiv_pos_as_xyz
1 x,y,z
2 1/2+x,y,1/2-z
3 x,1/2-y,z
4 1/2-x,1/2+y,1/2+z
5 -x,-y,-z
6 1/2-x,-y,1/2+z
7 -x,1/2+y,-z
8 1/2+x,1/2-y,1/2-z
_cell_length_a                   9.6853(3)
_cell_length_b                   29.8264(9)
_cell_length_c                   12.6029(3)
_cell_angle_alpha                90
_cell_angle_beta                 90
_cell_angle_gamma                90
_cell_volume                     3640.7
_exptl_crystal_colour            yellow
_exptl_crystal_description       plate
_cell_formula_units_Z            4
_exptl_crystal_recrystallization_method toluene/dichloromethane
loop_
_atom_site_label
_atom_site_type_symbol
_atom_site_fract_x
_atom_site_fract_y
_atom_site_fract_z
N1 N 0.1642(4) 0.53316(12) 0.6638(3)
N2 N 0.1571(4) 0.53670(13) 0.3507(3)
C20 C 0.5017(3) 0.49819(11) 0.6101(3)
H13 H 0.5033 0.4969 0.6861
C21 C 0.3832(3) 0.51140(12) 0.5582(3)
C22 C 0.3806(3) 0.51289(11) 0.4465(3)
C23 C 0.2611(4) 0.52339(13) 0.6179(3)
C24 C 0.2564(4) 0.52657(13) 0.3926(3)
C22D C 0.6194(3) 0.48711(11) 0.5535(3)
C21D C 0.6168(3) 0.48860(12) 0.4418(3)
C20D C 0.4983(3) 0.50181(11) 0.3899(3)
H13D H 0.4967 0.5031 0.3139
C23D C 0.7389(4) 0.47661(13) 0.3821(3)
N1D N 0.8358(4) 0.46684(12) 0.3362(3)
C24D C 0.7436(4) 0.47343(13) 0.6074(3)
N2D N 0.8429(4) 0.46330(13) 0.6493(3)
O1 O 0.2592(5) 0.7500 0.7505(3)
O2 O 0.4538(9) 0.7108(3) 0.7639(6)
O3 O 0.3491(12) 0.7500 0.9239(8)
O4 O 0.2106(4) 0.7500 0.3070(3)
O5 O 0.0950(10) 0.7500 0.1429(6)
O6 O -0.0017(8) 0.7219(3) 0.3102(7)
C1 C 0.3653(4) 0.64221(13) 0.4593(3)
C2 C 0.4709(4) 0.62882(13) 0.3946(4)
H3 H 0.4603 0.6299 0.3190
C3 C 0.5975(4) 0.61350(12) 0.4403(3)
C4 C 0.7106(5) 0.59958(15) 0.3787(4)
H4 H 0.7048 0.6016 0.3029
C5 C 0.8271(5) 0.58430(16) 0.4237(5)
H5 H 0.9037 0.5752 0.3804
C6 C 0.8376(5) 0.58097(15) 0.5328(5)
H6 H 0.9199 0.5692 0.5646
C7 C 0.7321(4) 0.59437(14) 0.5960(4)
H7 H 0.7415 0.5924 0.6716
C8 C 0.6088(4) 0.61140(13) 0.5533(3)
C9 C 0.4969(4) 0.62614(13) 0.6187(4)
H8 H 0.5049 0.6253 0.6945
C10 C 0.3810(4) 0.64139(13) 0.5723(3)
C11 C 0.2223(4) 0.66156(14) 0.4373(4)
H9 H 0.1840 0.6561 0.3684
C12 C 0.2479(4) 0.66090(14) 0.6168(4)
H10 H 0.2292 0.6547 0.6900
C13 C 0.1452(5) 0.64185(15) 0.5340(4)
H11 H 0.1422 0.6097 0.5338
H12 H 0.0539 0.6539 0.5418
C14 C 0.2291(4) 0.71015(13) 0.4728(3)
C15 C 0.2457(4) 0.71023(14) 0.5839(4)
C16 C 0.2201(5) 0.7500 0.4189(5)
C17 C 0.2564(5) 0.7500 0.6397(5)
C18 C 0.0912(9) 0.7500 0.2624(7)
C19 C 0.3608(12) 0.7317(3) 0.8043(8)
O6B O -0.0017(8) 0.7781(3) 0.3102(7)
C14B C 0.2291(4) 0.78985(13) 0.4728(3)
C11B C 0.2223(4) 0.83844(14) 0.4373(4)
C1B C 0.3653(4) 0.85779(13) 0.4593(3)
C2B C 0.4709(4) 0.87118(13) 0.3946(4)
H3B H 0.4603 0.8701 0.3190
C3B C 0.5975(4) 0.88650(12) 0.4403(3)
C4B C 0.7106(5) 0.90042(15) 0.3787(4)
H4B H 0.7048 0.8984 0.3029
C5B C 0.8271(5) 0.91570(16) 0.4237(5)
H5B H 0.9037 0.9248 0.3804
C6B C 0.8376(5) 0.91903(15) 0.5328(5)
H6B H 0.9199 0.9308 0.5646
C7B C 0.7321(4) 0.90563(14) 0.5960(4)
H7B H 0.7415 0.9076 0.6716
C8B C 0.6088(4) 0.88860(13) 0.5533(3)
C9B C 0.4969(4) 0.87386(13) 0.6187(4)
H8B H 0.5049 0.8747 0.6945
C10B C 0.3810(4) 0.85861(13) 0.5723(3)
C12B C 0.2479(4) 0.83910(14) 0.6168(4)
H10B H 0.2292 0.8453 0.6900
C13B C 0.1452(5) 0.85815(15) 0.5340(4)
H9B H 0.1840 0.8439 0.3684
H11B H 0.1422 0.8903 0.5338
H12B H 0.0539 0.8461 0.5418
C15B C 0.2457(4) 0.78977(14) 0.5839(4)
C19B C 0.3608(12) 0.7683(3) 0.8043(8)
O2B O 0.4538(9) 0.7892(3) 0.7639(6)
H1? H 0.2202 0.7500 0.9599
H2? H 0.2312 0.7500 0.1110
loop_
_geom_bond_atom_site_label_1
_geom_bond_atom_site_label_2
_geom_bond_site_symmetry_1
_geom_bond_site_symmetry_2
O1 C17 1_555 1_555
O2 C19 1_555 1_555
O3 C19 1_555 1_555
O4 C16 1_555 1_555
O5 C18 1_555 1_555
O6 C18 1_555 1_555
C1 C2 1_555 1_555
C2 H3 1_555 1_555
C3 C2 1_555 1_555
C4 C3 1_555 1_555
H4 C4 1_555 1_555
C5 C4 1_555 1_555
H5 C5 1_555 1_555
C6 C5 1_555 1_555
H6 C6 1_555 1_555
C7 C6 1_555 1_555
H7 C7 1_555 1_555
C8 C3 1_555 1_555
C9 C8 1_555 1_555
H8 C9 1_555 1_555
C10 C1 1_555 1_555
C11 C1 1_555 1_555
H9 C11 1_555 1_555
C12 C10 1_555 1_555
H10 C12 1_555 1_555
C13 C11 1_555 1_555
H11 C13 1_555 1_555
H12 C13 1_555 1_555
C14 C11 1_555 1_555
C15 C12 1_555 1_555
C16 C14 1_555 1_555
C17 C15 1_555 1_555
C18 O4 1_555 1_555
C19 O1 1_555 1_555
N1 C23 1_555 1_555
N2 C24 1_555 1_555
C20 H13 1_555 1_555
C21 C20 1_555 1_555
C22 C21 1_555 1_555
C23 C21 1_555 1_555
C24 C22 1_555 1_555
O6B O6 1_555 1_555
C14B C16 1_555 1_555
C11B C14B 1_555 1_555
C1B C11B 1_555 1_555
C2B C1B 1_555 1_555
H3B C2B 1_555 1_555
C3B C2B 1_555 1_555
C4B C3B 1_555 1_555
H4B C4B 1_555 1_555
C5B C4B 1_555 1_555
H5B C5B 1_555 1_555
C6B C5B 1_555 1_555
H6B C6B 1_555 1_555
C7B C6B 1_555 1_555
H7B C7B 1_555 1_555
C8B C3B 1_555 1_555
C9B C8B 1_555 1_555
H8B C9B 1_555 1_555
C10B C1B 1_555 1_555
C12B C10B 1_555 1_555
H10B C12B 1_555 1_555
C13B C11B 1_555 1_555
H9B C11B 1_555 1_555
H11B C13B 1_555 1_555
H12B C13B 1_555 1_555
C15B C17 1_555 1_555
C19B O1 1_555 1_555
O2B C19B 1_555 1_555
C22D C20 1_555 1_555
C21D C22D 1_555 1_555
C20D C22 1_555 1_555
H13D C20D 1_555 1_555
C23D C21D 1_555 1_555
N1D C23D 1_555 1_555
C24D C22D 1_555 1_555
N2D C24D 1_555 1_555
O3 C19B 1_555 1_555
C7 C8 1_555 1_555
C9 C10 1_555 1_555
C12 C13 1_555 1_555
C14 C15 1_555 1_555
C18 O6B 1_555 1_555
C19 C19B 1_555 1_555
C14B C15B 1_555 1_555
C7B C8B 1_555 1_555
C9B C10B 1_555 1_555
C12B C13B 1_555 1_555
C12B C15B 1_555 1_555
C21D C20D 1_555 1_555

#END
