
#######################################################################
#
#                 Cambridge Crystallographic Data Centre
#                                CCDC 
#
#######################################################################
#
# If this CIF has been generated from an entry in the Cambridge 
# Structural Database, then it will include bibliographic, chemical, 
# crystal, experimental, refinement or atomic coordinate data resulting 
# from the CCDC's data processing and validation procedures.
#
#######################################################################

data_UBETUQ
_chemical_formula_moiety         'C34 H26 O2,C6 H4 N2 O4,2(C2 H6 O1)'
_chemical_name_systematic        
'7,16-Dimethoxy-(6\a,8\a,15\a,17\a)-6,8,15,17-tetrahydro-6,17:8,15-dimethanoheptacene 1,4-dinitrobenzene clathrate ethanol solvate'
_symmetry_cell_setting           orthorhombic
_symmetry_space_group_name_H-M   'P b c n'
_symmetry_Int_Tables_number      60
_space_group_name_Hall           '-P 2n 2ab'
loop_
_symmetry_equiv_pos_site_id
_symmetry_equiv_pos_as_xyz
1 x,y,z
2 1/2+x,1/2+y,1/2-z
3 x,-y,1/2+z
4 1/2-x,1/2+y,z
5 -x,-y,-z
6 1/2-x,1/2-y,1/2+z
7 -x,y,1/2-z
8 1/2+x,1/2-y,-z
_cell_length_a                   17.3129(3)
_cell_length_b                   21.8166(5)
_cell_length_c                   9.2089(2)
_cell_angle_alpha                90
_cell_angle_beta                 90
_cell_angle_gamma                90
_cell_volume                     3478.28
_exptl_crystal_colour            orange
_exptl_crystal_description       needles
_cell_formula_units_Z            4
_exptl_crystal_recrystallization_method ethanol/dichloromethane
loop_
_atom_site_label
_atom_site_type_symbol
_atom_site_fract_x
_atom_site_fract_y
_atom_site_fract_z
O1 O 0.02858(10) 0.16840(9) 1.04827(15)
C1 C -0.15334(12) 0.23680(10) 0.9161(2)
C2 C -0.15165(13) 0.28818(12) 0.9993(2)
H1 H -0.1337 0.2859 1.0977
C3 C -0.17517(13) 0.34522(11) 0.9387(2)
C4 C -0.17300(16) 0.40037(13) 1.0201(3)
H2 H -0.1545 0.3996 1.1183
C5 C -0.1969(2) 0.45434(14) 0.9589(3)
H3 H -0.1958 0.4911 1.0163
C6 C -0.22409(18) 0.45654(14) 0.8164(3)
H4 H -0.2401 0.4949 0.7754
C7 C -0.22610(15) 0.40420(12) 0.7351(3)
H5 H -0.2449 0.4057 0.6371
C8 C -0.20161(13) 0.34728(11) 0.7926(2)
C9 C -0.20151(12) 0.29266(11) 0.7080(2)
H6 H -0.2180 0.2939 0.6085
C10 C -0.17754(12) 0.23944(10) 0.7674(2)
C11 C -0.12915(13) 0.17072(11) 0.9425(2)
H7 H -0.1269 0.1574 1.0418
C12 C -0.16573(13) 0.17484(10) 0.7070(2)
H8 H -0.1926 0.1651 0.6187
C13 C -0.18705(14) 0.13711(12) 0.8423(3)
H9 H -0.1768 0.0941 0.8317
H10 H -0.2397 0.1436 0.8712
C14 C -0.05570(12) 0.16396(9) 0.8530(2)
C15 C 0.07791(12) 0.16551(9) 0.7940(2)
C16 C 0.01978(12) 0.16542(9) 0.9000(2)
C17 C 0.1008(2) 0.1736(2) 1.1118(3)
H11 H 0.0951 0.1780 1.2149
H12 H 0.1268 0.2089 1.0733
H13 H 0.1306 0.1375 1.0911
C15F C -0.07791(12) 0.16551(9) 0.7060(2)
C16F C -0.01978(12) 0.16542(9) 0.6000(2)
O1F O -0.02858(10) 0.16840(9) 0.45173(15)
C17F C -0.1008(2) 0.1736(2) 0.3882(3)
H11F H -0.0951 0.1780 0.2851
H12F H -0.1268 0.2089 0.4267
H13F H -0.1306 0.1375 0.4089
C14F C 0.05570(12) 0.16396(9) 0.6470(2)
C11F C 0.12915(13) 0.17072(11) 0.5575(2)
C1F C 0.15334(12) 0.23680(10) 0.5839(2)
C2F C 0.15165(13) 0.28818(12) 0.5007(2)
H1F H 0.1337 0.2859 0.4023
C3F C 0.17517(13) 0.34522(11) 0.5613(2)
C4F C 0.17300(16) 0.40037(13) 0.4799(3)
H2F H 0.1545 0.3996 0.3817
C5F C 0.1969(2) 0.45434(14) 0.5411(3)
H3F H 0.1958 0.4911 0.4837
C6F C 0.22409(18) 0.45654(14) 0.6836(3)
H4F H 0.2401 0.4949 0.7246
C7F C 0.22610(15) 0.40420(12) 0.7649(3)
H5F H 0.2449 0.4057 0.8629
C8F C 0.20161(13) 0.34728(11) 0.7074(2)
C9F C 0.20151(12) 0.29266(11) 0.7920(2)
H6F H 0.2180 0.2939 0.8915
C10F C 0.17754(12) 0.23944(10) 0.7326(2)
C12F C 0.16573(13) 0.17484(10) 0.7930(2)
H8F H 0.1926 0.1651 0.8813
C13F C 0.18705(14) 0.13711(12) 0.6577(3)
H7F H 0.1269 0.1574 0.4582
H9F H 0.1768 0.0941 0.6683
H10F H 0.2397 0.1436 0.6288
C21 C -0.058(2) 0.0053(15) 0.468(6)
C22 C 0.0077(16) 0.0070(7) 0.390(2)
O5 O -0.0945(15) -0.0039(12) 0.574(2)
C21D C 0.058(2) -0.0053(15) 0.532(6)
C22D C -0.0077(16) -0.0070(7) 0.610(2)
O5D O 0.0945(15) 0.0039(12) 0.426(2)
N1 N 0.0603(2) 0.3814(2) 1.0372(6)
O2 O 0.0682(3) 0.4300(2) 1.0953(6)
O3 O 0.0755(3) 0.3325(2) 1.0897(6)
C18 C 0.0137(3) 0.43649(16) 0.8188(4)
H14 H 0.0264 0.4739 0.8681
C19 C 0.0282(2) 0.38181(18) 0.8887(7)
C20 C 0.0140(2) 0.32581(16) 0.8189(5)
H15 H 0.0256 0.2880 0.8675
C18F C -0.0137(3) 0.43649(16) 0.6812(4)
H14F H -0.0264 0.4739 0.6319
C19F C -0.0282(2) 0.38181(18) 0.6113(7)
N1F N -0.0603(2) 0.3814(2) 0.4628(6)
O2F O -0.0682(3) 0.4300(2) 0.4047(6)
O3F O -0.0755(3) 0.3325(2) 0.4103(6)
C20F C -0.0140(2) 0.32581(16) 0.6811(5)
H15F H -0.0256 0.2880 0.6325
O4? O 0.0905(15) -0.0010(10) 0.495(3)
C23? C -0.0665(13) -0.0058(12) 0.530(3)
loop_
_geom_bond_atom_site_label_1
_geom_bond_atom_site_label_2
_geom_bond_site_symmetry_1
_geom_bond_site_symmetry_2
N1 O2 1_555 1_555
O1 C16 1_555 1_555
C1 C2 1_555 1_555
C2 H1 1_555 1_555
C3 C2 1_555 1_555
C4 C3 1_555 1_555
H2 C4 1_555 1_555
C5 C4 1_555 1_555
H3 C5 1_555 1_555
C6 C5 1_555 1_555
H4 C6 1_555 1_555
C7 C6 1_555 1_555
H5 C7 1_555 1_555
C8 C3 1_555 1_555
C9 C8 1_555 1_555
H6 C9 1_555 1_555
C10 C1 1_555 1_555
C11 C1 1_555 1_555
H7 C11 1_555 1_555
C12 C10 1_555 1_555
H8 C12 1_555 1_555
C13 C11 1_555 1_555
H9 C13 1_555 1_555
H10 C13 1_555 1_555
C14 C11 1_555 1_555
C15 C16 1_555 1_555
C16 C14 1_555 1_555
C17 O1 1_555 1_555
H11 C17 1_555 1_555
H12 C17 1_555 1_555
H13 C17 1_555 1_555
O3 N1 1_555 1_555
C18 H14 1_555 1_555
C19 N1 1_555 1_555
C20 C19 1_555 1_555
H15 C20 1_555 1_555
C21 C22 1_555 1_555
C22 C21D 1_555 1_555
O5 C21 1_555 1_555
C18F C18 1_555 1_555
H14F C18F 1_555 1_555
C19F C18F 1_555 1_555
N1F C19F 1_555 1_555
O2F N1F 1_555 1_555
O3F N1F 1_555 1_555
C20F C20 1_555 1_555
H15F C20F 1_555 1_555
C15F C12 1_555 1_555
C16F C15F 1_555 1_555
O1F C16F 1_555 1_555
C17F O1F 1_555 1_555
H11F C17F 1_555 1_555
H12F C17F 1_555 1_555
H13F C17F 1_555 1_555
C14F C15 1_555 1_555
C11F C14F 1_555 1_555
C1F C11F 1_555 1_555
C2F C1F 1_555 1_555
H1F C2F 1_555 1_555
C3F C2F 1_555 1_555
C4F C3F 1_555 1_555
H2F C4F 1_555 1_555
C5F C4F 1_555 1_555
H3F C5F 1_555 1_555
C6F C5F 1_555 1_555
H4F C6F 1_555 1_555
C7F C6F 1_555 1_555
H5F C7F 1_555 1_555
C8F C3F 1_555 1_555
C9F C8F 1_555 1_555
H6F C9F 1_555 1_555
C10F C1F 1_555 1_555
C12F C15 1_555 1_555
H8F C12F 1_555 1_555
C13F C11F 1_555 1_555
H7F C11F 1_555 1_555
H9F C13F 1_555 1_555
H10F C13F 1_555 1_555
C21D C22D 1_555 1_555
C22D C21 1_555 1_555
O5D C22 1_555 1_555
C7 C8 1_555 1_555
C9 C10 1_555 1_555
C12 C13 1_555 1_555
C14 C15F 1_555 1_555
C18 C19 1_555 1_555
O5 C22D 1_555 1_555
C19F C20F 1_555 1_555
C16F C14F 1_555 1_555
C7F C8F 1_555 1_555
C9F C10F 1_555 1_555
C10F C12F 1_555 1_555
C12F C13F 1_555 1_555
C21D O5D 1_555 1_555

#END
