
#######################################################################
#
#                 Cambridge Crystallographic Data Centre
#                                CCDC 
#
#######################################################################
#
# If this CIF has been generated from an entry in the Cambridge 
# Structural Database, then it will include bibliographic, chemical, 
# crystal, experimental, refinement or atomic coordinate data resulting 
# from the CCDC's data processing and validation procedures.
#
#######################################################################

data_UBETAW
_chemical_formula_moiety         'C36 H26 O4,C10 H14 N1 O2 1+,I3 1-,0.25(H2 O1)'
_chemical_name_systematic        
'7,16-Diacetoxy-(6\a,8\a,15\a,17\a)-6,8,15,17-tetrahydro-6,17:8,15-dimethanoheptacene N-ethyl-4-ethoxycarbonylpyridinium clathrate tri-iodide hydrate'
_symmetry_cell_setting           orthorhombic
_symmetry_space_group_name_H-M   'P b c a'
_symmetry_Int_Tables_number      61
_space_group_name_Hall           '-P 2ac 2ab'
loop_
_symmetry_equiv_pos_site_id
_symmetry_equiv_pos_as_xyz
1 x,y,z
2 1/2+x,y,1/2-z
3 x,1/2-y,1/2+z
4 1/2-x,1/2+y,z
5 -x,-y,-z
6 1/2-x,-y,1/2+z
7 -x,1/2+y,1/2-z
8 1/2+x,1/2-y,-z
_cell_length_a                   20.3547(9)
_cell_length_b                   19.0548(8)
_cell_length_c                   21.9223(9)
_cell_angle_alpha                90
_cell_angle_beta                 90
_cell_angle_gamma                90
_cell_volume                     8502.67
_exptl_crystal_colour            brown
_exptl_crystal_description       bricks
_cell_formula_units_Z            8
_exptl_crystal_recrystallization_method ethanol/dichloromethane
loop_
_atom_site_label
_atom_site_type_symbol
_atom_site_fract_x
_atom_site_fract_y
_atom_site_fract_z
I1 I 1.09609(2) 0.63650(2) 0.34036(2)
I2 I 1.076805(17) 0.48431(2) 0.337671(17)
I3 I 1.06175(2) 0.33219(2) 0.33853(2)
N1 N 0.8446(2) 0.5789(2) 0.4116(2)
O5 O 0.6260(3) 0.6703(3) 0.3543(4)
O6 O 0.6121(2) 0.5548(3) 0.3576(2)
C37 C 0.8035(3) 0.5237(3) 0.4111(3)
H27 H 0.8200 0.4780 0.4214
C38 C 0.7386(3) 0.5316(3) 0.3957(2)
H28 H 0.7097 0.4918 0.3950
C39 C 0.7153(3) 0.5974(3) 0.3815(3)
C40 C 0.7584(3) 0.6534(3) 0.3834(3)
H29 H 0.7429 0.6997 0.3736
C41 C 0.8227(3) 0.6431(3) 0.3979(3)
H30 H 0.8525 0.6822 0.3985
C42 C 0.6462(4) 0.6126(4) 0.3630(3)
C43 C 0.5440(4) 0.5638(6) 0.3358(4)
H31 H 0.5338 0.5249 0.3096
H32 H 0.5412 0.6061 0.3123
C44 C 0.5023(13) 0.581(3) 0.3838(11)
H33 H 0.4569 0.5809 0.3704
H34 H 0.5144 0.6285 0.3961
H35 H 0.5075 0.5497 0.4182
C46 C 0.9151(3) 0.5682(4) 0.4280(3)
H39 H 0.9407 0.6071 0.4135
H40 H 0.9314 0.5260 0.4095
C47 C 0.9207(3) 0.5637(4) 0.4962(3)
H41 H 0.8996 0.6042 0.5145
H42 H 0.9665 0.5623 0.5083
H43 H 0.8989 0.5212 0.5099
O1 O 0.60493(18) 0.3685(2) 0.34661(17)
O2 O 0.5655(2) 0.2646(3) 0.3790(3)
O3 O 0.9021(2) 0.3986(2) 0.4448(3)
O4 O 0.84737(18) 0.29893(19) 0.45206(18)
C1 C 0.7124(3) 0.4185(3) 0.5410(2)
C2 C 0.7478(3) 0.4714(3) 0.5660(2)
H1 H 0.7902 0.4620 0.5834
C3 C 0.7215(3) 0.5408(3) 0.5665(2)
C4 C 0.7563(3) 0.5978(3) 0.5916(3)
H2 H 0.7987 0.5892 0.6094
C5 C 0.7304(3) 0.6639(3) 0.5920(3)
H3 H 0.7552 0.7020 0.6092
C6 C 0.6688(3) 0.6763(3) 0.5673(3)
H4 H 0.6503 0.7226 0.5685
C7 C 0.6329(3) 0.6222(3) 0.5417(3)
H5 H 0.5908 0.6315 0.5236
C8 C 0.6581(3) 0.5529(3) 0.5409(3)
C9 C 0.6227(3) 0.4965(3) 0.5143(3)
H6 H 0.5805 0.5045 0.4961
C10 C 0.6488(3) 0.4314(3) 0.5149(3)
C11 C 0.6263(3) 0.3616(3) 0.4887(3)
H7 H 0.5803 0.3565 0.4800
C12 C 0.7266(3) 0.3407(3) 0.5305(3)
H8 H 0.7603 0.3196 0.5551
C13 C 0.6559(3) 0.3112(3) 0.5363(3)
H9 H 0.6377 0.3179 0.5763
H10 H 0.6526 0.2628 0.5245
C14 C 0.6736(3) 0.3480(3) 0.4358(3)
C15 C 0.7351(3) 0.3345(3) 0.4615(3)
C16 C 0.6669(3) 0.3532(3) 0.3730(3)
C17 C 0.7903(3) 0.3254(3) 0.4249(3)
C18 C 0.7217(3) 0.3468(3) 0.3371(2)
C19 C 0.7833(3) 0.3334(3) 0.3626(3)
C20 C 0.7325(3) 0.3552(3) 0.2684(3)
H11 H 0.6945 0.3503 0.2429
C21 C 0.8331(3) 0.3330(3) 0.3107(3)
H12 H 0.8745 0.3106 0.3183
C22 C 0.7893(3) 0.3016(3) 0.2596(3)
H13 H 0.7759 0.2543 0.2680
H14 H 0.8094 0.3042 0.2200
C23 C 0.7723(3) 0.4235(3) 0.2628(2)
C24 C 0.8350(2) 0.4093(3) 0.2882(2)
C25 C 0.8826(2) 0.4592(3) 0.2904(2)
H15 H 0.9252 0.4483 0.3065
C26 C 0.8687(2) 0.5276(3) 0.2669(2)
C27 C 0.9150(3) 0.5822(3) 0.2689(3)
H16 H 0.9576 0.5728 0.2858
C28 C 0.9003(3) 0.6480(3) 0.2476(3)
H17 H 0.9322 0.6849 0.2511
C29 C 0.8388(3) 0.6615(3) 0.2217(3)
H18 H 0.8294 0.7068 0.2047
C30 C 0.7925(3) 0.6102(3) 0.2190(3)
H19 H 0.7502 0.6207 0.2019
C31 C 0.8050(2) 0.5417(3) 0.2416(2)
C32 C 0.7572(3) 0.4875(3) 0.2400(2)
H20 H 0.7145 0.4962 0.2229
C33 C 0.5565(3) 0.3192(4) 0.3540(3)
C34 C 0.4928(3) 0.3439(4) 0.3280(3)
H21 H 0.4793 0.3871 0.3477
H22 H 0.4977 0.3518 0.2846
H23 H 0.4598 0.3080 0.3349
C35 C 0.9006(3) 0.3387(3) 0.4589(3)
C36 C 0.9559(3) 0.2963(3) 0.4852(3)
H24 H 0.9968 0.3104 0.4660
H25 H 0.9587 0.3042 0.5288
H26 H 0.9480 0.2469 0.4774
O7 O 0.4430(15) 0.6780(17) 0.3402(12)
C45? C 0.492(2) 0.546(3) 0.376(2)
H36? H 0.4974 0.5713 0.4138
H37? H 0.4959 0.4961 0.3830
H38? H 0.4487 0.5561 0.3590
loop_
_geom_bond_atom_site_label_1
_geom_bond_atom_site_label_2
_geom_bond_site_symmetry_1
_geom_bond_site_symmetry_2
I1 I2 1_555 1_555
I2 I3 1_555 1_555
N1 C37 1_555 1_555
O1 C16 1_555 1_555
O2 C33 1_555 1_555
O3 C35 1_555 1_555
O4 C17 1_555 1_555
O5 C42 1_555 1_555
O6 C42 1_555 1_555
C1 C2 1_555 1_555
C2 H1 1_555 1_555
C3 C2 1_555 1_555
C4 C3 1_555 1_555
H2 C4 1_555 1_555
C5 C4 1_555 1_555
H3 C5 1_555 1_555
C6 C5 1_555 1_555
H4 C6 1_555 1_555
C7 C6 1_555 1_555
H5 C7 1_555 1_555
C8 C3 1_555 1_555
C9 C8 1_555 1_555
H6 C9 1_555 1_555
C10 C1 1_555 1_555
C11 C10 1_555 1_555
H7 C11 1_555 1_555
C12 C1 1_555 1_555
H8 C12 1_555 1_555
C13 C11 1_555 1_555
H9 C13 1_555 1_555
H10 C13 1_555 1_555
C14 C11 1_555 1_555
C15 C12 1_555 1_555
C16 C14 1_555 1_555
C17 C15 1_555 1_555
C18 C16 1_555 1_555
C19 C17 1_555 1_555
C20 C18 1_555 1_555
H11 C20 1_555 1_555
C21 C19 1_555 1_555
H12 C21 1_555 1_555
C22 C20 1_555 1_555
H13 C22 1_555 1_555
H14 C22 1_555 1_555
C23 C20 1_555 1_555
C24 C21 1_555 1_555
C25 C24 1_555 1_555
H15 C25 1_555 1_555
C26 C25 1_555 1_555
C27 C26 1_555 1_555
H16 C27 1_555 1_555
C28 C27 1_555 1_555
H17 C28 1_555 1_555
C29 C28 1_555 1_555
H18 C29 1_555 1_555
C30 C29 1_555 1_555
H19 C30 1_555 1_555
C31 C26 1_555 1_555
C32 C23 1_555 1_555
H20 C32 1_555 1_555
C33 O1 1_555 1_555
C34 C33 1_555 1_555
H21 C34 1_555 1_555
H22 C34 1_555 1_555
H23 C34 1_555 1_555
C35 O4 1_555 1_555
C36 C35 1_555 1_555
H24 C36 1_555 1_555
H25 C36 1_555 1_555
H26 C36 1_555 1_555
C37 H27 1_555 1_555
C38 C37 1_555 1_555
H28 C38 1_555 1_555
C39 C38 1_555 1_555
C40 C39 1_555 1_555
H29 C40 1_555 1_555
C41 N1 1_555 1_555
H30 C41 1_555 1_555
C42 C39 1_555 1_555
C43 O6 1_555 1_555
H31 C43 1_555 1_555
H32 C43 1_555 1_555
C44 C43 1_555 1_555
H33 C44 1_555 1_555
H34 C44 1_555 1_555
H35 C44 1_555 1_555
C46 N1 1_555 1_555
H39 C46 1_555 1_555
H40 C46 1_555 1_555
C47 C46 1_555 1_555
H41 C47 1_555 1_555
H42 C47 1_555 1_555
H43 C47 1_555 1_555
C7 C8 1_555 1_555
C9 C10 1_555 1_555
C12 C13 1_555 1_555
C14 C15 1_555 1_555
C18 C19 1_555 1_555
C21 C22 1_555 1_555
C23 C24 1_555 1_555
C30 C31 1_555 1_555
C31 C32 1_555 1_555
C40 C41 1_555 1_555

#END
