
#######################################################################
#
#                 Cambridge Crystallographic Data Centre
#                                CCDC 
#
#######################################################################
#
# If this CIF has been generated from an entry in the Cambridge 
# Structural Database, then it will include bibliographic, chemical, 
# crystal, experimental, refinement or atomic coordinate data resulting 
# from the CCDC's data processing and validation procedures.
#
#######################################################################

data_UBEVAY
_chemical_formula_moiety         'C32 H22 O2,C10 H2 N4'
_chemical_name_systematic        
'7,16-Dihydroxy-(6\a,8\a,15\a,17\a)-6,8,15,17-tetrahydro-6,17:8,15-dimethanoheptacene 1,2,4,5-tetracyanobenzene clathrate'
_symmetry_cell_setting           orthorhombic
_symmetry_space_group_name_H-M   'P n a 21'
_symmetry_Int_Tables_number      33
_space_group_name_Hall           'P 2c -2n'
loop_
_symmetry_equiv_pos_site_id
_symmetry_equiv_pos_as_xyz
1 x,y,z
2 -x,-y,1/2+z
3 1/2+x,1/2-y,z
4 1/2-x,1/2+y,1/2+z
_cell_length_a                   8.203(3)
_cell_length_b                   19.700(7)
_cell_length_c                   19.702(7)
_cell_angle_alpha                90
_cell_angle_beta                 90
_cell_angle_gamma                90
_cell_volume                     3183.83
_exptl_crystal_colour            yellow
_exptl_crystal_description       needles
_cell_formula_units_Z            4
_exptl_crystal_recrystallization_method toluene/chloroform
loop_
_atom_site_label
_atom_site_type_symbol
_atom_site_fract_x
_atom_site_fract_y
_atom_site_fract_z
O1 O 1.5281(4) 0.31545(14) 0.36464(16)
H1 H 1.6126 0.3588 0.3622
O2 O 0.8660(3) 0.35675(15) 0.43732(15)
H2 H 0.8260 0.4097 0.4372
C1 C 1.2285(5) 0.4112(2) 0.5624(2)
C2 C 1.1736(6) 0.4722(3) 0.5871(2)
H3 H 1.0633 0.4768 0.6023
C3 C 1.2821(6) 0.5295(3) 0.5905(2)
C4 C 1.2279(8) 0.5950(3) 0.6143(3)
H4 H 1.1188 0.6001 0.6307
C5 C 1.3315(9) 0.6505(3) 0.6128(3)
H5 H 1.2932 0.6939 0.6275
C6 C 1.4939(8) 0.6435(3) 0.5893(3)
H6 H 1.5648 0.6821 0.5881
C7 C 1.5477(6) 0.5804(3) 0.5680(2)
H7 H 1.6581 0.5757 0.5531
C8 C 1.4463(6) 0.5227(2) 0.5677(2)
C9 C 1.5015(5) 0.4566(2) 0.5446(2)
H8 H 1.6129 0.4500 0.5318
C10 C 1.3950(5) 0.4038(2) 0.54221(19)
C11 C 1.4129(5) 0.3297(2) 0.5185(2)
H9 H 1.5215 0.3120 0.5169
C12 C 1.1431(6) 0.3442(2) 0.5474(2)
H10 H 1.0396 0.3372 0.5687
C13 C 1.2852(6) 0.2935(3) 0.5672(3)
H11 H 1.3140 0.2948 0.6143
H12 H 1.2638 0.2479 0.5531
C14 C 1.3140(5) 0.3274(2) 0.4519(2)
C15 C 1.1492(5) 0.3371(2) 0.4691(2)
C16 C 1.3679(5) 0.32619(19) 0.3832(2)
C17 C 1.0272(5) 0.3486(2) 0.4191(2)
C18 C 1.2470(5) 0.3361(2) 0.33369(19)
C19 C 1.0828(5) 0.34805(19) 0.3506(2)
C20 C 1.2622(6) 0.3448(2) 0.2555(2)
H13 H 1.3559 0.3247 0.2345
C21 C 0.9944(5) 0.3654(2) 0.2831(2)
H14 H 0.8780 0.3621 0.2831
C22 C 1.0920(6) 0.3165(3) 0.2344(2)
H15 H 1.0767 0.2696 0.2455
H16 H 1.0675 0.3243 0.1876
C23 C 1.2344(6) 0.4209(2) 0.2445(2)
C24 C 1.0670(5) 0.4342(2) 0.26140(19)
C25 C 1.0068(6) 0.4988(3) 0.2600(2)
H17 H 0.8947 0.5071 0.2708
C26 C 1.1121(6) 0.5549(3) 0.2416(2)
C27 C 1.0588(7) 0.6241(3) 0.2412(2)
H18 H 0.9474 0.6338 0.2519
C28 C 1.1622(9) 0.6757(3) 0.2252(3)
H19 H 1.1226 0.7214 0.2265
C29 C 1.3258(8) 0.6626(3) 0.2071(3)
H20 H 1.3966 0.6996 0.1960
C30 C 1.3793(7) 0.5966(3) 0.2062(2)
H21 H 1.4897 0.5878 0.1932
C31 C 1.2786(6) 0.5401(3) 0.2236(2)
C32 C 1.3360(6) 0.4725(3) 0.2254(2)
H22 H 1.4466 0.4631 0.2131
N1 N 1.7176(7) 0.6685(3) 0.3502(4)
N2 N 0.9499(7) 0.7036(3) 0.4912(3)
N3 N 0.8636(6) 0.5123(3) 0.4689(3)
N4 N 1.6545(5) 0.4607(2) 0.3476(3)
C33 C 1.4453(6) 0.6125(2) 0.3878(2)
C34 C 1.3224(7) 0.6555(2) 0.4127(3)
H23 H 1.3386 0.7035 0.4147
C35 C 1.1759(6) 0.6273(2) 0.4355(2)
C36 C 1.1478(5) 0.5571(2) 0.4299(2)
C37 C 1.2700(6) 0.5144(2) 0.4051(2)
H24 H 1.2521 0.4664 0.4029
C38 C 1.4175(5) 0.5424(2) 0.3847(2)
C39 C 1.5968(7) 0.6429(3) 0.3656(3)
C40 C 1.0498(7) 0.6720(3) 0.4652(3)
C41 C 0.9902(7) 0.5307(2) 0.4518(3)
C42 C 1.5486(6) 0.4964(3) 0.3625(3)
loop_
_geom_bond_atom_site_label_1
_geom_bond_atom_site_label_2
_geom_bond_site_symmetry_1
_geom_bond_site_symmetry_2
O1 H1 1_555 1_555
O2 H2 1_555 1_555
N1 C39 1_555 1_555
N2 C40 1_555 1_555
N3 C41 1_555 1_555
N4 C42 1_555 1_555
C1 C2 1_555 1_555
C2 H3 1_555 1_555
C3 C2 1_555 1_555
C4 C3 1_555 1_555
H4 C4 1_555 1_555
C5 C4 1_555 1_555
H5 C5 1_555 1_555
C6 C5 1_555 1_555
H6 C6 1_555 1_555
C7 C6 1_555 1_555
H7 C7 1_555 1_555
C8 C3 1_555 1_555
C9 C8 1_555 1_555
H8 C9 1_555 1_555
C10 C1 1_555 1_555
C11 C10 1_555 1_555
H9 C11 1_555 1_555
C12 C1 1_555 1_555
H10 C12 1_555 1_555
C13 C11 1_555 1_555
H11 C13 1_555 1_555
H12 C13 1_555 1_555
C14 C11 1_555 1_555
C15 C12 1_555 1_555
C16 O1 1_555 1_555
C17 O2 1_555 1_555
C18 C16 1_555 1_555
C19 C17 1_555 1_555
C20 C18 1_555 1_555
H13 C20 1_555 1_555
C21 C19 1_555 1_555
H14 C21 1_555 1_555
C22 C20 1_555 1_555
H15 C22 1_555 1_555
H16 C22 1_555 1_555
C23 C20 1_555 1_555
C24 C21 1_555 1_555
C25 C24 1_555 1_555
H17 C25 1_555 1_555
C26 C25 1_555 1_555
C27 C26 1_555 1_555
H18 C27 1_555 1_555
C28 C27 1_555 1_555
H19 C28 1_555 1_555
C29 C28 1_555 1_555
H20 C29 1_555 1_555
C30 C29 1_555 1_555
H21 C30 1_555 1_555
C31 C26 1_555 1_555
C32 C23 1_555 1_555
H22 C32 1_555 1_555
C33 C34 1_555 1_555
C34 H23 1_555 1_555
C35 C34 1_555 1_555
C36 C35 1_555 1_555
C37 C36 1_555 1_555
H24 C37 1_555 1_555
C38 C33 1_555 1_555
C39 C33 1_555 1_555
C40 C35 1_555 1_555
C41 C36 1_555 1_555
C42 C38 1_555 1_555
C7 C8 1_555 1_555
C9 C10 1_555 1_555
C12 C13 1_555 1_555
C14 C16 1_555 1_555
C14 C15 1_555 1_555
C15 C17 1_555 1_555
C18 C19 1_555 1_555
C21 C22 1_555 1_555
C23 C24 1_555 1_555
C30 C31 1_555 1_555
C31 C32 1_555 1_555
C37 C38 1_555 1_555

#END
