
#######################################################################
#
#                 Cambridge Crystallographic Data Centre
#                                CCDC 
#
#######################################################################
#
# If this CIF has been generated from an entry in the Cambridge 
# Structural Database, then it will include bibliographic, chemical, 
# crystal, experimental, refinement or atomic coordinate data resulting 
# from the CCDC's data processing and validation procedures.
#
#######################################################################

data_UBIDOY
_chemical_formula_moiety         'C22 H26 O6'
_chemical_name_systematic        
4,5-Dimethoxy-9,10-bis(methoxymethyl)-17-oxatetracyclo[7.7.1.0^1,12^.0^2,7^]heptadeca-2,4,6,12,15-pentaen-14-one
_symmetry_cell_setting           orthorhombic
_symmetry_space_group_name_H-M   'P 21 21 21'
_symmetry_Int_Tables_number      19
_space_group_name_Hall           'P 2ac 2ab'
loop_
_symmetry_equiv_pos_site_id
_symmetry_equiv_pos_as_xyz
1 x,y,z
2 1/2-x,-y,1/2+z
3 -x,1/2+y,1/2-z
4 1/2+x,1/2-y,-z
_cell_length_a                   5.5985(11)
_cell_length_b                   18.034(4)
_cell_length_c                   20.187(4)
_cell_angle_alpha                90
_cell_angle_beta                 90
_cell_angle_gamma                90
_cell_volume                     2038.15
_exptl_crystal_colour            colorless
_exptl_crystal_description       needle
_chemical_melting_point          171deg.C
_cell_formula_units_Z            4
_exptl_crystal_recrystallization_method methanol
loop_
_atom_site_label
_atom_site_type_symbol
_atom_site_fract_x
_atom_site_fract_y
_atom_site_fract_z
O1 O -0.3080(3) 0.08643(9) 0.43846(8)
O2 O -0.1149(3) 0.21634(8) 0.44511(8)
O3 O 0.3650(3) -0.05709(9) 0.12088(10)
O4 O 0.1368(4) 0.14488(10) 0.01863(8)
O5 O 0.4650(3) 0.11125(7) 0.20813(8)
O6 O 0.3909(4) 0.39737(8) 0.19808(10)
C1 C -0.0401(4) 0.17274(12) 0.39361(11)
C2 C 0.1214(4) 0.19424(11) 0.34595(11)
H1 H 0.1894 0.2412 0.3480
C3 C 0.1843(4) 0.14631(11) 0.29449(11)
C4 C 0.0860(4) 0.07635(11) 0.29114(11)
C5 C -0.0782(4) 0.05431(12) 0.33945(11)
H2 H -0.1442 0.0070 0.3375
C6 C -0.1441(4) 0.10199(12) 0.39033(11)
C7 C -0.4354(6) 0.01882(14) 0.43328(15)
H3 H -0.5171 0.0171 0.3915
H4 H -0.5496 0.0156 0.4686
H5 H -0.3258 -0.0220 0.4362
C8 C -0.0180(5) 0.28897(12) 0.44884(12)
H6 H 0.1528 0.2860 0.4520
H7 H -0.0803 0.3137 0.4872
H8 H -0.0611 0.3163 0.4098
C9 C 0.1550(4) 0.02260(11) 0.23653(11)
H9 H 0.0103 0.0023 0.2173
H10 H 0.2432 -0.0182 0.2561
C10 C 0.3064(4) 0.05645(11) 0.18092(11)
C11 C 0.4852(4) -0.00012(13) 0.15488(14)
H11 H 0.5970 0.0241 0.1252
H12 H 0.5747 -0.0210 0.1915
C12 C 0.5367(6) -0.10639(15) 0.09278(17)
H13 H 0.6238 -0.0812 0.0586
H14 H 0.4564 -0.1486 0.0743
H15 H 0.6454 -0.1225 0.1266
C13 C 0.1513(4) 0.09142(12) 0.12577(11)
H16 H 0.0318 0.0547 0.1124
C14 C 0.2946(5) 0.11275(14) 0.06462(11)
H17 H 0.4188 0.1478 0.0764
H18 H 0.3693 0.0692 0.0456
C15 C 0.2553(8) 0.1664(2) -0.04071(14)
H19 H 0.3811 0.2007 -0.0303
H20 H 0.1431 0.1897 -0.0701
H21 H 0.3218 0.1234 -0.0618
C16 C 0.0176(4) 0.15939(12) 0.15338(11)
H22 H -0.0618 0.1853 0.1175
H23 H -0.1033 0.1432 0.1846
C17 C 0.1880(4) 0.21092(11) 0.18723(10)
C18 C 0.3453(4) 0.17307(11) 0.23857(11)
C19 C 0.5426(4) 0.22130(12) 0.26399(11)
H24 H 0.6610 0.1997 0.2899
C20 C 0.5568(4) 0.29349(11) 0.25134(11)
H25 H 0.6792 0.3211 0.2703
C21 C 0.3834(4) 0.33050(12) 0.20808(12)
C22 C 0.2061(4) 0.28317(12) 0.17572(11)
H26 H 0.1010 0.3047 0.1457
loop_
_geom_bond_atom_site_label_1
_geom_bond_atom_site_label_2
_geom_bond_site_symmetry_1
_geom_bond_site_symmetry_2
O1 C6 1_555 1_555
O2 C1 1_555 1_555
O3 C11 1_555 1_555
O4 C14 1_555 1_555
O5 C10 1_555 1_555
O6 C21 1_555 1_555
C1 C2 1_555 1_555
C2 H1 1_555 1_555
C3 C2 1_555 1_555
C4 C3 1_555 1_555
C5 C4 1_555 1_555
H2 C5 1_555 1_555
C6 C1 1_555 1_555
C7 O1 1_555 1_555
H3 C7 1_555 1_555
H4 C7 1_555 1_555
H5 C7 1_555 1_555
C8 O2 1_555 1_555
H6 C8 1_555 1_555
H7 C8 1_555 1_555
H8 C8 1_555 1_555
C9 C4 1_555 1_555
H9 C9 1_555 1_555
H10 C9 1_555 1_555
C10 C9 1_555 1_555
C11 C10 1_555 1_555
H11 C11 1_555 1_555
H12 C11 1_555 1_555
C12 O3 1_555 1_555
H13 C12 1_555 1_555
H14 C12 1_555 1_555
H15 C12 1_555 1_555
C13 C10 1_555 1_555
H16 C13 1_555 1_555
C14 C13 1_555 1_555
H17 C14 1_555 1_555
H18 C14 1_555 1_555
C15 O4 1_555 1_555
H19 C15 1_555 1_555
H20 C15 1_555 1_555
H21 C15 1_555 1_555
C16 C13 1_555 1_555
H22 C16 1_555 1_555
H23 C16 1_555 1_555
C17 C16 1_555 1_555
C18 O5 1_555 1_555
C19 C18 1_555 1_555
H24 C19 1_555 1_555
C20 C19 1_555 1_555
H25 C20 1_555 1_555
C21 C20 1_555 1_555
C22 C17 1_555 1_555
H26 C22 1_555 1_555
C3 C18 1_555 1_555
C5 C6 1_555 1_555
C17 C18 1_555 1_555
C21 C22 1_555 1_555

#END
