
#######################################################################
#
#                 Cambridge Crystallographic Data Centre
#                                CCDC 
#
#######################################################################
#
# If this CIF has been generated from an entry in the Cambridge 
# Structural Database, then it will include bibliographic, chemical, 
# crystal, experimental, refinement or atomic coordinate data resulting 
# from the CCDC's data processing and validation procedures.
#
#######################################################################

data_UBIDOA
_chemical_formula_moiety         'C8 H12 N2 O2'
_chemical_name_systematic        'Methyl 2-cyano-3-(dimethylamino)but-2-enoate'
_symmetry_cell_setting           monoclinic
_symmetry_space_group_name_H-M   'P 21'
_symmetry_Int_Tables_number      4
_space_group_name_Hall           'P 2yb'
loop_
_symmetry_equiv_pos_site_id
_symmetry_equiv_pos_as_xyz
1 x,y,z
2 -x,1/2+y,-z
_cell_length_a                   3.98380(10)
_cell_length_b                   10.8370(2)
_cell_length_c                   10.1709(2)
_cell_angle_alpha                90
_cell_angle_beta                 91.6640(10)
_cell_angle_gamma                90
_cell_volume                     438.917
_exptl_crystal_colour            colorless
_exptl_crystal_description       rod
_cell_formula_units_Z            2
loop_
_atom_site_label
_atom_site_type_symbol
_atom_site_fract_x
_atom_site_fract_y
_atom_site_fract_z
O1 O 0.0704(4) 0.34039(12) 0.89258(11)
O2 O 0.1944(3) 0.26764(11) 0.69368(10)
N1 N 0.2835(3) 0.69826(11) 0.74377(12)
N2 N 0.4249(4) 0.47281(14) 0.48308(13)
C1 C 0.2998(3) 0.58670(14) 0.79884(13)
C2 C 0.2602(3) 0.47748(13) 0.72535(14)
C3 C 0.3429(3) 0.47452(13) 0.59043(13)
C4 C 0.1686(4) 0.35946(13) 0.78246(14)
C5 C 0.0803(5) 0.14867(17) 0.73257(17)
C6 C 0.1353(4) 0.72065(16) 0.61276(16)
C7 C 0.3978(5) 0.80994(16) 0.81311(19)
C8 C 0.3755(5) 0.5813(2) 0.94350(16)
H1 H -0.160(9) 0.146(3) 0.746(3)
H2 H 0.186(7) 0.131(3) 0.815(3)
H3 H 0.135(8) 0.091(3) 0.654(3)
H4 H -0.028(4) 0.658(2) 0.5943(19)
H5 H 0.029(6) 0.801(2) 0.614(2)
H6 H 0.301(5) 0.724(2) 0.548(2)
H7 H 0.566(7) 0.791(3) 0.884(3)
H8 H 0.240(8) 0.838(3) 0.868(3)
H9 H 0.447(7) 0.871(3) 0.745(3)
H10 H 0.593(8) 0.599(3) 0.965(3)
H11 H 0.355(7) 0.512(3) 0.982(3)
H12 H 0.260(7) 0.642(3) 0.993(3)
loop_
_geom_bond_atom_site_label_1
_geom_bond_atom_site_label_2
_geom_bond_site_symmetry_1
_geom_bond_site_symmetry_2
O1 C4 1_555 1_555
O2 C4 1_555 1_555
N1 C1 1_555 1_555
N2 C3 1_555 1_555
C1 C2 1_555 1_555
C2 C3 1_555 1_555
C4 C2 1_555 1_555
C5 O2 1_555 1_555
C6 N1 1_555 1_555
C7 N1 1_555 1_555
C8 C1 1_555 1_555
H1 C5 1_555 1_555
H2 C5 1_555 1_555
H3 C5 1_555 1_555
H4 C6 1_555 1_555
H5 C6 1_555 1_555
H6 C6 1_555 1_555
H7 C7 1_555 1_555
H8 C7 1_555 1_555
H9 C7 1_555 1_555
H10 C8 1_555 1_555
H11 C8 1_555 1_555
H12 C8 1_555 1_555

#END
