
#######################################################################
#
#                 Cambridge Crystallographic Data Centre
#                                CCDC 
#
#######################################################################
#
# If this CIF has been generated from an entry in the Cambridge 
# Structural Database, then it will include bibliographic, chemical, 
# crystal, experimental, refinement or atomic coordinate data resulting 
# from the CCDC's data processing and validation procedures.
#
#######################################################################

data_UBIFAM
_chemical_formula_moiety         'C30 H35 N1 O7'
_chemical_name_systematic        
'4,5,15-Trimethoxy-9,10-bis(methoxymethyl)-17-oxatetracyclo[7.7.1.0^1,12^.0^2,7^]heptadeca-2,4,6,12,15-pentaen-14-one O-benzyloxime'
_symmetry_cell_setting           orthorhombic
_symmetry_space_group_name_H-M   'P 21 21 21'
_symmetry_Int_Tables_number      19
_space_group_name_Hall           'P 2ac 2ab'
loop_
_symmetry_equiv_pos_site_id
_symmetry_equiv_pos_as_xyz
1 x,y,z
2 1/2-x,-y,1/2+z
3 -x,1/2+y,1/2-z
4 1/2+x,1/2-y,-z
_cell_length_a                   8.3465(3)
_cell_length_b                   11.5508(4)
_cell_length_c                   27.4928(12)
_cell_angle_alpha                90
_cell_angle_beta                 90
_cell_angle_gamma                90
_cell_volume                     2650.55
_exptl_crystal_colour            colorless
_chemical_melting_point          218-220deg.C
_cell_formula_units_Z            4
_exptl_crystal_recrystallization_method methanol
loop_
_atom_site_label
_atom_site_type_symbol
_atom_site_fract_x
_atom_site_fract_y
_atom_site_fract_z
C1 C 0.2854(4) 1.3985(3) 0.19949(13)
H1 H 0.3726 1.4131 0.2208
C2 C 0.1300(5) 1.4006(3) 0.21738(13)
H2 H 0.1106 1.4165 0.2508
C3 C 0.0035(5) 1.3794(3) 0.18604(13)
H3 H -0.1032 1.3808 0.1981
C4 C 0.0308(5) 1.3565(3) 0.13786(14)
H4 H -0.0565 1.3413 0.1166
C5 C 0.1845(4) 1.3555(3) 0.12036(13)
H5 H 0.2029 1.3410 0.0868
C6 C 0.3148(4) 1.3757(3) 0.15135(13)
C7 C 0.4820(4) 1.3680(3) 0.13246(13)
H6 H 0.4912 1.4075 0.1006
H7 H 0.5582 1.4041 0.1555
C8 C 0.7035(4) 1.1248(3) 0.09973(11)
C9 C 0.8424(4) 1.0982(3) 0.06930(11)
C10 C 0.9130(4) 0.9950(3) 0.07116(11)
H8 H 1.0018 0.9812 0.0503
C11 C 0.8602(4) 0.9001(3) 0.10415(12)
C12 C 0.7063(4) 0.9266(3) 0.13046(11)
C13 C 0.6345(4) 1.0293(3) 0.12811(11)
H9 H 0.5368 1.0410 0.1451
C14 C 1.0233(5) 1.1711(3) 0.01061(12)
H10 H 1.0432 1.2407 -0.0089
H11 H 1.0051 1.1050 -0.0110
H12 H 1.1163 1.1556 0.0313
C15 C 0.9902(4) 0.8688(3) 0.14054(11)
C16 C 1.0794(4) 0.9552(3) 0.16353(10)
H13 H 1.0629 1.0339 0.1549
C17 C 1.1906(4) 0.9281(3) 0.19840(12)
C18 C 1.2202(4) 0.8106(3) 0.20997(11)
C19 C 1.1319(4) 0.7262(3) 0.18698(11)
H14 H 1.1520 0.6472 0.1944
C20 C 1.0137(4) 0.7540(3) 0.15310(11)
C21 C 1.2237(4) 1.1234(3) 0.22340(14)
H15 H 1.2944 1.1725 0.2430
H16 H 1.1147 1.1267 0.2366
H17 H 1.2232 1.1511 0.1897
C22 C 1.3544(4) 0.6752(3) 0.25999(13)
H18 H 1.4388 0.6712 0.2847
H19 H 1.3847 0.6277 0.2319
H20 H 1.2538 0.6462 0.2737
C23 C 0.9148(4) 0.6579(3) 0.13119(11)
H21 H 0.8660 0.6126 0.1579
H22 H 0.9872 0.6054 0.1131
C24 C 0.7820(4) 0.6976(3) 0.09697(12)
C25 C 0.6219(4) 0.7207(3) 0.12409(11)
H23 H 0.5990 0.6515 0.1449
C26 C 0.6406(4) 0.8255(3) 0.15805(11)
H24 H 0.5352 0.8461 0.1721
H25 H 0.7139 0.8055 0.1851
C27 C 0.7595(4) 0.6089(3) 0.05654(12)
H26 H 0.7207 0.5348 0.0703
H27 H 0.6792 0.6371 0.0329
C28 C 0.9010(5) 0.5033(3) -0.00249(12)
H28 H 1.0063 0.4939 -0.0177
H29 H 0.8220 0.5244 -0.0273
H30 H 0.8692 0.4305 0.0130
C29 C 0.4786(4) 0.7384(3) 0.09076(12)
H31 H 0.3958 0.7850 0.1075
H32 H 0.5120 0.7802 0.0610
C30 C 0.2800(4) 0.6385(3) 0.04729(13)
H33 H 0.2396 0.5613 0.0391
H34 H 0.3109 0.6791 0.0174
H35 H 0.1960 0.6824 0.0640
N1 N 0.6527(3) 1.2308(2) 0.09872(10)
O1 O 0.5150(3) 1.24403(19) 0.12743(8)
O2 O 0.8860(3) 1.18861(19) 0.04012(8)
O3 O 1.2806(3) 1.00587(19) 0.22475(8)
O4 O 1.3337(3) 0.79227(19) 0.24491(7)
O5 O 0.9090(3) 0.59165(19) 0.03299(8)
O6 O 0.4158(3) 0.6278(2) 0.07830(8)
O7 O 0.8304(3) 0.80255(18) 0.07225(8)
loop_
_geom_bond_atom_site_label_1
_geom_bond_atom_site_label_2
_geom_bond_site_symmetry_1
_geom_bond_site_symmetry_2
C1 H1 1_555 1_555
C2 C1 1_555 1_555
H2 C2 1_555 1_555
C3 C2 1_555 1_555
H3 C3 1_555 1_555
C4 C3 1_555 1_555
H4 C4 1_555 1_555
C5 C4 1_555 1_555
H5 C5 1_555 1_555
C6 C1 1_555 1_555
C7 C6 1_555 1_555
H6 C7 1_555 1_555
H7 C7 1_555 1_555
C8 C9 1_555 1_555
C9 C10 1_555 1_555
C10 H8 1_555 1_555
C11 C10 1_555 1_555
C12 C11 1_555 1_555
C13 C8 1_555 1_555
H9 C13 1_555 1_555
C14 H10 1_555 1_555
H11 C14 1_555 1_555
H12 C14 1_555 1_555
C15 C11 1_555 1_555
C16 C15 1_555 1_555
H13 C16 1_555 1_555
C17 C16 1_555 1_555
C18 C17 1_555 1_555
C19 C18 1_555 1_555
H14 C19 1_555 1_555
C20 C15 1_555 1_555
C21 H15 1_555 1_555
H16 C21 1_555 1_555
H17 C21 1_555 1_555
C22 H18 1_555 1_555
H19 C22 1_555 1_555
H20 C22 1_555 1_555
C23 C20 1_555 1_555
H21 C23 1_555 1_555
H22 C23 1_555 1_555
C24 C23 1_555 1_555
C25 C24 1_555 1_555
H23 C25 1_555 1_555
C26 C12 1_555 1_555
H24 C26 1_555 1_555
H25 C26 1_555 1_555
C27 C24 1_555 1_555
H26 C27 1_555 1_555
H27 C27 1_555 1_555
C28 H28 1_555 1_555
H29 C28 1_555 1_555
H30 C28 1_555 1_555
C29 C25 1_555 1_555
H31 C29 1_555 1_555
H32 C29 1_555 1_555
C30 H33 1_555 1_555
H34 C30 1_555 1_555
H35 C30 1_555 1_555
N1 C8 1_555 1_555
O1 C7 1_555 1_555
O2 C9 1_555 1_555
O3 C17 1_555 1_555
O4 C18 1_555 1_555
O5 C27 1_555 1_555
O6 C29 1_555 1_555
O7 C11 1_555 1_555
C5 C6 1_555 1_555
C12 C13 1_555 1_555
C14 O2 1_555 1_555
C19 C20 1_555 1_555
C21 O3 1_555 1_555
C22 O4 1_555 1_555
C24 O7 1_555 1_555
C25 C26 1_555 1_555
C28 O5 1_555 1_555
C30 O6 1_555 1_555
N1 O1 1_555 1_555

#END
