
#######################################################################
#
#                 Cambridge Crystallographic Data Centre
#                                CCDC 
#
#######################################################################
#
# If this CIF has been generated from an entry in the Cambridge 
# Structural Database, then it will include bibliographic, chemical, 
# crystal, experimental, refinement or atomic coordinate data resulting 
# from the CCDC's data processing and validation procedures.
#
#######################################################################

data_UBIGUH
_chemical_formula_moiety         'C40 H56 O18,2(C1 H2 Cl2)'
_chemical_name_systematic        
'1,4,7,10,13,20,23,26,29,32-Decaoxa-15,18,34,37-tetrakis(ethoxycarbonyl)[13.13]paracyclophane dichloromethane solvate'
_symmetry_cell_setting           triclinic
_symmetry_space_group_name_H-M   'P -1'
_symmetry_Int_Tables_number      2
_space_group_name_Hall           '-P 1'
loop_
_symmetry_equiv_pos_site_id
_symmetry_equiv_pos_as_xyz
1 x,y,z
2 -x,-y,-z
_cell_length_a                   9.393(2)
_cell_length_b                   9.723(2)
_cell_length_c                   14.483(2)
_cell_angle_alpha                103.867(14)
_cell_angle_beta                 98.00(2)
_cell_angle_gamma                96.00(2)
_cell_volume                     1258.51
_exptl_crystal_description       blocks
_chemical_melting_point          112.8-113.7deg.C
_cell_formula_units_Z            1
_exptl_crystal_recrystallization_method heptane/dichloromethane
loop_
_atom_site_label
_atom_site_type_symbol
_atom_site_fract_x
_atom_site_fract_y
_atom_site_fract_z
O1 O 0.6258(4) 0.3580(4) 0.1744(2)
C1 C 0.6416(5) 0.3997(5) 0.0888(3)
H1 H 0.7419(5) 0.4028(5) 0.0792(3)
H2 H 0.6140(5) 0.4942(5) 0.0932(3)
C2 C 0.5456(5) 0.2926(6) 0.0069(3)
H3 H 0.5695(5) 0.3055(6) -0.0538(3)
H4 H 0.5604(5) 0.1966(6) 0.0105(3)
O2 O 0.4001(3) 0.3100(3) 0.0111(2)
C3 C 0.2993(5) 0.2103(5) -0.0617(3)
H5 H 0.3128(5) 0.1139(5) -0.0584(3)
H6 H 0.3159(5) 0.2204(5) -0.1245(3)
C4 C 0.1480(5) 0.2334(5) -0.0499(3)
H7 H 0.1384(5) 0.3338(5) -0.0415(3)
H8 H 0.0804(5) 0.1783(5) -0.1068(3)
O3 O 0.1167(3) 0.1886(4) 0.0329(2)
C5 C -0.0260(5) 0.2060(6) 0.0476(3)
H9 H -0.0947(5) 0.1472(6) -0.0075(3)
H10 H -0.0397(5) 0.3052(6) 0.0540(3)
C6 C -0.0529(5) 0.1633(6) 0.1375(3)
H11 H -0.1554(5) 0.1584(6) 0.1416(3)
H12 H -0.0250(5) 0.0694(6) 0.1355(3)
O4 O 0.0294(4) 0.2653(3) 0.2193(2)
C7 C 0.0110(5) 0.2289(5) 0.3062(3)
H13 H 0.0369(5) 0.1345(5) 0.3047(3)
H14 H -0.0893(5) 0.2289(5) 0.3157(3)
C8 C 0.1096(5) 0.3403(5) 0.3860(3)
H15 H 0.2104(5) 0.3371(5) 0.3787(3)
H16 H 0.0868(5) 0.4353(5) 0.3859(3)
O5 O 0.0835(4) 0.3051(4) 0.4728(2)
C9 C 0.1557(5) 0.3920(5) 0.5590(3)
C10 C 0.1269(5) 0.3545(5) 0.6429(3)
C11 C 0.2002(5) 0.4378(5) 0.7320(3)
H17 H 0.1828(5) 0.4123(5) 0.7877(3)
C12 C 0.7022(5) 0.4429(5) 0.2607(3)
C13 C 0.6723(5) 0.4058(5) 0.3441(3)
C14 C 0.2568(5) 0.5094(5) 0.5668(3)
H18 H 0.2780(5) 0.5323(5) 0.5110(3)
C15 C 0.0276(6) 0.2275(5) 0.6450(3)
O6 O 0.0485(5) 0.1608(4) 0.7040(3)
O7 O -0.0861(4) 0.1951(5) 0.5761(3)
C16 C -0.1825(9) 0.0652(9) 0.5709(5)
H19 H -0.1255(9) -0.0110(9) 0.5764(5)
H20 H -0.2361(9) 0.0817(9) 0.6242(5)
C17 C -0.2792(9) 0.0239(11) 0.4843(6)
H21 H -0.3417(9) -0.0619(11) 0.4822(6)
H22 H -0.2261(9) 0.0062(11) 0.4316(6)
H23 H -0.3365(9) 0.0987(11) 0.4793(6)
C18 C 0.5640(5) 0.2810(6) 0.3431(3)
O8 O 0.4859(6) 0.2835(5) 0.4011(4)
O9 O 0.5729(5) 0.1634(4) 0.2750(3)
C19 C 0.4659(8) 0.0371(8) 0.2615(5)
H24 H 0.4325(8) 0.0379(8) 0.3221(5)
H25 H 0.5112(8) -0.0483(8) 0.2431(5)
C20 C 0.3447(10) 0.0326(9) 0.1893(6)
H26 H 0.2765(10) -0.0515(9) 0.1823(6)
H27 H 0.2986(10) 0.1162(9) 0.2079(6)
H28 H 0.3772(10) 0.0301(9) 0.1290(6)
C12A C 0.2978(5) 0.5571(5) 0.7393(3)
O1A O 0.3742(4) 0.6420(4) 0.8256(2)
C1A C 0.3584(5) 0.6003(5) 0.9112(3)
H1A H 0.2581(5) 0.5972(5) 0.9208(3)
H2A H 0.3860(5) 0.5058(5) 0.9068(3)
C2A C 0.4544(5) 0.7074(6) 0.9931(3)
H3A H 0.4305(5) 0.6945(6) 1.0538(3)
H4A H 0.4396(5) 0.8034(6) 0.9895(3)
O2A O 0.5999(3) 0.6900(3) 0.9889(2)
C3A C 0.7007(5) 0.7897(5) 1.0617(3)
H5A H 0.6872(5) 0.8861(5) 1.0584(3)
H6A H 0.6841(5) 0.7796(5) 1.1245(3)
C4A C 0.8520(5) 0.7666(5) 1.0499(3)
H7A H 0.8616(5) 0.6662(5) 1.0415(3)
H8A H 0.9196(5) 0.8217(5) 1.1068(3)
O3A O 0.8833(3) 0.8114(4) 0.9671(2)
C5A C 1.0260(5) 0.7940(6) 0.9524(3)
H9A H 1.0947(5) 0.8528(6) 1.0075(3)
H10A H 1.0397(5) 0.6948(6) 0.9460(3)
C6A C 1.0529(5) 0.8367(6) 0.8625(3)
H11A H 1.1554(5) 0.8416(6) 0.8584(3)
H12A H 1.0250(5) 0.9306(6) 0.8645(3)
O4A O 0.9706(4) 0.7347(3) 0.7807(2)
C7A C 0.9890(5) 0.7711(5) 0.6938(3)
H13A H 0.9631(5) 0.8655(5) 0.6953(3)
H14A H 1.0893(5) 0.7711(5) 0.6843(3)
C8A C 0.8904(5) 0.6597(5) 0.6140(3)
H15A H 0.7896(5) 0.6629(5) 0.6213(3)
H16A H 0.9132(5) 0.5647(5) 0.6141(3)
O5A O 0.9165(4) 0.6949(4) 0.5272(2)
C9A C 0.8443(5) 0.6080(5) 0.4410(3)
C10A C 0.8731(5) 0.6455(5) 0.3571(3)
C11A C 0.7998(5) 0.5622(5) 0.2680(3)
H17A H 0.8172(5) 0.5877(5) 0.2123(3)
C14A C 0.7432(5) 0.4906(5) 0.4332(3)
H18A H 0.7220(5) 0.4677(5) 0.4890(3)
C15A C 0.9724(6) 0.7725(5) 0.3550(3)
O6A O 0.9515(5) 0.8392(4) 0.2960(3)
O7A O 1.0861(4) 0.8049(5) 0.4239(3)
C16A C 1.1825(9) 0.9348(9) 0.4291(5)
H19A H 1.1255(9) 1.0110(9) 0.4236(5)
H20A H 1.2361(9) 0.9183(9) 0.3758(5)
C17A C 1.2792(9) 0.9761(11) 0.5157(6)
H21A H 1.3417(9) 1.0619(11) 0.5178(6)
H22A H 1.2261(9) 0.9938(11) 0.5684(6)
H23A H 1.3365(9) 0.9013(11) 0.5207(6)
C13A C 0.3277(5) 0.5942(5) 0.6559(3)
C18A C 0.4360(5) 0.7190(6) 0.6569(3)
O8A O 0.5141(6) 0.7165(5) 0.5989(4)
O9A O 0.4271(5) 0.8366(4) 0.7250(3)
C19A C 0.5341(8) 0.9629(8) 0.7385(5)
H24A H 0.5675(8) 0.9621(8) 0.6779(5)
H25A H 0.4888(8) 1.0483(8) 0.7569(5)
C20A C 0.6553(10) 0.9674(9) 0.8107(6)
H26A H 0.7235(10) 1.0515(9) 0.8177(6)
H27A H 0.7014(10) 0.8838(9) 0.7921(6)
H28A H 0.6228(10) 0.9699(9) 0.8710(6)
C21 C 0.7210(7) 0.4884(6) 0.7990(4)
H29 H 0.7766(7) 0.5735(6) 0.7912(4)
H30 H 0.6506(7) 0.5197(6) 0.8397(4)
Cl1 Cl 0.8389(2) 0.3986(2) 0.85902(14)
Cl2 Cl 0.6266(6) 0.3897(7) 0.6855(4)
H31? H 0.7716(7) 0.5388(6) 0.7611(4)
H32? H 0.6821(7) 0.5564(6) 0.8450(4)
Cl3? Cl 0.5811(6) 0.3616(6) 0.7251(4)
loop_
_geom_bond_atom_site_label_1
_geom_bond_atom_site_label_2
_geom_bond_site_symmetry_1
_geom_bond_site_symmetry_2
O1 C1 1_555 1_555
C1 H1 1_555 1_555
H2 C1 1_555 1_555
C2 C1 1_555 1_555
H3 C2 1_555 1_555
H4 C2 1_555 1_555
O2 C2 1_555 1_555
C3 O2 1_555 1_555
H5 C3 1_555 1_555
H6 C3 1_555 1_555
C4 C3 1_555 1_555
H7 C4 1_555 1_555
H8 C4 1_555 1_555
O3 C4 1_555 1_555
C5 O3 1_555 1_555
H9 C5 1_555 1_555
H10 C5 1_555 1_555
C6 C5 1_555 1_555
H11 C6 1_555 1_555
H12 C6 1_555 1_555
O4 C6 1_555 1_555
C7 O4 1_555 1_555
H13 C7 1_555 1_555
H14 C7 1_555 1_555
C8 C7 1_555 1_555
H15 C8 1_555 1_555
H16 C8 1_555 1_555
O5 C8 1_555 1_555
C9 O5 1_555 1_555
C10 C9 1_555 1_555
C11 C10 1_555 1_555
H17 C11 1_555 1_555
C12 O1 1_555 1_555
C13 C12 1_555 1_555
C14 C9 1_555 1_555
H18 C14 1_555 1_555
C15 C10 1_555 1_555
O6 C15 1_555 1_555
O7 C15 1_555 1_555
C16 O7 1_555 1_555
H19 C16 1_555 1_555
H20 C16 1_555 1_555
C17 C16 1_555 1_555
H21 C17 1_555 1_555
H22 C17 1_555 1_555
H23 C17 1_555 1_555
C18 C13 1_555 1_555
O8 C18 1_555 1_555
O9 C18 1_555 1_555
C19 O9 1_555 1_555
H24 C19 1_555 1_555
H25 C19 1_555 1_555
C20 C19 1_555 1_555
H26 C20 1_555 1_555
H27 C20 1_555 1_555
H28 C20 1_555 1_555
C21 H29 1_555 1_555
H30 C21 1_555 1_555
Cl1 C21 1_555 1_555
Cl2 C21 1_555 1_555
C12A C11 1_555 1_555
O1A C12A 1_555 1_555
C1A O1A 1_555 1_555
H1A C1A 1_555 1_555
H2A C1A 1_555 1_555
C2A C1A 1_555 1_555
H3A C2A 1_555 1_555
H4A C2A 1_555 1_555
O2A C2A 1_555 1_555
C3A O2A 1_555 1_555
H5A C3A 1_555 1_555
H6A C3A 1_555 1_555
C4A C3A 1_555 1_555
H7A C4A 1_555 1_555
H8A C4A 1_555 1_555
O3A C4A 1_555 1_555
C5A O3A 1_555 1_555
H9A C5A 1_555 1_555
H10A C5A 1_555 1_555
C6A C5A 1_555 1_555
H11A C6A 1_555 1_555
H12A C6A 1_555 1_555
O4A C6A 1_555 1_555
C7A O4A 1_555 1_555
H13A C7A 1_555 1_555
H14A C7A 1_555 1_555
C8A C7A 1_555 1_555
H15A C8A 1_555 1_555
H16A C8A 1_555 1_555
O5A C8A 1_555 1_555
C9A O5A 1_555 1_555
C10A C9A 1_555 1_555
C11A C12 1_555 1_555
H17A C11A 1_555 1_555
C14A C13 1_555 1_555
H18A C14A 1_555 1_555
C15A C10A 1_555 1_555
O6A C15A 1_555 1_555
O7A C15A 1_555 1_555
C16A O7A 1_555 1_555
H19A C16A 1_555 1_555
H20A C16A 1_555 1_555
C17A C16A 1_555 1_555
H21A C17A 1_555 1_555
H22A C17A 1_555 1_555
H23A C17A 1_555 1_555
C13A C14 1_555 1_555
C18A C13A 1_555 1_555
O8A C18A 1_555 1_555
O9A C18A 1_555 1_555
C19A O9A 1_555 1_555
H24A C19A 1_555 1_555
H25A C19A 1_555 1_555
C20A C19A 1_555 1_555
H26A C20A 1_555 1_555
H27A C20A 1_555 1_555
H28A C20A 1_555 1_555
C12A C13A 1_555 1_555
C9A C14A 1_555 1_555
C10A C11A 1_555 1_555

#END
