
#######################################################################
#
#                 Cambridge Crystallographic Data Centre
#                                CCDC 
#
#######################################################################
#
# If this CIF has been generated from an entry in the Cambridge 
# Structural Database, then it will include bibliographic, chemical, 
# crystal, experimental, refinement or atomic coordinate data resulting 
# from the CCDC's data processing and validation procedures.
#
#######################################################################

data_UBILOI
_chemical_formula_moiety         'C18 H14 Br1 N3 O3'
_chemical_name_systematic        
"Ethyl 6'-bromo-5,5-dicyano-1'-methyl-2'-oxo-1',2'-dihydrospiro[cyclopent-2-ene-1,3'-indole]-2-carboxylate"
_symmetry_cell_setting           triclinic
_symmetry_space_group_name_H-M   'P -1'
_symmetry_Int_Tables_number      2
_space_group_name_Hall           '-P 1'
loop_
_symmetry_equiv_pos_site_id
_symmetry_equiv_pos_as_xyz
1 x,y,z
2 -x,-y,-z
_cell_length_a                   7.8650(10)
_cell_length_b                   10.2865(13)
_cell_length_c                   11.4049(15)
_cell_angle_alpha                85.712(2)
_cell_angle_beta                 83.101(2)
_cell_angle_gamma                72.586(2)
_cell_volume                     873.296
_exptl_crystal_colour            colorless
_exptl_crystal_description       prismatic
_cell_formula_units_Z            2
loop_
_atom_site_label
_atom_site_type_symbol
_atom_site_fract_x
_atom_site_fract_y
_atom_site_fract_z
Br1 Br 0.26419(4) 1.11360(4) 0.43508(3)
N1 N 0.1100(3) 0.6613(2) 0.35053(18)
N2 N -0.3924(4) 0.6930(3) 0.3833(3)
N3 N -0.4117(4) 1.0205(3) 0.1280(3)
O1 O 0.0304(3) 0.50255(19) 0.25508(16)
O2 O 0.3300(3) 0.6745(2) 0.06824(16)
O3 O 0.2372(2) 0.6806(2) -0.11118(15)
C1 C 0.0393(3) 0.6167(3) 0.2644(2)
C2 C -0.0373(3) 0.7421(2) 0.1797(2)
C3 C 0.0202(3) 0.8524(3) 0.2290(2)
C4 C 0.1057(3) 0.7990(3) 0.3295(2)
C5 C 0.1775(3) 0.8745(3) 0.3941(2)
H1 H 0.2327 0.8386 0.4619
C6 C 0.1622(4) 1.0072(3) 0.3518(2)
C7 C 0.0816(4) 1.0625(3) 0.2525(3)
H2 H 0.0752 1.1517 0.2269
C8 C 0.0093(4) 0.9842(3) 0.1900(2)
H3 H -0.0461 1.0207 0.1224
C9 C -0.2472(3) 0.7665(3) 0.1807(2)
C10 C -0.2660(4) 0.6819(3) 0.0777(2)
H4 H -0.2734 0.5923 0.1060
H5 H -0.3706 0.7286 0.0373
C11 C -0.0974(4) 0.6726(3) -0.0006(2)
H6 H -0.0796 0.6466 -0.0786
C12 C 0.0244(3) 0.7051(2) 0.0518(2)
C13 C 0.2140(3) 0.6862(3) 0.0056(2)
C14 C 0.4188(4) 0.6573(3) -0.1688(3)
H7 H 0.4916 0.5656 -0.1499
H8 H 0.4735 0.7216 -0.1428
C15 C 0.4045(5) 0.6765(5) -0.2976(3)
H9 H 0.3516 0.6116 -0.3223
H10 H 0.5218 0.6631 -0.3390
H11 H 0.3310 0.7672 -0.3150
C16 C 0.1882(4) 0.5757(3) 0.4488(2)
H12 H 0.1854 0.4842 0.4408
H13 H 0.1210 0.6101 0.5216
H14 H 0.3100 0.5763 0.4489
C17 C -0.3305(4) 0.7270(3) 0.2959(3)
C18 C -0.3396(4) 0.9115(3) 0.1540(3)
loop_
_geom_bond_atom_site_label_1
_geom_bond_atom_site_label_2
_geom_bond_site_symmetry_1
_geom_bond_site_symmetry_2
Br1 C6 1_555 1_555
N1 C1 1_555 1_555
N2 C17 1_555 1_555
N3 C18 1_555 1_555
O1 C1 1_555 1_555
O2 C13 1_555 1_555
O3 C13 1_555 1_555
C1 C2 1_555 1_555
C2 C3 1_555 1_555
C3 C4 1_555 1_555
C4 N1 1_555 1_555
C5 C4 1_555 1_555
H1 C5 1_555 1_555
C6 C5 1_555 1_555
C7 C6 1_555 1_555
H2 C7 1_555 1_555
C8 C3 1_555 1_555
H3 C8 1_555 1_555
C9 C2 1_555 1_555
C10 C9 1_555 1_555
H4 C10 1_555 1_555
H5 C10 1_555 1_555
C11 C10 1_555 1_555
H6 C11 1_555 1_555
C12 C2 1_555 1_555
C13 C12 1_555 1_555
C14 O3 1_555 1_555
H7 C14 1_555 1_555
H8 C14 1_555 1_555
C15 C14 1_555 1_555
H9 C15 1_555 1_555
H10 C15 1_555 1_555
H11 C15 1_555 1_555
C16 N1 1_555 1_555
H12 C16 1_555 1_555
H13 C16 1_555 1_555
H14 C16 1_555 1_555
C17 C9 1_555 1_555
C18 C9 1_555 1_555
C7 C8 1_555 1_555
C11 C12 1_555 1_555

#END
