
#######################################################################
#
#                 Cambridge Crystallographic Data Centre
#                                CCDC 
#
#######################################################################
#
# If this CIF has been generated from an entry in the Cambridge 
# Structural Database, then it will include bibliographic, chemical, 
# crystal, experimental, refinement or atomic coordinate data resulting 
# from the CCDC's data processing and validation procedures.
#
#######################################################################

data_UBIMIB
_chemical_formula_moiety         'C7 H10 O4'
_chemical_name_systematic        '(+)-Crobarbatic acid'
_symmetry_cell_setting           orthorhombic
_symmetry_space_group_name_H-M   'P 21 21 21'
_symmetry_Int_Tables_number      19
_space_group_name_Hall           'P 2ac 2ab'
loop_
_symmetry_equiv_pos_site_id
_symmetry_equiv_pos_as_xyz
1 x,y,z
2 1/2-x,-y,1/2+z
3 -x,1/2+y,1/2-z
4 1/2+x,1/2-y,-z
_cell_length_a                   6.065(12)
_cell_length_b                   11.17(2)
_cell_length_c                   11.52(2)
_cell_angle_alpha                90
_cell_angle_beta                 90
_cell_angle_gamma                90
_cell_volume                     780.434
_cell_formula_units_Z            4
loop_
_atom_site_label
_atom_site_type_symbol
_atom_site_fract_x
_atom_site_fract_y
_atom_site_fract_z
O1 O 1.2054(4) 0.4332(2) 0.56924(19)
O2 O 0.9698(3) 0.5561(2) 0.48484(15)
O3 O 1.0941(4) 0.5344(3) 0.2706(2)
O4 O 0.7984(4) 0.6299(2) 0.2065(2)
C1 C 1.0501(5) 0.4470(3) 0.5072(2)
C2 C 0.9205(5) 0.3534(3) 0.4458(2)
C3 C 0.7174(5) 0.4191(2) 0.4045(2)
C4 C 0.7950(5) 0.5512(3) 0.3998(2)
C5 C 0.8949(5) 0.5787(3) 0.2808(3)
C6 C 0.6177(6) 0.3700(3) 0.2940(3)
C7 C 0.6193(6) 0.6404(3) 0.4306(3)
H1 H 1.1528 0.5585 0.1985
H2 H 0.8698 0.2824 0.4997
H3 H 1.0113 0.3169 0.3785
H4 H 0.5944 0.4179 0.4647
H5 H 0.4695 0.4114 0.2832
H6 H 0.7124 0.3668 0.2254
H7 H 0.5460 0.2862 0.3064
H8 H 0.4913 0.6272 0.3681
H9 H 0.6836 0.7256 0.4413
H10 H 0.5736 0.6316 0.5127
loop_
_geom_bond_atom_site_label_1
_geom_bond_atom_site_label_2
_geom_bond_site_symmetry_1
_geom_bond_site_symmetry_2
O1 C1 1_555 1_555
O2 C1 1_555 1_555
O3 C5 1_555 1_555
O4 C5 1_555 1_555
C1 C2 1_555 1_555
C2 C3 1_555 1_555
C3 C4 1_555 1_555
C4 O2 1_555 1_555
C5 C4 1_555 1_555
C6 C3 1_555 1_555
C7 C4 1_555 1_555
H1 O3 1_555 1_555
H2 C2 1_555 1_555
H3 C2 1_555 1_555
H4 C3 1_555 1_555
H5 C6 1_555 1_555
H6 C6 1_555 1_555
H7 C6 1_555 1_555
H8 C7 1_555 1_555
H9 C7 1_555 1_555
H10 C7 1_555 1_555

#END
