
#######################################################################
#
#                 Cambridge Crystallographic Data Centre
#                                CCDC 
#
#######################################################################
#
# If this CIF has been generated from an entry in the Cambridge 
# Structural Database, then it will include bibliographic, chemical, 
# crystal, experimental, refinement or atomic coordinate data resulting 
# from the CCDC's data processing and validation procedures.
#
#######################################################################

data_UBIMEX
_chemical_formula_moiety         'C24 H41 N1 O7 S1'
_chemical_name_systematic        
"Methyl 3-(1-(((di-isopropylamino)sulfonyl)methyl)-4',7,7-trimethyl-5'-oxospirobicyclo[2.2.1]heptane-2,2'-[1,3]dioxalan-4'-yl)butanoate"
_symmetry_cell_setting           monoclinic
_symmetry_space_group_name_H-M   'C 2'
_symmetry_Int_Tables_number      5
_space_group_name_Hall           'C 2y'
loop_
_symmetry_equiv_pos_site_id
_symmetry_equiv_pos_as_xyz
1 x,y,z
2 -x,y,-z
3 1/2+x,1/2+y,z
4 1/2-x,1/2+y,-z
_cell_length_a                   25.9355(18)
_cell_length_b                   7.4531(5)
_cell_length_c                   14.8621(11)
_cell_angle_alpha                90
_cell_angle_beta                 109.1910(10)
_cell_angle_gamma                90
_cell_volume                     2713.19
_exptl_crystal_colour            colorless
_exptl_crystal_description       equant
_cell_formula_units_Z            4
loop_
_atom_site_label
_atom_site_type_symbol
_atom_site_fract_x
_atom_site_fract_y
_atom_site_fract_z
S1 S 0.82914(2) 0.84271(10) 0.77177(5)
O1 O 1.13485(8) 0.2088(4) 0.81907(16)
O2 O 1.08335(12) 0.2375(6) 0.6703(2)
O3 O 0.92696(8) 0.3359(3) 0.77626(16)
O4 O 0.89320(7) 0.5406(3) 0.66193(13)
O5 O 0.95712(6) 0.7568(2) 0.71099(12)
O6 O 0.86725(8) 0.7132(3) 0.82832(15)
O7 O 0.77611(8) 0.7828(3) 0.71332(17)
N1 N 0.82099(9) 0.9943(3) 0.84282(15)
C1 C 1.17475(14) 0.1106(6) 0.7886(3)
C2 C 1.09054(13) 0.2632(5) 0.7510(3)
C3 C 1.05221(12) 0.3597(6) 0.7928(2)
C4 C 1.02547(10) 0.5189(4) 0.73211(19)
C5 C 1.06750(12) 0.6644(6) 0.7324(3)
C6 C 0.97945(10) 0.6014(4) 0.76584(18)
C7 C 0.99809(12) 0.6496(5) 0.87055(19)
C8 C 0.93150(11) 0.4762(4) 0.7395(2)
C9 C 0.91068(10) 0.7089(4) 0.63360(17)
C10 C 0.92178(13) 0.6884(5) 0.5375(2)
C11 C 0.88201(13) 0.8232(6) 0.47157(19)
C12 C 0.82619(17) 0.7427(7) 0.4485(2)
C13 C 0.81304(11) 0.7643(5) 0.5444(2)
C14 C 0.86575(9) 0.8531(5) 0.61186(16)
C15 C 0.88248(12) 0.9801(5) 0.53959(19)
C16 C 0.93783(14) 1.0714(5) 0.5795(2)
C17 C 0.84135(17) 1.1276(6) 0.4948(2)
C18 C 0.86034(9) 0.9552(4) 0.69702(17)
C19 C 0.85613(13) 1.0129(5) 0.94422(19)
C20 C 0.91465(13) 1.0515(6) 0.9555(2)
C21 C 0.84942(18) 0.8568(7) 1.0034(3)
C22 C 0.77644(11) 1.1293(4) 0.8032(2)
C23 C 0.73308(13) 1.1101(6) 0.8505(3)
C24 C 0.79693(14) 1.3156(5) 0.8068(3)
H1 H 1.1538 0.0104 0.7423
H2 H 1.1845 0.2026 0.7390
H3 H 1.2080 0.1247 0.8452
H4 H 1.0696 0.3685 0.8607
H5 H 1.0176 0.2359 0.7981
H6 H 1.0068 0.4823 0.6625
H7 H 1.0955 0.7204 0.7968
H8 H 1.0934 0.6116 0.7008
H9 H 1.0501 0.7867 0.6854
H10 H 0.9688 0.7195 0.8844
H11 H 1.0254 0.7455 0.8896
H12 H 1.0104 0.5417 0.9159
H13 H 0.9603 0.7269 0.5501
H14 H 0.9117 0.5703 0.5131
H15 H 0.8977 0.8724 0.4156
H16 H 0.7966 0.8315 0.3980
H17 H 0.8194 0.6146 0.4085
H18 H 0.7811 0.8572 0.5384
H19 H 0.7994 0.6526 0.5797
H20 H 0.9454 1.1383 0.5273
H21 H 0.9312 1.1667 0.6138
H22 H 0.9681 0.9803 0.6182
H23 H 0.8091 1.0543 0.4731
H24 H 0.8431 1.2207 0.5431
H25 H 0.8237 1.1736 0.4218
H26 H 0.8390 1.0662 0.6751
H27 H 0.8921 1.0233 0.7365
H28 H 0.8371 1.1375 0.9640
H29 H 0.9370 1.0703 1.0182
H30 H 0.9203 1.1651 0.9099
H31 H 0.9297 0.9495 0.9377
H32 H 0.8660 0.7416 1.0026
H33 H 0.8541 0.8664 1.0617
H34 H 0.8117 0.8474 0.9920
H35 H 0.7626 1.0797 0.7242
H36 H 0.7057 1.1888 0.8246
H37 H 0.7560 1.1904 0.9260
H38 H 0.7273 0.9771 0.8616
H39 H 0.8169 1.3364 0.8781
H40 H 0.8229 1.3423 0.7896
H41 H 0.7853 1.4264 0.8031
loop_
_geom_bond_atom_site_label_1
_geom_bond_atom_site_label_2
_geom_bond_site_symmetry_1
_geom_bond_site_symmetry_2
S1 O6 1_555 1_555
O1 C1 1_555 1_555
O2 C2 1_555 1_555
O3 C8 1_555 1_555
O4 C8 1_555 1_555
O5 C6 1_555 1_555
O7 S1 1_555 1_555
N1 S1 1_555 1_555
C1 H1 1_555 1_555
C2 O1 1_555 1_555
C3 C2 1_555 1_555
C4 C3 1_555 1_555
C5 C4 1_555 1_555
C6 C4 1_555 1_555
C7 C6 1_555 1_555
C8 C6 1_555 1_555
C9 O4 1_555 1_555
C10 C9 1_555 1_555
C11 C10 1_555 1_555
C12 C11 1_555 1_555
C13 C12 1_555 1_555
C14 C9 1_555 1_555
C15 C11 1_555 1_555
C16 C15 1_555 1_555
C17 C15 1_555 1_555
C18 S1 1_555 1_555
C19 N1 1_555 1_555
C20 C19 1_555 1_555
C21 C19 1_555 1_555
C22 N1 1_555 1_555
C23 C22 1_555 1_555
C24 C22 1_555 1_555
H2 C1 1_555 1_555
H3 C1 1_555 1_555
H4 C3 1_555 1_555
H5 C3 1_555 1_555
H6 C4 1_555 1_555
H7 C5 1_555 1_555
H8 C5 1_555 1_555
H9 C5 1_555 1_555
H10 C7 1_555 1_555
H11 C7 1_555 1_555
H12 C7 1_555 1_555
H13 C10 1_555 1_555
H14 C10 1_555 1_555
H15 C11 1_555 1_555
H16 C12 1_555 1_555
H17 C12 1_555 1_555
H18 C13 1_555 1_555
H19 C13 1_555 1_555
H20 C16 1_555 1_555
H21 C16 1_555 1_555
H22 C16 1_555 1_555
H23 C17 1_555 1_555
H24 C17 1_555 1_555
H25 C17 1_555 1_555
H26 C18 1_555 1_555
H27 C18 1_555 1_555
H28 C19 1_555 1_555
H29 C20 1_555 1_555
H30 C20 1_555 1_555
H31 C20 1_555 1_555
H32 C21 1_555 1_555
H33 C21 1_555 1_555
H34 C21 1_555 1_555
H35 C22 1_555 1_555
H36 C23 1_555 1_555
H37 C23 1_555 1_555
H38 C23 1_555 1_555
H39 C24 1_555 1_555
H40 C24 1_555 1_555
H41 C24 1_555 1_555
O5 C9 1_555 1_555
C13 C14 1_555 1_555
C14 C18 1_555 1_555
C14 C15 1_555 1_555

#END
