
#######################################################################
#
#                 Cambridge Crystallographic Data Centre
#                                CCDC 
#
#######################################################################
#
# If this CIF has been generated from an entry in the Cambridge 
# Structural Database, then it will include bibliographic, chemical, 
# crystal, experimental, refinement or atomic coordinate data resulting 
# from the CCDC's data processing and validation procedures.
#
#######################################################################

data_UBIWEJ
_chemical_formula_moiety         'C8 H12 N1 1+,C8 H6 Cl1 O3 1-'
_chemical_name_systematic        
'(R)-1-Phenylethanaminium (R)-(3-chlorophenyl)(hydroxy)acetate'
_symmetry_cell_setting           orthorhombic
_symmetry_space_group_name_H-M   'P 21 21 21'
_symmetry_Int_Tables_number      19
_space_group_name_Hall           'P 2ac 2ab'
loop_
_symmetry_equiv_pos_site_id
_symmetry_equiv_pos_as_xyz
1 x,y,z
2 1/2-x,-y,1/2+z
3 -x,1/2+y,1/2-z
4 1/2+x,1/2-y,-z
_cell_length_a                   6.9214(2)
_cell_length_b                   8.4761(2)
_cell_length_c                   25.8423(6)
_cell_angle_alpha                90
_cell_angle_beta                 90
_cell_angle_gamma                90
_cell_volume                     1516.08
_cell_formula_units_Z            4
loop_
_atom_site_label
_atom_site_type_symbol
_atom_site_fract_x
_atom_site_fract_y
_atom_site_fract_z
Cl1 Cl 0.3905(4) -0.0563(3) 0.23491(9)
C1 C 0.4188(8) -0.1555(7) 0.17849(15)
C2 C 0.2935(6) -0.1312(6) 0.13722(19)
H1 H 0.1866 -0.0618 0.1409
C3 C 0.3245(6) -0.2086(6) 0.09052(16)
C4 C 0.4808(7) -0.3102(6) 0.08509(16)
H2 H 0.5020 -0.3630 0.0532
C5 C 0.6062(7) -0.3344(6) 0.1264(2)
H3 H 0.7130 -0.4039 0.1226
C6 C 0.5752(7) -0.2571(7) 0.17305(17)
H4 H 0.6608 -0.2737 0.2013
C7 C 0.1950(9) -0.1784(7) 0.0427(2)
H5 H 0.2101 -0.2703 0.0188
O1 O -0.0037(7) -0.1655(6) 0.0553(2)
H6 H -0.0632 -0.2445 0.0438
C8 C 0.2667(9) -0.0315(7) 0.0142(2)
O2 O 0.4356(6) -0.0375(5) -0.00360(17)
O3 O 0.1547(6) 0.0864(5) 0.01069(18)
N1 N 0.2556(8) 0.3680(6) -0.0396(2)
H7 H 0.2564 0.2670 -0.0276
H8 H 0.1661 0.4252 -0.0219
H9 H 0.3744 0.4117 -0.0351
C9 C 0.0167(9) 0.2791(8) -0.1034(3)
H10 H -0.0251 0.2883 -0.1395
H11 H -0.0823 0.3241 -0.0807
H12 H 0.0358 0.1676 -0.0948
C10 C 0.2057(9) 0.3679(8) -0.0961(2)
H13 H 0.1859 0.4796 -0.1073
C11 C 0.3601(8) 0.2962(7) -0.1293(2)
C12 C 0.3798(11) 0.3477(9) -0.1806(3)
H14 H 0.3056 0.4347 -0.1925
C13 C 0.5068(12) 0.2729(10) -0.2143(3)
H15 H 0.5174 0.3076 -0.2491
C14 C 0.6165(11) 0.1491(10) -0.1972(3)
H16 H 0.7020 0.0975 -0.2204
C15 C 0.6045(11) 0.0989(9) -0.1471(3)
H17 H 0.6843 0.0146 -0.1357
C16 C 0.4764(10) 0.1697(8) -0.1123(3)
H18 H 0.4678 0.1332 -0.0776
loop_
_geom_bond_atom_site_label_1
_geom_bond_atom_site_label_2
_geom_bond_site_symmetry_1
_geom_bond_site_symmetry_2
Cl1 C1 1_555 1_555
C1 C2 1_555 1_555
C2 H1 1_555 1_555
C3 C2 1_555 1_555
C4 C3 1_555 1_555
H2 C4 1_555 1_555
C5 C4 1_555 1_555
H3 C5 1_555 1_555
C6 C1 1_555 1_555
H4 C6 1_555 1_555
C7 C3 1_555 1_555
H5 C7 1_555 1_555
O1 C7 1_555 1_555
H6 O1 1_555 1_555
C8 C7 1_555 1_555
O2 C8 1_555 1_555
O3 C8 1_555 1_555
N1 H7 1_555 1_555
H8 N1 1_555 1_555
H9 N1 1_555 1_555
C9 H10 1_555 1_555
H11 C9 1_555 1_555
H12 C9 1_555 1_555
C10 N1 1_555 1_555
H13 C10 1_555 1_555
C11 C10 1_555 1_555
C12 C11 1_555 1_555
H14 C12 1_555 1_555
C13 C12 1_555 1_555
H15 C13 1_555 1_555
C14 C13 1_555 1_555
H16 C14 1_555 1_555
C15 C14 1_555 1_555
H17 C15 1_555 1_555
C16 C11 1_555 1_555
H18 C16 1_555 1_555
C5 C6 1_555 1_555
C9 C10 1_555 1_555
C15 C16 1_555 1_555

#END
