
#######################################################################
#
#                 Cambridge Crystallographic Data Centre
#                                CCDC 
#
#######################################################################
#
# If this CIF has been generated from an entry in the Cambridge 
# Structural Database, then it will include bibliographic, chemical, 
# crystal, experimental, refinement or atomic coordinate data resulting 
# from the CCDC's data processing and validation procedures.
#
#######################################################################

data_UBIWIN
_chemical_formula_moiety         'C8 H12 N1 1+,C8 H6 Cl1 O3 1-'
_chemical_name_systematic        
'(R)-1-Phenylethanaminium (S)-(3-chlorophenyl)(hydroxy)acetate'
_symmetry_cell_setting           monoclinic
_symmetry_space_group_name_H-M   'P 21'
_symmetry_Int_Tables_number      4
_space_group_name_Hall           'P 2yb'
loop_
_symmetry_equiv_pos_site_id
_symmetry_equiv_pos_as_xyz
1 x,y,z
2 -x,1/2+y,-z
_cell_length_a                   9.4779(11)
_cell_length_b                   5.9701(7)
_cell_length_c                   13.5755(18)
_cell_angle_alpha                90
_cell_angle_beta                 91.166(5)
_cell_angle_gamma                90
_cell_volume                     767.997
_exptl_crystal_colour            colorless
_exptl_crystal_description       plate
_cell_formula_units_Z            2
loop_
_atom_site_label
_atom_site_type_symbol
_atom_site_fract_x
_atom_site_fract_y
_atom_site_fract_z
Cl1 Cl -0.16920(11) 0.63316(18) 0.85699(7)
C1 C -0.0559(3) 0.4309(6) 0.8096(3)
C2 C -0.0106(3) 0.4493(5) 0.7136(2)
H1 H -0.0370 0.5747 0.6743
C3 C 0.0743(3) 0.2810(5) 0.6756(2)
C4 C 0.1121(3) 0.0986(6) 0.7339(3)
H2 H 0.1676 -0.0187 0.7076
C5 C 0.0684(3) 0.0881(7) 0.8307(3)
H3 H 0.0962 -0.0352 0.8709
C6 C -0.0144(3) 0.2536(7) 0.8692(3)
H4 H -0.0429 0.2467 0.9358
C7 C 0.1262(3) 0.2983(5) 0.5706(2)
H5 H 0.1565 0.1468 0.5478
O1 O 0.0215(2) 0.3839(3) 0.50392(17)
H6 H -0.0402 0.2855 0.4931
C8 C 0.2521(3) 0.4579(5) 0.5686(2)
O2 O 0.37427(19) 0.3707(3) 0.57445(14)
O3 O 0.22889(19) 0.6641(3) 0.56213(14)
N1 N 0.5330(2) 0.4331(4) 0.40331(17)
H7 H 0.4856 0.4261 0.4609
H8 H 0.5717 0.5717 0.3966
H9 H 0.6027 0.3281 0.4038
C9 C 0.3251(3) 0.5802(6) 0.3123(2)
H10 H 0.2572 0.5520 0.2583
H11 H 0.3746 0.7215 0.3003
H12 H 0.2749 0.5901 0.3745
C10 C 0.4319(3) 0.3886(5) 0.3180(2)
H13 H 0.3792 0.2478 0.3326
C11 C 0.5149(3) 0.3499(5) 0.2251(2)
C12 C 0.5215(3) 0.5059(5) 0.1493(2)
H14 H 0.4733 0.6447 0.1550
C13 C 0.5981(3) 0.4607(6) 0.0652(2)
H15 H 0.6034 0.5695 0.0144
C14 C 0.6663(3) 0.2581(6) 0.0556(2)
H16 H 0.7168 0.2262 -0.0025
C15 C 0.6613(3) 0.1020(6) 0.1302(2)
H17 H 0.7105 -0.0358 0.1241
C16 C 0.5849(3) 0.1452(6) 0.2139(2)
H18 H 0.5799 0.0350 0.2642
loop_
_geom_bond_atom_site_label_1
_geom_bond_atom_site_label_2
_geom_bond_site_symmetry_1
_geom_bond_site_symmetry_2
Cl1 C1 1_555 1_555
C1 C2 1_555 1_555
C2 H1 1_555 1_555
C3 C2 1_555 1_555
C4 C3 1_555 1_555
H2 C4 1_555 1_555
C5 C4 1_555 1_555
H3 C5 1_555 1_555
C6 C1 1_555 1_555
H4 C6 1_555 1_555
C7 C3 1_555 1_555
H5 C7 1_555 1_555
O1 C7 1_555 1_555
H6 O1 1_555 1_555
C8 C7 1_555 1_555
O2 C8 1_555 1_555
O3 C8 1_555 1_555
N1 H7 1_555 1_555
H8 N1 1_555 1_555
H9 N1 1_555 1_555
C9 H10 1_555 1_555
H11 C9 1_555 1_555
H12 C9 1_555 1_555
C10 N1 1_555 1_555
H13 C10 1_555 1_555
C11 C10 1_555 1_555
C12 C11 1_555 1_555
H14 C12 1_555 1_555
C13 C12 1_555 1_555
H15 C13 1_555 1_555
C14 C13 1_555 1_555
H16 C14 1_555 1_555
C15 C14 1_555 1_555
H17 C15 1_555 1_555
C16 C11 1_555 1_555
H18 C16 1_555 1_555
C5 C6 1_555 1_555
C9 C10 1_555 1_555
C15 C16 1_555 1_555

#END
