
#######################################################################
#
#                 Cambridge Crystallographic Data Centre
#                                CCDC 
#
#######################################################################
#
# If this CIF has been generated from an entry in the Cambridge 
# Structural Database, then it will include bibliographic, chemical, 
# crystal, experimental, refinement or atomic coordinate data resulting 
# from the CCDC's data processing and validation procedures.
#
#######################################################################

data_UBIWOT
_chemical_formula_moiety         'C26 H31 N1 O10'
_chemical_name_systematic        
(M,S)-4,4'-Dimethoxy-5,6,5',6'-dimethenedioxy-2-propyloxycarbonyl-2'-(1-hydroxymethyl-2-methylpropylaminocarbonyl)biphenyl
_symmetry_cell_setting           monoclinic
_symmetry_space_group_name_H-M   'P 21'
_symmetry_Int_Tables_number      4
_space_group_name_Hall           'P 2yb'
loop_
_symmetry_equiv_pos_site_id
_symmetry_equiv_pos_as_xyz
1 x,y,z
2 -x,1/2+y,-z
_cell_length_a                   9.2342(7)
_cell_length_b                   14.5257(18)
_cell_length_c                   10.2164(15)
_cell_angle_alpha                90
_cell_angle_beta                 116.578(4)
_cell_angle_gamma                90
_cell_volume                     1225.55
_exptl_crystal_colour            colorless
_exptl_crystal_description       prism
_chemical_melting_point          '372 K'
_cell_formula_units_Z            2
loop_
_atom_site_label
_atom_site_type_symbol
_atom_site_fract_x
_atom_site_fract_y
_atom_site_fract_z
O1 O 0.38782(15) 0.14579(9) 0.92174(12)
O2 O 0.04538(14) 0.15015(9) 0.74934(13)
O3 O -0.08665(13) 0.21585(9) 0.51668(12)
O4 O -0.26574(14) 0.37024(9) -0.09325(12)
O5 O -0.06535(15) 0.21023(9) -0.02064(13)
O6 O 0.11125(15) 0.16544(8) 0.21514(13)
O7 O 0.54422(14) 0.24399(8) 0.50194(15)
O8 O 0.46016(15) 0.56055(9) 0.54313(15)
H1 H 0.466(3) 0.619(2) 0.536(3)
O9 O -0.13211(15) 0.48762(8) 0.42848(13)
O10 O 0.13391(14) 0.45155(8) 0.53450(12)
N1 N 0.42082(16) 0.38232(9) 0.47407(15)
H2 H 0.350(3) 0.4132(15) 0.488(2)
C1 C 0.3224(2) 0.18263(10) 0.78332(17)
C2 C 0.1557(2) 0.18419(11) 0.70607(17)
C3 C 0.07838(18) 0.22201(11) 0.56769(17)
C4 C 0.15923(18) 0.25992(11) 0.49405(16)
C5 C 0.32964(18) 0.25590(10) 0.57138(17)
C6 C 0.40930(19) 0.21838(11) 0.71266(17)
H3 H 0.5243 0.2173 0.7611
C7 C -0.1600(2) 0.35239(12) 0.04906(18)
C8 C -0.0632(2) 0.27525(11) 0.07815(18)
C9 C 0.04250(19) 0.24915(11) 0.21984(17)
C10 C 0.06270(19) 0.29787(11) 0.34304(17)
C11 C -0.03267(19) 0.37876(11) 0.31261(17)
C12 C -0.14173(19) 0.40483(11) 0.17063(17)
H4 H -0.2046 0.4591 0.1563
C13 C 0.5544(2) 0.16618(14) 1.01276(19)
H5 H 0.5722 0.2326 1.0112
H6 H 0.6218 0.1334 0.9762
H7 H 0.5837 0.1466 1.1133
C14 C -0.1114(2) 0.17570(13) 0.63437(18)
H8 H -0.1818 0.1207 0.5990
H9 H -0.1645 0.2207 0.6717
C15 C -0.3760(2) 0.44539(14) -0.11769(19)
H10 H -0.3148 0.5028 -0.0830
H11 H -0.4398 0.4342 -0.0642
H12 H -0.4488 0.4505 -0.2225
C16 C 0.0743(2) 0.15384(13) 0.06305(19)
H13 H 0.1672 0.1735 0.0462
H14 H 0.0505 0.0884 0.0341
C17 C 0.43925(19) 0.29306(11) 0.51058(17)
C18 C 0.52777(19) 0.43236(11) 0.42745(18)
H15 H 0.6240 0.3922 0.4497
C19 C 0.5886(2) 0.51838(12) 0.5229(2)
H16 H 0.6774 0.5014 0.6192
H17 H 0.6320 0.5627 0.4757
C20 C 0.4447(2) 0.44927(13) 0.26075(18)
H18 H 0.5202 0.4871 0.2369
C21 C 0.2854(2) 0.50219(14) 0.2069(2)
H19 H 0.3062 0.5635 0.2516
H20 H 0.2110 0.4688 0.2344
H21 H 0.2369 0.5083 0.1002
C22 C 0.4206(3) 0.35707(14) 0.1807(2)
H22 H 0.3771 0.3681 0.0753
H23 H 0.3446 0.3190 0.1998
H24 H 0.5248 0.3252 0.2159
C23 C -0.02076(19) 0.44421(11) 0.43029(16)
C24 C 0.1668(2) 0.50990(12) 0.66092(17)
H25 H 0.0759 0.5533 0.6377
H26 H 0.2665 0.5462 0.6859
C25 C 0.1878(2) 0.44983(13) 0.79010(18)
H27 H 0.2438 0.4860 0.8813
H28 H 0.2581 0.3970 0.7959
C26 C 0.0290(2) 0.41326(14) 0.7817(2)
H29 H -0.0278 0.3776 0.6915
H30 H -0.0390 0.4650 0.7819
H31 H 0.0518 0.3736 0.8664
loop_
_geom_bond_atom_site_label_1
_geom_bond_atom_site_label_2
_geom_bond_site_symmetry_1
_geom_bond_site_symmetry_2
O1 C1 1_555 1_555
O2 C2 1_555 1_555
O3 C3 1_555 1_555
O4 C7 1_555 1_555
O5 C8 1_555 1_555
O6 C9 1_555 1_555
O7 C17 1_555 1_555
O8 H1 1_555 1_555
O9 C23 1_555 1_555
O10 C23 1_555 1_555
N1 H2 1_555 1_555
C1 C2 1_555 1_555
C2 C3 1_555 1_555
C3 C4 1_555 1_555
C4 C5 1_555 1_555
C5 C6 1_555 1_555
C6 C1 1_555 1_555
H3 C6 1_555 1_555
C7 C8 1_555 1_555
C8 C9 1_555 1_555
C9 C10 1_555 1_555
C10 C4 1_555 1_555
C11 C10 1_555 1_555
C12 C7 1_555 1_555
H4 C12 1_555 1_555
C13 O1 1_555 1_555
H5 C13 1_555 1_555
H6 C13 1_555 1_555
H7 C13 1_555 1_555
C14 O2 1_555 1_555
H8 C14 1_555 1_555
H9 C14 1_555 1_555
C15 O4 1_555 1_555
H10 C15 1_555 1_555
H11 C15 1_555 1_555
H12 C15 1_555 1_555
C16 O5 1_555 1_555
H13 C16 1_555 1_555
H14 C16 1_555 1_555
C17 N1 1_555 1_555
C18 N1 1_555 1_555
H15 C18 1_555 1_555
C19 O8 1_555 1_555
H16 C19 1_555 1_555
H17 C19 1_555 1_555
C20 C18 1_555 1_555
H18 C20 1_555 1_555
C21 C20 1_555 1_555
H19 C21 1_555 1_555
H20 C21 1_555 1_555
H21 C21 1_555 1_555
C22 C20 1_555 1_555
H22 C22 1_555 1_555
H23 C22 1_555 1_555
H24 C22 1_555 1_555
C23 C11 1_555 1_555
C24 O10 1_555 1_555
H25 C24 1_555 1_555
H26 C24 1_555 1_555
C25 C24 1_555 1_555
H27 C25 1_555 1_555
H28 C25 1_555 1_555
C26 C25 1_555 1_555
H29 C26 1_555 1_555
H30 C26 1_555 1_555
H31 C26 1_555 1_555
O3 C14 1_555 1_555
O6 C16 1_555 1_555
C5 C17 1_555 1_555
C11 C12 1_555 1_555
C18 C19 1_555 1_555

#END
