
#######################################################################
#
#                 Cambridge Crystallographic Data Centre
#                                CCDC 
#
#######################################################################
#
# If this CIF has been generated from an entry in the Cambridge 
# Structural Database, then it will include bibliographic, chemical, 
# crystal, experimental, refinement or atomic coordinate data resulting 
# from the CCDC's data processing and validation procedures.
#
#######################################################################

data_UBIXIO
_chemical_name_common            'PDB Chemical Component code: PYE'
_chemical_formula_moiety         'C16 H16 N1 O4 S1 1-,C8 H12 N1 1+,C5 H10 O1'
_chemical_name_systematic        
'(R)-1-Phenylethanaminium (S)-2-(((4-methylphenyl)sulfonyl)amino)-3-phenylpropanoate tetrahydro-2H-pyran solvate'
_symmetry_cell_setting           orthorhombic
_symmetry_space_group_name_H-M   'P 21 21 21'
_symmetry_Int_Tables_number      19
_space_group_name_Hall           'P 2ac 2ab'
loop_
_symmetry_equiv_pos_site_id
_symmetry_equiv_pos_as_xyz
1 x,y,z
2 1/2-x,-y,1/2+z
3 1/2+x,1/2-y,-z
4 -x,1/2+y,1/2-z
_cell_length_a                   6.1431(12)
_cell_length_b                   20.043(4)
_cell_length_c                   22.181(4)
_cell_angle_alpha                90
_cell_angle_beta                 90
_cell_angle_gamma                90
_cell_volume                     2731.06
_exptl_crystal_colour            colorless
_exptl_crystal_description       needle
_cell_formula_units_Z            4
loop_
_atom_site_label
_atom_site_type_symbol
_atom_site_fract_x
_atom_site_fract_y
_atom_site_fract_z
C1 C 0.9403(4) 0.05283(13) 0.02405(11)
H1 H 1.0153 0.0316 0.0591
N1 N 0.7186(4) 0.06789(12) 0.04255(10)
H2 H 0.624(10) 0.059(3) 0.022(2)
S1 S 0.64614(10) 0.08554(3) 0.11077(3)
O1 O 0.5015(3) 0.14156(10) 0.11039(9)
O2 O 0.8425(3) 0.08970(10) 0.14532(8)
C2 C 0.4944(4) 0.01636(13) 0.13628(11)
C3 C 0.5832(5) -0.04769(14) 0.13424(12)
H3 H 0.7245 -0.0546 0.1180
C4 C 0.4642(5) -0.10104(14) 0.15597(13)
H4 H 0.5239 -0.1447 0.1544
C5 C 0.2550(5) -0.09110(16) 0.18045(11)
C6 C 0.1707(5) -0.02754(16) 0.18225(12)
H5 H 0.0302 -0.0204 0.1989
C7 C 0.2890(4) 0.02677(14) 0.15985(11)
H6 H 0.2286 0.0704 0.1608
C8 C 0.1239(7) -0.14888(17) 0.20478(15)
H7 H 0.0949 -0.1418 0.2477
H8 H 0.2061 -0.1904 0.1995
H9 H -0.0143 -0.1520 0.1829
C9 C 1.0766(4) 0.11349(12) 0.00501(11)
O3 O 0.9842(3) 0.16963(9) -0.00027(8)
O4 O 1.2721(3) 0.10258(9) -0.00515(9)
C10 C 0.9386(5) 0.00170(13) -0.02781(11)
H10 H 0.8407 0.0180 -0.0601
H11 H 1.0871 -0.0017 -0.0449
C11 C 0.8649(5) -0.06667(13) -0.00820(11)
C12 C 1.0056(5) -0.10655(15) 0.02581(13)
H12 H 1.1466 -0.0906 0.0359
C13 C 0.9402(6) -0.16921(14) 0.04479(13)
H13 H 1.0371 -0.1961 0.0677
C14 C 0.7339(6) -0.19314(15) 0.03063(15)
H14 H 0.6900 -0.2363 0.0435
C15 C 0.5950(6) -0.15400(15) -0.00196(15)
H15 H 0.4530 -0.1698 -0.0111
C16 C 0.6596(5) -0.09083(14) -0.02198(12)
H16 H 0.5622 -0.0644 -0.0451
C17 C 0.5980(5) 0.20530(13) -0.10365(12)
H17 H 0.7239 0.2354 -0.1124
N2 N 0.5734(4) 0.20006(12) -0.03641(11)
H18 H 0.683(5) 0.1849(14) -0.0179(12)
H19 H 0.480(7) 0.177(2) -0.0284(17)
H20 H 0.531(7) 0.243(2) -0.0189(18)
C18 C 0.6439(5) 0.13813(13) -0.13156(11)
C19 C 0.4873(5) 0.08788(15) -0.13243(11)
H21 H 0.3510 0.0947 -0.1132
C20 C 0.5297(6) 0.02766(16) -0.16139(13)
H22 H 0.4223 -0.0064 -0.1617
C21 C 0.7279(7) 0.01708(19) -0.18981(14)
H23 H 0.7550 -0.0239 -0.2099
C22 C 0.8834(6) 0.0653(2) -0.18892(14)
H24 H 1.0197 0.0578 -0.2080
C23 C 0.8423(5) 0.12608(17) -0.15978(13)
H25 H 0.9517 0.1596 -0.1593
C24 C 0.3928(7) 0.23778(17) -0.12827(15)
H26 H 0.3967 0.2371 -0.1724
H27 H 0.3846 0.2840 -0.1141
H28 H 0.2650 0.2131 -0.1141
O5 O 0.7866(11) 0.3035(2) -0.2508(2)
C25 C 0.6519(15) 0.3466(5) -0.2851(3)
H29 H 0.6693 0.3929 -0.2703
H30 H 0.4978 0.3336 -0.2795
C26 C 0.7084(19) 0.3441(5) -0.3524(3)
H31 H 0.6478 0.3030 -0.3707
H32 H 0.6448 0.3831 -0.3734
C27 C 0.941(3) 0.3446(5) -0.3586(3)
H33 H 0.9794 0.3392 -0.4017
H34 H 0.9976 0.3885 -0.3452
C28 C 1.0434(11) 0.2945(7) -0.3253(3)
H35 H 0.9769 0.2505 -0.3337
H36 H 1.2008 0.2924 -0.3348
C29 C 1.0107(13) 0.3129(7) -0.2662(3)
H37 H 1.0512 0.3603 -0.2606
H38 H 1.1036 0.2855 -0.2394
loop_
_geom_bond_atom_site_label_1
_geom_bond_atom_site_label_2
_geom_bond_site_symmetry_1
_geom_bond_site_symmetry_2
C1 H1 1_555 1_555
N1 C1 1_555 1_555
H2 N1 1_555 1_555
S1 N1 1_555 1_555
O1 S1 1_555 1_555
O2 S1 1_555 1_555
C2 S1 1_555 1_555
C3 C2 1_555 1_555
H3 C3 1_555 1_555
C4 C3 1_555 1_555
H4 C4 1_555 1_555
C5 C4 1_555 1_555
C6 C5 1_555 1_555
H5 C6 1_555 1_555
C7 C2 1_555 1_555
H6 C7 1_555 1_555
C8 C5 1_555 1_555
H7 C8 1_555 1_555
H8 C8 1_555 1_555
H9 C8 1_555 1_555
C9 C1 1_555 1_555
O3 C9 1_555 1_555
O4 C9 1_555 1_555
C10 C1 1_555 1_555
H10 C10 1_555 1_555
H11 C10 1_555 1_555
C11 C10 1_555 1_555
C12 C11 1_555 1_555
H12 C12 1_555 1_555
C13 C12 1_555 1_555
H13 C13 1_555 1_555
C14 C13 1_555 1_555
H14 C14 1_555 1_555
C15 C14 1_555 1_555
H15 C15 1_555 1_555
C16 C11 1_555 1_555
H16 C16 1_555 1_555
C17 H17 1_555 1_555
N2 C17 1_555 1_555
H18 N2 1_555 1_555
H19 N2 1_555 1_555
H20 N2 1_555 1_555
C18 C17 1_555 1_555
C19 C18 1_555 1_555
H21 C19 1_555 1_555
C20 C19 1_555 1_555
H22 C20 1_555 1_555
C21 C20 1_555 1_555
H23 C21 1_555 1_555
C22 C21 1_555 1_555
H24 C22 1_555 1_555
C23 C18 1_555 1_555
H25 C23 1_555 1_555
C24 C17 1_555 1_555
H26 C24 1_555 1_555
H27 C24 1_555 1_555
H28 C24 1_555 1_555
O5 C25 1_555 1_555
C25 H29 1_555 1_555
H30 C25 1_555 1_555
C26 C25 1_555 1_555
H31 C26 1_555 1_555
H32 C26 1_555 1_555
C27 C26 1_555 1_555
H33 C27 1_555 1_555
H34 C27 1_555 1_555
C28 C27 1_555 1_555
H35 C28 1_555 1_555
H36 C28 1_555 1_555
C29 O5 1_555 1_555
H37 C29 1_555 1_555
H38 C29 1_555 1_555
C6 C7 1_555 1_555
C15 C16 1_555 1_555
C22 C23 1_555 1_555
C28 C29 1_555 1_555

#END
