
#######################################################################
#
#                 Cambridge Crystallographic Data Centre
#                                CCDC 
#
#######################################################################
#
# If this CIF has been generated from an entry in the Cambridge 
# Structural Database, then it will include bibliographic, chemical, 
# crystal, experimental, refinement or atomic coordinate data resulting 
# from the CCDC's data processing and validation procedures.
#
#######################################################################

data_UBIXEK
_chemical_formula_moiety         'C16 H16 N1 O4 S1 1-,C8 H12 N1 1+'
_chemical_name_systematic        
'(R)-1-Phenylethanaminium (S)-2-(((4-methylphenyl)sulfonyl)amino)-3-phenylpropanoate'
_symmetry_cell_setting           monoclinic
_symmetry_space_group_name_H-M   'P 21'
_symmetry_Int_Tables_number      4
_space_group_name_Hall           'P 2yb'
loop_
_symmetry_equiv_pos_site_id
_symmetry_equiv_pos_as_xyz
1 x,y,z
2 -x,1/2+y,-z
_cell_length_a                   13.184(2)
_cell_length_b                   5.8641(10)
_cell_length_c                   15.511(3)
_cell_angle_alpha                90
_cell_angle_beta                 109.623(4)
_cell_angle_gamma                90
_cell_volume                     1129.55
_exptl_crystal_colour            colorless
_exptl_crystal_description       needle
_cell_formula_units_Z            2
loop_
_atom_site_label
_atom_site_type_symbol
_atom_site_fract_x
_atom_site_fract_y
_atom_site_fract_z
S1 S 0.30332(6) 0.06908(15) 0.81785(6)
O1 O 0.0549(2) -0.5554(4) 0.69074(17)
O2 O 0.0430(2) -0.2222(4) 0.62029(16)
N1 N 0.1796(2) -0.0138(5) 0.7713(2)
O3 O 0.3690(2) -0.0835(5) 0.78732(17)
O4 O 0.30456(19) 0.3045(5) 0.79905(17)
C1 C 0.0759(3) -0.3512(6) 0.6893(2)
C2 C 0.3424(2) 0.0356(6) 0.9378(2)
C3 C 0.1053(3) -0.2915(7) 0.8585(2)
H1 H 0.0863 -0.4513 0.8588
H2 H 0.1614 -0.2590 0.9163
C4 C 0.3930(3) -0.1618(7) 0.9784(2)
H3 H 0.4049 -0.2803 0.9431
C5 C 0.0076(3) -0.1479(6) 0.8515(2)
C6 C -0.0938(3) -0.2197(8) 0.7972(3)
H4 H -0.1014 -0.3556 0.7647
C8 C 0.3245(3) 0.2135(7) 0.9895(2)
H5 H 0.2899 0.3459 0.9617
C9 C 0.4117(3) -0.0048(7) 1.1270(3)
C10 C 0.0171(3) 0.0534(8) 0.9001(2)
H6 H 0.0847 0.1030 0.9372
C12 C 0.1505(3) -0.2502(6) 0.7797(2)
H8 H 0.2178 -0.3373 0.7956
C14 C 0.3599(3) 0.1892(8) 1.0847(3)
H10 H 0.3480 0.3071 1.1203
C15 C 0.4258(3) -0.1802(7) 1.0729(3)
H11 H 0.4582 -0.3147 1.1006
C17 C -0.1747(4) 0.1082(8) 0.8399(3)
H13 H -0.2356 0.1923 0.8369
C20 C -0.0734(4) 0.1813(8) 0.8937(3)
H16 H -0.0661 0.3176 0.9259
C21 C 0.4551(4) -0.0211(9) 1.2304(3)
H17 H 0.5238 0.0532 1.2531
H18 H 0.4630 -0.1786 1.2483
H19 H 0.4059 0.0516 1.2554
C23 C -0.1839(3) -0.0904(9) 0.7910(3)
H21 H -0.2514 -0.1387 0.7532
H28 H 0.140(3) 0.090(7) 0.759(3)
N2 N 0.1018(2) 0.1823(6) 0.5591(2)
C7 C 0.2667(3) 0.0892(7) 0.5217(2)
C11 C 0.3701(3) 0.0081(7) 0.5672(3)
H7 H 0.4039 0.0440 0.6286
C13 C 0.4231(3) -0.1250(8) 0.5224(3)
H9 H 0.4925 -0.1767 0.5536
C16 C 0.3739(3) -0.1809(8) 0.4324(3)
H12 H 0.4100 -0.2679 0.4018
C18 C 0.2166(3) 0.0263(8) 0.4308(2)
H14 H 0.1467 0.0747 0.3993
C19 C 0.2141(3) 0.2522(7) 0.5678(3)
H15 H 0.2571 0.2583 0.6330
C22 C 0.2705(4) -0.1076(9) 0.3875(3)
H20 H 0.2364 -0.1493 0.3267
C24 C 0.2090(5) 0.4898(8) 0.5283(4)
H22 H 0.2801 0.5375 0.5321
H23 H 0.1806 0.5937 0.5622
H24 H 0.1632 0.4888 0.4653
H25 H 0.095(3) 0.031(7) 0.576(2)
H26 H 0.074(3) 0.283(7) 0.593(3)
H27 H 0.066(4) 0.196(9) 0.506(4)
loop_
_geom_bond_atom_site_label_1
_geom_bond_atom_site_label_2
_geom_bond_site_symmetry_1
_geom_bond_site_symmetry_2
S1 N1 1_555 1_555
O1 C1 1_555 1_555
O2 C1 1_555 1_555
N1 C12 1_555 1_555
O3 S1 1_555 1_555
N2 C19 1_555 1_555
O4 S1 1_555 1_555
C1 C12 1_555 1_555
C2 S1 1_555 1_555
C3 H1 1_555 1_555
H2 C3 1_555 1_555
C4 C2 1_555 1_555
H3 C4 1_555 1_555
C5 C3 1_555 1_555
C6 C5 1_555 1_555
H4 C6 1_555 1_555
C7 C11 1_555 1_555
C8 C2 1_555 1_555
H5 C8 1_555 1_555
C9 C14 1_555 1_555
C10 C5 1_555 1_555
H6 C10 1_555 1_555
C11 H7 1_555 1_555
C12 C3 1_555 1_555
H8 C12 1_555 1_555
C13 C11 1_555 1_555
H9 C13 1_555 1_555
C14 C8 1_555 1_555
H10 C14 1_555 1_555
C15 C4 1_555 1_555
H11 C15 1_555 1_555
C16 C13 1_555 1_555
H12 C16 1_555 1_555
C17 H13 1_555 1_555
C18 C7 1_555 1_555
H14 C18 1_555 1_555
C19 C7 1_555 1_555
H15 C19 1_555 1_555
C20 C10 1_555 1_555
H16 C20 1_555 1_555
C21 C9 1_555 1_555
H17 C21 1_555 1_555
H18 C21 1_555 1_555
H19 C21 1_555 1_555
C22 C16 1_555 1_555
H20 C22 1_555 1_555
C23 C6 1_555 1_555
H21 C23 1_555 1_555
C24 C19 1_555 1_555
H22 C24 1_555 1_555
H23 C24 1_555 1_555
H24 C24 1_555 1_555
H25 N2 1_555 1_555
H26 N2 1_555 1_555
H27 N2 1_555 1_555
H28 N1 1_555 1_555
C9 C15 1_555 1_555
C17 C20 1_555 1_555
C17 C23 1_555 1_555
C18 C22 1_555 1_555

#END
