
#######################################################################
#
#                 Cambridge Crystallographic Data Centre
#                                CCDC 
#
#######################################################################
#
# If this CIF has been generated from an entry in the Cambridge 
# Structural Database, then it will include bibliographic, chemical, 
# crystal, experimental, refinement or atomic coordinate data resulting 
# from the CCDC's data processing and validation procedures.
#
#######################################################################

data_UBOJEC
_chemical_formula_moiety         'C14 H16 N2'
_chemical_name_systematic        
6,7,8,9,10,11-Hexahydrocyclo-octa[b]quinoxaline
_symmetry_cell_setting           orthorhombic
_symmetry_space_group_name_H-M   'P 21 21 21'
_symmetry_Int_Tables_number      19
_space_group_name_Hall           'P 2ac 2ab'
loop_
_symmetry_equiv_pos_site_id
_symmetry_equiv_pos_as_xyz
1 x,y,z
2 1/2+x,1/2-y,-z
3 -x,1/2+y,1/2-z
4 1/2-x,-y,1/2+z
_cell_length_a                   8.842(5)
_cell_length_b                   10.429(5)
_cell_length_c                   12.574(6)
_cell_angle_alpha                90
_cell_angle_beta                 90
_cell_angle_gamma                90
_cell_volume                     1159.49
_exptl_crystal_colour            colorless
_cell_formula_units_Z            4
loop_
_atom_site_label
_atom_site_type_symbol
_atom_site_fract_x
_atom_site_fract_y
_atom_site_fract_z
C1 C 0.7398(9) 0.9499(7) 0.0694(5)
H1 H 0.7991 1.0165 0.0353
H2 H 0.8093 0.8857 0.0964
C2 C 0.637(5) 0.889(3) -0.0119(14)
H3 H 0.5812 0.9570 -0.0471
H4 H 0.6998 0.8484 -0.0654
C3 C 0.523(4) 0.791(2) 0.026(3)
H5 H 0.4475 0.8337 0.0685
H6 H 0.4727 0.7546 -0.0357
C4 C 0.589(3) 0.683(3) 0.090(2)
C5 C 0.641(3) 0.706(2) 0.198(2)
C6 C 0.562(3) 0.805(2) 0.266(2)
H7 H 0.5535 0.7727 0.3383
H8 H 0.4601 0.8181 0.2393
C7 C 0.644(2) 0.9344(16) 0.2685(10)
H9 H 0.5960 0.9881 0.3216
H10 H 0.7472 0.9194 0.2919
C8 C 0.6501(9) 1.0092(6) 0.1643(6)
H11 H 0.6932 1.0928 0.1794
H12 H 0.5468 1.0231 0.1409
C9 C 0.7371(3) 0.4973(3) 0.0877(2)
C10 C 0.7947(4) 0.3895(3) 0.0342(2)
H13 H 0.7731 0.3771 -0.0375
C11 C 0.8808(4) 0.3044(3) 0.0865(3)
H14 H 0.9203 0.2343 0.0502
C12 C 0.9117(4) 0.3192(3) 0.1942(3)
H15 H 0.9705 0.2583 0.2290
C13 C 0.8574(4) 0.4213(3) 0.2492(3)
H16 H 0.8789 0.4307 0.3212
C14 C 0.7682(3) 0.5129(3) 0.1959(2)
N1 N 0.6556(3) 0.5866(2) 0.03340(18)
N2 N 0.7106(3) 0.6143(2) 0.25162(18)
C15? C 0.6394(11) 1.0026(9) 0.0765(7)
C16? C 0.621(6) 0.902(3) -0.0089(17)
C17? C 0.531(4) 0.784(3) 0.021(4)
C18? C 0.623(4) 0.687(3) 0.083(3)
C19? C 0.613(5) 0.687(3) 0.199(3)
C20? C 0.560(4) 0.806(3) 0.256(3)
C21? C 0.680(3) 0.912(2) 0.2689(13)
C22? C 0.7505(11) 0.9605(8) 0.1642(7)
H17? H 0.5416 1.0202 0.1083
H18? H 0.6758 1.0814 0.0445
H19? H 0.7208 0.8752 -0.0316
H20? H 0.5720 0.9419 -0.0696
H21? H 0.4447 0.8091 0.0636
H22? H 0.4936 0.7432 -0.0430
H23? H 0.5245 0.7819 0.3266
H24? H 0.4742 0.8418 0.2181
H25? H 0.7608 0.8793 0.3138
H26? H 0.6349 0.9841 0.3055
H27? H 0.8141 0.8930 0.1357
H28? H 0.8157 1.0326 0.1808
loop_
_geom_bond_atom_site_label_1
_geom_bond_atom_site_label_2
_geom_bond_site_symmetry_1
_geom_bond_site_symmetry_2
C1 H1 1_555 1_555
H2 C1 1_555 1_555
C2 C1 1_555 1_555
H3 C2 1_555 1_555
H4 C2 1_555 1_555
C3 C2 1_555 1_555
H5 C3 1_555 1_555
H6 C3 1_555 1_555
C4 C3 1_555 1_555
C5 C4 1_555 1_555
C6 C5 1_555 1_555
H7 C6 1_555 1_555
H8 C6 1_555 1_555
C7 C6 1_555 1_555
H9 C7 1_555 1_555
H10 C7 1_555 1_555
C8 C1 1_555 1_555
H11 C8 1_555 1_555
H12 C8 1_555 1_555
C9 C10 1_555 1_555
C10 H13 1_555 1_555
C11 C10 1_555 1_555
H14 C11 1_555 1_555
C12 C11 1_555 1_555
H15 C12 1_555 1_555
C13 C12 1_555 1_555
H16 C13 1_555 1_555
C14 C9 1_555 1_555
N1 C4 1_555 1_555
N2 C5 1_555 1_555
C7 C8 1_555 1_555
C9 N1 1_555 1_555
C13 C14 1_555 1_555
C14 N2 1_555 1_555

#END
