
#######################################################################
#
#                 Cambridge Crystallographic Data Centre
#                                CCDC 
#
#######################################################################
#
# If this CIF has been generated from an entry in the Cambridge 
# Structural Database, then it will include bibliographic, chemical, 
# crystal, experimental, refinement or atomic coordinate data resulting 
# from the CCDC's data processing and validation procedures.
#
#######################################################################

data_UBOJUQ
_chemical_formula_moiety         'C44 H30 N4,2(C60),3(C6 H6)'
_chemical_name_systematic        
'5,10,15,20-Tetraphenylporphyrin bis(C60-fullerene) benzene solvate'
_symmetry_cell_setting           rhombohedral
_symmetry_space_group_name_H-M   'R -3'
_symmetry_Int_Tables_number      148
_space_group_name_Hall           '-P 3*'
loop_
_symmetry_equiv_pos_site_id
_symmetry_equiv_pos_as_xyz
1 x,y,z
2 z,x,y
3 y,z,x
4 -x,-y,-z
5 -z,-x,-y
6 -y,-z,-x
_cell_length_a                   19.9967(8)
_cell_length_b                   19.9967(8)
_cell_length_c                   19.9967(8)
_cell_angle_alpha                99.311(2)
_cell_angle_beta                 99.311(2)
_cell_angle_gamma                99.311(2)
_cell_volume                     7640.29
_exptl_crystal_colour            black
_exptl_crystal_description       'hexagonal prism'
_cell_formula_units_Z            3
_chemical_properties_physical    air-sensitive
loop_
_atom_site_label
_atom_site_type_symbol
_atom_site_fract_x
_atom_site_fract_y
_atom_site_fract_z
N1 N 0.06155(18) 0.5528(2) 0.09196(18)
N2 N 0.00485(18) 0.4066(2) 0.03140(18)
C1 C 0.0867(2) 0.6226(2) 0.1100(2)
C2 C 0.1372(2) 0.6370(3) 0.1739(2)
C3 C 0.1407(2) 0.5759(3) 0.1932(2)
C4 C 0.0936(2) 0.5228(2) 0.1426(2)
C5 C 0.0841(2) 0.4520(3) 0.1438(2)
C6 C 0.1226(2) 0.4314(3) 0.2059(2)
C7 C 0.0983(3) 0.4356(3) 0.2668(2)
H1 H 0.0575 0.4516 0.2697
C8 C 0.1343(3) 0.4173(3) 0.3245(3)
H2 H 0.1171 0.4205 0.3652
C9 C 0.1943(3) 0.3945(4) 0.3217(3)
H3 H 0.2192 0.3842 0.3609
C10 C 0.2183(4) 0.3880(6) 0.2607(4)
H4 H 0.2577 0.3694 0.2577
C11 C 0.1825(3) 0.4065(5) 0.2032(3)
H5 H 0.2004 0.4038 0.1629
C12 C 0.0435(2) 0.3986(3) 0.0922(2)
C13 C 0.0374(2) 0.3259(3) 0.0926(2)
C14 C -0.0035(2) 0.2910(3) 0.0319(3)
C15 C -0.0249(2) 0.3417(2) -0.0067(2)
C16 C 0.0684(2) 0.6727(2) 0.0724(2)
C17 C 0.0973(2) 0.7473(3) 0.1033(2)
C18 C 0.0824(2) 0.7778(3) 0.1659(2)
H6 H 0.0552 0.7513 0.1893
C19 C 0.1079(3) 0.8472(3) 0.1931(3)
H7 H 0.0985 0.8668 0.2352
C20 C 0.1470(3) 0.8878(3) 0.1580(3)
H8 H 0.1631 0.9347 0.1756
C21 C 0.1622(2) 0.8579(3) 0.0958(3)
H9 H 0.1883 0.8846 0.0717
C22 C 0.1386(2) 0.7882(3) 0.0697(3)
H10 H 0.1505 0.7682 0.0290
H11 H 0.1635 0.6833 0.1906
H12 H 0.1695 0.5687 0.2356
H13 H 0.0612 0.3083 0.1268
H14 H -0.0144 0.2450 0.0199
C16C C -0.0684(2) 0.3273(2) -0.0724(2)
C1C C -0.0867(2) 0.3774(2) -0.1100(2)
N1C N -0.06155(18) 0.4472(2) -0.09196(18)
C4C C -0.0936(2) 0.4772(2) -0.1426(2)
C3C C -0.1407(2) 0.4241(3) -0.1932(2)
C2C C -0.1372(2) 0.3630(3) -0.1739(2)
H11C H -0.1635 0.3167 -0.1906
H12C H -0.1695 0.4313 -0.2356
C5C C -0.0841(2) 0.5480(3) -0.1438(2)
C6C C -0.1226(2) 0.5686(3) -0.2059(2)
C7C C -0.0983(3) 0.5644(3) -0.2668(2)
H1C H -0.0575 0.5484 -0.2697
C8C C -0.1343(3) 0.5827(3) -0.3245(3)
H2C H -0.1171 0.5795 -0.3652
C9C C -0.1943(3) 0.6055(4) -0.3217(3)
H3C H -0.2192 0.6158 -0.3609
C10C C -0.2183(4) 0.6120(6) -0.2607(4)
H4C H -0.2577 0.6306 -0.2577
C11C C -0.1825(3) 0.5935(5) -0.2032(3)
H5C H -0.2004 0.5962 -0.1629
C12C C -0.0435(2) 0.6014(3) -0.0922(2)
N2C N -0.00485(18) 0.5934(2) -0.03140(18)
C15C C 0.0249(2) 0.6583(2) 0.0067(2)
C14C C 0.0035(2) 0.7090(3) -0.0319(3)
C13C C -0.0374(2) 0.6741(3) -0.0926(2)
H13C H -0.0612 0.6917 -0.1268
H14C H 0.0144 0.7550 -0.0199
C17C C -0.0973(2) 0.2527(3) -0.1033(2)
C18C C -0.0824(2) 0.2222(3) -0.1659(2)
H6C H -0.0552 0.2487 -0.1893
C19C C -0.1079(3) 0.1528(3) -0.1931(3)
H7C H -0.0985 0.1332 -0.2352
C20C C -0.1470(3) 0.1122(3) -0.1580(3)
H8C H -0.1631 0.0653 -0.1756
C21C C -0.1622(2) 0.1421(3) -0.0958(3)
H9C H -0.1883 0.1154 -0.0717
C22C C -0.1386(2) 0.2118(3) -0.0697(3)
H10C H -0.1505 0.2318 -0.0290
C23 C 0.3286(4) 0.5580(4) 0.3118(3)
H15 H 0.2854 0.5689 0.3138
C24 C 0.3727(3) 0.5582(4) 0.3706(3)
H16 H 0.3605 0.5703 0.4133
C25 C 0.4347(4) 0.5406(5) 0.3664(4)
H17 H 0.4655 0.5404 0.4066
C26 C 0.4532(4) 0.5241(5) 0.3030(4)
H18 H 0.4963 0.5132 0.3005
C27 C 0.4091(3) 0.5232(3) 0.2443(3)
H19 H 0.4208 0.5107 0.2014
C28 C 0.3466(4) 0.5410(4) 0.2482(3)
H20 H 0.3160 0.5414 0.2080
C29 C 0.0086(4) 0.9507(3) 0.0399(3)
H21 H 0.0183 0.9238 0.0759
C29D C -0.0399(3) 0.9914(4) 0.0493(3)
C29B C -0.0493(3) 1.0399(3) 0.0086(4)
C29C C -0.0086(4) 1.0493(3) -0.0399(3)
C29A C 0.0399(3) 1.0086(4) -0.0493(3)
C29E C 0.0493(3) 0.9601(3) -0.0086(4)
H21E H 0.0762 0.9241 -0.0183
H21A H 0.0759 1.0183 -0.0762
H21C H -0.0183 1.0762 -0.0759
H21B H -0.0762 1.0759 0.0183
H21D H -0.0759 0.9817 0.0762
C30 C 0.1986(8) 0.3882(6) -0.0029(5)
C31 C 0.1783(11) 0.3408(7) -0.0660(6)
C32 C 0.1306(7) 0.3435(6) -0.1226(10)
C33 C 0.0969(5) 0.4015(9) -0.1094(5)
C34 C 0.1143(4) 0.4523(7) -0.0488(4)
C35 C 0.1700(5) 0.4429(6) 0.0070(5)
C36 C 0.2704(6) 0.4027(6) 0.0237(4)
C37 C 0.2940(13) 0.3540(8) -0.0253(8)
C38 C 0.2391(12) 0.3142(5) -0.0909(8)
C39 C 0.2298(10) 0.3020(4) -0.1574(11)
C40 C 0.2000(15) 0.3146(6) -0.2024(7)
C41 C 0.1451(6) 0.3388(7) -0.2151(12)
C42 C 0.1057(5) 0.3955(11) -0.2216(7)
C43 C 0.0822(3) 0.4274(8) -0.1710(6)
C44 C 0.0974(5) 0.5197(11) -0.1694(6)
C45 C 0.1055(10) 0.5355(19) -0.1190(10)
C46 C 0.1188(6) 0.5216(10) -0.0547(6)
C47 C 0.1838(11) 0.5631(6) 0.0046(10)
C48 C 0.2141(4) 0.5100(6) 0.0417(3)
C49 C 0.2816(6) 0.5160(10) 0.0600(4)
C50 C 0.3142(8) 0.4676(8) 0.0505(4)
C51 C 0.3433(9) 0.3635(10) -0.0468(10)
C52 C 0.3612(7) 0.3528(6) -0.1190(8)
C53 C 0.3071(11) 0.3242(8) -0.1661(9)
C54 C 0.2986(11) 0.3428(9) -0.2294(9)
C55 C 0.2370(9) 0.3428(6) -0.2593(5)
C56 C 0.1972(6) 0.3780(5) -0.2855(4)
C57 C 0.1475(16) 0.4118(10) -0.2751(11)
C58 C 0.1364(7) 0.4737(11) -0.2675(5)
C59 C 0.1298(5) 0.5305(8) -0.2325(6)
C60 C 0.1747(8) 0.5900(9) -0.2105(10)
C61 C 0.1621(9) 0.6111(8) -0.1261(7)
C62 C 0.2154(12) 0.6417(8) -0.0760(7)
C63 C 0.2166(19) 0.6171(14) -0.0167(15)
C64 C 0.2825(9) 0.6186(6) 0.0194(6)
C65 C 0.3310(7) 0.5847(6) 0.0433(4)
C66 C 0.3877(16) 0.5471(10) 0.0266(14)
C67 C 0.3852(7) 0.4862(10) 0.0270(5)
C68 C 0.3935(5) 0.4343(8) -0.0123(6)
C69 C 0.4102(7) 0.4111(8) -0.1176(14)
C70 C 0.4033(7) 0.4416(11) -0.1907(6)
C71 C 0.3394(9) 0.4021(5) -0.2481(9)
C72 C 0.3103(4) 0.4567(6) -0.2839(3)
C73 C 0.2418(6) 0.4572(12) -0.3007(4)
C74 C 0.2051(9) 0.4990(11) -0.2908(6)
C75 C 0.2555(8) 0.5638(7) -0.2643(6)
C76 C 0.2239(12) 0.6186(6) -0.1994(11)
C77 C 0.2899(10) 0.6523(7) -0.1498(13)
C78 C 0.2865(15) 0.6603(5) -0.0934(18)
C79 C 0.307(2) 0.6499(7) -0.0346(10)
C80 C 0.3774(9) 0.6364(7) -0.0445(11)
C81 C 0.4104(12) 0.5822(14) -0.0140(9)
C82 C 0.4411(3) 0.5351(9) -0.0719(7)
C83 C 0.4323(5) 0.4608(9) -0.0843(9)
C84 C 0.4115(4) 0.5134(7) -0.1919(5)
C85 C 0.3573(6) 0.5246(6) -0.2474(6)
C86 C 0.3275(8) 0.5772(8) -0.2378(7)
C87 C 0.3470(12) 0.6258(8) -0.1750(7)
C88 C 0.3930(9) 0.6236(6) -0.1195(13)
C89 C 0.4270(5) 0.5666(10) -0.1313(5)
C90? C -0.129(3) 0.8875(15) -0.1397(19)
C91? C -0.1776(17) 0.8119(16) -0.1264(16)
C92? C -0.1758(15) 0.7600(15) -0.1809(15)
C93? C -0.1285(15) 0.7696(16) -0.2219(15)
C94? C -0.0861(16) 0.8299(16) -0.2170(15)
C95? C -0.0932(16) 0.8866(16) -0.1683(15)
loop_
_geom_bond_atom_site_label_1
_geom_bond_atom_site_label_2
_geom_bond_site_symmetry_1
_geom_bond_site_symmetry_2
N1 C1 1_555 1_555
N2 C12 1_555 1_555
C1 C2 1_555 1_555
C2 C3 1_555 1_555
C3 C4 1_555 1_555
C4 N1 1_555 1_555
C5 C4 1_555 1_555
C6 C5 1_555 1_555
C7 C6 1_555 1_555
H1 C7 1_555 1_555
C8 C7 1_555 1_555
H2 C8 1_555 1_555
C9 C8 1_555 1_555
H3 C9 1_555 1_555
C10 C9 1_555 1_555
H4 C10 1_555 1_555
C11 C6 1_555 1_555
H5 C11 1_555 1_555
C12 C5 1_555 1_555
C13 C12 1_555 1_555
C14 C13 1_555 1_555
C15 N2 1_555 1_555
C16 C1 1_555 1_555
C17 C16 1_555 1_555
C18 C17 1_555 1_555
H6 C18 1_555 1_555
C19 C18 1_555 1_555
H7 C19 1_555 1_555
C20 C19 1_555 1_555
H8 C20 1_555 1_555
C21 C20 1_555 1_555
H9 C21 1_555 1_555
C22 C17 1_555 1_555
H10 C22 1_555 1_555
H11 C2 1_555 1_555
H12 C3 1_555 1_555
H13 C13 1_555 1_555
H14 C14 1_555 1_555
C23 H15 1_555 1_555
C24 C23 1_555 1_555
H16 C24 1_555 1_555
C25 C24 1_555 1_555
H17 C25 1_555 1_555
C26 C25 1_555 1_555
H18 C26 1_555 1_555
C27 C26 1_555 1_555
H19 C27 1_555 1_555
C28 C23 1_555 1_555
H20 C28 1_555 1_555
C29 H21 1_555 1_555
C30 C31 1_555 1_555
C31 C32 1_555 1_555
C32 C33 1_555 1_555
C33 C34 1_555 1_555
C34 C35 1_555 1_555
C35 C30 1_555 1_555
C36 C30 1_555 1_555
C37 C36 1_555 1_555
C38 C31 1_555 1_555
C39 C38 1_555 1_555
C40 C39 1_555 1_555
C41 C32 1_555 1_555
C42 C41 1_555 1_555
C43 C33 1_555 1_555
C44 C43 1_555 1_555
C45 C44 1_555 1_555
C46 C34 1_555 1_555
C47 C46 1_555 1_555
C48 C35 1_555 1_555
C49 C48 1_555 1_555
C50 C36 1_555 1_555
C51 C37 1_555 1_555
C52 C51 1_555 1_555
C53 C39 1_555 1_555
C54 C53 1_555 1_555
C55 C40 1_555 1_555
C56 C55 1_555 1_555
C57 C42 1_555 1_555
C58 C57 1_555 1_555
C59 C44 1_555 1_555
C60 C59 1_555 1_555
C61 C45 1_555 1_555
C62 C61 1_555 1_555
C63 C47 1_555 1_555
C64 C63 1_555 1_555
C65 C49 1_555 1_555
C66 C65 1_555 1_555
C67 C50 1_555 1_555
C68 C51 1_555 1_555
C69 C52 1_555 1_555
C70 C69 1_555 1_555
C71 C54 1_555 1_555
C72 C71 1_555 1_555
C73 C56 1_555 1_555
C74 C58 1_555 1_555
C75 C74 1_555 1_555
C76 C60 1_555 1_555
C77 C76 1_555 1_555
C78 C62 1_555 1_555
C79 C64 1_555 1_555
C80 C79 1_555 1_555
C81 C66 1_555 1_555
C82 C81 1_555 1_555
C83 C68 1_555 1_555
C84 C70 1_555 1_555
C85 C72 1_555 1_555
C86 C75 1_555 1_555
C87 C77 1_555 1_555
C88 C80 1_555 1_555
C89 C82 1_555 1_555
C16C C15 1_555 1_555
C1C C16C 1_555 1_555
N1C C1C 1_555 1_555
C4C N1C 1_555 1_555
C3C C4C 1_555 1_555
C2C C1C 1_555 1_555
H11C C2C 1_555 1_555
H12C C3C 1_555 1_555
C5C C4C 1_555 1_555
C6C C5C 1_555 1_555
C7C C6C 1_555 1_555
H1C C7C 1_555 1_555
C8C C7C 1_555 1_555
H2C C8C 1_555 1_555
C9C C8C 1_555 1_555
H3C C9C 1_555 1_555
C10C C9C 1_555 1_555
H4C C10C 1_555 1_555
C11C C6C 1_555 1_555
H5C C11C 1_555 1_555
C12C C5C 1_555 1_555
N2C C12C 1_555 1_555
C15C C16 1_555 1_555
C14C C15C 1_555 1_555
C13C C12C 1_555 1_555
H13C C13C 1_555 1_555
H14C C14C 1_555 1_555
C17C C16C 1_555 1_555
C18C C17C 1_555 1_555
H6C C18C 1_555 1_555
C19C C18C 1_555 1_555
H7C C19C 1_555 1_555
C20C C19C 1_555 1_555
H8C C20C 1_555 1_555
C21C C20C 1_555 1_555
H9C C21C 1_555 1_555
C22C C17C 1_555 1_555
H10C C22C 1_555 1_555
C29D C29 1_555 1_555
C29B C29D 1_555 1_555
C29C C29B 1_555 1_555
C29A C29C 1_555 1_555
C29E C29 1_555 1_555
H21E C29E 1_555 1_555
H21A C29A 1_555 1_555
H21C C29C 1_555 1_555
H21B C29B 1_555 1_555
H21D C29D 1_555 1_555
C10 C11 1_555 1_555
C14 C15 1_555 1_555
C21 C22 1_555 1_555
C27 C28 1_555 1_555
C37 C38 1_555 1_555
C40 C41 1_555 1_555
C42 C43 1_555 1_555
C45 C46 1_555 1_555
C47 C48 1_555 1_555
C49 C50 1_555 1_555
C52 C53 1_555 1_555
C54 C55 1_555 1_555
C56 C57 1_555 1_555
C58 C59 1_555 1_555
C60 C61 1_555 1_555
C62 C63 1_555 1_555
C64 C65 1_555 1_555
C66 C67 1_555 1_555
C67 C68 1_555 1_555
C69 C83 1_555 1_555
C70 C71 1_555 1_555
C72 C73 1_555 1_555
C73 C74 1_555 1_555
C75 C76 1_555 1_555
C77 C78 1_555 1_555
C78 C79 1_555 1_555
C80 C81 1_555 1_555
C82 C83 1_555 1_555
C84 C85 1_555 1_555
C84 C89 1_555 1_555
C85 C86 1_555 1_555
C86 C87 1_555 1_555
C87 C88 1_555 1_555
C88 C89 1_555 1_555
C3C C2C 1_555 1_555
C10C C11C 1_555 1_555
N2C C15C 1_555 1_555
C14C C13C 1_555 1_555
C21C C22C 1_555 1_555
C29A C29E 1_555 1_555

#END
