
#######################################################################
#
#                 Cambridge Crystallographic Data Centre
#                                CCDC 
#
#######################################################################
#
# If this CIF has been generated from an entry in the Cambridge 
# Structural Database, then it will include bibliographic, chemical, 
# crystal, experimental, refinement or atomic coordinate data resulting 
# from the CCDC's data processing and validation procedures.
#
#######################################################################

data_UBOQUA01
_chemical_formula_moiety         'C24 H29 N1 O2'
_chemical_name_systematic        
3,3,6,6-tetramethyl-9-(4-methylphenyl)-3,4,6,7,9,10-hexahydroacridine-1,8(2H,5H)-dione
_chemical_properties_biological  'inhibitory activity against HepG2 cells'
_symmetry_cell_setting           orthorhombic
_symmetry_space_group_name_H-M   'P n a 21'
_symmetry_Int_Tables_number      33
_space_group_name_Hall           'P 2c -2n'
loop_
_symmetry_equiv_pos_site_id
_symmetry_equiv_pos_as_xyz
1 x,y,z
2 -x,-y,1/2+z
3 1/2+x,1/2-y,z
4 1/2-x,1/2+y,1/2+z
_cell_length_a                   14.0296(11)
_cell_length_b                   14.5931(12)
_cell_length_c                   10.4643(9)
_cell_angle_alpha                90
_cell_angle_beta                 90
_cell_angle_gamma                90
_cell_volume                     2142.41
_cell_formula_units_Z            4
loop_
_atom_site_label
_atom_site_type_symbol
_atom_site_fract_x
_atom_site_fract_y
_atom_site_fract_z
C1 C 0.18433(16) 0.74063(18) 1.0902(2)
C2 C 0.1637(2) 0.6715(2) 1.1920(3)
H1 H 0.1594 0.7031 1.2734
H2 H 0.2171 0.6294 1.1971
C3 C 0.0726(2) 0.61591(19) 1.1726(3)
C4 C 0.0866(3) 0.5520(2) 1.0588(4)
H3 H 0.0296 0.5169 1.0454
H4 H 0.1389 0.5113 1.0756
H5 H 0.1001 0.5876 0.9838
C5 C 0.0506(3) 0.5606(3) 1.2919(4)
H6 H -0.0067 0.5260 1.2788
H7 H 0.0422 0.6014 1.3630
H8 H 0.1025 0.5196 1.3092
C6 C -0.00691(18) 0.6842(2) 1.1482(3)
H9 H -0.0633 0.6511 1.1209
H10 H -0.0221 0.7150 1.2278
C7 C 0.01698(14) 0.75490(16) 1.0495(2)
C8 C 0.10714(14) 0.78012(15) 1.0201(2)
C9 C 0.12854(14) 0.85130(17) 0.9190(2)
H11 H 0.1719 0.8964 0.9567
C10 C 0.03828(15) 0.90130(16) 0.8802(2)
C11 C 0.04599(19) 0.98277(17) 0.8006(3)
C12 C -0.0461(2) 1.0230(2) 0.7481(3)
H12 H -0.0357 1.0871 0.7280
H13 H -0.0622 0.9917 0.6692
C13 C -0.12963(19) 1.01556(18) 0.8394(3)
C14 C -0.2218(2) 1.0481(3) 0.7749(4)
H14 H -0.2146 1.1107 0.7485
H15 H -0.2738 1.0434 0.8342
H16 H -0.2346 1.0105 0.7016
C15 C -0.1109(2) 1.0777(2) 0.9551(3)
H17 H -0.0529 1.0593 0.9963
H18 H -0.1629 1.0726 1.0143
H19 H -0.1053 1.1401 0.9270
C16 C -0.14121(17) 0.91809(18) 0.8817(3)
H20 H -0.1710 0.8835 0.8134
H21 H -0.1836 0.9165 0.9548
C17 C -0.04850(14) 0.87221(15) 0.9173(3)
C18 C 0.17906(16) 0.80849(16) 0.8040(2)
C19 C 0.1372(2) 0.74262(19) 0.7306(3)
H22 H 0.0756 0.7236 0.7500
C20 C 0.1844(3) 0.7032(3) 0.6277(3)
H23 H 0.1541 0.6583 0.5794
C21 C 0.2759(3) 0.7300(3) 0.5963(3)
C22 C 0.3283(4) 0.6863(5) 0.4849(4)
H24 H 0.2878 0.6416 0.4449
H25 H 0.3851 0.6570 0.5154
H26 H 0.3449 0.7327 0.4238
C23 C 0.3184(2) 0.7966(3) 0.6708(4)
H27 H 0.3800 0.8158 0.6519
C24 C 0.27118(18) 0.8349(2) 0.7722(3)
H28 H 0.3015 0.8796 0.8208
N1 N -0.05906(13) 0.79668(15) 0.9947(2)
H29 H -0.1153 0.7754 1.0087
O1 O 0.12334(15) 1.01687(13) 0.7751(2)
O2 O 0.26700(10) 0.76692(13) 1.0730(2)
loop_
_geom_bond_atom_site_label_1
_geom_bond_atom_site_label_2
_geom_bond_site_symmetry_1
_geom_bond_site_symmetry_2
C1 C2 1_555 1_555
C2 H1 1_555 1_555
H2 C2 1_555 1_555
C3 C2 1_555 1_555
C4 C3 1_555 1_555
H3 C4 1_555 1_555
H4 C4 1_555 1_555
H5 C4 1_555 1_555
C5 C3 1_555 1_555
H6 C5 1_555 1_555
H7 C5 1_555 1_555
H8 C5 1_555 1_555
C6 C3 1_555 1_555
H9 C6 1_555 1_555
H10 C6 1_555 1_555
C7 C6 1_555 1_555
C8 C1 1_555 1_555
C9 C8 1_555 1_555
H11 C9 1_555 1_555
C10 C9 1_555 1_555
C11 C10 1_555 1_555
C12 C11 1_555 1_555
H12 C12 1_555 1_555
H13 C12 1_555 1_555
C13 C12 1_555 1_555
C14 C13 1_555 1_555
H14 C14 1_555 1_555
H15 C14 1_555 1_555
H16 C14 1_555 1_555
C15 C13 1_555 1_555
H17 C15 1_555 1_555
H18 C15 1_555 1_555
H19 C15 1_555 1_555
C16 C13 1_555 1_555
H20 C16 1_555 1_555
H21 C16 1_555 1_555
C17 C10 1_555 1_555
C18 C9 1_555 1_555
C19 C18 1_555 1_555
H22 C19 1_555 1_555
C20 C19 1_555 1_555
H23 C20 1_555 1_555
C21 C20 1_555 1_555
C22 C21 1_555 1_555
H24 C22 1_555 1_555
H25 C22 1_555 1_555
H26 C22 1_555 1_555
C23 C21 1_555 1_555
H27 C23 1_555 1_555
C24 C18 1_555 1_555
H28 C24 1_555 1_555
N1 C7 1_555 1_555
H29 N1 1_555 1_555
O1 C11 1_555 1_555
O2 C1 1_555 1_555
C7 C8 1_555 1_555
C16 C17 1_555 1_555
C17 N1 1_555 1_555
C23 C24 1_555 1_555

#END
