
#######################################################################
#
#                 Cambridge Crystallographic Data Centre
#                                CCDC 
#
#######################################################################
#
# If this CIF has been generated from an entry in the Cambridge 
# Structural Database, then it will include bibliographic, chemical, 
# crystal, experimental, refinement or atomic coordinate data resulting 
# from the CCDC's data processing and validation procedures.
#
#######################################################################

data_UBORIO
_chemical_formula_moiety         'C14 H15 N5 O2'
_chemical_name_systematic        
'Ethyl 5-methyl-7-phenyl-4,7-dihydrotetrazolo[1,5-a]pyrimidine-6-carboxylate'
_symmetry_cell_setting           triclinic
_symmetry_space_group_name_H-M   'P -1'
_symmetry_Int_Tables_number      2
_space_group_name_Hall           '-P 1'
loop_
_symmetry_equiv_pos_site_id
_symmetry_equiv_pos_as_xyz
1 x,y,z
2 -x,-y,-z
_cell_length_a                   8.184(9)
_cell_length_b                   9.607(11)
_cell_length_c                   9.831(11)
_cell_angle_alpha                107.149(10)
_cell_angle_beta                 101.319(10)
_cell_angle_gamma                98.650(10)
_cell_volume                     706.101
_exptl_crystal_colour            colorless
_exptl_crystal_description       block
_cell_formula_units_Z            2
loop_
_atom_site_label
_atom_site_type_symbol
_atom_site_fract_x
_atom_site_fract_y
_atom_site_fract_z
C1 C 0.2156(7) 0.3638(6) 0.8493(6)
H1 H 0.2830 0.4663 0.8991
C2 C 0.0254(7) 0.3657(6) 0.8283(6)
C3 C -0.0867(7) 0.2585(6) 0.8499(6)
C4 C 0.1414(7) 0.1709(6) 0.9621(6)
C5 C 0.2655(6) 0.2983(6) 0.7064(6)
C6 C 0.2042(10) 0.1501(7) 0.6242(8)
H2 H 0.1299 0.0905 0.6555
C7 C 0.2511(12) 0.0871(9) 0.4952(9)
H3 H 0.2093 -0.0140 0.4418
C8 C 0.3579(9) 0.1729(8) 0.4469(7)
H4 H 0.3884 0.1315 0.3599
C9 C 0.4194(10) 0.3196(9) 0.5270(9)
H5 H 0.4927 0.3787 0.4946
C10 C 0.3747(8) 0.3828(7) 0.6569(8)
H6 H 0.4192 0.4834 0.7109
C11 C -0.0318(8) 0.4857(7) 0.7829(7)
C12 C 0.0514(12) 0.6893(10) 0.7029(12)
H7 H -0.0548 0.6511 0.6264
H8 H 0.0363 0.7712 0.7816
C13 C 0.1873(15) 0.7418(13) 0.6441(14)
H9 H 0.2906 0.7846 0.7216
H10 H 0.1569 0.8162 0.6028
H11 H 0.2047 0.6596 0.5689
C14 C -0.2756(7) 0.2425(8) 0.8231(7)
H12 H -0.3004 0.3199 0.8984
H13 H -0.3271 0.1467 0.8249
H14 H -0.3208 0.2508 0.7286
N1 N -0.0293(6) 0.1512(5) 0.9028(5)
H15 H -0.1003 0.0733 0.8984
N2 N 0.2206(6) 0.1005(6) 1.0419(6)
N3 N 0.3893(7) 0.1684(7) 1.0753(6)
N4 N 0.4122(6) 0.2729(6) 1.0188(5)
N5 N 0.2529(6) 0.2758(5) 0.9454(5)
O1 O -0.1741(7) 0.5091(6) 0.7662(7)
O2 O 0.0942(7) 0.5714(6) 0.7592(6)
loop_
_geom_bond_atom_site_label_1
_geom_bond_atom_site_label_2
_geom_bond_site_symmetry_1
_geom_bond_site_symmetry_2
C1 H1 1_555 1_555
C2 C1 1_555 1_555
C3 C2 1_555 1_555
C4 N1 1_555 1_555
C5 C1 1_555 1_555
C6 C5 1_555 1_555
H2 C6 1_555 1_555
C7 C6 1_555 1_555
H3 C7 1_555 1_555
C8 C7 1_555 1_555
H4 C8 1_555 1_555
C9 C8 1_555 1_555
H5 C9 1_555 1_555
C10 C5 1_555 1_555
H6 C10 1_555 1_555
C11 C2 1_555 1_555
C12 H7 1_555 1_555
H8 C12 1_555 1_555
C13 C12 1_555 1_555
H9 C13 1_555 1_555
H10 C13 1_555 1_555
H11 C13 1_555 1_555
C14 C3 1_555 1_555
H12 C14 1_555 1_555
H13 C14 1_555 1_555
H14 C14 1_555 1_555
N1 C3 1_555 1_555
H15 N1 1_555 1_555
N2 C4 1_555 1_555
N3 N2 1_555 1_555
N4 N3 1_555 1_555
N5 C1 1_555 1_555
O1 C11 1_555 1_555
O2 C11 1_555 1_555
C4 N5 1_555 1_555
C9 C10 1_555 1_555
C12 O2 1_555 1_555
N4 N5 1_555 1_555

#END
