
#######################################################################
#
#                 Cambridge Crystallographic Data Centre
#                                CCDC 
#
#######################################################################
#
# If this CIF has been generated from an entry in the Cambridge 
# Structural Database, then it will include bibliographic, chemical, 
# crystal, experimental, refinement or atomic coordinate data resulting 
# from the CCDC's data processing and validation procedures.
#
#######################################################################

data_UBOSOW
_chemical_name_common            "myricetin bis(4,4'-bipyridine) monohydrate"
_chemical_formula_moiety         'C15 H10 O8,2(C10 H8 N2),H2 O1'
_chemical_name_systematic        
"3,5,7-trihydroxy-2-(3,4,5-trihydroxyphenyl)-4H-chromen-4-one bis(4,4'-bipyridine) monohydrate"
_chemical_properties_biological  
'antibacterial properties against S. aureus and E. coli'
_symmetry_cell_setting           triclinic
_symmetry_space_group_name_H-M   'P -1'
_symmetry_Int_Tables_number      2
_space_group_name_Hall           '-P 1'
loop_
_symmetry_equiv_pos_site_id
_symmetry_equiv_pos_as_xyz
1 x,y,z
2 -x,-y,-z
_cell_length_a                   9.3467(8)
_cell_length_b                   10.2752(8)
_cell_length_c                   17.7595(15)
_cell_angle_alpha                82.336(7)
_cell_angle_beta                 84.365(7)
_cell_angle_gamma                63.362(8)
_cell_volume                     1509.53
_exptl_crystal_colour            yellow
_exptl_crystal_description       block
_cell_formula_units_Z            2
loop_
_atom_site_label
_atom_site_type_symbol
_atom_site_fract_x
_atom_site_fract_y
_atom_site_fract_z
O1 O 0.1461(4) 0.8845(4) 1.04249(19)
O2 O 0.5352(4) 0.6408(3) 0.91419(17)
O3 O 0.1275(4) 0.9178(4) 0.88918(18)
H1 H 0.0623 0.9625 0.9220
O4 O 0.1593(4) 0.7615(4) 0.6378(2)
H2 H 0.0771 0.8192 0.6586
O5 O 0.4563(4) 0.5894(4) 0.58062(19)
H3 H 0.3690 0.6140 0.5630
O6 O 0.8595(4) 0.4487(4) 1.1281(2)
H4 H 0.9168 0.3859 1.1002
O7 O 0.3158(4) 0.7702(4) 1.16362(19)
H5 H 0.2350 0.8176 1.1393
O8 O 0.7127(4) 0.5010(4) 0.65758(19)
H6 H 0.7854 0.4770 0.6866
C1 C 0.3912(5) 0.7272(4) 0.8809(3)
C2 C 0.4210(5) 0.7182(5) 1.0352(3)
C3 C 0.2674(6) 0.8200(5) 0.9223(3)
C4 C 0.4063(6) 0.7097(5) 0.7988(3)
C5 C 0.6997(6) 0.5409(5) 1.0187(3)
H7 H 0.7854 0.4879 0.9866
C6 C 0.5503(6) 0.6318(5) 0.9909(3)
C7 C 0.4343(6) 0.6349(5) 0.6505(3)
C8 C 0.4398(6) 0.6971(6) 1.1162(3)
C9 C 0.7173(6) 0.5317(5) 1.0965(3)
C10 C 0.5886(6) 0.6097(5) 1.1449(3)
H8 H 0.6033 0.6028 1.1966
C11 C 0.2698(6) 0.8099(5) 1.0037(3)
C12 C 0.5702(6) 0.5879(5) 0.6923(3)
C13 C 0.2867(6) 0.7226(5) 0.6829(3)
C14 C 0.2712(6) 0.7616(5) 0.7556(3)
H9 H 0.1710 0.8223 0.7758
C15 C 0.5566(6) 0.6236(5) 0.7660(3)
H10 H 0.6479 0.5902 0.7938
N1 N 0.8451(6) -0.0577(7) 0.6767(3)
N2 N 0.0074(6) 0.3819(7) 0.7155(3)
C16 C 0.6201(6) 0.1741(7) 0.6757(3)
H11 H 0.5832 0.2752 0.6708
C17 C 0.3377(6) 0.2068(6) 0.6987(3)
C18 C 0.5124(6) 0.1169(7) 0.6887(3)
C19 C 0.2678(6) 0.3521(6) 0.6669(3)
H12 H 0.3296 0.3938 0.6394
C20 C 0.2388(7) 0.1557(7) 0.7384(3)
H13 H 0.2812 0.0597 0.7609
C21 C 0.7820(7) 0.0854(8) 0.6698(3)
H14 H 0.8506 0.1296 0.6603
C22 C 0.5779(7) -0.0377(7) 0.6956(3)
H15 H 0.5126 -0.0852 0.7044
C23 C 0.7451(8) -0.1164(8) 0.6887(3)
H16 H 0.7882 -0.2180 0.6930
C24 C 0.1017(7) 0.4335(7) 0.6776(4)
H17 H 0.0554 0.5304 0.6564
C25 C 0.0757(8) 0.2438(8) 0.7459(4)
H18 H 0.0115 0.2048 0.7733
N3 N 0.1004(5) 0.2519(5) 0.0490(3)
C26 C 0.3030(7) 0.1257(6) -0.0440(3)
H19 H 0.3302 0.1106 -0.0949
C27 C 0.4159(6) 0.0506(5) 0.0109(3)
C28 C 0.3650(7) 0.0795(6) 0.0845(3)
H20 H 0.4364 0.0328 0.1232
C29 C 0.1498(7) 0.2229(6) -0.0222(4)
H21 H 0.0763 0.2713 -0.0600
C30 C 0.2079(7) 0.1778(6) 0.1020(3)
H22 H 0.1765 0.1925 0.1528
N3A N 0.8996(5) -0.2519(5) -0.0490(3)
C26A C 0.6970(7) -0.1257(6) 0.0440(3)
H19A H 0.6698 -0.1106 0.0949
C27A C 0.5841(6) -0.0506(5) -0.0109(3)
C28A C 0.6350(7) -0.0795(6) -0.0845(3)
H20A H 0.5636 -0.0328 -0.1232
C29A C 0.8502(7) -0.2229(6) 0.0222(4)
H21A H 0.9237 -0.2713 0.0600
C30A C 0.7921(7) -0.1778(6) -0.1020(3)
H22A H 0.8235 -0.1925 -0.1528
O9 O 0.2454(4) 0.6102(5) 0.4939(2)
H23 H 0.2666 0.5713 0.4516
H24 H 0.1440 0.6678 0.4943
C31 C 0.5889(6) 0.9549(7) 0.4958(3)
N4 N 0.9209(6) 0.7782(8) 0.4833(3)
C32 C 0.6560(7) 0.8034(7) 0.5101(3)
H25 H 0.5916 0.7558 0.5241
C33 C 0.6920(7) 1.0132(8) 0.4752(4)
H26 H 0.6531 1.1141 0.4649
C34 C 0.8203(8) 0.7252(9) 0.5030(4)
H27 H 0.8623 0.6241 0.5136
C35 C 0.8568(7) 0.9239(9) 0.4690(4)
H28 H 0.9248 0.9676 0.4544
C31A C 0.4111(6) 1.0451(7) 0.5042(3)
N4A N 0.0791(6) 1.2218(8) 0.5167(3)
C32A C 0.3440(7) 1.1966(7) 0.4899(3)
H25A H 0.4084 1.2442 0.4759
C33A C 0.3080(7) 0.9868(8) 0.5248(4)
H26A H 0.3469 0.8859 0.5351
C34A C 0.1797(8) 1.2748(9) 0.4970(4)
H27A H 0.1377 1.3759 0.4864
C35A C 0.1432(7) 1.0761(9) 0.5310(4)
H28A H 0.0752 1.0324 0.5456
loop_
_geom_bond_atom_site_label_1
_geom_bond_atom_site_label_2
_geom_bond_site_symmetry_1
_geom_bond_site_symmetry_2
O1 C11 1_555 1_555
O2 C1 1_555 1_555
O3 H1 1_555 1_555
O4 H2 1_555 1_555
O5 H3 1_555 1_555
O6 H4 1_555 1_555
O7 H5 1_555 1_555
O8 H6 1_555 1_555
C1 C3 1_555 1_555
C2 C6 1_555 1_555
C3 O3 1_555 1_555
C4 C1 1_555 1_555
C5 H7 1_555 1_555
C6 O2 1_555 1_555
C7 O5 1_555 1_555
C8 O7 1_555 1_555
C9 O6 1_555 1_555
C10 C8 1_555 1_555
H8 C10 1_555 1_555
C11 C2 1_555 1_555
C12 O8 1_555 1_555
C13 O4 1_555 1_555
C14 C4 1_555 1_555
H9 C14 1_555 1_555
C15 C4 1_555 1_555
H10 C15 1_555 1_555
N1 C21 1_555 1_555
N2 C24 1_555 1_555
C16 H11 1_555 1_555
C17 C18 1_555 1_555
C18 C16 1_555 1_555
C19 C17 1_555 1_555
H12 C19 1_555 1_555
C20 C17 1_555 1_555
H13 C20 1_555 1_555
C21 C16 1_555 1_555
H14 C21 1_555 1_555
C22 C18 1_555 1_555
H15 C22 1_555 1_555
C23 N1 1_555 1_555
H16 C23 1_555 1_555
C24 C19 1_555 1_555
H17 C24 1_555 1_555
C25 N2 1_555 1_555
H18 C25 1_555 1_555
N3 C29 1_555 1_555
C26 H19 1_555 1_555
C27 C26 1_555 1_555
C28 C27 1_555 1_555
H20 C28 1_555 1_555
C29 C26 1_555 1_555
H21 C29 1_555 1_555
C30 N3 1_555 1_555
H22 C30 1_555 1_555
O9 H23 1_555 1_555
H24 O9 1_555 1_555
C31 C32 1_555 1_555
N4 C34 1_555 1_555
C32 H25 1_555 1_555
C33 C31 1_555 1_555
H26 C33 1_555 1_555
C34 C32 1_555 1_555
H27 C34 1_555 1_555
C35 N4 1_555 1_555
H28 C35 1_555 1_555
N3A C29A 1_555 1_555
C26A H19A 1_555 1_555
C27A C27 1_555 1_555
C28A C27A 1_555 1_555
H20A C28A 1_555 1_555
C29A C26A 1_555 1_555
H21A C29A 1_555 1_555
C30A N3A 1_555 1_555
H22A C30A 1_555 1_555
C31A C31 1_555 1_555
N4A C34A 1_555 1_555
C32A C31A 1_555 1_555
H25A C32A 1_555 1_555
C33A C31A 1_555 1_555
H26A C33A 1_555 1_555
C34A C32A 1_555 1_555
H27A C34A 1_555 1_555
C35A N4A 1_555 1_555
H28A C35A 1_555 1_555
C2 C8 1_555 1_555
C3 C11 1_555 1_555
C5 C6 1_555 1_555
C5 C9 1_555 1_555
C7 C12 1_555 1_555
C7 C13 1_555 1_555
C9 C10 1_555 1_555
C12 C15 1_555 1_555
C13 C14 1_555 1_555
C20 C25 1_555 1_555
C22 C23 1_555 1_555
C28 C30 1_555 1_555
C33 C35 1_555 1_555
C26A C27A 1_555 1_555
C28A C30A 1_555 1_555
C33A C35A 1_555 1_555

#END
