
#######################################################################
#
#                 Cambridge Crystallographic Data Centre
#                                CCDC 
#
#######################################################################
#
# If this CIF has been generated from an entry in the Cambridge 
# Structural Database, then it will include bibliographic, chemical, 
# crystal, experimental, refinement or atomic coordinate data resulting 
# from the CCDC's data processing and validation procedures.
#
#######################################################################

data_UBOSEM
_chemical_name_common            "bis(kaempferol) 4,4'-bipyridine dihydrate"
_chemical_formula_moiety         '2(C15 H10 O6),C10 H8 N2,2(H2 O1)'
_chemical_name_systematic        
"bis(3,5,7-trihydroxy-2-(4-hydroxyphenyl)-4H-chromen-4-one) 4,4'-bipyridine dihydrate"
_chemical_properties_biological  
'antibacterial properties against S. aureus and E. coli'
_symmetry_cell_setting           triclinic
_symmetry_space_group_name_H-M   'P -1'
_symmetry_Int_Tables_number      2
_space_group_name_Hall           '-P 1'
loop_
_symmetry_equiv_pos_site_id
_symmetry_equiv_pos_as_xyz
1 x,y,z
2 -x,-y,-z
_cell_length_a                   8.6015(5)
_cell_length_b                   9.8233(6)
_cell_length_c                   22.2693(15)
_cell_angle_alpha                77.584(5)
_cell_angle_beta                 86.775(5)
_cell_angle_gamma                68.900(6)
_cell_volume                     1713.97
_exptl_crystal_colour            yellow
_exptl_crystal_description       block
_cell_formula_units_Z            2
loop_
_atom_site_label
_atom_site_type_symbol
_atom_site_fract_x
_atom_site_fract_y
_atom_site_fract_z
O1 O 0.7760(2) 1.2127(2) -0.01769(9)
H1 H 0.8406 1.1310 -0.0003
O2 O 0.3908(2) 1.0178(2) 0.10005(8)
O3 O 0.1899(2) 1.4759(2) -0.04093(9)
H2 H 0.2203 1.5255 -0.0705
O4 O 0.8031(2) 0.7537(2) 0.14976(9)
H3 H 0.8832 0.7293 0.1275
O5 O 0.8753(2) 0.9550(2) 0.05711(9)
C1 C 0.2915(3) 1.2461(3) 0.02828(12)
H4 H 0.1827 1.2528 0.0377
C2 C 0.4253(3) 1.1247(3) 0.05672(12)
C3 C 0.5907(3) 1.1083(3) 0.04194(12)
C4 C 0.3235(3) 1.3572(3) -0.01447(12)
O6 O 0.2580(3) 0.5335(3) 0.30615(10)
H5 H 0.3145 0.4990 0.3381
C5 C 0.4865(3) 1.3469(3) -0.02999(12)
H6 H 0.5061 1.4224 -0.0589
C6 C 0.6169(3) 1.2247(3) -0.00226(12)
C7 C 0.4538(3) 0.7985(3) 0.17700(12)
C8 C 0.6791(3) 0.8749(3) 0.11824(12)
C9 C 0.5185(3) 0.8958(3) 0.13147(12)
C10 C 0.5394(3) 0.7206(3) 0.23287(13)
H7 H 0.6404 0.7286 0.2407
C11 C 0.7252(3) 0.9790(3) 0.07142(12)
C12 C 0.3276(3) 0.6191(3) 0.26527(13)
C13 C 0.3043(3) 0.7829(3) 0.16701(13)
H8 H 0.2438 0.8354 0.1307
C14 C 0.2428(3) 0.6915(4) 0.20958(13)
H9 H 0.1451 0.6785 0.2010
C15 C 0.4771(3) 0.6324(3) 0.27636(13)
H10 H 0.5357 0.5819 0.3132
O7 O 0.1093(2) 0.9452(2) 0.39646(9)
O8 O -0.3520(2) 1.0684(2) 0.46917(9)
O9 O -0.2792(2) 1.2593(2) 0.37245(10)
H11 H -0.3609 1.2755 0.3944
O10 O 0.3008(2) 0.4828(2) 0.53211(10)
H12 H 0.2705 0.4295 0.5602
O11 O -0.2591(2) 0.8136(3) 0.54663(10)
H13 H -0.3229 0.8945 0.5282
O12 O 0.2476(2) 1.3451(3) 0.15951(10)
H14 H 0.1863 1.4306 0.1449
C16 C 0.0752(3) 0.8475(3) 0.44418(13)
C17 C -0.2075(3) 1.0287(3) 0.44779(13)
C18 C -0.0813(3) 0.8870(3) 0.47054(12)
C19 C 0.2029(3) 0.7140(3) 0.46514(13)
H15 H 0.3070 0.6926 0.4473
C20 C -0.0097(3) 1.0815(3) 0.37151(13)
C21 C 0.0156(3) 0.6444(4) 0.54020(13)
H16 H -0.0045 0.5742 0.5718
C22 C 0.1720(3) 0.6134(3) 0.51315(13)
C23 C -0.1624(3) 1.1251(3) 0.39706(13)
C24 C -0.0251(3) 1.3076(4) 0.28939(14)
H17 H -0.1193 1.3656 0.3071
C25 C 0.0522(3) 1.1559(3) 0.31675(12)
C26 C -0.1082(3) 0.7804(3) 0.51931(13)
C27 C 0.2541(3) 1.1390(4) 0.23604(13)
H18 H 0.3483 1.0819 0.2181
C28 C 0.1929(3) 1.0742(3) 0.28800(13)
H19 H 0.2464 0.9732 0.3046
C29 C 0.1771(3) 1.2886(4) 0.21011(13)
C30 C 0.0358(3) 1.3717(4) 0.23716(14)
H20 H -0.0183 1.4720 0.2197
N1 N 0.2600(3) 1.2668(3) 0.62042(11)
N2 N 0.2498(3) 0.6676(3) 0.86473(11)
C31 C 0.2563(3) 1.0235(3) 0.71424(13)
C32 C 0.2551(3) 0.8987(3) 0.76566(12)
C33 C 0.3894(3) 1.0140(4) 0.67511(13)
H21 H 0.4807 0.9254 0.6792
C34 C 0.1364(4) 0.8043(4) 0.85727(14)
H22 H 0.0530 0.8228 0.8861
C35 C 0.1341(4) 0.9200(4) 0.80994(14)
H23 H 0.0510 1.0133 0.8075
C36 C 0.3661(4) 0.6461(4) 0.82190(15)
H24 H 0.4470 0.5513 0.8254
C37 C 0.1239(4) 1.1578(4) 0.70294(14)
H25 H 0.0290 1.1699 0.7265
C38 C 0.3736(4) 0.7559(4) 0.77275(15)
H26 H 0.4578 0.7342 0.7444
C39 C 0.3864(4) 1.1368(4) 0.62984(14)
H27 H 0.4781 1.1275 0.6047
C40 C 0.1316(4) 1.2742(4) 0.65697(15)
H28 H 0.0408 1.3634 0.6513
O13 O 0.0647(3) 0.6048(3) 0.08640(11)
H29 H 0.120(5) 0.653(5) 0.0588(18)
H30 H 0.012(4) 0.587(4) 0.0657(15)
O14 O 0.4154(3) 0.3900(4) 0.41634(12)
H31 H 0.386(6) 0.324(6) 0.426(3)
H32 H 0.395(5) 0.437(6) 0.451(2)
loop_
_geom_bond_atom_site_label_1
_geom_bond_atom_site_label_2
_geom_bond_site_symmetry_1
_geom_bond_site_symmetry_2
O1 H1 1_555 1_555
O2 C2 1_555 1_555
O3 H2 1_555 1_555
O4 H3 1_555 1_555
O5 C11 1_555 1_555
C1 H4 1_555 1_555
C2 C1 1_555 1_555
C3 C2 1_555 1_555
C4 O3 1_555 1_555
O6 H5 1_555 1_555
C5 C4 1_555 1_555
H6 C5 1_555 1_555
C6 O1 1_555 1_555
C7 C9 1_555 1_555
C8 O4 1_555 1_555
C9 O2 1_555 1_555
C10 C7 1_555 1_555
H7 C10 1_555 1_555
C11 C3 1_555 1_555
C12 O6 1_555 1_555
C13 C7 1_555 1_555
H8 C13 1_555 1_555
C14 C12 1_555 1_555
H9 C14 1_555 1_555
C15 C10 1_555 1_555
H10 C15 1_555 1_555
O7 C16 1_555 1_555
O8 C17 1_555 1_555
O9 H11 1_555 1_555
O10 H12 1_555 1_555
O11 H13 1_555 1_555
O12 H14 1_555 1_555
C16 C18 1_555 1_555
C17 C18 1_555 1_555
C18 C26 1_555 1_555
C19 C16 1_555 1_555
H15 C19 1_555 1_555
C20 O7 1_555 1_555
C21 H16 1_555 1_555
C22 O10 1_555 1_555
C23 O9 1_555 1_555
C24 H17 1_555 1_555
C25 C20 1_555 1_555
C26 O11 1_555 1_555
C27 H18 1_555 1_555
C28 C25 1_555 1_555
H19 C28 1_555 1_555
C29 O12 1_555 1_555
C30 C24 1_555 1_555
H20 C30 1_555 1_555
N1 C39 1_555 1_555
N2 C34 1_555 1_555
C31 C32 1_555 1_555
C32 C35 1_555 1_555
C33 C31 1_555 1_555
H21 C33 1_555 1_555
C34 H22 1_555 1_555
C35 C34 1_555 1_555
H23 C35 1_555 1_555
C36 N2 1_555 1_555
H24 C36 1_555 1_555
C37 C31 1_555 1_555
H25 C37 1_555 1_555
C38 C32 1_555 1_555
H26 C38 1_555 1_555
C39 C33 1_555 1_555
H27 C39 1_555 1_555
C40 N1 1_555 1_555
H28 C40 1_555 1_555
O13 H29 1_555 1_555
H30 O13 1_555 1_555
O14 H31 1_555 1_555
H32 O14 1_555 1_555
C1 C4 1_555 1_555
C3 C6 1_555 1_555
C5 C6 1_555 1_555
C8 C9 1_555 1_555
C8 C11 1_555 1_555
C12 C15 1_555 1_555
C13 C14 1_555 1_555
C17 C23 1_555 1_555
C19 C22 1_555 1_555
C20 C23 1_555 1_555
C21 C22 1_555 1_555
C21 C26 1_555 1_555
C24 C25 1_555 1_555
C27 C28 1_555 1_555
C27 C29 1_555 1_555
C29 C30 1_555 1_555
C36 C38 1_555 1_555
C37 C40 1_555 1_555

#END
