
#######################################################################
#
#                 Cambridge Crystallographic Data Centre
#                                CCDC 
#
#######################################################################
#
# If this CIF has been generated from an entry in the Cambridge 
# Structural Database, then it will include bibliographic, chemical, 
# crystal, experimental, refinement or atomic coordinate data resulting 
# from the CCDC's data processing and validation procedures.
#
#######################################################################

data_UBOZUI
_chemical_formula_moiety         'C18 H2 B1 F15 O1,C6 H6'
_chemical_name_systematic        
'tris(Pentafluorophenyl)borane-water benzene solvate'
_symmetry_cell_setting           triclinic
_symmetry_space_group_name_H-M   'P -1'
_symmetry_Int_Tables_number      2
_space_group_name_Hall           '-P 1'
loop_
_symmetry_equiv_pos_site_id
_symmetry_equiv_pos_as_xyz
1 x,y,z
2 -x,-y,-z
_cell_length_a                   10.6300(12)
_cell_length_b                   13.6557(15)
_cell_length_c                   15.3881(17)
_cell_angle_alpha                87.260(2)
_cell_angle_beta                 86.3220(10)
_cell_angle_gamma                86.413(2)
_cell_volume                     2222.62
_exptl_crystal_colour            colorless
_exptl_crystal_description       block
_cell_formula_units_Z            4
loop_
_atom_site_label
_atom_site_type_symbol
_atom_site_fract_x
_atom_site_fract_y
_atom_site_fract_z
O1 O 0.64526(17) 0.24395(13) 0.39586(13)
H1 H 0.705(5) 0.271(4) 0.378(3)
H2 H 0.645(6) 0.249(4) 0.450(4)
B1 B 0.5151(2) 0.26151(19) 0.34518(17)
C1 C 0.4331(2) 0.16885(16) 0.37906(14)
C2 C 0.3584(2) 0.12152(17) 0.32550(15)
C3 C 0.2852(2) 0.04484(18) 0.35464(16)
C4 C 0.2837(2) 0.01225(18) 0.44080(17)
C5 C 0.3547(2) 0.05771(19) 0.49723(16)
C6 C 0.4265(2) 0.13395(18) 0.46574(15)
C7 C 0.5659(2) 0.25901(17) 0.24375(15)
C8 C 0.5407(2) 0.33170(17) 0.17982(16)
C9 C 0.5863(3) 0.32594(19) 0.09335(16)
C10 C 0.6589(3) 0.2440(2) 0.06805(16)
C11 C 0.6854(2) 0.16871(18) 0.12815(17)
C12 C 0.6394(2) 0.17756(17) 0.21386(16)
C13 C 0.4494(2) 0.36646(17) 0.37643(14)
C14 C 0.5186(2) 0.44951(18) 0.37680(15)
C15 C 0.4693(2) 0.54084(17) 0.40189(15)
C16 C 0.3424(2) 0.55205(17) 0.42789(15)
C17 C 0.2680(2) 0.47279(18) 0.42781(16)
C18 C 0.3219(2) 0.38278(18) 0.40216(16)
F1 F 0.35245(15) 0.14991(11) 0.24095(9)
F2 F 0.21561(15) 0.00133(12) 0.29958(10)
F3 F 0.21453(17) -0.06284(12) 0.46951(11)
F4 F 0.35226(16) 0.02722(13) 0.58150(10)
F5 F 0.49299(15) 0.17718(12) 0.52472(9)
F6 F 0.46694(15) 0.41275(11) 0.19860(10)
F7 F 0.55931(18) 0.39816(12) 0.03464(10)
F8 F 0.70239(18) 0.23666(13) -0.01562(10)
F9 F 0.75562(17) 0.08856(12) 0.10332(11)
F10 F 0.66773(15) 0.10196(11) 0.27009(10)
F11 F 0.64386(13) 0.44289(11) 0.35058(10)
F12 F 0.54236(15) 0.61759(11) 0.40146(10)
F13 F 0.29294(15) 0.63983(11) 0.45379(10)
F14 F 0.14501(14) 0.48368(12) 0.45318(11)
F15 F 0.24161(14) 0.31014(11) 0.40246(12)
O2 O 0.89347(18) 0.74567(13) 0.12415(12)
H3 H 0.962(4) 0.756(3) 0.103(3)
H4 H 0.895(4) 0.709(3) 0.167(3)
B2 B 0.7756(3) 0.73783(19) 0.06379(17)
C25 C 0.6559(2) 0.74293(17) 0.13533(14)
C26 C 0.6324(2) 0.82676(17) 0.18353(15)
C27 C 0.5278(2) 0.84196(18) 0.24070(15)
C28 C 0.4404(2) 0.77135(19) 0.25218(15)
C29 C 0.4589(2) 0.68618(18) 0.20663(16)
C30 C 0.5658(2) 0.67300(17) 0.15030(15)
C31 C 0.7784(2) 0.83625(17) -0.00018(15)
C32 C 0.8876(2) 0.87997(18) -0.03087(16)
C33 C 0.8891(3) 0.96692(19) -0.08140(16)
C34 C 0.7764(3) 1.01319(18) -0.10380(16)
C35 C 0.6648(3) 0.97082(19) -0.07868(16)
C36 C 0.6682(2) 0.88407(19) -0.02851(15)
C37 C 0.8007(2) 0.63589(17) 0.01248(15)
C38 C 0.8337(2) 0.54800(18) 0.05697(15)
C39 C 0.8558(2) 0.45865(17) 0.01844(16)
C40 C 0.8457(2) 0.45478(18) -0.07038(16)
C41 C 0.8135(2) 0.53934(19) -0.11872(15)
C42 C 0.7907(2) 0.62765(18) -0.07668(15)
F16 F 0.57741(14) 0.58757(10) 0.10954(10)
F17 F 0.37440(14) 0.61707(11) 0.21770(10)
F18 F 0.33900(15) 0.78456(12) 0.30774(10)
F19 F 0.50900(15) 0.92534(11) 0.28362(10)
F20 F 0.71353(14) 0.89906(10) 0.17473(10)
F21 F 1.00269(14) 0.83637(12) -0.01179(10)
F22 F 0.99885(18) 1.00595(13) -0.10861(11)
F23 F 0.7758(2) 1.09884(11) -0.15082(10)
F24 F 0.55431(18) 1.01180(14) -0.10404(11)
F25 F 0.55617(15) 0.84418(13) -0.00867(10)
F26 F 0.75704(16) 0.70567(11) -0.12841(9)
F27 F 0.80644(15) 0.53630(11) -0.20506(9)
F28 F 0.86943(14) 0.36898(11) -0.10966(10)
F29 F 0.88889(15) 0.37657(10) 0.06545(10)
F30 F 0.84494(14) 0.54746(10) 0.14487(9)
C19 C 0.9374(3) 0.2394(3) 0.2495(2)
H5 H 0.921(4) 0.228(3) 0.184(3)
C20 C 0.9663(3) 0.1566(3) 0.3013(3)
H6 H 0.984(4) 0.089(3) 0.275(3)
C21 C 0.9744(3) 0.1644(3) 0.3900(3)
H7 H 0.996(4) 0.106(3) 0.422(3)
C22 C 0.9536(3) 0.2552(3) 0.4277(2)
H8 H 0.961(4) 0.259(3) 0.484(3)
C23 C 0.9231(3) 0.3381(2) 0.3755(2)
H9 H 0.907(4) 0.399(3) 0.401(2)
C24 C 0.9151(3) 0.3298(2) 0.2867(2)
H10 H 0.890(4) 0.387(3) 0.247(3)
C43 C 0.8076(3) 0.7515(2) 0.35476(18)
H11 H 0.722(3) 0.771(2) 0.370(2)
C44 C 0.8942(3) 0.8233(2) 0.34352(19)
H12 H 0.864(4) 0.894(3) 0.353(3)
C45 C 1.0194(3) 0.7982(2) 0.31759(18)
H13 H 1.079(4) 0.844(3) 0.306(2)
C46 C 1.0578(3) 0.7014(2) 0.30209(17)
H14 H 1.142(4) 0.687(3) 0.283(3)
C47 C 0.9703(3) 0.6297(2) 0.31274(17)
H15 H 0.994(3) 0.559(3) 0.304(2)
C48 C 0.8453(3) 0.6542(2) 0.33887(18)
H16 H 0.783(4) 0.604(3) 0.348(2)
loop_
_geom_bond_atom_site_label_1
_geom_bond_atom_site_label_2
_geom_bond_site_symmetry_1
_geom_bond_site_symmetry_2
O1 H1 1_555 1_555
H2 O1 1_555 1_555
O2 H3 1_555 1_555
H4 O2 1_555 1_555
B1 O1 1_555 1_555
B2 O2 1_555 1_555
C1 B1 1_555 1_555
C2 C1 1_555 1_555
C3 C2 1_555 1_555
C4 C3 1_555 1_555
C5 C4 1_555 1_555
C6 C1 1_555 1_555
C7 B1 1_555 1_555
C8 C7 1_555 1_555
C9 C8 1_555 1_555
C10 C9 1_555 1_555
C11 C10 1_555 1_555
C12 C7 1_555 1_555
C13 B1 1_555 1_555
C14 C13 1_555 1_555
C15 C14 1_555 1_555
C16 C15 1_555 1_555
C17 C16 1_555 1_555
C18 C13 1_555 1_555
C19 H5 1_555 1_555
C20 C19 1_555 1_555
H6 C20 1_555 1_555
C21 C20 1_555 1_555
H7 C21 1_555 1_555
C22 C21 1_555 1_555
H8 C22 1_555 1_555
C23 C22 1_555 1_555
H9 C23 1_555 1_555
C24 C19 1_555 1_555
H10 C24 1_555 1_555
C25 B2 1_555 1_555
C26 C25 1_555 1_555
C27 C26 1_555 1_555
C28 C27 1_555 1_555
C29 C28 1_555 1_555
C30 C25 1_555 1_555
C31 B2 1_555 1_555
C32 C31 1_555 1_555
C33 C32 1_555 1_555
C34 C33 1_555 1_555
C35 C34 1_555 1_555
C36 C31 1_555 1_555
C37 B2 1_555 1_555
C38 C37 1_555 1_555
C39 C38 1_555 1_555
C40 C39 1_555 1_555
C41 C40 1_555 1_555
C42 C37 1_555 1_555
C43 H11 1_555 1_555
C44 C43 1_555 1_555
H12 C44 1_555 1_555
C45 C44 1_555 1_555
H13 C45 1_555 1_555
C46 C45 1_555 1_555
H14 C46 1_555 1_555
C47 C46 1_555 1_555
H15 C47 1_555 1_555
C48 C43 1_555 1_555
H16 C48 1_555 1_555
F1 C2 1_555 1_555
F2 C3 1_555 1_555
F3 C4 1_555 1_555
F4 C5 1_555 1_555
F5 C6 1_555 1_555
F6 C8 1_555 1_555
F7 C9 1_555 1_555
F8 C10 1_555 1_555
F9 C11 1_555 1_555
F10 C12 1_555 1_555
F11 C14 1_555 1_555
F12 C15 1_555 1_555
F13 C16 1_555 1_555
F14 C17 1_555 1_555
F15 C18 1_555 1_555
F16 C30 1_555 1_555
F17 C29 1_555 1_555
F18 C28 1_555 1_555
F19 C27 1_555 1_555
F20 C26 1_555 1_555
F21 C32 1_555 1_555
F22 C33 1_555 1_555
F23 C34 1_555 1_555
F24 C35 1_555 1_555
F25 C36 1_555 1_555
F26 C42 1_555 1_555
F27 C41 1_555 1_555
F28 C40 1_555 1_555
F29 C39 1_555 1_555
F30 C38 1_555 1_555
C5 C6 1_555 1_555
C11 C12 1_555 1_555
C17 C18 1_555 1_555
C23 C24 1_555 1_555
C29 C30 1_555 1_555
C35 C36 1_555 1_555
C41 C42 1_555 1_555
C47 C48 1_555 1_555

#END
