
#######################################################################
#
#                 Cambridge Crystallographic Data Centre
#                                CCDC 
#
#######################################################################
#
# If this CIF has been generated from an entry in the Cambridge 
# Structural Database, then it will include bibliographic, chemical, 
# crystal, experimental, refinement or atomic coordinate data resulting 
# from the CCDC's data processing and validation procedures.
#
#######################################################################

data_UBUBEA
_chemical_formula_moiety         'C18 H3 B1 F15 N1,C7 H8'
_chemical_name_systematic        
'tris(Pentafluorophenyl)borane-ammonia toluene solvate'
_symmetry_cell_setting           triclinic
_symmetry_space_group_name_H-M   'P -1'
_symmetry_Int_Tables_number      2
_space_group_name_Hall           '-P 1'
loop_
_symmetry_equiv_pos_site_id
_symmetry_equiv_pos_as_xyz
1 x,y,z
2 -x,-y,-z
_cell_length_a                   10.536(2)
_cell_length_b                   13.795(3)
_cell_length_c                   15.992(3)
_cell_angle_alpha                86.281(3)
_cell_angle_beta                 89.170(2)
_cell_angle_gamma                87.176(2)
_cell_volume                     2316.48
_exptl_crystal_colour            colorless
_exptl_crystal_description       block
_cell_formula_units_Z            4
loop_
_atom_site_label
_atom_site_type_symbol
_atom_site_fract_x
_atom_site_fract_y
_atom_site_fract_z
N1 N 0.6695(4) 0.2434(3) 0.4023(3)
H1 H 0.732(6) 0.281(5) 0.381(4)
H2 H 0.653(5) 0.251(4) 0.453(4)
H3 H 0.688(6) 0.190(5) 0.395(4)
C1 C 0.4744(4) 0.3652(3) 0.3735(3)
C2 C 0.5446(4) 0.4481(3) 0.3710(3)
C3 C 0.4997(4) 0.5380(3) 0.3930(3)
C4 C 0.3755(4) 0.5489(3) 0.4201(3)
C5 C 0.3004(4) 0.4708(4) 0.4232(3)
C6 C 0.3498(4) 0.3806(4) 0.4000(3)
C7 C 0.4508(4) 0.1690(3) 0.3770(3)
C8 C 0.4366(4) 0.1368(4) 0.4605(3)
C9 C 0.3635(5) 0.0614(4) 0.4884(3)
C10 C 0.2967(5) 0.0133(4) 0.4311(3)
C11 C 0.3057(4) 0.0432(3) 0.3478(3)
C12 C 0.3800(4) 0.1188(3) 0.3224(3)
C13 C 0.5868(4) 0.2579(3) 0.2504(3)
C14 C 0.5578(4) 0.3278(3) 0.1862(3)
C15 C 0.5978(5) 0.3207(4) 0.1051(3)
C16 C 0.6717(5) 0.2410(4) 0.0820(3)
C17 C 0.7023(5) 0.1686(3) 0.1432(3)
C18 C 0.6603(4) 0.1792(3) 0.2237(3)
B1 B 0.5390(5) 0.2599(4) 0.3482(3)
F1 F 0.6676(2) 0.4413(2) 0.34351(18)
F2 F 0.5743(3) 0.6142(2) 0.38884(19)
F3 F 0.3286(3) 0.63586(19) 0.44305(18)
F4 F 0.1792(3) 0.4812(2) 0.4501(2)
F5 F 0.2680(3) 0.3098(2) 0.4048(2)
F6 F 0.4954(3) 0.1826(2) 0.52070(18)
F7 F 0.3550(3) 0.0335(3) 0.57030(19)
F8 F 0.2256(3) -0.0606(2) 0.4574(2)
F9 F 0.2395(3) -0.0016(2) 0.29213(19)
F10 F 0.3798(3) 0.1446(2) 0.23956(17)
F11 F 0.4843(3) 0.4080(2) 0.20115(18)
F12 F 0.5676(3) 0.3911(2) 0.04522(18)
F13 F 0.7105(3) 0.2329(2) 0.00311(18)
F14 F 0.7728(3) 0.0898(2) 0.12241(19)
F15 F 0.6942(3) 0.1055(2) 0.28119(18)
N2 N 0.9118(4) 0.7507(3) 0.1121(3)
H4 H 0.920(5) 0.809(4) 0.132(3)
H5 H 0.979(7) 0.738(5) 0.080(4)
H6 H 0.905(6) 0.711(5) 0.152(4)
C19 C 0.8005(4) 0.6423(3) 0.0091(3)
C20 C 0.8381(4) 0.5546(3) 0.0523(3)
C21 C 0.8537(4) 0.4676(3) 0.0162(3)
C22 C 0.8336(4) 0.4632(3) -0.0679(3)
C23 C 0.7962(4) 0.5473(4) -0.1148(3)
C24 C 0.7790(4) 0.6333(3) -0.0756(3)
C25 C 0.7739(4) 0.8416(3) -0.0060(3)
C26 C 0.8756(4) 0.8918(3) -0.0373(3)
C27 C 0.8657(5) 0.9791(3) -0.0840(3)
C28 C 0.7463(5) 1.0201(3) -0.1028(3)
C29 C 0.6417(5) 0.9711(4) -0.0777(3)
C30 C 0.6566(4) 0.8841(3) -0.0309(3)
C31 C 0.6685(4) 0.7457(3) 0.1271(3)
C32 C 0.6526(4) 0.8252(3) 0.1753(3)
C33 C 0.5557(4) 0.8382(3) 0.2333(3)
C34 C 0.4694(4) 0.7669(4) 0.2462(3)
C35 C 0.4807(4) 0.6848(3) 0.2005(3)
C36 C 0.5793(4) 0.6759(3) 0.1427(3)
B2 B 0.7837(5) 0.7434(4) 0.0571(3)
F16 F 0.8588(3) 0.5540(2) 0.13621(16)
F17 F 0.8914(3) 0.38580(19) 0.06259(18)
F18 F 0.8516(3) 0.3784(2) -0.10439(18)
F19 F 0.7804(3) 0.5437(2) -0.19731(17)
F20 F 0.7369(3) 0.7105(2) -0.12550(17)
F21 F 0.9960(2) 0.8549(2) -0.02338(17)
F22 F 0.9696(3) 1.0246(2) -0.11261(18)
F23 F 0.7350(3) 1.1061(2) -0.14744(18)
F24 F 0.5245(3) 1.0069(2) -0.09894(19)
F25 F 0.5490(2) 0.8385(2) -0.00961(17)
F26 F 0.7352(3) 0.89753(19) 0.16562(17)
F27 F 0.5450(3) 0.9181(2) 0.27650(18)
F28 F 0.3751(3) 0.7766(2) 0.30242(18)
F29 F 0.3966(3) 0.6162(2) 0.21262(19)
F30 F 0.5824(3) 0.5940(2) 0.10109(18)
C37 C 0.9856(4) 0.2377(4) 0.3088(3)
C38 C 1.0004(5) 0.1758(4) 0.3800(3)
H7 H 1.0210 0.1087 0.3740
C39 C 0.9862(5) 0.2085(4) 0.4592(3)
H8 H 0.9966 0.1641 0.5068
C40 C 0.9566(4) 0.3065(4) 0.4699(3)
H9 H 0.9478 0.3298 0.5245
C41 C 0.9403(4) 0.3692(4) 0.3995(3)
H10 H 0.9194 0.4361 0.4058
C42 C 0.9542(5) 0.3357(4) 0.3196(3)
H11 H 0.9422 0.3799 0.2719
C43 C 1.0059(5) 0.2015(4) 0.2225(3)
H12 H 1.0268 0.1314 0.2271
H13 H 1.0760 0.2352 0.1943
H14 H 0.9282 0.2145 0.1899
C44 C 0.9435(5) 0.8152(4) 0.3190(3)
C45 C 1.0649(4) 0.7812(3) 0.2967(3)
H15 H 1.1299 0.8261 0.2871
C46 C 1.0930(5) 0.6828(4) 0.2881(3)
H16 H 1.1769 0.6609 0.2737
C47 C 0.9988(5) 0.6164(3) 0.3006(3)
H17 H 1.0170 0.5493 0.2936
C48 C 0.8773(5) 0.6496(4) 0.3234(3)
H18 H 0.8123 0.6047 0.3328
C49 C 0.8501(5) 0.7484(4) 0.3326(3)
H19 H 0.7666 0.7701 0.3483
C50 C 0.9156(5) 0.9222(4) 0.3273(3)
H20 H 0.9930 0.9574 0.3153
H21 H 0.8861 0.9329 0.3845
H22 H 0.8494 0.9459 0.2875
loop_
_geom_bond_atom_site_label_1
_geom_bond_atom_site_label_2
_geom_bond_site_symmetry_1
_geom_bond_site_symmetry_2
N1 H1 1_555 1_555
H2 N1 1_555 1_555
H3 N1 1_555 1_555
C1 C2 1_555 1_555
C2 C3 1_555 1_555
C3 C4 1_555 1_555
C4 C5 1_555 1_555
C5 C6 1_555 1_555
C6 C1 1_555 1_555
C7 C8 1_555 1_555
C8 C9 1_555 1_555
C9 C10 1_555 1_555
C10 C11 1_555 1_555
C11 C12 1_555 1_555
C12 C7 1_555 1_555
C13 C14 1_555 1_555
C14 C15 1_555 1_555
C15 C16 1_555 1_555
C16 C17 1_555 1_555
C17 C18 1_555 1_555
C18 C13 1_555 1_555
B1 N1 1_555 1_555
F1 C2 1_555 1_555
F2 C3 1_555 1_555
F3 C4 1_555 1_555
F4 C5 1_555 1_555
F5 C6 1_555 1_555
F6 C8 1_555 1_555
F7 C9 1_555 1_555
F8 C10 1_555 1_555
F9 C11 1_555 1_555
F10 C12 1_555 1_555
F11 C14 1_555 1_555
F12 C15 1_555 1_555
F13 C16 1_555 1_555
F14 C17 1_555 1_555
F15 C18 1_555 1_555
N2 H4 1_555 1_555
H5 N2 1_555 1_555
H6 N2 1_555 1_555
C19 C20 1_555 1_555
C20 C21 1_555 1_555
C21 C22 1_555 1_555
C22 C23 1_555 1_555
C23 C24 1_555 1_555
C24 C19 1_555 1_555
C25 C26 1_555 1_555
C26 C27 1_555 1_555
C27 C28 1_555 1_555
C28 C29 1_555 1_555
C29 C30 1_555 1_555
C30 C25 1_555 1_555
C31 C32 1_555 1_555
C32 C33 1_555 1_555
C33 C34 1_555 1_555
C34 C35 1_555 1_555
C35 C36 1_555 1_555
C36 C31 1_555 1_555
B2 N2 1_555 1_555
F16 C20 1_555 1_555
F17 C21 1_555 1_555
F18 C22 1_555 1_555
F19 C23 1_555 1_555
F20 C24 1_555 1_555
F21 C26 1_555 1_555
F22 C27 1_555 1_555
F23 C28 1_555 1_555
F24 C29 1_555 1_555
F25 C30 1_555 1_555
F26 C32 1_555 1_555
F27 C33 1_555 1_555
F28 C34 1_555 1_555
F29 C35 1_555 1_555
F30 C36 1_555 1_555
C37 C38 1_555 1_555
C38 H7 1_555 1_555
C39 C38 1_555 1_555
H8 C39 1_555 1_555
C40 C39 1_555 1_555
H9 C40 1_555 1_555
C41 C40 1_555 1_555
H10 C41 1_555 1_555
C42 C37 1_555 1_555
H11 C42 1_555 1_555
C43 C37 1_555 1_555
H12 C43 1_555 1_555
H13 C43 1_555 1_555
H14 C43 1_555 1_555
C44 C45 1_555 1_555
C45 H15 1_555 1_555
C46 C45 1_555 1_555
H16 C46 1_555 1_555
C47 C46 1_555 1_555
H17 C47 1_555 1_555
C48 C47 1_555 1_555
H18 C48 1_555 1_555
C49 C44 1_555 1_555
H19 C49 1_555 1_555
C50 C44 1_555 1_555
H20 C50 1_555 1_555
H21 C50 1_555 1_555
H22 C50 1_555 1_555
C1 B1 1_555 1_555
C7 B1 1_555 1_555
C13 B1 1_555 1_555
C19 B2 1_555 1_555
C25 B2 1_555 1_555
C31 B2 1_555 1_555
C41 C42 1_555 1_555
C48 C49 1_555 1_555

#END
