
#######################################################################
#
#                 Cambridge Crystallographic Data Centre
#                                CCDC 
#
#######################################################################
#
# If this CIF has been generated from an entry in the Cambridge 
# Structural Database, then it will include bibliographic, chemical, 
# crystal, experimental, refinement or atomic coordinate data resulting 
# from the CCDC's data processing and validation procedures.
#
#######################################################################

data_UBUHAA
_chemical_compound_source        'soft coral Nephthea chabroli'
_chemical_formula_moiety         'C17 H28 O2,0.5(H2 O1)'
_chemical_name_systematic        'Chabrolol A hemihydrate'
_symmetry_cell_setting           triclinic
_symmetry_space_group_name_H-M   'P -1'
_symmetry_Int_Tables_number      2
_space_group_name_Hall           '-P 1'
loop_
_symmetry_equiv_pos_site_id
_symmetry_equiv_pos_as_xyz
1 x,y,z
2 -x,-y,-z
_cell_length_a                   9.609(3)
_cell_length_b                   11.328(5)
_cell_length_c                   17.553(6)
_cell_angle_alpha                75.07(3)
_cell_angle_beta                 75.62(3)
_cell_angle_gamma                70.14(4)
_cell_volume                     1708.95
_exptl_crystal_colour            colorless
_exptl_crystal_description       needle
_cell_formula_units_Z            4
loop_
_atom_site_label
_atom_site_type_symbol
_atom_site_fract_x
_atom_site_fract_y
_atom_site_fract_z
O1 O 0.0041(2) 0.56143(14) 0.34010(10)
H1 H -0.0635(2) 0.53889(14) 0.37682(10)
O2 O 0.4767(2) 0.34408(14) 0.44594(9)
H2 H 0.3959(2) 0.38396(14) 0.47624(9)
C1 C 0.0992(2) 0.4531(2) 0.30432(14)
H4 H 0.1649(2) 0.4829(2) 0.25806(14)
C2 C 0.1941(2) 0.3599(2) 0.36224(14)
H5 H 0.1444(2) 0.3144(2) 0.40901(14)
C3 C 0.3389(2) 0.3362(2) 0.35382(12)
H6 H 0.3880(2) 0.3742(2) 0.30357(12)
C4 C 0.4381(2) 0.2557(2) 0.41375(12)
C5 C 0.5849(2) 0.1663(2) 0.37726(14)
H7 H 0.5603(2) 0.1023(2) 0.36098(14)
H8 H 0.6442(2) 0.1234(2) 0.41858(14)
C6 C 0.6825(2) 0.2261(2) 0.30511(13)
H9 H 0.7863(2) 0.1841(2) 0.30932(13)
H10 H 0.6620(2) 0.3144(2) 0.30705(13)
C7 C 0.6587(3) 0.2176(2) 0.22627(15)
H11 H 0.6601(3) 0.1344(2) 0.22190(15)
C8 C 0.6367(3) 0.3064(3) 0.16116(15)
C9 C 0.6085(3) 0.2779(3) 0.0879(2)
H12 H 0.6313(3) 0.1871(3) 0.0937(2)
H13 H 0.6754(3) 0.3067(3) 0.0419(2)
C10 C 0.4471(3) 0.3416(3) 0.0742(2)
H14 H 0.4370(3) 0.3216(3) 0.0263(2)
H15 H 0.4254(3) 0.4327(3) 0.0662(2)
C11 C 0.3359(3) 0.2983(3) 0.1431(2)
H16 H 0.3764(3) 0.2326(3) 0.1856(2)
C12 C 0.1882(3) 0.3404(3) 0.1516(2)
C13 C 0.0906(3) 0.2941(3) 0.2267(2)
H17 H 0.1524(3) 0.2233(3) 0.2587(2)
H18 H 0.0207(3) 0.2637(3) 0.2122(2)
C14 C 0.0025(3) 0.3967(2) 0.2770(2)
H19 H -0.0646(3) 0.4646(2) 0.2462(2)
H20 H -0.0578(3) 0.3604(2) 0.3234(2)
C15 C 0.3598(3) 0.1779(2) 0.48480(14)
H21 H 0.2675(3) 0.2331(2) 0.50814(14)
H22 H 0.3387(3) 0.1133(2) 0.46710(14)
H23 H 0.4241(3) 0.1379(2) 0.52402(14)
C16 C 0.6330(4) 0.4420(3) 0.1562(2)
H24 H 0.6511(4) 0.4472(3) 0.2077(2)
H25 H 0.6833(4) 0.4741(3) 0.1064(2)
H26 H 0.5442(4) 0.4939(3) 0.1386(2)
C17 C 0.1099(4) 0.4400(4) 0.0885(2)
H27 H 0.1839(4) 0.4618(4) 0.0440(2)
H28 H 0.0464(4) 0.4067(4) 0.0709(2)
H29 H 0.0501(4) 0.5150(4) 0.1102(2)
O3 O 0.6029(2) 0.53228(14) 0.34565(10)
H30 H 0.6600(2) 0.53119(14) 0.37599(10)
O4 O 0.0554(2) 0.68969(14) 0.44291(9)
H31 H 0.1199(2) 0.62627(14) 0.46488(9)
C18 C 0.5326(2) 0.6621(2) 0.30904(14)
H33 H 0.5004(2) 0.6600(2) 0.26197(14)
C19 C 0.3972(2) 0.7208(2) 0.36540(14)
H34 H 0.4125(2) 0.7376(2) 0.41313(14)
C20 C 0.2589(2) 0.7510(2) 0.35395(13)
H35 H 0.2466(2) 0.7435(2) 0.30292(13)
C21 C 0.1171(2) 0.7968(2) 0.41190(13)
C22 C -0.0009(2) 0.9086(2) 0.37273(14)
H36 H 0.0364(2) 0.9815(2) 0.35684(14)
H37 H -0.0897(2) 0.9284(2) 0.41256(14)
C23 C -0.0470(2) 0.8919(2) 0.29961(14)
H38 H -0.1533(2) 0.9312(2) 0.30239(14)
H39 H -0.0273(2) 0.8022(2) 0.30185(14)
C24 C 0.0327(3) 0.9472(2) 0.2208(2)
H40 H 0.0359(3) 1.0325(2) 0.2166(2)
C25 C 0.0989(3) 0.8971(2) 0.15619(15)
C26 C 0.1792(3) 0.9681(3) 0.0838(2)
H41 H 0.1531(3) 1.0557(3) 0.0889(2)
H42 H 0.1458(3) 0.9668(3) 0.0369(2)
C27 C 0.3491(3) 0.9108(3) 0.0729(2)
H43 H 0.3948(3) 0.9571(3) 0.0248(2)
H44 H 0.3753(3) 0.8237(3) 0.0667(2)
C28 C 0.4122(3) 0.9149(3) 0.1418(2)
H45 H 0.3433(3) 0.9622(3) 0.1810(2)
C29 C 0.5511(3) 0.8609(2) 0.1548(2)
C30 C 0.5947(3) 0.8668(2) 0.2298(2)
H46 H 0.5106(3) 0.9204(2) 0.2599(2)
H47 H 0.6745(3) 0.9058(2) 0.2150(2)
C31 C 0.6475(3) 0.7355(2) 0.2835(2)
H48 H 0.7382(3) 0.6851(2) 0.2554(2)
H49 H 0.6707(3) 0.7476(2) 0.3305(2)
C32 C 0.1437(3) 0.8315(2) 0.48409(15)
H50 H 0.2180(3) 0.7614(2) 0.50895(15)
H51 H 0.1787(3) 0.9057(2) 0.46685(15)
H52 H 0.0515(3) 0.8495(2) 0.52190(15)
C33 C 0.1038(4) 0.7660(3) 0.1502(2)
H53 H 0.0501(4) 0.7282(3) 0.1988(2)
H54 H 0.0578(4) 0.7724(3) 0.1060(2)
H55 H 0.2064(4) 0.7135(3) 0.1417(2)
C34 C 0.6724(4) 0.7873(3) 0.0976(2)
H56 H 0.6328(4) 0.7892(3) 0.0520(2)
H57 H 0.7531(4) 0.8253(3) 0.0803(2)
H58 H 0.7092(4) 0.7002(3) 0.1241(2)
O5 O 0.7689(2) 0.5113(2) 0.45969(9)
H59 H 0.8154(2) 0.5628(2) 0.46018(9)
H60 H 0.8176(2) 0.4365(2) 0.48005(9)
H3? H 0.4963(2) 0.41196(14) 0.40374(9)
H32? H 0.0468(2) 0.64704(14) 0.39978(9)
H61? H 0.6862(2) 0.5808(2) 0.48707(9)
H62? H 0.6884(2) 0.5008(2) 0.44177(9)
loop_
_geom_bond_atom_site_label_1
_geom_bond_atom_site_label_2
_geom_bond_site_symmetry_1
_geom_bond_site_symmetry_2
O1 H1 1_555 1_555
O2 H2 1_555 1_555
C1 O1 1_555 1_555
H4 C1 1_555 1_555
C2 C1 1_555 1_555
H5 C2 1_555 1_555
C3 C2 1_555 1_555
H6 C3 1_555 1_555
C4 O2 1_555 1_555
C5 C4 1_555 1_555
H7 C5 1_555 1_555
H8 C5 1_555 1_555
C6 C5 1_555 1_555
H9 C6 1_555 1_555
H10 C6 1_555 1_555
C7 C6 1_555 1_555
H11 C7 1_555 1_555
C8 C7 1_555 1_555
C9 C8 1_555 1_555
H12 C9 1_555 1_555
H13 C9 1_555 1_555
C10 C9 1_555 1_555
H14 C10 1_555 1_555
H15 C10 1_555 1_555
C11 C10 1_555 1_555
H16 C11 1_555 1_555
C12 C11 1_555 1_555
C13 C12 1_555 1_555
H17 C13 1_555 1_555
H18 C13 1_555 1_555
C14 C1 1_555 1_555
H19 C14 1_555 1_555
H20 C14 1_555 1_555
C15 C4 1_555 1_555
H21 C15 1_555 1_555
H22 C15 1_555 1_555
H23 C15 1_555 1_555
C16 C8 1_555 1_555
H24 C16 1_555 1_555
H25 C16 1_555 1_555
H26 C16 1_555 1_555
C17 C12 1_555 1_555
H27 C17 1_555 1_555
H28 C17 1_555 1_555
H29 C17 1_555 1_555
O3 H30 1_555 1_555
O4 H31 1_555 1_555
C18 O3 1_555 1_555
H33 C18 1_555 1_555
C19 C18 1_555 1_555
H34 C19 1_555 1_555
C20 C19 1_555 1_555
H35 C20 1_555 1_555
C21 O4 1_555 1_555
C22 C21 1_555 1_555
H36 C22 1_555 1_555
H37 C22 1_555 1_555
C23 C22 1_555 1_555
H38 C23 1_555 1_555
H39 C23 1_555 1_555
C24 C23 1_555 1_555
H40 C24 1_555 1_555
C25 C24 1_555 1_555
C26 C25 1_555 1_555
H41 C26 1_555 1_555
H42 C26 1_555 1_555
C27 C26 1_555 1_555
H43 C27 1_555 1_555
H44 C27 1_555 1_555
C28 C27 1_555 1_555
H45 C28 1_555 1_555
C29 C28 1_555 1_555
C30 C29 1_555 1_555
H46 C30 1_555 1_555
H47 C30 1_555 1_555
C31 C18 1_555 1_555
H48 C31 1_555 1_555
H49 C31 1_555 1_555
C32 C21 1_555 1_555
H50 C32 1_555 1_555
H51 C32 1_555 1_555
H52 C32 1_555 1_555
C33 C25 1_555 1_555
H53 C33 1_555 1_555
H54 C33 1_555 1_555
H55 C33 1_555 1_555
C34 C29 1_555 1_555
H56 C34 1_555 1_555
H57 C34 1_555 1_555
H58 C34 1_555 1_555
O5 H59 1_555 1_555
H60 O5 1_555 1_555
C3 C4 1_555 1_555
C13 C14 1_555 1_555
C20 C21 1_555 1_555
C30 C31 1_555 1_555

#END
