
#######################################################################
#
#                 Cambridge Crystallographic Data Centre
#                                CCDC 
#
#######################################################################
#
# If this CIF has been generated from an entry in the Cambridge 
# Structural Database, then it will include bibliographic, chemical, 
# crystal, experimental, refinement or atomic coordinate data resulting 
# from the CCDC's data processing and validation procedures.
#
#######################################################################

data_UBUJAE
_chemical_name_common            
"tris(2-Methylresorcinol) tris(4,4'-bipyridine) bis(pyrene)"
_chemical_formula_moiety         '3(C7 H8 O2),3(C10 H8 N2),2(C16 H10)'
_chemical_name_systematic        
"tris(2-Methylbenzene-1,3-diol) tris(4,4'-bipyridine) bis(pyrene)"
_symmetry_cell_setting           triclinic
_symmetry_space_group_name_H-M   'P -1'
_symmetry_Int_Tables_number      2
_space_group_name_Hall           '-P 1'
loop_
_symmetry_equiv_pos_site_id
_symmetry_equiv_pos_as_xyz
1 x,y,z
2 -x,-y,-z
_cell_length_a                   7.509(6)
_cell_length_b                   8.755(6)
_cell_length_c                   24.70(2)
_cell_angle_alpha                91.768(12)
_cell_angle_beta                 96.793(14)
_cell_angle_gamma                93.035(13)
_cell_volume                     1609.02
_exptl_crystal_colour            colorless
_exptl_crystal_description       block
_cell_formula_units_Z            1
loop_
_atom_site_label
_atom_site_type_symbol
_atom_site_fract_x
_atom_site_fract_y
_atom_site_fract_z
O3 O 0.5256(2) 0.80239(19) 0.14702(7)
O4 O 0.2517(2) 1.21600(19) 0.05820(7)
C8 C 0.3738(3) 0.8806(3) 0.13399(9)
C9 C 0.3877(3) 1.0090(3) 0.10212(9)
C10 C 0.2331(3) 1.0891(3) 0.08833(9)
C11 C 0.0688(3) 1.0408(3) 0.10505(10)
H5 H -0.0354 1.0955 0.0952
C12 C 0.0593(3) 0.9127(3) 0.13605(11)
H6 H -0.0526 0.8793 0.1472
C13 C 0.2104(3) 0.8316(3) 0.15122(10)
H7 H 0.2027 0.7443 0.1729
C14 C 0.5609(3) 1.0587(3) 0.08139(10)
H8 H 0.5413 1.0647 0.0416
H9 H 0.6512 0.9844 0.0914
H10 H 0.6033 1.1596 0.0977
H11 H 0.487(5) 0.699(4) 0.1654(14)
H12 H 0.133(5) 1.267(4) 0.0530(13)
N1 N 0.4443(3) -0.0807(3) 0.37958(11)
N2 N 0.4604(3) 0.5496(3) 0.20451(10)
C15 C 0.3555(4) -0.0890(3) 0.32958(13)
H13 H 0.2925 -0.1831 0.3176
C16 C 0.3484(3) 0.0297(3) 0.29389(12)
H14 H 0.2830 0.0160 0.2586
C17 C 0.4384(3) 0.1696(3) 0.31036(10)
C18 C 0.5302(4) 0.1795(3) 0.36282(11)
H15 H 0.5938 0.2723 0.3762
C19 C 0.5286(4) 0.0544(3) 0.39530(13)
H16 H 0.5913 0.0649 0.4311
C20 C 0.4054(4) 0.4086(3) 0.18520(12)
H17 H 0.3725 0.3933 0.1470
C21 C 0.3939(4) 0.2836(3) 0.21790(11)
H18 H 0.3531 0.1858 0.2021
C22 C 0.4420(3) 0.3016(3) 0.27388(10)
C23 C 0.4963(3) 0.4491(3) 0.29406(11)
H19 H 0.5283 0.4684 0.3321
C24 C 0.5035(4) 0.5670(3) 0.25863(12)
H20 H 0.5413 0.6665 0.2734
N3 N 0.0697(3) 0.6448(2) -0.03704(8)
C25 C 0.1811(3) 0.7037(3) 0.00517(11)
H21 H 0.1429 0.7864 0.0259
C26 C 0.3494(3) 0.6513(3) 0.02063(11)
H22 H 0.4239 0.6991 0.0509
C27 C 0.4097(3) 0.5293(2) -0.00787(9)
C28 C 0.2932(3) 0.4672(3) -0.05184(10)
H23 H 0.3271 0.3839 -0.0732
C29 C 0.1282(3) 0.5274(3) -0.06432(11)
H24 H 0.0508 0.4822 -0.0944
N3A N 0.9303(3) 0.3552(2) 0.03704(8)
C25A C 0.8189(3) 0.2963(3) -0.00517(11)
H21A H 0.8571 0.2136 -0.0259
C26A C 0.6506(3) 0.3487(3) -0.02063(11)
H22A H 0.5761 0.3009 -0.0509
C27A C 0.5903(3) 0.4707(2) 0.00787(9)
C28A C 0.7068(3) 0.5328(3) 0.05184(10)
H23A H 0.6729 0.6161 0.0732
C29A C 0.8718(3) 0.4726(3) 0.06432(11)
H24A H 0.9492 0.5178 0.0944
C30 C 0.9368(4) 0.4858(4) 0.22564(16)
H25 H 0.9287 0.5652 0.2003
C31 C 0.8682(4) 0.3418(4) 0.20993(13)
H26 H 0.8144 0.3217 0.1735
C32 C 0.8758(3) 0.2228(3) 0.24687(11)
C33 C 0.8013(4) 0.0707(3) 0.23187(12)
H27 H 0.7438 0.0499 0.1958
C34 C 0.8105(4) -0.0422(3) 0.26704(12)
H28 H 0.7613 -0.1415 0.2551
C35 C 0.8931(3) -0.0178(3) 0.32265(11)
C36 C 0.9018(4) -0.1337(4) 0.36042(13)
H29 H 0.8514 -0.2335 0.3499
C37 C 0.9841(4) -0.1031(5) 0.41319(15)
H30 H 0.9879 -0.1819 0.4388
C38 C 1.0602(4) 0.0402(5) 0.42883(13)
H31 H 1.1179 0.0578 0.4650
C39 C 1.0549(4) 0.1612(4) 0.39288(12)
C40 C 1.1318(4) 0.3156(5) 0.40686(14)
H32 H 1.1929 0.3374 0.4424
C41 C 1.1188(4) 0.4286(4) 0.37094(15)
H33 H 1.1691 0.5282 0.3820
C42 C 1.0319(4) 0.4018(3) 0.31711(13)
C43 C 0.9588(3) 0.2523(3) 0.30139(11)
C44 C 0.9683(3) 0.1311(3) 0.33902(11)
C45 C 1.0178(4) 0.5167(3) 0.27814(16)
H34 H 1.0652 0.6176 0.2884
O1? O 0.4079(6) 0.3313(5) 0.57430(17)
O2? O 0.3542(5) 0.7449(4) 0.45913(16)
C1? C 0.4760(14) 0.4119(8) 0.5349(3)
C2? C 0.3818(9) 0.5380(7) 0.5155(3)
C3? C 0.4553(13) 0.6239(9) 0.4756(3)
C4? C 0.6112(10) 0.5875(9) 0.4524(3)
C5? C 0.7000(14) 0.4577(8) 0.4713(3)
C6? C 0.6310(10) 0.3721(8) 0.5120(3)
C7? C 0.2072(10) 0.5744(8) 0.5370(3)
H1? H 0.512(9) 0.236(8) 0.581(3)
H2? H 0.203(9) 0.526(8) 0.568(3)
H3? H 0.107(11) 0.517(9) 0.519(3)
H4? H 0.213(9) 0.666(8) 0.548(3)
loop_
_geom_bond_atom_site_label_1
_geom_bond_atom_site_label_2
_geom_bond_site_symmetry_1
_geom_bond_site_symmetry_2
O3 C8 1_555 1_555
O4 C10 1_555 1_555
C8 C9 1_555 1_555
C9 C10 1_555 1_555
C10 C11 1_555 1_555
C11 H5 1_555 1_555
C12 C11 1_555 1_555
H6 C12 1_555 1_555
C13 C8 1_555 1_555
H7 C13 1_555 1_555
C14 C9 1_555 1_555
H8 C14 1_555 1_555
H9 C14 1_555 1_555
H10 C14 1_555 1_555
H11 O3 1_555 1_555
H12 O4 1_555 1_555
N1 C15 1_555 1_555
N2 C20 1_555 1_555
C15 H13 1_555 1_555
C16 C15 1_555 1_555
H14 C16 1_555 1_555
C17 C16 1_555 1_555
C18 C17 1_555 1_555
H15 C18 1_555 1_555
C19 N1 1_555 1_555
H16 C19 1_555 1_555
C20 H17 1_555 1_555
C21 C20 1_555 1_555
H18 C21 1_555 1_555
C22 C17 1_555 1_555
C23 C22 1_555 1_555
H19 C23 1_555 1_555
C24 N2 1_555 1_555
H20 C24 1_555 1_555
N3 C25 1_555 1_555
C25 H21 1_555 1_555
C26 C25 1_555 1_555
H22 C26 1_555 1_555
C27 C26 1_555 1_555
C28 C27 1_555 1_555
H23 C28 1_555 1_555
C29 N3 1_555 1_555
H24 C29 1_555 1_555
C30 H25 1_555 1_555
C31 C30 1_555 1_555
H26 C31 1_555 1_555
C32 C31 1_555 1_555
C33 C32 1_555 1_555
H27 C33 1_555 1_555
C34 C33 1_555 1_555
H28 C34 1_555 1_555
C35 C34 1_555 1_555
C36 C35 1_555 1_555
H29 C36 1_555 1_555
C37 C36 1_555 1_555
H30 C37 1_555 1_555
C38 C37 1_555 1_555
H31 C38 1_555 1_555
C39 C38 1_555 1_555
C40 C39 1_555 1_555
H32 C40 1_555 1_555
C41 C40 1_555 1_555
H33 C41 1_555 1_555
C42 C41 1_555 1_555
C43 C32 1_555 1_555
C44 C35 1_555 1_555
C45 C30 1_555 1_555
H34 C45 1_555 1_555
N3A C25A 1_555 1_555
C25A H21A 1_555 1_555
C26A C25A 1_555 1_555
H22A C26A 1_555 1_555
C27A C27 1_555 1_555
C28A C27A 1_555 1_555
H23A C28A 1_555 1_555
C29A N3A 1_555 1_555
H24A C29A 1_555 1_555
C12 C13 1_555 1_555
C18 C19 1_555 1_555
C21 C22 1_555 1_555
C23 C24 1_555 1_555
C28 C29 1_555 1_555
C39 C44 1_555 1_555
C42 C43 1_555 1_555
C42 C45 1_555 1_555
C43 C44 1_555 1_555
C26A C27A 1_555 1_555
C28A C29A 1_555 1_555

#END
