
#######################################################################
#
#                 Cambridge Crystallographic Data Centre
#                                CCDC 
#
#######################################################################
#
# If this CIF has been generated from an entry in the Cambridge 
# Structural Database, then it will include bibliographic, chemical, 
# crystal, experimental, refinement or atomic coordinate data resulting 
# from the CCDC's data processing and validation procedures.
#
#######################################################################

data_UBUKAF
_chemical_name_common            
"5-Methylresorcinol 4,4'-bipyridine hemikis(anthracene)"
_chemical_formula_moiety         'C7 H8 O2,C10 H8 N2,0.5(C14 H10)'
_chemical_name_systematic        
"5-Methylbenzene-1,3-diol 4,4'-bipyridine hemikis(anthracene)"
_symmetry_cell_setting           triclinic
_symmetry_space_group_name_H-M   'P -1'
_symmetry_Int_Tables_number      2
_space_group_name_Hall           '-P 1'
loop_
_symmetry_equiv_pos_site_id
_symmetry_equiv_pos_as_xyz
1 x,y,z
2 -x,-y,-z
_cell_length_a                   9.2102(9)
_cell_length_b                   10.4824(11)
_cell_length_c                   11.2645(11)
_cell_angle_alpha                68.340(5)
_cell_angle_beta                 88.208(6)
_cell_angle_gamma                70.827(5)
_cell_volume                     949.652
_exptl_crystal_colour            yellow
_exptl_crystal_description       block
_cell_formula_units_Z            2
loop_
_atom_site_label
_atom_site_type_symbol
_atom_site_fract_x
_atom_site_fract_y
_atom_site_fract_z
C1 C 0.94491(16) 0.88561(15) 0.51528(13)
H14 H 0.471(2) 1.226(2) 0.3615(18)
H15 H 1.435(2) 0.575(2) 0.6643(17)
H16 H 1.171(2) 0.628(2) 0.6074(17)
H17 H 0.646(2) 0.9835(19) 0.4405(16)
H18 H 0.9059(18) 0.8068(18) 0.5241(15)
C19 C 0.84283(15) 1.02897(15) 0.46542(12)
C20 C 0.68288(17) 1.06435(18) 0.42977(15)
C21 C 1.10065(15) 0.85309(15) 0.55024(12)
C22 C 1.20778(18) 0.70705(16) 0.59958(14)
C23 C 0.58571(18) 1.20427(18) 0.38449(16)
C24 C 1.35894(19) 0.67993(18) 0.63023(16)
C1A C 1.05509(16) 1.11439(15) 0.48472(13)
H14A H 1.529(2) 0.774(2) 0.6385(18)
H15A H 0.565(2) 1.425(2) 0.3357(17)
H16A H 0.829(2) 1.372(2) 0.3926(17)
H17A H 1.354(2) 1.0165(19) 0.5595(16)
H18A H 1.0941(18) 1.1932(18) 0.4759(15)
C19A C 1.15717(15) 0.97103(15) 0.53458(12)
C20A C 1.31712(17) 0.93565(18) 0.57023(15)
C21A C 0.89935(15) 1.14691(15) 0.44976(12)
C22A C 0.79222(18) 1.29295(16) 0.40042(14)
C23A C 1.41429(18) 0.79573(18) 0.61551(16)
C24A C 0.64106(19) 1.32007(18) 0.36977(16)
H1 H 0.9921(19) 0.4841(18) 0.9052(16)
H2 H 1.4136(18) 0.2647(17) 0.8257(15)
H3 H 1.0234(17) 0.3797(17) 0.5859(15)
H4 H 1.384(3) 0.323(2) 1.000(2)
H5 H 1.415(3) 0.197(2) 0.653(2)
C2 C 1.21262(14) 0.37581(13) 0.88025(12)
C4 C 1.30186(14) 0.31026(13) 0.80293(12)
C5 C 1.07113(15) 0.37759(14) 0.66493(13)
C6 C 0.98251(14) 0.44279(14) 0.74268(13)
C8 C 1.05315(15) 0.44145(15) 0.85079(13)
C9 C 1.23092(14) 0.31116(14) 0.69506(12)
C18 C 0.80938(16) 0.51465(18) 0.71166(16)
H19 H 0.7822 0.5419 0.6201
H20 H 0.7751 0.6023 0.7322
H21 H 0.7586 0.4463 0.7625
O1 O 1.27755(11) 0.37868(11) 0.98615(9)
O2 O 1.31270(11) 0.24905(11) 0.61605(10)
H6 H 0.655(2) 0.284(2) 0.6723(17)
H7 H 0.915(2) 0.1827(19) 0.7490(16)
H8 H 0.8719(19) -0.2197(19) 0.8671(16)
H9 H 0.612(2) -0.1038(19) 0.7841(16)
H10 H 1.127(2) 0.084(2) 0.8795(16)
H11 H 1.391(2) -0.0319(19) 0.9560(17)
H12 H 1.3832(19) -0.4066(19) 0.9514(16)
H13 H 1.1231(19) -0.3064(18) 0.8773(15)
C3 C 1.09311(14) -0.09804(14) 0.86859(11)
C7 C 0.92728(14) -0.02975(14) 0.81778(12)
C10 C 0.68036(16) -0.04522(17) 0.77804(14)
C11 C 0.85813(16) 0.12078(15) 0.75817(14)
C12 C 0.83421(15) -0.11363(16) 0.82711(14)
C13 C 1.17570(16) -0.01872(15) 0.89316(13)
C14 C 0.70336(16) 0.17962(16) 0.71234(14)
C15 C 1.33034(16) -0.08685(16) 0.93779(14)
C16 C 1.17302(16) -0.24408(16) 0.89292(15)
C17 C 1.32809(17) -0.30297(17) 0.93799(16)
N1 N 0.61395(13) 0.09949(14) 0.72126(11)
N2 N 1.40842(13) -0.22725(14) 0.96054(12)
loop_
_geom_bond_atom_site_label_1
_geom_bond_atom_site_label_2
_geom_bond_site_symmetry_1
_geom_bond_site_symmetry_2
C1 H18 1_555 1_555
H1 C8 1_555 1_555
H2 C4 1_555 1_555
H3 C5 1_555 1_555
H4 O1 1_555 1_555
H5 O2 1_555 1_555
H6 C14 1_555 1_555
H7 C11 1_555 1_555
H8 C12 1_555 1_555
H9 C10 1_555 1_555
H10 C13 1_555 1_555
H11 C15 1_555 1_555
H12 C17 1_555 1_555
H13 C16 1_555 1_555
H14 C23 1_555 1_555
H15 C24 1_555 1_555
H16 C22 1_555 1_555
H17 C20 1_555 1_555
C2 C4 1_555 1_555
C3 C7 1_555 1_555
C4 C9 1_555 1_555
C5 C6 1_555 1_555
C6 C8 1_555 1_555
C7 C11 1_555 1_555
C8 C2 1_555 1_555
C9 C5 1_555 1_555
C10 C12 1_555 1_555
C11 C14 1_555 1_555
C12 C7 1_555 1_555
C13 C3 1_555 1_555
C14 N1 1_555 1_555
C15 C13 1_555 1_555
C16 C3 1_555 1_555
C17 C16 1_555 1_555
C18 C6 1_555 1_555
H19 C18 1_555 1_555
H20 C18 1_555 1_555
H21 C18 1_555 1_555
N1 C10 1_555 1_555
N2 C15 1_555 1_555
O1 C2 1_555 1_555
O2 C9 1_555 1_555
C19 C1 1_555 1_555
C20 C19 1_555 1_555
C21 C1 1_555 1_555
C22 C21 1_555 1_555
C23 C20 1_555 1_555
C24 C22 1_555 1_555
C1A H18A 1_555 1_555
H14A C23A 1_555 1_555
H15A C24A 1_555 1_555
H16A C22A 1_555 1_555
H17A C20A 1_555 1_555
C19A C21 1_555 1_555
C20A C19A 1_555 1_555
C21A C19 1_555 1_555
C22A C21A 1_555 1_555
C23A C24 1_555 1_555
C24A C23 1_555 1_555
C17 N2 1_555 1_555
C1A C19A 1_555 1_555
C1A C21A 1_555 1_555
C20A C23A 1_555 1_555
C22A C24A 1_555 1_555

#END
