
#######################################################################
#
#                 Cambridge Crystallographic Data Centre
#                                CCDC 
#
#######################################################################
#
# If this CIF has been generated from an entry in the Cambridge 
# Structural Database, then it will include bibliographic, chemical, 
# crystal, experimental, refinement or atomic coordinate data resulting 
# from the CCDC's data processing and validation procedures.
#
#######################################################################

data_UBUKOT
_chemical_name_common            
"5-Methylresorcinol 4,4'-bipyridine hemikis(2,2'-bithiophene)"
_chemical_formula_moiety         'C7 H8 O2,C10 H8 N2,0.5(C8 H6 S2)'
_chemical_name_systematic        
"5-Methylbenzene-1,3-diol 4,4'-bipyridine hemikis(2,2'-bithiophene)"
_symmetry_cell_setting           monoclinic
_symmetry_space_group_name_H-M   'P 21/c'
_symmetry_Int_Tables_number      14
_space_group_name_Hall           '-P 2ybc'
loop_
_symmetry_equiv_pos_site_id
_symmetry_equiv_pos_as_xyz
1 x,y,z
2 -x,1/2+y,1/2-z
3 -x,-y,-z
4 x,1/2-y,1/2+z
_cell_length_a                   9.3357(12)
_cell_length_b                   12.3050(14)
_cell_length_c                   17.910(2)
_cell_angle_alpha                90
_cell_angle_beta                 116.558(7)
_cell_angle_gamma                90
_cell_volume                     1840.33
_exptl_crystal_colour            colorless
_exptl_crystal_description       needle
_cell_formula_units_Z            4
loop_
_atom_site_label
_atom_site_type_symbol
_atom_site_fract_x
_atom_site_fract_y
_atom_site_fract_z
N1 N 0.5903(2) 0.57625(15) 0.37805(11)
N2 N 1.3880(2) 0.77528(15) 0.56838(12)
C1 C 1.1752(2) 0.68406(18) 0.45392(13)
H1 H 1.1386 0.6499 0.4010
C2 C 0.9088(2) 0.65030(15) 0.45312(11)
C3 C 0.8208(2) 0.64425(18) 0.36662(12)
H2 H 0.8677 0.6654 0.3315
C4 C 1.0744(2) 0.69314(16) 0.49256(12)
C5 C 1.1349(2) 0.74601(17) 0.56950(12)
H3 H 1.0703 0.7550 0.5977
C6 C 0.6646(2) 0.60711(19) 0.33249(13)
H4 H 0.6066 0.6032 0.2734
C7 C 1.3289(2) 0.72554(19) 0.49397(14)
H5 H 1.3964 0.7184 0.4672
C8 C 0.6766(2) 0.58011(18) 0.46112(13)
H6 H 0.6269 0.5571 0.4946
C9 C 0.8332(2) 0.61550(17) 0.50116(12)
H7 H 0.8889 0.6163 0.5604
C10 C 1.2901(2) 0.78518(18) 0.60428(14)
H8 H 1.3293 0.8212 0.6566
S1 S 0.81815(7) 0.96780(6) 0.54219(4)
C11 C 0.9187(2) 0.97849(16) 0.48207(12)
C12 C 0.8257(2) 0.94029(18) 0.39959(13)
H9 H 0.8596 0.9375 0.3569
C13 C 0.6520(3) 0.9165(2) 0.46141(16)
H10 H 0.5569 0.8973 0.4651
C14 C 0.6713(3) 0.9063(2) 0.39092(15)
H11 H 0.5896 0.8791 0.3401
S1B S 1.18185(7) 1.03220(6) 0.45781(4)
C11B C 1.0813(2) 1.02151(16) 0.51793(12)
C12B C 1.1743(2) 1.05971(18) 0.60041(13)
H9B H 1.1404 1.0625 0.6431
C13B C 1.3480(3) 1.0835(2) 0.53859(16)
H10B H 1.4431 1.1027 0.5349
C14B C 1.3287(3) 1.0937(2) 0.60908(15)
H11B H 1.4104 1.1209 0.6599
O1 O 0.70898(16) 0.81788(11) 0.65992(9)
H12 H 0.6105 0.8050 0.6333
O2 O 0.73675(16) 0.42834(11) 0.69229(9)
H13 H 0.6366 0.4348 0.6685
C15 C 0.7148(2) 0.62266(15) 0.67375(11)
H14 H 0.6014 0.6194 0.6511
C16 C 0.9722(2) 0.53227(15) 0.73251(11)
H15 H 1.0334 0.4673 0.7489
C17 C 0.9584(2) 0.72731(15) 0.71692(11)
H16 H 1.0103 0.7955 0.7232
C18 C 0.8056(2) 0.52782(15) 0.69873(11)
C19 C 0.7914(2) 0.72205(14) 0.68230(11)
C20 C 1.0485(2) 0.63223(15) 0.74214(11)
C21 C 1.2293(2) 0.63646(18) 0.77928(14)
H17 H 1.2659 0.7110 0.7966
H18 H 1.2634 0.6129 0.7374
H19 H 1.2758 0.5881 0.8278
loop_
_geom_bond_atom_site_label_1
_geom_bond_atom_site_label_2
_geom_bond_site_symmetry_1
_geom_bond_site_symmetry_2
N1 C6 1_555 1_555
N2 C7 1_555 1_555
C1 H1 1_555 1_555
C2 C3 1_555 1_555
C3 H2 1_555 1_555
C4 C1 1_555 1_555
C5 C4 1_555 1_555
H3 C5 1_555 1_555
C6 C3 1_555 1_555
H4 C6 1_555 1_555
C7 C1 1_555 1_555
H5 C7 1_555 1_555
C8 N1 1_555 1_555
H6 C8 1_555 1_555
C9 C2 1_555 1_555
H7 C9 1_555 1_555
C10 N2 1_555 1_555
H8 C10 1_555 1_555
S1 C11 1_555 1_555
C11 C12 1_555 1_555
C12 H9 1_555 1_555
C13 S1 1_555 1_555
H10 C13 1_555 1_555
C14 C12 1_555 1_555
H11 C14 1_555 1_555
O1 H12 1_555 1_555
O2 H13 1_555 1_555
C15 H14 1_555 1_555
C16 H15 1_555 1_555
C17 H16 1_555 1_555
C18 O2 1_555 1_555
C19 O1 1_555 1_555
C20 C16 1_555 1_555
C21 C20 1_555 1_555
H17 C21 1_555 1_555
H18 C21 1_555 1_555
H19 C21 1_555 1_555
S1B C11B 1_555 1_555
C11B C11 1_555 1_555
C12B C11B 1_555 1_555
H9B C12B 1_555 1_555
C13B S1B 1_555 1_555
H10B C13B 1_555 1_555
C14B C12B 1_555 1_555
H11B C14B 1_555 1_555
C2 C4 1_555 1_555
C5 C10 1_555 1_555
C8 C9 1_555 1_555
C13 C14 1_555 1_555
C15 C18 1_555 1_555
C15 C19 1_555 1_555
C16 C18 1_555 1_555
C17 C19 1_555 1_555
C17 C20 1_555 1_555
C13B C14B 1_555 1_555

#END
