
#######################################################################
#
#                 Cambridge Crystallographic Data Centre
#                                CCDC 
#
#######################################################################
#
# If this CIF has been generated from an entry in the Cambridge 
# Structural Database, then it will include bibliographic, chemical, 
# crystal, experimental, refinement or atomic coordinate data resulting 
# from the CCDC's data processing and validation procedures.
#
#######################################################################

data_UBUKEJ
_chemical_name_common            
"5-Methylresorcinol 4,4'-bipyridine hemikis(phenazine)"
_chemical_formula_moiety         'C7 H8 O2,C10 H8 N2,0.5(C12 H8 N2)'
_chemical_name_systematic        
"5-Methylbenzene-1,3-diol 4,4'-bipyridine hemikis(phenazine)"
_symmetry_cell_setting           triclinic
_symmetry_space_group_name_H-M   'P -1'
_symmetry_Int_Tables_number      2
_space_group_name_Hall           '-P 1'
loop_
_symmetry_equiv_pos_site_id
_symmetry_equiv_pos_as_xyz
1 x,y,z
2 -x,-y,-z
_cell_length_a                   9.4283(10)
_cell_length_b                   10.1821(10)
_cell_length_c                   11.1549(11)
_cell_angle_alpha                69.876(5)
_cell_angle_beta                 86.613(6)
_cell_angle_gamma                69.427(5)
_cell_volume                     939.037
_exptl_crystal_colour            yellow
_exptl_crystal_description       block
_cell_formula_units_Z            2
loop_
_atom_site_label
_atom_site_type_symbol
_atom_site_fract_x
_atom_site_fract_y
_atom_site_fract_z
H1 H 0.422(2) 0.7687(19) -0.1666(15)
H2 H -0.0139(19) 0.9935(19) -0.0996(16)
H3 H 0.066(2) 0.872(2) -0.4196(18)
H5 H -0.194(2) 0.989(2) -0.369(2)
H9 H 0.451(3) 0.697(3) -0.341(2)
H11 H 0.362(3) 0.831(2) 0.013(2)
H15 H -0.227(2) 1.015(2) -0.237(2)
H17 H -0.188(3) 1.130(3) -0.354(2)
O1 O 0.26107(13) 0.88096(13) -0.00421(11)
O2 O 0.35270(13) 0.74656(14) -0.38181(11)
C1 C 0.31343(16) 0.81215(16) -0.19216(15)
C2 C 0.10297(16) 0.87564(16) -0.34135(15)
C4 C 0.21244(16) 0.87839(16) -0.11611(14)
C5 C 0.00320(16) 0.94486(16) -0.26602(15)
C6 C 0.05736(17) 0.94511(16) -0.15259(15)
C8 C 0.25842(16) 0.81046(16) -0.30442(15)
C9 C -0.16415(18) 1.0238(2) -0.30779(19)
H4 H 0.654(2) 0.393(2) -0.2252(19)
H6 H 1.152(2) 0.590(2) -0.133(2)
H7 H 0.905(2) 0.278(2) -0.1473(19)
H8 H 1.410(2) 0.475(2) -0.0689(19)
H12 H 0.673(2) 0.791(2) -0.2925(19)
H16 H 0.927(2) 0.694(2) -0.2237(19)
H18 H 1.146(3) 0.188(3) -0.114(2)
H20 H 1.400(3) 0.086(3) -0.052(2)
N1 N 0.64318(14) 0.60029(16) -0.26526(14)
C3 C 1.11484(17) 0.40147(17) -0.13109(14)
C7 C 0.95106(16) 0.47001(17) -0.17579(14)
N2 N 1.42721(15) 0.27017(16) -0.05409(15)
C10 C 1.19824(18) 0.48460(19) -0.11818(16)
C11 C 1.35148(19) 0.4154(2) -0.08023(17)
C12 C 0.71439(19) 0.4529(2) -0.22215(18)
C13 C 0.86556(18) 0.38395(19) -0.17675(17)
C14 C 0.72495(19) 0.6828(2) -0.26315(19)
C15 C 0.87668(19) 0.62423(19) -0.21987(18)
C16 C 1.1930(2) 0.2505(2) -0.1041(2)
C17 C 1.3460(2) 0.1918(2) -0.0672(3)
H10 H 0.319(2) 0.549(3) 0.555(2)
H13 H 0.508(2) 0.308(2) 0.620(2)
H14 H 0.183(2) 0.128(3) 0.591(2)
H19 H 0.446(2) 0.096(3) 0.636(2)
N3 N 0.04105(16) 0.62571(16) 0.48820(14)
C18 C 0.2966(2) 0.4608(2) 0.56199(17)
C19 C 0.14317(19) 0.48565(19) 0.52936(15)
C20 C 0.10177(19) 0.35939(19) 0.54074(15)
C21 C 0.2157(2) 0.2140(2) 0.58361(19)
C22 C 0.4016(2) 0.3212(2) 0.60060(19)
C23 C 0.3607(2) 0.1966(2) 0.6112(2)
H10A H -0.319(2) 0.451(3) 0.445(2)
H13A H -0.508(2) 0.692(2) 0.380(2)
H14A H -0.183(2) 0.872(3) 0.409(2)
H19A H -0.446(2) 0.904(3) 0.364(2)
N3A N -0.04105(16) 0.37429(16) 0.51180(14)
C18A C -0.2966(2) 0.5392(2) 0.43801(17)
C19A C -0.14317(19) 0.51435(19) 0.47064(15)
C20A C -0.10177(19) 0.64061(19) 0.45926(15)
C21A C -0.2157(2) 0.7860(2) 0.41639(19)
C22A C -0.4016(2) 0.6788(2) 0.39940(19)
C23A C -0.3607(2) 0.8034(2) 0.3888(2)
loop_
_geom_bond_atom_site_label_1
_geom_bond_atom_site_label_2
_geom_bond_site_symmetry_1
_geom_bond_site_symmetry_2
H1 C1 1_555 1_555
H2 C6 1_555 1_555
H3 C2 1_555 1_555
H4 C12 1_555 1_555
H5 C9 1_555 1_555
H6 C10 1_555 1_555
H7 C13 1_555 1_555
H8 C11 1_555 1_555
H9 O2 1_555 1_555
H10 C18 1_555 1_555
H11 O1 1_555 1_555
H12 C14 1_555 1_555
H13 C22 1_555 1_555
H14 C21 1_555 1_555
H15 C9 1_555 1_555
H16 C15 1_555 1_555
H17 C9 1_555 1_555
H18 C16 1_555 1_555
H19 C23 1_555 1_555
H20 C17 1_555 1_555
O1 C4 1_555 1_555
O2 C8 1_555 1_555
C1 C4 1_555 1_555
N1 C12 1_555 1_555
C2 C5 1_555 1_555
C3 C7 1_555 1_555
C4 C6 1_555 1_555
C5 C6 1_555 1_555
C7 C13 1_555 1_555
N2 C11 1_555 1_555
C8 C1 1_555 1_555
C9 C5 1_555 1_555
C10 C3 1_555 1_555
C11 C10 1_555 1_555
C12 C13 1_555 1_555
C14 N1 1_555 1_555
C15 C7 1_555 1_555
C16 C3 1_555 1_555
C17 N2 1_555 1_555
N3 C19 1_555 1_555
C18 C19 1_555 1_555
C19 C20 1_555 1_555
C20 C21 1_555 1_555
C21 C23 1_555 1_555
C22 C18 1_555 1_555
C23 C22 1_555 1_555
H10A C18A 1_555 1_555
H13A C22A 1_555 1_555
H14A C21A 1_555 1_555
H19A C23A 1_555 1_555
N3A C20 1_555 1_555
C18A C19A 1_555 1_555
C19A N3A 1_555 1_555
C20A N3 1_555 1_555
C21A C20A 1_555 1_555
C22A C18A 1_555 1_555
C23A C21A 1_555 1_555
C2 C8 1_555 1_555
C14 C15 1_555 1_555
C16 C17 1_555 1_555
C19A C20A 1_555 1_555
C22A C23A 1_555 1_555

#END
