
#######################################################################
#
#                 Cambridge Crystallographic Data Centre
#                                CCDC 
#
#######################################################################
#
# If this CIF has been generated from an entry in the Cambridge 
# Structural Database, then it will include bibliographic, chemical, 
# crystal, experimental, refinement or atomic coordinate data resulting 
# from the CCDC's data processing and validation procedures.
#
#######################################################################

data_UBUKUZ
_chemical_name_common            
"bis(2-Methylresorcinol) 4,4'-bipyridine biphenyl"
_chemical_formula_moiety         '2(C7 H8 O2),C10 H8 N2,C12 H10'
_chemical_name_systematic        
"bis(2-Methylbenzene-1,3-diol) 4,4'-bipyridine biphenyl"
_symmetry_cell_setting           monoclinic
_symmetry_space_group_name_H-M   'P 21'
_symmetry_Int_Tables_number      4
_space_group_name_Hall           'P 2yb'
loop_
_symmetry_equiv_pos_site_id
_symmetry_equiv_pos_as_xyz
1 x,y,z
2 -x,1/2+y,-z
_cell_length_a                   7.737(4)
_cell_length_b                   19.791(10)
_cell_length_c                   9.508(5)
_cell_angle_alpha                90
_cell_angle_beta                 95.170(7)
_cell_angle_gamma                90
_cell_volume                     1449.97
_exptl_crystal_colour            colorless
_exptl_crystal_description       block
_cell_formula_units_Z            2
loop_
_atom_site_label
_atom_site_type_symbol
_atom_site_fract_x
_atom_site_fract_y
_atom_site_fract_z
C1 C 0.3220(3) 0.43468(12) 0.0830(2)
C2 C 0.4874(3) 0.42550(12) 0.0389(3)
C3 C 0.5036(3) 0.39541(13) -0.0901(3)
C4 C 0.3585(3) 0.37413(13) -0.1754(3)
C5 C 0.1721(3) 0.41331(12) 0.0029(2)
C6 C 0.1947(3) 0.38303(11) -0.1285(2)
C35 C -0.0050(3) 0.42068(13) 0.0539(2)
H15 H 0.0062 0.4279 0.1563
H16 H -0.0724 0.3795 0.0317
H17 H -0.0644 0.4594 0.0070
O1 O 0.0470(2) 0.36328(9) -0.20908(17)
H21 H 0.0745 0.3427 -0.2811
O3 O 0.2984(2) 0.46543(10) 0.20961(18)
H22 H 0.359(4) 0.3562(17) -0.268(3)
H23 H 0.588(4) 0.4430(15) 0.101(3)
H27 H 0.612(4) 0.3908(15) -0.125(3)
H33 H 0.393(5) 0.4741(19) 0.245(4)
C7 C 0.6799(3) 0.50828(12) 0.5000(2)
C8 C 0.7066(3) 0.53927(11) 0.3712(2)
C9 C 0.8729(3) 0.54999(12) 0.3304(2)
C10 C 1.0151(3) 0.53051(13) 0.4205(3)
C11 C 0.9939(3) 0.49933(12) 0.5483(2)
C12 C 0.8263(3) 0.48738(12) 0.5860(2)
C36 C 0.5003(3) 0.49505(13) 0.5432(3)
H18 H 0.4227 0.5318 0.5090
H19 H 0.5045 0.4926 0.6464
H20 H 0.4570 0.4522 0.5023
O2 O 0.7974(2) 0.45607(10) 0.70940(18)
O4 O 0.5615(2) 0.55729(9) 0.28526(17)
H24 H 0.890(4) 0.5717(15) 0.242(3)
H28 H 1.128(4) 0.5424(16) 0.397(3)
H29 H 0.591(5) 0.584(2) 0.201(4)
H32 H 1.100(3) 0.4885(14) 0.619(3)
H34 H 0.890(4) 0.4231(17) 0.735(3)
C13 C 0.7057(3) 0.22512(13) 0.3050(3)
C14 C 0.7492(3) 0.19582(15) 0.1695(3)
C15 C 0.7404(4) 0.2362(2) 0.0468(3)
H1 H 0.7047 0.2819 0.0553
C16 C 0.7789(6) 0.2152(3) -0.0814(4)
H2 H 0.7733 0.2453 -0.1595
C17 C 0.8232(5) 0.1534(3) -0.0946(5)
H3 H 0.8483 0.1391 -0.1860
C18 C 0.8377(4) 0.1059(2) 0.0111(6)
H4 H 0.8691 0.0604 -0.0060
C19 C 0.8013(4) 0.12988(19) 0.1551(5)
H5 H 0.8138 0.1004 0.2341
C20 C 0.6449(4) 0.1849(2) 0.4083(3)
H6 H 0.6282 0.1379 0.3923
C21 C 0.6078(5) 0.2135(5) 0.5363(4)
H7 H 0.5663 0.1852 0.6068
C22 C 0.6299(6) 0.2821(6) 0.5638(6)
H8 H 0.6045 0.3011 0.6513
C23 C 0.6888(5) 0.3203(3) 0.4613(6)
H9 H 0.7036 0.3674 0.4777
C24 C 0.7293(4) 0.29398(17) 0.3316(4)
H10 H 0.7723 0.3226 0.2626
C25 C 0.3429(3) 0.09317(13) 0.0664(3)
H11 H 0.3727 0.0466 0.0716
C26 C 0.2942(3) 0.12419(13) 0.1868(3)
H12 H 0.2905 0.0991 0.2717
C27 C 0.2505(3) 0.19254(12) 0.1829(2)
C28 C 0.2588(4) 0.22542(13) 0.0550(2)
H13 H 0.2305 0.2720 0.0465
C29 C 0.3084(4) 0.19021(14) -0.0601(3)
H14 H 0.3129 0.2138 -0.1467
C30 C 0.2018(3) 0.22815(11) 0.3120(2)
C31 C 0.2248(3) 0.29797(13) 0.3268(3)
C32 C 0.1811(3) 0.32955(13) 0.4484(3)
C33 C 0.0970(3) 0.22908(13) 0.5418(2)
C34 C 0.1354(3) 0.19340(12) 0.4221(2)
N1 N 0.1190(3) 0.29587(11) 0.5563(2)
N2 N 0.3504(3) 0.12478(12) -0.0565(2)
H25 H 0.260(4) 0.3291(14) 0.256(3)
H26 H 0.205(4) 0.3786(16) 0.458(3)
H30 H 0.041(3) 0.2083(13) 0.619(3)
H31 H 0.125(4) 0.1425(15) 0.420(3)
loop_
_geom_bond_atom_site_label_1
_geom_bond_atom_site_label_2
_geom_bond_site_symmetry_1
_geom_bond_site_symmetry_2
C1 C2 1_555 1_555
C2 C3 1_555 1_555
C3 C4 1_555 1_555
C4 C6 1_555 1_555
C5 C1 1_555 1_555
C6 C5 1_555 1_555
C7 C8 1_555 1_555
C8 C9 1_555 1_555
C9 C10 1_555 1_555
C10 C11 1_555 1_555
C11 C12 1_555 1_555
C12 C7 1_555 1_555
C13 C14 1_555 1_555
C14 C15 1_555 1_555
C15 H1 1_555 1_555
C16 C15 1_555 1_555
H2 C16 1_555 1_555
C17 C16 1_555 1_555
H3 C17 1_555 1_555
C18 C17 1_555 1_555
H4 C18 1_555 1_555
C19 C14 1_555 1_555
H5 C19 1_555 1_555
C20 C13 1_555 1_555
H6 C20 1_555 1_555
C21 C20 1_555 1_555
H7 C21 1_555 1_555
C22 C21 1_555 1_555
H8 C22 1_555 1_555
C23 C22 1_555 1_555
H9 C23 1_555 1_555
C24 C13 1_555 1_555
H10 C24 1_555 1_555
C25 H11 1_555 1_555
C26 C25 1_555 1_555
H12 C26 1_555 1_555
C27 C26 1_555 1_555
C28 C27 1_555 1_555
H13 C28 1_555 1_555
C29 C28 1_555 1_555
H14 C29 1_555 1_555
C30 C27 1_555 1_555
C31 C30 1_555 1_555
C32 C31 1_555 1_555
C33 C34 1_555 1_555
C34 C30 1_555 1_555
C35 C5 1_555 1_555
H15 C35 1_555 1_555
H16 C35 1_555 1_555
H17 C35 1_555 1_555
C36 C7 1_555 1_555
H18 C36 1_555 1_555
H19 C36 1_555 1_555
H20 C36 1_555 1_555
N1 C32 1_555 1_555
N2 C25 1_555 1_555
O1 C6 1_555 1_555
H21 O1 1_555 1_555
O2 C12 1_555 1_555
O3 C1 1_555 1_555
O4 C8 1_555 1_555
H22 C4 1_555 1_555
H23 C2 1_555 1_555
H24 C9 1_555 1_555
H25 C31 1_555 1_555
H26 C32 1_555 1_555
H27 C3 1_555 1_555
H28 C10 1_555 1_555
H29 O4 1_555 1_555
H30 C33 1_555 1_555
H31 C34 1_555 1_555
H32 C11 1_555 1_555
H33 O3 1_555 1_555
H34 O2 1_555 1_555
C18 C19 1_555 1_555
C23 C24 1_555 1_555
C29 N2 1_555 1_555
C33 N1 1_555 1_555

#END
