
#######################################################################
#
#                 Cambridge Crystallographic Data Centre
#                                CCDC 
#
#######################################################################
#
# If this CIF has been generated from an entry in the Cambridge 
# Structural Database, then it will include bibliographic, chemical, 
# crystal, experimental, refinement or atomic coordinate data resulting 
# from the CCDC's data processing and validation procedures.
#
#######################################################################

data_UBUTAP
_chemical_formula_moiety         'C23 H29 N3 O1'
_chemical_name_systematic        
9-(((4-(diethylamino)phenyl)imino)methyl)-2,3,6,7-tetrahydro-1H,5H-pyrido[3,2,1-ij]quinolin-8-ol
_symmetry_cell_setting           monoclinic
_symmetry_space_group_name_H-M   'P 21/c'
_symmetry_Int_Tables_number      14
_space_group_name_Hall           '-P 2ybc'
loop_
_symmetry_equiv_pos_site_id
_symmetry_equiv_pos_as_xyz
1 x,y,z
2 -x,1/2+y,1/2-z
3 -x,-y,-z
4 x,1/2-y,1/2+z
_cell_length_a                   11.565(2)
_cell_length_b                   8.0504(16)
_cell_length_c                   20.665(4)
_cell_angle_alpha                90
_cell_angle_beta                 97.68(3)
_cell_angle_gamma                90
_cell_volume                     1906.71
_exptl_crystal_colour            colorless
_exptl_crystal_description       block
_cell_formula_units_Z            4
loop_
_atom_site_label
_atom_site_type_symbol
_atom_site_fract_x
_atom_site_fract_y
_atom_site_fract_z
N1 N 0.95181(17) 0.9756(2) 0.12926(9)
C1 C 0.8227(2) 0.9508(3) 0.31028(11)
C2 C 0.9203(2) 1.0455(3) 0.30272(11)
H1 H 0.9582 1.1033 0.3384
C3 C 0.9622(2) 1.0554(3) 0.24346(11)
H2 H 1.0274 1.1207 0.2399
C4 C 0.9085(2) 0.9688(3) 0.18799(11)
C5 C 0.8084(2) 0.8765(3) 0.19602(12)
H3 H 0.7691 0.8196 0.1606
C6 C 0.7677(2) 0.8689(3) 0.25534(12)
H4 H 0.7010 0.8069 0.2589
C7 C 0.8953(2) 0.8891(3) 0.07152(11)
H5 H 0.8613 0.7867 0.0849
H6 H 0.9537 0.8603 0.0438
C8 C 0.8010(2) 0.9924(3) 0.03270(11)
H7 H 0.7665 0.9305 -0.0047
H8 H 0.7422 1.0193 0.0596
H9 H 0.8345 1.0929 0.0185
C9 C 1.0547(2) 1.0715(3) 0.12163(11)
H10 H 1.0537 1.1734 0.1466
H11 H 1.0526 1.1015 0.0760
C10 C 1.1672(2) 0.9792(3) 0.14382(12)
H12 H 1.2325 1.0485 0.1377
H13 H 1.1708 0.9513 0.1892
H14 H 1.1697 0.8794 0.1186
O1 O 0.61126(18) 0.7817(3) 0.42135(9)
H15 H 0.6486 0.8056 0.3916
N2 N 0.5791(6) 0.9127(8) 0.6414(3)
N3 N 0.7705(3) 0.9226(4) 0.36617(15)
C11 C 0.8123(3) 0.9873(3) 0.42118(16)
H16 H 0.8803 1.0502 0.4242
C12 C 0.75428(19) 0.9631(3) 0.47925(8)
C13 C 0.65542(19) 0.8636(2) 0.47575(8)
C14 C 0.59674(17) 0.8471(3) 0.52987(10)
C15 C 0.6369(2) 0.9301(3) 0.58749(8)
C16 C 0.7358(2) 1.0296(3) 0.59099(7)
C17 C 0.79445(17) 1.0461(2) 0.53687(9)
H17 H 0.8606 1.1127 0.5392
C18 C 0.4822(3) 0.8028(4) 0.64386(18)
H18 H 0.4100 0.8642 0.6333
H19 H 0.4845 0.7595 0.6878
C19 C 0.4846(3) 0.6604(4) 0.59677(19)
H20 H 0.4141 0.5946 0.5958
H21 H 0.5511 0.5894 0.6106
C20 C 0.4932(3) 0.7308(4) 0.52849(15)
H22 H 0.5014 0.6401 0.4985
H23 H 0.4221 0.7904 0.5128
C21 C 0.5959(5) 1.0430(7) 0.6951(2)
H24 H 0.5196 1.0810 0.7034
H25 H 0.6333 0.9908 0.7348
C22 C 0.6643(5) 1.1862(8) 0.6814(3)
H26 H 0.6863 1.2493 0.7212
H27 H 0.6186 1.2577 0.6500
C23 C 0.7737(3) 1.1264(5) 0.65402(19)
H28 H 0.8212 1.2208 0.6451
H29 H 0.8197 1.0556 0.6856
O2? O 0.8436(7) 1.0727(9) 0.5042(4)
H30? H 0.8521 1.0552 0.4660
N4? N 0.5787(18) 0.935(3) 0.6525(10)
N5? N 0.8007(11) 0.9666(15) 0.3807(6)
C24? C 0.7106(9) 0.8852(13) 0.4005(5)
H31? H 0.6618 0.8214 0.3709
C25? C 0.6880(9) 0.8961(12) 0.4695(3)
C26? C 0.7477(7) 0.9960(11) 0.5177(5)
C27? C 0.7114(9) 1.0041(14) 0.5791(4)
C28? C 0.6155(9) 0.9122(15) 0.5923(3)
C29? C 0.5559(7) 0.8122(11) 0.5440(4)
C30? C 0.5922(8) 0.8041(10) 0.4826(3)
H32? H 0.5523 0.7372 0.4504
C31? C 0.4874(14) 0.8190(19) 0.6734(7)
H33? H 0.5076 0.7940 0.7195
H34? H 0.4126 0.8753 0.6680
C32? C 0.4757(11) 0.6612(15) 0.6364(6)
H35? H 0.4114 0.5969 0.6490
H36? H 0.5465 0.5963 0.6460
C33? C 0.4527(11) 0.7013(15) 0.5615(7)
H37? H 0.3793 0.7599 0.5513
H38? H 0.4486 0.5992 0.5364
C34? C 0.607(4) 1.042(6) 0.694(2)
H39? H 0.6512 0.9897 0.7323
H40? H 0.5369 1.0892 0.7081
C35? C 0.6852(19) 1.190(3) 0.6675(9)
H41? H 0.6362 1.2647 0.6388
H42? H 0.7251 1.2540 0.7036
C36? C 0.7747(14) 1.100(2) 0.6295(7)
H43? H 0.8229 1.1815 0.6109
H44? H 0.8251 1.0293 0.6588
loop_
_geom_bond_atom_site_label_1
_geom_bond_atom_site_label_2
_geom_bond_site_symmetry_1
_geom_bond_site_symmetry_2
N1 C4 1_555 1_555
C1 C2 1_555 1_555
C2 H1 1_555 1_555
C3 C2 1_555 1_555
H2 C3 1_555 1_555
C4 C3 1_555 1_555
C5 C4 1_555 1_555
H3 C5 1_555 1_555
C6 C1 1_555 1_555
H4 C6 1_555 1_555
C7 N1 1_555 1_555
H5 C7 1_555 1_555
H6 C7 1_555 1_555
C8 C7 1_555 1_555
H7 C8 1_555 1_555
H8 C8 1_555 1_555
H9 C8 1_555 1_555
C9 N1 1_555 1_555
H10 C9 1_555 1_555
H11 C9 1_555 1_555
C10 C9 1_555 1_555
H12 C10 1_555 1_555
H13 C10 1_555 1_555
H14 C10 1_555 1_555
O1 H15 1_555 1_555
N2 C15 1_555 1_555
N3 C1 1_555 1_555
C11 N3 1_555 1_555
H16 C11 1_555 1_555
C12 C11 1_555 1_555
C13 O1 1_555 1_555
C14 C13 1_555 1_555
C15 C14 1_555 1_555
C16 C15 1_555 1_555
C17 C12 1_555 1_555
H17 C17 1_555 1_555
C18 N2 1_555 1_555
H18 C18 1_555 1_555
H19 C18 1_555 1_555
C19 C18 1_555 1_555
H20 C19 1_555 1_555
H21 C19 1_555 1_555
C20 C14 1_555 1_555
H22 C20 1_555 1_555
H23 C20 1_555 1_555
C21 N2 1_555 1_555
H24 C21 1_555 1_555
H25 C21 1_555 1_555
C22 C21 1_555 1_555
H26 C22 1_555 1_555
H27 C22 1_555 1_555
C23 C16 1_555 1_555
H28 C23 1_555 1_555
H29 C23 1_555 1_555
C5 C6 1_555 1_555
C12 C13 1_555 1_555
C16 C17 1_555 1_555
C19 C20 1_555 1_555
C22 C23 1_555 1_555

#END
