
#######################################################################
#
#                 Cambridge Crystallographic Data Centre
#                                CCDC 
#
#######################################################################
#
# If this CIF has been generated from an entry in the Cambridge 
# Structural Database, then it will include bibliographic, chemical, 
# crystal, experimental, refinement or atomic coordinate data resulting 
# from the CCDC's data processing and validation procedures.
#
#######################################################################

data_UBUVUK
_chemical_formula_moiety         'C23 H29 Cl2 N5 O2'
_chemical_name_systematic        
17\a-(2,6-Dichloropurin-9-yl)-5\a-androst-4-aza-D-homo-17a-oxa-3-one
_chemical_properties_biological  
'tested for in vitro cytotoxic activity against various cancer cell lines'
_symmetry_cell_setting           monoclinic
_symmetry_space_group_name_H-M   'P 21'
_symmetry_Int_Tables_number      4
_space_group_name_Hall           'P 2yb'
loop_
_symmetry_equiv_pos_site_id
_symmetry_equiv_pos_as_xyz
1 x,y,z
2 -x,1/2+y,-z
_cell_length_a                   10.268(2)
_cell_length_b                   7.4422(15)
_cell_length_c                   15.488(3)
_cell_angle_alpha                90
_cell_angle_beta                 93.69(3)
_cell_angle_gamma                90
_cell_volume                     1181.09
_exptl_crystal_colour            colorless
_exptl_crystal_description       block
_cell_formula_units_Z            2
_exptl_crystal_recrystallization_method methanol
loop_
_atom_site_label
_atom_site_type_symbol
_atom_site_fract_x
_atom_site_fract_y
_atom_site_fract_z
Cl1 Cl 1.24977(9) 0.4687(2) 0.04834(8)
Cl2 Cl 1.00887(11) 0.5981(2) -0.24842(7)
O1 O 0.0263(3) 0.8326(4) 0.5386(2)
O2 O 0.6915(2) 0.6111(3) 0.12243(14)
N1 N 0.1281(3) 0.6571(4) 0.4463(2)
N2 N 1.1104(3) 0.5284(5) -0.0941(2)
N3 N 0.9986(3) 0.4614(5) 0.03343(18)
N4 N 0.7511(3) 0.5200(5) -0.1375(2)
N5 N 0.7636(3) 0.4598(4) 0.00608(18)
C1 C 0.2903(3) 0.9414(4) 0.3941(2)
H1 H 0.3637 1.0230 0.4026
H2 H 0.2447 0.9702 0.3391
C2 C 0.1979(4) 0.9696(5) 0.4666(3)
H3 H 0.2501 0.9985 0.5192
H4 H 0.1436 1.0732 0.4519
C3 C 0.1103(4) 0.8152(5) 0.4855(3)
C4 C 0.2195(3) 0.6279(5) 0.3777(2)
H5 H 0.1743 0.6624 0.3225
C5 C 0.2525(4) 0.4301(5) 0.3723(2)
H6 H 0.1729 0.3600 0.3649
H7 H 0.2997 0.3919 0.4254
C6 C 0.3367(4) 0.3992(5) 0.2953(3)
H8 H 0.3637 0.2744 0.2947
H9 H 0.2844 0.4224 0.2420
C7 C 0.4572(3) 0.5184(4) 0.2981(2)
H10 H 0.5170 0.4801 0.3465
C8 C 0.4220(3) 0.7172(4) 0.3112(2)
H11 H 0.3644 0.7505 0.2608
C9 C 0.3414(3) 0.7480(4) 0.3912(2)
C10 C 0.5425(3) 0.8383(5) 0.3082(2)
H12 H 0.5161 0.9629 0.3128
H13 H 0.6028 0.8112 0.3572
C11 C 0.6116(4) 0.8123(5) 0.2244(2)
H14 H 0.5546 0.8522 0.1758
H15 H 0.6897 0.8860 0.2263
C12 C 0.6491(3) 0.6162(5) 0.2106(2)
C13 C 0.5274(3) 0.4991(5) 0.2132(2)
H16 H 0.4661 0.5452 0.1674
C14 C 0.5579(4) 0.3080(5) 0.1871(3)
H17 H 0.4794 0.2354 0.1870
H18 H 0.6223 0.2565 0.2286
C15 C 0.6102(4) 0.3069(5) 0.0973(3)
H19 H 0.6391 0.1867 0.0836
H20 H 0.5413 0.3409 0.0547
C16 C 0.7230(3) 0.4367(5) 0.0938(2)
H21 H 0.7970 0.3907 0.1304
C17 C 0.7635(3) 0.5632(6) 0.2737(2)
H22 H 0.7793 0.4365 0.2692
H23 H 0.7427 0.5917 0.3317
H24 H 0.8402 0.6281 0.2598
C18 C 0.4214(3) 0.7033(5) 0.4753(2)
H25 H 0.4915 0.7881 0.4841
H26 H 0.4566 0.5842 0.4717
H27 H 0.3662 0.7096 0.5230
C19 C 1.1018(3) 0.4871(6) -0.0109(2)
C20 C 0.8894(3) 0.4758(5) -0.0178(2)
C21 C 0.8797(3) 0.5142(5) -0.1058(2)
C22 C 0.9985(4) 0.5419(5) -0.1418(2)
C23 C 0.6882(3) 0.4896(6) -0.0690(2)
H28 H 0.5975 0.4881 -0.0707
loop_
_geom_bond_atom_site_label_1
_geom_bond_atom_site_label_2
_geom_bond_site_symmetry_1
_geom_bond_site_symmetry_2
Cl1 C19 1_555 1_555
Cl2 C22 1_555 1_555
O1 C3 1_555 1_555
O2 C12 1_555 1_555
N1 C3 1_555 1_555
N2 C19 1_555 1_555
N3 C19 1_555 1_555
N4 C21 1_555 1_555
N5 C16 1_555 1_555
C1 H1 1_555 1_555
H2 C1 1_555 1_555
C2 C1 1_555 1_555
H3 C2 1_555 1_555
H4 C2 1_555 1_555
C3 C2 1_555 1_555
C4 N1 1_555 1_555
H5 C4 1_555 1_555
C5 C4 1_555 1_555
H6 C5 1_555 1_555
H7 C5 1_555 1_555
C6 C5 1_555 1_555
H8 C6 1_555 1_555
H9 C6 1_555 1_555
C7 C6 1_555 1_555
H10 C7 1_555 1_555
C8 C7 1_555 1_555
H11 C8 1_555 1_555
C9 C1 1_555 1_555
C10 C8 1_555 1_555
H12 C10 1_555 1_555
H13 C10 1_555 1_555
C11 C10 1_555 1_555
H14 C11 1_555 1_555
H15 C11 1_555 1_555
C12 C11 1_555 1_555
C13 C7 1_555 1_555
H16 C13 1_555 1_555
C14 C13 1_555 1_555
H17 C14 1_555 1_555
H18 C14 1_555 1_555
C15 C14 1_555 1_555
H19 C15 1_555 1_555
H20 C15 1_555 1_555
C16 O2 1_555 1_555
H21 C16 1_555 1_555
C17 C12 1_555 1_555
H22 C17 1_555 1_555
H23 C17 1_555 1_555
H24 C17 1_555 1_555
C18 C9 1_555 1_555
H25 C18 1_555 1_555
H26 C18 1_555 1_555
H27 C18 1_555 1_555
C20 N3 1_555 1_555
C21 C20 1_555 1_555
C22 N2 1_555 1_555
C23 N4 1_555 1_555
H28 C23 1_555 1_555
N5 C20 1_555 1_555
N5 C23 1_555 1_555
C4 C9 1_555 1_555
C8 C9 1_555 1_555
C12 C13 1_555 1_555
C15 C16 1_555 1_555
C21 C22 1_555 1_555

#END
