
#######################################################################
#
#                 Cambridge Crystallographic Data Centre
#                                CCDC 
#
#######################################################################
#
# If this CIF has been generated from an entry in the Cambridge 
# Structural Database, then it will include bibliographic, chemical, 
# crystal, experimental, refinement or atomic coordinate data resulting 
# from the CCDC's data processing and validation procedures.
#
#######################################################################

data_UBUWEV
_chemical_name_common            PF-184563
_chemical_formula_moiety         'C21 H23 Cl1 N6'
_chemical_name_systematic        
8-Chloro-5-methyl-1-(1-(pyridin-2-yl)piperidin-4-yl)-5,6-dihydro-4H-[1,2,4]triazolo[4,3-a][1,4]benzodiazepine
_chemical_properties_biological  
'tested for antagonist activity at the human V1a receptor'
_symmetry_cell_setting           monoclinic
_symmetry_space_group_name_H-M   'P 21/n'
_symmetry_Int_Tables_number      14
_space_group_name_Hall           '-P 2yn'
loop_
_symmetry_equiv_pos_site_id
_symmetry_equiv_pos_as_xyz
1 x,y,z
2 1/2-x,1/2+y,1/2-z
3 -x,-y,-z
4 1/2+x,1/2-y,1/2+z
_cell_length_a                   7.6116(5)
_cell_length_b                   11.3607(7)
_cell_length_c                   22.1569(14)
_cell_angle_alpha                90
_cell_angle_beta                 95.2380(10)
_cell_angle_gamma                90
_cell_volume                     1907.97
_exptl_crystal_colour            colorless
_exptl_crystal_description       block
_cell_formula_units_Z            4
loop_
_atom_site_label
_atom_site_type_symbol
_atom_site_fract_x
_atom_site_fract_y
_atom_site_fract_z
Cl1 Cl 0.22731(8) 0.96075(5) 0.20529(4)
N1 N 0.2015(2) 0.16317(13) -0.07803(7)
N2 N 0.08502(17) 0.22139(11) 0.01037(6)
N3 N 0.63243(19) 0.35023(13) 0.09534(7)
N4 N 0.78455(19) 0.40474(13) 0.12229(7)
N5 N 0.55698(17) 0.51847(11) 0.13380(6)
N6 N 0.82926(18) 0.60932(13) 0.23980(7)
C1 C 0.2760(3) 0.08077(19) -0.11041(9)
H1 H 0.2970 0.0994 -0.1500
C2 C 0.3233(3) -0.02856(18) -0.08958(10)
H2 H 0.3736 -0.0830 -0.1142
C3 C 0.2940(2) -0.05517(16) -0.03121(10)
H3 H 0.3250 -0.1288 -0.0153
C4 C 0.2191(2) 0.02685(15) 0.00378(9)
H4 H 0.1998 0.0097 0.0437
C5 C 0.1720(2) 0.13639(14) -0.02115(8)
C6 C 0.0954(2) 0.21630(15) 0.07626(8)
H5 H 0.0795 0.1356 0.0890
H6 H 0.0011 0.2632 0.0906
C7 C 0.2721(2) 0.26189(15) 0.10431(8)
H7 H 0.3649 0.2091 0.0940
H8 H 0.2719 0.2624 0.1481
C8 C 0.3113(2) 0.38659(14) 0.08238(7)
H9 H 0.2326 0.4420 0.1005
C9 C 0.2779(2) 0.39488(15) 0.01316(8)
H10 H 0.2829 0.4767 0.0009
H11 H 0.3698 0.3525 -0.0053
C10 C 0.0987(2) 0.34362(14) -0.00919(8)
H12 H 0.0061 0.3899 0.0066
H13 H 0.0830 0.3474 -0.0531
C11 C 0.4984(2) 0.41865(14) 0.10288(7)
C12 C 0.7362(2) 0.50343(15) 0.14482(8)
C13 C 0.8529(2) 0.59389(16) 0.17558(8)
H14 H 0.9747 0.5723 0.1717
H15 H 0.8312 0.6686 0.1550
C14 C 0.6444(2) 0.60115(16) 0.25239(8)
H16 H 0.6344 0.6309 0.2930
H17 H 0.6114 0.5187 0.2522
C15 C 0.5133(2) 0.66624(14) 0.20919(8)
C16 C 0.4376(2) 0.77197(16) 0.22494(9)
H18 H 0.4687 0.8053 0.2627
C17 C 0.3166(2) 0.82719(16) 0.18448(10)
C18 C 0.2663(2) 0.78053(16) 0.12842(10)
H19 H 0.1807 0.8176 0.1024
C19 C 0.3446(2) 0.67794(15) 0.11120(9)
H20 H 0.3156 0.6468 0.0728
C20 C 0.4665(2) 0.62149(13) 0.15141(8)
C21 C 0.9095(3) 0.72017(19) 0.26030(10)
H21 H 0.8540 0.7837 0.2373
H22 H 1.0331 0.7187 0.2547
H23 H 0.8945 0.7312 0.3025
loop_
_geom_bond_atom_site_label_1
_geom_bond_atom_site_label_2
_geom_bond_site_symmetry_1
_geom_bond_site_symmetry_2
Cl1 C17 1_555 1_555
N1 C1 1_555 1_555
N2 C5 1_555 1_555
N3 N4 1_555 1_555
N4 C12 1_555 1_555
N5 C11 1_555 1_555
N6 C13 1_555 1_555
C1 H1 1_555 1_555
C2 C1 1_555 1_555
H2 C2 1_555 1_555
C3 C2 1_555 1_555
H3 C3 1_555 1_555
C4 C3 1_555 1_555
H4 C4 1_555 1_555
C5 N1 1_555 1_555
C6 N2 1_555 1_555
H5 C6 1_555 1_555
H6 C6 1_555 1_555
C7 C6 1_555 1_555
H7 C7 1_555 1_555
H8 C7 1_555 1_555
C8 C7 1_555 1_555
H9 C8 1_555 1_555
C9 C8 1_555 1_555
H10 C9 1_555 1_555
H11 C9 1_555 1_555
C10 N2 1_555 1_555
H12 C10 1_555 1_555
H13 C10 1_555 1_555
C11 N3 1_555 1_555
C12 N5 1_555 1_555
C13 C12 1_555 1_555
H14 C13 1_555 1_555
H15 C13 1_555 1_555
C14 N6 1_555 1_555
H16 C14 1_555 1_555
H17 C14 1_555 1_555
C15 C14 1_555 1_555
C16 C15 1_555 1_555
H18 C16 1_555 1_555
C17 C16 1_555 1_555
C18 C17 1_555 1_555
H19 C18 1_555 1_555
C19 C18 1_555 1_555
H20 C19 1_555 1_555
C20 N5 1_555 1_555
C21 N6 1_555 1_555
H21 C21 1_555 1_555
H22 C21 1_555 1_555
H23 C21 1_555 1_555
C4 C5 1_555 1_555
C8 C11 1_555 1_555
C9 C10 1_555 1_555
C15 C20 1_555 1_555
C19 C20 1_555 1_555

#END
