
#######################################################################
#
#                 Cambridge Crystallographic Data Centre
#                                CCDC 
#
#######################################################################
#
# If this CIF has been generated from an entry in the Cambridge 
# Structural Database, then it will include bibliographic, chemical, 
# crystal, experimental, refinement or atomic coordinate data resulting 
# from the CCDC's data processing and validation procedures.
#
#######################################################################

data_UBUWIZ
_chemical_name_common            UK-536753
_chemical_formula_moiety         'C22 H23 Cl1 N6 O1'
_chemical_name_systematic        
1-(8-Chloro-1-(1-(pyridin-2-yl)piperidin-4-yl)-4H-[1,2,4]triazolo[4,3-a][1,4]benzodiazepin-5(6H)-yl)ethanone
_chemical_properties_biological  
'tested for antagonist activity at the human V1a receptor'
_symmetry_cell_setting           monoclinic
_symmetry_space_group_name_H-M   'P 21/n'
_symmetry_Int_Tables_number      14
_space_group_name_Hall           '-P 2yn'
loop_
_symmetry_equiv_pos_site_id
_symmetry_equiv_pos_as_xyz
1 x,y,z
2 1/2-x,1/2+y,1/2-z
3 -x,-y,-z
4 1/2+x,1/2-y,1/2+z
_cell_length_a                   12.696(6)
_cell_length_b                   9.745(5)
_cell_length_c                   33.199(16)
_cell_angle_alpha                90
_cell_angle_beta                 100.174(10)
_cell_angle_gamma                90
_cell_volume                     4042.88
_exptl_crystal_colour            colorless
_exptl_crystal_description       needle
_cell_formula_units_Z            8
loop_
_atom_site_label
_atom_site_type_symbol
_atom_site_fract_x
_atom_site_fract_y
_atom_site_fract_z
Cl1 Cl 0.3848(3) 0.3348(5) 0.03566(13)
O1 O 0.8097(8) 0.8104(9) 0.0228(3)
N1 N 0.8585(14) 0.396(2) 0.3100(5)
N2 N 0.8530(11) 0.1982(13) 0.2691(4)
N3 N 0.9870(10) 0.4043(11) 0.1547(3)
N4 N 0.9862(10) 0.4962(11) 0.1225(3)
N5 N 0.8260(9) 0.4143(10) 0.1208(4)
N6 N 0.7663(9) 0.6869(11) 0.0733(4)
C1 C 0.915(3) 0.478(2) 0.3411(7)
H1 H 0.8819 0.5538 0.3506
C2 C 1.013(2) 0.449(3) 0.3567(6)
H2 H 1.0536 0.5085 0.3752
C3 C 1.0564(18) 0.334(3) 0.3462(6)
H3 H 1.1242 0.3085 0.3596
C4 C 1.0048(17) 0.2524(18) 0.3168(6)
H4 H 1.0376 0.1738 0.3089
C5 C 0.9038(14) 0.2861(18) 0.2985(5)
C6 C 0.9149(14) 0.1181(15) 0.2455(4)
H5 H 0.8724 0.0411 0.2333
H6 H 0.9774 0.0819 0.2634
C7 C 0.9507(12) 0.2032(14) 0.2117(4)
H7 H 0.9984 0.2754 0.2239
H8 H 0.9899 0.1451 0.1958
C8 C 0.8571(11) 0.2655(13) 0.1841(4)
H9 H 0.8144 0.1915 0.1693
C9 C 0.7868(10) 0.3435(15) 0.2099(4)
H10 H 0.8249 0.4243 0.2217
H11 H 0.7218 0.3739 0.1923
C10 C 0.7577(13) 0.2560(18) 0.2438(5)
H12 H 0.7191 0.3112 0.2607
H13 H 0.7110 0.1821 0.2320
C11 C 0.8922(13) 0.3576(13) 0.1540(4)
C12 C 0.8876(12) 0.5005(13) 0.1035(4)
C13 C 0.8486(11) 0.5820(15) 0.0664(5)
H14 H 0.8175 0.5209 0.0445
H15 H 0.9087 0.6285 0.0580
C14 C 0.6986(11) 0.6494(12) 0.1028(4)
H16 H 0.6419 0.7165 0.1023
H17 H 0.7407 0.6476 0.1302
C15 C 0.6503(12) 0.5072(13) 0.0916(4)
C16 C 0.5492(12) 0.4868(17) 0.0722(4)
H18 H 0.5044 0.5615 0.0646
C17 C 0.5126(10) 0.3575(18) 0.0637(4)
C18 C 0.5735(12) 0.2405(15) 0.0748(4)
H19 H 0.5463 0.1528 0.0688
C19 C 0.6788(11) 0.2626(14) 0.0957(4)
H20 H 0.7230 0.1877 0.1035
C20 C 0.7162(11) 0.3894(12) 0.1045(4)
C21 C 0.7530(12) 0.7963(13) 0.0491(5)
C22 C 0.6659(13) 0.8970(15) 0.0532(5)
H21 H 0.6649 0.9687 0.0333
H22 H 0.6790 0.9360 0.0802
H23 H 0.5981 0.8507 0.0487
Cl2 Cl 1.3684(4) 0.7914(5) 0.02179(14)
O2 O 0.9185(10) 1.3165(10) 0.0224(3)
N7 N 1.0617(11) 0.7867(13) 0.3050(4)
N8 N 1.1643(10) 0.6928(13) 0.2604(4)
N9 N 0.9036(11) 0.9162(12) 0.1522(4)
N10 N 0.8736(10) 1.0033(13) 0.1207(4)
N11 N 1.0240(10) 0.9085(10) 0.1122(3)
N12 N 1.0279(10) 1.1714(13) 0.0610(4)
C23 C 1.0589(15) 0.8588(19) 0.3395(6)
H24 H 0.9968 0.8565 0.3507
C24 C 1.1439(17) 0.9354(18) 0.3587(6)
H25 H 1.1376 0.9911 0.3809
C25 C 1.2374(15) 0.9274(17) 0.3442(5)
H26 H 1.2956 0.9801 0.3562
C26 C 1.2467(14) 0.8450(17) 0.3130(5)
H27 H 1.3123 0.8314 0.3049
C27 C 1.1543(14) 0.7798(15) 0.2931(5)
C28 C 1.0658(13) 0.6272(15) 0.2406(4)
H28 H 1.0244 0.6015 0.2613
H29 H 1.0836 0.5438 0.2273
C29 C 0.9989(11) 0.7153(14) 0.2098(4)
H30 H 0.9717 0.7916 0.2236
H31 H 0.9380 0.6625 0.1963
C30 C 1.0583(11) 0.7704(14) 0.1780(4)
H32 H 1.0793 0.6917 0.1628
C31 C 1.1611(11) 0.8399(14) 0.1993(4)
H33 H 1.2041 0.8666 0.1792
H34 H 1.1437 0.9219 0.2133
C32 C 1.2240(13) 0.7405(17) 0.2301(4)
H35 H 1.2454 0.6621 0.2154
H36 H 1.2886 0.7857 0.2438
C33 C 0.9935(12) 0.8653(14) 0.1473(4)
C34 C 0.9440(12) 0.9999(15) 0.0975(5)
C35 C 0.9425(12) 1.0747(17) 0.0583(5)
H37 H 0.9480 1.0090 0.0368
H38 H 0.8748 1.1224 0.0510
C36 C 1.1264(14) 1.1342(16) 0.0822(6)
H39 H 1.1266 1.1495 0.1111
H40 H 1.1794 1.1952 0.0742
C37 C 1.1621(11) 0.9866(13) 0.0769(4)
C38 C 1.2402(12) 0.9633(15) 0.0563(4)
H41 H 1.2749 1.0362 0.0461
C39 C 1.2712(11) 0.8248(19) 0.0498(5)
C40 C 1.2206(11) 0.7228(15) 0.0657(4)
H42 H 1.2419 0.6329 0.0623
C41 C 1.1405(11) 0.7457(13) 0.0864(4)
H43 H 1.1042 0.6725 0.0957
C42 C 1.1123(11) 0.8801(14) 0.0938(4)
C43 C 1.0100(14) 1.2930(14) 0.0413(5)
C44 C 1.0955(12) 1.3939(14) 0.0424(5)
H44 H 1.1557 1.3517 0.0334
H45 H 1.1168 1.4271 0.0698
H46 H 1.0703 1.4691 0.0246
loop_
_geom_bond_atom_site_label_1
_geom_bond_atom_site_label_2
_geom_bond_site_symmetry_1
_geom_bond_site_symmetry_2
Cl1 C17 1_555 1_555
O1 C21 1_555 1_555
N1 C1 1_555 1_555
N2 C5 1_555 1_555
N3 N4 1_555 1_555
N4 C12 1_555 1_555
N5 C11 1_555 1_555
N6 C13 1_555 1_555
C1 H1 1_555 1_555
C2 C1 1_555 1_555
H2 C2 1_555 1_555
C3 C2 1_555 1_555
H3 C3 1_555 1_555
C4 C3 1_555 1_555
H4 C4 1_555 1_555
C5 N1 1_555 1_555
C6 N2 1_555 1_555
H5 C6 1_555 1_555
H6 C6 1_555 1_555
C7 C6 1_555 1_555
H7 C7 1_555 1_555
H8 C7 1_555 1_555
C8 C7 1_555 1_555
H9 C8 1_555 1_555
C9 C8 1_555 1_555
H10 C9 1_555 1_555
H11 C9 1_555 1_555
C10 N2 1_555 1_555
H12 C10 1_555 1_555
H13 C10 1_555 1_555
C11 N3 1_555 1_555
C12 N5 1_555 1_555
C13 C12 1_555 1_555
H14 C13 1_555 1_555
H15 C13 1_555 1_555
C14 N6 1_555 1_555
H16 C14 1_555 1_555
H17 C14 1_555 1_555
C15 C14 1_555 1_555
C16 C15 1_555 1_555
H18 C16 1_555 1_555
C17 C16 1_555 1_555
C18 C17 1_555 1_555
H19 C18 1_555 1_555
C19 C18 1_555 1_555
H20 C19 1_555 1_555
C20 N5 1_555 1_555
C21 N6 1_555 1_555
C22 C21 1_555 1_555
H21 C22 1_555 1_555
H22 C22 1_555 1_555
H23 C22 1_555 1_555
Cl2 C39 1_555 1_555
O2 C43 1_555 1_555
N7 C23 1_555 1_555
N8 C27 1_555 1_555
N9 N10 1_555 1_555
N10 C34 1_555 1_555
N11 C33 1_555 1_555
N12 C35 1_555 1_555
C23 H24 1_555 1_555
C24 C23 1_555 1_555
H25 C24 1_555 1_555
C25 C24 1_555 1_555
H26 C25 1_555 1_555
C26 C25 1_555 1_555
H27 C26 1_555 1_555
C27 N7 1_555 1_555
C28 N8 1_555 1_555
H28 C28 1_555 1_555
H29 C28 1_555 1_555
C29 C28 1_555 1_555
H30 C29 1_555 1_555
H31 C29 1_555 1_555
C30 C29 1_555 1_555
H32 C30 1_555 1_555
C31 C30 1_555 1_555
H33 C31 1_555 1_555
H34 C31 1_555 1_555
C32 N8 1_555 1_555
H35 C32 1_555 1_555
H36 C32 1_555 1_555
C33 N9 1_555 1_555
C34 N11 1_555 1_555
C35 C34 1_555 1_555
H37 C35 1_555 1_555
H38 C35 1_555 1_555
C36 N12 1_555 1_555
H39 C36 1_555 1_555
H40 C36 1_555 1_555
C37 C36 1_555 1_555
C38 C37 1_555 1_555
H41 C38 1_555 1_555
C39 C38 1_555 1_555
C40 C39 1_555 1_555
H42 C40 1_555 1_555
C41 C40 1_555 1_555
H43 C41 1_555 1_555
C42 N11 1_555 1_555
C43 N12 1_555 1_555
C44 C43 1_555 1_555
H44 C44 1_555 1_555
H45 C44 1_555 1_555
H46 C44 1_555 1_555
C4 C5 1_555 1_555
C8 C11 1_555 1_555
C9 C10 1_555 1_555
C15 C20 1_555 1_555
C19 C20 1_555 1_555
C26 C27 1_555 1_555
C30 C33 1_555 1_555
C31 C32 1_555 1_555
C37 C42 1_555 1_555
C41 C42 1_555 1_555

#END
