
#######################################################################
#
#                 Cambridge Crystallographic Data Centre
#                                CCDC 
#
#######################################################################
#
# If this CIF has been generated from an entry in the Cambridge 
# Structural Database, then it will include bibliographic, chemical, 
# crystal, experimental, refinement or atomic coordinate data resulting 
# from the CCDC's data processing and validation procedures.
#
#######################################################################

data_UCALER
_chemical_formula_moiety         'C37 H49 N3 O1,0.5(C7 H8)'
_chemical_name_systematic        
'1,3-bis(2,6-Di-isopropylphenyl)-2-(mesityl(nitroso)methylene)imidazolidine toluene solvate'
_symmetry_cell_setting           monoclinic
_symmetry_space_group_name_H-M   'P 21/c'
_symmetry_Int_Tables_number      14
_space_group_name_Hall           '-P 2ybc'
loop_
_symmetry_equiv_pos_site_id
_symmetry_equiv_pos_as_xyz
1 x,y,z
2 -x,1/2+y,1/2-z
3 -x,-y,-z
4 x,1/2-y,1/2+z
_cell_length_a                   17.3510(17)
_cell_length_b                   12.9808(13)
_cell_length_c                   16.5439(16)
_cell_angle_alpha                90
_cell_angle_beta                 96.425(2)
_cell_angle_gamma                90
_cell_volume                     3702.78
_exptl_crystal_colour            violet
_exptl_crystal_description       plate
_cell_formula_units_Z            4
loop_
_atom_site_label
_atom_site_type_symbol
_atom_site_fract_x
_atom_site_fract_y
_atom_site_fract_z
O1 O 0.2595(2) 0.6926(2) 0.85799(16)
N1 N 0.2499(2) 0.6863(3) 0.78041(18)
N2 N 0.25731(16) 0.6849(2) 0.61111(15)
N3 N 0.19457(16) 0.8330(2) 0.60122(15)
C5 C 0.2364(2) 0.7744(3) 0.74000(19)
C6 C 0.2406(2) 0.8765(3) 0.78252(19)
C7 C 0.1810(2) 0.9132(3) 0.8247(2)
C8 C 0.1920(3) 1.0044(3) 0.8689(2)
H5 H 0.1517 1.0292 0.8961
C9 C 0.2601(3) 1.0590(4) 0.8738(3)
C10 C 0.3182(3) 1.0205(4) 0.8327(3)
H6 H 0.3649 1.0561 0.8356
C11 C 0.3104(2) 0.9314(3) 0.7875(2)
C12 C 0.1068(2) 0.8555(4) 0.8262(2)
H7 H 0.0704 0.8773 0.7815
H8 H 0.0859 0.8689 0.8764
H9 H 0.1164 0.7830 0.8216
C13 C 0.2710(4) 1.1586(5) 0.9224(4)
H10 H 0.3042 1.1461 0.9719
H11 H 0.2215 1.1828 0.9352
H12 H 0.2942 1.2096 0.8908
C14 C 0.3773(2) 0.8914(4) 0.7461(3)
H13 H 0.4203 0.9380 0.7556
H14 H 0.3619 0.8858 0.6887
H15 H 0.3923 0.8248 0.7676
C15 C 0.22952(18) 0.7625(2) 0.65419(18)
C16 C 0.2310(2) 0.6959(3) 0.52370(19)
H16 H 0.1870 0.6516 0.5074
H17 H 0.2724 0.6802 0.4908
C17 C 0.2087(2) 0.8068(3) 0.5169(2)
H18 H 0.2503 0.8482 0.4994
H19 H 0.1623 0.8165 0.4792
C18 C 0.1289(2) 0.8958(3) 0.61322(19)
C19 C 0.0559(2) 0.8487(3) 0.6172(2)
C20 C -0.0076(3) 0.9136(4) 0.6225(3)
H20 H -0.0563 0.8848 0.6250
C21 C 0.0004(3) 1.0183(5) 0.6241(3)
H21 H -0.0427 1.0596 0.6288
C22 C 0.0712(3) 1.0630(4) 0.6190(3)
H22 H 0.0755 1.1344 0.6198
C23 C 0.1371(2) 1.0028(3) 0.6124(2)
C24 C 0.0426(2) 0.7333(3) 0.6110(3)
H23 H 0.0938 0.7004 0.6171
C25 C -0.0029(4) 0.6884(5) 0.6761(3)
H24 H -0.0530 0.7206 0.6730
H25 H 0.0247 0.7007 0.7288
H26 H -0.0092 0.6156 0.6676
C26 C 0.0039(3) 0.7054(4) 0.5275(3)
H27 H 0.0361 0.7270 0.4871
H28 H -0.0455 0.7392 0.5183
H29 H -0.0034 0.6321 0.5242
C27 C 0.2131(3) 1.0527(3) 0.5996(3)
H30 H 0.2541 1.0014 0.6122
C28 C 0.2320(4) 1.1457(4) 0.6556(4)
H31 H 0.2335 1.1244 0.7113
H32 H 0.1929 1.1976 0.6442
H33 H 0.2816 1.1734 0.6464
C29 C 0.2132(3) 1.0838(4) 0.5098(4)
H34 H 0.1742 1.1353 0.4961
H35 H 0.2024 1.0245 0.4758
H36 H 0.2632 1.1111 0.5015
C30 C 0.3067(2) 0.5988(3) 0.63617(19)
C31 C 0.3844(2) 0.6029(3) 0.6204(2)
C32 C 0.4293(3) 0.5145(4) 0.6358(3)
H37 H 0.4809 0.5148 0.6254
C33 C 0.3985(3) 0.4273(4) 0.6660(3)
H38 H 0.4298 0.3696 0.6767
C34 C 0.3226(3) 0.4238(3) 0.6805(3)
H39 H 0.3031 0.3637 0.7012
C35 C 0.2737(2) 0.5089(3) 0.6649(2)
C36 C 0.4210(2) 0.6957(3) 0.5843(3)
H40 H 0.3829 0.7518 0.5811
C37 C 0.4408(4) 0.6750(4) 0.4984(3)
H41 H 0.3957 0.6495 0.4656
H42 H 0.4815 0.6247 0.5002
H43 H 0.4577 0.7378 0.4753
C38 C 0.4938(3) 0.7327(4) 0.6390(4)
H44 H 0.5342 0.6823 0.6385
H45 H 0.4813 0.7417 0.6936
H46 H 0.5110 0.7971 0.6189
C39 C 0.1897(2) 0.5010(3) 0.6763(3)
H47 H 0.1690 0.5713 0.6765
C40 C 0.1763(4) 0.4510(5) 0.7580(4)
H48 H 0.2066 0.4863 0.8016
H49 H 0.1917 0.3799 0.7578
H50 H 0.1224 0.4554 0.7656
C41 C 0.1442(3) 0.4434(4) 0.6050(3)
H51 H 0.1644 0.3749 0.6019
H52 H 0.1495 0.4793 0.5552
H53 H 0.0904 0.4402 0.6134
C1 C 0.5333(7) 0.0791(12) 0.6417(7)
H1 H 0.4919 0.1229 0.6547
H2 H 0.5803 0.1184 0.6433
H3 H 0.5404 0.0240 0.6806
C2 C 0.5136(4) 0.0352(11) 0.5582(6)
C3 C 0.4368(5) 0.0193(7) 0.5269(5)
H4 H 0.3972 0.0372 0.5578
C4 C 0.4185(7) -0.0232(10) 0.4501(6)
C1B C 0.4667(7) -0.0791(12) 0.3583(7)
H1B H 0.5081 -0.1229 0.3453
H2B H 0.4197 -0.1184 0.3567
H3B H 0.4596 -0.0240 0.3194
C2B C 0.4864(4) -0.0352(11) 0.4418(6)
C3B C 0.5632(5) -0.0193(7) 0.4731(5)
H4B H 0.6028 -0.0372 0.4422
C4B C 0.5815(7) 0.0232(10) 0.5499(6)
loop_
_geom_bond_atom_site_label_1
_geom_bond_atom_site_label_2
_geom_bond_site_symmetry_1
_geom_bond_site_symmetry_2
C1 H1 1_555 1_555
H2 C1 1_555 1_555
H3 C1 1_555 1_555
C2 C1 1_555 1_555
C3 C2 1_555 1_555
H4 C3 1_555 1_555
C4 C3 1_555 1_555
O1 N1 1_555 1_555
N1 C5 1_555 1_555
N2 C15 1_555 1_555
N3 C15 1_555 1_555
C5 C6 1_555 1_555
C6 C7 1_555 1_555
C7 C8 1_555 1_555
C8 H5 1_555 1_555
C9 C8 1_555 1_555
C10 C9 1_555 1_555
H6 C10 1_555 1_555
C11 C6 1_555 1_555
C12 C7 1_555 1_555
H7 C12 1_555 1_555
H8 C12 1_555 1_555
H9 C12 1_555 1_555
C13 C9 1_555 1_555
H10 C13 1_555 1_555
H11 C13 1_555 1_555
H12 C13 1_555 1_555
C14 C11 1_555 1_555
H13 C14 1_555 1_555
H14 C14 1_555 1_555
H15 C14 1_555 1_555
C15 C5 1_555 1_555
C16 N2 1_555 1_555
H16 C16 1_555 1_555
H17 C16 1_555 1_555
C17 N3 1_555 1_555
H18 C17 1_555 1_555
H19 C17 1_555 1_555
C18 N3 1_555 1_555
C19 C18 1_555 1_555
C20 C19 1_555 1_555
H20 C20 1_555 1_555
C21 C20 1_555 1_555
H21 C21 1_555 1_555
C22 C21 1_555 1_555
H22 C22 1_555 1_555
C23 C18 1_555 1_555
C24 C19 1_555 1_555
H23 C24 1_555 1_555
C25 C24 1_555 1_555
H24 C25 1_555 1_555
H25 C25 1_555 1_555
H26 C25 1_555 1_555
C26 C24 1_555 1_555
H27 C26 1_555 1_555
H28 C26 1_555 1_555
H29 C26 1_555 1_555
C27 C23 1_555 1_555
H30 C27 1_555 1_555
C28 C27 1_555 1_555
H31 C28 1_555 1_555
H32 C28 1_555 1_555
H33 C28 1_555 1_555
C29 C27 1_555 1_555
H34 C29 1_555 1_555
H35 C29 1_555 1_555
H36 C29 1_555 1_555
C30 N2 1_555 1_555
C31 C30 1_555 1_555
C32 C31 1_555 1_555
H37 C32 1_555 1_555
C33 C32 1_555 1_555
H38 C33 1_555 1_555
C34 C33 1_555 1_555
H39 C34 1_555 1_555
C35 C30 1_555 1_555
C36 C31 1_555 1_555
H40 C36 1_555 1_555
C37 C36 1_555 1_555
H41 C37 1_555 1_555
H42 C37 1_555 1_555
H43 C37 1_555 1_555
C38 C36 1_555 1_555
H44 C38 1_555 1_555
H45 C38 1_555 1_555
H46 C38 1_555 1_555
C39 C35 1_555 1_555
H47 C39 1_555 1_555
C40 C39 1_555 1_555
H48 C40 1_555 1_555
H49 C40 1_555 1_555
H50 C40 1_555 1_555
C41 C39 1_555 1_555
H51 C41 1_555 1_555
H52 C41 1_555 1_555
H53 C41 1_555 1_555
C1B H1B 1_555 1_555
H2B C1B 1_555 1_555
H3B C1B 1_555 1_555
C2B C4 1_555 1_555
C3B C2B 1_555 1_555
H4B C3B 1_555 1_555
C4B C2 1_555 1_555
C10 C11 1_555 1_555
C16 C17 1_555 1_555
C22 C23 1_555 1_555
C34 C35 1_555 1_555
C1B C2B 1_555 1_555
C3B C4B 1_555 1_555

#END
