
#######################################################################
#
#                 Cambridge Crystallographic Data Centre
#                                CCDC 
#
#######################################################################
#
# If this CIF has been generated from an entry in the Cambridge 
# Structural Database, then it will include bibliographic, chemical, 
# crystal, experimental, refinement or atomic coordinate data resulting 
# from the CCDC's data processing and validation procedures.
#
#######################################################################

data_UCAVEC
_chemical_formula_moiety         'C19 H10 F3 N3'
_chemical_name_systematic        
11-(trifluoromethyl)benzimidazo[1,2-a][1,10]phenanthroline
_symmetry_cell_setting           monoclinic
_symmetry_space_group_name_H-M   'P 21/c'
_symmetry_Int_Tables_number      14
_space_group_name_Hall           '-P 2ybc'
loop_
_symmetry_equiv_pos_site_id
_symmetry_equiv_pos_as_xyz
1 x,y,z
2 -x,1/2+y,1/2-z
3 -x,-y,-z
4 x,1/2-y,1/2+z
_cell_length_a                   15.7235(4)
_cell_length_b                   7.2386(2)
_cell_length_c                   25.4616(7)
_cell_angle_alpha                90
_cell_angle_beta                 96.401(3)
_cell_angle_gamma                90
_cell_volume                     2879.87
_exptl_crystal_colour            yellow
_exptl_crystal_description       plate
_cell_formula_units_Z            8
loop_
_atom_site_label
_atom_site_type_symbol
_atom_site_fract_x
_atom_site_fract_y
_atom_site_fract_z
F1 F 0.79995(8) 1.0266(2) 0.91949(5)
F2 F 0.71076(9) 0.8079(2) 0.92743(5)
F3 F 0.67248(9) 1.0899(2) 0.93678(5)
N1 N 0.58593(10) 0.9939(2) 0.69378(6)
N2 N 0.75178(10) 0.9649(2) 0.65877(7)
N3 N 0.50720(11) 1.1257(2) 0.75387(7)
C1 C 0.68194(12) 0.9121(3) 0.62577(8)
C2 C 0.63497(12) 0.9805(3) 0.74311(8)
C3 C 0.71098(12) 0.8897(3) 0.76142(8)
H1 H 0.7436 0.8261 0.7379
C4 C 0.59868(12) 0.9401(3) 0.64231(8)
C5 C 0.73689(12) 0.8958(3) 0.81493(8)
H2 H 0.7887 0.8366 0.8283
C6 C 0.68837(13) 0.9877(3) 0.85016(8)
C7 C 0.68843(13) 0.8454(3) 0.57384(8)
C8 C 0.58500(12) 1.0674(3) 0.77863(8)
C9 C 0.61168(13) 1.0719(3) 0.83265(8)
H3 H 0.5782 1.1309 0.8566
C10 C 0.53548(13) 0.8590(3) 0.55352(8)
H4 H 0.4859 0.8438 0.5289
C11 C 0.52636(13) 0.9285(3) 0.60482(8)
C12 C 0.71756(13) 0.9796(3) 0.90768(8)
C13 C 0.61295(13) 0.8138(3) 0.53877(8)
H5 H 0.6169 0.7610 0.5050
C14 C 0.50818(12) 1.0754(3) 0.70432(8)
C15 C 0.82772(13) 0.9446(3) 0.64216(8)
H6 H 0.8766 0.9816 0.6651
C16 C 0.43766(13) 1.0781(3) 0.66396(8)
H7 H 0.3854 1.1355 0.6703
C17 C 0.77124(13) 0.8223(3) 0.55860(8)
H8 H 0.7785 0.7727 0.5248
C18 C 0.84077(13) 0.8713(3) 0.59252(8)
H9 H 0.8970 0.8563 0.5828
C19 C 0.44537(13) 0.9992(3) 0.61709(8)
H10 H 0.3966 0.9899 0.5916
F4 F 0.78650(8) 0.44539(19) 0.94316(5)
F5 F 0.91629(9) 0.3450(2) 0.95090(5)
F6 F 0.89222(9) 0.63750(19) 0.95243(5)
N4 N 0.89663(10) 0.5057(2) 0.71054(6)
N5 N 1.00642(10) 0.6129(2) 0.76926(7)
N6 N 0.71581(10) 0.4881(2) 0.67916(7)
C20 C 0.79871(12) 0.4112(3) 0.78149(8)
H11 H 0.7531 0.3583 0.7588
C21 C 0.86948(12) 0.4903(3) 0.76126(8)
C22 C 0.86104(12) 0.4568(3) 0.65923(8)
C23 C 0.98118(12) 0.5733(3) 0.71944(8)
C24 C 0.86526(13) 0.4869(3) 0.86982(8)
C25 C 0.79760(13) 0.4129(3) 0.83577(8)
H12 H 0.7496 0.3625 0.8504
C26 C 0.77062(12) 0.4342(3) 0.64452(8)
C27 C 0.93644(13) 0.5609(3) 0.85036(8)
H13 H 0.9825 0.6103 0.8734
C28 C 0.74203(13) 0.3701(3) 0.59289(8)
C29 C 0.91632(13) 0.4438(3) 0.61997(8)
C30 C 0.93854(12) 0.5609(3) 0.79580(8)
C31 C 1.03330(13) 0.5768(3) 0.67726(8)
H14 H 1.0890 0.6293 0.6824
C32 C 0.59828(13) 0.3994(3) 0.61517(9)
H15 H 0.5382 0.3856 0.6069
C33 C 0.65283(13) 0.3498(3) 0.57958(8)
H16 H 0.6310 0.3018 0.5460
C34 C 0.63269(13) 0.4713(3) 0.66432(9)
H17 H 0.5941 0.5100 0.6883
C35 C 0.88517(14) 0.3784(3) 0.56890(8)
H18 H 0.9239 0.3634 0.5432
C36 C 0.80119(14) 0.3368(3) 0.55595(8)
H19 H 0.7823 0.2857 0.5223
C37 C 0.86465(14) 0.4787(3) 0.92845(9)
C38 C 1.00336(13) 0.5057(3) 0.63032(8)
H20 H 1.0403 0.4959 0.6034
loop_
_geom_bond_atom_site_label_1
_geom_bond_atom_site_label_2
_geom_bond_site_symmetry_1
_geom_bond_site_symmetry_2
F1 C12 1_555 1_555
F2 C12 1_555 1_555
F3 C12 1_555 1_555
N1 C2 1_555 1_555
N2 C1 1_555 1_555
N3 C8 1_555 1_555
C1 C4 1_555 1_555
C2 C3 1_555 1_555
C3 H1 1_555 1_555
C4 N1 1_555 1_555
C5 C3 1_555 1_555
H2 C5 1_555 1_555
C6 C5 1_555 1_555
C7 C1 1_555 1_555
C8 C2 1_555 1_555
C9 C6 1_555 1_555
H3 C9 1_555 1_555
C10 H4 1_555 1_555
C11 C4 1_555 1_555
C12 C6 1_555 1_555
C13 C7 1_555 1_555
H5 C13 1_555 1_555
C14 N1 1_555 1_555
C15 N2 1_555 1_555
H6 C15 1_555 1_555
C16 C14 1_555 1_555
H7 C16 1_555 1_555
C17 C7 1_555 1_555
H8 C17 1_555 1_555
C18 C15 1_555 1_555
H9 C18 1_555 1_555
C19 C11 1_555 1_555
H10 C19 1_555 1_555
F4 C37 1_555 1_555
F5 C37 1_555 1_555
F6 C37 1_555 1_555
N4 C21 1_555 1_555
N5 C23 1_555 1_555
N6 C26 1_555 1_555
C20 H11 1_555 1_555
C21 C20 1_555 1_555
C22 N4 1_555 1_555
C23 N4 1_555 1_555
C24 C25 1_555 1_555
C25 C20 1_555 1_555
H12 C25 1_555 1_555
C26 C22 1_555 1_555
C27 C24 1_555 1_555
H13 C27 1_555 1_555
C28 C26 1_555 1_555
C29 C22 1_555 1_555
C30 N5 1_555 1_555
C31 C23 1_555 1_555
H14 C31 1_555 1_555
C32 H15 1_555 1_555
C33 C28 1_555 1_555
H16 C33 1_555 1_555
C34 N6 1_555 1_555
H17 C34 1_555 1_555
C35 C29 1_555 1_555
H18 C35 1_555 1_555
C36 C28 1_555 1_555
H19 C36 1_555 1_555
C37 C24 1_555 1_555
C38 C29 1_555 1_555
H20 C38 1_555 1_555
N3 C14 1_555 1_555
C8 C9 1_555 1_555
C10 C11 1_555 1_555
C10 C13 1_555 1_555
C16 C19 1_555 1_555
C17 C18 1_555 1_555
C21 C30 1_555 1_555
C27 C30 1_555 1_555
C31 C38 1_555 1_555
C32 C33 1_555 1_555
C32 C34 1_555 1_555
C35 C36 1_555 1_555

#END
