
#######################################################################
#
#                 Cambridge Crystallographic Data Centre
#                                CCDC 
#
#######################################################################
#
# If this CIF has been generated from an entry in the Cambridge 
# Structural Database, then it will include bibliographic, chemical, 
# crystal, experimental, refinement or atomic coordinate data resulting 
# from the CCDC's data processing and validation procedures.
#
#######################################################################

data_UCAWEC
_chemical_formula_moiety         'C18 H20 O4'
_chemical_name_systematic        
'Methyl 4-(2-methyl-4-oxo-1-oxaspiro[4.5]dec-2-en-3-yl)benzoate'
_symmetry_cell_setting           triclinic
_symmetry_space_group_name_H-M   'P -1'
_symmetry_Int_Tables_number      2
_space_group_name_Hall           '-P 1'
loop_
_symmetry_equiv_pos_site_id
_symmetry_equiv_pos_as_xyz
1 x,y,z
2 -x,-y,-z
_cell_length_a                   6.7081(13)
_cell_length_b                   11.086(2)
_cell_length_c                   11.437(2)
_cell_angle_alpha                71.59(3)
_cell_angle_beta                 75.66(3)
_cell_angle_gamma                81.70(3)
_cell_volume                     779.825
_exptl_crystal_colour            colorless
_exptl_crystal_description       block
_cell_formula_units_Z            2
loop_
_atom_site_label
_atom_site_type_symbol
_atom_site_fract_x
_atom_site_fract_y
_atom_site_fract_z
O1 O -0.5329(4) 0.4162(3) 0.4055(2)
O2 O -0.4469(4) 0.5553(3) 0.2162(3)
O3 O 0.6936(3) 0.0932(2) 0.1434(2)
O4 O 0.2834(4) -0.0376(2) 0.3887(3)
C1 C 0.9230(7) -0.2269(4) 0.2088(5)
H1 H 1.0567 -0.2584 0.1690
H2 H 0.8558 -0.2988 0.2723
C2 C 0.9523(6) -0.1305(4) 0.2719(4)
H3 H 1.0306 -0.1718 0.3365
H4 H 1.0304 -0.0624 0.2097
C3 C 0.7458(6) -0.0748(4) 0.3312(4)
H5 H 0.6772 -0.1409 0.4018
H6 H 0.7695 -0.0083 0.3635
C4 C 0.6073(5) -0.0200(3) 0.2387(3)
C5 C 0.5846(6) -0.1151(3) 0.1713(4)
H7 H 0.5074 -0.1848 0.2314
H8 H 0.5075 -0.0731 0.1063
C6 C 0.7951(7) -0.1685(4) 0.1114(4)
H9 H 0.7757 -0.2324 0.0745
H10 H 0.8666 -0.1005 0.0447
C7 C -0.7368(6) 0.4804(4) 0.4206(4)
H11 H -0.7271 0.5666 0.4187
H12 H -0.8203 0.4366 0.5000
H13 H -0.7986 0.4806 0.3533
C8 C -0.4009(6) 0.4626(3) 0.2976(3)
C9 C -0.1997(5) 0.3890(3) 0.2862(3)
C10 C -0.0473(5) 0.4294(3) 0.1791(3)
H14 H -0.0704 0.5058 0.1186
C11 C 0.1370(6) 0.3593(3) 0.1602(3)
H15 H 0.2359 0.3884 0.0868
C12 C 0.1786(5) 0.2454(3) 0.2489(3)
C13 C 0.0269(6) 0.2068(3) 0.3581(3)
H16 H 0.0512 0.1320 0.4203
C14 C -0.1601(5) 0.2781(3) 0.3759(3)
H17 H -0.2596 0.2502 0.4494
C15 C 0.6230(6) 0.3116(3) 0.0490(4)
H18 H 0.7704 0.3097 0.0347
H19 H 0.5617 0.3826 0.0798
H20 H 0.5839 0.3204 -0.0287
C16 C 0.5505(5) 0.1921(3) 0.1431(3)
C17 C 0.3696(5) 0.1635(3) 0.2293(3)
C18 C 0.3981(5) 0.0297(3) 0.2983(3)
loop_
_geom_bond_atom_site_label_1
_geom_bond_atom_site_label_2
_geom_bond_site_symmetry_1
_geom_bond_site_symmetry_2
O1 C7 1_555 1_555
O2 C8 1_555 1_555
O3 C4 1_555 1_555
O4 C18 1_555 1_555
C1 H1 1_555 1_555
H2 C1 1_555 1_555
C2 C1 1_555 1_555
H3 C2 1_555 1_555
H4 C2 1_555 1_555
C3 C2 1_555 1_555
H5 C3 1_555 1_555
H6 C3 1_555 1_555
C4 C3 1_555 1_555
C5 C4 1_555 1_555
H7 C5 1_555 1_555
H8 C5 1_555 1_555
C6 C1 1_555 1_555
H9 C6 1_555 1_555
H10 C6 1_555 1_555
C7 H11 1_555 1_555
H12 C7 1_555 1_555
H13 C7 1_555 1_555
C8 O1 1_555 1_555
C9 C8 1_555 1_555
C10 C9 1_555 1_555
H14 C10 1_555 1_555
C11 C10 1_555 1_555
H15 C11 1_555 1_555
C12 C11 1_555 1_555
C13 C12 1_555 1_555
H16 C13 1_555 1_555
C14 C9 1_555 1_555
H17 C14 1_555 1_555
C15 H18 1_555 1_555
H19 C15 1_555 1_555
H20 C15 1_555 1_555
C16 O3 1_555 1_555
C17 C12 1_555 1_555
C18 C4 1_555 1_555
C5 C6 1_555 1_555
C13 C14 1_555 1_555
C15 C16 1_555 1_555
C16 C17 1_555 1_555
C17 C18 1_555 1_555

#END
