
#######################################################################
#
#                 Cambridge Crystallographic Data Centre
#                                CCDC 
#
#######################################################################
#
# If this CIF has been generated from an entry in the Cambridge 
# Structural Database, then it will include bibliographic, chemical, 
# crystal, experimental, refinement or atomic coordinate data resulting 
# from the CCDC's data processing and validation procedures.
#
#######################################################################

data_UCAXIH
_chemical_formula_moiety         'C14 H20 N1 O3 S1 1+,Cl1 1-'
_chemical_name_systematic        
'3-Benzyl-5-(2-oxopropyl)thiomorpholin-4-ium 1,1-dioxide chloride'
_symmetry_cell_setting           monoclinic
_symmetry_space_group_name_H-M   'C 2'
_symmetry_Int_Tables_number      5
_space_group_name_Hall           'C 2y'
loop_
_symmetry_equiv_pos_site_id
_symmetry_equiv_pos_as_xyz
1 x,y,z
2 -x,y,-z
3 1/2+x,1/2+y,z
4 1/2-x,1/2+y,-z
_cell_length_a                   23.5483(11)
_cell_length_b                   5.9268(3)
_cell_length_c                   11.3734(5)
_cell_angle_alpha                90
_cell_angle_beta                 104.050(3)
_cell_angle_gamma                90
_cell_volume                     1539.85
_exptl_crystal_colour            colorless
_exptl_crystal_description       needle
_cell_formula_units_Z            4
loop_
_atom_site_label
_atom_site_type_symbol
_atom_site_fract_x
_atom_site_fract_y
_atom_site_fract_z
S1 S 0.682362(19) 0.82001(8) 0.05847(4)
O1 O 0.66724(6) 1.0444(3) 0.01164(12)
O2 O 0.67946(6) 0.6387(3) -0.02692(12)
O3 O 0.83277(6) 0.2272(3) 0.33330(14)
N1 N 0.72236(6) 0.5697(3) 0.30681(13)
H1 H 0.7326(10) 0.452(4) 0.354(2)
H2 H 0.7267(9) 0.688(4) 0.360(2)
C1 C 0.5160(2) 0.6407(4) 0.2450(4)
H3 H 0.5275 0.7913 0.2676
C2 C 0.45842(18) 0.5944(5) 0.1844(4)
H4 H 0.4306 0.7133 0.1656
C3 C 0.44154(11) 0.3741(7) 0.1514(3)
H5 H 0.4022 0.3424 0.1100
C4 C 0.48218(12) 0.2001(5) 0.1789(3)
H6 H 0.4706 0.0495 0.1563
C5 C 0.53971(11) 0.2464(5) 0.2395(3)
H7 H 0.5675 0.1275 0.2583
C6 C 0.55660(14) 0.4667(6) 0.2725(3)
C7 C 0.62145(7) 0.5093(3) 0.32717(17)
H8 H 0.6373 0.3807 0.3807
H9 H 0.6252 0.6458 0.3787
C8 C 0.65953(7) 0.5413(4) 0.23633(15)
H10 H 0.6562 0.4053 0.1831
C9 C 0.63855(7) 0.7502(3) 0.15857(16)
H11 H 0.6378 0.8803 0.2128
H12 H 0.5980 0.7238 0.1109
C10 C 0.75250(7) 0.8249(4) 0.15773(15)
H13 H 0.7822 0.8478 0.1103
H14 H 0.7551 0.9536 0.2143
C11 C 0.76605(7) 0.6059(3) 0.23069(16)
H15 H 0.7644 0.4757 0.1741
C12 C 0.82792(8) 0.6275(3) 0.31167(17)
H16 H 0.8529 0.7031 0.2649
H17 H 0.8265 0.7263 0.3811
C13 C 0.85650(8) 0.4074(4) 0.36024(18)
C14 C 0.91724(8) 0.4300(4) 0.4409(2)
H18 H 0.9346 0.2799 0.4589
H19 H 0.9152 0.5045 0.5167
H20 H 0.9414 0.5202 0.3997
Cl1 Cl 0.709324(19) 0.04725(8) 0.41040(4)
C15? C 0.5133(2) 0.5823(6) 0.2739(4)
C16? C 0.4558(2) 0.5349(7) 0.2135(4)
C17? C 0.44379(12) 0.3568(8) 0.1318(4)
C18? C 0.48924(14) 0.2260(6) 0.1104(3)
C19? C 0.54674(12) 0.2734(6) 0.1708(3)
C20? C 0.55878(16) 0.4515(7) 0.2525(3)
H21? H 0.5216 0.7041 0.3298
H22? H 0.4248 0.6243 0.2282
H23? H 0.4045 0.3244 0.0905
H24? H 0.4810 0.1042 0.0545
H25? H 0.5778 0.1840 0.1561
H26? H 0.6210 0.6493 0.3744
H27? H 0.6371 0.3853 0.3842
loop_
_geom_bond_atom_site_label_1
_geom_bond_atom_site_label_2
_geom_bond_site_symmetry_1
_geom_bond_site_symmetry_2
S1 O1 1_555 1_555
O2 S1 1_555 1_555
O3 C13 1_555 1_555
N1 H1 1_555 1_555
H2 N1 1_555 1_555
C1 H3 1_555 1_555
C2 C1 1_555 1_555
H4 C2 1_555 1_555
C3 C2 1_555 1_555
H5 C3 1_555 1_555
C4 C3 1_555 1_555
H6 C4 1_555 1_555
C5 C4 1_555 1_555
H7 C5 1_555 1_555
C6 C1 1_555 1_555
C7 C6 1_555 1_555
H8 C7 1_555 1_555
H9 C7 1_555 1_555
C8 N1 1_555 1_555
H10 C8 1_555 1_555
C9 S1 1_555 1_555
H11 C9 1_555 1_555
H12 C9 1_555 1_555
C10 S1 1_555 1_555
H13 C10 1_555 1_555
H14 C10 1_555 1_555
C11 N1 1_555 1_555
H15 C11 1_555 1_555
C12 C11 1_555 1_555
H16 C12 1_555 1_555
H17 C12 1_555 1_555
C13 C12 1_555 1_555
C14 C13 1_555 1_555
H18 C14 1_555 1_555
H19 C14 1_555 1_555
H20 C14 1_555 1_555
C5 C6 1_555 1_555
C7 C8 1_555 1_555
C8 C9 1_555 1_555
C10 C11 1_555 1_555

#END
