
#######################################################################
#
#                 Cambridge Crystallographic Data Centre
#                                CCDC 
#
#######################################################################
#
# If this CIF has been generated from an entry in the Cambridge 
# Structural Database, then it will include bibliographic, chemical, 
# crystal, experimental, refinement or atomic coordinate data resulting 
# from the CCDC's data processing and validation procedures.
#
#######################################################################

data_UCAXED
_chemical_formula_moiety         'C16 H22 N2 O4'
_chemical_name_systematic        
4-Benzyl-8-methyl-7-nitro-octahydropyrido[2,1-c][1,4]oxazin-8-ol
_symmetry_cell_setting           monoclinic
_symmetry_space_group_name_H-M   'P 21'
_symmetry_Int_Tables_number      4
_space_group_name_Hall           'P 2yb'
loop_
_symmetry_equiv_pos_site_id
_symmetry_equiv_pos_as_xyz
1 x,y,z
2 -x,1/2+y,-z
_cell_length_a                   10.2144(8)
_cell_length_b                   5.5884(4)
_cell_length_c                   13.5096(11)
_cell_angle_alpha                90
_cell_angle_beta                 98.294(4)
_cell_angle_gamma                90
_cell_volume                     763.091
_exptl_crystal_colour            colorless
_exptl_crystal_description       needle
_cell_formula_units_Z            2
loop_
_atom_site_label
_atom_site_type_symbol
_atom_site_fract_x
_atom_site_fract_y
_atom_site_fract_z
O1 O 0.10420(11) 0.6487(2) 0.92185(8)
O2 O -0.16312(11) 0.85235(19) 0.55127(8)
O3 O -0.32747(10) 0.3043(2) 0.45423(8)
O4 O -0.12818(10) 0.3993(2) 0.43298(7)
N1 N -0.01544(11) 0.4356(2) 0.74078(9)
N2 N -0.21598(11) 0.3703(2) 0.48608(9)
C1 C 0.43935(16) 0.5488(3) 0.86727(12)
H1 H 0.4024 0.6941 0.8870
C2 C 0.56387(17) 0.4768(4) 0.91338(13)
H2 H 0.6115 0.5741 0.9639
C3 C 0.61822(16) 0.2666(4) 0.88646(14)
H3 H 0.7030 0.2177 0.9183
C4 C 0.54856(16) 0.1262(3) 0.81245(13)
H4 H 0.5859 -0.0195 0.7935
C5 C 0.42420(16) 0.1971(3) 0.76568(12)
H5 H 0.3772 0.0992 0.7151
C6 C 0.36844(14) 0.4095(3) 0.79237(11)
C7 C 0.23257(14) 0.4873(3) 0.74304(11)
H6 H 0.2237 0.4517 0.6706
H7 H 0.2244 0.6626 0.7507
C8 C 0.11891(14) 0.3632(3) 0.78712(11)
H8 H 0.1273 0.1872 0.7761
C9 C 0.12603(16) 0.4035(3) 0.89951(11)
H9 H 0.0586 0.3032 0.9253
H10 H 0.2141 0.3536 0.9336
C10 C -0.02486(15) 0.7171(3) 0.87664(11)
H11 H -0.0398 0.8871 0.8924
H12 H -0.0911 0.6200 0.9055
C11 C -0.04533(14) 0.6846(3) 0.76360(11)
H13 H 0.0149 0.7947 0.7330
C12 C -0.18863(14) 0.7425(3) 0.72301(11)
H14 H -0.2048 0.9137 0.7356
H15 H -0.2468 0.6476 0.7607
C13 C -0.22788(14) 0.6925(3) 0.61072(11)
C14 C -0.18501(14) 0.4309(3) 0.59555(10)
H16 H -0.2376 0.3228 0.6338
C15 C -0.03859(13) 0.3919(3) 0.63257(10)
H17 H -0.0131 0.2260 0.6181
H18 H 0.0154 0.5031 0.5982
C16 C -0.37495(14) 0.7347(3) 0.58038(12)
H19 H -0.3973 0.8976 0.5990
H20 H -0.4250 0.6193 0.6146
H21 H -0.3975 0.7147 0.5079
H22 H -0.088(2) 0.823(5) 0.5625(17)
loop_
_geom_bond_atom_site_label_1
_geom_bond_atom_site_label_2
_geom_bond_site_symmetry_1
_geom_bond_site_symmetry_2
O1 C9 1_555 1_555
O2 C13 1_555 1_555
O3 N2 1_555 1_555
O4 N2 1_555 1_555
N1 C8 1_555 1_555
N2 C14 1_555 1_555
C1 H1 1_555 1_555
C2 C1 1_555 1_555
H2 C2 1_555 1_555
C3 C2 1_555 1_555
H3 C3 1_555 1_555
C4 C3 1_555 1_555
H4 C4 1_555 1_555
C5 C4 1_555 1_555
H5 C5 1_555 1_555
C6 C1 1_555 1_555
C7 C6 1_555 1_555
H6 C7 1_555 1_555
H7 C7 1_555 1_555
C8 C7 1_555 1_555
H8 C8 1_555 1_555
C9 C8 1_555 1_555
H9 C9 1_555 1_555
H10 C9 1_555 1_555
C10 O1 1_555 1_555
H11 C10 1_555 1_555
H12 C10 1_555 1_555
C11 N1 1_555 1_555
H13 C11 1_555 1_555
C12 C11 1_555 1_555
H14 C12 1_555 1_555
H15 C12 1_555 1_555
C13 C12 1_555 1_555
C14 C13 1_555 1_555
H16 C14 1_555 1_555
C15 N1 1_555 1_555
H17 C15 1_555 1_555
H18 C15 1_555 1_555
C16 C13 1_555 1_555
H19 C16 1_555 1_555
H20 C16 1_555 1_555
H21 C16 1_555 1_555
H22 O2 1_555 1_555
C5 C6 1_555 1_555
C10 C11 1_555 1_555
C14 C15 1_555 1_555

#END
