
#######################################################################
#
#                 Cambridge Crystallographic Data Centre
#                                CCDC 
#
#######################################################################
#
# If this CIF has been generated from an entry in the Cambridge 
# Structural Database, then it will include bibliographic, chemical, 
# crystal, experimental, refinement or atomic coordinate data resulting 
# from the CCDC's data processing and validation procedures.
#
#######################################################################

data_UCAYOO
_chemical_formula_moiety         'C21 H24 N2 O4'
_chemical_name_systematic        
N-(3-Benzoyl-1-nitro-4-phenylhexan-2-yl)acetamide
_symmetry_cell_setting           rhombohedral
_symmetry_space_group_name_H-M   'R 3'
_symmetry_Int_Tables_number      146
_space_group_name_Hall           'R 3'
loop_
_symmetry_equiv_pos_site_id
_symmetry_equiv_pos_as_xyz
1 x,y,z
2 -y,x-y,z
3 -x+y,-x,z
4 2/3+x,1/3+y,1/3+z
5 2/3-y,1/3+x-y,1/3+z
6 2/3-x+y,1/3-x,1/3+z
7 1/3+x,2/3+y,2/3+z
8 1/3-y,2/3+x-y,2/3+z
9 1/3-x+y,2/3-x,2/3+z
_cell_length_a                   19.502(9)
_cell_length_b                   19.502(9)
_cell_length_c                   13.648(13)
_cell_angle_alpha                90
_cell_angle_beta                 90
_cell_angle_gamma                120
_cell_volume                     4495.29
_exptl_crystal_colour            colorless
_exptl_crystal_description       block
_cell_formula_units_Z            9
loop_
_atom_site_label
_atom_site_type_symbol
_atom_site_fract_x
_atom_site_fract_y
_atom_site_fract_z
C1 C 0.5254(3) 0.0606(3) 1.0936(4)
H1 H 0.5174 0.0098 1.0856
C2 C 0.4932(4) 0.0772(4) 1.1721(5)
H2 H 0.4648 0.0378 1.2180
C3 C 0.5018(4) 0.1498(5) 1.1847(5)
H3 H 0.4774 0.1595 1.2371
C4 C 0.5469(4) 0.2092(5) 1.1194(6)
H4 H 0.5552 0.2601 1.1285
C5 C 0.5797(3) 0.1917(3) 1.0396(4)
H5 H 0.6094 0.2312 0.9943
C6 C 0.5697(3) 0.1182(3) 1.0261(4)
C7 C 0.6018(3) 0.0972(3) 0.9354(4)
H6 H 0.6344 0.1461 0.8985
C8 C 0.5313(3) 0.0413(3) 0.8703(4)
H7 H 0.4968 -0.0056 0.9095
C9 C 0.5567(4) 0.0133(3) 0.7803(4)
C10 C 0.5203(3) -0.0731(3) 0.7611(5)
C11 C 0.5184(3) -0.0974(4) 0.6656(5)
H8 H 0.5386 -0.0595 0.6162
C12 C 0.4880(5) -0.1746(5) 0.6418(7)
H9 H 0.4873 -0.1896 0.5769
C13 C 0.4591(4) -0.2292(5) 0.7130(8)
H10 H 0.4361 -0.2825 0.6967
C14 C 0.4628(4) -0.2082(4) 0.8086(7)
H11 H 0.4455 -0.2468 0.8571
C15 C 0.4928(4) -0.1280(4) 0.8347(5)
H12 H 0.4938 -0.1131 0.8996
C16 C 0.6541(3) 0.0621(3) 0.9625(4)
H13 H 0.6218 0.0118 0.9955
H14 H 0.6744 0.0516 0.9029
C17 C 0.7223(3) 0.1146(4) 1.0274(5)
H15 H 0.7027 0.1222 1.0886
H16 H 0.7540 0.1649 0.9960
H17 H 0.7540 0.0904 1.0392
C18 C 0.4814(3) 0.0789(3) 0.8377(3)
H18 H 0.4679 0.0986 0.8963
C19 C 0.3461(3) -0.0355(3) 0.8411(5)
C20 C 0.2753(3) -0.0930(3) 0.7830(4)
H19 H 0.2285 -0.1112 0.8222
H20 H 0.2812 -0.1372 0.7644
H21 H 0.2709 -0.0673 0.7253
C21 C 0.5270(3) 0.1491(3) 0.7673(4)
H22 H 0.5833 0.1727 0.7791
H23 H 0.5166 0.1301 0.7003
N1 N 0.4073(2) 0.0197(2) 0.7912(3)
H24 H 0.4033 0.0208 0.7285
N2 N 0.5041(5) 0.2085(4) 0.7798(7)
O1 O 0.6021(3) 0.0604(3) 0.7226(3)
O2 O 0.3497(2) -0.0393(2) 0.9314(3)
O3 O 0.4615(4) 0.2094(4) 0.8364(6)
O4 O 0.5277(6) 0.2567(5) 0.7186(8)
loop_
_geom_bond_atom_site_label_1
_geom_bond_atom_site_label_2
_geom_bond_site_symmetry_1
_geom_bond_site_symmetry_2
C1 H1 1_555 1_555
C2 C1 1_555 1_555
H2 C2 1_555 1_555
C3 C2 1_555 1_555
H3 C3 1_555 1_555
C4 C3 1_555 1_555
H4 C4 1_555 1_555
C5 C4 1_555 1_555
H5 C5 1_555 1_555
C6 C1 1_555 1_555
C7 C6 1_555 1_555
H6 C7 1_555 1_555
C8 C7 1_555 1_555
H7 C8 1_555 1_555
C9 C8 1_555 1_555
C10 C9 1_555 1_555
C11 C10 1_555 1_555
H8 C11 1_555 1_555
C12 C11 1_555 1_555
H9 C12 1_555 1_555
C13 C12 1_555 1_555
H10 C13 1_555 1_555
C14 C13 1_555 1_555
H11 C14 1_555 1_555
C15 C10 1_555 1_555
H12 C15 1_555 1_555
C16 C7 1_555 1_555
H13 C16 1_555 1_555
H14 C16 1_555 1_555
C17 C16 1_555 1_555
H15 C17 1_555 1_555
H16 C17 1_555 1_555
H17 C17 1_555 1_555
C18 C8 1_555 1_555
H18 C18 1_555 1_555
C19 C20 1_555 1_555
C20 H19 1_555 1_555
H20 C20 1_555 1_555
H21 C20 1_555 1_555
C21 C18 1_555 1_555
H22 C21 1_555 1_555
H23 C21 1_555 1_555
N1 C18 1_555 1_555
H24 N1 1_555 1_555
N2 C21 1_555 1_555
O1 C9 1_555 1_555
O2 C19 1_555 1_555
O3 N2 1_555 1_555
O4 N2 1_555 1_555
C5 C6 1_555 1_555
C14 C15 1_555 1_555
C19 N1 1_555 1_555

#END
