
#######################################################################
#
#                 Cambridge Crystallographic Data Centre
#                                CCDC 
#
#######################################################################
#
# If this CIF has been generated from an entry in the Cambridge 
# Structural Database, then it will include bibliographic, chemical, 
# crystal, experimental, refinement or atomic coordinate data resulting 
# from the CCDC's data processing and validation procedures.
#
#######################################################################

data_UCAYIH02
_chemical_formula_moiety         'C22 H20 O2'
_chemical_name_systematic        
trans-1,4-bis(phenylethynyl)cyclohexane-1,4-diol
_symmetry_cell_setting           triclinic
_symmetry_space_group_name_H-M   'P -1'
_symmetry_Int_Tables_number      2
_space_group_name_Hall           '-P 1'
loop_
_symmetry_equiv_pos_site_id
_symmetry_equiv_pos_as_xyz
1 x,y,z
2 -x,-y,-z
_cell_length_a                   17.6377(8)
_cell_length_b                   18.8315(9)
_cell_length_c                   23.3591(11)
_cell_angle_alpha                78.402(2)
_cell_angle_beta                 88.367(2)
_cell_angle_gamma                67.611(2)
_cell_volume                     7017.36
_exptl_crystal_colour            colorless
_exptl_crystal_description       block
_chemical_melting_point          '456 K'
_cell_formula_units_Z            16
_exptl_crystal_recrystallization_method acetone
loop_
_atom_site_label
_atom_site_type_symbol
_atom_site_fract_x
_atom_site_fract_y
_atom_site_fract_z
O1 O -0.1774(8) 0.3358(7) 0.3160(5)
O2 O -0.3097(7) 0.6426(7) 0.1826(4)
C1 C -0.3357(5) 0.6284(5) 0.3294(4)
C2 C -0.1734(6) 0.3746(6) 0.2140(4)
C3 C -0.1603(5) 0.4612(6) 0.2785(4)
C4 C -0.1996(5) 0.4035(5) 0.2689(3)
C5 C -0.2871(5) 0.5772(5) 0.2304(3)
C6 C -0.3138(5) 0.6052(5) 0.2853(3)
C7 C -0.1496(5) 0.3522(5) 0.1687(4)
C8 C -0.3558(6) 0.6576(6) 0.3828(4)
C9 C -0.0533(6) 0.3294(6) 0.0251(4)
C10 C -0.2943(6) 0.4441(6) 0.2678(4)
C11 C -0.3273(6) 0.5203(6) 0.2210(4)
C12 C -0.0719(5) 0.3530(5) 0.0795(3)
C13 C -0.1265(6) 0.3287(6) 0.1144(4)
C14 C -0.1932(5) 0.5373(5) 0.2316(4)
C16 C -0.3221(6) 0.7134(6) 0.4579(4)
C17 C -0.3030(6) 0.6848(6) 0.4056(4)
C18 C -0.4257(6) 0.6534(5) 0.4123(4)
C23 C -0.1582(6) 0.2747(6) 0.0968(4)
C29 C -0.3921(5) 0.7111(5) 0.4871(4)
C32 C -0.0883(6) 0.2826(6) 0.0074(4)
C37 C -0.1396(6) 0.2544(6) 0.0435(4)
C39 C -0.4441(6) 0.6817(6) 0.4642(4)
H18 H -0.1740(9) 0.4703(9) 0.3232(6)
H25 H -0.3923(13) 0.5444(13) 0.2193(9)
H36 H -0.1789(12) 0.5265(12) 0.1889(8)
H37 H -0.3110(13) 0.4581(13) 0.3111(9)
H40 H -0.0906(12) 0.4331(12) 0.2788(8)
H41 H -0.1667(12) 0.5798(12) 0.2446(9)
H42 H -0.3679(13) 0.6687(12) 0.1777(8)
H59 H -0.0436(13) 0.3912(14) 0.0925(9)
H71 H -0.4062(13) 0.7341(13) 0.5264(9)
H74 H -0.3210(11) 0.4036(11) 0.2606(8)
H87 H -0.3158(11) 0.5146(11) 0.1748(7)
H97 H -0.1923(14) 0.2551(14) 0.1234(10)
H108 H -0.0126(11) 0.3481(11) -0.0017(7)
H115 H -0.4681(13) 0.6363(13) 0.3925(9)
H136 H -0.2527(14) 0.6865(14) 0.3863(9)
H142 H -0.4963(13) 0.6755(13) 0.4859(9)
H143 H -0.1180(11) 0.3055(11) 0.3166(7)
H144 H -0.0699(12) 0.2624(12) -0.0342(8)
H151 H -0.2849(15) 0.7321(15) 0.4761(10)
H152 H -0.1612(14) 0.2124(14) 0.0291(10)
O3 O 0.4766(7) 0.2382(7) 1.3421(4)
O4 O 0.7746(6) 0.2532(7) 1.4097(4)
C15 C 0.5472(6) 0.2573(6) 1.3420(4)
C19 C 0.5517(6) 0.3061(6) 1.2847(4)
C20 C 0.5562(6) 0.3413(6) 1.2349(4)
C21 C 0.5459(6) 0.3040(6) 1.3902(4)
C22 C 0.6216(5) 0.1828(6) 1.3528(4)
C24 C 0.6207(6) 0.1523(6) 1.6690(4)
C25 C 0.7012(6) 0.0178(6) 1.6577(4)
C26 C 0.6770(5) 0.1283(5) 1.5755(4)
C27 C 0.6258(5) 0.3162(5) 1.3963(4)
C28 C 0.7043(5) 0.1924(6) 1.3600(4)
C30 C 0.7114(6) 0.0455(6) 1.6004(4)
C31 C 0.6970(6) 0.1918(7) 1.4677(4)
C33 C 0.6880(6) 0.1599(6) 1.5157(4)
C34 C 0.6309(6) 0.1846(7) 1.6103(4)
C35 C 0.5583(6) 0.3844(6) 1.1774(4)
C36 C 0.6552(6) 0.0685(6) 1.6936(4)
C38 C 0.7016(5) 0.2372(6) 1.4093(4)
C40 C 0.6343(6) 0.3745(7) 1.1552(4)
C41 C 0.4876(7) 0.4433(6) 1.1481(4)
H1 H 0.4345(15) 0.4500(13) 1.1634(9)
C42 C 0.6417(7) 0.4133(7) 1.0974(4)
C43 C 0.4943(7) 0.4815(7) 1.0909(5)
C44 C 0.5693(6) 0.4678(7) 1.0681(5)
H14 H 0.4931(13) 0.3556(13) 1.3821(8)
H24 H 0.5350(11) 0.2676(12) 1.4298(8)
H31 H 0.6349(16) 0.3554(15) 1.3565(11)
H32 H 0.7131(12) 0.2234(12) 1.3189(8)
H33 H 0.7526(13) 0.1354(13) 1.3692(9)
H38 H 0.6242(11) 0.1472(11) 1.3165(8)
H61 H 0.4292(12) 0.2905(12) 1.3337(8)
H67 H 0.7470(12) 0.0045(12) 1.5721(8)
H80 H 0.6231(11) 0.3466(11) 1.4339(8)
H84 H 0.7782(11) 0.2874(11) 1.3756(8)
H86 H 0.6118(12) 0.1437(12) 1.3921(8)
H109 H 0.7213(15) -0.0419(16) 1.6756(10)
H133 H 0.6484(12) 0.0435(12) 1.7381(9)
H149 H 0.5887(13) 0.1970(13) 1.6953(9)
H154 H 0.6911(13) 0.3320(13) 1.1804(8)
H155 H 0.6127(14) 0.2357(16) 1.5963(10)
H158 H 0.5762(15) 0.5009(15) 1.0280(10)
H159 H 0.6927(15) 0.4049(14) 1.0823(9)
H160 H 0.4402(14) 0.5207(14) 1.0697(9)
O5 O 0.3193(7) 0.3519(7) 0.3277(5)
O6 O 0.1699(6) 0.6478(7) 0.1798(4)
C45 C 0.2461(6) 0.5277(6) 0.1506(4)
C46 C 0.2425(6) 0.4697(6) 0.3586(4)
C47 C 0.2674(5) 0.4993(5) 0.1083(4)
C48 C 0.2169(6) 0.5667(6) 0.2012(4)
C49 C 0.2727(5) 0.4319(5) 0.3062(4)
C50 C 0.1579(6) 0.5306(6) 0.2340(4)
C51 C 0.2190(6) 0.4988(6) 0.4007(4)
C52 C 0.2875(5) 0.5552(6) 0.2430(4)
C53 C 0.2034(5) 0.4447(6) 0.2651(4)
C54 C 0.2920(6) 0.4599(6) 0.0607(4)
C55 C 0.1928(6) 0.5392(6) 0.4492(4)
C56 C 0.3324(6) 0.4684(6) 0.2743(4)
C57 C 0.2433(5) 0.5081(6) 0.4999(3)
C58 C 0.2241(6) 0.5479(6) 0.5449(4)
C59 C 0.1252(6) 0.6071(6) 0.4423(4)
C60 C 0.1530(6) 0.6196(6) 0.5397(4)
C61 C 0.3294(6) 0.3842(6) -0.0346(4)
C62 C 0.2502(5) 0.4976(5) 0.0061(3)
C63 C 0.2672(6) 0.4582(6) -0.0413(4)
C64 C 0.1068(7) 0.6468(7) 0.4886(4)
H2 H 0.0560(13) 0.6963(13) 0.4847(9)
C65 C 0.3723(7) 0.3463(7) 0.0192(4)
H3 H 0.4144(16) 0.2922(17) 0.0243(11)
C66 C 0.3552(6) 0.3858(6) 0.0682(4)
H4 H 0.3833(19) 0.3562(19) 0.1088(13)
H17 H 0.3320(12) 0.5785(12) 0.2209(9)
H21 H 0.3626(10) 0.4313(11) 0.2440(7)
H46 H 0.2293(10) 0.4080(10) 0.2316(7)
H51 H 0.1069(12) 0.5395(12) 0.2030(8)
H56 H 0.2622(12) 0.5904(13) 0.2751(9)
H62 H 0.1276(11) 0.5695(11) 0.2647(7)
H69 H 0.2001(11) 0.6687(11) 0.1533(8)
H73 H 0.3794(12) 0.4628(12) 0.3051(8)
H76 H 0.1611(11) 0.4193(11) 0.2883(8)
H92 H 0.3412(18) 0.3581(18) -0.0718(13)
H98 H 0.1379(15) 0.6466(15) 0.5734(11)
H126 H 0.2328(14) 0.4846(14) -0.0850(10)
H130 H 0.2622(14) 0.5269(14) 0.5859(10)
H137 H 0.2958(12) 0.4560(12) 0.5055(8)
H141 H 0.2025(14) 0.5559(14) -0.0028(9)
H146 H 0.2904(11) 0.3295(11) 0.3556(7)
H156 H 0.0841(12) 0.6288(12) 0.4039(8)
O7 O 0.7752(6) 0.2628(6) 0.9066(4)
O8 O 0.4699(6) 0.2589(7) 0.8446(4)
C67 C 0.5611(6) 0.3484(6) 0.7389(4)
C68 C 0.5468(6) 0.3167(6) 0.8936(4)
C69 C 0.6194(5) 0.1903(6) 0.8561(4)
C71 C 0.5461(6) 0.2696(6) 0.8473(4)
C73 C 0.5499(5) 0.3146(5) 0.7873(4)
C76 C 0.7003(5) 0.1990(5) 0.9673(4)
C78 C 0.7025(6) 0.2005(6) 0.8610(4)
C79 C 0.6552(6) 0.1947(7) 1.1146(4)
C80 C 0.5717(6) 0.3863(6) 0.6815(4)
C81 C 0.7027(6) 0.2440(6) 0.9102(4)
C82 C 0.6944(6) 0.1656(6) 1.0168(4)
C83 C 0.6836(5) 0.1390(5) 1.0780(3)
C85 C 0.7002(6) 0.0611(6) 1.1006(4)
C86 C 0.6300(5) 0.3245(6) 0.8986(4)
C87 C 0.6430(6) 0.1669(6) 1.1730(4)
C91 C 0.6613(6) 0.0855(6) 1.1957(4)
C92 C 0.5132(6) 0.4589(6) 0.6540(4)
C94 C 0.5220(6) 0.4903(6) 0.5947(4)
C96 C 0.6408(6) 0.3487(6) 0.6529(4)
C97 C 0.6879(6) 0.0323(7) 1.1584(4)
C98 C 0.6537(7) 0.3824(6) 0.5944(4)
C99 C 0.5912(6) 0.4533(6) 0.5649(4)
H13 H 0.5358(10) 0.2808(11) 0.9338(7)
H22 H 0.7522(12) 0.1434(12) 0.8704(8)
H43 H 0.6409(11) 0.3613(11) 0.8583(8)
H45 H 0.6098(11) 0.1547(11) 0.8984(8)
H48 H 0.4973(11) 0.3750(11) 0.8848(7)
H57 H 0.6170(12) 0.1577(12) 0.8225(8)
H65 H 0.7095(10) 0.2354(11) 0.8185(7)
H75 H 0.4671(12) 0.2226(13) 0.8811(9)
H83 H 0.6273(13) 0.3492(13) 0.9348(9)
H99 H 0.6040(15) 0.4776(15) 0.5239(11)
H107 H 0.6525(12) 0.0654(13) 1.2403(8)
H110 H 0.4623(17) 0.4889(17) 0.6758(12)
H112 H 0.4719(14) 0.5506(14) 0.5751(9)
H113 H 0.8249(10) 0.2147(11) 0.9163(7)
H117 H 0.7033(16) 0.3549(15) 0.5774(10)
H119 H 0.7229(14) 0.0188(14) 1.0706(10)
H123 H 0.6997(13) -0.0257(15) 1.1733(9)
H125 H 0.6422(11) 0.2510(12) 1.0965(8)
H131 H 0.6858(13) 0.3001(13) 0.6751(9)
H139 H 0.6201(14) 0.2086(14) 1.2015(9)
O9 O -0.4374(6) 0.8441(6) 0.0667(4)
C70 C -0.4590(5) 0.9136(5) 0.0169(4)
C72 C -0.4128(6) 0.8651(6) -0.0822(4)
C74 C -0.4347(5) 0.8859(5) -0.0366(4)
C75 C -0.4162(6) 0.9685(6) 0.0277(4)
C77 C -0.3295(6) 0.8529(6) -0.1697(4)
C84 C -0.3917(6) 0.8390(6) -0.1358(4)
C88 C -0.5535(5) 0.9565(5) 0.0166(4)
C89 C -0.3525(5) 0.7887(5) -0.2433(4)
C90 C -0.4332(6) 0.7979(6) -0.1570(4)
C93 C -0.4159(6) 0.7745(6) -0.2111(4)
C95 C -0.3086(6) 0.8291(6) -0.2224(4)
H12 H -0.3536(11) 0.9397(11) 0.0269(7)
H50 H -0.5835(12) 0.9179(12) 0.0061(8)
H58 H -0.5700(10) 0.9666(10) 0.0600(7)
H64 H -0.2962(10) 0.8850(10) -0.1519(7)
H66 H -0.3765(12) 0.8173(12) 0.0672(8)
H77 H -0.3380(13) 0.7699(13) -0.2862(9)
H85 H -0.2612(14) 0.8438(14) -0.2471(10)
H89 H -0.4828(12) 0.7871(12) -0.1331(8)
H93 H -0.4336(14) 0.9827(14) 0.0690(10)
H132 H -0.4471(12) 0.7437(12) -0.2254(8)
O9A O -0.5626(6) 1.1559(6) -0.0667(4)
C70A C -0.5410(5) 1.0864(5) -0.0169(4)
C72A C -0.5872(6) 1.1349(6) 0.0822(4)
C74A C -0.5653(5) 1.1141(5) 0.0366(4)
C75A C -0.5838(6) 1.0315(6) -0.0277(4)
C77A C -0.6705(6) 1.1471(6) 0.1697(4)
C84A C -0.6083(6) 1.1610(6) 0.1358(4)
C88A C -0.4465(5) 1.0435(5) -0.0166(4)
C89A C -0.6475(5) 1.2113(5) 0.2433(4)
C90A C -0.5668(6) 1.2021(6) 0.1570(4)
C93A C -0.5841(6) 1.2255(6) 0.2111(4)
C95A C -0.6914(6) 1.1709(6) 0.2224(4)
H12A H -0.6464(11) 1.0603(11) -0.0269(7)
H50A H -0.4165(12) 1.0821(12) -0.0061(8)
H58A H -0.4300(10) 1.0334(10) -0.0600(7)
H64A H -0.7038(10) 1.1150(10) 0.1519(7)
H66A H -0.6235(12) 1.1827(12) -0.0672(8)
H77A H -0.6620(13) 1.2301(13) 0.2862(9)
H85A H -0.7388(14) 1.1562(14) 0.2471(10)
H89A H -0.5172(12) 1.2129(12) 0.1331(8)
H93A H -0.5664(14) 1.0173(14) -0.0690(10)
H132A H -0.5529(12) 1.2563(12) 0.2254(8)
O10 O -0.0182(7) 0.2336(7) 0.8370(4)
C100 C 0.0637(5) 0.3650(5) 0.6681(4)
C101 C 0.0625(5) 0.3307(6) 0.7266(4)
C102 C 0.2373(6) 0.0421(6) 1.0921(4)
O11 O 0.2781(6) 0.2518(6) 0.9059(4)
C103 C 0.1828(5) 0.1219(5) 1.0693(4)
C104 C 0.0587(6) 0.2993(6) 0.7765(4)
C105 C 0.0538(5) 0.2533(6) 0.8378(4)
C106 C 0.2288(5) 0.0104(6) 1.1508(4)
C107 C 0.0495(6) 0.3031(6) 0.8836(4)
C108 C 0.0772(6) 0.4241(6) 0.5498(4)
C109 C 0.1900(5) 0.1582(5) 1.0106(4)
C110 C 0.1277(6) 0.1778(6) 0.8503(4)
C111 C 0.1725(6) 0.0547(6) 1.1859(4)
C112 C 0.1987(6) 0.1924(6) 0.9622(4)
C113 C 0.2051(5) 0.2374(5) 0.9046(4)
C114 C 0.1282(5) 0.3183(5) 0.8895(4)
C115 C 0.1222(6) 0.1642(6) 1.1054(4)
C116 C 0.0889(5) 0.3124(6) 0.6274(4)
C117 C 0.2071(6) 0.1900(6) 0.8561(4)
C118 C 0.0971(6) 0.3434(7) 0.5681(4)
H5 H 0.1118(16) 0.3103(16) 0.5391(11)
C119 C 0.1170(6) 0.1295(6) 1.1625(4)
C120 C 0.0471(6) 0.4451(6) 0.6479(4)
C121 C 0.0547(6) 0.4741(6) 0.5878(4)
H11 H 0.0393(11) 0.2685(11) 0.9236(7)
H16 H 0.1168(14) 0.1420(14) 0.8895(9)
H23 H 0.2600(13) 0.1332(14) 0.8686(9)
H28 H 0.1406(12) 0.3511(12) 0.8462(8)
H29 H 0.2207(12) 0.2240(13) 0.8144(9)
H44 H -0.0038(13) 0.3563(14) 0.8739(9)
H52 H -0.0650(13) 0.2839(13) 0.8283(8)
H53 H 0.1243(12) 0.3508(12) 0.9288(8)
H81 H 0.1680(14) 0.0271(14) 1.2317(9)
H82 H 0.1300(11) 0.1428(12) 0.8144(8)
H94 H 0.2777(13) 0.0152(13) 1.0671(9)
H95 H 0.2792(10) 0.2900(11) 0.8729(8)
H104 H 0.0800(13) 0.4499(13) 0.5031(9)
H106 H 0.2710(14) -0.0462(14) 1.1705(9)
H120 H 0.1056(12) 0.2542(13) 0.6440(8)
H121 H 0.0794(14) 0.2234(15) 1.0876(10)
H122 H 0.0258(14) 0.4847(14) 0.6785(10)
H127 H 0.0701(13) 0.1607(13) 1.1886(9)
H153 H 0.0406(13) 0.5353(14) 0.5737(9)
O12 O 0.2688(6) 0.2611(6) 0.4135(4)
O13 O -0.0172(7) 0.2332(7) 0.3373(5)
C122 C 0.2005(5) 0.2368(5) 0.4132(4)
C123 C 0.0767(6) 0.3719(6) 0.1775(4)
C124 C 0.0612(6) 0.2997(6) 0.2841(4)
C125 C 0.1975(5) 0.1923(5) 0.4720(4)
C126 C 0.1935(6) 0.1269(6) 0.5824(4)
C127 C 0.1951(5) 0.1586(6) 0.5203(4)
C128 C 0.0701(5) 0.3328(6) 0.2357(4)
C129 C 0.1227(5) 0.3172(5) 0.3984(4)
C130 C 0.0567(6) 0.2525(6) 0.3429(4)
C131 C 0.0455(7) 0.3011(7) 0.3887(4)
C132 C 0.2088(6) 0.1907(6) 0.3648(4)
C133 C 0.1308(6) 0.1764(6) 0.3555(4)
C134 C 0.0236(5) 0.4522(5) 0.1566(4)
C135 C 0.1347(6) 0.3334(6) 0.1433(4)
C136 C 0.1230(6) 0.0772(6) 0.6630(4)
C137 C 0.1259(6) 0.1087(6) 0.6039(4)
C138 C 0.1405(7) 0.3720(7) 0.0842(5)
C139 C 0.0282(6) 0.4891(6) 0.0987(4)
C140 C 0.0854(6) 0.4519(6) 0.0634(4)
C141 C 0.2618(6) 0.1123(6) 0.6205(4)
H6 H 0.3077(12) 0.1303(11) 0.6057(8)
C142 C 0.1884(6) 0.0658(6) 0.7029(4)
C143 C 0.2598(7) 0.0829(6) 0.6822(4)
H7 H 0.3002(17) 0.0773(17) 0.7071(12)
H10 H 0.2178(12) 0.2273(12) 0.3216(8)
H15 H -0.0046(11) 0.3545(12) 0.3785(7)
H20 H 0.1193(14) 0.1387(14) 0.3968(9)
H27 H 0.1314(12) 0.3534(13) 0.3584(9)
H34 H 0.2611(10) 0.1364(11) 0.3739(7)
H35 H 0.0330(10) 0.2646(11) 0.4279(7)
H47 H 0.1142(11) 0.3495(11) 0.4350(7)
H60 H 0.1335(13) 0.1446(13) 0.3250(9)
H100 H -0.0231(12) 0.4829(12) 0.1845(8)
H101 H -0.0185(11) 0.1957(12) 0.3702(8)
H114 H 0.3215(11) 0.2159(11) 0.4209(7)
H118 H 0.0935(13) 0.4779(14) 0.0206(9)
H128 H 0.1862(15) 0.3434(14) 0.0605(10)
H134 H -0.0124(15) 0.5497(16) 0.0839(10)
H145 H 0.1848(12) 0.0461(12) 0.7446(9)
H147 H 0.0820(15) 0.1129(15) 0.5765(10)
H148 H 0.1782(15) 0.2810(15) 0.1592(10)
H150 H 0.0798(12) 0.0616(12) 0.6798(8)
O14 O 0.4254(6) 0.1496(6) 0.4263(4)
C144 C 0.5295(5) -0.0438(5) 0.3073(4)
C145 C 0.4921(6) 0.0278(6) 0.3987(4)
C146 C 0.5098(6) -0.0061(6) 0.3579(4)
C147 C 0.5100(6) 0.0003(6) 0.2507(4)
C148 C 0.4683(5) 0.0653(6) 0.4475(4)
C149 C 0.4108(5) 0.0334(6) 0.4864(4)
C150 C 0.5291(5) -0.0354(6) 0.2031(4)
C151 C 0.5603(6) -0.1278(6) 0.3184(4)
C152 C 0.5654(6) -0.1170(6) 0.2122(4)
C153 C 0.5472(5) 0.0512(6) 0.4852(4)
C154 C 0.5785(6) -0.1659(7) 0.2685(4)
H8 H 0.5954(19) -0.212(2) 0.2773(12)
H39 H 0.5904(12) 0.0734(12) 0.4587(8)
H63 H 0.5243(12) 0.0904(13) 0.5199(8)
H72 H 0.3882(11) 0.0672(11) 0.5202(7)
H78 H 0.3584(11) 0.0382(11) 0.4576(7)
H91 H 0.5791(13) -0.1438(13) 0.1765(9)
H96 H 0.4548(11) 0.1688(11) 0.3951(8)
H129 H 0.5129(13) 0.0036(13) 0.1600(9)
H135 H 0.4852(12) 0.0672(13) 0.2420(9)
H157 H 0.5641(14) -0.1572(14) 0.3594(10)
O14A O 0.5746(6) -0.1496(6) 0.5737(4)
C144A C 0.4705(5) 0.0438(5) 0.6927(4)
C145A C 0.5079(6) -0.0278(6) 0.6013(4)
C146A C 0.4902(6) 0.0061(6) 0.6421(4)
C147A C 0.4900(6) -0.0003(6) 0.7493(4)
C148A C 0.5317(5) -0.0653(6) 0.5525(4)
C149A C 0.5892(5) -0.0334(6) 0.5136(4)
C150A C 0.4709(5) 0.0354(6) 0.7969(4)
C151A C 0.4397(6) 0.1278(6) 0.6816(4)
C152A C 0.4346(6) 0.1170(6) 0.7878(4)
C153A C 0.4528(5) -0.0512(6) 0.5148(4)
C154A C 0.4215(6) 0.1659(7) 0.7315(4)
H8A H 0.4046(19) 0.212(2) 0.7227(12)
H39A H 0.4096(12) -0.0734(12) 0.5413(8)
H63A H 0.4757(12) -0.0904(13) 0.4801(8)
H72A H 0.6118(11) -0.0672(11) 0.4798(7)
H78A H 0.6416(11) -0.0382(11) 0.5424(7)
H91A H 0.4209(13) 0.1438(13) 0.8235(9)
H96A H 0.5452(11) -0.1688(11) 0.6049(8)
H129A H 0.4871(13) -0.0036(13) 0.8400(9)
H135A H 0.5148(12) -0.0672(13) 0.7580(9)
H157A H 0.4359(14) 0.1572(14) 0.6406(10)
O15 O 0.9281(6) 0.1499(6) 0.9247(4)
C155 C 1.0553(5) -0.0387(6) 0.8058(4)
C156 C 1.0326(5) -0.0019(5) 0.8564(4)
C157 C 1.0434(5) 0.0530(5) 0.9902(4)
C158 C 1.0079(5) 0.0272(5) 0.8972(3)
C159 C 0.9731(6) 0.0661(6) 0.9472(4)
C160 C 1.0006(6) -0.0198(6) 0.7580(4)
C161 C 1.0234(6) -0.0588(6) 0.7124(4)
C162 C 1.0998(6) -0.1198(6) 0.7126(4)
C163 C 0.9131(6) 0.0318(6) 0.9792(4)
C164 C 1.1365(6) -0.0946(6) 0.8053(4)
C165 C 1.1601(7) -0.1386(6) 0.7595(4)
H9 H 1.2164(15) -0.1756(14) 0.7576(9)
H19 H 1.0895(11) 0.0769(11) 0.9686(7)
H49 H 0.8643(12) 0.0368(12) 0.9489(8)
H54 H 1.0124(10) 0.0918(10) 1.0230(7)
H55 H 0.8837(12) 0.0664(12) 1.0144(8)
H103 H 0.9440(13) 0.0224(12) 0.7603(8)
H105 H 1.1148(14) -0.1477(14) 0.6784(10)
H111 H 0.9587(10) 0.1684(10) 0.8921(7)
H116 H 0.9820(17) -0.0468(16) 0.6785(12)
H138 H 1.1815(15) -0.1094(15) 0.8411(11)
O15A O 1.0719(6) -0.1499(6) 1.0753(4)
C155A C 0.9447(5) 0.0387(6) 1.1942(4)
C156A C 0.9674(5) 0.0019(5) 1.1436(4)
C157A C 0.9566(5) -0.0530(5) 1.0098(4)
C158A C 0.9921(5) -0.0272(5) 1.1028(3)
C159A C 1.0269(6) -0.0661(6) 1.0528(4)
C160A C 0.9994(6) 0.0198(6) 1.2420(4)
C161A C 0.9766(6) 0.0588(6) 1.2876(4)
C162A C 0.9002(6) 0.1198(6) 1.2874(4)
C163A C 1.0869(6) -0.0318(6) 1.0208(4)
C164A C 0.8635(6) 0.0946(6) 1.1947(4)
C165A C 0.8399(7) 0.1386(6) 1.2405(4)
H9A H 0.7836(15) 0.1756(14) 1.2424(9)
H19A H 0.9105(11) -0.0769(11) 1.0314(7)
H49A H 1.1357(12) -0.0368(12) 1.0511(8)
H54A H 0.9876(10) -0.0918(10) 0.9770(7)
H55A H 1.1163(12) -0.0664(12) 0.9856(8)
H103A H 1.0560(13) -0.0224(12) 1.2397(8)
H105A H 0.8852(14) 0.1477(14) 1.3216(10)
H111A H 1.0413(10) -0.1684(10) 1.1079(7)
H116A H 1.0180(17) 0.0468(16) 1.3215(12)
H138A H 0.8185(15) 0.1094(15) 1.1589(11)
O16 O 0.9355(7) 0.1553(6) 0.4331(4)
C166 C 0.9098(6) 0.1351(6) 0.5820(4)
C167 C 0.9574(5) 0.0886(6) 0.4822(4)
C168 C 0.8335(6) 0.1379(6) 0.6714(4)
C169 C 0.9333(5) 0.1149(5) 0.5352(4)
C170 C 0.8116(6) 0.1605(6) 0.7238(4)
C171 C 0.8877(5) 0.1607(5) 0.6358(4)
C172 C 1.0531(6) 0.0452(6) 0.4832(4)
C173 C 0.9162(6) 0.0298(6) 0.4721(4)
C174 C 0.8510(5) 0.2076(5) 0.7443(4)
C175 C 0.9063(6) 0.2284(6) 0.7098(4)
C176 C 0.9228(5) 0.2091(5) 0.6544(3)
H26 H 1.0817(13) 0.0814(13) 0.4891(9)
H30 H 0.8493(11) 0.0606(11) 0.4730(7)
H68 H 0.7667(12) 0.1405(12) 0.7502(8)
H70 H 0.8029(12) 0.1067(12) 0.6559(8)
H79 H 1.0653(11) 0.0330(11) 0.4390(8)
H88 H 0.9338(13) 0.0108(13) 0.4299(9)
H90 H 0.8768(13) 0.1802(12) 0.4318(8)
H102 H 0.8357(12) 0.2216(12) 0.7878(8)
H124 H 0.9368(14) 0.2631(14) 0.7239(10)
H140 H 0.9670(13) 0.2266(13) 0.6265(9)
O16A O 1.0645(7) -0.1553(6) 0.5669(4)
C166A C 1.0902(6) -0.1351(6) 0.4180(4)
C167A C 1.0426(5) -0.0886(6) 0.5178(4)
C168A C 1.1665(6) -0.1379(6) 0.3286(4)
C169A C 1.0667(5) -0.1149(5) 0.4648(4)
C170A C 1.1884(6) -0.1605(6) 0.2762(4)
C171A C 1.1123(5) -0.1607(5) 0.3642(4)
C172A C 0.9469(6) -0.0452(6) 0.5168(4)
C173A C 1.0838(6) -0.0298(6) 0.5279(4)
C174A C 1.1490(5) -0.2076(5) 0.2557(4)
C175A C 1.0937(6) -0.2284(6) 0.2902(4)
C176A C 1.0772(5) -0.2091(5) 0.3456(3)
H26A H 0.9183(13) -0.0814(13) 0.5109(9)
H30A H 1.1507(11) -0.0606(11) 0.5270(7)
H68A H 1.2333(12) -0.1405(12) 0.2498(8)
H70A H 1.1971(12) -0.1067(12) 0.3441(8)
H79A H 0.9347(11) -0.0330(11) 0.5610(8)
H88A H 1.0662(13) -0.0108(13) 0.5701(9)
H90A H 1.1232(13) -0.1802(12) 0.5682(8)
H102A H 1.1643(12) -0.2216(12) 0.2122(8)
H124A H 1.0632(14) -0.2631(14) 0.2761(10)
H140A H 1.0330(13) -0.2266(13) 0.3735(9)
loop_
_geom_bond_atom_site_label_1
_geom_bond_atom_site_label_2
_geom_bond_site_symmetry_1
_geom_bond_site_symmetry_2
O1 C4 1_555 1_555
O2 C5 1_555 1_555
O3 C15 1_555 1_555
C1 C6 1_555 1_555
C2 C4 1_555 1_555
C3 C4 1_555 1_555
C4 C10 1_555 1_555
C5 C6 1_555 1_555
C7 C2 1_555 1_555
C8 C1 1_555 1_555
C9 C12 1_555 1_555
C10 C11 1_555 1_555
C11 C5 1_555 1_555
C12 C13 1_555 1_555
O4 C38 1_555 1_555
C13 C7 1_555 1_555
C14 C3 1_555 1_555
C15 C19 1_555 1_555
C16 C17 1_555 1_555
C17 C8 1_555 1_555
C18 C8 1_555 1_555
C19 C20 1_555 1_555
C20 C35 1_555 1_555
C21 C15 1_555 1_555
C22 C15 1_555 1_555
C23 C13 1_555 1_555
C24 C34 1_555 1_555
C25 C30 1_555 1_555
C26 C30 1_555 1_555
C27 C21 1_555 1_555
C28 C22 1_555 1_555
C29 C16 1_555 1_555
C30 H67 1_555 1_555
C31 C33 1_555 1_555
C32 C9 1_555 1_555
C33 C26 1_555 1_555
C34 C26 1_555 1_555
C35 C40 1_555 1_555
C36 C24 1_555 1_555
C37 C23 1_555 1_555
C38 C27 1_555 1_555
C39 C18 1_555 1_555
C40 C42 1_555 1_555
C41 C35 1_555 1_555
H1 C41 1_555 1_555
C42 C44 1_555 1_555
C43 C41 1_555 1_555
C44 C43 1_555 1_555
O5 C49 1_555 1_555
O6 C48 1_555 1_555
C45 C47 1_555 1_555
C46 C49 1_555 1_555
C47 C54 1_555 1_555
C48 C45 1_555 1_555
C49 C53 1_555 1_555
C50 C48 1_555 1_555
C51 C46 1_555 1_555
C52 C48 1_555 1_555
C53 C50 1_555 1_555
C54 C62 1_555 1_555
C55 C51 1_555 1_555
C56 C49 1_555 1_555
C57 C55 1_555 1_555
C58 C57 1_555 1_555
C59 C55 1_555 1_555
C60 C58 1_555 1_555
C61 C63 1_555 1_555
C62 C63 1_555 1_555
C63 H126 1_555 1_555
C64 C59 1_555 1_555
H2 C64 1_555 1_555
C65 C61 1_555 1_555
H3 C65 1_555 1_555
C66 C54 1_555 1_555
H4 C66 1_555 1_555
O7 C81 1_555 1_555
O8 C71 1_555 1_555
O9 C70 1_555 1_555
C67 C73 1_555 1_555
C68 C71 1_555 1_555
C69 C71 1_555 1_555
C70 C74 1_555 1_555
C71 C73 1_555 1_555
C72 C74 1_555 1_555
C75 C70 1_555 1_555
C76 C81 1_555 1_555
C77 C84 1_555 1_555
C78 C69 1_555 1_555
C79 C83 1_555 1_555
C80 C67 1_555 1_555
C81 C78 1_555 1_555
C82 C76 1_555 1_555
C83 C82 1_555 1_555
C84 C72 1_555 1_555
C85 C83 1_555 1_555
C86 C68 1_555 1_555
C87 C79 1_555 1_555
C88 C70 1_555 1_555
C89 C93 1_555 1_555
C90 C84 1_555 1_555
C91 C87 1_555 1_555
C92 C80 1_555 1_555
C93 C90 1_555 1_555
C94 C92 1_555 1_555
C95 C77 1_555 1_555
C96 C80 1_555 1_555
C97 C85 1_555 1_555
C98 C96 1_555 1_555
C99 C94 1_555 1_555
O10 C105 1_555 1_555
C100 C101 1_555 1_555
C101 C104 1_555 1_555
C102 C103 1_555 1_555
O11 C113 1_555 1_555
C103 C109 1_555 1_555
C104 C105 1_555 1_555
C105 C107 1_555 1_555
C106 C102 1_555 1_555
C107 C114 1_555 1_555
C108 C118 1_555 1_555
C109 C112 1_555 1_555
C110 C105 1_555 1_555
C111 C106 1_555 1_555
C112 C113 1_555 1_555
C113 C114 1_555 1_555
C114 H28 1_555 1_555
C115 C103 1_555 1_555
C116 C100 1_555 1_555
C117 C110 1_555 1_555
C118 C116 1_555 1_555
H5 C118 1_555 1_555
C119 C111 1_555 1_555
C120 C100 1_555 1_555
C121 C108 1_555 1_555
O12 C122 1_555 1_555
O13 C130 1_555 1_555
C122 C125 1_555 1_555
C123 C128 1_555 1_555
C124 C128 1_555 1_555
C125 C127 1_555 1_555
C126 C127 1_555 1_555
C129 C122 1_555 1_555
C130 C124 1_555 1_555
C131 C129 1_555 1_555
C132 C122 1_555 1_555
C133 C130 1_555 1_555
C134 C123 1_555 1_555
C135 C123 1_555 1_555
C136 C137 1_555 1_555
C137 C126 1_555 1_555
C138 C135 1_555 1_555
C139 C134 1_555 1_555
C140 C138 1_555 1_555
C141 C126 1_555 1_555
H6 C141 1_555 1_555
C142 C136 1_555 1_555
C143 C141 1_555 1_555
H7 C143 1_555 1_555
O14 C148 1_555 1_555
C144 C146 1_555 1_555
C145 C146 1_555 1_555
C147 C144 1_555 1_555
C148 C145 1_555 1_555
C149 C148 1_555 1_555
C150 C147 1_555 1_555
C151 C144 1_555 1_555
C152 C150 1_555 1_555
C153 C148 1_555 1_555
C154 C151 1_555 1_555
H8 C154 1_555 1_555
O15 C159 1_555 1_555
C155 C156 1_555 1_555
C156 C158 1_555 1_555
C157 C159 1_555 1_555
C158 C159 1_555 1_555
C159 C163 1_555 1_555
C160 C155 1_555 1_555
C161 C160 1_555 1_555
C162 C161 1_555 1_555
C163 H49 1_555 1_555
C164 C155 1_555 1_555
C165 C162 1_555 1_555
H9 C165 1_555 1_555
O16 C167 1_555 1_555
C166 C169 1_555 1_555
C167 C169 1_555 1_555
C168 C170 1_555 1_555
C170 C174 1_555 1_555
C171 C166 1_555 1_555
C172 C167 1_555 1_555
C173 C167 1_555 1_555
C174 C175 1_555 1_555
C175 C176 1_555 1_555
C176 C171 1_555 1_555
H10 C132 1_555 1_555
H11 C107 1_555 1_555
H12 C75 1_555 1_555
H13 C68 1_555 1_555
H14 C21 1_555 1_555
H15 C131 1_555 1_555
H16 C110 1_555 1_555
H17 C52 1_555 1_555
H18 C3 1_555 1_555
H19 C157 1_555 1_555
H20 C133 1_555 1_555
H21 C56 1_555 1_555
H22 C78 1_555 1_555
H23 C117 1_555 1_555
H24 C21 1_555 1_555
H25 C11 1_555 1_555
H26 C172 1_555 1_555
H27 C129 1_555 1_555
H29 C117 1_555 1_555
H30 C173 1_555 1_555
H31 C27 1_555 1_555
H32 C28 1_555 1_555
H33 C28 1_555 1_555
H34 C132 1_555 1_555
H35 C131 1_555 1_555
H36 C14 1_555 1_555
H37 C10 1_555 1_555
H38 C22 1_555 1_555
H39 C153 1_555 1_555
H40 C3 1_555 1_555
H41 C14 1_555 1_555
H42 O2 1_555 1_555
H43 C86 1_555 1_555
H44 C107 1_555 1_555
H45 C69 1_555 1_555
H46 C53 1_555 1_555
H47 C129 1_555 1_555
H48 C68 1_555 1_555
H50 C88 1_555 1_555
H51 C50 1_555 1_555
H52 O10 1_555 1_555
H53 C114 1_555 1_555
H54 C157 1_555 1_555
H55 C163 1_555 1_555
H56 C52 1_555 1_555
H57 C69 1_555 1_555
H58 C88 1_555 1_555
H59 C12 1_555 1_555
H60 C133 1_555 1_555
H61 O3 1_555 1_555
H62 C50 1_555 1_555
H63 C153 1_555 1_555
H64 C77 1_555 1_555
H65 C78 1_555 1_555
H66 O9 1_555 1_555
H68 C170 1_555 1_555
H69 O6 1_555 1_555
H70 C168 1_555 1_555
H71 C29 1_555 1_555
H72 C149 1_555 1_555
H73 C56 1_555 1_555
H74 C10 1_555 1_555
H75 O8 1_555 1_555
H76 C53 1_555 1_555
H77 C89 1_555 1_555
H78 C149 1_555 1_555
H79 C172 1_555 1_555
H80 C27 1_555 1_555
H81 C111 1_555 1_555
H82 C110 1_555 1_555
H83 C86 1_555 1_555
H84 O4 1_555 1_555
H85 C95 1_555 1_555
H86 C22 1_555 1_555
H87 C11 1_555 1_555
H88 C173 1_555 1_555
H89 C90 1_555 1_555
H90 O16 1_555 1_555
H91 C152 1_555 1_555
H92 C61 1_555 1_555
H93 C75 1_555 1_555
H94 C102 1_555 1_555
H95 O11 1_555 1_555
H96 O14 1_555 1_555
H97 C23 1_555 1_555
H98 C60 1_555 1_555
H99 C99 1_555 1_555
H100 C134 1_555 1_555
H101 O13 1_555 1_555
H102 C174 1_555 1_555
H103 C160 1_555 1_555
H104 C108 1_555 1_555
H105 C162 1_555 1_555
H106 C106 1_555 1_555
H107 C91 1_555 1_555
H108 C9 1_555 1_555
H109 C25 1_555 1_555
H110 C92 1_555 1_555
H111 O15 1_555 1_555
H112 C94 1_555 1_555
H113 O7 1_555 1_555
H114 O12 1_555 1_555
H115 C18 1_555 1_555
H116 C161 1_555 1_555
H117 C98 1_555 1_555
H118 C140 1_555 1_555
H119 C85 1_555 1_555
H120 C116 1_555 1_555
H121 C115 1_555 1_555
H122 C120 1_555 1_555
H123 C97 1_555 1_555
H124 C175 1_555 1_555
H125 C79 1_555 1_555
H127 C119 1_555 1_555
H128 C138 1_555 1_555
H129 C150 1_555 1_555
H130 C58 1_555 1_555
H131 C96 1_555 1_555
H132 C93 1_555 1_555
H133 C36 1_555 1_555
H134 C139 1_555 1_555
H135 C147 1_555 1_555
H136 C17 1_555 1_555
H137 C57 1_555 1_555
H138 C164 1_555 1_555
H139 C87 1_555 1_555
H140 C176 1_555 1_555
H141 C62 1_555 1_555
H142 C39 1_555 1_555
H143 O1 1_555 1_555
H144 C32 1_555 1_555
H145 C142 1_555 1_555
H146 O5 1_555 1_555
H147 C137 1_555 1_555
H148 C135 1_555 1_555
H149 C24 1_555 1_555
H150 C136 1_555 1_555
H151 C16 1_555 1_555
H152 C37 1_555 1_555
H153 C121 1_555 1_555
H154 C40 1_555 1_555
H155 C34 1_555 1_555
H156 C59 1_555 1_555
H157 C151 1_555 1_555
H158 C44 1_555 1_555
H159 C42 1_555 1_555
H160 C43 1_555 1_555
O9A C70A 1_555 1_555
C70A C74A 1_555 1_555
C72A C74A 1_555 1_555
C75A C88 1_555 1_555
C77A C84A 1_555 1_555
C84A C72A 1_555 1_555
C88A C75 1_555 1_555
C89A C93A 1_555 1_555
C90A C84A 1_555 1_555
C93A C90A 1_555 1_555
C95A C77A 1_555 1_555
O14A C148A 1_555 1_555
C144A C146A 1_555 1_555
C145A C146A 1_555 1_555
C147A C144A 1_555 1_555
C148A C145A 1_555 1_555
C149A C153 1_555 1_555
C150A C147A 1_555 1_555
C151A C144A 1_555 1_555
C152A C150A 1_555 1_555
C153A C149 1_555 1_555
C154A C151A 1_555 1_555
H8A C154A 1_555 1_555
O15A C159A 1_555 1_555
C155A C156A 1_555 1_555
C156A C158A 1_555 1_555
C157A C163 1_555 1_555
C158A C159A 1_555 1_555
C159A C157A 1_555 1_555
C160A C155A 1_555 1_555
C161A C160A 1_555 1_555
C162A C161A 1_555 1_555
C163A C157 1_555 1_555
C164A C155A 1_555 1_555
C165A C162A 1_555 1_555
H9A C165A 1_555 1_555
O16A C167A 1_555 1_555
C166A C169A 1_555 1_555
C167A C169A 1_555 1_555
C168A C170A 1_555 1_555
C170A C174A 1_555 1_555
C171A C166A 1_555 1_555
C172A C173 1_555 1_555
C173A C172 1_555 1_555
C174A C175A 1_555 1_555
C175A C176A 1_555 1_555
C176A C171A 1_555 1_555
H12A C75A 1_555 1_555
H19A C157A 1_555 1_555
H26A C172A 1_555 1_555
H30A C173A 1_555 1_555
H39A C153A 1_555 1_555
H49A C163A 1_555 1_555
H50A C88A 1_555 1_555
H54A C157A 1_555 1_555
H55A C163A 1_555 1_555
H58A C88A 1_555 1_555
H63A C153A 1_555 1_555
H64A C77A 1_555 1_555
H66A O9A 1_555 1_555
H68A C170A 1_555 1_555
H70A C168A 1_555 1_555
H72A C149A 1_555 1_555
H77A C89A 1_555 1_555
H78A C149A 1_555 1_555
H79A C172A 1_555 1_555
H85A C95A 1_555 1_555
H88A C173A 1_555 1_555
H89A C90A 1_555 1_555
H90A O16A 1_555 1_555
H91A C152A 1_555 1_555
H93A C75A 1_555 1_555
H96A O14A 1_555 1_555
H102A C174A 1_555 1_555
H103A C160A 1_555 1_555
H105A C162A 1_555 1_555
H111A O15A 1_555 1_555
H116A C161A 1_555 1_555
H124A C175A 1_555 1_555
H129A C150A 1_555 1_555
H132A C93A 1_555 1_555
H135A C147A 1_555 1_555
H138A C164A 1_555 1_555
H140A C176A 1_555 1_555
H157A C151A 1_555 1_555
C5 C14 1_555 1_555
C25 C36 1_555 1_555
C28 C38 1_555 1_555
C29 C39 1_555 1_555
C31 C38 1_555 1_555
C32 C37 1_555 1_555
C52 C56 1_555 1_555
C60 C64 1_555 1_555
C65 C66 1_555 1_555
C81 C86 1_555 1_555
C89 C95 1_555 1_555
C91 C97 1_555 1_555
C98 C99 1_555 1_555
C113 C117 1_555 1_555
C115 C119 1_555 1_555
C120 C121 1_555 1_555
C130 C131 1_555 1_555
C132 C133 1_555 1_555
C139 C140 1_555 1_555
C142 C143 1_555 1_555
C152 C154 1_555 1_555
C164 C165 1_555 1_555
C168 C171 1_555 1_555
C70A C75A 1_555 1_555
C70A C88A 1_555 1_555
C89A C95A 1_555 1_555
C148A C149A 1_555 1_555
C148A C153A 1_555 1_555
C152A C154A 1_555 1_555
C159A C163A 1_555 1_555
C164A C165A 1_555 1_555
C167A C172A 1_555 1_555
C167A C173A 1_555 1_555
C168A C171A 1_555 1_555

#END
