
#######################################################################
#
#                 Cambridge Crystallographic Data Centre
#                                CCDC 
#
#######################################################################
#
# If this CIF has been generated from an entry in the Cambridge 
# Structural Database, then it will include bibliographic, chemical, 
# crystal, experimental, refinement or atomic coordinate data resulting 
# from the CCDC's data processing and validation procedures.
#
#######################################################################

data_UCAZEF
_chemical_formula_moiety         'C80 H80 N8 2+,O4 S1 2-,6(C1 H1 Cl3)'
_chemical_name_systematic        
'octakis(Isopropyl)cyclo(4)naphthobipyrroledi-ium sulfate chloroform solvate'
_symmetry_cell_setting           monoclinic
_symmetry_space_group_name_H-M   'P 21/c'
_symmetry_Int_Tables_number      14
_space_group_name_Hall           '-P 2ybc'
loop_
_symmetry_equiv_pos_site_id
_symmetry_equiv_pos_as_xyz
1 x,y,z
2 -x,1/2+y,1/2-z
3 -x,-y,-z
4 x,1/2-y,1/2+z
_cell_length_a                   9.1654(14)
_cell_length_b                   24.620(2)
_cell_length_c                   39.168(3)
_cell_angle_alpha                90
_cell_angle_beta                 93.635(6)
_cell_angle_gamma                90
_cell_volume                     8820.56
_exptl_crystal_colour            black
_exptl_crystal_description       prisms
_cell_formula_units_Z            4
loop_
_atom_site_label
_atom_site_type_symbol
_atom_site_fract_x
_atom_site_fract_y
_atom_site_fract_z
S1 S 0.26140(12) 0.29900(4) 0.63199(3)
O1 O 0.3802(3) 0.32669(12) 0.61478(7)
O2 O 0.1483(3) 0.27993(12) 0.60607(7)
O3 O 0.3229(3) 0.25202(12) 0.65174(7)
O4 O 0.1947(3) 0.33714(11) 0.65543(7)
Cl1 Cl 0.57265(19) 0.26763(7) 0.54735(4)
Cl2 Cl 0.5622(2) 0.18235(7) 0.59761(4)
Cl3 Cl 0.81355(18) 0.25506(8) 0.59763(4)
C1 C 0.6240(7) 0.2491(3) 0.58977(16)
H1 H 0.5755 0.2745 0.6054
Cl4 Cl 0.5260(2) 0.12338(7) 0.68741(5)
Cl5 Cl 0.77549(17) 0.19205(7) 0.68153(4)
Cl6 Cl 0.57386(19) 0.21393(8) 0.73350(4)
C2 C 0.5961(7) 0.1896(3) 0.69098(16)
H2 H 0.5383 0.2134 0.6745
Cl7 Cl 0.8273(3) 0.09937(13) 0.54290(9)
Cl8 Cl 0.8415(4) 0.18592(14) 0.49541(10)
Cl9 Cl 0.6055(4) 0.10982(17) 0.48982(9)
C3 C 0.7306(12) 0.1427(4) 0.5176(2)
H3 H 0.6733 0.1660 0.5329
Cl10 Cl 1.00515(16) 0.40495(8) 0.57142(4)
Cl11 Cl 0.75431(14) 0.41917(7) 0.61137(4)
Cl12 Cl 1.03295(18) 0.46225(7) 0.63584(6)
C4 C 0.9443(6) 0.4089(2) 0.61300(14)
H4 H 0.9677 0.3739 0.6252
N1 N 0.3364(4) 0.37318(14) 0.54932(9)
H5 H 0.3572 0.3496 0.5658
N2 N 0.4041(4) 0.43990(14) 0.61411(9)
H6 H 0.4143 0.4056 0.6202
N3 N 0.3543(4) 0.42473(14) 0.68228(9)
H7 H 0.3002 0.4031 0.6688
N4 N 0.2705(4) 0.32906(14) 0.72613(9)
H8 H 0.2330 0.3226 0.7053
N5 N 0.2107(4) 0.22268(14) 0.71409(9)
H9 H 0.2580 0.2388 0.6981
N6 N 0.1687(4) 0.15347(15) 0.64987(9)
H10 H 0.2224 0.1815 0.6446
N7 N 0.1485(4) 0.17524(14) 0.58076(9)
H11 H 0.1319 0.2042 0.5931
N8 N 0.2074(4) 0.27332(14) 0.53662(9)
H12 H 0.1849 0.2861 0.5566
C5 C 0.2845(5) 0.36050(17) 0.51650(11)
C6 C 0.2646(5) 0.40935(18) 0.49730(11)
C7 C 0.3111(5) 0.45226(17) 0.52024(11)
C8 C 0.3503(5) 0.42790(17) 0.55203(11)
C9 C 0.3799(5) 0.45796(17) 0.58136(11)
C10 C 0.3692(5) 0.51547(17) 0.58166(11)
C11 C 0.3870(5) 0.53183(17) 0.61701(11)
C12 C 0.4102(4) 0.48343(17) 0.63621(11)
C13 C 0.4218(5) 0.47156(16) 0.67234(11)
C14 C 0.4987(5) 0.49440(17) 0.70103(11)
C15 C 0.4741(5) 0.46029(17) 0.72923(11)
C16 C 0.3853(5) 0.41740(17) 0.71650(10)
C17 C 0.3459(5) 0.37432(17) 0.73611(11)
C18 C 0.3892(5) 0.37023(17) 0.77144(11)
C19 C 0.3377(5) 0.31852(18) 0.78244(10)
C20 C 0.2617(5) 0.29481(17) 0.75373(11)
C21 C 0.1974(5) 0.24218(17) 0.74646(11)
C22 C 0.1087(5) 0.20538(17) 0.76433(11)
C23 C 0.0726(5) 0.16206(17) 0.74105(11)
C24 C 0.1396(5) 0.17454(17) 0.71061(11)
C25 C 0.1216(5) 0.14288(17) 0.68141(11)
C26 C 0.0384(5) 0.09507(17) 0.68036(10)
C27 C 0.0340(5) 0.07633(17) 0.64535(11)
C28 C 0.1193(5) 0.11358(17) 0.62760(11)
C29 C 0.1446(5) 0.12144(18) 0.59225(11)
C30 C 0.1823(5) 0.08771(18) 0.56516(11)
C31 C 0.2042(5) 0.12171(18) 0.53650(11)
C32 C 0.1819(5) 0.17544(18) 0.54768(11)
C33 C 0.2057(5) 0.22036(19) 0.52779(12)
C34 C 0.2439(5) 0.21544(19) 0.49345(12)
C35 C 0.2736(5) 0.26900(18) 0.48177(11)
C36 C 0.2496(5) 0.30441(18) 0.50967(11)
C37 C 0.1772(5) 0.41077(18) 0.46345(11)
H13 H 0.1436 0.3726 0.4593
C38 C 0.0364(5) 0.4442(2) 0.46617(12)
H14 H -0.0184 0.4300 0.4849
H15 H -0.0238 0.4415 0.4446
H16 H 0.0619 0.4823 0.4707
C39 C 0.2564(5) 0.4266(2) 0.43178(11)
H17 H 0.2713 0.4660 0.4316
H18 H 0.1974 0.4158 0.4112
H19 H 0.3513 0.4082 0.4323
C40 C 0.3190(5) 0.51128(18) 0.51802(11)
C41 C 0.3092(5) 0.53849(19) 0.48679(12)
H20 H 0.2995 0.5178 0.4663
C42 C 0.3129(5) 0.59395(19) 0.48441(12)
H21 H 0.3040 0.6111 0.4627
C43 C 0.3297(6) 0.6249(2) 0.51406(12)
H22 H 0.3295 0.6634 0.5128
C44 C 0.3467(5) 0.59914(18) 0.54535(12)
H23 H 0.3610 0.6207 0.5654
C45 C 0.3437(5) 0.54244(17) 0.54868(11)
C46 C 0.3590(5) 0.58478(18) 0.63436(11)
H24 H 0.3637 0.5762 0.6594
C47 C 0.2042(6) 0.6063(2) 0.62609(13)
H25 H 0.1894 0.6127 0.6014
H26 H 0.1913 0.6405 0.6384
H27 H 0.1329 0.5796 0.6332
C48 C 0.4755(6) 0.62960(18) 0.63034(12)
H28 H 0.5723 0.6155 0.6378
H29 H 0.4528 0.6610 0.6444
H30 H 0.4749 0.6406 0.6063
C49 C 0.6031(5) 0.54114(19) 0.69699(12)
H31 H 0.5953 0.5501 0.6720
C50 C 0.7629(6) 0.5232(2) 0.70474(14)
H32 H 0.8285 0.5535 0.7005
H33 H 0.7850 0.4926 0.6899
H34 H 0.7767 0.5119 0.7287
C51 C 0.5644(6) 0.59405(19) 0.71524(13)
H35 H 0.4600 0.6017 0.7109
H36 H 0.6218 0.6241 0.7066
H37 H 0.5868 0.5901 0.7399
C52 C 0.5193(5) 0.45918(18) 0.76578(11)
C53 C 0.6010(5) 0.50128(19) 0.78183(12)
H38 H 0.6326 0.5305 0.7682
C54 C 0.6375(6) 0.50195(19) 0.81664(12)
H39 H 0.6937 0.5309 0.8267
C55 C 0.5910(6) 0.46003(19) 0.83654(12)
H40 H 0.6131 0.4607 0.8606
C56 C 0.5133(6) 0.41745(19) 0.82223(12)
H41 H 0.4851 0.3887 0.8366
C57 C 0.4738(5) 0.41485(18) 0.78685(11)
C58 C 0.3731(5) 0.28812(19) 0.81516(12)
H42 H 0.3301 0.2511 0.8116
C59 C 0.3001(6) 0.3121(2) 0.84673(12)
H43 H 0.3011 0.3519 0.8455
H44 H 0.3545 0.3003 0.8678
H45 H 0.1989 0.2993 0.8468
C60 C 0.5390(5) 0.27943(19) 0.82141(12)
H46 H 0.5750 0.2577 0.8027
H47 H 0.5590 0.2603 0.8432
H48 H 0.5885 0.3147 0.8223
C61 C 0.0538(5) 0.22013(18) 0.79855(11)
H49 H 0.0952 0.2569 0.8042
C62 C -0.1134(5) 0.22717(19) 0.79683(12)
H50 H -0.1419 0.2559 0.7804
H51 H -0.1444 0.2371 0.8195
H52 H -0.1603 0.1930 0.7895
C63 C 0.1082(5) 0.1829(2) 0.82847(11)
H53 H 0.0707 0.1461 0.8244
H54 H 0.0731 0.1969 0.8499
H55 H 0.2153 0.1822 0.8301
C64 C -0.0108(5) 0.11158(17) 0.74180(11)
C65 C -0.0790(5) 0.09351(17) 0.77069(11)
H56 H -0.0769 0.1163 0.7903
C66 C -0.1493(5) 0.04401(19) 0.77194(12)
H57 H -0.1939 0.0332 0.7921
C67 C -0.1541(5) 0.01038(19) 0.74363(12)
H58 H -0.1997 -0.0242 0.7445
C68 C -0.0926(5) 0.02716(18) 0.71424(11)
H59 H -0.0977 0.0038 0.6949
C69 C -0.0229(5) 0.07751(17) 0.71185(11)
C70 C -0.0614(5) 0.03434(18) 0.62680(11)
H60 H -0.0476 0.0403 0.6020
C71 C -0.2237(5) 0.0448(2) 0.63094(12)
H61 H -0.2444 0.0407 0.6551
H62 H -0.2823 0.0186 0.6171
H63 H -0.2486 0.0818 0.6234
C72 C -0.0183(6) -0.02493(18) 0.63357(12)
H64 H 0.0883 -0.0284 0.6340
H65 H -0.0632 -0.0480 0.6154
H66 H -0.0523 -0.0364 0.6557
C73 C 0.2128(5) 0.02789(18) 0.57128(12)
H67 H 0.1969 0.0216 0.5960
C74 C 0.3758(6) 0.0145(2) 0.56726(13)
H68 H 0.3994 0.0211 0.5436
H69 H 0.3940 -0.0237 0.5730
H70 H 0.4371 0.0376 0.5827
C75 C 0.1100(6) -0.01201(19) 0.55156(13)
H71 H 0.1384 -0.0493 0.5576
H72 H 0.1168 -0.0066 0.5269
H73 H 0.0093 -0.0056 0.5576
C76 C 0.2392(6) 0.11387(19) 0.50081(12)
C77 C 0.2557(6) 0.0625(2) 0.48656(12)
H74 H 0.2479 0.0315 0.5008
C78 C 0.2829(6) 0.0548(2) 0.45272(13)
H75 H 0.2968 0.0192 0.4441
C79 C 0.2898(6) 0.0998(2) 0.43126(13)
H76 H 0.3060 0.0950 0.4077
C80 C 0.2730(7) 0.1509(2) 0.44424(13)
H77 H 0.2750 0.1811 0.4292
C81 C 0.2529(6) 0.1604(2) 0.47920(12)
C82 C 0.3422(5) 0.28860(18) 0.45015(11)
H78 H 0.3681 0.3275 0.4546
C83 C 0.4858(6) 0.2598(2) 0.44442(13)
H79 H 0.5520 0.2633 0.4650
H80 H 0.5310 0.2763 0.4249
H81 H 0.4669 0.2213 0.4397
C84 C 0.2370(6) 0.2885(2) 0.41809(12)
H82 H 0.2052 0.2512 0.4129
H83 H 0.2870 0.3032 0.3987
H84 H 0.1517 0.3110 0.4221
loop_
_geom_bond_atom_site_label_1
_geom_bond_atom_site_label_2
_geom_bond_site_symmetry_1
_geom_bond_site_symmetry_2
S1 O1 1_555 1_555
O2 S1 1_555 1_555
O3 S1 1_555 1_555
O4 S1 1_555 1_555
Cl1 C1 1_555 1_555
Cl2 C1 1_555 1_555
Cl3 C1 1_555 1_555
C1 H1 1_555 1_555
Cl4 C2 1_555 1_555
Cl5 C2 1_555 1_555
Cl6 C2 1_555 1_555
C2 H2 1_555 1_555
Cl7 C3 1_555 1_555
Cl8 C3 1_555 1_555
Cl9 C3 1_555 1_555
C3 H3 1_555 1_555
Cl10 C4 1_555 1_555
Cl11 C4 1_555 1_555
Cl12 C4 1_555 1_555
C4 H4 1_555 1_555
N1 H5 1_555 1_555
N2 H6 1_555 1_555
N3 H7 1_555 1_555
N4 H8 1_555 1_555
N5 H9 1_555 1_555
N6 H10 1_555 1_555
N7 H11 1_555 1_555
N8 H12 1_555 1_555
C5 N1 1_555 1_555
C6 C5 1_555 1_555
C7 C6 1_555 1_555
C8 N1 1_555 1_555
C9 N2 1_555 1_555
C10 C9 1_555 1_555
C11 C10 1_555 1_555
C12 N2 1_555 1_555
C13 N3 1_555 1_555
C14 C13 1_555 1_555
C15 C14 1_555 1_555
C16 N3 1_555 1_555
C17 N4 1_555 1_555
C18 C17 1_555 1_555
C19 C18 1_555 1_555
C20 N4 1_555 1_555
C21 N5 1_555 1_555
C22 C21 1_555 1_555
C23 C22 1_555 1_555
C24 N5 1_555 1_555
C25 N6 1_555 1_555
C26 C25 1_555 1_555
C27 C26 1_555 1_555
C28 N6 1_555 1_555
C29 N7 1_555 1_555
C30 C29 1_555 1_555
C31 C30 1_555 1_555
C32 N7 1_555 1_555
C33 N8 1_555 1_555
C34 C33 1_555 1_555
C35 C34 1_555 1_555
C36 N8 1_555 1_555
C37 C6 1_555 1_555
H13 C37 1_555 1_555
C38 C37 1_555 1_555
H14 C38 1_555 1_555
H15 C38 1_555 1_555
H16 C38 1_555 1_555
C39 C37 1_555 1_555
H17 C39 1_555 1_555
H18 C39 1_555 1_555
H19 C39 1_555 1_555
C40 C7 1_555 1_555
C41 C40 1_555 1_555
H20 C41 1_555 1_555
C42 C41 1_555 1_555
H21 C42 1_555 1_555
C43 C42 1_555 1_555
H22 C43 1_555 1_555
C44 C43 1_555 1_555
H23 C44 1_555 1_555
C45 C10 1_555 1_555
C46 C11 1_555 1_555
H24 C46 1_555 1_555
C47 C46 1_555 1_555
H25 C47 1_555 1_555
H26 C47 1_555 1_555
H27 C47 1_555 1_555
C48 C46 1_555 1_555
H28 C48 1_555 1_555
H29 C48 1_555 1_555
H30 C48 1_555 1_555
C49 C14 1_555 1_555
H31 C49 1_555 1_555
C50 C49 1_555 1_555
H32 C50 1_555 1_555
H33 C50 1_555 1_555
H34 C50 1_555 1_555
C51 C49 1_555 1_555
H35 C51 1_555 1_555
H36 C51 1_555 1_555
H37 C51 1_555 1_555
C52 C15 1_555 1_555
C53 C52 1_555 1_555
H38 C53 1_555 1_555
C54 C53 1_555 1_555
H39 C54 1_555 1_555
C55 C54 1_555 1_555
H40 C55 1_555 1_555
C56 C55 1_555 1_555
H41 C56 1_555 1_555
C57 C18 1_555 1_555
C58 C19 1_555 1_555
H42 C58 1_555 1_555
C59 C58 1_555 1_555
H43 C59 1_555 1_555
H44 C59 1_555 1_555
H45 C59 1_555 1_555
C60 C58 1_555 1_555
H46 C60 1_555 1_555
H47 C60 1_555 1_555
H48 C60 1_555 1_555
C61 C22 1_555 1_555
H49 C61 1_555 1_555
C62 C61 1_555 1_555
H50 C62 1_555 1_555
H51 C62 1_555 1_555
H52 C62 1_555 1_555
C63 C61 1_555 1_555
H53 C63 1_555 1_555
H54 C63 1_555 1_555
H55 C63 1_555 1_555
C64 C23 1_555 1_555
C65 C64 1_555 1_555
H56 C65 1_555 1_555
C66 C65 1_555 1_555
H57 C66 1_555 1_555
C67 C66 1_555 1_555
H58 C67 1_555 1_555
C68 C67 1_555 1_555
H59 C68 1_555 1_555
C69 C26 1_555 1_555
C70 C27 1_555 1_555
H60 C70 1_555 1_555
C71 C70 1_555 1_555
H61 C71 1_555 1_555
H62 C71 1_555 1_555
H63 C71 1_555 1_555
C72 C70 1_555 1_555
H64 C72 1_555 1_555
H65 C72 1_555 1_555
H66 C72 1_555 1_555
C73 C30 1_555 1_555
H67 C73 1_555 1_555
C74 C73 1_555 1_555
H68 C74 1_555 1_555
H69 C74 1_555 1_555
H70 C74 1_555 1_555
C75 C73 1_555 1_555
H71 C75 1_555 1_555
H72 C75 1_555 1_555
H73 C75 1_555 1_555
C76 C31 1_555 1_555
C77 C76 1_555 1_555
H74 C77 1_555 1_555
C78 C77 1_555 1_555
H75 C78 1_555 1_555
C79 C78 1_555 1_555
H76 C79 1_555 1_555
C80 C79 1_555 1_555
H77 C80 1_555 1_555
C81 C34 1_555 1_555
C82 C35 1_555 1_555
H78 C82 1_555 1_555
C83 C82 1_555 1_555
H79 C83 1_555 1_555
H80 C83 1_555 1_555
H81 C83 1_555 1_555
C84 C82 1_555 1_555
H82 C84 1_555 1_555
H83 C84 1_555 1_555
H84 C84 1_555 1_555
C5 C36 1_555 1_555
C7 C8 1_555 1_555
C8 C9 1_555 1_555
C11 C12 1_555 1_555
C12 C13 1_555 1_555
C15 C16 1_555 1_555
C16 C17 1_555 1_555
C19 C20 1_555 1_555
C20 C21 1_555 1_555
C23 C24 1_555 1_555
C24 C25 1_555 1_555
C27 C28 1_555 1_555
C28 C29 1_555 1_555
C31 C32 1_555 1_555
C32 C33 1_555 1_555
C35 C36 1_555 1_555
C40 C45 1_555 1_555
C44 C45 1_555 1_555
C52 C57 1_555 1_555
C56 C57 1_555 1_555
C64 C69 1_555 1_555
C68 C69 1_555 1_555
C76 C81 1_555 1_555
C80 C81 1_555 1_555

#END
