
#######################################################################
#
#                 Cambridge Crystallographic Data Centre
#                                CCDC 
#
#######################################################################
#
# If this CIF has been generated from an entry in the Cambridge 
# Structural Database, then it will include bibliographic, chemical, 
# crystal, experimental, refinement or atomic coordinate data resulting 
# from the CCDC's data processing and validation procedures.
#
#######################################################################

data_UCAZOO
_chemical_formula_moiety         'C20 H37 N5 O6,H2 O1'
_chemical_name_systematic        
'all-N-methyl-L-alanyl-L-alanyl-L-alanyl-L-alanyl-L-alanine monohydrate'
_symmetry_cell_setting           triclinic
_symmetry_space_group_name_H-M   'P 1'
_symmetry_Int_Tables_number      1
_space_group_name_Hall           'P 1'
loop_
_symmetry_equiv_pos_site_id
_symmetry_equiv_pos_as_xyz
1 x,y,z
_cell_length_a                   5.9382(4)
_cell_length_b                   6.7703(7)
_cell_length_c                   15.524(2)
_cell_angle_alpha                97.127(4)
_cell_angle_beta                 92.392(6)
_cell_angle_gamma                99.132(6)
_cell_volume                     610.243
_exptl_crystal_colour            colorless
_exptl_crystal_description       Prism
_cell_formula_units_Z            1
loop_
_atom_site_label
_atom_site_type_symbol
_atom_site_fract_x
_atom_site_fract_y
_atom_site_fract_z
O1 O 0.1598(4) 0.6038(4) 0.30924(14)
O2 O 0.6711(4) 0.5963(4) -0.12318(14)
N1 N 0.3556(4) 0.7457(3) 0.10593(14)
C1 C 0.7901(5) 0.4508(4) -0.51851(17)
O3 O 0.5089(4) 0.6865(4) 0.26888(15)
N2 N 0.4143(4) 0.7997(4) -0.08611(14)
C2 C 0.4954(5) 0.6600(4) -0.14067(18)
O4 O 0.9635(4) 0.3886(4) -0.49544(14)
C3 C 0.6669(5) 0.3622(4) -0.60601(18)
O6 O 0.3704(5) 1.0789(3) 0.10011(15)
N3 N 0.6962(4) 0.5895(4) -0.46818(14)
N4 N 0.5138(5) 0.5337(4) -0.29298(16)
C4 C 0.3887(5) 0.5454(4) 0.0673(2)
C5 C 0.3008(5) 0.6705(4) 0.25769(17)
N5 N 0.8431(4) 0.2801(4) -0.66033(15)
C6 C 0.4217(5) 0.9154(4) 0.07027(17)
C7 C 0.6415(6) 0.7012(5) -0.31555(19)
C8 C 0.5612(5) 0.9011(4) -0.01000(17)
C9 C 0.2030(5) 0.7511(5) 0.17789(18)
O7 O 0.6178(5) 0.8692(3) -0.28103(16)
C10 C 0.3540(6) 0.5734(5) -0.22575(19)
C11 C 0.2116(7) 0.8855(6) -0.1079(2)
C12 C 0.7568(7) 0.1998(6) -0.7522(2)
C13 C 0.4959(6) 0.6722(5) -0.4949(2)
C14 C 0.6822(7) 1.1084(6) -0.0270(3)
C15 C 0.8162(5) 0.6794(5) -0.38424(19)
C16 C 0.4676(6) 0.1978(5) -0.5956(3)
C17 C -0.0374(6) 0.6550(8) 0.1463(2)
C18 C 0.5563(8) 0.3283(5) -0.3195(3)
C19 C 0.9637(7) 0.8796(6) -0.3918(3)
C20 C 0.1840(7) 0.3908(7) -0.2115(3)
H3 H 0.6094 0.4643 -0.6341
H4 H 0.3293 0.4476 0.1039
H5 H 0.5487 0.5432 0.0615
H6 H 0.3091 0.5135 0.0110
H7 H 0.9720 0.3843 -0.6625
H8 H 0.8917 0.1707 -0.6347
H9 H 0.6784 0.8222 -0.0004
H10 H 0.1921 0.8909 0.1934
H11 H 0.2642 0.6708 -0.2417
H12 H 0.1863 0.9815 -0.0598
H13 H 0.0813 0.7800 -0.1186
H14 H 0.2340 0.9519 -0.1587
H15 H 0.8761 0.1486 -0.7834
H16 H 0.7095 0.3069 -0.7798
H17 H 0.6291 0.0933 -0.7521
H18 H 0.4602 0.7677 -0.4486
H19 H 0.3681 0.5651 -0.5089
H20 H 0.5282 0.7385 -0.5453
H21 H 0.7773 1.1724 0.0234
H22 H 0.5701 1.1905 -0.0394
H23 H 0.7747 1.0924 -0.0759
H24 H 0.9163 0.5897 -0.3684
H25 H 0.3915 0.1437 -0.6513
H26 H 0.3618 0.2538 -0.5585
H27 H 0.5240 0.0921 -0.5697
H28 H -0.1363 0.6613 0.1936
H29 H -0.0349 0.5164 0.1244
H30 H -0.0928 0.7218 0.1007
H31 H 0.4442 0.2341 -0.2963
H32 H 0.7061 0.3161 -0.2974
H33 H 0.5465 0.3000 -0.3818
H34 H 1.0387 0.9332 -0.3359
H35 H 0.8711 0.9726 -0.4102
H36 H 1.0762 0.8599 -0.4332
H37 H 0.0972 0.3378 -0.2652
H38 H 0.0826 0.4276 -0.1680
H39 H 0.2650 0.2900 -0.1929
O5 O 0.8878(4) 0.8857(4) -0.62750(17)
H1 H 0.7911 0.9112 -0.6746
H2 H 1.0503 0.9259 -0.6270
loop_
_geom_bond_atom_site_label_1
_geom_bond_atom_site_label_2
_geom_bond_site_symmetry_1
_geom_bond_site_symmetry_2
O1 C5 1_555 1_555
O2 C2 1_555 1_555
N1 C4 1_555 1_555
C1 O4 1_555 1_555
O3 C5 1_555 1_555
N2 C2 1_555 1_555
C2 C10 1_555 1_555
O5 H1 1_555 1_555
C3 C1 1_555 1_555
O6 C6 1_555 1_555
N3 C1 1_555 1_555
N4 C7 1_555 1_555
C4 H4 1_555 1_555
C5 C9 1_555 1_555
N5 C3 1_555 1_555
C6 N1 1_555 1_555
C7 O7 1_555 1_555
C8 N2 1_555 1_555
C9 N1 1_555 1_555
C10 N4 1_555 1_555
C11 N2 1_555 1_555
C12 N5 1_555 1_555
C13 N3 1_555 1_555
C14 C8 1_555 1_555
C15 N3 1_555 1_555
C16 C3 1_555 1_555
C17 C9 1_555 1_555
C18 N4 1_555 1_555
C19 C15 1_555 1_555
C20 C10 1_555 1_555
H2 O5 1_555 1_555
H3 C3 1_555 1_555
H5 C4 1_555 1_555
H6 C4 1_555 1_555
H7 N5 1_555 1_555
H8 N5 1_555 1_555
H9 C8 1_555 1_555
H10 C9 1_555 1_555
H11 C10 1_555 1_555
H12 C11 1_555 1_555
H13 C11 1_555 1_555
H14 C11 1_555 1_555
H15 C12 1_555 1_555
H16 C12 1_555 1_555
H17 C12 1_555 1_555
H18 C13 1_555 1_555
H19 C13 1_555 1_555
H20 C13 1_555 1_555
H21 C14 1_555 1_555
H22 C14 1_555 1_555
H23 C14 1_555 1_555
H24 C15 1_555 1_555
H25 C16 1_555 1_555
H26 C16 1_555 1_555
H27 C16 1_555 1_555
H28 C17 1_555 1_555
H29 C17 1_555 1_555
H30 C17 1_555 1_555
H31 C18 1_555 1_555
H32 C18 1_555 1_555
H33 C18 1_555 1_555
H34 C19 1_555 1_555
H35 C19 1_555 1_555
H36 C19 1_555 1_555
H37 C20 1_555 1_555
H38 C20 1_555 1_555
H39 C20 1_555 1_555
C6 C8 1_555 1_555
C7 C15 1_555 1_555

#END
