
#######################################################################
#
#                 Cambridge Crystallographic Data Centre
#                                CCDC 
#
#######################################################################
#
# If this CIF has been generated from an entry in the Cambridge 
# Structural Database, then it will include bibliographic, chemical, 
# crystal, experimental, refinement or atomic coordinate data resulting 
# from the CCDC's data processing and validation procedures.
#
#######################################################################

data_UCAZAB
_chemical_formula_moiety         'C25 H26 Br1 N1 O5'
_chemical_name_systematic        
'1-t-Butyl 2-methyl 2-benzyl-4-(4-bromobenzylidene)-5-oxopyrrolidine-1,2-dicarboxylate'
_symmetry_cell_setting           orthorhombic
_symmetry_space_group_name_H-M   'P 21 21 21'
_symmetry_Int_Tables_number      19
_space_group_name_Hall           'P 2ac 2ab'
loop_
_symmetry_equiv_pos_site_id
_symmetry_equiv_pos_as_xyz
1 x,y,z
2 1/2-x,-y,1/2+z
3 -x,1/2+y,1/2-z
4 1/2+x,1/2-y,-z
_cell_length_a                   7.8787(15)
_cell_length_b                   11.789(2)
_cell_length_c                   26.185(5)
_cell_angle_alpha                90
_cell_angle_beta                 90
_cell_angle_gamma                90
_cell_volume                     2432.12
_exptl_crystal_colour            colorless
_exptl_crystal_description       block
_cell_formula_units_Z            4
loop_
_atom_site_label
_atom_site_type_symbol
_atom_site_fract_x
_atom_site_fract_y
_atom_site_fract_z
Br1 Br -0.50202(9) 1.40460(5) 0.94152(2)
C1 C -0.3173(6) 1.3032(4) 0.93448(17)
C2 C -0.3464(6) 1.1931(4) 0.92124(17)
H1 H -0.4568 1.1666 0.9174
C3 C -0.2116(6) 1.1220(4) 0.91368(16)
H2 H -0.2320 1.0471 0.9043
C4 C -0.0454(5) 1.1583(3) 0.91961(14)
C5 C -0.0201(7) 1.2701(4) 0.93489(16)
H3 H 0.0897 1.2958 0.9408
C6 C -0.1549(7) 1.3435(4) 0.94143(19)
H4 H -0.1363 1.4188 0.9504
C7 C 0.1006(5) 1.0886(4) 0.90829(15)
H5 H 0.2030 1.1185 0.9197
C8 C 0.1152(5) 0.9888(3) 0.88442(15)
C9 C -0.0188(5) 0.9144(3) 0.86213(14)
H6 H -0.0918 0.9573 0.8394
H7 H -0.0879 0.8810 0.8889
C10 C 0.0773(4) 0.8222(3) 0.83262(14)
C11 C 0.2833(5) 0.9392(3) 0.87469(15)
C12 C 0.0060(5) 0.7040(3) 0.84434(13)
H8 H -0.1118 0.7015 0.8337
H9 H 0.0677 0.6485 0.8242
C13 C 0.0161(6) 0.6705(3) 0.89994(15)
C14 C -0.1256(6) 0.6787(4) 0.93083(19)
H10 H -0.2286 0.7026 0.9172
C15 C -0.1137(8) 0.6511(4) 0.9823(2)
H11 H -0.2086 0.6577 1.0032
C16 C 0.0368(8) 0.6142(4) 1.0026(2)
H12 H 0.0444 0.5962 1.0371
C17 C 0.1725(8) 0.6042(5) 0.9723(2)
H13 H 0.2748 0.5796 0.9862
C18 C 0.1640(6) 0.6298(4) 0.92100(18)
H14 H 0.2590 0.6195 0.9005
C19 C 0.0714(5) 0.8555(5) 0.77540(17)
C20 C -0.0331(8) 0.8189(6) 0.69375(17)
H15 H -0.1206 0.8744 0.6883
H16 H -0.0572 0.7525 0.6738
H17 H 0.0743 0.8499 0.6836
C21 C 0.3916(5) 0.7766(4) 0.82760(17)
C22 C 0.4438(5) 0.6266(4) 0.76420(19)
C23 C 0.5757(6) 0.6883(5) 0.7346(2)
H18 H 0.5220 0.7403 0.7114
H19 H 0.6425 0.6348 0.7155
H20 H 0.6478 0.7295 0.7576
C24 C 0.3200(6) 0.5684(5) 0.7287(2)
H21 H 0.2321 0.5328 0.7485
H22 H 0.3787 0.5119 0.7091
H23 H 0.2706 0.6234 0.7062
C25 C 0.5219(8) 0.5447(4) 0.8027(2)
H24 H 0.6000 0.5849 0.8242
H25 H 0.5811 0.4856 0.7849
H26 H 0.4337 0.5119 0.8233
N1 N 0.2572(4) 0.8378(3) 0.84843(13)
O1 O 0.4198(3) 0.9781(2) 0.88537(11)
O2 O 0.1437(5) 0.9340(4) 0.75881(13)
O3 O -0.0270(4) 0.7879(3) 0.74880(10)
O4 O 0.5358(4) 0.7843(3) 0.84180(13)
O5 O 0.3335(3) 0.7079(3) 0.79126(11)
loop_
_geom_bond_atom_site_label_1
_geom_bond_atom_site_label_2
_geom_bond_site_symmetry_1
_geom_bond_site_symmetry_2
Br1 C1 1_555 1_555
C1 C2 1_555 1_555
C2 H1 1_555 1_555
C3 C2 1_555 1_555
H2 C3 1_555 1_555
C4 C3 1_555 1_555
C5 C4 1_555 1_555
H3 C5 1_555 1_555
C6 C1 1_555 1_555
H4 C6 1_555 1_555
C7 C4 1_555 1_555
H5 C7 1_555 1_555
C8 C7 1_555 1_555
C9 C8 1_555 1_555
H6 C9 1_555 1_555
H7 C9 1_555 1_555
C10 C9 1_555 1_555
C11 C8 1_555 1_555
C12 C10 1_555 1_555
H8 C12 1_555 1_555
H9 C12 1_555 1_555
C13 C12 1_555 1_555
C14 C13 1_555 1_555
H10 C14 1_555 1_555
C15 C14 1_555 1_555
H11 C15 1_555 1_555
C16 C15 1_555 1_555
H12 C16 1_555 1_555
C17 C16 1_555 1_555
H13 C17 1_555 1_555
C18 C13 1_555 1_555
H14 C18 1_555 1_555
C19 C10 1_555 1_555
C20 H15 1_555 1_555
H16 C20 1_555 1_555
H17 C20 1_555 1_555
C21 N1 1_555 1_555
C22 C23 1_555 1_555
C23 H18 1_555 1_555
H19 C23 1_555 1_555
H20 C23 1_555 1_555
C24 C22 1_555 1_555
H21 C24 1_555 1_555
H22 C24 1_555 1_555
H23 C24 1_555 1_555
C25 C22 1_555 1_555
H24 C25 1_555 1_555
H25 C25 1_555 1_555
H26 C25 1_555 1_555
N1 C10 1_555 1_555
O1 C11 1_555 1_555
O2 C19 1_555 1_555
O3 C19 1_555 1_555
O4 C21 1_555 1_555
O5 C21 1_555 1_555
C5 C6 1_555 1_555
C11 N1 1_555 1_555
C17 C18 1_555 1_555
C20 O3 1_555 1_555
C22 O5 1_555 1_555

#END
