
#######################################################################
#
#                 Cambridge Crystallographic Data Centre
#                                CCDC 
#
#######################################################################
#
# If this CIF has been generated from an entry in the Cambridge 
# Structural Database, then it will include bibliographic, chemical, 
# crystal, experimental, refinement or atomic coordinate data resulting 
# from the CCDC's data processing and validation procedures.
#
#######################################################################

data_UCAZUU
_chemical_formula_moiety         'C24 H44 N6 O7,3(H2 O1)'
_chemical_name_systematic        
'all-N-methyl-L-alanyl-L-alanyl-L-alanyl-L-alanyl-L-alanyl-L-alanine trihydrate'
_symmetry_cell_setting           triclinic
_symmetry_space_group_name_H-M   'P 1'
_symmetry_Int_Tables_number      1
_space_group_name_Hall           'P 1'
loop_
_symmetry_equiv_pos_site_id
_symmetry_equiv_pos_as_xyz
1 x,y,z
_cell_length_a                   5.9757(3)
_cell_length_b                   9.9960(8)
_cell_length_c                   13.5831(10)
_cell_angle_alpha                98.898(3)
_cell_angle_beta                 93.638(4)
_cell_angle_gamma                102.759(4)
_cell_volume                     777.781
_exptl_crystal_colour            colorless
_exptl_crystal_description       Prism
_cell_formula_units_Z            1
loop_
_atom_site_label
_atom_site_type_symbol
_atom_site_fract_x
_atom_site_fract_y
_atom_site_fract_z
O1 O 0.7703(4) 0.8628(2) 0.49998(18)
O2 O 0.2041(4) 0.3343(2) 0.18912(16)
N1 N 0.7252(4) 1.0696(2) 0.64718(18)
N2 N -0.7012(4) -0.3004(2) -0.05972(17)
O3 O 0.2433(4) 0.3792(2) 0.42772(16)
N3 N 0.4695(4) 0.7077(2) 0.54205(17)
O4 O -0.3902(5) -0.1228(2) 0.14605(19)
O5 O -0.4001(4) -0.1606(2) -0.1138(2)
N4 N 0.2191(4) 0.5535(3) 0.34550(18)
O6 O -0.7684(4) -0.6245(3) -0.2333(2)
N5 N -0.3927(4) 0.0420(2) 0.05136(18)
C1 C -0.5641(5) -0.1772(3) -0.0629(2)
N6 N -0.1202(4) 0.2099(3) 0.23885(18)
C2 C 0.3223(5) 0.4995(3) 0.4150(2)
C3 C 0.6006(5) 0.8363(3) 0.5466(2)
O8 O -1.0133(4) -0.4955(3) -0.1970(2)
C4 C 0.0389(5) 0.3298(3) 0.2387(2)
C5 C -0.0044(5) 0.4628(3) 0.2975(2)
C6 C 0.8823(6) 1.0368(4) 0.7233(3)
C7 C 0.5357(5) 0.5889(3) 0.4820(2)
C8 C -0.0776(6) 0.0780(3) 0.1872(2)
C9 C -0.8241(5) -0.5232(3) -0.1854(2)
C10 C 0.2804(6) 0.6745(4) 0.6043(3)
C11 C -0.2809(6) 0.1679(4) 0.0154(3)
C12 C -0.6123(5) -0.0460(3) -0.0008(2)
C13 C -0.3086(6) 0.1981(4) 0.3027(3)
C14 C -0.3003(5) -0.0097(3) 0.1257(2)
C15 C -0.6360(5) -0.4284(3) -0.1068(2)
C16 C 0.5204(5) 0.9566(3) 0.6064(2)
C17 C 0.3229(7) 0.6808(4) 0.3101(3)
C18 C -0.7387(7) 0.0272(4) -0.0678(3)
C19 C 0.6387(6) 0.5042(4) 0.5486(3)
C20 C -0.8925(6) -0.3173(4) 0.0028(3)
C21 C -0.1388(7) 0.5310(4) 0.2302(3)
C22 C -0.5610(9) -0.5061(5) -0.0276(3)
C23 C 0.0178(7) -0.0007(4) 0.2609(3)
C24 C 0.3649(7) 1.0095(5) 0.5380(4)
H1 H 0.7949 1.1019 0.5976
H2 H 0.6900 1.1521 0.6674
H7 H -0.0988 0.4396 0.3498
H8 H 1.0087 1.1160 0.7453
H9 H 0.8007 1.0140 0.7793
H10 H 0.9402 0.9588 0.6944
H13 H 0.6520 0.6237 0.4406
H14 H 0.0384 0.1001 0.1427
H15 H 0.2107 0.5766 0.5884
H16 H 0.3401 0.6986 0.6736
H17 H 0.1670 0.7261 0.5917
H18 H -0.1408 0.2125 0.0575
H19 H -0.3827 0.2301 0.0175
H20 H -0.2460 0.1442 -0.0522
H21 H -0.7119 -0.0725 0.0491
H22 H -0.3993 0.1040 0.2906
H23 H -0.4038 0.2594 0.2872
H24 H -0.2473 0.2238 0.3718
H25 H -0.5012 -0.3965 -0.1393
H26 H 0.4394 0.9240 0.6601
H27 H 0.3508 0.6646 0.2418
H28 H 0.2210 0.7395 0.3202
H29 H 0.4758 0.7227 0.3458
H30 H -0.8791 -0.0359 -0.0993
H31 H -0.6432 0.0570 -0.1183
H32 H -0.7741 0.1067 -0.0283
H33 H 0.6792 0.4278 0.5075
H34 H 0.5271 0.4690 0.5917
H35 H 0.7740 0.5619 0.5884
H36 H -0.9690 -0.4141 -0.0062
H37 H -0.9994 -0.2650 -0.0169
H38 H -0.8357 -0.2843 0.0720
H39 H -0.2812 0.4672 0.2019
H40 H -0.0470 0.5560 0.1774
H41 H -0.1710 0.6132 0.2675
H42 H -0.5176 -0.5879 -0.0594
H43 H -0.6873 -0.5327 0.0111
H44 H -0.4322 -0.4470 0.0157
H45 H 0.0435 -0.0859 0.2254
H46 H -0.0907 -0.0214 0.3088
H47 H 0.1609 0.0559 0.2951
H48 H 0.2320 0.9364 0.5112
H49 H 0.4474 1.0404 0.4842
H50 H 0.3165 1.0860 0.5753
O7 O -0.3805(4) 0.2838(3) -0.2378(2)
H3 H -0.5115 0.3191 -0.2190
H4 H -0.3181 0.2997 -0.2996
O9 O -0.1040(6) 0.7424(3) -0.2423(2)
H5 H -0.2195 0.7914 -0.2224
H6 H 0.0001 0.7753 -0.2890
O10 O 0.0326(5) 0.2591(3) 0.57406(19)
H11 H -0.1053 0.2733 0.6023
H12 H 0.1231 0.2910 0.5264
loop_
_geom_bond_atom_site_label_1
_geom_bond_atom_site_label_2
_geom_bond_site_symmetry_1
_geom_bond_site_symmetry_2
O1 C3 1_555 1_555
O2 C4 1_555 1_555
N1 C6 1_555 1_555
N2 C1 1_555 1_555
O3 C2 1_555 1_555
N3 C3 1_555 1_555
O4 C14 1_555 1_555
O5 C1 1_555 1_555
N4 C2 1_555 1_555
O6 C9 1_555 1_555
O7 H3 1_555 1_555
N5 C11 1_555 1_555
C1 C12 1_555 1_555
N6 C4 1_555 1_555
C2 C7 1_555 1_555
C3 C16 1_555 1_555
O8 C9 1_555 1_555
O9 H5 1_555 1_555
C4 C5 1_555 1_555
C5 N4 1_555 1_555
C6 H8 1_555 1_555
O10 H11 1_555 1_555
C7 N3 1_555 1_555
C8 N6 1_555 1_555
C9 C15 1_555 1_555
C10 N3 1_555 1_555
C11 H18 1_555 1_555
C12 N5 1_555 1_555
C13 N6 1_555 1_555
C14 N5 1_555 1_555
C15 N2 1_555 1_555
C16 N1 1_555 1_555
C17 N4 1_555 1_555
C18 C12 1_555 1_555
C19 C7 1_555 1_555
C20 N2 1_555 1_555
C21 C5 1_555 1_555
C22 C15 1_555 1_555
C23 C8 1_555 1_555
C24 C16 1_555 1_555
H1 N1 1_555 1_555
H2 N1 1_555 1_555
H4 O7 1_555 1_555
H6 O9 1_555 1_555
H7 C5 1_555 1_555
H9 C6 1_555 1_555
H10 C6 1_555 1_555
H12 O10 1_555 1_555
H13 C7 1_555 1_555
H14 C8 1_555 1_555
H15 C10 1_555 1_555
H16 C10 1_555 1_555
H17 C10 1_555 1_555
H19 C11 1_555 1_555
H20 C11 1_555 1_555
H21 C12 1_555 1_555
H22 C13 1_555 1_555
H23 C13 1_555 1_555
H24 C13 1_555 1_555
H25 C15 1_555 1_555
H26 C16 1_555 1_555
H27 C17 1_555 1_555
H28 C17 1_555 1_555
H29 C17 1_555 1_555
H30 C18 1_555 1_555
H31 C18 1_555 1_555
H32 C18 1_555 1_555
H33 C19 1_555 1_555
H34 C19 1_555 1_555
H35 C19 1_555 1_555
H36 C20 1_555 1_555
H37 C20 1_555 1_555
H38 C20 1_555 1_555
H39 C21 1_555 1_555
H40 C21 1_555 1_555
H41 C21 1_555 1_555
H42 C22 1_555 1_555
H43 C22 1_555 1_555
H44 C22 1_555 1_555
H45 C23 1_555 1_555
H46 C23 1_555 1_555
H47 C23 1_555 1_555
H48 C24 1_555 1_555
H49 C24 1_555 1_555
H50 C24 1_555 1_555
C8 C14 1_555 1_555

#END
