
#######################################################################
#
#                 Cambridge Crystallographic Data Centre
#                                CCDC 
#
#######################################################################
#
# If this CIF has been generated from an entry in the Cambridge 
# Structural Database, then it will include bibliographic, chemical, 
# crystal, experimental, refinement or atomic coordinate data resulting 
# from the CCDC's data processing and validation procedures.
#
#######################################################################

data_UCEFEQ
_chemical_formula_moiety         'C21 H20 F1 N1 O3'
_chemical_name_systematic        
'butyl 3-(2-fluoro-6-(5-methyl-1,3-benzoxazol-2-yl)phenyl)acrylate'
_symmetry_cell_setting           triclinic
_symmetry_space_group_name_H-M   'P -1'
_symmetry_Int_Tables_number      2
_space_group_name_Hall           '-P 1'
loop_
_symmetry_equiv_pos_site_id
_symmetry_equiv_pos_as_xyz
1 x,y,z
2 -x,-y,-z
_cell_length_a                   7.832(4)
_cell_length_b                   10.744(5)
_cell_length_c                   12.557(6)
_cell_angle_alpha                112.171(6)
_cell_angle_beta                 97.626(7)
_cell_angle_gamma                105.108(6)
_cell_volume                     912.592
_exptl_crystal_colour            colorless
_exptl_crystal_description       block
_cell_formula_units_Z            2
loop_
_atom_site_label
_atom_site_type_symbol
_atom_site_fract_x
_atom_site_fract_y
_atom_site_fract_z
O1 O 0.2632(3) 0.40558(19) 0.64300(16)
O2 O 0.2854(3) 0.9070(2) 0.52991(19)
O3 O 0.1644(3) 0.9001(2) 0.3567(2)
F1 F 0.3264(2) 0.48279(19) 0.20033(14)
N1 N 0.1881(3) 0.5861(2) 0.62432(18)
C1 C 0.2782(3) 0.4869(3) 0.3826(2)
C2 C 0.3037(4) 0.4149(3) 0.2720(2)
C3 C 0.3123(4) 0.2804(4) 0.2292(3)
H1 H 0.3352 0.2392 0.1553
C4 C 0.2860(5) 0.2072(3) 0.2982(3)
H2 H 0.2869 0.1140 0.2698
C5 C 0.2585(4) 0.2717(3) 0.4093(3)
H3 H 0.2414 0.2217 0.4557
C6 C 0.2560(3) 0.4116(3) 0.4529(2)
C7 C 0.2320(3) 0.4743(3) 0.5727(2)
C8 C 0.2349(4) 0.4871(3) 0.7494(2)
C9 C 0.2468(4) 0.4671(4) 0.8517(3)
H4 H 0.2796 0.3926 0.8583
C10 C 0.2065(5) 0.5655(4) 0.9437(3)
H5 H 0.2137 0.5567 1.0149
C11 C 0.1561(4) 0.6761(3) 0.9361(3)
C12 C 0.1483(4) 0.6937(3) 0.8320(2)
H6 H 0.1163 0.7683 0.8250
C13 C 0.1899(4) 0.5964(3) 0.7382(2)
C14 C 0.2749(4) 0.6331(3) 0.4246(2)
H7 H 0.3176 0.6888 0.5064
C15 C 0.2192(4) 0.6962(3) 0.3614(2)
H8 H 0.1774 0.6441 0.2792
C16 C 0.2194(4) 0.8419(3) 0.4128(3)
C17 C 0.2945(5) 1.0536(3) 0.5885(3)
H9 H 0.1728 1.0604 0.5774
H10 H 0.3681 1.1115 0.5567
C18 C 0.3820(6) 1.1035(4) 0.7199(4)
H11 H 0.4945 1.0819 0.7278
H12 H 0.4132 1.2063 0.7609
C19 C 0.2638(7) 1.0370(4) 0.7750(4)
H13 H 0.2385 0.9348 0.7358
H14 H 0.1485 1.0534 0.7614
C20 C 0.3360(7) 1.0871(4) 0.9068(3)
H15 H 0.4438 1.0631 0.9212
H16 H 0.2443 1.0415 0.9366
H17 H 0.3657 1.1888 0.9467
C21 C 0.1057(5) 0.7763(4) 1.0394(3)
H18 H 0.2122 0.8581 1.0888
H19 H 0.0603 0.7276 1.0854
H20 H 0.0129 0.8067 1.0093
loop_
_geom_bond_atom_site_label_1
_geom_bond_atom_site_label_2
_geom_bond_site_symmetry_1
_geom_bond_site_symmetry_2
O1 C7 1_555 1_555
O2 C16 1_555 1_555
O3 C16 1_555 1_555
F1 C2 1_555 1_555
N1 C7 1_555 1_555
C1 C2 1_555 1_555
C2 C3 1_555 1_555
C3 H1 1_555 1_555
C4 C3 1_555 1_555
H2 C4 1_555 1_555
C5 C4 1_555 1_555
H3 C5 1_555 1_555
C6 C1 1_555 1_555
C7 C6 1_555 1_555
C8 O1 1_555 1_555
C9 C8 1_555 1_555
H4 C9 1_555 1_555
C10 C9 1_555 1_555
H5 C10 1_555 1_555
C11 C10 1_555 1_555
C12 C11 1_555 1_555
H6 C12 1_555 1_555
C13 N1 1_555 1_555
C14 C1 1_555 1_555
H7 C14 1_555 1_555
C15 C14 1_555 1_555
H8 C15 1_555 1_555
C16 C15 1_555 1_555
C17 O2 1_555 1_555
H9 C17 1_555 1_555
H10 C17 1_555 1_555
C18 C17 1_555 1_555
H11 C18 1_555 1_555
H12 C18 1_555 1_555
C19 C18 1_555 1_555
H13 C19 1_555 1_555
H14 C19 1_555 1_555
C20 C19 1_555 1_555
H15 C20 1_555 1_555
H16 C20 1_555 1_555
H17 C20 1_555 1_555
C21 C11 1_555 1_555
H18 C21 1_555 1_555
H19 C21 1_555 1_555
H20 C21 1_555 1_555
C5 C6 1_555 1_555
C8 C13 1_555 1_555
C12 C13 1_555 1_555

#END
