
#######################################################################
#
#                 Cambridge Crystallographic Data Centre
#                                CCDC 
#
#######################################################################
#
# If this CIF has been generated from an entry in the Cambridge 
# Structural Database, then it will include bibliographic, chemical, 
# crystal, experimental, refinement or atomic coordinate data resulting 
# from the CCDC's data processing and validation procedures.
#
#######################################################################

data_UCEHOC
_chemical_formula_moiety         'C28 H22 N8'
_chemical_name_systematic        
3,3'-dibenzyl-5,5'-bis(pyridin-4-yl)-3H,3'H-4,4'-bi-1,2,3-triazole
_symmetry_cell_setting           monoclinic
_symmetry_space_group_name_H-M   'P 21/n'
_symmetry_Int_Tables_number      14
_space_group_name_Hall           '-P 2yn'
loop_
_symmetry_equiv_pos_site_id
_symmetry_equiv_pos_as_xyz
1 x,y,z
2 1/2-x,1/2+y,1/2-z
3 -x,-y,-z
4 1/2+x,1/2-y,1/2+z
_cell_length_a                   10.5985(5)
_cell_length_b                   8.0053(4)
_cell_length_c                   31.2829(14)
_cell_angle_alpha                90
_cell_angle_beta                 93.6548(6)
_cell_angle_gamma                90
_cell_volume                     2648.77
_exptl_crystal_colour            colorless
_exptl_crystal_description       rectangular
_cell_formula_units_Z            4
loop_
_atom_site_label
_atom_site_type_symbol
_atom_site_fract_x
_atom_site_fract_y
_atom_site_fract_z
C1 C 1.16789(14) 0.1570(2) 0.05468(5)
H1 H 1.1495 0.0550 0.0401
C2 C 1.18071(17) 0.3039(3) 0.03147(6)
H2 H 1.1706 0.3023 0.0011
C3 C 1.20806(17) 0.4513(3) 0.05274(7)
H3 H 1.2155 0.5517 0.0369
C4 C 1.22466(16) 0.4545(2) 0.09666(7)
H4 H 1.2451 0.5563 0.1111
C5 C 1.21149(13) 0.3087(2) 0.11984(5)
H5 H 1.2228 0.3110 0.1502
C6 C 1.18192(12) 0.15922(18) 0.09901(5)
C7 C 1.16009(12) 0.00286(18) 0.12452(5)
H6 H 1.2249 -0.0814 0.1184
H7 H 1.1693 0.0293 0.1555
C8 C 0.92033(12) -0.01839(15) 0.12756(4)
C9 C 0.83497(12) -0.12885(15) 0.10790(4)
C10 C 0.69813(12) -0.14849(16) 0.11090(4)
C11 C 0.63181(14) -0.26302(18) 0.08465(5)
H8 H 0.6741 -0.3267 0.0643
C12 C 0.50308(14) -0.2829(2) 0.08861(5)
H9 H 0.4595 -0.3624 0.0706
C13 C 0.50111(14) -0.0875(2) 0.14093(6)
H10 H 0.4559 -0.0241 0.1606
C14 C 0.63032(13) -0.05941(18) 0.13993(5)
H11 H 0.6716 0.0193 0.1588
C15 C 0.77342(15) 0.2168(2) 0.03156(5)
H12 H 0.8529 0.2013 0.0197
C16 C 0.66294(17) 0.1708(2) 0.00819(6)
H13 H 0.6673 0.1242 -0.0196
C17 C 0.54718(15) 0.1924(2) 0.02511(6)
H14 H 0.4718 0.1634 0.0087
C18 C 0.54121(15) 0.2559(2) 0.06571(6)
H15 H 0.4618 0.2677 0.0778
C19 C 0.65130(14) 0.3026(2) 0.08898(5)
H16 H 0.6466 0.3473 0.1170
C20 C 0.76801(12) 0.28495(16) 0.07196(4)
C21 C 0.88696(13) 0.34385(17) 0.09640(5)
H17 H 0.9612 0.3038 0.0817
H18 H 0.8888 0.4675 0.0963
C22 C 0.90777(11) 0.12551(16) 0.15585(4)
C23 C 0.90837(12) 0.14184(17) 0.19987(4)
C24 C 0.91646(13) 0.01507(19) 0.23385(5)
C25 C 0.89468(14) -0.15410(19) 0.22627(5)
H19 H 0.8734 -0.1932 0.1981
C26 C 0.90440(17) -0.2647(2) 0.26028(5)
H20 H 0.8880 -0.3795 0.2545
C27 C 0.9570(2) -0.0586(3) 0.30731(5)
H21 H 0.9806 -0.0241 0.3358
C28 C 0.94770(17) 0.0622(2) 0.27607(5)
H22 H 0.9624 0.1763 0.2832
N1 N 1.03418(10) -0.06705(14) 0.11412(4)
N2 N 1.02075(12) -0.19777(15) 0.08729(4)
N3 N 0.90023(11) -0.23525(14) 0.08334(4)
N4 N 0.43636(12) -0.19763(17) 0.11611(5)
N5 N 0.89660(10) 0.28456(14) 0.14089(4)
N6 N 0.89146(12) 0.39356(15) 0.17342(4)
N7 N 0.89899(12) 0.30799(16) 0.20913(4)
N8 N 0.93534(17) -0.2200(2) 0.30056(5)
loop_
_geom_bond_atom_site_label_1
_geom_bond_atom_site_label_2
_geom_bond_site_symmetry_1
_geom_bond_site_symmetry_2
C1 H1 1_555 1_555
C2 C1 1_555 1_555
H2 C2 1_555 1_555
C3 C2 1_555 1_555
H3 C3 1_555 1_555
C4 C3 1_555 1_555
H4 C4 1_555 1_555
C5 C4 1_555 1_555
H5 C5 1_555 1_555
C6 C1 1_555 1_555
C7 C6 1_555 1_555
H6 C7 1_555 1_555
H7 C7 1_555 1_555
C8 C9 1_555 1_555
C9 C10 1_555 1_555
C10 C11 1_555 1_555
C11 H8 1_555 1_555
C12 C11 1_555 1_555
H9 C12 1_555 1_555
C13 H10 1_555 1_555
C14 C10 1_555 1_555
H11 C14 1_555 1_555
C15 H12 1_555 1_555
C16 C15 1_555 1_555
H13 C16 1_555 1_555
C17 C16 1_555 1_555
H14 C17 1_555 1_555
C18 C17 1_555 1_555
H15 C18 1_555 1_555
C19 C18 1_555 1_555
H16 C19 1_555 1_555
C20 C15 1_555 1_555
C21 C20 1_555 1_555
H17 C21 1_555 1_555
H18 C21 1_555 1_555
C22 C8 1_555 1_555
C23 C22 1_555 1_555
C24 C23 1_555 1_555
C25 C24 1_555 1_555
H19 C25 1_555 1_555
C26 C25 1_555 1_555
H20 C26 1_555 1_555
C27 H21 1_555 1_555
C28 C24 1_555 1_555
H22 C28 1_555 1_555
N1 C7 1_555 1_555
N2 N1 1_555 1_555
N3 C9 1_555 1_555
N4 C12 1_555 1_555
N5 C21 1_555 1_555
N6 N5 1_555 1_555
N7 C23 1_555 1_555
N8 C26 1_555 1_555
C5 C6 1_555 1_555
C8 N1 1_555 1_555
C13 C14 1_555 1_555
C13 N4 1_555 1_555
C19 C20 1_555 1_555
C22 N5 1_555 1_555
C27 C28 1_555 1_555
C27 N8 1_555 1_555
N2 N3 1_555 1_555
N6 N7 1_555 1_555

#END
