
#######################################################################
#
#                 Cambridge Crystallographic Data Centre
#                                CCDC 
#
#######################################################################
#
# If this CIF has been generated from an entry in the Cambridge 
# Structural Database, then it will include bibliographic, chemical, 
# crystal, experimental, refinement or atomic coordinate data resulting 
# from the CCDC's data processing and validation procedures.
#
#######################################################################

data_UCEJEU
_chemical_formula_moiety         'C22 H22 N6'
_chemical_name_systematic        
1,14-diphenyl-5,6,7,8,9,10-hexahydrobis[1,2,3]triazolo[1,5-a:5',1'-c][1,4]diazecine
_symmetry_cell_setting           orthorhombic
_symmetry_space_group_name_H-M   'P c a 21'
_symmetry_Int_Tables_number      29
_space_group_name_Hall           'P 2c -2ac'
loop_
_symmetry_equiv_pos_site_id
_symmetry_equiv_pos_as_xyz
1 x,y,z
2 -x,-y,1/2+z
3 1/2+x,-y,z
4 1/2-x,y,1/2+z
_cell_length_a                   22.087(13)
_cell_length_b                   10.022(6)
_cell_length_c                   8.828(5)
_cell_angle_alpha                90
_cell_angle_beta                 90
_cell_angle_gamma                90
_cell_volume                     1954.13
_exptl_crystal_colour            colorless
_exptl_crystal_description       rod
_cell_formula_units_Z            4
loop_
_atom_site_label
_atom_site_type_symbol
_atom_site_fract_x
_atom_site_fract_y
_atom_site_fract_z
C1 C 0.18666(9) 0.4267(2) -0.0861(3)
H1 H 0.1936 0.5083 -0.0342
C2 C 0.21049(10) 0.4087(2) -0.2306(3)
H2 H 0.2332 0.4782 -0.2768
C3 C 0.20121(10) 0.2898(2) -0.3076(3)
H3 H 0.2176 0.2774 -0.4061
C4 C 0.16781(11) 0.1895(2) -0.2397(3)
H4 H 0.1614 0.1078 -0.2918
C5 C 0.14347(10) 0.2073(2) -0.0956(3)
H5 H 0.1203 0.1378 -0.0509
C6 C 0.15265(9) 0.32636(19) -0.0159(2)
C7 C 0.12878(8) 0.34672(18) 0.1377(2)
C8 C 0.09426(8) 0.26494(18) 0.2308(2)
C9 C 0.06672(8) 0.13246(18) 0.2062(2)
C10 C 0.08516(9) 0.00223(18) 0.2379(2)
C11 C 0.14008(9) -0.05176(19) 0.3099(2)
C12 C 0.15220(9) -0.1892(2) 0.2996(2)
H6 H 0.1256 -0.2451 0.2437
C13 C 0.20228(10) -0.2441(2) 0.3698(3)
H7 H 0.2098 -0.3371 0.3617
C14 C 0.24170(10) -0.1636(2) 0.4522(3)
H8 H 0.2758 -0.2016 0.5016
C15 C 0.23077(10) -0.0272(2) 0.4618(3)
H9 H 0.2578 0.0283 0.5170
C16 C 0.18036(9) 0.0284(2) 0.3909(2)
H10 H 0.1734 0.1218 0.3977
C17 C 0.05198(10) 0.30260(19) 0.4979(2)
H11 H 0.0774 0.3159 0.5890
H12 H 0.0399 0.2075 0.4943
C18 C -0.00471(10) 0.3899(2) 0.5099(2)
H13 H -0.0295 0.3580 0.5959
H14 H 0.0078 0.4826 0.5325
C19 C -0.04375(10) 0.3905(2) 0.3673(3)
H15 H -0.0181 0.4161 0.2800
H16 H -0.0755 0.4595 0.3785
C20 C -0.07453(10) 0.2561(2) 0.3315(3)
H17 H -0.0487 0.1828 0.3701
H18 H -0.1137 0.2518 0.3858
C21 C -0.08590(9) 0.2341(2) 0.1621(3)
H19 H -0.1107 0.1526 0.1490
H20 H -0.1096 0.3103 0.1222
C22 C -0.02807(9) 0.2199(2) 0.0691(3)
H21 H -0.0388 0.1956 -0.0362
H22 H -0.0068 0.3068 0.0664
N1 N 0.14032(7) 0.46250(15) 0.2162(2)
N2 N 0.11530(8) 0.45481(15) 0.3516(2)
N3 N 0.08738(8) 0.33534(15) 0.3618(2)
N4 N 0.04127(7) -0.08188(15) 0.1838(2)
N5 N -0.00219(8) -0.01142(18) 0.1192(2)
N6 N 0.01295(7) 0.11798(15) 0.1314(2)
loop_
_geom_bond_atom_site_label_1
_geom_bond_atom_site_label_2
_geom_bond_site_symmetry_1
_geom_bond_site_symmetry_2
C1 H1 1_555 1_555
C2 C1 1_555 1_555
H2 C2 1_555 1_555
C3 C2 1_555 1_555
H3 C3 1_555 1_555
C4 C3 1_555 1_555
H4 C4 1_555 1_555
C5 C4 1_555 1_555
H5 C5 1_555 1_555
C6 C1 1_555 1_555
C7 C6 1_555 1_555
C8 C7 1_555 1_555
C9 C8 1_555 1_555
C10 C9 1_555 1_555
C11 C10 1_555 1_555
C12 C11 1_555 1_555
H6 C12 1_555 1_555
C13 C12 1_555 1_555
H7 C13 1_555 1_555
C14 C13 1_555 1_555
H8 C14 1_555 1_555
C15 C14 1_555 1_555
H9 C15 1_555 1_555
C16 C11 1_555 1_555
H10 C16 1_555 1_555
C17 H11 1_555 1_555
H12 C17 1_555 1_555
C18 C17 1_555 1_555
H13 C18 1_555 1_555
H14 C18 1_555 1_555
C19 C18 1_555 1_555
H15 C19 1_555 1_555
H16 C19 1_555 1_555
C20 C19 1_555 1_555
H17 C20 1_555 1_555
H18 C20 1_555 1_555
C21 C20 1_555 1_555
H19 C21 1_555 1_555
H20 C21 1_555 1_555
C22 C21 1_555 1_555
H21 C22 1_555 1_555
H22 C22 1_555 1_555
N1 C7 1_555 1_555
N2 N1 1_555 1_555
N3 C8 1_555 1_555
N4 C10 1_555 1_555
N5 N4 1_555 1_555
N6 C9 1_555 1_555
C5 C6 1_555 1_555
C15 C16 1_555 1_555
C17 N3 1_555 1_555
C22 N6 1_555 1_555
N2 N3 1_555 1_555
N5 N6 1_555 1_555

#END
