
#######################################################################
#
#                 Cambridge Crystallographic Data Centre
#                                CCDC 
#
#######################################################################
#
# If this CIF has been generated from an entry in the Cambridge 
# Structural Database, then it will include bibliographic, chemical, 
# crystal, experimental, refinement or atomic coordinate data resulting 
# from the CCDC's data processing and validation procedures.
#
#######################################################################

data_UCEJOE
_chemical_formula_moiety         'C30 H24 N6'
_chemical_name_systematic        
3,3'-bis(4-methylphenyl)-5,5'-diphenyl-3H,3'H-4,4'-bi-1,2,3-triazole
_symmetry_cell_setting           monoclinic
_symmetry_space_group_name_H-M   'P 21/n'
_symmetry_Int_Tables_number      14
_space_group_name_Hall           '-P 2yn'
loop_
_symmetry_equiv_pos_site_id
_symmetry_equiv_pos_as_xyz
1 x,y,z
2 1/2-x,1/2+y,1/2-z
3 -x,-y,-z
4 1/2+x,1/2-y,1/2+z
_cell_length_a                   10.1162(6)
_cell_length_b                   17.5805(11)
_cell_length_c                   13.5660(8)
_cell_angle_alpha                90
_cell_angle_beta                 97.3442(8)
_cell_angle_gamma                90
_cell_volume                     2392.89
_exptl_crystal_colour            colorless
_exptl_crystal_description       irregular
_cell_formula_units_Z            4
loop_
_atom_site_label
_atom_site_type_symbol
_atom_site_fract_x
_atom_site_fract_y
_atom_site_fract_z
C1 C 0.85990(15) 0.01541(8) 0.60920(11)
H1 H 0.7788 -0.0144 0.6128
H2 H 0.9382 -0.0160 0.6312
H3 H 0.8630 0.0319 0.5405
C2 C 0.85945(13) 0.08413(7) 0.67539(9)
C3 C 0.74383(12) 0.10699(7) 0.71327(9)
H4 H 0.6639 0.0788 0.6967
C4 C 0.74329(11) 0.17014(7) 0.77473(9)
H5 H 0.6639 0.1854 0.7998
C5 C 0.86096(11) 0.21064(6) 0.79880(8)
C6 C 0.97715(11) 0.19003(7) 0.76072(8)
H6 H 1.0565 0.2188 0.7766
C7 C 0.97542(12) 0.12695(7) 0.69927(9)
H7 H 1.0544 0.1126 0.6730
C8 C 0.87490(10) 0.34338(6) 1.00044(8)
C9 C 0.86838(10) 0.37792(6) 1.09843(8)
C10 C 0.85057(11) 0.33416(7) 1.18199(9)
H8 H 0.8408 0.2806 1.1757
C11 C 0.84700(12) 0.36836(7) 1.27398(9)
H9 H 0.8346 0.3381 1.3301
C12 C 0.86156(11) 0.44656(7) 1.28394(9)
H10 H 0.8586 0.4700 1.3467
C13 C 0.88056(12) 0.49061(7) 1.20183(9)
H11 H 0.8913 0.5441 1.2088
C14 C 0.88392(11) 0.45679(7) 1.10973(9)
H12 H 0.8968 0.4873 1.0540
C15 C 1.35165(12) 0.02593(8) 1.08089(10)
H13 H 1.4026 0.0374 1.1456
H14 H 1.4006 0.0443 1.0278
H15 H 1.3387 -0.0292 1.0743
C16 C 1.21793(11) 0.06483(7) 1.07321(9)
C17 C 1.17609(12) 0.09957(8) 1.15612(9)
H16 H 1.2345 0.1009 1.2168
C18 C 1.05042(12) 0.13235(7) 1.15180(9)
H17 H 1.0231 0.1563 1.2086
C19 C 0.96571(11) 0.12939(6) 1.06299(8)
C20 C 1.00563(11) 0.09675(6) 0.97878(8)
H18 H 0.9471 0.0957 0.9182
C21 C 1.13258(11) 0.06544(7) 0.98408(9)
H19 H 1.1615 0.0442 0.9261
C22 C 0.63336(11) 0.20516(6) 1.02946(8)
C23 C 0.51156(11) 0.24826(6) 0.99432(8)
C24 C 0.39348(11) 0.22996(7) 1.03298(9)
H20 H 0.3945 0.1920 1.0829
C25 C 0.27529(12) 0.26687(7) 0.99901(10)
H21 H 0.1957 0.2537 1.0253
C26 C 0.27255(12) 0.32293(7) 0.92690(10)
H22 H 0.1914 0.3481 0.9037
C27 C 0.38930(12) 0.34211(8) 0.88873(10)
H23 H 0.3879 0.3807 0.8396
C28 C 0.50818(11) 0.30509(7) 0.92205(9)
H24 H 0.5875 0.3185 0.8955
C29 C 0.76355(10) 0.21231(6) 1.00905(8)
C30 C 0.83274(10) 0.27315(6) 0.96281(8)
N1 N 0.86688(9) 0.27220(5) 0.86853(7)
N2 N 0.92691(9) 0.33820(6) 0.84881(7)
N3 N 0.93110(9) 0.38125(6) 0.92800(7)
N4 N 0.83016(9) 0.15444(5) 1.06096(7)
N5 N 0.74684(10) 0.11407(6) 1.11144(8)
N6 N 0.62850(10) 0.14472(6) 1.09257(8)
loop_
_geom_bond_atom_site_label_1
_geom_bond_atom_site_label_2
_geom_bond_site_symmetry_1
_geom_bond_site_symmetry_2
C1 H1 1_555 1_555
H2 C1 1_555 1_555
H3 C1 1_555 1_555
C2 C1 1_555 1_555
C3 C2 1_555 1_555
H4 C3 1_555 1_555
C4 C3 1_555 1_555
H5 C4 1_555 1_555
C5 C4 1_555 1_555
C6 C5 1_555 1_555
H6 C6 1_555 1_555
C7 C2 1_555 1_555
H7 C7 1_555 1_555
C8 C9 1_555 1_555
C9 C10 1_555 1_555
C10 H8 1_555 1_555
C11 C10 1_555 1_555
H9 C11 1_555 1_555
C12 C11 1_555 1_555
H10 C12 1_555 1_555
C13 C12 1_555 1_555
H11 C13 1_555 1_555
C14 C9 1_555 1_555
H12 C14 1_555 1_555
C15 H13 1_555 1_555
H14 C15 1_555 1_555
H15 C15 1_555 1_555
C16 C15 1_555 1_555
C17 C16 1_555 1_555
H16 C17 1_555 1_555
C18 C17 1_555 1_555
H17 C18 1_555 1_555
C19 C18 1_555 1_555
C20 C19 1_555 1_555
H18 C20 1_555 1_555
C21 C16 1_555 1_555
H19 C21 1_555 1_555
C22 C23 1_555 1_555
C23 C24 1_555 1_555
C24 H20 1_555 1_555
C25 C24 1_555 1_555
H21 C25 1_555 1_555
C26 C25 1_555 1_555
H22 C26 1_555 1_555
C27 C26 1_555 1_555
H23 C27 1_555 1_555
C28 C23 1_555 1_555
H24 C28 1_555 1_555
C29 C22 1_555 1_555
C30 C8 1_555 1_555
N1 C5 1_555 1_555
N2 N1 1_555 1_555
N3 C8 1_555 1_555
N4 C19 1_555 1_555
N5 N4 1_555 1_555
N6 C22 1_555 1_555
C6 C7 1_555 1_555
C13 C14 1_555 1_555
C20 C21 1_555 1_555
C27 C28 1_555 1_555
C29 C30 1_555 1_555
C29 N4 1_555 1_555
C30 N1 1_555 1_555
N2 N3 1_555 1_555
N5 N6 1_555 1_555

#END
