
#######################################################################
#
#                 Cambridge Crystallographic Data Centre
#                                CCDC 
#
#######################################################################
#
# If this CIF has been generated from an entry in the Cambridge 
# Structural Database, then it will include bibliographic, chemical, 
# crystal, experimental, refinement or atomic coordinate data resulting 
# from the CCDC's data processing and validation procedures.
#
#######################################################################

data_UCEKUJ
_chemical_formula_moiety         'C9 H12 N4 O4 S1'
_chemical_name_systematic        
'4-(4,6-Dimethoxypyrimidin-2-yl)-3-thiourea carboxylic acid methyl ester'
_symmetry_cell_setting           monoclinic
_symmetry_space_group_name_H-M   'C 2/m'
_symmetry_Int_Tables_number      12
_space_group_name_Hall           '-C 2y'
loop_
_symmetry_equiv_pos_site_id
_symmetry_equiv_pos_as_xyz
1 x,y,z
2 1/2+x,1/2+y,z
3 -x,y,-z
4 1/2-x,1/2+y,-z
5 -x,-y,-z
6 1/2-x,1/2-y,-z
7 x,-y,z
8 1/2+x,1/2-y,z
_cell_length_a                   16.672(3)
_cell_length_b                   6.6383(12)
_cell_length_c                   11.617(2)
_cell_angle_alpha                90
_cell_angle_beta                 109.275(2)
_cell_angle_gamma                90
_cell_volume                     1213.63
_chemical_melting_point          '217-218 deg.C'
_cell_formula_units_Z            4
loop_
_atom_site_label
_atom_site_type_symbol
_atom_site_fract_x
_atom_site_fract_y
_atom_site_fract_z
S1 S 0.44465(3) 0.0000 0.30392(4)
N1 N 0.33854(9) 0.0000 0.64306(13)
N2 N 0.22236(8) 0.0000 0.45500(12)
N3 N 0.36514(9) 0.0000 0.46328(13)
N4 N 0.27586(10) 0.0000 0.26356(13)
O1 O 0.30996(9) 0.0000 0.82402(12)
O2 O 0.08473(8) 0.0000 0.45991(14)
O3 O 0.29232(11) 0.0000 0.07537(14)
O4 O 0.16426(9) 0.0000 0.09740(12)
C1 C 0.39935(15) 0.0000 0.88642(18)
C2 C 0.28174(12) 0.0000 0.70180(15)
C3 C 0.19518(12) 0.0000 0.64438(18)
C4 C 0.16811(11) 0.0000 0.51861(17)
C5 C 0.05559(14) 0.0000 0.3292(2)
C6 C 0.30453(10) 0.0000 0.52178(14)
C7 C 0.35708(11) 0.0000 0.34187(15)
C8 C 0.24928(12) 0.0000 0.13734(16)
C9 C 0.12554(19) 0.0000 -0.0341(2)
H1 H 0.065(2) 0.0000 -0.044(3)
H2 H 0.1423(12) 0.111(3) -0.0648(16)
H3 H -0.005(2) 0.0000 0.301(2)
H4 H 0.0733(12) 0.114(3) 0.3055(16)
H5 H 0.4023(19) 0.0000 0.966(3)
H6 H 0.4232(12) 0.115(3) 0.8697(17)
H7 H 0.419(2) 0.0000 0.519(3)
H8 H 0.2407(19) 0.0000 0.291(3)
H9 H 0.1544(19) 0.0000 0.686(3)
H2F H 0.1423(12) -0.111(3) -0.0648(16)
H4F H 0.0733(12) -0.114(3) 0.3055(16)
H6F H 0.4232(12) -0.115(3) 0.8697(17)
loop_
_geom_bond_atom_site_label_1
_geom_bond_atom_site_label_2
_geom_bond_site_symmetry_1
_geom_bond_site_symmetry_2
S1 C7 1_555 1_555
N1 C2 1_555 1_555
N2 C4 1_555 1_555
N3 C6 1_555 1_555
N4 C7 1_555 1_555
O1 C1 1_555 1_555
O2 C4 1_555 1_555
O3 C8 1_555 1_555
O4 C8 1_555 1_555
C1 H5 1_555 1_555
C2 O1 1_555 1_555
C3 C2 1_555 1_555
C4 C3 1_555 1_555
C5 O2 1_555 1_555
C6 N1 1_555 1_555
C7 N3 1_555 1_555
C8 N4 1_555 1_555
C9 O4 1_555 1_555
H1 C9 1_555 1_555
H2 C9 1_555 1_555
H3 C5 1_555 1_555
H4 C5 1_555 1_555
H6 C1 1_555 1_555
H7 N3 1_555 1_555
H8 N4 1_555 1_555
H9 C3 1_555 1_555
H2F C9 1_555 1_555
H4F C5 1_555 1_555
H6F C1 1_555 1_555
N2 C6 1_555 1_555

#END
