
#######################################################################
#
#                 Cambridge Crystallographic Data Centre
#                                CCDC 
#
#######################################################################
#
# If this CIF has been generated from an entry in the Cambridge 
# Structural Database, then it will include bibliographic, chemical, 
# crystal, experimental, refinement or atomic coordinate data resulting 
# from the CCDC's data processing and validation procedures.
#
#######################################################################

data_UCEMOH
_chemical_formula_moiety         'C14 H18 O2'
_chemical_name_systematic        
1-(5,7b-dimethyl-1a,2,6,7,7a,7b-hexahydroazuleno[4,5-b]oxiren-3-yl)ethanone
_symmetry_cell_setting           orthorhombic
_symmetry_space_group_name_H-M   'P 21 21 21'
_symmetry_Int_Tables_number      19
_space_group_name_Hall           'P 2ac 2ab'
loop_
_symmetry_equiv_pos_site_id
_symmetry_equiv_pos_as_xyz
1 x,y,z
2 1/2-x,-y,1/2+z
3 1/2+x,1/2-y,-z
4 -x,1/2+y,1/2-z
_cell_length_a                   9.045(2)
_cell_length_b                   9.273(2)
_cell_length_c                   14.166(3)
_cell_angle_alpha                90
_cell_angle_beta                 90
_cell_angle_gamma                90
_cell_volume                     1188.16
_exptl_crystal_colour            colorless
_exptl_crystal_description       block
_chemical_melting_point          '102 deg.C'
_cell_formula_units_Z            4
loop_
_atom_site_label
_atom_site_type_symbol
_atom_site_fract_x
_atom_site_fract_y
_atom_site_fract_z
C1 C -0.00236(19) 0.20921(19) 0.13036(11)
O1 O -0.12953(14) 0.29359(14) 0.09880(8)
C2 C -0.14365(18) 0.19891(19) 0.17983(12)
H1 H -0.2007 0.1081 0.1689
C3 C -0.16766(19) 0.26985(19) 0.27401(12)
H2 H -0.2736 0.2630 0.2909
H3 H -0.1421 0.3734 0.2690
C4 C -0.07609(17) 0.20215(17) 0.35175(10)
C5 C 0.06986(17) 0.17525(16) 0.34443(10)
H4 H 0.1146 0.1296 0.3972
C6 C 0.16622(17) 0.20736(16) 0.26622(10)
C7 C 0.30657(17) 0.16145(17) 0.25751(12)
C8 C 0.3723(2) 0.2072(2) 0.16498(14)
H5 H 0.3814 0.1241 0.1215
H6 H 0.4713 0.2505 0.1743
C9 C 0.2632(2) 0.3187(2) 0.12631(13)
H7 H 0.2484 0.3049 0.0577
H8 H 0.3003 0.4177 0.1374
C10 C 0.11719(18) 0.29334(17) 0.18050(10)
H9 H 0.0763 0.3882 0.2016
C11 C 0.0438(2) 0.0924(2) 0.06256(13)
H10 H -0.0432 0.0364 0.0436
H11 H 0.1155 0.0287 0.0934
H12 H 0.0890 0.1362 0.0066
C12 C -0.15523(19) 0.16837(18) 0.44058(12)
O2 O -0.28424(15) 0.20259(17) 0.45014(10)
C13 C -0.0772(2) 0.0895(2) 0.51860(12)
H13 H -0.1470 0.0700 0.5700
H14 H 0.0044 0.1489 0.5424
H15 H -0.0380 -0.0018 0.4944
C14 C 0.3935(2) 0.0699(2) 0.32354(14)
H16 H 0.3303 0.0394 0.3760
H17 H 0.4773 0.1253 0.3481
H18 H 0.4302 -0.0153 0.2899
loop_
_geom_bond_atom_site_label_1
_geom_bond_atom_site_label_2
_geom_bond_site_symmetry_1
_geom_bond_site_symmetry_2
C1 O1 1_555 1_555
O1 C2 1_555 1_555
C2 C1 1_555 1_555
H1 C2 1_555 1_555
C3 C2 1_555 1_555
H2 C3 1_555 1_555
H3 C3 1_555 1_555
C4 C3 1_555 1_555
C5 C4 1_555 1_555
H4 C5 1_555 1_555
C6 C5 1_555 1_555
C7 C6 1_555 1_555
C8 C7 1_555 1_555
H5 C8 1_555 1_555
H6 C8 1_555 1_555
C9 C8 1_555 1_555
H7 C9 1_555 1_555
H8 C9 1_555 1_555
C10 C1 1_555 1_555
H9 C10 1_555 1_555
C11 C1 1_555 1_555
H10 C11 1_555 1_555
H11 C11 1_555 1_555
H12 C11 1_555 1_555
C12 C4 1_555 1_555
O2 C12 1_555 1_555
C13 C12 1_555 1_555
H13 C13 1_555 1_555
H14 C13 1_555 1_555
H15 C13 1_555 1_555
C14 C7 1_555 1_555
H16 C14 1_555 1_555
H17 C14 1_555 1_555
H18 C14 1_555 1_555
C6 C10 1_555 1_555
C9 C10 1_555 1_555

#END
