
#######################################################################
#
#                 Cambridge Crystallographic Data Centre
#                                CCDC 
#
#######################################################################
#
# If this CIF has been generated from an entry in the Cambridge 
# Structural Database, then it will include bibliographic, chemical, 
# crystal, experimental, refinement or atomic coordinate data resulting 
# from the CCDC's data processing and validation procedures.
#
#######################################################################

data_UCERAY
_chemical_formula_moiety         'C26 H25 N3 O5'
_chemical_name_systematic        
'diethyl 5-((2-hydroxy-5-((4-methylphenyl)diazenyl)benzylidene)amino)isophthalate'
_symmetry_cell_setting           monoclinic
_symmetry_space_group_name_H-M   'C 2/c'
_symmetry_Int_Tables_number      15
_space_group_name_Hall           '-C 2yn'
loop_
_symmetry_equiv_pos_site_id
_symmetry_equiv_pos_as_xyz
1 x,y,z
2 -x,y,1/2-z
3 1/2+x,1/2+y,z
4 1/2-x,1/2+y,1/2-z
5 -x,-y,-z
6 x,-y,1/2+z
7 1/2-x,1/2-y,-z
8 1/2+x,1/2-y,1/2+z
_cell_length_a                   55.077(5)
_cell_length_b                   4.680(5)
_cell_length_c                   19.259(5)
_cell_angle_alpha                90
_cell_angle_beta                 109.099(5)
_cell_angle_gamma                90
_cell_volume                     4690.95
_exptl_crystal_colour            'yellowish red'
_exptl_crystal_description       Block
_chemical_melting_point          '380 K'
_cell_formula_units_Z            8
_exptl_crystal_recrystallization_method dichloromethane/Methanol
loop_
_atom_site_label
_atom_site_type_symbol
_atom_site_fract_x
_atom_site_fract_y
_atom_site_fract_z
O1 O 0.83391(7) 0.8014(8) 0.4118(2)
N1 N 0.86617(8) -0.0151(8) 0.2142(2)
C1 C 0.89524(10) -0.4369(11) 0.1677(3)
C2 C 0.81315(10) 0.4855(10) 0.1995(3)
C3 C 0.85208(11) 0.6545(11) 0.3957(3)
C4 C 0.81993(10) 0.6007(10) 0.2694(3)
H1 H 0.8091 0.7313 0.2809
C5 C 0.84273(9) 0.5225(9) 0.3220(3)
C6 C 0.85839(9) 0.3189(10) 0.3063(3)
H2 H 0.8736 0.2642 0.3422
C7 C 0.85142(9) 0.1968(10) 0.2371(3)
N2 N 0.97718(11) -0.8623(12) 0.3140(3)
N3 N 0.96444(10) -0.6819(12) 0.3316(4)
C8 C 0.82889(9) 0.2822(10) 0.1845(3)
H3 H 0.8242 0.2011 0.1379
C9 C 0.90248(10) -0.3203(10) 0.2381(3)
C10 C 0.94086(10) -0.6121(12) 0.2713(4)
C11 C 0.91068(12) -0.6391(13) 0.1489(4)
H4 H 0.9059 -0.7150 0.1017
C12 C 0.84172(12) 0.9516(12) 0.4817(3)
H5 H 0.8553 1.0864 0.4840
H6 H 0.8480 0.8172 0.5219
C13 C 0.81885(13) 1.1038(15) 0.4868(4)
H7 H 0.8233 1.2059 0.5325
H8 H 0.8129 1.2361 0.4467
H9 H 0.8055 0.9681 0.4845
C14 C 0.93303(12) -0.7235(13) 0.2011(4)
H10 H 0.9432 -0.8599 0.1889
C15 C 1.00097(13) -0.9234(16) 0.3713(4)
C16 C 0.92527(11) -0.4132(12) 0.2878(4)
H11 H 0.9304 -0.3372 0.3350
C17 C 1.0325(2) -0.864(2) 0.4902(7)
H12 H 1.0377 -0.7762 0.5360
C18 C 1.04802(13) -1.0615(17) 0.4749(5)
C19 C 1.00916(19) -0.789(2) 0.4395(7)
H13 H 0.9990 -0.6500 0.4509
C20 C 1.01591(18) -1.125(2) 0.3581(5)
H14 H 1.0106 -1.2196 0.3132
C21 C 1.07342(13) -1.135(2) 0.5305(5)
H15 H 1.0818 -1.2775 0.5107
H16 H 1.0840 -0.9665 0.5424
H17 H 1.0708 -1.2069 0.5742
O2 O 0.87300(8) -0.3576(9) 0.1166(2)
H18 H 0.8657 -0.2406 0.1345
O3 O 0.78415(9) 0.4957(10) 0.0773(3)
O4 O 0.77504(7) 0.7569(9) 0.1628(2)
C22 C 0.78980(11) 0.5735(13) 0.1402(3)
C23 C 0.75193(13) 0.8588(16) 0.1078(4)
H19 H 0.7415 0.6988 0.0827
H20 H 0.7563 0.9744 0.0717
C24 C 0.88719(10) -0.1112(11) 0.2582(3)
H21 H 0.8929 -0.0414 0.3060
C25 C 0.73748(14) 1.0336(19) 0.1463(6)
H22 H 0.7220 1.1046 0.1111
H23 H 0.7333 0.9169 0.1818
H24 H 0.7479 1.1913 0.1708
C26 C 1.03861(16) -1.196(2) 0.4086(5)
H25 H 1.0482 -1.3421 0.3977
O5 O 0.87370(9) 0.6406(11) 0.4364(3)
loop_
_geom_bond_atom_site_label_1
_geom_bond_atom_site_label_2
_geom_bond_site_symmetry_1
_geom_bond_site_symmetry_2
O1 C3 1_555 1_555
N1 C7 1_555 1_555
C1 C9 1_555 1_555
C2 C4 1_555 1_555
C3 C5 1_555 1_555
C4 H1 1_555 1_555
C5 C4 1_555 1_555
C6 C5 1_555 1_555
H2 C6 1_555 1_555
C7 C6 1_555 1_555
N2 N3 1_555 1_555
N3 C10 1_555 1_555
C8 C2 1_555 1_555
H3 C8 1_555 1_555
C9 C16 1_555 1_555
C10 C14 1_555 1_555
C11 C1 1_555 1_555
H4 C11 1_555 1_555
C12 O1 1_555 1_555
H5 C12 1_555 1_555
H6 C12 1_555 1_555
C13 C12 1_555 1_555
H7 C13 1_555 1_555
H8 C13 1_555 1_555
H9 C13 1_555 1_555
C14 C11 1_555 1_555
H10 C14 1_555 1_555
C15 N2 1_555 1_555
C16 C10 1_555 1_555
H11 C16 1_555 1_555
C17 H12 1_555 1_555
C18 C17 1_555 1_555
C19 C15 1_555 1_555
H13 C19 1_555 1_555
C20 C15 1_555 1_555
H14 C20 1_555 1_555
C21 C18 1_555 1_555
H15 C21 1_555 1_555
H16 C21 1_555 1_555
H17 C21 1_555 1_555
O2 C1 1_555 1_555
H18 O2 1_555 1_555
O3 C22 1_555 1_555
O4 C22 1_555 1_555
C22 C2 1_555 1_555
C23 O4 1_555 1_555
H19 C23 1_555 1_555
H20 C23 1_555 1_555
C24 N1 1_555 1_555
H21 C24 1_555 1_555
C25 C23 1_555 1_555
H22 C25 1_555 1_555
H23 C25 1_555 1_555
H24 C25 1_555 1_555
C26 C18 1_555 1_555
H25 C26 1_555 1_555
O5 C3 1_555 1_555
C7 C8 1_555 1_555
C9 C24 1_555 1_555
C17 C19 1_555 1_555
C20 C26 1_555 1_555

#END
