
#######################################################################
#
#                 Cambridge Crystallographic Data Centre
#                                CCDC 
#
#######################################################################
#
# If this CIF has been generated from an entry in the Cambridge 
# Structural Database, then it will include bibliographic, chemical, 
# crystal, experimental, refinement or atomic coordinate data resulting 
# from the CCDC's data processing and validation procedures.
#
#######################################################################

data_UCEROM
_chemical_formula_moiety         'C16 H14 O3,C4 H5 N3'
_chemical_name_systematic        
'4-(biphenyl-4-yl)-4-oxobutanoic acid pyrazin-2-amine'
_symmetry_cell_setting           monoclinic
_symmetry_space_group_name_H-M   'P 21/c'
_symmetry_Int_Tables_number      14
_space_group_name_Hall           '-P 2ybc'
loop_
_symmetry_equiv_pos_site_id
_symmetry_equiv_pos_as_xyz
1 x,y,z
2 -x,1/2+y,1/2-z
3 -x,-y,-z
4 x,1/2-y,1/2+z
_cell_length_a                   10.0530(9)
_cell_length_b                   40.379(3)
_cell_length_c                   8.8072(6)
_cell_angle_alpha                90
_cell_angle_beta                 101.214(9)
_cell_angle_gamma                90
_cell_volume                     3506.85
_exptl_crystal_colour            colorless
_exptl_crystal_description       Block
_cell_formula_units_Z            8
loop_
_atom_site_label
_atom_site_type_symbol
_atom_site_fract_x
_atom_site_fract_y
_atom_site_fract_z
O1 O 0.8039(2) 0.08522(5) 0.3802(2)
O2 O 0.8601(2) 0.04241(5) 0.5350(2)
O3 O 0.8706(2) 0.12521(5) 0.7418(2)
C1 C 0.7940(3) 0.06721(7) 0.5003(3)
C2 C 0.6907(3) 0.07928(7) 0.5899(3)
H1 H 0.7234 0.0744 0.6987
H2 H 0.6075 0.0669 0.5566
C3 C 0.6583(3) 0.11610(7) 0.5730(3)
H3 H 0.6435 0.1220 0.4642
H4 H 0.5750 0.1205 0.6095
C4 C 0.7693(3) 0.13737(7) 0.6613(3)
C5 C 0.7546(3) 0.17422(6) 0.6534(3)
C6 C 0.8232(3) 0.19286(7) 0.7744(3)
H5 H 0.8749 0.1823 0.8597
C7 C 0.8165(3) 0.22686(7) 0.7713(3)
H6 H 0.8641 0.2388 0.8547
C8 C 0.7405(3) 0.24391(6) 0.6464(3)
C9 C 0.6694(3) 0.22462(7) 0.5265(3)
H7 H 0.6163 0.2351 0.4420
C10 C 0.6750(3) 0.19033(7) 0.5288(3)
H8 H 0.6256 0.1782 0.4472
C11 C 0.7344(3) 0.28046(6) 0.6442(3)
C12 C 0.8481(3) 0.29917(7) 0.7042(3)
H9 H 0.9295 0.2887 0.7457
C13 C 0.8403(4) 0.33381(8) 0.7022(4)
H10 H 0.9168 0.3462 0.7432
C14 C 0.7209(4) 0.34971(8) 0.6405(4)
H11 H 0.7165 0.3727 0.6402
C15 C 0.6082(4) 0.33128(8) 0.5794(4)
H12 H 0.5277 0.3419 0.5360
C16 C 0.6139(3) 0.29688(7) 0.5821(3)
H13 H 0.5365 0.2847 0.5421
H14 H 0.868(2) 0.0785(8) 0.337(3)
O4 O 0.2991(2) 0.08603(5) 0.3850(2)
H15 H 0.353(3) 0.0780(8) 0.332(3)
O5 O 0.3584(2) 0.04283(5) 0.5363(2)
O6 O 0.3792(2) 0.12538(5) 0.7318(2)
C17 C 0.2924(3) 0.06782(6) 0.5059(3)
C18 C 0.1920(3) 0.07937(7) 0.5999(3)
H16 H 0.2272 0.0741 0.7077
H17 H 0.1086 0.0669 0.5681
C19 C 0.1584(3) 0.11612(6) 0.5877(3)
H18 H 0.1333 0.1221 0.4792
H19 H 0.0806 0.1203 0.6352
C20 C 0.2736(3) 0.13781(6) 0.6636(3)
C21 C 0.2604(3) 0.17442(6) 0.6553(3)
C22 C 0.3734(3) 0.19353(7) 0.7088(3)
H20 H 0.4557 0.1833 0.7482
C23 C 0.3658(3) 0.22778(7) 0.7047(3)
H21 H 0.4435 0.2401 0.7416
C24 C 0.2449(3) 0.24425(6) 0.6467(3)
C25 C 0.1307(3) 0.22473(6) 0.5923(3)
H22 H 0.0483 0.2349 0.5528
C26 C 0.1379(3) 0.19053(7) 0.5962(3)
H23 H 0.0605 0.1781 0.5592
C27 C 0.2367(3) 0.28098(6) 0.6438(3)
C28 C 0.3060(3) 0.29924(7) 0.7689(3)
H24 H 0.3564 0.2884 0.8543
C29 C 0.2997(3) 0.33360(7) 0.7658(3)
H25 H 0.3479 0.3457 0.8485
C30 C 0.2233(3) 0.34996(7) 0.6424(4)
H26 H 0.2175 0.3729 0.6428
C31 C 0.1554(3) 0.33219(7) 0.5181(3)
H27 H 0.1046 0.3432 0.4336
C32 C 0.1625(3) 0.29778(7) 0.5184(3)
H28 H 0.1170 0.2859 0.4334
N1 N 1.1926(3) -0.00579(7) 0.1899(3)
H29 H 1.245(3) -0.0149(8) 0.136(3)
H30 H 1.193(4) -0.0172(8) 0.272(3)
N2 N 0.9592(2) 0.06076(6) 0.2000(3)
N3 N 1.1275(3) 0.03604(6) 0.0120(3)
C33 C 1.1182(3) 0.02121(7) 0.1441(3)
C34 C 1.0302(3) 0.03389(7) 0.2373(3)
H31 H 1.0228 0.0228 0.3277
C35 C 0.9690(3) 0.07613(7) 0.0663(3)
H32 H 0.9196 0.0953 0.0367
C36 C 1.0511(3) 0.06344(7) -0.0245(3)
H33 H 1.0549 0.0742 -0.1169
N4 N 0.6875(3) -0.00479(6) 0.1896(3)
H34 H 0.687(3) -0.0160(7) 0.272(3)
H35 H 0.745(3) -0.0133(8) 0.140(3)
N5 N 0.4533(2) 0.06159(6) 0.1999(3)
N6 N 0.6249(3) 0.03768(6) 0.0138(3)
C37 C 0.6137(3) 0.02232(6) 0.1444(3)
C38 C 0.5243(3) 0.03451(7) 0.2365(3)
H36 H 0.5154 0.0230 0.3255
C39 C 0.4653(3) 0.07719(7) 0.0677(3)
H37 H 0.4161 0.0964 0.0383
C40 C 0.5487(3) 0.06492(7) -0.0222(3)
H38 H 0.5534 0.0759 -0.1137
loop_
_geom_bond_atom_site_label_1
_geom_bond_atom_site_label_2
_geom_bond_site_symmetry_1
_geom_bond_site_symmetry_2
O1 C1 1_555 1_555
O2 C1 1_555 1_555
O3 C4 1_555 1_555
C1 C2 1_555 1_555
C2 H1 1_555 1_555
H2 C2 1_555 1_555
C3 C2 1_555 1_555
H3 C3 1_555 1_555
H4 C3 1_555 1_555
C4 C3 1_555 1_555
C5 C4 1_555 1_555
C6 C5 1_555 1_555
H5 C6 1_555 1_555
C7 C6 1_555 1_555
H6 C7 1_555 1_555
C8 C7 1_555 1_555
C9 C8 1_555 1_555
H7 C9 1_555 1_555
C10 C5 1_555 1_555
H8 C10 1_555 1_555
C11 C8 1_555 1_555
C12 C11 1_555 1_555
H9 C12 1_555 1_555
C13 C12 1_555 1_555
H10 C13 1_555 1_555
C14 C13 1_555 1_555
H11 C14 1_555 1_555
C15 C14 1_555 1_555
H12 C15 1_555 1_555
C16 C11 1_555 1_555
H13 C16 1_555 1_555
H14 O1 1_555 1_555
O4 H15 1_555 1_555
O5 C17 1_555 1_555
O6 C20 1_555 1_555
C17 O4 1_555 1_555
C18 C17 1_555 1_555
H16 C18 1_555 1_555
H17 C18 1_555 1_555
C19 C18 1_555 1_555
H18 C19 1_555 1_555
H19 C19 1_555 1_555
C20 C19 1_555 1_555
C21 C20 1_555 1_555
C22 C21 1_555 1_555
H20 C22 1_555 1_555
C23 C22 1_555 1_555
H21 C23 1_555 1_555
C24 C23 1_555 1_555
C25 C24 1_555 1_555
H22 C25 1_555 1_555
C26 C21 1_555 1_555
H23 C26 1_555 1_555
C27 C24 1_555 1_555
C28 C27 1_555 1_555
H24 C28 1_555 1_555
C29 C28 1_555 1_555
H25 C29 1_555 1_555
C30 C29 1_555 1_555
H26 C30 1_555 1_555
C31 C30 1_555 1_555
H27 C31 1_555 1_555
C32 C27 1_555 1_555
H28 C32 1_555 1_555
N1 H29 1_555 1_555
H30 N1 1_555 1_555
N2 C34 1_555 1_555
N3 C33 1_555 1_555
C33 N1 1_555 1_555
C34 C33 1_555 1_555
H31 C34 1_555 1_555
C35 N2 1_555 1_555
H32 C35 1_555 1_555
C36 N3 1_555 1_555
H33 C36 1_555 1_555
N4 H34 1_555 1_555
H35 N4 1_555 1_555
N5 C38 1_555 1_555
N6 C37 1_555 1_555
C37 N4 1_555 1_555
C38 C37 1_555 1_555
H36 C38 1_555 1_555
C39 N5 1_555 1_555
H37 C39 1_555 1_555
C40 N6 1_555 1_555
H38 C40 1_555 1_555
C9 C10 1_555 1_555
C15 C16 1_555 1_555
C25 C26 1_555 1_555
C31 C32 1_555 1_555
C35 C36 1_555 1_555
C39 C40 1_555 1_555

#END
