
#######################################################################
#
#                 Cambridge Crystallographic Data Centre
#                                CCDC 
#
#######################################################################
#
# If this CIF has been generated from an entry in the Cambridge 
# Structural Database, then it will include bibliographic, chemical, 
# crystal, experimental, refinement or atomic coordinate data resulting 
# from the CCDC's data processing and validation procedures.
#
#######################################################################

data_UCERUS
_chemical_formula_moiety         '2(C16 H14 O3),C10 H8 N2'
_chemical_name_systematic        
"bis(4-(biphenyl-4-yl)-4-oxobutanoic acid) 4,4'-bipyridine"
_symmetry_cell_setting           monoclinic
_symmetry_space_group_name_H-M   'P 21/c'
_symmetry_Int_Tables_number      14
_space_group_name_Hall           '-P 2ybc'
loop_
_symmetry_equiv_pos_site_id
_symmetry_equiv_pos_as_xyz
1 x,y,z
2 -x,1/2+y,1/2-z
3 -x,-y,-z
4 x,1/2-y,1/2+z
_cell_length_a                   5.2622(4)
_cell_length_b                   10.2121(8)
_cell_length_c                   32.008(2)
_cell_angle_alpha                90
_cell_angle_beta                 97.551(7)
_cell_angle_gamma                90
_cell_volume                     1705.13
_exptl_crystal_colour            colorless
_exptl_crystal_description       block
_cell_formula_units_Z            2
loop_
_atom_site_label
_atom_site_type_symbol
_atom_site_fract_x
_atom_site_fract_y
_atom_site_fract_z
O1 O -0.1946(3) 0.43441(17) 0.53963(5)
O2 O -0.0270(4) 0.32476(18) 0.59576(6)
O3 O 0.5265(4) 0.71787(17) 0.60253(5)
C1 C -0.0210(4) 0.4164(2) 0.57271(7)
C2 C 0.1722(4) 0.5241(2) 0.57818(7)
H1 H 0.0845 0.6065 0.5811
H2 H 0.2563 0.5298 0.5530
C3 C 0.3736(4) 0.5052(2) 0.61603(7)
H3 H 0.2886 0.4904 0.6407
H4 H 0.4730 0.4276 0.6117
C4 C 0.5527(4) 0.6198(2) 0.62429(7)
C5 C 0.7628(4) 0.6122(2) 0.66036(6)
C6 C 0.7902(4) 0.5069(2) 0.68783(7)
H5 H 0.6791 0.4361 0.6832
C7 C 0.9797(4) 0.5055(2) 0.72204(7)
H6 H 0.9922 0.4337 0.7401
C8 C 1.1527(4) 0.6083(2) 0.73025(6)
C9 C 1.1303(4) 0.7113(2) 0.70160(7)
H7 H 1.2466 0.7802 0.7054
C10 C 0.9392(4) 0.7137(2) 0.66761(7)
H8 H 0.9283 0.7846 0.6492
C11 C 1.3498(4) 0.6077(2) 0.76832(6)
C12 C 1.3394(5) 0.5182(3) 0.80038(8)
H9 H 1.2083 0.4565 0.7978
C13 C 1.5176(6) 0.5175(3) 0.83613(9)
H10 H 1.5058 0.4554 0.8570
C14 C 1.7110(5) 0.6074(3) 0.84093(8)
H11 H 1.8303 0.6077 0.8651
C15 C 1.7263(5) 0.6965(3) 0.80985(8)
H12 H 1.8575 0.7581 0.8129
C16 C 1.5496(5) 0.6970(3) 0.77374(8)
H13 H 1.5653 0.7584 0.7528
H14 H -0.300(5) 0.369(2) 0.5373(9)
N1 N -0.5313(4) 0.24500(19) 0.52631(6)
C17 C -0.7110(5) 0.2568(3) 0.49383(9)
H15 H -0.7122 0.3320 0.4774
C18 C -0.8968(5) 0.1641(2) 0.48280(9)
H16 H -1.0204 0.1782 0.4597
C19 C -0.9010(4) 0.0514(2) 0.50557(6)
C20 C -0.7124(5) 0.0389(2) 0.53963(7)
H17 H -0.7061 -0.0356 0.5564
C21 C -0.5340(5) 0.1366(2) 0.54870(8)
H18 H -0.4087 0.1258 0.5718
N1B N -1.4687(4) -0.24500(19) 0.47369(6)
C17B C -1.2890(5) -0.2568(3) 0.50617(9)
H15B H -1.2878 -0.3320 0.5226
C18B C -1.1032(5) -0.1641(2) 0.51720(9)
H16B H -0.9796 -0.1782 0.5403
C19B C -1.0990(4) -0.0514(2) 0.49443(6)
C20B C -1.2876(5) -0.0389(2) 0.46037(7)
H17B H -1.2939 0.0356 0.4436
C21B C -1.4660(5) -0.1366(2) 0.45130(8)
H18B H -1.5913 -0.1258 0.4282
loop_
_geom_bond_atom_site_label_1
_geom_bond_atom_site_label_2
_geom_bond_site_symmetry_1
_geom_bond_site_symmetry_2
O1 C1 1_555 1_555
O2 C1 1_555 1_555
O3 C4 1_555 1_555
C1 C2 1_555 1_555
C2 H1 1_555 1_555
H2 C2 1_555 1_555
C3 C2 1_555 1_555
H3 C3 1_555 1_555
H4 C3 1_555 1_555
C4 C3 1_555 1_555
C5 C4 1_555 1_555
C6 C5 1_555 1_555
H5 C6 1_555 1_555
C7 C6 1_555 1_555
H6 C7 1_555 1_555
C8 C7 1_555 1_555
C9 C8 1_555 1_555
H7 C9 1_555 1_555
C10 C5 1_555 1_555
H8 C10 1_555 1_555
C11 C8 1_555 1_555
C12 C11 1_555 1_555
H9 C12 1_555 1_555
C13 C12 1_555 1_555
H10 C13 1_555 1_555
C14 C13 1_555 1_555
H11 C14 1_555 1_555
C15 C14 1_555 1_555
H12 C15 1_555 1_555
C16 C11 1_555 1_555
H13 C16 1_555 1_555
H14 O1 1_555 1_555
N1 C17 1_555 1_555
C17 H15 1_555 1_555
C18 C17 1_555 1_555
H16 C18 1_555 1_555
C19 C18 1_555 1_555
C20 C19 1_555 1_555
H17 C20 1_555 1_555
C21 N1 1_555 1_555
H18 C21 1_555 1_555
N1B C17B 1_555 1_555
C17B H15B 1_555 1_555
C18B C17B 1_555 1_555
H16B C18B 1_555 1_555
C19B C19 1_555 1_555
C20B C19B 1_555 1_555
H17B C20B 1_555 1_555
C21B N1B 1_555 1_555
H18B C21B 1_555 1_555
C9 C10 1_555 1_555
C15 C16 1_555 1_555
C20 C21 1_555 1_555
C18B C19B 1_555 1_555
C20B C21B 1_555 1_555

#END
