
#######################################################################
#
#                 Cambridge Crystallographic Data Centre
#                                CCDC 
#
#######################################################################
#
# If this CIF has been generated from an entry in the Cambridge 
# Structural Database, then it will include bibliographic, chemical, 
# crystal, experimental, refinement or atomic coordinate data resulting 
# from the CCDC's data processing and validation procedures.
#
#######################################################################

data_UCESAZ
_chemical_formula_moiety         '2(C16 H14 O3),C12 H10 N2'
_chemical_name_systematic        
"bis(4-(biphenyl-4-yl)-4-oxobutanoic acid) 4,4'-ethene-1,2-diyldipyridine"
_symmetry_cell_setting           monoclinic
_symmetry_space_group_name_H-M   'P 21/c'
_symmetry_Int_Tables_number      14
_space_group_name_Hall           '-P 2ybc'
loop_
_symmetry_equiv_pos_site_id
_symmetry_equiv_pos_as_xyz
1 x,y,z
2 -x,1/2+y,1/2-z
3 -x,-y,-z
4 x,1/2-y,1/2+z
_cell_length_a                   5.2214(4)
_cell_length_b                   8.7970(6)
_cell_length_c                   38.309(4)
_cell_angle_alpha                90
_cell_angle_beta                 91.805(6)
_cell_angle_gamma                90
_cell_volume                     1758.76
_exptl_crystal_colour            'pale yellow'
_exptl_crystal_description       block
_cell_formula_units_Z            2
loop_
_atom_site_label
_atom_site_type_symbol
_atom_site_fract_x
_atom_site_fract_y
_atom_site_fract_z
O1 O 0.9282(3) -0.51642(19) -0.05014(4)
H1 H 1.045(2) -0.4499(17) -0.0470(6)
O2 O 0.9109(3) -0.44754(19) -0.10567(4)
O3 O 0.2009(3) -0.8230(2) -0.10997(4)
C1 C 0.8309(4) -0.5206(2) -0.08289(6)
C2 C 0.6086(4) -0.6308(3) -0.08846(5)
H2 H 0.4884 -0.6158 -0.0700
H3 H 0.6738 -0.7338 -0.0864
C3 C 0.4624(4) -0.6147(3) -0.12410(5)
H4 H 0.3883 -0.5137 -0.1254
H5 H 0.5855 -0.6224 -0.1425
C4 C 0.2502(4) -0.7300(2) -0.13146(6)
C5 C 0.1011(4) -0.7258(2) -0.16711(5)
C6 C 0.1579(4) -0.6268(3) -0.19242(6)
H6 H 0.2903 -0.5575 -0.1886
C7 C 0.0192(4) -0.6264(3) -0.22477(6)
H7 H 0.0667 -0.5558 -0.2414
C8 C -0.1848(4) -0.7247(2) -0.23359(6)
C9 C -0.2415(4) -0.8237(3) -0.20745(6)
H8 H -0.3749 -0.8926 -0.2110
C10 C -0.1029(4) -0.8247(3) -0.17500(6)
H9 H -0.1498 -0.8945 -0.1581
C11 C -0.3278(4) -0.7259(2) -0.26885(6)
C12 C -0.2455(5) -0.6408(3) -0.29586(7)
H10 H -0.1011 -0.5802 -0.2924
C13 C -0.3717(5) -0.6409(3) -0.32930(6)
H11 H -0.3064 -0.5806 -0.3469
C14 C -0.5886(5) -0.7275(3) -0.33670(7)
H12 H -0.6706 -0.7268 -0.3586
C15 C -0.6728(5) -0.8123(3) -0.31033(7)
H13 H -0.8169 -0.8732 -0.3140
C16 C -0.5475(4) -0.8115(3) -0.27695(7)
H14 H -0.6152 -0.8712 -0.2595
N1 N 1.3058(3) -0.3153(2) -0.03931(5)
C17 C 1.9325(4) -0.0092(3) -0.01525(6)
H15 H 1.9802 0.0531 -0.0336
C18 C 1.3850(4) -0.2228(3) -0.06331(6)
H16 H 1.3053 -0.2235 -0.0854
C19 C 1.5893(4) -0.1221(3) -0.05627(6)
H17 H 1.6416 -0.0574 -0.0739
C20 C 1.7175(4) -0.1162(2) -0.02322(5)
C21 C 1.6325(4) -0.2130(2) 0.00137(6)
H18 H 1.7077 -0.2152 0.0237
C22 C 1.4294(4) -0.3090(3) -0.00777(6)
H19 H 1.3735 -0.3749 0.0094
N1B N 2.6942(3) 0.3153(2) 0.03931(5)
C17B C 2.0675(4) 0.0092(3) 0.01525(6)
H15B H 2.0198 -0.0531 0.0336
C18B C 2.6150(4) 0.2228(3) 0.06331(6)
H16B H 2.6947 0.2235 0.0854
C19B C 2.4107(4) 0.1221(3) 0.05627(6)
H17B H 2.3584 0.0574 0.0739
C20B C 2.2825(4) 0.1162(2) 0.02322(5)
C21B C 2.3675(4) 0.2130(2) -0.00137(6)
H18B H 2.2923 0.2152 -0.0237
C22B C 2.5706(4) 0.3090(3) 0.00777(6)
H19B H 2.6265 0.3749 -0.0094
loop_
_geom_bond_atom_site_label_1
_geom_bond_atom_site_label_2
_geom_bond_site_symmetry_1
_geom_bond_site_symmetry_2
O1 H1 1_555 1_555
O2 C1 1_555 1_555
O3 C4 1_555 1_555
C1 O1 1_555 1_555
C2 C1 1_555 1_555
H2 C2 1_555 1_555
H3 C2 1_555 1_555
C3 C2 1_555 1_555
H4 C3 1_555 1_555
H5 C3 1_555 1_555
C4 C3 1_555 1_555
C5 C4 1_555 1_555
C6 C5 1_555 1_555
H6 C6 1_555 1_555
C7 C6 1_555 1_555
H7 C7 1_555 1_555
C8 C7 1_555 1_555
C9 C8 1_555 1_555
H8 C9 1_555 1_555
C10 C5 1_555 1_555
H9 C10 1_555 1_555
C11 C8 1_555 1_555
C12 C11 1_555 1_555
H10 C12 1_555 1_555
C13 C12 1_555 1_555
H11 C13 1_555 1_555
C14 C13 1_555 1_555
H12 C14 1_555 1_555
C15 C14 1_555 1_555
H13 C15 1_555 1_555
C16 C11 1_555 1_555
H14 C16 1_555 1_555
N1 C18 1_555 1_555
C17 H15 1_555 1_555
C18 H16 1_555 1_555
C19 C18 1_555 1_555
H17 C19 1_555 1_555
C20 C17 1_555 1_555
C21 C20 1_555 1_555
H18 C21 1_555 1_555
C22 N1 1_555 1_555
H19 C22 1_555 1_555
N1B C18B 1_555 1_555
C17B C17 1_555 1_555
H15B C17B 1_555 1_555
C18B H16B 1_555 1_555
C19B C18B 1_555 1_555
H17B C19B 1_555 1_555
C20B C17B 1_555 1_555
C21B C20B 1_555 1_555
H18B C21B 1_555 1_555
C22B N1B 1_555 1_555
H19B C22B 1_555 1_555
C9 C10 1_555 1_555
C15 C16 1_555 1_555
C19 C20 1_555 1_555
C21 C22 1_555 1_555
C19B C20B 1_555 1_555
C21B C22B 1_555 1_555

#END
