
#######################################################################
#
#                 Cambridge Crystallographic Data Centre
#                                CCDC 
#
#######################################################################
#
# If this CIF has been generated from an entry in the Cambridge 
# Structural Database, then it will include bibliographic, chemical, 
# crystal, experimental, refinement or atomic coordinate data resulting 
# from the CCDC's data processing and validation procedures.
#
#######################################################################

data_UCESOL
_chemical_formula_moiety         'C22 H34 N6 O2 Si1'
_chemical_name_systematic        
bis(N'-(Dimethylamino)-N'',N''-dimethylcarbamoimidato-N,O)-diphenylsilicon(iv)
_symmetry_cell_setting           monoclinic
_symmetry_space_group_name_H-M   'C 2/c'
_symmetry_Int_Tables_number      15
_space_group_name_Hall           '-C 2yn'
loop_
_symmetry_equiv_pos_site_id
_symmetry_equiv_pos_as_xyz
1 x,y,z
2 1/2+x,1/2+y,z
3 -x,y,1/2-z
4 1/2-x,1/2+y,1/2-z
5 -x,-y,-z
6 1/2-x,1/2-y,-z
7 x,-y,1/2+z
8 1/2+x,1/2-y,1/2+z
_cell_length_a                   34.890(3)
_cell_length_b                   9.3494(8)
_cell_length_c                   15.8794(13)
_cell_angle_alpha                90
_cell_angle_beta                 114.9960(10)
_cell_angle_gamma                90
_cell_volume                     4694.71
_exptl_crystal_colour            colorless
_exptl_crystal_description       block
_chemical_melting_point          94-95deg.C
_cell_formula_units_Z            8
_exptl_crystal_recrystallization_method n-hexane
loop_
_atom_site_label
_atom_site_type_symbol
_atom_site_fract_x
_atom_site_fract_y
_atom_site_fract_z
Si1 Si 0.126501(13) 0.25729(4) 0.04700(3)
O1 O 0.08681(3) 0.27907(12) -0.07005(7)
O2 O 0.16363(3) 0.31889(11) 0.00332(7)
N1 N 0.13187(4) 0.06185(14) -0.00895(9)
N2 N 0.11378(4) 0.07879(15) -0.11047(9)
N3 N 0.06726(5) 0.22899(16) -0.22256(10)
N4 N 0.12107(4) 0.47936(14) 0.05776(9)
N5 N 0.13871(4) 0.54876(14) -0.00117(9)
N6 N 0.17802(4) 0.48676(14) -0.08213(10)
C1 C 0.09057(5) 0.19333(17) -0.13170(11)
C2 C 0.10854(6) -0.05879(17) 0.00898(12)
H1 H 0.0786 -0.0337 -0.0137
H2 H 0.1203 -0.0777 0.0759
H3 H 0.1114 -0.1445 -0.0234
C3 C 0.17598(5) 0.01275(18) 0.01734(12)
H4 H 0.1758 -0.0682 -0.0220
H5 H 0.1886 -0.0171 0.0826
H6 H 0.1926 0.0912 0.0087
C4 C 0.07352(7) 0.1444(2) -0.29252(12)
H7 H 0.1003 0.1719 -0.2944
H8 H 0.0501 0.1617 -0.3534
H9 H 0.0744 0.0427 -0.2769
C5 C 0.05479(7) 0.3760(2) -0.24652(13)
H10 H 0.0458 0.4170 -0.2010
H11 H 0.0313 0.3801 -0.3086
H12 H 0.0788 0.4306 -0.2462
C6 C 0.15931(5) 0.45224(17) -0.02470(11)
C7 C 0.07681(5) 0.53291(18) 0.02250(12)
H13 H 0.0769 0.6377 0.0214
H14 H 0.0641 0.4998 0.0634
H15 H 0.0604 0.4965 -0.0405
C8 C 0.14482(5) 0.54008(17) 0.15234(11)
H16 H 0.1746 0.5115 0.1762
H17 H 0.1327 0.5040 0.1938
H18 H 0.1428 0.6447 0.1493
C9 C 0.20762(6) 0.3876(2) -0.09220(13)
H19 H 0.2335 0.3845 -0.0343
H20 H 0.2145 0.4190 -0.1431
H21 H 0.1949 0.2920 -0.1060
C10 C 0.18299(6) 0.63776(18) -0.09809(11)
H22 H 0.1571 0.6894 -0.1073
H23 H 0.1884 0.6480 -0.1535
H24 H 0.2068 0.6774 -0.0441
C11 C 0.08155(5) 0.22527(16) 0.08733(11)
C12 C 0.04023(5) 0.18542(18) 0.02667(11)
H25 H 0.0344 0.1625 -0.0359
C13 C 0.00753(5) 0.17828(19) 0.05465(12)
H26 H -0.0199 0.1496 0.0116
C14 C 0.01466(5) 0.21275(19) 0.14502(12)
H27 H -0.0077 0.2087 0.1640
C15 C 0.05479(5) 0.25309(18) 0.20687(12)
H28 H 0.0601 0.2775 0.2689
C16 C 0.08737(5) 0.25799(17) 0.17840(11)
H29 H 0.1148 0.2847 0.2225
C17 C 0.17377(5) 0.21054(16) 0.16498(11)
C18 C 0.17037(5) 0.10286(17) 0.22356(11)
H30 H 0.1436 0.0592 0.2077
C19 C 0.20461(6) 0.05779(18) 0.30374(11)
H31 H 0.2010 -0.0164 0.3407
C20 C 0.24383(6) 0.12078(19) 0.32970(12)
H32 H 0.2672 0.0915 0.3848
C21 C 0.24855(5) 0.22742(19) 0.27397(12)
H33 H 0.2753 0.2719 0.2911
C22 C 0.21437(5) 0.26917(17) 0.19337(11)
H34 H 0.2186 0.3407 0.1557
loop_
_geom_bond_atom_site_label_1
_geom_bond_atom_site_label_2
_geom_bond_site_symmetry_1
_geom_bond_site_symmetry_2
Si1 O1 1_555 1_555
O1 C1 1_555 1_555
O2 Si1 1_555 1_555
N1 Si1 1_555 1_555
N2 N1 1_555 1_555
N3 C1 1_555 1_555
N4 Si1 1_555 1_555
N5 N4 1_555 1_555
N6 C6 1_555 1_555
C1 N2 1_555 1_555
C2 N1 1_555 1_555
H1 C2 1_555 1_555
H2 C2 1_555 1_555
H3 C2 1_555 1_555
C3 N1 1_555 1_555
H4 C3 1_555 1_555
H5 C3 1_555 1_555
H6 C3 1_555 1_555
C4 N3 1_555 1_555
H7 C4 1_555 1_555
H8 C4 1_555 1_555
H9 C4 1_555 1_555
C5 N3 1_555 1_555
H10 C5 1_555 1_555
H11 C5 1_555 1_555
H12 C5 1_555 1_555
C6 O2 1_555 1_555
C7 N4 1_555 1_555
H13 C7 1_555 1_555
H14 C7 1_555 1_555
H15 C7 1_555 1_555
C8 N4 1_555 1_555
H16 C8 1_555 1_555
H17 C8 1_555 1_555
H18 C8 1_555 1_555
C9 N6 1_555 1_555
H19 C9 1_555 1_555
H20 C9 1_555 1_555
H21 C9 1_555 1_555
C10 N6 1_555 1_555
H22 C10 1_555 1_555
H23 C10 1_555 1_555
H24 C10 1_555 1_555
C11 Si1 1_555 1_555
C12 C11 1_555 1_555
H25 C12 1_555 1_555
C13 C12 1_555 1_555
H26 C13 1_555 1_555
C14 C13 1_555 1_555
H27 C14 1_555 1_555
C15 C14 1_555 1_555
H28 C15 1_555 1_555
C16 C11 1_555 1_555
H29 C16 1_555 1_555
C17 Si1 1_555 1_555
C18 C17 1_555 1_555
H30 C18 1_555 1_555
C19 C18 1_555 1_555
H31 C19 1_555 1_555
C20 C19 1_555 1_555
H32 C20 1_555 1_555
C21 C20 1_555 1_555
H33 C21 1_555 1_555
C22 C17 1_555 1_555
H34 C22 1_555 1_555
N5 C6 1_555 1_555
C15 C16 1_555 1_555
C21 C22 1_555 1_555

#END
