
#######################################################################
#
#                 Cambridge Crystallographic Data Centre
#                                CCDC 
#
#######################################################################
#
# If this CIF has been generated from an entry in the Cambridge 
# Structural Database, then it will include bibliographic, chemical, 
# crystal, experimental, refinement or atomic coordinate data resulting 
# from the CCDC's data processing and validation procedures.
#
#######################################################################

data_UCESUR
_chemical_formula_moiety         'C22 H28 N4 O2 Si1'
_chemical_name_systematic        
bis(N-(Isopropylideneimino)acetimidato-N,O)-diphenylsilicon(iv)
_symmetry_cell_setting           monoclinic
_symmetry_space_group_name_H-M   'P 21/c'
_symmetry_Int_Tables_number      14
_space_group_name_Hall           '-P 2ybc'
loop_
_symmetry_equiv_pos_site_id
_symmetry_equiv_pos_as_xyz
1 x,y,z
2 -x,1/2+y,1/2-z
3 -x,-y,-z
4 x,1/2-y,1/2+z
_cell_length_a                   9.225(2)
_cell_length_b                   10.709(2)
_cell_length_c                   22.519(4)
_cell_angle_alpha                90
_cell_angle_beta                 99.66(3)
_cell_angle_gamma                90
_cell_volume                     2193.12
_exptl_crystal_colour            colorless
_exptl_crystal_description       prism
_chemical_melting_point          141-142deg.C
_cell_formula_units_Z            4
loop_
_atom_site_label
_atom_site_type_symbol
_atom_site_fract_x
_atom_site_fract_y
_atom_site_fract_z
Si1 Si 0.79185(10) 0.20038(11) 0.36132(4)
O1 O 0.7060(2) 0.3471(2) 0.34689(10)
O2 O 0.8301(2) 0.0443(2) 0.38432(11)
N1 N 0.6093(3) 0.3373(3) 0.43454(14)
N2 N 0.7043(3) 0.2322(3) 0.44212(13)
N3 N 0.5856(3) -0.0070(3) 0.36305(14)
N4 N 0.5834(3) 0.1141(3) 0.33636(13)
C1 C 0.6235(4) 0.3913(4) 0.38439(18)
C2 C 0.5461(5) 0.5123(4) 0.3677(2)
H1 H 0.5668 0.5399 0.3295
H2 H 0.5798 0.5738 0.3979
H3 H 0.4420 0.5007 0.3652
C3 C 0.7205(4) 0.1864(4) 0.49579(16)
C4 C 0.8321(5) 0.0880(5) 0.51527(18)
H4 H 0.8808 0.0664 0.4822
H5 H 0.7846 0.0154 0.5280
H6 H 0.9030 0.1187 0.5481
C5 C 0.6356(4) 0.2310(5) 0.54248(18)
H7 H 0.5673 0.2943 0.5255
H8 H 0.7021 0.2651 0.5759
H9 H 0.5828 0.1623 0.5560
C6 C 0.7204(4) -0.0339(4) 0.38472(17)
C7 C 0.7579(4) -0.1610(4) 0.40960(19)
H10 H 0.8616 -0.1658 0.4243
H11 H 0.7312 -0.2221 0.3785
H12 H 0.7049 -0.1770 0.4420
C8 C 0.4603(4) 0.1396(4) 0.30095(17)
C9 C 0.3316(4) 0.0523(5) 0.29178(19)
H13 H 0.3539 -0.0196 0.3171
H14 H 0.3114 0.0266 0.2504
H15 H 0.2471 0.0941 0.3020
C10 C 0.4429(5) 0.2555(4) 0.2651(2)
H16 H 0.5303 0.3053 0.2748
H17 H 0.3602 0.3017 0.2743
H18 H 0.4270 0.2351 0.2230
C11 C 0.9787(4) 0.2623(4) 0.40024(15)
C12 C 0.9963(4) 0.3765(4) 0.42995(16)
H19 H 0.9132 0.4239 0.4327
C13 C 1.1325(4) 0.4222(4) 0.45553(17)
H20 H 1.1394 0.4981 0.4758
C14 C 1.2583(4) 0.3559(4) 0.45120(17)
H21 H 1.3503 0.3865 0.4682
C15 C 1.2450(4) 0.2434(4) 0.42119(18)
H22 H 1.3288 0.1980 0.4173
C16 C 1.1073(4) 0.1973(4) 0.39679(17)
H23 H 1.1009 0.1202 0.3775
C17 C 0.8345(4) 0.1824(4) 0.28185(16)
C18 C 0.8218(4) 0.0700(4) 0.24978(17)
H24 H 0.7825 0.0007 0.2663
C19 C 0.8662(4) 0.0586(5) 0.19398(18)
H25 H 0.8549 -0.0172 0.1736
C20 C 0.9262(5) 0.1582(5) 0.16903(19)
H26 H 0.9583 0.1495 0.1323
C21 C 0.9391(4) 0.2708(5) 0.19815(18)
H27 H 0.9774 0.3394 0.1807
C22 C 0.8944(4) 0.2823(4) 0.25413(17)
H28 H 0.9048 0.3591 0.2737
loop_
_geom_bond_atom_site_label_1
_geom_bond_atom_site_label_2
_geom_bond_site_symmetry_1
_geom_bond_site_symmetry_2
Si1 O1 1_555 1_555
O1 C1 1_555 1_555
O2 Si1 1_555 1_555
N1 N2 1_555 1_555
N2 Si1 1_555 1_555
N3 N4 1_555 1_555
N4 Si1 1_555 1_555
C1 N1 1_555 1_555
C2 C1 1_555 1_555
H1 C2 1_555 1_555
H2 C2 1_555 1_555
H3 C2 1_555 1_555
C3 N2 1_555 1_555
C4 C3 1_555 1_555
H4 C4 1_555 1_555
H5 C4 1_555 1_555
H6 C4 1_555 1_555
C5 C3 1_555 1_555
H7 C5 1_555 1_555
H8 C5 1_555 1_555
H9 C5 1_555 1_555
C6 O2 1_555 1_555
C7 C6 1_555 1_555
H10 C7 1_555 1_555
H11 C7 1_555 1_555
H12 C7 1_555 1_555
C8 N4 1_555 1_555
C9 C8 1_555 1_555
H13 C9 1_555 1_555
H14 C9 1_555 1_555
H15 C9 1_555 1_555
C10 C8 1_555 1_555
H16 C10 1_555 1_555
H17 C10 1_555 1_555
H18 C10 1_555 1_555
C11 Si1 1_555 1_555
C12 C11 1_555 1_555
H19 C12 1_555 1_555
C13 C12 1_555 1_555
H20 C13 1_555 1_555
C14 C13 1_555 1_555
H21 C14 1_555 1_555
C15 C14 1_555 1_555
H22 C15 1_555 1_555
C16 C11 1_555 1_555
H23 C16 1_555 1_555
C17 Si1 1_555 1_555
C18 C17 1_555 1_555
H24 C18 1_555 1_555
C19 C18 1_555 1_555
H25 C19 1_555 1_555
C20 C19 1_555 1_555
H26 C20 1_555 1_555
C21 C20 1_555 1_555
H27 C21 1_555 1_555
C22 C17 1_555 1_555
H28 C22 1_555 1_555
N3 C6 1_555 1_555
C15 C16 1_555 1_555
C21 C22 1_555 1_555

#END
