
#######################################################################
#
#                 Cambridge Crystallographic Data Centre
#                                CCDC 
#
#######################################################################
#
# If this CIF has been generated from an entry in the Cambridge 
# Structural Database, then it will include bibliographic, chemical, 
# crystal, experimental, refinement or atomic coordinate data resulting 
# from the CCDC's data processing and validation procedures.
#
#######################################################################

data_UCETOO
_chemical_formula_moiety         'C16 H14 O3,C5 H6 N2'
_chemical_name_systematic        
'4-(biphenyl-4-yl)-4-oxobutanoic acid pyridin-2-amine'
_symmetry_cell_setting           monoclinic
_symmetry_space_group_name_H-M   'P 21/c'
_symmetry_Int_Tables_number      14
_space_group_name_Hall           '-P 2ybc'
loop_
_symmetry_equiv_pos_site_id
_symmetry_equiv_pos_as_xyz
1 x,y,z
2 -x,1/2+y,1/2-z
3 -x,-y,-z
4 x,1/2-y,1/2+z
_cell_length_a                   9.6556(7)
_cell_length_b                   35.344(3)
_cell_length_c                   12.1501(13)
_cell_angle_alpha                90
_cell_angle_beta                 118.701(6)
_cell_angle_gamma                90
_cell_volume                     3636.99
_exptl_crystal_colour            colorless
_exptl_crystal_description       block
_cell_formula_units_Z            8
loop_
_atom_site_label
_atom_site_type_symbol
_atom_site_fract_x
_atom_site_fract_y
_atom_site_fract_z
O1 O 1.1049(2) 0.26571(6) 0.51306(19)
H1 H 1.161(3) 0.2514(8) 0.492(3)
O2 O 1.0122(2) 0.30028(6) 0.34098(19)
O3 O 0.8085(3) 0.37095(7) 0.5833(2)
C1 C 1.0236(3) 0.29351(8) 0.4423(3)
C2 C 0.9442(3) 0.31778(8) 0.4986(3)
H2 H 0.8783 0.3017 0.5191
H3 H 1.0249 0.3287 0.5763
C3 C 0.8438(3) 0.34930(8) 0.4138(3)
H4 H 0.9050 0.3631 0.3828
H5 H 0.7534 0.3383 0.3421
C4 C 0.7865(3) 0.37653(9) 0.4776(3)
C5 C 0.7018(3) 0.41147(8) 0.4098(3)
C6 C 0.6373(4) 0.41567(9) 0.2816(3)
H6 H 0.6467 0.3961 0.2347
C7 C 0.5593(4) 0.44829(9) 0.2216(3)
H7 H 0.5163 0.4498 0.1349
C8 C 0.5429(3) 0.47863(8) 0.2854(3)
C9 C 0.6116(4) 0.47449(9) 0.4148(3)
H8 H 0.6060 0.4945 0.4622
C10 C 0.6880(4) 0.44173(10) 0.4757(3)
H9 H 0.7307 0.4400 0.5623
C11 C 0.4605(3) 0.51402(8) 0.2208(3)
C12 C 0.3788(3) 0.51619(9) 0.0908(3)
H10 H 0.3733 0.4950 0.0436
C13 C 0.3048(4) 0.54948(10) 0.0296(3)
H11 H 0.2505 0.5503 -0.0576
C14 C 0.3118(4) 0.58105(10) 0.0974(4)
H12 H 0.2636 0.6034 0.0567
C15 C 0.3903(4) 0.57931(10) 0.2254(4)
H13 H 0.3941 0.6006 0.2719
C16 C 0.4648(4) 0.54609(9) 0.2871(3)
H14 H 0.5184 0.5455 0.3743
O4 O 0.6088(2) 0.26560(6) 0.51579(19)
H15 H 0.663(3) 0.2520(8) 0.491(3)
O5 O 0.5131(2) 0.29929(6) 0.34091(19)
O6 O 0.2831(3) 0.36706(6) 0.5693(2)
C17 C 0.5258(3) 0.29305(8) 0.4434(3)
C18 C 0.4451(3) 0.31755(8) 0.4971(3)
H16 H 0.3700 0.3022 0.5089
H17 H 0.5235 0.3266 0.5790
C19 C 0.3599(3) 0.35103(8) 0.4169(3)
H18 H 0.2804 0.3420 0.3354
H19 H 0.4347 0.3662 0.4042
C20 C 0.2814(3) 0.37562(8) 0.4721(3)
C21 C 0.1994(3) 0.41085(8) 0.4043(3)
C22 C 0.2114(4) 0.42542(9) 0.3035(3)
H20 H 0.2707 0.4125 0.2737
C23 C 0.1370(4) 0.45877(9) 0.2464(3)
H21 H 0.1485 0.4679 0.1795
C24 C 0.0456(3) 0.47901(8) 0.2858(3)
C25 C 0.0331(4) 0.46383(9) 0.3861(3)
H22 H -0.0282 0.4763 0.4148
C26 C 0.1092(4) 0.43071(9) 0.4446(3)
H23 H 0.0994 0.4217 0.5124
C27 C -0.0351(3) 0.51481(8) 0.2238(3)
C28 C 0.0038(4) 0.53360(9) 0.1426(3)
H24 H 0.0820 0.5238 0.1271
C29 C -0.0719(4) 0.56693(9) 0.0839(4)
H25 H -0.0443 0.5790 0.0291
C30 C -0.1857(4) 0.58212(9) 0.1055(4)
H26 H -0.2357 0.6045 0.0663
C31 C -0.2258(4) 0.56397(10) 0.1862(4)
H27 H -0.3031 0.5742 0.2022
C32 C -0.1517(4) 0.53053(9) 0.2436(3)
H28 H -0.1814 0.5184 0.2969
N1 N 1.1501(3) 0.24401(8) 0.2562(2)
H29 H 1.109(4) 0.2642(6) 0.268(3)
H30 H 1.138(4) 0.2444(9) 0.1820(16)
N2 N 1.2703(2) 0.21890(7) 0.4547(2)
C33 C 1.2495(3) 0.21913(8) 0.3361(3)
C34 C 1.3332(3) 0.19246(8) 0.3036(3)
H31 H 1.3195 0.1918 0.2225
C35 C 1.4323(4) 0.16823(9) 0.3904(4)
H32 H 1.4867 0.1506 0.3690
C36 C 1.4548(4) 0.16916(10) 0.5128(4)
H33 H 1.5254 0.1526 0.5732
C37 C 1.3724(4) 0.19454(9) 0.5424(3)
H34 H 1.3860 0.1952 0.6235
N3 N 0.6547(3) 0.24334(8) 0.2598(2)
H35 H 0.614(4) 0.2630(6) 0.275(3)
H36 H 0.633(4) 0.2434(9) 0.1829(14)
N4 N 0.7722(2) 0.21775(6) 0.4568(2)
C38 C 0.7527(3) 0.21844(8) 0.3388(3)
C39 C 0.8369(3) 0.19174(8) 0.3066(3)
H37 H 0.8241 0.1911 0.2257
C40 C 0.9352(4) 0.16734(9) 0.3938(3)
H38 H 0.9902 0.1498 0.3726
C41 C 0.9564(4) 0.16785(9) 0.5163(3)
H39 H 1.0259 0.1512 0.5768
C42 C 0.8734(3) 0.19322(9) 0.5442(3)
H40 H 0.8859 0.1939 0.6250
loop_
_geom_bond_atom_site_label_1
_geom_bond_atom_site_label_2
_geom_bond_site_symmetry_1
_geom_bond_site_symmetry_2
O1 H1 1_555 1_555
O2 C1 1_555 1_555
O3 C4 1_555 1_555
C1 O1 1_555 1_555
C2 C1 1_555 1_555
H2 C2 1_555 1_555
H3 C2 1_555 1_555
C3 C2 1_555 1_555
H4 C3 1_555 1_555
H5 C3 1_555 1_555
C4 C3 1_555 1_555
C5 C4 1_555 1_555
C6 C5 1_555 1_555
H6 C6 1_555 1_555
C7 C6 1_555 1_555
H7 C7 1_555 1_555
C8 C7 1_555 1_555
C9 C8 1_555 1_555
H8 C9 1_555 1_555
C10 C5 1_555 1_555
H9 C10 1_555 1_555
C11 C8 1_555 1_555
C12 C11 1_555 1_555
H10 C12 1_555 1_555
C13 C12 1_555 1_555
H11 C13 1_555 1_555
C14 C13 1_555 1_555
H12 C14 1_555 1_555
C15 C14 1_555 1_555
H13 C15 1_555 1_555
C16 C11 1_555 1_555
H14 C16 1_555 1_555
O4 H15 1_555 1_555
O5 C17 1_555 1_555
O6 C20 1_555 1_555
C17 O4 1_555 1_555
C18 C17 1_555 1_555
H16 C18 1_555 1_555
H17 C18 1_555 1_555
C19 C18 1_555 1_555
H18 C19 1_555 1_555
H19 C19 1_555 1_555
C20 C19 1_555 1_555
C21 C20 1_555 1_555
C22 C21 1_555 1_555
H20 C22 1_555 1_555
C23 C22 1_555 1_555
H21 C23 1_555 1_555
C24 C23 1_555 1_555
C25 C24 1_555 1_555
H22 C25 1_555 1_555
C26 C21 1_555 1_555
H23 C26 1_555 1_555
C27 C24 1_555 1_555
C28 C27 1_555 1_555
H24 C28 1_555 1_555
C29 C28 1_555 1_555
H25 C29 1_555 1_555
C30 C29 1_555 1_555
H26 C30 1_555 1_555
C31 C30 1_555 1_555
H27 C31 1_555 1_555
C32 C27 1_555 1_555
H28 C32 1_555 1_555
N1 H29 1_555 1_555
H30 N1 1_555 1_555
N2 C33 1_555 1_555
C33 N1 1_555 1_555
C34 C33 1_555 1_555
H31 C34 1_555 1_555
C35 C34 1_555 1_555
H32 C35 1_555 1_555
C36 C35 1_555 1_555
H33 C36 1_555 1_555
C37 N2 1_555 1_555
H34 C37 1_555 1_555
N3 H35 1_555 1_555
H36 N3 1_555 1_555
N4 C38 1_555 1_555
C38 N3 1_555 1_555
C39 C38 1_555 1_555
H37 C39 1_555 1_555
C40 C39 1_555 1_555
H38 C40 1_555 1_555
C41 C40 1_555 1_555
H39 C41 1_555 1_555
C42 N4 1_555 1_555
H40 C42 1_555 1_555
C9 C10 1_555 1_555
C15 C16 1_555 1_555
C25 C26 1_555 1_555
C31 C32 1_555 1_555
C36 C37 1_555 1_555
C41 C42 1_555 1_555

#END
