
#######################################################################
#
#                 Cambridge Crystallographic Data Centre
#                                CCDC 
#
#######################################################################
#
# If this CIF has been generated from an entry in the Cambridge 
# Structural Database, then it will include bibliographic, chemical, 
# crystal, experimental, refinement or atomic coordinate data resulting 
# from the CCDC's data processing and validation procedures.
#
#######################################################################

data_UCEZOU
_chemical_formula_moiety         'C50 H68 N2 O12 2+,2(C10 H8 O2),2(I1 1-)'
_chemical_name_systematic        
"4,4'-[c-2,t-4-bis(2,3,5,6,8,9,11,12,14,15-decahydro-1,4,7,10,13,16-benzohexaoxacyclooctadecin-18-yl)cyclobutane-r-1,t-3-diyl]bis(1-ethylpyridin-1-ium) bis(iodide) bis(naphthalene-2,6-diol)"
_symmetry_cell_setting           monoclinic
_symmetry_space_group_name_H-M   'C 2/c'
_symmetry_Int_Tables_number      15
_space_group_name_Hall           '-C 2yn'
loop_
_symmetry_equiv_pos_site_id
_symmetry_equiv_pos_as_xyz
1 x,y,z
2 -x,y,1/2-z
3 1/2+x,1/2+y,z
4 1/2-x,1/2+y,1/2-z
5 -x,-y,-z
6 x,-y,1/2+z
7 1/2-x,1/2-y,-z
8 1/2+x,1/2-y,1/2+z
_cell_length_a                   27.646(10)
_cell_length_b                   8.947(4)
_cell_length_c                   27.654(11)
_cell_angle_alpha                90
_cell_angle_beta                 104.726(13)
_cell_angle_gamma                90
_cell_volume                     6615.5
_exptl_crystal_colour            'light yellow'
_exptl_crystal_description       plate
_cell_formula_units_Z            4
_exptl_crystal_recrystallization_method 'acetonitrile /benzene'
loop_
_atom_site_label
_atom_site_type_symbol
_atom_site_fract_x
_atom_site_fract_y
_atom_site_fract_z
O1 O 0.3266(5) 0.6362(17) 0.4348(6)
O2 O 0.4120(5) 0.6214(17) 0.3898(6)
O3 O 0.4053(5) 0.7572(18) 0.2925(6)
O4 O 0.2959(6) 0.686(2) 0.2373(8)
O5 O 0.2085(7) 0.694(2) 0.2744(8)
O6 O 0.2460(5) 0.7603(17) 0.3871(7)
N1 N 0.1485(7) 1.395(2) 0.6201(9)
C1 C 0.1283(9) 1.392(3) 0.5728(10)
H1 H 0.0972 1.4426 0.5614
C2 C 0.1470(10) 1.324(3) 0.5372(11)
H2 H 0.1291 1.3217 0.5030
C3 C 0.1977(8) 1.253(2) 0.5555(9)
C4 C 0.2179(8) 1.251(3) 0.6053(10)
H3 H 0.2489 1.2022 0.6194
C5 C 0.1910(11) 1.323(3) 0.6354(11)
H4 H 0.2051 1.3189 0.6705
C6 C 0.2175(10) 1.207(3) 0.5124(11)
H5 H 0.1953 1.1295 0.4920
C7 C 0.2696(8) 1.158(2) 0.5246(9)
H6 H 0.2872 1.1718 0.5606
C8 C 0.2798(9) 0.996(3) 0.5035(10)
C9 C 0.3185(8) 0.924(3) 0.5311(9)
H7 H 0.3355 0.9534 0.5640
C10 C 0.3329(8) 0.793(2) 0.5058(9)
H8 H 0.3599 0.7331 0.5239
C11 C 0.3113(7) 0.754(2) 0.4610(9)
C12 C 0.2669(8) 0.813(2) 0.4329(10)
C13 C 0.2499(8) 0.945(3) 0.4561(10)
H9 H 0.2197 0.9943 0.4400
C14 C 0.3781(8) 0.584(2) 0.4574(8)
H10 H 0.3991 0.6700 0.4720
H11 H 0.3775 0.5133 0.4849
C15 C 0.4003(9) 0.510(3) 0.4222(9)
H12 H 0.4310 0.4571 0.4400
H13 H 0.3766 0.4364 0.4025
C16 C 0.4343(9) 0.564(3) 0.3548(11)
H14 H 0.4107 0.4974 0.3315
H15 H 0.4641 0.5045 0.3715
C17 C 0.4500(9) 0.697(3) 0.3255(10)
H16 H 0.4671 0.7749 0.3491
H17 H 0.4731 0.6617 0.3059
C18 C 0.3878(10) 0.694(3) 0.2481(9)
H18 H 0.3857 0.5841 0.2524
H19 H 0.4111 0.7129 0.2270
C19 C 0.3369(10) 0.753(3) 0.2224(9)
H20 H 0.3365 0.8619 0.2287
H21 H 0.3316 0.7389 0.1859
C20 C 0.2966(10) 0.663(3) 0.2884(11)
H22 H 0.2979 0.7607 0.3056
H23 H 0.3266 0.6051 0.3052
C21 C 0.2517(11) 0.582(3) 0.2914(11)
H24 H 0.2544 0.5489 0.3261
H25 H 0.2466 0.4938 0.2693
C22 C 0.1858(11) 0.729(4) 0.3142(10)
H26 H 0.1533 0.6875 0.3098
C23 C 0.2015(9) 0.809(3) 0.3567(10)
H27 H 0.1755 0.8055 0.3755
H28 H 0.2053 0.9152 0.3477
C24 C 0.1271(11) 1.467(3) 0.6572(10)
H29 H 0.1537 1.4840 0.6882
H30 H 0.1134 1.5662 0.6444
C25 C 0.0885(10) 1.380(3) 0.6683(9)
H31 H 0.0851 1.4062 0.7017
H32 H 0.0968 1.2741 0.6673
H33 H 0.0569 1.4006 0.6435
O1F O 0.1734(5) 1.8638(17) 0.5652(6)
O2F O 0.0880(5) 1.8786(17) 0.6102(6)
O3F O 0.0947(5) 1.7428(18) 0.7075(6)
O4F O 0.2041(6) 1.814(2) 0.7627(8)
O5F O 0.2915(7) 1.806(2) 0.7256(8)
O6F O 0.2540(5) 1.7397(17) 0.6129(7)
N1F N 0.3515(7) 1.105(2) 0.3799(9)
C1F C 0.3717(9) 1.108(3) 0.4272(10)
H1F H 0.4028 1.0574 0.4386
C2F C 0.3530(10) 1.176(3) 0.4628(11)
H2F H 0.3709 1.1783 0.4970
C3F C 0.3023(8) 1.247(2) 0.4445(9)
C4F C 0.2821(8) 1.249(3) 0.3947(10)
H3F H 0.2511 1.2978 0.3806
C5F C 0.3090(11) 1.177(3) 0.3646(11)
H4F H 0.2949 1.1811 0.3295
C6F C 0.2825(10) 1.293(3) 0.4876(11)
H5F H 0.3047 1.3705 0.5080
C7F C 0.2304(8) 1.342(2) 0.4754(9)
H6F H 0.2128 1.3282 0.4394
C8F C 0.2202(9) 1.504(3) 0.4965(10)
C9F C 0.1815(8) 1.576(3) 0.4689(9)
H7F H 0.1645 1.5466 0.4360
C10F C 0.1671(8) 1.707(2) 0.4942(9)
H8F H 0.1401 1.7669 0.4761
C11F C 0.1887(7) 1.746(2) 0.5390(9)
C12F C 0.2331(8) 1.687(2) 0.5671(10)
C13F C 0.2501(8) 1.555(3) 0.5439(10)
H9F H 0.2803 1.5057 0.5600
C14F C 0.1219(8) 1.916(2) 0.5426(8)
H10F H 0.1009 1.8300 0.5280
H11F H 0.1225 1.9867 0.5151
C15F C 0.0997(9) 1.990(3) 0.5778(9)
H12F H 0.0690 2.0429 0.5600
H13F H 0.1234 2.0636 0.5975
C16F C 0.0657(9) 1.936(3) 0.6452(11)
H14F H 0.0893 2.0026 0.6685
H15F H 0.0359 1.9955 0.6285
C17F C 0.0500(9) 1.803(3) 0.6745(10)
H16F H 0.0329 1.7251 0.6509
H17F H 0.0269 1.8383 0.6941
C18F C 0.1122(10) 1.806(3) 0.7519(9)
H18F H 0.1143 1.9159 0.7476
H19F H 0.0889 1.7871 0.7730
C19F C 0.1631(10) 1.747(3) 0.7776(9)
H20F H 0.1635 1.6381 0.7713
H21F H 0.1684 1.7611 0.8141
C20F C 0.2034(10) 1.837(3) 0.7116(11)
H22F H 0.2021 1.7393 0.6944
H23F H 0.1734 1.8949 0.6948
C21F C 0.2483(11) 1.918(3) 0.7086(11)
H24F H 0.2456 1.9511 0.6739
H25F H 0.2534 2.0062 0.7307
C22F C 0.3142(11) 1.771(4) 0.6858(10)
H26F H 0.3467 1.8125 0.6902
C23F C 0.2985(9) 1.691(3) 0.6433(10)
H27F H 0.3245 1.6945 0.6245
H28F H 0.2947 1.5848 0.6523
C24F C 0.3729(11) 1.033(3) 0.3428(10)
H29F H 0.3463 1.0160 0.3118
H30F H 0.3866 0.9338 0.3556
C25F C 0.4115(10) 1.120(3) 0.3317(9)
H31F H 0.4149 1.0938 0.2983
H32F H 0.4032 1.2259 0.3327
H33F H 0.4431 1.0994 0.3565
O7 O 0.4689(5) 0.6008(18) 0.0369(6)
H34 H 0.4571 0.6123 0.0617
C26 C 0.4867(7) 1.004(3) 0.0188(7)
C27 C 0.4760(8) 0.872(3) 0.0393(9)
H35 H 0.4622 0.8758 0.0674
C28 C 0.4842(8) 0.744(3) 0.0217(10)
C29 C 0.5044(9) 0.735(4) -0.0204(11)
H36 H 0.5087 0.6409 -0.0347
C30 C 0.5172(9) 0.861(3) -0.0396(10)
H37 H 0.5295 0.8555 -0.0686
O7D O 0.5311(5) 1.3992(18) -0.0369(6)
H34D H 0.5429 1.3877 -0.0617
C26D C 0.5133(7) 0.996(3) -0.0188(7)
C27D C 0.5240(8) 1.128(3) -0.0393(9)
H35D H 0.5378 1.1242 -0.0674
C28D C 0.5158(8) 1.256(3) -0.0217(10)
C29D C 0.4956(9) 1.265(4) 0.0204(11)
H36D H 0.4913 1.3591 0.0347
C30D C 0.4828(9) 1.139(3) 0.0396(10)
H37D H 0.4705 1.1445 0.0686
O8 O 0.4088(10) 1.029(3) 0.1223(7)
H38 H 0.4068 0.9362 0.1185
C31 C 0.5000 1.071(4) 0.2500
C32 C 0.4729(10) 1.002(3) 0.2090(10)
H39 H 0.4761 0.8962 0.2082
C33 C 0.4424(8) 1.064(3) 0.1697(10)
C34 C 0.4436(7) 1.225(3) 0.1699(8)
H40 H 0.4233 1.2746 0.1416
C35 C 0.4708(7) 1.310(2) 0.2067(8)
H41 H 0.4710 1.4158 0.2045
C36 C 0.5000 1.231(3) 0.2500
O8A O 0.5912(10) 1.029(3) 0.3777(7)
H38A H 0.5932 0.9362 0.3815
C32A C 0.5271(10) 1.002(3) 0.2910(10)
H39A H 0.5239 0.8962 0.2918
C33A C 0.5576(8) 1.064(3) 0.3303(10)
C34A C 0.5564(7) 1.225(3) 0.3301(8)
H40A H 0.5767 1.2746 0.3584
C35A C 0.5292(7) 1.310(2) 0.2933(8)
H41A H 0.5290 1.4158 0.2955
I1 I 0.39237(6) 0.64645(18) 0.11169(7)
O9? O 0.4126(11) 1.255(3) 0.1224(11)
H42? H 0.4096 1.3474 0.1181
H43? H 0.4215 1.0070 0.1435
loop_
_geom_bond_atom_site_label_1
_geom_bond_atom_site_label_2
_geom_bond_site_symmetry_1
_geom_bond_site_symmetry_2
O1 C11 1_555 1_555
O2 C15 1_555 1_555
O3 C17 1_555 1_555
O4 C19 1_555 1_555
O5 C21 1_555 1_555
O6 C12 1_555 1_555
N1 C1 1_555 1_555
C1 H1 1_555 1_555
C2 C1 1_555 1_555
H2 C2 1_555 1_555
C3 C2 1_555 1_555
C4 C3 1_555 1_555
H3 C4 1_555 1_555
C5 N1 1_555 1_555
H4 C5 1_555 1_555
C6 C3 1_555 1_555
H5 C6 1_555 1_555
C7 C6 1_555 1_555
H6 C7 1_555 1_555
C8 C7 1_555 1_555
C9 C8 1_555 1_555
H7 C9 1_555 1_555
C10 C9 1_555 1_555
H8 C10 1_555 1_555
C11 C10 1_555 1_555
C12 C11 1_555 1_555
C13 C8 1_555 1_555
H9 C13 1_555 1_555
C14 O1 1_555 1_555
H10 C14 1_555 1_555
H11 C14 1_555 1_555
C15 C14 1_555 1_555
H12 C15 1_555 1_555
H13 C15 1_555 1_555
C16 O2 1_555 1_555
H14 C16 1_555 1_555
H15 C16 1_555 1_555
C17 C16 1_555 1_555
H16 C17 1_555 1_555
H17 C17 1_555 1_555
C18 O3 1_555 1_555
H18 C18 1_555 1_555
H19 C18 1_555 1_555
C19 C18 1_555 1_555
H20 C19 1_555 1_555
H21 C19 1_555 1_555
C20 O4 1_555 1_555
H22 C20 1_555 1_555
H23 C20 1_555 1_555
C21 C20 1_555 1_555
H24 C21 1_555 1_555
H25 C21 1_555 1_555
C22 O5 1_555 1_555
H26 C22 1_555 1_555
C23 O6 1_555 1_555
H27 C23 1_555 1_555
H28 C23 1_555 1_555
C24 N1 1_555 1_555
H29 C24 1_555 1_555
H30 C24 1_555 1_555
C25 C24 1_555 1_555
H31 C25 1_555 1_555
H32 C25 1_555 1_555
H33 C25 1_555 1_555
O7 H34 1_555 1_555
C26 C27 1_555 1_555
C27 H35 1_555 1_555
C28 O7 1_555 1_555
C29 C28 1_555 1_555
H36 C29 1_555 1_555
C30 C29 1_555 1_555
H37 C30 1_555 1_555
O8 H38 1_555 1_555
C31 C32 1_555 1_555
C32 H39 1_555 1_555
C33 O8 1_555 1_555
C34 C33 1_555 1_555
H40 C34 1_555 1_555
C35 C34 1_555 1_555
H41 C35 1_555 1_555
C36 C31 1_555 1_555
O1F C11F 1_555 1_555
O2F C15F 1_555 1_555
O3F C17F 1_555 1_555
O4F C19F 1_555 1_555
O5F C21F 1_555 1_555
O6F C12F 1_555 1_555
N1F C1F 1_555 1_555
C1F H1F 1_555 1_555
C2F C1F 1_555 1_555
H2F C2F 1_555 1_555
C3F C2F 1_555 1_555
C4F C3F 1_555 1_555
H3F C4F 1_555 1_555
C5F N1F 1_555 1_555
H4F C5F 1_555 1_555
C6F C7 1_555 1_555
H5F C6F 1_555 1_555
C7F C6 1_555 1_555
H6F C7F 1_555 1_555
C8F C7F 1_555 1_555
C9F C8F 1_555 1_555
H7F C9F 1_555 1_555
C10F C9F 1_555 1_555
H8F C10F 1_555 1_555
C11F C10F 1_555 1_555
C12F C11F 1_555 1_555
C13F C8F 1_555 1_555
H9F C13F 1_555 1_555
C14F O1F 1_555 1_555
H10F C14F 1_555 1_555
H11F C14F 1_555 1_555
C15F C14F 1_555 1_555
H12F C15F 1_555 1_555
H13F C15F 1_555 1_555
C16F O2F 1_555 1_555
H14F C16F 1_555 1_555
H15F C16F 1_555 1_555
C17F C16F 1_555 1_555
H16F C17F 1_555 1_555
H17F C17F 1_555 1_555
C18F O3F 1_555 1_555
H18F C18F 1_555 1_555
H19F C18F 1_555 1_555
C19F C18F 1_555 1_555
H20F C19F 1_555 1_555
H21F C19F 1_555 1_555
C20F O4F 1_555 1_555
H22F C20F 1_555 1_555
H23F C20F 1_555 1_555
C21F C20F 1_555 1_555
H24F C21F 1_555 1_555
H25F C21F 1_555 1_555
C22F O5F 1_555 1_555
H26F C22F 1_555 1_555
C23F O6F 1_555 1_555
H27F C23F 1_555 1_555
H28F C23F 1_555 1_555
C24F N1F 1_555 1_555
H29F C24F 1_555 1_555
H30F C24F 1_555 1_555
C25F C24F 1_555 1_555
H31F C25F 1_555 1_555
H32F C25F 1_555 1_555
H33F C25F 1_555 1_555
O7D H34D 1_555 1_555
C26D C26 1_555 1_555
C27D C26D 1_555 1_555
H35D C27D 1_555 1_555
C28D O7D 1_555 1_555
C29D C28D 1_555 1_555
H36D C29D 1_555 1_555
C30D C26 1_555 1_555
H37D C30D 1_555 1_555
O8A H38A 1_555 1_555
C32A C31 1_555 1_555
H39A C32A 1_555 1_555
C33A O8A 1_555 1_555
C34A C33A 1_555 1_555
H40A C34A 1_555 1_555
C35A C36 1_555 1_555
H41A C35A 1_555 1_555
C4 C5 1_555 1_555
C12 C13 1_555 1_555
C22 C23 1_555 1_555
C27 C28 1_555 1_555
C30 C26D 1_555 1_555
C32 C33 1_555 1_555
C35 C36 1_555 1_555
C3F C6F 1_555 1_555
C4F C5F 1_555 1_555
C6F C7F 1_555 1_555
C12F C13F 1_555 1_555
C22F C23F 1_555 1_555
C27D C28D 1_555 1_555
C29D C30D 1_555 1_555
C32A C33A 1_555 1_555
C34A C35A 1_555 1_555

#END
