
#######################################################################
#
#                 Cambridge Crystallographic Data Centre
#                                CCDC 
#
#######################################################################
#
# If this CIF has been generated from an entry in the Cambridge 
# Structural Database, then it will include bibliographic, chemical, 
# crystal, experimental, refinement or atomic coordinate data resulting 
# from the CCDC's data processing and validation procedures.
#
#######################################################################

data_UCIFIX
_chemical_formula_moiety         'C19 H14 Br1 N1'
_chemical_name_systematic        
9-Bromo-7,8-dihydro-6H-benzo[c]pyrido[1,2,3-lm]carbazole
_symmetry_cell_setting           monoclinic
_symmetry_space_group_name_H-M   'P 21/c'
_symmetry_Int_Tables_number      14
_space_group_name_Hall           '-P 2ybc'
loop_
_symmetry_equiv_pos_site_id
_symmetry_equiv_pos_as_xyz
1 x,y,z
2 -x,1/2+y,1/2-z
3 -x,-y,-z
4 x,1/2-y,1/2+z
_cell_length_a                   9.216(4)
_cell_length_b                   12.671(5)
_cell_length_c                   12.559(5)
_cell_angle_alpha                90
_cell_angle_beta                 103.675(8)
_cell_angle_gamma                90
_cell_volume                     1425.01
_exptl_crystal_colour            yellow
_exptl_crystal_description       cubic
_cell_formula_units_Z            4
loop_
_atom_site_label
_atom_site_type_symbol
_atom_site_fract_x
_atom_site_fract_y
_atom_site_fract_z
Br1 Br 1.38396(4) 0.19082(3) 1.06071(4)
C1 C 1.0158(4) 0.0451(3) 0.8679(3)
C2 C 1.1652(4) 0.0664(3) 0.9238(3)
C3 C 1.1854(4) 0.1553(3) 0.9855(3)
C4 C 1.0661(4) 0.2248(3) 0.9958(3)
C5 C 1.0896(5) 0.3165(3) 1.0618(3)
H1 H 1.1858 0.3336 1.1005
C6 C 0.9731(5) 0.3804(3) 1.0697(4)
H2 H 0.9912 0.4410 1.1127
C7 C 0.8296(5) 0.3562(3) 1.0149(4)
H3 H 0.7512 0.3996 1.0223
C8 C 0.8010(4) 0.2687(3) 0.9494(3)
H4 H 0.7033 0.2538 0.9124
C9 C 0.9171(4) 0.2008(3) 0.9369(3)
C10 C 0.8942(4) 0.1092(3) 0.8695(3)
C11 C 0.7681(4) 0.0608(3) 0.7952(3)
C12 C 0.6181(4) 0.0864(3) 0.7531(3)
H5 H 0.5777 0.1464 0.7776
C13 C 0.5307(5) 0.0230(4) 0.6756(3)
H6 H 0.4319 0.0419 0.6459
C14 C 0.5866(5) -0.0694(3) 0.6401(3)
H7 H 0.5237 -0.1125 0.5895
C15 C 0.7325(4) -0.0973(3) 0.6787(3)
H8 H 0.7705 -0.1581 0.6539
C16 C 0.8228(4) -0.0325(3) 0.7560(3)
C17 C 1.0795(4) -0.1201(3) 0.7812(3)
H9 H 1.0482 -0.1467 0.7069
H10 H 1.0830 -0.1788 0.8313
C18 C 1.2312(4) -0.0700(3) 0.7987(3)
H11 H 1.2303 -0.0207 0.7395
H12 H 1.3037 -0.1245 0.7949
C19 C 1.2819(4) -0.0116(3) 0.9078(3)
H13 H 1.3006 -0.0622 0.9674
H14 H 1.3745 0.0254 0.9093
N1 N 0.9730(3) -0.0402(2) 0.8006(3)
loop_
_geom_bond_atom_site_label_1
_geom_bond_atom_site_label_2
_geom_bond_site_symmetry_1
_geom_bond_site_symmetry_2
Br1 C3 1_555 1_555
C1 C2 1_555 1_555
C2 C3 1_555 1_555
C3 C4 1_555 1_555
C4 C5 1_555 1_555
C5 H1 1_555 1_555
C6 C5 1_555 1_555
H2 C6 1_555 1_555
C7 C6 1_555 1_555
H3 C7 1_555 1_555
C8 C7 1_555 1_555
H4 C8 1_555 1_555
C9 C4 1_555 1_555
C10 C1 1_555 1_555
C11 C10 1_555 1_555
C12 C11 1_555 1_555
H5 C12 1_555 1_555
C13 C12 1_555 1_555
H6 C13 1_555 1_555
C14 C13 1_555 1_555
H7 C14 1_555 1_555
C15 C14 1_555 1_555
H8 C15 1_555 1_555
C16 C11 1_555 1_555
C17 H9 1_555 1_555
H10 C17 1_555 1_555
C18 C17 1_555 1_555
H11 C18 1_555 1_555
H12 C18 1_555 1_555
C19 C2 1_555 1_555
H13 C19 1_555 1_555
H14 C19 1_555 1_555
N1 C1 1_555 1_555
C8 C9 1_555 1_555
C9 C10 1_555 1_555
C15 C16 1_555 1_555
C16 N1 1_555 1_555
C17 N1 1_555 1_555
C18 C19 1_555 1_555

#END
