
#######################################################################
#
#                 Cambridge Crystallographic Data Centre
#                                CCDC 
#
#######################################################################
#
# If this CIF has been generated from an entry in the Cambridge 
# Structural Database, then it will include bibliographic, chemical, 
# crystal, experimental, refinement or atomic coordinate data resulting 
# from the CCDC's data processing and validation procedures.
#
#######################################################################

data_UCIFUJ
_chemical_formula_moiety         'C20 H16 Cl1 N1'
_chemical_name_systematic        
9-Chloro-10-methyl-7,8-dihydro-6H-benzo[c]pyrido[1,2,3-lm]carbazole
_symmetry_cell_setting           monoclinic
_symmetry_space_group_name_H-M   'C 2/c'
_symmetry_Int_Tables_number      15
_space_group_name_Hall           '-C 2yn'
loop_
_symmetry_equiv_pos_site_id
_symmetry_equiv_pos_as_xyz
1 x,y,z
2 -x,y,1/2-z
3 1/2+x,1/2+y,z
4 1/2-x,1/2+y,1/2-z
5 -x,-y,-z
6 x,-y,1/2+z
7 1/2-x,1/2-y,-z
8 1/2+x,1/2-y,1/2+z
_cell_length_a                   18.41(5)
_cell_length_b                   8.05(2)
_cell_length_c                   21.55(6)
_cell_angle_alpha                90
_cell_angle_beta                 103.39(3)
_cell_angle_gamma                90
_cell_volume                     3106.9
_exptl_crystal_colour            colorless
_exptl_crystal_description       block
_cell_formula_units_Z            8
loop_
_atom_site_label
_atom_site_type_symbol
_atom_site_fract_x
_atom_site_fract_y
_atom_site_fract_z
C1 C 0.34595(17) 0.5406(4) 0.12988(15)
C2 C 0.28449(19) 0.6147(4) 0.15353(14)
C3 C 0.2898(2) 0.6859(4) 0.21743(15)
C4 C 0.2247(3) 0.7387(4) 0.23412(16)
H1 H 0.2287 0.7832 0.2746
C5 C 0.1531(2) 0.7282(4) 0.19283(18)
H2 H 0.1108 0.7580 0.2069
C6 C 0.14709(19) 0.6722(4) 0.13061(15)
H3 H 0.1004 0.6685 0.1026
C7 C 0.21163(18) 0.6201(3) 0.10903(15)
C8 C 0.20562(17) 0.5725(3) 0.04266(14)
C9 C 0.27005(17) 0.5132(3) 0.02469(14)
C10 C 0.31003(18) 0.3987(4) -0.07245(15)
H4 H 0.3024 0.4413 -0.1156
H5 H 0.3041 0.2789 -0.0747
C11 C 0.38899(19) 0.4434(4) -0.03421(16)
H6 H 0.3981 0.5599 -0.0410
H7 H 0.4250 0.3793 -0.0508
C12 C 0.40262(17) 0.4113(4) 0.03872(15)
H8 H 0.4041 0.2926 0.0465
H9 H 0.4506 0.4573 0.0600
C13 C 0.34095(17) 0.4901(4) 0.06687(15)
C14 C 0.14571(18) 0.5668(3) -0.01545(14)
C15 C 0.17874(17) 0.5039(4) -0.06576(14)
C16 C 0.1370(2) 0.4808(4) -0.12952(15)
H10 H 0.1590 0.4399 -0.1612
C17 C 0.0617(2) 0.5226(4) -0.14210(17)
H11 H 0.0326 0.5079 -0.1832
C18 C 0.0280(2) 0.5867(4) -0.09444(18)
H12 H -0.0224 0.6146 -0.1051
C19 C 0.06829(18) 0.6088(4) -0.03228(16)
H13 H 0.0451 0.6509 -0.0016
C20 C 0.3634(2) 0.7168(4) 0.26760(15)
H14 H 0.3546 0.7940 0.2990
H15 H 0.4001 0.7619 0.2470
H16 H 0.3814 0.6139 0.2880
Cl1 Cl 0.43310(5) 0.49316(13) 0.18268(4)
N1 N 0.25441(14) 0.4727(3) -0.04053(11)
loop_
_geom_bond_atom_site_label_1
_geom_bond_atom_site_label_2
_geom_bond_site_symmetry_1
_geom_bond_site_symmetry_2
C1 C2 1_555 1_555
C2 C3 1_555 1_555
C3 C4 1_555 1_555
C4 H1 1_555 1_555
C5 C4 1_555 1_555
H2 C5 1_555 1_555
C6 C5 1_555 1_555
H3 C6 1_555 1_555
C7 C2 1_555 1_555
C8 C7 1_555 1_555
C9 C8 1_555 1_555
C10 H4 1_555 1_555
H5 C10 1_555 1_555
C11 C10 1_555 1_555
H6 C11 1_555 1_555
H7 C11 1_555 1_555
C12 C11 1_555 1_555
H8 C12 1_555 1_555
H9 C12 1_555 1_555
C13 C1 1_555 1_555
C14 C8 1_555 1_555
C15 C14 1_555 1_555
C16 C15 1_555 1_555
H10 C16 1_555 1_555
C17 C16 1_555 1_555
H11 C17 1_555 1_555
C18 C17 1_555 1_555
H12 C18 1_555 1_555
C19 C14 1_555 1_555
H13 C19 1_555 1_555
C20 C3 1_555 1_555
H14 C20 1_555 1_555
H15 C20 1_555 1_555
H16 C20 1_555 1_555
Cl1 C1 1_555 1_555
N1 C9 1_555 1_555
C6 C7 1_555 1_555
C9 C13 1_555 1_555
C10 N1 1_555 1_555
C12 C13 1_555 1_555
C15 N1 1_555 1_555
C18 C19 1_555 1_555

#END
