
#######################################################################
#
#                 Cambridge Crystallographic Data Centre
#                                CCDC 
#
#######################################################################
#
# If this CIF has been generated from an entry in the Cambridge 
# Structural Database, then it will include bibliographic, chemical, 
# crystal, experimental, refinement or atomic coordinate data resulting 
# from the CCDC's data processing and validation procedures.
#
#######################################################################

data_UCILAV
_chemical_formula_moiety         'C19 H19 Cl2 N1 O2 S1'
_chemical_name_systematic        
N-Benzyl-N-(1-chloro-2-(4-chlorophenyl)penta-1,4-dien-1-yl)methanesulfonamide
_symmetry_cell_setting           monoclinic
_symmetry_space_group_name_H-M   'P 21/c'
_symmetry_Int_Tables_number      14
_space_group_name_Hall           '-P 2ybc'
loop_
_symmetry_equiv_pos_site_id
_symmetry_equiv_pos_as_xyz
1 x,y,z
2 -x,1/2+y,1/2-z
3 -x,-y,-z
4 x,1/2-y,1/2+z
_cell_length_a                   7.0335(5)
_cell_length_b                   35.053(2)
_cell_length_c                   8.2257(6)
_cell_angle_alpha                90
_cell_angle_beta                 106.305(5)
_cell_angle_gamma                90
_cell_volume                     1946.44
_exptl_crystal_colour            colorless
_exptl_crystal_description       block
_cell_formula_units_Z            4
loop_
_atom_site_label
_atom_site_type_symbol
_atom_site_fract_x
_atom_site_fract_y
_atom_site_fract_z
S1 S 0.63592(11) 0.07278(2) 0.01343(11)
Cl1 Cl 0.13051(13) 0.05093(3) -0.14343(13)
Cl2 Cl 0.74486(17) 0.20121(3) -0.64005(16)
O1 O 0.6575(3) 0.04617(6) -0.1116(3)
C1 C 0.2572(4) 0.08993(8) -0.3746(5)
N1 N 0.4385(3) 0.09892(7) -0.0787(3)
O2 O 0.7909(3) 0.09907(6) 0.0870(3)
C2 C 0.2884(4) 0.08211(8) -0.2125(5)
C3 C 0.3829(4) 0.11733(8) -0.4365(4)
C4 C 0.6969(5) 0.13898(10) -0.4640(5)
H1 H 0.8332 0.1358 -0.4406
C5 C 0.6058(6) 0.16917(10) -0.5587(5)
C6 C 0.5859(4) 0.11313(9) -0.4032(4)
H2 H 0.6485 0.0925 -0.3388
C7 C 0.2952(5) 0.14807(10) -0.5345(4)
H3 H 0.1587 0.1513 -0.5601
C8 C 0.5841(5) 0.04726(10) 0.1794(4)
H4 H 0.6967 0.0320 0.2353
H5 H 0.4715 0.0310 0.1348
H6 H 0.5556 0.0648 0.2591
C9 C 0.0922(4) 0.07102(10) -0.5099(4)
H7 H -0.0151 0.0643 -0.4627
H8 H 0.0411 0.0887 -0.6024
C10 C 0.2818(5) 0.16098(10) -0.0570(4)
C11 C 0.3898(6) 0.18520(12) -0.1249(6)
H9 H 0.5215 0.1794 -0.1153
C12 C 0.3721(5) 0.12552(10) 0.0343(4)
H10 H 0.4845 0.1324 0.1287
H11 H 0.2756 0.1128 0.0797
C13 C 0.4049(6) 0.17392(10) -0.5945(5)
H12 H 0.3434 0.1946 -0.6592
C14 C 0.0863(6) 0.17008(11) -0.0721(5)
H13 H 0.0088 0.1538 -0.0280
C15 C 0.3084(10) 0.21820(14) -0.2080(8)
H14 H 0.3843 0.2343 -0.2544
C16 C 0.1183(10) 0.22670(14) -0.2208(7)
H15 H 0.0627 0.2488 -0.2771
C17 C 0.0063(7) 0.20337(15) -0.1525(7)
H16 H -0.1241 0.2099 -0.1601
C18 C 0.1667(7) 0.03592(13) -0.5754(7)
H17 H 0.0755 0.0258 -0.6703
C19 C 0.3261(12) 0.01679(19) -0.5308(10)
H18 H 0.3732 0.0046 -0.6120
H19 H 0.3958 0.0150 -0.4168
C20? C 0.1560(12) 0.0281(3) -0.7089(15)
H20? H 0.0500 0.0368 -0.7964
H21? H 0.2530 0.0129 -0.7330
loop_
_geom_bond_atom_site_label_1
_geom_bond_atom_site_label_2
_geom_bond_site_symmetry_1
_geom_bond_site_symmetry_2
S1 O1 1_555 1_555
Cl1 C2 1_555 1_555
Cl2 C5 1_555 1_555
C1 C2 1_555 1_555
N1 S1 1_555 1_555
O2 S1 1_555 1_555
C2 N1 1_555 1_555
C3 C1 1_555 1_555
C4 H1 1_555 1_555
C5 C4 1_555 1_555
C6 C3 1_555 1_555
H2 C6 1_555 1_555
C7 C3 1_555 1_555
H3 C7 1_555 1_555
C8 S1 1_555 1_555
H4 C8 1_555 1_555
H5 C8 1_555 1_555
H6 C8 1_555 1_555
C9 C1 1_555 1_555
H7 C9 1_555 1_555
H8 C9 1_555 1_555
C10 C11 1_555 1_555
C11 H9 1_555 1_555
C12 N1 1_555 1_555
H10 C12 1_555 1_555
H11 C12 1_555 1_555
C13 C5 1_555 1_555
H12 C13 1_555 1_555
C14 C10 1_555 1_555
H13 C14 1_555 1_555
C15 C11 1_555 1_555
H14 C15 1_555 1_555
C16 C15 1_555 1_555
H15 C16 1_555 1_555
C17 C14 1_555 1_555
H16 C17 1_555 1_555
C18 C9 1_555 1_555
H17 C18 1_555 1_555
C19 C18 1_555 1_555
H18 C19 1_555 1_555
H19 C19 1_555 1_555
C4 C6 1_555 1_555
C7 C13 1_555 1_555
C10 C12 1_555 1_555
C16 C17 1_555 1_555

#END
