
#######################################################################
#
#                 Cambridge Crystallographic Data Centre
#                                CCDC 
#
#######################################################################
#
# If this CIF has been generated from an entry in the Cambridge 
# Structural Database, then it will include bibliographic, chemical, 
# crystal, experimental, refinement or atomic coordinate data resulting 
# from the CCDC's data processing and validation procedures.
#
#######################################################################

data_UCIMEZ
_chemical_formula_moiety         'C18 H17 Br1 N2 O4'
_chemical_name_systematic        
endo-(2S,3R,4S,5R)-5-(4-Bromophenyl)-2-methoxycarbonyl-4-nitro-3-phenylpyrrolidine
_symmetry_cell_setting           monoclinic
_symmetry_space_group_name_H-M   'P 21'
_symmetry_Int_Tables_number      4
_space_group_name_Hall           'P 2yb'
loop_
_symmetry_equiv_pos_site_id
_symmetry_equiv_pos_as_xyz
1 x,y,z
2 -x,1/2+y,-z
_cell_length_a                   5.8477(11)
_cell_length_b                   16.217(3)
_cell_length_c                   18.774(4)
_cell_angle_alpha                90
_cell_angle_beta                 94.574(4)
_cell_angle_gamma                90
_cell_volume                     1774.71
_exptl_crystal_colour            colorless
_chemical_melting_point          134-135deg.C
_cell_formula_units_Z            4
loop_
_atom_site_label
_atom_site_type_symbol
_atom_site_fract_x
_atom_site_fract_y
_atom_site_fract_z
Br1 Br 0.5764(3) 0.46440(11) 0.69672(9)
O1 O 0.3720(17) 0.0010(7) 0.8842(6)
O2 O 0.6082(19) -0.0898(7) 0.9373(7)
O3 O 1.227(2) 0.2585(10) 0.9276(9)
O4 O 0.910(2) 0.2629(8) 0.9690(8)
N1 N 0.773(2) 0.0690(7) 0.8256(7)
N2 N 1.053(3) 0.2262(10) 0.9384(8)
C1 C 0.942(3) 0.1384(11) 0.8312(9)
H1 H 1.0775 0.1225 0.8067
C2 C 1.008(2) 0.1407(9) 0.9116(9)
H2 H 1.1482 0.1084 0.9212
C3 C 0.812(2) 0.0972(9) 0.9489(8)
H3 H 0.6758 0.1324 0.9447
C4 C 0.781(2) 0.0268(10) 0.8930(8)
H4 H 0.9134 -0.0103 0.8976
C5 C 0.843(2) 0.2150(9) 0.7973(8)
C6 C 0.973(3) 0.2570(10) 0.7486(9)
H5 H 1.1139 0.2360 0.7375
C7 C 0.894(3) 0.3274(13) 0.7184(9)
H6 H 0.9764 0.3536 0.6847
C8 C 0.694(3) 0.3607(8) 0.7364(7)
C9 C 0.557(3) 0.3193(9) 0.7849(8)
H7 H 0.4174 0.3408 0.7965
C10 C 0.638(2) 0.2491(10) 0.8125(9)
H8 H 0.5502 0.2212 0.8440
C11 C 0.859(3) 0.0737(10) 1.0230(8)
C12 C 0.705(3) 0.0984(14) 1.0747(10)
H9 H 0.5773 0.1302 1.0600
C13 C 0.741(4) 0.0763(17) 1.1452(12)
H10 H 0.6454 0.0967 1.1784
C14 C 0.911(4) 0.0260(14) 1.1661(10)
H11 H 0.9240 0.0059 1.2126
C15 C 1.072(4) 0.0030(17) 1.1186(12)
H12 H 1.1998 -0.0285 1.1338
C16 C 1.035(4) 0.0282(14) 1.0495(10)
H13 H 1.1424 0.0122 1.0181
C17 C 0.562(3) -0.0212(11) 0.9037(8)
C18 C 0.412(3) -0.1382(12) 0.9577(15)
H14 H 0.3507 -0.1132 0.9985
H15 H 0.4613 -0.1934 0.9695
H16 H 0.2961 -0.1397 0.9186
H17 H 0.718(12) 0.047(5) 0.788(2)
Br2 Br 0.2266(4) 0.33172(11) 0.54419(10)
O5 O 0.806(2) -0.1187(9) 0.7712(6)
O6 O 0.603(2) -0.2273(8) 0.7977(7)
O7 O 0.586(2) -0.0382(8) 0.5597(7)
O8 O 0.269(3) -0.0332(10) 0.4937(7)
N3 N 0.394(2) -0.0382(9) 0.7201(7)
N4 N 0.387(3) -0.0494(8) 0.5485(7)
C19 C 0.401(3) -0.1284(10) 0.7289(8)
H18 H 0.2692 -0.1501 0.7522
C20 C 0.403(2) -0.1562(9) 0.6481(7)
H19 H 0.5604 -0.1537 0.6338
C21 C 0.256(2) -0.0885(9) 0.6075(7)
H20 H 0.1103 -0.1116 0.5874
C22 C 0.214(3) -0.0206(9) 0.6631(7)
H21 H 0.0650 -0.0308 0.6817
C23 C 0.219(2) 0.0660(9) 0.6374(9)
C24 C 0.403(2) 0.1165(9) 0.6513(9)
H22 H 0.5275 0.0977 0.6806
C25 C 0.409(3) 0.1956(10) 0.6229(8)
H23 H 0.5391 0.2281 0.6321
C26 C 0.229(3) 0.2252(9) 0.5824(9)
C27 C 0.034(3) 0.1770(9) 0.5672(9)
H24 H -0.0884 0.1961 0.5372
C28 C 0.029(3) 0.1020(11) 0.5973(9)
H25 H -0.1071 0.0720 0.5915
C29 C 0.308(3) -0.2435(10) 0.6346(9)
C30 C 0.448(3) -0.2983(12) 0.5957(9)
H26 H 0.5882 -0.2806 0.5808
C31 C 0.371(5) -0.3761(13) 0.5813(11)
H27 H 0.4620 -0.4108 0.5559
C32 C 0.171(4) -0.4061(11) 0.6018(11)
H28 H 0.1213 -0.4594 0.5906
C33 C 0.040(3) -0.3514(11) 0.6413(12)
H29 H -0.0947 -0.3701 0.6593
C34 C 0.106(3) -0.2731(12) 0.6531(11)
H30 H 0.0084 -0.2376 0.6750
C35 C 0.630(3) -0.1532(10) 0.7667(9)
C36 C 0.803(4) -0.2620(14) 0.8362(13)
H31 H 0.9283 -0.2620 0.8062
H32 H 0.7708 -0.3176 0.8499
H33 H 0.8429 -0.2297 0.8782
H34 H 0.38(3) -0.019(9) 0.762(4)
loop_
_geom_bond_atom_site_label_1
_geom_bond_atom_site_label_2
_geom_bond_site_symmetry_1
_geom_bond_site_symmetry_2
Br1 C8 1_555 1_555
O1 C17 1_555 1_555
O2 C17 1_555 1_555
O3 N2 1_555 1_555
O4 N2 1_555 1_555
N1 C1 1_555 1_555
N2 C2 1_555 1_555
C1 H1 1_555 1_555
C2 C1 1_555 1_555
H2 C2 1_555 1_555
C3 C2 1_555 1_555
H3 C3 1_555 1_555
C4 N1 1_555 1_555
H4 C4 1_555 1_555
C5 C1 1_555 1_555
C6 C5 1_555 1_555
H5 C6 1_555 1_555
C7 C6 1_555 1_555
H6 C7 1_555 1_555
C8 C7 1_555 1_555
C9 C8 1_555 1_555
H7 C9 1_555 1_555
C10 C5 1_555 1_555
H8 C10 1_555 1_555
C11 C3 1_555 1_555
C12 C11 1_555 1_555
H9 C12 1_555 1_555
C13 C12 1_555 1_555
H10 C13 1_555 1_555
C14 C13 1_555 1_555
H11 C14 1_555 1_555
C15 C14 1_555 1_555
H12 C15 1_555 1_555
C16 C11 1_555 1_555
H13 C16 1_555 1_555
C17 C4 1_555 1_555
C18 O2 1_555 1_555
H14 C18 1_555 1_555
H15 C18 1_555 1_555
H16 C18 1_555 1_555
H17 N1 1_555 1_555
Br2 C26 1_555 1_555
O5 C35 1_555 1_555
O6 C35 1_555 1_555
O7 N4 1_555 1_555
O8 N4 1_555 1_555
N3 C19 1_555 1_555
N4 C21 1_555 1_555
C19 H18 1_555 1_555
C20 C19 1_555 1_555
H19 C20 1_555 1_555
C21 C20 1_555 1_555
H20 C21 1_555 1_555
C22 N3 1_555 1_555
H21 C22 1_555 1_555
C23 C22 1_555 1_555
C24 C23 1_555 1_555
H22 C24 1_555 1_555
C25 C24 1_555 1_555
H23 C25 1_555 1_555
C26 C25 1_555 1_555
C27 C26 1_555 1_555
H24 C27 1_555 1_555
C28 C23 1_555 1_555
H25 C28 1_555 1_555
C29 C20 1_555 1_555
C30 C29 1_555 1_555
H26 C30 1_555 1_555
C31 C30 1_555 1_555
H27 C31 1_555 1_555
C32 C31 1_555 1_555
H28 C32 1_555 1_555
C33 C32 1_555 1_555
H29 C33 1_555 1_555
C34 C29 1_555 1_555
H30 C34 1_555 1_555
C35 C19 1_555 1_555
C36 O6 1_555 1_555
H31 C36 1_555 1_555
H32 C36 1_555 1_555
H33 C36 1_555 1_555
H34 N3 1_555 1_555
C3 C4 1_555 1_555
C9 C10 1_555 1_555
C15 C16 1_555 1_555
C21 C22 1_555 1_555
C27 C28 1_555 1_555
C33 C34 1_555 1_555

#END
