
#######################################################################
#
#                 Cambridge Crystallographic Data Centre
#                                CCDC 
#
#######################################################################
#
# If this CIF has been generated from an entry in the Cambridge 
# Structural Database, then it will include bibliographic, chemical, 
# crystal, experimental, refinement or atomic coordinate data resulting 
# from the CCDC's data processing and validation procedures.
#
#######################################################################

data_UCIQOP
_chemical_formula_moiety         'C18 H14 Br1 N3 O4'
_chemical_name_systematic        
'ethyl 1-(4-bromophenyl)-4-(4-nitrophenyl)-1H-imidazole-5-carboxylate'
_symmetry_cell_setting           monoclinic
_symmetry_space_group_name_H-M   'P 21/n'
_symmetry_Int_Tables_number      14
_space_group_name_Hall           '-P 2yn'
loop_
_symmetry_equiv_pos_site_id
_symmetry_equiv_pos_as_xyz
1 x,y,z
2 1/2-x,1/2+y,1/2-z
3 -x,-y,-z
4 1/2+x,1/2-y,1/2+z
_cell_length_a                   10.3220(2)
_cell_length_b                   8.0973(2)
_cell_length_c                   20.4727(4)
_cell_angle_alpha                90
_cell_angle_beta                 93.8590(10)
_cell_angle_gamma                90
_cell_volume                     1707.24
_exptl_crystal_colour            colorless
_exptl_crystal_description       block
_cell_formula_units_Z            4
loop_
_atom_site_label
_atom_site_type_symbol
_atom_site_fract_x
_atom_site_fract_y
_atom_site_fract_z
C1 C 0.6977(4) 0.2799(4) 0.53418(18)
H1 H 0.6486 0.3561 0.5091
C2 C 0.8090(3) 0.0552(4) 0.56239(16)
C3 C 0.8036(3) 0.1628(4) 0.61499(16)
C4 C 0.8522(3) 0.1502(4) 0.68453(15)
C5 C 0.7805(4) 0.2305(5) 0.73009(17)
H2 H 0.7079 0.2920 0.7158
C6 C 0.8156(4) 0.2200(5) 0.79657(18)
H3 H 0.7670 0.2730 0.8270
C7 C 0.9233(4) 0.1301(4) 0.81638(16)
C8 C 0.9986(4) 0.0535(5) 0.77280(18)
H4 H 1.0726 -0.0046 0.7876
C9 C 0.9631(4) 0.0637(5) 0.70663(18)
H5 H 1.0137 0.0124 0.6767
C10 C 0.8717(3) -0.1056(4) 0.55654(16)
C11 C 0.9190(4) -0.3204(5) 0.4842(2)
H6 H 0.8836 -0.3975 0.5146
H7 H 1.0128 -0.3215 0.4911
C12 C 0.8796(5) -0.3694(6) 0.4159(2)
H8 H 0.9114 -0.4784 0.4078
H9 H 0.9153 -0.2928 0.3861
H10 H 0.7866 -0.3685 0.4096
C13 C 0.7445(4) 0.1547(5) 0.39204(17)
H11 H 0.8042 0.2403 0.3980
C14 C 0.6989(3) 0.0759(4) 0.44542(16)
C15 C 0.6102(4) -0.0518(5) 0.43762(17)
H12 H 0.5797 -0.1037 0.4741
C16 C 0.5673(4) -0.1018(5) 0.37551(18)
H13 H 0.5083 -0.1882 0.3695
C17 C 0.6137(3) -0.0210(5) 0.32211(16)
C18 C 0.7015(4) 0.1065(5) 0.32966(17)
H14 H 0.7314 0.1594 0.2933
N1 N 0.7387(3) 0.1347(4) 0.51050(13)
N2 N 0.7341(3) 0.3026(4) 0.59629(14)
N3 N 0.9590(3) 0.1147(4) 0.88701(15)
O1 O 0.9007(3) 0.1968(5) 0.92500(14)
O2 O 1.0469(3) 0.0191(4) 0.90458(14)
O3 O 0.9210(3) -0.1831(3) 0.60200(12)
O4 O 0.8698(3) -0.1558(3) 0.49500(12)
Br1 Br 0.55249(5) -0.08758(6) 0.236494(19)
loop_
_geom_bond_atom_site_label_1
_geom_bond_atom_site_label_2
_geom_bond_site_symmetry_1
_geom_bond_site_symmetry_2
C1 H1 1_555 1_555
C2 C3 1_555 1_555
C3 C4 1_555 1_555
C4 C5 1_555 1_555
C5 H2 1_555 1_555
C6 C5 1_555 1_555
H3 C6 1_555 1_555
C7 C6 1_555 1_555
C8 C7 1_555 1_555
H4 C8 1_555 1_555
C9 C4 1_555 1_555
H5 C9 1_555 1_555
C10 C2 1_555 1_555
C11 H6 1_555 1_555
H7 C11 1_555 1_555
C12 C11 1_555 1_555
H8 C12 1_555 1_555
H9 C12 1_555 1_555
H10 C12 1_555 1_555
C13 H11 1_555 1_555
C14 C13 1_555 1_555
C15 C14 1_555 1_555
H12 C15 1_555 1_555
C16 C15 1_555 1_555
H13 C16 1_555 1_555
C17 C16 1_555 1_555
C18 C13 1_555 1_555
H14 C18 1_555 1_555
N1 C1 1_555 1_555
N2 C1 1_555 1_555
N3 C7 1_555 1_555
O1 N3 1_555 1_555
O2 N3 1_555 1_555
O3 C10 1_555 1_555
O4 C10 1_555 1_555
Br1 C17 1_555 1_555
C2 N1 1_555 1_555
C3 N2 1_555 1_555
C8 C9 1_555 1_555
C11 O4 1_555 1_555
C14 N1 1_555 1_555
C17 C18 1_555 1_555

#END
