
#######################################################################
#
#                 Cambridge Crystallographic Data Centre
#                                CCDC 
#
#######################################################################
#
# If this CIF has been generated from an entry in the Cambridge 
# Structural Database, then it will include bibliographic, chemical, 
# crystal, experimental, refinement or atomic coordinate data resulting 
# from the CCDC's data processing and validation procedures.
#
#######################################################################

data_UCIROQ
_chemical_formula_moiety         'C34 H66 Li4 N4 O3 Si2'
_chemical_name_systematic        
'bis(\m-N^1^-phenyl-N^2^-(trimethylsilyl)ethane-1,2-bis(aminido))-tris(diethyl ether)-tetra-lithium(i)'
_symmetry_cell_setting           triclinic
_symmetry_space_group_name_H-M   'P -1'
_symmetry_Int_Tables_number      2
_space_group_name_Hall           '-P 1'
loop_
_symmetry_equiv_pos_site_id
_symmetry_equiv_pos_as_xyz
1 x,y,z
2 -x,-y,-z
_cell_length_a                   12.156(3)
_cell_length_b                   13.583(3)
_cell_length_c                   13.801(3)
_cell_angle_alpha                89.852(5)
_cell_angle_beta                 77.833(4)
_cell_angle_gamma                77.133(4)
_cell_volume                     2169.28
_exptl_crystal_colour            colorless
_exptl_crystal_description       block
_cell_formula_units_Z            2
loop_
_atom_site_label
_atom_site_type_symbol
_atom_site_fract_x
_atom_site_fract_y
_atom_site_fract_z
Si1 Si 1.04519(8) 0.22837(9) 0.09033(8)
Si2 Si 0.74881(9) 0.52679(7) 0.30652(7)
O1 O 0.5548(3) 0.0814(3) 0.3243(4)
O2 O 0.7886(4) 0.3018(3) -0.0624(3)
O3 O 0.8730(3) 0.3412(3) 0.5084(3)
N1 N 0.7964(2) 0.16540(19) 0.3478(2)
N2 N 0.9142(2) 0.2042(2) 0.13817(19)
N3 N 0.6309(2) 0.2803(2) 0.18984(19)
N4 N 0.7156(2) 0.41232(19) 0.32192(19)
C1 C 0.7698(3) 0.1463(2) 0.4464(2)
C2 C 0.6654(3) 0.2002(3) 0.5054(3)
H1 H 0.6141 0.2475 0.4753
C3 C 0.6339(4) 0.1865(3) 0.6080(3)
H2 H 0.5634 0.2256 0.6461
C4 C 0.7043(4) 0.1170(3) 0.6526(3)
H3 H 0.6831 0.1069 0.7216
C5 C 0.8051(4) 0.0628(3) 0.5968(3)
H4 H 0.8546 0.0149 0.6280
C6 C 0.8380(3) 0.0746(3) 0.4973(3)
H5 H 0.9086 0.0336 0.4612
C7 C 0.9047(3) 0.1005(2) 0.2917(3)
H6 H 0.9083 0.0299 0.3111
H7 H 0.9709 0.1219 0.3097
C8 C 0.9163(3) 0.1045(2) 0.1798(3)
H8 H 0.9898 0.0580 0.1473
H9 H 0.8527 0.0787 0.1622
C9 C 1.1395(4) 0.2298(5) 0.1814(4)
H10 H 1.0955 0.2733 0.2396
H11 H 1.2068 0.2559 0.1502
H12 H 1.1654 0.1609 0.2020
C10 C 1.1375(4) 0.1325(5) -0.0074(4)
H13 H 1.1281 0.0648 0.0119
H14 H 1.2186 0.1354 -0.0148
H15 H 1.1140 0.1469 -0.0707
C11 C 1.0209(5) 0.3546(4) 0.0333(4)
H16 H 1.0065 0.3467 -0.0332
H17 H 1.0896 0.3824 0.0285
H18 H 0.9540 0.4007 0.0747
C12 C 0.5877(3) 0.2436(3) 0.1177(3)
C13 C 0.6370(3) 0.1414(3) 0.0790(3)
H19 H 0.6995 0.1021 0.1034
C14 C 0.5956(4) 0.0989(4) 0.0071(4)
H20 H 0.6288 0.0302 -0.0143
C15 C 0.5106(4) 0.1507(4) -0.0336(4)
H21 H 0.4863 0.1209 -0.0852
C16 C 0.4589(4) 0.2500(4) 0.0023(4)
H22 H 0.3965 0.2870 -0.0239
C17 C 0.4966(3) 0.2969(4) 0.0764(3)
H23 H 0.4602 0.3648 0.0985
C18 C 0.5669(3) 0.3832(3) 0.2286(3)
H24 H 0.4829 0.3868 0.2397
H25 H 0.5858 0.4325 0.1784
C19 C 0.5953(3) 0.4123(3) 0.3251(3)
H26 H 0.5481 0.4808 0.3476
H27 H 0.5712 0.3652 0.3758
C20 C 0.7163(5) 0.5912(4) 0.1922(4)
H28 H 0.7444 0.5427 0.1351
H29 H 0.7550 0.6475 0.1807
H30 H 0.6327 0.6169 0.2011
C21 C 0.6665(5) 0.6221(3) 0.4119(4)
H31 H 0.6082 0.6727 0.3882
H32 H 0.7204 0.6556 0.4350
H33 H 0.6284 0.5872 0.4667
C22 C 0.9055(4) 0.5113(4) 0.3040(4)
H34 H 0.9185 0.5024 0.3715
H35 H 0.9307 0.5716 0.2776
H36 H 0.9497 0.4518 0.2617
Li1 Li 0.6505(5) 0.1723(5) 0.2913(5)
Li2 Li 0.7917(5) 0.2482(5) 0.0656(4)
Li3 Li 0.7841(5) 0.3176(4) 0.4113(4)
Li4 Li 0.7889(4) 0.2875(4) 0.2381(4)
C23 C 0.3841(6) 0.1872(5) 0.3533(6)
H37 H 0.4248 0.2278 0.3814
H38 H 0.3044 0.2119 0.3537
C24 C 0.4347(5) 0.1023(5) 0.3162(6)
H39 H 0.4002 0.0573 0.2867
C25 C 1.0105(5) 0.2811(5) 0.4779(4)
H40 H 1.0218 0.2391 0.4164
H41 H 1.0575 0.3322 0.4618
C26 C 1.0539(6) 0.2199(5) 0.5468(5)
H42 H 0.9987 0.2327 0.6108
H43 H 1.1273 0.2343 0.5539
H44 H 1.0666 0.1489 0.5249
C27 C 0.7350(5) 0.4310(5) 0.6064(4)
H45 H 0.7041 0.4444 0.5464
H46 H 0.7072 0.4909 0.6519
H47 H 0.7091 0.3734 0.6388
C28 C 0.8526(5) 0.4094(5) 0.5814(4)
H48 H 0.8821 0.4698 0.5588
H49 H 0.8869 0.3814 0.6374
C29 C 0.8729(6) 0.1628(5) -0.1432(4)
H50 H 0.9396 0.1529 -0.1991
H51 H 0.8324 0.1081 -0.1452
H52 H 0.8992 0.1622 -0.0808
C30 C 0.7104(6) 0.4162(4) -0.0657(4)
H53 H 0.6516 0.4148 -0.1053
H54 H 0.6698 0.4420 0.0024
C31 C 0.7836(6) 0.4821(5) -0.1096(4)
H55 H 0.8574 0.4638 -0.0886
H56 H 0.7454 0.5523 -0.0879
H57 H 0.7975 0.4748 -0.1821
C32 C 0.7960(6) 0.2577(5) -0.1497(4)
H58 H 0.8288 0.2964 -0.2050
H59 H 0.7198 0.2488 -0.1581
C33 C 0.6813(6) -0.0798(5) 0.2883(6)
H60 H 0.6443 -0.0952 0.2354
H61 H 0.7161 -0.1429 0.3157
H62 H 0.7415 -0.0436 0.2612
C34 C 0.5857(5) -0.0099(5) 0.3752(6)
H63 H 0.5185 -0.0404 0.3982
H64 H 0.6189 0.0023 0.4324
loop_
_geom_bond_atom_site_label_1
_geom_bond_atom_site_label_2
_geom_bond_site_symmetry_1
_geom_bond_site_symmetry_2
Si1 N2 1_555 1_555
Si2 N4 1_555 1_555
O1 Li1 1_555 1_555
O2 Li2 1_555 1_555
O3 Li3 1_555 1_555
N1 C1 1_555 1_555
N2 C8 1_555 1_555
N3 C12 1_555 1_555
N4 C19 1_555 1_555
C1 C2 1_555 1_555
C2 H1 1_555 1_555
C3 C2 1_555 1_555
H2 C3 1_555 1_555
C4 C3 1_555 1_555
H3 C4 1_555 1_555
C5 C4 1_555 1_555
H4 C5 1_555 1_555
C6 C1 1_555 1_555
H5 C6 1_555 1_555
C7 N1 1_555 1_555
H6 C7 1_555 1_555
H7 C7 1_555 1_555
C8 C7 1_555 1_555
H8 C8 1_555 1_555
H9 C8 1_555 1_555
C9 Si1 1_555 1_555
H10 C9 1_555 1_555
H11 C9 1_555 1_555
H12 C9 1_555 1_555
C10 Si1 1_555 1_555
H13 C10 1_555 1_555
H14 C10 1_555 1_555
H15 C10 1_555 1_555
C11 Si1 1_555 1_555
H16 C11 1_555 1_555
H17 C11 1_555 1_555
H18 C11 1_555 1_555
C12 C13 1_555 1_555
C13 H19 1_555 1_555
C14 C13 1_555 1_555
H20 C14 1_555 1_555
C15 C14 1_555 1_555
H21 C15 1_555 1_555
C16 C15 1_555 1_555
H22 C16 1_555 1_555
C17 C12 1_555 1_555
H23 C17 1_555 1_555
C18 N3 1_555 1_555
H24 C18 1_555 1_555
H25 C18 1_555 1_555
C19 C18 1_555 1_555
H26 C19 1_555 1_555
H27 C19 1_555 1_555
C20 Si2 1_555 1_555
H28 C20 1_555 1_555
H29 C20 1_555 1_555
H30 C20 1_555 1_555
C21 Si2 1_555 1_555
H31 C21 1_555 1_555
H32 C21 1_555 1_555
H33 C21 1_555 1_555
C22 Si2 1_555 1_555
H34 C22 1_555 1_555
H35 C22 1_555 1_555
H36 C22 1_555 1_555
Li1 N1 1_555 1_555
Li2 N2 1_555 1_555
Li3 N1 1_555 1_555
Li4 N1 1_555 1_555
C23 H37 1_555 1_555
H38 C23 1_555 1_555
C24 O1 1_555 1_555
H39 C24 1_555 1_555
C25 O3 1_555 1_555
H40 C25 1_555 1_555
H41 C25 1_555 1_555
C26 C25 1_555 1_555
H42 C26 1_555 1_555
H43 C26 1_555 1_555
H44 C26 1_555 1_555
C27 H45 1_555 1_555
H46 C27 1_555 1_555
H47 C27 1_555 1_555
C28 O3 1_555 1_555
H48 C28 1_555 1_555
H49 C28 1_555 1_555
C29 H50 1_555 1_555
H51 C29 1_555 1_555
H52 C29 1_555 1_555
C30 O2 1_555 1_555
H53 C30 1_555 1_555
H54 C30 1_555 1_555
C31 C30 1_555 1_555
H55 C31 1_555 1_555
H56 C31 1_555 1_555
H57 C31 1_555 1_555
C32 O2 1_555 1_555
H58 C32 1_555 1_555
H59 C32 1_555 1_555
C33 H60 1_555 1_555
H61 C33 1_555 1_555
H62 C33 1_555 1_555
C34 O1 1_555 1_555
H63 C34 1_555 1_555
H64 C34 1_555 1_555
N2 Li4 1_555 1_555
N3 Li1 1_555 1_555
N3 Li2 1_555 1_555
N3 Li4 1_555 1_555
N4 Li3 1_555 1_555
N4 Li4 1_555 1_555
C5 C6 1_555 1_555
C16 C17 1_555 1_555
C23 C24 1_555 1_555
C27 C28 1_555 1_555
C29 C32 1_555 1_555
C33 C34 1_555 1_555

#END
