
#######################################################################
#
#                 Cambridge Crystallographic Data Centre
#                                CCDC 
#
#######################################################################
#
# If this CIF has been generated from an entry in the Cambridge 
# Structural Database, then it will include bibliographic, chemical, 
# crystal, experimental, refinement or atomic coordinate data resulting 
# from the CCDC's data processing and validation procedures.
#
#######################################################################

data_UCIRII
_chemical_formula_moiety         'C24 H26 N2 O4'
_chemical_name_systematic        
2,6-bis(4'-(N,N-Dimethylamino)-2'-methoxyphenyl)-1,4-benzoquinone
_symmetry_cell_setting           orthorhombic
_symmetry_space_group_name_H-M   'P 21 21 21'
_symmetry_Int_Tables_number      19
_space_group_name_Hall           'P 2ac 2ab'
loop_
_symmetry_equiv_pos_site_id
_symmetry_equiv_pos_as_xyz
1 x,y,z
2 1/2-x,-y,1/2+z
3 -x,1/2+y,1/2-z
4 1/2+x,1/2-y,-z
_cell_length_a                   9.2670(19)
_cell_length_b                   14.627(3)
_cell_length_c                   15.143(3)
_cell_angle_alpha                90
_cell_angle_beta                 90
_cell_angle_gamma                90
_cell_volume                     2052.61
_exptl_crystal_colour            'dark blue'
_exptl_crystal_description       needle
_chemical_melting_point          '454-455 K'
_cell_formula_units_Z            4
loop_
_atom_site_label
_atom_site_type_symbol
_atom_site_fract_x
_atom_site_fract_y
_atom_site_fract_z
O1 O 0.2809(4) 0.0107(3) 0.3164(3)
O2 O -0.3162(4) -0.0490(2) 0.2179(2)
O3 O 0.0574(4) 0.0390(2) 0.4552(3)
O4 O -0.3168(4) 0.2358(3) 0.3586(3)
N1 N 0.5133(5) -0.2778(3) 0.3815(4)
N2 N 0.0215(5) 0.4683(3) 0.4471(3)
C1 C 0.5029(6) -0.3702(3) 0.4185(4)
H1 H 0.4032 -0.3861 0.4262
H2 H 0.5510 -0.3720 0.4746
H3 H 0.5477 -0.4130 0.3790
C2 C 0.6557(6) -0.2413(4) 0.3637(4)
H4 H 0.6469 -0.1807 0.3399
H5 H 0.7042 -0.2798 0.3218
H6 H 0.7102 -0.2391 0.4175
C3 C 0.3940(6) -0.2236(4) 0.3735(4)
C4 C 0.2555(6) -0.2624(4) 0.3845(4)
H7 H 0.2458 -0.3236 0.4000
C5 C 0.1366(7) -0.2098(4) 0.3724(4)
H8 H 0.0463 -0.2370 0.3771
C6 C 0.1440(6) -0.1161(4) 0.3532(4)
C7 C 0.2798(6) -0.0793(4) 0.3419(4)
C8 C 0.4040(6) -0.1305(4) 0.3525(4)
H9 H 0.4939 -0.1032 0.3458
C9 C 0.4130(6) 0.0604(4) 0.3180(4)
H10 H 0.3962 0.1219 0.2986
H11 H 0.4814 0.0315 0.2795
H12 H 0.4504 0.0611 0.3771
C10 C 0.0146(6) -0.0598(4) 0.3355(4)
C11 C -0.0935(6) -0.0856(4) 0.2830(4)
H13 H -0.0929 -0.1440 0.2588
C12 C -0.2144(7) -0.0232(4) 0.2623(3)
C13 C -0.1996(6) 0.0727(4) 0.2888(4)
H14 H -0.2646 0.1153 0.2666
C14 C -0.0944(6) 0.1013(4) 0.3445(4)
C15 C 0.0035(6) 0.0300(4) 0.3842(4)
C16 C -0.0701(7) 0.1970(4) 0.3723(4)
C17 C -0.1801(7) 0.2628(4) 0.3776(4)
C18 C -0.1492(6) 0.3523(4) 0.4026(4)
H15 H -0.2231 0.3952 0.4053
C19 C -0.0045(7) 0.3791(4) 0.4241(4)
C20 C 0.1021(6) 0.3133(4) 0.4218(4)
H16 H 0.1962 0.3284 0.4372
C21 C 0.0691(6) 0.2253(4) 0.3966(4)
H17 H 0.1430 0.1823 0.3956
C22 C -0.4322(6) 0.3009(4) 0.3682(4)
H18 H -0.5220 0.2725 0.3524
H19 H -0.4150 0.3522 0.3301
H20 H -0.4367 0.3213 0.4284
C23 C -0.0808(6) 0.5392(4) 0.4290(4)
H21 H -0.1685 0.5127 0.4069
H22 H -0.0418 0.5802 0.3856
H23 H -0.1009 0.5724 0.4823
C24 C 0.1647(6) 0.4928(4) 0.4813(3)
H24 H 0.2206 0.4383 0.4901
H25 H 0.1542 0.5244 0.5365
H26 H 0.2129 0.5317 0.4397
loop_
_geom_bond_atom_site_label_1
_geom_bond_atom_site_label_2
_geom_bond_site_symmetry_1
_geom_bond_site_symmetry_2
O1 C7 1_555 1_555
O2 C12 1_555 1_555
O3 C15 1_555 1_555
O4 C17 1_555 1_555
N1 C1 1_555 1_555
N2 C19 1_555 1_555
C1 H1 1_555 1_555
H2 C1 1_555 1_555
H3 C1 1_555 1_555
C2 N1 1_555 1_555
H4 C2 1_555 1_555
H5 C2 1_555 1_555
H6 C2 1_555 1_555
C3 N1 1_555 1_555
C4 C3 1_555 1_555
H7 C4 1_555 1_555
C5 C4 1_555 1_555
H8 C5 1_555 1_555
C6 C5 1_555 1_555
C7 C6 1_555 1_555
C8 C3 1_555 1_555
H9 C8 1_555 1_555
C9 O1 1_555 1_555
H10 C9 1_555 1_555
H11 C9 1_555 1_555
H12 C9 1_555 1_555
C10 C6 1_555 1_555
C11 C10 1_555 1_555
H13 C11 1_555 1_555
C12 C11 1_555 1_555
C13 C12 1_555 1_555
H14 C13 1_555 1_555
C14 C13 1_555 1_555
C15 C10 1_555 1_555
C16 C14 1_555 1_555
C17 C16 1_555 1_555
C18 C17 1_555 1_555
H15 C18 1_555 1_555
C19 C18 1_555 1_555
C20 C19 1_555 1_555
H16 C20 1_555 1_555
C21 C16 1_555 1_555
H17 C21 1_555 1_555
C22 O4 1_555 1_555
H18 C22 1_555 1_555
H19 C22 1_555 1_555
H20 C22 1_555 1_555
C23 N2 1_555 1_555
H21 C23 1_555 1_555
H22 C23 1_555 1_555
H23 C23 1_555 1_555
C24 N2 1_555 1_555
H24 C24 1_555 1_555
H25 C24 1_555 1_555
H26 C24 1_555 1_555
C7 C8 1_555 1_555
C14 C15 1_555 1_555
C20 C21 1_555 1_555

#END
