
#######################################################################
#
#                 Cambridge Crystallographic Data Centre
#                                CCDC 
#
#######################################################################
#
# If this CIF has been generated from an entry in the Cambridge 
# Structural Database, then it will include bibliographic, chemical, 
# crystal, experimental, refinement or atomic coordinate data resulting 
# from the CCDC's data processing and validation procedures.
#
#######################################################################

data_UCIROO
_chemical_formula_moiety         'C15 H15 N1 O3'
_chemical_name_systematic        
2-Methoxy-5-(4-(N,N-dimethylamino)phenyl)-1,4-benzoquinone
_symmetry_cell_setting           monoclinic
_symmetry_space_group_name_H-M   'P 21/c'
_symmetry_Int_Tables_number      14
_space_group_name_Hall           '-P 2ybc'
loop_
_symmetry_equiv_pos_site_id
_symmetry_equiv_pos_as_xyz
1 x,y,z
2 -x,1/2+y,1/2-z
3 -x,-y,-z
4 x,1/2-y,1/2+z
_cell_length_a                   11.714(2)
_cell_length_b                   6.5339(13)
_cell_length_c                   16.581(3)
_cell_angle_alpha                90
_cell_angle_beta                 91.51(3)
_cell_angle_gamma                90
_cell_volume                     1268.64
_exptl_crystal_colour            'dark blue'
_exptl_crystal_description       'thin platelet'
_chemical_melting_point          '513-514 K'
_cell_formula_units_Z            4
loop_
_atom_site_label
_atom_site_type_symbol
_atom_site_fract_x
_atom_site_fract_y
_atom_site_fract_z
O1 O 0.46319(14) 0.0382(2) 0.33934(9)
O2 O 0.44647(17) 0.3990(2) 0.40657(10)
O3 O 0.23202(16) -0.2122(3) 0.54414(11)
N1 N 0.1036(2) 0.2735(4) 0.86339(13)
C1 C 0.4624(2) -0.1517(4) 0.29600(15)
H1 H 0.5058 -0.1373 0.2480
H2 H 0.3851 -0.1881 0.2815
H3 H 0.4956 -0.2570 0.3295
C2 C 0.40676(18) 0.0451(3) 0.40763(12)
C3 C 0.40474(19) 0.2563(3) 0.44213(13)
C4 C 0.35169(19) 0.2817(3) 0.51964(13)
H4 H 0.3544 0.4103 0.5437
C5 C 0.29886(17) 0.1296(3) 0.55857(13)
C6 C 0.29212(19) -0.0758(3) 0.51807(13)
C7 C 0.35567(19) -0.1084(3) 0.44469(13)
H5 H 0.3605 -0.2397 0.4234
C8 C 0.24565(18) 0.1609(3) 0.63705(12)
C9 C 0.2039(2) 0.3526(4) 0.65776(14)
H6 H 0.2081 0.4590 0.6207
C10 C 0.1565(2) 0.3899(4) 0.73113(14)
H7 H 0.1277 0.5193 0.7421
C11 C 0.1509(2) 0.2369(4) 0.78942(14)
C12 C 0.1938(2) 0.0449(4) 0.76933(14)
H8 H 0.1915 -0.0606 0.8069
C13 C 0.2393(2) 0.0085(4) 0.69530(14)
H9 H 0.2667 -0.1216 0.6838
C14 C 0.0568(3) 0.4705(5) 0.88195(16)
H10 H 0.0769 0.5667 0.8409
H11 H 0.0871 0.5160 0.9332
H12 H -0.0248 0.4605 0.8841
C15 C 0.0823(3) 0.1088(5) 0.91843(16)
H13 H 0.1177 -0.0140 0.8995
H14 H 0.0014 0.0874 0.9217
H15 H 0.1133 0.1428 0.9709
loop_
_geom_bond_atom_site_label_1
_geom_bond_atom_site_label_2
_geom_bond_site_symmetry_1
_geom_bond_site_symmetry_2
O1 C1 1_555 1_555
O2 C3 1_555 1_555
O3 C6 1_555 1_555
N1 C11 1_555 1_555
C1 H1 1_555 1_555
H2 C1 1_555 1_555
H3 C1 1_555 1_555
C2 O1 1_555 1_555
C3 C2 1_555 1_555
C4 C3 1_555 1_555
H4 C4 1_555 1_555
C5 C4 1_555 1_555
C6 C5 1_555 1_555
C7 C2 1_555 1_555
H5 C7 1_555 1_555
C8 C5 1_555 1_555
C9 C8 1_555 1_555
H6 C9 1_555 1_555
C10 C9 1_555 1_555
H7 C10 1_555 1_555
C11 C10 1_555 1_555
C12 C11 1_555 1_555
H8 C12 1_555 1_555
C13 C8 1_555 1_555
H9 C13 1_555 1_555
C14 N1 1_555 1_555
H10 C14 1_555 1_555
H11 C14 1_555 1_555
H12 C14 1_555 1_555
C15 N1 1_555 1_555
H13 C15 1_555 1_555
H14 C15 1_555 1_555
H15 C15 1_555 1_555
C6 C7 1_555 1_555
C12 C13 1_555 1_555

#END
