
#######################################################################
#
#                 Cambridge Crystallographic Data Centre
#                                CCDC 
#
#######################################################################
#
# If this CIF has been generated from an entry in the Cambridge 
# Structural Database, then it will include bibliographic, chemical, 
# crystal, experimental, refinement or atomic coordinate data resulting 
# from the CCDC's data processing and validation procedures.
#
#######################################################################

data_UCITUX
_chemical_formula_moiety         'C15 H18 N4 O2 S1,2(C2 H6 O1 S1)'
_chemical_name_systematic        
'2-((7-(Diethylamino)-2-oxo-2H-chromen-3-yl)methylene)hydrazinecarbothioamide dimethyl sulfoxide solvate'
_symmetry_cell_setting           triclinic
_symmetry_space_group_name_H-M   'P -1'
_symmetry_Int_Tables_number      2
_space_group_name_Hall           '-P 1'
loop_
_symmetry_equiv_pos_site_id
_symmetry_equiv_pos_as_xyz
1 x,y,z
2 -x,-y,-z
_cell_length_a                   7.1206(14)
_cell_length_b                   12.751(3)
_cell_length_c                   14.523(3)
_cell_angle_alpha                107.73(3)
_cell_angle_beta                 99.35(3)
_cell_angle_gamma                99.80(3)
_cell_volume                     1204.96
_exptl_crystal_colour            orange
_exptl_crystal_description       plate
_cell_formula_units_Z            2
loop_
_atom_site_label
_atom_site_type_symbol
_atom_site_fract_x
_atom_site_fract_y
_atom_site_fract_z
S1 S 0.12921(12) 0.38002(7) 0.30746(7)
O1 O -0.7619(3) -0.22937(17) -0.00330(15)
O2 O -0.7931(3) -0.06397(19) 0.08702(17)
N1 N -0.7427(4) -0.5988(2) -0.1997(2)
N2 N -0.2033(3) 0.0800(2) 0.15460(18)
N3 N -0.1400(3) 0.1922(2) 0.21209(18)
H1 H -0.2218 0.2296 0.2351
N4 N 0.1682(4) 0.1832(2) 0.1917(2)
H2 H 0.1222 0.1137 0.1538
H3 H 0.2909 0.2135 0.2032
C1 C -0.5764(8) -0.7002(4) -0.3241(3)
H4 H -0.5081 -0.7598 -0.3392
H5 H -0.4918 -0.6301 -0.3180
H6 H -0.6904 -0.7174 -0.3765
C2 C -0.6378(6) -0.6897(3) -0.2276(3)
H7 H -0.7219 -0.7610 -0.2338
H8 H -0.5226 -0.6743 -0.1753
C3 C -1.0493(6) -0.6719(3) -0.1571(3)
H9 H -1.1889 -0.6939 -0.1816
H10 H -1.0166 -0.6112 -0.0945
H11 H -1.0024 -0.7354 -0.1487
C4 C -0.9550(5) -0.6329(3) -0.2306(3)
H12 H -0.9922 -0.6938 -0.2943
H13 H -1.0046 -0.5694 -0.2395
C5 C -0.6466(5) -0.4914(3) -0.1406(2)
C6 C -0.4406(5) -0.4561(3) -0.1188(2)
H14 H -0.3683 -0.5081 -0.1434
C7 C -0.3457(5) -0.3481(3) -0.0628(2)
H15 H -0.2101 -0.3274 -0.0515
C8 C -0.4472(4) -0.2666(2) -0.0211(2)
C9 C -0.6508(4) -0.3033(2) -0.0424(2)
C10 C -0.7517(5) -0.4107(3) -0.1004(2)
H16 H -0.8877 -0.4304 -0.1131
C11 C -0.3604(4) -0.1535(3) 0.0378(2)
H17 H -0.2252 -0.1279 0.0506
C12 C -0.4692(4) -0.0800(2) 0.0767(2)
C13 C -0.6809(4) -0.1187(2) 0.0567(2)
C14 C -0.3860(4) 0.0375(2) 0.1367(2)
H18 H -0.4674 0.0829 0.1627
C15 C 0.0503(4) 0.2432(2) 0.2322(2)
S2 S -1.40900(12) 0.33353(7) 0.41651(6)
O3 O -1.4295(3) 0.25009(18) 0.31485(17)
C16 C -1.3239(5) 0.4683(3) 0.4076(3)
H19 H -1.4273 0.4867 0.3686
H20 H -1.2149 0.4667 0.3764
H21 H -1.2834 0.5244 0.4729
C17 C -1.1901(6) 0.3248(3) 0.4903(3)
H22 H -1.2116 0.2545 0.5029
H23 H -1.1542 0.3867 0.5523
H24 H -1.0867 0.3284 0.4556
S3 S -0.7504(3) 0.00837(15) 0.43037(14)
C18 C -0.958(2) 0.037(3) 0.3623(18)
H25 H -1.0538 0.0480 0.4015
H26 H -1.0138 -0.0250 0.3015
H27 H -0.9164 0.1050 0.3474
O4 O -0.855(3) -0.1102(7) 0.4159(12)
C19 C -0.6126(10) -0.0051(5) 0.3389(4)
H28 H -0.4895 -0.0195 0.3636
H29 H -0.5893 0.0645 0.3251
H30 H -0.6830 -0.0660 0.2802
C20? C -0.889(4) 0.0921(15) 0.407(2)
H31? H -0.5672 -0.0714 0.3111
H32? H -0.6140 0.0388 0.2959
H33? H -0.5262 0.0402 0.4026
H34? H -1.0178 0.0849 0.4200
H35? H -0.8790 0.1320 0.3610
H36? H -0.7935 0.1332 0.4679
O5? O -0.795(4) -0.091(2) 0.450(2)
S4? S -0.8472(12) -0.0434(5) 0.3559(6)
loop_
_geom_bond_atom_site_label_1
_geom_bond_atom_site_label_2
_geom_bond_site_symmetry_1
_geom_bond_site_symmetry_2
S1 C15 1_555 1_555
O1 C9 1_555 1_555
O2 C13 1_555 1_555
N1 C2 1_555 1_555
N2 N3 1_555 1_555
N3 H1 1_555 1_555
N4 H2 1_555 1_555
H3 N4 1_555 1_555
C1 H4 1_555 1_555
H5 C1 1_555 1_555
H6 C1 1_555 1_555
C2 C1 1_555 1_555
H7 C2 1_555 1_555
H8 C2 1_555 1_555
C3 H9 1_555 1_555
H10 C3 1_555 1_555
H11 C3 1_555 1_555
C4 N1 1_555 1_555
H12 C4 1_555 1_555
H13 C4 1_555 1_555
C5 N1 1_555 1_555
C6 C5 1_555 1_555
H14 C6 1_555 1_555
C7 C6 1_555 1_555
H15 C7 1_555 1_555
C8 C7 1_555 1_555
C9 C8 1_555 1_555
C10 C5 1_555 1_555
H16 C10 1_555 1_555
C11 C8 1_555 1_555
H17 C11 1_555 1_555
C12 C11 1_555 1_555
C13 O1 1_555 1_555
C14 N2 1_555 1_555
H18 C14 1_555 1_555
C15 N3 1_555 1_555
S2 O3 1_555 1_555
C16 S2 1_555 1_555
H19 C16 1_555 1_555
H20 C16 1_555 1_555
H21 C16 1_555 1_555
C17 S2 1_555 1_555
H22 C17 1_555 1_555
H23 C17 1_555 1_555
H24 C17 1_555 1_555
S3 C18 1_555 1_555
C18 H25 1_555 1_555
H26 C18 1_555 1_555
H27 C18 1_555 1_555
O4 S3 1_555 1_555
C19 S3 1_555 1_555
H28 C19 1_555 1_555
H29 C19 1_555 1_555
H30 C19 1_555 1_555
N4 C15 1_555 1_555
C3 C4 1_555 1_555
C9 C10 1_555 1_555
C12 C13 1_555 1_555
C12 C14 1_555 1_555

#END
