
#######################################################################
#
#                 Cambridge Crystallographic Data Centre
#                                CCDC 
#
#######################################################################
#
# If this CIF has been generated from an entry in the Cambridge 
# Structural Database, then it will include bibliographic, chemical, 
# crystal, experimental, refinement or atomic coordinate data resulting 
# from the CCDC's data processing and validation procedures.
#
#######################################################################

data_UCITOQ
_chemical_formula_moiety         'C34 H72 Li2 N6 O2'
_chemical_name_systematic        
bis(\m~2~-N,N,N',N''-Tetra-isopropylguanidinato-N',N',N'')-bis(tetrahydrofuran)-di-lithium
_symmetry_cell_setting           monoclinic
_symmetry_space_group_name_H-M   'P 21/n'
_symmetry_Int_Tables_number      14
_space_group_name_Hall           '-P 2yn'
loop_
_symmetry_equiv_pos_site_id
_symmetry_equiv_pos_as_xyz
1 x,y,z
2 1/2-x,1/2+y,1/2-z
3 -x,-y,-z
4 1/2+x,1/2-y,1/2+z
_cell_length_a                   9.654(4)
_cell_length_b                   13.507(6)
_cell_length_c                   15.191(6)
_cell_angle_alpha                90
_cell_angle_beta                 95.693(7)
_cell_angle_gamma                90
_cell_volume                     1971.08
_exptl_crystal_colour            colorless
_exptl_crystal_description       prism
_cell_formula_units_Z            2
loop_
_atom_site_label
_atom_site_type_symbol
_atom_site_fract_x
_atom_site_fract_y
_atom_site_fract_z
O1 O 0.5889(2) 0.70726(13) 0.50288(13)
N1 N 0.64274(18) 0.52727(14) 0.64682(11)
N2 N 0.41519(17) 0.51092(13) 0.59433(11)
N3 N 0.47231(19) 0.52237(14) 0.75249(11)
C1 C 0.5116(2) 0.51981(15) 0.66382(13)
C2 C 0.7577(2) 0.50919(19) 0.71509(14)
H1 H 0.7211 0.5062 0.7729
C3 C 0.8630(3) 0.5936(2) 0.71545(19)
H2 H 0.8917 0.6016 0.6571
H3 H 0.9427 0.5784 0.7562
H4 H 0.8210 0.6538 0.7333
C4 C 0.8293(3) 0.4115(2) 0.69812(17)
H5 H 0.7634 0.3583 0.6990
H6 H 0.9046 0.4008 0.7433
H7 H 0.8649 0.4137 0.6414
C5 C 0.2708(2) 0.54090(18) 0.60323(14)
H8 H 0.2597 0.5508 0.6661
C6 C 0.2388(3) 0.6382(2) 0.55407(18)
H9 H 0.2925 0.6906 0.5834
H10 H 0.1414 0.6530 0.5536
H11 H 0.2623 0.6322 0.4944
C7 C 0.1700(3) 0.4606(2) 0.56692(19)
H12 H 0.1783 0.4515 0.5050
H13 H 0.0765 0.4801 0.5751
H14 H 0.1916 0.3997 0.5978
C8 C 0.5098(3) 0.6111(2) 0.80552(16)
H15 H 0.5855 0.6428 0.7775
C9 C 0.3942(4) 0.6880(3) 0.8036(2)
H16 H 0.3637 0.7047 0.7433
H17 H 0.4286 0.7463 0.8346
H18 H 0.3175 0.6614 0.8316
C10 C 0.5681(4) 0.5910(3) 0.90113(18)
H19 H 0.4964 0.5630 0.9330
H20 H 0.5999 0.6519 0.9287
H21 H 0.6444 0.5454 0.9018
C11 C 0.3949(3) 0.4357(2) 0.78039(16)
H22 H 0.3565 0.4032 0.7256
C12 C 0.2702(3) 0.4582(3) 0.8317(2)
H23 H 0.3024 0.4850 0.8887
H24 H 0.2191 0.3984 0.8394
H25 H 0.2107 0.5055 0.7995
C13 C 0.4890(4) 0.3592(2) 0.8299(2)
H26 H 0.5678 0.3465 0.7977
H27 H 0.4380 0.2989 0.8355
H28 H 0.5205 0.3840 0.8877
C14 C 0.5242(4) 0.7588(2) 0.42740(18)
H29 H 0.4383 0.7265 0.4048
H30 H 0.5857 0.7618 0.3807
C15 C 0.4962(6) 0.8600(3) 0.4607(3)
H31 H 0.5076 0.9093 0.4155
H32 H 0.4021 0.8644 0.4777
C16 C 0.5982(7) 0.8755(3) 0.5377(3)
H33 H 0.5568 0.9116 0.5836
H34 H 0.6779 0.9123 0.5211
C17 C 0.6399(6) 0.7753(2) 0.5684(3)
H35 H 0.7405 0.7709 0.5782
H36 H 0.6016 0.7609 0.6236
Li1 Li 0.5814(4) 0.5671(3) 0.5223(2)
O1B O 0.4111(2) 0.29274(13) 0.49712(13)
N1B N 0.35726(18) 0.47273(14) 0.35318(11)
N2B N 0.58481(17) 0.48908(13) 0.40567(11)
N3B N 0.52769(19) 0.47763(14) 0.24751(11)
C1B C 0.4884(2) 0.48019(15) 0.33618(13)
C2B C 0.2423(2) 0.49081(19) 0.28491(14)
H1B H 0.2789 0.4938 0.2271
C3B C 0.1370(3) 0.4064(2) 0.28455(19)
H2B H 0.1083 0.3984 0.3429
H3B H 0.0573 0.4216 0.2438
H4B H 0.1790 0.3462 0.2667
C4B C 0.1707(3) 0.5885(2) 0.30188(17)
H5B H 0.2366 0.6417 0.3010
H6B H 0.0954 0.5992 0.2567
H7B H 0.1351 0.5863 0.3586
C5B C 0.7292(2) 0.45910(18) 0.39677(14)
H8B H 0.7403 0.4492 0.3339
C6B C 0.7612(3) 0.3618(2) 0.44593(18)
H9B H 0.7075 0.3094 0.4166
H10B H 0.8586 0.3470 0.4464
H11B H 0.7377 0.3678 0.5056
C7B C 0.8300(3) 0.5394(2) 0.43308(19)
H12B H 0.8217 0.5485 0.4950
H13B H 0.9235 0.5199 0.4249
H14B H 0.8084 0.6003 0.4022
C8B C 0.4902(3) 0.3889(2) 0.19448(16)
H15B H 0.4145 0.3572 0.2225
C9B C 0.6058(4) 0.3120(3) 0.1964(2)
H16B H 0.6363 0.2953 0.2567
H17B H 0.5714 0.2537 0.1654
H18B H 0.6825 0.3386 0.1684
C10B C 0.4319(4) 0.4090(3) 0.09887(18)
H19B H 0.5036 0.4370 0.0670
H20B H 0.4001 0.3481 0.0713
H21B H 0.3556 0.4546 0.0982
C11B C 0.6051(3) 0.5643(2) 0.21961(16)
H22B H 0.6435 0.5968 0.2744
C12B C 0.7298(3) 0.5418(3) 0.1683(2)
H23B H 0.6976 0.5150 0.1113
H24B H 0.7809 0.6016 0.1606
H25B H 0.7893 0.4945 0.2005
C13B C 0.5110(4) 0.6408(2) 0.1701(2)
H26B H 0.4322 0.6535 0.2023
H27B H 0.5620 0.7011 0.1645
H28B H 0.4795 0.6160 0.1123
C14B C 0.4758(4) 0.2412(2) 0.57260(18)
H29B H 0.5617 0.2735 0.5952
H30B H 0.4143 0.2382 0.6193
C15B C 0.5038(6) 0.1400(3) 0.5393(3)
H31B H 0.4924 0.0907 0.5845
H32B H 0.5979 0.1356 0.5223
C16B C 0.4018(7) 0.1245(3) 0.4623(3)
H33B H 0.4432 0.0884 0.4164
H34B H 0.3221 0.0877 0.4789
C17B C 0.3601(6) 0.2247(2) 0.4316(3)
H35B H 0.2595 0.2291 0.4218
H36B H 0.3984 0.2391 0.3764
Li1B Li 0.4186(4) 0.4329(3) 0.4777(2)
loop_
_geom_bond_atom_site_label_1
_geom_bond_atom_site_label_2
_geom_bond_site_symmetry_1
_geom_bond_site_symmetry_2
O1 C14 1_555 1_555
N1 C1 1_555 1_555
N2 C1 1_555 1_555
N3 C1 1_555 1_555
C2 N1 1_555 1_555
H1 C2 1_555 1_555
C3 C2 1_555 1_555
H2 C3 1_555 1_555
H3 C3 1_555 1_555
H4 C3 1_555 1_555
C4 C2 1_555 1_555
H5 C4 1_555 1_555
H6 C4 1_555 1_555
H7 C4 1_555 1_555
C5 N2 1_555 1_555
H8 C5 1_555 1_555
C6 C5 1_555 1_555
H9 C6 1_555 1_555
H10 C6 1_555 1_555
H11 C6 1_555 1_555
C7 C5 1_555 1_555
H12 C7 1_555 1_555
H13 C7 1_555 1_555
H14 C7 1_555 1_555
C8 N3 1_555 1_555
H15 C8 1_555 1_555
C9 C8 1_555 1_555
H16 C9 1_555 1_555
H17 C9 1_555 1_555
H18 C9 1_555 1_555
C10 C8 1_555 1_555
H19 C10 1_555 1_555
H20 C10 1_555 1_555
H21 C10 1_555 1_555
C11 N3 1_555 1_555
H22 C11 1_555 1_555
C12 C11 1_555 1_555
H23 C12 1_555 1_555
H24 C12 1_555 1_555
H25 C12 1_555 1_555
C13 C11 1_555 1_555
H26 C13 1_555 1_555
H27 C13 1_555 1_555
H28 C13 1_555 1_555
C14 H29 1_555 1_555
H30 C14 1_555 1_555
C15 C14 1_555 1_555
H31 C15 1_555 1_555
H32 C15 1_555 1_555
C16 C15 1_555 1_555
H33 C16 1_555 1_555
H34 C16 1_555 1_555
C17 O1 1_555 1_555
H35 C17 1_555 1_555
H36 C17 1_555 1_555
Li1 O1 1_555 1_555
O1B C14B 1_555 1_555
N1B C1B 1_555 1_555
N2B Li1 1_555 1_555
N3B C1B 1_555 1_555
C1B N2B 1_555 1_555
C2B N1B 1_555 1_555
H1B C2B 1_555 1_555
C3B C2B 1_555 1_555
H2B C3B 1_555 1_555
H3B C3B 1_555 1_555
H4B C3B 1_555 1_555
C4B C2B 1_555 1_555
H5B C4B 1_555 1_555
H6B C4B 1_555 1_555
H7B C4B 1_555 1_555
C5B N2B 1_555 1_555
H8B C5B 1_555 1_555
C6B C5B 1_555 1_555
H9B C6B 1_555 1_555
H10B C6B 1_555 1_555
H11B C6B 1_555 1_555
C7B C5B 1_555 1_555
H12B C7B 1_555 1_555
H13B C7B 1_555 1_555
H14B C7B 1_555 1_555
C8B N3B 1_555 1_555
H15B C8B 1_555 1_555
C9B C8B 1_555 1_555
H16B C9B 1_555 1_555
H17B C9B 1_555 1_555
H18B C9B 1_555 1_555
C10B C8B 1_555 1_555
H19B C10B 1_555 1_555
H20B C10B 1_555 1_555
H21B C10B 1_555 1_555
C11B N3B 1_555 1_555
H22B C11B 1_555 1_555
C12B C11B 1_555 1_555
H23B C12B 1_555 1_555
H24B C12B 1_555 1_555
H25B C12B 1_555 1_555
C13B C11B 1_555 1_555
H26B C13B 1_555 1_555
H27B C13B 1_555 1_555
H28B C13B 1_555 1_555
C14B H29B 1_555 1_555
H30B C14B 1_555 1_555
C15B C14B 1_555 1_555
H31B C15B 1_555 1_555
H32B C15B 1_555 1_555
C16B C15B 1_555 1_555
H33B C16B 1_555 1_555
H34B C16B 1_555 1_555
C17B O1B 1_555 1_555
H35B C17B 1_555 1_555
H36B C17B 1_555 1_555
Li1B N2 1_555 1_555
N1 Li1 1_555 1_555
N2 Li1 1_555 1_555
C16 C17 1_555 1_555
O1B Li1B 1_555 1_555
N1B Li1B 1_555 1_555
N2B Li1B 1_555 1_555
C16B C17B 1_555 1_555

#END
