
#######################################################################
#
#                 Cambridge Crystallographic Data Centre
#                                CCDC 
#
#######################################################################
#
# If this CIF has been generated from an entry in the Cambridge 
# Structural Database, then it will include bibliographic, chemical, 
# crystal, experimental, refinement or atomic coordinate data resulting 
# from the CCDC's data processing and validation procedures.
#
#######################################################################

data_UCIVIO
_chemical_formula_moiety         'C62 H54 S2'
_chemical_name_systematic        
8,16-bis((3,5-di-t-butylphenyl)ethynyl)acenaphtho[1,2-b]acenaphtho[1',2':4,5]thieno[2,3-f][1]benzothiophene
_symmetry_cell_setting           monoclinic
_symmetry_space_group_name_H-M   'C 2/c'
_symmetry_Int_Tables_number      15
_space_group_name_Hall           '-C 2yn'
loop_
_symmetry_equiv_pos_site_id
_symmetry_equiv_pos_as_xyz
1 x,y,z
2 -x,y,1/2-z
3 1/2+x,1/2+y,z
4 1/2-x,1/2+y,1/2-z
5 -x,-y,-z
6 x,-y,1/2+z
7 1/2-x,1/2-y,-z
8 1/2+x,1/2-y,1/2+z
_cell_length_a                   41.379(8)
_cell_length_b                   6.0824(12)
_cell_length_c                   20.059(4)
_cell_angle_alpha                90
_cell_angle_beta                 106.27(3)
_cell_angle_gamma                90
_cell_volume                     4846.34
_exptl_crystal_colour            red
_exptl_crystal_description       column
_cell_formula_units_Z            4
loop_
_atom_site_label
_atom_site_type_symbol
_atom_site_fract_x
_atom_site_fract_y
_atom_site_fract_z
S1 S 0.179936(10) 0.37940(8) 0.01530(2)
C1 C 0.22211(4) 0.1126(3) -0.03391(8)
C2 C 0.25455(4) 0.0599(3) -0.03874(8)
C3 C 0.26661(4) -0.1132(3) -0.07358(8)
C4 C 0.25445(4) -0.3111(3) -0.11624(8)
C5 C 0.22468(5) -0.4228(3) -0.14101(9)
H1 H 0.2051 -0.3721 -0.1320
C6 C 0.22418(6) -0.6169(3) -0.18067(10)
H2 H 0.2039 -0.6921 -0.1972
C7 C 0.25221(6) -0.6979(4) -0.19550(10)
H3 H 0.2508 -0.8261 -0.2214
C8 C 0.28327(6) -0.5868(3) -0.17138(10)
C9 C 0.28325(5) -0.3982(3) -0.13226(9)
C10 C 0.31460(6) -0.6440(4) -0.18282(12)
H4 H 0.3161 -0.7685 -0.2087
C11 C 0.34244(6) -0.5185(4) -0.15625(13)
H5 H 0.3625 -0.5591 -0.1652
C12 C 0.21858(4) 0.2976(3) 0.00442(8)
C13 C 0.19921(4) 0.5955(3) 0.06590(9)
C14 C 0.18771(5) 0.7709(3) 0.10320(9)
C15 C 0.15789(5) 0.8291(4) 0.11565(12)
H6 H 0.1385 0.7463 0.0979
C16 C 0.19228(4) -0.0096(3) -0.06572(9)
C17 C 0.16496(4) -0.0869(3) -0.08744(10)
C18 C 0.13150(4) -0.1759(3) -0.11058(10)
C19 C 0.10844(5) -0.1190(3) -0.07449(10)
H7 H 0.1152 -0.0283 -0.0357
C20 C 0.07571(5) -0.1952(4) -0.09533(11)
C21 C 0.06676(4) -0.3325(4) -0.15333(11)
H8 H 0.0448 -0.3853 -0.1678
C22 C 0.08907(4) -0.3941(3) -0.19048(10)
C23 C 0.12179(4) -0.3130(3) -0.16803(10)
H9 H 0.1373 -0.3511 -0.1918
C24 C 0.04948(5) -0.1322(4) -0.05760(13)
C25 C 0.03531(11) -0.3318(6) -0.0332(2)
H10 H 0.0190 -0.2886 -0.0098
H11 H 0.0531 -0.4124 -0.0016
H12 H 0.0247 -0.4229 -0.0722
C26 C 0.06420(8) 0.0170(8) 0.0048(2)
H13 H 0.0471 0.0515 0.0270
H14 H 0.0723 0.1503 -0.0106
H15 H 0.0825 -0.0570 0.0371
C27 C 0.02101(8) -0.0054(7) -0.10711(19)
H16 H 0.0045 0.0332 -0.0838
H17 H 0.0108 -0.0952 -0.1467
H18 H 0.0298 0.1260 -0.1220
C28 C 0.07842(5) -0.5408(4) -0.25516(11)
C29 C 0.04126(13) -0.6040(14) -0.2738(3)
H19 H 0.0279 -0.4861 -0.2991
H20 H 0.0349 -0.6314 -0.2320
H21 H 0.0376 -0.7343 -0.3019
C30 C 0.0841(2) -0.4193(14) -0.3166(3)
H22 H 0.0972 -0.2893 -0.3007
H23 H 0.0628 -0.3788 -0.3479
H24 H 0.0960 -0.5127 -0.3403
C31 C 0.0989(2) -0.7482(11) -0.2407(4)
H25 H 0.1213 -0.7185 -0.2430
H26 H 0.0887 -0.8575 -0.2746
H27 H 0.0997 -0.8012 -0.1952
S1F S 0.320064(10) 0.12060(8) -0.01530(2)
C1F C 0.27789(4) 0.3874(3) 0.03391(8)
C2F C 0.24545(4) 0.4401(3) 0.03874(8)
C3F C 0.23339(4) 0.6132(3) 0.07358(8)
C4F C 0.24555(4) 0.8111(3) 0.11624(8)
C5F C 0.27532(5) 0.9228(3) 0.14101(9)
H1F H 0.2949 0.8721 0.1320
C6F C 0.27582(6) 1.1169(3) 0.18067(10)
H2F H 0.2961 1.1921 0.1972
C7F C 0.24779(6) 1.1979(4) 0.19550(10)
H3F H 0.2492 1.3261 0.2214
C8F C 0.21673(6) 1.0868(3) 0.17138(10)
C9F C 0.21675(5) 0.8982(3) 0.13226(9)
C10F C 0.18540(6) 1.1440(4) 0.18282(12)
H4F H 0.1839 1.2685 0.2087
C11F C 0.15756(6) 1.0185(4) 0.15625(13)
H5F H 0.1375 1.0591 0.1652
C12F C 0.28142(4) 0.2024(3) -0.00442(8)
C13F C 0.30079(4) -0.0955(3) -0.06590(9)
C14F C 0.31229(5) -0.2709(3) -0.10320(9)
C15F C 0.34211(5) -0.3291(4) -0.11565(12)
H6F H 0.3615 -0.2463 -0.0979
C16F C 0.30772(4) 0.5096(3) 0.06572(9)
C17F C 0.33504(4) 0.5869(3) 0.08744(10)
C18F C 0.36850(4) 0.6759(3) 0.11058(10)
C19F C 0.39156(5) 0.6190(3) 0.07449(10)
H7F H 0.3848 0.5283 0.0357
C20F C 0.42429(5) 0.6952(4) 0.09533(11)
C21F C 0.43324(4) 0.8325(4) 0.15333(11)
H8F H 0.4552 0.8853 0.1678
C22F C 0.41093(4) 0.8941(3) 0.19048(10)
C23F C 0.37821(4) 0.8130(3) 0.16803(10)
H9F H 0.3627 0.8511 0.1918
C24F C 0.45052(5) 0.6322(4) 0.05760(13)
C25F C 0.46469(11) 0.8318(6) 0.0332(2)
H10F H 0.4810 0.7886 0.0098
H11F H 0.4469 0.9124 0.0016
H12F H 0.4753 0.9229 0.0722
C26F C 0.43580(8) 0.4830(8) -0.0048(2)
H13F H 0.4529 0.4485 -0.0270
H14F H 0.4277 0.3497 0.0106
H15F H 0.4175 0.5570 -0.0371
C27F C 0.47899(8) 0.5054(7) 0.10711(19)
H16F H 0.4955 0.4668 0.0838
H17F H 0.4892 0.5952 0.1467
H18F H 0.4702 0.3740 0.1220
C28F C 0.42158(5) 1.0408(4) 0.25516(11)
C29F C 0.45874(13) 1.1040(14) 0.2738(3)
H19F H 0.4721 0.9861 0.2991
H20F H 0.4651 1.1314 0.2320
H21F H 0.4624 1.2343 0.3019
C30F C 0.4159(2) 0.9193(14) 0.3166(3)
H22F H 0.4028 0.7893 0.3007
H23F H 0.4372 0.8788 0.3479
H24F H 0.4040 1.0127 0.3403
C31F C 0.4011(2) 1.2482(11) 0.2407(4)
H25F H 0.3787 1.2185 0.2430
H26F H 0.4113 1.3575 0.2746
H27F H 0.4003 1.3012 0.1952
C32? C 0.0599(3) -0.7454(16) -0.2405(6)
H28? H 0.0408 -0.7014 -0.2256
H29? H 0.0749 -0.8313 -0.2048
H30? H 0.0525 -0.8318 -0.2821
C33? C 0.0550(4) -0.4050(19) -0.3111(5)
H31? H 0.0665 -0.2753 -0.3195
H32? H 0.0356 -0.3634 -0.2964
H33? H 0.0478 -0.4898 -0.3531
C34? C 0.1073(2) -0.628(3) -0.2790(7)
H34? H 0.1200 -0.5067 -0.2893
H35? H 0.0988 -0.7154 -0.3199
H36? H 0.1215 -0.7160 -0.2429
loop_
_geom_bond_atom_site_label_1
_geom_bond_atom_site_label_2
_geom_bond_site_symmetry_1
_geom_bond_site_symmetry_2
S1 C12 1_555 1_555
C1 C2 1_555 1_555
C2 C3 1_555 1_555
C3 C4 1_555 1_555
C4 C5 1_555 1_555
C5 H1 1_555 1_555
C6 C5 1_555 1_555
H2 C6 1_555 1_555
C7 C6 1_555 1_555
H3 C7 1_555 1_555
C8 C7 1_555 1_555
C9 C4 1_555 1_555
C10 C8 1_555 1_555
H4 C10 1_555 1_555
C11 C10 1_555 1_555
H5 C11 1_555 1_555
C12 C1 1_555 1_555
C13 S1 1_555 1_555
C14 C13 1_555 1_555
C15 C14 1_555 1_555
H6 C15 1_555 1_555
C16 C1 1_555 1_555
C17 C16 1_555 1_555
C18 C17 1_555 1_555
C19 C18 1_555 1_555
H7 C19 1_555 1_555
C20 C19 1_555 1_555
C21 C20 1_555 1_555
H8 C21 1_555 1_555
C22 C21 1_555 1_555
C23 C18 1_555 1_555
H9 C23 1_555 1_555
C24 C20 1_555 1_555
C25 C24 1_555 1_555
H10 C25 1_555 1_555
H11 C25 1_555 1_555
H12 C25 1_555 1_555
C26 C24 1_555 1_555
H13 C26 1_555 1_555
H14 C26 1_555 1_555
H15 C26 1_555 1_555
C27 C24 1_555 1_555
H16 C27 1_555 1_555
H17 C27 1_555 1_555
H18 C27 1_555 1_555
C28 C22 1_555 1_555
C29 C28 1_555 1_555
H19 C29 1_555 1_555
H20 C29 1_555 1_555
H21 C29 1_555 1_555
C30 C28 1_555 1_555
H22 C30 1_555 1_555
H23 C30 1_555 1_555
H24 C30 1_555 1_555
C31 C28 1_555 1_555
H25 C31 1_555 1_555
H26 C31 1_555 1_555
H27 C31 1_555 1_555
S1F C12F 1_555 1_555
C1F C2F 1_555 1_555
C2F C12 1_555 1_555
C3F C13 1_555 1_555
C4F C3F 1_555 1_555
C5F C4F 1_555 1_555
H1F C5F 1_555 1_555
C6F C5F 1_555 1_555
H2F C6F 1_555 1_555
C7F C6F 1_555 1_555
H3F C7F 1_555 1_555
C8F C7F 1_555 1_555
C9F C14 1_555 1_555
C10F C8F 1_555 1_555
H4F C10F 1_555 1_555
C11F C15 1_555 1_555
H5F C11F 1_555 1_555
C12F C2 1_555 1_555
C13F C3 1_555 1_555
C14F C9 1_555 1_555
C15F C11 1_555 1_555
H6F C15F 1_555 1_555
C16F C1F 1_555 1_555
C17F C16F 1_555 1_555
C18F C17F 1_555 1_555
C19F C18F 1_555 1_555
H7F C19F 1_555 1_555
C20F C19F 1_555 1_555
C21F C20F 1_555 1_555
H8F C21F 1_555 1_555
C22F C21F 1_555 1_555
C23F C18F 1_555 1_555
H9F C23F 1_555 1_555
C24F C20F 1_555 1_555
C25F C24F 1_555 1_555
H10F C25F 1_555 1_555
H11F C25F 1_555 1_555
H12F C25F 1_555 1_555
C26F C24F 1_555 1_555
H13F C26F 1_555 1_555
H14F C26F 1_555 1_555
H15F C26F 1_555 1_555
C27F C24F 1_555 1_555
H16F C27F 1_555 1_555
H17F C27F 1_555 1_555
H18F C27F 1_555 1_555
C28F C22F 1_555 1_555
C29F C28F 1_555 1_555
H19F C29F 1_555 1_555
H20F C29F 1_555 1_555
H21F C29F 1_555 1_555
C30F C28F 1_555 1_555
H22F C30F 1_555 1_555
H23F C30F 1_555 1_555
H24F C30F 1_555 1_555
C31F C28F 1_555 1_555
H25F C31F 1_555 1_555
H26F C31F 1_555 1_555
H27F C31F 1_555 1_555
C8 C9 1_555 1_555
C22 C23 1_555 1_555
S1F C13F 1_555 1_555
C1F C12F 1_555 1_555
C2F C3F 1_555 1_555
C4F C9F 1_555 1_555
C8F C9F 1_555 1_555
C10F C11F 1_555 1_555
C13F C14F 1_555 1_555
C14F C15F 1_555 1_555
C22F C23F 1_555 1_555

#END
