
#######################################################################
#
#                 Cambridge Crystallographic Data Centre
#                                CCDC 
#
#######################################################################
#
# If this CIF has been generated from an entry in the Cambridge 
# Structural Database, then it will include bibliographic, chemical, 
# crystal, experimental, refinement or atomic coordinate data resulting 
# from the CCDC's data processing and validation procedures.
#
#######################################################################

data_UCIYAI
_chemical_name_common            
'(S)-2-((S)-(Perfluorophenoxy)(phenoxy)phosphorylamino)propionic acid isopropyl ester'
_chemical_formula_moiety         'C18 H17 F5 N1 O5 P1'
_chemical_name_systematic        
'(S,S~p~)-Isopropyl N-((pentafluorophenoxy)(phenoxy)phosphoryl)-L-alaninate'
_symmetry_cell_setting           triclinic
_symmetry_space_group_name_H-M   'P 1'
_symmetry_Int_Tables_number      1
_space_group_name_Hall           'P 1'
loop_
_symmetry_equiv_pos_site_id
_symmetry_equiv_pos_as_xyz
1 x,y,z
_cell_length_a                   5.2641(6)
_cell_length_b                   12.0548(13)
_cell_length_c                   16.4307(15)
_cell_angle_alpha                74.960(4)
_cell_angle_beta                 83.959(4)
_cell_angle_gamma                80.275(4)
_cell_volume                     990.401
_chemical_melting_point          '130-134 deg.C'
_cell_formula_units_Z            2
loop_
_atom_site_label
_atom_site_type_symbol
_atom_site_fract_x
_atom_site_fract_y
_atom_site_fract_z
C1 C 0.4062(4) 0.51842(17) 0.30039(12)
H1 H 0.5909 0.5003 0.3098
C2 C 0.2701(4) 0.42253(19) 0.35816(14)
H2 H 0.0881 0.4400 0.3504
H3 H 0.2989 0.4172 0.4159
H4 H 0.3374 0.3499 0.3446
C3 C 0.3720(4) 0.52242(17) 0.20905(12)
C4 C 0.5119(4) 0.4181(2) 0.10212(13)
H5 H 0.3595 0.4676 0.0762
C5 C 0.7493(6) 0.4559(4) 0.05220(19)
H6 H 0.8991 0.4074 0.0774
H7 H 0.7554 0.5352 0.0518
H8 H 0.7462 0.4494 -0.0047
C6 C 0.4853(9) 0.2946(3) 0.1122(3)
H9 H 0.3392 0.2757 0.1504
H10 H 0.6389 0.2459 0.1344
H11 H 0.4608 0.2823 0.0583
C7 C 0.2915(3) 0.78140(16) 0.45619(11)
C8 C 0.1082(4) 0.71497(17) 0.49762(12)
H12 H -0.0011 0.6895 0.4677
C9 C 0.0895(4) 0.68672(18) 0.58482(12)
H13 H -0.0319 0.6406 0.6141
C10 C 0.2501(4) 0.72655(19) 0.62917(12)
H14 H 0.2360 0.7074 0.6879
C11 C 0.4304(4) 0.7945(2) 0.58591(13)
H15 H 0.5376 0.8216 0.6155
C12 C 0.4526(4) 0.82270(19) 0.49864(13)
H16 H 0.5740 0.8686 0.4691
C13 C 0.6964(4) 0.85933(17) 0.18500(11)
C14 C 0.8214(4) 0.82210(17) 0.11615(12)
C15 C 1.0245(4) 0.87236(19) 0.07259(12)
C16 C 1.1090(4) 0.9602(2) 0.09652(13)
C17 C 0.9898(5) 0.9972(2) 0.16546(14)
C18 C 0.7843(4) 0.94616(19) 0.20924(12)
N1 N 0.3057(3) 0.62963(14) 0.32045(10)
H17 H 0.1437 0.6436 0.3345
O1 O 0.5232(3) 0.43435(13) 0.18665(9)
O2 O 0.2287(4) 0.59421(16) 0.16391(11)
O3 O 0.3124(2) 0.81282(11) 0.36666(8)
O4 O 0.4809(2) 0.81213(12) 0.22431(8)
O5 O 0.7466(2) 0.68265(11) 0.34239(8)
F1 F 0.7360(3) 0.73935(11) 0.09093(8)
F2 F 1.1451(3) 0.83622(13) 0.00576(8)
F3 F 1.3083(3) 1.00948(13) 0.05400(8)
F4 F 1.0735(3) 1.08049(14) 0.19062(10)
F5 F 0.6680(3) 0.98247(13) 0.27634(8)
P1 P 0.48336(8) 0.72702(4) 0.31748(3)
C19 C 0.6519(3) 0.37210(16) 0.58610(11)
H18 H 0.4756 0.3617 0.5789
C20 C 0.7150(5) 0.48335(18) 0.52450(13)
H19 H 0.8873 0.4941 0.5314
H20 H 0.5950 0.5480 0.5354
H21 H 0.7024 0.4782 0.4678
C21 C 0.8386(4) 0.27017(17) 0.56757(12)
C22 C 0.9316(5) 0.1400(2) 0.47690(15)
H22 H 1.1144 0.1420 0.4822
C23 C 0.8512(6) 0.0317(2) 0.5357(2)
H23 H 0.6684 0.0340 0.5348
H24 H 0.8936 0.0270 0.5920
H25 H 0.9405 -0.0351 0.5178
C24 C 0.8852(7) 0.1523(3) 0.38606(18)
H26 H 0.9349 0.2240 0.3522
H27 H 0.7053 0.1521 0.3810
H28 H 0.9858 0.0886 0.3670
C25 C 0.5034(3) 0.49345(16) 0.83466(11)
C26 C 0.6871(4) 0.56359(17) 0.80067(12)
H29 H 0.8293 0.5385 0.7679
C27 C 0.6558(4) 0.67279(18) 0.81630(13)
H30 H 0.7769 0.7221 0.7931
C28 C 0.4461(4) 0.70916(19) 0.86610(13)
H31 H 0.4275 0.7821 0.8770
C29 C 0.2646(4) 0.63656(19) 0.89950(14)
H32 H 0.1233 0.6608 0.9330
C30 C 0.2914(4) 0.52810(18) 0.88357(12)
H33 H 0.1684 0.4793 0.9055
C31 C 0.2589(3) 0.15388(16) 0.80333(12)
C32 C 0.2358(4) 0.06464(16) 0.76669(13)
C33 C 0.0434(4) -0.00295(16) 0.79501(15)
C34 C -0.1274(4) 0.01717(18) 0.86034(15)
C35 C -0.1072(4) 0.10454(18) 0.89726(13)
C36 C 0.0856(4) 0.17223(17) 0.86920(12)
N2 N 0.6702(3) 0.37828(13) 0.67316(9)
H34 H 0.8087 0.3965 0.6864
O6 O 0.7727(3) 0.24056(12) 0.50091(9)
O7 O 1.0267(3) 0.22573(14) 0.60568(10)
O8 O 0.5378(2) 0.37895(10) 0.82398(7)
O9 O 0.4654(2) 0.21268(11) 0.77604(8)
O10 O 0.1799(2) 0.40410(11) 0.72031(8)
F6 F 0.4064(2) 0.04303(10) 0.70446(8)
F7 F 0.0215(3) -0.08752(11) 0.75781(10)
F8 F -0.3151(3) -0.04911(11) 0.88824(10)
F9 F -0.2765(2) 0.12512(12) 0.96046(8)
F10 F 0.1046(2) 0.25603(10) 0.90742(7)
P2 P 0.44062(7) 0.35221(4) 0.74449(3)
loop_
_geom_bond_atom_site_label_1
_geom_bond_atom_site_label_2
_geom_bond_site_symmetry_1
_geom_bond_site_symmetry_2
C1 H1 1_555 1_555
C2 C1 1_555 1_555
H2 C2 1_555 1_555
H3 C2 1_555 1_555
H4 C2 1_555 1_555
C3 C1 1_555 1_555
C4 H5 1_555 1_555
C5 C4 1_555 1_555
H6 C5 1_555 1_555
H7 C5 1_555 1_555
H8 C5 1_555 1_555
C6 C4 1_555 1_555
H9 C6 1_555 1_555
H10 C6 1_555 1_555
H11 C6 1_555 1_555
C7 C8 1_555 1_555
C8 H12 1_555 1_555
C9 C8 1_555 1_555
H13 C9 1_555 1_555
C10 C9 1_555 1_555
H14 C10 1_555 1_555
C11 C10 1_555 1_555
H15 C11 1_555 1_555
C12 C7 1_555 1_555
H16 C12 1_555 1_555
C13 C14 1_555 1_555
C14 C15 1_555 1_555
C15 C16 1_555 1_555
C16 C17 1_555 1_555
C17 C18 1_555 1_555
C18 C13 1_555 1_555
N1 C1 1_555 1_555
H17 N1 1_555 1_555
O1 C3 1_555 1_555
O2 C3 1_555 1_555
O3 C7 1_555 1_555
O4 C13 1_555 1_555
O5 P1 1_555 1_555
F1 C14 1_555 1_555
F2 C15 1_555 1_555
F3 C16 1_555 1_555
F4 C17 1_555 1_555
F5 C18 1_555 1_555
P1 N1 1_555 1_555
C19 H18 1_555 1_555
C20 C19 1_555 1_555
H19 C20 1_555 1_555
H20 C20 1_555 1_555
H21 C20 1_555 1_555
C21 C19 1_555 1_555
C22 H22 1_555 1_555
C23 C22 1_555 1_555
H23 C23 1_555 1_555
H24 C23 1_555 1_555
H25 C23 1_555 1_555
C24 C22 1_555 1_555
H26 C24 1_555 1_555
H27 C24 1_555 1_555
H28 C24 1_555 1_555
C25 C26 1_555 1_555
C26 H29 1_555 1_555
C27 C26 1_555 1_555
H30 C27 1_555 1_555
C28 C27 1_555 1_555
H31 C28 1_555 1_555
C29 C28 1_555 1_555
H32 C29 1_555 1_555
C30 C25 1_555 1_555
H33 C30 1_555 1_555
C31 C32 1_555 1_555
C32 C33 1_555 1_555
C33 C34 1_555 1_555
C34 C35 1_555 1_555
C35 C36 1_555 1_555
C36 C31 1_555 1_555
N2 C19 1_555 1_555
H34 N2 1_555 1_555
O6 C21 1_555 1_555
O7 C21 1_555 1_555
O8 C25 1_555 1_555
O9 C31 1_555 1_555
O10 P2 1_555 1_555
F6 C32 1_555 1_555
F7 C33 1_555 1_555
F8 C34 1_555 1_555
F9 C35 1_555 1_555
F10 C36 1_555 1_555
P2 N2 1_555 1_555
C4 O1 1_555 1_555
C11 C12 1_555 1_555
O3 P1 1_555 1_555
O4 P1 1_555 1_555
C22 O6 1_555 1_555
C29 C30 1_555 1_555
O8 P2 1_555 1_555
O9 P2 1_555 1_555

#END
