
#######################################################################
#
#                 Cambridge Crystallographic Data Centre
#                                CCDC 
#
#######################################################################
#
# If this CIF has been generated from an entry in the Cambridge 
# Structural Database, then it will include bibliographic, chemical, 
# crystal, experimental, refinement or atomic coordinate data resulting 
# from the CCDC's data processing and validation procedures.
#
#######################################################################

data_UCOBIY
_chemical_formula_moiety         'C52 H38 N4 O8,1.9(C6 H5 N1 O2)'
_chemical_name_systematic        
"Tetramethyl 4,4',4'',4'''-porphyrin-5,10,15,20-tetrabenzoate nitrobenzene clathrate"
_symmetry_cell_setting           monoclinic
_symmetry_space_group_name_H-M   'C 2/c'
_symmetry_Int_Tables_number      15
_space_group_name_Hall           '-C 2yn'
loop_
_symmetry_equiv_pos_site_id
_symmetry_equiv_pos_as_xyz
1 x,y,z
2 1/2+x,1/2+y,z
3 -x,y,1/2-z
4 1/2-x,1/2+y,1/2-z
5 -x,-y,-z
6 1/2-x,1/2-y,-z
7 x,-y,1/2+z
8 1/2+x,1/2-y,1/2+z
_cell_length_a                   32.6249(8)
_cell_length_b                   7.0657(2)
_cell_length_c                   23.5160(8)
_cell_angle_alpha                90
_cell_angle_beta                 100.2918(9)
_cell_angle_gamma                90
_cell_volume                     5333.64
_exptl_crystal_colour            purple
_exptl_crystal_description       prism
_cell_formula_units_Z            4
loop_
_atom_site_label
_atom_site_type_symbol
_atom_site_fract_x
_atom_site_fract_y
_atom_site_fract_z
C1 C 0.01794(6) 0.8569(2) 0.57609(8)
C2 C 0.05179(6) 0.9743(2) 0.60418(8)
H1 H 0.0498 1.0753 0.6302
C3 C 0.08700(6) 0.9141(3) 0.58675(8)
H2 H 0.1142 0.9654 0.5980
C4 C 0.07533(6) 0.7559(2) 0.54757(8)
C5 C 0.10327(6) 0.6434(2) 0.52340(8)
C6 C 0.09243(6) 0.4807(2) 0.48956(8)
C7 C 0.12050(6) 0.3752(2) 0.46072(8)
H3 H 0.1494 0.3992 0.4627
C8 C 0.09816(6) 0.2353(2) 0.43024(8)
H4 H 0.1085 0.1434 0.4070
C9 C 0.05584(6) 0.2511(2) 0.43945(8)
C10 C -0.02313(6) 0.8673(2) 0.58530(7)
N1 N 0.03333(5) 0.7275(2) 0.54152(6)
H5 H 0.0187 0.6419 0.5194
N2 N 0.05349(5) 0.40154(19) 0.47576(6)
C11 C 0.14841(6) 0.6943(2) 0.53676(8)
C12 C 0.16281(6) 0.8703(2) 0.52233(8)
H7 H 0.1437 0.9602 0.5028
C13 C 0.20474(6) 0.9158(3) 0.53610(8)
H8 H 0.2141 1.0366 0.5261
C14 C 0.23312(6) 0.7851(3) 0.56453(8)
C15 C 0.21900(6) 0.6082(3) 0.57865(9)
H9 H 0.2382 0.5180 0.5979
C16 C 0.17714(6) 0.5630(3) 0.56483(8)
H10 H 0.1678 0.4417 0.5745
C17 C 0.27768(6) 0.8404(3) 0.58030(9)
O1 O 0.29167(4) 0.98904(19) 0.56696(6)
O2 O 0.30050(4) 0.7072(2) 0.61223(6)
C18 C 0.34423(6) 0.7499(3) 0.63104(10)
H11 H 0.3579 0.7594 0.5973
H12 H 0.3573 0.6488 0.6565
H13 H 0.3470 0.8704 0.6520
C19 C -0.03307(6) 1.0104(2) 0.62820(8)
C20 C -0.03409(6) 1.2035(2) 0.61674(8)
H14 H -0.0274 1.2487 0.5815
C21 C -0.04484(6) 1.3303(2) 0.65639(8)
H15 H -0.0457 1.4619 0.6480
C22 C -0.05444(6) 1.2671(2) 0.70853(8)
C23 C -0.05297(6) 1.0736(2) 0.72063(8)
H16 H -0.0592 1.0286 0.7562
C24 C -0.04238(6) 0.9477(2) 0.68055(8)
H17 H -0.0415 0.8161 0.6889
C25 C -0.06699(6) 1.4071(3) 0.74963(8)
O3 O -0.07392(6) 1.57220(19) 0.73847(7)
O4 O -0.07053(5) 1.33006(17) 0.80008(6)
C26 C -0.08314(8) 1.4569(3) 0.84218(9)
H18 H -0.1118 1.4989 0.8285
H19 H -0.0815 1.3906 0.8791
H20 H -0.0646 1.5670 0.8475
C1D C -0.01794(6) 0.1431(2) 0.42391(8)
C2D C -0.05179(6) 0.0257(2) 0.39582(8)
H1D H -0.0498 -0.0753 0.3698
C3D C -0.08700(6) 0.0859(3) 0.41325(8)
H2D H -0.1142 0.0346 0.4020
C4D C -0.07533(6) 0.2441(2) 0.45243(8)
C5D C -0.10327(6) 0.3566(2) 0.47660(8)
C6D C -0.09243(6) 0.5193(2) 0.51044(8)
C7D C -0.12050(6) 0.6248(2) 0.53928(8)
H3D H -0.1494 0.6008 0.5373
C8D C -0.09816(6) 0.7647(2) 0.56976(8)
H4D H -0.1085 0.8566 0.5930
C9D C -0.05584(6) 0.7489(2) 0.56055(8)
C10D C 0.02313(6) 0.1327(2) 0.41470(7)
N1D N -0.03333(5) 0.2725(2) 0.45848(6)
H5D H -0.0187 0.3581 0.4806
N2D N -0.05349(5) 0.59846(19) 0.52424(6)
C11D C -0.14841(6) 0.3057(2) 0.46324(8)
C12D C -0.16281(6) 0.1297(2) 0.47767(8)
H7D H -0.1437 0.0398 0.4972
C13D C -0.20474(6) 0.0842(3) 0.46390(8)
H8D H -0.2141 -0.0366 0.4739
C14D C -0.23312(6) 0.2149(3) 0.43547(8)
C15D C -0.21900(6) 0.3918(3) 0.42135(9)
H9D H -0.2382 0.4820 0.4021
C16D C -0.17714(6) 0.4370(3) 0.43517(8)
H10D H -0.1678 0.5583 0.4255
C17D C -0.27768(6) 0.1596(3) 0.41970(9)
O1D O -0.29167(4) 0.01096(19) 0.43304(6)
O2D O -0.30050(4) 0.2928(2) 0.38777(6)
C18D C -0.34423(6) 0.2501(3) 0.36896(10)
H11D H -0.3579 0.2406 0.4027
H12D H -0.3573 0.3512 0.3435
H13D H -0.3470 0.1296 0.3480
C19D C 0.03307(6) -0.0104(2) 0.37180(8)
C20D C 0.03409(6) -0.2035(2) 0.38326(8)
H14D H 0.0274 -0.2487 0.4185
C21D C 0.04484(6) -0.3303(2) 0.34361(8)
H15D H 0.0457 -0.4619 0.3520
C22D C 0.05444(6) -0.2671(2) 0.29147(8)
C23D C 0.05297(6) -0.0736(2) 0.27937(8)
H16D H 0.0592 -0.0286 0.2438
C24D C 0.04238(6) 0.0523(2) 0.31945(8)
H17D H 0.0415 0.1839 0.3111
C25D C 0.06699(6) -0.4071(3) 0.25037(8)
O3D O 0.07392(6) -0.57220(19) 0.26153(7)
O4D O 0.07053(5) -0.33006(17) 0.19992(6)
C26D C 0.08314(8) -0.4569(3) 0.15782(9)
H18D H 0.1118 -0.4989 0.1715
H19D H 0.0815 -0.3906 0.1209
H20D H 0.0646 -0.5670 0.1525
C27 C 0.23717(10) 0.2379(3) 0.22574(10)
H21 H 0.2539 0.2300 0.1967
C28 C 0.19467(10) 0.2266(3) 0.21152(12)
H22 H 0.1817 0.2119 0.1722
C29 C 0.17029(10) 0.2366(3) 0.25463(14)
H23 H 0.1408 0.2262 0.2449
C30 C 0.18949(13) 0.2618(4) 0.31166(13)
H24 H 0.1730 0.2704 0.3410
C31 C 0.23192(12) 0.2744(3) 0.32625(12)
H25 H 0.2450 0.2921 0.3653
C32 C 0.25522(10) 0.2611(3) 0.28302(11)
N3 N 0.30073(9) 0.2699(3) 0.29829(11)
O5 O 0.32147(7) 0.2423(3) 0.26037(10)
O6 O 0.31635(8) 0.3072(3) 0.34878(8)
H6? H 0.0310 0.4403 0.4880
loop_
_geom_bond_atom_site_label_1
_geom_bond_atom_site_label_2
_geom_bond_site_symmetry_1
_geom_bond_site_symmetry_2
C1 C2 1_555 1_555
C2 H1 1_555 1_555
C3 C2 1_555 1_555
H2 C3 1_555 1_555
C4 C3 1_555 1_555
C5 C4 1_555 1_555
C6 C5 1_555 1_555
C7 C6 1_555 1_555
H3 C7 1_555 1_555
C8 C7 1_555 1_555
H4 C8 1_555 1_555
C9 C8 1_555 1_555
C10 C1 1_555 1_555
N1 C1 1_555 1_555
H5 N1 1_555 1_555
N2 C6 1_555 1_555
C11 C5 1_555 1_555
C12 C11 1_555 1_555
H7 C12 1_555 1_555
C13 C12 1_555 1_555
H8 C13 1_555 1_555
C14 C13 1_555 1_555
C15 C14 1_555 1_555
H9 C15 1_555 1_555
C16 C11 1_555 1_555
H10 C16 1_555 1_555
C17 C14 1_555 1_555
O1 C17 1_555 1_555
O2 C17 1_555 1_555
C18 O2 1_555 1_555
H11 C18 1_555 1_555
H12 C18 1_555 1_555
H13 C18 1_555 1_555
C19 C10 1_555 1_555
C20 C19 1_555 1_555
H14 C20 1_555 1_555
C21 C20 1_555 1_555
H15 C21 1_555 1_555
C22 C21 1_555 1_555
C23 C22 1_555 1_555
H16 C23 1_555 1_555
C24 C19 1_555 1_555
H17 C24 1_555 1_555
C25 C22 1_555 1_555
O3 C25 1_555 1_555
O4 C25 1_555 1_555
C26 O4 1_555 1_555
H18 C26 1_555 1_555
H19 C26 1_555 1_555
H20 C26 1_555 1_555
C27 H21 1_555 1_555
C28 C27 1_555 1_555
H22 C28 1_555 1_555
C29 C28 1_555 1_555
H23 C29 1_555 1_555
C30 C29 1_555 1_555
H24 C30 1_555 1_555
C31 C30 1_555 1_555
H25 C31 1_555 1_555
C32 C27 1_555 1_555
N3 C32 1_555 1_555
O5 N3 1_555 1_555
O6 N3 1_555 1_555
C1D C2D 1_555 1_555
C2D H1D 1_555 1_555
C3D C2D 1_555 1_555
H2D C3D 1_555 1_555
C4D C3D 1_555 1_555
C5D C4D 1_555 1_555
C6D C5D 1_555 1_555
C7D C6D 1_555 1_555
H3D C7D 1_555 1_555
C8D C7D 1_555 1_555
H4D C8D 1_555 1_555
C9D C10 1_555 1_555
C10D C9 1_555 1_555
N1D C1D 1_555 1_555
H5D N1D 1_555 1_555
N2D C6D 1_555 1_555
C11D C5D 1_555 1_555
C12D C11D 1_555 1_555
H7D C12D 1_555 1_555
C13D C12D 1_555 1_555
H8D C13D 1_555 1_555
C14D C13D 1_555 1_555
C15D C14D 1_555 1_555
H9D C15D 1_555 1_555
C16D C11D 1_555 1_555
H10D C16D 1_555 1_555
C17D C14D 1_555 1_555
O1D C17D 1_555 1_555
O2D C17D 1_555 1_555
C18D O2D 1_555 1_555
H11D C18D 1_555 1_555
H12D C18D 1_555 1_555
H13D C18D 1_555 1_555
C19D C10D 1_555 1_555
C20D C19D 1_555 1_555
H14D C20D 1_555 1_555
C21D C20D 1_555 1_555
H15D C21D 1_555 1_555
C22D C21D 1_555 1_555
C23D C22D 1_555 1_555
H16D C23D 1_555 1_555
C24D C19D 1_555 1_555
H17D C24D 1_555 1_555
C25D C22D 1_555 1_555
O3D C25D 1_555 1_555
O4D C25D 1_555 1_555
C26D O4D 1_555 1_555
H18D C26D 1_555 1_555
H19D C26D 1_555 1_555
H20D C26D 1_555 1_555
C4 N1 1_555 1_555
C9 N2 1_555 1_555
C15 C16 1_555 1_555
C23 C24 1_555 1_555
C31 C32 1_555 1_555
C1D C10D 1_555 1_555
C4D N1D 1_555 1_555
C8D C9D 1_555 1_555
C9D N2D 1_555 1_555
C15D C16D 1_555 1_555
C23D C24D 1_555 1_555

#END
