
#######################################################################
#
#                 Cambridge Crystallographic Data Centre
#                                CCDC 
#
#######################################################################
#
# If this CIF has been generated from an entry in the Cambridge 
# Structural Database, then it will include bibliographic, chemical, 
# crystal, experimental, refinement or atomic coordinate data resulting 
# from the CCDC's data processing and validation procedures.
#
#######################################################################

data_UCODAU
_chemical_formula_moiety         'C15 H18 O4'
_chemical_name_systematic        
(3R,4aS,5S,7aS)-4a,5-dihydroxy-3-methyl-3-phenylhexahydrocyclopenta[c]pyran-6(1H)-one
_symmetry_cell_setting           monoclinic
_symmetry_space_group_name_H-M   'P 21'
_symmetry_Int_Tables_number      4
_space_group_name_Hall           'P 2yb'
loop_
_symmetry_equiv_pos_site_id
_symmetry_equiv_pos_as_xyz
1 x,y,z
2 -x,1/2+y,-z
_cell_length_a                   6.9162(2)
_cell_length_b                   15.5520(4)
_cell_length_c                   12.5396(3)
_cell_angle_alpha                90
_cell_angle_beta                 102.0495(9)
_cell_angle_gamma                90
_cell_volume                     1319.05
_exptl_crystal_colour            colorless
_exptl_crystal_description       plate
_cell_formula_units_Z            4
_exptl_crystal_recrystallization_method hexane/dichloromethane
loop_
_atom_site_label
_atom_site_type_symbol
_atom_site_fract_x
_atom_site_fract_y
_atom_site_fract_z
O1 O -0.24083(19) 0.36292(9) 0.56813(11)
O2 O 0.0403(2) 0.41762(9) 0.31580(11)
H1 H -0.065(3) 0.4413(18) 0.290(2)
O3 O 0.38566(19) 0.40213(9) 0.45456(11)
H2 H 0.492(4) 0.3865(18) 0.496(2)
O4 O 0.3545(2) 0.22713(10) 0.37140(13)
C1 C -0.0952(3) 0.43096(12) 0.59537(15)
C2 C -0.2055(3) 0.50446(13) 0.63766(17)
H3 H -0.3205 0.5208 0.5814
H4 H -0.1170 0.5540 0.6554
H5 H -0.2496 0.4857 0.7033
C3 C -0.0316(3) 0.45903(12) 0.48992(15)
H6 H -0.1423 0.4912 0.4443
H7 H 0.0811 0.4992 0.5097
C4 C 0.0282(3) 0.38688(12) 0.42147(15)
C5 C 0.2312(3) 0.34610(13) 0.46384(15)
H8 H 0.2431 0.3311 0.5425
C6 C 0.2174(3) 0.26315(13) 0.39806(15)
C7 C 0.0024(3) 0.23410(13) 0.37436(16)
H9 H -0.0133 0.1813 0.4158
H10 H -0.0446 0.2224 0.2956
C8 C -0.1135(3) 0.30952(12) 0.41101(15)
H11 H -0.2354 0.3215 0.3544
C9 C -0.1689(3) 0.28874(12) 0.52002(16)
H12 H -0.2720 0.2436 0.5086
H13 H -0.0514 0.2658 0.5710
C10 C 0.0719(3) 0.40097(12) 0.68854(15)
C11 C 0.0270(3) 0.34405(12) 0.76540(16)
H14 H -0.1056 0.3253 0.7591
C12 C 0.1718(3) 0.31406(13) 0.85101(17)
H15 H 0.1386 0.2737 0.9012
C13 C 0.3643(3) 0.34278(15) 0.86333(16)
H16 H 0.4644 0.3220 0.9213
C14 C 0.4093(3) 0.40227(17) 0.79004(18)
H17 H 0.5408 0.4232 0.7990
C15 C 0.2651(3) 0.43181(15) 0.70354(16)
H18 H 0.2981 0.4731 0.6545
O5 O 0.08410(18) 0.61214(9) 0.11098(10)
O6 O 0.53145(19) 0.45663(9) 0.27615(11)
H19 H 0.455(4) 0.4426(18) 0.317(2)
O7 O 0.77888(19) 0.52722(9) 0.16927(11)
H20 H 0.863(4) 0.5583(17) 0.151(2)
O8 O 0.8603(2) 0.64307(9) 0.35360(12)
C16 C 0.1866(3) 0.56670(12) 0.03806(15)
C17 C 0.0229(3) 0.52319(14) -0.04501(16)
H21 H -0.0492 0.4830 -0.0074
H22 H 0.0813 0.4918 -0.0982
H23 H -0.0685 0.5669 -0.0827
C18 C 0.3194(3) 0.49774(12) 0.10468(15)
H24 H 0.2338 0.4511 0.1224
H25 H 0.4043 0.4727 0.0581
C19 C 0.4521(3) 0.52865(12) 0.21062(15)
C20 C 0.6340(3) 0.58033(12) 0.19859(15)
H26 H 0.5939 0.6253 0.1412
C21 C 0.6936(3) 0.62380(12) 0.30977(15)
C22 C 0.5090(3) 0.63674(13) 0.35506(15)
H27 H 0.4777 0.6987 0.3583
H28 H 0.5266 0.6122 0.4293
C23 C 0.3433(3) 0.58926(12) 0.27542(15)
H29 H 0.2614 0.5550 0.3171
C24 C 0.2130(3) 0.65291(12) 0.20048(15)
H30 H 0.1328 0.6857 0.2433
H31 H 0.2983 0.6943 0.1719
C25 C 0.2883(3) 0.63211(13) -0.02369(14)
C26 C 0.2050(3) 0.71346(13) -0.04690(16)
H32 H 0.0907 0.7287 -0.0202
C27 C 0.2858(3) 0.77267(14) -0.10821(16)
H33 H 0.2278 0.8280 -0.1221
C28 C 0.4506(3) 0.75131(15) -0.14909(17)
H34 H 0.5069 0.7918 -0.1905
C29 C 0.5321(3) 0.67009(17) -0.12866(18)
H35 H 0.6431 0.6544 -0.1580
C30 C 0.4537(3) 0.61128(14) -0.06592(16)
H36 H 0.5133 0.5563 -0.0516
loop_
_geom_bond_atom_site_label_1
_geom_bond_atom_site_label_2
_geom_bond_site_symmetry_1
_geom_bond_site_symmetry_2
O1 C1 1_555 1_555
O2 H1 1_555 1_555
O3 H2 1_555 1_555
O4 C6 1_555 1_555
C1 C2 1_555 1_555
C2 H3 1_555 1_555
H4 C2 1_555 1_555
H5 C2 1_555 1_555
C3 C1 1_555 1_555
H6 C3 1_555 1_555
H7 C3 1_555 1_555
C4 O2 1_555 1_555
C5 O3 1_555 1_555
H8 C5 1_555 1_555
C6 C5 1_555 1_555
C7 C6 1_555 1_555
H9 C7 1_555 1_555
H10 C7 1_555 1_555
C8 C4 1_555 1_555
H11 C8 1_555 1_555
C9 O1 1_555 1_555
H12 C9 1_555 1_555
H13 C9 1_555 1_555
C10 C1 1_555 1_555
C11 C10 1_555 1_555
H14 C11 1_555 1_555
C12 C11 1_555 1_555
H15 C12 1_555 1_555
C13 C12 1_555 1_555
H16 C13 1_555 1_555
C14 C13 1_555 1_555
H17 C14 1_555 1_555
C15 C10 1_555 1_555
H18 C15 1_555 1_555
O5 C16 1_555 1_555
O6 H19 1_555 1_555
O7 H20 1_555 1_555
O8 C21 1_555 1_555
C16 C17 1_555 1_555
C17 H21 1_555 1_555
H22 C17 1_555 1_555
H23 C17 1_555 1_555
C18 C16 1_555 1_555
H24 C18 1_555 1_555
H25 C18 1_555 1_555
C19 O6 1_555 1_555
C20 O7 1_555 1_555
H26 C20 1_555 1_555
C21 C20 1_555 1_555
C22 C21 1_555 1_555
H27 C22 1_555 1_555
H28 C22 1_555 1_555
C23 C19 1_555 1_555
H29 C23 1_555 1_555
C24 O5 1_555 1_555
H30 C24 1_555 1_555
H31 C24 1_555 1_555
C25 C16 1_555 1_555
C26 C25 1_555 1_555
H32 C26 1_555 1_555
C27 C26 1_555 1_555
H33 C27 1_555 1_555
C28 C27 1_555 1_555
H34 C28 1_555 1_555
C29 C28 1_555 1_555
H35 C29 1_555 1_555
C30 C25 1_555 1_555
H36 C30 1_555 1_555
C3 C4 1_555 1_555
C4 C5 1_555 1_555
C7 C8 1_555 1_555
C8 C9 1_555 1_555
C14 C15 1_555 1_555
C18 C19 1_555 1_555
C19 C20 1_555 1_555
C22 C23 1_555 1_555
C23 C24 1_555 1_555
C29 C30 1_555 1_555

#END
