
#######################################################################
#
#                 Cambridge Crystallographic Data Centre
#                                CCDC 
#
#######################################################################
#
# If this CIF has been generated from an entry in the Cambridge 
# Structural Database, then it will include bibliographic, chemical, 
# crystal, experimental, refinement or atomic coordinate data resulting 
# from the CCDC's data processing and validation procedures.
#
#######################################################################

data_UCOFUO
_chemical_formula_moiety         'C10 H9 N2 1+,C6 H2 N3 O7 1-'
_chemical_name_systematic        "2,2'-Bipyridinium picrate"
_symmetry_cell_setting           triclinic
_symmetry_space_group_name_H-M   'P -1'
_symmetry_Int_Tables_number      2
_space_group_name_Hall           '-P 1'
loop_
_symmetry_equiv_pos_site_id
_symmetry_equiv_pos_as_xyz
1 x,y,z
2 -x,-y,-z
_cell_length_a                   7.4139(5)
_cell_length_b                   9.3768(6)
_cell_length_c                   12.3694(5)
_cell_angle_alpha                71.681(3)
_cell_angle_beta                 75.722(3)
_cell_angle_gamma                77.391(3)
_cell_volume                     781.792
_exptl_crystal_colour            yellow
_exptl_crystal_description       lath
_chemical_melting_point          '398 K'
_cell_formula_units_Z            2
loop_
_atom_site_label
_atom_site_type_symbol
_atom_site_fract_x
_atom_site_fract_y
_atom_site_fract_z
N1 N 0.4171(2) 0.2553(2) 0.86870(14)
C1 C 0.3315(3) 0.1341(2) 0.93360(17)
C2 C 0.2532(3) 0.1275(2) 1.04843(17)
C3 C 0.2549(3) 0.2472(2) 1.09054(17)
C4 C 0.3368(3) 0.3724(2) 1.01852(17)
C5 C 0.4215(3) 0.3724(3) 0.90728(18)
N2 N 0.4031(2) 0.0635(2) 0.75783(14)
C6 C 0.3247(3) 0.0241(2) 0.87156(17)
C7 C 0.2389(3) -0.1044(2) 0.92588(17)
C8 C 0.2307(3) -0.1953(3) 0.85863(18)
C9 C 0.3070(3) -0.1559(3) 0.74172(18)
C10 C 0.3939(3) -0.0269(3) 0.69570(18)
H1 H 0.4732 0.2571 0.7968
H2 H 0.1986 0.0413 1.0980
H3 H 0.1998 0.2439 1.1691
H4 H 0.3339 0.4567 1.0463
H5 H 0.4832 0.4550 0.8576
H6 H 0.1874 -0.1293 1.0067
H7 H 0.1729 -0.2842 0.8928
H8 H 0.3002 -0.2155 0.6938
H9 H 0.4497 -0.0018 0.6156
C11 C 1.0533(3) 0.7446(2) 0.30058(17)
O1 O 1.1755(2) 0.78858(17) 0.21397(11)
C12 C 1.0223(3) 0.7930(2) 0.40585(16)
N3 N 1.1307(3) 0.9059(2) 0.40382(14)
O2 O 1.1392(2) 1.01949(17) 0.32060(12)
O3 O 1.2054(2) 0.88440(19) 0.48734(13)
C13 C 0.9025(3) 0.7397(2) 0.50656(17)
C14 C 0.7940(3) 0.6323(2) 0.51074(16)
N4 N 0.6730(2) 0.5704(2) 0.61814(14)
O4 O 0.6728(2) 0.61165(17) 0.70434(12)
O5 O 0.5768(2) 0.47558(18) 0.62274(12)
C15 C 0.8116(3) 0.5782(2) 0.41669(16)
C16 C 0.9358(3) 0.6318(2) 0.31605(16)
N5 N 0.9535(2) 0.5630(2) 0.22294(14)
O6 O 0.8987(2) 0.43891(18) 0.24778(12)
O7 O 1.0201(2) 0.63012(18) 0.12300(12)
H10 H 0.8926 0.7743 0.5725
H11 H 0.7384 0.5044 0.4212
loop_
_geom_bond_atom_site_label_1
_geom_bond_atom_site_label_2
_geom_bond_site_symmetry_1
_geom_bond_site_symmetry_2
N1 C1 1_555 1_555
C1 C2 1_555 1_555
C2 C3 1_555 1_555
C3 C4 1_555 1_555
C4 C5 1_555 1_555
C5 N1 1_555 1_555
N2 C6 1_555 1_555
C6 C1 1_555 1_555
C7 C6 1_555 1_555
C8 C7 1_555 1_555
C9 C8 1_555 1_555
C10 N2 1_555 1_555
C11 O1 1_555 1_555
C12 C11 1_555 1_555
N3 C12 1_555 1_555
O2 N3 1_555 1_555
O3 N3 1_555 1_555
C13 C12 1_555 1_555
C14 C13 1_555 1_555
N4 C14 1_555 1_555
O4 N4 1_555 1_555
O5 N4 1_555 1_555
C15 C14 1_555 1_555
C16 C11 1_555 1_555
N5 C16 1_555 1_555
O6 N5 1_555 1_555
O7 N5 1_555 1_555
H1 N1 1_555 1_555
H2 C2 1_555 1_555
H3 C3 1_555 1_555
H4 C4 1_555 1_555
H5 C5 1_555 1_555
H6 C7 1_555 1_555
H7 C8 1_555 1_555
H8 C9 1_555 1_555
H9 C10 1_555 1_555
H10 C13 1_555 1_555
H11 C15 1_555 1_555
C9 C10 1_555 1_555
C15 C16 1_555 1_555

#END
