
#######################################################################
#
#                 Cambridge Crystallographic Data Centre
#                                CCDC 
#
#######################################################################
#
# If this CIF has been generated from an entry in the Cambridge 
# Structural Database, then it will include bibliographic, chemical, 
# crystal, experimental, refinement or atomic coordinate data resulting 
# from the CCDC's data processing and validation procedures.
#
#######################################################################

data_UCOGIE
_chemical_formula_moiety         'C21 H16 P1 S2 1+,Br1 1-,C1 H1 Cl3'
_chemical_name_systematic        
"4-Benzyl-4-phenyl-4H-thieno[2',3':4,5]phospholo[3,2-b]thiophen-4-ium bromide chloroform solvate"
_symmetry_cell_setting           monoclinic
_symmetry_space_group_name_H-M   'P 21/c'
_symmetry_Int_Tables_number      14
_space_group_name_Hall           '-P 2ybc'
loop_
_symmetry_equiv_pos_site_id
_symmetry_equiv_pos_as_xyz
1 x,y,z
2 -x,1/2+y,1/2-z
3 -x,-y,-z
4 x,1/2-y,1/2+z
_cell_length_a                   10.4350(3)
_cell_length_b                   18.3480(5)
_cell_length_c                   12.5070(4)
_cell_angle_alpha                90
_cell_angle_beta                 102.310(2)
_cell_angle_gamma                90
_cell_volume                     2339.55
_cell_formula_units_Z            4
loop_
_atom_site_label
_atom_site_type_symbol
_atom_site_fract_x
_atom_site_fract_y
_atom_site_fract_z
C1 C 0.7104(4) -0.1274(2) 0.8405(3)
H1 H 0.6657 -0.1715 0.8482
C2 C 0.7555(4) -0.11014(19) 0.7491(3)
H2 H 0.7465 -0.1401 0.686
C3 C 0.8179(3) -0.04103(18) 0.7617(3)
C4 C 0.8196(3) -0.00878(18) 0.8613(3)
C5 C 0.8913(3) 0.05979(18) 0.8797(3)
C6 C 0.9472(3) 0.08143(17) 0.7938(3)
C7 C 1.0165(3) 0.14817(18) 0.8137(3)
H3 H 1.0604 0.1711 0.7635
C8 C 1.0119(4) 0.17517(19) 0.9147(3)
H4 H 1.0532 0.2193 0.9433
C9 C 0.7883(3) 0.05884(18) 0.5731(3)
C10 C 0.7998(4) 0.1326(2) 0.5501(3)
H5 H 0.8683 0.161 0.5926
C11 C 0.7108(4) 0.1641(2) 0.4652(3)
H6 H 0.7181 0.2143 0.4493
C12 C 0.6114(4) 0.1231(2) 0.4033(3)
H7 H 0.5493 0.1455 0.3461
C13 C 0.6017(4) 0.0497(2) 0.4241(3)
H8 H 0.5344 0.0214 0.38
C14 C 0.6900(3) 0.0174(2) 0.5092(3)
H9 H 0.6832 -0.0331 0.5238
C15 C 1.0337(3) -0.02457(18) 0.6386(3)
H10 H 0.9971 -0.0567 0.5759
H11 H 1.0857 0.0138 0.6118
C16 C 1.1243(3) -0.06901(18) 0.7245(3)
C17 C 1.1099(3) -0.14413(19) 0.7281(3)
H12 H 1.0379 -0.1671 0.6806
C18 C 1.1996(4) -0.1860(2) 0.8003(3)
H13 H 1.1889 -0.2373 0.8021
C19 C 1.3042(4) -0.1533(2) 0.8696(3)
H14 H 1.3659 -0.1821 0.9187
C20 C 1.3193(3) -0.0782(2) 0.8678(3)
H15 H 1.391 -0.0556 0.9159
C21 C 1.2294(3) -0.0361(2) 0.7956(3)
H16 H 1.2397 0.0153 0.7946
S1 S 0.74200(9) -0.06164(5) 0.94036(7)
S2 S 0.92325(9) 0.12087(5) 0.98460(7)
P1 P 0.90044(8) 0.01794(5) 0.68490(7)
C22 C 0.5665(4) -0.1579(2) 0.2178(3)
H17 H 0.6437 -0.1438 0.2762
Cl1 Cl 0.46149(13) -0.21237(7) 0.27544(11)
Cl2 Cl 0.48405(12) -0.07853(6) 0.16220(10)
Cl3 Cl 0.62208(12) -0.20731(7) 0.11516(10)
Br1 Br 0.83293(4) -0.15771(2) 0.44393(3)
loop_
_geom_bond_atom_site_label_1
_geom_bond_atom_site_label_2
_geom_bond_site_symmetry_1
_geom_bond_site_symmetry_2
C1 H1 1_555 1_555
C2 C1 1_555 1_555
H2 C2 1_555 1_555
C3 C2 1_555 1_555
C4 C3 1_555 1_555
C5 C4 1_555 1_555
C6 C5 1_555 1_555
C7 C6 1_555 1_555
H3 C7 1_555 1_555
C8 C7 1_555 1_555
H4 C8 1_555 1_555
C9 C10 1_555 1_555
C10 H5 1_555 1_555
C11 C10 1_555 1_555
H6 C11 1_555 1_555
C12 C11 1_555 1_555
H7 C12 1_555 1_555
C13 C12 1_555 1_555
H8 C13 1_555 1_555
C14 C9 1_555 1_555
H9 C14 1_555 1_555
C15 H10 1_555 1_555
H11 C15 1_555 1_555
C16 C15 1_555 1_555
C17 C16 1_555 1_555
H12 C17 1_555 1_555
C18 C17 1_555 1_555
H13 C18 1_555 1_555
C19 C18 1_555 1_555
H14 C19 1_555 1_555
C20 C19 1_555 1_555
H15 C20 1_555 1_555
C21 C16 1_555 1_555
H16 C21 1_555 1_555
C22 H17 1_555 1_555
S1 C1 1_555 1_555
S2 C5 1_555 1_555
P1 C3 1_555 1_555
Cl1 C22 1_555 1_555
Cl2 C22 1_555 1_555
Cl3 C22 1_555 1_555
C4 S1 1_555 1_555
C6 P1 1_555 1_555
C8 S2 1_555 1_555
C9 P1 1_555 1_555
C13 C14 1_555 1_555
C15 P1 1_555 1_555
C20 C21 1_555 1_555

#END
