
#######################################################################
#
#                 Cambridge Crystallographic Data Centre
#                                CCDC 
#
#######################################################################
#
# If this CIF has been generated from an entry in the Cambridge 
# Structural Database, then it will include bibliographic, chemical, 
# crystal, experimental, refinement or atomic coordinate data resulting 
# from the CCDC's data processing and validation procedures.
#
#######################################################################

data_UCOGEZ
_chemical_formula_moiety         'C18 H11 Cl2 N5 O4,H2 O1'
_chemical_name_systematic        
"N,N'-bis(2-chloronicotinoyl)-N-(3-nitrophenyl)hydrazine monohydrate"
_symmetry_cell_setting           triclinic
_symmetry_space_group_name_H-M   'P -1'
_symmetry_Int_Tables_number      2
_space_group_name_Hall           '-P 1'
loop_
_symmetry_equiv_pos_site_id
_symmetry_equiv_pos_as_xyz
1 x,y,z
2 -x,-y,-z
_cell_length_a                   7.4435(3)
_cell_length_b                   7.8829(5)
_cell_length_c                   16.2657(10)
_cell_angle_alpha                99.564(2)
_cell_angle_beta                 96.806(3)
_cell_angle_gamma                90.842(3)
_cell_volume                     933.938
_exptl_crystal_colour            yellow
_exptl_crystal_description       plate
_cell_formula_units_Z            2
loop_
_atom_site_label
_atom_site_type_symbol
_atom_site_fract_x
_atom_site_fract_y
_atom_site_fract_z
N1 N 0.4366(3) 0.6858(3) 0.26707(13)
C1 C 0.5144(3) 0.5347(3) 0.26165(15)
Cl1 Cl 0.43696(9) 0.39613(9) 0.32321(4)
C2 C 0.6526(3) 0.4850(3) 0.21336(15)
C3 C 0.7134(3) 0.6058(3) 0.16870(15)
C4 C 0.6351(3) 0.7646(3) 0.17356(16)
C5 C 0.4981(3) 0.7992(3) 0.22355(16)
C6 C 0.7378(3) 0.3126(3) 0.21136(15)
O1 O 0.6603(2) 0.1760(2) 0.18064(11)
N2 N 0.9097(3) 0.3293(3) 0.25017(13)
N3 N 1.0178(3) 0.1851(2) 0.24758(12)
C7 C 1.0972(3) 0.1296(3) 0.17180(15)
C8 C 1.1079(3) -0.0451(3) 0.14428(15)
C9 C 1.1877(3) -0.0963(3) 0.07221(15)
N4 N 1.2042(3) -0.2814(3) 0.04422(14)
O2 O 1.1227(3) -0.3818(2) 0.07800(13)
O3 O 1.3006(3) -0.3275(3) -0.01064(13)
C10 C 1.2544(3) 0.0178(3) 0.02643(16)
C11 C 1.2375(3) 0.1923(3) 0.05439(16)
C12 C 1.1601(3) 0.2479(3) 0.12691(16)
C13 C 1.0781(3) 0.1285(3) 0.32211(15)
O4 O 1.2127(2) 0.0444(2) 0.32949(11)
N5 N 0.9130(3) 0.2394(3) 0.53495(13)
C14 C 1.0152(3) 0.2294(3) 0.47291(16)
Cl2 Cl 1.23392(9) 0.31684(9) 0.50258(4)
C15 C 0.9556(3) 0.1614(3) 0.38995(15)
C16 C 0.7766(3) 0.1030(3) 0.37153(17)
C17 C 0.6665(3) 0.1133(4) 0.43502(17)
C18 C 0.7399(3) 0.1801(4) 0.51493(17)
H1 H 0.8083 0.5793 0.1350
H2 H 0.6747 0.8482 0.1431
H3 H 0.4452 0.9087 0.2272
H4 H 0.9630 0.4308 0.2634
H5 H 1.0620 -0.1271 0.1739
H6 H 1.3099 -0.0218 -0.0226
H7 H 1.2794 0.2740 0.0235
H8 H 1.1500 0.3676 0.1460
H9 H 0.7293 0.0560 0.3154
H10 H 0.5431 0.0748 0.4232
H11 H 0.6652 0.1852 0.5587
O5 O 0.0590(2) 0.6577(2) 0.29033(11)
H12 H 0.1699 0.6752 0.2886
H13 H 0.0574 0.6803 0.3426
loop_
_geom_bond_atom_site_label_1
_geom_bond_atom_site_label_2
_geom_bond_site_symmetry_1
_geom_bond_site_symmetry_2
N1 C1 1_555 1_555
C1 Cl1 1_555 1_555
C2 C1 1_555 1_555
C3 C2 1_555 1_555
C4 C3 1_555 1_555
C5 N1 1_555 1_555
C6 C2 1_555 1_555
O1 C6 1_555 1_555
N2 C6 1_555 1_555
N3 N2 1_555 1_555
C7 N3 1_555 1_555
C8 C7 1_555 1_555
C9 C8 1_555 1_555
N4 C9 1_555 1_555
O2 N4 1_555 1_555
O3 N4 1_555 1_555
C10 C9 1_555 1_555
C11 C10 1_555 1_555
C12 C7 1_555 1_555
C13 N3 1_555 1_555
O4 C13 1_555 1_555
N5 C14 1_555 1_555
C14 Cl2 1_555 1_555
C15 C13 1_555 1_555
C16 C15 1_555 1_555
C17 C16 1_555 1_555
C18 N5 1_555 1_555
O5 H12 1_555 1_555
H1 C3 1_555 1_555
H2 C4 1_555 1_555
H3 C5 1_555 1_555
H4 N2 1_555 1_555
H5 C8 1_555 1_555
H6 C10 1_555 1_555
H7 C11 1_555 1_555
H8 C12 1_555 1_555
H9 C16 1_555 1_555
H10 C17 1_555 1_555
H11 C18 1_555 1_555
H13 O5 1_555 1_555
C4 C5 1_555 1_555
C11 C12 1_555 1_555
C14 C15 1_555 1_555
C17 C18 1_555 1_555

#END
