
#######################################################################
#
#                 Cambridge Crystallographic Data Centre
#                                CCDC 
#
#######################################################################
#
# If this CIF has been generated from an entry in the Cambridge 
# Structural Database, then it will include bibliographic, chemical, 
# crystal, experimental, refinement or atomic coordinate data resulting 
# from the CCDC's data processing and validation procedures.
#
#######################################################################

data_UCOHUS
_chemical_formula_moiety         'C33 H23 B1 N4,C6 H6'
_chemical_name_systematic        
'[7,12-diphenyl-16,17,18-triazatetracyclo[11.2.1.1^3,6^.1^8,11^]octadeca-1,3,5,7,9,11,13(16),14-octaen-2-aminato](phenyl)boron benzene solvate'
_symmetry_cell_setting           triclinic
_symmetry_space_group_name_H-M   'P -1'
_symmetry_Int_Tables_number      2
_space_group_name_Hall           '-P 1'
loop_
_symmetry_equiv_pos_site_id
_symmetry_equiv_pos_as_xyz
1 x,y,z
2 -x,-y,-z
_cell_length_a                   8.2710(9)
_cell_length_b                   9.9486(17)
_cell_length_c                   17.759(2)
_cell_angle_alpha                84.563(14)
_cell_angle_beta                 77.765(9)
_cell_angle_gamma                81.993(15)
_cell_volume                     1410.97
_exptl_crystal_colour            pink
_exptl_crystal_description       prism
_cell_formula_units_Z            2
loop_
_atom_site_label
_atom_site_type_symbol
_atom_site_fract_x
_atom_site_fract_y
_atom_site_fract_z
C1 C 0.2940(2) 0.32605(18) 0.20374(10)
C2 C 0.2347(2) 0.33902(19) 0.13262(10)
H1 H 0.2807 0.3877 0.0862
C3 C 0.0983(2) 0.26775(19) 0.14411(11)
H2 H 0.0337 0.2598 0.1068
C4 C 0.0711(2) 0.20865(18) 0.22086(10)
C5 C -0.0635(2) 0.15103(18) 0.27070(11)
C6 C -0.0766(2) 0.15174(18) 0.35193(11)
C7 C -0.2141(2) 0.16080(19) 0.41468(11)
H3 H -0.3242 0.1446 0.4138
C8 C -0.1609(2) 0.19708(19) 0.47719(11)
H4 H -0.2274 0.2105 0.5272
C9 C 0.0132(2) 0.21115(17) 0.45343(10)
C10 C 0.1203(2) 0.27930(17) 0.48704(10)
C11 C 0.2562(2) 0.33189(17) 0.43627(9)
C12 C 0.3605(2) 0.43577(19) 0.43957(10)
H5 H 0.3704 0.4746 0.4850
C13 C 0.4416(2) 0.46808(19) 0.36667(10)
H6 H 0.5168 0.5344 0.3524
C14 C 0.3947(2) 0.38500(17) 0.31462(10)
C15 C 0.4082(2) 0.39304(18) 0.23341(10)
C16 C 0.0673(2) 0.30732(18) 0.56913(10)
C17 C -0.0026(2) 0.20766(19) 0.62263(10)
H7 H -0.0089 0.1210 0.6059
C18 C -0.0622(2) 0.2333(2) 0.69912(11)
H8 H -0.1102 0.1649 0.7344
C19 C -0.0523(2) 0.3582(2) 0.72450(11)
H9 H -0.0938 0.3760 0.7772
C20 C 0.0180(2) 0.4572(2) 0.67316(11)
H10 H 0.0263 0.5426 0.6909
C21 C 0.0764(2) 0.43328(18) 0.59622(10)
H11 H 0.1231 0.5028 0.5614
C22 C 0.5213(2) 0.48214(18) 0.18333(10)
C23 C 0.6854(2) 0.47569(19) 0.19127(11)
H12 H 0.7240 0.4157 0.2304
C24 C 0.7943(2) 0.5560(2) 0.14264(11)
H13 H 0.9065 0.5503 0.1487
C25 C 0.7400(2) 0.6441(2) 0.08549(11)
H14 H 0.8153 0.6973 0.0515
C26 C 0.5759(2) 0.6543(2) 0.07814(11)
H15 H 0.5371 0.7164 0.0399
C27 C 0.4680(2) 0.57428(19) 0.12637(10)
H16 H 0.3553 0.5820 0.1208
C28 C 0.3603(2) 0.04610(17) 0.32579(10)
C29 C 0.4164(2) -0.02216(19) 0.25827(11)
H17 H 0.3731 0.0107 0.2136
C30 C 0.5342(2) -0.1373(2) 0.25449(12)
H18 H 0.5697 -0.1823 0.2079
C31 C 0.5992(2) -0.18589(18) 0.31873(11)
H19 H 0.6806 -0.2636 0.3163
C32 C 0.5453(2) -0.12097(19) 0.38649(11)
H20 H 0.5891 -0.1545 0.4309
C33 C 0.4275(2) -0.00699(19) 0.38983(10)
H21 H 0.3913 0.0363 0.4370
N1 N 0.19747(17) 0.24187(15) 0.25234(8)
N2 N 0.05937(17) 0.17627(14) 0.37948(8)
N3 N 0.29316(17) 0.30020(14) 0.36071(8)
N4 N -0.1899(2) 0.11292(18) 0.24259(11)
H22 H -0.175(3) 0.108(2) 0.1907(14)
B1 B 0.2315(2) 0.1850(2) 0.32978(11)
H23 H -0.276(3) 0.071(3) 0.2773(14)
C34 C 0.1572(3) -0.0785(3) 0.07303(15)
H24 H 0.1029 -0.0422 0.1208
C35 C 0.2589(4) -0.0060(3) 0.02085(15)
H25 H 0.2776 0.0811 0.0326
C36 C 0.3349(3) -0.0540(3) -0.04755(14)
H26 H 0.4023 0.0020 -0.0839
C37 C 0.3194(3) -0.1765(3) -0.06621(15)
H27 H 0.3775 -0.2083 -0.1146
C38 C 0.2182(5) -0.2582(3) -0.0151(2)
H28 H 0.2061 -0.3467 -0.0274
C39 C 0.1317(4) -0.2053(4) 0.05725(19)
H29 H 0.0584 -0.2571 0.0933
loop_
_geom_bond_atom_site_label_1
_geom_bond_atom_site_label_2
_geom_bond_site_symmetry_1
_geom_bond_site_symmetry_2
C1 C2 1_555 1_555
C2 H1 1_555 1_555
C3 C2 1_555 1_555
H2 C3 1_555 1_555
C4 C3 1_555 1_555
C5 C4 1_555 1_555
C6 C5 1_555 1_555
C7 C6 1_555 1_555
H3 C7 1_555 1_555
C8 C7 1_555 1_555
H4 C8 1_555 1_555
C9 C8 1_555 1_555
C10 C9 1_555 1_555
C11 C10 1_555 1_555
C12 C11 1_555 1_555
H5 C12 1_555 1_555
C13 C12 1_555 1_555
H6 C13 1_555 1_555
C14 C13 1_555 1_555
C15 C1 1_555 1_555
C16 C10 1_555 1_555
C17 C16 1_555 1_555
H7 C17 1_555 1_555
C18 C17 1_555 1_555
H8 C18 1_555 1_555
C19 C18 1_555 1_555
H9 C19 1_555 1_555
C20 C19 1_555 1_555
H10 C20 1_555 1_555
C21 C16 1_555 1_555
H11 C21 1_555 1_555
C22 C15 1_555 1_555
C23 C22 1_555 1_555
H12 C23 1_555 1_555
C24 C23 1_555 1_555
H13 C24 1_555 1_555
C25 C24 1_555 1_555
H14 C25 1_555 1_555
C26 C25 1_555 1_555
H15 C26 1_555 1_555
C27 C22 1_555 1_555
H16 C27 1_555 1_555
C28 C29 1_555 1_555
C29 H17 1_555 1_555
C30 C29 1_555 1_555
H18 C30 1_555 1_555
C31 C30 1_555 1_555
H19 C31 1_555 1_555
C32 C31 1_555 1_555
H20 C32 1_555 1_555
C33 C28 1_555 1_555
H21 C33 1_555 1_555
N1 C1 1_555 1_555
N2 C6 1_555 1_555
N3 C11 1_555 1_555
N4 C5 1_555 1_555
H22 N4 1_555 1_555
B1 C28 1_555 1_555
H23 N4 1_555 1_555
C34 H24 1_555 1_555
C35 C34 1_555 1_555
H25 C35 1_555 1_555
C36 C35 1_555 1_555
H26 C36 1_555 1_555
C37 C36 1_555 1_555
H27 C37 1_555 1_555
C38 C37 1_555 1_555
H28 C38 1_555 1_555
C39 C34 1_555 1_555
H29 C39 1_555 1_555
C4 N1 1_555 1_555
C9 N2 1_555 1_555
C14 C15 1_555 1_555
C14 N3 1_555 1_555
C20 C21 1_555 1_555
C26 C27 1_555 1_555
C32 C33 1_555 1_555
N1 B1 1_555 1_555
N2 B1 1_555 1_555
N3 B1 1_555 1_555
C38 C39 1_555 1_555

#END
