
#######################################################################
#
#                 Cambridge Crystallographic Data Centre
#                                CCDC 
#
#######################################################################
#
# If this CIF has been generated from an entry in the Cambridge 
# Structural Database, then it will include bibliographic, chemical, 
# crystal, experimental, refinement or atomic coordinate data resulting 
# from the CCDC's data processing and validation procedures.
#
#######################################################################

data_UCOKUT
_chemical_compound_source        
'stem bark of Warburgia ugandensis Sprague (Canellaceae)'
_chemical_name_common            'Cinnamolide-3beta-ol hemihydrate'
_chemical_formula_moiety         'C15 H22 O3,0.5(H2 O1)'
_chemical_name_systematic        '3\b-Hydroxy-7-drimen-12,11-olide hemihydrate'
_symmetry_cell_setting           monoclinic
_symmetry_space_group_name_H-M   'P 21'
_symmetry_Int_Tables_number      4
_space_group_name_Hall           'P 2yb'
loop_
_symmetry_equiv_pos_site_id
_symmetry_equiv_pos_as_xyz
1 x,y,z
2 -x,1/2+y,-z
_cell_length_a                   12.875(3)
_cell_length_b                   6.153(2)
_cell_length_c                   18.268(4)
_cell_angle_alpha                90
_cell_angle_beta                 106.031(16)
_cell_angle_gamma                90
_cell_volume                     1390.91
_exptl_crystal_colour            colorless
_exptl_crystal_description       prism
_cell_formula_units_Z            4
_exptl_crystal_recrystallization_method acetone/hexane
loop_
_atom_site_label
_atom_site_type_symbol
_atom_site_fract_x
_atom_site_fract_y
_atom_site_fract_z
O1 O 0.53239(11) 0.8344(3) 1.01792(8)
O2 O 0.37960(12) 0.8405(3) 0.92329(10)
O3 O 1.01372(13) 0.5682(3) 0.83070(10)
H1 H 1.055(2) 0.678(6) 0.8468(16)
C1 C 0.86114(14) 0.7138(4) 0.97246(10)
H2 H 0.8824 0.7966 1.0208
H3 H 0.8478 0.5615 0.9849
C2 C 0.95405(15) 0.7185(4) 0.93584(10)
H4 H 0.9713 0.8709 0.9263
H5 H 1.0191 0.6522 0.9708
C3 C 0.92312(16) 0.5942(4) 0.86133(11)
H6 H 0.9013 0.4451 0.8731
C4 C 0.82503(16) 0.6933(4) 0.80198(10)
C5 C 0.73066(15) 0.7079(3) 0.83992(9)
H7 H 0.7119 0.5532 0.8472
C6 C 0.62630(16) 0.8045(4) 0.78670(10)
H8 H 0.6426 0.9493 0.7690
H9 H 0.6013 0.7098 0.7414
C7 C 0.53695(16) 0.8271(4) 0.82450(11)
H10 H 0.4669 0.8688 0.7949
C8 C 0.55391(15) 0.7902(3) 0.89770(11)
C9 C 0.66147(14) 0.7336(3) 0.95175(9)
H11 H 0.6657 0.5718 0.9570
C10 C 0.75600(14) 0.8099(3) 0.92124(9)
C11 C 0.64940(15) 0.8286(4) 1.02673(10)
H12 H 0.6864 0.7355 1.0704
H13 H 0.6805 0.9766 1.0352
C12 C 0.47787(17) 0.8244(4) 0.94392(12)
C13 C 0.7910(2) 0.5376(4) 0.73353(12)
H14 H 0.7321 0.6032 0.6938
H15 H 0.7665 0.3998 0.7499
H16 H 0.8528 0.5108 0.7133
C14 C 0.85720(19) 0.9103(4) 0.77220(12)
H17 H 0.8874 1.0079 0.8152
H18 H 0.7932 0.9777 0.7377
H19 H 0.9114 0.8834 0.7447
C15 C 0.76189(16) 1.0592(4) 0.92026(11)
H20 H 0.7790 1.1144 0.9726
H21 H 0.6921 1.1179 0.8908
H22 H 0.8183 1.1044 0.8968
O4 O 0.46672(11) 0.6360(3) 0.50293(8)
O5 O 0.37074(12) 0.5687(4) 0.38312(7)
O6 O 0.10653(15) 0.2489(3) 0.77540(9)
H23 H 0.072(2) 0.334(6) 0.7943(15)
C16 C 0.33611(17) 0.4662(4) 0.70622(10)
H24 H 0.4152 0.4571 0.7290
H25 H 0.3157 0.6218 0.7035
C17 C 0.27970(17) 0.3486(4) 0.75802(10)
H26 H 0.3049 0.1960 0.7649
H27 H 0.2987 0.4194 0.8087
C18 C 0.15803(17) 0.3530(4) 0.72424(11)
H28 H 0.1345 0.5085 0.7190
C19 C 0.11959(17) 0.2460(4) 0.64484(12)
C20 C 0.18268(15) 0.3543(4) 0.59266(10)
H29 H 0.1565 0.5080 0.5867
C21 C 0.15093(16) 0.2614(4) 0.51106(11)
H30 H 0.1602 0.1016 0.5138
H31 H 0.0735 0.2920 0.4871
C22 C 0.21586(16) 0.3525(4) 0.46151(10)
H32 H 0.1958 0.3193 0.4087
C23 C 0.30057(16) 0.4783(4) 0.49016(10)
C24 C 0.34082(15) 0.5409(3) 0.57263(10)
H33 H 0.3067 0.6828 0.5793
C25 C 0.30801(15) 0.3729(3) 0.62499(10)
C26 C 0.46115(16) 0.5840(4) 0.58015(10)
H34 H 0.4880 0.7071 0.6151
H35 H 0.5051 0.4537 0.5999
C27 C 0.37772(17) 0.5612(4) 0.45014(11)
C28 C -0.00170(16) 0.2957(4) 0.61230(13)
H36 H -0.0408 0.2464 0.6483
H37 H -0.0296 0.2198 0.5637
H38 H -0.0119 0.4526 0.6043
C29 C 0.13066(18) -0.0031(4) 0.65216(13)
H39 H 0.2029 -0.0402 0.6843
H40 H 0.1201 -0.0673 0.6015
H41 H 0.0760 -0.0601 0.6753
C30 C 0.36673(16) 0.1566(3) 0.62423(12)
H42 H 0.4443 0.1764 0.6478
H43 H 0.3549 0.1076 0.5715
H44 H 0.3385 0.0475 0.6528
O7 O 0.15716(15) 0.8841(4) 0.85921(11)
H45 H 0.229(3) 0.859(7) 0.8750(17)
H46 H 0.149(3) 0.998(7) 0.8288(19)
loop_
_geom_bond_atom_site_label_1
_geom_bond_atom_site_label_2
_geom_bond_site_symmetry_1
_geom_bond_site_symmetry_2
O1 C11 1_555 1_555
O2 C12 1_555 1_555
O3 H1 1_555 1_555
C1 H2 1_555 1_555
H3 C1 1_555 1_555
C2 C1 1_555 1_555
H4 C2 1_555 1_555
H5 C2 1_555 1_555
C3 O3 1_555 1_555
H6 C3 1_555 1_555
C4 C3 1_555 1_555
C5 C4 1_555 1_555
H7 C5 1_555 1_555
C6 C5 1_555 1_555
H8 C6 1_555 1_555
H9 C6 1_555 1_555
C7 C6 1_555 1_555
H10 C7 1_555 1_555
C8 C7 1_555 1_555
C9 C8 1_555 1_555
H11 C9 1_555 1_555
C10 C1 1_555 1_555
C11 C9 1_555 1_555
H12 C11 1_555 1_555
H13 C11 1_555 1_555
C12 O1 1_555 1_555
C13 C4 1_555 1_555
H14 C13 1_555 1_555
H15 C13 1_555 1_555
H16 C13 1_555 1_555
C14 C4 1_555 1_555
H17 C14 1_555 1_555
H18 C14 1_555 1_555
H19 C14 1_555 1_555
C15 C10 1_555 1_555
H20 C15 1_555 1_555
H21 C15 1_555 1_555
H22 C15 1_555 1_555
O4 C26 1_555 1_555
O5 C27 1_555 1_555
O6 H23 1_555 1_555
C16 H24 1_555 1_555
H25 C16 1_555 1_555
C17 C16 1_555 1_555
H26 C17 1_555 1_555
H27 C17 1_555 1_555
C18 O6 1_555 1_555
H28 C18 1_555 1_555
C19 C18 1_555 1_555
C20 C19 1_555 1_555
H29 C20 1_555 1_555
C21 C20 1_555 1_555
H30 C21 1_555 1_555
H31 C21 1_555 1_555
C22 C21 1_555 1_555
H32 C22 1_555 1_555
C23 C22 1_555 1_555
C24 C23 1_555 1_555
H33 C24 1_555 1_555
C25 C16 1_555 1_555
C26 C24 1_555 1_555
H34 C26 1_555 1_555
H35 C26 1_555 1_555
C27 O4 1_555 1_555
C28 C19 1_555 1_555
H36 C28 1_555 1_555
H37 C28 1_555 1_555
H38 C28 1_555 1_555
C29 C19 1_555 1_555
H39 C29 1_555 1_555
H40 C29 1_555 1_555
H41 C29 1_555 1_555
C30 C25 1_555 1_555
H42 C30 1_555 1_555
H43 C30 1_555 1_555
H44 C30 1_555 1_555
O7 H45 1_555 1_555
H46 O7 1_555 1_555
C2 C3 1_555 1_555
C5 C10 1_555 1_555
C8 C12 1_555 1_555
C9 C10 1_555 1_555
C17 C18 1_555 1_555
C20 C25 1_555 1_555
C23 C27 1_555 1_555
C24 C25 1_555 1_555

#END
