
#######################################################################
#
#                 Cambridge Crystallographic Data Centre
#                                CCDC 
#
#######################################################################
#
# If this CIF has been generated from an entry in the Cambridge 
# Structural Database, then it will include bibliographic, chemical, 
# crystal, experimental, refinement or atomic coordinate data resulting 
# from the CCDC's data processing and validation procedures.
#
#######################################################################

data_UCOMOP
_chemical_formula_moiety         'C38 H42 O2 Si2'
_chemical_name_systematic        
(3Z,9Z)-3,10-bis(trimethylsilyl)-4,9-diallyl-1,12-bis(4-methoxyphenyl)dodeca-3,9-dien-1,5,7,11-tetrayne
_symmetry_cell_setting           monoclinic
_symmetry_space_group_name_H-M   'P 21/c'
_symmetry_Int_Tables_number      14
_space_group_name_Hall           '-P 2ybc'
loop_
_symmetry_equiv_pos_site_id
_symmetry_equiv_pos_as_xyz
1 x,y,z
2 -x,1/2+y,1/2-z
3 -x,-y,-z
4 x,1/2-y,1/2+z
_cell_length_a                   19.596(2)
_cell_length_b                   7.5959(9)
_cell_length_c                   12.4831(14)
_cell_angle_alpha                90
_cell_angle_beta                 107.840(2)
_cell_angle_gamma                90
_cell_volume                     1768.75
_exptl_crystal_colour            green
_cell_formula_units_Z            2
loop_
_atom_site_label
_atom_site_type_symbol
_atom_site_fract_x
_atom_site_fract_y
_atom_site_fract_z
Si1 Si 0.72353(3) 0.66878(7) 1.03108(5)
O1 O 0.99498(7) 0.34162(18) 0.59556(12)
C1 C 0.52707(9) 0.4843(2) 0.97713(16)
C2 C 0.57561(9) 0.4570(2) 0.94006(17)
C3 C 0.62867(9) 0.4141(2) 0.88785(15)
C4 C 0.69484(9) 0.4887(2) 0.92126(14)
C5 C 0.74475(9) 0.4438(2) 0.86295(15)
C6 C 0.78931(9) 0.4173(2) 0.81752(15)
C7 C 0.84318(9) 0.3917(2) 0.76368(15)
C8 C 0.91296(9) 0.4482(2) 0.81477(16)
H1 H 0.9248 0.4977 0.8863
C9 C 0.96517(9) 0.4327(2) 0.76234(16)
H2 H 1.0116 0.4711 0.7984
C10 C 0.94828(9) 0.3603(2) 0.65622(16)
C11 C 0.87938(9) 0.3007(2) 0.60481(16)
H3 H 0.8680 0.2494 0.5339
C12 C 0.82776(9) 0.3164(2) 0.65693(16)
H4 H 0.7816 0.2762 0.6207
C13 C 0.60331(11) 0.2914(3) 0.7880(2)
C14 C 0.56274(14) 0.3825(4) 0.6821(2)
C15 C 0.55343(16) 0.5470(5) 0.6635(3)
C16 C 1.06333(10) 0.4224(3) 0.6377(2)
H5 H 1.0574 0.5448 0.6518
H6 H 1.0887 0.4112 0.5833
H7 H 1.0901 0.3659 0.7065
C17 C 0.66959(11) 0.8673(3) 0.9730(2)
H8 H 0.6195 0.8394 0.9542
H9 H 0.6803 0.9055 0.9067
H10 H 0.6810 0.9596 1.0282
C18 C 0.81966(10) 0.7111(3) 1.05009(19)
H11 H 0.8364 0.8039 1.1040
H12 H 0.8256 0.7454 0.9794
H13 H 0.8468 0.6061 1.0767
C19 C 0.71140(12) 0.6034(3) 1.16737(17)
H14 H 0.7403 0.5018 1.1963
H15 H 0.6619 0.5758 1.1563
H16 H 0.7257 0.6986 1.2200
H17 H 0.5742(10) 0.196(3) 0.8078(16)
H18 H 0.6426(9) 0.238(2) 0.7812(15)
H19 H 0.5229(16) 0.598(4) 0.581(3)
H20 H 0.5735(11) 0.626(3) 0.723(2)
H21 H 0.5425(14) 0.305(4) 0.617(3)
Si1B Si 0.27647(3) 0.33122(7) 0.96892(5)
O1B O 0.00502(7) 0.65838(18) 1.40444(12)
C1B C 0.47293(9) 0.5157(2) 1.02287(16)
C2B C 0.42439(9) 0.5430(2) 1.05994(17)
C3B C 0.37133(9) 0.5859(2) 1.11215(15)
C4B C 0.30516(9) 0.5113(2) 1.07874(14)
C5B C 0.25525(9) 0.5562(2) 1.13705(15)
C6B C 0.21069(9) 0.5827(2) 1.18248(15)
C7B C 0.15682(9) 0.6083(2) 1.23632(15)
C8B C 0.08704(9) 0.5518(2) 1.18523(16)
H1B H 0.0752 0.5023 1.1137
C9B C 0.03483(9) 0.5673(2) 1.23766(16)
H2B H -0.0116 0.5289 1.2016
C10B C 0.05172(9) 0.6397(2) 1.34378(16)
C11B C 0.12062(9) 0.6993(2) 1.39519(16)
H3B H 0.1320 0.7506 1.4661
C12B C 0.17224(9) 0.6836(2) 1.34307(16)
H4B H 0.2184 0.7238 1.3793
C13B C 0.39669(11) 0.7086(3) 1.2120(2)
C14B C 0.43726(14) 0.6175(4) 1.3179(2)
C15B C 0.44657(16) 0.4530(5) 1.3365(3)
C16B C -0.06333(10) 0.5776(3) 1.3623(2)
H5B H -0.0574 0.4552 1.3482
H6B H -0.0887 0.5888 1.4167
H7B H -0.0901 0.6341 1.2935
C17B C 0.33041(11) 0.1327(3) 1.0270(2)
H8B H 0.3805 0.1606 1.0458
H9B H 0.3197 0.0945 1.0933
H10B H 0.3190 0.0404 0.9718
C18B C 0.18034(10) 0.2889(3) 0.94991(19)
H11B H 0.1636 0.1961 0.8960
H12B H 0.1744 0.2546 1.0206
H13B H 0.1532 0.3939 0.9233
C19B C 0.28860(12) 0.3966(3) 0.83263(17)
H14B H 0.2597 0.4982 0.8037
H15B H 0.3381 0.4242 0.8437
H16B H 0.2743 0.3014 0.7800
H17B H 0.4258(10) 0.804(3) 1.1922(16)
H18B H 0.3574(9) 0.762(2) 1.2188(15)
H19B H 0.4771(16) 0.402(4) 1.419(3)
H20B H 0.4265(11) 0.374(3) 1.277(2)
H21B H 0.4575(14) 0.695(4) 1.383(3)
loop_
_geom_bond_atom_site_label_1
_geom_bond_atom_site_label_2
_geom_bond_site_symmetry_1
_geom_bond_site_symmetry_2
Si1 C4 1_555 1_555
O1 C10 1_555 1_555
C1 C2 1_555 1_555
C2 C3 1_555 1_555
C3 C4 1_555 1_555
C4 C5 1_555 1_555
C5 C6 1_555 1_555
C6 C7 1_555 1_555
C7 C8 1_555 1_555
C8 H1 1_555 1_555
C9 C8 1_555 1_555
H2 C9 1_555 1_555
C10 C9 1_555 1_555
C11 C10 1_555 1_555
H3 C11 1_555 1_555
C12 C7 1_555 1_555
H4 C12 1_555 1_555
C13 C3 1_555 1_555
C14 C13 1_555 1_555
C15 C14 1_555 1_555
C16 O1 1_555 1_555
H5 C16 1_555 1_555
H6 C16 1_555 1_555
H7 C16 1_555 1_555
C17 Si1 1_555 1_555
H8 C17 1_555 1_555
H9 C17 1_555 1_555
H10 C17 1_555 1_555
C18 Si1 1_555 1_555
H11 C18 1_555 1_555
H12 C18 1_555 1_555
H13 C18 1_555 1_555
C19 Si1 1_555 1_555
H14 C19 1_555 1_555
H15 C19 1_555 1_555
H16 C19 1_555 1_555
H17 C13 1_555 1_555
H18 C13 1_555 1_555
H19 C15 1_555 1_555
H20 C15 1_555 1_555
H21 C14 1_555 1_555
Si1B C4B 1_555 1_555
O1B C10B 1_555 1_555
C1B C1 1_555 1_555
C2B C1B 1_555 1_555
C3B C2B 1_555 1_555
C4B C3B 1_555 1_555
C5B C4B 1_555 1_555
C6B C5B 1_555 1_555
C7B C6B 1_555 1_555
C8B C7B 1_555 1_555
H1B C8B 1_555 1_555
C9B C8B 1_555 1_555
H2B C9B 1_555 1_555
C10B C9B 1_555 1_555
C11B C10B 1_555 1_555
H3B C11B 1_555 1_555
C12B C7B 1_555 1_555
H4B C12B 1_555 1_555
C13B C3B 1_555 1_555
C14B C13B 1_555 1_555
C15B C14B 1_555 1_555
C16B O1B 1_555 1_555
H5B C16B 1_555 1_555
H6B C16B 1_555 1_555
H7B C16B 1_555 1_555
C17B Si1B 1_555 1_555
H8B C17B 1_555 1_555
H9B C17B 1_555 1_555
H10B C17B 1_555 1_555
C18B Si1B 1_555 1_555
H11B C18B 1_555 1_555
H12B C18B 1_555 1_555
H13B C18B 1_555 1_555
C19B Si1B 1_555 1_555
H14B C19B 1_555 1_555
H15B C19B 1_555 1_555
H16B C19B 1_555 1_555
H17B C13B 1_555 1_555
H18B C13B 1_555 1_555
H19B C15B 1_555 1_555
H20B C15B 1_555 1_555
H21B C14B 1_555 1_555
C11 C12 1_555 1_555
C11B C12B 1_555 1_555

#END
