
#######################################################################
#
#                 Cambridge Crystallographic Data Centre
#                                CCDC 
#
#######################################################################
#
# If this CIF has been generated from an entry in the Cambridge 
# Structural Database, then it will include bibliographic, chemical, 
# crystal, experimental, refinement or atomic coordinate data resulting 
# from the CCDC's data processing and validation procedures.
#
#######################################################################

data_UCOPIO
_chemical_name_common            
4-benzyl-3-(2-diazo-2-(4-oxo-6-p-tolyl-4H-pyran-2-yl)acetyl)oxazolidin-2-one
_chemical_formula_moiety         'C24 H19 N3 O5'
_chemical_name_systematic        
4-benzyl-3-{diazo[6-(4-methylphenyl)-4-oxo-4H-pyran-2-yl]acetyl}-1,3-oxazolidin-2-one
_symmetry_cell_setting           monoclinic
_symmetry_space_group_name_H-M   'P 21'
_symmetry_Int_Tables_number      4
_space_group_name_Hall           'P 2yb'
loop_
_symmetry_equiv_pos_site_id
_symmetry_equiv_pos_as_xyz
1 x,y,z
2 -x,1/2+y,-z
_cell_length_a                   11.1888(2)
_cell_length_b                   8.7993(2)
_cell_length_c                   20.7048(4)
_cell_angle_alpha                90
_cell_angle_beta                 93.3050(10)
_cell_angle_gamma                90
_cell_volume                     2035.07
_exptl_crystal_colour            yellow
_exptl_crystal_description       Block
_cell_formula_units_Z            4
loop_
_atom_site_label
_atom_site_type_symbol
_atom_site_fract_x
_atom_site_fract_y
_atom_site_fract_z
O1 O 0.52321(9) 0.50683(13) 0.77240(5)
O2 O 0.37758(9) 0.35359(14) 0.80438(5)
O3 O 0.66906(9) 0.08794(13) 0.86830(5)
O4 O 0.34468(9) -0.02275(12) 0.95339(5)
O5 O 0.51345(9) -0.42186(13) 0.92320(5)
N1 N 0.57986(10) 0.30353(15) 0.83030(6)
N2 N 0.40735(11) 0.23590(15) 0.92286(6)
N3 N 0.35080(12) 0.32402(17) 0.94582(6)
C1 C 0.94890(14) 0.2742(2) 0.74757(8)
H1 H 0.9509 0.2174 0.7855
C2 C 1.05510(15) 0.3177(3) 0.72144(9)
H2 H 1.1279 0.2916 0.7424
C3 C 1.05351(16) 0.3999(2) 0.66427(9)
H3 H 1.1249 0.4277 0.6466
C4 C 0.94565(18) 0.4400(2) 0.63400(9)
H4 H 0.9438 0.4942 0.5954
C5 C 0.83983(15) 0.3999(2) 0.66083(7)
H5 H 0.7674 0.4304 0.6406
C6 C 0.83940(13) 0.31518(18) 0.71730(7)
C7 C 0.72304(13) 0.2651(2) 0.74406(7)
H6 H 0.7291 0.1587 0.7562
H7 H 0.6592 0.2747 0.7106
C8 C 0.69114(12) 0.35854(19) 0.80314(7)
H8 H 0.7575 0.3584 0.8362
C9 C 0.65135(13) 0.52032(19) 0.78694(8)
H9 H 0.6683 0.5876 0.8234
H10 H 0.6912 0.5587 0.7499
C10 C 0.48226(13) 0.38448(18) 0.80347(7)
C11 C 0.58028(13) 0.16791(18) 0.86475(7)
C12 C 0.47397(13) 0.12745(18) 0.89908(7)
C13 C 0.44563(13) -0.02591(18) 0.91940(7)
C14 C 0.50325(13) -0.15607(19) 0.90717(7)
H11 H 0.5702 -0.1538 0.8826
C15 C 0.46202(13) -0.29958(18) 0.93188(7)
C16 C 0.35699(13) -0.28784(18) 0.97018(7)
H12 H 0.3265 -0.3753 0.9884
C17 C 0.30330(13) -0.15463(18) 0.97984(7)
C18 C 0.19799(13) -0.12325(18) 1.01717(7)
C19 C 0.11096(13) -0.23386(19) 1.02459(7)
H13 H 0.1193 -0.3294 1.0062
C20 C 0.01166(14) -0.2017(2) 1.05940(7)
H14 H -0.0465 -0.2761 1.0635
C21 C -0.00291(13) -0.06180(19) 1.08818(7)
C22 C 0.08545(13) 0.0478(2) 1.08094(7)
H15 H 0.0779 0.1424 1.1003
C23 C 0.18392(14) 0.01869(19) 1.04555(7)
H16 H 0.2410 0.0941 1.0407
C24 C -0.10976(14) -0.0264(2) 1.12689(8)
H17 H -0.1591 0.0480 1.1043
H18 H -0.0828 0.0128 1.1685
H19 H -0.1553 -0.1174 1.1325
O6 O 0.45315(9) 1.01567(13) 0.74572(5)
O7 O 0.59773(9) 0.85682(14) 0.71703(5)
O8 O 0.30634(9) 0.59595(13) 0.65176(6)
O9 O 0.61231(10) 0.49530(13) 0.55059(5)
O10 O 0.47072(10) 0.08842(14) 0.59538(6)
N4 N 0.39608(10) 0.81173(15) 0.68888(6)
N5 N 0.56864(12) 0.74770(16) 0.59667(6)
N6 N 0.62794(13) 0.83620(18) 0.57699(7)
C25 C 0.02333(14) 0.7669(2) 0.74388(7)
H20 H 0.0419 0.7107 0.7078
C26 C -0.09461(15) 0.7949(2) 0.75479(8)
H21 H -0.1545 0.7573 0.7262
C27 C -0.12478(16) 0.8780(2) 0.80762(10)
H22 H -0.2047 0.8969 0.8149
C28 C -0.03559(18) 0.9327(2) 0.84956(9)
H23 H -0.0555 0.9886 0.8855
C29 C 0.08479(16) 0.9055(2) 0.83899(8)
H24 H 0.1444 0.9439 0.8676
C30 C 0.11533(13) 0.82057(18) 0.78549(7)
C31 C 0.24358(13) 0.7842(2) 0.77174(8)
H25 H 0.2510 0.6760 0.7640
H26 H 0.2955 0.8099 0.8093
C32 C 0.28401(13) 0.87171(19) 0.71283(7)
H27 H 0.2205 0.8726 0.6782
C33 C 0.32551(13) 1.03295(19) 0.72888(8)
H28 H 0.3119 1.0996 0.6919
H29 H 0.2841 1.0736 0.7650
C34 C 0.49373(13) 0.89081(19) 0.71644(7)
C35 C 0.39450(13) 0.67657(19) 0.65403(7)
C36 C 0.49791(14) 0.63813(18) 0.61722(8)
C37 C 0.52181(13) 0.48762(19) 0.59222(7)
C38 C 0.47037(14) 0.35491(19) 0.60744(7)
H30 H 0.4078 0.3542 0.6351
C39 C 0.51191(14) 0.21356(19) 0.58097(8)
C40 C 0.60873(14) 0.2293(2) 0.53722(8)
H31 H 0.6382 0.1428 0.5178
C41 C 0.65656(14) 0.36501(19) 0.52407(7)
C42 C 0.76067(14) 0.3993(2) 0.48657(7)
C43 C 0.83755(16) 0.2849(2) 0.46871(8)
H32 H 0.8193 0.1839 0.4771
C44 C 0.94186(16) 0.3202(2) 0.43827(8)
H33 H 0.9922 0.2419 0.4267
C45 C 0.97223(14) 0.4682(2) 0.42490(7)
C46 C 0.89291(15) 0.5823(2) 0.44155(8)
H34 H 0.9100 0.6830 0.4319
C47 C 0.78958(15) 0.5487(2) 0.47200(8)
H35 H 0.7386 0.6269 0.4829
C48 C 1.08563(15) 0.5071(2) 0.39251(9)
H36 H 1.1417 0.4251 0.3984
H37 H 1.1198 0.5981 0.4114
H38 H 1.0676 0.5230 0.3471
loop_
_geom_bond_atom_site_label_1
_geom_bond_atom_site_label_2
_geom_bond_site_symmetry_1
_geom_bond_site_symmetry_2
O1 C9 1_555 1_555
O2 C10 1_555 1_555
O3 C11 1_555 1_555
O4 C13 1_555 1_555
O5 C15 1_555 1_555
N1 C8 1_555 1_555
N2 N3 1_555 1_555
C1 H1 1_555 1_555
C2 C1 1_555 1_555
H2 C2 1_555 1_555
C3 C2 1_555 1_555
H3 C3 1_555 1_555
C4 C3 1_555 1_555
H4 C4 1_555 1_555
C5 C4 1_555 1_555
H5 C5 1_555 1_555
C6 C1 1_555 1_555
C7 C6 1_555 1_555
H6 C7 1_555 1_555
H7 C7 1_555 1_555
C8 C7 1_555 1_555
H8 C8 1_555 1_555
C9 C8 1_555 1_555
H9 C9 1_555 1_555
H10 C9 1_555 1_555
C10 O1 1_555 1_555
C11 N1 1_555 1_555
C12 N2 1_555 1_555
C13 C12 1_555 1_555
C14 C13 1_555 1_555
H11 C14 1_555 1_555
C15 C14 1_555 1_555
C16 C15 1_555 1_555
H12 C16 1_555 1_555
C17 O4 1_555 1_555
C18 C17 1_555 1_555
C19 C18 1_555 1_555
H13 C19 1_555 1_555
C20 C19 1_555 1_555
H14 C20 1_555 1_555
C21 C20 1_555 1_555
C22 C21 1_555 1_555
H15 C22 1_555 1_555
C23 C18 1_555 1_555
H16 C23 1_555 1_555
C24 C21 1_555 1_555
H17 C24 1_555 1_555
H18 C24 1_555 1_555
H19 C24 1_555 1_555
O6 C33 1_555 1_555
O7 C34 1_555 1_555
O8 C35 1_555 1_555
O9 C37 1_555 1_555
O10 C39 1_555 1_555
N4 C32 1_555 1_555
N5 N6 1_555 1_555
C25 H20 1_555 1_555
C26 C25 1_555 1_555
H21 C26 1_555 1_555
C27 C26 1_555 1_555
H22 C27 1_555 1_555
C28 C27 1_555 1_555
H23 C28 1_555 1_555
C29 C28 1_555 1_555
H24 C29 1_555 1_555
C30 C25 1_555 1_555
C31 C30 1_555 1_555
H25 C31 1_555 1_555
H26 C31 1_555 1_555
C32 C31 1_555 1_555
H27 C32 1_555 1_555
C33 C32 1_555 1_555
H28 C33 1_555 1_555
H29 C33 1_555 1_555
C34 O6 1_555 1_555
C35 N4 1_555 1_555
C36 N5 1_555 1_555
C37 C36 1_555 1_555
C38 C37 1_555 1_555
H30 C38 1_555 1_555
C39 C38 1_555 1_555
C40 C39 1_555 1_555
H31 C40 1_555 1_555
C41 O9 1_555 1_555
C42 C41 1_555 1_555
C43 C42 1_555 1_555
H32 C43 1_555 1_555
C44 C43 1_555 1_555
H33 C44 1_555 1_555
C45 C44 1_555 1_555
C46 C45 1_555 1_555
H34 C46 1_555 1_555
C47 C42 1_555 1_555
H35 C47 1_555 1_555
C48 C45 1_555 1_555
H36 C48 1_555 1_555
H37 C48 1_555 1_555
H38 C48 1_555 1_555
N1 C10 1_555 1_555
C5 C6 1_555 1_555
C11 C12 1_555 1_555
C16 C17 1_555 1_555
C22 C23 1_555 1_555
N4 C34 1_555 1_555
C29 C30 1_555 1_555
C35 C36 1_555 1_555
C40 C41 1_555 1_555
C46 C47 1_555 1_555

#END
