
#######################################################################
#
#                 Cambridge Crystallographic Data Centre
#                                CCDC 
#
#######################################################################
#
# If this CIF has been generated from an entry in the Cambridge 
# Structural Database, then it will include bibliographic, chemical, 
# crystal, experimental, refinement or atomic coordinate data resulting 
# from the CCDC's data processing and validation procedures.
#
#######################################################################

data_UCOPOU
_chemical_formula_moiety         'C16 H14 N2 O5'
_chemical_name_systematic        
'ethyl diazo{5-[(4-methoxyphenyl)methylidene]-4-oxo-4,5-dihydrofuran-2-yl}acetate'
_symmetry_cell_setting           monoclinic
_symmetry_space_group_name_H-M   'P 21/c'
_symmetry_Int_Tables_number      14
_space_group_name_Hall           '-P 2ybc'
loop_
_symmetry_equiv_pos_site_id
_symmetry_equiv_pos_as_xyz
1 x,y,z
2 -x,1/2+y,1/2-z
3 -x,-y,-z
4 x,1/2-y,1/2+z
_cell_length_a                   7.1163(4)
_cell_length_b                   23.4444(14)
_cell_length_c                   9.0751(5)
_cell_angle_alpha                90
_cell_angle_beta                 98.5070(10)
_cell_angle_gamma                90
_cell_volume                     1497.41
_exptl_crystal_colour            yellow
_exptl_crystal_description       Rod
_cell_formula_units_Z            4
loop_
_atom_site_label
_atom_site_type_symbol
_atom_site_fract_x
_atom_site_fract_y
_atom_site_fract_z
N1 N 0.39545(13) 0.54758(4) 0.75570(11)
N2 N 0.36824(16) 0.51382(5) 0.83720(12)
O1 O -0.07360(12) 0.26264(3) 0.45930(9)
O2 O 0.24938(13) 0.58631(4) 0.12171(9)
O3 O 0.28014(11) 0.52378(3) 0.47695(8)
O4 O 0.53058(12) 0.68282(3) 0.64096(9)
O5 O 0.54890(12) 0.63987(3) 0.86669(9)
C1 C -0.17657(17) 0.22314(5) 0.35688(14)
H1 H -0.2972 0.2393 0.3167
H2 H -0.1964 0.1883 0.4080
H3 H -0.1050 0.2153 0.2774
C2 C -0.02657(16) 0.31378(5) 0.40307(13)
C3 C -0.06045(16) 0.32813(5) 0.25238(12)
H4 H -0.1184 0.3022 0.1825
C4 C -0.00686(16) 0.38151(5) 0.20788(12)
H5 H -0.0296 0.3909 0.1073
C5 C 0.08044(15) 0.42165(5) 0.30979(13)
C6 C 0.11362(15) 0.40609(5) 0.46174(12)
H6 H 0.1713 0.4319 0.5321
C7 C 0.06134(16) 0.35306(5) 0.50649(12)
H7 H 0.0849 0.3433 0.6068
C8 C 0.13420(16) 0.47630(5) 0.25293(12)
H8 H 0.1018 0.4808 0.1505
C9 C 0.22233(16) 0.52110(5) 0.32299(12)
C10 C 0.27920(16) 0.57499(5) 0.25599(13)
C11 C 0.37155(16) 0.60776(5) 0.38025(12)
H9 H 0.4255 0.6437 0.3760
C12 C 0.36499(15) 0.57642(5) 0.50396(13)
C13 C 0.42687(16) 0.58801(5) 0.65840(13)
C14 C 0.50764(15) 0.64207(5) 0.71793(12)
C15 C 0.62128(17) 0.69211(5) 0.94142(13)
H10 H 0.5219 0.7207 0.9352
H11 H 0.7256 0.7073 0.8957
C16 C 0.68800(19) 0.67635(6) 1.10100(13)
H12 H 0.5862 0.6583 1.1420
H13 H 0.7270 0.7101 1.1571
H14 H 0.7934 0.6505 1.1059
loop_
_geom_bond_atom_site_label_1
_geom_bond_atom_site_label_2
_geom_bond_site_symmetry_1
_geom_bond_site_symmetry_2
N1 N2 1_555 1_555
O1 C1 1_555 1_555
O2 C10 1_555 1_555
O3 C9 1_555 1_555
O4 C14 1_555 1_555
O5 C14 1_555 1_555
C1 H1 1_555 1_555
H2 C1 1_555 1_555
H3 C1 1_555 1_555
C2 O1 1_555 1_555
C3 C2 1_555 1_555
H4 C3 1_555 1_555
C4 C3 1_555 1_555
H5 C4 1_555 1_555
C5 C4 1_555 1_555
C6 C5 1_555 1_555
H6 C6 1_555 1_555
C7 C2 1_555 1_555
H7 C7 1_555 1_555
C8 C5 1_555 1_555
H8 C8 1_555 1_555
C9 C8 1_555 1_555
C10 C9 1_555 1_555
C11 C10 1_555 1_555
H9 C11 1_555 1_555
C12 O3 1_555 1_555
C13 N1 1_555 1_555
C14 C13 1_555 1_555
C15 O5 1_555 1_555
H10 C15 1_555 1_555
H11 C15 1_555 1_555
C16 C15 1_555 1_555
H12 C16 1_555 1_555
H13 C16 1_555 1_555
H14 C16 1_555 1_555
C6 C7 1_555 1_555
C11 C12 1_555 1_555
C12 C13 1_555 1_555

#END
