
#######################################################################
#
#                 Cambridge Crystallographic Data Centre
#                                CCDC 
#
#######################################################################
#
# If this CIF has been generated from an entry in the Cambridge 
# Structural Database, then it will include bibliographic, chemical, 
# crystal, experimental, refinement or atomic coordinate data resulting 
# from the CCDC's data processing and validation procedures.
#
#######################################################################

data_UCOQOT
_chemical_formula_moiety         'C30 H34'
_chemical_name_systematic        9,10-bis(oct-1-ynyl)anthracene
_symmetry_cell_setting           triclinic
_symmetry_space_group_name_H-M   'P -1'
_symmetry_Int_Tables_number      2
_space_group_name_Hall           '-P 1'
loop_
_symmetry_equiv_pos_site_id
_symmetry_equiv_pos_as_xyz
1 x,y,z
2 -x,-y,-z
_cell_length_a                   7.7874(7)
_cell_length_b                   9.2435(9)
_cell_length_c                   9.3529(9)
_cell_angle_alpha                108.870(2)
_cell_angle_beta                 107.825(2)
_cell_angle_gamma                95.669(2)
_cell_volume                     591.684
_exptl_crystal_colour            yellow
_cell_formula_units_Z            1
loop_
_atom_site_label
_atom_site_type_symbol
_atom_site_fract_x
_atom_site_fract_y
_atom_site_fract_z
C1 C 0.43686(18) -0.15468(15) 0.48782(16)
C2 C 0.3756(2) -0.30768(16) 0.48174(18)
H1 H 0.3329 -0.3917 0.3829
C3 C 0.3781(2) -0.33323(18) 0.61687(19)
H2 H 0.3373 -0.4341 0.6099
C4 C 0.4426(2) -0.20723(18) 0.76867(19)
H3 H 0.4435 -0.2255 0.8610
C5 C 0.5030(2) -0.06025(17) 0.77978(17)
H4 H 0.5459 0.0212 0.8805
C6 C 0.50236(18) -0.02721(15) 0.64125(16)
C7 C 0.43552(18) -0.12619(15) 0.34791(15)
C8 C 0.3697(2) -0.25406(15) 0.19410(16)
C9 C 0.3134(2) -0.36227(15) 0.06795(16)
C10 C 0.2416(2) -0.50217(16) -0.08231(17)
H5 H 0.1376 -0.4851 -0.1594
H6 H 0.3370 -0.5176 -0.1289
C11 C 0.1798(2) -0.64933(15) -0.05508(16)
H7 H 0.0828 -0.6344 -0.0104
H8 H 0.2832 -0.6649 0.0238
C12 C 0.1090(2) -0.79489(16) -0.20848(16)
H9 H 0.2055 -0.8086 -0.2539
H10 H 0.0048 -0.7796 -0.2867
C13 C 0.0495(2) -0.94287(16) -0.18285(18)
H11 H -0.0488 -0.9298 -0.1395
H12 H 0.1530 -0.9567 -0.1027
C14 C -0.0175(2) -1.08944(17) -0.3348(2)
H13 H 0.0791 -1.1009 -0.3802
H14 H -0.1239 -1.0773 -0.4137
C15 C -0.0705(3) -1.2369(2) -0.3065(3)
H15 H -0.1724 -1.2298 -0.2691
H16 H -0.1058 -1.3259 -0.4059
H17 H 0.0331 -1.2485 -0.2265
C1A C 0.56314(18) 0.15468(15) 0.51218(16)
C2A C 0.6244(2) 0.30768(16) 0.51826(18)
H1A H 0.6671 0.3917 0.6171
C3A C 0.6219(2) 0.33323(18) 0.38313(19)
H2A H 0.6627 0.4341 0.3901
C4A C 0.5574(2) 0.20723(18) 0.23133(19)
H3A H 0.5565 0.2255 0.1390
C5A C 0.4970(2) 0.06025(17) 0.22022(17)
H4A H 0.4541 -0.0212 0.1195
C6A C 0.49764(18) 0.02721(15) 0.35875(16)
C7A C 0.56448(18) 0.12619(15) 0.65209(15)
C8A C 0.6303(2) 0.25406(15) 0.80590(16)
C9A C 0.6866(2) 0.36227(15) 0.93205(16)
C10A C 0.7584(2) 0.50217(16) 1.08231(17)
H5A H 0.8624 0.4851 1.1594
H6A H 0.6630 0.5176 1.1289
C11A C 0.8202(2) 0.64933(15) 1.05508(16)
H7A H 0.9172 0.6344 1.0104
H8A H 0.7168 0.6649 0.9762
C12A C 0.8910(2) 0.79489(16) 1.20848(16)
H9A H 0.7945 0.8086 1.2539
H10A H 0.9952 0.7796 1.2867
C13A C 0.9505(2) 0.94287(16) 1.18285(18)
H11A H 1.0488 0.9298 1.1395
H12A H 0.8470 0.9567 1.1027
C14A C 1.0175(2) 1.08944(17) 1.3348(2)
H13A H 0.9209 1.1009 1.3802
H14A H 1.1239 1.0773 1.4137
C15A C 1.0705(3) 1.2369(2) 1.3065(3)
H15A H 1.1724 1.2298 1.2691
H16A H 1.1058 1.3259 1.4059
H17A H 0.9669 1.2485 1.2265
loop_
_geom_bond_atom_site_label_1
_geom_bond_atom_site_label_2
_geom_bond_site_symmetry_1
_geom_bond_site_symmetry_2
C1 C2 1_555 1_555
C2 H1 1_555 1_555
C3 C2 1_555 1_555
H2 C3 1_555 1_555
C4 C3 1_555 1_555
H3 C4 1_555 1_555
C5 C4 1_555 1_555
H4 C5 1_555 1_555
C6 C1 1_555 1_555
C7 C1 1_555 1_555
C8 C7 1_555 1_555
C9 C8 1_555 1_555
C10 C9 1_555 1_555
H5 C10 1_555 1_555
H6 C10 1_555 1_555
C11 C10 1_555 1_555
H7 C11 1_555 1_555
H8 C11 1_555 1_555
C12 C11 1_555 1_555
H9 C12 1_555 1_555
H10 C12 1_555 1_555
C13 C12 1_555 1_555
H11 C13 1_555 1_555
H12 C13 1_555 1_555
C14 C13 1_555 1_555
H13 C14 1_555 1_555
H14 C14 1_555 1_555
C15 C14 1_555 1_555
H15 C15 1_555 1_555
H16 C15 1_555 1_555
H17 C15 1_555 1_555
C1A C2A 1_555 1_555
C2A H1A 1_555 1_555
C3A C2A 1_555 1_555
H2A C3A 1_555 1_555
C4A C3A 1_555 1_555
H3A C4A 1_555 1_555
C5A C4A 1_555 1_555
H4A C5A 1_555 1_555
C6A C7 1_555 1_555
C7A C6 1_555 1_555
C8A C7A 1_555 1_555
C9A C8A 1_555 1_555
C10A C9A 1_555 1_555
H5A C10A 1_555 1_555
H6A C10A 1_555 1_555
C11A C10A 1_555 1_555
H7A C11A 1_555 1_555
H8A C11A 1_555 1_555
C12A C11A 1_555 1_555
H9A C12A 1_555 1_555
H10A C12A 1_555 1_555
C13A C12A 1_555 1_555
H11A C13A 1_555 1_555
H12A C13A 1_555 1_555
C14A C13A 1_555 1_555
H13A C14A 1_555 1_555
H14A C14A 1_555 1_555
C15A C14A 1_555 1_555
H15A C15A 1_555 1_555
H16A C15A 1_555 1_555
H17A C15A 1_555 1_555
C5 C6 1_555 1_555
C1A C6A 1_555 1_555
C1A C7A 1_555 1_555
C5A C6A 1_555 1_555

#END
