
#######################################################################
#
#                 Cambridge Crystallographic Data Centre
#                                CCDC 
#
#######################################################################
#
# If this CIF has been generated from an entry in the Cambridge 
# Structural Database, then it will include bibliographic, chemical, 
# crystal, experimental, refinement or atomic coordinate data resulting 
# from the CCDC's data processing and validation procedures.
#
#######################################################################

data_UCOQIN
_chemical_formula_moiety         'C36 H45 N1 O4 Si1'
_chemical_name_systematic        
11-n-butyl-1-(((t-butyl(diphenyl)silyl)oxy)methyl)-2,3,5,6,7,7a-hexahydro-1H,9H-pyran[4,3-b]pyrrolo[2,1-j]quinoline-8,9(4H)-dione
_symmetry_cell_setting           orthorhombic
_symmetry_space_group_name_H-M   'P 21 21 21'
_symmetry_Int_Tables_number      19
_space_group_name_Hall           'P 2ac 2ab'
loop_
_symmetry_equiv_pos_site_id
_symmetry_equiv_pos_as_xyz
1 x,y,z
2 1/2-x,-y,1/2+z
3 -x,1/2+y,1/2-z
4 1/2+x,1/2-y,-z
_cell_length_a                   8.3022(7)
_cell_length_b                   14.6332(12)
_cell_length_c                   26.376(2)
_cell_angle_alpha                90
_cell_angle_beta                 90
_cell_angle_gamma                90
_cell_volume                     3204.36
_exptl_crystal_colour            colorless
_exptl_crystal_description       rod
_cell_formula_units_Z            4
_exptl_crystal_recrystallization_method 
'diethyl ether/ethyl acetate/heptane/dichloromethane'
loop_
_atom_site_label
_atom_site_type_symbol
_atom_site_fract_x
_atom_site_fract_y
_atom_site_fract_z
Si1 Si 0.37036(9) 0.40957(5) 0.14250(3)
O1 O 1.0479(2) 0.55349(15) -0.02546(8)
O2 O 0.8096(2) 0.51048(13) -0.05359(7)
O3 O 1.0494(2) 0.70383(14) 0.04024(7)
O4 O 0.3803(2) 0.51644(12) 0.12353(6)
N1 N 0.5700(2) 0.64698(14) 0.05950(8)
C1 C 0.9042(3) 0.56287(19) -0.01958(10)
C2 C 0.8186(3) 0.61762(19) 0.01650(9)
C3 C 0.9041(3) 0.68717(19) 0.04490(10)
C4 C 0.8003(3) 0.74871(18) 0.07831(10)
H1 H 0.7574 0.7987 0.0563
C5 C 0.8973(3) 0.7939(2) 0.12090(11)
H2 H 0.9948 0.8226 0.1063
H3 H 0.8315 0.8428 0.1366
C6 C 0.9478(3) 0.7257(2) 0.16189(11)
H4 H 1.0244 0.6811 0.1472
H5 H 1.0038 0.7588 0.1895
C7 C 0.8040(3) 0.6752(2) 0.18352(10)
H6 H 0.7341 0.7187 0.2020
H7 H 0.8415 0.6284 0.2079
C8 C 0.7075(3) 0.62938(19) 0.14128(9)
H8 H 0.6107 0.6002 0.1560
H9 H 0.7739 0.5808 0.1256
C9 C 0.6552(3) 0.69755(17) 0.10026(9)
C10 C 0.5243(3) 0.76399(19) 0.11782(11)
H10 H 0.5403 0.7809 0.1538
H11 H 0.5254 0.8202 0.0970
C11 C 0.3672(3) 0.71249(18) 0.11096(10)
H12 H 0.2786 0.7556 0.1033
H13 H 0.3398 0.6786 0.1423
C12 C 0.3918(3) 0.64615(17) 0.06690(9)
H14 H 0.3398 0.6725 0.0360
C13 C 0.6496(3) 0.61079(17) 0.02055(9)
C14 C 0.5645(3) 0.56039(18) -0.01780(9)
H15 H 0.4500 0.5606 -0.0183
C15 C 0.6460(4) 0.51332(19) -0.05270(9)
C16 C 0.5761(4) 0.4557(2) -0.09383(11)
H16 H 0.6212 0.3934 -0.0907
H17 H 0.6120 0.4807 -0.1268
C17 C 0.3936(4) 0.4484(2) -0.09463(11)
H18 H 0.3471 0.5105 -0.0976
H19 H 0.3565 0.4221 -0.0621
C18 C 0.3314(4) 0.3895(2) -0.13816(12)
H20 H 0.3807 0.3281 -0.1355
H21 H 0.2135 0.3821 -0.1343
C19 C 0.3647(6) 0.4263(3) -0.18913(12)
H22 H 0.3135 0.3874 -0.2147
H23 H 0.4813 0.4276 -0.1949
H24 H 0.3215 0.4885 -0.1917
C20 C 0.3190(3) 0.55272(19) 0.07700(9)
H25 H 0.2003 0.5579 0.0791
H26 H 0.3456 0.5108 0.0487
C21 C 0.1547(3) 0.3768(2) 0.15665(10)
C22 C 0.0583(4) 0.3593(2) 0.10764(11)
H27 H -0.0549 0.3481 0.1162
H28 H 0.1025 0.3058 0.0901
H29 H 0.0659 0.4129 0.0855
C23 C 0.0749(4) 0.4562(3) 0.18456(13)
H30 H -0.0372 0.4404 0.1923
H31 H 0.0774 0.5109 0.1631
H32 H 0.1331 0.4683 0.2162
C24 C 0.1464(4) 0.2914(2) 0.19012(12)
H33 H 0.0335 0.2762 0.1969
H34 H 0.2022 0.3031 0.2222
H35 H 0.1982 0.2401 0.1726
C25 C 0.4944(3) 0.4078(2) 0.20167(9)
C26 C 0.4996(4) 0.4815(2) 0.23484(10)
H36 H 0.4390 0.5350 0.2276
C27 C 0.5948(5) 0.4773(3) 0.27939(12)
H37 H 0.5979 0.5279 0.3019
C28 C 0.6829(4) 0.3996(3) 0.29002(13)
H38 H 0.7468 0.3967 0.3198
C29 C 0.6780(4) 0.3275(3) 0.25791(13)
H39 H 0.7381 0.2739 0.2653
C30 C 0.5864(4) 0.3316(2) 0.21461(11)
H40 H 0.5857 0.2803 0.1925
C31 C 0.4743(3) 0.33645(19) 0.09452(10)
C32 C 0.4455(4) 0.2435(2) 0.08576(12)
H41 H 0.3601 0.2141 0.1033
C33 C 0.5386(4) 0.1930(2) 0.05203(12)
H42 H 0.5175 0.1298 0.0473
C34 C 0.6611(4) 0.2344(2) 0.02551(11)
H43 H 0.7231 0.2002 0.0020
C35 C 0.6934(4) 0.3253(2) 0.03316(11)
H44 H 0.7782 0.3541 0.0150
C36 C 0.6021(3) 0.3751(2) 0.06754(10)
H45 H 0.6273 0.4377 0.0729
loop_
_geom_bond_atom_site_label_1
_geom_bond_atom_site_label_2
_geom_bond_site_symmetry_1
_geom_bond_site_symmetry_2
Si1 O4 1_555 1_555
O1 C1 1_555 1_555
O2 C1 1_555 1_555
O3 C3 1_555 1_555
O4 C20 1_555 1_555
N1 C9 1_555 1_555
C1 C2 1_555 1_555
C2 C3 1_555 1_555
C3 C4 1_555 1_555
C4 H1 1_555 1_555
C5 C4 1_555 1_555
H2 C5 1_555 1_555
H3 C5 1_555 1_555
C6 C5 1_555 1_555
H4 C6 1_555 1_555
H5 C6 1_555 1_555
C7 C6 1_555 1_555
H6 C7 1_555 1_555
H7 C7 1_555 1_555
C8 C7 1_555 1_555
H8 C8 1_555 1_555
H9 C8 1_555 1_555
C9 C4 1_555 1_555
C10 C9 1_555 1_555
H10 C10 1_555 1_555
H11 C10 1_555 1_555
C11 C10 1_555 1_555
H12 C11 1_555 1_555
H13 C11 1_555 1_555
C12 N1 1_555 1_555
H14 C12 1_555 1_555
C13 N1 1_555 1_555
C14 C13 1_555 1_555
H15 C14 1_555 1_555
C15 O2 1_555 1_555
C16 C15 1_555 1_555
H16 C16 1_555 1_555
H17 C16 1_555 1_555
C17 C16 1_555 1_555
H18 C17 1_555 1_555
H19 C17 1_555 1_555
C18 C17 1_555 1_555
H20 C18 1_555 1_555
H21 C18 1_555 1_555
C19 C18 1_555 1_555
H22 C19 1_555 1_555
H23 C19 1_555 1_555
H24 C19 1_555 1_555
C20 C12 1_555 1_555
H25 C20 1_555 1_555
H26 C20 1_555 1_555
C21 Si1 1_555 1_555
C22 C21 1_555 1_555
H27 C22 1_555 1_555
H28 C22 1_555 1_555
H29 C22 1_555 1_555
C23 C21 1_555 1_555
H30 C23 1_555 1_555
H31 C23 1_555 1_555
H32 C23 1_555 1_555
C24 C21 1_555 1_555
H33 C24 1_555 1_555
H34 C24 1_555 1_555
H35 C24 1_555 1_555
C25 Si1 1_555 1_555
C26 C25 1_555 1_555
H36 C26 1_555 1_555
C27 C26 1_555 1_555
H37 C27 1_555 1_555
C28 C27 1_555 1_555
H38 C28 1_555 1_555
C29 C28 1_555 1_555
H39 C29 1_555 1_555
C30 C25 1_555 1_555
H40 C30 1_555 1_555
C31 Si1 1_555 1_555
C32 C31 1_555 1_555
H41 C32 1_555 1_555
C33 C32 1_555 1_555
H42 C33 1_555 1_555
C34 C33 1_555 1_555
H43 C34 1_555 1_555
C35 C34 1_555 1_555
H44 C35 1_555 1_555
C36 C31 1_555 1_555
H45 C36 1_555 1_555
C2 C13 1_555 1_555
C8 C9 1_555 1_555
C11 C12 1_555 1_555
C14 C15 1_555 1_555
C29 C30 1_555 1_555
C35 C36 1_555 1_555

#END
