
#######################################################################
#
#                 Cambridge Crystallographic Data Centre
#                                CCDC 
#
#######################################################################
#
# If this CIF has been generated from an entry in the Cambridge 
# Structural Database, then it will include bibliographic, chemical, 
# crystal, experimental, refinement or atomic coordinate data resulting 
# from the CCDC's data processing and validation procedures.
#
#######################################################################

data_UCOTUE
_chemical_formula_moiety         'C22 H22 Si1'
_chemical_name_systematic        
3-methyl-5-phenyl-5-propyl-5H-dibenzo[b,d]silole
_symmetry_cell_setting           orthorhombic
_symmetry_space_group_name_H-M   'P 21 21 21'
_symmetry_Int_Tables_number      19
_space_group_name_Hall           'P 2ac 2ab'
loop_
_symmetry_equiv_pos_site_id
_symmetry_equiv_pos_as_xyz
1 x,y,z
2 1/2-x,-y,1/2+z
3 1/2+x,1/2-y,-z
4 -x,1/2+y,1/2-z
_cell_length_a                   7.4499(4)
_cell_length_b                   12.8252(6)
_cell_length_c                   18.0899(10)
_cell_angle_alpha                90
_cell_angle_beta                 90
_cell_angle_gamma                90
_cell_volume                     1728.43
_exptl_crystal_colour            colorless
_exptl_crystal_description       Rod
_cell_formula_units_Z            4
loop_
_atom_site_label
_atom_site_type_symbol
_atom_site_fract_x
_atom_site_fract_y
_atom_site_fract_z
Si1 Si -0.01361(7) 0.49987(4) 0.95601(3)
C1 C -0.2767(3) 0.35618(16) 0.96161(12)
C2 C -0.2651(3) 0.40078(16) 1.03697(12)
C3 C -0.1307(3) 0.47709(15) 1.04681(12)
C4 C -0.1054(3) 0.52091(17) 1.11583(12)
H1 H -0.0163 0.5708 1.1225
C5 C 0.2338(3) 0.47571(17) 0.96249(13)
H2 H 0.2770 0.5077 1.0077
H3 H 0.2524 0.4011 0.9671
C6 C -0.3934(3) 0.23981(17) 0.86897(13)
H4 H -0.4742 0.1878 0.8556
C7 C -0.3952(3) 0.27730(16) 0.94042(12)
H5 H -0.4756 0.2499 0.9746
C8 C 0.0297(3) 0.72064(17) 0.95113(13)
H6 H 0.1131 0.7099 0.9886
C9 C -0.1540(3) 0.35689(17) 0.83798(13)
H7 H -0.0731 0.3832 0.8036
C10 C -0.1855(3) 0.65406(17) 0.86440(13)
H8 H -0.2481 0.5986 0.8436
C11 C -0.2185(4) 0.75538(19) 0.83943(14)
H9 H -0.3011 0.7669 0.8018
C12 C -0.0598(3) 0.63484(16) 0.92028(12)
C13 C -0.0042(3) 0.82177(16) 0.92647(13)
H10 H 0.0565 0.8778 0.9474
C14 C -0.2722(4) 0.23518(18) 0.73905(13)
H11 H -0.3596 0.1804 0.7351
H12 H -0.1553 0.2079 0.7279
H13 H -0.3012 0.2898 0.7048
C15 C -0.3464(3) 0.41686(19) 1.16525(13)
H14 H -0.4178 0.3972 1.2051
C16 C -0.1531(3) 0.39682(16) 0.90924(12)
C17 C -0.2122(3) 0.4909(2) 1.17556(12)
H15 H -0.1938 0.5203 1.2220
C18 C 0.3508(3) 0.51518(18) 0.89847(13)
H16 H 0.3375 0.5902 0.8943
H17 H 0.4758 0.5004 0.9093
C19 C -0.1279(3) 0.83864(18) 0.87087(14)
H18 H -0.1505 0.9061 0.8545
C20 C -0.3753(3) 0.37172(17) 1.09634(13)
H19 H -0.4664 0.3230 1.0898
C21 C -0.2733(3) 0.27798(17) 0.81621(13)
C22 C 0.3008(4) 0.4647(2) 0.82498(14)
H20 H 0.3884 0.4829 0.7883
H21 H 0.1848 0.4891 0.8097
H22 H 0.2976 0.3903 0.8307
loop_
_geom_bond_atom_site_label_1
_geom_bond_atom_site_label_2
_geom_bond_site_symmetry_1
_geom_bond_site_symmetry_2
Si1 C3 1_555 1_555
C1 C2 1_555 1_555
C2 C3 1_555 1_555
C3 C4 1_555 1_555
C4 H1 1_555 1_555
C5 Si1 1_555 1_555
H2 C5 1_555 1_555
H3 C5 1_555 1_555
C6 H4 1_555 1_555
C7 C1 1_555 1_555
H5 C7 1_555 1_555
C8 H6 1_555 1_555
C9 H7 1_555 1_555
C10 H8 1_555 1_555
C11 C10 1_555 1_555
H9 C11 1_555 1_555
C12 Si1 1_555 1_555
C13 C8 1_555 1_555
H10 C13 1_555 1_555
C14 H11 1_555 1_555
H12 C14 1_555 1_555
H13 C14 1_555 1_555
C15 H14 1_555 1_555
C16 Si1 1_555 1_555
C17 C4 1_555 1_555
H15 C17 1_555 1_555
C18 C5 1_555 1_555
H16 C18 1_555 1_555
H17 C18 1_555 1_555
C19 C11 1_555 1_555
H18 C19 1_555 1_555
C20 C2 1_555 1_555
H19 C20 1_555 1_555
C21 C6 1_555 1_555
C22 C18 1_555 1_555
H20 C22 1_555 1_555
H21 C22 1_555 1_555
H22 C22 1_555 1_555
C1 C16 1_555 1_555
C6 C7 1_555 1_555
C8 C12 1_555 1_555
C9 C16 1_555 1_555
C9 C21 1_555 1_555
C10 C12 1_555 1_555
C13 C19 1_555 1_555
C14 C21 1_555 1_555
C15 C17 1_555 1_555
C15 C20 1_555 1_555

#END
