
#######################################################################
#
#                 Cambridge Crystallographic Data Centre
#                                CCDC 
#
#######################################################################
#
# If this CIF has been generated from an entry in the Cambridge 
# Structural Database, then it will include bibliographic, chemical, 
# crystal, experimental, refinement or atomic coordinate data resulting 
# from the CCDC's data processing and validation procedures.
#
#######################################################################

data_UCOXAM
_chemical_formula_moiety         'C15 H11 N3'
_chemical_name_systematic        2-(1-methyl-1H-3-indolyl)nicotinonitrile
_symmetry_cell_setting           triclinic
_symmetry_space_group_name_H-M   'P -1'
_symmetry_Int_Tables_number      2
_space_group_name_Hall           '-P 1'
loop_
_symmetry_equiv_pos_site_id
_symmetry_equiv_pos_as_xyz
1 x,y,z
2 -x,-y,-z
_cell_length_a                   7.0178(11)
_cell_length_b                   8.399(1)
_cell_length_c                   20.362(3)
_cell_angle_alpha                90.731(4)
_cell_angle_beta                 90.149(5)
_cell_angle_gamma                103.467(6)
_cell_volume                     1167.07
_exptl_crystal_colour            colorless
_exptl_crystal_description       prism
_cell_formula_units_Z            4
_exptl_crystal_recrystallization_method 'ethyl acetate/petroleum ether'
loop_
_atom_site_label
_atom_site_type_symbol
_atom_site_fract_x
_atom_site_fract_y
_atom_site_fract_z
N1 N 0.7047(4) 0.3796(3) 0.44765(10)
N2 N 0.7531(3) -0.1096(2) 0.32841(8)
N3 N 0.7344(2) 0.3682(2) 0.22534(7)
C1 C 0.7165(4) 0.2522(3) 0.42991(9)
C2 C 0.7344(3) 0.0922(2) 0.40993(9)
C3 C 0.7515(4) -0.0157(3) 0.45940(10)
C4 C 0.7696(5) -0.1695(3) 0.44292(12)
C5 C 0.7703(4) -0.2098(3) 0.37724(12)
C6 C 0.7349(3) 0.0424(2) 0.34339(8)
C7 C 0.7202(3) 0.1462(2) 0.28776(8)
C8 C 0.7472(3) 0.3140(2) 0.28725(8)
C9 C 0.6983(2) 0.2360(2) 0.18292(8)
C10 C 0.6859(2) 0.0934(2) 0.21994(8)
C11 C 0.6451(3) -0.0574(2) 0.18639(9)
C12 C 0.6241(3) -0.0595(2) 0.11877(9)
C13 C 0.6419(3) 0.0846(3) 0.08362(9)
C14 C 0.6767(3) 0.2340(2) 0.11502(9)
C15 C 0.7577(4) 0.5369(2) 0.20632(11)
H1 H 0.7506(4) 0.0170(3) 0.50421(10)
H2 H 0.7809(5) -0.2463(3) 0.47570(12)
H3 H 0.7842(4) -0.3165(3) 0.36583(12)
H4 H 0.7717(3) 0.3828(2) 0.32522(8)
H5 H 0.6318(3) -0.1567(2) 0.20962(9)
H6 H 0.5974(3) -0.1614(2) 0.09576(9)
H7 H 0.6294(3) 0.0789(3) 0.03713(9)
H8 H 0.6855(3) 0.3321(2) 0.09135(9)
H9 H 0.8868(4) 0.5967(2) 0.21682(11)
H10 H 0.7360(4) 0.5414(2) 0.16038(11)
H11 H 0.6657(4) 0.5835(2) 0.22924(11)
N4 N 0.2504(3) 0.0949(2) 0.37672(9)
N5 N 0.2438(3) 0.5922(2) 0.26096(8)
N6 N 0.1617(2) 0.0958(2) 0.15497(7)
C16 C 0.2498(3) 0.2242(3) 0.35950(9)
C17 C 0.2497(3) 0.3878(2) 0.34057(9)
C18 C 0.2617(4) 0.5041(3) 0.39066(10)
C19 C 0.2629(4) 0.6622(3) 0.37533(11)
C20 C 0.2557(4) 0.7003(3) 0.30999(11)
C21 C 0.2374(3) 0.4344(2) 0.27452(8)
C22 C 0.2165(3) 0.3239(2) 0.21810(8)
C23 C 0.1793(3) 0.1557(2) 0.21738(9)
C24 C 0.1862(3) 0.2244(2) 0.11245(8)
C25 C 0.2213(3) 0.3701(2) 0.14982(8)
C26 C 0.2533(3) 0.5185(2) 0.11652(9)
C27 C 0.2479(4) 0.5152(3) 0.04891(10)
C28 C 0.2112(4) 0.3679(3) 0.01325(10)
C29 C 0.1810(3) 0.2213(3) 0.04411(9)
C30 C 0.1238(3) -0.0759(2) 0.13674(11)
H12 H 0.2691(4) 0.4736(3) 0.43520(10)
H13 H 0.2686(4) 0.7433(3) 0.40869(11)
H14 H 0.2596(4) 0.8107(3) 0.29913(11)
H15 H 0.1677(3) 0.0903(2) 0.25555(9)
H16 H 0.2782(3) 0.6197(2) 0.14007(9)
H17 H 0.2695(4) 0.6156(3) 0.02597(10)
H18 H 0.2073(4) 0.3702(3) -0.03335(10)
H19 H 0.1573(3) 0.1210(3) 0.01995(9)
H20 H -0.0002(3) -0.1311(2) 0.15323(11)
H21 H 0.2229(3) -0.1227(2) 0.15476(11)
H22 H 0.1237(3) -0.0867(2) 0.09024(11)
loop_
_geom_bond_atom_site_label_1
_geom_bond_atom_site_label_2
_geom_bond_site_symmetry_1
_geom_bond_site_symmetry_2
N1 C1 1_555 1_555
N2 C5 1_555 1_555
N3 C8 1_555 1_555
N4 C16 1_555 1_555
N5 C20 1_555 1_555
N6 C23 1_555 1_555
C1 C2 1_555 1_555
C2 C3 1_555 1_555
C3 C4 1_555 1_555
C4 C5 1_555 1_555
C5 H3 1_555 1_555
C6 N2 1_555 1_555
C7 C6 1_555 1_555
C8 C7 1_555 1_555
C9 N3 1_555 1_555
C10 C7 1_555 1_555
C11 C10 1_555 1_555
C12 C11 1_555 1_555
C13 C12 1_555 1_555
C14 C9 1_555 1_555
C15 N3 1_555 1_555
C16 C17 1_555 1_555
C17 C18 1_555 1_555
C18 C19 1_555 1_555
C19 C20 1_555 1_555
C20 H14 1_555 1_555
C21 N5 1_555 1_555
C22 C21 1_555 1_555
C23 C22 1_555 1_555
C24 N6 1_555 1_555
C25 C22 1_555 1_555
C26 C25 1_555 1_555
C27 C26 1_555 1_555
C28 C27 1_555 1_555
C29 C24 1_555 1_555
C30 N6 1_555 1_555
H1 C3 1_555 1_555
H2 C4 1_555 1_555
H4 C8 1_555 1_555
H5 C11 1_555 1_555
H6 C12 1_555 1_555
H7 C13 1_555 1_555
H8 C14 1_555 1_555
H9 C15 1_555 1_555
H10 C15 1_555 1_555
H11 C15 1_555 1_555
H12 C18 1_555 1_555
H13 C19 1_555 1_555
H15 C23 1_555 1_555
H16 C26 1_555 1_555
H17 C27 1_555 1_555
H18 C28 1_555 1_555
H19 C29 1_555 1_555
H20 C30 1_555 1_555
H21 C30 1_555 1_555
H22 C30 1_555 1_555
C2 C6 1_555 1_555
C9 C10 1_555 1_555
C13 C14 1_555 1_555
C17 C21 1_555 1_555
C24 C25 1_555 1_555
C28 C29 1_555 1_555

#END
