
#######################################################################
#
#                 Cambridge Crystallographic Data Centre
#                                CCDC 
#
#######################################################################
#
# If this CIF has been generated from an entry in the Cambridge 
# Structural Database, then it will include bibliographic, chemical, 
# crystal, experimental, refinement or atomic coordinate data resulting 
# from the CCDC's data processing and validation procedures.
#
#######################################################################

data_UCOXUG
_chemical_formula_moiety         'C21 H21 Cl1 O2'
_chemical_name_systematic        
2(S)-(3-(4-chlorophenyl)-3-oxo-1(R)-phenylpropyl)cyclohexanone
_symmetry_cell_setting           monoclinic
_symmetry_space_group_name_H-M   'C 2'
_symmetry_Int_Tables_number      5
_space_group_name_Hall           'C 2y'
loop_
_symmetry_equiv_pos_site_id
_symmetry_equiv_pos_as_xyz
1 x,y,z
2 -x,y,-z
3 1/2+x,1/2+y,z
4 1/2-x,1/2+y,-z
_cell_length_a                   24.062(10)
_cell_length_b                   5.426(2)
_cell_length_c                   13.420(5)
_cell_angle_alpha                90
_cell_angle_beta                 90.008(14)
_cell_angle_gamma                90
_cell_volume                     1752.12
_exptl_crystal_colour            colorless
_exptl_crystal_description       needle
_cell_formula_units_Z            4
loop_
_atom_site_label
_atom_site_type_symbol
_atom_site_fract_x
_atom_site_fract_y
_atom_site_fract_z
Cl1 Cl 0.40777(2) 0.23209(13) 0.47616(4)
O1 O 0.20231(6) 0.5506(3) 1.02382(12)
O2 O 0.19103(5) 0.7434(3) 0.71054(10)
C1 C 0.17563(8) 0.3607(4) 1.02879(15)
C2 C 0.17790(9) 0.1949(5) 1.11800(16)
H1 H 0.2058(9) 0.246(5) 1.1631(16)
H2 H 0.1891(10) 0.034(5) 1.0980(17)
C3 C 0.12044(10) 0.1902(6) 1.16762(17)
H3 H 0.1199(10) 0.079(6) 1.2253(19)
H4 H 0.1125(10) 0.383(5) 1.1896(18)
C4 C 0.07597(10) 0.1181(5) 1.09361(17)
H5 H 0.0811(9) -0.038(4) 1.0682(16)
H6 H 0.0393(10) 0.128(4) 1.1269(17)
C5 C 0.07656(8) 0.2849(5) 1.00251(16)
H7 H 0.0472(7) 0.236(4) 0.9563(13)
H8 H 0.0671(10) 0.468(5) 1.0178(18)
C6 C 0.13363(8) 0.2834(4) 0.95057(14)
H9 H 0.1422(8) 0.120(4) 0.9355(14)
C7 C 0.13808(8) 0.4414(3) 0.85533(14)
H10 H 0.1423(7) 0.615(4) 0.8786(13)
C8 C 0.19113(8) 0.3644(4) 0.80100(15)
H11 H 0.1855(8) 0.200(4) 0.7732(13)
H12 H 0.2215(9) 0.345(4) 0.8494(16)
C9 C 0.21158(7) 0.5395(3) 0.72271(14)
C10 C 0.26044(8) 0.4594(3) 0.66110(14)
C11 C 0.27860(8) 0.6081(4) 0.58321(15)
H13 H 0.2586(7) 0.761(4) 0.5698(14)
C12 C 0.32384(9) 0.5403(4) 0.52657(16)
H14 H 0.3353(10) 0.638(5) 0.4736(18)
C13 C 0.35174(8) 0.3256(4) 0.54795(14)
C14 C 0.33500(8) 0.1764(4) 0.62518(15)
H15 H 0.3544(8) 0.048(4) 0.6406(15)
C15 C 0.28923(8) 0.2433(4) 0.68150(14)
H16 H 0.2794(9) 0.135(4) 0.7335(16)
C16 C 0.08700(8) 0.4271(3) 0.79056(13)
C17 C 0.07724(8) 0.2320(4) 0.72549(14)
H17 H 0.1017(8) 0.105(4) 0.7226(15)
C18 C 0.02996(8) 0.2242(5) 0.66747(15)
H18 H 0.0242(9) 0.086(5) 0.6208(16)
C19 C -0.00875(9) 0.4110(5) 0.67282(17)
H19 H -0.0399(11) 0.401(5) 0.6305(19)
C20 C -0.00049(9) 0.6033(5) 0.73679(19)
H20 H -0.0279(9) 0.740(6) 0.7412(16)
C21 C 0.04693(8) 0.6127(4) 0.79536(16)
H21 H 0.0528(8) 0.758(5) 0.8410(16)
loop_
_geom_bond_atom_site_label_1
_geom_bond_atom_site_label_2
_geom_bond_site_symmetry_1
_geom_bond_site_symmetry_2
Cl1 C13 1_555 1_555
O1 C1 1_555 1_555
O2 C9 1_555 1_555
C1 C2 1_555 1_555
C2 H1 1_555 1_555
H2 C2 1_555 1_555
C3 C2 1_555 1_555
H3 C3 1_555 1_555
H4 C3 1_555 1_555
C4 C3 1_555 1_555
H5 C4 1_555 1_555
H6 C4 1_555 1_555
C5 C4 1_555 1_555
H7 C5 1_555 1_555
H8 C5 1_555 1_555
C6 C1 1_555 1_555
H9 C6 1_555 1_555
C7 C6 1_555 1_555
H10 C7 1_555 1_555
C8 C7 1_555 1_555
H11 C8 1_555 1_555
H12 C8 1_555 1_555
C9 C8 1_555 1_555
C10 C9 1_555 1_555
C11 C10 1_555 1_555
H13 C11 1_555 1_555
C12 C11 1_555 1_555
H14 C12 1_555 1_555
C13 C12 1_555 1_555
C14 C13 1_555 1_555
H15 C14 1_555 1_555
C15 C10 1_555 1_555
H16 C15 1_555 1_555
C16 C7 1_555 1_555
C17 C16 1_555 1_555
H17 C17 1_555 1_555
C18 C17 1_555 1_555
H18 C18 1_555 1_555
C19 C18 1_555 1_555
H19 C19 1_555 1_555
C20 C19 1_555 1_555
H20 C20 1_555 1_555
C21 C16 1_555 1_555
H21 C21 1_555 1_555
C5 C6 1_555 1_555
C14 C15 1_555 1_555
C20 C21 1_555 1_555

#END
