
#######################################################################
#
#                 Cambridge Crystallographic Data Centre
#                                CCDC 
#
#######################################################################
#
# If this CIF has been generated from an entry in the Cambridge 
# Structural Database, then it will include bibliographic, chemical, 
# crystal, experimental, refinement or atomic coordinate data resulting 
# from the CCDC's data processing and validation procedures.
#
#######################################################################

data_UCOYAN
_chemical_formula_moiety         'C26 H29 N2 O5 1+,F6 P1 1-,H2 O1'
_chemical_name_systematic        
'8-(13-(8-quinolyl)-1,4,7,10,13-pentaoxatridecanyl)quinolinium hexafluorophosphate monohydrate'
_symmetry_cell_setting           triclinic
_symmetry_space_group_name_H-M   'P -1'
_symmetry_Int_Tables_number      2
_space_group_name_Hall           '-P 1'
loop_
_symmetry_equiv_pos_site_id
_symmetry_equiv_pos_as_xyz
1 x,y,z
2 -x,-y,-z
_cell_length_a                   10.5566(11)
_cell_length_b                   10.6689(12)
_cell_length_c                   12.1657(13)
_cell_angle_alpha                93.761(2)
_cell_angle_beta                 96.704(2)
_cell_angle_gamma                95.984(2)
_cell_volume                     1349.21
_exptl_crystal_colour            colorless
_exptl_crystal_description       plate
_cell_formula_units_Z            2
loop_
_atom_site_label
_atom_site_type_symbol
_atom_site_fract_x
_atom_site_fract_y
_atom_site_fract_z
P1 P 0.33595(10) 0.19100(10) 0.50669(8)
F1 F 0.2844(3) 0.0467(2) 0.5056(2)
F2 F 0.4696(2) 0.1557(3) 0.4742(2)
F3 F 0.2833(2) 0.1917(2) 0.37791(17)
F4 F 0.3890(2) 0.3383(2) 0.50723(18)
F5 F 0.3873(3) 0.1945(3) 0.63541(19)
F6 F 0.2045(2) 0.2330(3) 0.5390(2)
O1 O 0.1911(2) 1.4890(2) 0.99297(17)
O2 O 0.1619(2) 1.2438(2) 1.0726(2)
O3 O 0.2167(2) 1.0182(2) 0.95455(18)
O4 O 0.1742(2) 0.8221(2) 0.77333(18)
O5 O 0.0543(2) 0.5750(2) 0.67872(18)
N1 N 0.3053(2) 1.5118(2) 0.8105(2)
H1 H 0.222(4) 1.447(5) 0.807(4)
N2 N 0.0953(2) 0.3487(2) 0.7536(2)
C1 C 0.3616(3) 1.5149(3) 0.7186(3)
H2 H 0.3198 1.4673 0.6522
C2 C 0.4795(3) 1.5853(3) 0.7160(3)
H3 H 0.5187 1.5862 0.6487
C3 C 0.5386(3) 1.6528(3) 0.8101(3)
H4 H 0.6197 1.7023 0.8086
C4 C 0.4822(3) 1.6512(3) 0.9100(3)
C5 C 0.5390(3) 1.7186(3) 1.0109(3)
H5 H 0.6212 1.7676 1.0148
C6 C 0.4767(3) 1.7135(3) 1.1019(3)
H6 H 0.5147 1.7612 1.1695
C7 C 0.3579(3) 1.6402(3) 1.0998(3)
H7 H 0.3156 1.6393 1.1655
C8 C 0.3016(3) 1.5698(3) 1.0052(3)
C9 C 0.3621(3) 1.5778(3) 0.9081(2)
C10 C 0.1334(3) 1.4599(3) 1.0910(3)
H8 H 0.0726 1.5182 1.1046
H9 H 0.1982 1.4673 1.1541
C11 C 0.0677(3) 1.3284(3) 1.0738(3)
H10 H 0.0166 1.3119 1.1327
H11 H 0.0121 1.3175 1.0048
C12 C 0.1159(3) 1.1199(3) 1.0955(3)
H12 H 0.0355 1.0932 1.0506
H13 H 0.1022 1.1191 1.1721
C13 C 0.2118(4) 1.0314(3) 1.0711(3)
H14 H 0.2950 1.0639 1.1087
H15 H 0.1878 0.9505 1.0973
C14 C 0.3066(3) 0.9349(3) 0.9260(3)
H16 H 0.2938 0.8586 0.9629
H17 H 0.3923 0.9740 0.9499
C15 C 0.2899(3) 0.9042(3) 0.8041(3)
H18 H 0.2861 0.9804 0.7667
H19 H 0.3616 0.8639 0.7831
C16 C 0.1576(3) 0.7817(3) 0.6581(3)
H20 H 0.2296 0.7397 0.6402
H21 H 0.1528 0.8535 0.6148
C17 C 0.0364(3) 0.6929(3) 0.6311(3)
H22 H -0.0331 0.7294 0.6606
H23 H 0.0153 0.6784 0.5521
C18 C -0.0444(3) 0.4809(3) 0.6552(2)
C19 C -0.1636(3) 0.4950(3) 0.6001(3)
H24 H -0.1814 0.5760 0.5762
C20 C -0.2592(3) 0.3907(3) 0.5789(3)
H25 H -0.3419 0.4025 0.5415
C21 C -0.2376(3) 0.2740(3) 0.6098(3)
H26 H -0.3039 0.2043 0.5933
C22 C -0.1154(3) 0.2555(3) 0.6670(2)
C23 C -0.0838(3) 0.1375(3) 0.6984(3)
H27 H -0.1444 0.0636 0.6791
C24 C 0.0325(3) 0.1273(3) 0.7563(3)
H28 H 0.0550 0.0468 0.7779
C25 C 0.1188(3) 0.2371(3) 0.7837(3)
H29 H 0.1994 0.2299 0.8269
C26 C -0.0205(3) 0.3609(3) 0.6924(2)
O6 O 0.4308(6) -0.0230(7) 0.2775(5)
loop_
_geom_bond_atom_site_label_1
_geom_bond_atom_site_label_2
_geom_bond_site_symmetry_1
_geom_bond_site_symmetry_2
P1 F1 1_555 1_555
F2 P1 1_555 1_555
F3 P1 1_555 1_555
F4 P1 1_555 1_555
F5 P1 1_555 1_555
F6 P1 1_555 1_555
O1 C8 1_555 1_555
O2 C11 1_555 1_555
O3 C13 1_555 1_555
O4 C15 1_555 1_555
O5 C17 1_555 1_555
N1 H1 1_555 1_555
N2 C25 1_555 1_555
C1 N1 1_555 1_555
H2 C1 1_555 1_555
C2 C1 1_555 1_555
H3 C2 1_555 1_555
C3 C2 1_555 1_555
H4 C3 1_555 1_555
C4 C3 1_555 1_555
C5 C4 1_555 1_555
H5 C5 1_555 1_555
C6 C5 1_555 1_555
H6 C6 1_555 1_555
C7 C6 1_555 1_555
H7 C7 1_555 1_555
C8 C7 1_555 1_555
C9 N1 1_555 1_555
C10 O1 1_555 1_555
H8 C10 1_555 1_555
H9 C10 1_555 1_555
C11 C10 1_555 1_555
H10 C11 1_555 1_555
H11 C11 1_555 1_555
C12 O2 1_555 1_555
H12 C12 1_555 1_555
H13 C12 1_555 1_555
C13 C12 1_555 1_555
H14 C13 1_555 1_555
H15 C13 1_555 1_555
C14 O3 1_555 1_555
H16 C14 1_555 1_555
H17 C14 1_555 1_555
C15 C14 1_555 1_555
H18 C15 1_555 1_555
H19 C15 1_555 1_555
C16 O4 1_555 1_555
H20 C16 1_555 1_555
H21 C16 1_555 1_555
C17 C16 1_555 1_555
H22 C17 1_555 1_555
H23 C17 1_555 1_555
C18 O5 1_555 1_555
C19 C18 1_555 1_555
H24 C19 1_555 1_555
C20 C19 1_555 1_555
H25 C20 1_555 1_555
C21 C20 1_555 1_555
H26 C21 1_555 1_555
C22 C21 1_555 1_555
C23 C22 1_555 1_555
H27 C23 1_555 1_555
C24 C23 1_555 1_555
H28 C24 1_555 1_555
C25 C24 1_555 1_555
H29 C25 1_555 1_555
C26 N2 1_555 1_555
C4 C9 1_555 1_555
C8 C9 1_555 1_555
C18 C26 1_555 1_555
C22 C26 1_555 1_555

#END
