
#######################################################################
#
#                 Cambridge Crystallographic Data Centre
#                                CCDC 
#
#######################################################################
#
# If this CIF has been generated from an entry in the Cambridge 
# Structural Database, then it will include bibliographic, chemical, 
# crystal, experimental, refinement or atomic coordinate data resulting 
# from the CCDC's data processing and validation procedures.
#
#######################################################################

data_UCOYES
_chemical_formula_moiety         'C45 H66 N1 O3 3-,3(Na1 1+),5(C4 H8 O1)'
_chemical_name_systematic        
"tri-sodium 2,2',2''-(nitrilotris(methylene))tris(4,6-di-t-butylphenolate) tetrahydrofuran solvate"
_symmetry_cell_setting           monoclinic
_symmetry_space_group_name_H-M   'P 21'
_symmetry_Int_Tables_number      4
_space_group_name_Hall           'P 2yb'
loop_
_symmetry_equiv_pos_site_id
_symmetry_equiv_pos_as_xyz
1 x,y,z
2 -x,1/2+y,-z
_cell_length_a                   11.073(6)
_cell_length_b                   26.684(15)
_cell_length_c                   11.873(7)
_cell_angle_alpha                90
_cell_angle_beta                 104.451(7)
_cell_angle_gamma                90
_cell_volume                     3397.15
_exptl_crystal_colour            colorless
_exptl_crystal_description       block
_cell_formula_units_Z            2
loop_
_atom_site_label
_atom_site_type_symbol
_atom_site_fract_x
_atom_site_fract_y
_atom_site_fract_z
C1 C 1.0719(7) 0.1420(3) 0.1707(8)
C2 C 0.9627(5) 0.1247(3) 0.1949(8)
C3 C 0.9677(5) 0.0869(3) 0.2764(7)
C4 C 1.0819(6) 0.0664(2) 0.3338(6)
H1 H 1.0852 0.0411 0.3883
C5 C 1.1911(5) 0.0837(3) 0.3096(7)
C6 C 1.1861(5) 0.1215(3) 0.2280(7)
H2 H 1.2591 0.1331 0.2119
C7 C 0.9814(3) 0.2316(4) -0.1247(2)
C8 C 1.0630(2) 0.2317(4) -0.1967(3)
H3 H 1.1487 0.2327 -0.1644
C9 C 1.0167(3) 0.2303(4) -0.3167(3)
C10 C 0.8887(3) 0.2289(4) -0.3649(2)
H4 H 0.8578 0.2280 -0.4452
C11 C 0.8071(2) 0.2288(4) -0.2930(3)
C12 C 0.8534(3) 0.2302(4) -0.1729(3)
C13 C 1.0766(6) 0.3056(2) 0.2067(8)
C14 C 0.9638(5) 0.3252(3) 0.2176(8)
C15 C 0.9616(5) 0.3704(3) 0.2752(8)
C16 C 1.0721(7) 0.3960(2) 0.3219(7)
H5 H 1.0706 0.4262 0.3604
C17 C 1.1849(5) 0.3763(2) 0.3110(6)
C18 C 1.1872(4) 0.3311(3) 0.2534(7)
H6 H 1.2626 0.3180 0.2461
N1 N 1.0292(4) 0.2298(3) 0.0864(4)
O1 O 0.8533(7) 0.1466(4) 0.1384(11)
O2 O 0.8590(8) 0.3059(4) 0.1595(12)
O3 O 0.7787(3) 0.2297(4) -0.0971(4)
C19 C 1.0374(8) 0.2614(3) -0.0069(9)
H7 H 1.1237 0.2703 -0.0011
H8 H 0.9905 0.2919 -0.0051
C20 C 1.0655(9) 0.1745(4) 0.0577(9)
H9 H 1.0032 0.1610 -0.0077
H10 H 1.1456 0.1744 0.0384
C21 C 1.0959(7) 0.2456(4) 0.2006(8)
H11 H 1.1838 0.2376 0.2139
H12 H 1.0634 0.2288 0.2593
C22 C 0.8397(10) 0.3908(4) 0.2995(10)
C23 C 0.7817(19) 0.3445(6) 0.343(2)
H13 H 0.8467 0.3236 0.3878
H14 H 0.7340 0.3259 0.2777
H15 H 0.7280 0.3551 0.3908
C24 C 0.7435(12) 0.4094(5) 0.1934(11)
H16 H 0.6625 0.4090 0.2091
H17 H 0.7432 0.3880 0.1284
H18 H 0.7638 0.4430 0.1757
C25 C 0.8649(18) 0.4385(9) 0.3624(17)
H19 H 0.9004 0.4618 0.3180
H20 H 0.9224 0.4331 0.4366
H21 H 0.7884 0.4519 0.3739
C26 C 1.3157(11) 0.4037(4) 0.3655(15)
C27 C 1.4078(16) 0.3909(9) 0.317(2)
H22 H 1.4821 0.4089 0.3539
H23 H 1.3844 0.3990 0.2355
H24 H 1.4232 0.3555 0.3261
C28 C 1.2986(16) 0.4593(7) 0.3470(19)
H25 H 1.3780 0.4757 0.3716
H26 H 1.2437 0.4717 0.3916
H27 H 1.2633 0.4659 0.2660
C29 C 1.372(2) 0.3746(8) 0.4841(19)
H28 H 1.4519 0.3885 0.5216
H29 H 1.3816 0.3397 0.4680
H30 H 1.3167 0.3779 0.5343
C30 C 1.1110(7) 0.2315(6) -0.3940(7)
C31 C 1.0520(17) 0.2586(6) -0.5044(14)
H31 H 1.0416 0.2933 -0.4876
H32 H 0.9720 0.2440 -0.5389
H33 H 1.1044 0.2558 -0.5574
C32 C 1.121(2) 0.1790(6) -0.4510(18)
H34 H 1.1795 0.1810 -0.4983
H35 H 1.0406 0.1696 -0.4985
H36 H 1.1485 0.1544 -0.3911
C33 C 1.2319(11) 0.2544(6) -0.3352(9)
H37 H 1.2651 0.2720 -0.3913
H38 H 1.2892 0.2287 -0.2993
H39 H 1.2198 0.2775 -0.2769
C34 C 0.6645(6) 0.2276(6) -0.3493(6)
C35 C 0.6339(7) 0.2310(6) -0.4826(6)
H40 H 0.5459 0.2359 -0.5127
H41 H 0.6586 0.2005 -0.5135
H42 H 0.6781 0.2587 -0.5049
C36 C 0.6033(11) 0.1829(5) -0.3130(11)
H43 H 0.5812 0.1900 -0.2414
H44 H 0.6598 0.1550 -0.3019
H45 H 0.5295 0.1748 -0.3722
C37 C 0.6062(10) 0.2745(5) -0.3202(14)
H46 H 0.6391 0.3027 -0.3532
H47 H 0.6244 0.2782 -0.2373
H48 H 0.5176 0.2729 -0.3514
C38 C 1.3137(13) 0.0558(6) 0.3618(16)
C39 C 1.3602(18) 0.0399(8) 0.2542(17)
H49 H 1.4382 0.0225 0.2794
H50 H 1.3714 0.0691 0.2108
H51 H 1.2998 0.0181 0.2058
C40 C 1.4232(14) 0.0924(6) 0.404(2)
H52 H 1.4184 0.1070 0.4766
H53 H 1.4189 0.1184 0.3471
H54 H 1.5006 0.0747 0.4143
C41 C 1.3052(13) 0.0104(7) 0.4199(17)
H55 H 1.2309 -0.0071 0.3806
H56 H 1.3021 0.0174 0.4985
H57 H 1.3767 -0.0100 0.4204
C42 C 0.8525(11) 0.0703(5) 0.3128(14)
C43 C 0.7577(12) 0.0525(6) 0.1940(16)
H58 H 0.6789 0.0440 0.2089
H59 H 0.7913 0.0237 0.1640
H60 H 0.7462 0.0792 0.1381
C44 C 0.8685(11) 0.0240(5) 0.3979(10)
H61 H 0.9465 0.0267 0.4553
H62 H 0.8676 -0.0065 0.3544
H63 H 0.8013 0.0234 0.4356
C45 C 0.7801(7) 0.1071(3) 0.3537(4)
H64 H 0.7417 0.1290 0.2909
H65 H 0.8333 0.1262 0.4149
H66 H 0.7167 0.0908 0.3828
Na1 Na 0.8252(2) 0.2288(2) 0.1150(2)
Na2 Na 0.7589(5) 0.31403(19) -0.0403(8)
Na3 Na 0.7535(5) 0.1460(2) -0.0489(9)
O4 O 0.5699(10) 0.0954(3) -0.0930(14)
C58 C 0.5762(3) 0.0488(2) -0.1612(6)
H91 H 0.5877 0.0571 -0.2374
H92 H 0.6452 0.0279 -0.1211
C59 C 0.4613(4) 0.0234(2) -0.1721(7)
H93 H 0.4755 -0.0087 -0.1326
H94 H 0.4214 0.0174 -0.2535
C60 C 0.3841(4) 0.0539(2) -0.1213(7)
H95 H 0.3080 0.0624 -0.1788
H96 H 0.3620 0.0362 -0.0580
C61 C 0.4513(4) 0.0982(2) -0.0790(6)
H97 H 0.4091 0.1270 -0.1209
H98 H 0.4541 0.1025 0.0027
O5 O 0.6137(6) 0.2282(7) 0.0859(6)
C54 C 0.5156(3) 0.2415(2) 0.0150(4)
H83 H 0.4835 0.2147 -0.0396
H84 H 0.5301 0.2708 -0.0282
C55 C 0.4310(3) 0.2526(2) 0.0838(4)
H85 H 0.3492 0.2391 0.0475
H86 H 0.4235 0.2886 0.0912
C56 C 0.4778(3) 0.2307(2) 0.1953(4)
H87 H 0.4923 0.2564 0.2550
H88 H 0.4179 0.2069 0.2113
C57 C 0.5911(3) 0.2060(2) 0.1952(4)
H89 H 0.5810 0.1699 0.1896
H90 H 0.6570 0.2144 0.2632
O6 O 0.5687(9) 0.3576(4) -0.0933(11)
C46 C 0.4552(4) 0.3589(2) -0.0554(4)
H67 H 0.4087 0.3282 -0.0781
H68 H 0.4746 0.3615 0.0287
C47 C 0.3821(4) 0.4007(2) -0.1062(4)
H69 H 0.3675 0.4227 -0.0459
H70 H 0.3020 0.3894 -0.1531
C48 C 0.4481(4) 0.4267(2) -0.1766(4)
H71 H 0.3990 0.4276 -0.2567
H72 H 0.4645 0.4609 -0.1494
C49 C 0.5621(4) 0.4010(2) -0.1694(5)
H73 H 0.6318 0.4233 -0.1387
H74 H 0.5665 0.3902 -0.2463
O7 O 0.8640(10) 0.3749(4) -0.1147(13)
C50 C 0.9064(4) 0.3627(2) -0.2351(5)
H75 H 0.9280 0.3276 -0.2379
H76 H 0.8389 0.3703 -0.3025
C51 C 1.0115(3) 0.3934(2) -0.2342(6)
H77 H 1.0827 0.3727 -0.2373
H78 H 0.9936 0.4154 -0.3012
C52 C 1.0383(3) 0.4220(2) -0.1300(6)
H79 H 1.0329 0.4575 -0.1482
H80 H 1.1221 0.4147 -0.0842
C53 C 0.9497(3) 0.4089(2) -0.0666(6)
H81 H 0.9948 0.3965 0.0090
H82 H 0.9068 0.4393 -0.0537
O8 O 0.8705(11) 0.0886(4) -0.1519(14)
C62 C 0.9284(3) 0.0512(2) -0.0711(4)
H99 H 0.9506 0.0647 0.0072
H100 H 0.8725 0.0230 -0.0732
C63 C 1.0370(4) 0.0359(2) -0.1050(4)
H101 H 1.1109 0.0437 -0.0441
H102 H 1.0349 0.0000 -0.1184
C64 C 1.0403(4) 0.0617(2) -0.2086(4)
H103 H 1.0396 0.0380 -0.2706
H104 H 1.1157 0.0817 -0.1963
C65 C 0.9337(4) 0.0931(2) -0.2388(4)
H105 H 0.9587 0.1276 -0.2451
H106 H 0.8803 0.0829 -0.3131
loop_
_geom_bond_atom_site_label_1
_geom_bond_atom_site_label_2
_geom_bond_site_symmetry_1
_geom_bond_site_symmetry_2
C1 C2 1_555 1_555
C2 C3 1_555 1_555
C3 C4 1_555 1_555
C4 H1 1_555 1_555
C5 C4 1_555 1_555
C6 C1 1_555 1_555
H2 C6 1_555 1_555
C7 C8 1_555 1_555
C8 H3 1_555 1_555
C9 C8 1_555 1_555
C10 C9 1_555 1_555
H4 C10 1_555 1_555
C11 C10 1_555 1_555
C12 C7 1_555 1_555
C13 C14 1_555 1_555
C14 C15 1_555 1_555
C15 C16 1_555 1_555
C16 H5 1_555 1_555
C17 C16 1_555 1_555
C18 C13 1_555 1_555
H6 C18 1_555 1_555
N1 C19 1_555 1_555
O1 C2 1_555 1_555
O2 C14 1_555 1_555
O3 C12 1_555 1_555
O4 C58 1_555 1_555
O5 C54 1_555 1_555
O6 C46 1_555 1_555
O7 C50 1_555 1_555
C19 C7 1_555 1_555
H7 C19 1_555 1_555
H8 C19 1_555 1_555
O8 C62 1_555 1_555
C20 C1 1_555 1_555
H9 C20 1_555 1_555
H10 C20 1_555 1_555
C21 C13 1_555 1_555
H11 C21 1_555 1_555
H12 C21 1_555 1_555
C22 C15 1_555 1_555
C23 C22 1_555 1_555
H13 C23 1_555 1_555
H14 C23 1_555 1_555
H15 C23 1_555 1_555
C24 C22 1_555 1_555
H16 C24 1_555 1_555
H17 C24 1_555 1_555
H18 C24 1_555 1_555
C25 C22 1_555 1_555
H19 C25 1_555 1_555
H20 C25 1_555 1_555
H21 C25 1_555 1_555
C26 C17 1_555 1_555
C27 C26 1_555 1_555
H22 C27 1_555 1_555
H23 C27 1_555 1_555
H24 C27 1_555 1_555
C28 C26 1_555 1_555
H25 C28 1_555 1_555
H26 C28 1_555 1_555
H27 C28 1_555 1_555
C29 C26 1_555 1_555
H28 C29 1_555 1_555
H29 C29 1_555 1_555
H30 C29 1_555 1_555
C30 C9 1_555 1_555
C31 C30 1_555 1_555
H31 C31 1_555 1_555
H32 C31 1_555 1_555
H33 C31 1_555 1_555
C32 C30 1_555 1_555
H34 C32 1_555 1_555
H35 C32 1_555 1_555
H36 C32 1_555 1_555
C33 C30 1_555 1_555
H37 C33 1_555 1_555
H38 C33 1_555 1_555
H39 C33 1_555 1_555
C34 C11 1_555 1_555
C35 C34 1_555 1_555
H40 C35 1_555 1_555
H41 C35 1_555 1_555
H42 C35 1_555 1_555
C36 C34 1_555 1_555
H43 C36 1_555 1_555
H44 C36 1_555 1_555
H45 C36 1_555 1_555
C37 C34 1_555 1_555
H46 C37 1_555 1_555
H47 C37 1_555 1_555
H48 C37 1_555 1_555
C38 C5 1_555 1_555
C39 C38 1_555 1_555
H49 C39 1_555 1_555
H50 C39 1_555 1_555
H51 C39 1_555 1_555
C40 C38 1_555 1_555
H52 C40 1_555 1_555
H53 C40 1_555 1_555
H54 C40 1_555 1_555
C41 C38 1_555 1_555
H55 C41 1_555 1_555
H56 C41 1_555 1_555
H57 C41 1_555 1_555
C42 C3 1_555 1_555
C43 C42 1_555 1_555
H58 C43 1_555 1_555
H59 C43 1_555 1_555
H60 C43 1_555 1_555
C44 C42 1_555 1_555
H61 C44 1_555 1_555
H62 C44 1_555 1_555
H63 C44 1_555 1_555
C45 C42 1_555 1_555
H64 C45 1_555 1_555
H65 C45 1_555 1_555
H66 C45 1_555 1_555
C46 H67 1_555 1_555
H68 C46 1_555 1_555
C47 C46 1_555 1_555
H69 C47 1_555 1_555
H70 C47 1_555 1_555
C48 C47 1_555 1_555
H71 C48 1_555 1_555
H72 C48 1_555 1_555
C49 O6 1_555 1_555
H73 C49 1_555 1_555
H74 C49 1_555 1_555
C50 H75 1_555 1_555
H76 C50 1_555 1_555
C51 C50 1_555 1_555
H77 C51 1_555 1_555
H78 C51 1_555 1_555
C52 C51 1_555 1_555
H79 C52 1_555 1_555
H80 C52 1_555 1_555
C53 O7 1_555 1_555
H81 C53 1_555 1_555
H82 C53 1_555 1_555
C54 H83 1_555 1_555
H84 C54 1_555 1_555
C55 C54 1_555 1_555
H85 C55 1_555 1_555
H86 C55 1_555 1_555
C56 C55 1_555 1_555
H87 C56 1_555 1_555
H88 C56 1_555 1_555
C57 O5 1_555 1_555
H89 C57 1_555 1_555
H90 C57 1_555 1_555
C58 H91 1_555 1_555
H92 C58 1_555 1_555
C59 C58 1_555 1_555
H93 C59 1_555 1_555
H94 C59 1_555 1_555
C60 C59 1_555 1_555
H95 C60 1_555 1_555
H96 C60 1_555 1_555
C61 O4 1_555 1_555
H97 C61 1_555 1_555
H98 C61 1_555 1_555
C62 H99 1_555 1_555
H100 C62 1_555 1_555
C63 C62 1_555 1_555
H101 C63 1_555 1_555
H102 C63 1_555 1_555
C64 C63 1_555 1_555
H103 C64 1_555 1_555
H104 C64 1_555 1_555
C65 O8 1_555 1_555
H105 C65 1_555 1_555
H106 C65 1_555 1_555
C5 C6 1_555 1_555
C11 C12 1_555 1_555
C17 C18 1_555 1_555
N1 C20 1_555 1_555
N1 C21 1_555 1_555
C48 C49 1_555 1_555
C52 C53 1_555 1_555
C56 C57 1_555 1_555
C60 C61 1_555 1_555
C64 C65 1_555 1_555

#END
