
#######################################################################
#
#                 Cambridge Crystallographic Data Centre
#                                CCDC 
#
#######################################################################
#
# If this CIF has been generated from an entry in the Cambridge 
# Structural Database, then it will include bibliographic, chemical, 
# crystal, experimental, refinement or atomic coordinate data resulting 
# from the CCDC's data processing and validation procedures.
#
#######################################################################

data_UCUCEC
_chemical_formula_moiety         'C23 H21 Br1 N1 O3 P1 S1'
_chemical_name_systematic        
'Ethyl 5-bromo-3-((diphenylphosphorothioyl)amino)-2,3-dihydro-1-benzofuran-2-carboxylate'
_symmetry_cell_setting           orthorhombic
_symmetry_space_group_name_H-M   'P 21 21 21'
_symmetry_Int_Tables_number      19
_space_group_name_Hall           'P 2ac 2ab'
loop_
_symmetry_equiv_pos_site_id
_symmetry_equiv_pos_as_xyz
1 x,y,z
2 1/2+x,1/2-y,-z
3 -x,1/2+y,1/2-z
4 1/2-x,-y,1/2+z
_cell_length_a                   9.1840(12)
_cell_length_b                   9.4450(13)
_cell_length_c                   26.482(3)
_cell_angle_alpha                90
_cell_angle_beta                 90
_cell_angle_gamma                90
_cell_volume                     2297.12
_exptl_crystal_colour            colorless
_exptl_crystal_description       prism
_cell_formula_units_Z            4
loop_
_atom_site_label
_atom_site_type_symbol
_atom_site_fract_x
_atom_site_fract_y
_atom_site_fract_z
Br1 Br 0.02605(3) 0.24464(4) 0.222832(9)
S1 S 0.28816(7) 0.41949(8) 0.41036(2)
P1 P 0.46643(7) 0.52060(7) 0.39218(2)
O1 O 0.42574(14) 0.74769(19) 0.22191(5)
O2 O 0.33610(18) 1.00033(19) 0.25683(6)
O3 O 0.38996(19) 0.93929(19) 0.33742(6)
N1 N 0.4905(2) 0.5654(2) 0.33231(7)
C1 C 0.4489(2) 0.7745(2) 0.27492(7)
H1 H 0.5560 0.7781 0.2816
C2 C 0.3813(2) 0.6491(3) 0.30569(8)
H2 H 0.3093 0.6872 0.3305
C3 C 0.3012(2) 0.5712(3) 0.26420(8)
C4 C 0.3332(2) 0.6340(3) 0.21826(8)
C5 C 0.2776(3) 0.5834(3) 0.17355(8)
H3 H 0.3008 0.6270 0.1422
C6 C 0.1864(3) 0.4665(3) 0.17577(9)
H4 H 0.1462 0.4290 0.1455
C7 C 0.1535(2) 0.4043(3) 0.22158(9)
C8 C 0.2103(2) 0.4537(3) 0.26652(8)
H5 H 0.1882 0.4092 0.2978
C9 C 0.3826(2) 0.9185(3) 0.28766(9)
C10 C 0.3318(3) 1.0721(3) 0.35645(9)
H6 H 0.3529 1.1492 0.3322
H7 H 0.3790 1.0960 0.3890
C11 C 0.1715(3) 1.0596(3) 0.36382(11)
H8 H 0.1258 1.0306 0.3320
H9 H 0.1320 1.1513 0.3744
H10 H 0.1513 0.9886 0.3899
C12 C 0.6332(2) 0.4246(3) 0.40530(8)
C13 C 0.7618(3) 0.4494(3) 0.37849(8)
H11 H 0.7622 0.5137 0.3509
C14 C 0.8883(3) 0.3801(3) 0.39219(9)
H12 H 0.9750 0.3954 0.3734
C15 C 0.8899(3) 0.2881(3) 0.43327(8)
H13 H 0.9778 0.2425 0.4429
C16 C 0.7630(3) 0.2631(3) 0.46007(8)
H14 H 0.7637 0.2003 0.4881
C17 C 0.6340(3) 0.3303(3) 0.44583(8)
H15 H 0.5465 0.3117 0.4638
C18 C 0.4817(3) 0.6873(2) 0.42634(8)
C19 C 0.6026(2) 0.7720(3) 0.41884(8)
H16 H 0.6744 0.7445 0.3950
C20 C 0.6200(3) 0.8971(3) 0.44586(9)
H17 H 0.7034 0.9546 0.4405
C21 C 0.5164(3) 0.9371(3) 0.48031(9)
H18 H 0.5286 1.0213 0.4994
C22 C 0.3944(3) 0.8543(3) 0.48696(10)
H19 H 0.3212 0.8840 0.5100
C23 C 0.3765(3) 0.7292(3) 0.46092(9)
H20 H 0.2929 0.6721 0.4666
H21 H 0.534(2) 0.508(2) 0.3153(8)
loop_
_geom_bond_atom_site_label_1
_geom_bond_atom_site_label_2
_geom_bond_site_symmetry_1
_geom_bond_site_symmetry_2
Br1 C7 1_555 1_555
S1 P1 1_555 1_555
P1 N1 1_555 1_555
O1 C1 1_555 1_555
O2 C9 1_555 1_555
O3 C9 1_555 1_555
N1 C2 1_555 1_555
C1 H1 1_555 1_555
C2 C1 1_555 1_555
H2 C2 1_555 1_555
C3 C2 1_555 1_555
C4 O1 1_555 1_555
C5 C4 1_555 1_555
H3 C5 1_555 1_555
C6 C5 1_555 1_555
H4 C6 1_555 1_555
C7 C6 1_555 1_555
C8 C3 1_555 1_555
H5 C8 1_555 1_555
C9 C1 1_555 1_555
C10 O3 1_555 1_555
H6 C10 1_555 1_555
H7 C10 1_555 1_555
C11 C10 1_555 1_555
H8 C11 1_555 1_555
H9 C11 1_555 1_555
H10 C11 1_555 1_555
C12 P1 1_555 1_555
C13 C12 1_555 1_555
H11 C13 1_555 1_555
C14 C13 1_555 1_555
H12 C14 1_555 1_555
C15 C14 1_555 1_555
H13 C15 1_555 1_555
C16 C15 1_555 1_555
H14 C16 1_555 1_555
C17 C12 1_555 1_555
H15 C17 1_555 1_555
C18 P1 1_555 1_555
C19 C18 1_555 1_555
H16 C19 1_555 1_555
C20 C19 1_555 1_555
H17 C20 1_555 1_555
C21 C20 1_555 1_555
H18 C21 1_555 1_555
C22 C21 1_555 1_555
H19 C22 1_555 1_555
C23 C18 1_555 1_555
H20 C23 1_555 1_555
H21 N1 1_555 1_555
C3 C4 1_555 1_555
C7 C8 1_555 1_555
C16 C17 1_555 1_555
C22 C23 1_555 1_555

#END
