
#######################################################################
#
#                 Cambridge Crystallographic Data Centre
#                                CCDC 
#
#######################################################################
#
# If this CIF has been generated from an entry in the Cambridge 
# Structural Database, then it will include bibliographic, chemical, 
# crystal, experimental, refinement or atomic coordinate data resulting 
# from the CCDC's data processing and validation procedures.
#
#######################################################################

data_UCUDEE
_chemical_formula_moiety         'C15 H19 I2 N1 O2 S1'
_chemical_name_systematic        
2-t-butyl-4,5-bis(iodo)-1-((4-methylphenyl)sulfonyl)-2,3-dihydro-1H-pyrrole
_symmetry_cell_setting           monoclinic
_symmetry_space_group_name_H-M   'P 21/c'
_symmetry_Int_Tables_number      14
_space_group_name_Hall           '-P 2ybc'
loop_
_symmetry_equiv_pos_site_id
_symmetry_equiv_pos_as_xyz
1 x,y,z
2 -x,1/2+y,1/2-z
3 -x,-y,-z
4 x,1/2-y,1/2+z
_cell_length_a                   9.5678(5)
_cell_length_b                   12.3013(7)
_cell_length_c                   15.5374(9)
_cell_angle_alpha                90
_cell_angle_beta                 101.7100(10)
_cell_angle_gamma                90
_cell_volume                     1790.64
_exptl_crystal_colour            colorless
_exptl_crystal_description       block
_cell_formula_units_Z            4
loop_
_atom_site_label
_atom_site_type_symbol
_atom_site_fract_x
_atom_site_fract_y
_atom_site_fract_z
I1 I 0.68121(2) 0.09985(2) 0.23356(2)
I2 I 0.38791(2) 0.31079(2) 0.23264(2)
S1 S 0.96401(5) 0.31959(4) 0.28962(4)
O1 O 0.97927(17) 0.21308(13) 0.32684(12)
O2 O 1.08003(16) 0.36782(14) 0.25795(12)
N1 N 0.82653(17) 0.31464(13) 0.20302(12)
C1 C 0.6978(2) 0.26683(16) 0.22023(14)
C2 C 0.5939(2) 0.33990(16) 0.21594(13)
C3 C 0.6424(2) 0.45062(16) 0.19396(14)
H1 H 0.6589 0.4988 0.2461
H2 H 0.5718 0.4850 0.1463
C4 C 0.7834(2) 0.42573(16) 0.16375(14)
H3 H 0.8570 0.4802 0.1905
C5 C 0.7727(2) 0.42422(17) 0.06353(15)
C6 C 0.6518(2) 0.3507(2) 0.01702(16)
H4 H 0.6442 0.3558 -0.0467
H5 H 0.5617 0.3739 0.0320
H6 H 0.6719 0.2754 0.0359
C7 C 0.9141(2) 0.38392(19) 0.04346(16)
H7 H 0.9926 0.4287 0.0752
H8 H 0.9108 0.3892 -0.0198
H9 H 0.9294 0.3080 0.0622
C8 C 0.7486(3) 0.54171(19) 0.03129(17)
H10 H 0.8289 0.5869 0.0602
H11 H 0.6600 0.5694 0.0455
H12 H 0.7417 0.5441 -0.0325
C9 C 0.9065(2) 0.41038(17) 0.36259(15)
C10 C 0.9435(2) 0.51992(19) 0.36326(16)
H13 H 1.0120 0.5447 0.3312
C11 C 0.8792(3) 0.59185(19) 0.41118(17)
H14 H 0.9049 0.6665 0.4121
C12 C 0.7780(3) 0.5582(2) 0.45811(16)
C13 C 0.7446(3) 0.4478(2) 0.45809(16)
H15 H 0.6775 0.4231 0.4912
C14 C 0.8077(2) 0.37342(19) 0.41056(15)
H16 H 0.7838 0.2985 0.4107
C15 C 0.7058(3) 0.6379(2) 0.50845(19)
H17 H 0.6200 0.6668 0.4698
H18 H 0.7714 0.6978 0.5296
H19 H 0.6791 0.6010 0.5586
loop_
_geom_bond_atom_site_label_1
_geom_bond_atom_site_label_2
_geom_bond_site_symmetry_1
_geom_bond_site_symmetry_2
I1 C1 1_555 1_555
I2 C2 1_555 1_555
S1 O1 1_555 1_555
O2 S1 1_555 1_555
N1 S1 1_555 1_555
C1 N1 1_555 1_555
C2 C1 1_555 1_555
C3 C2 1_555 1_555
H1 C3 1_555 1_555
H2 C3 1_555 1_555
C4 N1 1_555 1_555
H3 C4 1_555 1_555
C5 C4 1_555 1_555
C6 C5 1_555 1_555
H4 C6 1_555 1_555
H5 C6 1_555 1_555
H6 C6 1_555 1_555
C7 C5 1_555 1_555
H7 C7 1_555 1_555
H8 C7 1_555 1_555
H9 C7 1_555 1_555
C8 C5 1_555 1_555
H10 C8 1_555 1_555
H11 C8 1_555 1_555
H12 C8 1_555 1_555
C9 S1 1_555 1_555
C10 C9 1_555 1_555
H13 C10 1_555 1_555
C11 C10 1_555 1_555
H14 C11 1_555 1_555
C12 C11 1_555 1_555
C13 C12 1_555 1_555
H15 C13 1_555 1_555
C14 C9 1_555 1_555
H16 C14 1_555 1_555
C15 C12 1_555 1_555
H17 C15 1_555 1_555
H18 C15 1_555 1_555
H19 C15 1_555 1_555
C3 C4 1_555 1_555
C13 C14 1_555 1_555

#END
