
#######################################################################
#
#                 Cambridge Crystallographic Data Centre
#                                CCDC 
#
#######################################################################
#
# If this CIF has been generated from an entry in the Cambridge 
# Structural Database, then it will include bibliographic, chemical, 
# crystal, experimental, refinement or atomic coordinate data resulting 
# from the CCDC's data processing and validation procedures.
#
#######################################################################

data_UCUYEZ
_chemical_formula_moiety         'C26 H16 Cl2'
_chemical_name_systematic        syn-9,10-Bis(2-chlorophenyl)phenanthrene
_symmetry_cell_setting           monoclinic
_symmetry_space_group_name_H-M   'P 21/c'
_symmetry_Int_Tables_number      14
_space_group_name_Hall           '-P 2ybc'
loop_
_symmetry_equiv_pos_site_id
_symmetry_equiv_pos_as_xyz
1 x,y,z
2 -x,1/2+y,1/2-z
3 -x,-y,-z
4 x,1/2-y,1/2+z
_cell_length_a                   9.1927(13)
_cell_length_b                   29.468(4)
_cell_length_c                   7.4968(9)
_cell_angle_alpha                90
_cell_angle_beta                 104.857(7)
_cell_angle_gamma                90
_cell_volume                     1962.92
_exptl_crystal_colour            colorless
_exptl_crystal_description       Columnar
_cell_formula_units_Z            4
loop_
_atom_site_label
_atom_site_type_symbol
_atom_site_fract_x
_atom_site_fract_y
_atom_site_fract_z
C1 C 0.3372(2) 0.13850(7) 0.6781(3)
C2 C 0.2758(2) 0.16696(7) 0.5191(3)
C3 C 0.1197(3) 0.16794(8) 0.4336(3)
H1 H 0.0549 0.1500 0.4803
C4 C 0.0620(3) 0.19499(8) 0.2828(3)
H2 H -0.0407 0.1949 0.2271
C5 C 0.1571(3) 0.22245(9) 0.2137(3)
H3 H 0.1179 0.2407 0.1116
C6 C 0.3079(3) 0.22281(8) 0.2946(3)
H4 H 0.3699 0.2417 0.2472
C7 C 0.3721(2) 0.19529(7) 0.4483(3)
C8 C 0.5328(2) 0.19491(7) 0.5349(3)
C9 C 0.6357(3) 0.22196(8) 0.4704(3)
H5 H 0.5997 0.2412 0.3705
C10 C 0.7868(3) 0.22045(9) 0.5515(3)
H6 H 0.8522 0.2385 0.5064
C11 C 0.8429(3) 0.19206(9) 0.7012(3)
H7 H 0.9458 0.1910 0.7555
C12 C 0.7470(3) 0.16575(8) 0.7686(3)
H8 H 0.7857 0.1469 0.8692
C13 C 0.5898(2) 0.16647(7) 0.6886(3)
C14 C 0.4883(2) 0.13846(7) 0.7597(3)
C15 C 0.2320(2) 0.11009(7) 0.7529(3)
C16 C 0.1981(3) 0.12224(9) 0.9169(3)
H9 H 0.2446 0.1475 0.9812
C17 C 0.0975(3) 0.09775(10) 0.9862(4)
H10 H 0.0771 0.1066 1.0965
C18 C 0.0271(3) 0.06038(10) 0.8934(4)
H11 H -0.0409 0.0439 0.9405
C19 C 0.0571(3) 0.04747(9) 0.7318(4)
H12 H 0.0091 0.0223 0.6682
C20 C 0.1596(3) 0.07193(8) 0.6622(3)
C21 C 0.5546(2) 0.10993(7) 0.9265(3)
C22 C 0.5780(3) 0.12802(10) 1.1021(3)
H13 H 0.5506 0.1580 1.1157
C23 C 0.6412(4) 0.10254(12) 1.2577(4)
H14 H 0.6569 0.1154 1.3743
C24 C 0.6805(4) 0.05823(11) 1.2395(4)
H15 H 0.7203 0.0409 1.3442
C25 C 0.6616(3) 0.03944(9) 1.0688(4)
H16 H 0.6898 0.0095 1.0567
C26 C 0.6002(3) 0.06534(8) 0.9139(3)
Cl1 Cl 0.19482(9) 0.05436(2) 0.45656(9)
Cl2 Cl 0.58437(9) 0.04117(2) 0.69884(9)
loop_
_geom_bond_atom_site_label_1
_geom_bond_atom_site_label_2
_geom_bond_site_symmetry_1
_geom_bond_site_symmetry_2
C1 C2 1_555 1_555
C2 C3 1_555 1_555
C3 H1 1_555 1_555
C4 C3 1_555 1_555
H2 C4 1_555 1_555
C5 C4 1_555 1_555
H3 C5 1_555 1_555
C6 C5 1_555 1_555
H4 C6 1_555 1_555
C7 C2 1_555 1_555
C8 C7 1_555 1_555
C9 C8 1_555 1_555
H5 C9 1_555 1_555
C10 C9 1_555 1_555
H6 C10 1_555 1_555
C11 C10 1_555 1_555
H7 C11 1_555 1_555
C12 C11 1_555 1_555
H8 C12 1_555 1_555
C13 C8 1_555 1_555
C14 C1 1_555 1_555
C15 C1 1_555 1_555
C16 C15 1_555 1_555
H9 C16 1_555 1_555
C17 C16 1_555 1_555
H10 C17 1_555 1_555
C18 C17 1_555 1_555
H11 C18 1_555 1_555
C19 C18 1_555 1_555
H12 C19 1_555 1_555
C20 C15 1_555 1_555
C21 C14 1_555 1_555
C22 C21 1_555 1_555
H13 C22 1_555 1_555
C23 C22 1_555 1_555
H14 C23 1_555 1_555
C24 C23 1_555 1_555
H15 C24 1_555 1_555
C25 C24 1_555 1_555
H16 C25 1_555 1_555
C26 C21 1_555 1_555
Cl1 C20 1_555 1_555
Cl2 C26 1_555 1_555
C6 C7 1_555 1_555
C12 C13 1_555 1_555
C13 C14 1_555 1_555
C19 C20 1_555 1_555
C25 C26 1_555 1_555

#END
