
#######################################################################
#
#                 Cambridge Crystallographic Data Centre
#                                CCDC 
#
#######################################################################
#
# If this CIF has been generated from an entry in the Cambridge 
# Structural Database, then it will include bibliographic, chemical, 
# crystal, experimental, refinement or atomic coordinate data resulting 
# from the CCDC's data processing and validation procedures.
#
#######################################################################

data_UCUYAV
_chemical_formula_moiety         'C34 H34'
_chemical_name_systematic        
1,2,3,6,7,8-hexamethyl-9,10-bis(2-methylphenyl)phenanthrene
_symmetry_cell_setting           monoclinic
_symmetry_space_group_name_H-M   'P 21/n'
_symmetry_Int_Tables_number      14
_space_group_name_Hall           '-P 2yn'
loop_
_symmetry_equiv_pos_site_id
_symmetry_equiv_pos_as_xyz
1 x,y,z
2 1/2-x,1/2+y,1/2-z
3 -x,-y,-z
4 1/2+x,1/2-y,1/2+z
_cell_length_a                   10.7240(10)
_cell_length_b                   14.6596(14)
_cell_length_c                   15.9412(15)
_cell_angle_alpha                90
_cell_angle_beta                 106.043(2)
_cell_angle_gamma                90
_cell_volume                     2408.51
_exptl_crystal_colour            colorless
_cell_formula_units_Z            4
loop_
_atom_site_label
_atom_site_type_symbol
_atom_site_fract_x
_atom_site_fract_y
_atom_site_fract_z
C1 C 0.00460(16) 0.67311(13) -0.10131(11)
H1 H 0.0427 0.7016 -0.1441
H2 H -0.0646 0.7122 -0.0921
H3 H -0.0315 0.6135 -0.1231
C2 C 0.10829(15) 0.66088(11) -0.01580(10)
C3 C 0.23350(14) 0.68786(10) -0.00884(9)
H4 H 0.2521 0.7164 -0.0575
C4 C 0.33509(14) 0.67475(10) 0.06772(9)
C5 C 0.46594(14) 0.70649(10) 0.07400(9)
C6 C 0.56561(14) 0.69344(10) 0.15228(9)
C7 C 0.54100(14) 0.62785(10) 0.21490(9)
C8 C 0.65521(14) 0.57776(10) 0.27198(10)
C9 C 0.69513(17) 0.58976(12) 0.36287(11)
H5 H 0.6446 0.6270 0.3896
C10 C 0.80573(19) 0.54891(14) 0.41436(13)
H6 H 0.8317 0.5585 0.4757
C11 C 0.87747(19) 0.49439(14) 0.37587(14)
H7 H 0.9546 0.4668 0.4108
C12 C 0.49589(15) 0.75215(10) 0.00463(9)
H8 H 0.4297 0.7597 -0.0486
C13 C 0.61724(15) 0.78635(10) 0.01071(9)
C14 C 0.71426(14) 0.78089(10) 0.09130(10)
C15 C 0.68747(14) 0.73767(10) 0.16206(9)
C16 C 0.78729(15) 0.74522(11) 0.24988(10)
H9 H 0.8503 0.6955 0.2563
H10 H 0.7439 0.7412 0.2964
H11 H 0.8323 0.8039 0.2538
C17 C 0.84524(15) 0.82388(11) 0.10083(10)
H12 H 0.8478 0.8841 0.1279
H13 H 0.8600 0.8304 0.0431
H14 H 0.9130 0.7851 0.1377
C18 C 0.64232(16) 0.83292(12) -0.06728(10)
H15 H 0.5628 0.8325 -0.1158
H16 H 0.7111 0.8005 -0.0846
H17 H 0.6693 0.8961 -0.0522
C19 C 0.07805(14) 0.62490(10) 0.05832(10)
C20 C 0.17447(14) 0.61532(10) 0.13654(10)
C21 C 0.13375(16) 0.59370(12) 0.21801(10)
H18 H 0.0483 0.6205 0.2132
H19 H 0.1974 0.6192 0.2691
H20 H 0.1292 0.5274 0.2245
C22 C 0.30704(14) 0.63242(10) 0.13984(9)
C23 C 0.41749(14) 0.59973(10) 0.21009(9)
C24 C 0.39504(14) 0.52267(11) 0.26637(10)
C25 C 0.40081(15) 0.53699(12) 0.35407(10)
H21 H 0.4270 0.5950 0.3795
C26 C 0.36931(17) 0.46865(13) 0.40471(11)
H22 H 0.3737 0.4799 0.4641
C27 C 0.33161(17) 0.38428(13) 0.36844(12)
H23 H 0.3076 0.3376 0.4023
C28 C 0.32892(16) 0.36799(12) 0.28272(12)
H24 H 0.3043 0.3093 0.2585
C29 C 0.36150(15) 0.43570(11) 0.23048(10)
C30 C 0.36185(18) 0.41194(12) 0.13988(11)
H25 H 0.3452 0.4669 0.1035
H26 H 0.2940 0.3667 0.1161
H27 H 0.4466 0.3866 0.1403
C31 C -0.05990(15) 0.59661(12) 0.05044(11)
H28 H -0.0619 0.5574 0.0999
H29 H -0.0944 0.5630 -0.0042
H30 H -0.1130 0.6510 0.0505
C32 C 0.72663(16) 0.52017(11) 0.23276(12)
C33 C 0.83957(18) 0.47878(13) 0.28721(15)
H31 H 0.8901 0.4396 0.2621
C34 C 0.68714(19) 0.50275(13) 0.13648(13)
H32 H 0.5941 0.4893 0.1170
H33 H 0.7360 0.4507 0.1235
H34 H 0.7055 0.5569 0.1059
loop_
_geom_bond_atom_site_label_1
_geom_bond_atom_site_label_2
_geom_bond_site_symmetry_1
_geom_bond_site_symmetry_2
C1 H1 1_555 1_555
H2 C1 1_555 1_555
H3 C1 1_555 1_555
C2 C1 1_555 1_555
C3 C2 1_555 1_555
H4 C3 1_555 1_555
C4 C3 1_555 1_555
C5 C4 1_555 1_555
C6 C5 1_555 1_555
C7 C6 1_555 1_555
C8 C7 1_555 1_555
C9 C8 1_555 1_555
H5 C9 1_555 1_555
C10 C9 1_555 1_555
H6 C10 1_555 1_555
C11 C10 1_555 1_555
H7 C11 1_555 1_555
C12 C5 1_555 1_555
H8 C12 1_555 1_555
C13 C12 1_555 1_555
C14 C13 1_555 1_555
C15 C6 1_555 1_555
C16 C15 1_555 1_555
H9 C16 1_555 1_555
H10 C16 1_555 1_555
H11 C16 1_555 1_555
C17 C14 1_555 1_555
H12 C17 1_555 1_555
H13 C17 1_555 1_555
H14 C17 1_555 1_555
C18 C13 1_555 1_555
H15 C18 1_555 1_555
H16 C18 1_555 1_555
H17 C18 1_555 1_555
C19 C2 1_555 1_555
C20 C19 1_555 1_555
C21 C20 1_555 1_555
H18 C21 1_555 1_555
H19 C21 1_555 1_555
H20 C21 1_555 1_555
C22 C4 1_555 1_555
C23 C7 1_555 1_555
C24 C23 1_555 1_555
C25 C24 1_555 1_555
H21 C25 1_555 1_555
C26 C25 1_555 1_555
H22 C26 1_555 1_555
C27 C26 1_555 1_555
H23 C27 1_555 1_555
C28 C27 1_555 1_555
H24 C28 1_555 1_555
C29 C24 1_555 1_555
C30 C29 1_555 1_555
H25 C30 1_555 1_555
H26 C30 1_555 1_555
H27 C30 1_555 1_555
C31 C19 1_555 1_555
H28 C31 1_555 1_555
H29 C31 1_555 1_555
H30 C31 1_555 1_555
C32 C8 1_555 1_555
C33 C11 1_555 1_555
H31 C33 1_555 1_555
C34 C32 1_555 1_555
H32 C34 1_555 1_555
H33 C34 1_555 1_555
H34 C34 1_555 1_555
C14 C15 1_555 1_555
C20 C22 1_555 1_555
C22 C23 1_555 1_555
C28 C29 1_555 1_555
C32 C33 1_555 1_555

#END
