
#######################################################################
#
#                 Cambridge Crystallographic Data Centre
#                                CCDC 
#
#######################################################################
#
# If this CIF has been generated from an entry in the Cambridge 
# Structural Database, then it will include bibliographic, chemical, 
# crystal, experimental, refinement or atomic coordinate data resulting 
# from the CCDC's data processing and validation procedures.
#
#######################################################################

data_UDAHAL
_chemical_formula_moiety         'C18 H26 O4'
_chemical_name_systematic        
2,2,2',2'-tetramethyl-3a,3a',6,6',7,7',7a,7a'-octahydro-4,4'-bi-1,3-benzodioxole
_symmetry_cell_setting           monoclinic
_symmetry_space_group_name_H-M   'P 21'
_symmetry_Int_Tables_number      4
_space_group_name_Hall           'P 2yb'
loop_
_symmetry_equiv_pos_site_id
_symmetry_equiv_pos_as_xyz
1 x,y,z
2 -x,1/2+y,-z
_cell_length_a                   6.2927(7)
_cell_length_b                   17.9903(19)
_cell_length_c                   7.2991(8)
_cell_angle_alpha                90
_cell_angle_beta                 95.216(4)
_cell_angle_gamma                90
_cell_volume                     822.892
_exptl_crystal_colour            yellow
_exptl_crystal_description       parallelepiped
_cell_formula_units_Z            2
loop_
_atom_site_label
_atom_site_type_symbol
_atom_site_fract_x
_atom_site_fract_y
_atom_site_fract_z
C1 C 0.6166(3) 1.13949(11) 0.8000(3)
H1 H 0.5916 1.1910 0.7652
H2 H 0.6639 1.1382 0.9302
C2 C 0.5034(4) 0.77162(12) 0.6693(3)
H3 H 0.5554 0.7523 0.5577
H4 H 0.3603 0.7526 0.6774
C3 C 0.8127(3) 1.05458(10) 0.4052(2)
C4 C 0.6472(4) 0.74545(11) 0.8343(3)
H5 H 0.5835 0.7580 0.9464
H6 H 0.6625 0.6919 0.8297
C5 C 0.6299(3) 1.01769(13) 0.2920(3)
H7 H 0.5609 1.0532 0.2084
H8 H 0.5291 0.9991 0.3719
H9 H 0.6832 0.9773 0.2235
C6 C 1.0094(3) 0.83055(10) 1.1168(3)
C7 C 0.9882(4) 1.07986(15) 0.2908(3)
H10 H 1.0446 1.0377 0.2306
H11 H 1.1000 1.1030 0.3691
H12 H 0.9314 1.1149 0.2000
C8 C 1.2355(4) 0.85972(14) 1.1342(4)
H13 H 1.2803 0.8687 1.0139
H14 H 1.3284 0.8237 1.1970
H15 H 1.2417 0.9053 1.2029
C9 C 0.9298(5) 0.81210(16) 1.2994(3)
H16 H 0.7901 0.7905 1.2800
H17 H 0.9231 0.8567 1.3710
H18 H 1.0254 0.7774 1.3637
C10 C 0.4092(3) 1.09664(11) 0.7669(3)
H19 H 0.3159 1.1102 0.8602
H20 H 0.3389 1.1105 0.6481
C11 C 0.4969(3) 0.85505(11) 0.6607(3)
H21 H 0.3814 0.8774 0.5935
C12 C 0.4430(3) 1.01436(10) 0.7714(3)
H22 H 0.3277 0.9845 0.7940
C13 C 0.6466(3) 0.89895(9) 0.7434(2)
C14 C 0.6263(2) 0.98093(9) 0.7455(2)
C15 C 0.8491(3) 0.86610(9) 0.8348(2)
H23 H 0.9718 0.8867 0.7785
O1 O 0.8671(2) 0.88358(7) 1.02685(17)
C16 C 0.8247(2) 1.02504(9) 0.7153(2)
H24 H 0.9338 1.0159 0.8173
O2 O 0.90773(18) 1.00550(6) 0.54514(17)
C17 C 0.8628(3) 0.78135(10) 0.8361(2)
H25 H 0.9330 0.7645 0.7290
O3 O 0.9974(3) 0.76615(7) 1.0002(2)
C18 C 0.7894(3) 1.10842(9) 0.6933(3)
H26 H 0.9235 1.1349 0.7263
O4 O 0.7303(3) 1.11563(8) 0.50051(18)
loop_
_geom_bond_atom_site_label_1
_geom_bond_atom_site_label_2
_geom_bond_site_symmetry_1
_geom_bond_site_symmetry_2
C1 H1 1_555 1_555
H2 C1 1_555 1_555
C2 H3 1_555 1_555
H4 C2 1_555 1_555
C3 C5 1_555 1_555
C4 C2 1_555 1_555
H5 C4 1_555 1_555
H6 C4 1_555 1_555
C5 H7 1_555 1_555
H8 C5 1_555 1_555
H9 C5 1_555 1_555
C6 C8 1_555 1_555
C7 C3 1_555 1_555
H10 C7 1_555 1_555
H11 C7 1_555 1_555
H12 C7 1_555 1_555
C8 H13 1_555 1_555
H14 C8 1_555 1_555
H15 C8 1_555 1_555
C9 C6 1_555 1_555
H16 C9 1_555 1_555
H17 C9 1_555 1_555
H18 C9 1_555 1_555
C10 C1 1_555 1_555
H19 C10 1_555 1_555
H20 C10 1_555 1_555
C11 C2 1_555 1_555
H21 C11 1_555 1_555
C12 C10 1_555 1_555
H22 C12 1_555 1_555
C13 C11 1_555 1_555
C14 C12 1_555 1_555
C15 C13 1_555 1_555
H23 C15 1_555 1_555
O1 C6 1_555 1_555
C16 C14 1_555 1_555
H24 C16 1_555 1_555
O2 C3 1_555 1_555
C17 C4 1_555 1_555
H25 C17 1_555 1_555
O3 C6 1_555 1_555
C18 C1 1_555 1_555
H26 C18 1_555 1_555
O4 C3 1_555 1_555
C13 C14 1_555 1_555
C15 O1 1_555 1_555
C15 C17 1_555 1_555
C16 O2 1_555 1_555
C16 C18 1_555 1_555
C17 O3 1_555 1_555
C18 O4 1_555 1_555

#END
