
#######################################################################
#
#                 Cambridge Crystallographic Data Centre
#                                CCDC 
#
#######################################################################
#
# If this CIF has been generated from an entry in the Cambridge 
# Structural Database, then it will include bibliographic, chemical, 
# crystal, experimental, refinement or atomic coordinate data resulting 
# from the CCDC's data processing and validation procedures.
#
#######################################################################

data_UDAJUH
_chemical_formula_moiety         'C22 H19 N1 O6 S2'
_chemical_name_systematic        
N-((1-methyl-3-oxo-1,3-dihydro-2-benzofuran-1-yl)methyl)-N-(phenylsulfonyl)benzenesulfonamide
_symmetry_cell_setting           monoclinic
_symmetry_space_group_name_H-M   'P 21/c'
_symmetry_Int_Tables_number      14
_space_group_name_Hall           '-P 2ybc'
loop_
_symmetry_equiv_pos_site_id
_symmetry_equiv_pos_as_xyz
1 x,y,z
2 -x,1/2+y,1/2-z
3 -x,-y,-z
4 x,1/2-y,1/2+z
_cell_length_a                   8.5085(9)
_cell_length_b                   10.5638(12)
_cell_length_c                   23.179(3)
_cell_angle_alpha                90
_cell_angle_beta                 92.665(2)
_cell_angle_gamma                90
_cell_volume                     2081.12
_cell_formula_units_Z            4
loop_
_atom_site_label
_atom_site_type_symbol
_atom_site_fract_x
_atom_site_fract_y
_atom_site_fract_z
C1 C 0.6717(2) 0.69728(15) 0.40875(7)
C2 C 0.8221(2) 0.70431(19) 0.38853(8)
H1 H 0.8588 0.6431 0.3637
C3 C 0.9161(3) 0.8053(2) 0.40643(9)
H2 H 1.0178 0.8117 0.3937
C4 C 0.8608(3) 0.8964(2) 0.44300(9)
H3 H 0.9260 0.9635 0.4543
C5 C 0.7108(3) 0.89042(17) 0.46317(8)
H4 H 0.6741 0.9519 0.4879
C6 C 0.6168(2) 0.78904(16) 0.44516(7)
C7 C 0.5447(2) 0.60023(15) 0.39705(7)
C8 C 0.5873(3) 0.47070(17) 0.42118(7)
H5 H 0.6138 0.4777 0.4618
H6 H 0.6758 0.4378 0.4018
H7 H 0.4992 0.4146 0.4153
C9 C 0.4538(2) 0.75902(17) 0.45746(7)
C10 C 0.4967(2) 0.60334(14) 0.33238(6)
H8 H 0.4514 0.6858 0.3236
H9 H 0.5914 0.5959 0.3109
C11 C 0.7027(2) 0.4693(2) 0.21065(9)
H10 H 0.7662 0.4324 0.2398
C12 C 0.7692(3) 0.5315(2) 0.16538(10)
H11 H 0.8781 0.5357 0.1635
C13 C 0.6747(3) 0.5868(2) 0.12334(9)
H12 H 0.7199 0.6303 0.0934
C14 C 0.5136(3) 0.5790(2) 0.12461(8)
H13 H 0.4507 0.6164 0.0955
C15 C 0.4448(2) 0.51569(19) 0.16924(8)
H14 H 0.3360 0.5090 0.1702
C16 C 0.5411(2) 0.46282(15) 0.21215(7)
C17 C 0.1007(2) 0.43125(17) 0.35013(8)
C18 C 0.0121(2) 0.33306(19) 0.32664(9)
H15 H 0.0051 0.3203 0.2869
C19 C -0.0665(2) 0.2537(2) 0.36330(11)
H16 H -0.1292 0.1887 0.3480
C20 C -0.0522(2) 0.2706(2) 0.42189(11)
H17 H -0.1049 0.2168 0.4462
C21 C 0.0398(3) 0.3671(2) 0.44499(9)
H18 H 0.0509 0.3769 0.4848
C22 C 0.1158(2) 0.44942(19) 0.40922(8)
H19 H 0.1760 0.5158 0.4246
N1 N 0.38400(16) 0.50567(12) 0.31067(5)
O1 O 0.32982(16) 0.30917(12) 0.25380(6)
O2 O 0.58654(16) 0.33575(12) 0.30584(5)
O3 O 0.13101(16) 0.52081(15) 0.24675(6)
O4 O 0.17933(16) 0.66415(12) 0.32913(6)
O5 O 0.41367(14) 0.64894(11) 0.42977(5)
O6 O 0.36187(19) 0.81335(14) 0.48654(6)
S1 S 0.45916(5) 0.38691(4) 0.27159(2)
S2 S 0.18991(5) 0.54098(4) 0.30441(2)
loop_
_geom_bond_atom_site_label_1
_geom_bond_atom_site_label_2
_geom_bond_site_symmetry_1
_geom_bond_site_symmetry_2
C1 C2 1_555 1_555
C2 H1 1_555 1_555
C3 C2 1_555 1_555
H2 C3 1_555 1_555
C4 C3 1_555 1_555
H3 C4 1_555 1_555
C5 C4 1_555 1_555
H4 C5 1_555 1_555
C6 C1 1_555 1_555
C7 C1 1_555 1_555
C8 C7 1_555 1_555
H5 C8 1_555 1_555
H6 C8 1_555 1_555
H7 C8 1_555 1_555
C9 C6 1_555 1_555
C10 C7 1_555 1_555
H8 C10 1_555 1_555
H9 C10 1_555 1_555
C11 H10 1_555 1_555
C12 C11 1_555 1_555
H11 C12 1_555 1_555
C13 C12 1_555 1_555
H12 C13 1_555 1_555
C14 C13 1_555 1_555
H13 C14 1_555 1_555
C15 C14 1_555 1_555
H14 C15 1_555 1_555
C16 C11 1_555 1_555
C17 C18 1_555 1_555
C18 H15 1_555 1_555
C19 C18 1_555 1_555
H16 C19 1_555 1_555
C20 C19 1_555 1_555
H17 C20 1_555 1_555
C21 C20 1_555 1_555
H18 C21 1_555 1_555
C22 C17 1_555 1_555
H19 C22 1_555 1_555
N1 C10 1_555 1_555
O1 S1 1_555 1_555
O2 S1 1_555 1_555
O3 S2 1_555 1_555
O4 S2 1_555 1_555
O5 C7 1_555 1_555
O6 C9 1_555 1_555
S1 C16 1_555 1_555
S2 C17 1_555 1_555
C5 C6 1_555 1_555
C9 O5 1_555 1_555
C15 C16 1_555 1_555
C21 C22 1_555 1_555
N1 S1 1_555 1_555
N1 S2 1_555 1_555

#END
