
#######################################################################
#
#                 Cambridge Crystallographic Data Centre
#                                CCDC 
#
#######################################################################
#
# If this CIF has been generated from an entry in the Cambridge 
# Structural Database, then it will include bibliographic, chemical, 
# crystal, experimental, refinement or atomic coordinate data resulting 
# from the CCDC's data processing and validation procedures.
#
#######################################################################

data_UDAMOE
_chemical_formula_moiety         'C25 H22 Br1 N1 O6'
_chemical_name_systematic        
(Z)-3-(5-acetyl-4-(4-bromophenyl)-6-methyl-3-(4-nitrophenyl)-4H-pyran-2-yl)-4-hydroxypent-3-en-2-one
_symmetry_cell_setting           triclinic
_symmetry_space_group_name_H-M   'P -1'
_symmetry_Int_Tables_number      2
_space_group_name_Hall           '-P 1'
loop_
_symmetry_equiv_pos_site_id
_symmetry_equiv_pos_as_xyz
1 x,y,z
2 -x,-y,-z
_cell_length_a                   8.3670(4)
_cell_length_b                   11.6293(5)
_cell_length_c                   13.7574(6)
_cell_angle_alpha                92.553(2)
_cell_angle_beta                 99.695(2)
_cell_angle_gamma                95.407(2)
_cell_volume                     1311.15
_exptl_crystal_colour            colorless
_exptl_crystal_description       block
_cell_formula_units_Z            2
_exptl_crystal_recrystallization_method 'dichloromethane /  hexane'
loop_
_atom_site_label
_atom_site_type_symbol
_atom_site_fract_x
_atom_site_fract_y
_atom_site_fract_z
Br1 Br 0.06089(8) 0.74991(4) 0.72249(4)
O1 O 0.3870(5) 1.2684(4) 1.3164(2)
O2 O 0.5602(7) 1.4148(3) 1.3333(2)
O3 O 0.1148(4) 1.3552(3) 0.6820(2)
O4 O 0.6581(3) 1.2757(2) 0.73954(16)
O5 O 1.0117(3) 1.2037(2) 1.01187(19)
H1 H 1.0655 1.2638 1.0032
O6 O 1.0801(3) 1.3894(2) 0.9420(2)
N1 N 0.4742(5) 1.3407(3) 1.2832(2)
C1 C 0.2843(4) 1.1341(3) 0.7850(2)
C2 C 0.3769(4) 1.0494(3) 0.7613(3)
H2 H 0.4859 1.0690 0.7574
C3 C 0.3113(5) 0.9350(3) 0.7429(3)
H3 H 0.3752 0.8784 0.7264
C4 C 0.1509(6) 0.9064(4) 0.7494(3)
C5 C 0.0558(5) 0.9884(4) 0.7717(3)
H4 H -0.0535 0.9684 0.7745
C6 C 0.1230(4) 1.1025(4) 0.7903(3)
H5 H 0.0583 1.1586 0.8066
C7 C 0.5061(3) 1.2985(3) 0.9804(2)
C8 C 0.6050(4) 1.3853(3) 1.0407(2)
H6 H 0.6787 1.4343 1.0142
C9 C 0.5951(4) 1.3998(3) 1.1401(2)
H7 H 0.6619 1.4576 1.1805
C10 C 0.4840(4) 1.3267(3) 1.1776(2)
C11 C 0.3839(4) 1.2411(3) 1.1197(2)
H8 H 0.3100 1.1926 1.1464
C12 C 0.3949(4) 1.2281(3) 1.0212(2)
H9 H 0.3263 1.1709 0.9811
C13 C 0.6541(4) 1.2822(3) 0.8402(2)
C14 C 0.5131(4) 1.2818(3) 0.8733(2)
C15 C 0.3558(4) 1.2608(3) 0.8002(2)
H10 H 0.2757 1.3051 0.8252
C16 C 0.3802(4) 1.3058(3) 0.7013(2)
C17 C 0.5269(4) 1.3070(3) 0.6748(2)
C18 C 0.7617(4) 1.0908(3) 0.9685(3)
H11 H 0.8215 1.0434 1.0139
H12 H 0.7297 1.0491 0.9053
H13 H 0.6663 1.1103 0.9931
C19 C 0.8669(4) 1.1991(3) 0.9578(2)
C20 C 0.8202(4) 1.2873(3) 0.8983(2)
C21 C 0.9362(4) 1.3837(3) 0.8922(3)
C22 C 0.8937(5) 1.4810(3) 0.8297(3)
H14 H 0.9867 1.5375 0.8355
H15 H 0.8053 1.5162 0.8513
H16 H 0.8615 1.4523 0.7621
C23 C 0.2313(5) 1.3448(3) 0.6420(3)
C24 C 0.2162(6) 1.3694(5) 0.5354(3)
H17 H 0.1101 1.3931 0.5125
H18 H 0.2305 1.3009 0.4977
H19 H 0.2981 1.4302 0.5276
C25 C 0.5856(6) 1.3387(4) 0.5810(3)
H20 H 0.4964 1.3607 0.5345
H21 H 0.6284 1.2733 0.5533
H22 H 0.6696 1.4022 0.5952
loop_
_geom_bond_atom_site_label_1
_geom_bond_atom_site_label_2
_geom_bond_site_symmetry_1
_geom_bond_site_symmetry_2
Br1 C4 1_555 1_555
O1 N1 1_555 1_555
O2 N1 1_555 1_555
O3 C23 1_555 1_555
O4 C13 1_555 1_555
O5 H1 1_555 1_555
O6 C21 1_555 1_555
N1 C10 1_555 1_555
C1 C2 1_555 1_555
C2 H2 1_555 1_555
C3 C2 1_555 1_555
H3 C3 1_555 1_555
C4 C3 1_555 1_555
C5 C4 1_555 1_555
H4 C5 1_555 1_555
C6 C1 1_555 1_555
H5 C6 1_555 1_555
C7 C8 1_555 1_555
C8 H6 1_555 1_555
C9 C8 1_555 1_555
H7 C9 1_555 1_555
C10 C9 1_555 1_555
C11 C10 1_555 1_555
H8 C11 1_555 1_555
C12 C7 1_555 1_555
H9 C12 1_555 1_555
C13 C14 1_555 1_555
C14 C7 1_555 1_555
C15 C1 1_555 1_555
H10 C15 1_555 1_555
C16 C15 1_555 1_555
C17 O4 1_555 1_555
C18 H11 1_555 1_555
H12 C18 1_555 1_555
H13 C18 1_555 1_555
C19 O5 1_555 1_555
C20 C13 1_555 1_555
C21 C20 1_555 1_555
C22 C21 1_555 1_555
H14 C22 1_555 1_555
H15 C22 1_555 1_555
H16 C22 1_555 1_555
C23 C16 1_555 1_555
C24 C23 1_555 1_555
H17 C24 1_555 1_555
H18 C24 1_555 1_555
H19 C24 1_555 1_555
C25 C17 1_555 1_555
H20 C25 1_555 1_555
H21 C25 1_555 1_555
H22 C25 1_555 1_555
C5 C6 1_555 1_555
C11 C12 1_555 1_555
C14 C15 1_555 1_555
C16 C17 1_555 1_555
C18 C19 1_555 1_555
C19 C20 1_555 1_555

#END
