
#######################################################################
#
#                 Cambridge Crystallographic Data Centre
#                                CCDC 
#
#######################################################################
#
# If this CIF has been generated from an entry in the Cambridge 
# Structural Database, then it will include bibliographic, chemical, 
# crystal, experimental, refinement or atomic coordinate data resulting 
# from the CCDC's data processing and validation procedures.
#
#######################################################################

data_UDAMIW
_chemical_formula_moiety         '2(C20 H12 Br2 N2),C14 H12 Br2 O2'
_chemical_name_systematic        
'bis(2,3-bis(4-Bromophenyl)quinoxaline) 1,2-bis(4-bromophenyl)ethane-1,2-diol'
_symmetry_cell_setting           triclinic
_symmetry_space_group_name_H-M   'P -1'
_symmetry_Int_Tables_number      2
_space_group_name_Hall           '-P 1'
loop_
_symmetry_equiv_pos_site_id
_symmetry_equiv_pos_as_xyz
1 x,y,z
2 -x,-y,-z
_cell_length_a                   7.8746(7)
_cell_length_b                   11.9601(9)
_cell_length_c                   14.446(2)
_cell_angle_alpha                66.121(11)
_cell_angle_beta                 83.931(17)
_cell_angle_gamma                71.126(15)
_cell_volume                     1176.69
_exptl_crystal_colour            yellow
_exptl_crystal_description       block
_cell_formula_units_Z            1
_exptl_crystal_recrystallization_method ethanol
loop_
_atom_site_label
_atom_site_type_symbol
_atom_site_fract_x
_atom_site_fract_y
_atom_site_fract_z
Br1 Br 0.18716(5) 0.26657(4) 0.10396(3)
O1 O 0.9723(4) 0.1028(3) -0.1319(2)
H1 H 1.0028 0.1697 -0.1611
C1 C 0.9635(4) 0.0733(3) -0.0280(3)
H2 H 1.0429 0.1127 -0.0103
C2 C 0.7746(4) 0.1253(3) 0.0039(3)
C3 C 0.7420(4) 0.1597(3) 0.0862(3)
H3 H 0.8403 0.1533 0.1229
C4 C 0.5689(5) 0.2031(3) 0.1160(3)
H4 H 0.5481 0.2266 0.1726
C5 C 0.4266(4) 0.2116(3) 0.0623(3)
C6 C 0.4543(5) 0.1804(4) -0.0205(3)
H5 H 0.3552 0.1885 -0.0576
C7 C 0.6283(5) 0.1367(4) -0.0497(3)
H6 H 0.6483 0.1143 -0.1068
Br1A Br 1.81284(5) -0.26657(4) -0.10396(3)
O1A O 1.0277(4) -0.1028(3) 0.1319(2)
H1A H 0.9972 -0.1697 0.1611
C1A C 1.0365(4) -0.0733(3) 0.0280(3)
H2A H 0.9571 -0.1127 0.0103
C2A C 1.2254(4) -0.1253(3) -0.0039(3)
C3A C 1.2580(4) -0.1597(3) -0.0862(3)
H3A H 1.1597 -0.1533 -0.1229
C4A C 1.4311(5) -0.2031(3) -0.1160(3)
H4A H 1.4519 -0.2266 -0.1726
C5A C 1.5734(4) -0.2116(3) -0.0623(3)
C6A C 1.5457(5) -0.1804(4) 0.0205(3)
H5A H 1.6448 -0.1885 0.0576
C7A C 1.3717(5) -0.1367(4) 0.0497(3)
H6A H 1.3517 -0.1143 0.1068
Br2 Br 0.29452(6) -0.10449(4) 0.60234(3)
Br3 Br 0.76080(4) 0.44789(4) 0.14796(3)
N1 N -0.1047(3) 0.6848(3) 0.25153(19)
N2 N -0.2433(4) 0.5171(3) 0.4153(2)
C8 C -0.2719(4) 0.7286(3) 0.2861(2)
C9 C -0.3407(4) 0.6444(3) 0.3694(2)
C10 C -0.0837(4) 0.4758(3) 0.3806(2)
C11 C -0.0101(4) 0.5630(3) 0.2980(2)
C12 C -0.3723(4) 0.8593(3) 0.2414(3)
H7 H -0.3269 0.9166 0.1852
C13 C -0.5339(5) 0.9035(4) 0.2785(3)
H8 H -0.6003 0.9922 0.2491
C14 C -0.6048(5) 0.8182(4) 0.3611(3)
H9 H -0.7196 0.8501 0.3853
C15 C -0.5104(4) 0.6916(4) 0.4059(3)
H10 H -0.5584 0.6353 0.4614
C16 C 0.0113(4) 0.3359(3) 0.4319(2)
C17 C -0.0023(5) 0.2748(3) 0.5371(3)
H11 H -0.0701 0.3236 0.5742
C18 C 0.0816(5) 0.1449(4) 0.5874(3)
H12 H 0.0721 0.1043 0.6586
C19 C 0.1792(5) 0.0746(3) 0.5335(3)
C20 C 0.1925(5) 0.1316(4) 0.4302(3)
H13 H 0.2587 0.0816 0.3937
C21 C 0.1090(5) 0.2618(4) 0.3798(3)
H14 H 0.1188 0.3010 0.3085
C22 C 0.1752(4) 0.5256(3) 0.2629(2)
C23 C 0.3219(4) 0.4640(3) 0.3316(3)
H15 H 0.3017 0.4388 0.4022
C24 C 0.4950(4) 0.4397(3) 0.2982(3)
H16 H 0.5942 0.3983 0.3450
C25 C 0.5221(4) 0.4769(3) 0.1946(3)
C26 C 0.3806(4) 0.5352(3) 0.1257(3)
H17 H 0.4016 0.5578 0.0554
C27 C 0.2074(4) 0.5606(3) 0.1600(3)
H18 H 0.1090 0.6025 0.1127
loop_
_geom_bond_atom_site_label_1
_geom_bond_atom_site_label_2
_geom_bond_site_symmetry_1
_geom_bond_site_symmetry_2
Br1 C5 1_555 1_555
Br2 C19 1_555 1_555
Br3 C25 1_555 1_555
O1 H1 1_555 1_555
N1 C8 1_555 1_555
N2 C9 1_555 1_555
C1 O1 1_555 1_555
H2 C1 1_555 1_555
C2 C1 1_555 1_555
C3 C2 1_555 1_555
H3 C3 1_555 1_555
C4 C3 1_555 1_555
H4 C4 1_555 1_555
C5 C4 1_555 1_555
C6 C5 1_555 1_555
H5 C6 1_555 1_555
C7 C2 1_555 1_555
H6 C7 1_555 1_555
C8 C9 1_555 1_555
C9 C15 1_555 1_555
C10 N2 1_555 1_555
C11 N1 1_555 1_555
C12 C8 1_555 1_555
H7 C12 1_555 1_555
C13 C12 1_555 1_555
H8 C13 1_555 1_555
C14 C13 1_555 1_555
H9 C14 1_555 1_555
C15 C14 1_555 1_555
H10 C15 1_555 1_555
C16 C10 1_555 1_555
C17 C16 1_555 1_555
H11 C17 1_555 1_555
C18 C17 1_555 1_555
H12 C18 1_555 1_555
C19 C18 1_555 1_555
C20 C19 1_555 1_555
H13 C20 1_555 1_555
C21 C16 1_555 1_555
H14 C21 1_555 1_555
C22 C11 1_555 1_555
C23 C22 1_555 1_555
H15 C23 1_555 1_555
C24 C23 1_555 1_555
H16 C24 1_555 1_555
C25 C24 1_555 1_555
C26 C25 1_555 1_555
H17 C26 1_555 1_555
C27 C22 1_555 1_555
H18 C27 1_555 1_555
Br1A C5A 1_555 1_555
O1A H1A 1_555 1_555
C1A C1 1_555 1_555
H2A C1A 1_555 1_555
C2A C1A 1_555 1_555
C3A C2A 1_555 1_555
H3A C3A 1_555 1_555
C4A C3A 1_555 1_555
H4A C4A 1_555 1_555
C5A C4A 1_555 1_555
C6A C5A 1_555 1_555
H5A C6A 1_555 1_555
C7A C2A 1_555 1_555
H6A C7A 1_555 1_555
C6 C7 1_555 1_555
C10 C11 1_555 1_555
C20 C21 1_555 1_555
C26 C27 1_555 1_555
O1A C1A 1_555 1_555
C6A C7A 1_555 1_555

#END
