
#######################################################################
#
#                 Cambridge Crystallographic Data Centre
#                                CCDC 
#
#######################################################################
#
# If this CIF has been generated from an entry in the Cambridge 
# Structural Database, then it will include bibliographic, chemical, 
# crystal, experimental, refinement or atomic coordinate data resulting 
# from the CCDC's data processing and validation procedures.
#
#######################################################################

data_UDANUJ
_chemical_formula_moiety         'C2 H8 N1 1+,C7 H4 N1 O3 S1 1-'
_chemical_name_systematic        'Ethylammonium saccharinate'
_symmetry_cell_setting           monoclinic
_symmetry_space_group_name_H-M   'P 21/n'
_symmetry_Int_Tables_number      14
_space_group_name_Hall           '-P 2yn'
loop_
_symmetry_equiv_pos_site_id
_symmetry_equiv_pos_as_xyz
1 x,y,z
2 1/2-x,1/2+y,1/2-z
3 -x,-y,-z
4 1/2+x,1/2-y,1/2+z
_cell_length_a                   9.6355(9)
_cell_length_b                   11.2251(10)
_cell_length_c                   10.5563(10)
_cell_angle_alpha                90
_cell_angle_beta                 112.1380(10)
_cell_angle_gamma                90
_cell_volume                     1057.59
_exptl_crystal_colour            colorless
_exptl_crystal_description       prism
_cell_formula_units_Z            4
loop_
_atom_site_label
_atom_site_type_symbol
_atom_site_fract_x
_atom_site_fract_y
_atom_site_fract_z
S1 S 0.95159(4) 0.22421(3) 0.61827(4)
N1 N 0.87219(15) 0.32116(14) 0.50235(13)
O1 O 0.94215(13) 0.10551(11) 0.56239(13)
O2 O 1.10321(12) 0.25868(11) 0.70113(13)
O3 O 0.67492(12) 0.45145(10) 0.44733(11)
C1 C 0.83332(16) 0.23923(13) 0.71121(15)
C2 C 0.83629(18) 0.18393(14) 0.82944(15)
H4 H 0.9081 0.1269 0.8741
C3 C 0.7276(2) 0.21744(15) 0.87769(19)
H5 H 0.7258 0.1821 0.9567
C4 C 0.6205(2) 0.30305(17) 0.81068(19)
H6 H 0.5489 0.3243 0.8460
C5 C 0.61892(18) 0.35709(14) 0.69198(17)
H7 H 0.5468 0.4137 0.6466
C6 C 0.72783(15) 0.32430(12) 0.64324(14)
C7 C 0.75423(16) 0.37194(13) 0.52079(14)
N2 N 0.75630(15) 1.01716(13) 0.27650(14)
H1 H 0.7285 1.0933 0.2638
H2 H 0.7838 0.9932 0.2090
H3 H 0.8330 1.0093 0.3561
C8 C 0.5764(2) 0.9804(2) 0.3872(2)
H8 H 0.6580 0.9755 0.4743
H9 H 0.4970 0.9285 0.3869
H10 H 0.5402 1.0608 0.3714
C9 C 0.6290(2) 0.94356(19) 0.2774(2)
H11 H 0.6595 0.8607 0.2905
H12 H 0.5468 0.9504 0.1894
loop_
_geom_bond_atom_site_label_1
_geom_bond_atom_site_label_2
_geom_bond_site_symmetry_1
_geom_bond_site_symmetry_2
S1 N1 1_555 1_555
N1 C7 1_555 1_555
N2 H1 1_555 1_555
H2 N2 1_555 1_555
H3 N2 1_555 1_555
O1 S1 1_555 1_555
O2 S1 1_555 1_555
O3 C7 1_555 1_555
C1 S1 1_555 1_555
C2 C1 1_555 1_555
H4 C2 1_555 1_555
C3 C2 1_555 1_555
H5 C3 1_555 1_555
C4 C3 1_555 1_555
H6 C4 1_555 1_555
C5 C4 1_555 1_555
H7 C5 1_555 1_555
C6 C1 1_555 1_555
C7 C6 1_555 1_555
C8 H8 1_555 1_555
H9 C8 1_555 1_555
H10 C8 1_555 1_555
C9 N2 1_555 1_555
H11 C9 1_555 1_555
H12 C9 1_555 1_555
C5 C6 1_555 1_555
C8 C9 1_555 1_555

#END
