
#######################################################################
#
#                 Cambridge Crystallographic Data Centre
#                                CCDC 
#
#######################################################################
#
# If this CIF has been generated from an entry in the Cambridge 
# Structural Database, then it will include bibliographic, chemical, 
# crystal, experimental, refinement or atomic coordinate data resulting 
# from the CCDC's data processing and validation procedures.
#
#######################################################################

data_UDANOD
_chemical_formula_moiety         'C25 H21 Cl1 N4 O6'
_chemical_name_systematic        
4-(2-Chloro-4-nitrophenoxy)-N-(2-(4,6-dimethoxypyrimidin-2-yloxy)benzyl)aniline
_chemical_properties_biological  'possible herbicidal activity'
_symmetry_cell_setting           triclinic
_symmetry_space_group_name_H-M   'P -1'
_symmetry_Int_Tables_number      2
_space_group_name_Hall           '-P 1'
loop_
_symmetry_equiv_pos_site_id
_symmetry_equiv_pos_as_xyz
1 x,y,z
2 -x,-y,-z
_cell_length_a                   9.524(4)
_cell_length_b                   11.064(4)
_cell_length_c                   12.334(7)
_cell_angle_alpha                88.869(17)
_cell_angle_beta                 70.14(2)
_cell_angle_gamma                83.410(19)
_cell_volume                     1214.05
_exptl_crystal_colour            yellow
_exptl_crystal_description       chunk
_chemical_melting_point          '391.3-392.2 K'
_cell_formula_units_Z            2
_exptl_crystal_recrystallization_method ethanol
loop_
_atom_site_label
_atom_site_type_symbol
_atom_site_fract_x
_atom_site_fract_y
_atom_site_fract_z
C1 C 1.0992(2) 0.23648(15) -0.07818(17)
C2 C 1.1417(2) 0.32656(16) -0.15749(18)
H1 H 1.1404 0.3180 -0.2320
C3 C 1.1859(2) 0.42923(15) -0.12408(19)
C4 C 1.1885(2) 0.44413(16) -0.0144(2)
H2 H 1.2192 0.5143 0.0064
C5 C 1.1452(2) 0.35381(16) 0.06409(19)
H3 H 1.1446 0.3636 0.1390
C6 C 1.1024(2) 0.24809(14) 0.03221(17)
C7 C 1.0577(2) 0.16140(14) 0.21717(17)
C8 C 1.1872(2) 0.13091(16) 0.2439(2)
H4 H 1.2785 0.1089 0.1857
C9 C 1.1799(2) 0.13337(15) 0.3565(2)
H5 H 1.2671 0.1138 0.3742
C10 C 1.0442(2) 0.16461(13) 0.44505(18)
C11 C 0.9156(2) 0.19436(15) 0.41560(18)
H6 H 0.8237 0.2160 0.4733
C12 C 0.9230(2) 0.19213(15) 0.30196(17)
H7 H 0.8364 0.2115 0.2833
C13 C 0.8987(3) 0.17673(17) 0.6531(2)
H8 H 0.9161 0.1391 0.7199
H9 H 0.8301 0.1307 0.6329
C14 C 0.8237(3) 0.30515(16) 0.68655(17)
C15 C 0.8931(3) 0.40759(17) 0.63941(18)
H10 H 0.9897 0.3979 0.5855
C16 C 0.8202(3) 0.52352(18) 0.6718(2)
H11 H 0.8683 0.5907 0.6392
C17 C 0.6788(3) 0.5406(2) 0.7509(2)
H12 H 0.6300 0.6189 0.7709
C18 C 0.6080(3) 0.4407(2) 0.8013(2)
H13 H 0.5129 0.4511 0.8572
C19 C 0.6814(3) 0.32560(19) 0.76692(18)
C20 C 0.5342(2) 0.16607(16) 0.76924(17)
C21 C 0.4151(2) 0.00458(16) 0.77120(19)
C22 C 0.3932(2) 0.03961(18) 0.6709(2)
H14 H 0.3458 -0.0067 0.6348
C23 C 0.4449(2) 0.14655(17) 0.62657(18)
C24 C 0.3696(3) -0.1299(2) 0.9305(2)
H15 H 0.4721 -0.1390 0.9280
H16 H 0.3274 -0.2049 0.9538
H17 H 0.3129 -0.0663 0.9848
C25 C 0.4708(3) 0.2997(2) 0.4838(2)
H18 H 0.4275 0.3640 0.5405
H19 H 0.4417 0.3178 0.4174
H20 H 0.5783 0.2924 0.4615
N1 N 1.0393(2) 0.16729(15) 0.55853(17)
H21 H 1.1341 0.1410 0.5710
N2 N 0.48542(17) 0.06733(13) 0.82408(14)
N3 N 0.51929(18) 0.21190(13) 0.67419(14)
N4 N 1.2341(2) 0.52390(16) -0.2084(2)
O1 O 1.06171(17) 0.15311(11) 0.10288(12)
O2 O 0.61195(19) 0.22477(14) 0.82188(13)
O3 O 0.36420(19) -0.09925(13) 0.81816(16)
O4 O 0.41850(19) 0.18774(14) 0.53136(14)
O5 O 1.2280(2) 0.51091(15) -0.30417(19)
O6 O 1.2780(2) 0.61300(14) -0.17832(18)
Cl1 Cl 1.04216(7) 0.10522(4) -0.11542(5)
loop_
_geom_bond_atom_site_label_1
_geom_bond_atom_site_label_2
_geom_bond_site_symmetry_1
_geom_bond_site_symmetry_2
C1 C2 1_555 1_555
C2 H1 1_555 1_555
C3 C2 1_555 1_555
C4 C3 1_555 1_555
H2 C4 1_555 1_555
C5 C4 1_555 1_555
H3 C5 1_555 1_555
C6 C1 1_555 1_555
C7 C8 1_555 1_555
C8 H4 1_555 1_555
C9 C8 1_555 1_555
H5 C9 1_555 1_555
C10 C9 1_555 1_555
C11 C10 1_555 1_555
H6 C11 1_555 1_555
C12 C7 1_555 1_555
H7 C12 1_555 1_555
C13 H8 1_555 1_555
H9 C13 1_555 1_555
C14 C13 1_555 1_555
C15 C14 1_555 1_555
H10 C15 1_555 1_555
C16 C15 1_555 1_555
H11 C16 1_555 1_555
C17 C16 1_555 1_555
H12 C17 1_555 1_555
C18 C17 1_555 1_555
H13 C18 1_555 1_555
C19 C14 1_555 1_555
C20 N2 1_555 1_555
C21 C22 1_555 1_555
C22 H14 1_555 1_555
C23 C22 1_555 1_555
C24 H15 1_555 1_555
H16 C24 1_555 1_555
H17 C24 1_555 1_555
C25 H18 1_555 1_555
H19 C25 1_555 1_555
H20 C25 1_555 1_555
N1 C10 1_555 1_555
H21 N1 1_555 1_555
N2 C21 1_555 1_555
N3 C20 1_555 1_555
N4 C3 1_555 1_555
O1 C6 1_555 1_555
O2 C19 1_555 1_555
O3 C21 1_555 1_555
O4 C23 1_555 1_555
O5 N4 1_555 1_555
O6 N4 1_555 1_555
Cl1 C1 1_555 1_555
C5 C6 1_555 1_555
C7 O1 1_555 1_555
C11 C12 1_555 1_555
C13 N1 1_555 1_555
C18 C19 1_555 1_555
C20 O2 1_555 1_555
C23 N3 1_555 1_555
C24 O3 1_555 1_555
C25 O4 1_555 1_555

#END
