
#######################################################################
#
#                 Cambridge Crystallographic Data Centre
#                                CCDC 
#
#######################################################################
#
# If this CIF has been generated from an entry in the Cambridge 
# Structural Database, then it will include bibliographic, chemical, 
# crystal, experimental, refinement or atomic coordinate data resulting 
# from the CCDC's data processing and validation procedures.
#
#######################################################################

data_UDAQUM
_chemical_formula_moiety         'C5 H4 Cl1 N1 O2'
_chemical_name_systematic        '(Z)-5-Chlorofuran-2-carbaldehyde oxime'
_symmetry_cell_setting           monoclinic
_symmetry_space_group_name_H-M   'P 21/n'
_symmetry_Int_Tables_number      14
_space_group_name_Hall           '-P 2yn'
loop_
_symmetry_equiv_pos_site_id
_symmetry_equiv_pos_as_xyz
1 x,y,z
2 1/2-x,1/2+y,1/2-z
3 -x,-y,-z
4 1/2+x,1/2-y,1/2+z
_cell_length_a                   9.394(3)
_cell_length_b                   5.0879(15)
_cell_length_c                   12.870(4)
_cell_angle_alpha                90
_cell_angle_beta                 102.301(4)
_cell_angle_gamma                90
_cell_volume                     601.009
_exptl_crystal_colour            colorless
_exptl_crystal_description       block
_cell_formula_units_Z            4
_exptl_crystal_recrystallization_method hexane/dichloromethane
loop_
_atom_site_label
_atom_site_type_symbol
_atom_site_fract_x
_atom_site_fract_y
_atom_site_fract_z
Cl1 Cl 0.13446(8) 0.22129(16) 0.51656(6)
O1 O 0.35953(18) 0.2213(3) 0.43231(13)
O2 O 0.6067(2) 0.5928(4) 0.25446(15)
H1 H 0.6663 0.6475 0.2215
N1 N 0.6512(2) 0.3476(4) 0.29819(17)
C1 C 0.2395(2) 0.3608(5) 0.44027(19)
C2 C 0.2291(3) 0.5858(5) 0.3861(2)
H2 H 0.1561 0.7117 0.3804
C3 C 0.3525(3) 0.5937(5) 0.33906(19)
H3 H 0.3759 0.7268 0.2961
C4 C 0.4297(2) 0.3709(5) 0.36835(17)
C5 C 0.5617(3) 0.2537(5) 0.3502(2)
H4 H 0.5846 0.0888 0.3803
loop_
_geom_bond_atom_site_label_1
_geom_bond_atom_site_label_2
_geom_bond_site_symmetry_1
_geom_bond_site_symmetry_2
Cl1 C1 1_555 1_555
O1 C1 1_555 1_555
O2 H1 1_555 1_555
N1 O2 1_555 1_555
C1 C2 1_555 1_555
C2 H2 1_555 1_555
C3 C2 1_555 1_555
H3 C3 1_555 1_555
C4 O1 1_555 1_555
C5 N1 1_555 1_555
H4 C5 1_555 1_555
C3 C4 1_555 1_555
C4 C5 1_555 1_555

#END
