
#######################################################################
#
#                 Cambridge Crystallographic Data Centre
#                                CCDC 
#
#######################################################################
#
# If this CIF has been generated from an entry in the Cambridge 
# Structural Database, then it will include bibliographic, chemical, 
# crystal, experimental, refinement or atomic coordinate data resulting 
# from the CCDC's data processing and validation procedures.
#
#######################################################################

data_UDAQUL01
_chemical_formula_moiety         'C24 H48 Mg1 O6 2+,2(I1 1-)'
_chemical_name_systematic        'hexakis(tetrahydrofuran)-magnesium diiodide'
_symmetry_cell_setting           cubic
_symmetry_space_group_name_H-M   'P n -3'
_symmetry_Int_Tables_number      201
_space_group_name_Hall           '-P 2ab 2bc 3'
loop_
_symmetry_equiv_pos_site_id
_symmetry_equiv_pos_as_xyz
1 x,y,z
2 y,z,x
3 z,x,y
4 y,1/2-z,1/2-x
5 z,1/2-x,1/2-y
6 1/2-z,x,1/2-y
7 1/2-x,y,1/2-z
8 1/2-y,z,1/2-x
9 x,1/2-y,1/2-z
10 1/2-x,1/2-y,z
11 1/2-y,1/2-z,x
12 1/2-z,1/2-x,y
13 -x,-y,-z
14 -y,-z,-x
15 -z,-x,-y
16 -y,1/2+z,1/2+x
17 -z,1/2+x,1/2+y
18 1/2+z,-x,1/2+y
19 1/2+x,-y,1/2+z
20 1/2+y,-z,1/2+x
21 -x,1/2+y,1/2+z
22 1/2+x,1/2+y,-z
23 1/2+y,1/2+z,-x
24 1/2+z,1/2+x,-y
_cell_length_a                   14.3230(16)
_cell_length_b                   14.3230(16)
_cell_length_c                   14.3230(16)
_cell_angle_alpha                90
_cell_angle_beta                 90
_cell_angle_gamma                90
_cell_volume                     2938.34
_exptl_crystal_colour            colorless
_exptl_crystal_description       polyhedron
_cell_formula_units_Z            4
loop_
_atom_site_label
_atom_site_type_symbol
_atom_site_fract_x
_atom_site_fract_y
_atom_site_fract_z
I1 I 0.7500 0.2500 0.2500
I2 I 0.2500 0.2500 0.2500
Mg1 Mg 0.5000 0.5000 0.5000
O1 O 0.6429(5) 0.4813(6) 0.5248(5)
C1 C 0.7118(8) 0.4527(10) 0.4560(9)
H1 H 0.7330 0.5069 0.4187
H2 H 0.6854 0.4052 0.4132
C2 C 0.7919(8) 0.4123(11) 0.5117(9)
H3 H 0.8515 0.4154 0.4770
H4 H 0.7795 0.3470 0.5308
C3 C 0.7911(9) 0.4800(11) 0.5968(9)
H5 H 0.8262 0.4534 0.6500
H6 H 0.8183 0.5413 0.5801
C4 C 0.6890(9) 0.4888(10) 0.6194(9)
H7 H 0.6751 0.5496 0.6491
H8 H 0.6682 0.4379 0.6614
O1A O 0.4813(6) 0.5248(5) 0.6429(5)
O1B O 0.5248(5) 0.6429(5) 0.4813(6)
O1L O 0.3571(5) 0.5187(6) 0.4752(5)
O1M O 0.5187(6) 0.4752(5) 0.3571(5)
O1N O 0.4752(5) 0.3571(5) 0.5187(6)
C1A C 0.4527(10) 0.4560(9) 0.7118(8)
C1B C 0.4560(9) 0.7118(8) 0.4527(10)
C1L C 0.2882(8) 0.5473(10) 0.5440(9)
C1M C 0.5473(10) 0.5440(9) 0.2882(8)
C1N C 0.5440(9) 0.2882(8) 0.5473(10)
H1A H 0.5069 0.4187 0.7330
H1B H 0.4187 0.7330 0.5069
H1L H 0.2670 0.4931 0.5813
H1M H 0.4931 0.5813 0.2670
H1N H 0.5813 0.2670 0.4931
H2A H 0.4052 0.4132 0.6854
H2B H 0.4132 0.6854 0.4052
H2L H 0.3146 0.5948 0.5868
H2M H 0.5948 0.5868 0.3146
H2N H 0.5868 0.3146 0.5948
C2A C 0.4123(11) 0.5117(9) 0.7919(8)
C2B C 0.5117(9) 0.7919(8) 0.4123(11)
C2L C 0.2081(8) 0.5877(11) 0.4883(9)
C2M C 0.5877(11) 0.4883(9) 0.2081(8)
C2N C 0.4883(9) 0.2081(8) 0.5877(11)
H3A H 0.4154 0.4770 0.8515
H3B H 0.4770 0.8515 0.4154
H3L H 0.1485 0.5846 0.5230
H3M H 0.5846 0.5230 0.1485
H3N H 0.5230 0.1485 0.5846
H4A H 0.3470 0.5308 0.7795
H4B H 0.5308 0.7795 0.3470
H4L H 0.2205 0.6530 0.4692
H4M H 0.6530 0.4692 0.2205
H4N H 0.4692 0.2205 0.6530
C3A C 0.4800(11) 0.5968(9) 0.7911(9)
C3B C 0.5968(9) 0.7911(9) 0.4800(11)
C3L C 0.2089(9) 0.5200(11) 0.4032(9)
C3M C 0.5200(11) 0.4032(9) 0.2089(9)
C3N C 0.4032(9) 0.2089(9) 0.5200(11)
H5A H 0.4534 0.6500 0.8262
H5B H 0.6500 0.8262 0.4534
H5L H 0.1738 0.5466 0.3500
H5M H 0.5466 0.3500 0.1738
H5N H 0.3500 0.1738 0.5466
H6A H 0.5413 0.5801 0.8183
H6B H 0.5801 0.8183 0.5413
H6L H 0.1817 0.4587 0.4199
H6M H 0.4587 0.4199 0.1817
H6N H 0.4199 0.1817 0.4587
C4A C 0.4888(10) 0.6194(9) 0.6890(9)
C4B C 0.6194(9) 0.6890(9) 0.4888(10)
C4L C 0.3110(9) 0.5112(10) 0.3806(9)
C4M C 0.5112(10) 0.3806(9) 0.3110(9)
C4N C 0.3806(9) 0.3110(9) 0.5112(10)
H7A H 0.5496 0.6491 0.6751
H7B H 0.6491 0.6751 0.5496
H7L H 0.3249 0.4504 0.3509
H7M H 0.4504 0.3509 0.3249
H7N H 0.3509 0.3249 0.4504
H8A H 0.4379 0.6614 0.6682
H8B H 0.6614 0.6682 0.4379
H8L H 0.3318 0.5621 0.3386
H8M H 0.5621 0.3386 0.3318
H8N H 0.3386 0.3318 0.5621
loop_
_geom_bond_atom_site_label_1
_geom_bond_atom_site_label_2
_geom_bond_site_symmetry_1
_geom_bond_site_symmetry_2
Mg1 O1 1_555 1_555
O1 C1 1_555 1_555
C1 H1 1_555 1_555
H2 C1 1_555 1_555
C2 C1 1_555 1_555
H3 C2 1_555 1_555
H4 C2 1_555 1_555
C3 C2 1_555 1_555
H5 C3 1_555 1_555
H6 C3 1_555 1_555
C4 O1 1_555 1_555
H7 C4 1_555 1_555
H8 C4 1_555 1_555
O1A Mg1 1_555 1_555
O1B Mg1 1_555 1_555
O1L Mg1 1_555 1_555
O1M Mg1 1_555 1_555
O1N Mg1 1_555 1_555
C1A O1A 1_555 1_555
C1B O1B 1_555 1_555
C1L O1L 1_555 1_555
C1M O1M 1_555 1_555
C1N O1N 1_555 1_555
H1A C1A 1_555 1_555
H1B C1B 1_555 1_555
H1L C1L 1_555 1_555
H1M C1M 1_555 1_555
H1N C1N 1_555 1_555
H2A C1A 1_555 1_555
H2B C1B 1_555 1_555
H2L C1L 1_555 1_555
H2M C1M 1_555 1_555
H2N C1N 1_555 1_555
C2A C1A 1_555 1_555
C2B C1B 1_555 1_555
C2L C1L 1_555 1_555
C2M C1M 1_555 1_555
C2N C1N 1_555 1_555
H3A C2A 1_555 1_555
H3B C2B 1_555 1_555
H3L C2L 1_555 1_555
H3M C2M 1_555 1_555
H3N C2N 1_555 1_555
H4A C2A 1_555 1_555
H4B C2B 1_555 1_555
H4L C2L 1_555 1_555
H4M C2M 1_555 1_555
H4N C2N 1_555 1_555
C3A C2A 1_555 1_555
C3B C2B 1_555 1_555
C3L C2L 1_555 1_555
C3M C2M 1_555 1_555
C3N C2N 1_555 1_555
H5A C3A 1_555 1_555
H5B C3B 1_555 1_555
H5L C3L 1_555 1_555
H5M C3M 1_555 1_555
H5N C3N 1_555 1_555
H6A C3A 1_555 1_555
H6B C3B 1_555 1_555
H6L C3L 1_555 1_555
H6M C3M 1_555 1_555
H6N C3N 1_555 1_555
C4A O1A 1_555 1_555
C4B O1B 1_555 1_555
C4L O1L 1_555 1_555
C4M O1M 1_555 1_555
C4N O1N 1_555 1_555
H7A C4A 1_555 1_555
H7B C4B 1_555 1_555
H7L C4L 1_555 1_555
H7M C4M 1_555 1_555
H7N C4N 1_555 1_555
H8A C4A 1_555 1_555
H8B C4B 1_555 1_555
H8L C4L 1_555 1_555
H8M C4M 1_555 1_555
H8N C4N 1_555 1_555
C3 C4 1_555 1_555
C3A C4A 1_555 1_555
C3B C4B 1_555 1_555
C3L C4L 1_555 1_555
C3M C4M 1_555 1_555
C3N C4N 1_555 1_555

#END
