
#######################################################################
#
#                 Cambridge Crystallographic Data Centre
#                                CCDC 
#
#######################################################################
#
# If this CIF has been generated from an entry in the Cambridge 
# Structural Database, then it will include bibliographic, chemical, 
# crystal, experimental, refinement or atomic coordinate data resulting 
# from the CCDC's data processing and validation procedures.
#
#######################################################################

data_UDAROI
_chemical_formula_moiety         'C26 H40 Ca1 N2 O3'
_chemical_name_systematic        
bis(\h^3^-6-Methyl-2-(methylene)-1,2-dihydropyridinato)-tris(tetrahydrofuran)-calcium
_symmetry_cell_setting           monoclinic
_symmetry_space_group_name_H-M   'P 21/c'
_symmetry_Int_Tables_number      14
_space_group_name_Hall           '-P 2ybc'
loop_
_symmetry_equiv_pos_site_id
_symmetry_equiv_pos_as_xyz
1 x,y,z
2 -x,1/2+y,1/2-z
3 -x,-y,-z
4 x,1/2-y,1/2+z
_cell_length_a                   14.320(2)
_cell_length_b                   9.6961(15)
_cell_length_c                   19.313(3)
_cell_angle_alpha                90
_cell_angle_beta                 108.977(3)
_cell_angle_gamma                90
_cell_volume                     2535.83
_exptl_crystal_colour            yellow
_exptl_crystal_description       rod
_cell_formula_units_Z            4
_chemical_properties_physical    'air-sensitive; moisture-sensitive'
_exptl_crystal_recrystallization_method pentane/tetrahydrofuran
loop_
_atom_site_label
_atom_site_type_symbol
_atom_site_fract_x
_atom_site_fract_y
_atom_site_fract_z
O1 O 0.40042(11) 0.24912(16) 0.60863(8)
O2 O 0.10487(11) 0.12600(17) 0.64530(8)
O3 O 0.23522(11) 0.39646(16) 0.64942(8)
N1 N 0.26945(13) -0.0672(2) 0.60249(10)
N2 N 0.20984(14) 0.2014(2) 0.46284(10)
Ca1 Ca 0.23461(3) 0.17632(5) 0.59296(2)
C1 C 0.34407(17) -0.0623(2) 0.67040(12)
C2 C 0.42972(18) -0.1483(3) 0.68122(14)
H1 H 0.4835(18) -0.140(2) 0.7271(13)
C3 C 0.43345(19) -0.2399(3) 0.62932(14)
H2 H 0.4930(19) -0.301(2) 0.6386(13)
C4 C 0.35364(18) -0.2506(3) 0.56301(14)
H3 H 0.3561(16) -0.318(2) 0.5277(12)
C5 C 0.27542(17) -0.1627(2) 0.55264(13)
C6 C 0.3353(2) 0.0278(3) 0.72298(14)
H4 H 0.3907(17) 0.034(2) 0.7665(13)
H5 H 0.2735(19) 0.060(3) 0.7227(13)
C7 C 0.18871(18) -0.1662(3) 0.48348(12)
H6 H 0.2016 -0.2322 0.4492
H7 H 0.1783 -0.0742 0.4613
H8 H 0.1296 -0.1945 0.4948
C8 C 0.13883(17) 0.3046(3) 0.45482(12)
C9 C 0.1502(2) 0.4309(3) 0.41937(13)
H9 H 0.1077(16) 0.502(2) 0.4190(12)
C10 C 0.21993(19) 0.4414(3) 0.38618(13)
H10 H 0.2244(17) 0.531(3) 0.3628(13)
C11 C 0.2835(2) 0.3294(3) 0.38748(13)
H11 H 0.3339(17) 0.332(2) 0.3640(12)
C12 C 0.27726(18) 0.2149(3) 0.42697(12)
C13 C 0.06614(19) 0.2817(3) 0.48550(14)
H12 H 0.0219(18) 0.351(3) 0.4852(13)
H13 H 0.0517(17) 0.192(2) 0.4983(12)
C14 C 0.34589(19) 0.0946(3) 0.43508(13)
H14 H 0.3751 0.0712 0.4870
H15 H 0.3984 0.1188 0.4150
H16 H 0.3090 0.0151 0.4085
C15 C 0.49255(16) 0.1719(2) 0.63353(13)
H17 H 0.4867 0.0851 0.6054
H18 H 0.5096 0.1489 0.6861
C16 C 0.57112(18) 0.2647(3) 0.62086(13)
H19 H 0.6164 0.2113 0.6018
H20 H 0.6101 0.3115 0.6667
C17 C 0.51153(17) 0.3684(3) 0.56425(13)
H21 H 0.5471 0.4571 0.5681
H22 H 0.4959 0.3321 0.5139
C18 C 0.41926(17) 0.3843(2) 0.58545(13)
H23 H 0.4300 0.4518 0.6258
H24 H 0.3631 0.4158 0.5431
C19 C 0.05388(18) -0.0048(3) 0.63172(14)
H25 H 0.0998 -0.0802 0.6301
H26 H -0.0010 -0.0028 0.5846
C20 C 0.01500(19) -0.0252(3) 0.69445(14)
H27 H 0.0651 -0.0689 0.7367
H28 H -0.0455 -0.0825 0.6798
C21 C -0.00720(19) 0.1218(3) 0.71236(14)
H29 H -0.0744 0.1503 0.6819
H30 H -0.0013 0.1309 0.7647
C22 C 0.0704(2) 0.2060(3) 0.69459(15)
H31 H 0.0420 0.2943 0.6714
H32 H 0.1257 0.2267 0.7398
C23 C 0.29311(18) 0.4308(3) 0.72406(12)
H33 H 0.3589 0.4662 0.7265
H34 H 0.3019 0.3489 0.7562
C24 C 0.23468(19) 0.5402(3) 0.74666(13)
H35 H 0.2775 0.5978 0.7868
H36 H 0.1813 0.4994 0.7622
C25 C 0.19328(19) 0.6226(3) 0.67659(13)
H37 H 0.1316 0.6706 0.6751
H38 H 0.2417 0.6915 0.6716
C26 C 0.17371(19) 0.5149(3) 0.61772(13)
H39 H 0.1031 0.4885 0.6009
H40 H 0.1906 0.5507 0.5753
loop_
_geom_bond_atom_site_label_1
_geom_bond_atom_site_label_2
_geom_bond_site_symmetry_1
_geom_bond_site_symmetry_2
O1 Ca1 1_555 1_555
O2 Ca1 1_555 1_555
O3 Ca1 1_555 1_555
N1 Ca1 1_555 1_555
N2 Ca1 1_555 1_555
Ca1 C1 1_555 1_555
C1 N1 1_555 1_555
C2 C1 1_555 1_555
H1 C2 1_555 1_555
C3 C2 1_555 1_555
H2 C3 1_555 1_555
C4 C3 1_555 1_555
H3 C4 1_555 1_555
C5 N1 1_555 1_555
C6 Ca1 1_555 1_555
H4 C6 1_555 1_555
H5 C6 1_555 1_555
C7 C5 1_555 1_555
H6 C7 1_555 1_555
H7 C7 1_555 1_555
H8 C7 1_555 1_555
C8 N2 1_555 1_555
C9 C8 1_555 1_555
H9 C9 1_555 1_555
C10 C9 1_555 1_555
H10 C10 1_555 1_555
C11 C10 1_555 1_555
H11 C11 1_555 1_555
C12 N2 1_555 1_555
C13 Ca1 1_555 1_555
H12 C13 1_555 1_555
H13 C13 1_555 1_555
C14 C12 1_555 1_555
H14 C14 1_555 1_555
H15 C14 1_555 1_555
H16 C14 1_555 1_555
C15 O1 1_555 1_555
H17 C15 1_555 1_555
H18 C15 1_555 1_555
C16 C15 1_555 1_555
H19 C16 1_555 1_555
H20 C16 1_555 1_555
C17 C16 1_555 1_555
H21 C17 1_555 1_555
H22 C17 1_555 1_555
C18 O1 1_555 1_555
H23 C18 1_555 1_555
H24 C18 1_555 1_555
C19 O2 1_555 1_555
H25 C19 1_555 1_555
H26 C19 1_555 1_555
C20 C19 1_555 1_555
H27 C20 1_555 1_555
H28 C20 1_555 1_555
C21 C20 1_555 1_555
H29 C21 1_555 1_555
H30 C21 1_555 1_555
C22 O2 1_555 1_555
H31 C22 1_555 1_555
H32 C22 1_555 1_555
C23 O3 1_555 1_555
H33 C23 1_555 1_555
H34 C23 1_555 1_555
C24 C23 1_555 1_555
H35 C24 1_555 1_555
H36 C24 1_555 1_555
C25 C24 1_555 1_555
H37 C25 1_555 1_555
H38 C25 1_555 1_555
C26 O3 1_555 1_555
H39 C26 1_555 1_555
H40 C26 1_555 1_555
Ca1 C8 1_555 1_555
C1 C6 1_555 1_555
C4 C5 1_555 1_555
C8 C13 1_555 1_555
C11 C12 1_555 1_555
C17 C18 1_555 1_555
C21 C22 1_555 1_555
C25 C26 1_555 1_555

#END
