
#######################################################################
#
#                 Cambridge Crystallographic Data Centre
#                                CCDC 
#
#######################################################################
#
# If this CIF has been generated from an entry in the Cambridge 
# Structural Database, then it will include bibliographic, chemical, 
# crystal, experimental, refinement or atomic coordinate data resulting 
# from the CCDC's data processing and validation procedures.
#
#######################################################################

data_UDAWEE
_chemical_formula_moiety         'C8 H20 N1 1+,0.5(F6 P1 1-),0.5(B1 F4 1-)'
_chemical_name_systematic        
'tetraethylammonium hemikis(tetrafluoroborate) hemikis(hexafluorophosphate)'
_symmetry_cell_setting           tetragonal
_symmetry_space_group_name_H-M   'I -4'
_symmetry_Int_Tables_number      82
_space_group_name_Hall           'I -4'
loop_
_symmetry_equiv_pos_site_id
_symmetry_equiv_pos_as_xyz
1 x,y,z
2 -x,-y,z
3 y,-x,-z
4 -y,x,-z
5 1/2+x,1/2+y,1/2+z
6 1/2-x,1/2-y,1/2+z
7 1/2+y,1/2-x,1/2-z
8 1/2-y,1/2+x,1/2-z
_cell_length_a                   9.324(2)
_cell_length_b                   9.324(2)
_cell_length_c                   7.1369(18)
_cell_angle_alpha                90
_cell_angle_beta                 90
_cell_angle_gamma                90
_cell_volume                     620.461
_exptl_crystal_colour            colorless
_exptl_crystal_description       block
_cell_formula_units_Z            2
_chemical_properties_physical    
', Air-sensitive,Moisture-sensitive,Hygroscopic'
loop_
_atom_site_label
_atom_site_type_symbol
_atom_site_fract_x
_atom_site_fract_y
_atom_site_fract_z
N1 N 0.0000 1.0000 1.5000
C1 C -0.0535(4) 0.8762(4) 1.3810(5)
H1 H -0.1387 0.9073 1.3146
H2 H -0.0815 0.7986 1.4637
C2 C 0.0532(5) 0.8177(5) 1.2385(6)
H3 H 0.0943 0.8958 1.1692
H4 H 0.0046 0.7541 1.1539
H5 H 0.1277 0.7664 1.3025
C1A C 0.0535(4) 1.1238(4) 1.3810(5)
H1A H 0.1387 1.0927 1.3146
H2A H 0.0815 1.2014 1.4637
C2A C -0.0532(5) 1.1823(5) 1.2385(6)
H3A H -0.0943 1.1042 1.1692
H4A H -0.0046 1.2459 1.1539
H5A H -0.1277 1.2336 1.3025
C1B C -0.1238(4) 1.0535(4) 1.6190(5)
H1B H -0.0927 1.1387 1.6854
H2B H -0.2014 1.0815 1.5363
C2B C -0.1823(5) 0.9468(5) 1.7615(6)
H3B H -0.1042 0.9057 1.8308
H4B H -0.2459 0.9954 1.8461
H5B H -0.2336 0.8723 1.6975
C1C C 0.1238(4) 0.9465(4) 1.6190(5)
H1C H 0.0927 0.8613 1.6854
H2C H 0.2014 0.9185 1.5363
C2C C 0.1823(5) 1.0532(5) 1.7615(6)
H3C H 0.1042 1.0943 1.8308
H4C H 0.2459 1.0046 1.8461
H5C H 0.2336 1.1277 1.6975
B1 B 0.0000 0.5000 0.7500
F1 F -0.1038(10) 0.5526(15) 0.6341(16)
F1A F 0.1038(10) 0.4474(15) 0.6341(16)
F1F F 0.0526(15) 0.6038(10) 0.8659(16)
F1G F -0.0526(15) 0.3962(10) 0.8659(16)
P1? P 0.0000 0.5000 0.7500
F2? F -0.1189(7) 0.6133(7) 0.7503(5)
F3? F 0.0000 0.5000 0.5348(7)
loop_
_geom_bond_atom_site_label_1
_geom_bond_atom_site_label_2
_geom_bond_site_symmetry_1
_geom_bond_site_symmetry_2
B1 F1 1_555 1_555
N1 C1 1_555 1_555
C1 H1 1_555 1_555
H2 C1 1_555 1_555
C2 C1 1_555 1_555
H3 C2 1_555 1_555
H4 C2 1_555 1_555
H5 C2 1_555 1_555
F1A B1 1_555 1_555
F1F B1 1_555 1_555
F1G B1 1_555 1_555
C1A N1 1_555 1_555
H1A C1A 1_555 1_555
H2A C1A 1_555 1_555
C2A C1A 1_555 1_555
H3A C2A 1_555 1_555
H4A C2A 1_555 1_555
H5A C2A 1_555 1_555
C1B N1 1_555 1_555
H1B C1B 1_555 1_555
H2B C1B 1_555 1_555
C2B C1B 1_555 1_555
H3B C2B 1_555 1_555
H4B C2B 1_555 1_555
H5B C2B 1_555 1_555
C1C N1 1_555 1_555
H1C C1C 1_555 1_555
H2C C1C 1_555 1_555
C2C C1C 1_555 1_555
H3C C2C 1_555 1_555
H4C C2C 1_555 1_555
H5C C2C 1_555 1_555

#END
