
#######################################################################
#
#                 Cambridge Crystallographic Data Centre
#                                CCDC 
#
#######################################################################
#
# If this CIF has been generated from an entry in the Cambridge 
# Structural Database, then it will include bibliographic, chemical, 
# crystal, experimental, refinement or atomic coordinate data resulting 
# from the CCDC's data processing and validation procedures.
#
#######################################################################

data_UDAYUV
_chemical_formula_moiety         'C21 H18 N2 O3 S1'
_chemical_name_systematic        
3-(Methoxymethyl)-5-nitro-1-phenyl-2-(2-thienyl)-1H-inden-1-amine
_symmetry_cell_setting           tetragonal
_symmetry_space_group_name_H-M   'P 43'
_symmetry_Int_Tables_number      78
_space_group_name_Hall           'P 4cw'
loop_
_symmetry_equiv_pos_site_id
_symmetry_equiv_pos_as_xyz
1 x,y,z
2 -x,-y,1/2+z
3 -y,x,3/4+z
4 y,-x,1/4+z
_cell_length_a                   15.424(2)
_cell_length_b                   15.424(2)
_cell_length_c                   15.361(3)
_cell_angle_alpha                90
_cell_angle_beta                 90
_cell_angle_gamma                90
_cell_volume                     3654.38
_exptl_crystal_colour            yellow
_exptl_crystal_description       prismatic
_cell_formula_units_Z            8
loop_
_atom_site_label
_atom_site_type_symbol
_atom_site_fract_x
_atom_site_fract_y
_atom_site_fract_z
S1 S 0.31191(5) 0.63295(6) 0.25077(5)
O1 O 0.29505(15) 0.88831(15) 0.10328(14)
O2 O 0.4698(2) 1.1325(2) 0.1097(3)
O3 O 0.6096(2) 1.14363(17) 0.11416(17)
N1 N 0.5427(3) 1.1014(2) 0.11730(19)
N2 N 0.59692(19) 0.7149(2) 0.25496(19)
H1 H 0.597(3) 0.752(2) 0.289(2)
H2 H 0.581(3) 0.668(2) 0.267(3)
C1 C 0.3168(2) 0.5244(3) 0.2504(2)
H3 H 0.2719 0.4883 0.2723
C2 C 0.3905(2) 0.4941(3) 0.2162(3)
H4 H 0.4041 0.4341 0.2127
C3 C 0.4471(2) 0.5611(2) 0.1852(2)
H5 H 0.5013 0.5511 0.1574
C4 C 0.41167(19) 0.6440(2) 0.2014(2)
C5 C 0.45151(18) 0.7280(2) 0.18072(19)
C6 C 0.41264(19) 0.8055(2) 0.16824(19)
C7 C 0.4792(2) 0.8720(2) 0.15250(19)
C8 C 0.4723(2) 0.9600(2) 0.1403(2)
H6 H 0.4174 0.9879 0.1393
C9 C 0.5484(2) 1.0065(2) 0.1297(2)
C10 C 0.6303(2) 0.9688(2) 0.1302(2)
H7 H 0.6809 1.0028 0.1218
C11 C 0.6358(2) 0.8796(2) 0.1432(2)
H8 H 0.6908 0.8518 0.1436
C12 C 0.56092(19) 0.8314(2) 0.15563(18)
C13 C 0.55122(18) 0.7363(2) 0.17388(17)
C14 C 0.3177(2) 0.8281(3) 0.1698(2)
H9 H 0.2832 0.7745 0.1622
H10 H 0.3029 0.8531 0.2273
C15 C 0.2967(3) 0.8499(3) 0.0200(3)
H11 H 0.3557 0.8304 0.0068
H12 H 0.2782 0.8924 -0.0236
H13 H 0.2573 0.8000 0.0190
C16 C 0.58860(18) 0.68338(18) 0.09838(18)
C17 C 0.6720(2) 0.6494(2) 0.1037(2)
H14 H 0.7049 0.6575 0.1553
C18 C 0.7074(2) 0.6038(2) 0.0347(2)
H15 H 0.7649 0.5821 0.0389
C19 C 0.6603(2) 0.5896(2) -0.0396(2)
H16 H 0.6840 0.5564 -0.0859
C20 C 0.5776(2) 0.6241(2) -0.0466(2)
H17 H 0.5452 0.6161 -0.0986
C21 C 0.54196(19) 0.67018(19) 0.02197(19)
H18 H 0.4850 0.6930 0.0168
S2 S 0.88687(6) 0.80892(5) 0.00603(5)
O4 O 0.6945(3) 0.8104(2) -0.2034(2)
C22 C 0.6581(3) 0.7327(3) -0.2346(3)
H19 H 0.6958 0.6840 -0.2191
H20 H 0.6523 0.7359 -0.2981
H21 H 0.6008 0.7243 -0.2084
O5 O 0.39088(18) 0.9543(2) -0.1585(2)
O6 O 0.37473(16) 1.0934(2) -0.14163(18)
N3 N 0.41921(19) 1.0272(3) -0.14168(18)
N4 N 0.79722(18) 1.0795(2) 0.02301(18)
H22 H 0.777(3) 1.1239(18) 0.017(3)
H23 H 0.8478(17) 1.078(3) 0.027(3)
C23 C 0.9964(2) 0.8158(2) 0.0086(2)
H24 H 1.0330 0.7716 0.0309
C24 C 1.0254(2) 0.8905(2) -0.0245(2)
H25 H 1.0853 0.9046 -0.0271
C25 C 0.95835(18) 0.94825(18) -0.05610(19)
H26 H 0.9679 1.0036 -0.0815
C26 C 0.8764(2) 0.90899(18) -0.04299(18)
C27 C 0.7927(2) 0.94722(18) -0.06560(18)
C28 C 0.7181(2) 0.90682(19) -0.08841(18)
C29 C 0.6495(2) 0.9716(2) -0.09960(19)
C30 C 0.5629(2) 0.9617(2) -0.1199(2)
H27 H 0.5389 0.9062 -0.1319
C31 C 0.5128(2) 1.0350(2) -0.12221(19)
C32 C 0.5458(2) 1.1191(2) -0.1090(2)
H28 H 0.5092 1.1685 -0.1129
C33 C 0.63381(19) 1.1277(2) -0.09001(19)
H29 H 0.6584 1.1834 -0.0810
C34 C 0.68447(18) 1.05459(19) -0.08450(17)
C35 C 0.78029(18) 1.04667(17) -0.06411(17)
C36 C 0.7033(3) 0.8128(2) -0.1070(2)
H30 H 0.7531 0.7773 -0.0874
H31 H 0.6499 0.7917 -0.0782
C37 C 0.83102(17) 1.09261(17) -0.13689(17)
C38 C 0.86404(19) 1.17531(19) -0.1243(2)
H32 H 0.8590 1.2023 -0.0689
C39 C 0.9045(2) 1.2190(2) -0.1922(2)
H33 H 0.9265 1.2758 -0.1829
C40 C 0.9130(2) 1.1816(2) -0.2714(2)
H34 H 0.9414 1.2118 -0.3171
C41 C 0.88003(19) 1.0988(2) -0.2859(2)
H35 H 0.8852 1.0727 -0.3416
C42 C 0.83975(19) 1.05458(19) -0.21870(18)
H36 H 0.8179 0.9978 -0.2284
C43? C 0.6465(11) 0.8043(13) -0.2293(12)
H37? H 0.7497 0.7917 -0.1463
H38? H 0.7075 0.7798 -0.0519
H39? H 0.6647 0.8644 -0.2389
H40? H 0.6001 0.7895 -0.2703
H41? H 0.6960 0.7655 -0.2387
O7? O 0.6177(7) 0.7953(7) -0.1478(6)
loop_
_geom_bond_atom_site_label_1
_geom_bond_atom_site_label_2
_geom_bond_site_symmetry_1
_geom_bond_site_symmetry_2
S1 C1 1_555 1_555
O1 C14 1_555 1_555
O2 N1 1_555 1_555
O3 N1 1_555 1_555
N1 C9 1_555 1_555
N2 H1 1_555 1_555
H2 N2 1_555 1_555
C1 H3 1_555 1_555
C2 C1 1_555 1_555
H4 C2 1_555 1_555
C3 C2 1_555 1_555
H5 C3 1_555 1_555
C4 S1 1_555 1_555
C5 C4 1_555 1_555
C6 C5 1_555 1_555
C7 C6 1_555 1_555
C8 C7 1_555 1_555
H6 C8 1_555 1_555
C9 C8 1_555 1_555
C10 C9 1_555 1_555
H7 C10 1_555 1_555
C11 C10 1_555 1_555
H8 C11 1_555 1_555
C12 C7 1_555 1_555
C13 N2 1_555 1_555
C14 C6 1_555 1_555
H9 C14 1_555 1_555
H10 C14 1_555 1_555
C15 O1 1_555 1_555
H11 C15 1_555 1_555
H12 C15 1_555 1_555
H13 C15 1_555 1_555
C16 C13 1_555 1_555
C17 C16 1_555 1_555
H14 C17 1_555 1_555
C18 C17 1_555 1_555
H15 C18 1_555 1_555
C19 C18 1_555 1_555
H16 C19 1_555 1_555
C20 C19 1_555 1_555
H17 C20 1_555 1_555
C21 C16 1_555 1_555
H18 C21 1_555 1_555
S2 C23 1_555 1_555
O4 C22 1_555 1_555
C22 H19 1_555 1_555
H20 C22 1_555 1_555
H21 C22 1_555 1_555
O5 N3 1_555 1_555
O6 N3 1_555 1_555
N3 C31 1_555 1_555
N4 H22 1_555 1_555
H23 N4 1_555 1_555
C23 H24 1_555 1_555
C24 C23 1_555 1_555
H25 C24 1_555 1_555
C25 C24 1_555 1_555
H26 C25 1_555 1_555
C26 S2 1_555 1_555
C27 C26 1_555 1_555
C28 C27 1_555 1_555
C29 C28 1_555 1_555
C30 C29 1_555 1_555
H27 C30 1_555 1_555
C31 C30 1_555 1_555
C32 C31 1_555 1_555
H28 C32 1_555 1_555
C33 C32 1_555 1_555
H29 C33 1_555 1_555
C34 C29 1_555 1_555
C35 N4 1_555 1_555
C36 O4 1_555 1_555
H30 C36 1_555 1_555
H31 C36 1_555 1_555
C37 C35 1_555 1_555
C38 C37 1_555 1_555
H32 C38 1_555 1_555
C39 C38 1_555 1_555
H33 C39 1_555 1_555
C40 C39 1_555 1_555
H34 C40 1_555 1_555
C41 C40 1_555 1_555
H35 C41 1_555 1_555
C42 C37 1_555 1_555
H36 C42 1_555 1_555
C3 C4 1_555 1_555
C5 C13 1_555 1_555
C11 C12 1_555 1_555
C12 C13 1_555 1_555
C20 C21 1_555 1_555
C25 C26 1_555 1_555
C27 C35 1_555 1_555
C28 C36 1_555 1_555
C33 C34 1_555 1_555
C34 C35 1_555 1_555
C41 C42 1_555 1_555

#END
