
#######################################################################
#
#                 Cambridge Crystallographic Data Centre
#                                CCDC 
#
#######################################################################
#
# If this CIF has been generated from an entry in the Cambridge 
# Structural Database, then it will include bibliographic, chemical, 
# crystal, experimental, refinement or atomic coordinate data resulting 
# from the CCDC's data processing and validation procedures.
#
#######################################################################

data_UDEJOF
_chemical_formula_moiety         'C15 H13 N1 O2'
_chemical_name_systematic        'methyl 9-methyl-9H-carbazole-2-carboxylate'
_symmetry_cell_setting           triclinic
_symmetry_space_group_name_H-M   'P -1'
_symmetry_Int_Tables_number      2
_space_group_name_Hall           '-P 1'
loop_
_symmetry_equiv_pos_site_id
_symmetry_equiv_pos_as_xyz
1 x,y,z
2 -x,-y,-z
_cell_length_a                   7.9011(6)
_cell_length_b                   8.8275(6)
_cell_length_c                   9.7431(7)
_cell_angle_alpha                75.588(5)
_cell_angle_beta                 70.456(5)
_cell_angle_gamma                74.192(5)
_cell_volume                     606.781
_exptl_crystal_colour            colorless
_exptl_crystal_description       block
_cell_formula_units_Z            2
loop_
_atom_site_label
_atom_site_type_symbol
_atom_site_fract_x
_atom_site_fract_y
_atom_site_fract_z
C1 C -0.1365(4) 0.6527(3) 0.8722(3)
C2 C -0.2682(4) 0.6855(4) 1.0039(3)
H1 H -0.3283 0.6076 1.0699
C3 C -0.3054(5) 0.8379(4) 1.0319(4)
H2 H -0.3928 0.8631 1.119
C4 C -0.2172(5) 0.9557(4) 0.9346(4)
H3 H -0.2458 1.0574 0.9579
C5 C -0.0885(5) 0.9238(4) 0.8047(4)
H4 H -0.0302 1.0032 0.7395
C6 C -0.0459(4) 0.7699(3) 0.7715(3)
C7 C 0.0795(4) 0.6949(3) 0.6503(3)
C8 C 0.2039(4) 0.7462(4) 0.5174(3)
H5 H 0.2164 0.8522 0.4917
C9 C 0.3074(4) 0.6399(4) 0.4252(3)
H6 H 0.391 0.6744 0.3372
C10 C 0.2902(4) 0.4793(4) 0.4606(3)
C11 C 0.1663(4) 0.4252(3) 0.5919(3)
H7 H 0.1542 0.3191 0.6165
C12 C 0.0617(4) 0.5333(3) 0.6847(3)
C13 C -0.1362(4) 0.3632(3) 0.8900(3)
H8 H -0.2209 0.3515 0.8441
H9 H -0.1966 0.3667 0.993
H10 H -0.0337 0.2742 0.8803
C14 C 0.4076(4) 0.3717(4) 0.3552(3)
C15 C 0.5069(5) 0.1079(4) 0.3077(4)
H11 H 0.4624 0.1311 0.2228
H12 H 0.4991 0.0005 0.3575
H13 H 0.6324 0.1189 0.2767
N1 N -0.0713(3) 0.5112(3) 0.8184(3)
O1 O 0.5035(3) 0.4144(3) 0.2351(3)
O2 O 0.3965(3) 0.2183(3) 0.4073(2)
loop_
_geom_bond_atom_site_label_1
_geom_bond_atom_site_label_2
_geom_bond_site_symmetry_1
_geom_bond_site_symmetry_2
C1 C2 1_555 1_555
C2 H1 1_555 1_555
C3 C2 1_555 1_555
H2 C3 1_555 1_555
C4 C3 1_555 1_555
H3 C4 1_555 1_555
C5 C4 1_555 1_555
H4 C5 1_555 1_555
C6 C1 1_555 1_555
C7 C6 1_555 1_555
C8 C7 1_555 1_555
H5 C8 1_555 1_555
C9 C8 1_555 1_555
H6 C9 1_555 1_555
C10 C9 1_555 1_555
C11 C10 1_555 1_555
H7 C11 1_555 1_555
C12 C7 1_555 1_555
C13 H8 1_555 1_555
H9 C13 1_555 1_555
H10 C13 1_555 1_555
C14 C10 1_555 1_555
C15 H11 1_555 1_555
H12 C15 1_555 1_555
H13 C15 1_555 1_555
N1 C1 1_555 1_555
O1 C14 1_555 1_555
O2 C14 1_555 1_555
C5 C6 1_555 1_555
C11 C12 1_555 1_555
C12 N1 1_555 1_555
C13 N1 1_555 1_555
C15 O2 1_555 1_555

#END
