
#######################################################################
#
#                 Cambridge Crystallographic Data Centre
#                                CCDC 
#
#######################################################################
#
# If this CIF has been generated from an entry in the Cambridge 
# Structural Database, then it will include bibliographic, chemical, 
# crystal, experimental, refinement or atomic coordinate data resulting 
# from the CCDC's data processing and validation procedures.
#
#######################################################################

data_UDELAS
_chemical_formula_moiety         'C102 Cl20'
_chemical_name_systematic        icosakis(Chloro)-C102fullerene
_symmetry_cell_setting           monoclinic
_symmetry_space_group_name_H-M   'P 21/c'
_symmetry_Int_Tables_number      14
_space_group_name_Hall           '-P 2ybc'
loop_
_symmetry_equiv_pos_site_id
_symmetry_equiv_pos_as_xyz
1 x,y,z
2 -x,1/2+y,1/2-z
3 -x,-y,-z
4 x,1/2-y,1/2+z
_cell_length_a                   10.4650(10)
_cell_length_b                   29.395(3)
_cell_length_c                   21.868(2)
_cell_angle_alpha                90
_cell_angle_beta                 100.230(10)
_cell_angle_gamma                90
_cell_volume                     6620.06
_exptl_crystal_colour            orange
_exptl_crystal_description       plate
_cell_formula_units_Z            4
loop_
_atom_site_label
_atom_site_type_symbol
_atom_site_fract_x
_atom_site_fract_y
_atom_site_fract_z
Cl1 Cl 0.8989(7) 0.0993(3) 0.4116(4)
Cl2 Cl 0.8621(12) 0.1093(4) 0.5492(4)
Cl3 Cl 0.9476(8) 0.2043(3) 0.5549(3)
Cl4 Cl 0.9112(6) 0.3949(3) 0.5229(3)
Cl5 Cl 0.6355(15) 0.0305(5) 0.3308(7)
Cl6 Cl 0.6882(13) 0.0393(4) 0.4675(5)
Cl7 Cl 0.6577(6) 0.3721(3) 0.6343(3)
Cl8 Cl 0.8071(6) 0.4730(2) 0.3744(3)
Cl9 Cl 0.7822(6) 0.4235(3) 0.2149(3)
Cl10 Cl 0.0585(7) 0.0985(3) 0.1849(4)
Cl11 Cl 0.0831(8) 0.0556(3) 0.3118(4)
Cl12 Cl 0.3293(9) 0.0321(3) 0.2439(4)
Cl13 Cl 0.3651(11) 0.0123(4) 0.3923(5)
Cl14 Cl 0.2864(7) 0.4113(3) 0.5913(3)
Cl15 Cl 0.4313(6) 0.4185(3) 0.0992(3)
Cl16 Cl -0.0504(8) 0.1989(3) 0.1451(3)
Cl17 Cl -0.1075(6) 0.1552(3) 0.2657(3)
Cl18 Cl 0.1942(6) 0.4922(3) 0.4547(3)
Cl19 Cl 0.1524(6) 0.5063(2) 0.3151(3)
Cl20 Cl 0.1108(6) 0.4575(3) 0.1631(3)
C1 C 0.762(2) 0.2111(9) 0.3890(10)
C2 C 0.791(2) 0.2265(10) 0.4521(12)
C3 C 0.786(2) 0.2726(10) 0.4640(17)
C4 C 0.782(3) 0.3058(10) 0.4108(10)
C5 C 0.767(2) 0.2881(7) 0.3526(10)
C6 C 0.741(2) 0.2420(8) 0.3399(11)
C7 C 0.662(2) 0.2292(8) 0.2811(12)
C8 C 0.5939(18) 0.1901(9) 0.2781(12)
C9 C 0.637(3) 0.1568(9) 0.3214(13)
C10 C 0.727(3) 0.1628(8) 0.3767(10)
C11 C 0.750(3) 0.1272(10) 0.4261(10)
C12 C 0.759(3) 0.1425(9) 0.4954(10)
C13 C 0.789(2) 0.1950(9) 0.5063(12)
C14 C 0.676(2) 0.2154(9) 0.5343(14)
C15 C 0.652(2) 0.2594(8) 0.5375(12)
C16 C 0.729(2) 0.2928(8) 0.5190(10)
C17 C 0.7105(18) 0.3359(6) 0.5222(8)
C18 C 0.761(2) 0.3720(6) 0.4847(11)
C19 C 0.771(3) 0.3555(12) 0.4168(13)
C20 C 0.7513(17) 0.3844(5) 0.3680(8)
C21 C 0.742(2) 0.3658(8) 0.3074(11)
C22 C 0.7507(15) 0.3191(7) 0.3053(9)
C23 C 0.681(2) 0.3071(10) 0.2401(12)
C24 C 0.628(2) 0.2640(8) 0.2338(11)
C25 C 0.508(2) 0.2618(9) 0.1893(13)
C26 C 0.432(3) 0.2199(11) 0.1943(14)
C27 C 0.471(3) 0.1833(11) 0.2271(17)
C28 C 0.389(2) 0.1502(8) 0.2448(11)
C29 C 0.424(3) 0.1163(10) 0.2879(13)
C30 C 0.549(3) 0.1173(10) 0.3225(16)
C31 C 0.548(3) 0.0732(12) 0.365(2)
C32 C 0.638(3) 0.0867(9) 0.4202(16)
C33 C 0.537(3) 0.1110(9) 0.4614(13)
C34 C 0.621(2) 0.1383(10) 0.5018(15)
C35 C 0.577(3) 0.1778(18) 0.520(2)
C36 C 0.4394(18) 0.1922(7) 0.5119(9)
C37 C 0.416(2) 0.2398(9) 0.5234(11)
C38 C 0.516(2) 0.2726(8) 0.5426(12)
C39 C 0.490(3) 0.3201(9) 0.5548(9)
C40 C 0.5959(17) 0.3569(7) 0.5526(9)
C41 C 0.558(2) 0.3936(6) 0.5167(11)
C42 C 0.6470(15) 0.4048(4) 0.4774(7)
C43 C 0.625(2) 0.4265(9) 0.4232(12)
C44 C 0.6770(19) 0.4302(9) 0.3711(13)
C45 C 0.5678(18) 0.4318(9) 0.3194(9)
C46 C 0.561(2) 0.4148(5) 0.2583(12)
C47 C 0.675(2) 0.3888(7) 0.2530(9)
C48 C 0.6322(17) 0.3444(6) 0.2135(9)
C49 C 0.523(2) 0.3442(7) 0.1698(9)
C50 C 0.456(2) 0.3010(9) 0.1646(10)
C51 C 0.3180(16) 0.3071(5) 0.1494(9)
C52 C 0.231(2) 0.2739(6) 0.1602(10)
C53 C 0.286(2) 0.2354(10) 0.1795(12)
C54 C 0.209(2) 0.1994(9) 0.2045(12)
C55 C 0.245(3) 0.1583(11) 0.2308(10)
C56 C 0.145(2) 0.1319(6) 0.2518(11)
C57 C 0.195(3) 0.0989(10) 0.3075(11)
C58 C 0.332(3) 0.0775(13) 0.2984(19)
C59 C 0.396(3) 0.0668(9) 0.3657(16)
C60 C 0.354(3) 0.1056(9) 0.3907(11)
C61 C 0.419(4) 0.1283(11) 0.4434(15)
C62 C 0.366(3) 0.1674(9) 0.4682(11)
C63 C 0.246(3) 0.1897(7) 0.4370(11)
C64 C 0.209(2) 0.2335(7) 0.4496(10)
C65 C 0.290(3) 0.2586(9) 0.4996(12)
C66 C 0.272(2) 0.3047(9) 0.5100(11)
C67 C 0.3608(19) 0.3360(6) 0.5419(10)
C68 C 0.323(3) 0.3845(9) 0.5273(15)
C69 C 0.425(2) 0.4090(7) 0.4996(10)
C70 C 0.386(2) 0.4351(7) 0.4418(12)
C71 C 0.479(2) 0.4461(7) 0.4096(11)
C72 C 0.4569(19) 0.4512(9) 0.3398(9)
C73 C 0.334(2) 0.4459(8) 0.3083(11)
C74 C 0.324(2) 0.4275(10) 0.2417(15)
C75 C 0.431(2) 0.4105(9) 0.2210(11)
C76 C 0.4169(19) 0.3787(7) 0.1654(11)
C77 C 0.295(2) 0.3524(7) 0.1567(10)
C78 C 0.181(2) 0.3668(5) 0.1801(10)
C79 C 0.1076(12) 0.3342(3) 0.1948(6)
C80 C 0.1308(18) 0.2897(4) 0.1885(8)
C81 C 0.072(2) 0.2566(7) 0.2237(12)
C82 C 0.066(2) 0.2074(11) 0.2198(12)
C83 C 0.061(2) 0.1709(11) 0.2687(13)
C84 C 0.105(2) 0.1933(8) 0.3307(11)
C85 C 0.184(2) 0.1689(7) 0.3774(10)
C86 C 0.239(3) 0.1286(8) 0.3629(12)
C87 C 0.091(3) 0.2435(6) 0.3401(13)
C88 C 0.132(2) 0.2621(10) 0.3998(14)
C89 C 0.112(2) 0.3079(6) 0.4100(11)
C90 C 0.171(3) 0.3268(10) 0.4706(15)
C91 C 0.210(2) 0.3703(10) 0.4708(11)
C92 C 0.171(2) 0.4057(9) 0.4205(13)
C93 C 0.245(3) 0.4423(9) 0.4141(11)
C94 C 0.225(2) 0.4487(7) 0.3369(10)
C95 C 0.124(2) 0.4145(8) 0.3202(10)
C96 C 0.100(2) 0.3965(8) 0.2653(13)
C97 C 0.187(2) 0.4070(7) 0.2098(10)
C98 C 0.071(2) 0.3509(8) 0.2478(10)
C99 C 0.0507(16) 0.3194(8) 0.2998(9)
C100 C 0.046(2) 0.2733(8) 0.2905(9)
C101 C 0.0722(19) 0.3382(9) 0.3589(10)
C102 C 0.094(2) 0.3861(10) 0.3703(10)
loop_
_geom_bond_atom_site_label_1
_geom_bond_atom_site_label_2
_geom_bond_site_symmetry_1
_geom_bond_site_symmetry_2
Cl1 C11 1_555 1_555
Cl2 C12 1_555 1_555
Cl3 C13 1_555 1_555
Cl4 C18 1_555 1_555
Cl5 C31 1_555 1_555
Cl6 C32 1_555 1_555
Cl7 C40 1_555 1_555
Cl8 C44 1_555 1_555
Cl9 C47 1_555 1_555
Cl10 C56 1_555 1_555
Cl11 C57 1_555 1_555
Cl12 C58 1_555 1_555
Cl13 C59 1_555 1_555
Cl14 C68 1_555 1_555
Cl15 C76 1_555 1_555
Cl16 C82 1_555 1_555
Cl17 C83 1_555 1_555
Cl18 C93 1_555 1_555
Cl19 C94 1_555 1_555
Cl20 C97 1_555 1_555
C1 C2 1_555 1_555
C2 C3 1_555 1_555
C3 C4 1_555 1_555
C4 C5 1_555 1_555
C5 C6 1_555 1_555
C6 C1 1_555 1_555
C7 C6 1_555 1_555
C8 C7 1_555 1_555
C9 C8 1_555 1_555
C10 C1 1_555 1_555
C11 C10 1_555 1_555
C12 C11 1_555 1_555
C13 C2 1_555 1_555
C14 C13 1_555 1_555
C15 C14 1_555 1_555
C16 C3 1_555 1_555
C17 C16 1_555 1_555
C18 C17 1_555 1_555
C19 C4 1_555 1_555
C20 C19 1_555 1_555
C21 C20 1_555 1_555
C22 C5 1_555 1_555
C23 C22 1_555 1_555
C24 C7 1_555 1_555
C25 C24 1_555 1_555
C26 C25 1_555 1_555
C27 C8 1_555 1_555
C28 C27 1_555 1_555
C29 C28 1_555 1_555
C30 C9 1_555 1_555
C31 C30 1_555 1_555
C32 C11 1_555 1_555
C33 C32 1_555 1_555
C34 C12 1_555 1_555
C35 C14 1_555 1_555
C36 C35 1_555 1_555
C37 C36 1_555 1_555
C38 C15 1_555 1_555
C39 C38 1_555 1_555
C40 C17 1_555 1_555
C41 C40 1_555 1_555
C42 C18 1_555 1_555
C43 C42 1_555 1_555
C44 C20 1_555 1_555
C45 C44 1_555 1_555
C46 C45 1_555 1_555
C47 C21 1_555 1_555
C48 C23 1_555 1_555
C49 C48 1_555 1_555
C50 C25 1_555 1_555
C51 C50 1_555 1_555
C52 C51 1_555 1_555
C53 C26 1_555 1_555
C54 C53 1_555 1_555
C55 C28 1_555 1_555
C56 C55 1_555 1_555
C57 C56 1_555 1_555
C58 C29 1_555 1_555
C59 C31 1_555 1_555
C60 C59 1_555 1_555
C61 C33 1_555 1_555
C62 C36 1_555 1_555
C63 C62 1_555 1_555
C64 C63 1_555 1_555
C65 C37 1_555 1_555
C66 C65 1_555 1_555
C67 C39 1_555 1_555
C68 C67 1_555 1_555
C69 C41 1_555 1_555
C70 C69 1_555 1_555
C71 C43 1_555 1_555
C72 C45 1_555 1_555
C73 C72 1_555 1_555
C74 C73 1_555 1_555
C75 C46 1_555 1_555
C76 C49 1_555 1_555
C77 C51 1_555 1_555
C78 C77 1_555 1_555
C79 C78 1_555 1_555
C80 C52 1_555 1_555
C81 C80 1_555 1_555
C82 C54 1_555 1_555
C83 C56 1_555 1_555
C84 C83 1_555 1_555
C85 C63 1_555 1_555
C86 C57 1_555 1_555
C87 C84 1_555 1_555
C88 C64 1_555 1_555
C89 C88 1_555 1_555
C90 C66 1_555 1_555
C91 C68 1_555 1_555
C92 C91 1_555 1_555
C93 C70 1_555 1_555
C94 C73 1_555 1_555
C95 C94 1_555 1_555
C96 C95 1_555 1_555
C97 C74 1_555 1_555
C98 C79 1_555 1_555
C99 C98 1_555 1_555
C100 C81 1_555 1_555
C101 C89 1_555 1_555
C102 C92 1_555 1_555
C9 C10 1_555 1_555
C12 C13 1_555 1_555
C15 C16 1_555 1_555
C18 C19 1_555 1_555
C21 C22 1_555 1_555
C23 C24 1_555 1_555
C26 C27 1_555 1_555
C29 C30 1_555 1_555
C31 C32 1_555 1_555
C33 C34 1_555 1_555
C34 C35 1_555 1_555
C37 C38 1_555 1_555
C39 C40 1_555 1_555
C41 C42 1_555 1_555
C43 C44 1_555 1_555
C46 C47 1_555 1_555
C47 C48 1_555 1_555
C49 C50 1_555 1_555
C52 C53 1_555 1_555
C54 C55 1_555 1_555
C57 C58 1_555 1_555
C58 C59 1_555 1_555
C60 C61 1_555 1_555
C60 C86 1_555 1_555
C61 C62 1_555 1_555
C64 C65 1_555 1_555
C66 C67 1_555 1_555
C68 C69 1_555 1_555
C70 C71 1_555 1_555
C71 C72 1_555 1_555
C74 C75 1_555 1_555
C75 C76 1_555 1_555
C76 C77 1_555 1_555
C78 C97 1_555 1_555
C79 C80 1_555 1_555
C81 C82 1_555 1_555
C82 C83 1_555 1_555
C84 C85 1_555 1_555
C85 C86 1_555 1_555
C87 C88 1_555 1_555
C87 C100 1_555 1_555
C89 C90 1_555 1_555
C90 C91 1_555 1_555
C92 C93 1_555 1_555
C93 C94 1_555 1_555
C95 C102 1_555 1_555
C96 C97 1_555 1_555
C96 C98 1_555 1_555
C99 C100 1_555 1_555
C99 C101 1_555 1_555
C101 C102 1_555 1_555

#END
