
#######################################################################
#
#                 Cambridge Crystallographic Data Centre
#                                CCDC 
#
#######################################################################
#
# If this CIF has been generated from an entry in the Cambridge 
# Structural Database, then it will include bibliographic, chemical, 
# crystal, experimental, refinement or atomic coordinate data resulting 
# from the CCDC's data processing and validation procedures.
#
#######################################################################

data_UDENAT
_chemical_formula_moiety         'C16 H16 N2 O4'
_chemical_name_systematic        
1-((2R,4R,5R)-4-Hydroxy-5-(hydroxymethyl)tetrahydrofuran-2-yl)-1H-perimidin-2(3H)-one
_symmetry_cell_setting           orthorhombic
_symmetry_space_group_name_H-M   'P 21 21 21'
_symmetry_Int_Tables_number      19
_space_group_name_Hall           'P 2ac 2ab'
loop_
_symmetry_equiv_pos_site_id
_symmetry_equiv_pos_as_xyz
1 x,y,z
2 1/2-x,-y,1/2+z
3 -x,1/2+y,1/2-z
4 1/2+x,1/2-y,-z
_cell_length_a                   6.5372(9)
_cell_length_b                   8.6615(12)
_cell_length_c                   23.493(3)
_cell_angle_alpha                90
_cell_angle_beta                 90
_cell_angle_gamma                90
_cell_volume                     1330.22
_exptl_crystal_colour            yellow
_exptl_crystal_description       Block
_chemical_melting_point          196-198deg.C
_cell_formula_units_Z            4
_exptl_crystal_recrystallization_method ethanol
loop_
_atom_site_label
_atom_site_type_symbol
_atom_site_fract_x
_atom_site_fract_y
_atom_site_fract_z
O1 O 0.1500(2) 0.34415(15) 0.65181(5)
O2 O 0.2070(2) 0.44738(16) 0.76671(5)
H1 H 0.2250 0.5035 0.7380
O3 O 0.4216(3) 0.03837(15) 0.67932(6)
H2 H 0.5340 0.0016 0.6901
O4 O 0.3353(2) 0.62856(15) 0.68083(5)
N1 N 0.3564(2) 0.50446(16) 0.59458(6)
N2 N 0.3584(3) 0.77423(17) 0.60258(6)
H3 H 0.3617 0.8568 0.6244
C1 C 0.1711(3) 0.2364(2) 0.69833(7)
H4 H 0.0877 0.1422 0.6902
C2 C 0.3976(3) 0.1914(2) 0.70200(8)
H5 H 0.4468 0.1960 0.7423
C3 C 0.5052(3) 0.3126(2) 0.66572(9)
H6 H 0.6284 0.2696 0.6470
H7 H 0.5447 0.4036 0.6887
C4 C 0.3405(3) 0.35377(19) 0.62213(7)
H8 H 0.3412 0.2728 0.5918
C5 C 0.0885(3) 0.3152(2) 0.75110(9)
H9 H -0.0546 0.3475 0.7441
H10 H 0.0881 0.2408 0.7831
C6 C 0.3493(3) 0.6352(2) 0.62868(7)
C7 C 0.3658(3) 0.66436(19) 0.50917(7)
C8 C 0.3676(3) 0.5142(2) 0.53397(7)
C9 C 0.3831(3) 0.3876(2) 0.49883(7)
H11 H 0.3889 0.2869 0.5147
C10 C 0.3902(4) 0.4073(2) 0.43916(8)
H12 H 0.4023 0.3186 0.4156
C11 C 0.3802(3) 0.5491(2) 0.41434(7)
H13 H 0.3799 0.5584 0.3740
C12 C 0.3702(3) 0.6825(2) 0.44902(7)
C13 C 0.3696(3) 0.8344(2) 0.42627(7)
H14 H 0.3699 0.8490 0.3862
C14 C 0.3687(3) 0.9600(2) 0.46156(8)
H15 H 0.3691 1.0607 0.4455
C15 C 0.3670(3) 0.9432(2) 0.52102(8)
H16 H 0.3686 1.0314 0.5451
C16 C 0.3630(3) 0.7968(2) 0.54392(7)
loop_
_geom_bond_atom_site_label_1
_geom_bond_atom_site_label_2
_geom_bond_site_symmetry_1
_geom_bond_site_symmetry_2
O1 C1 1_555 1_555
O2 H1 1_555 1_555
O3 H2 1_555 1_555
O4 C6 1_555 1_555
N1 C4 1_555 1_555
N2 H3 1_555 1_555
C1 H4 1_555 1_555
C2 O3 1_555 1_555
H5 C2 1_555 1_555
C3 C2 1_555 1_555
H6 C3 1_555 1_555
H7 C3 1_555 1_555
C4 O1 1_555 1_555
H8 C4 1_555 1_555
C5 O2 1_555 1_555
H9 C5 1_555 1_555
H10 C5 1_555 1_555
C6 N1 1_555 1_555
C7 C8 1_555 1_555
C8 N1 1_555 1_555
C9 C8 1_555 1_555
H11 C9 1_555 1_555
C10 C9 1_555 1_555
H12 C10 1_555 1_555
C11 C10 1_555 1_555
H13 C11 1_555 1_555
C12 C7 1_555 1_555
C13 C12 1_555 1_555
H14 C13 1_555 1_555
C14 C13 1_555 1_555
H15 C14 1_555 1_555
C15 C14 1_555 1_555
H16 C15 1_555 1_555
C16 N2 1_555 1_555
N2 C6 1_555 1_555
C1 C2 1_555 1_555
C1 C5 1_555 1_555
C3 C4 1_555 1_555
C7 C16 1_555 1_555
C11 C12 1_555 1_555
C15 C16 1_555 1_555

#END
