
#######################################################################
#
#                 Cambridge Crystallographic Data Centre
#                                CCDC 
#
#######################################################################
#
# If this CIF has been generated from an entry in the Cambridge 
# Structural Database, then it will include bibliographic, chemical, 
# crystal, experimental, refinement or atomic coordinate data resulting 
# from the CCDC's data processing and validation procedures.
#
#######################################################################

data_UDEQAY
_chemical_formula_moiety         'C94 H82 N4 O4 S4'
_chemical_name_systematic        
2,2'-{[7,7,14,14-tetrakis(4-hexylphenyl)-7,14-dihydrobisthieno[2',3':4,5]thieno[2,3-d:2,3-d']benzo[1,2-b:4,5-b']dipyran-2,9-diyl]bis[methylylidene(3-oxo-1H-indene-2,1(3H)-diylidene)]}dipropanedinitrile
_symmetry_cell_setting           triclinic
_symmetry_space_group_name_H-M   'P -1'
_symmetry_Int_Tables_number      2
_space_group_name_Hall           '-P 1'
loop_
_symmetry_equiv_pos_site_id
_symmetry_equiv_pos_as_xyz
1 x,y,z
2 -x,-y,-z
_cell_length_a                   10.952(2)
_cell_length_b                   13.127(3)
_cell_length_c                   13.687(3)
_cell_angle_alpha                85.865(7)
_cell_angle_beta                 80.518(7)
_cell_angle_gamma                80.36(3)
_cell_volume                     1911.44
_exptl_crystal_colour            black
_exptl_crystal_description       block
_cell_formula_units_Z            1
_exptl_crystal_recrystallization_method 
'Re-crystallisation from solvent: CHCl3, MeOH'
loop_
_atom_site_label
_atom_site_type_symbol
_atom_site_fract_x
_atom_site_fract_y
_atom_site_fract_z
C1 C 0.3765(2) 0.54852(18) 0.50586(16)
N1 N 0.6028(2) -0.1633(2) 1.04022(19)
O1 O 0.25423(14) 0.59936(12) 0.51872(11)
S1 S 0.47430(5) 0.23960(5) 0.69034(4)
C2 C 0.4050(2) 0.46358(17) 0.56770(17)
H1 H 0.3418 0.4395 0.6129
N2 N 0.8816(2) -0.29894(19) 1.20558(18)
O2 O 1.05025(16) 0.01250(15) 0.77824(14)
S2 S 0.84744(5) 0.12350(4) 0.71953(4)
C3 C 0.5291(2) 0.41330(17) 0.56271(16)
C4 C 0.5697(2) 0.32109(17) 0.62100(17)
C5 C 0.6952(2) 0.28896(17) 0.62402(16)
C6 C 0.7155(2) 0.19756(17) 0.68406(17)
C7 C 0.6053(2) 0.16098(18) 0.72596(17)
C8 C 0.6266(2) 0.07296(18) 0.78865(18)
H2 H 0.5635 0.0384 0.8223
C9 C 0.7538(2) 0.04317(18) 0.79479(17)
C10 C 0.7915(2) -0.03536(18) 0.86596(17)
H3 H 0.7265 -0.0687 0.8980
C11 C 0.9045(2) -0.07187(18) 0.89689(17)
C12 C 1.0277(2) -0.04341(19) 0.85195(18)
C13 C 1.1212(2) -0.09843(19) 0.91156(18)
C14 C 1.2490(2) -0.0971(2) 0.89655(19)
H4 H 1.2861 -0.0563 0.8455
C15 C 1.3201(2) -0.1584(2) 0.9601(2)
H5 H 1.4060 -0.1584 0.9525
C16 C 1.2631(2) -0.2200(2) 1.0350(2)
H6 H 1.3124 -0.2619 1.0760
C17 C 1.1350(2) -0.2209(2) 1.05044(19)
H7 H 1.0984 -0.2622 1.1013
C18 C 1.0622(2) -0.15846(19) 0.98801(17)
C19 C 0.9260(2) -0.14299(18) 0.98255(17)
C20 C 0.8391(2) -0.18558(19) 1.04935(18)
C21 C 0.8679(2) -0.2490(2) 1.13575(19)
C22 C 0.7083(2) -0.1718(2) 1.04301(19)
C23 C 0.2094(2) 0.64638(17) 0.42863(16)
C24 C 0.0866(2) 0.71778(17) 0.46287(16)
C25 C 0.0832(2) 0.79055(18) 0.53271(17)
H8 H 0.1524 0.7899 0.5642
C26 C -0.0228(2) 0.86421(18) 0.55566(18)
H9 H -0.0237 0.9124 0.6024
C27 C -0.1281(2) 0.86704(19) 0.50973(18)
C28 C -0.1248(2) 0.79198(19) 0.44201(18)
H10 H -0.1948 0.7911 0.4120
C29 C -0.0188(2) 0.71842(18) 0.41858(18)
H11 H -0.0184 0.6692 0.3729
C30 C -0.2404(2) 0.9513(2) 0.5301(2)
H12 H -0.3081 0.9221 0.5714
H13 H -0.2184 1.0042 0.5668
C31 C -0.2860(2) 1.0006(2) 0.4369(2)
H14 H -0.3197 0.9497 0.4056
H15 H -0.2150 1.0198 0.3913
C32 C -0.3865(2) 1.0965(2) 0.4540(2)
H16 H -0.4588 1.0774 0.4980
H17 H -0.3538 1.1472 0.4863
C33 C -0.4275(3) 1.1450(2) 0.3577(2)
H18 H -0.3534 1.1566 0.3114
H19 H -0.4670 1.0959 0.3291
C34 C -0.5172(3) 1.2462(2) 0.3679(2)
H20 H -0.5902 1.2361 0.4161
H21 H -0.4765 1.2971 0.3926
C35 C -0.5590(3) 1.2869(3) 0.2705(3)
H22 H -0.4869 1.2952 0.2220
H23 H -0.6124 1.3526 0.2796
H24 H -0.6044 1.2389 0.2480
C36 C 0.1911(2) 0.56227(18) 0.36395(17)
C37 C 0.2102(2) 0.57381(19) 0.26134(18)
H25 H 0.2434 0.6309 0.2307
C38 C 0.1805(2) 0.5011(2) 0.2034(2)
H26 H 0.1925 0.5109 0.1347
C39 C 0.1335(2) 0.4145(2) 0.2472(2)
C40 C 0.1177(2) 0.40192(19) 0.3501(2)
H27 H 0.0880 0.3433 0.3806
C41 C 0.1451(2) 0.47454(19) 0.40791(18)
H28 H 0.1327 0.4648 0.4766
C42 C 0.0972(3) 0.3343(2) 0.1882(2)
H29 H 0.1361 0.2661 0.2093
H30 H 0.1290 0.3458 0.1186
C43 C -0.0458(3) 0.3375(2) 0.2012(2)
H31 H -0.0632 0.2758 0.1748
H32 H -0.0793 0.3371 0.2714
C44 C -0.1109(3) 0.4305(3) 0.1505(3)
H33 H -0.0774 0.4308 0.0804
H34 H -0.0932 0.4922 0.1769
C45 C -0.2538(3) 0.4347(3) 0.1632(2)
H35 H -0.2716 0.3752 0.1331
H36 H -0.2867 0.4301 0.2333
C46 C -0.3200(3) 0.5316(3) 0.1174(3)
H37 H -0.2860 0.5361 0.0474
H38 H -0.3018 0.5907 0.1477
C47 C -0.4601(3) 0.5385(3) 0.1275(3)
H39 H -0.4945 0.6019 0.0957
H40 H -0.4954 0.5371 0.1965
H41 H -0.4795 0.4810 0.0968
C1A C 0.6235(2) 0.45148(18) 0.49414(16)
N1A N 0.3972(2) 1.1633(2) -0.04022(19)
O1A O 0.74577(14) 0.40064(12) 0.48128(11)
S1A S 0.52570(5) 0.76040(5) 0.30966(4)
C2A C 0.5950(2) 0.53642(17) 0.43230(17)
H1A H 0.6582 0.5605 0.3871
N2A N 0.1184(2) 1.29894(19) -0.20558(18)
O2A O -0.05025(16) 0.98750(15) 0.22176(14)
S2A S 0.15256(5) 0.87650(4) 0.28047(4)
C3A C 0.4709(2) 0.58670(17) 0.43729(16)
C4A C 0.4303(2) 0.67891(17) 0.37900(17)
C5A C 0.3048(2) 0.71104(17) 0.37598(16)
C6A C 0.2845(2) 0.80244(17) 0.31594(17)
C7A C 0.3947(2) 0.83902(18) 0.27404(17)
C8A C 0.3734(2) 0.92704(18) 0.21135(18)
H2A H 0.4365 0.9616 0.1777
C9A C 0.2462(2) 0.95683(18) 0.20521(17)
C10A C 0.2085(2) 1.03536(18) 0.13404(17)
H3A H 0.2735 1.0687 0.1020
C11A C 0.0955(2) 1.07187(18) 0.10311(17)
C12A C -0.0277(2) 1.04341(19) 0.14805(18)
C13A C -0.1212(2) 1.09843(19) 0.08844(18)
C14A C -0.2490(2) 1.0971(2) 0.10345(19)
H4A H -0.2861 1.0563 0.1545
C15A C -0.3201(2) 1.1584(2) 0.0399(2)
H5A H -0.4060 1.1584 0.0475
C16A C -0.2631(2) 1.2200(2) -0.0350(2)
H6A H -0.3124 1.2619 -0.0760
C17A C -0.1350(2) 1.2209(2) -0.05044(19)
H7A H -0.0984 1.2622 -0.1013
C18A C -0.0622(2) 1.15846(19) 0.01199(17)
C19A C 0.0740(2) 1.14299(18) 0.01745(17)
C20A C 0.1609(2) 1.18558(19) -0.04935(18)
C21A C 0.1321(2) 1.2490(2) -0.13575(19)
C22A C 0.2917(2) 1.1718(2) -0.04301(19)
C23A C 0.7906(2) 0.35362(17) 0.57137(16)
C24A C 0.9134(2) 0.28222(17) 0.53713(16)
C25A C 0.9168(2) 0.20945(18) 0.46729(17)
H8A H 0.8476 0.2101 0.4358
C26A C 1.0228(2) 0.13579(18) 0.44434(18)
H9A H 1.0237 0.0876 0.3976
C27A C 1.1281(2) 0.13296(19) 0.49027(18)
C28A C 1.1248(2) 0.20802(19) 0.55799(18)
H10A H 1.1948 0.2089 0.5880
C29A C 1.0188(2) 0.28158(18) 0.58142(18)
H11A H 1.0184 0.3308 0.6271
C30A C 1.2404(2) 0.0487(2) 0.4699(2)
H12A H 1.3081 0.0779 0.4286
H13A H 1.2184 -0.0042 0.4332
C31A C 1.2860(2) -0.0006(2) 0.5631(2)
H14A H 1.3197 0.0503 0.5944
H15A H 1.2150 -0.0198 0.6087
C32A C 1.3865(2) -0.0965(2) 0.5460(2)
H16A H 1.4588 -0.0774 0.5020
H17A H 1.3538 -0.1472 0.5137
C33A C 1.4275(3) -0.1450(2) 0.6423(2)
H18A H 1.3534 -0.1566 0.6886
H19A H 1.4670 -0.0959 0.6709
C34A C 1.5172(3) -0.2462(2) 0.6321(2)
H20A H 1.5902 -0.2361 0.5839
H21A H 1.4765 -0.2971 0.6074
C35A C 1.5590(3) -0.2869(3) 0.7295(3)
H22A H 1.4869 -0.2952 0.7780
H23A H 1.6124 -0.3526 0.7204
H24A H 1.6044 -0.2389 0.7520
C36A C 0.8089(2) 0.43773(18) 0.63605(17)
C37A C 0.7898(2) 0.42619(19) 0.73866(18)
H25A H 0.7566 0.3691 0.7693
C38A C 0.8195(2) 0.4989(2) 0.7966(2)
H26A H 0.8075 0.4891 0.8653
C39A C 0.8665(2) 0.5855(2) 0.7528(2)
C40A C 0.8823(2) 0.59808(19) 0.6499(2)
H27A H 0.9120 0.6567 0.6194
C41A C 0.8549(2) 0.52546(19) 0.59209(18)
H28A H 0.8673 0.5352 0.5234
C42A C 0.9028(3) 0.6657(2) 0.8118(2)
H29A H 0.8639 0.7339 0.7907
H30A H 0.8710 0.6542 0.8814
C43A C 1.0458(3) 0.6625(2) 0.7988(2)
H31A H 1.0632 0.7242 0.8252
H32A H 1.0793 0.6629 0.7286
C44A C 1.1109(3) 0.5695(3) 0.8495(3)
H33A H 1.0774 0.5692 0.9196
H34A H 1.0932 0.5078 0.8231
C45A C 1.2538(3) 0.5653(3) 0.8368(2)
H35A H 1.2716 0.6248 0.8669
H36A H 1.2867 0.5699 0.7667
C46A C 1.3200(3) 0.4684(3) 0.8826(3)
H37A H 1.2860 0.4639 0.9526
H38A H 1.3018 0.4093 0.8523
C47A C 1.4601(3) 0.4615(3) 0.8725(3)
H39A H 1.4945 0.3981 0.9043
H40A H 1.4954 0.4629 0.8035
H41A H 1.4795 0.5190 0.9032
loop_
_geom_bond_atom_site_label_1
_geom_bond_atom_site_label_2
_geom_bond_site_symmetry_1
_geom_bond_site_symmetry_2
C1 O1 1_555 1_555
N1 C22 1_555 1_555
O1 C23 1_555 1_555
S1 C4 1_555 1_555
C2 C1 1_555 1_555
H1 C2 1_555 1_555
N2 C21 1_555 1_555
O2 C12 1_555 1_555
S2 C6 1_555 1_555
C3 C2 1_555 1_555
C4 C3 1_555 1_555
C5 C4 1_555 1_555
C6 C5 1_555 1_555
C7 S1 1_555 1_555
C8 C7 1_555 1_555
H2 C8 1_555 1_555
C9 S2 1_555 1_555
C10 C9 1_555 1_555
H3 C10 1_555 1_555
C11 C10 1_555 1_555
C12 C11 1_555 1_555
C13 C12 1_555 1_555
C14 C13 1_555 1_555
H4 C14 1_555 1_555
C15 C14 1_555 1_555
H5 C15 1_555 1_555
C16 C15 1_555 1_555
H6 C16 1_555 1_555
C17 C16 1_555 1_555
H7 C17 1_555 1_555
C18 C13 1_555 1_555
C19 C11 1_555 1_555
C20 C19 1_555 1_555
C21 C20 1_555 1_555
C22 C20 1_555 1_555
C23 C24 1_555 1_555
C24 C25 1_555 1_555
C25 H8 1_555 1_555
C26 C25 1_555 1_555
H9 C26 1_555 1_555
C27 C26 1_555 1_555
C28 C27 1_555 1_555
H10 C28 1_555 1_555
C29 C24 1_555 1_555
H11 C29 1_555 1_555
C30 C27 1_555 1_555
H12 C30 1_555 1_555
H13 C30 1_555 1_555
C31 C30 1_555 1_555
H14 C31 1_555 1_555
H15 C31 1_555 1_555
C32 C31 1_555 1_555
H16 C32 1_555 1_555
H17 C32 1_555 1_555
C33 C32 1_555 1_555
H18 C33 1_555 1_555
H19 C33 1_555 1_555
C34 C33 1_555 1_555
H20 C34 1_555 1_555
H21 C34 1_555 1_555
C35 C34 1_555 1_555
H22 C35 1_555 1_555
H23 C35 1_555 1_555
H24 C35 1_555 1_555
C36 C23 1_555 1_555
C37 C36 1_555 1_555
H25 C37 1_555 1_555
C38 C37 1_555 1_555
H26 C38 1_555 1_555
C39 C38 1_555 1_555
C40 C39 1_555 1_555
H27 C40 1_555 1_555
C41 C36 1_555 1_555
H28 C41 1_555 1_555
C42 C39 1_555 1_555
H29 C42 1_555 1_555
H30 C42 1_555 1_555
C43 C42 1_555 1_555
H31 C43 1_555 1_555
H32 C43 1_555 1_555
C44 C43 1_555 1_555
H33 C44 1_555 1_555
H34 C44 1_555 1_555
C45 C44 1_555 1_555
H35 C45 1_555 1_555
H36 C45 1_555 1_555
C46 C45 1_555 1_555
H37 C46 1_555 1_555
H38 C46 1_555 1_555
C47 C46 1_555 1_555
H39 C47 1_555 1_555
H40 C47 1_555 1_555
H41 C47 1_555 1_555
C1A C3 1_555 1_555
N1A C22A 1_555 1_555
O1A C1A 1_555 1_555
S1A C4A 1_555 1_555
C2A C1A 1_555 1_555
H1A C2A 1_555 1_555
N2A C21A 1_555 1_555
O2A C12A 1_555 1_555
S2A C6A 1_555 1_555
C3A C1 1_555 1_555
C4A C3A 1_555 1_555
C5A C23 1_555 1_555
C6A C5A 1_555 1_555
C7A S1A 1_555 1_555
C8A C7A 1_555 1_555
H2A C8A 1_555 1_555
C9A S2A 1_555 1_555
C10A C9A 1_555 1_555
H3A C10A 1_555 1_555
C11A C10A 1_555 1_555
C12A C11A 1_555 1_555
C13A C12A 1_555 1_555
C14A C13A 1_555 1_555
H4A C14A 1_555 1_555
C15A C14A 1_555 1_555
H5A C15A 1_555 1_555
C16A C15A 1_555 1_555
H6A C16A 1_555 1_555
C17A C16A 1_555 1_555
H7A C17A 1_555 1_555
C18A C13A 1_555 1_555
C19A C11A 1_555 1_555
C20A C19A 1_555 1_555
C21A C20A 1_555 1_555
C22A C20A 1_555 1_555
C23A C5 1_555 1_555
C24A C23A 1_555 1_555
C25A C24A 1_555 1_555
H8A C25A 1_555 1_555
C26A C25A 1_555 1_555
H9A C26A 1_555 1_555
C27A C26A 1_555 1_555
C28A C27A 1_555 1_555
H10A C28A 1_555 1_555
C29A C24A 1_555 1_555
H11A C29A 1_555 1_555
C30A C27A 1_555 1_555
H12A C30A 1_555 1_555
H13A C30A 1_555 1_555
C31A C30A 1_555 1_555
H14A C31A 1_555 1_555
H15A C31A 1_555 1_555
C32A C31A 1_555 1_555
H16A C32A 1_555 1_555
H17A C32A 1_555 1_555
C33A C32A 1_555 1_555
H18A C33A 1_555 1_555
H19A C33A 1_555 1_555
C34A C33A 1_555 1_555
H20A C34A 1_555 1_555
H21A C34A 1_555 1_555
C35A C34A 1_555 1_555
H22A C35A 1_555 1_555
H23A C35A 1_555 1_555
H24A C35A 1_555 1_555
C36A C23A 1_555 1_555
C37A C36A 1_555 1_555
H25A C37A 1_555 1_555
C38A C37A 1_555 1_555
H26A C38A 1_555 1_555
C39A C38A 1_555 1_555
C40A C39A 1_555 1_555
H27A C40A 1_555 1_555
C41A C36A 1_555 1_555
H28A C41A 1_555 1_555
C42A C39A 1_555 1_555
H29A C42A 1_555 1_555
H30A C42A 1_555 1_555
C43A C42A 1_555 1_555
H31A C43A 1_555 1_555
H32A C43A 1_555 1_555
C44A C43A 1_555 1_555
H33A C44A 1_555 1_555
H34A C44A 1_555 1_555
C45A C44A 1_555 1_555
H35A C45A 1_555 1_555
H36A C45A 1_555 1_555
C46A C45A 1_555 1_555
H37A C46A 1_555 1_555
H38A C46A 1_555 1_555
C47A C46A 1_555 1_555
H39A C47A 1_555 1_555
H40A C47A 1_555 1_555
H41A C47A 1_555 1_555
C6 C7 1_555 1_555
C8 C9 1_555 1_555
C17 C18 1_555 1_555
C18 C19 1_555 1_555
C28 C29 1_555 1_555
C40 C41 1_555 1_555
O1A C23A 1_555 1_555
C2A C3A 1_555 1_555
C4A C5A 1_555 1_555
C6A C7A 1_555 1_555
C8A C9A 1_555 1_555
C17A C18A 1_555 1_555
C18A C19A 1_555 1_555
C28A C29A 1_555 1_555
C40A C41A 1_555 1_555

#END
