
#######################################################################
#
#                 Cambridge Crystallographic Data Centre
#                                CCDC 
#
#######################################################################
#
# If this CIF has been generated from an entry in the Cambridge 
# Structural Database, then it will include bibliographic, chemical, 
# crystal, experimental, refinement or atomic coordinate data resulting 
# from the CCDC's data processing and validation procedures.
#
#######################################################################

data_UDEQEZ
_chemical_formula_moiety         'C24 H26 N2 O4'
_chemical_name_systematic        
4-((4-(1,4,7-Trioxa-10-azacyclododecan-10-yl)phenyl)imino)naphthalen-1(4H)-one
_symmetry_cell_setting           monoclinic
_symmetry_space_group_name_H-M   'P 21/c'
_symmetry_Int_Tables_number      14
_space_group_name_Hall           '-P 2ybc'
loop_
_symmetry_equiv_pos_site_id
_symmetry_equiv_pos_as_xyz
1 x,y,z
2 -x,1/2+y,1/2-z
3 -x,-y,-z
4 x,1/2-y,1/2+z
_cell_length_a                   8.970(1)
_cell_length_b                   14.597(2)
_cell_length_c                   16.189(2)
_cell_angle_alpha                90
_cell_angle_beta                 100.421(5)
_cell_angle_gamma                90
_cell_volume                     2084.74
_chemical_melting_point          '131 deg.C'
_cell_formula_units_Z            4
_exptl_crystal_recrystallization_method 'ethyl acetate'
loop_
_atom_site_label
_atom_site_type_symbol
_atom_site_fract_x
_atom_site_fract_y
_atom_site_fract_z
O1 O 0.0690(5) 0.3455(4) 0.6937(3)
O2 O 0.1916(4) 0.5749(2) 0.0519(2)
O3 O 0.4974(4) 0.6591(3) 0.1087(2)
O4 O 0.5772(4) 0.4786(2) 0.1647(2)
N1 N -0.0861(4) 0.3836(3) 0.3567(2)
N2 N 0.2842(4) 0.3822(3) 0.1127(2)
C1 C 0.0341(7) 0.3614(4) 0.6185(4)
C2 C -0.1251(6) 0.3658(4) 0.5765(3)
C3 C -0.2413(7) 0.3607(5) 0.6226(3)
C4 C -0.3862(7) 0.3653(5) 0.5851(4)
C5 C -0.4242(6) 0.3762(5) 0.5007(4)
C6 C -0.3166(6) 0.3802(4) 0.4536(3)
C7 C -0.1636(6) 0.3743(3) 0.4892(3)
C8 C -0.0436(5) 0.3810(4) 0.4374(3)
C9 C 0.1089(6) 0.3889(4) 0.4833(3)
C10 C 0.1433(6) 0.3798(5) 0.5662(4)
C11 C 0.0140(5) 0.3812(4) 0.3000(3)
C12 C -0.0263(5) 0.4301(4) 0.2260(3)
C13 C 0.0628(6) 0.4327(4) 0.1662(3)
C14 C 0.1961(5) 0.3810(4) 0.1734(3)
C15 C 0.2307(5) 0.3287(4) 0.2467(3)
C16 C 0.1456(6) 0.3296(4) 0.3081(3)
C17 C 0.2297(5) 0.4169(4) 0.0291(3)
C18 C 0.2741(6) 0.5126(4) 0.0120(3)
C19 C 0.2369(6) 0.6661(4) 0.0456(4)
C20 C 0.3558(7) 0.6972(4) 0.1158(4)
C21 C 0.5868(7) 0.6362(4) 0.1863(4)
C22 C 0.5493(6) 0.5460(4) 0.2188(3)
C23 C 0.5471(6) 0.3899(4) 0.1922(3)
C24 C 0.4323(6) 0.3411(4) 0.1277(3)
loop_
_geom_bond_atom_site_label_1
_geom_bond_atom_site_label_2
_geom_bond_site_symmetry_1
_geom_bond_site_symmetry_2
O1 C1 1_555 1_555
O2 C18 1_555 1_555
O3 C20 1_555 1_555
O4 C22 1_555 1_555
N1 C8 1_555 1_555
N2 C14 1_555 1_555
C1 C2 1_555 1_555
C2 C3 1_555 1_555
C3 C4 1_555 1_555
C4 C5 1_555 1_555
C5 C6 1_555 1_555
C6 C7 1_555 1_555
C7 C2 1_555 1_555
C8 C7 1_555 1_555
C9 C8 1_555 1_555
C10 C1 1_555 1_555
C11 N1 1_555 1_555
C12 C11 1_555 1_555
C13 C12 1_555 1_555
C14 C13 1_555 1_555
C15 C14 1_555 1_555
C16 C11 1_555 1_555
C17 N2 1_555 1_555
C18 C17 1_555 1_555
C19 O2 1_555 1_555
C20 C19 1_555 1_555
C21 O3 1_555 1_555
C22 C21 1_555 1_555
C23 O4 1_555 1_555
C24 N2 1_555 1_555
C9 C10 1_555 1_555
C15 C16 1_555 1_555
C23 C24 1_555 1_555

#END
