
#######################################################################
#
#                 Cambridge Crystallographic Data Centre
#                                CCDC 
#
#######################################################################
#
# If this CIF has been generated from an entry in the Cambridge 
# Structural Database, then it will include bibliographic, chemical, 
# crystal, experimental, refinement or atomic coordinate data resulting 
# from the CCDC's data processing and validation procedures.
#
#######################################################################

data_UDEQUP
_chemical_formula_moiety         'C8 H8 S4,C6 Cl4 O2'
_chemical_name_systematic        
"4,4'-Dimethyl-1,1',3,3'-tetrathiafulvalene 2,3,5,6-tetrachloro-p-benzoquinone"
_symmetry_cell_setting           triclinic
_symmetry_space_group_name_H-M   'P -1'
_symmetry_Int_Tables_number      2
_space_group_name_Hall           '-P 1'
loop_
_symmetry_equiv_pos_site_id
_symmetry_equiv_pos_as_xyz
1 x,y,z
2 -x,-y,-z
_cell_length_a                   7.707(2)
_cell_length_b                   8.660(2)
_cell_length_c                   7.321(2)
_cell_angle_alpha                104.94(2)
_cell_angle_beta                 91.84(2)
_cell_angle_gamma                95.91(2)
_cell_volume                     468.721
_cell_formula_units_Z            1
loop_
_atom_site_label
_atom_site_type_symbol
_atom_site_fract_x
_atom_site_fract_y
_atom_site_fract_z
S1 S 0.2391(2) 0.5190(2) 0.3852(2)
S2 S 0.4177(2) 0.2407(2) 0.4132(2)
C1 C 0.4281(7) 0.4500(7) 0.4572(8)
C2 C 0.1239(7) 0.3275(8) 0.3028(9)
C3 C 0.2016(8) 0.2017(8) 0.3150(9)
C4 C 0.124(1) 0.0261(9) 0.256(1)
C1A C 0.5719(7) 0.5500(7) 0.5428(8)
S1A S 0.7609(2) 0.4810(2) 0.6148(2)
C2A C 0.8761(7) 0.6725(8) 0.6972(9)
C3A C 0.7984(8) 0.7983(8) 0.6850(9)
S2A S 0.5823(2) 0.7593(2) 0.5868(2)
C4A C 0.876(1) 0.9739(9) 0.744(1)
O1 O 0.2696(5) 0.6929(5) -0.0637(7)
Cl1 Cl 0.1211(1) 0.3539(1) -0.1868(2)
Cl2 Cl 0.5931(1) 0.8843(1) 0.1330(2)
C5 C 0.3729(7) 0.6060(6) -0.0316(8)
C6 C 0.3335(7) 0.4273(6) -0.0871(8)
C7 C 0.5484(7) 0.6694(6) 0.0633(8)
C7A C 0.4516(7) 0.3306(6) -0.0633(8)
Cl2A Cl 0.4069(1) 0.1157(1) -0.1330(2)
C5A C 0.6271(7) 0.3940(6) 0.0316(8)
O1A O 0.7304(5) 0.3071(5) 0.0637(7)
C6A C 0.6665(7) 0.5727(6) 0.0871(8)
Cl1A Cl 0.8789(1) 0.6461(1) 0.1868(2)
loop_
_geom_bond_atom_site_label_1
_geom_bond_atom_site_label_2
_geom_bond_site_symmetry_1
_geom_bond_site_symmetry_2
S1 C1 1_555 1_555
S2 C1 1_555 1_555
C1 C1A 1_555 1_555
C2 S1 1_555 1_555
C3 S2 1_555 1_555
C4 C3 1_555 1_555
O1 C5 1_555 1_555
Cl1 C6 1_555 1_555
Cl2 C7 1_555 1_555
C5 C6 1_555 1_555
C6 C7A 1_555 1_555
C7 C5 1_555 1_555
C1A S1A 1_555 1_555
S1A C2A 1_555 1_555
C2A C3A 1_555 1_555
C3A S2A 1_555 1_555
S2A C1A 1_555 1_555
C4A C3A 1_555 1_555
C7A Cl2A 1_555 1_555
C5A C7A 1_555 1_555
O1A C5A 1_555 1_555
C6A C7 1_555 1_555
Cl1A C6A 1_555 1_555
C2 C3 1_555 1_555
C5A C6A 1_555 1_555

#END
