
#######################################################################
#
#                 Cambridge Crystallographic Data Centre
#                                CCDC 
#
#######################################################################
#
# If this CIF has been generated from an entry in the Cambridge 
# Structural Database, then it will include bibliographic, chemical, 
# crystal, experimental, refinement or atomic coordinate data resulting 
# from the CCDC's data processing and validation procedures.
#
#######################################################################

data_UDERAW
_chemical_formula_moiety         'C8 H8 S4,C6 Br2 Cl2 O2'
_chemical_name_systematic        
"4,4'-Dimethyl-1,1',3,3'-tetrathiafulvalene 2,5-dibromo-3,6-dichloro-p-benzoquinone"
_symmetry_cell_setting           triclinic
_symmetry_space_group_name_H-M   'P -1'
_symmetry_Int_Tables_number      2
_space_group_name_Hall           '-P 1'
loop_
_symmetry_equiv_pos_site_id
_symmetry_equiv_pos_as_xyz
1 x,y,z
2 -x,-y,-z
_cell_length_a                   7.717(3)
_cell_length_b                   8.778(3)
_cell_length_c                   7.338(4)
_cell_angle_alpha                105.98(3)
_cell_angle_beta                 91.75(4)
_cell_angle_gamma                95.91(3)
_cell_volume                     474.425
_cell_formula_units_Z            1
loop_
_atom_site_label
_atom_site_type_symbol
_atom_site_fract_x
_atom_site_fract_y
_atom_site_fract_z
S1 S 0.2404(2) 0.5191(2) 0.3854(2)
S2 S 0.4164(2) 0.2434(2) 0.4099(2)
C1 C 0.4284(7) 0.4509(7) 0.4560(8)
C2 C 0.1238(8) 0.3304(8) 0.3010(9)
C3 C 0.2012(8) 0.2043(8) 0.3128(8)
C4 C 0.121(1) 0.0327(9) 0.255(1)
C1A C 0.5716(7) 0.5491(7) 0.5440(8)
S1A S 0.7596(2) 0.4809(2) 0.6146(2)
C2A C 0.8762(8) 0.6696(8) 0.6990(9)
C3A C 0.7988(8) 0.7957(8) 0.6872(8)
S2A S 0.5836(2) 0.7566(2) 0.5901(2)
C4A C 0.879(1) 0.9673(9) 0.745(1)
O1 O 0.2688(5) 0.6888(5) -0.0619(7)
Cl1 Cl 0.1176(1) 0.3502(1) -0.1901(2)
Br1 Br 0.5910(1) 0.88735(9) 0.1416(1)
C5 C 0.3725(7) 0.6040(6) -0.0294(8)
C6 C 0.3331(7) 0.4262(6) -0.0887(8)
C7 C 0.5481(7) 0.6683(6) 0.0656(8)
C7A C 0.4519(7) 0.3317(6) -0.0656(8)
Br1A Br 0.4090(1) 0.11265(9) -0.1416(1)
C5A C 0.6275(7) 0.3960(6) 0.0294(8)
O1A O 0.7312(5) 0.3112(5) 0.0619(7)
C6A C 0.6669(7) 0.5738(6) 0.0887(8)
Cl1A Cl 0.8824(1) 0.6498(1) 0.1901(2)
loop_
_geom_bond_atom_site_label_1
_geom_bond_atom_site_label_2
_geom_bond_site_symmetry_1
_geom_bond_site_symmetry_2
S1 C1 1_555 1_555
S2 C1 1_555 1_555
C1 C1A 1_555 1_555
C2 S1 1_555 1_555
C3 S2 1_555 1_555
C4 C3 1_555 1_555
O1 C5 1_555 1_555
Cl1 C6 1_555 1_555
Br1 C7 1_555 1_555
C5 C6 1_555 1_555
C6 C7A 1_555 1_555
C7 C5 1_555 1_555
C1A S1A 1_555 1_555
S1A C2A 1_555 1_555
C2A C3A 1_555 1_555
C3A S2A 1_555 1_555
S2A C1A 1_555 1_555
C4A C3A 1_555 1_555
C7A Br1A 1_555 1_555
C5A C7A 1_555 1_555
O1A C5A 1_555 1_555
C6A C7 1_555 1_555
Cl1A C6A 1_555 1_555
C2 C3 1_555 1_555
C5A C6A 1_555 1_555

#END
