
#######################################################################
#
#                 Cambridge Crystallographic Data Centre
#                                CCDC 
#
#######################################################################
#
# If this CIF has been generated from an entry in the Cambridge 
# Structural Database, then it will include bibliographic, chemical, 
# crystal, experimental, refinement or atomic coordinate data resulting 
# from the CCDC's data processing and validation procedures.
#
#######################################################################

data_UDEVIL
_chemical_formula_moiety         'C24 H20 Cl1 N5 O3,C2 H3 N1'
_chemical_name_systematic        
'N-[1-(4-chlorophenyl)-4-cyano-1H-pyrazol-5-yl]-7-(diethylamino)-2-oxo-2H-1-benzopyran-3-carboxamide acetonitrile solvate'
_symmetry_cell_setting           monoclinic
_symmetry_space_group_name_H-M   'P 21/n'
_symmetry_Int_Tables_number      14
_space_group_name_Hall           '-P 2yn'
loop_
_symmetry_equiv_pos_site_id
_symmetry_equiv_pos_as_xyz
1 x,y,z
2 1/2-x,1/2+y,1/2-z
3 -x,-y,-z
4 1/2+x,1/2-y,1/2+z
_cell_length_a                   10.837(5)
_cell_length_b                   13.554(6)
_cell_length_c                   18.198(8)
_cell_angle_alpha                90
_cell_angle_beta                 103.571(4)
_cell_angle_gamma                90
_cell_volume                     2598.38
_exptl_crystal_colour            yellow
_exptl_crystal_description       block
_cell_formula_units_Z            4
loop_
_atom_site_label
_atom_site_type_symbol
_atom_site_fract_x
_atom_site_fract_y
_atom_site_fract_z
Cl1 Cl 0.32735(6) 1.10832(5) 0.75657(4)
O1 O 0.77939(11) 0.67897(9) 0.89254(7)
N1 N 0.82306(14) 0.93774(11) 1.02422(9)
O2 O 1.03413(11) 0.90731(10) 1.06286(8)
N2 N 0.73681(14) 1.09693(11) 1.03616(8)
C1 C 0.93015(15) 0.88306(12) 1.02542(9)
C2 C 0.78832(15) 0.76585(13) 0.93185(9)
C3 C 0.99992(16) 0.64099(13) 0.94293(9)
O3 O 0.68961(11) 0.81336(10) 0.92213(8)
C4 C 0.91015(14) 0.79178(12) 0.97943(9)
C5 C 1.01163(15) 0.73006(13) 0.98278(9)
H1 H 1.0905 0.7480 1.0124
C6 C 0.95601(19) 0.46073(13) 0.86107(10)
C7 C 0.88055(16) 0.61527(12) 0.89788(9)
C8 C 0.82231(15) 1.02476(12) 1.06285(9)
C9 C 1.09860(17) 0.57197(14) 0.94510(10)
H2 H 1.1794 0.5860 0.9741
C10 C 0.63914(16) 1.09864(12) 0.96821(10)
C11 C 0.85610(18) 0.52895(14) 0.85792(10)
H3 H 0.7750 0.5154 0.8291
N3 N 0.74689(17) 1.17462(12) 1.08573(10)
N4 N 0.9357(2) 0.37457(12) 0.82199(10)
C12 C 0.42536(18) 1.13897(16) 0.90537(13)
H4 H 0.3462 1.1646 0.9065
C13 C 1.07854(19) 0.48585(14) 0.90608(11)
H5 H 1.1458 0.4424 0.9087
C14 C 0.89225(18) 1.05700(14) 1.13269(10)
C15 C 0.56592(18) 1.06884(14) 0.83567(11)
H6 H 0.5802 1.0458 0.7902
C16 C 0.44818(18) 1.10503(13) 0.83868(12)
C17 C 0.52048(18) 1.13483(15) 0.97086(12)
H7 H 0.5051 1.1562 1.0165
C18 C 1.0378(3) 0.30410(16) 0.82148(14)
H8 H 1.0023 0.2382 0.8130
H9 H 1.0974 0.3047 0.8705
C19 C 0.66237(17) 1.06698(14) 0.90048(10)
H10 H 0.7427 1.0445 0.8986
C20 C 0.8405(2) 1.14958(16) 1.14262(12)
H11 H 0.8694 1.1890 1.1850
C21 C 0.9859(2) 1.00567(17) 1.18699(12)
C22 C 0.8133(3) 0.35057(18) 0.77186(15)
H12 H 0.8268 0.3090 0.7311
H13 H 0.7726 0.4108 0.7498
N5 N 1.0585(2) 0.96835(19) 1.23422(12)
C23 C 1.1073(4) 0.3279(2) 0.76119(18)
H14 H 1.1489 0.3906 0.7719
H15 H 1.0480 0.3307 0.7129
H16 H 1.1694 0.2777 0.7603
C24 C 0.7281(4) 0.2986(3) 0.8130(2)
H17 H 0.7132 0.3401 0.8528
H18 H 0.7675 0.2383 0.8342
H19 H 0.6487 0.2839 0.7784
H20 H 0.755(2) 0.9205(17) 0.9921(12)
C25 C 0.5345(3) 0.3843(2) 0.09881(18)
H21 H 0.5730 0.4481 0.1090
H22 H 0.5991 0.3358 0.0988
H23 H 0.4902 0.3682 0.1371
C26 C 0.4467(3) 0.3853(2) 0.0262(2)
N6 N 0.3759(4) 0.3870(3) -0.0327(2)
loop_
_geom_bond_atom_site_label_1
_geom_bond_atom_site_label_2
_geom_bond_site_symmetry_1
_geom_bond_site_symmetry_2
Cl1 C16 1_555 1_555
O1 C2 1_555 1_555
N1 C1 1_555 1_555
O2 C1 1_555 1_555
N2 C8 1_555 1_555
C1 C4 1_555 1_555
C2 O3 1_555 1_555
C3 C5 1_555 1_555
C4 C2 1_555 1_555
C5 C4 1_555 1_555
H1 C5 1_555 1_555
C6 C11 1_555 1_555
C7 O1 1_555 1_555
C8 N1 1_555 1_555
C9 C3 1_555 1_555
H2 C9 1_555 1_555
C10 N2 1_555 1_555
C11 C7 1_555 1_555
H3 C11 1_555 1_555
N3 N2 1_555 1_555
N4 C6 1_555 1_555
C12 H4 1_555 1_555
C13 C6 1_555 1_555
H5 C13 1_555 1_555
C14 C8 1_555 1_555
C15 H6 1_555 1_555
C16 C12 1_555 1_555
C17 C10 1_555 1_555
H7 C17 1_555 1_555
C18 N4 1_555 1_555
H8 C18 1_555 1_555
H9 C18 1_555 1_555
C19 C10 1_555 1_555
H10 C19 1_555 1_555
C20 N3 1_555 1_555
H11 C20 1_555 1_555
C21 C14 1_555 1_555
C22 N4 1_555 1_555
H12 C22 1_555 1_555
H13 C22 1_555 1_555
N5 C21 1_555 1_555
C23 C18 1_555 1_555
H14 C23 1_555 1_555
H15 C23 1_555 1_555
H16 C23 1_555 1_555
C24 C22 1_555 1_555
H17 C24 1_555 1_555
H18 C24 1_555 1_555
H19 C24 1_555 1_555
H20 N1 1_555 1_555
C25 H21 1_555 1_555
H22 C25 1_555 1_555
H23 C25 1_555 1_555
C26 C25 1_555 1_555
N6 C26 1_555 1_555
C3 C7 1_555 1_555
C9 C13 1_555 1_555
C12 C17 1_555 1_555
C14 C20 1_555 1_555
C15 C16 1_555 1_555
C15 C19 1_555 1_555

#END
