
#######################################################################
#
#                 Cambridge Crystallographic Data Centre
#                                CCDC 
#
#######################################################################
#
# If this CIF has been generated from an entry in the Cambridge 
# Structural Database, then it will include bibliographic, chemical, 
# crystal, experimental, refinement or atomic coordinate data resulting 
# from the CCDC's data processing and validation procedures.
#
#######################################################################

data_UDEVUU
_chemical_formula_moiety         'C20 H25 N1 O5'
_chemical_name_systematic        1-(Dibenzylamino)-1-deoxy-D-fructose
_symmetry_cell_setting           monoclinic
_symmetry_space_group_name_H-M   'P 21'
_symmetry_Int_Tables_number      4
_space_group_name_Hall           'P 2yb'
loop_
_symmetry_equiv_pos_site_id
_symmetry_equiv_pos_as_xyz
1 x,y,z
2 -x,1/2+y,-z
_cell_length_a                   11.1329(10)
_cell_length_b                   5.6031(5)
_cell_length_c                   15.2643(14)
_cell_angle_alpha                90
_cell_angle_beta                 109.4810(10)
_cell_angle_gamma                90
_cell_volume                     897.658
_cell_formula_units_Z            2
loop_
_atom_site_label
_atom_site_type_symbol
_atom_site_fract_x
_atom_site_fract_y
_atom_site_fract_z
O1 O 0.3048(1) 0.3305(3) 0.8822(1)
C1 C 0.2868(2) 0.1128(4) 0.8300(2)
C2 C 0.1704(2) -0.0196(4) 0.8393(1)
C3 C 0.1828(2) -0.0523(6) 0.9407(2)
C4 C 0.2074(2) 0.1846(4) 0.9920(2)
C5 C 0.3232(2) 0.2954(5) 0.9790(2)
O2 O 0.3936(2) -0.0360(3) 0.8646(1)
O3 O 0.1516(2) -0.2410(3) 0.7914(1)
O4 O 0.0711(2) -0.1620(3) 0.9479(1)
O5 O 0.1026(2) 0.3438(3) 0.9562(1)
C6 C 0.2675(2) 0.1810(5) 0.7290(2)
N1 N 0.3901(2) 0.2089(3) 0.7141(1)
C7 C 0.3837(2) 0.1499(4) 0.6180(2)
C8 C 0.2973(2) 0.3054(5) 0.5423(2)
C9 C 0.3432(3) 0.5088(5) 0.5111(2)
C10 C 0.2614(4) 0.6563(6) 0.4451(2)
C11 C 0.1346(4) 0.6033(7) 0.4084(2)
C12 C 0.0880(3) 0.3987(7) 0.4358(2)
C13 C 0.1690(3) 0.2522(6) 0.5027(2)
C14 C 0.4486(2) 0.4441(4) 0.7455(2)
C15 C 0.5885(2) 0.4512(4) 0.7554(1)
C16 C 0.6380(3) 0.6459(5) 0.7228(2)
C17 C 0.7675(3) 0.6581(5) 0.7351(2)
C18 C 0.8477(3) 0.4781(6) 0.7791(2)
C19 C 0.8003(2) 0.2819(5) 0.8114(2)
C20 C 0.6713(2) 0.2694(5) 0.7997(2)
H1 H 0.0942(20) 0.0774(43) 0.8066(13)
H2 H 0.2562(21) -0.1603(45) 0.9732(16)
H3 H 0.2215(20) 0.1526(41) 1.0556(16)
H4 H 0.3383(21) 0.4513(51) 1.0064(16)
H5 H 0.4012(21) 0.1984(46) 1.0069(15)
H6 H 0.4367(36) -0.0241(81) 0.8269(27)
H7 H 0.2172(32) -0.3429(65) 0.8175(22)
H8 H 0.0710(33) -0.2903(78) 0.9357(24)
H9 H 0.0506(26) 0.3182(58) 0.9865(21)
H10 H 0.2142(22) 0.3219(47) 0.7114(16)
H11 H 0.2203(19) 0.0421(40) 0.6912(14)
H12 H 0.4757(25) 0.1566(43) 0.6175(15)
H13 H 0.3581(20) -0.0177(49) 0.6073(15)
H14 H 0.4324(28) 0.5428(61) 0.5373(20)
H15 H 0.2930(28) 0.7815(72) 0.4234(22)
H16 H 0.0795(32) 0.7008(73) 0.3647(23)
H17 H -0.0063(28) 0.3511(56) 0.4080(19)
H18 H 0.1352(26) 0.1053(62) 0.5193(19)
H19 H 0.4034(21) 0.5681(50) 0.7033(16)
H20 H 0.4399(20) 0.4783(48) 0.8076(16)
H21 H 0.5834(26) 0.7672(65) 0.6939(20)
H22 H 0.7950(26) 0.7926(63) 0.7106(20)
H23 H 0.9364(27) 0.4878(56) 0.7898(17)
H24 H 0.8570(28) 0.1533(63) 0.8423(20)
H25 H 0.6344(21) 0.1305(49) 0.8204(16)
loop_
_geom_bond_atom_site_label_1
_geom_bond_atom_site_label_2
_geom_bond_site_symmetry_1
_geom_bond_site_symmetry_2
O1 C1 1_555 1_555
C1 C2 1_555 1_555
C2 C3 1_555 1_555
C3 C4 1_555 1_555
C4 C5 1_555 1_555
C5 O1 1_555 1_555
O2 C1 1_555 1_555
O3 C2 1_555 1_555
O4 C3 1_555 1_555
O5 C4 1_555 1_555
C6 C1 1_555 1_555
N1 C6 1_555 1_555
C7 N1 1_555 1_555
C8 C7 1_555 1_555
C9 C8 1_555 1_555
C10 C9 1_555 1_555
C11 C10 1_555 1_555
C12 C11 1_555 1_555
C13 C8 1_555 1_555
C14 N1 1_555 1_555
C15 C14 1_555 1_555
C16 C15 1_555 1_555
C17 C16 1_555 1_555
C18 C17 1_555 1_555
C19 C18 1_555 1_555
C20 C15 1_555 1_555
H1 C2 1_555 1_555
H2 C3 1_555 1_555
H3 C4 1_555 1_555
H4 C5 1_555 1_555
H5 C5 1_555 1_555
H6 O2 1_555 1_555
H7 O3 1_555 1_555
H8 O4 1_555 1_555
H9 O5 1_555 1_555
H10 C6 1_555 1_555
H11 C6 1_555 1_555
H12 C7 1_555 1_555
H13 C7 1_555 1_555
H14 C9 1_555 1_555
H15 C10 1_555 1_555
H16 C11 1_555 1_555
H17 C12 1_555 1_555
H18 C13 1_555 1_555
H19 C14 1_555 1_555
H20 C14 1_555 1_555
H21 C16 1_555 1_555
H22 C17 1_555 1_555
H23 C18 1_555 1_555
H24 C19 1_555 1_555
H25 C20 1_555 1_555
C12 C13 1_555 1_555
C19 C20 1_555 1_555

#END
