
#######################################################################
#
#                 Cambridge Crystallographic Data Centre
#                                CCDC 
#
#######################################################################
#
# If this CIF has been generated from an entry in the Cambridge 
# Structural Database, then it will include bibliographic, chemical, 
# crystal, experimental, refinement or atomic coordinate data resulting 
# from the CCDC's data processing and validation procedures.
#
#######################################################################

data_UDEVAD
_chemical_formula_moiety         'C22 H16 N4 O7,H2 O1'
_chemical_name_systematic        
'ethyl 5-[(6-nitro-2-oxo-2H-1-benzopyran-3-carbonyl)amino]-1-phenyl-1H-pyrazole-4-carboxylate monohydrate'
_symmetry_cell_setting           monoclinic
_symmetry_space_group_name_H-M   'P 21/c'
_symmetry_Int_Tables_number      14
_space_group_name_Hall           '-P 2ybc'
loop_
_symmetry_equiv_pos_site_id
_symmetry_equiv_pos_as_xyz
1 x,y,z
2 -x,1/2+y,1/2-z
3 -x,-y,-z
4 x,1/2-y,1/2+z
_cell_length_a                   8.322(3)
_cell_length_b                   18.488(7)
_cell_length_c                   14.405(4)
_cell_angle_alpha                90
_cell_angle_beta                 107.660(16)
_cell_angle_gamma                90
_cell_volume                     2111.87
_exptl_crystal_description       block
_cell_formula_units_Z            4
loop_
_atom_site_label
_atom_site_type_symbol
_atom_site_fract_x
_atom_site_fract_y
_atom_site_fract_z
O1 O 0.3922(2) 0.48159(8) 0.76641(13)
O2 O -0.03069(16) 0.28854(7) 0.50794(10)
O3 O 0.48109(16) 0.22791(8) 0.75416(10)
O4 O 0.0645(2) 0.36232(8) 0.63102(13)
O5 O 0.6194(3) 0.52666(9) 0.87762(14)
O6 O -0.1586(3) 0.02127(10) 0.23482(13)
O7 O 0.0436(3) -0.02084(11) 0.35243(15)
N1 N 0.6097(2) 0.33213(10) 1.02583(12)
N2 N 0.4986(2) 0.29889(8) 0.94719(11)
N3 N 0.3363(2) 0.32593(8) 0.78034(11)
H1 H 0.2459 0.3528 0.7560
N4 N -0.0518(3) 0.02767(11) 0.31349(13)
C1 C 0.2212(2) 0.18922(10) 0.59066(12)
H2 H 0.3075 0.1550 0.6188
C2 C 0.3600(2) 0.26786(10) 0.72744(13)
C3 C 0.0926(2) 0.17164(10) 0.50159(13)
C4 C 0.2213(2) 0.25329(9) 0.63490(13)
C5 C 0.4472(2) 0.34508(10) 0.87072(13)
C6 C -0.0290(2) 0.22452(10) 0.46120(13)
C7 C 0.0847(2) 0.10608(10) 0.45221(13)
H3 H 0.1633 0.0685 0.4783
C8 C 0.0854(2) 0.30554(10) 0.59527(14)
C9 C 0.4540(2) 0.22544(10) 0.95878(13)
C10 C 0.5246(3) 0.41074(10) 0.90102(14)
C11 C -0.0400(2) 0.09731(11) 0.36470(13)
C12 C -0.1522(2) 0.21498(11) 0.37223(14)
H4 H -0.2317 0.2521 0.3456
C13 C 0.2967(3) 0.19851(11) 0.90724(15)
H5 H 0.2169 0.2285 0.8626
C14 C -0.1569(2) 0.15104(12) 0.32358(14)
H6 H -0.2394 0.1434 0.2623
C15 C 0.5191(3) 0.47862(10) 0.84809(16)
C16 C 0.6237(3) 0.39846(12) 0.99689(15)
H7 H 0.6936 0.4342 1.0368
C17 C 0.5694(3) 0.18254(12) 1.02491(16)
H8 H 0.6768 0.2012 1.0602
C18 C 0.2575(3) 0.12764(13) 0.92153(19)
H9 H 0.1509 0.1084 0.8856
C19 C 0.5267(4) 0.11192(13) 1.0392(2)
H10 H 0.6051 0.0822 1.0851
C20 C 0.3727(4) 0.08476(14) 0.9879(2)
H11 H 0.3448 0.0361 0.9978
C21 C 0.3768(4) 0.54755(15) 0.7078(2)
H12 H 0.4607 0.5472 0.6716
H13 H 0.3970 0.5908 0.7504
C22 C 0.2045(4) 0.54923(18) 0.6393(3)
H14 H 0.1948 0.5893 0.5933
H15 H 0.1240 0.5563 0.6760
H16 H 0.1799 0.5035 0.6033
O8 O 0.9064(4) 0.3145(2) 1.1973(2)
H17 H 0.9302 0.2768 1.2352
H18 H 0.9940 0.3428 1.2100
loop_
_geom_bond_atom_site_label_1
_geom_bond_atom_site_label_2
_geom_bond_site_symmetry_1
_geom_bond_site_symmetry_2
O1 C15 1_555 1_555
O2 C6 1_555 1_555
O3 C2 1_555 1_555
O4 C8 1_555 1_555
O5 C15 1_555 1_555
O6 N4 1_555 1_555
O7 N4 1_555 1_555
N1 N2 1_555 1_555
N2 C5 1_555 1_555
N3 H1 1_555 1_555
N4 C11 1_555 1_555
C1 H2 1_555 1_555
C2 N3 1_555 1_555
C3 C1 1_555 1_555
C4 C1 1_555 1_555
C5 N3 1_555 1_555
C6 C3 1_555 1_555
C7 C3 1_555 1_555
H3 C7 1_555 1_555
C8 O2 1_555 1_555
C9 N2 1_555 1_555
C10 C5 1_555 1_555
C11 C7 1_555 1_555
C12 C6 1_555 1_555
H4 C12 1_555 1_555
C13 C9 1_555 1_555
H5 C13 1_555 1_555
C14 C11 1_555 1_555
H6 C14 1_555 1_555
C15 C10 1_555 1_555
C16 N1 1_555 1_555
H7 C16 1_555 1_555
C17 C9 1_555 1_555
H8 C17 1_555 1_555
C18 C13 1_555 1_555
H9 C18 1_555 1_555
C19 C17 1_555 1_555
H10 C19 1_555 1_555
C20 C18 1_555 1_555
H11 C20 1_555 1_555
C21 O1 1_555 1_555
H12 C21 1_555 1_555
H13 C21 1_555 1_555
C22 C21 1_555 1_555
H14 C22 1_555 1_555
H15 C22 1_555 1_555
H16 C22 1_555 1_555
O8 H17 1_555 1_555
H18 O8 1_555 1_555
C2 C4 1_555 1_555
C4 C8 1_555 1_555
C10 C16 1_555 1_555
C12 C14 1_555 1_555
C19 C20 1_555 1_555

#END
