
#######################################################################
#
#                 Cambridge Crystallographic Data Centre
#                                CCDC 
#
#######################################################################
#
# If this CIF has been generated from an entry in the Cambridge 
# Structural Database, then it will include bibliographic, chemical, 
# crystal, experimental, refinement or atomic coordinate data resulting 
# from the CCDC's data processing and validation procedures.
#
#######################################################################

data_UDEXUZ
_chemical_name_common            
(7R)-3,6-anhydro-2-deoxy-7-C-fluoro-5,7-O-methylidene-D-ido-heptono-1,4-lactone
_chemical_formula_moiety         'C8 H9 F1 O5'
_chemical_name_systematic        
4-fluorohexahydro-2H,7H-furo[2',3':4,5]furo[3,2-d][1,3]dioxin-7-one
_symmetry_cell_setting           orthorhombic
_symmetry_space_group_name_H-M   'P 21 21 21'
_symmetry_Int_Tables_number      19
_space_group_name_Hall           'P 2ac 2ab'
loop_
_symmetry_equiv_pos_site_id
_symmetry_equiv_pos_as_xyz
1 x,y,z
2 1/2-x,-y,1/2+z
3 -x,1/2+y,1/2-z
4 1/2+x,1/2-y,-z
_cell_length_a                   7.9988(3)
_cell_length_b                   8.4678(3)
_cell_length_c                   12.1111(5)
_cell_angle_alpha                90
_cell_angle_beta                 90
_cell_angle_gamma                90
_cell_volume                     820.312
_exptl_crystal_colour            colorless
_exptl_crystal_description       plate
_cell_formula_units_Z            4
loop_
_atom_site_label
_atom_site_type_symbol
_atom_site_fract_x
_atom_site_fract_y
_atom_site_fract_z
F1 F 0.1959(2) 0.6516(2) 0.25976(14)
O1 O 0.8837(3) 0.6092(3) 0.52580(18)
O2 O 0.3515(2) 0.4499(2) 0.49262(13)
O3 O 0.7487(2) 0.4468(2) 0.41479(15)
O4 O 0.3928(3) 0.2721(2) 0.28581(16)
O5 O 0.1352(2) 0.3962(2) 0.29069(16)
C1 C 0.7652(3) 0.5263(3) 0.5102(2)
C2 C 0.6214(4) 0.4947(4) 0.5834(2)
H1 H 0.562828 0.592139 0.600194
H2 H 0.658986 0.447773 0.652146
C3 C 0.5079(3) 0.3824(3) 0.5224(2)
H3 H 0.492067 0.284565 0.564369
C4 C 0.6002(3) 0.3502(3) 0.4138(2)
H4 H 0.627455 0.23802 0.405581
C5 C 0.4832(3) 0.4059(3) 0.3241(2)
H5 H 0.543266 0.45899 0.26414
C6 C 0.3685(3) 0.5181(3) 0.38560(18)
H6 H 0.420182 0.622747 0.391106
C7 C 0.1939(3) 0.5320(3) 0.3390(2)
H7 H 0.117572 0.562597 0.398556
C8 C 0.2550(4) 0.3215(4) 0.2231(3)
H8 H 0.204677 0.230937 0.18702
H9 H 0.291999 0.394354 0.166294
loop_
_geom_bond_atom_site_label_1
_geom_bond_atom_site_label_2
_geom_bond_site_symmetry_1
_geom_bond_site_symmetry_2
F1 C7 1_555 1_555
O1 C1 1_555 1_555
O2 C3 1_555 1_555
O3 C1 1_555 1_555
O4 C5 1_555 1_555
O5 C7 1_555 1_555
C1 C2 1_555 1_555
C2 H1 1_555 1_555
H2 C2 1_555 1_555
C3 C2 1_555 1_555
H3 C3 1_555 1_555
C4 O3 1_555 1_555
H4 C4 1_555 1_555
C5 C4 1_555 1_555
H5 C5 1_555 1_555
C6 O2 1_555 1_555
H6 C6 1_555 1_555
C7 C6 1_555 1_555
H7 C7 1_555 1_555
C8 O4 1_555 1_555
H8 C8 1_555 1_555
H9 C8 1_555 1_555
O5 C8 1_555 1_555
C3 C4 1_555 1_555
C5 C6 1_555 1_555

#END
