
#######################################################################
#
#                 Cambridge Crystallographic Data Centre
#                                CCDC 
#
#######################################################################
#
# If this CIF has been generated from an entry in the Cambridge 
# Structural Database, then it will include bibliographic, chemical, 
# crystal, experimental, refinement or atomic coordinate data resulting 
# from the CCDC's data processing and validation procedures.
#
#######################################################################

data_UDEYUA
_chemical_name_common            
(7R)-3,6-anhydro-2-deoxy-7-C-benzoyloxy-5,7-O-methylidene-D-ido-heptono-1,4-lactone
_chemical_formula_moiety         'C15 H14 O7'
_chemical_name_systematic        
"7-oxohexahydro-2H,4H-furo[2',3':4,5]furo[3,2-d][1,3]dioxin-4-yl benzoate"
_symmetry_cell_setting           orthorhombic
_symmetry_space_group_name_H-M   'P 21 21 21'
_symmetry_Int_Tables_number      19
_space_group_name_Hall           'P 2ac 2ab'
loop_
_symmetry_equiv_pos_site_id
_symmetry_equiv_pos_as_xyz
1 x,y,z
2 1/2-x,-y,1/2+z
3 1/2+x,1/2-y,-z
4 -x,1/2+y,1/2-z
_cell_length_a                   6.2735(3)
_cell_length_b                   7.3429(4)
_cell_length_c                   29.696(2)
_cell_angle_alpha                90
_cell_angle_beta                 90
_cell_angle_gamma                90
_cell_volume                     1367.97
_exptl_crystal_colour            colorless
_exptl_crystal_description       plate
_cell_formula_units_Z            4
loop_
_atom_site_label
_atom_site_type_symbol
_atom_site_fract_x
_atom_site_fract_y
_atom_site_fract_z
O1 O -0.1655(6) 1.2811(5) 0.94729(13)
O2 O 0.1027(4) 0.7551(4) 0.94776(10)
O3 O 0.1580(5) 1.1734(4) 0.93255(11)
O4 O 0.5476(4) 0.8153(5) 0.92573(11)
O5 O 0.4247(5) 0.5368(5) 0.89826(11)
O6 O 0.2734(4) 0.6419(5) 0.83371(10)
O7 O -0.0746(5) 0.6292(6) 0.81913(12)
C1 C -0.0302(8) 1.1714(7) 0.95528(16)
C2 C -0.0330(7) 1.0211(6) 0.98838(17)
H1 H -0.163650 0.951197 0.985910
H2 H -0.021051 1.067855 1.018827
C3 C 0.1583(7) 0.9049(6) 0.97657(15)
H3 H 0.233120 0.863216 1.003646
C4 C 0.2972(7) 1.0313(6) 0.94855(17)
H4 H 0.417952 1.079526 0.965743
C5 C 0.3681(6) 0.9137(6) 0.90951(15)
H5 H 0.400375 0.984926 0.882441
C6 C 0.1789(6) 0.7887(6) 0.90325(14)
H6 H 0.068536 0.850332 0.885550
C7 C 0.2366(7) 0.6095(6) 0.88131(14)
H7 H 0.119974 0.522151 0.885177
C8 C 0.5932(7) 0.6660(8) 0.89806(17)
H8 H 0.723140 0.607864 0.908410
H9 H 0.616817 0.708086 0.867507
C9 C 0.1037(7) 0.6430(7) 0.80587(17)
C10 C 0.1664(7) 0.6652(7) 0.75795(15)
C11 C 0.0116(8) 0.6441(8) 0.72557(18)
H10 H -0.126381 0.612552 0.733954
C12 C 0.0600(10) 0.6695(9) 0.68084(19)
H11 H -0.045233 0.654488 0.659099
C13 C 0.2625(10) 0.7167(9) 0.66813(19)
H12 H 0.294644 0.733736 0.637852
C14 C 0.4169(9) 0.7386(10) 0.69999(19)
H13 H 0.553809 0.772774 0.691478
C15 C 0.3699(8) 0.7098(9) 0.74518(17)
H14 H 0.476580 0.720806 0.766761
loop_
_geom_bond_atom_site_label_1
_geom_bond_atom_site_label_2
_geom_bond_site_symmetry_1
_geom_bond_site_symmetry_2
O1 C1 1_555 1_555
O2 C3 1_555 1_555
O3 C1 1_555 1_555
O4 C5 1_555 1_555
O5 C7 1_555 1_555
O6 C7 1_555 1_555
O7 C9 1_555 1_555
C1 C2 1_555 1_555
C2 H1 1_555 1_555
H2 C2 1_555 1_555
C3 C2 1_555 1_555
H3 C3 1_555 1_555
C4 O3 1_555 1_555
H4 C4 1_555 1_555
C5 C4 1_555 1_555
H5 C5 1_555 1_555
C6 O2 1_555 1_555
H6 C6 1_555 1_555
C7 C6 1_555 1_555
H7 C7 1_555 1_555
C8 O4 1_555 1_555
H8 C8 1_555 1_555
H9 C8 1_555 1_555
C9 O6 1_555 1_555
C10 C9 1_555 1_555
C11 C10 1_555 1_555
H10 C11 1_555 1_555
C12 C11 1_555 1_555
H11 C12 1_555 1_555
C13 C12 1_555 1_555
H12 C13 1_555 1_555
C14 C13 1_555 1_555
H13 C14 1_555 1_555
C15 C10 1_555 1_555
H14 C15 1_555 1_555
O5 C8 1_555 1_555
C3 C4 1_555 1_555
C5 C6 1_555 1_555
C14 C15 1_555 1_555

#END
