
#######################################################################
#
#                 Cambridge Crystallographic Data Centre
#                                CCDC 
#
#######################################################################
#
# If this CIF has been generated from an entry in the Cambridge 
# Structural Database, then it will include bibliographic, chemical, 
# crystal, experimental, refinement or atomic coordinate data resulting 
# from the CCDC's data processing and validation procedures.
#
#######################################################################

data_UDEZAH
_chemical_name_common            
1,2-O-Isopropylidene-5-C-chloro-3,5-O-methylidene-a-D-gluco-pentofuranose
_chemical_formula_moiety         'C9 H13 Cl1 O5'
_chemical_name_systematic        
7-chloro-2,2-dimethyltetrahydro-2H,3bH,5H-[1,3]dioxolo[4,5]furo[3,2-d][1,3]dioxine
_symmetry_cell_setting           monoclinic
_symmetry_space_group_name_H-M   'P 21'
_symmetry_Int_Tables_number      4
_space_group_name_Hall           'P 2yb'
loop_
_symmetry_equiv_pos_site_id
_symmetry_equiv_pos_as_xyz
1 x,y,z
2 -x,1/2+y,-z
_cell_length_a                   7.1366(5)
_cell_length_b                   7.3245(5)
_cell_length_c                   10.1878(8)
_cell_angle_alpha                90
_cell_angle_beta                 90.992(7)
_cell_angle_gamma                90
_cell_volume                     532.457
_exptl_crystal_colour            colorless
_exptl_crystal_description       prism
_cell_formula_units_Z            2
loop_
_atom_site_label
_atom_site_type_symbol
_atom_site_fract_x
_atom_site_fract_y
_atom_site_fract_z
O1 O 0.9050(4) 0.0389(4) 0.1749(3)
C1 C 1.0482(6) 0.0814(5) 0.2700(4)
O2 O 0.6501(4) 0.2390(3) 0.1780(3)
C2 C 0.8263(6) 0.1975(6) 0.1230(4)
H1 H 0.815149 0.188805 0.027185
O3 O 1.0616(4) 0.2765(3) 0.2702(3)
C3 C 0.9589(5) 0.3500(5) 0.1621(4)
H2 H 1.038995 0.389429 0.090259
C4 C 0.8322(5) 0.4997(5) 0.2106(4)
H3 H 0.893046 0.577109 0.27725
O4 O 0.7699(4) 0.5996(4) 0.0989(2)
C5 C 0.6724(6) 0.3882(5) 0.2650(4)
H4 H 0.705039 0.34431 0.353322
O5 O 0.4557(4) 0.5944(4) 0.1564(3)
C6 C 0.6123(6) 0.7055(6) 0.1247(4)
H5 H 0.581351 0.779241 0.048207
H6 H 0.64026 0.787409 0.197227
C7 C 0.4864(6) 0.4911(6) 0.2668(4)
H7 H 0.384533 0.401986 0.273695
Cl1 Cl 0.48987(19) 0.63294(17) 0.41471(12)
C8 C 1.2260(7) -0.0025(7) 0.2274(5)
H8 H 1.322525 0.020641 0.292076
H9 H 1.261651 0.049385 0.144936
H10 H 1.209148 -0.131805 0.217489
C9 C 0.9922(8) 0.0228(7) 0.4042(5)
H11 H 1.086967 0.059042 0.466926
H12 H 0.978289 -0.107503 0.40605
H13 H 0.875312 0.079299 0.425761
loop_
_geom_bond_atom_site_label_1
_geom_bond_atom_site_label_2
_geom_bond_site_symmetry_1
_geom_bond_site_symmetry_2
O1 C1 1_555 1_555
C1 O3 1_555 1_555
O2 C2 1_555 1_555
C2 O1 1_555 1_555
H1 C2 1_555 1_555
O3 C3 1_555 1_555
C3 C2 1_555 1_555
H2 C3 1_555 1_555
C4 C3 1_555 1_555
H3 C4 1_555 1_555
O4 C4 1_555 1_555
C5 O2 1_555 1_555
H4 C5 1_555 1_555
O5 C6 1_555 1_555
C6 O4 1_555 1_555
H5 C6 1_555 1_555
H6 C6 1_555 1_555
C7 C5 1_555 1_555
H7 C7 1_555 1_555
Cl1 C7 1_555 1_555
C8 C1 1_555 1_555
H8 C8 1_555 1_555
H9 C8 1_555 1_555
H10 C8 1_555 1_555
C9 C1 1_555 1_555
H11 C9 1_555 1_555
H12 C9 1_555 1_555
H13 C9 1_555 1_555
C4 C5 1_555 1_555
O5 C7 1_555 1_555

#END
