
#######################################################################
#
#                 Cambridge Crystallographic Data Centre
#                                CCDC 
#
#######################################################################
#
# If this CIF has been generated from an entry in the Cambridge 
# Structural Database, then it will include bibliographic, chemical, 
# crystal, experimental, refinement or atomic coordinate data resulting 
# from the CCDC's data processing and validation procedures.
#
#######################################################################

data_UDIJIC
_chemical_formula_moiety         'C16 H12 F24 K4 O4'
_chemical_name_systematic        
tetrakis(\m~3~-1,1,1,3,3,3-Hexafluoro-2-methylpropan-2-olato)-tetra-potassium
_symmetry_cell_setting           rhombohedral
_symmetry_space_group_name_H-M   'R 3 c'
_symmetry_Int_Tables_number      161
_space_group_name_Hall           'R 3 -2"c'
loop_
_symmetry_equiv_pos_site_id
_symmetry_equiv_pos_as_xyz
1 x,y,z
2 -y,x-y,z
3 -x+y,-x,z
4 -x+y,y,1/2+z
5 x,x-y,1/2+z
6 -y,-x,1/2+z
7 2/3+x,1/3+y,1/3+z
8 2/3-y,1/3+x-y,1/3+z
9 2/3-x+y,1/3-x,1/3+z
10 2/3-x+y,1/3+y,5/6+z
11 2/3+x,1/3+x-y,5/6+z
12 2/3-y,1/3-x,5/6+z
13 1/3+x,2/3+y,2/3+z
14 1/3-y,2/3+x-y,2/3+z
15 1/3-x+y,2/3-x,2/3+z
16 1/3-x+y,2/3+y,1/6+z
17 1/3+x,2/3+x-y,1/6+z
18 1/3-y,2/3-x,1/6+z
_cell_length_a                   34.949(3)
_cell_length_b                   34.949(3)
_cell_length_c                   13.488(2)
_cell_angle_alpha                90
_cell_angle_beta                 90
_cell_angle_gamma                120
_cell_volume                     14267.5
_exptl_crystal_colour            colorless
_exptl_crystal_description       block
_cell_formula_units_Z            18
loop_
_atom_site_label
_atom_site_type_symbol
_atom_site_fract_x
_atom_site_fract_y
_atom_site_fract_z
K1 K 0.082688(16) 0.417007(17) 0.41711(4)
K2 K 0.145524(17) 0.521395(17) 0.57773(4)
K3 K 0.180537(17) 0.435676(17) 0.59590(4)
K4 K 0.200691(17) 0.499684(17) 0.34687(4)
F1 F 0.03983(5) 0.35095(5) 0.55875(10)
F2 F 0.07980(6) 0.34982(6) 0.67708(12)
F3 F 0.01383(6) 0.33595(5) 0.70663(13)
F4 F -0.00219(5) 0.40460(6) 0.70323(13)
F5 F 0.05128(6) 0.46860(5) 0.66160(13)
F6 F 0.02157(5) 0.41697(6) 0.55277(11)
F7 F 0.19276(5) 0.57948(5) 0.30744(14)
F8 F 0.15840(7) 0.58904(5) 0.42767(12)
F9 F 0.14718(5) 0.60270(5) 0.27849(11)
F10 F 0.14749(6) 0.50817(6) 0.19066(11)
F11 F 0.10370(6) 0.53263(5) 0.15287(11)
F12 F 0.07799(6) 0.46747(5) 0.21527(13)
F13 F 0.28049(6) 0.49490(6) 0.57928(16)
F14 F 0.29006(6) 0.52611(7) 0.43768(13)
F15 F 0.33433(5) 0.56112(6) 0.55786(13)
F16 F 0.30116(7) 0.58102(9) 0.71616(16)
F17 F 0.24330(7) 0.51664(9) 0.72405(13)
F18 F 0.23638(7) 0.57398(8) 0.70186(19)
F19 F 0.10215(6) 0.37325(7) 0.25007(13)
F20 F 0.16789(7) 0.42183(6) 0.20504(12)
F21 F 0.14658(8) 0.35286(7) 0.19238(13)
F22 F 0.23538(6) 0.43477(6) 0.31716(15)
F23 F 0.22234(7) 0.39602(8) 0.45032(15)
F24 F 0.21541(8) 0.36619(8) 0.30679(17)
O1 O 0.10534(5) 0.43533(5) 0.61271(12)
O2 O 0.12649(5) 0.50121(5) 0.38852(12)
O3 O 0.21836(5) 0.52012(5) 0.53595(12)
O4 O 0.15709(6) 0.41627(6) 0.40859(12)
C1 C 0.07016(8) 0.41241(8) 0.67310(16)
C2 C 0.05071(9) 0.36246(8) 0.65407(18)
C3 C 0.03453(9) 0.42490(9) 0.64850(19)
C4 C 0.08060(10) 0.42080(9) 0.78476(18)
H1 H 0.1019 0.4116 0.8033
H2 H 0.0534 0.4038 0.8230
H3 H 0.0932 0.4524 0.7988
C5 C 0.11591(8) 0.52593(8) 0.32905(17)
C6 C 0.11162(9) 0.50906(8) 0.22186(19)
C7 C 0.15354(9) 0.57432(9) 0.33442(18)
C8 C 0.07265(9) 0.52420(11) 0.3568(2)
H4 H 0.0484 0.4935 0.3552
H5 H 0.0666 0.5418 0.3094
H6 H 0.0752 0.5362 0.4237
C9 C 0.25988(8) 0.55029(8) 0.56235(18)
C10 C 0.29168(8) 0.53374(9) 0.5355(2)
C11 C 0.26068(10) 0.55602(12) 0.6767(3)
C12 C 0.27746(10) 0.59546(10) 0.5125(3)
H7 H 0.2822 0.5929 0.4417
H8 H 0.3055 0.6169 0.5433
H9 H 0.2559 0.6054 0.5205
C13 C 0.15964(9) 0.38395(8) 0.35919(18)
C14 C 0.14441(10) 0.38244(9) 0.25117(19)
C15 C 0.20772(10) 0.39445(10) 0.3576(2)
C16 C 0.13155(12) 0.33760(9) 0.4044(2)
H10 H 0.1411 0.3376 0.4727
H11 H 0.1353 0.3161 0.3651
H12 H 0.1004 0.3296 0.4042
loop_
_geom_bond_atom_site_label_1
_geom_bond_atom_site_label_2
_geom_bond_site_symmetry_1
_geom_bond_site_symmetry_2
K1 O1 1_555 1_555
K2 O1 1_555 1_555
K3 O1 1_555 1_555
K4 O2 1_555 1_555
F1 C2 1_555 1_555
F2 C2 1_555 1_555
F3 C2 1_555 1_555
F4 C3 1_555 1_555
F5 C3 1_555 1_555
F6 C3 1_555 1_555
F7 C7 1_555 1_555
F8 C7 1_555 1_555
F9 C7 1_555 1_555
F10 C6 1_555 1_555
F11 C6 1_555 1_555
F12 C6 1_555 1_555
F13 C10 1_555 1_555
F14 C10 1_555 1_555
F15 C10 1_555 1_555
F16 C11 1_555 1_555
F17 C11 1_555 1_555
F18 C11 1_555 1_555
F19 C14 1_555 1_555
F20 C14 1_555 1_555
F21 C14 1_555 1_555
F22 C15 1_555 1_555
F23 C15 1_555 1_555
F24 C15 1_555 1_555
O1 C1 1_555 1_555
O2 K1 1_555 1_555
O3 K2 1_555 1_555
O4 K1 1_555 1_555
C1 C2 1_555 1_555
C3 C1 1_555 1_555
C4 C1 1_555 1_555
H1 C4 1_555 1_555
H2 C4 1_555 1_555
H3 C4 1_555 1_555
C5 O2 1_555 1_555
C6 C5 1_555 1_555
C7 C5 1_555 1_555
C8 C5 1_555 1_555
H4 C8 1_555 1_555
H5 C8 1_555 1_555
H6 C8 1_555 1_555
C9 O3 1_555 1_555
C10 C9 1_555 1_555
C11 C9 1_555 1_555
C12 C9 1_555 1_555
H7 C12 1_555 1_555
H8 C12 1_555 1_555
H9 C12 1_555 1_555
C13 O4 1_555 1_555
C14 C13 1_555 1_555
C15 C13 1_555 1_555
C16 C13 1_555 1_555
H10 C16 1_555 1_555
H11 C16 1_555 1_555
H12 C16 1_555 1_555
K2 O2 1_555 1_555
K3 O3 1_555 1_555
K3 O4 1_555 1_555
K4 O3 1_555 1_555
K4 O4 1_555 1_555

#END
