
#######################################################################
#
#                 Cambridge Crystallographic Data Centre
#                                CCDC 
#
#######################################################################
#
# If this CIF has been generated from an entry in the Cambridge 
# Structural Database, then it will include bibliographic, chemical, 
# crystal, experimental, refinement or atomic coordinate data resulting 
# from the CCDC's data processing and validation procedures.
#
#######################################################################

data_UDIJOI
_chemical_formula_moiety         'C36 H20 F24 K4 O4'
_chemical_name_systematic        
tetrakis(\m~3~-1,1,1,3,3,3-Hexafluoro-2-phenylpropan-2-olato)-tetra-potassium
_symmetry_cell_setting           triclinic
_symmetry_space_group_name_H-M   'P -1'
_symmetry_Int_Tables_number      2
_space_group_name_Hall           '-P 1'
loop_
_symmetry_equiv_pos_site_id
_symmetry_equiv_pos_as_xyz
1 x,y,z
2 -x,-y,-z
_cell_length_a                   11.3964(12)
_cell_length_b                   13.5697(15)
_cell_length_c                   14.8436(16)
_cell_angle_alpha                108.9820(10)
_cell_angle_beta                 100.6940(10)
_cell_angle_gamma                90.602(2)
_cell_volume                     2126.76
_exptl_crystal_colour            colorless
_exptl_crystal_description       Plate
_cell_formula_units_Z            2
loop_
_atom_site_label
_atom_site_type_symbol
_atom_site_fract_x
_atom_site_fract_y
_atom_site_fract_z
C1 C 0.7847(2) 0.63648(18) 0.08219(17)
C2 C 0.9088(2) 0.68854(19) 0.08894(17)
C3 C 0.8018(2) 0.54517(19) 0.12270(17)
C4 C 0.7221(2) 0.59130(18) -0.02672(17)
C5 C 0.6066(2) 0.61815(18) -0.05263(17)
H1 H 0.5680 0.6595 -0.0033
C6 C 0.5460(2) 0.58621(19) -0.14860(17)
H2 H 0.4671 0.6057 -0.1645
C7 C 0.6013(2) 0.52567(19) -0.22119(17)
H3 H 0.5613 0.5047 -0.2874
C8 C 0.7153(2) 0.4960(2) -0.19625(18)
H4 H 0.7526 0.4531 -0.2457
C9 C 0.7756(2) 0.52792(19) -0.10049(17)
H5 H 0.8537 0.5067 -0.0847
C10 C 0.3551(2) 0.86822(18) 0.12124(16)
C11 C 0.3302(2) 0.7864(2) 0.01820(17)
C12 C 0.2722(2) 0.83950(19) 0.18221(17)
C13 C 0.3239(2) 0.97715(18) 0.11614(16)
C14 C 0.4139(2) 1.05779(19) 0.15443(17)
H6 H 0.4931 1.0430 0.1771
C15 C 0.3905(2) 1.1592(2) 0.16014(18)
H7 H 0.4535 1.2131 0.1863
C16 C 0.2763(2) 1.1822(2) 0.12803(18)
H8 H 0.2596 1.2522 0.1340
C17 C 0.1857(2) 1.1023(2) 0.08685(18)
H9 H 0.1071 1.1175 0.0630
C18 C 0.2092(2) 1.0005(2) 0.08030(18)
H10 H 0.1468 0.9462 0.0512
C19 C 0.6132(2) 0.76777(18) 0.45023(16)
C20 C 0.6933(2) 0.8519(2) 0.53739(17)
C21 C 0.4814(2) 0.77747(19) 0.46128(17)
C22 C 0.6492(2) 0.65829(19) 0.45147(17)
C23 C 0.6941(2) 0.59525(19) 0.37361(18)
H11 H 0.7038 0.6210 0.3229
C24 C 0.7254(2) 0.4951(2) 0.36820(19)
H12 H 0.7558 0.4530 0.3140
C25 C 0.7125(3) 0.4569(2) 0.4413(2)
H13 H 0.7327 0.3881 0.4373
C26 C 0.6699(3) 0.5193(2) 0.5206(2)
H14 H 0.6625 0.4937 0.5719
C27 C 0.6377(3) 0.6193(2) 0.5258(2)
H15 H 0.6078 0.6613 0.5803
C28 C 0.8341(2) 1.08068(19) 0.30695(17)
C29 C 0.9469(2) 1.0422(2) 0.26595(17)
C30 C 0.7673(2) 1.14717(19) 0.25024(17)
C31 C 0.8740(2) 1.15300(19) 0.41471(17)
C32 C 0.8377(2) 1.1217(2) 0.48602(17)
H16 H 0.7961 1.0551 0.4685
C33 C 0.8611(2) 1.1859(2) 0.58234(18)
H17 H 0.8345 1.1638 0.6302
C34 C 0.9232(2) 1.2824(2) 0.60865(19)
H18 H 0.9372 1.3276 0.6743
C35 C 0.9650(2) 1.3131(2) 0.53947(19)
H19 H 1.0102 1.3782 0.5581
C36 C 0.9410(2) 1.2490(2) 0.44286(18)
H20 H 0.9702 1.2704 0.3956
F1 F 0.98830(12) 0.62416(11) 0.05050(10)
F2 F 0.89653(12) 0.76092(11) 0.04487(10)
F3 F 0.96256(12) 0.73988(11) 0.18231(9)
F4 F 0.85805(12) 0.46570(11) 0.07305(10)
F5 F 0.86434(12) 0.57715(11) 0.21549(9)
F6 F 0.69456(12) 0.50554(11) 0.12559(10)
F7 F 0.35331(12) 0.68985(11) 0.02076(10)
F8 F 0.40467(13) 0.80907(11) -0.03414(10)
F9 F 0.21905(12) 0.77827(12) -0.03309(10)
F10 F 0.29494(12) 0.74794(11) 0.19670(10)
F11 F 0.29243(13) 0.91189(11) 0.27166(10)
F12 F 0.15492(12) 0.83313(12) 0.14683(11)
F13 F 0.80725(12) 0.84921(12) 0.52648(10)
F14 F 0.66200(13) 0.94939(11) 0.54180(10)
F15 F 0.69212(14) 0.84552(12) 0.62488(10)
F16 F 0.44046(12) 0.86839(11) 0.45275(10)
F17 F 0.45818(14) 0.77636(12) 0.54655(11)
F18 F 0.41020(12) 0.70093(11) 0.39101(11)
F19 F 0.91821(13) 0.98071(12) 0.17187(10)
F20 F 1.00410(12) 0.98303(11) 0.31472(11)
F21 F 1.02738(12) 1.11673(12) 0.27024(10)
F22 F 0.72138(13) 1.08914(11) 0.15656(10)
F23 F 0.67326(13) 1.18626(12) 0.28893(10)
F24 F 0.83155(13) 1.22839(11) 0.24589(11)
K1 K 0.51903(4) 0.67591(4) 0.18846(4)
K2 K 0.83481(5) 0.82161(4) 0.32566(4)
K3 K 0.66952(5) 0.88075(4) 0.09767(4)
K4 K 0.55455(5) 0.97350(4) 0.34734(4)
O1 O 0.72378(13) 0.70835(12) 0.13853(11)
O2 O 0.47015(13) 0.86299(12) 0.16338(11)
O3 O 0.62393(14) 0.78800(12) 0.36846(11)
O4 O 0.76071(14) 0.99583(12) 0.29390(11)
loop_
_geom_bond_atom_site_label_1
_geom_bond_atom_site_label_2
_geom_bond_site_symmetry_1
_geom_bond_site_symmetry_2
C1 C2 1_555 1_555
C2 F1 1_555 1_555
C3 C1 1_555 1_555
C4 C1 1_555 1_555
C5 C4 1_555 1_555
H1 C5 1_555 1_555
C6 C5 1_555 1_555
H2 C6 1_555 1_555
C7 C6 1_555 1_555
H3 C7 1_555 1_555
C8 C7 1_555 1_555
H4 C8 1_555 1_555
C9 C4 1_555 1_555
H5 C9 1_555 1_555
C10 C11 1_555 1_555
C11 F7 1_555 1_555
C12 C10 1_555 1_555
C13 C10 1_555 1_555
C14 C13 1_555 1_555
H6 C14 1_555 1_555
C15 C14 1_555 1_555
H7 C15 1_555 1_555
C16 C15 1_555 1_555
H8 C16 1_555 1_555
C17 C16 1_555 1_555
H9 C17 1_555 1_555
C18 C13 1_555 1_555
H10 C18 1_555 1_555
C19 C20 1_555 1_555
C20 F13 1_555 1_555
C21 C19 1_555 1_555
C22 C19 1_555 1_555
C23 C22 1_555 1_555
H11 C23 1_555 1_555
C24 C23 1_555 1_555
H12 C24 1_555 1_555
C25 C24 1_555 1_555
H13 C25 1_555 1_555
C26 C25 1_555 1_555
H14 C26 1_555 1_555
C27 C22 1_555 1_555
H15 C27 1_555 1_555
C28 C29 1_555 1_555
C29 F19 1_555 1_555
C30 C28 1_555 1_555
C31 C28 1_555 1_555
C32 C31 1_555 1_555
H16 C32 1_555 1_555
C33 C32 1_555 1_555
H17 C33 1_555 1_555
C34 C33 1_555 1_555
H18 C34 1_555 1_555
C35 C34 1_555 1_555
H19 C35 1_555 1_555
C36 C31 1_555 1_555
H20 C36 1_555 1_555
F2 C2 1_555 1_555
F3 C2 1_555 1_555
F4 C3 1_555 1_555
F5 C3 1_555 1_555
F6 C3 1_555 1_555
F8 C11 1_555 1_555
F9 C11 1_555 1_555
F10 C12 1_555 1_555
F11 C12 1_555 1_555
F12 C12 1_555 1_555
F14 C20 1_555 1_555
F15 C20 1_555 1_555
F16 C21 1_555 1_555
F17 C21 1_555 1_555
F18 C21 1_555 1_555
F20 C29 1_555 1_555
F21 C29 1_555 1_555
F22 C30 1_555 1_555
F23 C30 1_555 1_555
F24 C30 1_555 1_555
K1 O1 1_555 1_555
K2 O1 1_555 1_555
K3 O1 1_555 1_555
K4 O2 1_555 1_555
O1 C1 1_555 1_555
O2 C10 1_555 1_555
O3 C19 1_555 1_555
O4 C28 1_555 1_555
C8 C9 1_555 1_555
C17 C18 1_555 1_555
C26 C27 1_555 1_555
C35 C36 1_555 1_555
K1 O2 1_555 1_555
K1 O3 1_555 1_555
K2 O3 1_555 1_555
K2 O4 1_555 1_555
K3 O2 1_555 1_555
K3 O4 1_555 1_555
K4 O3 1_555 1_555
K4 O4 1_555 1_555

#END
