
#######################################################################
#
#                 Cambridge Crystallographic Data Centre
#                                CCDC 
#
#######################################################################
#
# If this CIF has been generated from an entry in the Cambridge 
# Structural Database, then it will include bibliographic, chemical, 
# crystal, experimental, refinement or atomic coordinate data resulting 
# from the CCDC's data processing and validation procedures.
#
#######################################################################

data_UDIKOK
_chemical_formula_moiety         'C15 H15 Cl1 F2 N2 O2,H2 O1'
_chemical_name_systematic        
"5-chloro-4',4'-difluoro-1'-isopropyl-1-methyl-5'H-spiro[indole-3,3'-pyrrolidine]-2,5'(1H)-dione monohydrate"
_symmetry_cell_setting           monoclinic
_symmetry_space_group_name_H-M   'P 21/c'
_symmetry_Int_Tables_number      14
_space_group_name_Hall           '-P 2ybc'
loop_
_symmetry_equiv_pos_site_id
_symmetry_equiv_pos_as_xyz
1 x,y,z
2 -x,1/2+y,1/2-z
3 -x,-y,-z
4 x,1/2-y,1/2+z
_cell_length_a                   11.4894(13)
_cell_length_b                   11.6108(12)
_cell_length_c                   11.6513(12)
_cell_angle_alpha                90
_cell_angle_beta                 91.178(2)
_cell_angle_gamma                90
_cell_volume                     1553.97
_exptl_crystal_colour            colorless
_exptl_crystal_description       Prism
_chemical_melting_point          '175-176 deg.C'
_cell_formula_units_Z            4
loop_
_atom_site_label
_atom_site_type_symbol
_atom_site_fract_x
_atom_site_fract_y
_atom_site_fract_z
Cl1 Cl 1.10196(2) 0.14703(2) 1.09940(2)
F1 F 0.78236(6) 0.05292(5) 0.78383(6)
F2 F 0.78903(6) 0.15991(6) 0.63103(5)
O1 O 0.66631(7) 0.39163(7) 0.67198(7)
O2 O 0.55670(6) 0.08154(7) 0.64062(7)
N1 N 0.84494(7) 0.42571(8) 0.75966(7)
N2 N 0.55815(7) 0.18111(8) 0.81277(7)
C1 C 0.86653(10) 0.53983(9) 0.71413(10)
H1 H 0.8133 0.5545 0.6489
H2 H 0.9471 0.5447 0.6887
H3 H 0.8537 0.5974 0.7740
C2 C 0.91661(9) 0.37073(9) 0.84195(9)
C3 C 1.02243(9) 0.40775(9) 0.88703(9)
H4 H 1.0553 0.4790 0.8642
C4 C 1.07935(9) 0.33707(10) 0.96719(9)
H5 H 1.1525 0.3596 0.9995
C5 C 1.02882(8) 0.23392(9) 0.99958(8)
C6 C 0.92136(8) 0.19657(9) 0.95501(8)
H6 H 0.8877 0.1260 0.9787
C7 C 0.86623(8) 0.26665(9) 0.87509(8)
C8 C 0.75153(8) 0.25414(8) 0.81203(8)
C9 C 0.74536(9) 0.36503(9) 0.73802(9)
C10 C 0.73658(9) 0.15005(9) 0.73347(9)
C11 C 0.60448(9) 0.13319(9) 0.72069(9)
C12 C 0.64195(8) 0.24354(9) 0.88675(8)
H7 H 0.6595 0.1998 0.9580
H8 H 0.6117 0.3205 0.9074
C13 C 0.43253(9) 0.17823(10) 0.83665(9)
H9 H 0.3976 0.1103 0.7960
C14 C 0.37421(10) 0.28650(12) 0.78996(11)
H10 H 0.4090 0.3543 0.8271
H11 H 0.2908 0.2839 0.8058
H12 H 0.3852 0.2911 0.7069
C15 C 0.41444(10) 0.16326(11) 0.96459(10)
H13 H 0.4560 0.0944 0.9916
H14 H 0.3311 0.1547 0.9790
H15 H 0.4445 0.2310 1.0057
O3 O 0.32723(7) 0.02702(8) 0.55505(7)
H16 H 0.3467(12) -0.0028(13) 0.4886(9)
H17 H 0.3915(10) 0.0510(13) 0.5901(11)
loop_
_geom_bond_atom_site_label_1
_geom_bond_atom_site_label_2
_geom_bond_site_symmetry_1
_geom_bond_site_symmetry_2
Cl1 C5 1_555 1_555
F1 C10 1_555 1_555
F2 C10 1_555 1_555
O1 C9 1_555 1_555
O2 C11 1_555 1_555
N1 C1 1_555 1_555
N2 C11 1_555 1_555
C1 H1 1_555 1_555
H2 C1 1_555 1_555
H3 C1 1_555 1_555
C2 N1 1_555 1_555
C3 C2 1_555 1_555
H4 C3 1_555 1_555
C4 C3 1_555 1_555
H5 C4 1_555 1_555
C5 C4 1_555 1_555
C6 C5 1_555 1_555
H6 C6 1_555 1_555
C7 C2 1_555 1_555
C8 C7 1_555 1_555
C9 N1 1_555 1_555
C10 C8 1_555 1_555
C11 C10 1_555 1_555
C12 N2 1_555 1_555
H7 C12 1_555 1_555
H8 C12 1_555 1_555
C13 N2 1_555 1_555
H9 C13 1_555 1_555
C14 C13 1_555 1_555
H10 C14 1_555 1_555
H11 C14 1_555 1_555
H12 C14 1_555 1_555
C15 C13 1_555 1_555
H13 C15 1_555 1_555
H14 C15 1_555 1_555
H15 C15 1_555 1_555
O3 H16 1_555 1_555
H17 O3 1_555 1_555
C6 C7 1_555 1_555
C8 C9 1_555 1_555
C8 C12 1_555 1_555

#END
