
#######################################################################
#
#                 Cambridge Crystallographic Data Centre
#                                CCDC 
#
#######################################################################
#
# If this CIF has been generated from an entry in the Cambridge 
# Structural Database, then it will include bibliographic, chemical, 
# crystal, experimental, refinement or atomic coordinate data resulting 
# from the CCDC's data processing and validation procedures.
#
#######################################################################

data_UDIPEC
_chemical_formula_moiety         'C12 H12 S14'
_chemical_name_systematic        
4,8-bis(4,5-Dimethylthio-1,3-dithiol-2-ylidene)-1,2,3,5,6,7-hexathiocane
_symmetry_cell_setting           triclinic
_symmetry_space_group_name_H-M   'P -1'
_symmetry_Int_Tables_number      2
_space_group_name_Hall           '-P 1'
loop_
_symmetry_equiv_pos_site_id
_symmetry_equiv_pos_as_xyz
1 x,y,z
2 -x,-y,-z
_cell_length_a                   10.645(1)
_cell_length_b                   11.486(1)
_cell_length_c                   10.274(1)
_cell_angle_alpha                99.654(8)
_cell_angle_beta                 106.457(8)
_cell_angle_gamma                90.088(10)
_cell_volume                     1186.06
_exptl_crystal_colour            red
_exptl_crystal_description       prismatic
_chemical_melting_point          '108-110 deg.C'
_cell_formula_units_Z            2
loop_
_atom_site_label
_atom_site_type_symbol
_atom_site_fract_x
_atom_site_fract_y
_atom_site_fract_z
S1 S -0.0030(1) 0.15902(10) 0.0866(1)
S2 S 0.0673(1) 0.09813(10) 0.2703(1)
S3 S 0.2321(1) 0.00632(9) 0.2627(1)
S4 S 0.4474(1) 0.1723(1) 0.2472(1)
S5 S 0.3721(1) 0.3371(1) 0.2307(1)
S6 S 0.2136(1) 0.3147(1) 0.0553(1)
S7 S 0.33125(9) 0.07328(9) 0.58781(9)
S8 S 0.54231(10) 0.22933(10) 0.5752(1)
S9 S 0.4302(1) 0.1056(1) 0.9008(1)
S10 S 0.66953(10) 0.27080(10) 0.8819(1)
S11 S -0.1071(1) 0.3893(1) 0.2357(1)
S12 S 0.0919(1) 0.53839(10) 0.1888(1)
S13 S -0.2451(2) 0.5993(2) 0.3401(3)
S14 S -0.0161(2) 0.7660(1) 0.2872(2)
C1 C 0.3646(4) 0.1081(3) 0.3439(4)
C2 C 0.4086(3) 0.1344(3) 0.4850(4)
C3 C 0.4452(4) 0.1335(3) 0.7453(3)
C4 C 0.5434(3) 0.2041(3) 0.7393(4)
C5 C 0.2856(4) 0.0107(4) 0.8550(5)
C6 C 0.5895(5) 0.3948(4) 0.9456(5)
C7 C 0.0752(4) 0.2987(4) 0.1122(4)
C8 C 0.0259(4) 0.3957(4) 0.1712(4)
C9 C -0.0237(5) 0.6107(4) 0.2609(5)
C10 C -0.1149(5) 0.5437(4) 0.2819(5)
C11 C -0.2800(9) 0.4917(9) 0.4305(10)
C12 C 0.0898(6) 0.8022(5) 0.4557(6)
loop_
_geom_bond_atom_site_label_1
_geom_bond_atom_site_label_2
_geom_bond_site_symmetry_1
_geom_bond_site_symmetry_2
S1 S2 1_555 1_555
S2 S3 1_555 1_555
S3 C1 1_555 1_555
S4 S5 1_555 1_555
S5 S6 1_555 1_555
S6 C7 1_555 1_555
S7 C2 1_555 1_555
S8 C2 1_555 1_555
S9 C3 1_555 1_555
S10 C4 1_555 1_555
S11 C8 1_555 1_555
S12 C8 1_555 1_555
S13 C10 1_555 1_555
S14 C9 1_555 1_555
C1 S4 1_555 1_555
C2 C1 1_555 1_555
C3 S7 1_555 1_555
C4 S8 1_555 1_555
C5 S9 1_555 1_555
C6 S10 1_555 1_555
C7 S1 1_555 1_555
C8 C7 1_555 1_555
C9 S12 1_555 1_555
C10 S11 1_555 1_555
C11 S13 1_555 1_555
C12 S14 1_555 1_555
C3 C4 1_555 1_555
C9 C10 1_555 1_555

#END
