
#######################################################################
#
#                 Cambridge Crystallographic Data Centre
#                                CCDC 
#
#######################################################################
#
# If this CIF has been generated from an entry in the Cambridge 
# Structural Database, then it will include bibliographic, chemical, 
# crystal, experimental, refinement or atomic coordinate data resulting 
# from the CCDC's data processing and validation procedures.
#
#######################################################################

data_UDIQIK
_chemical_formula_moiety         'C28 H18 N2 O4'
_chemical_name_systematic        
2,7-dibenzylbenzo[lmn][3,8]phenanthroline-1,3,6,8(2H,7H)-tetrone
_symmetry_cell_setting           triclinic
_symmetry_space_group_name_H-M   'P -1'
_symmetry_Int_Tables_number      2
_space_group_name_Hall           '-P 1'
loop_
_symmetry_equiv_pos_site_id
_symmetry_equiv_pos_as_xyz
1 x,y,z
2 -x,-y,-z
_cell_length_a                   8.3500(3)
_cell_length_b                   8.6060(4)
_cell_length_c                   15.3260(7)
_cell_angle_alpha                98.5520(12)
_cell_angle_beta                 102.7330(10)
_cell_angle_gamma                92.1280(11)
_cell_volume                     1059.51
_exptl_crystal_colour            brown
_exptl_crystal_description       Plate
_cell_formula_units_Z            2
loop_
_atom_site_label
_atom_site_type_symbol
_atom_site_fract_x
_atom_site_fract_y
_atom_site_fract_z
N1 N 0.21099(14) 0.94564(17) 0.29030(9)
O1 O 0.27065(16) 0.68939(15) 0.26383(9)
O2 O 0.14593(15) 1.19884(16) 0.32007(9)
C1 C 0.5090(2) 0.71762(19) 0.42955(11)
C2 C 0.41848(17) 0.83995(17) 0.40182(10)
C3 C 0.44220(16) 0.98882(16) 0.45779(9)
C4 C 0.35144(16) 1.11596(17) 0.43165(10)
C5 C 0.3761(2) 1.25978(19) 0.48718(11)
C6 C 0.29717(19) 0.8164(2) 0.31385(11)
C7 C 0.22865(18) 1.0930(2) 0.34420(11)
C8 C 0.0891(2) 0.9218(3) 0.20150(12)
C9 C 0.16432(18) 0.9585(2) 0.12539(11)
C10 C 0.2159(3) 0.8399(3) 0.06915(15)
C11 C 0.2799(3) 0.8738(5) -0.00221(17)
C12 C 0.2939(3) 1.0260(5) -0.01775(16)
C13 C 0.2473(3) 1.1440(4) 0.03861(17)
C14 C 0.1807(3) 1.1099(3) 0.10927(14)
H1 H 0.491(2) 0.616(2) 0.3884(12)
H2 H 0.314(2) 1.345(2) 0.4691(11)
H3 H 0.009(3) 1.001(3) 0.2130(14)
H4 H 0.047(3) 0.807(3) 0.1893(14)
H5 H 0.203(3) 0.738(3) 0.0837(16)
H6 H 0.317(3) 0.792(3) -0.041(2)
H7 H 0.338(3) 1.051(3) -0.0675(17)
H8 H 0.252(4) 1.259(4) 0.030(2)
H9 H 0.145(3) 1.193(3) 0.1459(16)
N1A N 0.78901(14) 1.05436(17) 0.70970(9)
O1A O 0.72935(16) 1.31061(15) 0.73617(9)
O2A O 0.85407(15) 0.80116(16) 0.67993(9)
C1A C 0.4910(2) 1.28238(19) 0.57045(11)
C2A C 0.58152(17) 1.16005(17) 0.59818(10)
C3A C 0.55780(16) 1.01118(16) 0.54221(9)
C4A C 0.64856(16) 0.88404(17) 0.56835(10)
C5A C 0.6239(2) 0.74022(19) 0.51282(11)
C6A C 0.70283(19) 1.1836(2) 0.68615(11)
C7A C 0.77135(18) 0.9070(2) 0.65580(11)
C8A C 0.9109(2) 1.0782(3) 0.79850(12)
C9A C 0.83568(18) 1.0415(2) 0.87461(11)
C10A C 0.7841(3) 1.1601(3) 0.93085(15)
C11A C 0.7201(3) 1.1262(5) 1.00221(17)
C12A C 0.7061(3) 0.9740(5) 1.01775(16)
C13A C 0.7527(3) 0.8560(4) 0.96139(17)
C14A C 0.8193(3) 0.8901(3) 0.89073(14)
H1A H 0.509(2) 1.384(2) 0.6116(12)
H2A H 0.686(2) 0.655(2) 0.5309(11)
H3A H 0.991(3) 0.999(3) 0.7870(14)
H4A H 0.953(3) 1.193(3) 0.8107(14)
H5A H 0.797(3) 1.262(3) 0.9163(16)
H6A H 0.683(3) 1.208(3) 1.041(2)
H7A H 0.662(3) 0.949(3) 1.0675(17)
H8A H 0.748(4) 0.741(4) 0.970(2)
H9A H 0.855(3) 0.807(3) 0.8541(16)
N2 N 0.71129(14) 1.18484(14) 0.35161(8)
O3 O 0.65686(16) 0.95684(14) 0.25127(8)
O4 O 0.76724(15) 1.41317(13) 0.45153(8)
C15 C 0.87895(19) 0.79273(17) 0.36477(10)
C16 C 0.85448(16) 0.94924(16) 0.38705(9)
C17 C 0.94233(15) 1.03753(14) 0.47003(9)
C18 C 0.91814(16) 1.19792(15) 0.49487(9)
C19 C 1.00620(19) 1.28117(18) 0.57608(10)
C20 C 0.73387(18) 1.02657(17) 0.32368(10)
C21 C 0.79586(18) 1.27607(17) 0.43315(10)
C22 C 0.5885(2) 1.2626(2) 0.29038(13)
C23 C 0.66117(18) 1.36790(16) 0.23644(10)
C24 C 0.5585(2) 1.4640(2) 0.18832(12)
C25 C 0.6173(3) 1.5579(2) 0.13511(13)
C26 C 0.7789(3) 1.5582(2) 0.12978(13)
C27 C 0.8833(3) 1.4665(2) 0.17844(13)
C28 C 0.8248(2) 1.37124(19) 0.23151(11)
H10 H 0.819(2) 0.7325(19) 0.3076(12)
H11 H 0.985(2) 1.393(2) 0.5902(11)
H12 H 0.525(2) 1.321(2) 0.3277(12)
H13 H 0.514(3) 1.172(2) 0.2441(14)
H14 H 0.445(3) 1.465(2) 0.1940(13)
H15 H 0.546(3) 1.624(3) 0.1037(16)
H16 H 0.817(3) 1.627(3) 0.0928(15)
H17 H 1.002(3) 1.466(2) 0.1749(14)
H18 H 0.902(2) 1.3062(19) 0.2656(11)
N2A N 1.28871(14) 0.81516(14) 0.64839(8)
O3A O 1.34314(16) 1.04316(14) 0.74873(8)
O4A O 1.23276(15) 0.58683(13) 0.54847(8)
C15A C 1.12105(19) 1.20727(17) 0.63523(10)
C16A C 1.14552(16) 1.05076(16) 0.61295(9)
C17A C 1.05767(15) 0.96247(14) 0.52997(9)
C18A C 1.08186(16) 0.80208(15) 0.50513(9)
C19A C 0.99380(19) 0.71883(18) 0.42392(10)
C20A C 1.26613(18) 0.97343(17) 0.67632(10)
C21A C 1.20414(18) 0.72393(17) 0.56685(10)
C22A C 1.4115(2) 0.7374(2) 0.70962(13)
C23A C 1.33883(18) 0.63210(16) 0.76356(10)
C24A C 1.4415(2) 0.5360(2) 0.81168(12)
C25A C 1.3827(3) 0.4421(2) 0.86489(13)
C26A C 1.2211(3) 0.4418(2) 0.87022(13)
C27A C 1.1167(3) 0.5335(2) 0.82156(13)
C28A C 1.1752(2) 0.62876(19) 0.76849(11)
H10A H 1.181(2) 1.2675(19) 0.6924(12)
H11A H 1.015(2) 0.607(2) 0.4098(11)
H12A H 1.475(2) 0.679(2) 0.6723(12)
H13A H 1.486(3) 0.828(2) 0.7559(14)
H14A H 1.555(3) 0.535(2) 0.8060(13)
H15A H 1.454(3) 0.376(3) 0.8963(16)
H16A H 1.183(3) 0.373(3) 0.9072(15)
H17A H 0.998(3) 0.534(2) 0.8251(14)
H18A H 1.098(2) 0.6938(19) 0.7344(11)
loop_
_geom_bond_atom_site_label_1
_geom_bond_atom_site_label_2
_geom_bond_site_symmetry_1
_geom_bond_site_symmetry_2
N1 C6 1_555 1_555
O1 C6 1_555 1_555
O2 C7 1_555 1_555
C1 C2 1_555 1_555
C2 C3 1_555 1_555
C3 C4 1_555 1_555
C4 C5 1_555 1_555
C5 H2 1_555 1_555
C6 C2 1_555 1_555
C7 N1 1_555 1_555
C8 N1 1_555 1_555
C9 C8 1_555 1_555
C10 C9 1_555 1_555
C11 C10 1_555 1_555
C12 C11 1_555 1_555
C13 C12 1_555 1_555
C14 C9 1_555 1_555
H1 C1 1_555 1_555
H3 C8 1_555 1_555
H4 C8 1_555 1_555
H5 C10 1_555 1_555
H6 C11 1_555 1_555
H7 C12 1_555 1_555
H8 C13 1_555 1_555
H9 C14 1_555 1_555
N2 C20 1_555 1_555
O3 C20 1_555 1_555
O4 C21 1_555 1_555
C15 C16 1_555 1_555
C16 C17 1_555 1_555
C17 C18 1_555 1_555
C18 C19 1_555 1_555
C19 H11 1_555 1_555
C20 C16 1_555 1_555
C21 N2 1_555 1_555
C22 N2 1_555 1_555
C23 C22 1_555 1_555
C24 C23 1_555 1_555
C25 C24 1_555 1_555
C26 C25 1_555 1_555
C27 C26 1_555 1_555
C28 C23 1_555 1_555
H10 C15 1_555 1_555
H12 C22 1_555 1_555
H13 C22 1_555 1_555
H14 C24 1_555 1_555
H15 C25 1_555 1_555
H16 C26 1_555 1_555
H17 C27 1_555 1_555
H18 C28 1_555 1_555
N1A C6A 1_555 1_555
O1A C6A 1_555 1_555
O2A C7A 1_555 1_555
C1A C5 1_555 1_555
C2A C1A 1_555 1_555
C3A C3 1_555 1_555
C4A C3A 1_555 1_555
C5A C1 1_555 1_555
C6A C2A 1_555 1_555
C7A N1A 1_555 1_555
C8A N1A 1_555 1_555
C9A C8A 1_555 1_555
C10A C9A 1_555 1_555
C11A C10A 1_555 1_555
C12A C11A 1_555 1_555
C13A C12A 1_555 1_555
C14A C9A 1_555 1_555
H1A C1A 1_555 1_555
H2A C5A 1_555 1_555
H3A C8A 1_555 1_555
H4A C8A 1_555 1_555
H5A C10A 1_555 1_555
H6A C11A 1_555 1_555
H7A C12A 1_555 1_555
H8A C13A 1_555 1_555
H9A C14A 1_555 1_555
N2A C20A 1_555 1_555
O3A C20A 1_555 1_555
O4A C21A 1_555 1_555
C15A C19 1_555 1_555
C16A C15A 1_555 1_555
C17A C17 1_555 1_555
C18A C17A 1_555 1_555
C19A C15 1_555 1_555
C20A C16A 1_555 1_555
C21A N2A 1_555 1_555
C22A N2A 1_555 1_555
C23A C22A 1_555 1_555
C24A C23A 1_555 1_555
C25A C24A 1_555 1_555
C26A C25A 1_555 1_555
C27A C26A 1_555 1_555
C28A C23A 1_555 1_555
H10A C15A 1_555 1_555
H11A C19A 1_555 1_555
H12A C22A 1_555 1_555
H13A C22A 1_555 1_555
H14A C24A 1_555 1_555
H15A C25A 1_555 1_555
H16A C26A 1_555 1_555
H17A C27A 1_555 1_555
H18A C28A 1_555 1_555
C4 C7 1_555 1_555
C13 C14 1_555 1_555
C18 C21 1_555 1_555
C27 C28 1_555 1_555
C2A C3A 1_555 1_555
C4A C5A 1_555 1_555
C4A C7A 1_555 1_555
C13A C14A 1_555 1_555
C16A C17A 1_555 1_555
C18A C19A 1_555 1_555
C18A C21A 1_555 1_555
C27A C28A 1_555 1_555

#END
