
#######################################################################
#
#                 Cambridge Crystallographic Data Centre
#                                CCDC 
#
#######################################################################
#
# If this CIF has been generated from an entry in the Cambridge 
# Structural Database, then it will include bibliographic, chemical, 
# crystal, experimental, refinement or atomic coordinate data resulting 
# from the CCDC's data processing and validation procedures.
#
#######################################################################

data_UDISUY
_chemical_formula_moiety         'C24 H14 N2 O4 S2'
_chemical_name_systematic        
2,7-bis[(thiophen-2-yl)methyl]benzo[lmn][3,8]phenanthroline-1,3,6,8(2H,7H)-tetrone
_symmetry_cell_setting           monoclinic
_symmetry_space_group_name_H-M   'P 21/n'
_symmetry_Int_Tables_number      14
_space_group_name_Hall           '-P 2yn'
loop_
_symmetry_equiv_pos_site_id
_symmetry_equiv_pos_as_xyz
1 x,y,z
2 1/2-x,1/2+y,1/2-z
3 -x,-y,-z
4 1/2+x,1/2-y,1/2+z
_cell_length_a                   8.1040(4)
_cell_length_b                   4.4160(2)
_cell_length_c                   27.7650(13)
_cell_angle_alpha                90
_cell_angle_beta                 95.6420(14)
_cell_angle_gamma                90
_cell_volume                     988.82
_exptl_crystal_colour            'bright yellow'
_exptl_crystal_description       Needle
_cell_formula_units_Z            2
loop_
_atom_site_label
_atom_site_type_symbol
_atom_site_fract_x
_atom_site_fract_y
_atom_site_fract_z
S1 S 0.41465(6) 0.34416(13) 0.84635(2)
O1 O 1.01117(17) 0.2224(4) 0.85360(5)
O2 O 0.62190(17) 0.5892(4) 0.94471(5)
N1 N 0.81781(17) 0.4085(3) 0.89960(5)
C1 C 1.0341(2) 0.0653(4) 0.93529(6)
C2 C 0.8198(2) 0.2569(4) 0.98442(7)
C3 C 0.96318(19) 0.0806(4) 0.97988(6)
C4 C 1.1748(2) -0.1070(5) 0.93190(7)
H1 H 1.2215 -0.1169 0.9027
C5 C 0.9574(2) 0.2330(4) 0.89267(7)
C6 C 0.7436(2) 0.4294(4) 0.94272(7)
C7 C 0.7523(2) 0.2663(5) 1.02811(7)
H2 H 0.6572 0.3800 1.0309
C8 C 0.7390(2) 0.5781(4) 0.85705(7)
H3 H 0.8237 0.6367 0.8365
H4 H 0.6889 0.7615 0.8682
C9 C 0.6234(2) 0.2524(5) 0.78545(7)
H5 H 0.7197 0.2533 0.7698
C10 C 0.6092(2) 0.3947(4) 0.82807(7)
C11 C 0.3542(2) 0.1327(5) 0.79656(8)
H6 H 0.2492 0.0480 0.7903
C12 C 0.4761(3) 0.1022(5) 0.76737(8)
H7 H 0.4647 -0.0057 0.7385
S1B S 1.58535(6) -0.34416(13) 1.15365(2)
O1B O 0.98883(17) -0.2224(4) 1.14640(5)
O2B O 1.37810(17) -0.5892(4) 1.05529(5)
N1B N 1.18219(17) -0.4085(3) 1.10040(5)
C1B C 0.9659(2) -0.0653(4) 1.06471(6)
C2B C 1.1802(2) -0.2569(4) 1.01558(7)
C3B C 1.03682(19) -0.0806(4) 1.02012(6)
C4B C 0.8252(2) 0.1070(5) 1.06810(7)
H1B H 0.7785 0.1169 1.0973
C5B C 1.0426(2) -0.2330(4) 1.10733(7)
C6B C 1.2564(2) -0.4294(4) 1.05728(7)
C7B C 1.2477(2) -0.2663(5) 0.97189(7)
H2B H 1.3428 -0.3800 0.9691
C8B C 1.2610(2) -0.5781(4) 1.14295(7)
H3B H 1.1763 -0.6367 1.1635
H4B H 1.3111 -0.7615 1.1318
C9B C 1.3766(2) -0.2524(5) 1.21455(7)
H5B H 1.2803 -0.2533 1.2302
C10B C 1.3908(2) -0.3947(4) 1.17193(7)
C11B C 1.6458(2) -0.1327(5) 1.20344(8)
H6B H 1.7508 -0.0480 1.2097
C12B C 1.5239(3) -0.1022(5) 1.23263(8)
H7B H 1.5353 0.0057 1.2615
loop_
_geom_bond_atom_site_label_1
_geom_bond_atom_site_label_2
_geom_bond_site_symmetry_1
_geom_bond_site_symmetry_2
S1 C10 1_555 1_555
O1 C5 1_555 1_555
O2 C6 1_555 1_555
N1 C5 1_555 1_555
C1 C3 1_555 1_555
C2 C3 1_555 1_555
C3 C3B 1_555 1_555
C4 C1 1_555 1_555
H1 C4 1_555 1_555
C5 C1 1_555 1_555
C6 N1 1_555 1_555
C7 C2 1_555 1_555
H2 C7 1_555 1_555
C8 N1 1_555 1_555
H3 C8 1_555 1_555
H4 C8 1_555 1_555
C9 H5 1_555 1_555
C10 C8 1_555 1_555
C11 S1 1_555 1_555
H6 C11 1_555 1_555
C12 C9 1_555 1_555
H7 C12 1_555 1_555
S1B C10B 1_555 1_555
O1B C5B 1_555 1_555
O2B C6B 1_555 1_555
N1B C5B 1_555 1_555
C1B C3B 1_555 1_555
C2B C3B 1_555 1_555
C4B C7 1_555 1_555
H1B C4B 1_555 1_555
C5B C1B 1_555 1_555
C6B N1B 1_555 1_555
C7B C4 1_555 1_555
H2B C7B 1_555 1_555
C8B N1B 1_555 1_555
H3B C8B 1_555 1_555
H4B C8B 1_555 1_555
C9B H5B 1_555 1_555
C10B C8B 1_555 1_555
C11B S1B 1_555 1_555
H6B C11B 1_555 1_555
C12B C9B 1_555 1_555
H7B C12B 1_555 1_555
C2 C6 1_555 1_555
C9 C10 1_555 1_555
C11 C12 1_555 1_555
C1B C4B 1_555 1_555
C2B C6B 1_555 1_555
C2B C7B 1_555 1_555
C9B C10B 1_555 1_555
C11B C12B 1_555 1_555

#END
