
#######################################################################
#
#                 Cambridge Crystallographic Data Centre
#                                CCDC 
#
#######################################################################
#
# If this CIF has been generated from an entry in the Cambridge 
# Structural Database, then it will include bibliographic, chemical, 
# crystal, experimental, refinement or atomic coordinate data resulting 
# from the CCDC's data processing and validation procedures.
#
#######################################################################

data_UDIXUD
_chemical_formula_moiety         'C25 H20 Cl1 N1 O4'
_chemical_name_systematic        
4-(benzyloxy)-5-(4-chlorophenyl)-6-nitro-1-phenylhex-1-yn-3-one
_symmetry_cell_setting           monoclinic
_symmetry_space_group_name_H-M   'I 2'
_symmetry_Int_Tables_number      5
_space_group_name_Hall           'I 2y'
loop_
_symmetry_equiv_pos_site_id
_symmetry_equiv_pos_as_xyz
1 x,y,z
2 -x,y,-z
3 1/2+x,1/2+y,1/2+z
4 1/2-x,1/2+y,1/2-z
_cell_length_a                   7.58586(18)
_cell_length_b                   5.73721(11)
_cell_length_c                   50.0752(9)
_cell_angle_alpha                90
_cell_angle_beta                 94.1939(18)
_cell_angle_gamma                90
_cell_volume                     2173.52
_exptl_crystal_colour            colorless
_exptl_crystal_description       plate
_cell_formula_units_Z            4
loop_
_atom_site_label
_atom_site_type_symbol
_atom_site_fract_x
_atom_site_fract_y
_atom_site_fract_z
Cl1 Cl 0.16606(15) 0.3449(3) 0.52730(2)
O1 O 0.3866(3) 0.4320(5) 0.68722(5)
O2 O 0.4622(4) 0.8509(6) 0.66545(6)
O3 O -0.1049(6) -0.0242(9) 0.64253(12)
O4 O -0.1709(4) 0.3305(9) 0.65034(9)
N1 N -0.0674(5) 0.1709(8) 0.65061(7)
C1 C 0.3900(5) 0.4451(6) 0.65947(7)
H1 H 0.4631 0.315237 0.652854
C2 C 0.4639(5) 0.6817(7) 0.65085(8)
C3 C 0.5289(5) 0.6977(7) 0.62454(8)
C4 C 0.5800(5) 0.7254(7) 0.60258(8)
C5 C 0.6359(5) 0.7694(7) 0.57649(8)
C6 C 0.6064(6) 0.6048(7) 0.55611(9)
H2 H 0.551258 0.460913 0.559809
C7 C 0.6563(7) 0.6487(10) 0.53080(9)
H3 H 0.634522 0.536019 0.517051
C8 C 0.7390(6) 0.8585(11) 0.52525(8)
H4 H 0.773241 0.88951 0.50773
C9 C 0.7707(7) 1.0208(9) 0.54539(10)
H5 H 0.828315 1.162819 0.541646
C10 C 0.7198(6) 0.9796(8) 0.57089(9)
H6 H 0.741554 1.093119 0.584553
C11 C 0.1959(5) 0.4213(6) 0.64761(7)
H7 H 0.129831 0.564492 0.652358
C12 C 0.1825(5) 0.3972(6) 0.61748(7)
C13 C 0.2601(5) 0.2074(7) 0.60498(8)
H8 H 0.318512 0.089725 0.615642
C14 C 0.2526(5) 0.1898(8) 0.57758(8)
H9 H 0.304564 0.060236 0.569343
C15 C 0.1691(5) 0.3614(9) 0.56210(7)
C16 C 0.0896(5) 0.5491(8) 0.57377(9)
H10 H 0.031158 0.66572 0.562946
C17 C 0.0963(5) 0.5645(7) 0.60125(8)
H11 H 0.040732 0.692252 0.609303
C18 C 0.1165(5) 0.2126(8) 0.66152(8)
H12 H 0.188819 0.072092 0.658829
H13 H 0.117992 0.242919 0.681002
C19 C 0.5569(5) 0.3822(9) 0.70065(7)
H14 H 0.636671 0.517597 0.699234
H15 H 0.610877 0.245931 0.692271
C20 C 0.5314(5) 0.3322(8) 0.72933(7)
C21 C 0.5880(5) 0.4849(7) 0.74943(8)
H16 H 0.644095 0.62615 0.744925
C22 C 0.5650(6) 0.4370(8) 0.77591(9)
H17 H 0.608828 0.541608 0.789529
C23 C 0.4774(6) 0.2352(9) 0.78258(9)
H18 H 0.458197 0.203337 0.800759
C24 C 0.4182(6) 0.0806(8) 0.76275(9)
H19 H 0.359001 -0.058085 0.767341
C25 C 0.4446(5) 0.1268(7) 0.73640(9)
H20 H 0.404128 0.019317 0.722882
loop_
_geom_bond_atom_site_label_1
_geom_bond_atom_site_label_2
_geom_bond_site_symmetry_1
_geom_bond_site_symmetry_2
Cl1 C15 1_555 1_555
O1 C1 1_555 1_555
O2 C2 1_555 1_555
O3 N1 1_555 1_555
O4 N1 1_555 1_555
N1 C18 1_555 1_555
C1 H1 1_555 1_555
C2 C1 1_555 1_555
C3 C2 1_555 1_555
C4 C3 1_555 1_555
C5 C4 1_555 1_555
C6 C5 1_555 1_555
H2 C6 1_555 1_555
C7 C6 1_555 1_555
H3 C7 1_555 1_555
C8 C7 1_555 1_555
H4 C8 1_555 1_555
C9 C8 1_555 1_555
H5 C9 1_555 1_555
C10 C5 1_555 1_555
H6 C10 1_555 1_555
C11 C1 1_555 1_555
H7 C11 1_555 1_555
C12 C11 1_555 1_555
C13 C12 1_555 1_555
H8 C13 1_555 1_555
C14 C13 1_555 1_555
H9 C14 1_555 1_555
C15 C14 1_555 1_555
C16 C15 1_555 1_555
H10 C16 1_555 1_555
C17 C12 1_555 1_555
H11 C17 1_555 1_555
C18 C11 1_555 1_555
H12 C18 1_555 1_555
H13 C18 1_555 1_555
C19 O1 1_555 1_555
H14 C19 1_555 1_555
H15 C19 1_555 1_555
C20 C19 1_555 1_555
C21 C20 1_555 1_555
H16 C21 1_555 1_555
C22 C21 1_555 1_555
H17 C22 1_555 1_555
C23 C22 1_555 1_555
H18 C23 1_555 1_555
C24 C23 1_555 1_555
H19 C24 1_555 1_555
C25 C20 1_555 1_555
H20 C25 1_555 1_555
C9 C10 1_555 1_555
C16 C17 1_555 1_555
C24 C25 1_555 1_555

#END
