
#######################################################################
#
#                 Cambridge Crystallographic Data Centre
#                                CCDC 
#
#######################################################################
#
# If this CIF has been generated from an entry in the Cambridge 
# Structural Database, then it will include bibliographic, chemical, 
# crystal, experimental, refinement or atomic coordinate data resulting 
# from the CCDC's data processing and validation procedures.
#
#######################################################################

data_UDIYUE
_chemical_formula_moiety         'C15 H8 I1 O2 1+,C1 F3 O3 S1 1-'
_chemical_name_systematic        
'11-oxo-11H-[1]benzopyrano[3,2-b][1]benziodol-10-ium trifluoromethanesulfonate'
_symmetry_cell_setting           triclinic
_symmetry_space_group_name_H-M   'P -1'
_symmetry_Int_Tables_number      2
_space_group_name_Hall           '-P 1'
loop_
_symmetry_equiv_pos_site_id
_symmetry_equiv_pos_as_xyz
1 x,y,z
2 -x,-y,-z
_cell_length_a                   6.6917(5)
_cell_length_b                   11.0787(9)
_cell_length_c                   11.8585(8)
_cell_angle_alpha                72.430(7)
_cell_angle_beta                 74.961(7)
_cell_angle_gamma                81.073(7)
_cell_volume                     806.591
_exptl_crystal_colour            colorless
_exptl_crystal_description       block
_cell_formula_units_Z            2
loop_
_atom_site_label
_atom_site_type_symbol
_atom_site_fract_x
_atom_site_fract_y
_atom_site_fract_z
I1 I 0.32603(6) 0.82594(3) 0.49843(3)
O1 O 0.2170(7) 0.7484(4) 0.1964(4)
O2 O -0.1273(8) 0.9598(5) 0.4230(4)
C1 C 0.5271(11) 0.6934(6) 0.4198(6)
C2 C 0.4683(10) 0.6820(6) 0.3186(6)
C3 C -0.0206(10) 0.9037(6) 0.3502(6)
C4 C 0.1746(10) 0.8330(6) 0.3635(6)
C5 C 0.7590(11) 0.5275(6) 0.2939(6)
H1 H 0.838494 0.468776 0.252090
C6 C -0.2578(10) 0.9694(6) 0.2079(6)
H2 H -0.340838 1.022088 0.255428
C7 C -0.0806(11) 0.8981(6) 0.2403(6)
C8 C 0.5877(11) 0.5989(6) 0.2544(6)
H3 H 0.552262 0.591066 0.184471
C9 C -0.3105(11) 0.9619(6) 0.1047(6)
H4 H -0.430265 1.010667 0.081181
C10 C -0.0151(11) 0.8134(7) 0.0665(6)
H5 H 0.066968 0.760336 0.019137
C11 C 0.2826(10) 0.7585(6) 0.2919(6)
C12 C 0.0379(11) 0.8223(6) 0.1697(6)
C13 C 0.8154(11) 0.5415(6) 0.3948(6)
H6 H 0.935441 0.494079 0.419104
C14 C 0.6969(11) 0.6247(6) 0.4603(6)
H7 H 0.732484 0.633228 0.529879
C15 C -0.1925(12) 0.8850(7) 0.0355(6)
H8 H -0.232907 0.880938 -0.034232
S1 S 0.7168(3) 0.76693(15) 0.72150(14)
O3 O 0.7417(9) 0.8816(5) 0.7472(5)
F1 F 0.8290(9) 0.6411(5) 0.9236(4)
F2 F 0.5034(9) 0.6931(6) 0.9464(4)
O4 O 0.5323(8) 0.7679(6) 0.6808(5)
O5 O 0.8981(8) 0.7076(5) 0.6565(5)
F3 F 0.6464(11) 0.5393(5) 0.8670(5)
C16 C 0.6679(14) 0.6545(7) 0.8718(7)
loop_
_geom_bond_atom_site_label_1
_geom_bond_atom_site_label_2
_geom_bond_site_symmetry_1
_geom_bond_site_symmetry_2
I1 C1 1_555 1_555
O1 C11 1_555 1_555
O2 C3 1_555 1_555
C1 C2 1_555 1_555
C2 C8 1_555 1_555
C3 C4 1_555 1_555
C4 I1 1_555 1_555
C5 H1 1_555 1_555
C6 H2 1_555 1_555
C7 C3 1_555 1_555
C8 C5 1_555 1_555
H3 C8 1_555 1_555
C9 C6 1_555 1_555
H4 C9 1_555 1_555
C10 H5 1_555 1_555
C11 C2 1_555 1_555
C12 O1 1_555 1_555
C13 C5 1_555 1_555
H6 C13 1_555 1_555
C14 C1 1_555 1_555
H7 C14 1_555 1_555
C15 C9 1_555 1_555
H8 C15 1_555 1_555
S1 O3 1_555 1_555
F1 C16 1_555 1_555
F2 C16 1_555 1_555
O4 S1 1_555 1_555
O5 S1 1_555 1_555
F3 C16 1_555 1_555
C16 S1 1_555 1_555
C4 C11 1_555 1_555
C6 C7 1_555 1_555
C7 C12 1_555 1_555
C10 C12 1_555 1_555
C10 C15 1_555 1_555
C13 C14 1_555 1_555

#END
