
#######################################################################
#
#                 Cambridge Crystallographic Data Centre
#                                CCDC 
#
#######################################################################
#
# If this CIF has been generated from an entry in the Cambridge 
# Structural Database, then it will include bibliographic, chemical, 
# crystal, experimental, refinement or atomic coordinate data resulting 
# from the CCDC's data processing and validation procedures.
#
#######################################################################

data_UDOCUO
_chemical_formula_moiety         'C31 H35 N1 O3 S1'
_chemical_name_systematic        
5-[(3,5-di-t-butyl-4-hydroxyphenyl)(2-hydroxyphenyl)methyl]-5-methyl-2-phenyl-1,3-thiazol-4(5H)-one
_symmetry_cell_setting           monoclinic
_symmetry_space_group_name_H-M   'P 21'
_symmetry_Int_Tables_number      4
_space_group_name_Hall           'P 2yb'
loop_
_symmetry_equiv_pos_site_id
_symmetry_equiv_pos_as_xyz
1 x,y,z
2 -x,1/2+y,-z
_cell_length_a                   10.6524(12)
_cell_length_b                   10.0603(12)
_cell_length_c                   13.5240(15)
_cell_angle_alpha                90
_cell_angle_beta                 90.890(4)
_cell_angle_gamma                90
_cell_volume                     1449.14
_exptl_crystal_colour            colorless
_exptl_crystal_description       block
_cell_formula_units_Z            2
loop_
_atom_site_label
_atom_site_type_symbol
_atom_site_fract_x
_atom_site_fract_y
_atom_site_fract_z
S1 S 0.69695(6) 0.31205(6) 0.77888(4)
O1 O 0.3105(2) 0.4609(2) 0.42771(16)
H1 H 0.3639 0.4384 0.3858
O2 O 0.44841(19) 0.78014(19) 0.85890(15)
H2 H 0.4314 0.8529 0.8861
O3 O 0.60396(18) 0.49073(19) 1.01769(13)
N1 N 0.7732(2) 0.3745(2) 0.95930(17)
C1 C 0.7502(3) 0.6459(3) 0.7906(2)
H3 H 0.7858 0.5636 0.7710
C2 C 0.8266(3) 0.7581(3) 0.7961(2)
H4 H 0.9129 0.7520 0.7802
C3 C 0.7762(3) 0.8781(3) 0.8249(2)
H5 H 0.8282 0.9546 0.8299
C4 C 0.6496(3) 0.8868(3) 0.8466(2)
H6 H 0.6147 0.9696 0.8658
C5 C 0.5740(3) 0.7748(3) 0.84028(19)
C6 C 0.6229(2) 0.6508(2) 0.81293(18)
C7 C 0.5332(2) 0.5338(3) 0.80796(18)
H7 H 0.4613 0.5600 0.8505
C8 C 0.4758(2) 0.5145(2) 0.70538(19)
C9 C 0.3467(2) 0.5060(3) 0.6926(2)
H8 H 0.2951 0.5123 0.7491
C10 C 0.2897(2) 0.4884(3) 0.6001(2)
C11 C 0.3690(3) 0.4773(3) 0.5187(2)
C12 C 0.5012(2) 0.4865(2) 0.52794(18)
C13 C 0.5507(2) 0.5058(2) 0.62241(19)
H9 H 0.6392 0.5132 0.6307
C14 C 0.1459(3) 0.4853(3) 0.5891(2)
C15 C 0.0813(3) 0.5002(4) 0.6890(3)
H10 H 0.1058 0.4262 0.7323
H11 H -0.0100 0.4997 0.6788
H12 H 0.1069 0.5844 0.7198
C16 C 0.1011(3) 0.6011(4) 0.5234(3)
H13 H 0.1315 0.6852 0.5514
H14 H 0.0091 0.6020 0.5202
H15 H 0.1341 0.5900 0.4566
C17 C 0.1023(3) 0.3528(3) 0.5448(3)
H16 H 0.1344 0.3441 0.4776
H17 H 0.0104 0.3500 0.5428
H18 H 0.1344 0.2795 0.5857
C18 C 0.5892(3) 0.4772(3) 0.43854(19)
C19 C 0.7277(3) 0.4919(3) 0.4706(2)
H19 H 0.7814 0.4799 0.4130
H20 H 0.7486 0.4245 0.5205
H21 H 0.7415 0.5807 0.4985
C20 C 0.5625(3) 0.5891(3) 0.3632(2)
H22 H 0.6209 0.5817 0.3082
H23 H 0.5736 0.6756 0.3955
H24 H 0.4761 0.5813 0.3380
C21 C 0.5775(3) 0.3394(3) 0.3892(2)
H25 H 0.5927 0.2700 0.4388
H26 H 0.6395 0.3317 0.3368
H27 H 0.4929 0.3290 0.3608
C22 C 0.5833(2) 0.4014(3) 0.85365(18)
C23 C 0.6542(2) 0.4287(3) 0.95100(18)
C24 C 0.4729(2) 0.3070(3) 0.87564(19)
H28 H 0.4261 0.2884 0.8142
H29 H 0.4170 0.3491 0.9233
H30 H 0.5055 0.2237 0.9034
C25 C 0.8044(2) 0.3136(3) 0.87840(18)
C26 C 0.9258(3) 0.2468(3) 0.8679(2)
C27 C 0.9547(3) 0.1778(3) 0.7819(2)
H31 H 0.8962 0.1750 0.7283
C28 C 1.0695(3) 0.1130(4) 0.7748(2)
H32 H 1.0887 0.0647 0.7165
C29 C 1.1557(3) 0.1186(4) 0.8520(3)
H33 H 1.2339 0.0740 0.8466
C30 C 1.1291(3) 0.1884(5) 0.9366(3)
H34 H 1.1895 0.1927 0.9890
C31 C 1.0141(3) 0.2527(4) 0.9459(2)
H35 H 0.9956 0.3002 1.0046
loop_
_geom_bond_atom_site_label_1
_geom_bond_atom_site_label_2
_geom_bond_site_symmetry_1
_geom_bond_site_symmetry_2
S1 C22 1_555 1_555
O1 H1 1_555 1_555
O2 H2 1_555 1_555
O3 C23 1_555 1_555
N1 C23 1_555 1_555
C1 H3 1_555 1_555
C2 C1 1_555 1_555
H4 C2 1_555 1_555
C3 C2 1_555 1_555
H5 C3 1_555 1_555
C4 C3 1_555 1_555
H6 C4 1_555 1_555
C5 O2 1_555 1_555
C6 C1 1_555 1_555
C7 C6 1_555 1_555
H7 C7 1_555 1_555
C8 C7 1_555 1_555
C9 C8 1_555 1_555
H8 C9 1_555 1_555
C10 C9 1_555 1_555
C11 O1 1_555 1_555
C12 C11 1_555 1_555
C13 C8 1_555 1_555
H9 C13 1_555 1_555
C14 C10 1_555 1_555
C15 C14 1_555 1_555
H10 C15 1_555 1_555
H11 C15 1_555 1_555
H12 C15 1_555 1_555
C16 C14 1_555 1_555
H13 C16 1_555 1_555
H14 C16 1_555 1_555
H15 C16 1_555 1_555
C17 C14 1_555 1_555
H16 C17 1_555 1_555
H17 C17 1_555 1_555
H18 C17 1_555 1_555
C18 C12 1_555 1_555
C19 C18 1_555 1_555
H19 C19 1_555 1_555
H20 C19 1_555 1_555
H21 C19 1_555 1_555
C20 C18 1_555 1_555
H22 C20 1_555 1_555
H23 C20 1_555 1_555
H24 C20 1_555 1_555
C21 C18 1_555 1_555
H25 C21 1_555 1_555
H26 C21 1_555 1_555
H27 C21 1_555 1_555
C22 C7 1_555 1_555
C23 C22 1_555 1_555
C24 C22 1_555 1_555
H28 C24 1_555 1_555
H29 C24 1_555 1_555
H30 C24 1_555 1_555
C25 S1 1_555 1_555
C26 C25 1_555 1_555
C27 C26 1_555 1_555
H31 C27 1_555 1_555
C28 C27 1_555 1_555
H32 C28 1_555 1_555
C29 C28 1_555 1_555
H33 C29 1_555 1_555
C30 C29 1_555 1_555
H34 C30 1_555 1_555
C31 C26 1_555 1_555
H35 C31 1_555 1_555
N1 C25 1_555 1_555
C4 C5 1_555 1_555
C5 C6 1_555 1_555
C10 C11 1_555 1_555
C12 C13 1_555 1_555
C30 C31 1_555 1_555

#END
