
#######################################################################
#
#                 Cambridge Crystallographic Data Centre
#                                CCDC 
#
#######################################################################
#
# If this CIF has been generated from an entry in the Cambridge 
# Structural Database, then it will include bibliographic, chemical, 
# crystal, experimental, refinement or atomic coordinate data resulting 
# from the CCDC's data processing and validation procedures.
#
#######################################################################

data_UDODEZ
_chemical_formula_moiety         'C25 H23 N1 O3 S1'
_chemical_name_systematic        
5-[(2-hydroxy-5-methylphenyl)(4-methoxyphenyl)methyl]-5-methyl-2-phenyl-1,3-thiazol-4(5H)-one
_symmetry_cell_setting           orthorhombic
_symmetry_space_group_name_H-M   'P 21 21 21'
_symmetry_Int_Tables_number      19
_space_group_name_Hall           'P 2ac 2ab'
loop_
_symmetry_equiv_pos_site_id
_symmetry_equiv_pos_as_xyz
1 x,y,z
2 1/2+x,1/2-y,-z
3 -x,1/2+y,1/2-z
4 1/2-x,-y,1/2+z
_cell_length_a                   8.2094(7)
_cell_length_b                   11.2443(9)
_cell_length_c                   23.2819(18)
_cell_angle_alpha                90
_cell_angle_beta                 90
_cell_angle_gamma                90
_cell_volume                     2149.13
_exptl_crystal_colour            colorless
_exptl_crystal_description       block
_cell_formula_units_Z            4
loop_
_atom_site_label
_atom_site_type_symbol
_atom_site_fract_x
_atom_site_fract_y
_atom_site_fract_z
S1 S 0.84053(9) 0.54876(6) 0.67532(3)
O1 O 0.8307(3) 0.26831(17) 0.58177(8)
O2 O 0.4675(3) 0.39948(19) 0.49124(8)
H1 H 0.413404 0.356488 0.470114
O3 O 0.6278(3) 1.00979(18) 0.56787(9)
N1 N 0.8661(3) 0.3148(2) 0.67711(10)
C1 C 0.9530(4) 0.4020(3) 0.88792(13)
H2 H 0.970399 0.399786 0.927378
C2 C 0.8830(4) 0.3054(3) 0.86057(13)
H3 H 0.852486 0.238889 0.881771
C3 C 0.8581(4) 0.3074(3) 0.80179(12)
H4 H 0.813786 0.241609 0.783298
C4 C 0.9000(3) 0.4085(3) 0.77041(12)
C5 C 0.8715(3) 0.4116(2) 0.70818(12)
C6 C 0.8283(4) 0.4760(2) 0.60537(11)
C7 C 0.6690(4) 0.5048(2) 0.57121(11)
H5 H 0.691349 0.480358 0.531591
C8 C 0.6417(3) 0.6384(2) 0.56835(11)
C9 C 0.5530(4) 0.6986(3) 0.60990(12)
H6 H 0.497873 0.655203 0.637783
C10 C 0.5444(4) 0.8225(3) 0.61101(13)
H7 H 0.484915 0.860661 0.639577
C11 C 0.6245(4) 0.8886(3) 0.56953(13)
C12 C 0.5492(5) 1.0713(3) 0.61383(16)
H8 H 0.435334 1.051926 0.614037
H9 H 0.562263 1.155493 0.608665
H10 H 0.597241 1.047924 0.649687
C13 C 0.9974(4) 0.5022(3) 0.85679(12)
H11 H 1.045925 0.566442 0.875214
C14 C 0.9692(4) 0.5060(3) 0.79842(12)
H12 H 0.996335 0.573806 0.777634
C15 C 0.9799(3) 0.5097(3) 0.57085(12)
H13 H 1.075670 0.489789 0.592451
H14 H 0.978831 0.593641 0.563257
H15 H 0.980283 0.466932 0.535173
C16 C 0.8396(4) 0.3427(2) 0.61961(11)
C17 C 0.7164(3) 0.7072(3) 0.52550(11)
H16 H 0.772115 0.669018 0.495998
C18 C 0.7096(4) 0.8305(3) 0.52591(12)
H17 H 0.761328 0.874127 0.497304
C19 C 0.5209(3) 0.4325(3) 0.58962(11)
C20 C 0.4787(4) 0.4120(3) 0.64687(12)
H18 H 0.539446 0.448463 0.675618
C21 C 0.3487(4) 0.3385(3) 0.66260(12)
C22 C 0.3141(4) 0.3146(3) 0.72519(13)
H19 H 0.211106 0.274833 0.728799
H20 H 0.310590 0.388535 0.745767
H21 H 0.398533 0.265203 0.740826
C23 C 0.2585(4) 0.2854(3) 0.61908(13)
H22 H 0.171952 0.235725 0.628532
C24 C 0.2956(4) 0.3053(3) 0.56182(13)
H23 H 0.233372 0.269630 0.533227
C25 C 0.4258(4) 0.3785(2) 0.54696(12)
loop_
_geom_bond_atom_site_label_1
_geom_bond_atom_site_label_2
_geom_bond_site_symmetry_1
_geom_bond_site_symmetry_2
S1 C5 1_555 1_555
O1 C16 1_555 1_555
O2 H1 1_555 1_555
O3 C11 1_555 1_555
N1 C5 1_555 1_555
C1 H2 1_555 1_555
C2 C1 1_555 1_555
H3 C2 1_555 1_555
C3 C2 1_555 1_555
H4 C3 1_555 1_555
C4 C3 1_555 1_555
C5 C4 1_555 1_555
C6 S1 1_555 1_555
C7 C6 1_555 1_555
H5 C7 1_555 1_555
C8 C7 1_555 1_555
C9 C8 1_555 1_555
H6 C9 1_555 1_555
C10 C9 1_555 1_555
H7 C10 1_555 1_555
C11 C10 1_555 1_555
C12 O3 1_555 1_555
H8 C12 1_555 1_555
H9 C12 1_555 1_555
H10 C12 1_555 1_555
C13 C1 1_555 1_555
H11 C13 1_555 1_555
C14 C4 1_555 1_555
H12 C14 1_555 1_555
C15 C6 1_555 1_555
H13 C15 1_555 1_555
H14 C15 1_555 1_555
H15 C15 1_555 1_555
C16 N1 1_555 1_555
C17 C8 1_555 1_555
H16 C17 1_555 1_555
C18 C11 1_555 1_555
H17 C18 1_555 1_555
C19 C7 1_555 1_555
C20 C19 1_555 1_555
H18 C20 1_555 1_555
C21 C20 1_555 1_555
C22 C21 1_555 1_555
H19 C22 1_555 1_555
H20 C22 1_555 1_555
H21 C22 1_555 1_555
C23 C21 1_555 1_555
H22 C23 1_555 1_555
C24 C23 1_555 1_555
H23 C24 1_555 1_555
C25 O2 1_555 1_555
C6 C16 1_555 1_555
C13 C14 1_555 1_555
C17 C18 1_555 1_555
C19 C25 1_555 1_555
C24 C25 1_555 1_555

#END
