
#######################################################################
#
#                 Cambridge Crystallographic Data Centre
#                                CCDC 
#
#######################################################################
#
# If this CIF has been generated from an entry in the Cambridge 
# Structural Database, then it will include bibliographic, chemical, 
# crystal, experimental, refinement or atomic coordinate data resulting 
# from the CCDC's data processing and validation procedures.
#
#######################################################################

data_UDOKAA
_chemical_formula_moiety         '2(C1 H7 N4 1+),O4 S1 2-,H2 O1'
_chemical_name_systematic        'bis(Aminoguanidinium) sulfate monohydrate'
_symmetry_cell_setting           orthorhombic
_symmetry_space_group_name_H-M   'P n m a'
_symmetry_Int_Tables_number      62
_space_group_name_Hall           '-P 2ac 2n'
loop_
_symmetry_equiv_pos_site_id
_symmetry_equiv_pos_as_xyz
1 x,y,z
2 1/2-x,-y,1/2+z
3 -x,1/2+y,-z
4 1/2+x,1/2-y,1/2-z
5 -x,-y,-z
6 1/2+x,y,1/2-z
7 x,1/2-y,z
8 1/2-x,1/2+y,1/2+z
_cell_length_a                   6.759(2)
_cell_length_b                   14.131(5)
_cell_length_c                   11.650(4)
_cell_angle_alpha                90
_cell_angle_beta                 90
_cell_angle_gamma                90
_cell_volume                     1112.71
_exptl_crystal_colour            colorless
_exptl_crystal_description       block
_cell_formula_units_Z            4
loop_
_atom_site_label
_atom_site_type_symbol
_atom_site_fract_x
_atom_site_fract_y
_atom_site_fract_z
S1 S 0.05899(8) 0.7500 0.98262(5)
O1 O 0.2455(3) 0.7500 1.04605(16)
O2 O 0.1060(3) 0.7500 0.85935(15)
O3 O -0.0561(2) 0.66545(10) 1.01140(11)
O3F O -0.0561(2) 0.83455(10) 1.01140(11)
O4 O 0.1636(3) 0.7500 0.27976(15)
H1 H 0.2017 0.7500 0.2102
H2 H 0.2529 0.7500 0.3311
N1 N 0.0330(2) 0.61492(10) 0.58112(11)
H3 H 0.1482 0.6405 0.5626
H4 H -0.0569 0.6585 0.5623
N2 N 0.0290(2) 0.60040(9) 0.70034(12)
H5 H 0.0401 0.6476 0.7465
N3 N -0.0010(2) 0.44071(10) 0.67146(12)
H6 H -0.0139 0.3845 0.6987
H7 H 0.0062 0.4492 0.5985
N4 N -0.0028(2) 0.50201(11) 0.85398(12)
H8 H -0.0157 0.4462 0.8826
H9 H 0.0033 0.5504 0.8985
C1 C 0.0079(2) 0.51332(11) 0.74112(14)
loop_
_geom_bond_atom_site_label_1
_geom_bond_atom_site_label_2
_geom_bond_site_symmetry_1
_geom_bond_site_symmetry_2
S1 O1 1_555 1_555
O2 S1 1_555 1_555
O3 S1 1_555 1_555
O4 H1 1_555 1_555
H2 O4 1_555 1_555
N1 H3 1_555 1_555
H4 N1 1_555 1_555
N2 N1 1_555 1_555
H5 N2 1_555 1_555
N3 H6 1_555 1_555
H7 N3 1_555 1_555
N4 H8 1_555 1_555
H9 N4 1_555 1_555
C1 N2 1_555 1_555
O3F S1 1_555 1_555
N3 C1 1_555 1_555
N4 C1 1_555 1_555

#END
