
#######################################################################
#
#                 Cambridge Crystallographic Data Centre
#                                CCDC 
#
#######################################################################
#
# If this CIF has been generated from an entry in the Cambridge 
# Structural Database, then it will include bibliographic, chemical, 
# crystal, experimental, refinement or atomic coordinate data resulting 
# from the CCDC's data processing and validation procedures.
#
#######################################################################

data_UDOSUD
_chemical_formula_moiety         'C22 H25 N1 O6'
_chemical_name_systematic        
'Ethyl 1-(phenylcarbamoyl)-2-(3,4,5-trimethoxyphenyl)cyclopropanecarboxylate'
_symmetry_cell_setting           monoclinic
_symmetry_space_group_name_H-M   'P 21/n'
_symmetry_Int_Tables_number      14
_space_group_name_Hall           '-P 2yn'
loop_
_symmetry_equiv_pos_site_id
_symmetry_equiv_pos_as_xyz
1 x,y,z
2 1/2-x,1/2+y,1/2-z
3 -x,-y,-z
4 1/2+x,1/2-y,1/2+z
_cell_length_a                   15.0263(3)
_cell_length_b                   7.6574(2)
_cell_length_c                   19.4117(4)
_cell_angle_alpha                90
_cell_angle_beta                 111.9010(10)
_cell_angle_gamma                90
_cell_volume                     2072.36
_exptl_crystal_colour            colorless
_exptl_crystal_description       block
_cell_formula_units_Z            4
_chemical_properties_physical    heat-sensitive
loop_
_atom_site_label
_atom_site_type_symbol
_atom_site_fract_x
_atom_site_fract_y
_atom_site_fract_z
N1 N 0.75421(10) 0.89587(19) 0.14417(8)
O1 O 0.78007(11) 0.7057(2) 0.23962(9)
O2 O 0.58161(10) 1.0527(2) 0.09490(8)
O3 O 0.50290(9) 1.04610(16) 0.17250(7)
O4 O 0.28661(11) 0.6055(3) -0.02632(8)
O5 O 0.17279(11) 0.6300(3) 0.05128(12)
O6 O 0.24448(13) 0.6641(3) 0.19801(11)
C1 C 0.84204(13) 0.8881(2) 0.13362(9)
C2 C 0.91313(15) 0.7645(3) 0.16752(12)
H1 H 0.9050 0.6832 0.2003
C3 C 0.99585(16) 0.7637(4) 0.15189(14)
H2 H 1.0425 0.6796 0.1738
C4 C 1.01059(17) 0.8831(4) 0.10521(13)
H3 H 1.0665 0.8807 0.0953
C5 C 0.94064(19) 1.0084(4) 0.07269(13)
H4 H 0.9501 1.0912 0.0411
C6 C 0.85755(16) 1.0111(3) 0.08679(10)
H5 H 0.8114 1.0960 0.0648
C7 C 0.72866(12) 0.8103(2) 0.19523(9)
C8 C 0.62948(12) 0.8474(2) 0.19453(9)
C9 C 0.57055(12) 0.9921(2) 0.14860(9)
C10 C 0.44033(16) 1.1854(3) 0.13083(14)
H6 H 0.4761 1.2638 0.1115
H7 H 0.4177 1.2520 0.1636
C11 C 0.3572(2) 1.1142(4) 0.06867(17)
H8 H 0.3795 1.0522 0.0352
H9 H 0.3162 1.2083 0.0427
H10 H 0.3221 1.0359 0.0878
C12 C 0.61691(14) 0.7980(2) 0.26620(9)
H11 H 0.6731 0.7568 0.3070
H12 H 0.5733 0.8682 0.2810
C13 C 0.57441(12) 0.6802(2) 0.20206(9)
H13 H 0.6097 0.5709 0.2054
C14 C 0.46801(12) 0.6649(2) 0.16192(10)
C15 C 0.40849(14) 0.6708(2) 0.20139(10)
H14 H 0.4343 0.6833 0.2527
C16 C 0.30948(15) 0.6578(3) 0.16412(12)
C17 C 0.27104(14) 0.6352(3) 0.08762(13)
C18 C 0.33112(13) 0.6263(2) 0.04862(11)
C19 C 0.42999(12) 0.6418(2) 0.08552(10)
H15 H 0.4703 0.6367 0.0591
C20 C 0.34164(17) 0.5487(3) -0.06730(11)
H16 H 0.3860 0.6388 -0.0675
H17 H 0.2999 0.5235 -0.1174
H18 H 0.3765 0.4452 -0.0449
C21 C 0.1346(2) 0.4619(6) 0.0281(3)
H19 H 0.0743 0.4724 -0.0129
H20 H 0.1251 0.4031 0.0685
H21 H 0.1785 0.3961 0.0129
C22 C 0.2804(3) 0.6950(8) 0.27541(19)
H22 H 0.3195 0.5983 0.3008
H23 H 0.2278 0.7081 0.2917
H24 H 0.3182 0.7998 0.2863
loop_
_geom_bond_atom_site_label_1
_geom_bond_atom_site_label_2
_geom_bond_site_symmetry_1
_geom_bond_site_symmetry_2
N1 C1 1_555 1_555
O1 C7 1_555 1_555
O2 C9 1_555 1_555
O3 C9 1_555 1_555
O4 C18 1_555 1_555
O5 C17 1_555 1_555
O6 C16 1_555 1_555
C1 C2 1_555 1_555
C2 H1 1_555 1_555
C3 C2 1_555 1_555
H2 C3 1_555 1_555
C4 C3 1_555 1_555
H3 C4 1_555 1_555
C5 C4 1_555 1_555
H4 C5 1_555 1_555
C6 C1 1_555 1_555
H5 C6 1_555 1_555
C7 N1 1_555 1_555
C8 C7 1_555 1_555
C9 C8 1_555 1_555
C10 O3 1_555 1_555
H6 C10 1_555 1_555
H7 C10 1_555 1_555
C11 C10 1_555 1_555
H8 C11 1_555 1_555
H9 C11 1_555 1_555
H10 C11 1_555 1_555
C12 C8 1_555 1_555
H11 C12 1_555 1_555
H12 C12 1_555 1_555
C13 C8 1_555 1_555
H13 C13 1_555 1_555
C14 C13 1_555 1_555
C15 C14 1_555 1_555
H14 C15 1_555 1_555
C16 C15 1_555 1_555
C17 C16 1_555 1_555
C18 C17 1_555 1_555
C19 C14 1_555 1_555
H15 C19 1_555 1_555
C20 O4 1_555 1_555
H16 C20 1_555 1_555
H17 C20 1_555 1_555
H18 C20 1_555 1_555
C21 O5 1_555 1_555
H19 C21 1_555 1_555
H20 C21 1_555 1_555
H21 C21 1_555 1_555
C22 O6 1_555 1_555
H22 C22 1_555 1_555
H23 C22 1_555 1_555
H24 C22 1_555 1_555
C5 C6 1_555 1_555
C12 C13 1_555 1_555
C18 C19 1_555 1_555

#END
