
#######################################################################
#
#                 Cambridge Crystallographic Data Centre
#                                CCDC 
#
#######################################################################
#
# If this CIF has been generated from an entry in the Cambridge 
# Structural Database, then it will include bibliographic, chemical, 
# crystal, experimental, refinement or atomic coordinate data resulting 
# from the CCDC's data processing and validation procedures.
#
#######################################################################

data_UDOTAL
_chemical_formula_moiety         'C5 H5 N5 O3 S1,2(C2 H6 O1 S1)'
_chemical_name_systematic        
'2-(2,4,6-trioxotetrahydropyrimidin-5(2H)-ylidene)hydrazinecarbothioamide dimethyl sulfoxide solvate'
_symmetry_cell_setting           monoclinic
_symmetry_space_group_name_H-M   'P 21/n'
_symmetry_Int_Tables_number      14
_space_group_name_Hall           '-P 2yn'
loop_
_symmetry_equiv_pos_site_id
_symmetry_equiv_pos_as_xyz
1 x,y,z
2 1/2-x,1/2+y,1/2-z
3 -x,-y,-z
4 1/2+x,1/2-y,1/2+z
_cell_length_a                   5.2533(3)
_cell_length_b                   28.1089(15)
_cell_length_c                   11.3569(4)
_cell_angle_alpha                90
_cell_angle_beta                 94.091(4)
_cell_angle_gamma                90
_cell_volume                     1672.74
_exptl_crystal_colour            yellow
_exptl_crystal_description       prism
_cell_formula_units_Z            4
loop_
_atom_site_label
_atom_site_type_symbol
_atom_site_fract_x
_atom_site_fract_y
_atom_site_fract_z
S1 S 0.72257(16) 0.19894(3) 0.22703(8)
O1 O 0.6286(3) 0.14846(6) 0.22747(15)
C1 C 0.5819(5) 0.22828(9) 0.3428(2)
H1 H 0.6561 0.2168 0.4171
H2 H 0.4016 0.2222 0.3374
H3 H 0.6110 0.2619 0.3371
C2 C 0.5606(6) 0.22711(10) 0.1053(3)
H4 H 0.6189 0.2144 0.0335
H5 H 0.5941 0.2607 0.1087
H6 H 0.3805 0.2217 0.1071
S3 S 0.06119(15) 0.31634(2) 0.22526(7)
O2 O 0.2347(3) 0.50250(6) -0.08570(14)
N1 N 0.7445(4) 0.40685(8) -0.18203(18)
N2 N 0.2397(3) 0.41643(7) 0.01716(17)
C3 C 0.3823(4) 0.47250(9) -0.1143(2)
N3 N 0.2359(4) 0.37523(8) 0.07252(18)
O3 O 0.6115(3) 0.34960(6) -0.06015(15)
N4 N 0.5514(4) 0.48141(8) -0.19821(19)
O4 O 0.8808(3) 0.46253(6) -0.30677(16)
C4 C 0.4014(4) 0.42457(8) -0.0619(2)
C5 C 0.5895(4) 0.39012(9) -0.0990(2)
N5 N -0.0928(4) 0.40405(9) 0.1721(2)
C6 C 0.7359(5) 0.45112(10) -0.2334(2)
C7 C 0.0597(4) 0.36851(8) 0.1560(2)
H7 H -0.210(5) 0.3991(8) 0.225(2)
H8 H 0.859(4) 0.3867(7) -0.2074(18)
H9 H 0.343(4) 0.3546(8) 0.0562(19)
H10 H -0.086(4) 0.4314(8) 0.132(2)
H11 H 0.537(4) 0.5089(7) -0.2319(18)
S4 S 0.0043(3) 0.06866(5) 0.94691(12)
O5 O 0.0064(3) 0.07095(6) 0.81439(15)
C8 C 0.0614(6) 0.12933(10) 0.9930(3)
H12 H 0.2118 0.1410 0.9594
H13 H 0.0852 0.1306 1.0776
H14 H -0.0823 0.1486 0.9667
C9 C -0.2306(17) 0.0547(3) 1.0053(7)
H15 H -0.2744 0.0224 0.9850
H16 H -0.3688 0.0753 0.9791
H17 H -0.1994 0.0573 1.0894
S2? S 0.4713(9) 0.19937(17) 0.2127(5)
C10? C -0.3461(16) 0.0706(4) 0.9564(8)
H18? H -0.4288 0.0910 1.0098
H19? H -0.4680 0.0602 0.8949
H20? H -0.2758 0.0435 0.9987
S5? S -0.1682(4) 0.09432(8) 0.90912(17)
loop_
_geom_bond_atom_site_label_1
_geom_bond_atom_site_label_2
_geom_bond_site_symmetry_1
_geom_bond_site_symmetry_2
S1 O1 1_555 1_555
C1 S1 1_555 1_555
H1 C1 1_555 1_555
H2 C1 1_555 1_555
H3 C1 1_555 1_555
C2 S1 1_555 1_555
H4 C2 1_555 1_555
H5 C2 1_555 1_555
H6 C2 1_555 1_555
S3 C7 1_555 1_555
O2 C3 1_555 1_555
N1 C5 1_555 1_555
N2 N3 1_555 1_555
C3 N4 1_555 1_555
N3 C7 1_555 1_555
O3 C5 1_555 1_555
N4 C6 1_555 1_555
O4 C6 1_555 1_555
C4 N2 1_555 1_555
C5 C4 1_555 1_555
N5 C7 1_555 1_555
C6 N1 1_555 1_555
H7 N5 1_555 1_555
H8 N1 1_555 1_555
H9 N3 1_555 1_555
H10 N5 1_555 1_555
H11 N4 1_555 1_555
S4 O5 1_555 1_555
C8 S4 1_555 1_555
H12 C8 1_555 1_555
H13 C8 1_555 1_555
H14 C8 1_555 1_555
C9 S4 1_555 1_555
H15 C9 1_555 1_555
H16 C9 1_555 1_555
H17 C9 1_555 1_555
C3 C4 1_555 1_555

#END
