
#######################################################################
#
#                 Cambridge Crystallographic Data Centre
#                                CCDC 
#
#######################################################################
#
# If this CIF has been generated from an entry in the Cambridge 
# Structural Database, then it will include bibliographic, chemical, 
# crystal, experimental, refinement or atomic coordinate data resulting 
# from the CCDC's data processing and validation procedures.
#
#######################################################################

data_UDOXIV
_chemical_formula_moiety         'C33 H37 N1 O12,C14 H18 N2 O2 2+,2(F6 P1 1-)'
_chemical_name_systematic        
"(2)-(N,N'-hydroxyethyl-4,4'-dipyridinium)-(cis-5,8,11,14,21,24,27,30,34,42-decaoxa-44-azapentacyclo[16.14.11.1^36,40^.0^4,31^.0^15,20^]tetratetraconta-1,3,15,17,19,31,36(44),37,39-nonaene-35,41-dione)-pseudorotaxane bis(hexafluorophosphate)"
_symmetry_cell_setting           triclinic
_symmetry_space_group_name_H-M   'P -1'
_symmetry_Int_Tables_number      2
_space_group_name_Hall           '-P 1'
loop_
_symmetry_equiv_pos_site_id
_symmetry_equiv_pos_as_xyz
1 x,y,z
2 -x,-y,-z
_cell_length_a                   10.545(3)
_cell_length_b                   13.057(3)
_cell_length_c                   19.973(6)
_cell_angle_alpha                80.93(2)
_cell_angle_beta                 75.01(3)
_cell_angle_gamma                71.65(2)
_cell_volume                     2512.62
_exptl_crystal_colour            orange
_exptl_crystal_description       'triangular plate'
_cell_formula_units_Z            2
loop_
_atom_site_label
_atom_site_type_symbol
_atom_site_fract_x
_atom_site_fract_y
_atom_site_fract_z
P1 P 0.09454(10) 0.70456(8) 0.97965(6)
F1 F 0.0389(3) 0.6424(2) 0.93608(14)
F2 F 0.2490(2) 0.6553(2) 0.93580(14)
F3 F 0.1170(3) 0.5997(2) 1.03398(15)
F4 F 0.1522(3) 0.7648(3) 1.02283(16)
F5 F -0.0570(3) 0.7514(2) 1.02426(15)
F6 F 0.0733(3) 0.8062(2) 0.92422(16)
P2 P 0.9897(2) 0.3481(2) 0.43974(11)
F7 F 0.9673(7) 0.4734(5) 0.4420(3)
F8 F 0.8902(6) 0.3468(5) 0.5165(3)
F9 F 0.8569(6) 0.3779(5) 0.4059(4)
F10 F 1.0844(6) 0.3499(6) 0.3648(3)
F11 F 1.0096(7) 0.2241(5) 0.4398(4)
F12 F 1.1196(6) 0.3230(5) 0.4737(3)
O1 O 0.1814(3) 0.0622(2) 0.78973(14)
O2 O 0.3922(3) -0.0230(2) 0.86479(16)
O3 O 0.6244(3) -0.0319(2) 0.92132(14)
O4 O 0.7412(3) 0.1192(2) 0.81665(14)
O5 O 0.7842(3) 0.1153(2) 0.68511(14)
O6 O 0.6677(3) -0.0107(2) 0.62654(16)
O7 O 0.4712(3) -0.0542(2) 0.57125(14)
O8 O 0.2117(3) 0.0632(2) 0.65846(13)
O9 O -0.0094(2) 0.51947(19) 0.77512(14)
O10 O -0.2001(3) 0.6595(2) 0.80088(15)
O11 O 0.4054(3) 0.5659(2) 0.78492(18)
O12 O 0.4378(3) 0.7309(2) 0.77086(18)
N1 N 0.1469(3) 0.6504(2) 0.77188(16)
C1 C 0.1134(4) 0.1585(3) 0.7586(2)
C2 C 0.0386(4) 0.2514(3) 0.7917(2)
H4 H 0.0258 0.2512 0.8406
C3 C -0.0187(4) 0.3466(3) 0.7524(2)
C4 C -0.0016(4) 0.3457(3) 0.6823(2)
H5 H -0.0411 0.4099 0.6562
C5 C 0.0727(4) 0.2521(3) 0.6483(2)
H6 H 0.0826 0.2524 0.5996
C6 C 0.1319(4) 0.1588(3) 0.6863(2)
C7 C 0.1565(4) 0.0473(3) 0.8643(2)
H7 H 0.0650 0.0363 0.8840
H8 H 0.1603 0.1116 0.8833
C8 C 0.2662(4) -0.0505(3) 0.8819(2)
H9 H 0.2434 -0.0737 0.9321
H10 H 0.2743 -0.1108 0.8552
C9 C 0.5047(4) -0.1153(3) 0.8708(2)
H11 H 0.5177 -0.1650 0.8354
H12 H 0.4866 -0.1543 0.9174
C10 C 0.6315(4) -0.0803(3) 0.8606(2)
H13 H 0.7138 -0.1436 0.8528
H14 H 0.6381 -0.0274 0.8194
C11 C 0.7449(4) -0.0013(3) 0.9188(2)
H15 H 0.8250 -0.0501 0.8898
H16 H 0.7610 -0.0104 0.9664
C12 C 0.7331(4) 0.1141(3) 0.8896(2)
H17 H 0.6446 0.1626 0.9126
H18 H 0.8082 0.1373 0.8977
C13 C 0.7302(4) 0.2164(3) 0.7089(2)
C14 C 0.6971(4) 0.3127(3) 0.6675(2)
H19 H 0.7166 0.3120 0.6183
C15 C 0.6351(4) 0.4105(3) 0.6982(3)
H20 H 0.6118 0.4761 0.6698
C16 C 0.6074(4) 0.4127(3) 0.7694(2)
C17 C 0.6457(4) 0.3167(3) 0.8113(2)
H21 H 0.6311 0.3182 0.8601
C18 C 0.7058(4) 0.2184(3) 0.7805(2)
C19 C 0.8062(4) 0.1057(3) 0.6125(2)
H22 H 0.8952 0.1178 0.5875
H23 H 0.7325 0.1599 0.5931
C20 C 0.8061(4) -0.0068(3) 0.6050(2)
H24 H 0.8439 -0.0241 0.5560
H25 H 0.8632 -0.0601 0.6343
C21 C 0.6540(4) -0.1163(3) 0.6290(2)
H26 H 0.6862 -0.1619 0.6693
H27 H 0.7098 -0.1510 0.5860
C22 C 0.5043(4) -0.1054(3) 0.6356(2)
H28 H 0.4883 -0.1776 0.6448
H29 H 0.4468 -0.0611 0.6744
C23 C 0.3365(4) -0.0471(3) 0.5653(2)
H30 H 0.3062 -0.1067 0.5955
H31 H 0.3395 -0.0570 0.5167
C24 C 0.2338(4) 0.0588(3) 0.5852(2)
H32 H 0.2685 0.1196 0.5598
H33 H 0.1465 0.0650 0.5727
C25 C -0.0990(4) 0.4486(3) 0.7878(2)
H34 H -0.1815 0.4854 0.7689
H35 H -0.1289 0.4311 0.8384
C26 C -0.0770(4) 0.6242(3) 0.78320(19)
C27 C 0.5398(4) 0.5179(3) 0.8034(3)
H36 H 0.5276 0.5043 0.8545
H37 H 0.5973 0.5678 0.7866
C28 C 0.3670(4) 0.6735(3) 0.7723(2)
C29 C 0.0162(4) 0.6961(3) 0.76723(19)
C30 C -0.0404(4) 0.8053(3) 0.7515(2)
H38 H -0.1336 0.8330 0.7484
C31 C 0.0417(4) 0.8735(3) 0.7404(2)
H39 H 0.0063 0.9488 0.7287
C32 C 0.1759(4) 0.8298(3) 0.7466(2)
H40 H 0.2344 0.8747 0.7403
C33 C 0.2238(4) 0.7183(3) 0.7624(2)
O13 O 0.5279(3) 0.3205(2) 0.99417(15)
H1 H 0.5865 0.3495 0.9976
O14 O 0.6423(7) 0.2821(6) 0.4929(4)
H2 H 0.7075 0.3077 0.4729
N2 N 0.3003(3) 0.3158(3) 0.95014(19)
N3 N 0.3950(4) 0.2969(3) 0.5909(2)
C34 C 0.2433(4) 0.4036(3) 0.9108(2)
H41 H 0.1937 0.4692 0.9319
C35 C 0.2551(4) 0.4005(3) 0.8416(2)
H42 H 0.2141 0.4634 0.8150
C36 C 0.3275(4) 0.3046(3) 0.8098(2)
C37 C 0.3806(4) 0.2134(3) 0.8524(2)
H43 H 0.4275 0.1461 0.8329
C38 C 0.3655(4) 0.2205(3) 0.9217(2)
H44 H 0.4013 0.1579 0.9501
C39 C 0.2925(4) 0.3250(4) 1.0237(2)
H45 H 0.3103 0.2519 1.0487
H46 H 0.1990 0.3680 1.0453
C40 C 0.3956(4) 0.3787(4) 1.0307(2)
H47 H 0.3718 0.4549 1.0109
H48 H 0.3953 0.3779 1.0804
C41 C 0.3316(5) 0.3909(4) 0.6209(2)
H49 H 0.3028 0.4556 0.5926
C42 C 0.3079(4) 0.3951(3) 0.6908(2)
H50 H 0.2623 0.4623 0.7106
C43 C 0.3503(4) 0.3008(3) 0.7340(2)
C44 C 0.4159(4) 0.2046(3) 0.7011(3)
H51 H 0.4464 0.1387 0.7280
C45 C 0.4366(4) 0.2045(3) 0.6307(3)
H52 H 0.4810 0.1384 0.6095
C46 C 0.4204(6) 0.2957(5) 0.5136(3)
H53 H 0.434(5) 0.218(2) 0.508(3)
C47 C 0.5232(9) 0.3485(7) 0.4758(5)
H54 H 0.5301 0.3539 0.4251
H55 H 0.5016 0.4220 0.4908
P3? P 0.8943(3) 0.3086(2) 0.44038(12)
F13? F 1.0347(6) 0.2840(5) 0.3833(3)
F14? F 0.9784(7) 0.2627(5) 0.5006(3)
F15? F 0.8869(7) 0.1916(5) 0.4365(4)
F16? F 0.8088(7) 0.3537(5) 0.3814(3)
F17? F 0.8980(11) 0.4267(6) 0.4450(5)
F18? F 0.7526(8) 0.3320(9) 0.4971(4)
O15? O 0.3472(10) 0.4670(6) 0.4710(4)
H3? H 0.2887 0.5103 0.4505
C48? C 0.3263(12) 0.3577(9) 0.4814(6)
H56? H 0.2335 0.3600 0.5098
H57? H 0.3370 0.3305 0.4361
loop_
_geom_bond_atom_site_label_1
_geom_bond_atom_site_label_2
_geom_bond_site_symmetry_1
_geom_bond_site_symmetry_2
P1 F1 1_555 1_555
F2 P1 1_555 1_555
F3 P1 1_555 1_555
F4 P1 1_555 1_555
F5 P1 1_555 1_555
F6 P1 1_555 1_555
P2 F7 1_555 1_555
F8 P2 1_555 1_555
F9 P2 1_555 1_555
F10 P2 1_555 1_555
F11 P2 1_555 1_555
F12 P2 1_555 1_555
O1 C1 1_555 1_555
O2 C8 1_555 1_555
O3 C10 1_555 1_555
O4 C12 1_555 1_555
O5 C13 1_555 1_555
O6 C20 1_555 1_555
O7 C22 1_555 1_555
O8 C6 1_555 1_555
O9 C25 1_555 1_555
O10 C26 1_555 1_555
O11 C27 1_555 1_555
O12 C28 1_555 1_555
O13 H1 1_555 1_555
O14 H2 1_555 1_555
N1 C29 1_555 1_555
N2 C34 1_555 1_555
N3 C41 1_555 1_555
C1 C2 1_555 1_555
C2 H4 1_555 1_555
C3 C2 1_555 1_555
C4 C3 1_555 1_555
H5 C4 1_555 1_555
C5 C4 1_555 1_555
H6 C5 1_555 1_555
C6 C1 1_555 1_555
C7 O1 1_555 1_555
H7 C7 1_555 1_555
H8 C7 1_555 1_555
C8 C7 1_555 1_555
H9 C8 1_555 1_555
H10 C8 1_555 1_555
C9 O2 1_555 1_555
H11 C9 1_555 1_555
H12 C9 1_555 1_555
C10 C9 1_555 1_555
H13 C10 1_555 1_555
H14 C10 1_555 1_555
C11 O3 1_555 1_555
H15 C11 1_555 1_555
H16 C11 1_555 1_555
C12 C11 1_555 1_555
H17 C12 1_555 1_555
H18 C12 1_555 1_555
C13 C14 1_555 1_555
C14 H19 1_555 1_555
C15 C14 1_555 1_555
H20 C15 1_555 1_555
C16 C15 1_555 1_555
C17 C16 1_555 1_555
H21 C17 1_555 1_555
C18 O4 1_555 1_555
C19 O5 1_555 1_555
H22 C19 1_555 1_555
H23 C19 1_555 1_555
C20 C19 1_555 1_555
H24 C20 1_555 1_555
H25 C20 1_555 1_555
C21 O6 1_555 1_555
H26 C21 1_555 1_555
H27 C21 1_555 1_555
C22 C21 1_555 1_555
H28 C22 1_555 1_555
H29 C22 1_555 1_555
C23 O7 1_555 1_555
H30 C23 1_555 1_555
H31 C23 1_555 1_555
C24 O8 1_555 1_555
H32 C24 1_555 1_555
H33 C24 1_555 1_555
C25 C3 1_555 1_555
H34 C25 1_555 1_555
H35 C25 1_555 1_555
C26 O9 1_555 1_555
C27 C16 1_555 1_555
H36 C27 1_555 1_555
H37 C27 1_555 1_555
C28 O11 1_555 1_555
C29 C26 1_555 1_555
C30 C29 1_555 1_555
H38 C30 1_555 1_555
C31 C30 1_555 1_555
H39 C31 1_555 1_555
C32 C31 1_555 1_555
H40 C32 1_555 1_555
C33 N1 1_555 1_555
C34 H41 1_555 1_555
C35 C34 1_555 1_555
H42 C35 1_555 1_555
C36 C35 1_555 1_555
C37 C36 1_555 1_555
H43 C37 1_555 1_555
C38 N2 1_555 1_555
H44 C38 1_555 1_555
C39 N2 1_555 1_555
H45 C39 1_555 1_555
H46 C39 1_555 1_555
C40 O13 1_555 1_555
H47 C40 1_555 1_555
H48 C40 1_555 1_555
C41 H49 1_555 1_555
C42 C41 1_555 1_555
H50 C42 1_555 1_555
C43 C36 1_555 1_555
C44 C43 1_555 1_555
H51 C44 1_555 1_555
C45 N3 1_555 1_555
H52 C45 1_555 1_555
C46 N3 1_555 1_555
H53 C46 1_555 1_555
C47 O14 1_555 1_555
H54 C47 1_555 1_555
H55 C47 1_555 1_555
C5 C6 1_555 1_555
C13 C18 1_555 1_555
C17 C18 1_555 1_555
C23 C24 1_555 1_555
C28 C33 1_555 1_555
C32 C33 1_555 1_555
C37 C38 1_555 1_555
C39 C40 1_555 1_555
C42 C43 1_555 1_555
C44 C45 1_555 1_555
C46 C47 1_555 1_555

#END
