
#######################################################################
#
#                 Cambridge Crystallographic Data Centre
#                                CCDC 
#
#######################################################################
#
# If this CIF has been generated from an entry in the Cambridge 
# Structural Database, then it will include bibliographic, chemical, 
# crystal, experimental, refinement or atomic coordinate data resulting 
# from the CCDC's data processing and validation procedures.
#
#######################################################################

data_UDOYES
_chemical_formula_moiety         'C33 H37 K1 N1 O12 1+,F6 P1 1-'
_chemical_name_systematic        
'(4,7,10,13,20,23,26,29,34,42-decaoxa-44-azapentacyclo[15.15.11.1^36,40^.0^3,30^.0^14,19^]tetratetraconta-1(32),2,14,16,18,30,36(44),37,39-nonaene-35,41-dione)-potassium hexafluorophosphate'
_symmetry_cell_setting           triclinic
_symmetry_space_group_name_H-M   'P -1'
_symmetry_Int_Tables_number      2
_space_group_name_Hall           '-P 1'
loop_
_symmetry_equiv_pos_site_id
_symmetry_equiv_pos_as_xyz
1 x,y,z
2 -x,-y,-z
_cell_length_a                   10.5112(15)
_cell_length_b                   12.934(2)
_cell_length_c                   14.7845(19)
_cell_angle_alpha                79.340(13)
_cell_angle_beta                 87.826(11)
_cell_angle_gamma                66.575(15)
_cell_volume                     1811.08
_exptl_crystal_colour            colorless
_exptl_crystal_description       'thick plate'
_cell_formula_units_Z            2
loop_
_atom_site_label
_atom_site_type_symbol
_atom_site_fract_x
_atom_site_fract_y
_atom_site_fract_z
K1 K 0.28982(10) 0.58296(8) 0.27407(6)
O1 O 0.4925(3) 0.6712(2) 0.25256(19)
O2 O 0.3834(3) 0.6267(3) 0.42900(19)
O3 O 0.1052(3) 0.7445(3) 0.37406(19)
O4 O 0.0322(3) 0.7393(2) 0.19832(18)
O5 O 0.7559(3) 0.6620(3) 0.20721(19)
O6 O 0.7380(3) 0.4426(3) 0.19253(19)
O7 O 0.4689(3) 0.4539(2) 0.14984(18)
O8 O 0.1903(3) 0.6059(2) 0.09283(18)
O9 O 0.4805(3) 0.8987(2) -0.16785(19)
O10 O 0.5723(3) 1.0010(3) -0.26751(19)
O11 O 0.0589(3) 0.9010(3) -0.22498(18)
O12 O -0.0171(3) 0.9094(3) -0.3668(2)
N1 N 0.2794(3) 0.9359(3) -0.2871(2)
C1 C 0.5160(5) 0.7238(4) 0.1671(3)
C2 C 0.6473(5) 0.7148(4) 0.1422(3)
C3 C 0.6675(4) 0.7644(4) 0.0551(3)
H1 H 0.7583 0.7579 0.0388
C4 C 0.5581(4) 0.8237(4) -0.0096(3)
C5 C 0.4265(4) 0.8300(4) 0.0143(3)
H2 H 0.3505 0.8683 -0.0292
C6 C 0.4069(4) 0.7796(4) 0.1027(3)
H3 H 0.3169 0.7836 0.1190
C7 C 0.0069(4) 0.7816(4) 0.1052(3)
C8 C 0.0903(4) 0.7069(4) 0.0474(3)
C9 C 0.0677(4) 0.7381(4) -0.0458(3)
H4 H 0.1225 0.6874 -0.0845
C10 C -0.0360(4) 0.8449(4) -0.0854(3)
C11 C -0.1113(5) 0.9177(4) -0.0280(3)
H5 H -0.1787 0.9912 -0.0539
C12 C -0.0909(4) 0.8864(4) 0.0670(3)
H6 H -0.1450 0.9378 0.1054
C13 C 0.5117(5) 0.7200(4) 0.3292(3)
H7 H 0.4349 0.7956 0.3290
H8 H 0.6003 0.7303 0.3245
C14 C 0.5134(5) 0.6376(4) 0.4162(3)
H9 H 0.5874 0.5614 0.4138
H10 H 0.5352 0.6648 0.4696
C15 C 0.2879(5) 0.7112(5) 0.4758(3)
H11 H 0.2831 0.7883 0.4472
H12 H 0.3186 0.6954 0.5413
C16 C 0.1489(5) 0.7069(4) 0.4690(3)
H13 H 0.1554 0.6277 0.4907
H14 H 0.0823 0.7578 0.5069
C17 C -0.0248(5) 0.7434(4) 0.3542(3)
H15 H -0.0942 0.7820 0.3973
H16 H -0.0169 0.6635 0.3608
C18 C -0.0684(5) 0.8056(4) 0.2571(3)
H17 H -0.1623 0.8120 0.2417
H18 H -0.0698 0.8838 0.2492
C19 C 0.8671(5) 0.5578(4) 0.1911(3)
H19 H 0.9566 0.5549 0.2127
H20 H 0.8716 0.5567 0.1243
C20 C 0.8437(5) 0.4558(4) 0.2411(3)
H21 H 0.9307 0.3862 0.2452
H22 H 0.8150 0.4665 0.3044
C21 C 0.6715(5) 0.3808(4) 0.2498(3)
H23 H 0.6152 0.4274 0.2942
H24 H 0.7421 0.3095 0.2851
C22 C 0.5798(4) 0.3513(4) 0.1930(3)
H25 H 0.6345 0.3095 0.1454
H26 H 0.5416 0.3009 0.2328
C23 C 0.3837(4) 0.4279(4) 0.0930(3)
H27 H 0.3314 0.3887 0.1319
H28 H 0.4425 0.3756 0.0528
C24 C 0.2851(4) 0.5353(4) 0.0353(3)
H29 H 0.3371 0.5774 -0.0002
H30 H 0.2330 0.5164 -0.0089
C25 C 0.5856(5) 0.8841(4) -0.1002(3)
H31 H 0.5826 0.9599 -0.0938
H32 H 0.6788 0.8385 -0.1203
C26 C 0.4880(5) 0.9597(4) -0.2501(3)
C27 C -0.0589(4) 0.8764(4) -0.1877(3)
H33 H -0.0645 0.8123 -0.2126
H34 H -0.1465 0.9447 -0.2046
C28 C 0.0643(5) 0.9163(4) -0.3164(3)
C29 C 0.3809(4) 0.9694(3) -0.3181(3)
C30 C 0.3879(5) 1.0165(4) -0.4094(3)
H35 H 0.4581 1.0440 -0.4277
C31 C 0.2913(5) 1.0228(4) -0.4737(3)
H36 H 0.2958 1.0519 -0.5371
C32 C 0.1877(4) 0.9855(4) -0.4429(3)
H37 H 0.1203 0.9873 -0.4849
C33 C 0.1849(4) 0.9457(3) -0.3501(3)
P1 P 0.24326(13) 0.33578(10) 0.37875(8)
F1 F 0.3822(3) 0.3598(3) 0.36461(18)
F2 F 0.1056(3) 0.3154(3) 0.39215(19)
F3 F 0.2897(4) 0.2714(3) 0.4813(3)
F4 F 0.1768(4) 0.4541(4) 0.4159(3)
F5 F 0.1941(4) 0.4042(4) 0.2751(3)
F6 F 0.3098(4) 0.2209(4) 0.3411(3)
F7? F 0.3479(16) 0.2263(13) 0.4507(9)
F8? F 0.2097(18) 0.3979(17) 0.4646(13)
F9? F 0.1585(14) 0.4461(12) 0.3035(9)
F10? F 0.3030(19) 0.2706(18) 0.2935(14)
loop_
_geom_bond_atom_site_label_1
_geom_bond_atom_site_label_2
_geom_bond_site_symmetry_1
_geom_bond_site_symmetry_2
K1 O1 1_555 1_555
P1 F1 1_555 1_555
F2 P1 1_555 1_555
F3 P1 1_555 1_555
F4 P1 1_555 1_555
F5 P1 1_555 1_555
F6 P1 1_555 1_555
O1 C1 1_555 1_555
O2 K1 1_555 1_555
O3 K1 1_555 1_555
O4 K1 1_555 1_555
O5 C2 1_555 1_555
O6 C20 1_555 1_555
O7 K1 1_555 1_555
O8 K1 1_555 1_555
O9 C25 1_555 1_555
O10 C26 1_555 1_555
O11 C27 1_555 1_555
O12 C28 1_555 1_555
N1 C29 1_555 1_555
C1 C2 1_555 1_555
C2 C3 1_555 1_555
C3 H1 1_555 1_555
C4 C3 1_555 1_555
C5 C4 1_555 1_555
H2 C5 1_555 1_555
C6 C1 1_555 1_555
H3 C6 1_555 1_555
C7 O4 1_555 1_555
C8 O8 1_555 1_555
C9 C8 1_555 1_555
H4 C9 1_555 1_555
C10 C9 1_555 1_555
C11 C10 1_555 1_555
H5 C11 1_555 1_555
C12 C7 1_555 1_555
H6 C12 1_555 1_555
C13 O1 1_555 1_555
H7 C13 1_555 1_555
H8 C13 1_555 1_555
C14 O2 1_555 1_555
H9 C14 1_555 1_555
H10 C14 1_555 1_555
C15 O2 1_555 1_555
H11 C15 1_555 1_555
H12 C15 1_555 1_555
C16 O3 1_555 1_555
H13 C16 1_555 1_555
H14 C16 1_555 1_555
C17 O3 1_555 1_555
H15 C17 1_555 1_555
H16 C17 1_555 1_555
C18 O4 1_555 1_555
H17 C18 1_555 1_555
H18 C18 1_555 1_555
C19 O5 1_555 1_555
H19 C19 1_555 1_555
H20 C19 1_555 1_555
C20 C19 1_555 1_555
H21 C20 1_555 1_555
H22 C20 1_555 1_555
C21 O6 1_555 1_555
H23 C21 1_555 1_555
H24 C21 1_555 1_555
C22 O7 1_555 1_555
H25 C22 1_555 1_555
H26 C22 1_555 1_555
C23 O7 1_555 1_555
H27 C23 1_555 1_555
H28 C23 1_555 1_555
C24 O8 1_555 1_555
H29 C24 1_555 1_555
H30 C24 1_555 1_555
C25 C4 1_555 1_555
H31 C25 1_555 1_555
H32 C25 1_555 1_555
C26 O9 1_555 1_555
C27 C10 1_555 1_555
H33 C27 1_555 1_555
H34 C27 1_555 1_555
C28 O11 1_555 1_555
C29 C26 1_555 1_555
C30 C29 1_555 1_555
H35 C30 1_555 1_555
C31 C30 1_555 1_555
H36 C31 1_555 1_555
C32 C31 1_555 1_555
H37 C32 1_555 1_555
C33 N1 1_555 1_555
C5 C6 1_555 1_555
C7 C8 1_555 1_555
C11 C12 1_555 1_555
C13 C14 1_555 1_555
C15 C16 1_555 1_555
C17 C18 1_555 1_555
C21 C22 1_555 1_555
C23 C24 1_555 1_555
C28 C33 1_555 1_555
C32 C33 1_555 1_555

#END
