
#######################################################################
#
#                 Cambridge Crystallographic Data Centre
#                                CCDC 
#
#######################################################################
#
# If this CIF has been generated from an entry in the Cambridge 
# Structural Database, then it will include bibliographic, chemical, 
# crystal, experimental, refinement or atomic coordinate data resulting 
# from the CCDC's data processing and validation procedures.
#
#######################################################################

data_UDOYAO
_chemical_formula_moiety         'C33 H37 N1 O12,H4 N1 1+,F6 P1 1-,C1 H1 Cl3'
_chemical_name_systematic        
'trans-4,7,10,13,20,23,26,29,34,42-decaoxa-44-azapentacyclo[15.15.11.1^36,40^.0^3,30^.0^14,19^]tetratetraconta-1(32),2,14,16,18,30,36(44),37,39-nonaene-35,41-dione ammonium clathrate hexafluorophosphate chloroform solvate'
_symmetry_cell_setting           triclinic
_symmetry_space_group_name_H-M   'P -1'
_symmetry_Int_Tables_number      2
_space_group_name_Hall           '-P 1'
loop_
_symmetry_equiv_pos_site_id
_symmetry_equiv_pos_as_xyz
1 x,y,z
2 -x,-y,-z
_cell_length_a                   10.0938(9)
_cell_length_b                   13.8315(12)
_cell_length_c                   15.2862(13)
_cell_angle_alpha                82.623(7)
_cell_angle_beta                 76.595(7)
_cell_angle_gamma                73.262(8)
_cell_volume                     1983.69
_exptl_crystal_colour            colorless
_exptl_crystal_description       prism
_cell_formula_units_Z            2
loop_
_atom_site_label
_atom_site_type_symbol
_atom_site_fract_x
_atom_site_fract_y
_atom_site_fract_z
Cl1 Cl 0.97437(6) 0.12218(4) 0.96278(4)
Cl2 Cl 1.00096(6) 0.28635(5) 1.05191(4)
Cl3 Cl 0.90980(6) 0.32949(4) 0.88276(4)
C34 C 0.9056(2) 0.25186(16) 0.98346(15)
H38 H 0.8050 0.2632 1.0163
P1 P 0.16982(6) 0.38032(4) 0.23862(4)
F1 F 0.17443(18) 0.40569(12) 0.13349(9)
F2 F 0.28597(19) 0.43813(14) 0.23378(14)
F3 F 0.29242(19) 0.27832(12) 0.21728(11)
F4 F 0.16523(17) 0.35226(13) 0.34323(9)
F5 F 0.0543(2) 0.32204(15) 0.24151(13)
F6 F 0.04891(18) 0.48231(13) 0.25915(11)
O1 O 0.58024(15) 0.27312(10) 0.93822(9)
O2 O 0.45404(14) 0.47664(10) 0.88216(9)
O3 O 0.34819(15) 0.43781(11) 0.74276(10)
O4 O 0.50648(15) 0.26439(11) 0.65892(9)
O5 O 0.74167(15) 0.15348(11) 0.81913(10)
O6 O 0.92300(16) 0.20753(12) 0.66026(11)
O7 O 0.87020(16) 0.40858(12) 0.58373(11)
O8 O 0.62081(16) 0.39334(11) 0.54049(10)
O9 O 0.33181(16) 0.06562(11) 0.49247(9)
O10 O 0.2354(2) -0.00133(14) 0.40611(11)
O11 O 0.34498(16) -0.04779(11) 0.79401(10)
O12 O 0.29037(17) -0.19447(11) 0.84323(10)
N1 N 0.26839(17) -0.05723(12) 0.63478(11)
C1 C 0.5279(2) 0.19637(14) 0.92456(13)
C2 C 0.6176(2) 0.12981(14) 0.85998(13)
C3 C 0.5790(2) 0.04751(16) 0.84139(14)
H1 H 0.6405 0.0024 0.7982
C4 C 0.4491(2) 0.03105(16) 0.88641(14)
C5 C 0.3604(2) 0.09767(16) 0.94877(15)
H2 H 0.2717 0.0870 0.9789
C6 C 0.3991(2) 0.18021(16) 0.96806(14)
H3 H 0.3371 0.2253 1.0110
C7 C 0.4981(2) 0.26703(15) 0.56926(13)
C8 C 0.5573(2) 0.33422(15) 0.50752(14)
C9 C 0.5477(2) 0.33863(16) 0.41758(14)
H4 H 0.5850 0.3857 0.3754
C10 C 0.4844(2) 0.27512(15) 0.38868(14)
H5 H 0.4764 0.2800 0.3275
C11 C 0.4326(2) 0.20419(15) 0.44974(13)
C12 C 0.4395(2) 0.20104(15) 0.53988(13)
H6 H 0.4038 0.1531 0.5818
C13 C 0.4918(2) 0.34911(15) 0.99928(14)
H7 H 0.5521 0.3840 1.0187
H8 H 0.4442 0.3155 1.0536
C14 C 0.3825(2) 0.42577(15) 0.95700(14)
H9 H 0.3219 0.3919 0.9366
H10 H 0.3218 0.4748 1.0013
C15 C 0.3626(2) 0.55552(15) 0.83690(14)
H11 H 0.4211 0.5889 0.7883
H12 H 0.3058 0.6068 0.8802
C16 C 0.2639(2) 0.51948(16) 0.79663(14)
H13 H 0.1934 0.4963 0.8449
H14 H 0.2130 0.5750 0.7591
C17 C 0.2759(2) 0.37006(16) 0.72614(14)
H15 H 0.2454 0.3899 0.6678
H16 H 0.1911 0.3712 0.7745
C18 C 0.3767(2) 0.26614(15) 0.72387(13)
H17 H 0.3984 0.2443 0.7844
H18 H 0.3315 0.2178 0.7082
C19 C 0.8455(3) 0.08146(17) 0.76216(16)
H19 H 0.8049 0.0673 0.7136
H20 H 0.8777 0.0172 0.7976
C20 C 0.9669(2) 0.12577(18) 0.72261(15)
H21 H 0.9972 0.1501 0.7709
H22 H 1.0478 0.0737 0.6916
C21 C 1.0318(2) 0.25405(19) 0.61935(16)
H23 H 1.1192 0.2023 0.5952
H24 H 1.0523 0.2904 0.6642
C22 C 0.9828(3) 0.32702(19) 0.54430(16)
H25 H 1.0617 0.3531 0.5081
H26 H 0.9492 0.2927 0.5042
C23 C 0.8021(3) 0.47870(18) 0.52087(16)
H27 H 0.8745 0.5028 0.4751
H28 H 0.7379 0.5379 0.5529
C24 C 0.7181(2) 0.43615(18) 0.47357(15)
H29 H 0.6655 0.4904 0.4358
H30 H 0.7825 0.3833 0.4340
C25 C 0.3754(2) 0.13036(15) 0.41601(13)
H31 H 0.2940 0.1669 0.3882
H32 H 0.4492 0.0897 0.3702
C26 C 0.2623(2) 0.00360(15) 0.47770(14)
C27 C 0.4116(3) -0.06317(17) 0.87294(16)
H33 H 0.4982 -0.1202 0.8639
H34 H 0.3458 -0.0807 0.9275
C28 C 0.2891(2) -0.12310(15) 0.78878(14)
C29 C 0.2164(2) -0.05820(15) 0.56141(13)
C30 C 0.1197(2) -0.11118(16) 0.55874(15)
H35 H 0.0877 -0.1108 0.5049
C31 C 0.0712(2) -0.16469(16) 0.63691(15)
H36 H 0.0014 -0.1990 0.6386
C32 C 0.1262(2) -0.16721(15) 0.71236(14)
H37 H 0.0971 -0.2048 0.7663
C33 C 0.2248(2) -0.11350(14) 0.70729(14)
N2 N 0.66469(17) 0.36531(13) 0.73820(11)
H39 H 0.706(3) 0.3059(15) 0.7604(17)
H40 H 0.613(3) 0.4031(19) 0.7816(16)
H41 H 0.609(2) 0.3580(19) 0.7063(16)
H42 H 0.726(3) 0.394(2) 0.7040(18)
loop_
_geom_bond_atom_site_label_1
_geom_bond_atom_site_label_2
_geom_bond_site_symmetry_1
_geom_bond_site_symmetry_2
Cl1 C34 1_555 1_555
Cl2 C34 1_555 1_555
Cl3 C34 1_555 1_555
P1 F1 1_555 1_555
F2 P1 1_555 1_555
F3 P1 1_555 1_555
F4 P1 1_555 1_555
F5 P1 1_555 1_555
F6 P1 1_555 1_555
O1 C1 1_555 1_555
O2 C14 1_555 1_555
O3 C16 1_555 1_555
O4 C7 1_555 1_555
O5 C2 1_555 1_555
O6 C20 1_555 1_555
O7 C22 1_555 1_555
O8 C8 1_555 1_555
O9 C25 1_555 1_555
O10 C26 1_555 1_555
O11 C27 1_555 1_555
O12 C28 1_555 1_555
N1 C29 1_555 1_555
N2 H39 1_555 1_555
C1 C2 1_555 1_555
C2 C3 1_555 1_555
C3 H1 1_555 1_555
C4 C3 1_555 1_555
C5 C4 1_555 1_555
H2 C5 1_555 1_555
C6 C1 1_555 1_555
H3 C6 1_555 1_555
C7 C8 1_555 1_555
C8 C9 1_555 1_555
C9 H4 1_555 1_555
C10 C9 1_555 1_555
H5 C10 1_555 1_555
C11 C10 1_555 1_555
C12 C7 1_555 1_555
H6 C12 1_555 1_555
C13 O1 1_555 1_555
H7 C13 1_555 1_555
H8 C13 1_555 1_555
C14 C13 1_555 1_555
H9 C14 1_555 1_555
H10 C14 1_555 1_555
C15 O2 1_555 1_555
H11 C15 1_555 1_555
H12 C15 1_555 1_555
C16 C15 1_555 1_555
H13 C16 1_555 1_555
H14 C16 1_555 1_555
C17 O3 1_555 1_555
H15 C17 1_555 1_555
H16 C17 1_555 1_555
C18 O4 1_555 1_555
H17 C18 1_555 1_555
H18 C18 1_555 1_555
C19 O5 1_555 1_555
H19 C19 1_555 1_555
H20 C19 1_555 1_555
C20 C19 1_555 1_555
H21 C20 1_555 1_555
H22 C20 1_555 1_555
C21 O6 1_555 1_555
H23 C21 1_555 1_555
H24 C21 1_555 1_555
C22 C21 1_555 1_555
H25 C22 1_555 1_555
H26 C22 1_555 1_555
C23 O7 1_555 1_555
H27 C23 1_555 1_555
H28 C23 1_555 1_555
C24 O8 1_555 1_555
H29 C24 1_555 1_555
H30 C24 1_555 1_555
C25 C11 1_555 1_555
H31 C25 1_555 1_555
H32 C25 1_555 1_555
C26 O9 1_555 1_555
C27 C4 1_555 1_555
H33 C27 1_555 1_555
H34 C27 1_555 1_555
C28 O11 1_555 1_555
C29 C26 1_555 1_555
C30 C29 1_555 1_555
H35 C30 1_555 1_555
C31 C30 1_555 1_555
H36 C31 1_555 1_555
C32 C31 1_555 1_555
H37 C32 1_555 1_555
C33 N1 1_555 1_555
C34 H38 1_555 1_555
H40 N2 1_555 1_555
H41 N2 1_555 1_555
H42 N2 1_555 1_555
C5 C6 1_555 1_555
C11 C12 1_555 1_555
C17 C18 1_555 1_555
C23 C24 1_555 1_555
C28 C33 1_555 1_555
C32 C33 1_555 1_555

#END
