
#######################################################################
#
#                 Cambridge Crystallographic Data Centre
#                                CCDC 
#
#######################################################################
#
# If this CIF has been generated from an entry in the Cambridge 
# Structural Database, then it will include bibliographic, chemical, 
# crystal, experimental, refinement or atomic coordinate data resulting 
# from the CCDC's data processing and validation procedures.
#
#######################################################################

data_UDOZUJ
_chemical_name_common            "N-methyl 4-methylcarboxysydnone N'-oxide"
_chemical_formula_moiety         'C5 H6 N2 O5'
_chemical_name_systematic        
'methyl 2-methyl-5-oxo-2,5-dihydro-1,2,3-oxadiazole-4-carboxylate 3-oxide'
_symmetry_cell_setting           monoclinic
_symmetry_space_group_name_H-M   'C 2/c'
_symmetry_Int_Tables_number      15
_space_group_name_Hall           '-C 2yn'
loop_
_symmetry_equiv_pos_site_id
_symmetry_equiv_pos_as_xyz
1 x,y,z
2 1/2+x,1/2+y,z
3 -x,y,1/2-z
4 1/2-x,1/2+y,1/2-z
5 -x,-y,-z
6 1/2-x,1/2-y,-z
7 x,-y,1/2+z
8 1/2+x,1/2-y,1/2+z
_cell_length_a                   31.445(10)
_cell_length_b                   4.8418(16)
_cell_length_c                   9.487(3)
_cell_angle_alpha                90
_cell_angle_beta                 98.570(5)
_cell_angle_gamma                90
_cell_volume                     1428.27
_exptl_crystal_colour            colorless
_exptl_crystal_description       prism
_chemical_melting_point          '51-52 deg.C'
_cell_formula_units_Z            8
loop_
_atom_site_label
_atom_site_type_symbol
_atom_site_fract_x
_atom_site_fract_y
_atom_site_fract_z
N1 N 0.08185(7) -0.2439(4) 0.12043(19)
N2 N 0.06573(6) -0.4711(4) 0.0315(2)
O1 O 0.05429(5) -0.0860(3) 0.15610(17)
O2 O 0.10330(5) -0.6039(3) -0.00204(16)
C1 C 0.12384(8) -0.2572(5) 0.1546(2)
C2 C 0.13930(9) -0.4825(5) 0.0749(3)
O3 O 0.17398(6) -0.5745(3) 0.06960(17)
C3 C 0.14821(8) -0.0660(5) 0.2578(2)
O4 O 0.13145(5) 0.1123(3) 0.31902(16)
O5 O 0.18961(5) -0.1193(3) 0.27053(16)
C4 C 0.21700(8) 0.0566(5) 0.3705(3)
H1 H 0.2465 0.0039 0.3725
H2 H 0.2092 0.0361 0.4640
H3 H 0.2133 0.2458 0.3409
C5 C 0.03936(8) -0.3802(5) -0.1010(3)
H4 H 0.0153 -0.2643 -0.0802
H5 H 0.0571 -0.2648 -0.1510
H6 H 0.0279 -0.5475 -0.1523
loop_
_geom_bond_atom_site_label_1
_geom_bond_atom_site_label_2
_geom_bond_site_symmetry_1
_geom_bond_site_symmetry_2
N1 N2 1_555 1_555
N2 O2 1_555 1_555
O1 N1 1_555 1_555
O2 C2 1_555 1_555
C1 N1 1_555 1_555
C2 C1 1_555 1_555
O3 C2 1_555 1_555
C3 C1 1_555 1_555
O4 C3 1_555 1_555
O5 C3 1_555 1_555
C4 O5 1_555 1_555
H1 C4 1_555 1_555
H2 C4 1_555 1_555
H3 C4 1_555 1_555
C5 N2 1_555 1_555
H4 C5 1_555 1_555
H5 C5 1_555 1_555
H6 C5 1_555 1_555

#END
