
#######################################################################
#
#                 Cambridge Crystallographic Data Centre
#                                CCDC 
#
#######################################################################
#
# If this CIF has been generated from an entry in the Cambridge 
# Structural Database, then it will include bibliographic, chemical, 
# crystal, experimental, refinement or atomic coordinate data resulting 
# from the CCDC's data processing and validation procedures.
#
#######################################################################

data_UDUKOT
_chemical_formula_moiety         'C46 H33 N3 S1,C1 H2 Cl2'
_chemical_name_systematic        
'2-Aza-21-carba-23-thia-5,20-di-p-tolyl-10,15-diphenylporphyrin dichloromethane'
_symmetry_cell_setting           triclinic
_symmetry_space_group_name_H-M   'P -1'
_symmetry_Int_Tables_number      2
_space_group_name_Hall           '-P 1'
loop_
_symmetry_equiv_pos_site_id
_symmetry_equiv_pos_as_xyz
1 x,y,z
2 -x,-y,-z
_cell_length_a                   14.23(1)
_cell_length_b                   14.764(10)
_cell_length_c                   9.991(2)
_cell_angle_alpha                90.70(3)
_cell_angle_beta                 95.60(3)
_cell_angle_gamma                116.93(6)
_cell_volume                     1858.71
_exptl_crystal_colour            black
_exptl_crystal_description       prismatic
_chemical_melting_point          'above 300 deg.C'
_cell_formula_units_Z            2
_exptl_crystal_recrystallization_method dichloromethane/hexane
loop_
_atom_site_label
_atom_site_type_symbol
_atom_site_fract_x
_atom_site_fract_y
_atom_site_fract_z
Cl1 Cl 0.9478(2) 0.1862(1) 0.4898(2)
Cl2 Cl 0.8066(1) -0.0015(1) 0.6313(3)
C47 C 0.8153(6) 0.0913(6) 0.4787(8)
S1 S 0.23061(5) 0.02951(4) 0.92059(7)
N1 N 0.4240(2) 0.1982(2) 0.9481(3)
N2 N 0.5505(2) -0.0192(2) 1.1877(3)
N3 N 0.2246(2) -0.1291(2) 1.0658(3)
C1 C 0.0980(2) -0.0650(2) 0.8816(3)
C2 C 0.0457(2) -0.0308(2) 0.7792(3)
C3 C 0.1065(2) 0.0653(2) 0.7416(3)
C4 C 0.2113(2) 0.1128(2) 0.8096(3)
C5 C 0.2878(2) 0.2122(2) 0.7984(3)
C6 C 0.3901(2) 0.2560(2) 0.8770(3)
C7 C 0.4676(2) 0.3627(2) 0.8964(3)
C8 C 0.5490(2) 0.3671(2) 0.9830(3)
C9 C 0.5225(2) 0.2627(2) 1.0153(3)
C10 C 0.5826(2) 0.2273(2) 1.0952(3)
C11 C 0.5411(2) 0.1231(2) 1.1300(3)
C12 C 0.6079(2) 0.0760(2) 1.1538(3)
C13 C 0.4393(2) 0.0506(2) 1.1483(3)
C14 C 0.4434(2) -0.0389(2) 1.1875(3)
C15 C 0.3636(2) -0.1338(2) 1.2252(3)
C16 C 0.2567(2) -0.1697(2) 1.1742(3)
C17 C 0.1655(2) -0.2484(2) 1.2251(3)
C18 C 0.0785(2) -0.2552(2) 1.1475(3)
C19 C 0.1181(2) -0.1793(2) 1.0477(3)
C20 C 0.0554(2) -0.1546(2) 0.9468(3)
C21 C 0.2594(2) 0.2777(2) 0.7068(3)
C22 C 0.2467(3) 0.3591(2) 0.7592(4)
C23 C 0.2195(3) 0.4185(3) 0.6730(4)
C24 C 0.2049(3) 0.3994(3) 0.5370(4)
C25 C 0.2167(4) 0.3182(3) 0.4839(4)
C26 C 0.2436(3) 0.2575(3) 0.5677(4)
C27 C 0.6943(2) 0.2958(2) 1.1489(3)
C28 C 0.7659(2) 0.3642(2) 1.0694(3)
C29 C 0.8713(2) 0.4271(2) 1.1224(3)
C30 C 0.9074(2) 0.4238(2) 1.2559(3)
C31 C 0.8351(2) 0.3544(2) 1.3343(3)
C32 C 0.7307(2) 0.2919(2) 1.2836(3)
C33 C 1.0184(3) 0.4946(3) 1.3134(4)
C34 C 0.3971(2) -0.1915(2) 1.3231(3)
C35 C 0.4763(2) -0.1409(2) 1.4318(3)
C36 C 0.5090(2) -0.1946(2) 1.5219(3)
C37 C 0.4652(2) -0.3004(2) 1.5082(3)
C38 C 0.3881(3) -0.3507(2) 1.4011(3)
C39 C 0.3542(2) -0.2977(2) 1.3099(3)
C40 C 0.5005(3) -0.3588(3) 1.6081(4)
C41 C -0.0592(2) -0.2276(2) 0.9160(3)
C42 C -0.1386(2) -0.1963(2) 0.9143(3)
C43 C -0.2450(2) -0.2650(2) 0.8847(3)
C44 C -0.2739(2) -0.3678(2) 0.8568(3)
C45 C -0.1969(3) -0.4003(2) 0.8591(3)
C46 C -0.0901(2) -0.3308(2) 0.8876(3)
H2 H 0.2691 -0.0762 1.0143
H3 H -0.0254 -0.0717 0.7406
H4 H 0.0811 0.0974 0.6761
H5 H 0.4622 0.4183 0.8561
H6 H 0.6114 0.4268 1.0165
H7 H 0.6819 0.1072 1.1468
H8 H 0.3772 0.0599 1.1364
H9 H 0.1661 -0.2882 1.2990
H10 H 0.0064 -0.3002 1.1563
H11 H 0.2567 0.3738 0.8539
H12 H 0.2110 0.4737 0.7095
H13 H 0.1868 0.4411 0.4791
H14 H 0.2061 0.3041 0.3891
H15 H 0.2514 0.2021 0.5303
H16 H 0.7431 0.3683 0.9781
H17 H 0.9191 0.4728 1.0661
H18 H 0.8582 0.3499 1.4253
H19 H 0.6833 0.2461 1.3402
H20 H 1.0290 0.4821 1.4053
H21 H 1.0668 0.4837 1.2645
H22 H 1.0300 0.5629 1.3069
H23 H 0.5078 -0.0688 1.4436
H24 H 0.5623 -0.1585 1.5945
H25 H 0.3576 -0.4227 1.3894
H26 H 0.3010 -0.3344 1.2374
H27 H 0.4416 -0.4043 1.6506
H28 H 0.5283 -0.3963 1.5619
H29 H 0.5539 -0.3123 1.6742
H30 H -0.1192 -0.1265 0.9339
H31 H -0.2978 -0.2423 0.8834
H32 H -0.3466 -0.4153 0.8363
H33 H -0.2168 -0.4703 0.8411
H34 H -0.0376 -0.3538 0.8878
Cl3? Cl 0.7559(6) 0.0809(6) 0.4542(8)
H1? H 0.3874 0.1264 0.9519
loop_
_geom_bond_atom_site_label_1
_geom_bond_atom_site_label_2
_geom_bond_site_symmetry_1
_geom_bond_site_symmetry_2
Cl1 C47 1_555 1_555
Cl2 C47 1_555 1_555
S1 C1 1_555 1_555
N1 C6 1_555 1_555
N2 C12 1_555 1_555
N3 C16 1_555 1_555
C1 C2 1_555 1_555
C2 C3 1_555 1_555
C3 C4 1_555 1_555
C4 S1 1_555 1_555
C5 C4 1_555 1_555
C6 C5 1_555 1_555
C7 C6 1_555 1_555
C8 C7 1_555 1_555
C9 N1 1_555 1_555
C10 C9 1_555 1_555
C11 C10 1_555 1_555
C12 C11 1_555 1_555
C13 C11 1_555 1_555
C14 N2 1_555 1_555
C15 C14 1_555 1_555
C16 C15 1_555 1_555
C17 C16 1_555 1_555
C18 C17 1_555 1_555
C19 N3 1_555 1_555
C20 C1 1_555 1_555
C21 C5 1_555 1_555
C22 C21 1_555 1_555
C23 C22 1_555 1_555
C24 C23 1_555 1_555
C25 C24 1_555 1_555
C26 C21 1_555 1_555
C27 C10 1_555 1_555
C28 C27 1_555 1_555
C29 C28 1_555 1_555
C30 C29 1_555 1_555
C31 C30 1_555 1_555
C32 C27 1_555 1_555
C33 C30 1_555 1_555
C34 C15 1_555 1_555
C35 C34 1_555 1_555
C36 C35 1_555 1_555
C37 C36 1_555 1_555
C38 C37 1_555 1_555
C39 C34 1_555 1_555
C40 C37 1_555 1_555
C41 C20 1_555 1_555
C42 C41 1_555 1_555
C43 C42 1_555 1_555
C44 C43 1_555 1_555
C45 C44 1_555 1_555
C46 C41 1_555 1_555
H2 N3 1_555 1_555
H3 C2 1_555 1_555
H4 C3 1_555 1_555
H5 C7 1_555 1_555
H6 C8 1_555 1_555
H7 C12 1_555 1_555
H8 C13 1_555 1_555
H9 C17 1_555 1_555
H10 C18 1_555 1_555
H11 C22 1_555 1_555
H12 C23 1_555 1_555
H13 C24 1_555 1_555
H14 C25 1_555 1_555
H15 C26 1_555 1_555
H16 C28 1_555 1_555
H17 C29 1_555 1_555
H18 C31 1_555 1_555
H19 C32 1_555 1_555
H20 C33 1_555 1_555
H21 C33 1_555 1_555
H22 C33 1_555 1_555
H23 C35 1_555 1_555
H24 C36 1_555 1_555
H25 C38 1_555 1_555
H26 C39 1_555 1_555
H27 C40 1_555 1_555
H28 C40 1_555 1_555
H29 C40 1_555 1_555
H30 C42 1_555 1_555
H31 C43 1_555 1_555
H32 C44 1_555 1_555
H33 C45 1_555 1_555
H34 C46 1_555 1_555
C8 C9 1_555 1_555
C13 C14 1_555 1_555
C18 C19 1_555 1_555
C19 C20 1_555 1_555
C25 C26 1_555 1_555
C31 C32 1_555 1_555
C38 C39 1_555 1_555
C45 C46 1_555 1_555

#END
