
#######################################################################
#
#                 Cambridge Crystallographic Data Centre
#                                CCDC 
#
#######################################################################
#
# If this CIF has been generated from an entry in the Cambridge 
# Structural Database, then it will include bibliographic, chemical, 
# crystal, experimental, refinement or atomic coordinate data resulting 
# from the CCDC's data processing and validation procedures.
#
#######################################################################

data_UDUPOZ
_chemical_formula_moiety         'C17 H16 O5'
_chemical_name_systematic        
3-((1,3-Benzodioxol-5-yl)methylene)-4-(pentan-3-ylidene)tetrahydrofuran-2,5-dione
_symmetry_cell_setting           monoclinic
_symmetry_space_group_name_H-M   'C 2/c'
_symmetry_Int_Tables_number      15
_space_group_name_Hall           '-C 2yn'
loop_
_symmetry_equiv_pos_site_id
_symmetry_equiv_pos_as_xyz
1 x,y,z
2 1/2+x,1/2+y,z
3 -x,y,1/2-z
4 1/2-x,1/2+y,1/2-z
5 -x,-y,-z
6 1/2-x,1/2-y,-z
7 x,-y,1/2+z
8 1/2+x,1/2-y,1/2+z
_cell_length_a                   21.0914(3)
_cell_length_b                   10.4909(2)
_cell_length_c                   14.2684(2)
_cell_angle_alpha                90
_cell_angle_beta                 110.6560(10)
_cell_angle_gamma                90
_cell_volume                     2954.18
_exptl_crystal_colour            orange-yellow
_exptl_crystal_description       block
_cell_formula_units_Z            8
_exptl_crystal_recrystallization_method dichloromethane
loop_
_atom_site_label
_atom_site_type_symbol
_atom_site_fract_x
_atom_site_fract_y
_atom_site_fract_z
C1 C 0.50597(11) 0.1433(2) 0.09603(19)
H1 H 0.5511 0.1470 0.1464
H2 H 0.5102 0.1303 0.0312
C2 C 0.41037(10) 0.09418(19) 0.12185(15)
C3 C 0.41168(9) 0.22456(18) 0.10944(13)
C4 C 0.36026(9) 0.30202(17) 0.11198(14)
H3 H 0.3619 0.3897 0.1033
C5 C 0.30475(9) 0.24430(17) 0.12824(13)
C6 C 0.30334(10) 0.11233(19) 0.13665(15)
H4 H 0.2656 0.0744 0.1444
C7 C 0.35620(11) 0.03484(19) 0.13395(17)
H5 H 0.3547 -0.0533 0.1401
C8 C 0.24709(9) 0.31722(18) 0.13190(13)
H6 H 0.2082 0.2691 0.1218
C9 C 0.24012(9) 0.44169(18) 0.14725(14)
C10 C 0.17018(10) 0.4924(2) 0.11986(15)
C11 C 0.23940(11) 0.6642(2) 0.12756(16)
C12 C 0.28464(9) 0.55359(18) 0.17105(15)
C13 C 0.34872(9) 0.56812(18) 0.23532(14)
C14 C 0.38614(11) 0.4624(2) 0.30374(16)
H8 H 0.4288 0.4474 0.2940
H9 H 0.3596 0.3847 0.2860
C15 C 0.40001(14) 0.4921(3) 0.41240(17)
H10 H 0.4255 0.5698 0.4300
H11 H 0.4255 0.4237 0.4532
H12 H 0.3579 0.5016 0.4233
C16 C 0.38779(11) 0.6895(2) 0.24180(18)
H13 H 0.4253 0.6924 0.3052
H14 H 0.3586 0.7618 0.2392
C17 C 0.41472(13) 0.6982(3) 0.1561(2)
H15 H 0.4412 0.6238 0.1562
H16 H 0.4425 0.7729 0.1645
H17 H 0.3774 0.7034 0.0937
O1 O 0.47048(7) 0.25917(14) 0.09591(13)
O2 O 0.46851(8) 0.04115(14) 0.11749(13)
O3 O 0.11796(7) 0.44018(16) 0.10856(12)
O4 O 0.17249(7) 0.62320(14) 0.10505(11)
O5 O 0.25015(9) 0.77286(16) 0.11528(14)
H7? H 0.2982 0.5431 0.1125
loop_
_geom_bond_atom_site_label_1
_geom_bond_atom_site_label_2
_geom_bond_site_symmetry_1
_geom_bond_site_symmetry_2
C1 H1 1_555 1_555
H2 C1 1_555 1_555
C2 C3 1_555 1_555
C3 C4 1_555 1_555
C4 H3 1_555 1_555
C5 C4 1_555 1_555
C6 C5 1_555 1_555
H4 C6 1_555 1_555
C7 C2 1_555 1_555
H5 C7 1_555 1_555
C8 C5 1_555 1_555
H6 C8 1_555 1_555
C9 C8 1_555 1_555
C10 C9 1_555 1_555
C11 C12 1_555 1_555
C12 C9 1_555 1_555
C13 C12 1_555 1_555
C14 C13 1_555 1_555
H8 C14 1_555 1_555
H9 C14 1_555 1_555
C15 C14 1_555 1_555
H10 C15 1_555 1_555
H11 C15 1_555 1_555
H12 C15 1_555 1_555
C16 C13 1_555 1_555
H13 C16 1_555 1_555
H14 C16 1_555 1_555
C17 C16 1_555 1_555
H15 C17 1_555 1_555
H16 C17 1_555 1_555
H17 C17 1_555 1_555
O1 C1 1_555 1_555
O2 C1 1_555 1_555
O3 C10 1_555 1_555
O4 C10 1_555 1_555
O5 C11 1_555 1_555
C2 O2 1_555 1_555
C3 O1 1_555 1_555
C6 C7 1_555 1_555
C11 O4 1_555 1_555

#END
