
#######################################################################
#
#                 Cambridge Crystallographic Data Centre
#                                CCDC 
#
#######################################################################
#
# If this CIF has been generated from an entry in the Cambridge 
# Structural Database, then it will include bibliographic, chemical, 
# crystal, experimental, refinement or atomic coordinate data resulting 
# from the CCDC's data processing and validation procedures.
#
#######################################################################

data_UDUQOA
_chemical_formula_moiety         'C11 H9 Cl1 N2 O2'
_chemical_name_systematic        
3-(2-Chlorophenyl)-N-methylisoxazole-5-carboxamide
_symmetry_cell_setting           orthorhombic
_symmetry_space_group_name_H-M   'F d d 2'
_symmetry_Int_Tables_number      43
_space_group_name_Hall           'F 2 -2d'
loop_
_symmetry_equiv_pos_site_id
_symmetry_equiv_pos_as_xyz
1 x,y,z
2 -x,-y,z
3 1/4+x,1/4-y,1/4+z
4 1/4-x,1/4+y,1/4+z
5 x,1/2+y,1/2+z
6 -x,1/2-y,1/2+z
7 1/4+x,3/4-y,3/4+z
8 1/4-x,3/4+y,3/4+z
9 1/2+x,y,1/2+z
10 1/2-x,-y,1/2+z
11 3/4+x,1/4-y,3/4+z
12 3/4-x,1/4+y,3/4+z
13 1/2+x,1/2+y,z
14 1/2-x,1/2-y,z
15 3/4+x,3/4-y,1/4+z
16 3/4-x,3/4+y,1/4+z
_cell_length_a                   18.722(4)
_cell_length_b                   31.454(6)
_cell_length_c                   7.2137(14)
_cell_angle_alpha                90
_cell_angle_beta                 90
_cell_angle_gamma                90
_cell_volume                     4248.02
_exptl_crystal_colour            colorless
_exptl_crystal_description       block
_cell_formula_units_Z            16
_exptl_crystal_recrystallization_method hexane/dichloromethane
loop_
_atom_site_label
_atom_site_type_symbol
_atom_site_fract_x
_atom_site_fract_y
_atom_site_fract_z
Cl1 Cl 0.40451(3) 0.01932(2) 0.63140(14)
O1 O 0.15158(7) 0.05205(5) 0.7033(3)
C1 C 0.28830(11) -0.02604(7) 0.7458(3)
C2 C 0.18338(12) 0.12278(7) 0.7981(3)
O2 O 0.12321(9) 0.13506(6) 0.7591(3)
N1 N 0.23485(9) 0.14753(6) 0.8611(3)
H1 H 0.2762 0.1366 0.8827
N2 N 0.17918(10) 0.01105(6) 0.6847(3)
C3 C 0.24522(12) 0.01304(7) 0.7449(3)
C4 C 0.26279(11) 0.05475(7) 0.8031(3)
H2 H 0.3061 0.0643 0.8506
C5 C 0.20348(11) 0.07743(7) 0.7747(3)
C6 C 0.36072(12) -0.02668(8) 0.7037(4)
C7 C 0.39989(14) -0.06374(9) 0.7098(4)
H3 H 0.4482 -0.0633 0.6804
C8 C 0.25671(14) -0.06454(8) 0.7907(4)
H4 H 0.2081 -0.0653 0.8169
C9 C 0.29559(15) -0.10164(9) 0.7974(4)
H5 H 0.2731 -0.1271 0.8278
C10 C 0.22384(14) 0.19281(8) 0.8955(5)
H6 H 0.2622 0.2036 0.9702
H7 H 0.1794 0.1969 0.9593
H8 H 0.2227 0.2078 0.7795
C11 C 0.36764(16) -0.10126(9) 0.7592(5)
H9 H 0.3942 -0.1262 0.7669
loop_
_geom_bond_atom_site_label_1
_geom_bond_atom_site_label_2
_geom_bond_site_symmetry_1
_geom_bond_site_symmetry_2
Cl1 C6 1_555 1_555
O1 N2 1_555 1_555
C1 C3 1_555 1_555
C2 O2 1_555 1_555
N1 C2 1_555 1_555
H1 N1 1_555 1_555
N2 C3 1_555 1_555
C3 C4 1_555 1_555
C4 H2 1_555 1_555
C5 O1 1_555 1_555
C6 C1 1_555 1_555
C7 C6 1_555 1_555
H3 C7 1_555 1_555
C8 C1 1_555 1_555
H4 C8 1_555 1_555
C9 C8 1_555 1_555
H5 C9 1_555 1_555
C10 N1 1_555 1_555
H6 C10 1_555 1_555
H7 C10 1_555 1_555
H8 C10 1_555 1_555
C11 C7 1_555 1_555
H9 C11 1_555 1_555
C2 C5 1_555 1_555
C4 C5 1_555 1_555
C9 C11 1_555 1_555

#END
