
#######################################################################
#
#                 Cambridge Crystallographic Data Centre
#                                CCDC 
#
#######################################################################
#
# If this CIF has been generated from an entry in the Cambridge 
# Structural Database, then it will include bibliographic, chemical, 
# crystal, experimental, refinement or atomic coordinate data resulting 
# from the CCDC's data processing and validation procedures.
#
#######################################################################

data_UDURIX
_chemical_formula_moiety         'C17 H11 N1 O2'
_chemical_name_systematic        
(2-oxo-4-phenyl-2H-1-benzopyran-3-yl)acetonitrile
_symmetry_cell_setting           triclinic
_symmetry_space_group_name_H-M   'P -1'
_symmetry_Int_Tables_number      2
_space_group_name_Hall           '-P 1'
loop_
_symmetry_equiv_pos_site_id
_symmetry_equiv_pos_as_xyz
1 x,y,z
2 -x,-y,-z
_cell_length_a                   9.812(2)
_cell_length_b                   15.260(3)
_cell_length_c                   18.464(4)
_cell_angle_alpha                108.25(3)
_cell_angle_beta                 98.59(3)
_cell_angle_gamma                92.69(3)
_cell_volume                     2583.16
_cell_formula_units_Z            8
loop_
_atom_site_label
_atom_site_type_symbol
_atom_site_fract_x
_atom_site_fract_y
_atom_site_fract_z
O1 O 0.49753(16) 0.84150(10) 1.02034(8)
O2 O 0.68686(17) 0.84291(11) 1.10201(9)
N1 N 0.9849(3) 0.74962(17) 0.99393(14)
C1 C 0.4324(2) 0.85876(15) 0.95560(12)
C2 C 0.2906(2) 0.83345(16) 0.93564(13)
H1 H 0.2439 0.8037 0.9644
C3 C 0.2192(3) 0.85249(16) 0.87311(14)
H2 H 0.1224 0.8347 0.8580
C4 C 0.2870(3) 0.89729(16) 0.83204(14)
H3 H 0.2356 0.9132 0.7909
C5 C 0.4293(2) 0.91898(15) 0.85069(13)
H4 H 0.4753 0.9475 0.8209
C6 C 0.5059(2) 0.89922(14) 0.91307(12)
C7 C 0.6559(2) 0.91363(14) 0.93344(12)
C8 C 0.7183(2) 0.89390(15) 0.99623(12)
C9 C 0.6384(2) 0.85833(15) 1.04347(13)
C10 C 0.8718(2) 0.90638(16) 1.02388(14)
H5 H 0.9157 0.9458 0.9985
H6 H 0.8909 0.9393 1.0804
C11 C 0.9350(3) 0.81813(19) 1.00780(14)
C12 C 0.7380(2) 0.94222(15) 0.88114(12)
C13 C 0.7401(2) 1.03039(15) 0.87441(12)
H7 H 0.6864 1.0746 0.9028
C14 C 0.8208(3) 1.05401(16) 0.82613(13)
H8 H 0.8235 1.1149 0.8228
C15 C 0.8970(2) 0.98971(16) 0.78296(13)
H9 H 0.9516 1.0061 0.7499
C16 C 0.8928(2) 0.90129(16) 0.78837(12)
H10 H 0.9431 0.8563 0.7580
C17 C 0.8156(2) 0.87774(15) 0.83798(12)
H11 H 0.8156 0.8174 0.8425
O3 O -0.10152(18) 0.39833(10) 0.16695(9)
O4 O 0.0700(2) 0.32835(11) 0.20859(10)
N2 N 0.3784(2) 0.32549(16) 0.08453(14)
C18 C -0.1489(3) 0.46982(16) 0.14205(13)
C19 C -0.2903(3) 0.47077(18) 0.12824(14)
H12 H -0.3497 0.4237 0.1346
C20 C -0.3445(3) 0.54151(19) 0.10498(15)
H13 H -0.4420 0.5433 0.0953
C21 C -0.2569(3) 0.61017(18) 0.09559(15)
H14 H -0.2948 0.6588 0.0798
C22 C -0.1160(3) 0.60780(16) 0.10905(13)
H15 H -0.0571 0.6545 0.1019
C23 C -0.0578(2) 0.53700(15) 0.13323(12)
C24 C 0.0902(2) 0.53073(15) 0.15062(12)
C25 C 0.1343(3) 0.45989(15) 0.17423(12)
C26 C 0.0380(3) 0.39100(16) 0.18458(13)
C27 C 0.2853(3) 0.44727(16) 0.19440(14)
H16 H 0.3411 0.5075 0.2067
H17 H 0.2990 0.4282 0.2413
C28 C 0.3357(3) 0.37813(18) 0.13208(15)
C29 C 0.1913(2) 0.60403(15) 0.14546(12)
C30 C 0.2604(3) 0.67081(17) 0.21251(14)
H18 H 0.2403 0.6710 0.2613
C31 C 0.3587(3) 0.73747(18) 0.20925(14)
H19 H 0.4044 0.7831 0.2557
C32 C 0.3898(3) 0.73770(17) 0.13949(14)
H20 H 0.4574 0.7829 0.1371
C33 C 0.3219(3) 0.67158(18) 0.07288(14)
H21 H 0.3434 0.6711 0.0243
C34 C 0.2227(3) 0.60571(17) 0.07556(14)
H22 H 0.1759 0.5612 0.0288
O5 O 0.33785(16) 0.90537(10) 0.42255(9)
O6 O 0.33724(17) 0.78007(11) 0.45776(10)
N3 N 0.4760(3) 0.58448(16) 0.35357(15)
C35 C 0.4031(2) 0.96941(15) 0.39675(12)
C36 C 0.3270(3) 1.03957(15) 0.38619(13)
H23 H 0.2342 1.0417 0.3953
C37 C 0.3879(3) 1.10642(16) 0.36222(13)
H24 H 0.3373 1.1556 0.3552
C38 C 0.5236(3) 1.10201(16) 0.34830(13)
H25 H 0.5658 1.1489 0.3327
C39 C 0.5968(3) 1.03040(15) 0.35692(13)
H26 H 0.6886 1.0275 0.3462
C40 C 0.5374(2) 0.96122(14) 0.38145(12)
C41 C 0.6083(2) 0.88412(15) 0.39292(11)
C42 C 0.5443(2) 0.82440(15) 0.42116(12)
C43 C 0.4036(2) 0.83343(16) 0.43624(12)
C44 C 0.6083(2) 0.74360(14) 0.43860(13)
H27 H 0.7053 0.7444 0.4297
H28 H 0.6098 0.7506 0.4939
C45 C 0.5331(3) 0.65456(18) 0.39086(15)
C46 C 0.7490(2) 0.87249(14) 0.37176(12)
C47 C 0.7627(3) 0.84727(15) 0.29374(13)
H29 H 0.6827 0.8376 0.2551
C48 C 0.8920(3) 0.83633(15) 0.27241(14)
H30 H 0.9002 0.8182 0.2192
C49 C 1.0092(3) 0.85175(15) 0.32841(14)
H31 H 1.0981 0.8452 0.3140
C50 C 0.9958(2) 0.87682(15) 0.40565(14)
H32 H 1.0760 0.8871 0.4442
C51 C 0.8673(2) 0.88703(15) 0.42728(13)
H33 H 0.8598 0.9041 0.4805
O7 O -0.13498(16) 0.56179(10) 0.58180(9)
O8 O -0.16548(18) 0.67852(12) 0.53661(10)
N4 N 0.0407(3) 0.89670(16) 0.63019(14)
C52 C -0.0482(3) 0.50902(15) 0.61267(12)
C53 C -0.1125(3) 0.43383(16) 0.62631(13)
H34 H -0.2105 0.4214 0.6160
C54 C -0.0295(3) 0.37806(16) 0.65520(13)
H35 H -0.0711 0.3261 0.6646
C55 C 0.1134(3) 0.39601(16) 0.67089(14)
H36 H 0.1690 0.3568 0.6910
C56 C 0.1746(3) 0.47097(15) 0.65720(12)
H37 H 0.2726 0.4834 0.6683
C57 C 0.0943(2) 0.52902(14) 0.62716(12)
C58 C 0.1527(2) 0.60773(14) 0.60940(12)
C59 C 0.0668(2) 0.65734(15) 0.57751(12)
C60 C -0.0824(3) 0.63608(16) 0.56348(13)
C61 C 0.1152(2) 0.73767(14) 0.55297(13)
H38 H 0.2176 0.7428 0.5593
H39 H 0.0781 0.7245 0.4973
C62 C 0.0723(3) 0.82647(18) 0.59706(14)
C63 C 0.3059(2) 0.63047(14) 0.62736(13)
C64 C 0.3868(2) 0.60473(16) 0.56957(13)
H40 H 0.3437 0.5733 0.5176
C65 C 0.5293(3) 0.62455(16) 0.58721(14)
H41 H 0.5839 0.6063 0.5476
C66 C 0.5921(3) 0.67117(16) 0.66291(15)
H42 H 0.6898 0.6852 0.6753
C67 C 0.5124(3) 0.69721(16) 0.72044(14)
H43 H 0.5558 0.7296 0.7722
C68 C 0.3703(2) 0.67653(15) 0.70339(13)
H44 H 0.3166 0.6937 0.7435
loop_
_geom_bond_atom_site_label_1
_geom_bond_atom_site_label_2
_geom_bond_site_symmetry_1
_geom_bond_site_symmetry_2
O1 C1 1_555 1_555
O2 C9 1_555 1_555
N1 C11 1_555 1_555
C1 C2 1_555 1_555
C2 H1 1_555 1_555
C3 C2 1_555 1_555
H2 C3 1_555 1_555
C4 C3 1_555 1_555
H3 C4 1_555 1_555
C5 C4 1_555 1_555
H4 C5 1_555 1_555
C6 C1 1_555 1_555
C7 C6 1_555 1_555
C8 C7 1_555 1_555
C9 O1 1_555 1_555
C10 C8 1_555 1_555
H5 C10 1_555 1_555
H6 C10 1_555 1_555
C11 C10 1_555 1_555
C12 C7 1_555 1_555
C13 C12 1_555 1_555
H7 C13 1_555 1_555
C14 C13 1_555 1_555
H8 C14 1_555 1_555
C15 C14 1_555 1_555
H9 C15 1_555 1_555
C16 C15 1_555 1_555
H10 C16 1_555 1_555
C17 C12 1_555 1_555
H11 C17 1_555 1_555
O3 C18 1_555 1_555
O4 C26 1_555 1_555
N2 C28 1_555 1_555
C18 C19 1_555 1_555
C19 H12 1_555 1_555
C20 C19 1_555 1_555
H13 C20 1_555 1_555
C21 C20 1_555 1_555
H14 C21 1_555 1_555
C22 C21 1_555 1_555
H15 C22 1_555 1_555
C23 C18 1_555 1_555
C24 C23 1_555 1_555
C25 C24 1_555 1_555
C26 O3 1_555 1_555
C27 C25 1_555 1_555
H16 C27 1_555 1_555
H17 C27 1_555 1_555
C28 C27 1_555 1_555
C29 C24 1_555 1_555
C30 C29 1_555 1_555
H18 C30 1_555 1_555
C31 C30 1_555 1_555
H19 C31 1_555 1_555
C32 C31 1_555 1_555
H20 C32 1_555 1_555
C33 C32 1_555 1_555
H21 C33 1_555 1_555
C34 C29 1_555 1_555
H22 C34 1_555 1_555
O5 C35 1_555 1_555
O6 C43 1_555 1_555
N3 C45 1_555 1_555
C35 C36 1_555 1_555
C36 H23 1_555 1_555
C37 C36 1_555 1_555
H24 C37 1_555 1_555
C38 C37 1_555 1_555
H25 C38 1_555 1_555
C39 C38 1_555 1_555
H26 C39 1_555 1_555
C40 C35 1_555 1_555
C41 C40 1_555 1_555
C42 C41 1_555 1_555
C43 O5 1_555 1_555
C44 C42 1_555 1_555
H27 C44 1_555 1_555
H28 C44 1_555 1_555
C45 C44 1_555 1_555
C46 C41 1_555 1_555
C47 C46 1_555 1_555
H29 C47 1_555 1_555
C48 C47 1_555 1_555
H30 C48 1_555 1_555
C49 C48 1_555 1_555
H31 C49 1_555 1_555
C50 C49 1_555 1_555
H32 C50 1_555 1_555
C51 C46 1_555 1_555
H33 C51 1_555 1_555
O7 C52 1_555 1_555
O8 C60 1_555 1_555
N4 C62 1_555 1_555
C52 C53 1_555 1_555
C53 H34 1_555 1_555
C54 C53 1_555 1_555
H35 C54 1_555 1_555
C55 C54 1_555 1_555
H36 C55 1_555 1_555
C56 C55 1_555 1_555
H37 C56 1_555 1_555
C57 C52 1_555 1_555
C58 C57 1_555 1_555
C59 C58 1_555 1_555
C60 O7 1_555 1_555
C61 C59 1_555 1_555
H38 C61 1_555 1_555
H39 C61 1_555 1_555
C62 C61 1_555 1_555
C63 C58 1_555 1_555
C64 C63 1_555 1_555
H40 C64 1_555 1_555
C65 C64 1_555 1_555
H41 C65 1_555 1_555
C66 C65 1_555 1_555
H42 C66 1_555 1_555
C67 C66 1_555 1_555
H43 C67 1_555 1_555
C68 C63 1_555 1_555
H44 C68 1_555 1_555
C5 C6 1_555 1_555
C8 C9 1_555 1_555
C16 C17 1_555 1_555
C22 C23 1_555 1_555
C25 C26 1_555 1_555
C33 C34 1_555 1_555
C39 C40 1_555 1_555
C42 C43 1_555 1_555
C50 C51 1_555 1_555
C56 C57 1_555 1_555
C59 C60 1_555 1_555
C67 C68 1_555 1_555

#END
