
#######################################################################
#
#                 Cambridge Crystallographic Data Centre
#                                CCDC 
#
#######################################################################
#
# If this CIF has been generated from an entry in the Cambridge 
# Structural Database, then it will include bibliographic, chemical, 
# crystal, experimental, refinement or atomic coordinate data resulting 
# from the CCDC's data processing and validation procedures.
#
#######################################################################

data_UDURET
_chemical_formula_moiety         'C25 H22 Cl1 N1 O3 S1'
_chemical_name_systematic        
7-chloro-1-methyl-3-{[(4-methylphenyl)sulfonyl]methyl}-5-phenyl-1,3-dihydro-2H-1-benzazepin-2-one
_symmetry_cell_setting           triclinic
_symmetry_space_group_name_H-M   'P -1'
_symmetry_Int_Tables_number      2
_space_group_name_Hall           '-P 1'
loop_
_symmetry_equiv_pos_site_id
_symmetry_equiv_pos_as_xyz
1 x,y,z
2 -x,-y,-z
_cell_length_a                   10.2719(7)
_cell_length_b                   10.4262(7)
_cell_length_c                   11.7012(8)
_cell_angle_alpha                69.168(2)
_cell_angle_beta                 73.012(2)
_cell_angle_gamma                86.849(2)
_cell_volume                     1118.45
_cell_formula_units_Z            2
loop_
_atom_site_label
_atom_site_type_symbol
_atom_site_fract_x
_atom_site_fract_y
_atom_site_fract_z
C1 C 0.8733(2) 0.29166(18) 0.24471(18)
C2 C 0.9056(2) 0.42340(19) 0.23880(18)
H1 H 0.841582 0.465889 0.289089
C3 C 1.0279(2) 0.49183(19) 0.16183(19)
C4 C 1.1239(2) 0.4339(2) 0.0869(2)
H2 H 1.208379 0.482226 0.033989
C5 C 1.0947(2) 0.3045(2) 0.0903(2)
H3 H 1.159805 0.263926 0.038999
C6 C 0.9705(2) 0.23234(19) 0.16831(19)
C7 C 1.0700(2) 0.0093(2) 0.1713(3)
H4 H 1.038575 -0.087455 0.217791
H5 H 1.129525 0.035717 0.212096
H6 H 1.120692 0.022114 0.082543
C8 C 0.8376(2) 0.04205(19) 0.16601(19)
C9 C 0.71739(19) 0.13547(18) 0.16401(18)
H7 H 0.749922 0.228557 0.098243
C10 C 0.6702(2) 0.14656(18) 0.29455(18)
H8 H 0.587193 0.099441 0.352982
C11 C 0.7415(2) 0.22066(18) 0.33087(18)
C12 C 0.6880(2) 0.23564(18) 0.45829(18)
C13 C 0.5495(2) 0.2479(2) 0.5086(2)
H9 H 0.489155 0.248785 0.460424
C14 C 0.4982(3) 0.2587(2) 0.6280(2)
H10 H 0.403104 0.266294 0.661335
C15 C 0.5852(3) 0.2586(2) 0.6988(2)
H11 H 0.550337 0.265976 0.780792
C16 C 0.7231(3) 0.2478(2) 0.6492(2)
H12 H 0.783102 0.248039 0.697351
C17 C 0.7749(2) 0.23644(18) 0.5302(2)
H13 H 0.870070 0.229183 0.497224
C18 C 0.3099(2) 0.13133(19) 0.32029(19)
H14 H 0.307769 0.039307 0.322970
C19 C 0.2301(2) 0.1660(2) 0.4222(2)
H15 H 0.174495 0.096896 0.495620
C20 C 0.2310(2) 0.3020(2) 0.4177(2)
C21 C 0.3142(2) 0.4001(2) 0.3106(2)
H16 H 0.315118 0.492711 0.306457
C22 C 0.3964(2) 0.36705(19) 0.2090(2)
H17 H 0.454401 0.435588 0.136798
C23 C 0.3927(2) 0.23269(18) 0.21444(18)
C24 C 0.1444(3) 0.3398(3) 0.5284(3)
H18 H 0.179455 0.427798 0.523294
H19 H 0.147486 0.268273 0.608988
H20 H 0.050018 0.347726 0.524916
C25 C 0.6091(2) 0.07500(18) 0.12960(19)
H21 H 0.560808 -0.004554 0.204846
H22 H 0.654853 0.040434 0.060016
Cl1 Cl 1.06129(6) 0.65556(5) 0.15833(5)
N1 N 0.95203(17) 0.09534(16) 0.17348(17)
O1 O 0.83018(16) -0.07395(14) 0.16491(16)
O2 O 0.55952(16) 0.31584(14) -0.01625(13)
O3 O 0.39592(15) 0.11865(15) 0.04889(15)
S1 S 0.48742(5) 0.19199(5) 0.08026(4)
loop_
_geom_bond_atom_site_label_1
_geom_bond_atom_site_label_2
_geom_bond_site_symmetry_1
_geom_bond_site_symmetry_2
C1 C2 1_555 1_555
C2 H1 1_555 1_555
C3 C2 1_555 1_555
C4 C3 1_555 1_555
H2 C4 1_555 1_555
C5 C4 1_555 1_555
H3 C5 1_555 1_555
C6 C1 1_555 1_555
C7 H4 1_555 1_555
H5 C7 1_555 1_555
H6 C7 1_555 1_555
C8 C9 1_555 1_555
C9 H7 1_555 1_555
C10 C9 1_555 1_555
H8 C10 1_555 1_555
C11 C1 1_555 1_555
C12 C11 1_555 1_555
C13 C12 1_555 1_555
H9 C13 1_555 1_555
C14 C13 1_555 1_555
H10 C14 1_555 1_555
C15 C14 1_555 1_555
H11 C15 1_555 1_555
C16 C15 1_555 1_555
H12 C16 1_555 1_555
C17 C12 1_555 1_555
H13 C17 1_555 1_555
C18 H14 1_555 1_555
C19 C18 1_555 1_555
H15 C19 1_555 1_555
C20 C19 1_555 1_555
C21 C20 1_555 1_555
H16 C21 1_555 1_555
C22 C21 1_555 1_555
H17 C22 1_555 1_555
C23 C18 1_555 1_555
C24 C20 1_555 1_555
H18 C24 1_555 1_555
H19 C24 1_555 1_555
H20 C24 1_555 1_555
C25 C9 1_555 1_555
H21 C25 1_555 1_555
H22 C25 1_555 1_555
Cl1 C3 1_555 1_555
N1 C6 1_555 1_555
O1 C8 1_555 1_555
O2 S1 1_555 1_555
O3 S1 1_555 1_555
S1 C23 1_555 1_555
C5 C6 1_555 1_555
C7 N1 1_555 1_555
C8 N1 1_555 1_555
C10 C11 1_555 1_555
C16 C17 1_555 1_555
C22 C23 1_555 1_555
C25 S1 1_555 1_555

#END
