
#######################################################################
#
#                 Cambridge Crystallographic Data Centre
#                                CCDC 
#
#######################################################################
#
# If this CIF has been generated from an entry in the Cambridge 
# Structural Database, then it will include bibliographic, chemical, 
# crystal, experimental, refinement or atomic coordinate data resulting 
# from the CCDC's data processing and validation procedures.
#
#######################################################################

data_UDUSUI
_chemical_formula_moiety         'C16 H20 N2 O7 S1'
_chemical_name_systematic        
'Ethyl 2-(N-cyclohexyl-2-nitrophenylsulfonamido)-2-oxoacetate'
_symmetry_cell_setting           monoclinic
_symmetry_space_group_name_H-M   'P 21/n'
_symmetry_Int_Tables_number      14
_space_group_name_Hall           '-P 2yn'
loop_
_symmetry_equiv_pos_site_id
_symmetry_equiv_pos_as_xyz
1 x,y,z
2 1/2-x,1/2+y,1/2-z
3 -x,-y,-z
4 1/2+x,1/2-y,1/2+z
_cell_length_a                   10.962(7)
_cell_length_b                   12.352(7)
_cell_length_c                   13.879(8)
_cell_angle_alpha                90
_cell_angle_beta                 101.813(11)
_cell_angle_gamma                90
_cell_volume                     1839.45
_exptl_crystal_colour            colorless
_exptl_crystal_description       block
_chemical_melting_point          '391-392 K'
_cell_formula_units_Z            4
_exptl_crystal_recrystallization_method 'petroleum ether/ethyl acetate'
loop_
_atom_site_label
_atom_site_type_symbol
_atom_site_fract_x
_atom_site_fract_y
_atom_site_fract_z
S1 S 0.30775(8) 0.54366(6) 0.13647(6)
O1 O -0.0287(3) 0.6633(2) 0.0056(2)
O2 O 0.1287(3) 0.7293(2) 0.10732(18)
O3 O 0.2700(2) 0.56089(16) 0.03315(15)
O4 O 0.3794(2) 0.62380(16) 0.19704(17)
O5 O 0.5814(3) 0.3564(2) 0.2134(2)
O6 O 0.4471(3) 0.4822(2) 0.36867(19)
O7 O 0.6185(2) 0.55085(19) 0.32483(16)
N1 N 0.0524(3) 0.6590(2) 0.0797(2)
N2 N 0.3898(2) 0.42994(18) 0.15192(18)
C1 C 0.0573(3) 0.5618(2) 0.1426(2)
C2 C -0.0531(3) 0.5281(3) 0.1653(3)
H1 H -0.1273 0.5634 0.1389
C3 C -0.0524(4) 0.4413(3) 0.2278(3)
H2 H -0.1263 0.4173 0.2438
C4 C 0.0586(4) 0.3903(3) 0.2665(3)
H3 H 0.0592 0.3324 0.3094
C5 C 0.1687(3) 0.4233(2) 0.2427(2)
H4 H 0.2425 0.3874 0.2694
C6 C 0.1703(3) 0.5101(2) 0.1792(2)
C7 C 0.3473(3) 0.3418(2) 0.0781(2)
H5 H 0.2593 0.3564 0.0502
C8 C 0.4136(3) 0.3436(3) -0.0075(2)
H6 H 0.5012 0.3272 0.0158
H7 H 0.4072 0.4152 -0.0368
C9 C 0.3552(3) 0.2602(3) -0.0844(2)
H8 H 0.2698 0.2809 -0.1121
H9 H 0.4008 0.2591 -0.1374
C10 C 0.3567(4) 0.1474(3) -0.0398(3)
H10 H 0.3144 0.0972 -0.0892
H11 H 0.4422 0.1232 -0.0186
C11 C 0.2935(4) 0.1475(3) 0.0467(3)
H12 H 0.2993 0.0757 0.0757
H13 H 0.2059 0.1644 0.0241
C12 C 0.3517(4) 0.2296(3) 0.1251(2)
H14 H 0.4374 0.2097 0.1524
H15 H 0.3061 0.2302 0.1780
C13 C 0.5018(4) 0.4223(3) 0.2206(3)
C14 C 0.5169(4) 0.4910(3) 0.3133(3)
C15 C 0.6404(4) 0.6210(3) 0.4111(3)
H16 H 0.6423 0.5787 0.4702
H17 H 0.5742 0.6743 0.4057
C16 C 0.7611(4) 0.6753(4) 0.4156(4)
H18 H 0.8246 0.6219 0.4152
H19 H 0.7816 0.7173 0.4749
H20 H 0.7557 0.7221 0.3597
loop_
_geom_bond_atom_site_label_1
_geom_bond_atom_site_label_2
_geom_bond_site_symmetry_1
_geom_bond_site_symmetry_2
S1 O3 1_555 1_555
O1 N1 1_555 1_555
O2 N1 1_555 1_555
O4 S1 1_555 1_555
O5 C13 1_555 1_555
O6 C14 1_555 1_555
O7 C14 1_555 1_555
N1 C1 1_555 1_555
N2 S1 1_555 1_555
C1 C2 1_555 1_555
C2 H1 1_555 1_555
C3 C2 1_555 1_555
H2 C3 1_555 1_555
C4 C3 1_555 1_555
H3 C4 1_555 1_555
C5 C4 1_555 1_555
H4 C5 1_555 1_555
C6 S1 1_555 1_555
C7 N2 1_555 1_555
H5 C7 1_555 1_555
C8 C7 1_555 1_555
H6 C8 1_555 1_555
H7 C8 1_555 1_555
C9 C8 1_555 1_555
H8 C9 1_555 1_555
H9 C9 1_555 1_555
C10 C9 1_555 1_555
H10 C10 1_555 1_555
H11 C10 1_555 1_555
C11 C10 1_555 1_555
H12 C11 1_555 1_555
H13 C11 1_555 1_555
C12 C7 1_555 1_555
H14 C12 1_555 1_555
H15 C12 1_555 1_555
C13 N2 1_555 1_555
C14 C13 1_555 1_555
C15 O7 1_555 1_555
H16 C15 1_555 1_555
H17 C15 1_555 1_555
C16 C15 1_555 1_555
H18 C16 1_555 1_555
H19 C16 1_555 1_555
H20 C16 1_555 1_555
C1 C6 1_555 1_555
C5 C6 1_555 1_555
C11 C12 1_555 1_555

#END
