
#######################################################################
#
#                 Cambridge Crystallographic Data Centre
#                                CCDC 
#
#######################################################################
#
# If this CIF has been generated from an entry in the Cambridge 
# Structural Database, then it will include bibliographic, chemical, 
# crystal, experimental, refinement or atomic coordinate data resulting 
# from the CCDC's data processing and validation procedures.
#
#######################################################################

data_UDUSEU
_chemical_formula_moiety         'C17 H10 Br1 N1 O2'
_chemical_name_systematic        
(7-bromo-2-oxo-4-phenyl-2H-1-benzopyran-3-yl)acetonitrile
_symmetry_cell_setting           monoclinic
_symmetry_space_group_name_H-M   'P 21/n'
_symmetry_Int_Tables_number      14
_space_group_name_Hall           '-P 2yn'
loop_
_symmetry_equiv_pos_site_id
_symmetry_equiv_pos_as_xyz
1 x,y,z
2 1/2-x,1/2+y,1/2-z
3 -x,-y,-z
4 1/2+x,1/2-y,1/2+z
_cell_length_a                   10.067(2)
_cell_length_b                   9.1332(18)
_cell_length_c                   15.755(3)
_cell_angle_alpha                90
_cell_angle_beta                 103.76(3)
_cell_angle_gamma                90
_cell_volume                     1407
_exptl_crystal_colour            white
_exptl_crystal_description       bulk
_cell_formula_units_Z            4
loop_
_atom_site_label
_atom_site_type_symbol
_atom_site_fract_x
_atom_site_fract_y
_atom_site_fract_z
Br1 Br 0.14954(3) -0.39711(3) 1.06758(2)
O1 O -0.12175(17) -0.0315(2) 0.83630(13)
O2 O -0.25362(19) 0.1131(2) 0.73905(14)
N1 N -0.0579(4) 0.2828(4) 0.5681(2)
C1 C 0.0052(3) -0.0688(3) 0.88831(19)
C2 C 0.0094(3) -0.1934(3) 0.93932(18)
H1 H -0.0703 -0.2497 0.9380
C3 C 0.1354(3) -0.2319(3) 0.99229(18)
C4 C 0.2530(3) -0.1511(3) 0.9941(2)
H2 H 0.3381 -0.1805 1.0305
C5 C 0.2449(3) -0.0286(3) 0.94297(18)
H3 H 0.3254 0.0266 0.9445
C6 C 0.1202(3) 0.0172(3) 0.88818(18)
C7 C 0.1038(3) 0.1486(3) 0.83550(19)
C8 C -0.0219(3) 0.1857(3) 0.78712(18)
C9 C -0.1399(3) 0.0923(3) 0.7845(2)
C10 C -0.0514(3) 0.3221(3) 0.73245(19)
H4 H -0.1400 0.3631 0.7381
H5 H 0.0203 0.3955 0.7558
C11 C -0.0572(3) 0.2986(4) 0.6398(2)
C12 C 0.2271(3) 0.2419(3) 0.83855(18)
C13 C 0.2431(3) 0.3724(3) 0.8849(2)
H6 H 0.1729 0.4050 0.9114
C14 C 0.3614(3) 0.4562(4) 0.8930(2)
H7 H 0.3721 0.5454 0.9249
C15 C 0.4627(3) 0.4079(4) 0.8542(2)
H8 H 0.5438 0.4641 0.8600
C16 C 0.4480(3) 0.2799(4) 0.8073(2)
H9 H 0.5179 0.2483 0.7802
C17 C 0.3292(3) 0.1962(4) 0.7996(2)
H10 H 0.3188 0.1074 0.7673
loop_
_geom_bond_atom_site_label_1
_geom_bond_atom_site_label_2
_geom_bond_site_symmetry_1
_geom_bond_site_symmetry_2
Br1 C3 1_555 1_555
O1 C1 1_555 1_555
O2 C9 1_555 1_555
N1 C11 1_555 1_555
C1 C2 1_555 1_555
C2 H1 1_555 1_555
C3 C2 1_555 1_555
C4 C3 1_555 1_555
H2 C4 1_555 1_555
C5 C4 1_555 1_555
H3 C5 1_555 1_555
C6 C1 1_555 1_555
C7 C6 1_555 1_555
C8 C7 1_555 1_555
C9 O1 1_555 1_555
C10 C8 1_555 1_555
H4 C10 1_555 1_555
H5 C10 1_555 1_555
C11 C10 1_555 1_555
C12 C7 1_555 1_555
C13 C12 1_555 1_555
H6 C13 1_555 1_555
C14 C13 1_555 1_555
H7 C14 1_555 1_555
C15 C14 1_555 1_555
H8 C15 1_555 1_555
C16 C15 1_555 1_555
H9 C16 1_555 1_555
C17 C12 1_555 1_555
H10 C17 1_555 1_555
C5 C6 1_555 1_555
C8 C9 1_555 1_555
C16 C17 1_555 1_555

#END
