
#######################################################################
#
#                 Cambridge Crystallographic Data Centre
#                                CCDC 
#
#######################################################################
#
# If this CIF has been generated from an entry in the Cambridge 
# Structural Database, then it will include bibliographic, chemical, 
# crystal, experimental, refinement or atomic coordinate data resulting 
# from the CCDC's data processing and validation procedures.
#
#######################################################################

data_UDUWIB
_chemical_name_common            
'L-Phenylalanine hydrogen peroxide solvate hydrate'
_chemical_formula_moiety         'C9 H11 N1 O2,1.43(H2 O2),0.07(H2 O1)'
_chemical_name_systematic        
'(S)-2-Ammonio-3-hydroxypropanoate hydrogen peroxide solvate hydrate'
_symmetry_cell_setting           monoclinic
_symmetry_space_group_name_H-M   'C 2'
_symmetry_Int_Tables_number      5
_space_group_name_Hall           'C 2y'
loop_
_symmetry_equiv_pos_site_id
_symmetry_equiv_pos_as_xyz
1 x,y,z
2 -x,y,-z
3 1/2+x,1/2+y,z
4 1/2-x,1/2+y,-z
_cell_length_a                   10.2375(8)
_cell_length_b                   7.2175(5)
_cell_length_c                   14.0450(11)
_cell_angle_alpha                90
_cell_angle_beta                 92.2770(10)
_cell_angle_gamma                90
_cell_volume                     1036.95
_exptl_crystal_colour            colorless
_exptl_crystal_description       block
_cell_formula_units_Z            4
loop_
_atom_site_label
_atom_site_type_symbol
_atom_site_fract_x
_atom_site_fract_y
_atom_site_fract_z
O1 O 0.18680(12) 0.71733(18) 0.93004(8)
O2 O 0.24251(13) 0.68668(18) 0.83612(9)
H1 H 0.104(3) 0.731(5) 0.915(2)
H2 H 0.310(2) 0.770(4) 0.8415(18)
O3 O 0.93762(11) 0.76415(17) 0.88404(8)
O4 O 0.91611(11) 0.46573(17) 0.84450(9)
N1 N 0.68137(13) 0.8250(2) 0.88941(10)
C1 C 0.87202(15) 0.6243(2) 0.85997(11)
C2 C 0.72287(15) 0.6469(2) 0.84625(11)
H3 H 0.6809 0.5441 0.8817
C3 C 0.67444(16) 0.6341(3) 0.74154(12)
H4 H 0.7080 0.5179 0.7141
H5 H 0.5778 0.6267 0.7392
C4 C 0.71519(16) 0.7949(3) 0.68018(11)
C5 C 0.84509(18) 0.8200(3) 0.65698(12)
H6 H 0.9095 0.7340 0.6793
C6 C 0.8812(2) 0.9691(4) 0.60174(13)
H7 H 0.9703 0.9853 0.5871
C7 C 0.7884(2) 1.0945(4) 0.56771(14)
H8 H 0.8133 1.1961 0.5294
C8 C 0.6588(2) 1.0705(4) 0.59005(15)
H9 H 0.5945 1.1560 0.5670
C9 C 0.6229(2) 0.9221(3) 0.64595(13)
H10 H 0.5338 0.9071 0.6611
H11 H 0.589(2) 0.846(4) 0.8780(17)
H12 H 0.706(2) 0.821(4) 0.9556(13)
H13 H 0.726(2) 0.922(4) 0.8659(18)
O5 O 0.5000 0.5963(18) 1.0000
H14 H 0.5179 0.5007 1.0333
H14A H 0.4821 0.5007 0.9667
O6? O 0.44205(14) 0.6019(2) 0.96884(11)
H15? H 0.441(3) 0.492(6) 0.932(2)
loop_
_geom_bond_atom_site_label_1
_geom_bond_atom_site_label_2
_geom_bond_site_symmetry_1
_geom_bond_site_symmetry_2
O1 O2 1_555 1_555
O2 H2 1_555 1_555
H1 O1 1_555 1_555
O3 C1 1_555 1_555
O4 C1 1_555 1_555
N1 C2 1_555 1_555
C1 C2 1_555 1_555
C2 H3 1_555 1_555
C3 C2 1_555 1_555
H4 C3 1_555 1_555
H5 C3 1_555 1_555
C4 C3 1_555 1_555
C5 C4 1_555 1_555
H6 C5 1_555 1_555
C6 C5 1_555 1_555
H7 C6 1_555 1_555
C7 C6 1_555 1_555
H8 C7 1_555 1_555
C8 C7 1_555 1_555
H9 C8 1_555 1_555
C9 C4 1_555 1_555
H10 C9 1_555 1_555
H11 N1 1_555 1_555
H12 N1 1_555 1_555
H13 N1 1_555 1_555
O5 H14 1_555 1_555
H14A O5 1_555 1_555
C8 C9 1_555 1_555

#END
