
#######################################################################
#
#                 Cambridge Crystallographic Data Centre
#                                CCDC 
#
#######################################################################
#
# If this CIF has been generated from an entry in the Cambridge 
# Structural Database, then it will include bibliographic, chemical, 
# crystal, experimental, refinement or atomic coordinate data resulting 
# from the CCDC's data processing and validation procedures.
#
#######################################################################

data_UDUZOI01
_chemical_formula_moiety         '2(C7 H7 N1 O2),C10 H8 N2'
_chemical_name_systematic        "bis(4-Aminobenzoic acid) 4,4'-bipyridine"
_symmetry_cell_setting           monoclinic
_symmetry_space_group_name_H-M   'P 21/n'
_symmetry_Int_Tables_number      14
_space_group_name_Hall           '-P 2yn'
loop_
_symmetry_equiv_pos_site_id
_symmetry_equiv_pos_as_xyz
1 x,y,z
2 1/2-x,1/2+y,1/2-z
3 -x,-y,-z
4 1/2+x,1/2-y,1/2+z
_cell_length_a                   8.2836(3)
_cell_length_b                   5.5371(2)
_cell_length_c                   23.9100(8)
_cell_angle_alpha                90
_cell_angle_beta                 95.1020(10)
_cell_angle_gamma                90
_cell_volume                     1092.34
_exptl_crystal_colour            colorless
_exptl_crystal_description       needle
_cell_formula_units_Z            2
loop_
_atom_site_label
_atom_site_type_symbol
_atom_site_fract_x
_atom_site_fract_y
_atom_site_fract_z
N1 N 0.6229(2) 1.3514(4) 0.05160(9)
C1 C 0.7070(3) 1.5416(6) 0.06941(11)
H4 H 0.6647 1.6393 0.0962
C2 C 0.8541(3) 1.6054(5) 0.05090(11)
H5 H 0.9086 1.7409 0.0658
C3 C 0.9209(2) 1.4694(4) 0.01044(8)
C4 C 0.8329(3) 1.2695(5) -0.00791(12)
H6 H 0.8714 1.1685 -0.0348
C5 C 0.6884(3) 1.2192(6) 0.01348(14)
H7 H 0.6324 1.0822 0.0002
N1B N 1.3771(2) 1.6486(4) -0.05160(9)
C1B C 1.2930(3) 1.4584(6) -0.06941(11)
H4B H 1.3353 1.3607 -0.0962
C2B C 1.1459(3) 1.3946(5) -0.05090(11)
H5B H 1.0914 1.2591 -0.0658
C3B C 1.0791(2) 1.5306(4) -0.01044(8)
C4B C 1.1671(3) 1.7305(5) 0.00791(12)
H6B H 1.1286 1.8315 0.0348
C5B C 1.3116(3) 1.7808(6) -0.01348(14)
H7B H 1.3676 1.9178 -0.0002
N2 N -0.2311(2) 0.7694(4) 0.21623(8)
H1 H -0.2345 0.6431 0.2370
H2 H -0.3178 0.8518 0.2077
O1 O 0.3452(2) 1.2378(3) 0.09678(8)
H3 H 0.447(5) 1.278(6) 0.0820(15)
O2 O 0.48819(19) 0.9548(4) 0.14461(8)
C6 C 0.3600(2) 1.0568(4) 0.13286(9)
C7 C 0.2061(2) 0.9874(4) 0.15572(8)
C8 C 0.1998(2) 0.7825(4) 0.18945(9)
H8 H 0.2936 0.6932 0.1984
C9 C 0.0571(2) 0.7107(4) 0.20955(9)
H9 H 0.0558 0.5741 0.2321
C10 C -0.0862(2) 0.8400(4) 0.19653(8)
C11 C -0.0794(2) 1.0485(4) 0.16380(9)
H10 H -0.1726 1.1398 0.1554
C12 C 0.0643(2) 1.1198(4) 0.14393(9)
H11 H 0.0666 1.2590 0.1222
loop_
_geom_bond_atom_site_label_1
_geom_bond_atom_site_label_2
_geom_bond_site_symmetry_1
_geom_bond_site_symmetry_2
N1 C1 1_555 1_555
N2 H1 1_555 1_555
H2 N2 1_555 1_555
O1 H3 1_555 1_555
O2 C6 1_555 1_555
C1 H4 1_555 1_555
C2 C1 1_555 1_555
H5 C2 1_555 1_555
C3 C2 1_555 1_555
C4 C3 1_555 1_555
H6 C4 1_555 1_555
C5 N1 1_555 1_555
H7 C5 1_555 1_555
C6 O1 1_555 1_555
C7 C6 1_555 1_555
C8 C7 1_555 1_555
H8 C8 1_555 1_555
C9 C8 1_555 1_555
H9 C9 1_555 1_555
C10 N2 1_555 1_555
C11 C10 1_555 1_555
H10 C11 1_555 1_555
C12 C7 1_555 1_555
H11 C12 1_555 1_555
N1B C1B 1_555 1_555
C1B H4B 1_555 1_555
C2B C1B 1_555 1_555
H5B C2B 1_555 1_555
C3B C3 1_555 1_555
C4B C3B 1_555 1_555
H6B C4B 1_555 1_555
C5B N1B 1_555 1_555
H7B C5B 1_555 1_555
C4 C5 1_555 1_555
C9 C10 1_555 1_555
C11 C12 1_555 1_555
C2B C3B 1_555 1_555
C4B C5B 1_555 1_555

#END
