
#######################################################################
#
#                 Cambridge Crystallographic Data Centre
#                                CCDC 
#
#######################################################################
#
# If this CIF has been generated from an entry in the Cambridge 
# Structural Database, then it will include bibliographic, chemical, 
# crystal, experimental, refinement or atomic coordinate data resulting 
# from the CCDC's data processing and validation procedures.
#
#######################################################################

data_UFALUJ
_chemical_formula_moiety         'C16 H12 O3 S1'
_chemical_name_systematic        '2-Naphthyl benzenesulfonate'
_symmetry_cell_setting           orthorhombic
_symmetry_space_group_name_H-M   'P b c n'
_symmetry_Int_Tables_number      60
_space_group_name_Hall           '-P 2n 2ab'
loop_
_symmetry_equiv_pos_site_id
_symmetry_equiv_pos_as_xyz
1 x,y,z
2 1/2-x,1/2-y,1/2+z
3 -x,y,1/2-z
4 1/2+x,1/2-y,-z
5 -x,-y,-z
6 1/2+x,1/2+y,1/2-z
7 x,-y,1/2+z
8 1/2-x,1/2+y,z
_cell_length_a                   11.8910(11)
_cell_length_b                   10.8909(12)
_cell_length_c                   20.958(2)
_cell_angle_alpha                90
_cell_angle_beta                 90
_cell_angle_gamma                90
_cell_volume                     2714.14
_exptl_crystal_colour            colorless
_exptl_crystal_description       plate
_chemical_melting_point          '394-396 K'
_cell_formula_units_Z            8
_exptl_crystal_recrystallization_method 'aqueous ethanol'
loop_
_atom_site_label
_atom_site_type_symbol
_atom_site_fract_x
_atom_site_fract_y
_atom_site_fract_z
S1 S 0.15762(4) 0.88595(5) 0.40500(2)
C1 C 0.30301(18) 0.8898(2) 0.39181(10)
C2 C 0.3510(2) 0.8047(2) 0.35098(11)
C3 C 0.4658(2) 0.8075(2) 0.34121(12)
C4 C 0.5312(2) 0.8953(2) 0.37184(12)
C5 C 0.4828(2) 0.9788(2) 0.41258(13)
C6 C 0.36756(19) 0.9777(2) 0.42299(11)
O1 O 0.10154(13) 0.83470(15) 0.35111(7)
O2 O 0.12184(13) 1.00159(14) 0.42973(7)
O3 O 0.14112(12) 0.78362(13) 0.45886(7)
C7 C 0.19407(19) 0.8014(2) 0.51926(10)
C8 C 0.29256(19) 0.7343(2) 0.53019(11)
C9 C 0.3430(2) 0.7432(2) 0.58838(11)
C10 C 0.3508(2) 0.8323(2) 0.69741(11)
C11 C 0.3072(2) 0.9087(2) 0.74265(12)
C12 C 0.2074(2) 0.9743(2) 0.73036(12)
C13 C 0.1535(2) 0.9632(2) 0.67294(11)
C14 C 0.14591(19) 0.8753(2) 0.56366(10)
C15 C 0.29784(19) 0.8194(2) 0.63705(11)
C16 C 0.19838(19) 0.8870(2) 0.62448(10)
H1 H 0.306(2) 0.745(2) 0.3302(11)
H2 H 0.503(2) 0.749(2) 0.3146(11)
H3 H 0.610(2) 0.894(2) 0.3643(11)
H4 H 0.523(2) 1.039(2) 0.4320(12)
H5 H 0.3328(19) 1.037(2) 0.4526(12)
H6 H 0.3242(19) 0.686(2) 0.4979(11)
H7 H 0.412(2) 0.695(2) 0.5964(11)
H8 H 0.420(2) 0.787(2) 0.7050(11)
H9 H 0.343(2) 0.916(2) 0.7828(13)
H10 H 0.182(2) 1.024(3) 0.7619(15)
H11 H 0.081(2) 1.005(2) 0.6640(10)
H12 H 0.076(2) 0.918(2) 0.5537(10)
loop_
_geom_bond_atom_site_label_1
_geom_bond_atom_site_label_2
_geom_bond_site_symmetry_1
_geom_bond_site_symmetry_2
S1 C1 1_555 1_555
C1 C2 1_555 1_555
C2 C3 1_555 1_555
C3 C4 1_555 1_555
C4 C5 1_555 1_555
C5 C6 1_555 1_555
C6 C1 1_555 1_555
O1 S1 1_555 1_555
O2 S1 1_555 1_555
O3 S1 1_555 1_555
C7 O3 1_555 1_555
C8 C7 1_555 1_555
C9 C8 1_555 1_555
C10 C11 1_555 1_555
C11 C12 1_555 1_555
C12 C13 1_555 1_555
C13 C16 1_555 1_555
C14 C7 1_555 1_555
C15 C9 1_555 1_555
C16 C14 1_555 1_555
H1 C2 1_555 1_555
H2 C3 1_555 1_555
H3 C4 1_555 1_555
H4 C5 1_555 1_555
H5 C6 1_555 1_555
H6 C8 1_555 1_555
H7 C9 1_555 1_555
H8 C10 1_555 1_555
H9 C11 1_555 1_555
H10 C12 1_555 1_555
H11 C13 1_555 1_555
H12 C14 1_555 1_555
C10 C15 1_555 1_555
C15 C16 1_555 1_555

#END
