
#######################################################################
#
#                 Cambridge Crystallographic Data Centre
#                                CCDC 
#
#######################################################################
#
# If this CIF has been generated from an entry in the Cambridge 
# Structural Database, then it will include bibliographic, chemical, 
# crystal, experimental, refinement or atomic coordinate data resulting 
# from the CCDC's data processing and validation procedures.
#
#######################################################################

data_UFAROL
_chemical_formula_moiety         'C140 H114'
_chemical_name_systematic        
2,7,13,19,24,30-hexa-t-butyl-9,11,15,17,26,28,32,34-octaphenyltetrabenzo[i1j1,jk,tu,yz]pyreno[4,5-b]decacene
_symmetry_cell_setting           triclinic
_symmetry_space_group_name_H-M   'P -1'
_symmetry_Int_Tables_number      2
_space_group_name_Hall           '-P 1'
loop_
_symmetry_equiv_pos_site_id
_symmetry_equiv_pos_as_xyz
1 x,y,z
2 -x,-y,-z
_cell_length_a                   13.5550(8)
_cell_length_b                   13.9937(8)
_cell_length_c                   27.7885(16)
_cell_angle_alpha                76.450(3)
_cell_angle_beta                 85.148(3)
_cell_angle_gamma                82.545(3)
_cell_volume                     5072.99
_exptl_crystal_colour            red
_exptl_crystal_description       plate
_cell_formula_units_Z            2
loop_
_atom_site_label
_atom_site_type_symbol
_atom_site_fract_x
_atom_site_fract_y
_atom_site_fract_z
C1 C 0.3451(3) 1.2562(3) 0.67579(14)
C2 C 0.3443(3) 1.3556(3) 0.63821(15)
H1 H 0.344873 1.408638 0.655745
H2 H 0.284183 1.367496 0.619446
H3 H 0.403431 1.35421 0.615382
C3 C 0.4427(3) 1.2348(3) 0.70242(16)
H4 H 0.441563 1.173594 0.728191
H5 H 0.450092 1.289747 0.717655
H6 H 0.498888 1.227298 0.678468
C4 C 0.2561(4) 1.2648(3) 0.71349(16)
H7 H 0.25949 1.205268 0.740421
H8 H 0.193721 1.271643 0.696903
H9 H 0.258434 1.323013 0.727098
C5 C 0.3367(3) 1.1711(2) 0.65044(14)
C6 C 0.3558(3) 1.1797(3) 0.60010(14)
H10 H 0.37164 1.241099 0.579783
C7 C 0.3521(3) 1.0994(3) 0.57855(13)
C8 C 0.3764(3) 1.1065(3) 0.52684(13)
H11 H 0.390113 1.168308 0.506256
C9 C 0.3803(3) 1.0269(3) 0.50656(14)
H12 H 0.400234 1.033018 0.472468
C10 C 0.3549(3) 0.9340(2) 0.53564(13)
C11 C 0.3659(3) 0.8498(3) 0.51557(13)
H13 H 0.38921 0.85498 0.481945
C12 C 0.3431(3) 0.7594(2) 0.54403(13)
C13 C 0.3709(3) 0.6638(2) 0.52517(13)
C14 C 0.3614(3) 0.6824(3) 0.46880(14)
H14 H 0.293894 0.712896 0.460549
H15 H 0.37445 0.619403 0.45849
H16 H 0.409848 0.726798 0.451499
C15 C 0.3056(3) 0.5835(3) 0.55079(15)
H17 H 0.318215 0.563721 0.586157
H18 H 0.321438 0.526074 0.535867
H19 H 0.235299 0.609181 0.546789
C16 C 0.4811(3) 0.6270(3) 0.53666(16)
H20 H 0.523697 0.676959 0.518934
H21 H 0.500864 0.565004 0.525918
H22 H 0.48845 0.615658 0.572407
C17 C 0.3001(3) 0.7559(2) 0.59175(13)
H23 H 0.2784 0.695332 0.610172
C18 C 0.2874(3) 0.8372(2) 0.61375(13)
C19 C 0.3219(3) 0.9264(2) 0.58578(13)
C20 C 0.3270(3) 1.0082(2) 0.60817(13)
C21 C 0.3112(3) 0.9968(2) 0.65989(13)
C22 C 0.3150(3) 1.0795(2) 0.67943(14)
H24 H 0.302204 1.073126 0.714116
C23 C 0.2832(2) 0.9013(2) 0.69102(13)
C24 C 0.2503(2) 0.8312(2) 0.66608(13)
C25 C 0.1926(3) 0.7590(2) 0.69274(13)
C26 C 0.1782(2) 0.7451(2) 0.74553(13)
C27 C 0.1178(2) 0.6764(2) 0.77395(12)
H25 H 0.080512 0.642173 0.757334
C28 C 0.1099(2) 0.6558(2) 0.82585(12)
C29 C 0.0413(2) 0.5910(2) 0.85446(12)
C30 C 0.0345(2) 0.5753(2) 0.90601(12)
C31 C 0.1120(2) 0.6037(2) 0.93120(12)
C32 C 0.1744(2) 0.6721(2) 0.90404(13)
C33 C 0.1705(2) 0.7026(2) 0.85127(13)
C34 C 0.2277(2) 0.7747(2) 0.82279(12)
H26 H 0.265704 0.808211 0.839404
C35 C 0.2311(2) 0.7992(2) 0.77097(13)
C36 C 0.2842(3) 0.8782(2) 0.74233(13)
C37 C 0.3486(3) 0.9242(2) 0.76968(13)
C38 C 0.4511(3) 0.9090(3) 0.76090(14)
H27 H 0.477586 0.872622 0.736958
C39 C 0.5156(3) 0.9459(3) 0.78637(15)
H28 H 0.58556 0.935719 0.779444
C40 C 0.4777(3) 0.9975(3) 0.82182(15)
H29 H 0.521516 1.0219 0.839801
C41 C 0.3761(3) 1.0134(3) 0.83103(14)
H30 H 0.350193 1.049418 0.855222
C42 C 0.3113(3) 0.9774(2) 0.80544(13)
H31 H 0.24139 0.98882 0.812153
C43 C 0.2442(3) 0.7194(2) 0.92757(12)
C44 C 0.3462(3) 0.7066(2) 0.91688(13)
H32 H 0.372314 0.667209 0.894171
C45 C 0.4109(3) 0.7510(3) 0.93903(14)
H33 H 0.480626 0.741932 0.931425
C46 C 0.3727(3) 0.8083(3) 0.97221(15)
H34 H 0.416406 0.83814 0.987693
C47 C 0.2712(3) 0.8220(3) 0.98278(15)
H35 H 0.245341 0.861387 1.005531
C48 C 0.2066(3) 0.7786(2) 0.96044(14)
H36 H 0.136757 0.789261 0.967528
C49 C -0.0499(3) 0.5321(2) 0.93668(13)
C50 C -0.0437(2) 0.4946(2) 0.98803(12)
C51 C -0.1224(2) 0.4456(2) 1.01598(12)
C52 C -0.2116(3) 0.4523(2) 0.99274(13)
H37 H -0.26632 0.423194 1.011522
C53 C -0.2233(3) 0.4996(2) 0.94346(13)
C54 C -0.1412(2) 0.5363(2) 0.91573(13)
H38 H -0.146915 0.565203 0.881423
C55 C -0.3213(3) 0.5060(3) 0.91894(13)
C56 C -0.3394(3) 0.6043(3) 0.88014(14)
H39 H -0.332765 0.659596 0.895284
H40 H -0.406567 0.611228 0.868309
H41 H -0.29017 0.604615 0.85216
C57 C -0.3161(3) 0.4193(3) 0.89321(14)
H42 H -0.260627 0.423607 0.86805
H43 H -0.378649 0.422461 0.877336
H44 H -0.305594 0.356645 0.917826
C58 C -0.4100(3) 0.5009(3) 0.95690(13)
H45 H -0.405881 0.43513 0.979221
H46 H -0.472129 0.513316 0.939648
H47 H -0.408891 0.551088 0.976182
C59 C -0.0125(2) 0.5353(2) 0.82684(12)
C60 C -0.0796(3) 0.5812(3) 0.79063(13)
H48 H -0.096147 0.650911 0.783948
C61 C -0.1221(3) 0.5257(3) 0.76439(14)
H49 H -0.167834 0.557539 0.73994
C62 C -0.0983(3) 0.4238(3) 0.77358(14)
H50 H -0.126899 0.385929 0.755313
C63 C -0.0324(3) 0.3781(3) 0.80963(14)
H51 H -0.016339 0.308323 0.816416
C64 C 0.0101(3) 0.4332(2) 0.83581(13)
H52 H 0.055593 0.400796 0.86031
C65 C 0.1393(3) 0.6955(2) 0.66959(13)
C66 C 0.1595(3) 0.5927(3) 0.68055(13)
H53 H 0.212448 0.561951 0.701195
C67 C 0.1040(3) 0.5344(3) 0.66194(14)
H54 H 0.119211 0.464535 0.669649
C68 C 0.0263(3) 0.5784(3) 0.63207(15)
H55 H -0.012153 0.538867 0.619284
C69 C 0.0050(3) 0.6800(3) 0.62097(16)
H56 H -0.048416 0.710308 0.600544
C70 C 0.0607(3) 0.7382(3) 0.63938(14)
H57 H 0.045338 0.808092 0.631343
C1A C -0.3451(3) -0.2562(3) 1.32421(14)
C2A C -0.3443(3) -0.3556(3) 1.36179(15)
H1A H -0.344873 -0.408638 1.344255
H2A H -0.284183 -0.367496 1.380554
H3A H -0.403431 -0.35421 1.384618
C3A C -0.4427(3) -0.2348(3) 1.29758(16)
H4A H -0.441563 -0.173594 1.271809
H5A H -0.450092 -0.289747 1.282345
H6A H -0.498888 -0.227298 1.321532
C4A C -0.2561(4) -0.2648(3) 1.28651(16)
H7A H -0.25949 -0.205268 1.259579
H8A H -0.193721 -0.271643 1.303097
H9A H -0.258434 -0.323013 1.272902
C5A C -0.3367(3) -0.1711(2) 1.34956(14)
C6A C -0.3558(3) -0.1797(3) 1.39990(14)
H10A H -0.37164 -0.241099 1.420217
C7A C -0.3521(3) -0.0994(3) 1.42145(13)
C8A C -0.3764(3) -0.1065(3) 1.47316(13)
H11A H -0.390113 -0.168308 1.493744
C9A C -0.3803(3) -0.0269(3) 1.49344(14)
H12A H -0.400234 -0.033018 1.527532
C10A C -0.3549(3) 0.0660(2) 1.46436(13)
C11A C -0.3659(3) 0.1502(3) 1.48443(13)
H13A H -0.38921 0.14502 1.518055
C12A C -0.3431(3) 0.2406(2) 1.45597(13)
C13A C -0.3709(3) 0.3362(2) 1.47483(13)
C14A C -0.3614(3) 0.3176(3) 1.53120(14)
H14A H -0.293894 0.287104 1.539451
H15A H -0.37445 0.380597 1.54151
H16A H -0.409848 0.273202 1.548501
C15A C -0.3056(3) 0.4165(3) 1.44921(15)
H17A H -0.318215 0.436279 1.413843
H18A H -0.321438 0.473926 1.464133
H19A H -0.235299 0.390819 1.453211
C16A C -0.4811(3) 0.3730(3) 1.46334(16)
H20A H -0.523697 0.323041 1.481066
H21A H -0.500864 0.434996 1.474082
H22A H -0.48845 0.384342 1.427593
C17A C -0.3001(3) 0.2441(2) 1.40825(13)
H23A H -0.2784 0.304668 1.389828
C18A C -0.2874(3) 0.1628(2) 1.38625(13)
C19A C -0.3219(3) 0.0736(2) 1.41422(13)
C20A C -0.3270(3) -0.0082(2) 1.39183(13)
C21A C -0.3112(3) 0.0032(2) 1.34011(13)
C22A C -0.3150(3) -0.0795(2) 1.32057(14)
H24A H -0.302204 -0.073126 1.285884
C23A C -0.2832(2) 0.0987(2) 1.30898(13)
C24A C -0.2503(2) 0.1688(2) 1.33392(13)
C25A C -0.1926(3) 0.2410(2) 1.30726(13)
C26A C -0.1782(2) 0.2549(2) 1.25447(13)
C27A C -0.1178(2) 0.3236(2) 1.22605(12)
H25A H -0.080512 0.357827 1.242666
C28A C -0.1099(2) 0.3442(2) 1.17415(12)
C29A C -0.0413(2) 0.4090(2) 1.14554(12)
C30A C -0.0345(2) 0.4247(2) 1.09399(12)
C31A C -0.1120(2) 0.3963(2) 1.06880(12)
C32A C -0.1744(2) 0.3279(2) 1.09596(13)
C33A C -0.1705(2) 0.2974(2) 1.14873(13)
C34A C -0.2277(2) 0.2253(2) 1.17721(12)
H26A H -0.265704 0.191789 1.160596
C35A C -0.2311(2) 0.2008(2) 1.22903(13)
C36A C -0.2842(3) 0.1218(2) 1.25767(13)
C37A C -0.3486(3) 0.0758(2) 1.23032(13)
C38A C -0.4511(3) 0.0910(3) 1.23910(14)
H27A H -0.477586 0.127378 1.263042
C39A C -0.5156(3) 0.0541(3) 1.21363(15)
H28A H -0.58556 0.064281 1.220556
C40A C -0.4777(3) 0.0025(3) 1.17818(15)
H29A H -0.521516 -0.0219 1.160199
C41A C -0.3761(3) -0.0134(3) 1.16897(14)
H30A H -0.350193 -0.049418 1.144778
C42A C -0.3113(3) 0.0226(2) 1.19456(13)
H31A H -0.24139 0.01118 1.187847
C43A C -0.2442(3) 0.2806(2) 1.07243(12)
C44A C -0.3462(3) 0.2934(2) 1.08312(13)
H32A H -0.372314 0.332791 1.105829
C45A C -0.4109(3) 0.2490(3) 1.06097(14)
H33A H -0.480626 0.258068 1.068575
C46A C -0.3727(3) 0.1917(3) 1.02779(15)
H34A H -0.416406 0.16186 1.012307
C47A C -0.2712(3) 0.1780(3) 1.01722(15)
H35A H -0.245341 0.138613 0.994469
C48A C -0.2066(3) 0.2214(2) 1.03956(14)
H36A H -0.136757 0.210739 1.032472
C49A C 0.0499(3) 0.4679(2) 1.06332(13)
C50A C 0.0437(2) 0.5054(2) 1.01197(12)
C51A C 0.1224(2) 0.5544(2) 0.98402(12)
C52A C 0.2116(3) 0.5477(2) 1.00726(13)
H37A H 0.26632 0.576806 0.988478
C53A C 0.2233(3) 0.5004(2) 1.05654(13)
C54A C 0.1412(2) 0.4637(2) 1.08427(13)
H38A H 0.146915 0.434797 1.118577
C55A C 0.3213(3) 0.4940(3) 1.08106(13)
C56A C 0.3394(3) 0.3957(3) 1.11986(14)
H39A H 0.332765 0.340404 1.104716
H40A H 0.406567 0.388772 1.131691
H41A H 0.29017 0.395385 1.14784
C57A C 0.3161(3) 0.5807(3) 1.10679(14)
H42A H 0.260627 0.576393 1.13195
H43A H 0.378649 0.577539 1.122664
H44A H 0.305594 0.643355 1.082174
C58A C 0.4100(3) 0.4991(3) 1.04310(13)
H45A H 0.405881 0.56487 1.020779
H46A H 0.472129 0.486684 1.060352
H47A H 0.408891 0.448912 1.023818
C59A C 0.0125(2) 0.4647(2) 1.17316(12)
C60A C 0.0796(3) 0.4188(3) 1.20937(13)
H48A H 0.096147 0.349089 1.216052
C61A C 0.1221(3) 0.4743(3) 1.23561(14)
H49A H 0.167834 0.442461 1.26006
C62A C 0.0983(3) 0.5762(3) 1.22642(14)
H50A H 0.126899 0.614071 1.244687
C63A C 0.0324(3) 0.6219(3) 1.19037(14)
H51A H 0.016339 0.691677 1.183584
C64A C -0.0101(3) 0.5668(2) 1.16419(13)
H52A H -0.055593 0.599204 1.13969
C65A C -0.1393(3) 0.3045(2) 1.33041(13)
C66A C -0.1595(3) 0.4073(3) 1.31945(13)
H53A H -0.212448 0.438049 1.298805
C67A C -0.1040(3) 0.4656(3) 1.33806(14)
H54A H -0.119211 0.535465 1.330351
C68A C -0.0263(3) 0.4216(3) 1.36793(15)
H55A H 0.012153 0.461133 1.380716
C69A C -0.0050(3) 0.3200(3) 1.37903(16)
H56A H 0.048416 0.289692 1.399456
C70A C -0.0607(3) 0.2618(3) 1.36062(14)
H57A H -0.045338 0.191908 1.368657
C71 C 0.0260(3) 0.8554(3) 0.45336(14)
C72 C -0.0688(5) 0.8909(5) 0.4197(3)
H58 H -0.116693 0.841957 0.429094
H59 H -0.100613 0.954992 0.424844
H60 H -0.04691 0.897234 0.384686
C73 C 0.0979(6) 0.9289(5) 0.4393(3)
H61 H 0.120658 0.934533 0.404384
H62 H 0.065868 0.993277 0.443919
H63 H 0.155155 0.907836 0.460095
C74 C -0.0152(6) 0.8393(5) 0.5063(2)
H64 H -0.062146 0.789536 0.512327
H65 H 0.039494 0.81623 0.528623
H66 H -0.049793 0.90167 0.512446
C75 C 0.0725(3) 0.7583(3) 0.44026(14)
C76 C 0.0760(3) 0.6692(3) 0.47437(14)
H67 H 0.047061 0.667007 0.506919
C77 C 0.1213(3) 0.5818(3) 0.46204(13)
C78 C 0.1260(3) 0.4897(3) 0.49855(14)
H68 H 0.09933 0.488904 0.531351
C79 C 0.1679(3) 0.4041(3) 0.48689(13)
H69 H 0.169971 0.344263 0.51164
C80 C 0.2089(3) 0.4024(2) 0.43819(13)
C81 C 0.2446(3) 0.3131(2) 0.42494(13)
H70 H 0.246174 0.253166 0.449644
C82 C 0.2775(3) 0.3099(2) 0.37669(13)
C83 C 0.3114(3) 0.2114(3) 0.36135(14)
C84 C 0.2483(3) 0.1300(3) 0.38976(15)
H71 H 0.271826 0.067858 0.379748
H72 H 0.178286 0.149436 0.382145
H73 H 0.254741 0.120716 0.425468
C85 C 0.4215(3) 0.1815(3) 0.37282(15)
H74 H 0.42934 0.177808 0.407973
H75 H 0.461931 0.230864 0.352435
H76 H 0.44354 0.116737 0.36538
C86 C 0.3008(3) 0.2208(3) 0.30572(14)
H77 H 0.347843 0.264608 0.286392
H78 H 0.232612 0.248502 0.297219
H79 H 0.315046 0.155323 0.298092
C87 C 0.2832(3) 0.4003(2) 0.34264(13)
H80 H 0.307288 0.399343 0.309627
C88 C 0.2555(3) 0.4922(2) 0.35453(13)
C89 C 0.2104(3) 0.4926(2) 0.40221(13)
C90 C 0.1640(3) 0.5839(2) 0.41357(13)
C91 C 0.1581(3) 0.6737(2) 0.37703(13)
C92 C 0.1141(3) 0.7591(3) 0.39204(13)
H81 H 0.112352 0.82059 0.368496
C93 C 0.2054(2) 0.6766(2) 0.32656(12)
C94 C 0.2679(3) 0.5874(2) 0.31872(13)
C95 C 0.3358(3) 0.5936(2) 0.27806(13)
C96 C 0.3356(3) 0.6824(2) 0.24018(13)
C97 C 0.4050(3) 0.6923(2) 0.19997(13)
H82 H 0.456001 0.639325 0.198869
C98 C 0.4034(3) 0.7761(2) 0.16129(12)
C99 C 0.4813(3) 0.7896(2) 0.12291(13)
C100 C 0.4757(3) 0.8741(2) 0.08462(13)
C101 C 0.3831(2) 0.9401(2) 0.07892(12)
C102 C 0.3117(3) 0.9332(2) 0.11811(13)
C103 C 0.3216(3) 0.8530(2) 0.16102(13)
C104 C 0.2552(3) 0.8449(2) 0.20252(13)
H83 H 0.203355 0.897204 0.203373
C105 C 0.2612(3) 0.7634(2) 0.24308(13)
C106 C 0.1980(2) 0.7601(2) 0.28739(13)
C107 C 0.1244(3) 0.8501(2) 0.28636(13)
C108 C 0.0246(3) 0.8467(3) 0.27957(14)
H84 H 0.002274 0.785764 0.278305
C109 C -0.0426(3) 0.9317(3) 0.27461(16)
H85 H -0.110808 0.928306 0.270484
C110 C -0.0110(3) 1.0210(3) 0.27563(16)
H86 H -0.057041 1.07917 0.2716
C111 C 0.0881(3) 1.0252(3) 0.28256(15)
H87 H 0.109941 1.086199 0.284085
C112 C 0.1555(3) 0.9404(3) 0.28727(14)
H88 H 0.223761 0.944192 0.29117
C113 C 0.2239(3) 1.0093(2) 0.12083(13)
C114 C 0.1267(3) 0.9873(3) 0.12290(13)
H89 H 0.114833 0.922423 0.121882
C115 C 0.0463(3) 1.0580(3) 0.12643(14)
H90 H -0.019956 1.041732 0.127831
C116 C 0.0640(3) 1.1529(3) 0.12790(16)
H91 H 0.009516 1.201976 0.130326
C117 C 0.1598(3) 1.1761(3) 0.12586(16)
H92 H 0.171298 1.241302 0.126614
C118 C 0.2398(3) 1.1052(2) 0.12272(14)
H93 H 0.305904 1.121661 0.12184
C119 C 0.5621(3) 0.9018(2) 0.05017(13)
C120 C 0.5489(2) 0.9727(2) 0.00516(12)
C121 C 0.6306(3) 0.9906(2) -0.02985(13)
C122 C 0.7262(3) 0.9488(2) -0.01502(13)
H94 H 0.78188 0.962745 -0.037622
C123 C 0.7425(3) 0.8876(2) 0.03153(13)
C124 C 0.6597(3) 0.8641(2) 0.06250(13)
H95 H 0.669583 0.81997 0.093819
C125 C 0.8482(3) 0.8425(3) 0.04694(14)
C126 C 0.8567(3) 0.8293(3) 0.10266(14)
H96 H 0.836292 0.892747 0.111884
H97 H 0.925905 0.806489 0.111039
H98 H 0.81339 0.780391 0.120779
C127 C 0.8704(3) 0.7418(3) 0.03295(18)
H99 H 0.820032 0.698948 0.049379
H100 H 0.936518 0.711019 0.0436
H101 H 0.868981 0.751166 -0.003063
C128 C 0.9261(3) 0.9091(3) 0.02020(17)
H102 H 0.926702 0.913612 -0.015553
H103 H 0.991971 0.881056 0.032189
H104 H 0.909548 0.975226 0.026817
C129 C 0.5638(3) 0.7069(2) 0.12614(13)
C130 C 0.5771(3) 0.6523(2) 0.08977(13)
H105 H 0.535022 0.668839 0.062679
C131 C 0.6516(3) 0.5738(3) 0.09301(15)
H106 H 0.661442 0.537525 0.067724
C132 C 0.7120(3) 0.5478(3) 0.13293(15)
H107 H 0.762153 0.493024 0.135321
C133 C 0.6991(3) 0.6014(3) 0.16913(14)
H108 H 0.740744 0.58412 0.196396
C134 C 0.6254(3) 0.6804(2) 0.16572(13)
H109 H 0.616757 0.71711 0.19082
C135 C 0.4170(3) 0.5129(2) 0.27359(13)
C136 C 0.4232(3) 0.4643(2) 0.23466(13)
H110 H 0.374494 0.482079 0.210511
C137 C 0.5004(3) 0.3899(3) 0.23113(14)
H111 H 0.504162 0.356929 0.204677
C138 C 0.5715(3) 0.3640(3) 0.26598(14)
H112 H 0.624163 0.313149 0.26361
C139 C 0.5661(3) 0.4121(3) 0.30422(14)
H113 H 0.615244 0.394175 0.328162
C140 C 0.4894(3) 0.4867(2) 0.30812(13)
H114 H 0.486665 0.519665 0.334516
C71A C 0.9740(3) 1.1446(3) -0.45336(14)
C72A C 1.0688(5) 1.1091(5) -0.4197(3)
H58A H 1.116693 1.158043 -0.429094
H59A H 1.100613 1.045008 -0.424844
H60A H 1.04691 1.102766 -0.384686
C73A C 0.9021(6) 1.0711(5) -0.4393(3)
H61A H 0.879342 1.065467 -0.404384
H62A H 0.934132 1.006723 -0.443919
H63A H 0.844845 1.092164 -0.460095
C74A C 1.0152(6) 1.1607(5) -0.5063(2)
H64A H 1.062146 1.210464 -0.512327
H65A H 0.960506 1.18377 -0.528623
H66A H 1.049793 1.09833 -0.512446
C75A C 0.9275(3) 1.2417(3) -0.44026(14)
C76A C 0.9240(3) 1.3308(3) -0.47437(14)
H67A H 0.952939 1.332993 -0.506919
C77A C 0.8787(3) 1.4182(3) -0.46204(13)
C78A C 0.8740(3) 1.5103(3) -0.49855(14)
H68A H 0.90067 1.511096 -0.531351
C79A C 0.8321(3) 1.5959(3) -0.48689(13)
H69A H 0.830029 1.655737 -0.51164
C80A C 0.7911(3) 1.5976(2) -0.43819(13)
C81A C 0.7554(3) 1.6869(2) -0.42494(13)
H70A H 0.753826 1.746834 -0.449644
C82A C 0.7225(3) 1.6901(2) -0.37669(13)
C83A C 0.6886(3) 1.7886(3) -0.36135(14)
C84A C 0.7517(3) 1.8700(3) -0.38976(15)
H71A H 0.728174 1.932142 -0.379748
H72A H 0.821714 1.850564 -0.382145
H73A H 0.745259 1.879284 -0.425468
C85A C 0.5785(3) 1.8185(3) -0.37282(15)
H74A H 0.57066 1.822192 -0.407973
H75A H 0.538069 1.769136 -0.352435
H76A H 0.55646 1.883263 -0.36538
C86A C 0.6992(3) 1.7792(3) -0.30572(14)
H77A H 0.652157 1.735392 -0.286392
H78A H 0.767388 1.751498 -0.297219
H79A H 0.684954 1.844677 -0.298092
C87A C 0.7168(3) 1.5997(2) -0.34264(13)
H80A H 0.692712 1.600657 -0.309627
C88A C 0.7445(3) 1.5078(2) -0.35453(13)
C89A C 0.7896(3) 1.5074(2) -0.40221(13)
C90A C 0.8360(3) 1.4161(2) -0.41357(13)
C91A C 0.8419(3) 1.3263(2) -0.37703(13)
C92A C 0.8859(3) 1.2409(3) -0.39204(13)
H81A H 0.887648 1.17941 -0.368496
C93A C 0.7946(2) 1.3234(2) -0.32656(12)
C94A C 0.7321(3) 1.4126(2) -0.31872(13)
C95A C 0.6642(3) 1.4064(2) -0.27806(13)
C96A C 0.6644(3) 1.3176(2) -0.24018(13)
C97A C 0.5950(3) 1.3077(2) -0.19997(13)
H82A H 0.543999 1.360675 -0.198869
C98A C 0.5966(3) 1.2239(2) -0.16129(12)
C99A C 0.5187(3) 1.2104(2) -0.12291(13)
C100A C 0.5243(3) 1.1259(2) -0.08462(13)
C101A C 0.6169(2) 1.0599(2) -0.07892(12)
C102A C 0.6883(3) 1.0668(2) -0.11811(13)
C103A C 0.6784(3) 1.1470(2) -0.16102(13)
C104A C 0.7448(3) 1.1551(2) -0.20252(13)
H83A H 0.796645 1.102796 -0.203373
C105A C 0.7388(3) 1.2366(2) -0.24308(13)
C106A C 0.8020(2) 1.2399(2) -0.28739(13)
C107A C 0.8756(3) 1.1499(2) -0.28636(13)
C108A C 0.9754(3) 1.1533(3) -0.27957(14)
H84A H 0.997726 1.214236 -0.278305
C109A C 1.0426(3) 1.0683(3) -0.27461(16)
H85A H 1.110808 1.071694 -0.270484
C110A C 1.0110(3) 0.9790(3) -0.27563(16)
H86A H 1.057041 0.92083 -0.2716
C111A C 0.9119(3) 0.9748(3) -0.28256(15)
H87A H 0.890059 0.913801 -0.284085
C112A C 0.8445(3) 1.0596(3) -0.28727(14)
H88A H 0.776239 1.055808 -0.29117
C113A C 0.7761(3) 0.9907(2) -0.12083(13)
C114A C 0.8733(3) 1.0127(3) -0.12290(13)
H89A H 0.885167 1.077577 -0.121882
C115A C 0.9537(3) 0.9420(3) -0.12643(14)
H90A H 1.019956 0.958268 -0.127831
C116A C 0.9360(3) 0.8471(3) -0.12790(16)
H91A H 0.990484 0.798024 -0.130326
C117A C 0.8402(3) 0.8239(3) -0.12586(16)
H92A H 0.828702 0.758698 -0.126614
C118A C 0.7602(3) 0.8948(2) -0.12272(14)
H93A H 0.694096 0.878339 -0.12184
C119A C 0.4379(3) 1.0982(2) -0.05017(13)
C120A C 0.4511(2) 1.0273(2) -0.00516(12)
C121A C 0.3694(3) 1.0094(2) 0.02985(13)
C122A C 0.2738(3) 1.0512(2) 0.01502(13)
H94A H 0.21812 1.037255 0.037622
C123A C 0.2575(3) 1.1124(2) -0.03153(13)
C124A C 0.3403(3) 1.1359(2) -0.06250(13)
H95A H 0.330417 1.18003 -0.093819
C125A C 0.1518(3) 1.1575(3) -0.04694(14)
C126A C 0.1433(3) 1.1707(3) -0.10266(14)
H96A H 0.163708 1.107253 -0.111884
H97A H 0.074095 1.193511 -0.111039
H98A H 0.18661 1.219609 -0.120779
C127A C 0.1296(3) 1.2582(3) -0.03295(18)
H99A H 0.179968 1.301052 -0.049379
H100A H 0.063482 1.288981 -0.0436
H101A H 0.131019 1.248834 0.003063
C128A C 0.0739(3) 1.0909(3) -0.02020(17)
H102A H 0.073298 1.086388 0.015553
H103A H 0.008029 1.118944 -0.032189
H104A H 0.090452 1.024774 -0.026817
C129A C 0.4362(3) 1.2931(2) -0.12614(13)
C130A C 0.4229(3) 1.3477(2) -0.08977(13)
H105A H 0.464978 1.331161 -0.062679
C131A C 0.3484(3) 1.4262(3) -0.09301(15)
H106A H 0.338558 1.462475 -0.067724
C132A C 0.2880(3) 1.4522(3) -0.13293(15)
H107A H 0.237847 1.506976 -0.135321
C133A C 0.3009(3) 1.3986(3) -0.16913(14)
H108A H 0.259256 1.41588 -0.196396
C134A C 0.3746(3) 1.3196(2) -0.16572(13)
H109A H 0.383243 1.28289 -0.19082
C135A C 0.5830(3) 1.4871(2) -0.27359(13)
C136A C 0.5768(3) 1.5357(2) -0.23466(13)
H110A H 0.625506 1.517921 -0.210511
C137A C 0.4996(3) 1.6101(3) -0.23113(14)
H111A H 0.495838 1.643071 -0.204677
C138A C 0.4285(3) 1.6360(3) -0.26598(14)
H112A H 0.375837 1.686851 -0.26361
C139A C 0.4339(3) 1.5879(3) -0.30422(14)
H113A H 0.384756 1.605825 -0.328162
C140A C 0.5106(3) 1.5133(2) -0.30812(13)
H114A H 0.513335 1.480335 -0.334516
C141? C 0.0332(7) 0.9503(5) 0.4125(3)
H115? H 0.101589 0.951071 0.397934
H116? H -0.01237 0.951812 0.386641
H117? H 0.014862 1.008245 0.426766
C142? C 0.0949(6) 0.8720(6) 0.4958(3)
H118? H 0.163902 0.875473 0.482394
H119? H 0.069424 0.933901 0.505624
H120? H 0.092566 0.816611 0.524798
C143? C -0.0774(6) 0.8510(6) 0.4766(3)
H121? H -0.102698 0.915137 0.484062
H122? H -0.12072 0.835483 0.453686
H123? H -0.076451 0.799556 0.507383
loop_
_geom_bond_atom_site_label_1
_geom_bond_atom_site_label_2
_geom_bond_site_symmetry_1
_geom_bond_site_symmetry_2
C1 C2 1_555 1_555
C2 H1 1_555 1_555
H2 C2 1_555 1_555
H3 C2 1_555 1_555
C3 C1 1_555 1_555
H4 C3 1_555 1_555
H5 C3 1_555 1_555
H6 C3 1_555 1_555
C4 C1 1_555 1_555
H7 C4 1_555 1_555
H8 C4 1_555 1_555
H9 C4 1_555 1_555
C5 C1 1_555 1_555
C6 C5 1_555 1_555
H10 C6 1_555 1_555
C7 C6 1_555 1_555
C8 C7 1_555 1_555
H11 C8 1_555 1_555
C9 C8 1_555 1_555
H12 C9 1_555 1_555
C10 C9 1_555 1_555
C11 C10 1_555 1_555
H13 C11 1_555 1_555
C12 C11 1_555 1_555
C13 C12 1_555 1_555
C14 C13 1_555 1_555
H14 C14 1_555 1_555
H15 C14 1_555 1_555
H16 C14 1_555 1_555
C15 C13 1_555 1_555
H17 C15 1_555 1_555
H18 C15 1_555 1_555
H19 C15 1_555 1_555
C16 C13 1_555 1_555
H20 C16 1_555 1_555
H21 C16 1_555 1_555
H22 C16 1_555 1_555
C17 C12 1_555 1_555
H23 C17 1_555 1_555
C18 C17 1_555 1_555
C19 C10 1_555 1_555
C20 C7 1_555 1_555
C21 C20 1_555 1_555
C22 C5 1_555 1_555
H24 C22 1_555 1_555
C23 C21 1_555 1_555
C24 C18 1_555 1_555
C25 C24 1_555 1_555
C26 C25 1_555 1_555
C27 C26 1_555 1_555
H25 C27 1_555 1_555
C28 C27 1_555 1_555
C29 C28 1_555 1_555
C30 C29 1_555 1_555
C31 C30 1_555 1_555
C32 C31 1_555 1_555
C33 C28 1_555 1_555
C34 C33 1_555 1_555
H26 C34 1_555 1_555
C35 C26 1_555 1_555
C36 C23 1_555 1_555
C37 C36 1_555 1_555
C38 C37 1_555 1_555
H27 C38 1_555 1_555
C39 C38 1_555 1_555
H28 C39 1_555 1_555
C40 C39 1_555 1_555
H29 C40 1_555 1_555
C41 C40 1_555 1_555
H30 C41 1_555 1_555
C42 C37 1_555 1_555
H31 C42 1_555 1_555
C43 C32 1_555 1_555
C44 C43 1_555 1_555
H32 C44 1_555 1_555
C45 C44 1_555 1_555
H33 C45 1_555 1_555
C46 C45 1_555 1_555
H34 C46 1_555 1_555
C47 C46 1_555 1_555
H35 C47 1_555 1_555
C48 C43 1_555 1_555
H36 C48 1_555 1_555
C49 C30 1_555 1_555
C50 C49 1_555 1_555
C51 C50 1_555 1_555
C52 C51 1_555 1_555
H37 C52 1_555 1_555
C53 C52 1_555 1_555
C54 C49 1_555 1_555
H38 C54 1_555 1_555
C55 C53 1_555 1_555
C56 C55 1_555 1_555
H39 C56 1_555 1_555
H40 C56 1_555 1_555
H41 C56 1_555 1_555
C57 C55 1_555 1_555
H42 C57 1_555 1_555
H43 C57 1_555 1_555
H44 C57 1_555 1_555
C58 C55 1_555 1_555
H45 C58 1_555 1_555
H46 C58 1_555 1_555
H47 C58 1_555 1_555
C59 C29 1_555 1_555
C60 C59 1_555 1_555
H48 C60 1_555 1_555
C61 C60 1_555 1_555
H49 C61 1_555 1_555
C62 C61 1_555 1_555
H50 C62 1_555 1_555
C63 C62 1_555 1_555
H51 C63 1_555 1_555
C64 C59 1_555 1_555
H52 C64 1_555 1_555
C65 C25 1_555 1_555
C66 C65 1_555 1_555
H53 C66 1_555 1_555
C67 C66 1_555 1_555
H54 C67 1_555 1_555
C68 C67 1_555 1_555
H55 C68 1_555 1_555
C69 C68 1_555 1_555
H56 C69 1_555 1_555
C70 C65 1_555 1_555
H57 C70 1_555 1_555
C71 C72 1_555 1_555
C72 H58 1_555 1_555
H59 C72 1_555 1_555
H60 C72 1_555 1_555
C73 C71 1_555 1_555
H61 C73 1_555 1_555
H62 C73 1_555 1_555
H63 C73 1_555 1_555
C74 C71 1_555 1_555
H64 C74 1_555 1_555
H65 C74 1_555 1_555
H66 C74 1_555 1_555
C75 C71 1_555 1_555
C76 C75 1_555 1_555
H67 C76 1_555 1_555
C77 C76 1_555 1_555
C78 C77 1_555 1_555
H68 C78 1_555 1_555
C79 C78 1_555 1_555
H69 C79 1_555 1_555
C80 C79 1_555 1_555
C81 C80 1_555 1_555
H70 C81 1_555 1_555
C82 C81 1_555 1_555
C83 C82 1_555 1_555
C84 C83 1_555 1_555
H71 C84 1_555 1_555
H72 C84 1_555 1_555
H73 C84 1_555 1_555
C85 C83 1_555 1_555
H74 C85 1_555 1_555
H75 C85 1_555 1_555
H76 C85 1_555 1_555
C86 C83 1_555 1_555
H77 C86 1_555 1_555
H78 C86 1_555 1_555
H79 C86 1_555 1_555
C87 C82 1_555 1_555
H80 C87 1_555 1_555
C88 C87 1_555 1_555
C89 C80 1_555 1_555
C90 C77 1_555 1_555
C91 C90 1_555 1_555
C92 C75 1_555 1_555
H81 C92 1_555 1_555
C93 C91 1_555 1_555
C94 C88 1_555 1_555
C95 C94 1_555 1_555
C96 C95 1_555 1_555
C97 C96 1_555 1_555
H82 C97 1_555 1_555
C98 C97 1_555 1_555
C99 C98 1_555 1_555
C100 C99 1_555 1_555
C101 C100 1_555 1_555
C102 C101 1_555 1_555
C103 C98 1_555 1_555
C104 C103 1_555 1_555
H83 C104 1_555 1_555
C105 C96 1_555 1_555
C106 C93 1_555 1_555
C107 C106 1_555 1_555
C108 C107 1_555 1_555
H84 C108 1_555 1_555
C109 C108 1_555 1_555
H85 C109 1_555 1_555
C110 C109 1_555 1_555
H86 C110 1_555 1_555
C111 C110 1_555 1_555
H87 C111 1_555 1_555
C112 C107 1_555 1_555
H88 C112 1_555 1_555
C113 C102 1_555 1_555
C114 C113 1_555 1_555
H89 C114 1_555 1_555
C115 C114 1_555 1_555
H90 C115 1_555 1_555
C116 C115 1_555 1_555
H91 C116 1_555 1_555
C117 C116 1_555 1_555
H92 C117 1_555 1_555
C118 C113 1_555 1_555
H93 C118 1_555 1_555
C119 C100 1_555 1_555
C120 C119 1_555 1_555
C121 C120 1_555 1_555
C122 C121 1_555 1_555
H94 C122 1_555 1_555
C123 C122 1_555 1_555
C124 C119 1_555 1_555
H95 C124 1_555 1_555
C125 C123 1_555 1_555
C126 C125 1_555 1_555
H96 C126 1_555 1_555
H97 C126 1_555 1_555
H98 C126 1_555 1_555
C127 C125 1_555 1_555
H99 C127 1_555 1_555
H100 C127 1_555 1_555
H101 C127 1_555 1_555
C128 C125 1_555 1_555
H102 C128 1_555 1_555
H103 C128 1_555 1_555
H104 C128 1_555 1_555
C129 C99 1_555 1_555
C130 C129 1_555 1_555
H105 C130 1_555 1_555
C131 C130 1_555 1_555
H106 C131 1_555 1_555
C132 C131 1_555 1_555
H107 C132 1_555 1_555
C133 C132 1_555 1_555
H108 C133 1_555 1_555
C134 C129 1_555 1_555
H109 C134 1_555 1_555
C135 C95 1_555 1_555
C136 C135 1_555 1_555
H110 C136 1_555 1_555
C137 C136 1_555 1_555
H111 C137 1_555 1_555
C138 C137 1_555 1_555
H112 C138 1_555 1_555
C139 C138 1_555 1_555
H113 C139 1_555 1_555
C140 C135 1_555 1_555
H114 C140 1_555 1_555
C1A C2A 1_555 1_555
C2A H1A 1_555 1_555
H2A C2A 1_555 1_555
H3A C2A 1_555 1_555
C3A C1A 1_555 1_555
H4A C3A 1_555 1_555
H5A C3A 1_555 1_555
H6A C3A 1_555 1_555
C4A C1A 1_555 1_555
H7A C4A 1_555 1_555
H8A C4A 1_555 1_555
H9A C4A 1_555 1_555
C5A C1A 1_555 1_555
C6A C5A 1_555 1_555
H10A C6A 1_555 1_555
C7A C6A 1_555 1_555
C8A C7A 1_555 1_555
H11A C8A 1_555 1_555
C9A C8A 1_555 1_555
H12A C9A 1_555 1_555
C10A C9A 1_555 1_555
C11A C10A 1_555 1_555
H13A C11A 1_555 1_555
C12A C11A 1_555 1_555
C13A C12A 1_555 1_555
C14A C13A 1_555 1_555
H14A C14A 1_555 1_555
H15A C14A 1_555 1_555
H16A C14A 1_555 1_555
C15A C13A 1_555 1_555
H17A C15A 1_555 1_555
H18A C15A 1_555 1_555
H19A C15A 1_555 1_555
C16A C13A 1_555 1_555
H20A C16A 1_555 1_555
H21A C16A 1_555 1_555
H22A C16A 1_555 1_555
C17A C12A 1_555 1_555
H23A C17A 1_555 1_555
C18A C17A 1_555 1_555
C19A C10A 1_555 1_555
C20A C7A 1_555 1_555
C21A C20A 1_555 1_555
C22A C5A 1_555 1_555
H24A C22A 1_555 1_555
C23A C21A 1_555 1_555
C24A C18A 1_555 1_555
C25A C24A 1_555 1_555
C26A C25A 1_555 1_555
C27A C26A 1_555 1_555
H25A C27A 1_555 1_555
C28A C27A 1_555 1_555
C29A C28A 1_555 1_555
C30A C29A 1_555 1_555
C31A C51 1_555 1_555
C32A C31A 1_555 1_555
C33A C28A 1_555 1_555
C34A C33A 1_555 1_555
H26A C34A 1_555 1_555
C35A C26A 1_555 1_555
C36A C23A 1_555 1_555
C37A C36A 1_555 1_555
C38A C37A 1_555 1_555
H27A C38A 1_555 1_555
C39A C38A 1_555 1_555
H28A C39A 1_555 1_555
C40A C39A 1_555 1_555
H29A C40A 1_555 1_555
C41A C40A 1_555 1_555
H30A C41A 1_555 1_555
C42A C37A 1_555 1_555
H31A C42A 1_555 1_555
C43A C32A 1_555 1_555
C44A C43A 1_555 1_555
H32A C44A 1_555 1_555
C45A C44A 1_555 1_555
H33A C45A 1_555 1_555
C46A C45A 1_555 1_555
H34A C46A 1_555 1_555
C47A C46A 1_555 1_555
H35A C47A 1_555 1_555
C48A C43A 1_555 1_555
H36A C48A 1_555 1_555
C49A C30A 1_555 1_555
C50A C50 1_555 1_555
C51A C31 1_555 1_555
C52A C51A 1_555 1_555
H37A C52A 1_555 1_555
C53A C52A 1_555 1_555
C54A C49A 1_555 1_555
H38A C54A 1_555 1_555
C55A C53A 1_555 1_555
C56A C55A 1_555 1_555
H39A C56A 1_555 1_555
H40A C56A 1_555 1_555
H41A C56A 1_555 1_555
C57A C55A 1_555 1_555
H42A C57A 1_555 1_555
H43A C57A 1_555 1_555
H44A C57A 1_555 1_555
C58A C55A 1_555 1_555
H45A C58A 1_555 1_555
H46A C58A 1_555 1_555
H47A C58A 1_555 1_555
C59A C29A 1_555 1_555
C60A C59A 1_555 1_555
H48A C60A 1_555 1_555
C61A C60A 1_555 1_555
H49A C61A 1_555 1_555
C62A C61A 1_555 1_555
H50A C62A 1_555 1_555
C63A C62A 1_555 1_555
H51A C63A 1_555 1_555
C64A C59A 1_555 1_555
H52A C64A 1_555 1_555
C65A C25A 1_555 1_555
C66A C65A 1_555 1_555
H53A C66A 1_555 1_555
C67A C66A 1_555 1_555
H54A C67A 1_555 1_555
C68A C67A 1_555 1_555
H55A C68A 1_555 1_555
C69A C68A 1_555 1_555
H56A C69A 1_555 1_555
C70A C65A 1_555 1_555
H57A C70A 1_555 1_555
C71A C72A 1_555 1_555
C72A H58A 1_555 1_555
H59A C72A 1_555 1_555
H60A C72A 1_555 1_555
C73A C71A 1_555 1_555
H61A C73A 1_555 1_555
H62A C73A 1_555 1_555
H63A C73A 1_555 1_555
C74A C71A 1_555 1_555
H64A C74A 1_555 1_555
H65A C74A 1_555 1_555
H66A C74A 1_555 1_555
C75A C71A 1_555 1_555
C76A C75A 1_555 1_555
H67A C76A 1_555 1_555
C77A C76A 1_555 1_555
C78A C77A 1_555 1_555
H68A C78A 1_555 1_555
C79A C78A 1_555 1_555
H69A C79A 1_555 1_555
C80A C79A 1_555 1_555
C81A C80A 1_555 1_555
H70A C81A 1_555 1_555
C82A C81A 1_555 1_555
C83A C82A 1_555 1_555
C84A C83A 1_555 1_555
H71A C84A 1_555 1_555
H72A C84A 1_555 1_555
H73A C84A 1_555 1_555
C85A C83A 1_555 1_555
H74A C85A 1_555 1_555
H75A C85A 1_555 1_555
H76A C85A 1_555 1_555
C86A C83A 1_555 1_555
H77A C86A 1_555 1_555
H78A C86A 1_555 1_555
H79A C86A 1_555 1_555
C87A C82A 1_555 1_555
H80A C87A 1_555 1_555
C88A C87A 1_555 1_555
C89A C80A 1_555 1_555
C90A C77A 1_555 1_555
C91A C90A 1_555 1_555
C92A C75A 1_555 1_555
H81A C92A 1_555 1_555
C93A C91A 1_555 1_555
C94A C88A 1_555 1_555
C95A C94A 1_555 1_555
C96A C95A 1_555 1_555
C97A C96A 1_555 1_555
H82A C97A 1_555 1_555
C98A C97A 1_555 1_555
C99A C98A 1_555 1_555
C100A C99A 1_555 1_555
C101A C121 1_555 1_555
C102A C101A 1_555 1_555
C103A C98A 1_555 1_555
C104A C103A 1_555 1_555
H83A C104A 1_555 1_555
C105A C96A 1_555 1_555
C106A C93A 1_555 1_555
C107A C106A 1_555 1_555
C108A C107A 1_555 1_555
H84A C108A 1_555 1_555
C109A C108A 1_555 1_555
H85A C109A 1_555 1_555
C110A C109A 1_555 1_555
H86A C110A 1_555 1_555
C111A C110A 1_555 1_555
H87A C111A 1_555 1_555
C112A C107A 1_555 1_555
H88A C112A 1_555 1_555
C113A C102A 1_555 1_555
C114A C113A 1_555 1_555
H89A C114A 1_555 1_555
C115A C114A 1_555 1_555
H90A C115A 1_555 1_555
C116A C115A 1_555 1_555
H91A C116A 1_555 1_555
C117A C116A 1_555 1_555
H92A C117A 1_555 1_555
C118A C113A 1_555 1_555
H93A C118A 1_555 1_555
C119A C100A 1_555 1_555
C120A C120 1_555 1_555
C121A C101 1_555 1_555
C122A C121A 1_555 1_555
H94A C122A 1_555 1_555
C123A C122A 1_555 1_555
C124A C119A 1_555 1_555
H95A C124A 1_555 1_555
C125A C123A 1_555 1_555
C126A C125A 1_555 1_555
H96A C126A 1_555 1_555
H97A C126A 1_555 1_555
H98A C126A 1_555 1_555
C127A C125A 1_555 1_555
H99A C127A 1_555 1_555
H100A C127A 1_555 1_555
H101A C127A 1_555 1_555
C128A C125A 1_555 1_555
H102A C128A 1_555 1_555
H103A C128A 1_555 1_555
H104A C128A 1_555 1_555
C129A C99A 1_555 1_555
C130A C129A 1_555 1_555
H105A C130A 1_555 1_555
C131A C130A 1_555 1_555
H106A C131A 1_555 1_555
C132A C131A 1_555 1_555
H107A C132A 1_555 1_555
C133A C132A 1_555 1_555
H108A C133A 1_555 1_555
C134A C129A 1_555 1_555
H109A C134A 1_555 1_555
C135A C95A 1_555 1_555
C136A C135A 1_555 1_555
H110A C136A 1_555 1_555
C137A C136A 1_555 1_555
H111A C137A 1_555 1_555
C138A C137A 1_555 1_555
H112A C138A 1_555 1_555
C139A C138A 1_555 1_555
H113A C139A 1_555 1_555
C140A C135A 1_555 1_555
H114A C140A 1_555 1_555
C18 C19 1_555 1_555
C19 C20 1_555 1_555
C21 C22 1_555 1_555
C23 C24 1_555 1_555
C32 C33 1_555 1_555
C34 C35 1_555 1_555
C35 C36 1_555 1_555
C41 C42 1_555 1_555
C47 C48 1_555 1_555
C53 C54 1_555 1_555
C63 C64 1_555 1_555
C69 C70 1_555 1_555
C88 C89 1_555 1_555
C89 C90 1_555 1_555
C91 C92 1_555 1_555
C93 C94 1_555 1_555
C102 C103 1_555 1_555
C104 C105 1_555 1_555
C105 C106 1_555 1_555
C111 C112 1_555 1_555
C117 C118 1_555 1_555
C123 C124 1_555 1_555
C133 C134 1_555 1_555
C139 C140 1_555 1_555
C18A C19A 1_555 1_555
C19A C20A 1_555 1_555
C21A C22A 1_555 1_555
C23A C24A 1_555 1_555
C30A C31A 1_555 1_555
C32A C33A 1_555 1_555
C34A C35A 1_555 1_555
C35A C36A 1_555 1_555
C41A C42A 1_555 1_555
C47A C48A 1_555 1_555
C49A C50A 1_555 1_555
C50A C51A 1_555 1_555
C53A C54A 1_555 1_555
C63A C64A 1_555 1_555
C69A C70A 1_555 1_555
C88A C89A 1_555 1_555
C89A C90A 1_555 1_555
C91A C92A 1_555 1_555
C93A C94A 1_555 1_555
C100A C101A 1_555 1_555
C102A C103A 1_555 1_555
C104A C105A 1_555 1_555
C105A C106A 1_555 1_555
C111A C112A 1_555 1_555
C117A C118A 1_555 1_555
C119A C120A 1_555 1_555
C120A C121A 1_555 1_555
C123A C124A 1_555 1_555
C133A C134A 1_555 1_555
C139A C140A 1_555 1_555

#END
