
#######################################################################
#
#                 Cambridge Crystallographic Data Centre
#                                CCDC 
#
#######################################################################
#
# If this CIF has been generated from an entry in the Cambridge 
# Structural Database, then it will include bibliographic, chemical, 
# crystal, experimental, refinement or atomic coordinate data resulting 
# from the CCDC's data processing and validation procedures.
#
#######################################################################

data_UFEBIS
_chemical_formula_moiety         'C64 H82 N4 O2'
_chemical_name_systematic        
5,8,15,18-Tetraoctyl-5,8,15,18-tetrahydroindolo[3,2-a]indolo[3',2':5,6]quinolino[3,2-i]acridine-10,20-dione
_symmetry_cell_setting           triclinic
_symmetry_space_group_name_H-M   'P -1'
_symmetry_Int_Tables_number      2
_space_group_name_Hall           '-P 1'
loop_
_symmetry_equiv_pos_site_id
_symmetry_equiv_pos_as_xyz
1 x,y,z
2 -x,-y,-z
_cell_length_a                   9.040(8)
_cell_length_b                   10.523(7)
_cell_length_c                   14.736(10)
_cell_angle_alpha                75.89(2)
_cell_angle_beta                 89.97(3)
_cell_angle_gamma                89.11(3)
_cell_volume                     1359.34
_cell_formula_units_Z            1
loop_
_atom_site_label
_atom_site_type_symbol
_atom_site_fract_x
_atom_site_fract_y
_atom_site_fract_z
C1 C 1.1416(7) 0.2932(5) 0.1536(3)
C2 C 1.2455(8) 0.1911(5) 0.1653(4)
H1 H 1.2185 0.1045 0.1890
C3 C 1.3914(8) 0.2237(6) 0.1401(4)
H2 H 1.4630 0.1575 0.1476
C4 C 1.4320(7) 0.3534(6) 0.1040(4)
H3 H 1.5302 0.3726 0.0880
C5 C 1.3293(7) 0.4524(5) 0.0917(4)
H4 H 1.3574 0.5386 0.0672
C6 C 1.1818(7) 0.4244(4) 0.1161(3)
C7 C 1.0440(6) 0.4970(4) 0.1143(3)
C8 C 1.0009(6) 0.6338(4) 0.0843(3)
C9 C 0.8507(7) 0.6662(4) 0.0983(3)
C10 C 0.7467(6) 0.5668(5) 0.1410(3)
H5 H 0.6497 0.5900 0.1518
C11 C 0.7911(7) 0.4395(5) 0.1654(3)
H6 H 0.7235 0.3750 0.1912
C12 C 0.9354(7) 0.4048(5) 0.1521(3)
C13 C 1.1038(7) 0.7361(4) 0.0395(3)
C14 C 1.0478(7) 0.8711(4) 0.0202(3)
C15 C 0.8992(7) 0.8975(4) 0.0373(3)
C16 C 0.8523(6) 1.0270(4) 0.0170(3)
H7 H 0.7544 1.0475 0.0278
C17 C 0.9103(7) 0.1619(5) 0.2141(3)
H8 H 0.9583 0.0887 0.1961
H9 H 0.8116 0.1721 0.1872
C18 C 0.8974(7) 0.1297(5) 0.3202(4)
H10 H 0.8592 0.2058 0.3392
H11 H 0.9948 0.1087 0.3479
C19 C 0.7933(8) 0.0118(6) 0.3571(4)
H12 H 0.6954 0.0353 0.3308
H13 H 0.8291 -0.0620 0.3343
C20 C 0.7801(10) -0.0310(8) 0.4617(5)
H14 H 0.7407 0.0411 0.4852
H15 H 0.8775 -0.0538 0.4890
C21 C 0.6722(12) -0.1568(9) 0.4936(6)
H16 H 0.5731 -0.1303 0.4705
H17 H 0.7062 -0.2244 0.4636
C22 C 0.6646(15) -0.2102(13) 0.5887(8)
H18 H 0.6439 -0.1389 0.6182
H19 H 0.7624 -0.2443 0.6094
C23 C 0.554(2) -0.3187(18) 0.6282(9)
H20 H 0.6058 -0.3790 0.6791
H21 H 0.4766 -0.2775 0.6569
C24 C 0.477(3) -0.4027(19) 0.5750(13)
H22 H 0.4137 -0.4627 0.6166
H23 H 0.5487 -0.4512 0.5484
H24 H 0.4183 -0.3482 0.5258
C25 C 0.6418(6) 0.8223(5) 0.0842(4)
H25 H 0.5858 0.7517 0.0700
H26 H 0.6151 0.9019 0.0378
C26 C 0.5928(7) 0.8386(5) 0.1793(4)
H27 H 0.6268 0.9224 0.1868
H28 H 0.6405 0.7707 0.2273
C27 C 0.4248(8) 0.8319(7) 0.1953(5)
H29 H 0.3797 0.9048 0.1500
H30 H 0.3910 0.7523 0.1802
C28 C 0.3673(10) 0.8338(9) 0.2845(6)
H31 H 0.3889 0.9185 0.2961
H32 H 0.4212 0.7683 0.3310
C29 C 0.2005(10) 0.8095(9) 0.3015(6)
H33 H 0.1701 0.8509 0.3507
H34 H 0.1482 0.8546 0.2450
C30 C 0.1492(10) 0.6729(9) 0.3272(6)
H35 H 0.2060 0.6255 0.3809
H36 H 0.1713 0.6331 0.2758
C31 C -0.0134(10) 0.6545(9) 0.3502(6)
H37 H -0.0719 0.7016 0.2971
H38 H -0.0367 0.6912 0.4029
C32 C -0.0545(13) 0.5093(10) 0.3741(6)
H39 H -0.1580 0.5011 0.3884
H40 H 0.0022 0.4628 0.4273
H41 H -0.0333 0.4732 0.3216
N1 N 0.9938(5) 0.2815(4) 0.1743(3)
N2 N 0.8000(5) 0.7946(4) 0.0730(3)
O1 O 1.2334(5) 0.7159(3) 0.0174(3)
C1A C 0.8584(7) 1.7068(5) -0.1536(3)
C2A C 0.7545(8) 1.8089(5) -0.1653(4)
H1A H 0.7815 1.8955 -0.1890
C3A C 0.6086(8) 1.7763(6) -0.1401(4)
H2A H 0.5370 1.8425 -0.1476
C4A C 0.5680(7) 1.6466(6) -0.1040(4)
H3A H 0.4698 1.6274 -0.0880
C5A C 0.6707(7) 1.5476(5) -0.0917(4)
H4A H 0.6426 1.4614 -0.0672
C6A C 0.8182(7) 1.5756(4) -0.1161(3)
C7A C 0.9560(6) 1.5030(4) -0.1143(3)
C8A C 0.9991(6) 1.3662(4) -0.0843(3)
C9A C 1.1493(7) 1.3338(4) -0.0983(3)
C10A C 1.2533(6) 1.4332(5) -0.1410(3)
H5A H 1.3503 1.4100 -0.1518
C11A C 1.2089(7) 1.5605(5) -0.1654(3)
H6A H 1.2765 1.6250 -0.1912
C12A C 1.0646(7) 1.5952(5) -0.1521(3)
C13A C 0.8962(7) 1.2639(4) -0.0395(3)
C14A C 0.9522(7) 1.1289(4) -0.0202(3)
C15A C 1.1008(7) 1.1025(4) -0.0373(3)
C16A C 1.1477(6) 0.9730(4) -0.0170(3)
H7A H 1.2456 0.9525 -0.0278
C17A C 1.0897(7) 1.8381(5) -0.2141(3)
H8A H 1.0417 1.9113 -0.1961
H9A H 1.1884 1.8279 -0.1872
C18A C 1.1026(7) 1.8703(5) -0.3202(4)
H10A H 1.1408 1.7942 -0.3392
H11A H 1.0052 1.8913 -0.3479
C19A C 1.2067(8) 1.9882(6) -0.3571(4)
H12A H 1.3046 1.9647 -0.3308
H13A H 1.1709 2.0620 -0.3343
C20A C 1.2199(10) 2.0310(8) -0.4617(5)
H14A H 1.2593 1.9589 -0.4852
H15A H 1.1225 2.0538 -0.4890
C21A C 1.3278(12) 2.1568(9) -0.4936(6)
H16A H 1.4269 2.1303 -0.4705
H17A H 1.2938 2.2244 -0.4636
C22A C 1.3354(15) 2.2102(13) -0.5887(8)
H18A H 1.3561 2.1389 -0.6182
H19A H 1.2376 2.2443 -0.6094
C23A C 1.446(2) 2.3187(18) -0.6282(9)
H20A H 1.3942 2.3790 -0.6791
H21A H 1.5234 2.2775 -0.6569
C24A C 1.523(3) 2.4027(19) -0.5750(13)
H22A H 1.5863 2.4627 -0.6166
H23A H 1.4513 2.4512 -0.5484
H24A H 1.5817 2.3482 -0.5258
C25A C 1.3582(6) 1.1777(5) -0.0842(4)
H25A H 1.4142 1.2483 -0.0700
H26A H 1.3849 1.0981 -0.0378
C26A C 1.4072(7) 1.1614(5) -0.1793(4)
H27A H 1.3732 1.0776 -0.1868
H28A H 1.3595 1.2293 -0.2273
C27A C 1.5752(8) 1.1681(7) -0.1953(5)
H29A H 1.6203 1.0952 -0.1500
H30A H 1.6090 1.2477 -0.1802
C28A C 1.6327(10) 1.1662(9) -0.2845(6)
H31A H 1.6111 1.0815 -0.2961
H32A H 1.5788 1.2317 -0.3310
C29A C 1.7995(10) 1.1905(9) -0.3015(6)
H33A H 1.8299 1.1491 -0.3507
H34A H 1.8518 1.1454 -0.2450
C30A C 1.8508(10) 1.3271(9) -0.3272(6)
H35A H 1.7940 1.3745 -0.3809
H36A H 1.8287 1.3669 -0.2758
C31A C 2.0134(10) 1.3455(9) -0.3502(6)
H37A H 2.0719 1.2984 -0.2971
H38A H 2.0367 1.3088 -0.4029
C32A C 2.0545(13) 1.4907(10) -0.3741(6)
H39A H 2.1580 1.4989 -0.3884
H40A H 1.9978 1.5372 -0.4273
H41A H 2.0333 1.5268 -0.3216
N1A N 1.0062(5) 1.7185(4) -0.1743(3)
N2A N 1.2000(5) 1.2054(4) -0.0730(3)
O1A O 0.7666(5) 1.2841(3) -0.0174(3)
loop_
_geom_bond_atom_site_label_1
_geom_bond_atom_site_label_2
_geom_bond_site_symmetry_1
_geom_bond_site_symmetry_2
C1 C2 1_555 1_555
C2 H1 1_555 1_555
C3 C2 1_555 1_555
H2 C3 1_555 1_555
C4 C3 1_555 1_555
H3 C4 1_555 1_555
C5 C4 1_555 1_555
H4 C5 1_555 1_555
C6 C1 1_555 1_555
C7 C6 1_555 1_555
C8 C7 1_555 1_555
C9 C8 1_555 1_555
C10 C9 1_555 1_555
H5 C10 1_555 1_555
C11 C10 1_555 1_555
H6 C11 1_555 1_555
C12 C7 1_555 1_555
C13 C8 1_555 1_555
C14 C13 1_555 1_555
C15 C14 1_555 1_555
C16 C15 1_555 1_555
H7 C16 1_555 1_555
C17 H8 1_555 1_555
H9 C17 1_555 1_555
C18 C17 1_555 1_555
H10 C18 1_555 1_555
H11 C18 1_555 1_555
C19 C18 1_555 1_555
H12 C19 1_555 1_555
H13 C19 1_555 1_555
C20 C19 1_555 1_555
H14 C20 1_555 1_555
H15 C20 1_555 1_555
C21 C20 1_555 1_555
H16 C21 1_555 1_555
H17 C21 1_555 1_555
C22 C21 1_555 1_555
H18 C22 1_555 1_555
H19 C22 1_555 1_555
C23 C22 1_555 1_555
H20 C23 1_555 1_555
H21 C23 1_555 1_555
C24 C23 1_555 1_555
H22 C24 1_555 1_555
H23 C24 1_555 1_555
H24 C24 1_555 1_555
C25 H25 1_555 1_555
H26 C25 1_555 1_555
C26 C25 1_555 1_555
H27 C26 1_555 1_555
H28 C26 1_555 1_555
C27 C26 1_555 1_555
H29 C27 1_555 1_555
H30 C27 1_555 1_555
C28 C27 1_555 1_555
H31 C28 1_555 1_555
H32 C28 1_555 1_555
C29 C28 1_555 1_555
H33 C29 1_555 1_555
H34 C29 1_555 1_555
C30 C29 1_555 1_555
H35 C30 1_555 1_555
H36 C30 1_555 1_555
C31 C30 1_555 1_555
H37 C31 1_555 1_555
H38 C31 1_555 1_555
C32 C31 1_555 1_555
H39 C32 1_555 1_555
H40 C32 1_555 1_555
H41 C32 1_555 1_555
N1 C1 1_555 1_555
N2 C9 1_555 1_555
O1 C13 1_555 1_555
C1A C2A 1_555 1_555
C2A H1A 1_555 1_555
C3A C2A 1_555 1_555
H2A C3A 1_555 1_555
C4A C3A 1_555 1_555
H3A C4A 1_555 1_555
C5A C4A 1_555 1_555
H4A C5A 1_555 1_555
C6A C1A 1_555 1_555
C7A C6A 1_555 1_555
C8A C7A 1_555 1_555
C9A C8A 1_555 1_555
C10A C9A 1_555 1_555
H5A C10A 1_555 1_555
C11A C10A 1_555 1_555
H6A C11A 1_555 1_555
C12A C7A 1_555 1_555
C13A C8A 1_555 1_555
C14A C16 1_555 1_555
C15A C14A 1_555 1_555
C16A C14 1_555 1_555
H7A C16A 1_555 1_555
C17A H8A 1_555 1_555
H9A C17A 1_555 1_555
C18A C17A 1_555 1_555
H10A C18A 1_555 1_555
H11A C18A 1_555 1_555
C19A C18A 1_555 1_555
H12A C19A 1_555 1_555
H13A C19A 1_555 1_555
C20A C19A 1_555 1_555
H14A C20A 1_555 1_555
H15A C20A 1_555 1_555
C21A C20A 1_555 1_555
H16A C21A 1_555 1_555
H17A C21A 1_555 1_555
C22A C21A 1_555 1_555
H18A C22A 1_555 1_555
H19A C22A 1_555 1_555
C23A C22A 1_555 1_555
H20A C23A 1_555 1_555
H21A C23A 1_555 1_555
C24A C23A 1_555 1_555
H22A C24A 1_555 1_555
H23A C24A 1_555 1_555
H24A C24A 1_555 1_555
C25A H25A 1_555 1_555
H26A C25A 1_555 1_555
C26A C25A 1_555 1_555
H27A C26A 1_555 1_555
H28A C26A 1_555 1_555
C27A C26A 1_555 1_555
H29A C27A 1_555 1_555
H30A C27A 1_555 1_555
C28A C27A 1_555 1_555
H31A C28A 1_555 1_555
H32A C28A 1_555 1_555
C29A C28A 1_555 1_555
H33A C29A 1_555 1_555
H34A C29A 1_555 1_555
C30A C29A 1_555 1_555
H35A C30A 1_555 1_555
H36A C30A 1_555 1_555
C31A C30A 1_555 1_555
H37A C31A 1_555 1_555
H38A C31A 1_555 1_555
C32A C31A 1_555 1_555
H39A C32A 1_555 1_555
H40A C32A 1_555 1_555
H41A C32A 1_555 1_555
N1A C1A 1_555 1_555
N2A C9A 1_555 1_555
O1A C13A 1_555 1_555
C5 C6 1_555 1_555
C11 C12 1_555 1_555
C12 N1 1_555 1_555
C15 N2 1_555 1_555
C17 N1 1_555 1_555
C25 N2 1_555 1_555
C5A C6A 1_555 1_555
C11A C12A 1_555 1_555
C12A N1A 1_555 1_555
C13A C14A 1_555 1_555
C15A C16A 1_555 1_555
C15A N2A 1_555 1_555
C17A N1A 1_555 1_555
C25A N2A 1_555 1_555

#END
