
#######################################################################
#
#                 Cambridge Crystallographic Data Centre
#                                CCDC 
#
#######################################################################
#
# If this CIF has been generated from an entry in the Cambridge 
# Structural Database, then it will include bibliographic, chemical, 
# crystal, experimental, refinement or atomic coordinate data resulting 
# from the CCDC's data processing and validation procedures.
#
#######################################################################

data_UFECIR
_chemical_formula_moiety         'C16 H12 Cl1 N1 O2'
_chemical_name_systematic        
N-(2-Chlorobenzyl)-1,2,3,4-tetrahydroisoquinoline-1,3-dione
_symmetry_cell_setting           monoclinic
_symmetry_space_group_name_H-M   'P 21/n'
_symmetry_Int_Tables_number      14
_space_group_name_Hall           '-P 2yn'
loop_
_symmetry_equiv_pos_site_id
_symmetry_equiv_pos_as_xyz
1 x,y,z
2 1/2+x,1/2-y,1/2+z
3 -x,-y,-z
4 1/2-x,1/2+y,1/2-z
_cell_length_a                   7.7922(14)
_cell_length_b                   21.538(4)
_cell_length_c                   24.351(5)
_cell_angle_alpha                90
_cell_angle_beta                 98.92(2)
_cell_angle_gamma                90
_cell_volume                     4037.36
_exptl_crystal_colour            colorless
_exptl_crystal_description       prism
_chemical_melting_point          435-437K
_cell_formula_units_Z            12
_exptl_crystal_recrystallization_method 'ethyl acetate/hexane'
loop_
_atom_site_label
_atom_site_type_symbol
_atom_site_fract_x
_atom_site_fract_y
_atom_site_fract_z
Cl1 Cl 0.97253(16) 0.75637(5) 0.33096(6)
N1 N 0.8330(4) 0.59516(13) 0.42749(11)
O1 O 0.8642(4) 0.55336(13) 0.34525(10)
O2 O 0.8095(5) 0.63704(13) 0.51103(12)
C1 C 0.8301(5) 0.54512(17) 0.39165(13)
C2 C 0.7782(5) 0.48367(16) 0.41021(13)
H1 H 0.8652 0.4529 0.4019
H2 H 0.6660 0.4724 0.3875
C3 C 0.7317(5) 0.41894(17) 0.49172(15)
H3 H 0.7259 0.3832 0.4686
C4 C 0.7129(5) 0.4130(2) 0.54606(17)
H4 H 0.6976 0.3729 0.5609
C5 C 0.7159(5) 0.4639(2) 0.57951(16)
H5 H 0.6998 0.4592 0.6172
C6 C 0.7422(5) 0.52244(19) 0.55884(14)
H6 H 0.7440 0.5580 0.5821
C7 C 0.8029(5) 0.59081(17) 0.48238(14)
C8 C 0.7660(4) 0.52861(16) 0.50335(13)
C9 C 0.7593(4) 0.47705(15) 0.46972(13)
C10 C 0.7293(4) 0.68657(14) 0.37006(13)
C11 C 0.7593(5) 0.73405(15) 0.33435(16)
C12 C 0.6248(7) 0.7641(2) 0.3020(2)
H7 H 0.6486 0.7963 0.2776
C13 C 0.4570(6) 0.7477(2) 0.30459(19)
H8 H 0.3639 0.7693 0.2828
C14 C 0.4235(5) 0.7006(2) 0.33840(17)
H9 H 0.3073 0.6884 0.3400
C15 C 0.5596(5) 0.67084(18) 0.37016(16)
H10 H 0.5346 0.6377 0.3934
C16 C 0.8788(5) 0.65554(17) 0.40652(16)
H11 H 0.9757 0.6500 0.3850
H12 H 0.9201 0.6830 0.4384
Cl2 Cl 0.25039(13) 0.27435(5) 0.02324(5)
N2 N 0.1484(3) 0.44858(13) 0.10985(11)
O3 O 0.2034(4) 0.47403(14) 0.02456(11)
O4 O 0.0940(4) 0.42243(12) 0.19529(11)
C17 C 0.1646(4) 0.49158(18) 0.06820(14)
C18 C 0.1299(5) 0.55794(17) 0.07851(13)
H13 H 0.2295 0.5825 0.0698
H14 H 0.0265 0.5707 0.0520
C19 C 0.0834(5) 0.63678(17) 0.14993(15)
H15 H 0.0943 0.6687 0.1237
C20 C 0.0513(6) 0.65202(19) 0.20233(17)
H16 H 0.0379 0.6944 0.2118
C21 C 0.0384(5) 0.60659(19) 0.24109(16)
H17 H 0.0168 0.6176 0.2772
C22 C 0.0566(5) 0.54569(17) 0.22764(14)
H18 H 0.0477 0.5142 0.2544
C23 C 0.1087(4) 0.46346(16) 0.16191(13)
C24 C 0.0882(4) 0.52974(15) 0.17476(12)
C25 C 0.0999(4) 0.57507(16) 0.13517(13)
C26 C 0.0256(4) 0.35185(15) 0.06401(13)
C27 C 0.0441(4) 0.30199(15) 0.02938(13)
C28 C -0.0975(5) 0.27190(17) 0.00031(16)
H19 H -0.0813 0.2380 -0.0234
C29 C -0.2625(5) 0.29106(19) 0.00565(17)
H20 H -0.3605 0.2702 -0.0141
C30 C -0.2853(5) 0.34018(19) 0.03954(18)
H21 H -0.3990 0.3538 0.0431
C31 C -0.1422(5) 0.36954(18) 0.06827(16)
H22 H -0.1594 0.4033 0.0920
C32 C 0.1798(4) 0.38311(16) 0.09724(16)
H23 H 0.2127 0.3603 0.1326
H24 H 0.2789 0.3808 0.0763
Cl3 Cl 1.07537(16) -0.18148(5) 0.15379(6)
N3 N 0.9770(3) -0.03383(12) 0.27012(10)
O5 O 1.0418(4) 0.00997(13) 0.19228(10)
O6 O 0.9143(4) -0.07817(12) 0.34833(10)
C33 C 0.9998(4) 0.01755(17) 0.23739(13)
C34 C 0.9661(5) 0.08015(16) 0.25877(14)
H25 H 0.8635 0.0977 0.2347
H26 H 1.0665 0.1070 0.2547
C35 C 0.9223(5) 0.14154(18) 0.34284(16)
H27 H 0.9349 0.1786 0.3226
C36 C 0.8918(6) 0.1452(2) 0.39634(18)
H28 H 0.8830 0.1848 0.4129
C37 C 0.8737(5) 0.0925(2) 0.42657(15)
H29 H 0.8526 0.0956 0.4639
C38 C 0.8861(5) 0.03540(18) 0.40264(14)
H30 H 0.8724 -0.0013 0.4232
C39 C 0.9346(4) -0.03072(15) 0.32361(13)
C40 C 0.9190(4) 0.03115(15) 0.34812(12)
C41 C 0.9351(4) 0.08437(15) 0.31746(13)
C42 C 0.8500(4) -0.11897(14) 0.20870(13)
C43 C 0.8677(5) -0.16024(15) 0.16607(15)
C44 C 0.7265(6) -0.18443(18) 0.13214(17)
H31 H 0.7427 -0.2124 0.1032
C45 C 0.5625(6) -0.16814(19) 0.14008(18)
H32 H 0.4643 -0.1847 0.1167
C46 C 0.5406(5) -0.12768(18) 0.18197(16)
H33 H 0.4271 -0.1161 0.1877
C47 C 0.6828(4) -0.10409(16) 0.21552(14)
H34 H 0.6655 -0.0764 0.2446
C48 C 1.0054(4) -0.09482(16) 0.24707(15)
H35 H 1.0361 -0.1246 0.2780
H36 H 1.1052 -0.0923 0.2265
loop_
_geom_bond_atom_site_label_1
_geom_bond_atom_site_label_2
_geom_bond_site_symmetry_1
_geom_bond_site_symmetry_2
Cl1 C11 1_555 1_555
N1 C1 1_555 1_555
O1 C1 1_555 1_555
O2 C7 1_555 1_555
C1 C2 1_555 1_555
C2 H1 1_555 1_555
H2 C2 1_555 1_555
C3 H3 1_555 1_555
C4 C3 1_555 1_555
H4 C4 1_555 1_555
C5 C4 1_555 1_555
H5 C5 1_555 1_555
C6 C5 1_555 1_555
H6 C6 1_555 1_555
C7 N1 1_555 1_555
C8 C6 1_555 1_555
C9 C2 1_555 1_555
C10 C11 1_555 1_555
C11 C12 1_555 1_555
C12 H7 1_555 1_555
C13 C12 1_555 1_555
H8 C13 1_555 1_555
C14 C13 1_555 1_555
H9 C14 1_555 1_555
C15 C10 1_555 1_555
H10 C15 1_555 1_555
C16 N1 1_555 1_555
H11 C16 1_555 1_555
H12 C16 1_555 1_555
Cl2 C27 1_555 1_555
N2 C17 1_555 1_555
O3 C17 1_555 1_555
O4 C23 1_555 1_555
C17 C18 1_555 1_555
C18 H13 1_555 1_555
H14 C18 1_555 1_555
C19 H15 1_555 1_555
C20 C19 1_555 1_555
H16 C20 1_555 1_555
C21 C20 1_555 1_555
H17 C21 1_555 1_555
C22 C21 1_555 1_555
H18 C22 1_555 1_555
C23 N2 1_555 1_555
C24 C22 1_555 1_555
C25 C18 1_555 1_555
C26 C27 1_555 1_555
C27 C28 1_555 1_555
C28 H19 1_555 1_555
C29 C28 1_555 1_555
H20 C29 1_555 1_555
C30 C29 1_555 1_555
H21 C30 1_555 1_555
C31 C26 1_555 1_555
H22 C31 1_555 1_555
C32 N2 1_555 1_555
H23 C32 1_555 1_555
H24 C32 1_555 1_555
Cl3 C43 1_555 1_555
N3 C33 1_555 1_555
O5 C33 1_555 1_555
O6 C39 1_555 1_555
C33 C34 1_555 1_555
C34 H25 1_555 1_555
H26 C34 1_555 1_555
C35 H27 1_555 1_555
C36 C35 1_555 1_555
H28 C36 1_555 1_555
C37 C36 1_555 1_555
H29 C37 1_555 1_555
C38 C37 1_555 1_555
H30 C38 1_555 1_555
C39 N3 1_555 1_555
C40 C38 1_555 1_555
C41 C34 1_555 1_555
C42 C43 1_555 1_555
C43 C44 1_555 1_555
C44 H31 1_555 1_555
C45 C44 1_555 1_555
H32 C45 1_555 1_555
C46 C45 1_555 1_555
H33 C46 1_555 1_555
C47 C42 1_555 1_555
H34 C47 1_555 1_555
C48 N3 1_555 1_555
H35 C48 1_555 1_555
H36 C48 1_555 1_555
C3 C9 1_555 1_555
C7 C8 1_555 1_555
C8 C9 1_555 1_555
C10 C16 1_555 1_555
C14 C15 1_555 1_555
C19 C25 1_555 1_555
C23 C24 1_555 1_555
C24 C25 1_555 1_555
C26 C32 1_555 1_555
C30 C31 1_555 1_555
C35 C41 1_555 1_555
C39 C40 1_555 1_555
C40 C41 1_555 1_555
C42 C48 1_555 1_555
C46 C47 1_555 1_555

#END
