
#######################################################################
#
#                 Cambridge Crystallographic Data Centre
#                                CCDC 
#
#######################################################################
#
# If this CIF has been generated from an entry in the Cambridge 
# Structural Database, then it will include bibliographic, chemical, 
# crystal, experimental, refinement or atomic coordinate data resulting 
# from the CCDC's data processing and validation procedures.
#
#######################################################################

data_UFECUG
_chemical_formula_moiety         'C27 H23 N3 O1'
_chemical_name_systematic        
3-[6-(dimethylamino)-1-methoxynaphthalen-2-yl]-2-[4-(pyridin-4-yl)phenyl]prop-2-enenitrile
_symmetry_cell_setting           orthorhombic
_symmetry_space_group_name_H-M   'P 21 21 21'
_symmetry_Int_Tables_number      19
_space_group_name_Hall           'P 2ac 2ab'
loop_
_symmetry_equiv_pos_site_id
_symmetry_equiv_pos_as_xyz
1 x,y,z
2 1/2-x,-y,1/2+z
3 1/2+x,1/2-y,-z
4 -x,1/2+y,1/2-z
_cell_length_a                   9.44471(10)
_cell_length_b                   10.54296(10)
_cell_length_c                   21.2952(2)
_cell_angle_alpha                90
_cell_angle_beta                 90
_cell_angle_gamma                90
_cell_volume                     2120.47
_exptl_crystal_colour            red
_exptl_crystal_description       block
_cell_formula_units_Z            4
_exptl_crystal_recrystallization_method 
'Re-crystallisation from solvent: dichloromethane/methanol'
loop_
_atom_site_label
_atom_site_type_symbol
_atom_site_fract_x
_atom_site_fract_y
_atom_site_fract_z
O1 O 0.74183(13) 0.71744(11) 0.13568(5)
N1 N 0.64943(18) 0.62391(16) -0.15764(7)
N2 N 0.26318(19) 0.38593(19) 0.23664(7)
N3 N 0.6182(2) 0.70096(18) 0.64741(7)
C1 C 0.64433(18) 0.64111(15) 0.10577(7)
C2 C 0.64557(18) 0.63959(15) 0.03974(8)
C3 C 0.74075(19) 0.71282(17) 0.00366(8)
H1 H 0.805437 0.766289 0.024265
C4 C 0.7411(2) 0.70790(17) -0.06035(8)
H2 H 0.805340 0.758537 -0.082914
C5 C 0.64586(19) 0.62724(17) -0.09366(8)
C6 C 0.55115(19) 0.55433(17) -0.05879(8)
H3 H 0.487956 0.500100 -0.079820
C7 C 0.54806(18) 0.56013(16) 0.00723(7)
C8 C 0.45195(19) 0.48723(17) 0.04361(8)
H4 H 0.387601 0.433259 0.023108
C9 C 0.4507(2) 0.49356(17) 0.10743(8)
H5 H 0.383925 0.445340 0.129830
C10 C 0.54782(19) 0.57132(16) 0.14125(7)
C11 C 0.55632(18) 0.58248(16) 0.20919(8)
H6 H 0.629644 0.635780 0.223135
C12 C 0.47901(18) 0.53092(15) 0.25623(8)
C13 C 0.35942(19) 0.45073(18) 0.24392(7)
C14 C 0.50690(17) 0.55379(15) 0.32412(7)
C15 C 0.6146(2) 0.63453(18) 0.34398(8)
H7 H 0.672327 0.674539 0.313985
C16 C 0.63790(19) 0.65679(17) 0.40696(8)
H8 H 0.711524 0.711677 0.418948
C17 C 0.55524(18) 0.60010(15) 0.45321(7)
C18 C 0.4504(2) 0.51685(17) 0.43361(8)
H9 H 0.394516 0.475250 0.463766
C19 C 0.42655(19) 0.49384(18) 0.37035(8)
H10 H 0.354921 0.436811 0.358438
C20 C 0.7235(2) 0.70454(19) 0.60535(9)
H11 H 0.813225 0.730828 0.619293
C21 C 0.70899(19) 0.67225(17) 0.54303(8)
H12 H 0.787197 0.677525 0.515858
C22 C 0.57816(18) 0.63174(15) 0.52029(8)
C23 C 0.4691(2) 0.62603(19) 0.56397(8)
H13 H 0.378762 0.598119 0.551669
C24 C 0.4936(2) 0.6614(2) 0.62553(9)
H14 H 0.417285 0.657298 0.653817
C25 C 0.8736(2) 0.6556(2) 0.14828(10)
H15 H 0.925627 0.644921 0.109367
H16 H 0.855668 0.573132 0.166872
H17 H 0.928828 0.706723 0.177150
C26 C 0.7405(2) 0.7077(2) -0.19332(8)
H18 H 0.719060 0.795079 -0.182708
H19 H 0.724686 0.694365 -0.237848
H20 H 0.838638 0.689741 -0.183319
C27 C 0.5570(3) 0.5382(2) -0.19158(8)
H21 H 0.578864 0.451397 -0.179978
H22 H 0.571160 0.549132 -0.236368
H23 H 0.459243 0.556680 -0.181096
loop_
_geom_bond_atom_site_label_1
_geom_bond_atom_site_label_2
_geom_bond_site_symmetry_1
_geom_bond_site_symmetry_2
O1 C1 1_555 1_555
N1 C5 1_555 1_555
N2 C13 1_555 1_555
N3 C20 1_555 1_555
C1 C2 1_555 1_555
C2 C3 1_555 1_555
C3 H1 1_555 1_555
C4 C3 1_555 1_555
H2 C4 1_555 1_555
C5 C4 1_555 1_555
C6 C5 1_555 1_555
H3 C6 1_555 1_555
C7 C2 1_555 1_555
C8 C7 1_555 1_555
H4 C8 1_555 1_555
C9 C8 1_555 1_555
H5 C9 1_555 1_555
C10 C1 1_555 1_555
C11 C10 1_555 1_555
H6 C11 1_555 1_555
C12 C11 1_555 1_555
C13 C12 1_555 1_555
C14 C12 1_555 1_555
C15 C14 1_555 1_555
H7 C15 1_555 1_555
C16 C15 1_555 1_555
H8 C16 1_555 1_555
C17 C16 1_555 1_555
C18 C17 1_555 1_555
H9 C18 1_555 1_555
C19 C14 1_555 1_555
H10 C19 1_555 1_555
C20 H11 1_555 1_555
C21 C20 1_555 1_555
H12 C21 1_555 1_555
C22 C17 1_555 1_555
C23 C22 1_555 1_555
H13 C23 1_555 1_555
C24 N3 1_555 1_555
H14 C24 1_555 1_555
C25 O1 1_555 1_555
H15 C25 1_555 1_555
H16 C25 1_555 1_555
H17 C25 1_555 1_555
C26 N1 1_555 1_555
H18 C26 1_555 1_555
H19 C26 1_555 1_555
H20 C26 1_555 1_555
C27 N1 1_555 1_555
H21 C27 1_555 1_555
H22 C27 1_555 1_555
H23 C27 1_555 1_555
C6 C7 1_555 1_555
C9 C10 1_555 1_555
C18 C19 1_555 1_555
C21 C22 1_555 1_555
C23 C24 1_555 1_555

#END
