
#######################################################################
#
#                 Cambridge Crystallographic Data Centre
#                                CCDC 
#
#######################################################################
#
# If this CIF has been generated from an entry in the Cambridge 
# Structural Database, then it will include bibliographic, chemical, 
# crystal, experimental, refinement or atomic coordinate data resulting 
# from the CCDC's data processing and validation procedures.
#
#######################################################################

data_UFEFUJ
_chemical_formula_moiety         'C26 H22 Cl1 N1 O3'
_chemical_name_systematic        
N-(3-benzyl-2-oxo-6-phenyl-2,3,4,7-tetrahydrooxepin-3-yl)-4-chlorobenzamide
_symmetry_cell_setting           triclinic
_symmetry_space_group_name_H-M   'P -1'
_symmetry_Int_Tables_number      2
_space_group_name_Hall           '-P 1'
loop_
_symmetry_equiv_pos_site_id
_symmetry_equiv_pos_as_xyz
1 x,y,z
2 -x,-y,-z
_cell_length_a                   9.588(4)
_cell_length_b                   14.091(7)
_cell_length_c                   15.915(7)
_cell_angle_alpha                88.60(2)
_cell_angle_beta                 78.027(16)
_cell_angle_gamma                88.20(3)
_cell_volume                     2102.02
_exptl_crystal_colour            colorless
_exptl_crystal_description       prism
_cell_formula_units_Z            4
loop_
_atom_site_label
_atom_site_type_symbol
_atom_site_fract_x
_atom_site_fract_y
_atom_site_fract_z
Cl1 Cl 0.36127(16) 0.61919(11) 1.48353(8)
O1 O 0.1635(3) 0.5318(2) 0.9237(2)
O2 O 0.3601(4) 0.4759(2) 0.9536(2)
O3 O 0.1420(4) 0.5855(2) 1.1130(2)
N1 N 0.3623(4) 0.6359(3) 1.0582(2)
C1 C 0.0478(5) 0.6020(3) 0.9285(3)
H1 H 0.0219 0.6273 0.9873
H2 H -0.0371 0.5717 0.9158
C2 C 0.0921(5) 0.6826(3) 0.8648(3)
C3 C 0.1826(5) 0.7430(3) 0.8850(3)
H3 H 0.2120 0.7951 0.8472
C4 C 0.2399(5) 0.7318(3) 0.9652(3)
H4 H 0.1583 0.7293 1.0148
H5 H 0.2940 0.7890 0.9713
C5 C 0.3380(5) 0.6432(3) 0.9704(3)
C6 C 0.2837(5) 0.5447(3) 0.9490(3)
C7 C 0.0431(5) 0.6877(3) 0.7826(3)
C8 C -0.0891(5) 0.6540(3) 0.7751(3)
H6 H -0.1501 0.6269 0.8239
C9 C -0.1321(6) 0.6595(4) 0.6976(4)
H7 H -0.2223 0.6362 0.6936
C10 C -0.0450(6) 0.6987(4) 0.6254(4)
H8 H -0.0750 0.7023 0.5721
C11 C 0.0864(6) 0.7327(4) 0.6319(3)
H9 H 0.1471 0.7599 0.5830
C12 C 0.1288(5) 0.7270(3) 0.7094(3)
H10 H 0.2191 0.7505 0.7131
C13 C 0.4874(5) 0.6557(3) 0.9122(3)
H11 H 0.5338 0.7081 0.9353
H12 H 0.5449 0.5970 0.9175
C14 C 0.4947(5) 0.6760(3) 0.8176(3)
C15 C 0.4772(5) 0.6052(3) 0.7607(3)
H13 H 0.4549 0.5429 0.7825
C16 C 0.4915(5) 0.6238(3) 0.6743(3)
H14 H 0.4797 0.5743 0.6370
C17 C 0.5233(5) 0.7148(4) 0.6407(3)
H15 H 0.5328 0.7278 0.5810
C18 C 0.5408(5) 0.7857(3) 0.6956(3)
H16 H 0.5620 0.8481 0.6737
C19 C 0.5274(5) 0.7661(3) 0.7820(3)
H17 H 0.5410 0.8157 0.8187
C20 C 0.2578(5) 0.6096(3) 1.1242(3)
C21 C 0.2892(5) 0.6135(3) 1.2128(3)
C22 C 0.4152(5) 0.6470(3) 1.2294(3)
H18 H 0.4875 0.6682 1.1831
C23 C 0.4365(5) 0.6497(3) 1.3124(3)
H19 H 0.5228 0.6729 1.3235
C24 C 0.3320(5) 0.6185(3) 1.3789(3)
C25 C 0.2049(6) 0.5865(4) 1.3648(3)
H20 H 0.1323 0.5667 1.4115
C26 C 0.1850(5) 0.5838(3) 1.2818(3)
H21 H 0.0980 0.5610 1.2715
H22 H 0.451(2) 0.641(4) 1.068(3)
Cl2 Cl 0.90310(18) 1.12559(10) -0.44272(9)
O4 O 0.6413(3) 0.7628(2) 0.0827(2)
O5 O 0.5005(3) 0.8723(2) 0.0462(2)
O6 O 0.8033(4) 0.8449(2) -0.0918(2)
N2 N 0.7360(4) 0.9825(3) -0.0239(3)
C27 C 0.7828(5) 0.7242(3) 0.0872(3)
H23 H 0.8511 0.7411 0.0337
H24 H 0.7796 0.6541 0.0918
C28 C 0.8336(5) 0.7616(3) 0.1626(3)
C29 C 0.8784(5) 0.8507(3) 0.1539(3)
H25 H 0.9152 0.8771 0.1989
C30 C 0.8728(5) 0.9108(3) 0.0752(3)
H26 H 0.9268 0.8771 0.0243
H27 H 0.9218 0.9708 0.0794
C31 C 0.7218(5) 0.9353(3) 0.0607(3)
C32 C 0.6154(5) 0.8535(3) 0.0615(3)
C33 C 0.8222(5) 0.7047(3) 0.2438(3)
C34 C 0.8180(5) 0.6057(3) 0.2455(3)
H28 H 0.8245 0.5727 0.1934
C35 C 0.8041(5) 0.5549(3) 0.3231(3)
H29 H 0.8021 0.4875 0.3231
C36 C 0.7934(6) 0.6011(4) 0.3998(4)
H30 H 0.7836 0.5661 0.4524
C37 C 0.7972(6) 0.6994(4) 0.3987(3)
H31 H 0.7898 0.7321 0.4510
C38 C 0.8116(5) 0.7499(3) 0.3221(3)
H32 H 0.8144 0.8173 0.3227
C39 C 0.6458(5) 1.0098(3) 0.1271(3)
H33 H 0.6955 1.0705 0.1133
H34 H 0.5475 1.0203 0.1179
C40 C 0.6363(5) 0.9885(3) 0.2207(3)
C41 C 0.5292(6) 0.9322(4) 0.2682(4)
H35 H 0.4638 0.9036 0.2397
C42 C 0.5163(7) 0.9174(5) 0.3549(4)
H36 H 0.4425 0.8788 0.3856
C43 C 0.6105(7) 0.9583(5) 0.3985(4)
H37 H 0.6012 0.9486 0.4587
C44 C 0.7179(7) 1.0134(4) 0.3521(4)
H38 H 0.7840 1.0411 0.3806
C45 C 0.7300(6) 1.0286(3) 0.2654(4)
H39 H 0.8039 1.0673 0.2351
C46 C 0.7795(5) 0.9311(3) -0.0963(3)
C47 C 0.8038(5) 0.9830(3) -0.1812(3)
C48 C 0.8033(5) 1.0823(3) -0.1891(3)
H40 H 0.7819 1.1198 -0.1390
C49 C 0.8337(5) 1.1261(3) -0.2689(3)
H41 H 0.8341 1.1934 -0.2741
C50 C 0.8638(5) 1.0703(4) -0.3417(3)
C51 C 0.8647(6) 0.9721(4) -0.3351(3)
H42 H 0.8856 0.9348 -0.3853
C52 C 0.8349(5) 0.9293(3) -0.2552(3)
H43 H 0.8356 0.8620 -0.2504
H44 H 0.675(5) 1.032(3) -0.025(4)
loop_
_geom_bond_atom_site_label_1
_geom_bond_atom_site_label_2
_geom_bond_site_symmetry_1
_geom_bond_site_symmetry_2
Cl1 C24 1_555 1_555
O1 C1 1_555 1_555
O2 C6 1_555 1_555
O3 C20 1_555 1_555
N1 C5 1_555 1_555
C1 H1 1_555 1_555
H2 C1 1_555 1_555
C2 C1 1_555 1_555
C3 C2 1_555 1_555
H3 C3 1_555 1_555
C4 C3 1_555 1_555
H4 C4 1_555 1_555
H5 C4 1_555 1_555
C5 C4 1_555 1_555
C6 O1 1_555 1_555
C7 C2 1_555 1_555
C8 C7 1_555 1_555
H6 C8 1_555 1_555
C9 C8 1_555 1_555
H7 C9 1_555 1_555
C10 C9 1_555 1_555
H8 C10 1_555 1_555
C11 C10 1_555 1_555
H9 C11 1_555 1_555
C12 C7 1_555 1_555
H10 C12 1_555 1_555
C13 C5 1_555 1_555
H11 C13 1_555 1_555
H12 C13 1_555 1_555
C14 C13 1_555 1_555
C15 C14 1_555 1_555
H13 C15 1_555 1_555
C16 C15 1_555 1_555
H14 C16 1_555 1_555
C17 C16 1_555 1_555
H15 C17 1_555 1_555
C18 C17 1_555 1_555
H16 C18 1_555 1_555
C19 C14 1_555 1_555
H17 C19 1_555 1_555
C20 N1 1_555 1_555
C21 C20 1_555 1_555
C22 C21 1_555 1_555
H18 C22 1_555 1_555
C23 C22 1_555 1_555
H19 C23 1_555 1_555
C24 C23 1_555 1_555
C25 C24 1_555 1_555
H20 C25 1_555 1_555
C26 C21 1_555 1_555
H21 C26 1_555 1_555
H22 N1 1_555 1_555
Cl2 C50 1_555 1_555
O4 C27 1_555 1_555
O5 C32 1_555 1_555
O6 C46 1_555 1_555
N2 C31 1_555 1_555
C27 H23 1_555 1_555
H24 C27 1_555 1_555
C28 C27 1_555 1_555
C29 C28 1_555 1_555
H25 C29 1_555 1_555
C30 C29 1_555 1_555
H26 C30 1_555 1_555
H27 C30 1_555 1_555
C31 C30 1_555 1_555
C32 O4 1_555 1_555
C33 C28 1_555 1_555
C34 C33 1_555 1_555
H28 C34 1_555 1_555
C35 C34 1_555 1_555
H29 C35 1_555 1_555
C36 C35 1_555 1_555
H30 C36 1_555 1_555
C37 C36 1_555 1_555
H31 C37 1_555 1_555
C38 C33 1_555 1_555
H32 C38 1_555 1_555
C39 C31 1_555 1_555
H33 C39 1_555 1_555
H34 C39 1_555 1_555
C40 C39 1_555 1_555
C41 C40 1_555 1_555
H35 C41 1_555 1_555
C42 C41 1_555 1_555
H36 C42 1_555 1_555
C43 C42 1_555 1_555
H37 C43 1_555 1_555
C44 C43 1_555 1_555
H38 C44 1_555 1_555
C45 C40 1_555 1_555
H39 C45 1_555 1_555
C46 N2 1_555 1_555
C47 C46 1_555 1_555
C48 C47 1_555 1_555
H40 C48 1_555 1_555
C49 C48 1_555 1_555
H41 C49 1_555 1_555
C50 C49 1_555 1_555
C51 C50 1_555 1_555
H42 C51 1_555 1_555
C52 C47 1_555 1_555
H43 C52 1_555 1_555
H44 N2 1_555 1_555
C5 C6 1_555 1_555
C11 C12 1_555 1_555
C18 C19 1_555 1_555
C25 C26 1_555 1_555
C31 C32 1_555 1_555
C37 C38 1_555 1_555
C44 C45 1_555 1_555
C51 C52 1_555 1_555

#END
