
#######################################################################
#
#                 Cambridge Crystallographic Data Centre
#                                CCDC 
#
#######################################################################
#
# If this CIF has been generated from an entry in the Cambridge 
# Structural Database, then it will include bibliographic, chemical, 
# crystal, experimental, refinement or atomic coordinate data resulting 
# from the CCDC's data processing and validation procedures.
#
#######################################################################

data_UFEHEV
_chemical_formula_moiety         'C15 H17 N5 O3'
_chemical_name_systematic        
6-amino-9-benzyl-2-(2-methoxyethoxy)-7,9-dihydro-8H-purin-8-one
_symmetry_cell_setting           monoclinic
_symmetry_space_group_name_H-M   'P 21/c'
_symmetry_Int_Tables_number      14
_space_group_name_Hall           '-P 2ybc'
loop_
_symmetry_equiv_pos_site_id
_symmetry_equiv_pos_as_xyz
1 x,y,z
2 -x,1/2+y,1/2-z
3 -x,-y,-z
4 x,1/2-y,1/2+z
_cell_length_a                   29.330(14)
_cell_length_b                   11.766(4)
_cell_length_c                   8.692(3)
_cell_angle_alpha                90
_cell_angle_beta                 95.950(4)
_cell_angle_gamma                90
_cell_volume                     2983.42
_exptl_crystal_colour            colorless
_exptl_crystal_description       plate
_cell_formula_units_Z            8
loop_
_atom_site_label
_atom_site_type_symbol
_atom_site_fract_x
_atom_site_fract_y
_atom_site_fract_z
O1 O 0.43126(7) 0.23294(16) 0.5621(2)
O2 O 0.35307(7) 0.38872(17) 0.2963(2)
O3 O 0.43545(8) -0.34843(17) 0.4694(2)
N1 N 0.42055(9) 0.0472(2) 0.4886(3)
N2 N 0.52478(10) -0.0244(2) 0.8361(3)
N3 N 0.41905(9) -0.1555(2) 0.4441(3)
N4 N 0.47680(9) 0.1048(2) 0.6959(3)
N5 N 0.47344(9) -0.2087(2) 0.6255(3)
C1 C 0.46932(11) -0.0906(2) 0.6334(3)
C2 C 0.44241(11) -0.2496(3) 0.5091(4)
C3 C 0.49056(11) -0.0050(2) 0.7243(3)
C4 C 0.31795(12) -0.2204(3) 0.4681(4)
H1 H 0.335580 -0.284942 0.502666
C5 C 0.33585(11) -0.1432(3) 0.3684(4)
C6 C 0.43548(10) -0.0583(3) 0.5206(3)
C7 C 0.38262(11) -0.1606(3) 0.3170(4)
H2 H 0.383582 -0.235526 0.265729
H3 H 0.388167 -0.101572 0.239923
C8 C 0.38573(11) 0.3774(3) 0.4275(4)
H4 H 0.373586 0.408196 0.521119
H5 H 0.414473 0.417758 0.411511
C9 C 0.39380(11) 0.2516(3) 0.4425(4)
H6 H 0.365751 0.213293 0.470404
H7 H 0.401601 0.220022 0.343032
C10 C 0.34219(12) 0.5044(3) 0.2634(4)
H8 H 0.323058 0.509578 0.164283
H9 H 0.370532 0.547549 0.257511
H10 H 0.325484 0.535786 0.345614
C11 C 0.24968(13) -0.1105(3) 0.4682(4)
H11 H 0.220411 -0.098974 0.503258
C12 C 0.30927(12) -0.0492(3) 0.3198(4)
H12 H 0.320752 0.004810 0.252262
C13 C 0.44303(11) 0.1217(3) 0.5821(3)
C14 C 0.27546(13) -0.2050(3) 0.5173(4)
H13 H 0.263747 -0.258798 0.584629
C15 C 0.26630(13) -0.0336(3) 0.3690(5)
H14 H 0.248296 0.030263 0.334102
H15 H 0.5325(11) -0.0950(17) 0.857(4)
H16 H 0.5350(10) 0.031(2) 0.894(3)
H17 H 0.4904(12) -0.252(3) 0.688(4)
O4 O 0.06385(8) 0.03135(18) 0.4538(3)
O5 O 0.07547(8) 0.61507(18) 0.4983(3)
N6 N 0.08780(9) 0.4203(2) 0.5352(3)
N7 N 0.07986(9) 0.2182(2) 0.5073(3)
O6 O 0.15145(8) -0.12975(19) 0.6739(3)
N8 N 0.03222(9) 0.4752(2) 0.3580(3)
N9 N 0.01988(9) 0.1601(2) 0.3140(3)
C16 C 0.03291(10) 0.3560(3) 0.3598(4)
N10 N -0.02499(11) 0.2907(3) 0.1654(4)
C17 C 0.18716(12) 0.4635(3) 0.4772(4)
H18 H 0.169151 0.525920 0.436962
C18 C 0.06753(11) 0.3242(3) 0.4697(4)
C19 C 0.17147(11) 0.3957(3) 0.5902(4)
C20 C 0.00888(11) 0.2705(3) 0.2775(4)
C21 C 0.19758(12) 0.3037(3) 0.6446(4)
H19 H 0.186748 0.255292 0.720379
C22 C 0.25477(13) 0.3510(4) 0.4784(4)
H20 H 0.283463 0.336196 0.440758
C23 C 0.12677(11) 0.4225(3) 0.6532(4)
H21 H 0.121592 0.366642 0.734733
H22 H 0.128906 0.498759 0.701500
C24 C 0.06585(11) 0.5150(3) 0.4656(4)
C25 C 0.10983(12) -0.1155(3) 0.5792(4)
H23 H 0.083991 -0.148554 0.628891
H24 H 0.111284 -0.152400 0.477487
C26 C 0.10423(11) 0.0108(3) 0.5610(4)
H25 H 0.100558 0.046246 0.662283
H26 H 0.131603 0.044010 0.520526
C27 C 0.05437(12) 0.1434(3) 0.4254(4)
C28 C 0.16234(14) -0.2454(3) 0.7027(5)
H27 H 0.166774 -0.283382 0.604981
H28 H 0.137224 -0.282216 0.749757
H29 H 0.190577 -0.250766 0.773205
C29 C 0.22880(13) 0.4414(3) 0.4219(4)
H30 H 0.239405 0.488987 0.344767
C30 C 0.23935(13) 0.2811(3) 0.5900(5)
H31 H 0.257274 0.218195 0.628987
H32 H 0.0146(8) 0.5299(18) 0.300(3)
H33 H -0.0411(11) 0.231(2) 0.107(4)
H34 H -0.0336(14) 0.360(2) 0.137(5)
loop_
_geom_bond_atom_site_label_1
_geom_bond_atom_site_label_2
_geom_bond_site_symmetry_1
_geom_bond_site_symmetry_2
O1 C9 1_555 1_555
O2 C8 1_555 1_555
O3 C2 1_555 1_555
N1 C6 1_555 1_555
N2 C3 1_555 1_555
N3 C2 1_555 1_555
N4 C3 1_555 1_555
N5 C1 1_555 1_555
C1 C3 1_555 1_555
C2 N5 1_555 1_555
C4 H1 1_555 1_555
C5 C4 1_555 1_555
C6 N3 1_555 1_555
C7 N3 1_555 1_555
H2 C7 1_555 1_555
H3 C7 1_555 1_555
C8 H4 1_555 1_555
H5 C8 1_555 1_555
C9 C8 1_555 1_555
H6 C9 1_555 1_555
H7 C9 1_555 1_555
C10 O2 1_555 1_555
H8 C10 1_555 1_555
H9 C10 1_555 1_555
H10 C10 1_555 1_555
C11 H11 1_555 1_555
C12 C5 1_555 1_555
H12 C12 1_555 1_555
C13 O1 1_555 1_555
C14 C4 1_555 1_555
H13 C14 1_555 1_555
C15 C11 1_555 1_555
H14 C15 1_555 1_555
H15 N2 1_555 1_555
H16 N2 1_555 1_555
H17 N5 1_555 1_555
O4 C26 1_555 1_555
O5 C24 1_555 1_555
N6 C18 1_555 1_555
N7 C18 1_555 1_555
O6 C25 1_555 1_555
N8 C16 1_555 1_555
N9 C20 1_555 1_555
C16 C18 1_555 1_555
N10 C20 1_555 1_555
C17 H18 1_555 1_555
C19 C17 1_555 1_555
C20 C16 1_555 1_555
C21 C19 1_555 1_555
H19 C21 1_555 1_555
C22 H20 1_555 1_555
C23 N6 1_555 1_555
H21 C23 1_555 1_555
H22 C23 1_555 1_555
C24 N6 1_555 1_555
C25 H23 1_555 1_555
H24 C25 1_555 1_555
C26 C25 1_555 1_555
H25 C26 1_555 1_555
H26 C26 1_555 1_555
C27 O4 1_555 1_555
C28 O6 1_555 1_555
H27 C28 1_555 1_555
H28 C28 1_555 1_555
H29 C28 1_555 1_555
C29 C17 1_555 1_555
H30 C29 1_555 1_555
C30 C21 1_555 1_555
H31 C30 1_555 1_555
H32 N8 1_555 1_555
H33 N10 1_555 1_555
H34 N10 1_555 1_555
N1 C13 1_555 1_555
N4 C13 1_555 1_555
C1 C6 1_555 1_555
C5 C7 1_555 1_555
C11 C14 1_555 1_555
C12 C15 1_555 1_555
N7 C27 1_555 1_555
N8 C24 1_555 1_555
N9 C27 1_555 1_555
C19 C23 1_555 1_555
C22 C29 1_555 1_555
C22 C30 1_555 1_555

#END
