
#######################################################################
#
#                 Cambridge Crystallographic Data Centre
#                                CCDC 
#
#######################################################################
#
# If this CIF has been generated from an entry in the Cambridge 
# Structural Database, then it will include bibliographic, chemical, 
# crystal, experimental, refinement or atomic coordinate data resulting 
# from the CCDC's data processing and validation procedures.
#
#######################################################################

data_UFEJAT
_chemical_formula_moiety         'C24 H39 N1'
_chemical_name_systematic        
1,1,7,7-tetraethyl-3,3,5,5-tetramethyl-1,2,3,5,6,7-hexahydro-s-indacen-4-amine
_symmetry_cell_setting           triclinic
_symmetry_space_group_name_H-M   'P -1'
_symmetry_Int_Tables_number      2
_space_group_name_Hall           '-P 1'
loop_
_symmetry_equiv_pos_site_id
_symmetry_equiv_pos_as_xyz
1 x,y,z
2 -x,-y,-z
_cell_length_a                   9.316(4)
_cell_length_b                   9.906(4)
_cell_length_c                   12.232(5)
_cell_angle_alpha                89.325(6)
_cell_angle_beta                 70.241(6)
_cell_angle_gamma                76.382(6)
_cell_volume                     1029.65
_exptl_crystal_colour            colorless
_exptl_crystal_description       block
_cell_formula_units_Z            2
loop_
_atom_site_label
_atom_site_type_symbol
_atom_site_fract_x
_atom_site_fract_y
_atom_site_fract_z
C1 C 0.3260(3) 0.4685(3) 0.34452(18)
C2 C 0.4806(3) 0.2474(3) 0.19658(18)
C3 C 0.4845(3) 0.2332(3) 0.06916(19)
H1 H 0.5749 0.2645 0.0156
H2 H 0.4963 0.1346 0.0461
C4 C 0.3287(3) 0.3241(2) 0.06189(18)
C5 C 0.1611(3) 0.5529(2) 0.18987(18)
H3 H 0.1066 0.5818 0.1373
C6 C 0.0038(3) 0.7710(3) 0.33373(19)
C7 C -0.0043(3) 0.7883(3) 0.46167(19)
H4 H -0.0170 0.8874 0.4835
H5 H -0.0959 0.7578 0.5145
C8 C 0.1491(3) 0.6992(3) 0.47369(18)
C9 C 0.3600(3) 0.3857(3) 0.24192(18)
C10 C 0.2764(3) 0.4283(2) 0.16669(18)
C11 C 0.1273(3) 0.6342(2) 0.29160(18)
C12 C 0.2071(3) 0.5915(2) 0.36948(18)
C13 C 0.4249(3) 0.1276(3) 0.2667(2)
H6 H 0.4972 0.0384 0.2299
H7 H 0.3188 0.1284 0.2683
H8 H 0.4233 0.1397 0.3466
C14 C 0.6472(3) 0.2437(3) 0.1941(2)
H9 H 0.6783 0.3264 0.1588
H10 H 0.7209 0.1598 0.1481
H11 H 0.6488 0.2426 0.2738
C15 C 0.2099(3) 0.2343(3) 0.0747(2)
H12 H 0.2577 0.1583 0.0119
H13 H 0.1939 0.1906 0.1497
C16 C 0.0495(3) 0.3093(3) 0.0707(2)
H14 H -0.0014 0.3830 0.1341
H15 H -0.0159 0.2427 0.0797
H16 H 0.0625 0.3505 -0.0042
C17 C 0.3564(3) 0.3989(3) -0.05144(19)
H17 H 0.2548 0.4601 -0.0499
H18 H 0.4283 0.4592 -0.0541
C18 C 0.4257(3) 0.3016(3) -0.1628(2)
H19 H 0.5274 0.2417 -0.1662
H20 H 0.4406 0.3571 -0.2308
H21 H 0.3536 0.2438 -0.1627
C19 C 0.1074(3) 0.6402(3) 0.59365(19)
H22 H 0.0470 0.5709 0.5956
H23 H 0.0443 0.7158 0.6537
H24 H 0.2043 0.5960 0.6084
C20 C 0.2709(3) 0.7839(3) 0.4639(2)
H25 H 0.3719 0.7205 0.4579
H26 H 0.2345 0.8485 0.5332
H27 H 0.2841 0.8365 0.3943
C21 C -0.1547(3) 0.7571(3) 0.3289(2)
H28 H -0.1414 0.7341 0.2469
H29 H -0.1835 0.6779 0.3740
C22 C -0.2901(3) 0.8855(3) 0.3754(2)
H30 H -0.2999 0.9136 0.4547
H31 H -0.3881 0.8641 0.3765
H32 H -0.2698 0.9615 0.3251
C23 C 0.0572(3) 0.8935(3) 0.2656(2)
H33 H -0.0150 0.9817 0.3077
H34 H 0.1634 0.8928 0.2662
C24 C 0.0630(3) 0.8935(3) 0.1395(2)
H35 H 0.1310 0.8054 0.0971
H36 H 0.1051 0.9710 0.1027
H37 H -0.0434 0.9042 0.1376
N1 N 0.4149(3) 0.4294(3) 0.41770(18)
H38 H 0.368(3) 0.474(3) 0.4866(18)
H39 H 0.444(4) 0.3412(19) 0.426(3)
loop_
_geom_bond_atom_site_label_1
_geom_bond_atom_site_label_2
_geom_bond_site_symmetry_1
_geom_bond_site_symmetry_2
C1 C9 1_555 1_555
C2 C3 1_555 1_555
C3 H1 1_555 1_555
H2 C3 1_555 1_555
C4 C3 1_555 1_555
C5 H3 1_555 1_555
C6 C7 1_555 1_555
C7 H4 1_555 1_555
H5 C7 1_555 1_555
C8 C7 1_555 1_555
C9 C2 1_555 1_555
C10 C4 1_555 1_555
C11 C5 1_555 1_555
C12 C1 1_555 1_555
C13 C2 1_555 1_555
H6 C13 1_555 1_555
H7 C13 1_555 1_555
H8 C13 1_555 1_555
C14 C2 1_555 1_555
H9 C14 1_555 1_555
H10 C14 1_555 1_555
H11 C14 1_555 1_555
C15 C4 1_555 1_555
H12 C15 1_555 1_555
H13 C15 1_555 1_555
C16 C15 1_555 1_555
H14 C16 1_555 1_555
H15 C16 1_555 1_555
H16 C16 1_555 1_555
C17 C4 1_555 1_555
H17 C17 1_555 1_555
H18 C17 1_555 1_555
C18 C17 1_555 1_555
H19 C18 1_555 1_555
H20 C18 1_555 1_555
H21 C18 1_555 1_555
C19 C8 1_555 1_555
H22 C19 1_555 1_555
H23 C19 1_555 1_555
H24 C19 1_555 1_555
C20 C8 1_555 1_555
H25 C20 1_555 1_555
H26 C20 1_555 1_555
H27 C20 1_555 1_555
C21 C6 1_555 1_555
H28 C21 1_555 1_555
H29 C21 1_555 1_555
C22 C21 1_555 1_555
H30 C22 1_555 1_555
H31 C22 1_555 1_555
H32 C22 1_555 1_555
C23 C6 1_555 1_555
H33 C23 1_555 1_555
H34 C23 1_555 1_555
C24 C23 1_555 1_555
H35 C24 1_555 1_555
H36 C24 1_555 1_555
H37 C24 1_555 1_555
N1 C1 1_555 1_555
H38 N1 1_555 1_555
H39 N1 1_555 1_555
C5 C10 1_555 1_555
C6 C11 1_555 1_555
C8 C12 1_555 1_555
C9 C10 1_555 1_555
C11 C12 1_555 1_555

#END
