
#######################################################################
#
#                 Cambridge Crystallographic Data Centre
#                                CCDC 
#
#######################################################################
#
# If this CIF has been generated from an entry in the Cambridge 
# Structural Database, then it will include bibliographic, chemical, 
# crystal, experimental, refinement or atomic coordinate data resulting 
# from the CCDC's data processing and validation procedures.
#
#######################################################################

data_UFELUM
_chemical_formula_moiety         'C31 H29 N1 O1'
_chemical_name_systematic        
1,2,4,6-Tetraphenyl-2-hydroxy-8-azabicyclo(3.2.1)octane
_symmetry_cell_setting           orthorhombic
_symmetry_space_group_name_H-M   'P c a b'
_symmetry_Int_Tables_number      61
_space_group_name_Hall           '-P 2bc 2ac'
loop_
_symmetry_equiv_pos_site_id
_symmetry_equiv_pos_as_xyz
1 x,y,z
2 -x,1/2-y,1/2+z
3 1/2+x,-y,1/2-z
4 1/2-x,1/2+y,-z
5 -x,-y,-z
6 x,1/2+y,1/2-z
7 1/2-x,y,1/2+z
8 1/2+x,1/2-y,z
_cell_length_a                   10.579(3)
_cell_length_b                   18.514(7)
_cell_length_c                   23.93(1)
_cell_angle_alpha                90
_cell_angle_beta                 90
_cell_angle_gamma                90
_cell_volume                     4686.92
_exptl_crystal_colour            colorless
_exptl_crystal_description       prismatic
_cell_formula_units_Z            8
_exptl_crystal_recrystallization_method ethanol
loop_
_atom_site_label
_atom_site_type_symbol
_atom_site_fract_x
_atom_site_fract_y
_atom_site_fract_z
O1 O 0.0490(2) 0.8892(1) 0.1513(1)
N1 N 0.1088(3) 0.9648(1) 0.0622(1)
C1 C 0.1847(4) 1.0442(2) 0.1602(2)
C2 C 0.2295(5) 1.0918(2) 0.2010(2)
C3 C 0.3521(5) 1.0880(2) 0.2185(2)
C4 C 0.4333(4) 1.0373(2) 0.1963(2)
C5 C 0.3903(4) 0.9906(2) 0.1559(2)
C6 C 0.26576(34) 0.9927(2) 0.1368(1)
C7 C 0.2196(3) 0.9378(2) 0.0942(1)
C8 C 0.1638(3) 0.8680(2) 0.1241(1)
C9 C 0.2504(3) 0.8376(2) 0.1691(1)
C10 C 0.2312(4) 0.8577(2) 0.2246(2)
C11 C 0.3093(5) 0.8320(2) 0.2661(2)
C12 C 0.4085(4) 0.7869(2) 0.2542(2)
C13 C 0.4276(4) 0.7657(2) 0.1997(2)
C14 C 0.3479(4) 0.7910(2) 0.1579(2)
C15 C 0.3193(3) 0.9189(2) 0.0489(1)
C16 C 0.1319(3) 0.8114(2) 0.0788(1)
C17 C 0.3135(4) 1.0365(2) -0.0396(2)
C18 C 0.3184(4) 1.0889(2) -0.0814(2)
C19 C 0.27600(4) 1.0739(2) -0.1345(2)
C20 C 0.2296(5) 1.0065(3) -0.1456(2)
C21 C 0.2244(4) 0.9545(2) -0.1045(2)
C22 C 0.2655(3) 0.9685(2) -0.0501(1)
C23 C 0.2437(3) 0.9106(2) -0.0063(1)
C24 C 0.1036(3) 0.9160(2) 0.0134(1)
C25 C 0.0472(3) 0.8437(2) 0.0332(1)
C26 C 0.0198(3) 0.7934(2) -0.0156(1)
C27 C 0.0887(4) 0.7315(2) -0.0272(2)
C28 C 0.0592(5) 0.6883(2) -0.0725(2)
C29 C -0.0386(4) 0.7040(2) -0.1069(2)
C30 C -0.1077(4) 0.7654(2) -0.0971(2)
C31 C -0.0783(4) 0.8088(2) -0.0515(2)
loop_
_geom_bond_atom_site_label_1
_geom_bond_atom_site_label_2
_geom_bond_site_symmetry_1
_geom_bond_site_symmetry_2
O1 C8 1_555 1_555
N1 C7 1_555 1_555
C1 C2 1_555 1_555
C2 C3 1_555 1_555
C3 C4 1_555 1_555
C4 C5 1_555 1_555
C5 C6 1_555 1_555
C6 C1 1_555 1_555
C7 C6 1_555 1_555
C8 C7 1_555 1_555
C9 C8 1_555 1_555
C10 C9 1_555 1_555
C11 C10 1_555 1_555
C12 C11 1_555 1_555
C13 C12 1_555 1_555
C14 C9 1_555 1_555
C15 C7 1_555 1_555
C16 C8 1_555 1_555
C17 C18 1_555 1_555
C18 C19 1_555 1_555
C19 C20 1_555 1_555
C20 C21 1_555 1_555
C21 C22 1_555 1_555
C22 C17 1_555 1_555
C23 C15 1_555 1_555
C24 N1 1_555 1_555
C25 C16 1_555 1_555
C26 C25 1_555 1_555
C27 C26 1_555 1_555
C28 C27 1_555 1_555
C29 C28 1_555 1_555
C30 C29 1_555 1_555
C31 C26 1_555 1_555
C13 C14 1_555 1_555
C22 C23 1_555 1_555
C23 C24 1_555 1_555
C24 C25 1_555 1_555
C30 C31 1_555 1_555

#END
