
#######################################################################
#
#                 Cambridge Crystallographic Data Centre
#                                CCDC 
#
#######################################################################
#
# If this CIF has been generated from an entry in the Cambridge 
# Structural Database, then it will include bibliographic, chemical, 
# crystal, experimental, refinement or atomic coordinate data resulting 
# from the CCDC's data processing and validation procedures.
#
#######################################################################

data_UFEMOK
_chemical_formula_moiety         'C7 H16 N2 2+,3(B1 F4 1-),H4 N1 1+'
_chemical_name_systematic        
'ammonium 1-methyl-1,4-diazabicyclo[2.2.2]octane-1,4-diium tris(tetrafluoroborate)'
_symmetry_cell_setting           rhombohedral
_symmetry_space_group_name_H-M   'R -3 c'
_symmetry_Int_Tables_number      167
_space_group_name_Hall           '-R 3 2"c'
loop_
_symmetry_equiv_pos_site_id
_symmetry_equiv_pos_as_xyz
1 x,y,z
2 -y,x-y,z
3 -x+y,-x,z
4 y,x,1/2-z
5 -x,-x+y,1/2-z
6 x-y,-y,1/2-z
7 2/3+x,1/3+y,1/3+z
8 2/3-y,1/3+x-y,1/3+z
9 2/3-x+y,1/3-x,1/3+z
10 2/3+y,1/3+x,5/6-z
11 2/3-x,1/3-x+y,5/6-z
12 2/3+x-y,1/3-y,5/6-z
13 1/3+x,2/3+y,2/3+z
14 1/3-y,2/3+x-y,2/3+z
15 1/3-x+y,2/3-x,2/3+z
16 1/3+y,2/3+x,1/6-z
17 1/3-x,2/3-x+y,1/6-z
18 1/3+x-y,2/3-y,1/6-z
19 -x,-y,-z
20 y,-x+y,-z
21 x-y,x,-z
22 -y,-x,1/2+z
23 x,x-y,1/2+z
24 -x+y,y,1/2+z
25 1/3-x,2/3-y,2/3-z
26 1/3+y,2/3-x+y,2/3-z
27 1/3+x-y,2/3+x,2/3-z
28 1/3-y,2/3-x,1/6+z
29 1/3+x,2/3+x-y,1/6+z
30 1/3-x+y,2/3+y,1/6+z
31 2/3-x,1/3-y,1/3-z
32 2/3+y,1/3-x+y,1/3-z
33 2/3+x-y,1/3+x,1/3-z
34 2/3-y,1/3-x,5/6+z
35 2/3+x,1/3+x-y,5/6+z
36 2/3-x+y,1/3+y,5/6+z
_cell_length_a                   10.213(2)
_cell_length_b                   10.213(2)
_cell_length_c                   53.387(9)
_cell_angle_alpha                90
_cell_angle_beta                 90
_cell_angle_gamma                120
_cell_volume                     4822.51
_exptl_crystal_colour            colorless
_exptl_crystal_description       block
_cell_formula_units_Z            12
loop_
_atom_site_label
_atom_site_type_symbol
_atom_site_fract_x
_atom_site_fract_y
_atom_site_fract_z
F1 F 0.4262(5) 0.0823(5) 0.04575(13)
F2 F 0.3718(6) 0.2539(5) 0.05601(13)
F3 F 0.1815(4) 0.0133(4) 0.05216(8)
F4 F 0.3074(15) 0.095(5) 0.01935(19)
B1 B 0.3188(5) 0.1208(5) 0.04340(9)
N1 N 0.3333 0.6667 0.02381(11)
N2 N 0.3333 0.6667 0.07102(11)
H1 H 0.3333 0.6667 0.0894
C1 C 0.3333 0.6667 -0.00421(14)
H2 H 0.2404 0.5831 -0.0102
C2 C 0.3193(5) 0.5222(4) 0.03362(9)
H3 H 0.2330 0.4363 0.0259
H4 H 0.4093 0.5177 0.0294
C3 C 0.2994(6) 0.5151(5) 0.06155(8)
H5 H 0.1965 0.4398 0.0658
H6 H 0.3671 0.4862 0.0693
H2A H 0.4169 0.6573 -0.0102
C2A C 0.4778(4) 0.7971(6) 0.03362(9)
H3A H 0.5637 0.7967 0.0259
H4A H 0.4823 0.8916 0.0294
C3A C 0.4849(5) 0.7843(8) 0.06155(8)
H5A H 0.5602 0.7567 0.0658
H6A H 0.5138 0.8809 0.0693
H2B H 0.3427 0.7596 -0.0102
C2B C 0.2029(6) 0.6807(5) 0.03362(9)
H3B H 0.2033 0.7670 0.0259
H4B H 0.1084 0.5907 0.0294
C3B C 0.2157(8) 0.7006(6) 0.06155(8)
H5B H 0.2433 0.8035 0.0658
H6B H 0.1191 0.6329 0.0693
N3 N 0.0000 0.0000 0.0000
N4 N 0.6667 0.3333 0.0833
F5? F 0.3055(13) 0.1882(16) 0.0215(3)
loop_
_geom_bond_atom_site_label_1
_geom_bond_atom_site_label_2
_geom_bond_site_symmetry_1
_geom_bond_site_symmetry_2
F1 B1 1_555 1_555
F2 B1 1_555 1_555
F3 B1 1_555 1_555
F4 B1 1_555 1_555
N1 C1 1_555 1_555
N2 H1 1_555 1_555
C1 H2 1_555 1_555
C2 N1 1_555 1_555
H3 C2 1_555 1_555
H4 C2 1_555 1_555
C3 N2 1_555 1_555
H5 C3 1_555 1_555
H6 C3 1_555 1_555
H2A C1 1_555 1_555
C2A N1 1_555 1_555
H3A C2A 1_555 1_555
H4A C2A 1_555 1_555
C3A N2 1_555 1_555
H5A C3A 1_555 1_555
H6A C3A 1_555 1_555
H2B C1 1_555 1_555
C2B N1 1_555 1_555
H3B C2B 1_555 1_555
H4B C2B 1_555 1_555
C3B N2 1_555 1_555
H5B C3B 1_555 1_555
H6B C3B 1_555 1_555
C2 C3 1_555 1_555
C2A C3A 1_555 1_555
C2B C3B 1_555 1_555

#END
