
#######################################################################
#
#                 Cambridge Crystallographic Data Centre
#                                CCDC 
#
#######################################################################
#
# If this CIF has been generated from an entry in the Cambridge 
# Structural Database, then it will include bibliographic, chemical, 
# crystal, experimental, refinement or atomic coordinate data resulting 
# from the CCDC's data processing and validation procedures.
#
#######################################################################

data_UFENIC
_chemical_formula_moiety         'C33 H44 O4'
_chemical_name_systematic        
trans-2-(1-(2,6-Di-t-butyl-4H-pyran-4-ylidene)ethyl)-4-(1-(2,6-di-t-butyl-4H-pyran-4-ylidene)methyl)cyclobutenediylium-1,3-diolate
_symmetry_cell_setting           triclinic
_symmetry_space_group_name_H-M   'P 1'
_symmetry_Int_Tables_number      1
_space_group_name_Hall           'P 1'
loop_
_symmetry_equiv_pos_site_id
_symmetry_equiv_pos_as_xyz
1 x,y,z
_cell_length_a                   9.228(4)
_cell_length_b                   14.122(6)
_cell_length_c                   6.124(3)
_cell_angle_alpha                93.97(4)
_cell_angle_beta                 98.14(5)
_cell_angle_gamma                71.05(4)
_cell_volume                     746.978
_exptl_crystal_colour            green
_exptl_crystal_description       prism
_cell_formula_units_Z            1
_exptl_crystal_recrystallization_method dichloromethane/ethanol
loop_
_atom_site_label
_atom_site_type_symbol
_atom_site_fract_x
_atom_site_fract_y
_atom_site_fract_z
O1 O -0.0479 0.4163 -0.6883
O2 O 0.3554(7) 0.1357(5) -0.7583(10)
O3 O 0.1916 0.5594 0.0476
O4 O 0.1150(6) -0.0072(3) -1.4845(7)
C1 C 0.294(1) 0.3053(8) -0.366(2)
C2 C 0.208(1) 0.2893(9) -0.565(2)
C3 C 0.066(2) 0.3409(10) -0.699(2)
C4 C 0.096(1) 0.2597(9) -0.872(2)
C5 C 0.247(2) 0.2128(9) -0.733(2)
C6 C 0.007(1) 0.2513(10) -1.073(2)
C7 C 0.4516(8) 0.2232(5) -0.308(1)
C8 C 0.332(1) 0.4843(8) 0.081(2)
C9 C 0.360(1) 0.4005(8) -0.042(2)
C10 C 0.256(1) 0.3870(9) -0.223(2)
C11 C 0.110(1) 0.4653(9) -0.242(2)
C12 C 0.077(1) 0.5486(9) -0.119(2)
C13 C 0.433(1) 0.5170(9) 0.256(2)
C14 C 0.566(1) 0.430(1) 0.349(2)
C15 C 0.348(2) 0.566(1) 0.451(3)
C16 C 0.501(2) 0.586(1) 0.167(2)
C17 C -0.067(1) 0.6360(9) -0.120(2)
C18 C -0.115(2) 0.6585(9) 0.109(2)
C19 C -0.031(1) 0.724(1) -0.207(2)
C20 C -0.197(2) 0.615(1) -0.282(2)
C21 C 0.055(1) 0.1673(9) -1.220(2)
C22 C -0.054(1) 0.1525(10) -1.410(2)
C23 C -0.020(2) 0.0671(9) -1.529(2)
C24 C 0.223(1) 0.0098(9) -1.325(2)
C25 C 0.199(1) 0.0902(8) -1.188(2)
C26 C -0.133(1) 0.0373(9) -1.718(2)
C27 C -0.259(2) 0.130(1) -1.800(2)
C28 C -0.039(2) -0.0187(9) -1.898(2)
C29 C -0.191(2) -0.037(1) -1.608(2)
C30 C 0.367(1) -0.0821(8) -1.316(2)
C31 C 0.420(2) -0.106(1) -1.543(2)
C32 C 0.330(2) -0.173(1) -1.241(3)
C33 C 0.498(1) -0.060(1) -1.159(2)
loop_
_geom_bond_atom_site_label_1
_geom_bond_atom_site_label_2
_geom_bond_site_symmetry_1
_geom_bond_site_symmetry_2
O1 C3 1_555 1_555
O2 C5 1_555 1_555
O3 C8 1_555 1_555
O4 C23 1_555 1_555
C1 C2 1_555 1_555
C2 C3 1_555 1_555
C3 C4 1_555 1_555
C4 C5 1_555 1_555
C5 C2 1_555 1_555
C6 C4 1_555 1_555
C7 C1 1_555 1_555
C8 C9 1_555 1_555
C9 C10 1_555 1_555
C10 C1 1_555 1_555
C11 C10 1_555 1_555
C12 O3 1_555 1_555
C13 C8 1_555 1_555
C14 C13 1_555 1_555
C15 C13 1_555 1_555
C16 C13 1_555 1_555
C17 C12 1_555 1_555
C18 C17 1_555 1_555
C19 C17 1_555 1_555
C20 C17 1_555 1_555
C21 C6 1_555 1_555
C22 C21 1_555 1_555
C23 C22 1_555 1_555
C24 O4 1_555 1_555
C25 C21 1_555 1_555
C26 C23 1_555 1_555
C27 C26 1_555 1_555
C28 C26 1_555 1_555
C29 C26 1_555 1_555
C30 C24 1_555 1_555
C31 C30 1_555 1_555
C32 C30 1_555 1_555
C33 C30 1_555 1_555
C11 C12 1_555 1_555
C24 C25 1_555 1_555

#END
