
#######################################################################
#
#                 Cambridge Crystallographic Data Centre
#                                CCDC 
#
#######################################################################
#
# If this CIF has been generated from an entry in the Cambridge 
# Structural Database, then it will include bibliographic, chemical, 
# crystal, experimental, refinement or atomic coordinate data resulting 
# from the CCDC's data processing and validation procedures.
#
#######################################################################

data_UFEPAX
_chemical_formula_moiety         'C13 H16 N2 O5'
_chemical_name_systematic        
4,6-bis(Methoxymethyl)-12-oxa-4,6-diazatricyclo[7.2.1.0^2,7^]dodeca-2(7),10-diene-3,5-dione
_symmetry_cell_setting           orthorhombic
_symmetry_space_group_name_H-M   'P c 21 b'
_symmetry_Int_Tables_number      29
_space_group_name_Hall           'P -2bc -2c'
loop_
_symmetry_equiv_pos_site_id
_symmetry_equiv_pos_as_xyz
1 x,y,z
2 -x,1/2+y,-z
3 -x,y,1/2+z
4 x,1/2+y,1/2-z
_cell_length_a                   4.6614(2)
_cell_length_b                   16.1141(8)
_cell_length_c                   17.3301(8)
_cell_angle_alpha                90
_cell_angle_beta                 90
_cell_angle_gamma                90
_cell_volume                     1301.74
_exptl_crystal_colour            colorless
_exptl_crystal_description       cube
_chemical_melting_point          '122.0-122.5 deg.C'
_cell_formula_units_Z            4
_exptl_crystal_recrystallization_method methanol
loop_
_atom_site_label
_atom_site_type_symbol
_atom_site_fract_x
_atom_site_fract_y
_atom_site_fract_z
O1 O 0.6974(3) 0.29202(13) 0.14646(11)
O2 O 0.3984(5) 0.29565(13) -0.08197(11)
O3 O 0.2155(4) 0.14833(12) -0.18047(9)
O4 O -0.2034(4) 0.08163(14) -0.02176(11)
O5 O 0.1381(5) 0.02455(12) 0.15580(11)
N1 N 0.0938(4) 0.18946(12) -0.05211(10)
N2 N 0.0507(4) 0.14216(12) 0.07574(11)
C1 C 0.5571(5) 0.32341(16) 0.07929(15)
C2 C 0.3651(5) 0.25497(14) 0.04888(13)
C3 C 0.2969(5) 0.25054(15) -0.03219(13)
C4 C -0.0317(5) 0.13388(15) -0.00086(13)
C5 C 0.2360(5) 0.20467(14) 0.10031(12)
C6 C 0.2851(5) 0.21471(15) 0.18588(12)
C7 C 0.4698(5) 0.29214(17) 0.20217(14)
C8 C 0.3120(6) 0.37171(16) 0.18403(16)
C9 C 0.3677(6) 0.39124(16) 0.11153(16)
C10 C 0.0060(6) 0.18578(18) -0.13347(13)
C11 C 0.2446(8) 0.06155(19) -0.16829(17)
C12 C -0.0684(6) 0.08257(15) 0.13150(13)
C13 C 0.1983(10) -0.0376(2) 0.1000(3)
H1 H 0.101(6) 0.2201(18) 0.2086(15)
H2 H -0.131(7) 0.114(2) 0.1783(19)
H3 H 0.551(6) 0.285(2) 0.257(2)
H4 H 0.182(7) 0.395(2) 0.219(2)
H5 H -0.223(6) 0.055(2) 0.1059(17)
H6 H -0.173(7) 0.156(2) -0.1343(18)
H7 H 0.303(8) 0.434(3) 0.087(3)
H8 H -0.010(6) 0.245(2) -0.1481(17)
H9 H 0.388(11) 0.040(3) -0.205(3)
H10 H 0.317(7) 0.050(3) -0.120(2)
H11 H 0.701(7) 0.339(2) 0.042(2)
H12 H 0.381(6) 0.1614(19) 0.2018(16)
H13 H 0.064(9) 0.039(3) -0.173(2)
H14 H 0.303(10) -0.008(4) 0.053(3)
H15 H 0.354(9) -0.075(3) 0.121(2)
H16 H 0.032(10) -0.068(4) 0.084(3)
loop_
_geom_bond_atom_site_label_1
_geom_bond_atom_site_label_2
_geom_bond_site_symmetry_1
_geom_bond_site_symmetry_2
O1 C1 1_555 1_555
O2 C3 1_555 1_555
O3 C10 1_555 1_555
O4 C4 1_555 1_555
O5 C12 1_555 1_555
N1 C3 1_555 1_555
N2 C4 1_555 1_555
C1 C2 1_555 1_555
C2 C3 1_555 1_555
C4 N1 1_555 1_555
C5 N2 1_555 1_555
C6 C5 1_555 1_555
C7 O1 1_555 1_555
C8 C7 1_555 1_555
C9 C1 1_555 1_555
C10 N1 1_555 1_555
C11 O3 1_555 1_555
C12 N2 1_555 1_555
C13 O5 1_555 1_555
H1 C6 1_555 1_555
H2 C12 1_555 1_555
H3 C7 1_555 1_555
H4 C8 1_555 1_555
H5 C12 1_555 1_555
H6 C10 1_555 1_555
H7 C9 1_555 1_555
H8 C10 1_555 1_555
H9 C11 1_555 1_555
H10 C11 1_555 1_555
H11 C1 1_555 1_555
H12 C6 1_555 1_555
H13 C11 1_555 1_555
H14 C13 1_555 1_555
H15 C13 1_555 1_555
H16 C13 1_555 1_555
C2 C5 1_555 1_555
C6 C7 1_555 1_555
C8 C9 1_555 1_555

#END
