
#######################################################################
#
#                 Cambridge Crystallographic Data Centre
#                                CCDC 
#
#######################################################################
#
# If this CIF has been generated from an entry in the Cambridge 
# Structural Database, then it will include bibliographic, chemical, 
# crystal, experimental, refinement or atomic coordinate data resulting 
# from the CCDC's data processing and validation procedures.
#
#######################################################################

data_UFEROM
_chemical_formula_moiety         'C8 Cl6 N4 O1'
_chemical_name_systematic        
3,4,5-Trichloro-1-(4,5,6-trichloropyridazin-3-yl)pyridazin-6-one
_symmetry_cell_setting           monoclinic
_symmetry_space_group_name_H-M   'P 21/n'
_symmetry_Int_Tables_number      14
_space_group_name_Hall           '-P 2yn'
loop_
_symmetry_equiv_pos_site_id
_symmetry_equiv_pos_as_xyz
1 x,y,z
2 1/2-x,1/2+y,1/2-z
3 -x,-y,-z
4 1/2+x,1/2-y,1/2+z
_cell_length_a                   6.930(2)
_cell_length_b                   19.645(2)
_cell_length_c                   10.173(3)
_cell_angle_alpha                90
_cell_angle_beta                 107.70(2)
_cell_angle_gamma                90
_cell_volume                     1319.39
_exptl_crystal_colour            colorless
_exptl_crystal_description       prism
_cell_formula_units_Z            4
_exptl_crystal_recrystallization_method chloroform/n-hexane
loop_
_atom_site_label
_atom_site_type_symbol
_atom_site_fract_x
_atom_site_fract_y
_atom_site_fract_z
Cl1 Cl -0.3077(2) 0.27575(7) 0.3490(2)
Cl2 Cl -0.1126(2) 0.42088(5) 0.4279(1)
Cl3 Cl 0.3629(2) 0.43047(5) 0.5461(1)
Cl4 Cl 0.2924(2) 0.15749(6) 0.2509(1)
Cl5 Cl 0.6211(2) 0.03999(7) 0.3296(1)
Cl6 Cl 0.8803(2) 0.02782(7) 0.6423(2)
O1 O 0.0046(5) 0.1668(2) 0.4387(4)
N1 N 0.2749(5) 0.2388(1) 0.4991(3)
N2 N 0.3641(5) 0.3007(2) 0.5297(3)
N3 N 0.5308(6) 0.1778(2) 0.6520(3)
N4 N 0.6751(7) 0.1297(2) 0.6865(4)
C1 C 0.0674(6) 0.2253(2) 0.4529(4)
C2 C -0.0548(6) 0.2868(2) 0.4257(4)
C3 C 0.0296(6) 0.3485(2) 0.4556(4)
C4 C 0.2454(6) 0.3527(2) 0.5102(4)
C5 C 0.4169(6) 0.1836(2) 0.5240(4)
C6 C 0.4352(5) 0.1433(2) 0.4152(4)
C7 C 0.5817(6) 0.0933(2) 0.4511(4)
C8 C 0.6971(6) 0.0891(2) 0.5888(4)
loop_
_geom_bond_atom_site_label_1
_geom_bond_atom_site_label_2
_geom_bond_site_symmetry_1
_geom_bond_site_symmetry_2
Cl1 C2 1_555 1_555
Cl2 C3 1_555 1_555
Cl3 C4 1_555 1_555
Cl4 C6 1_555 1_555
Cl5 C7 1_555 1_555
Cl6 C8 1_555 1_555
O1 C1 1_555 1_555
N1 N2 1_555 1_555
N2 C4 1_555 1_555
N3 N4 1_555 1_555
N4 C8 1_555 1_555
C1 N1 1_555 1_555
C2 C1 1_555 1_555
C3 C2 1_555 1_555
C4 C3 1_555 1_555
C5 N1 1_555 1_555
C6 C5 1_555 1_555
C7 C6 1_555 1_555
C8 C7 1_555 1_555
N3 C5 1_555 1_555

#END
