
#######################################################################
#
#                 Cambridge Crystallographic Data Centre
#                                CCDC 
#
#######################################################################
#
# If this CIF has been generated from an entry in the Cambridge 
# Structural Database, then it will include bibliographic, chemical, 
# crystal, experimental, refinement or atomic coordinate data resulting 
# from the CCDC's data processing and validation procedures.
#
#######################################################################

data_UFESII
_chemical_formula_moiety         'C18 H14 O4 S3'
_chemical_name_systematic        
3-(1,1-Dioxo-3-methylthiophen-2-yl)-2-(3-methylthiophen-2-yl)benzo(b)thiophenesulfone
_symmetry_cell_setting           monoclinic
_symmetry_space_group_name_H-M   'P 21'
_symmetry_Int_Tables_number      4
_space_group_name_Hall           'P 2yb'
loop_
_symmetry_equiv_pos_site_id
_symmetry_equiv_pos_as_xyz
1 x,y,z
2 -x,1/2+y,-z
_cell_length_a                   7.6034(9)
_cell_length_b                   12.8700(15)
_cell_length_c                   9.4298(11)
_cell_angle_alpha                90
_cell_angle_beta                 110.788(1)
_cell_angle_gamma                90
_cell_volume                     862.689
_cell_formula_units_Z            2
loop_
_atom_site_label
_atom_site_type_symbol
_atom_site_fract_x
_atom_site_fract_y
_atom_site_fract_z
S1 S 0.32426(10) 0.78579(6) 0.60520(7)
S2 S 0.83687(9) 0.86731(6) 0.77972(10)
S3 S 0.39764(9) 0.94074(5) 1.12605(7)
O1 O 0.2038(3) 0.8616(2) 0.5061(2)
O2 O 0.4334(4) 0.7202(2) 0.5462(3)
O3 O 0.3747(3) 1.03782(17) 1.0472(3)
O4 O 0.2335(3) 0.89458(18) 1.1390(2)
C1 C 0.2029(3) 0.7126(2) 0.6988(3)
C2 C 0.0620(4) 0.6406(2) 0.6370(3)
H1 H 0.0150 0.6274 0.5333
C3 C -0.0067(4) 0.5889(2) 0.7340(4)
H2 H -0.1014 0.5398 0.6954
C4 C 0.0628(4) 0.6089(2) 0.8877(3)
H3 H 0.0145 0.5730 0.9513
C5 C 0.2044(3) 0.6823(2) 0.9488(3)
H4 H 0.2508 0.6956 1.0525
C6 C 0.2748(3) 0.73513(18) 0.8523(3)
C7 C 0.4300(3) 0.81315(17) 0.8942(3)
C8 C 0.4743(3) 0.84623(19) 0.7756(3)
C9 C 0.6190(3) 0.91661(19) 0.7621(3)
C10 C 0.6027(3) 1.0189(2) 0.7217(3)
C11 C 0.7731(4) 1.0574(2) 0.7109(3)
H5 H 0.7893 1.1260 0.6870
C12 C 0.9084(4) 0.9845(2) 0.7387(4)
H6 H 1.0275 0.9971 0.7358
C13 C 0.4296(4) 1.0831(2) 0.6943(4)
H7 H 0.3202 1.0420 0.6427
H8 H 0.4326 1.1422 0.6330
H9 H 0.4249 1.1064 0.7896
C14 C 0.5210(3) 0.85119(18) 1.0504(2)
C15 C 0.6890(3) 0.83080(19) 1.1554(3)
C16 C 0.7199(4) 0.8869(2) 1.3004(3)
H10 H 0.8305 0.8802 1.3839
C17 C 0.5801(4) 0.9467(3) 1.3025(3)
H11 H 0.5787 0.9859 1.3849
C18 C 0.8376(4) 0.7617(2) 1.1398(3)
H12 H 0.7878 0.7229 1.0471
H13 H 0.8791 0.7146 1.2242
H14 H 0.9420 0.8029 1.1380
loop_
_geom_bond_atom_site_label_1
_geom_bond_atom_site_label_2
_geom_bond_site_symmetry_1
_geom_bond_site_symmetry_2
S1 O1 1_555 1_555
S2 C9 1_555 1_555
S3 O3 1_555 1_555
O2 S1 1_555 1_555
O4 S3 1_555 1_555
C1 S1 1_555 1_555
C2 C1 1_555 1_555
H1 C2 1_555 1_555
C3 C2 1_555 1_555
H2 C3 1_555 1_555
C4 C3 1_555 1_555
H3 C4 1_555 1_555
C5 C4 1_555 1_555
H4 C5 1_555 1_555
C6 C1 1_555 1_555
C7 C6 1_555 1_555
C8 S1 1_555 1_555
C9 C8 1_555 1_555
C10 C9 1_555 1_555
C11 C10 1_555 1_555
H5 C11 1_555 1_555
C12 S2 1_555 1_555
H6 C12 1_555 1_555
C13 C10 1_555 1_555
H7 C13 1_555 1_555
H8 C13 1_555 1_555
H9 C13 1_555 1_555
C14 S3 1_555 1_555
C15 C14 1_555 1_555
C16 C15 1_555 1_555
H10 C16 1_555 1_555
C17 S3 1_555 1_555
H11 C17 1_555 1_555
C18 C15 1_555 1_555
H12 C18 1_555 1_555
H13 C18 1_555 1_555
H14 C18 1_555 1_555
C5 C6 1_555 1_555
C7 C8 1_555 1_555
C7 C14 1_555 1_555
C11 C12 1_555 1_555
C16 C17 1_555 1_555

#END
