
#######################################################################
#
#                 Cambridge Crystallographic Data Centre
#                                CCDC 
#
#######################################################################
#
# If this CIF has been generated from an entry in the Cambridge 
# Structural Database, then it will include bibliographic, chemical, 
# crystal, experimental, refinement or atomic coordinate data resulting 
# from the CCDC's data processing and validation procedures.
#
#######################################################################

data_UFETEH
_chemical_formula_moiety         'C14 H19 N1 O2'
_chemical_name_systematic        N-(4-methylphenyl)-6-oxoheptanamide
_symmetry_cell_setting           monoclinic
_symmetry_space_group_name_H-M   'P 21/c'
_symmetry_Int_Tables_number      14
_space_group_name_Hall           '-P 2ybc'
loop_
_symmetry_equiv_pos_site_id
_symmetry_equiv_pos_as_xyz
1 x,y,z
2 -x,1/2+y,1/2-z
3 -x,-y,-z
4 x,1/2-y,1/2+z
_cell_length_a                   9.1258(11)
_cell_length_b                   17.7201(18)
_cell_length_c                   7.9903(8)
_cell_angle_alpha                90
_cell_angle_beta                 92.087(4)
_cell_angle_gamma                90
_cell_volume                     1291.26
_exptl_crystal_colour            colorless
_exptl_crystal_description       block
_cell_formula_units_Z            4
loop_
_atom_site_label
_atom_site_type_symbol
_atom_site_fract_x
_atom_site_fract_y
_atom_site_fract_z
C1 C 0.1116(3) 0.42686(14) -0.3608(3)
H1 H 0.0331 0.4590 -0.3964
C2 C 0.1788(3) 0.43839(13) -0.2055(3)
H2 H 0.1468 0.4784 -0.1365
C3 C 0.2937(2) 0.39179(12) -0.1487(3)
C4 C 0.3365(3) 0.33306(13) -0.2508(3)
H3 H 0.4129 0.2999 -0.2140
C5 C 0.2676(3) 0.32279(14) -0.4065(3)
H4 H 0.2982 0.2823 -0.4747
C6 C 0.1556(3) 0.36948(14) -0.4664(3)
C7 C 0.0868(3) 0.36006(16) -0.6395(3)
H5 H -0.0198 0.3557 -0.6319
H6 H 0.1254 0.3144 -0.6911
H7 H 0.1100 0.4040 -0.7080
C8 C 0.4707(2) 0.37335(12) 0.0953(3)
C9 C 0.5159(3) 0.41120(13) 0.2591(3)
H8 H 0.5685 0.4586 0.2344
H9 H 0.4266 0.4248 0.3190
C10 C 0.6130(3) 0.36291(13) 0.3728(3)
H10 H 0.7030 0.3496 0.3138
H11 H 0.5609 0.3155 0.3978
C11 C 0.6558(3) 0.40246(13) 0.5366(3)
H12 H 0.7162 0.4473 0.5122
H13 H 0.5660 0.4202 0.5902
C12 C 0.7410(3) 0.35146(13) 0.6573(3)
H14 H 0.6793 0.3071 0.6818
H15 H 0.8289 0.3328 0.6012
C13 C 0.7895(2) 0.38727(14) 0.8203(3)
C14 C 0.8721(3) 0.33851(15) 0.9441(3)
H16 H 0.9107 0.3697 1.0370
H17 H 0.9536 0.3139 0.8891
H18 H 0.8062 0.3001 0.9873
N1 N 0.3591(2) 0.40895(11) 0.0097(2)
O1 O 0.52948(19) 0.31614(9) 0.0453(2)
O2 O 0.7638(2) 0.45307(10) 0.8503(2)
H19 H 0.325(3) 0.4501(14) 0.059(3)
loop_
_geom_bond_atom_site_label_1
_geom_bond_atom_site_label_2
_geom_bond_site_symmetry_1
_geom_bond_site_symmetry_2
C1 H1 1_555 1_555
C2 C1 1_555 1_555
H2 C2 1_555 1_555
C3 C2 1_555 1_555
C4 C3 1_555 1_555
H3 C4 1_555 1_555
C5 C4 1_555 1_555
H4 C5 1_555 1_555
C6 C1 1_555 1_555
C7 C6 1_555 1_555
H5 C7 1_555 1_555
H6 C7 1_555 1_555
H7 C7 1_555 1_555
C8 C9 1_555 1_555
C9 H8 1_555 1_555
H9 C9 1_555 1_555
C10 C9 1_555 1_555
H10 C10 1_555 1_555
H11 C10 1_555 1_555
C11 C10 1_555 1_555
H12 C11 1_555 1_555
H13 C11 1_555 1_555
C12 C11 1_555 1_555
H14 C12 1_555 1_555
H15 C12 1_555 1_555
C13 C12 1_555 1_555
C14 C13 1_555 1_555
H16 C14 1_555 1_555
H17 C14 1_555 1_555
H18 C14 1_555 1_555
N1 C3 1_555 1_555
O1 C8 1_555 1_555
O2 C13 1_555 1_555
H19 N1 1_555 1_555
C5 C6 1_555 1_555
C8 N1 1_555 1_555

#END
