
#######################################################################
#
#                 Cambridge Crystallographic Data Centre
#                                CCDC 
#
#######################################################################
#
# If this CIF has been generated from an entry in the Cambridge 
# Structural Database, then it will include bibliographic, chemical, 
# crystal, experimental, refinement or atomic coordinate data resulting 
# from the CCDC's data processing and validation procedures.
#
#######################################################################

data_UFEYAI
_chemical_formula_moiety         'C16 H16 O4 S1'
_chemical_name_systematic        
'dimethyl 3a,4-dihydrobenzo[b]cyclopenta[d]thiopyran-2,2(3H)-dicarboxylate'
_symmetry_cell_setting           orthorhombic
_symmetry_space_group_name_H-M   'P b c a'
_symmetry_Int_Tables_number      61
_space_group_name_Hall           '-P 2ac 2ab'
loop_
_symmetry_equiv_pos_site_id
_symmetry_equiv_pos_as_xyz
1 x,y,z
2 1/2-x,-y,1/2+z
3 -x,1/2+y,1/2-z
4 1/2+x,1/2-y,-z
5 -x,-y,-z
6 1/2+x,y,1/2-z
7 x,1/2-y,1/2+z
8 1/2-x,1/2+y,z
_cell_length_a                   13.866(2)
_cell_length_b                   9.4032(15)
_cell_length_c                   22.169(4)
_cell_angle_alpha                90
_cell_angle_beta                 90
_cell_angle_gamma                90
_cell_volume                     2890.5
_exptl_crystal_colour            colorless
_exptl_crystal_description       block
_cell_formula_units_Z            8
loop_
_atom_site_label
_atom_site_type_symbol
_atom_site_fract_x
_atom_site_fract_y
_atom_site_fract_z
S1 S 0.74449(5) 0.07190(8) 0.73976(3)
O1 O 0.87185(13) -0.07069(18) 1.03188(8)
C1 C 0.86163(14) 0.0381(2) 0.86110(10)
O2 O 0.91807(12) 0.23810(17) 1.03775(8)
C2 C 0.85368(17) -0.0181(3) 0.75127(11)
C3 C 0.90184(15) -0.0270(2) 0.80657(10)
C4 C 0.89405(15) 0.0257(2) 0.91687(10)
H1 H 0.9473 -0.0289 0.9275
C5 C 0.98980(16) -0.0996(2) 0.80848(11)
H2 H 1.0224 -0.1067 0.8450
C6 C 0.80575(16) 0.0249(2) 1.01688(10)
C7 C 0.83503(15) 0.1099(2) 0.96139(9)
C8 C 0.89221(16) 0.2412(2) 0.98031(10)
C9 C 0.74670(16) 0.1541(3) 0.92318(11)
H3 H 0.6924 0.0920 0.9314
H4 H 0.7281 0.2512 0.9323
C10 C 0.77757(18) 0.1409(3) 0.85756(12)
H5 H 0.8019 0.2334 0.8440
C11 C 1.0297(2) -0.1608(3) 0.75779(12)
H6 H 1.0885 -0.2079 0.7601
C12 C 0.7016(2) 0.0932(3) 0.81504(13)
H7 H 0.6495 0.1621 0.8151
H8 H 0.6755 0.0032 0.8290
C13 C 0.9809(2) -0.1513(3) 0.70354(13)
H9 H 1.0071 -0.1928 0.6691
C14 C 0.8949(2) -0.0818(3) 0.70006(12)
H10 H 0.8630 -0.0764 0.6632
O3 O 0.73186(14) 0.0415(2) 1.04338(9)
O4 O 0.91172(17) 0.33565(19) 0.94636(9)
C15 C 0.8533(2) -0.1516(3) 1.08599(12)
H11 H 0.9051 -0.2174 1.0926
H12 H 0.7939 -0.2030 1.0816
H13 H 0.8485 -0.0881 1.1198
C16 C 0.9742(2) 0.3589(3) 1.05822(14)
H14 H 0.9894 0.3475 1.1002
H15 H 0.9375 0.4446 1.0527
H16 H 1.0328 0.3647 1.0353
loop_
_geom_bond_atom_site_label_1
_geom_bond_atom_site_label_2
_geom_bond_site_symmetry_1
_geom_bond_site_symmetry_2
S1 C2 1_555 1_555
O1 C6 1_555 1_555
C1 C3 1_555 1_555
O2 C8 1_555 1_555
C2 C3 1_555 1_555
C3 C5 1_555 1_555
C4 C1 1_555 1_555
H1 C4 1_555 1_555
C5 H2 1_555 1_555
C6 C7 1_555 1_555
C7 C4 1_555 1_555
C8 C7 1_555 1_555
C9 C7 1_555 1_555
H3 C9 1_555 1_555
H4 C9 1_555 1_555
C10 C1 1_555 1_555
H5 C10 1_555 1_555
C11 C5 1_555 1_555
H6 C11 1_555 1_555
C12 S1 1_555 1_555
H7 C12 1_555 1_555
H8 C12 1_555 1_555
C13 C11 1_555 1_555
H9 C13 1_555 1_555
C14 C2 1_555 1_555
H10 C14 1_555 1_555
O3 C6 1_555 1_555
O4 C8 1_555 1_555
C15 O1 1_555 1_555
H11 C15 1_555 1_555
H12 C15 1_555 1_555
H13 C15 1_555 1_555
C16 O2 1_555 1_555
H14 C16 1_555 1_555
H15 C16 1_555 1_555
H16 C16 1_555 1_555
C9 C10 1_555 1_555
C10 C12 1_555 1_555
C13 C14 1_555 1_555

#END
