
#######################################################################
#
#                 Cambridge Crystallographic Data Centre
#                                CCDC 
#
#######################################################################
#
# If this CIF has been generated from an entry in the Cambridge 
# Structural Database, then it will include bibliographic, chemical, 
# crystal, experimental, refinement or atomic coordinate data resulting 
# from the CCDC's data processing and validation procedures.
#
#######################################################################

data_UFIKUS
_chemical_formula_moiety         'C24 H17 N1 Se1'
_chemical_name_systematic        9-(4-(phenylselanyl)phenyl)-9H-carbazole
_symmetry_cell_setting           monoclinic
_symmetry_space_group_name_H-M   'P 21/c'
_symmetry_Int_Tables_number      14
_space_group_name_Hall           '-P 2ybc'
loop_
_symmetry_equiv_pos_site_id
_symmetry_equiv_pos_as_xyz
1 x,y,z
2 -x,1/2+y,1/2-z
3 -x,-y,-z
4 x,1/2-y,1/2+z
_cell_length_a                   14.9778(5)
_cell_length_b                   16.6273(6)
_cell_length_c                   7.5305(2)
_cell_angle_alpha                90
_cell_angle_beta                 99.6790(10)
_cell_angle_gamma                90
_cell_volume                     1848.7
_exptl_crystal_colour            yellow
_exptl_crystal_description       block
_cell_formula_units_Z            4
loop_
_atom_site_label
_atom_site_type_symbol
_atom_site_fract_x
_atom_site_fract_y
_atom_site_fract_z
N1 N 0.70237(9) 0.91130(8) 0.53057(17)
Se1 Se 0.64710(2) 1.12223(2) -0.14270(2)
C1 C 0.63351(11) 0.93545(9) 0.2189(2)
H1 H 0.5996 0.8872 0.2200
C2 C 0.62271(10) 0.98324(9) 0.0650(2)
H2 H 0.5813 0.9677 -0.0391
C3 C 0.67238(11) 1.05358(9) 0.0637(2)
C4 C 0.73463(11) 1.07552(10) 0.2152(2)
H3 H 0.7696 1.1231 0.2132
C5 C 0.76453(12) 1.13056(9) -0.2098(2)
C6 C 0.83501(12) 1.07726(10) -0.1507(2)
H4 H 0.8265 1.0341 -0.0726
C7 C 0.91765(12) 1.08764(11) -0.2070(2)
H5 H 0.9661 1.0518 -0.1656
C8 C 0.74543(11) 1.02800(9) 0.3685(2)
H6 H 0.7878 1.0429 0.4717
C9 C 0.69414(10) 0.95847(9) 0.37127(19)
C10 C 0.63035(11) 0.88278(8) 0.6086(2)
C11 C 0.66541(12) 0.83699(9) 0.7626(2)
C12 C 0.76246(12) 0.83933(9) 0.7804(2)
C13 C 0.78353(12) 0.88506(9) 0.6343(2)
C14 C 0.87229(12) 0.89579(11) 0.6076(2)
H7 H 0.8859 0.9253 0.5074
C15 C 0.94029(14) 0.86171(12) 0.7330(3)
H8 H 1.0016 0.8681 0.7181
C16 C 0.92082(14) 0.81837(12) 0.8804(3)
H9 H 0.9690 0.7968 0.9651
C17 C 0.83283(13) 0.80643(10) 0.9050(2)
H10 H 0.8200 0.7763 1.0050
C18 C 0.60556(13) 0.79977(9) 0.8611(2)
H11 H 0.6280 0.7679 0.9636
C19 C 0.48023(13) 0.85745(10) 0.6579(2)
H12 H 0.4166 0.8645 0.6249
C20 C 0.53786(12) 0.89472(9) 0.5564(2)
H13 H 0.5148 0.9271 0.4552
C21 C 0.51382(14) 0.80992(10) 0.8074(2)
H14 H 0.4728 0.7843 0.8728
C22 C 0.77672(12) 1.19273(10) -0.3279(2)
H15 H 0.7284 1.2287 -0.3694
C23 C 0.85953(13) 1.20181(11) -0.3844(2)
H16 H 0.8677 1.2439 -0.4655
C24 C 0.93040(13) 1.14997(12) -0.3233(2)
H17 H 0.9874 1.1569 -0.3607
loop_
_geom_bond_atom_site_label_1
_geom_bond_atom_site_label_2
_geom_bond_site_symmetry_1
_geom_bond_site_symmetry_2
N1 C9 1_555 1_555
Se1 C3 1_555 1_555
C1 H1 1_555 1_555
C2 C1 1_555 1_555
H2 C2 1_555 1_555
C3 C2 1_555 1_555
C4 C3 1_555 1_555
H3 C4 1_555 1_555
C5 Se1 1_555 1_555
C6 C5 1_555 1_555
H4 C6 1_555 1_555
C7 C6 1_555 1_555
H5 C7 1_555 1_555
C8 C4 1_555 1_555
H6 C8 1_555 1_555
C9 C1 1_555 1_555
C10 N1 1_555 1_555
C11 C10 1_555 1_555
C12 C11 1_555 1_555
C13 N1 1_555 1_555
C14 C13 1_555 1_555
H7 C14 1_555 1_555
C15 C14 1_555 1_555
H8 C15 1_555 1_555
C16 C15 1_555 1_555
H9 C16 1_555 1_555
C17 C12 1_555 1_555
H10 C17 1_555 1_555
C18 C11 1_555 1_555
H11 C18 1_555 1_555
C19 H12 1_555 1_555
C20 C10 1_555 1_555
H13 C20 1_555 1_555
C21 C18 1_555 1_555
H14 C21 1_555 1_555
C22 C5 1_555 1_555
H15 C22 1_555 1_555
C23 C22 1_555 1_555
H16 C23 1_555 1_555
C24 C7 1_555 1_555
H17 C24 1_555 1_555
C8 C9 1_555 1_555
C12 C13 1_555 1_555
C16 C17 1_555 1_555
C19 C20 1_555 1_555
C19 C21 1_555 1_555
C23 C24 1_555 1_555

#END
