
#######################################################################
#
#                 Cambridge Crystallographic Data Centre
#                                CCDC 
#
#######################################################################
#
# If this CIF has been generated from an entry in the Cambridge 
# Structural Database, then it will include bibliographic, chemical, 
# crystal, experimental, refinement or atomic coordinate data resulting 
# from the CCDC's data processing and validation procedures.
#
#######################################################################

data_UFINOP
_chemical_formula_moiety         'C34 H26 N2'
_chemical_name_systematic        
9-(2,6-dimethylphenyl)-14-phenyl-9,14-dihydrodibenzo[a,c]phenazine
_symmetry_cell_setting           triclinic
_symmetry_space_group_name_H-M   'P -1'
_symmetry_Int_Tables_number      2
_space_group_name_Hall           '-P 1'
loop_
_symmetry_equiv_pos_site_id
_symmetry_equiv_pos_as_xyz
1 x,y,z
2 -x,-y,-z
_cell_length_a                   10.3313(3)
_cell_length_b                   11.0085(3)
_cell_length_c                   11.6523(3)
_cell_angle_alpha                89.1697(8)
_cell_angle_beta                 75.2480(8)
_cell_angle_gamma                74.0822(8)
_cell_volume                     1230.23
_exptl_crystal_colour            colorless
_exptl_crystal_description       block
_cell_formula_units_Z            2
loop_
_atom_site_label
_atom_site_type_symbol
_atom_site_fract_x
_atom_site_fract_y
_atom_site_fract_z
N1 N 0.35246(9) 0.79980(8) 0.79454(8)
N2 N 0.37686(9) 0.54815(8) 0.80198(8)
C1 C 0.48866(11) 0.71186(10) 0.76935(9)
C2 C 0.60452(12) 0.76004(11) 0.76808(10)
C3 C 0.58333(14) 0.88900(12) 0.79777(12)
H1 H 0.4932 0.9466 0.8089
C4 C 0.69170(17) 0.93195(15) 0.81076(15)
H2 H 0.6765 1.0187 0.8318
C5 C 0.82326(17) 0.84832(18) 0.79305(18)
H3 H 0.8978 0.8778 0.8040
C6 C 0.84751(15) 0.72335(16) 0.75984(15)
H4 H 0.9391 0.6681 0.7464
C7 C 0.73889(12) 0.67530(12) 0.74518(10)
C8 C 0.75745(11) 0.54394(12) 0.71177(10)
C9 C 0.89208(13) 0.46081(14) 0.66709(13)
H5 H 0.9708 0.4918 0.6603
C10 C 0.91278(14) 0.33727(15) 0.63331(15)
H6 H 1.0047 0.2832 0.6041
C11 C 0.79897(14) 0.29138(14) 0.64189(15)
H7 H 0.8130 0.2055 0.6182
C12 C 0.66581(13) 0.36900(12) 0.68437(12)
H8 H 0.5891 0.3357 0.6890
C13 C 0.64013(11) 0.49657(10) 0.72126(9)
C14 C 0.50065(10) 0.58505(10) 0.76197(9)
C15 C 0.25646(11) 0.75965(10) 0.88791(10)
C16 C 0.15866(13) 0.84269(11) 0.97716(11)
H9 H 0.1599 0.9284 0.9826
C17 C 0.05932(14) 0.80063(13) 1.05828(12)
H10 H -0.0084 0.8574 1.1191
C18 C 0.05940(14) 0.67530(13) 1.05018(12)
H11 H -0.0112 0.6472 1.1037
C19 C 0.16071(12) 0.59047(11) 0.96544(11)
H12 H 0.1605 0.5044 0.9619
C20 C 0.26370(11) 0.63133(10) 0.88479(9)
C21 C 0.30630(11) 0.86080(9) 0.69842(10)
C22 C 0.16561(11) 0.92173(10) 0.71092(11)
H13 H 0.0991 0.9180 0.7831
C23 C 0.12192(13) 0.98763(12) 0.61922(12)
H14 H 0.0255 1.0280 0.6292
C24 C 0.21598(14) 0.99564(12) 0.51359(12)
H15 H 0.1857 1.0428 0.4517
C25 C 0.35541(13) 0.93355(12) 0.49972(11)
H16 H 0.4211 0.9369 0.4269
C26 C 0.40073(12) 0.86649(11) 0.59032(10)
H17 H 0.4969 0.8240 0.5788
C27 C 0.35688(11) 0.42909(10) 0.77405(9)
C28 C 0.30622(11) 0.42135(13) 0.67509(11)
C29 C 0.28047(14) 0.30833(19) 0.65107(17)
H18 H 0.2487 0.2990 0.5829
C30 C 0.30025(18) 0.20983(18) 0.7244(2)
H19 H 0.2805 0.1337 0.7072
C31 C 0.34843(19) 0.22061(13) 0.82235(19)
H20 H 0.3601 0.1521 0.8728
C32 C 0.38046(15) 0.33019(11) 0.84892(12)
C33 C 0.28186(16) 0.53175(18) 0.59859(13)
H21 H 0.2421 0.5113 0.5359
H22 H 0.3706 0.5500 0.5624
H23 H 0.2170 0.6060 0.6474
C34 C 0.4420(2) 0.33977(17) 0.95074(13)
H24 H 0.4491 0.2619 0.9935
H25 H 0.3820 0.4121 1.0049
H26 H 0.5350 0.3516 0.9203
loop_
_geom_bond_atom_site_label_1
_geom_bond_atom_site_label_2
_geom_bond_site_symmetry_1
_geom_bond_site_symmetry_2
N1 C1 1_555 1_555
N2 C14 1_555 1_555
C1 C2 1_555 1_555
C2 C3 1_555 1_555
C3 H1 1_555 1_555
C4 C3 1_555 1_555
H2 C4 1_555 1_555
C5 C4 1_555 1_555
H3 C5 1_555 1_555
C6 C5 1_555 1_555
H4 C6 1_555 1_555
C7 C2 1_555 1_555
C8 C7 1_555 1_555
C9 C8 1_555 1_555
H5 C9 1_555 1_555
C10 C9 1_555 1_555
H6 C10 1_555 1_555
C11 C10 1_555 1_555
H7 C11 1_555 1_555
C12 C11 1_555 1_555
H8 C12 1_555 1_555
C13 C8 1_555 1_555
C14 C1 1_555 1_555
C15 N1 1_555 1_555
C16 C15 1_555 1_555
H9 C16 1_555 1_555
C17 C16 1_555 1_555
H10 C17 1_555 1_555
C18 C17 1_555 1_555
H11 C18 1_555 1_555
C19 C18 1_555 1_555
H12 C19 1_555 1_555
C20 N2 1_555 1_555
C21 N1 1_555 1_555
C22 C21 1_555 1_555
H13 C22 1_555 1_555
C23 C22 1_555 1_555
H14 C23 1_555 1_555
C24 C23 1_555 1_555
H15 C24 1_555 1_555
C25 C24 1_555 1_555
H16 C25 1_555 1_555
C26 C21 1_555 1_555
H17 C26 1_555 1_555
C27 N2 1_555 1_555
C28 C27 1_555 1_555
C29 C28 1_555 1_555
H18 C29 1_555 1_555
C30 C29 1_555 1_555
H19 C30 1_555 1_555
C31 C30 1_555 1_555
H20 C31 1_555 1_555
C32 C27 1_555 1_555
C33 C28 1_555 1_555
H21 C33 1_555 1_555
H22 C33 1_555 1_555
H23 C33 1_555 1_555
C34 C32 1_555 1_555
H24 C34 1_555 1_555
H25 C34 1_555 1_555
H26 C34 1_555 1_555
C6 C7 1_555 1_555
C12 C13 1_555 1_555
C13 C14 1_555 1_555
C15 C20 1_555 1_555
C19 C20 1_555 1_555
C25 C26 1_555 1_555
C31 C32 1_555 1_555

#END
