
#######################################################################
#
#                 Cambridge Crystallographic Data Centre
#                                CCDC 
#
#######################################################################
#
# If this CIF has been generated from an entry in the Cambridge 
# Structural Database, then it will include bibliographic, chemical, 
# crystal, experimental, refinement or atomic coordinate data resulting 
# from the CCDC's data processing and validation procedures.
#
#######################################################################

data_UFIPAD
_chemical_formula_moiety         'C35 H28 N2'
_chemical_name_systematic        
9-(2,6-dimethylphenyl)-14-(2-methylphenyl)-9,14-dihydrodibenzo[a,c]phenazine
_symmetry_cell_setting           monoclinic
_symmetry_space_group_name_H-M   'P 21'
_symmetry_Int_Tables_number      4
_space_group_name_Hall           'P 2yb'
loop_
_symmetry_equiv_pos_site_id
_symmetry_equiv_pos_as_xyz
1 x,y,z
2 -x,1/2+y,-z
_cell_length_a                   8.6801(2)
_cell_length_b                   7.9652(2)
_cell_length_c                   18.0067(4)
_cell_angle_alpha                90
_cell_angle_beta                 93.2721(8)
_cell_angle_gamma                90
_cell_volume                     1242.93
_exptl_crystal_colour            yellow
_exptl_crystal_description       block
_cell_formula_units_Z            2
loop_
_atom_site_label
_atom_site_type_symbol
_atom_site_fract_x
_atom_site_fract_y
_atom_site_fract_z
N1 N 0.4973(2) 0.3171(2) 0.22648(10)
N2 N 0.5849(2) 0.0697(2) 0.33270(10)
C1 C 0.3846(3) 0.2477(3) 0.27156(12)
C2 C 0.2309(3) 0.2980(3) 0.26356(13)
H1 H 0.2000 0.3773 0.2262
C3 C 0.1226(3) 0.2335(3) 0.30957(13)
H2 H 0.0186 0.2711 0.3044
C4 C 0.1649(3) 0.1151(4) 0.36274(14)
H3 H 0.0906 0.0711 0.3942
C5 C 0.3175(3) 0.0606(3) 0.36990(14)
H4 H 0.3464 -0.0224 0.4059
C6 C 0.4278(3) 0.1261(3) 0.32505(12)
C7 C 0.6369(2) 0.2281(3) 0.22001(11)
C8 C 0.7480(3) 0.2733(3) 0.16548(12)
C9 C 0.7541(3) 0.4345(4) 0.13268(14)
H5 H 0.6828 0.5181 0.1461
C10 C 0.8618(3) 0.4730(4) 0.08144(15)
H6 H 0.8640 0.5821 0.0602
C11 C 0.9668(3) 0.3518(5) 0.06102(15)
H7 H 1.0366 0.3758 0.0237
C12 C 0.9692(3) 0.1981(4) 0.09473(14)
H8 H 1.0431 0.1173 0.0812
C13 C 0.8647(3) 0.1559(3) 0.14922(13)
C14 C 0.8818(3) 0.0015(3) 0.19160(14)
C15 C 0.9917(3) -0.1223(4) 0.17637(17)
H9 H 1.0515 -0.1095 0.1342
C16 C 1.0144(3) -0.2603(4) 0.22084(18)
H10 H 1.0884 -0.3426 0.2091
C17 C 0.9287(3) -0.2800(4) 0.28344(16)
H11 H 0.9460 -0.3746 0.3149
C18 C 0.8193(3) -0.1630(3) 0.29967(14)
H12 H 0.7611 -0.1780 0.3423
C19 C 0.7919(3) -0.0203(3) 0.25384(13)
C20 C 0.6708(3) 0.0970(3) 0.26784(12)
C21 C 0.437(7) 0.4206(19) 0.1657(12)
C22 C 0.397(2) 0.3470(14) 0.0968(7)
C23 C 0.3523(14) 0.4528(12) 0.0371(5)
H13 H 0.3312 0.4065 -0.0111
C24 C 0.3390(11) 0.6247(13) 0.0478(5)
H14 H 0.3087 0.6945 0.0067
C25 C 0.3688(12) 0.6954(12) 0.1165(6)
H15 H 0.3567 0.8130 0.1230
C26 C 0.417(2) 0.5939(15) 0.1776(6)
C27 C 0.399(2) 0.1598(13) 0.0867(10)
H16 H 0.5058 0.1194 0.0927
H17 H 0.3559 0.1311 0.0369
H18 H 0.3374 0.1067 0.1241
C28 C 0.448(3) 0.667(4) 0.2555(12)
H19 H 0.3729 0.6205 0.2888
H20 H 0.4377 0.7890 0.2535
H21 H 0.5525 0.6367 0.2742
C29 C 0.6697(3) 0.1184(3) 0.40151(13)
C30 C 0.7425(3) 0.2759(4) 0.40448(17)
H22 H 0.7313 0.3483 0.3626
C31 C 0.8295(4) 0.3282(5) 0.46641(19)
H23 H 0.8792 0.4345 0.4672
C32 C 0.8430(4) 0.2247(6) 0.5265(2)
H24 H 0.9031 0.2598 0.5694
C33 C 0.7717(5) 0.0703(6) 0.52667(18)
H25 H 0.7822 0.0020 0.5699
C34 C 0.6814(4) 0.0107(4) 0.46244(15)
C35 C 0.6094(4) -0.1580(5) 0.4642(2)
H26 H 0.5695 -0.1887 0.4141
H27 H 0.5245 -0.1562 0.4978
H28 H 0.6868 -0.2405 0.4820
C36? C 0.441(10) 0.441(3) 0.1731(17)
C37? C 0.398(4) 0.391(2) 0.1010(10)
C38? C 0.350(2) 0.5141(18) 0.0495(8)
H29? H 0.3206 0.4849 -0.0004
C39? C 0.3467(17) 0.6799(18) 0.0728(8)
H30? H 0.3182 0.7653 0.0379
C40? C 0.3839(19) 0.7226(19) 0.1455(7)
H31? H 0.3769 0.8371 0.1597
C41? C 0.431(3) 0.605(2) 0.1991(9)
C42? C 0.394(3) 0.208(2) 0.0810(15)
H32? H 0.4996 0.1665 0.0777
H33? H 0.3369 0.1933 0.0329
H34? H 0.3427 0.1451 0.1192
C43? C 0.467(4) 0.652(5) 0.2761(18)
H35? H 0.4913 0.7721 0.2790
H36? H 0.5553 0.5869 0.2961
H37? H 0.3771 0.6289 0.3053
loop_
_geom_bond_atom_site_label_1
_geom_bond_atom_site_label_2
_geom_bond_site_symmetry_1
_geom_bond_site_symmetry_2
N1 C1 1_555 1_555
N2 C6 1_555 1_555
C1 C2 1_555 1_555
C2 H1 1_555 1_555
C3 C2 1_555 1_555
H2 C3 1_555 1_555
C4 C3 1_555 1_555
H3 C4 1_555 1_555
C5 C4 1_555 1_555
H4 C5 1_555 1_555
C6 C1 1_555 1_555
C7 N1 1_555 1_555
C8 C7 1_555 1_555
C9 C8 1_555 1_555
H5 C9 1_555 1_555
C10 C9 1_555 1_555
H6 C10 1_555 1_555
C11 C10 1_555 1_555
H7 C11 1_555 1_555
C12 C11 1_555 1_555
H8 C12 1_555 1_555
C13 C8 1_555 1_555
C14 C13 1_555 1_555
C15 C14 1_555 1_555
H9 C15 1_555 1_555
C16 C15 1_555 1_555
H10 C16 1_555 1_555
C17 C16 1_555 1_555
H11 C17 1_555 1_555
C18 C17 1_555 1_555
H12 C18 1_555 1_555
C19 C14 1_555 1_555
C20 N2 1_555 1_555
C21 N1 1_555 1_555
C22 C21 1_555 1_555
C23 C22 1_555 1_555
H13 C23 1_555 1_555
C24 C23 1_555 1_555
H14 C24 1_555 1_555
C25 C24 1_555 1_555
H15 C25 1_555 1_555
C26 C21 1_555 1_555
C27 C22 1_555 1_555
H16 C27 1_555 1_555
H17 C27 1_555 1_555
H18 C27 1_555 1_555
C28 C26 1_555 1_555
H19 C28 1_555 1_555
H20 C28 1_555 1_555
H21 C28 1_555 1_555
C29 N2 1_555 1_555
C30 C29 1_555 1_555
H22 C30 1_555 1_555
C31 C30 1_555 1_555
H23 C31 1_555 1_555
C32 C31 1_555 1_555
H24 C32 1_555 1_555
C33 C32 1_555 1_555
H25 C33 1_555 1_555
C34 C29 1_555 1_555
C35 C34 1_555 1_555
H26 C35 1_555 1_555
H27 C35 1_555 1_555
H28 C35 1_555 1_555
C5 C6 1_555 1_555
C7 C20 1_555 1_555
C12 C13 1_555 1_555
C18 C19 1_555 1_555
C19 C20 1_555 1_555
C25 C26 1_555 1_555
C33 C34 1_555 1_555

#END
