
#######################################################################
#
#                 Cambridge Crystallographic Data Centre
#                                CCDC 
#
#######################################################################
#
# If this CIF has been generated from an entry in the Cambridge 
# Structural Database, then it will include bibliographic, chemical, 
# crystal, experimental, refinement or atomic coordinate data resulting 
# from the CCDC's data processing and validation procedures.
#
#######################################################################

data_UFIPEH
_chemical_formula_moiety         'C36 H30 N2'
_chemical_name_systematic        
9,14-bis(2,6-dimethylphenyl)-9,14-dihydrodibenzo[a,c]phenazine
_symmetry_cell_setting           monoclinic
_symmetry_space_group_name_H-M   'P 21/c'
_symmetry_Int_Tables_number      14
_space_group_name_Hall           '-P 2ybc'
loop_
_symmetry_equiv_pos_site_id
_symmetry_equiv_pos_as_xyz
1 x,y,z
2 -x,1/2+y,1/2-z
3 -x,-y,-z
4 x,1/2-y,1/2+z
_cell_length_a                   12.4074(3)
_cell_length_b                   15.1619(4)
_cell_length_c                   13.5704(4)
_cell_angle_alpha                90
_cell_angle_beta                 92.3543(9)
_cell_angle_gamma                90
_cell_volume                     2550.71
_exptl_crystal_colour            orange
_exptl_crystal_description       block
_cell_formula_units_Z            4
loop_
_atom_site_label
_atom_site_type_symbol
_atom_site_fract_x
_atom_site_fract_y
_atom_site_fract_z
N1 N 0.79739(7) 0.10582(6) 0.34084(7)
N2 N 0.77146(7) -0.03148(6) 0.19600(7)
C1 C 0.69837(8) 0.05780(7) 0.32836(8)
C2 C 0.60286(9) 0.08644(7) 0.37858(8)
C3 C 0.60031(9) 0.16423(8) 0.43611(9)
H1 H 0.6647 0.1975 0.4465
C4 C 0.50727(10) 0.19306(8) 0.47743(9)
H2 H 0.5085 0.2450 0.5166
C5 C 0.41160(10) 0.14672(9) 0.46223(10)
H3 H 0.3473 0.1669 0.4906
C6 C 0.41045(10) 0.07144(9) 0.40593(10)
H4 H 0.3445 0.0406 0.3948
C7 C 0.50465(9) 0.03883(8) 0.36418(8)
C8 C 0.50415(9) -0.04426(8) 0.31215(8)
C9 C 0.41506(10) -0.10277(9) 0.31152(9)
H5 H 0.3485 -0.0832 0.3360
C10 C 0.42327(11) -0.18698(9) 0.27622(10)
H6 H 0.3624 -0.2250 0.2754
C11 C 0.52108(11) -0.21698(9) 0.24137(9)
H7 H 0.5287 -0.2769 0.2224
C12 C 0.60633(10) -0.15980(8) 0.23458(9)
H8 H 0.6713 -0.1800 0.2075
C13 C 0.59915(9) -0.07148(8) 0.26710(8)
C14 C 0.69025(8) -0.01186(7) 0.26402(8)
C15 C 0.88166(8) 0.08433(7) 0.27642(8)
C16 C 0.97995(9) 0.12905(8) 0.28431(8)
H9 H 0.9905 0.1727 0.3340
C17 C 1.06273(9) 0.11133(8) 0.22137(9)
H10 H 1.1289 0.1426 0.2282
C18 C 1.04851(9) 0.04812(8) 0.14877(9)
H11 H 1.1045 0.0361 0.1050
C19 C 0.95165(9) 0.00235(8) 0.14042(9)
H12 H 0.9419 -0.0411 0.0904
C20 C 0.86808(8) 0.01873(7) 0.20397(8)
C21 C 0.83599(8) 0.12803(8) 0.44049(8)
C22 C 0.85609(9) 0.21688(8) 0.46427(9)
C23 C 0.89625(11) 0.23678(10) 0.55932(10)
H13 H 0.9111 0.2964 0.5768
C24 C 0.91460(12) 0.17087(11) 0.62822(10)
H14 H 0.9411 0.1855 0.6928
C25 C 0.89467(11) 0.08393(11) 0.60379(9)
H15 H 0.9066 0.0393 0.6522
C26 C 0.85711(9) 0.06046(8) 0.50892(9)
C27 C 0.83422(11) 0.29069(9) 0.39238(11)
H16 H 0.7756 0.3276 0.4156
H17 H 0.8134 0.2661 0.3276
H18 H 0.8995 0.3265 0.3871
C28 C 0.84477(10) -0.03517(9) 0.48143(10)
H19 H 0.7686 -0.0479 0.4654
H20 H 0.8700 -0.0721 0.5370
H21 H 0.8876 -0.0478 0.4240
C29 C 0.73484(8) -0.05296(7) 0.09555(8)
C30 C 0.76549(9) -0.13296(8) 0.05335(9)
C31 C 0.72801(10) -0.15166(9) -0.04299(9)
H22 H 0.7473 -0.2059 -0.0726
C32 C 0.66369(11) -0.09289(11) -0.09579(9)
H23 H 0.6378 -0.1073 -0.1607
C33 C 0.63691(10) -0.01309(10) -0.05442(10)
H24 H 0.5937 0.0276 -0.0918
C34 C 0.67233(9) 0.00880(8) 0.04133(9)
C35 C 0.83824(11) -0.19848(9) 0.10637(11)
H25 H 0.8603 -0.1752 0.1715
H26 H 0.9023 -0.2087 0.0680
H27 H 0.7995 -0.2542 0.1141
C36 C 0.64537(11) 0.09786(9) 0.08235(10)
H28 H 0.5896 0.0914 0.1309
H29 H 0.6188 0.1364 0.0287
H30 H 0.7102 0.1239 0.1142
loop_
_geom_bond_atom_site_label_1
_geom_bond_atom_site_label_2
_geom_bond_site_symmetry_1
_geom_bond_site_symmetry_2
N1 C1 1_555 1_555
N2 C14 1_555 1_555
C1 C2 1_555 1_555
C2 C3 1_555 1_555
C3 H1 1_555 1_555
C4 C3 1_555 1_555
H2 C4 1_555 1_555
C5 C4 1_555 1_555
H3 C5 1_555 1_555
C6 C5 1_555 1_555
H4 C6 1_555 1_555
C7 C2 1_555 1_555
C8 C7 1_555 1_555
C9 C8 1_555 1_555
H5 C9 1_555 1_555
C10 C9 1_555 1_555
H6 C10 1_555 1_555
C11 C10 1_555 1_555
H7 C11 1_555 1_555
C12 C11 1_555 1_555
H8 C12 1_555 1_555
C13 C8 1_555 1_555
C14 C1 1_555 1_555
C15 N1 1_555 1_555
C16 C15 1_555 1_555
H9 C16 1_555 1_555
C17 C16 1_555 1_555
H10 C17 1_555 1_555
C18 C17 1_555 1_555
H11 C18 1_555 1_555
C19 C18 1_555 1_555
H12 C19 1_555 1_555
C20 N2 1_555 1_555
C21 N1 1_555 1_555
C22 C21 1_555 1_555
C23 C22 1_555 1_555
H13 C23 1_555 1_555
C24 C23 1_555 1_555
H14 C24 1_555 1_555
C25 C24 1_555 1_555
H15 C25 1_555 1_555
C26 C21 1_555 1_555
C27 C22 1_555 1_555
H16 C27 1_555 1_555
H17 C27 1_555 1_555
H18 C27 1_555 1_555
C28 C26 1_555 1_555
H19 C28 1_555 1_555
H20 C28 1_555 1_555
H21 C28 1_555 1_555
C29 N2 1_555 1_555
C30 C29 1_555 1_555
C31 C30 1_555 1_555
H22 C31 1_555 1_555
C32 C31 1_555 1_555
H23 C32 1_555 1_555
C33 C32 1_555 1_555
H24 C33 1_555 1_555
C34 C29 1_555 1_555
C35 C30 1_555 1_555
H25 C35 1_555 1_555
H26 C35 1_555 1_555
H27 C35 1_555 1_555
C36 C34 1_555 1_555
H28 C36 1_555 1_555
H29 C36 1_555 1_555
H30 C36 1_555 1_555
C6 C7 1_555 1_555
C12 C13 1_555 1_555
C13 C14 1_555 1_555
C15 C20 1_555 1_555
C19 C20 1_555 1_555
C25 C26 1_555 1_555
C33 C34 1_555 1_555

#END
