
#######################################################################
#
#                 Cambridge Crystallographic Data Centre
#                                CCDC 
#
#######################################################################
#
# If this CIF has been generated from an entry in the Cambridge 
# Structural Database, then it will include bibliographic, chemical, 
# crystal, experimental, refinement or atomic coordinate data resulting 
# from the CCDC's data processing and validation procedures.
#
#######################################################################

data_UFIPOR
_chemical_formula_moiety         'C34 H26 N2'
_chemical_name_systematic        
9,14-bis(4-methylphenyl)-9,14-dihydrodibenzo[a,c]phenazine
_symmetry_cell_setting           monoclinic
_symmetry_space_group_name_H-M   'P 21/n'
_symmetry_Int_Tables_number      14
_space_group_name_Hall           '-P 2yn'
loop_
_symmetry_equiv_pos_site_id
_symmetry_equiv_pos_as_xyz
1 x,y,z
2 1/2-x,1/2+y,1/2-z
3 -x,-y,-z
4 1/2+x,1/2-y,1/2+z
_cell_length_a                   9.0517(2)
_cell_length_b                   30.1680(7)
_cell_length_c                   9.9183(2)
_cell_angle_alpha                90
_cell_angle_beta                 115.2357(8)
_cell_angle_gamma                90
_cell_volume                     2449.92
_exptl_crystal_colour            colorless
_exptl_crystal_description       plate
_cell_formula_units_Z            4
loop_
_atom_site_label
_atom_site_type_symbol
_atom_site_fract_x
_atom_site_fract_y
_atom_site_fract_z
N1 N 0.39489(15) 0.12422(4) 0.46037(14)
N2 N 0.48948(16) 0.09516(4) 0.74381(14)
C1 C 0.27071(18) 0.11995(5) 0.51312(17)
C2 C 0.10557(19) 0.12717(5) 0.4236(2)
H1 H 0.0709 0.1371 0.3238
C3 C -0.0085(2) 0.11979(6) 0.4807(2)
H2 H -0.1207 0.1257 0.4206
C4 C 0.0401(2) 0.10398(6) 0.6242(2)
H3 H -0.0386 0.0989 0.6621
C5 C 0.2041(2) 0.09555(5) 0.7127(2)
H4 H 0.2376 0.0841 0.8105
C6 C 0.31920(19) 0.10402(5) 0.65753(18)
C7 C 0.51467(17) 0.08992(5) 0.51341(16)
C8 C 0.57799(17) 0.07041(5) 0.41558(16)
C9 C 0.5335(2) 0.08631(5) 0.26972(17)
H5 H 0.4560 0.1096 0.2321
C10 C 0.6012(2) 0.06845(6) 0.18138(18)
H6 H 0.5717 0.0797 0.0839
C11 C 0.7133(2) 0.03378(6) 0.23499(19)
H7 H 0.7604 0.0216 0.1740
C12 C 0.75576(19) 0.01712(5) 0.37514(18)
H8 H 0.8311 -0.0068 0.4094
C13 C 0.69003(17) 0.03471(5) 0.46976(16)
C14 C 0.73198(17) 0.01695(5) 0.61799(16)
C15 C 0.83792(19) -0.01949(5) 0.67541(18)
H9 H 0.8867 -0.0326 0.6172
C16 C 0.8719(2) -0.03638(5) 0.8142(2)
H10 H 0.9444 -0.0608 0.8513
C17 C 0.8001(2) -0.01779(6) 0.90085(19)
H11 H 0.8227 -0.0299 0.9961
C18 C 0.6973(2) 0.01782(5) 0.84919(18)
H12 H 0.6491 0.0303 0.9089
C19 C 0.66250(18) 0.03618(5) 0.70804(16)
C20 C 0.55857(18) 0.07417(5) 0.65323(16)
C21 C 0.44036(18) 0.16666(5) 0.42747(17)
C22 C 0.6028(2) 0.17739(6) 0.4725(2)
H13 H 0.6852 0.1568 0.5296
C23 C 0.6466(2) 0.21806(6) 0.4347(2)
H14 H 0.7589 0.2245 0.4645
C24 C 0.5308(3) 0.24936(6) 0.3548(2)
C25 C 0.3698(3) 0.23883(7) 0.3148(3)
H15 H 0.2880 0.2601 0.2626
C26 C 0.3234(2) 0.19812(7) 0.3483(3)
H16 H 0.2109 0.1916 0.3171
C27 C 0.5787(3) 0.29372(7) 0.3153(3)
H17 H 0.6114 0.2900 0.2337
H18 H 0.6703 0.3060 0.4026
H19 H 0.4856 0.3141 0.2840
C28 C 0.58455(19) 0.12822(5) 0.84700(16)
C29 C 0.7537(2) 0.12943(6) 0.90187(18)
H20 H 0.8082 0.1083 0.8682
C30 C 0.8439(2) 0.16128(6) 1.0055(2)
H21 H 0.9594 0.1614 1.0412
C31 C 0.7708(2) 0.19299(6) 1.0586(2)
C32 C 0.6024(2) 0.19121(6) 1.0039(2)
H22 H 0.5484 0.2123 1.0384
C33 C 0.5101(2) 0.15981(6) 0.9007(2)
H23 H 0.3948 0.1597 0.8659
C34 C 0.8700(3) 0.22829(7) 1.1680(2)
H24 H 0.8032 0.2550 1.1535
H25 H 0.9666 0.2354 1.1515
H26 H 0.9043 0.2173 1.2700
loop_
_geom_bond_atom_site_label_1
_geom_bond_atom_site_label_2
_geom_bond_site_symmetry_1
_geom_bond_site_symmetry_2
N1 C1 1_555 1_555
N2 C6 1_555 1_555
C1 C2 1_555 1_555
C2 H1 1_555 1_555
C3 C2 1_555 1_555
H2 C3 1_555 1_555
C4 C3 1_555 1_555
H3 C4 1_555 1_555
C5 C4 1_555 1_555
H4 C5 1_555 1_555
C6 C1 1_555 1_555
C7 N1 1_555 1_555
C8 C7 1_555 1_555
C9 C8 1_555 1_555
H5 C9 1_555 1_555
C10 C9 1_555 1_555
H6 C10 1_555 1_555
C11 C10 1_555 1_555
H7 C11 1_555 1_555
C12 C11 1_555 1_555
H8 C12 1_555 1_555
C13 C8 1_555 1_555
C14 C13 1_555 1_555
C15 C14 1_555 1_555
H9 C15 1_555 1_555
C16 C15 1_555 1_555
H10 C16 1_555 1_555
C17 C16 1_555 1_555
H11 C17 1_555 1_555
C18 C17 1_555 1_555
H12 C18 1_555 1_555
C19 C14 1_555 1_555
C20 N2 1_555 1_555
C21 N1 1_555 1_555
C22 C21 1_555 1_555
H13 C22 1_555 1_555
C23 C22 1_555 1_555
H14 C23 1_555 1_555
C24 C23 1_555 1_555
C25 C24 1_555 1_555
H15 C25 1_555 1_555
C26 C21 1_555 1_555
H16 C26 1_555 1_555
C27 C24 1_555 1_555
H17 C27 1_555 1_555
H18 C27 1_555 1_555
H19 C27 1_555 1_555
C28 N2 1_555 1_555
C29 C28 1_555 1_555
H20 C29 1_555 1_555
C30 C29 1_555 1_555
H21 C30 1_555 1_555
C31 C30 1_555 1_555
C32 C31 1_555 1_555
H22 C32 1_555 1_555
C33 C28 1_555 1_555
H23 C33 1_555 1_555
C34 C31 1_555 1_555
H24 C34 1_555 1_555
H25 C34 1_555 1_555
H26 C34 1_555 1_555
C5 C6 1_555 1_555
C7 C20 1_555 1_555
C12 C13 1_555 1_555
C18 C19 1_555 1_555
C19 C20 1_555 1_555
C25 C26 1_555 1_555
C32 C33 1_555 1_555

#END
