
#######################################################################
#
#                 Cambridge Crystallographic Data Centre
#                                CCDC 
#
#######################################################################
#
# If this CIF has been generated from an entry in the Cambridge 
# Structural Database, then it will include bibliographic, chemical, 
# crystal, experimental, refinement or atomic coordinate data resulting 
# from the CCDC's data processing and validation procedures.
#
#######################################################################

data_UFOHOM
_chemical_formula_moiety         'H4 N1 1+,C30 H39 Br3 N6,F6 P1 1-'
_chemical_name_systematic        
'Ammonium 1,3,5-tris((4-bromo-3,5-dimethylpyrazol-1-yl)methyl)-2,4,6-triethylbenzene hexafluorophosphate'
_symmetry_cell_setting           triclinic
_symmetry_space_group_name_H-M   'P -1'
_symmetry_Int_Tables_number      2
_space_group_name_Hall           '-P 1'
loop_
_symmetry_equiv_pos_site_id
_symmetry_equiv_pos_as_xyz
1 x,y,z
2 -x,-y,-z
_cell_length_a                   10.8201(2)
_cell_length_b                   11.8525(3)
_cell_length_c                   16.0993(1)
_cell_angle_alpha                93.654(1)
_cell_angle_beta                 98.994(1)
_cell_angle_gamma                113.193(1)
_cell_volume                     1856.53
_cell_formula_units_Z            2
loop_
_atom_site_label
_atom_site_type_symbol
_atom_site_fract_x
_atom_site_fract_y
_atom_site_fract_z
Br1 Br -0.2090(1) 0.5066(1) 0.5676(1)
Br2 Br -0.0592(1) 0.2445(1) 1.1792(1)
Br3 Br 0.0525(1) -0.1787(1) 0.4539(1)
N1 N 0.1126(4) 0.4819(4) 0.7100(3)
N2 N 0.0134(5) 0.3795(4) 0.7308(3)
N3 N 0.2106(5) 0.2789(4) 1.0293(3)
N4 N 0.0976(5) 0.1957(4) 0.9745(3)
N5 N 0.2591(4) 0.0748(4) 0.6570(3)
N6 N 0.1352(4) 0.0298(4) 0.6813(3)
C1 C 0.2934(5) 0.4320(5) 0.7930(4)
C2 C 0.3054(5) 0.4241(5) 0.8799(3)
C3 C 0.3345(5) 0.3281(5) 0.9113(3)
C4 C 0.3527(5) 0.2401(5) 0.8574(3)
C5 C 0.3487(5) 0.2548(5) 0.7711(3)
C6 C 0.3175(5) 0.3489(5) 0.7383(3)
C7 C 0.2903(6) 0.5213(5) 0.9393(4)
C8 C 0.1421(7) 0.5004(6) 0.9429(5)
C9 C 0.3724(6) 0.1305(5) 0.8899(4)
C10 C 0.5209(7) 0.1557(7) 0.9267(5)
C11 C 0.3098(5) 0.3612(5) 0.6449(4)
C12 C 0.4481(6) 0.4477(7) 0.6250(4)
C13 C 0.2561(5) 0.5304(5) 0.7559(4)
C14 C 0.0602(6) 0.5408(5) 0.6559(4)
C15 C -0.0783(6) 0.4736(5) 0.6400(4)
C16 C -0.1044(6) 0.3750(5) 0.6868(4)
C17 C 0.1454(7) 0.6573(6) 0.6267(5)
C18 C -0.2394(6) 0.2753(7) 0.6931(6)
C19 C 0.3446(6) 0.3164(6) 1.0050(4)
C20 C 0.1836(6) 0.3097(6) 1.1042(4)
C21 C 0.0443(7) 0.2433(6) 1.0963(4)
C22 C -0.0055(6) 0.1750(6) 1.0158(4)
C23 C 0.2882(8) 0.3982(8) 1.1760(4)
C24 C -0.1488(7) 0.0894(8) 0.9742(5)
C25 C 0.3810(5) 0.1693(5) 0.7135(4)
C26 C 0.2549(6) 0.0160(5) 0.5817(4)
C27 C 0.1217(6) -0.0692(5) 0.5554(4)
C28 C 0.0512(5) -0.0581(5) 0.6179(4)
C29 C 0.3766(7) 0.0451(7) 0.5416(4)
C30 C -0.0973(6) -0.1298(6) 0.6188(5)
N7 N 0.0151(5) 0.1460(4) 0.7899(3)
P1 P -0.4124(2) -0.1061(2) 0.7523(1)
F1 F -0.4621(8) -0.2394(5) 0.7129(7)
F2 F -0.5587(7) -0.1098(9) 0.7316(6)
F3 F -0.4303(8) -0.1397(9) 0.8426(5)
F4 F -0.3649(8) 0.0325(5) 0.7919(4)
F5 F -0.3818(10) -0.0600(8) 0.6663(4)
F6 F -0.2612(5) -0.0942(6) 0.7777(4)
loop_
_geom_bond_atom_site_label_1
_geom_bond_atom_site_label_2
_geom_bond_site_symmetry_1
_geom_bond_site_symmetry_2
Br1 C15 1_555 1_555
Br2 C21 1_555 1_555
Br3 C27 1_555 1_555
N1 N2 1_555 1_555
N2 C16 1_555 1_555
N3 N4 1_555 1_555
N4 C22 1_555 1_555
N5 N6 1_555 1_555
N6 C28 1_555 1_555
C1 C2 1_555 1_555
C2 C3 1_555 1_555
C3 C4 1_555 1_555
C4 C5 1_555 1_555
C5 C6 1_555 1_555
C6 C1 1_555 1_555
C7 C2 1_555 1_555
C8 C7 1_555 1_555
C9 C4 1_555 1_555
C10 C9 1_555 1_555
C11 C6 1_555 1_555
C12 C11 1_555 1_555
C13 N1 1_555 1_555
C14 N1 1_555 1_555
C15 C14 1_555 1_555
C16 C15 1_555 1_555
C17 C14 1_555 1_555
C18 C16 1_555 1_555
C19 N3 1_555 1_555
C20 N3 1_555 1_555
C21 C20 1_555 1_555
C22 C21 1_555 1_555
C23 C20 1_555 1_555
C24 C22 1_555 1_555
C25 N5 1_555 1_555
C26 N5 1_555 1_555
C27 C26 1_555 1_555
C28 C27 1_555 1_555
C29 C26 1_555 1_555
C30 C28 1_555 1_555
P1 F1 1_555 1_555
F2 P1 1_555 1_555
F3 P1 1_555 1_555
F4 P1 1_555 1_555
F5 P1 1_555 1_555
F6 P1 1_555 1_555
C1 C13 1_555 1_555
C3 C19 1_555 1_555
C5 C25 1_555 1_555

#END
