
#######################################################################
#
#                 Cambridge Crystallographic Data Centre
#                                CCDC 
#
#######################################################################
#
# If this CIF has been generated from an entry in the Cambridge 
# Structural Database, then it will include bibliographic, chemical, 
# crystal, experimental, refinement or atomic coordinate data resulting 
# from the CCDC's data processing and validation procedures.
#
#######################################################################

data_UFOHEC
_chemical_formula_moiety         'C25 H30 N2'
_chemical_name_systematic        
3,4,5,6-Tetraethyl-1-phenyl-2-(phenylimino)-1,2-dihydropyridine
_symmetry_cell_setting           monoclinic
_symmetry_space_group_name_H-M   'P 21'
_symmetry_Int_Tables_number      4
_space_group_name_Hall           'P 2yb'
loop_
_symmetry_equiv_pos_site_id
_symmetry_equiv_pos_as_xyz
1 x,y,z
2 -x,1/2+y,-z
_cell_length_a                   9.2161(7)
_cell_length_b                   19.584(2)
_cell_length_c                   5.8952(5)
_cell_angle_alpha                90
_cell_angle_beta                 97.545(6)
_cell_angle_gamma                90
_cell_volume                     1054.8
_exptl_crystal_colour            colorless
_exptl_crystal_description       prismatic
_chemical_melting_point          '134-135 deg.C'
_cell_formula_units_Z            2
loop_
_atom_site_label
_atom_site_type_symbol
_atom_site_fract_x
_atom_site_fract_y
_atom_site_fract_z
N1 N 0.9963(2) 0.2718 0.9780(3)
N2 N 1.0851(2) 0.3656(1) 1.1749(4)
C1 C 1.1107(2) 0.3032(1) 1.1211(4)
C2 C 1.2335(2) 0.2589(2) 1.2008(4)
C3 C 1.2323(3) 0.1918(2) 1.1356(4)
C4 C 1.1129(3) 0.1634(2) 0.9850(4)
C5 C 0.9957(3) 0.2038(2) 0.9132(4)
C6 C 0.8751(2) 0.3161(1) 0.8949(4)
C7 C 0.7604(3) 0.3237(2) 1.0244(5)
C8 C 0.6441(3) 0.3658(2) 0.9464(6)
C9 C 0.6406(4) 0.3992(2) 0.7417(7)
C10 C 0.7543(4) 0.3917(2) 0.6132(6)
C11 C 0.8730(3) 0.3499(2) 0.6902(5)
C12 C 1.1871(2) 0.4161(2) 1.2431(4)
C13 C 1.1769(3) 0.4548(2) 1.4402(5)
C14 C 1.2724(4) 0.5074(2) 1.5015(5)
C15 C 1.3786(3) 0.5253(2) 1.3697(5)
C16 C 1.3884(3) 0.4889(2) 1.1713(6)
C17 C 1.2935(3) 0.4357(2) 1.1073(5)
C18 C 1.3509(3) 0.2868(2) 1.3824(4)
C19 C 1.3027(4) 0.2837(2) 1.6186(5)
C20 C 1.3625(4) 0.1463(2) 1.2181(6)
C21 C 1.4849(4) 0.1535(3) 1.0713(9)
C22 C 1.1126(4) 0.0883(2) 0.9160(6)
C23 C 1.0506(6) 0.0409(2) 1.0840(9)
C24 C 0.8638(3) 0.1790(2) 0.7548(5)
C25 C 0.8860(6) 0.1835(2) 0.5024(6)
H1 H 0.770(4) 0.302(2) 1.187(6)
H2 H 0.564(5) 0.368(2) 1.053(7)
H3 H 0.556(4) 0.428(2) 0.698(7)
H4 H 0.757(4) 0.416(2) 0.475(6)
H5 H 0.946(3) 0.347(1) 0.611(5)
H6 H 1.099(4) 0.443(2) 1.531(6)
H7 H 1.258(4) 0.535(2) 1.648(6)
H8 H 1.436(4) 0.565(2) 1.403(6)
H9 H 1.456(4) 0.504(2) 1.068(6)
H10 H 1.298(4) 0.413(2) 0.964(6)
H11 H 1.439(3) 0.262(2) 1.375(5)
H12 H 1.368(2) 0.334(1) 1.354(4)
H13 H 1.274(4) 0.236(2) 1.647(7)
H14 H 1.386(4) 0.298(2) 1.735(7)
H15 H 1.202(5) 0.314(2) 1.623(7)
H16 H 1.325(4) 0.097(2) 1.219(6)
H17 H 1.406(3) 0.158(2) 1.373(6)
H18 H 1.454(4) 0.141(2) 0.921(7)
H19 H 1.565(7) 0.128(3) 1.13(1)
H20 H 1.521(4) 0.203(2) 1.079(7)
H21 H 1.222(4) 0.070(2) 0.881(6)
H22 H 1.056(4) 0.082(2) 0.767(6)
H23 H 1.073(7) -0.007(4) 1.01(1)
H24 H 1.118(5) 0.049(2) 1.235(8)
H25 H 0.945(6) 0.059(3) 1.100(8)
H26 H 0.846(3) 0.130(2) 0.803(5)
H27 H 0.779(3) 0.201(1) 0.787(5)
H28 H 0.989(6) 0.159(3) 0.483(9)
H29 H 0.905(4) 0.228(2) 0.454(7)
H30 H 0.795(5) 0.172(3) 0.416(8)
loop_
_geom_bond_atom_site_label_1
_geom_bond_atom_site_label_2
_geom_bond_site_symmetry_1
_geom_bond_site_symmetry_2
N1 C1 1_555 1_555
N2 C1 1_555 1_555
C1 C2 1_555 1_555
C2 C3 1_555 1_555
C3 C4 1_555 1_555
C4 C5 1_555 1_555
C5 N1 1_555 1_555
C6 N1 1_555 1_555
C7 C6 1_555 1_555
C8 C7 1_555 1_555
C9 C8 1_555 1_555
C10 C9 1_555 1_555
C11 C6 1_555 1_555
C12 N2 1_555 1_555
C13 C12 1_555 1_555
C14 C13 1_555 1_555
C15 C14 1_555 1_555
C16 C15 1_555 1_555
C17 C12 1_555 1_555
C18 C2 1_555 1_555
C19 C18 1_555 1_555
C20 C3 1_555 1_555
C21 C20 1_555 1_555
C22 C4 1_555 1_555
C23 C22 1_555 1_555
C24 C5 1_555 1_555
C25 C24 1_555 1_555
H1 C7 1_555 1_555
H2 C8 1_555 1_555
H3 C9 1_555 1_555
H4 C10 1_555 1_555
H5 C11 1_555 1_555
H6 C13 1_555 1_555
H7 C14 1_555 1_555
H8 C15 1_555 1_555
H9 C16 1_555 1_555
H10 C17 1_555 1_555
H11 C18 1_555 1_555
H12 C18 1_555 1_555
H13 C19 1_555 1_555
H14 C19 1_555 1_555
H15 C19 1_555 1_555
H16 C20 1_555 1_555
H17 C20 1_555 1_555
H18 C21 1_555 1_555
H19 C21 1_555 1_555
H20 C21 1_555 1_555
H21 C22 1_555 1_555
H22 C22 1_555 1_555
H23 C23 1_555 1_555
H24 C23 1_555 1_555
H25 C23 1_555 1_555
H26 C24 1_555 1_555
H27 C24 1_555 1_555
H28 C25 1_555 1_555
H29 C25 1_555 1_555
H30 C25 1_555 1_555
C10 C11 1_555 1_555
C16 C17 1_555 1_555

#END
