
#######################################################################
#
#                 Cambridge Crystallographic Data Centre
#                                CCDC 
#
#######################################################################
#
# If this CIF has been generated from an entry in the Cambridge 
# Structural Database, then it will include bibliographic, chemical, 
# crystal, experimental, refinement or atomic coordinate data resulting 
# from the CCDC's data processing and validation procedures.
#
#######################################################################

data_UFUBOP
_chemical_formula_moiety         'C20 H16 B1 N1 O2'
_chemical_name_systematic        
9-[4-(1,3,2-dioxaborolan-2-yl)phenyl]-9H-carbazole
_symmetry_cell_setting           monoclinic
_symmetry_space_group_name_H-M   'C c'
_symmetry_Int_Tables_number      9
_space_group_name_Hall           'C -2yc'
loop_
_symmetry_equiv_pos_site_id
_symmetry_equiv_pos_as_xyz
1 x,y,z
2 x,-y,1/2+z
3 1/2+x,1/2+y,z
4 1/2+x,1/2-y,1/2+z
_cell_length_a                   10.1937(12)
_cell_length_b                   24.9479(16)
_cell_length_c                   7.566(2)
_cell_angle_alpha                90
_cell_angle_beta                 119.872(17)
_cell_angle_gamma                90
_cell_volume                     1668.48
_exptl_crystal_colour            colorless
_exptl_crystal_description       block
_cell_formula_units_Z            4
loop_
_atom_site_label
_atom_site_type_symbol
_atom_site_fract_x
_atom_site_fract_y
_atom_site_fract_z
N1 N 0.0744(3) 0.88098(10) 0.9409(3)
O1 O -0.0565(3) 0.68809(10) 0.2771(4)
O2 O -0.1483(4) 0.75810(11) 0.0597(3)
B1 B -0.0803(5) 0.74124(16) 0.2563(6)
C1 C -0.1169(7) 0.6652(2) 0.0763(7)
H1 H -0.1984 0.6404 0.0481
H2 H -0.0387 0.6461 0.0644
C2 C -0.1746(6) 0.7120(2) -0.0689(6)
H3 H -0.1197 0.7152 -0.1426
H4 H -0.2815 0.7080 -0.1662
C3 C -0.0389(4) 0.77879(13) 0.4386(4)
C4 C 0.0443(4) 0.76054(14) 0.6382(5)
H5 H 0.0759 0.7250 0.6616
C5 C 0.0815(4) 0.79368(13) 0.8030(4)
H6 H 0.1375 0.7804 0.9350
C6 C 0.0356(3) 0.84621(12) 0.7717(4)
C7 C -0.0481(4) 0.86523(13) 0.5760(5)
H7 H -0.0806 0.9007 0.5537
C8 C -0.0841(4) 0.83193(13) 0.4120(5)
H8 H -0.1401 0.8455 0.2805
C9 C 0.2197(4) 0.89976(12) 1.0733(4)
C10 C 0.3553(4) 0.88759(14) 1.0811(5)
H9 H 0.3596 0.8634 0.9906
C11 C 0.4826(5) 0.91280(18) 1.2281(6)
H10 H 0.5754 0.9051 1.2385
C12 C 0.4768(6) 0.94933(19) 1.3611(6)
H11 H 0.5657 0.9657 1.4584
C13 C 0.3439(6) 0.96202(15) 1.3531(5)
H12 H 0.3417 0.9870 1.4427
C14 C 0.2113(4) 0.93684(12) 1.2083(4)
C15 C 0.0545(4) 0.94028(11) 1.1546(4)
C16 C -0.0259(4) 0.90554(11) 0.9899(4)
C17 C -0.1816(4) 0.89946(14) 0.8995(5)
H13 H -0.2346 0.8766 0.7892
C18 C -0.2552(5) 0.92894(16) 0.9802(6)
H14 H -0.3595 0.9256 0.9226
C19 C -0.1776(6) 0.96289(17) 1.1432(6)
H15 H -0.2301 0.9822 1.1933
C20 C -0.0246(5) 0.96859(13) 1.2323(5)
H16 H 0.0270 0.9911 1.3441
loop_
_geom_bond_atom_site_label_1
_geom_bond_atom_site_label_2
_geom_bond_site_symmetry_1
_geom_bond_site_symmetry_2
N1 C6 1_555 1_555
O1 B1 1_555 1_555
O2 B1 1_555 1_555
B1 C3 1_555 1_555
C1 O1 1_555 1_555
H1 C1 1_555 1_555
H2 C1 1_555 1_555
C2 O2 1_555 1_555
H3 C2 1_555 1_555
H4 C2 1_555 1_555
C3 C4 1_555 1_555
C4 H5 1_555 1_555
C5 C4 1_555 1_555
H6 C5 1_555 1_555
C6 C5 1_555 1_555
C7 C6 1_555 1_555
H7 C7 1_555 1_555
C8 C3 1_555 1_555
H8 C8 1_555 1_555
C9 N1 1_555 1_555
C10 C9 1_555 1_555
H9 C10 1_555 1_555
C11 C10 1_555 1_555
H10 C11 1_555 1_555
C12 C11 1_555 1_555
H11 C12 1_555 1_555
C13 C12 1_555 1_555
H12 C13 1_555 1_555
C14 C9 1_555 1_555
C15 C14 1_555 1_555
C16 N1 1_555 1_555
C17 C16 1_555 1_555
H13 C17 1_555 1_555
C18 C17 1_555 1_555
H14 C18 1_555 1_555
C19 C18 1_555 1_555
H15 C19 1_555 1_555
C20 C15 1_555 1_555
H16 C20 1_555 1_555
C1 C2 1_555 1_555
C7 C8 1_555 1_555
C13 C14 1_555 1_555
C15 C16 1_555 1_555
C19 C20 1_555 1_555

#END
