
#######################################################################
#
#                 Cambridge Crystallographic Data Centre
#                                CCDC 
#
#######################################################################
#
# If this CIF has been generated from an entry in the Cambridge 
# Structural Database, then it will include bibliographic, chemical, 
# crystal, experimental, refinement or atomic coordinate data resulting 
# from the CCDC's data processing and validation procedures.
#
#######################################################################

data_UFUCIK
_chemical_formula_moiety         'C23 H22 B1 N1 O2'
_chemical_name_systematic        
9-[4-(5,5-dimethyl-1,3,2-dioxaborinan-2-yl)phenyl]-9H-carbazole
_symmetry_cell_setting           monoclinic
_symmetry_space_group_name_H-M   'P 21/c'
_symmetry_Int_Tables_number      14
_space_group_name_Hall           '-P 2ybc'
loop_
_symmetry_equiv_pos_site_id
_symmetry_equiv_pos_as_xyz
1 x,y,z
2 -x,1/2+y,1/2-z
3 -x,-y,-z
4 x,1/2-y,1/2+z
_cell_length_a                   9.833(4)
_cell_length_b                   35.533(2)
_cell_length_c                   5.6192(19)
_cell_angle_alpha                90
_cell_angle_beta                 102.816(6)
_cell_angle_gamma                90
_cell_volume                     1914.41
_exptl_crystal_colour            colorless
_exptl_crystal_description       block
_cell_formula_units_Z            4
loop_
_atom_site_label
_atom_site_type_symbol
_atom_site_fract_x
_atom_site_fract_y
_atom_site_fract_z
B1 B 0.7253(5) 0.01622(12) 0.1881(7)
O1 O 0.8072(4) 0.01489(6) 0.0246(5)
O2 O 0.6523(3) -0.01377(7) 0.2409(5)
C1 C 0.7946(5) 0.17116(10) 0.8739(7)
C2 C 0.9341(6) 0.16446(11) 0.9123(8)
H1 H 0.9691 0.1470 0.8178
C3 C 1.0221(6) 0.18421(12) 1.0950(8)
H2 H 1.1176 0.1798 1.1255
C4 C 0.9698(8) 0.21069(13) 1.2346(10)
H3 H 1.0307 0.2240 1.3558
C5 C 0.8315(8) 0.21717(12) 1.1954(9)
H4 H 0.7980 0.2348 1.2902
C6 C 0.7382(6) 0.19766(10) 1.0139(7)
C7 C 0.5906(7) 0.19656(10) 0.9337(8)
C8 C 0.4846(8) 0.21562(14) 1.0012(10)
H5 H 0.5043 0.2333 1.1258
C9 C 0.3498(8) 0.20862(15) 0.8857(12)
H6 H 0.2778 0.2217 0.9314
C10 C 0.3188(7) 0.18175(15) 0.6979(11)
H7 H 0.2266 0.1770 0.6202
C11 C 0.4256(7) 0.16243(13) 0.6293(9)
H8 H 0.4059 0.1448 0.5037
C12 C 0.5606(6) 0.16929(11) 0.7469(8)
N1 N 0.6858(4) 0.15467(8) 0.7107(6)
C13 C 0.6962(5) 0.12070(9) 0.5766(6)
C14 C 0.6234(5) 0.08922(10) 0.6233(7)
H9 H 0.5683 0.0903 0.7378
C15 C 0.6332(4) 0.05611(10) 0.4984(6)
H10 H 0.5851 0.0349 0.5318
C16 C 0.7133(4) 0.05389(9) 0.3245(6)
C17 C 0.7821(5) 0.08623(10) 0.2793(6)
H11 H 0.8355 0.0855 0.1621
C18 C 0.7738(5) 0.11941(10) 0.4023(7)
H12 H 0.8206 0.1407 0.3673
C19 C 0.8157(5) -0.01919(9) -0.1079(7)
H13 H 0.9060 -0.0205 -0.1503
H14 H 0.7447 -0.0188 -0.2585
C20 C 0.7961(5) -0.05369(10) 0.0377(6)
C21 C 0.6620(5) -0.04919(10) 0.1204(8)
H15 H 0.5846 -0.0512 -0.0201
H16 H 0.6537 -0.0695 0.2313
C22 C 0.9178(5) -0.05817(12) 0.2552(7)
H17 H 0.9236 -0.0364 0.3584
H18 H 1.0027 -0.0607 0.1992
H19 H 0.9039 -0.0802 0.3457
C23 C 0.7838(6) -0.08840(11) -0.1275(8)
H20 H 0.7062 -0.0853 -0.2637
H21 H 0.7696 -0.1104 -0.0365
H22 H 0.8679 -0.0913 -0.1857
loop_
_geom_bond_atom_site_label_1
_geom_bond_atom_site_label_2
_geom_bond_site_symmetry_1
_geom_bond_site_symmetry_2
B1 O1 1_555 1_555
O1 C19 1_555 1_555
O2 B1 1_555 1_555
C1 C2 1_555 1_555
C2 H1 1_555 1_555
C3 C2 1_555 1_555
H2 C3 1_555 1_555
C4 C3 1_555 1_555
H3 C4 1_555 1_555
C5 C4 1_555 1_555
H4 C5 1_555 1_555
C6 C1 1_555 1_555
C7 C6 1_555 1_555
C8 C7 1_555 1_555
H5 C8 1_555 1_555
C9 C8 1_555 1_555
H6 C9 1_555 1_555
C10 C9 1_555 1_555
H7 C10 1_555 1_555
C11 C10 1_555 1_555
H8 C11 1_555 1_555
C12 C7 1_555 1_555
N1 C1 1_555 1_555
C13 N1 1_555 1_555
C14 C13 1_555 1_555
H9 C14 1_555 1_555
C15 C14 1_555 1_555
H10 C15 1_555 1_555
C16 B1 1_555 1_555
C17 C16 1_555 1_555
H11 C17 1_555 1_555
C18 C13 1_555 1_555
H12 C18 1_555 1_555
C19 H13 1_555 1_555
H14 C19 1_555 1_555
C20 C19 1_555 1_555
C21 O2 1_555 1_555
H15 C21 1_555 1_555
H16 C21 1_555 1_555
C22 C20 1_555 1_555
H17 C22 1_555 1_555
H18 C22 1_555 1_555
H19 C22 1_555 1_555
C23 C20 1_555 1_555
H20 C23 1_555 1_555
H21 C23 1_555 1_555
H22 C23 1_555 1_555
C5 C6 1_555 1_555
C11 C12 1_555 1_555
C12 N1 1_555 1_555
C15 C16 1_555 1_555
C17 C18 1_555 1_555
C20 C21 1_555 1_555

#END
