
#######################################################################
#
#                 Cambridge Crystallographic Data Centre
#                                CCDC 
#
#######################################################################
#
# If this CIF has been generated from an entry in the Cambridge 
# Structural Database, then it will include bibliographic, chemical, 
# crystal, experimental, refinement or atomic coordinate data resulting 
# from the CCDC's data processing and validation procedures.
#
#######################################################################

data_UFUCAB
_chemical_formula_moiety         'C41 H71 Cl1 O5 Si1'
_chemical_name_systematic        
3-O-(t-Butyl(dimethyl)silyl)-6-O-chloroacetyl-12-O-allylprotopanaxatriol
_symmetry_cell_setting           orthorhombic
_symmetry_space_group_name_H-M   'P 21 21 21'
_symmetry_Int_Tables_number      19
_space_group_name_Hall           'P 2ac 2ab'
loop_
_symmetry_equiv_pos_site_id
_symmetry_equiv_pos_as_xyz
1 x,y,z
2 1/2-x,-y,1/2+z
3 -x,1/2+y,1/2-z
4 1/2+x,1/2-y,-z
_cell_length_a                   9.3808(7)
_cell_length_b                   13.5353(11)
_cell_length_c                   32.994(3)
_cell_angle_alpha                90
_cell_angle_beta                 90
_cell_angle_gamma                90
_cell_volume                     4189.31
_exptl_crystal_colour            colorless
_exptl_crystal_description       prismatic
_cell_formula_units_Z            4
loop_
_atom_site_label
_atom_site_type_symbol
_atom_site_fract_x
_atom_site_fract_y
_atom_site_fract_z
Cl1 Cl 0.70612(6) 0.79751(4) 0.171043(17)
O1 O 0.22359(16) 0.43240(11) 0.00899(4)
O2 O 0.39316(12) 0.62668(9) 0.13996(3)
O3 O 0.58681(15) 0.59323(11) 0.17796(4)
O4 O -0.24263(12) 0.33019(9) 0.23965(3)
O5 O -0.30500(15) 0.37035(11) 0.31772(4)
H1 H -0.2858 0.3476 0.2947
C1 C 0.0322(2) 0.37155(16) 0.10569(5)
H2 H -0.0124 0.3092 0.1149
H3 H -0.0439 0.4220 0.1036
C2 C 0.0972(3) 0.35521(17) 0.06382(6)
H4 H 0.1689 0.3017 0.0652
H5 H 0.0217 0.3347 0.0446
C3 C 0.1668(2) 0.44884(16) 0.04883(5)
H6 H 0.0919 0.5012 0.0469
C4 C 0.2880(2) 0.48778(13) 0.07692(5)
C5 C 0.22096(19) 0.49893(13) 0.12035(5)
H7 H 0.1455 0.5506 0.1174
C6 C 0.31997(19) 0.53718(13) 0.15383(5)
H8 H 0.3907 0.4853 0.1617
C7 C 0.23492(18) 0.57132(13) 0.19099(5)
H9 H 0.1713 0.6262 0.1829
H10 H 0.3021 0.5972 0.2115
C8 C 0.14432(18) 0.48898(12) 0.21038(5)
C9 C 0.05507(18) 0.44041(12) 0.17584(5)
H11 H -0.0071 0.4949 0.1655
C10 C 0.1416(2) 0.40535(13) 0.13765(5)
C11 C -0.0496(2) 0.36322(13) 0.19262(5)
H12 H 0.0049 0.3082 0.2049
H13 H -0.1068 0.3359 0.1700
C12 C -0.15033(19) 0.40728(13) 0.22462(5)
H14 H -0.2093 0.4606 0.2120
C13 C -0.06272(18) 0.45061(13) 0.25913(5)
H15 H -0.0001 0.3967 0.2697
C14 C 0.03652(19) 0.53350(12) 0.24230(5)
C15 C 0.1012(2) 0.57234(14) 0.28210(5)
H16 H 0.1741 0.5263 0.2927
H17 H 0.1450 0.6382 0.2782
C16 C -0.0275(2) 0.57842(13) 0.31079(5)
H18 H -0.0704 0.6452 0.3098
H19 H 0.0023 0.5647 0.3390
C17 C -0.1379(2) 0.49902(13) 0.29618(5)
H20 H -0.2231 0.5353 0.2857
C18 C 0.24713(19) 0.41642(14) 0.23130(5)
H21 H 0.3199 0.3949 0.2119
H22 H 0.1937 0.3589 0.2410
H23 H 0.2932 0.4493 0.2543
C19 C 0.2404(2) 0.31558(13) 0.14671(6)
H24 H 0.2020 0.2781 0.1697
H25 H 0.3363 0.3393 0.1534
H26 H 0.2452 0.2728 0.1228
C20 C -0.18940(19) 0.43161(13) 0.33135(5)
C21 C -0.2561(2) 0.49622(16) 0.36451(6)
H27 H -0.3195 0.5451 0.3521
H28 H -0.1805 0.5303 0.3795
H29 H -0.3109 0.4545 0.3831
C22 C -0.0704(2) 0.36609(13) 0.34787(5)
H30 H 0.0115 0.4087 0.3551
H31 H -0.0387 0.3212 0.3260
C23 C -0.1095(2) 0.30333(15) 0.38500(6)
H32 H -0.1276 0.3474 0.4084
H33 H -0.1984 0.2664 0.3793
C24 C 0.0063(2) 0.23175(15) 0.39574(6)
H34 H 0.0463 0.1963 0.3736
C25 C 0.0605(3) 0.21108(18) 0.43187(7)
C26 C 0.1795(3) 0.1366(2) 0.43653(9)
H35 H 0.1984 0.1052 0.4103
H36 H 0.1513 0.0862 0.4563
H37 H 0.2658 0.1702 0.4460
C27 C 0.0106(4) 0.2576(3) 0.47044(7)
H38 H -0.0362 0.3207 0.4644
H39 H 0.0924 0.2692 0.4883
H40 H -0.0572 0.2134 0.4839
C28 C 0.4195(2) 0.42105(16) 0.07512(6)
H41 H 0.3917 0.3528 0.0812
H42 H 0.4897 0.4434 0.0951
H43 H 0.4614 0.4242 0.0479
C29 C 0.3300(2) 0.58872(15) 0.05898(5)
H44 H 0.3400 0.5828 0.0295
H45 H 0.4209 0.6101 0.0707
H46 H 0.2560 0.6374 0.0653
C30 C -0.0516(2) 0.61988(13) 0.22414(5)
H47 H -0.1344 0.6329 0.2414
H48 H -0.0839 0.6020 0.1969
H49 H 0.0080 0.6793 0.2227
C31 C 0.51961(19) 0.64714(14) 0.15649(5)
C32 C 0.5609(2) 0.74974(14) 0.14284(6)
H50 H 0.4780 0.7943 0.1459
H51 H 0.5869 0.7479 0.1138
C33 C -0.3607(2) 0.30880(16) 0.21355(6)
H52 H -0.3268 0.2751 0.1887
H53 H -0.4087 0.3709 0.2055
C34 C -0.4624(2) 0.24397(16) 0.23576(6)
H54 H -0.5021 0.2682 0.2603
C35 C -0.5005(2) 0.15609(19) 0.22373(7)
H55 H -0.4627 0.1296 0.1993
H56 H -0.5659 0.1185 0.2394
C36 C -0.0484(3) 0.4131(2) -0.03319(7)
H57 H -0.0574 0.3539 -0.0163
H58 H -0.0837 0.3988 -0.0605
H59 H -0.1046 0.4669 -0.0213
Si1 Si 0.13730(10) 0.44973(8) -0.03587(2)
C37 C 0.1426(7) 0.5802(3) -0.05307(15)
H60 H 0.0951 0.6222 -0.0330
H61 H 0.0934 0.5860 -0.0792
H62 H 0.2420 0.6012 -0.0561
C38 C 0.2432(3) 0.3687(2) -0.07060(8)
C39 C 0.2273(5) 0.2614(3) -0.05675(16)
H63 H 0.1270 0.2418 -0.0586
H64 H 0.2598 0.2553 -0.0286
H65 H 0.2849 0.2185 -0.0742
C40 C 0.1907(14) 0.3747(6) -0.1143(3)
H66 H 0.2451 0.3285 -0.1311
H67 H 0.2040 0.4421 -0.1245
H68 H 0.0893 0.3575 -0.1153
C41 C 0.4026(6) 0.3976(4) -0.06853(18)
H69 H 0.4368 0.3906 -0.0406
H70 H 0.4140 0.4664 -0.0773
H71 H 0.4579 0.3543 -0.0864
H72? H -0.0679 0.4743 -0.0195
H73? H -0.0772 0.4182 -0.0610
H74? H -0.1004 0.3607 -0.0203
Si2? Si 0.15530(19) 0.38408(15) -0.03044(5)
C42? C 0.1808(10) 0.2499(5) -0.0358(3)
H75? H 0.2828 0.2345 -0.0348
H76? H 0.1415 0.2280 -0.0618
H77? H 0.1317 0.2157 -0.0137
C43? C 0.2476(7) 0.4546(5) -0.07190(17)
C44? C 0.2074(10) 0.5679(7) -0.0688(3)
H78? H 0.2344 0.5931 -0.0420
H79? H 0.1044 0.5759 -0.0727
H80? H 0.2584 0.6050 -0.0898
C45? C 0.1975(19) 0.4161(9) -0.1145(5)
H81? H 0.2380 0.4580 -0.1358
H82? H 0.0932 0.4183 -0.1160
H83? H 0.2300 0.3479 -0.1183
C46? C 0.4109(12) 0.4465(9) -0.0665(3)
H84? H 0.4401 0.3774 -0.0696
H85? H 0.4374 0.4700 -0.0395
H86? H 0.4586 0.4869 -0.0871
loop_
_geom_bond_atom_site_label_1
_geom_bond_atom_site_label_2
_geom_bond_site_symmetry_1
_geom_bond_site_symmetry_2
Cl1 C32 1_555 1_555
O1 C3 1_555 1_555
O2 C6 1_555 1_555
O3 C31 1_555 1_555
O4 C12 1_555 1_555
O5 H1 1_555 1_555
C1 H2 1_555 1_555
H3 C1 1_555 1_555
C2 C1 1_555 1_555
H4 C2 1_555 1_555
H5 C2 1_555 1_555
C3 C2 1_555 1_555
H6 C3 1_555 1_555
C4 C3 1_555 1_555
C5 C4 1_555 1_555
H7 C5 1_555 1_555
C6 C5 1_555 1_555
H8 C6 1_555 1_555
C7 C6 1_555 1_555
H9 C7 1_555 1_555
H10 C7 1_555 1_555
C8 C7 1_555 1_555
C9 C8 1_555 1_555
H11 C9 1_555 1_555
C10 C1 1_555 1_555
C11 C9 1_555 1_555
H12 C11 1_555 1_555
H13 C11 1_555 1_555
C12 C11 1_555 1_555
H14 C12 1_555 1_555
C13 C12 1_555 1_555
H15 C13 1_555 1_555
C14 C8 1_555 1_555
C15 C14 1_555 1_555
H16 C15 1_555 1_555
H17 C15 1_555 1_555
C16 C15 1_555 1_555
H18 C16 1_555 1_555
H19 C16 1_555 1_555
C17 C13 1_555 1_555
H20 C17 1_555 1_555
C18 C8 1_555 1_555
H21 C18 1_555 1_555
H22 C18 1_555 1_555
H23 C18 1_555 1_555
C19 C10 1_555 1_555
H24 C19 1_555 1_555
H25 C19 1_555 1_555
H26 C19 1_555 1_555
C20 O5 1_555 1_555
C21 C20 1_555 1_555
H27 C21 1_555 1_555
H28 C21 1_555 1_555
H29 C21 1_555 1_555
C22 C20 1_555 1_555
H30 C22 1_555 1_555
H31 C22 1_555 1_555
C23 C22 1_555 1_555
H32 C23 1_555 1_555
H33 C23 1_555 1_555
C24 C23 1_555 1_555
H34 C24 1_555 1_555
C25 C24 1_555 1_555
C26 C25 1_555 1_555
H35 C26 1_555 1_555
H36 C26 1_555 1_555
H37 C26 1_555 1_555
C27 C25 1_555 1_555
H38 C27 1_555 1_555
H39 C27 1_555 1_555
H40 C27 1_555 1_555
C28 C4 1_555 1_555
H41 C28 1_555 1_555
H42 C28 1_555 1_555
H43 C28 1_555 1_555
C29 C4 1_555 1_555
H44 C29 1_555 1_555
H45 C29 1_555 1_555
H46 C29 1_555 1_555
C30 C14 1_555 1_555
H47 C30 1_555 1_555
H48 C30 1_555 1_555
H49 C30 1_555 1_555
C31 O2 1_555 1_555
C32 C31 1_555 1_555
H50 C32 1_555 1_555
H51 C32 1_555 1_555
C33 O4 1_555 1_555
H52 C33 1_555 1_555
H53 C33 1_555 1_555
C34 C33 1_555 1_555
H54 C34 1_555 1_555
C35 C34 1_555 1_555
H55 C35 1_555 1_555
H56 C35 1_555 1_555
C36 H57 1_555 1_555
H58 C36 1_555 1_555
H59 C36 1_555 1_555
Si1 O1 1_555 1_555
C37 Si1 1_555 1_555
H60 C37 1_555 1_555
H61 C37 1_555 1_555
H62 C37 1_555 1_555
C38 Si1 1_555 1_555
C39 C38 1_555 1_555
H63 C39 1_555 1_555
H64 C39 1_555 1_555
H65 C39 1_555 1_555
C40 C38 1_555 1_555
H66 C40 1_555 1_555
H67 C40 1_555 1_555
H68 C40 1_555 1_555
C41 C38 1_555 1_555
H69 C41 1_555 1_555
H70 C41 1_555 1_555
H71 C41 1_555 1_555
C5 C10 1_555 1_555
C9 C10 1_555 1_555
C13 C14 1_555 1_555
C16 C17 1_555 1_555
C17 C20 1_555 1_555
C36 Si1 1_555 1_555

#END
