
#######################################################################
#
#                 Cambridge Crystallographic Data Centre
#                                CCDC 
#
#######################################################################
#
# If this CIF has been generated from an entry in the Cambridge 
# Structural Database, then it will include bibliographic, chemical, 
# crystal, experimental, refinement or atomic coordinate data resulting 
# from the CCDC's data processing and validation procedures.
#
#######################################################################

data_UFUCEG
_chemical_formula_moiety         'C21 H18 B1 N1 O2'
_chemical_name_systematic        
9-[4-(1,3,2-dioxaborinan-2-yl)phenyl]-9H-carbazole
_symmetry_cell_setting           monoclinic
_symmetry_space_group_name_H-M   'P 21/n'
_symmetry_Int_Tables_number      14
_space_group_name_Hall           '-P 2yn'
loop_
_symmetry_equiv_pos_site_id
_symmetry_equiv_pos_as_xyz
1 x,y,z
2 1/2-x,1/2+y,1/2-z
3 -x,-y,-z
4 1/2+x,1/2-y,1/2+z
_cell_length_a                   8.113(3)
_cell_length_b                   16.548(6)
_cell_length_c                   25.312(10)
_cell_angle_alpha                90
_cell_angle_beta                 91.568(9)
_cell_angle_gamma                90
_cell_volume                     3396.96
_exptl_crystal_colour            colorless
_exptl_crystal_description       block
_cell_formula_units_Z            8
loop_
_atom_site_label
_atom_site_type_symbol
_atom_site_fract_x
_atom_site_fract_y
_atom_site_fract_z
O1 O 1.0310(2) 0.91687(10) 1.12544(7)
O2 O 1.2418(2) 0.88129(11) 1.06761(7)
N1 N 0.5811(2) 0.77335(11) 0.93192(7)
C1 C 0.4448(3) 0.81617(14) 0.91287(9)
C2 C 0.3961(4) 0.89392(15) 0.92300(11)
H1 H 0.4565 0.9266 0.9463
C3 C 0.2569(4) 0.92188(18) 0.89801(13)
H2 H 0.2230 0.9746 0.9043
C4 C 0.1648(4) 0.8744(2) 0.86365(13)
H3 H 0.0695 0.8951 0.8475
C5 C 0.2126(4) 0.7975(2) 0.85320(10)
H4 H 0.1510 0.7656 0.8297
C6 C 0.3544(3) 0.76702(15) 0.87787(9)
C7 C 0.4390(3) 0.69154(15) 0.87603(8)
C8 C 0.5780(3) 0.69728(14) 0.90966(8)
C9 C 0.6834(3) 0.63364(15) 0.91799(10)
H5 H 0.7741 0.6377 0.9411
C10 C 0.6495(4) 0.56320(16) 0.89066(11)
H6 H 0.7187 0.5187 0.8951
C11 C 0.5129(5) 0.55816(18) 0.85656(11)
H7 H 0.4940 0.5103 0.8381
C12 C 0.4063(4) 0.62031(18) 0.84925(11)
H8 H 0.3140 0.6152 0.8269
C13 C 0.7057(3) 0.80277(13) 0.96742(9)
C14 C 0.8669(3) 0.80210(15) 0.95396(10)
H9 H 0.8964 0.7832 0.9209
C15 C 0.9867(3) 0.82961(15) 0.98943(10)
H10 H 1.0966 0.8284 0.9800
C16 C 0.9472(3) 0.85885(13) 1.03856(9)
C17 C 0.7835(3) 0.85890(14) 1.05066(10)
H11 H 0.7532 0.8782 1.0835
C18 C 0.6615(3) 0.83127(14) 1.01591(9)
H12 H 0.5515 0.8320 1.0253
C19 C 1.1500(4) 0.94105(18) 1.16538(10)
H13 H 1.1741 0.8958 1.1887
H14 H 1.1047 0.9843 1.1864
C20 C 1.3022(4) 0.96852(18) 1.14158(12)
H15 H 1.2813 1.0184 1.1224
H16 H 1.3845 0.9794 1.1692
C21 C 1.3651(4) 0.90769(19) 1.10552(12)
H17 H 1.4578 0.9300 1.0870
H18 H 1.4045 0.8615 1.1258
B1 B 1.0826(4) 0.88756(16) 1.07914(12)
O3 O 0.7352(2) 0.85362(11) 0.56597(7)
O4 O 0.5091(2) 0.88864(10) 0.50988(7)
N2 N 0.1162(3) 0.73623(11) 0.70615(7)
C22 C -0.0176(3) 0.77413(14) 0.72803(9)
C23 C -0.0697(3) 0.85353(15) 0.72270(10)
H19 H -0.0149 0.8900 0.7014
C24 C -0.2050(4) 0.87586(16) 0.75010(11)
H20 H -0.2422 0.9289 0.7470
C25 C -0.2890(4) 0.82366(18) 0.78200(11)
H21 H -0.3813 0.8412 0.7997
C26 C -0.2353(3) 0.74545(17) 0.78745(10)
H22 H -0.2903 0.7097 0.8092
C27 C -0.0991(3) 0.72020(15) 0.76050(9)
C28 C -0.0090(3) 0.64556(14) 0.75847(9)
C29 C 0.1205(3) 0.65646(13) 0.72465(9)
C30 C 0.2265(3) 0.59465(14) 0.71219(9)
H23 H 0.3105 0.6022 0.6884
C31 C 0.2032(4) 0.52165(15) 0.73632(10)
H24 H 0.2728 0.4788 0.7287
C32 C 0.0793(4) 0.51032(15) 0.77153(11)
H25 H 0.0693 0.4605 0.7881
C33 C -0.0297(3) 0.57057(15) 0.78279(9)
H26 H -0.1149 0.5619 0.8059
C34 C 0.2296(3) 0.77089(13) 0.67102(9)
C35 C 0.3961(3) 0.76666(14) 0.68154(9)
H27 H 0.4354 0.7431 0.7128
C36 C 0.5049(3) 0.79722(13) 0.64601(9)
H28 H 0.6175 0.7928 0.6534
C37 C 0.4519(3) 0.83450(13) 0.59937(9)
C38 C 0.2824(3) 0.84032(15) 0.59126(10)
H29 H 0.2421 0.8664 0.5610
C39 C 0.1720(3) 0.80949(14) 0.62574(9)
H30 H 0.0593 0.8144 0.6188
C40 C 0.8485(4) 0.8730(2) 0.52574(12)
H31 H 0.8775 0.8241 0.5071
H32 H 0.9486 0.8949 0.5420
C41 C 0.7792(4) 0.93253(18) 0.48740(11)
H33 H 0.7704 0.9848 0.5044
H34 H 0.8528 0.9381 0.4581
C42 C 0.6168(4) 0.90715(18) 0.46759(11)
H35 H 0.5685 0.9499 0.4460
H36 H 0.6284 0.8598 0.4454
B2 B 0.5727(4) 0.86031(16) 0.55661(12)
loop_
_geom_bond_atom_site_label_1
_geom_bond_atom_site_label_2
_geom_bond_site_symmetry_1
_geom_bond_site_symmetry_2
O1 C19 1_555 1_555
O2 C21 1_555 1_555
N1 C1 1_555 1_555
C1 C2 1_555 1_555
C2 H1 1_555 1_555
C3 C2 1_555 1_555
H2 C3 1_555 1_555
C4 C3 1_555 1_555
H3 C4 1_555 1_555
C5 C4 1_555 1_555
H4 C5 1_555 1_555
C6 C1 1_555 1_555
C7 C6 1_555 1_555
C8 N1 1_555 1_555
C9 C8 1_555 1_555
H5 C9 1_555 1_555
C10 C9 1_555 1_555
H6 C10 1_555 1_555
C11 C10 1_555 1_555
H7 C11 1_555 1_555
C12 C7 1_555 1_555
H8 C12 1_555 1_555
C13 N1 1_555 1_555
C14 C13 1_555 1_555
H9 C14 1_555 1_555
C15 C14 1_555 1_555
H10 C15 1_555 1_555
C16 C15 1_555 1_555
C17 C16 1_555 1_555
H11 C17 1_555 1_555
C18 C13 1_555 1_555
H12 C18 1_555 1_555
C19 H13 1_555 1_555
H14 C19 1_555 1_555
C20 C19 1_555 1_555
H15 C20 1_555 1_555
H16 C20 1_555 1_555
C21 C20 1_555 1_555
H17 C21 1_555 1_555
H18 C21 1_555 1_555
B1 O1 1_555 1_555
O3 C40 1_555 1_555
O4 C42 1_555 1_555
N2 C22 1_555 1_555
C22 C23 1_555 1_555
C23 H19 1_555 1_555
C24 C23 1_555 1_555
H20 C24 1_555 1_555
C25 C24 1_555 1_555
H21 C25 1_555 1_555
C26 C25 1_555 1_555
H22 C26 1_555 1_555
C27 C22 1_555 1_555
C28 C27 1_555 1_555
C29 N2 1_555 1_555
C30 C29 1_555 1_555
H23 C30 1_555 1_555
C31 C30 1_555 1_555
H24 C31 1_555 1_555
C32 C31 1_555 1_555
H25 C32 1_555 1_555
C33 C28 1_555 1_555
H26 C33 1_555 1_555
C34 N2 1_555 1_555
C35 C34 1_555 1_555
H27 C35 1_555 1_555
C36 C35 1_555 1_555
H28 C36 1_555 1_555
C37 C36 1_555 1_555
C38 C37 1_555 1_555
H29 C38 1_555 1_555
C39 C34 1_555 1_555
H30 C39 1_555 1_555
C40 H31 1_555 1_555
H32 C40 1_555 1_555
C41 C40 1_555 1_555
H33 C41 1_555 1_555
H34 C41 1_555 1_555
C42 C41 1_555 1_555
H35 C42 1_555 1_555
H36 C42 1_555 1_555
B2 O3 1_555 1_555
O2 B1 1_555 1_555
C5 C6 1_555 1_555
C7 C8 1_555 1_555
C11 C12 1_555 1_555
C16 B1 1_555 1_555
C17 C18 1_555 1_555
O4 B2 1_555 1_555
C26 C27 1_555 1_555
C28 C29 1_555 1_555
C32 C33 1_555 1_555
C37 B2 1_555 1_555
C38 C39 1_555 1_555

#END
