
#######################################################################
#
#                 Cambridge Crystallographic Data Centre
#                                CCDC 
#
#######################################################################
#
# If this CIF has been generated from an entry in the Cambridge 
# Structural Database, then it will include bibliographic, chemical, 
# crystal, experimental, refinement or atomic coordinate data resulting 
# from the CCDC's data processing and validation procedures.
#
#######################################################################

data_UFUCOP
_chemical_formula_moiety         'C37 H60 O6'
_chemical_name_systematic        3,6-Di-O-acetyl-12-O-allylprotopanaxatriol
_symmetry_cell_setting           orthorhombic
_symmetry_space_group_name_H-M   'P 21 21 21'
_symmetry_Int_Tables_number      19
_space_group_name_Hall           'P 2ac 2ab'
loop_
_symmetry_equiv_pos_site_id
_symmetry_equiv_pos_as_xyz
1 x,y,z
2 1/2-x,-y,1/2+z
3 -x,1/2+y,1/2-z
4 1/2+x,1/2-y,-z
_cell_length_a                   10.4149(8)
_cell_length_b                   13.7246(11)
_cell_length_c                   24.6030(19)
_cell_angle_alpha                90
_cell_angle_beta                 90
_cell_angle_gamma                90
_cell_volume                     3516.76
_exptl_crystal_colour            colorless
_exptl_crystal_description       prismatic
_cell_formula_units_Z            4
loop_
_atom_site_label
_atom_site_type_symbol
_atom_site_fract_x
_atom_site_fract_y
_atom_site_fract_z
O1 O 0.35779(19) -0.08810(12) 0.83069(7)
O2 O 0.71015(15) 0.18701(13) 0.84632(7)
O3 O 0.2524(11) -0.0829(8) 0.7511(4)
O4 O 0.8595(8) 0.2094(5) 0.9100(4)
O5 O 0.12164(15) 0.49265(11) 0.95593(7)
O6 O 0.17161(17) 0.67557(13) 0.99171(8)
H1 H 0.1508 0.6194 0.9844
C1 C 0.2459(2) 0.15242(17) 0.88607(11)
H2 H 0.1783 0.1670 0.9120
H3 H 0.2247 0.1848 0.8522
C2 C 0.2497(3) 0.04225(19) 0.87637(12)
H4 H 0.2644 0.0088 0.9105
H5 H 0.1680 0.0206 0.8619
C3 C 0.3551(3) 0.01792(17) 0.83711(11)
H6 H 0.3336 0.0469 0.8019
C4 C 0.4911(2) 0.05061(18) 0.85271(10)
C5 C 0.4824(2) 0.16274(17) 0.86641(9)
H7 H 0.4592 0.1942 0.8320
C6 C 0.6079(2) 0.21220(17) 0.88405(10)
H8 H 0.6310 0.1910 0.9208
C7 C 0.5967(2) 0.32296(18) 0.88241(10)
H9 H 0.5800 0.3431 0.8453
H10 H 0.6782 0.3510 0.8933
C8 C 0.4912(2) 0.36369(16) 0.91905(9)
C9 C 0.3646(2) 0.30749(16) 0.90565(9)
H11 H 0.3475 0.3226 0.8674
C10 C 0.3733(2) 0.19354(16) 0.90762(10)
C11 C 0.2492(2) 0.35055(16) 0.93662(10)
H12 H 0.1719 0.3160 0.9260
H13 H 0.2616 0.3407 0.9753
C12 C 0.2311(2) 0.45854(16) 0.92568(10)
H14 H 0.2154 0.4683 0.8868
C13 C 0.3520(2) 0.51305(16) 0.94189(9)
H15 H 0.3704 0.4951 0.9796
C14 C 0.4664(2) 0.47483(16) 0.90698(10)
C15 C 0.5712(2) 0.54756(18) 0.92504(12)
H16 H 0.6042 0.5306 0.9607
H17 H 0.6418 0.5483 0.8993
C16 C 0.5033(3) 0.64638(18) 0.92644(12)
H18 H 0.5120 0.6792 0.8917
H19 H 0.5401 0.6875 0.9545
C17 C 0.3594(2) 0.62544(16) 0.93884(10)
H20 H 0.3101 0.6457 0.9069
C18 C 0.5356(2) 0.35080(18) 0.97881(10)
H21 H 0.6076 0.3927 0.9857
H22 H 0.5603 0.2843 0.9848
H23 H 0.4665 0.3675 1.0029
C19 C 0.3911(3) 0.15393(18) 0.96574(10)
H24 H 0.3554 0.0896 0.9681
H25 H 0.3481 0.1960 0.9910
H26 H 0.4810 0.1516 0.9743
C20 C 0.3084(3) 0.68508(17) 0.98786(11)
C21 C 0.3293(3) 0.79406(18) 0.97646(13)
H27 H 0.2833 0.8320 1.0029
H28 H 0.2983 0.8094 0.9407
H29 H 0.4192 0.8089 0.9787
C22 C 0.3684(3) 0.6541(2) 1.04163(11)
H30 H 0.3485 0.5859 1.0477
H31 H 0.4609 0.6597 1.0385
C23 C 0.3254(4) 0.7117(2) 1.09103(12)
H32 H 0.3564 0.7781 1.0877
H33 H 0.2323 0.7139 1.0916
C24 C 0.3721(3) 0.6701(2) 1.14394(13)
H34 H 0.4433 0.6293 1.1420
C25 C 0.3242(3) 0.6846(3) 1.19255(13)
C26 C 0.3781(5) 0.6365(3) 1.24290(16)
H35 H 0.4503 0.5967 1.2331
H36 H 0.3132 0.5965 1.2593
H37 H 0.4050 0.6856 1.2682
C27 C 0.2096(4) 0.7463(3) 1.20297(16)
H38 H 0.1704 0.7637 1.1690
H39 H 0.2353 0.8043 1.2219
H40 H 0.1492 0.7108 1.2248
C28 C 0.5469(3) -0.01130(19) 0.89897(12)
H41 H 0.5674 -0.0751 0.8855
H42 H 0.4848 -0.0167 0.9277
H43 H 0.6233 0.0191 0.9127
C29 C 0.5729(3) 0.0325(2) 0.80180(12)
H44 H 0.5556 0.0823 0.7754
H45 H 0.5521 -0.0301 0.7868
H46 H 0.6622 0.0341 0.8114
C30 C 0.4438(3) 0.49460(18) 0.84597(10)
H47 H 0.5247 0.4949 0.8273
H48 H 0.4027 0.5567 0.8416
H49 H 0.3900 0.4444 0.8311
C31 C 0.2923(4) -0.1280(2) 0.79019(14)
C32 C 0.2997(4) -0.2361(2) 0.79228(16)
H50 H 0.2915 -0.2620 0.7562
H51 H 0.2314 -0.2607 0.8146
H52 H 0.3808 -0.2553 0.8074
C33 C 0.8280(3) 0.1765(3) 0.86551(14)
C34 C 0.9194(3) 0.1477(3) 0.82159(17)
H53 H 1.0059 0.1545 0.8345
H54 H 0.9069 0.1890 0.7905
H55 H 0.9041 0.0811 0.8115
C35 C 0.0034(3) 0.4922(3) 0.92635(13)
H56 H -0.0649 0.5112 0.9510
H57 H -0.0139 0.4258 0.9149
C36 C -0.0027(4) 0.5542(4) 0.87918(16)
H58 H 0.0324 0.6157 0.8848
C37 C -0.0465(8) 0.5416(6) 0.8313(3)
H59 H -0.0835 0.4824 0.8217
H60 H -0.0414 0.5917 0.8059
O7? O 0.2029(14) -0.0800(13) 0.7705(5)
O8? O 0.8481(13) 0.1504(9) 0.9126(6)
H61? H 0.0243 0.6203 0.8737
C38? C -0.0635(16) 0.4785(12) 0.8423(5)
H62? H -0.0855 0.4948 0.8068
loop_
_geom_bond_atom_site_label_1
_geom_bond_atom_site_label_2
_geom_bond_site_symmetry_1
_geom_bond_site_symmetry_2
O1 C3 1_555 1_555
O2 C6 1_555 1_555
O3 C31 1_555 1_555
O4 C33 1_555 1_555
O5 C12 1_555 1_555
O6 H1 1_555 1_555
C1 H2 1_555 1_555
H3 C1 1_555 1_555
C2 C1 1_555 1_555
H4 C2 1_555 1_555
H5 C2 1_555 1_555
C3 C2 1_555 1_555
H6 C3 1_555 1_555
C4 C3 1_555 1_555
C5 C4 1_555 1_555
H7 C5 1_555 1_555
C6 C5 1_555 1_555
H8 C6 1_555 1_555
C7 C6 1_555 1_555
H9 C7 1_555 1_555
H10 C7 1_555 1_555
C8 C7 1_555 1_555
C9 C8 1_555 1_555
H11 C9 1_555 1_555
C10 C1 1_555 1_555
C11 C9 1_555 1_555
H12 C11 1_555 1_555
H13 C11 1_555 1_555
C12 C11 1_555 1_555
H14 C12 1_555 1_555
C13 C12 1_555 1_555
H15 C13 1_555 1_555
C14 C8 1_555 1_555
C15 C14 1_555 1_555
H16 C15 1_555 1_555
H17 C15 1_555 1_555
C16 C15 1_555 1_555
H18 C16 1_555 1_555
H19 C16 1_555 1_555
C17 C13 1_555 1_555
H20 C17 1_555 1_555
C18 C8 1_555 1_555
H21 C18 1_555 1_555
H22 C18 1_555 1_555
H23 C18 1_555 1_555
C19 C10 1_555 1_555
H24 C19 1_555 1_555
H25 C19 1_555 1_555
H26 C19 1_555 1_555
C20 O6 1_555 1_555
C21 C20 1_555 1_555
H27 C21 1_555 1_555
H28 C21 1_555 1_555
H29 C21 1_555 1_555
C22 C20 1_555 1_555
H30 C22 1_555 1_555
H31 C22 1_555 1_555
C23 C22 1_555 1_555
H32 C23 1_555 1_555
H33 C23 1_555 1_555
C24 C23 1_555 1_555
H34 C24 1_555 1_555
C25 C24 1_555 1_555
C26 C25 1_555 1_555
H35 C26 1_555 1_555
H36 C26 1_555 1_555
H37 C26 1_555 1_555
C27 C25 1_555 1_555
H38 C27 1_555 1_555
H39 C27 1_555 1_555
H40 C27 1_555 1_555
C28 C4 1_555 1_555
H41 C28 1_555 1_555
H42 C28 1_555 1_555
H43 C28 1_555 1_555
C29 C4 1_555 1_555
H44 C29 1_555 1_555
H45 C29 1_555 1_555
H46 C29 1_555 1_555
C30 C14 1_555 1_555
H47 C30 1_555 1_555
H48 C30 1_555 1_555
H49 C30 1_555 1_555
C31 O1 1_555 1_555
C32 C31 1_555 1_555
H50 C32 1_555 1_555
H51 C32 1_555 1_555
H52 C32 1_555 1_555
C33 O2 1_555 1_555
C34 C33 1_555 1_555
H53 C34 1_555 1_555
H54 C34 1_555 1_555
H55 C34 1_555 1_555
C35 O5 1_555 1_555
H56 C35 1_555 1_555
H57 C35 1_555 1_555
C36 C35 1_555 1_555
H58 C36 1_555 1_555
C37 C36 1_555 1_555
H59 C37 1_555 1_555
H60 C37 1_555 1_555
C5 C10 1_555 1_555
C9 C10 1_555 1_555
C13 C14 1_555 1_555
C16 C17 1_555 1_555
C17 C20 1_555 1_555

#END
