
#######################################################################
#
#                 Cambridge Crystallographic Data Centre
#                                CCDC 
#
#######################################################################
#
# If this CIF has been generated from an entry in the Cambridge 
# Structural Database, then it will include bibliographic, chemical, 
# crystal, experimental, refinement or atomic coordinate data resulting 
# from the CCDC's data processing and validation procedures.
#
#######################################################################

data_UFUCAA
_chemical_formula_moiety         'C10 H20 B9 3-,3(Na1 1+),7(C4 H8 O1)'
_chemical_name_systematic        
'trisodium 7-(2-(cyclopentadienyl)propyl)-7,8-dicarba-nido-undecaborate tetrahydrofuran solvate'
_symmetry_cell_setting           triclinic
_symmetry_space_group_name_H-M   'P -1'
_symmetry_Int_Tables_number      2
_space_group_name_Hall           '-P 1'
loop_
_symmetry_equiv_pos_site_id
_symmetry_equiv_pos_as_xyz
1 x,y,z
2 -x,-y,-z
_cell_length_a                   11.221(2)
_cell_length_b                   14.459(3)
_cell_length_c                   33.118(7)
_cell_angle_alpha                87.401(6)
_cell_angle_beta                 87.563(5)
_cell_angle_gamma                67.180(4)
_cell_volume                     4945.73
_exptl_crystal_colour            yellow
_exptl_crystal_description       Prism
_cell_formula_units_Z            4
loop_
_atom_site_label
_atom_site_type_symbol
_atom_site_fract_x
_atom_site_fract_y
_atom_site_fract_z
Na1 Na 0.62837(4) 0.21914(3) 0.942597(9)
Na2 Na 0.60339(4) 0.43776(3) 0.820929(9)
Na3 Na 0.37392(3) 0.11199(3) 0.981571(9)
Na4 Na 0.64218(4) 1.20399(3) 0.451101(9)
Na5 Na 0.84457(4) 1.01719(3) 0.326801(10)
Na6 Na 0.65416(3) 1.46590(3) 0.475094(8)
C1 C 0.49124(7) 1.33726(6) 0.382293(18)
C2 C 0.58747(8) 1.26876(6) 0.34993(2)
C3 C 0.53746(9) 1.39085(8) 0.41513(2)
C4 C 0.66302(9) 1.32704(7) 0.32908(2)
H2 H 0.7057 1.3483 0.3491
H3 H 0.6043 1.3848 0.3147
H4 H 0.7262 1.2845 0.3104
C5 C 0.51862(9) 1.23836(7) 0.31687(2)
H5 H 0.4697 1.2022 0.3290
H6 H 0.5818 1.1964 0.2981
H7 H 0.4614 1.2975 0.3029
C6 C 0.68157(7) 1.17480(6) 0.371383(19)
C7 C 0.80387(9) 1.15882(7) 0.38453(3)
H8 H 0.8466 1.2022 0.3799
C8 C 0.85276(10) 1.06619(8) 0.40605(3)
H9 H 0.9333 1.0376 0.4178
C9 C 0.76164(10) 1.02580(8) 0.40659(3)
H10 H 0.7686 0.9648 0.4188
C10 C 0.65711(9) 1.09166(7) 0.38578(2)
H11 H 0.5812 1.0820 0.3819
B1 B 0.45658(9) 1.38746(8) 0.46073(2)
B2 B 0.36648(9) 1.32066(8) 0.45024(2)
B3 B 0.38933(7) 1.29762(6) 0.40154(2)
H135 H 0.3809 1.2307 0.3897
B4 B 0.42826(9) 1.46682(8) 0.37979(3)
H136 H 0.4524 1.5139 0.3565
B5 B 0.33150(10) 1.40365(8) 0.36993(3)
B6 B 0.40505(9) 1.49941(8) 0.43103(3)
H137 H 0.4135 1.5677 0.4414
B7 B 0.29169(9) 1.45118(8) 0.45229(3)
B8 B 0.24646(9) 1.39484(9) 0.41479(3)
B9 B 0.27203(9) 1.50372(9) 0.40165(3)
H141 H 0.1996(5) 1.5590(4) 0.39153(16)
H146 H 0.2186(5) 1.4902(5) 0.47358(17)
H147 H 0.1520(6) 1.3878(5) 0.41268(17)
H149 H 0.2934(7) 1.3985(6) 0.3407(2)
H150 H 0.3418(5) 1.2727(5) 0.47080(17)
C11 C 0.63009(7) 0.08761(6) 0.872645(19)
C12 C 0.58984(8) 0.18115(7) 0.84260(2)
C13 C 0.53512(9) 0.08882(7) 0.91196(2)
H12 H 0.4836 0.1699 0.9062
C14 C 0.45306(8) 0.20640(7) 0.82745(2)
H13 H 0.4308 0.2626 0.8086
H14 H 0.3925 0.2229 0.8500
H15 H 0.4503 0.1495 0.8143
C15 C 0.68078(9) 0.16100(8) 0.80368(2)
H16 H 0.6519 0.2193 0.7859
H17 H 0.6780 0.1047 0.7901
H18 H 0.7679 0.1467 0.8113
C16 C 0.59732(8) 0.26910(6) 0.86385(2)
C17 C 0.49863(10) 0.34972(7) 0.88136(2)
H19 H 0.4113 0.3617 0.8798
C18 C 0.54484(12) 0.40989(8) 0.90132(3)
H20 H 0.4965 0.4665 0.9159
C19 C 0.67767(11) 0.36914(7) 0.89540(3)
H21 H 0.7350 0.3947 0.9051
C20 C 0.71208(9) 0.28300(7) 0.87235(2)
H22 H 0.7956 0.2422 0.8641
B10 B 0.63777(9) 0.03297(8) 0.95252(2)
B11 B 0.79135(9) 0.00763(8) 0.93330(3)
B12 B 0.77142(7) 0.03903(6) 0.88488(2)
H138 H 0.8415 0.0643 0.8687
B13 B 0.56832(10) -0.03935(8) 0.92601(3)
B14 B 0.82524(10) -0.08637(8) 0.89564(3)
H139 H 0.9235 -0.1424 0.8901
B15 B 0.73374(10) -0.09300(8) 0.93890(3)
H140 H 0.7705 -0.1545 0.9616
B16 B 0.71906(10) -0.03047(8) 0.85598(3)
B17 B 0.56297(10) -0.00139(8) 0.87430(3)
B18 B 0.68771(11) -0.11513(8) 0.89017(3)
H142 H 0.6109(6) 0.0527(5) 0.98673(18)
H143 H 0.4854(5) -0.0553(4) 0.94235(16)
H144 H 0.7526(6) -0.0432(5) 0.82194(18)
H145 H 0.4853(6) 0.0063(5) 0.85467(18)
H148 H 0.7108(6) -0.1938(5) 0.88123(19)
H152 H 0.8693(5) 0.0085(5) 0.95093(17)
O1 O 0.75432(6) 1.54728(5) 0.432076(18)
C21 C 0.74872(12) 1.55314(10) 0.39005(3)
H23 H 0.7731 1.4865 0.3796
H24 H 0.6613 1.5936 0.3819
C22 C 0.83288(14) 1.59612(11) 0.37476(4)
H25 H 0.7935 1.6438 0.3529
H26 H 0.9120 1.5448 0.3645
C23 C 0.86061(11) 1.64725(9) 0.40818(3)
H27 H 0.9505 1.6395 0.4073
H28 H 0.8057 1.7182 0.4077
C24 C 0.83290(10) 1.59797(9) 0.44199(3)
H29 H 0.7891 1.6463 0.4625
H30 H 0.9129 1.5502 0.4530
O2 O 0.82294(6) 1.29797(7) 0.480986(17)
C25 C 0.93369(10) 1.29157(12) 0.45865(3)
H31 H 0.9382 1.2571 0.4338
H32 H 0.9292 1.3586 0.4515
C26 C 1.03892(11) 1.24271(15) 0.47952(4)
H33 H 1.0824 1.2869 0.4851
H34 H 1.0984 1.1864 0.4645
C27 C 0.99441(12) 1.20689(15) 0.51782(4)
H35 H 1.0229 1.1344 0.5183
H36 H 1.0295 1.2258 0.5409
C28 C 0.86208(10) 1.25102(10) 0.51914(3)
H37 H 0.8327 1.3002 0.5401
H38 H 0.8257 1.2008 0.5249
O3 O 0.63960(7) 1.12181(6) 0.513286(18)
C29 C 0.70370(14) 1.02143(10) 0.52398(4)
H39 H 0.7928 1.0080 0.5301
H40 H 0.7035 0.9799 0.5018
C30 C 0.63921(17) 0.99906(12) 0.55849(4)
H41 H 0.6961 0.9792 0.5813
H42 H 0.6127 0.9446 0.5531
C31 C 0.52605(15) 1.09028(11) 0.56731(5)
H43 H 0.4474 1.0822 0.5607
H44 H 0.5216 1.1048 0.5958
C32 C 0.54076(12) 1.17014(10) 0.54298(3)
H45 H 0.4603 1.2108 0.5301
H46 H 0.5664 1.2129 0.5594
O4 O 0.88846(7) 1.06983(5) 0.261058(18)
C33 C 0.88211(15) 1.16044(10) 0.24436(4)
H47 H 0.9415 1.1818 0.2580
H48 H 0.7954 1.2105 0.2486
C34 C 0.91380(14) 1.15457(10) 0.20192(3)
H49 H 0.9951 1.1621 0.1962
H50 H 0.8463 1.2056 0.1866
C35 C 0.92382(15) 1.05318(11) 0.19259(3)
H51 H 0.8488 1.0570 0.1780
H52 H 1.0006 1.0197 0.1759
C36 C 0.9309(2) 0.99944(12) 0.22989(4)
H53 H 0.8763 0.9613 0.2296
H54 H 1.0191 0.9530 0.2343
O5 O 1.04964(6) 0.88390(6) 0.32947(2)
C37 C 1.08368(11) 0.81043(10) 0.36035(4)
H55 H 1.0740 0.7504 0.3519
H56 H 1.0295 0.8346 0.3843
C38 C 1.21820(12) 0.78939(13) 0.36848(5)
H57 H 1.2238 0.8231 0.3926
H58 H 1.2655 0.7178 0.3728
C39 C 1.26928(12) 0.82359(14) 0.33575(4)
H59 H 1.3293 0.7676 0.3207
H60 H 1.3153 0.8635 0.3444
C40 C 1.16481(12) 0.88276(12) 0.31131(4)
H61 H 1.1619 0.9507 0.3084
H62 H 1.1762 0.8550 0.2846
O6 O 0.73355(8) 0.93015(6) 0.29588(2)
C41 C 0.70543(12) 0.85885(10) 0.31891(5)
H63 H 0.7220 0.8623 0.3472
H64 H 0.7569 0.7919 0.3098
C42 C 0.56960(15) 0.88374(19) 0.31305(6)
H65 H 0.5513 0.8234 0.3143
H66 H 0.5180 0.9281 0.3339
C43 C 0.54134(15) 0.93006(16) 0.27591(5)
H67 H 0.4566 0.9842 0.2765
H68 H 0.5422 0.8827 0.2560
C44 C 0.63885(14) 0.96814(13) 0.26635(5)
H69 H 0.6769 0.9471 0.2398
H70 H 0.6019 1.0409 0.2663
O7 O 0.92381(16) 0.70652(12) 0.67915(4)
C45 C 0.86889(18) 0.80198(15) 0.65844(5)
H71 H 0.9351 0.8262 0.6493
H72 H 0.8198 0.7989 0.6355
C46 C 0.78679(16) 0.86338(13) 0.68901(5)
H73 H 0.8181 0.9146 0.6955
H74 H 0.7001 0.8968 0.6789
C47 C 0.78331(18) 0.81240(17) 0.72041(6)
H75 H 0.6990 0.8085 0.7231
H76 H 0.7942 0.8463 0.7437
C48 C 0.8817(2) 0.71197(14) 0.72022(5)
H77 H 0.9510 0.7044 0.7382
H78 H 0.8460 0.6620 0.7275
O8 O 0.18364(6) 0.14969(6) 0.945398(18)
C49 C 0.10729(13) 0.09861(12) 0.95092(4)
H79 H 0.0165 0.1414 0.9544
H80 H 0.1344 0.0482 0.9726
C50 C 0.1430(2) 0.05369(13) 0.90785(4)
H81 H 0.2346 0.0121 0.9056
H82 H 0.0941 0.0133 0.9024
C51 C 0.11409(16) 0.12869(12) 0.88352(4)
H83 H 0.0239 0.1531 0.8764
H84 H 0.1678 0.1125 0.8591
C52 C 0.13974(16) 0.20158(13) 0.90661(4)
H85 H 0.0620 0.2615 0.9102
H86 H 0.2062 0.2202 0.8933
O9 O 0.37814(7) 0.27766(5) 0.989740(17)
C53 C 0.38961(12) 0.30938(9) 1.02833(3)
H87 H 0.4052 0.2547 1.0481
H88 H 0.4615 0.3308 1.0284
C54 C 0.2737(2) 0.38953(14) 1.03796(4)
H89 H 0.2902 0.4488 1.0434
H90 H 0.2318 0.3723 1.0617
C55 C 0.19217(16) 0.40797(16) 1.00281(4)
H91 H 0.1250 0.3819 1.0078
H92 H 0.1521 0.4792 0.9961
C56 C 0.27834(12) 0.35624(10) 0.97142(3)
H93 H 0.2346 0.3308 0.9529
H94 H 0.3117 0.4007 0.9565
O10 O 0.72285(8) 0.24705(6) 0.998527(19)
C57 C 0.78156(13) 0.16929(10) 1.02815(3)
H95 H 0.7214 0.1396 1.0380
H96 H 0.8578 0.1171 1.0168
C58 C 0.81529(13) 0.21638(12) 1.05969(3)
H97 H 0.8971 0.1724 1.0710
H98 H 0.7493 0.2336 1.0811
C59 C 0.82553(18) 0.30647(13) 1.04140(5)
H99 H 0.7935 0.3610 1.0601
H100 H 0.9150 0.2942 1.0342
C60 C 0.74985(16) 0.33087(11) 1.00647(4)
H101 H 0.6702 0.3887 1.0111
H102 H 0.7969 0.3466 0.9838
O11 O 0.45107(7) 0.46267(6) 0.771720(19)
C61 C 0.32037(12) 0.52298(12) 0.78054(4)
H103 H 0.2962 0.5079 0.8078
H104 H 0.3067 0.5935 0.7785
C62 C 0.24601(13) 0.50113(16) 0.75213(5)
H105 H 0.1933 0.5621 0.7376
H106 H 0.1891 0.4729 0.7658
C63 C 0.33171(15) 0.43090(12) 0.72462(4)
H107 H 0.3180 0.3686 0.7263
H108 H 0.3173 0.4579 0.6971
C64 C 0.45733(12) 0.41434(10) 0.73584(3)
H109 H 0.5071 0.3429 0.7396
H110 H 0.4998 0.4402 0.7147
O12 O 0.55661(9) 0.61056(5) 0.826360(19)
C65 C 0.50887(19) 0.66672(9) 0.86126(3)
H111 H 0.5789 0.6559 0.8794
H112 H 0.4454 0.6458 0.8753
C66 C 0.45097(12) 0.77005(9) 0.84934(4)
H113 H 0.4712 0.8113 0.8680
H114 H 0.3578 0.7919 0.8483
C67 C 0.50612(14) 0.77598(8) 0.80994(3)
H115 H 0.4384 0.8131 0.7913
H116 H 0.5648 0.8104 0.8111
C68 C 0.57389(15) 0.67707(9) 0.79664(3)
H117 H 0.5406 0.6685 0.7711
H118 H 0.6651 0.6639 0.7927
O13 O 0.77579(7) 0.39825(6) 0.77283(2)
C69 C 0.89574(11) 0.32619(11) 0.77944(4)
H119 H 0.8934 0.2600 0.7784
H120 H 0.9245 0.3333 0.8059
C70 C 0.98250(13) 0.33844(14) 0.74859(5)
H121 H 1.0219 0.2778 0.7333
H122 H 1.0505 0.3532 0.7605
C71 C 0.90538(13) 0.42116(11) 0.72271(4)
H123 H 0.9306 0.4777 0.7248
H124 H 0.9163 0.4014 0.6947
C72 C 0.77775(11) 0.44651(12) 0.73591(3)
H125 H 0.7358 0.5186 0.7387
H126 H 0.7312 0.4264 0.7163
O14 O 0.9717(3) 0.52957(14) 0.82961(7)
C73 C 0.9638(2) 0.62533(14) 0.83718(5)
H127 H 0.8744 0.6710 0.8409
H128 H 1.0029 0.6509 0.8150
C74 C 1.03215(18) 0.61448(14) 0.87291(5)
H129 H 0.9777 0.6581 0.8935
H130 H 1.1079 0.6305 0.8678
C75 C 1.06897(18) 0.51066(14) 0.88536(6)
H131 H 1.1582 0.4720 0.8774
H132 H 1.0595 0.5040 0.9145
C76 C 0.9854(2) 0.47774(16) 0.86581(6)
H133 H 1.0235 0.4058 0.8622
H134 H 0.9033 0.4952 0.8804
H1? H 0.6350 1.3373 0.4067
H151? H 0.4898(6) 1.3947(5) 0.49021(17)
loop_
_geom_bond_atom_site_label_1
_geom_bond_atom_site_label_2
_geom_bond_site_symmetry_1
_geom_bond_site_symmetry_2
C1 C2 1_555 1_555
C2 C4 1_555 1_555
C3 C1 1_555 1_555
C4 H2 1_555 1_555
H3 C4 1_555 1_555
H4 C4 1_555 1_555
C5 C2 1_555 1_555
H5 C5 1_555 1_555
H6 C5 1_555 1_555
H7 C5 1_555 1_555
C6 C2 1_555 1_555
C7 C6 1_555 1_555
H8 C7 1_555 1_555
C8 C7 1_555 1_555
H9 C8 1_555 1_555
C9 C8 1_555 1_555
H10 C9 1_555 1_555
C10 C6 1_555 1_555
H11 C10 1_555 1_555
C11 C12 1_555 1_555
C12 C14 1_555 1_555
C13 C11 1_555 1_555
H12 C13 1_555 1_555
C14 H13 1_555 1_555
H14 C14 1_555 1_555
H15 C14 1_555 1_555
C15 C12 1_555 1_555
H16 C15 1_555 1_555
H17 C15 1_555 1_555
H18 C15 1_555 1_555
C16 C12 1_555 1_555
C17 C16 1_555 1_555
H19 C17 1_555 1_555
C18 C17 1_555 1_555
H20 C18 1_555 1_555
C19 C18 1_555 1_555
H21 C19 1_555 1_555
C20 C16 1_555 1_555
H22 C20 1_555 1_555
O1 C21 1_555 1_555
C21 H23 1_555 1_555
H24 C21 1_555 1_555
C22 C21 1_555 1_555
H25 C22 1_555 1_555
H26 C22 1_555 1_555
C23 C22 1_555 1_555
H27 C23 1_555 1_555
H28 C23 1_555 1_555
C24 O1 1_555 1_555
H29 C24 1_555 1_555
H30 C24 1_555 1_555
O2 C25 1_555 1_555
C25 H31 1_555 1_555
H32 C25 1_555 1_555
C26 C25 1_555 1_555
H33 C26 1_555 1_555
H34 C26 1_555 1_555
C27 C26 1_555 1_555
H35 C27 1_555 1_555
H36 C27 1_555 1_555
C28 O2 1_555 1_555
H37 C28 1_555 1_555
H38 C28 1_555 1_555
O3 C29 1_555 1_555
C29 H39 1_555 1_555
H40 C29 1_555 1_555
C30 C29 1_555 1_555
H41 C30 1_555 1_555
H42 C30 1_555 1_555
C31 C30 1_555 1_555
H43 C31 1_555 1_555
H44 C31 1_555 1_555
C32 O3 1_555 1_555
H45 C32 1_555 1_555
H46 C32 1_555 1_555
O4 C33 1_555 1_555
C33 H47 1_555 1_555
H48 C33 1_555 1_555
C34 C33 1_555 1_555
H49 C34 1_555 1_555
H50 C34 1_555 1_555
C35 C34 1_555 1_555
H51 C35 1_555 1_555
H52 C35 1_555 1_555
C36 O4 1_555 1_555
H53 C36 1_555 1_555
H54 C36 1_555 1_555
O5 C37 1_555 1_555
C37 H55 1_555 1_555
H56 C37 1_555 1_555
C38 C37 1_555 1_555
H57 C38 1_555 1_555
H58 C38 1_555 1_555
C39 C38 1_555 1_555
H59 C39 1_555 1_555
H60 C39 1_555 1_555
C40 O5 1_555 1_555
H61 C40 1_555 1_555
H62 C40 1_555 1_555
O6 C41 1_555 1_555
C41 H63 1_555 1_555
H64 C41 1_555 1_555
C42 C41 1_555 1_555
H65 C42 1_555 1_555
H66 C42 1_555 1_555
C43 C42 1_555 1_555
H67 C43 1_555 1_555
H68 C43 1_555 1_555
C44 O6 1_555 1_555
H69 C44 1_555 1_555
H70 C44 1_555 1_555
O7 C45 1_555 1_555
C45 H71 1_555 1_555
H72 C45 1_555 1_555
C46 C45 1_555 1_555
H73 C46 1_555 1_555
H74 C46 1_555 1_555
C47 C46 1_555 1_555
H75 C47 1_555 1_555
H76 C47 1_555 1_555
C48 O7 1_555 1_555
H77 C48 1_555 1_555
H78 C48 1_555 1_555
O8 C49 1_555 1_555
C49 H79 1_555 1_555
H80 C49 1_555 1_555
C50 C49 1_555 1_555
H81 C50 1_555 1_555
H82 C50 1_555 1_555
C51 C50 1_555 1_555
H83 C51 1_555 1_555
H84 C51 1_555 1_555
C52 O8 1_555 1_555
H85 C52 1_555 1_555
H86 C52 1_555 1_555
O9 C53 1_555 1_555
C53 H87 1_555 1_555
H88 C53 1_555 1_555
C54 C53 1_555 1_555
H89 C54 1_555 1_555
H90 C54 1_555 1_555
C55 C54 1_555 1_555
H91 C55 1_555 1_555
H92 C55 1_555 1_555
C56 O9 1_555 1_555
H93 C56 1_555 1_555
H94 C56 1_555 1_555
O10 C57 1_555 1_555
C57 H95 1_555 1_555
H96 C57 1_555 1_555
C58 C57 1_555 1_555
H97 C58 1_555 1_555
H98 C58 1_555 1_555
C59 C58 1_555 1_555
H99 C59 1_555 1_555
H100 C59 1_555 1_555
C60 O10 1_555 1_555
H101 C60 1_555 1_555
H102 C60 1_555 1_555
O11 C61 1_555 1_555
C61 H103 1_555 1_555
H104 C61 1_555 1_555
C62 C61 1_555 1_555
H105 C62 1_555 1_555
H106 C62 1_555 1_555
C63 C62 1_555 1_555
H107 C63 1_555 1_555
H108 C63 1_555 1_555
C64 O11 1_555 1_555
H109 C64 1_555 1_555
H110 C64 1_555 1_555
O12 C65 1_555 1_555
C65 H111 1_555 1_555
H112 C65 1_555 1_555
C66 C65 1_555 1_555
H113 C66 1_555 1_555
H114 C66 1_555 1_555
C67 C66 1_555 1_555
H115 C67 1_555 1_555
H116 C67 1_555 1_555
C68 O12 1_555 1_555
H117 C68 1_555 1_555
H118 C68 1_555 1_555
O13 C69 1_555 1_555
C69 H119 1_555 1_555
H120 C69 1_555 1_555
C70 C69 1_555 1_555
H121 C70 1_555 1_555
H122 C70 1_555 1_555
C71 C70 1_555 1_555
H123 C71 1_555 1_555
H124 C71 1_555 1_555
C72 O13 1_555 1_555
H125 C72 1_555 1_555
H126 C72 1_555 1_555
O14 C73 1_555 1_555
C73 H127 1_555 1_555
H128 C73 1_555 1_555
C74 C73 1_555 1_555
H129 C74 1_555 1_555
H130 C74 1_555 1_555
C75 C74 1_555 1_555
H131 C75 1_555 1_555
H132 C75 1_555 1_555
C76 O14 1_555 1_555
H133 C76 1_555 1_555
H134 C76 1_555 1_555
B1 C3 1_555 1_555
B2 B1 1_555 1_555
B3 C1 1_555 1_555
H135 B3 1_555 1_555
B4 C1 1_555 1_555
H136 B4 1_555 1_555
B5 C1 1_555 1_555
B6 C3 1_555 1_555
H137 B6 1_555 1_555
B7 B1 1_555 1_555
B8 B2 1_555 1_555
B9 B4 1_555 1_555
B10 C13 1_555 1_555
B11 B10 1_555 1_555
B12 C11 1_555 1_555
H138 B12 1_555 1_555
B13 C13 1_555 1_555
B14 B11 1_555 1_555
H139 B14 1_555 1_555
B15 B10 1_555 1_555
H140 B15 1_555 1_555
B16 C11 1_555 1_555
B17 C11 1_555 1_555
B18 B13 1_555 1_555
H141 B9 1_555 1_555
H142 B10 1_555 1_555
H143 B13 1_555 1_555
H144 B16 1_555 1_555
H145 B17 1_555 1_555
H146 B7 1_555 1_555
H147 B8 1_555 1_555
H148 B18 1_555 1_555
H149 B5 1_555 1_555
H150 B2 1_555 1_555
H152 B11 1_555 1_555
C3 B4 1_555 1_555
C9 C10 1_555 1_555
C13 B17 1_555 1_555
C19 C20 1_555 1_555
C23 C24 1_555 1_555
C27 C28 1_555 1_555
C31 C32 1_555 1_555
C35 C36 1_555 1_555
C39 C40 1_555 1_555
C43 C44 1_555 1_555
C47 C48 1_555 1_555
C51 C52 1_555 1_555
C55 C56 1_555 1_555
C59 C60 1_555 1_555
C63 C64 1_555 1_555
C67 C68 1_555 1_555
C71 C72 1_555 1_555
C75 C76 1_555 1_555
B1 B6 1_555 1_555
B2 B3 1_555 1_555
B2 B7 1_555 1_555
B3 B5 1_555 1_555
B3 B8 1_555 1_555
B4 B5 1_555 1_555
B4 B6 1_555 1_555
B5 B8 1_555 1_555
B5 B9 1_555 1_555
B6 B7 1_555 1_555
B6 B9 1_555 1_555
B7 B8 1_555 1_555
B7 B9 1_555 1_555
B8 B9 1_555 1_555
B10 B13 1_555 1_555
B11 B12 1_555 1_555
B11 B15 1_555 1_555
B12 B14 1_555 1_555
B12 B16 1_555 1_555
B13 B15 1_555 1_555
B13 B17 1_555 1_555
B14 B15 1_555 1_555
B14 B16 1_555 1_555
B14 B18 1_555 1_555
B15 B18 1_555 1_555
B16 B17 1_555 1_555
B16 B18 1_555 1_555
B17 B18 1_555 1_555

#END
