
#######################################################################
#
#                 Cambridge Crystallographic Data Centre
#                                CCDC 
#
#######################################################################
#
# If this CIF has been generated from an entry in the Cambridge 
# Structural Database, then it will include bibliographic, chemical, 
# crystal, experimental, refinement or atomic coordinate data resulting 
# from the CCDC's data processing and validation procedures.
#
#######################################################################

data_UFUKUC
_chemical_formula_moiety         'C38 H30 N1 O1 P1 S1'
_chemical_name_systematic        
4-((2-(Diphenylphosphino)ethyl)sulfanyl)-N-(1-pyrenylmethyl)benzamide
_symmetry_cell_setting           monoclinic
_symmetry_space_group_name_H-M   'P 21/c'
_symmetry_Int_Tables_number      14
_space_group_name_Hall           '-P 2ybc'
loop_
_symmetry_equiv_pos_site_id
_symmetry_equiv_pos_as_xyz
1 x,y,z
2 -x,1/2+y,1/2-z
3 -x,-y,-z
4 x,1/2-y,1/2+z
_cell_length_a                   16.115(2)
_cell_length_b                   9.7780(12)
_cell_length_c                   18.536(2)
_cell_angle_alpha                90
_cell_angle_beta                 100.004(2)
_cell_angle_gamma                90
_cell_volume                     2876.35
_exptl_crystal_colour            colorless
_exptl_crystal_description       plate
_cell_formula_units_Z            4
_exptl_crystal_preparation       fluorescent
loop_
_atom_site_label
_atom_site_type_symbol
_atom_site_fract_x
_atom_site_fract_y
_atom_site_fract_z
S1 S 0.16632(7) 0.34111(9) 0.09132(5)
P1 P 0.28520(6) 0.25425(10) 0.24272(5)
O1 O 0.03415(17) 0.5914(2) -0.24362(14)
N1 N 0.0096(2) 0.3717(3) -0.27454(16)
C1 C 0.3135(2) 0.1539(4) 0.3268(2)
C2 C 0.3679(3) 0.2142(5) 0.3840(2)
H1 H 0.3931 0.2985 0.3764
C3 C 0.3857(3) 0.1529(5) 0.4516(3)
H2 H 0.4235 0.1947 0.4896
C4 C 0.3484(3) 0.0304(5) 0.4641(2)
H3 H 0.3598 -0.0107 0.5106
C5 C 0.2948(3) -0.0308(5) 0.4081(2)
H4 H 0.2696 -0.1149 0.4161
C6 C 0.2772(3) 0.0304(4) 0.3397(2)
H5 H 0.2402 -0.0126 0.3017
C7 C 0.3846(2) 0.2595(4) 0.2083(2)
C8 C 0.4351(2) 0.1454(4) 0.2053(2)
H6 H 0.4200 0.0620 0.2247
C9 C 0.5066(3) 0.1518(5) 0.1746(2)
H7 H 0.5401 0.0735 0.1731
C10 C 0.5293(3) 0.2738(5) 0.1460(2)
H8 H 0.5780 0.2786 0.1247
C11 C 0.4808(3) 0.3876(5) 0.1488(2)
H9 H 0.4967 0.4707 0.1296
C12 C 0.4089(3) 0.3815(4) 0.1793(2)
H10 H 0.3759 0.4605 0.1806
C13 C 0.2280(2) 0.1280(3) 0.17905(19)
H11 H 0.2600 0.0422 0.1837
H12 H 0.1734 0.1096 0.1936
C14 C 0.2130(2) 0.1720(3) 0.09905(19)
H13 H 0.1752 0.1070 0.0695
H14 H 0.2665 0.1733 0.0808
C15 C 0.1317(2) 0.3633(3) -0.0031(2)
C16 C 0.0958(3) 0.4891(4) -0.0224(2)
H15 H 0.0929 0.5545 0.0142
C17 C 0.0642(3) 0.5205(4) -0.0940(2)
H16 H 0.0406 0.6074 -0.1057
C18 C 0.0666(2) 0.4262(3) -0.14930(18)
C19 C 0.1036(2) 0.3000(3) -0.13006(19)
H17 H 0.1062 0.2344 -0.1667
C20 C 0.1363(2) 0.2693(3) -0.05835(19)
H18 H 0.1620 0.1840 -0.0467
C21 C 0.0353(2) 0.4696(3) -0.22572(19)
C22 C -0.0084(2) 0.3981(4) -0.35208(19)
H19 H 0.0183 0.3264 -0.3770
H20 H 0.0179 0.4852 -0.3614
C23 C -0.1007(2) 0.4046(3) -0.38611(19)
C24 C -0.1603(2) 0.4441(3) -0.3441(2)
H21 H -0.1427 0.4668 -0.2945
C25 C -0.2449(2) 0.4506(4) -0.3741(2)
H22 H -0.2836 0.4811 -0.3451
C26 C -0.2735(2) 0.4131(3) -0.4460(2)
C27 C -0.3613(2) 0.4141(4) -0.4786(2)
H23 H -0.4011 0.4455 -0.4510
C28 C -0.3879(3) 0.3711(4) -0.5477(2)
H24 H -0.4459 0.3702 -0.5666
C29 C -0.3300(2) 0.3270(4) -0.5928(2)
C30 C -0.3552(3) 0.2814(4) -0.6646(2)
H25 H -0.4129 0.2765 -0.6844
C31 C -0.2971(3) 0.2437(4) -0.7069(2)
H26 H -0.3158 0.2129 -0.7550
C32 C -0.2122(3) 0.2501(4) -0.6801(2)
H27 H -0.1734 0.2257 -0.7104
C33 C -0.1832(2) 0.2925(3) -0.6084(2)
C34 C -0.0961(2) 0.3017(3) -0.5783(2)
H28 H -0.0563 0.2807 -0.6082
C35 C -0.0687(2) 0.3395(3) -0.50826(19)
H29 H -0.0105 0.3442 -0.4904
C36 C -0.1273(2) 0.3730(3) -0.46018(19)
C37 C -0.2142(2) 0.3724(3) -0.49002(19)
C38 C -0.2426(2) 0.3306(3) -0.56340(19)
H30 H 0.001(3) 0.296(5) -0.263(2)
loop_
_geom_bond_atom_site_label_1
_geom_bond_atom_site_label_2
_geom_bond_site_symmetry_1
_geom_bond_site_symmetry_2
S1 C14 1_555 1_555
P1 C1 1_555 1_555
O1 C21 1_555 1_555
N1 C21 1_555 1_555
C1 C2 1_555 1_555
C2 H1 1_555 1_555
C3 C2 1_555 1_555
H2 C3 1_555 1_555
C4 C3 1_555 1_555
H3 C4 1_555 1_555
C5 C4 1_555 1_555
H4 C5 1_555 1_555
C6 C1 1_555 1_555
H5 C6 1_555 1_555
C7 P1 1_555 1_555
C8 C7 1_555 1_555
H6 C8 1_555 1_555
C9 C8 1_555 1_555
H7 C9 1_555 1_555
C10 C9 1_555 1_555
H8 C10 1_555 1_555
C11 C10 1_555 1_555
H9 C11 1_555 1_555
C12 C7 1_555 1_555
H10 C12 1_555 1_555
C13 P1 1_555 1_555
H11 C13 1_555 1_555
H12 C13 1_555 1_555
C14 C13 1_555 1_555
H13 C14 1_555 1_555
H14 C14 1_555 1_555
C15 S1 1_555 1_555
C16 C15 1_555 1_555
H15 C16 1_555 1_555
C17 C16 1_555 1_555
H16 C17 1_555 1_555
C18 C17 1_555 1_555
C19 C18 1_555 1_555
H17 C19 1_555 1_555
C20 C15 1_555 1_555
H18 C20 1_555 1_555
C21 C18 1_555 1_555
C22 N1 1_555 1_555
H19 C22 1_555 1_555
H20 C22 1_555 1_555
C23 C22 1_555 1_555
C24 C23 1_555 1_555
H21 C24 1_555 1_555
C25 C24 1_555 1_555
H22 C25 1_555 1_555
C26 C25 1_555 1_555
C27 C26 1_555 1_555
H23 C27 1_555 1_555
C28 C27 1_555 1_555
H24 C28 1_555 1_555
C29 C28 1_555 1_555
C30 C29 1_555 1_555
H25 C30 1_555 1_555
C31 C30 1_555 1_555
H26 C31 1_555 1_555
C32 C31 1_555 1_555
H27 C32 1_555 1_555
C33 C32 1_555 1_555
C34 C33 1_555 1_555
H28 C34 1_555 1_555
C35 C34 1_555 1_555
H29 C35 1_555 1_555
C36 C23 1_555 1_555
C37 C26 1_555 1_555
C38 C29 1_555 1_555
H30 N1 1_555 1_555
C5 C6 1_555 1_555
C11 C12 1_555 1_555
C19 C20 1_555 1_555
C33 C38 1_555 1_555
C35 C36 1_555 1_555
C36 C37 1_555 1_555
C37 C38 1_555 1_555

#END
