
#######################################################################
#
#                 Cambridge Crystallographic Data Centre
#                                CCDC 
#
#######################################################################
#
# If this CIF has been generated from an entry in the Cambridge 
# Structural Database, then it will include bibliographic, chemical, 
# crystal, experimental, refinement or atomic coordinate data resulting 
# from the CCDC's data processing and validation procedures.
#
#######################################################################

data_UFUKOY
_chemical_name_common            tris(1,3-propanediolatoboryl)methane
_chemical_formula_moiety         'C10 H19 B3 O6'
_chemical_name_systematic        
2,2',2''-methanetriyltris(1,3,2-dioxaborinane)
_symmetry_cell_setting           tetragonal
_symmetry_space_group_name_H-M   'P 41 21 2'
_symmetry_Int_Tables_number      92
_space_group_name_Hall           'P 4abw 2nw'
loop_
_symmetry_equiv_pos_site_id
_symmetry_equiv_pos_as_xyz
1 x,y,z
2 -x,-y,1/2+z
3 1/2-y,1/2+x,1/4+z
4 1/2+y,1/2-x,3/4+z
5 1/2-x,1/2+y,1/4-z
6 1/2+x,1/2-y,3/4-z
7 y,x,-z
8 -y,-x,1/2-z
_cell_length_a                   7.6702(6)
_cell_length_b                   7.6702(6)
_cell_length_c                   46.443(4)
_cell_angle_alpha                90
_cell_angle_beta                 90
_cell_angle_gamma                90
_cell_volume                     2732.33
_exptl_crystal_colour            colorless
_exptl_crystal_description       'multi-faceted chunk'
_cell_formula_units_Z            8
loop_
_atom_site_label
_atom_site_type_symbol
_atom_site_fract_x
_atom_site_fract_y
_atom_site_fract_z
C1 C 0.3620(2) 0.88143(19) 0.43439(3)
H1 H 0.2797 0.8144 0.4219
C2 C 0.1296(5) 0.7420(6) 0.50463(8)
H2 H 0.1404 0.6136 0.506
H3 H 0.0101 0.7753 0.5105
C3 C 0.2598(4) 0.8276(6) 0.52380(6)
H4 H 0.2411 0.7884 0.5439
H5 H 0.2431 0.9555 0.5232
C4 C 0.4445(3) 0.7837(4) 0.51462(4)
H6 H 0.5278 0.8562 0.5256
H7 H 0.4691 0.6598 0.519
C5 C 0.7591(3) 0.6177(3) 0.40787(4)
H8 H 0.752 0.531 0.3921
H9 H 0.8198 0.5625 0.4243
C6 C 0.8619(2) 0.7727(3) 0.39784(4)
H10 H 0.8124 0.8169 0.3796
H11 H 0.9843 0.7379 0.3943
C7 C 0.8565(2) 0.9141(3) 0.42029(4)
H12 H 0.9167 0.8738 0.4379
H13 H 0.9182 1.0187 0.4131
C8 C 0.2677(3) 1.3230(3) 0.39786(5)
H14 H 0.1908 1.339 0.3809
H15 H 0.3803 1.381 0.3937
C9 C 0.1856(3) 1.4047(3) 0.42372(6)
H16 H 0.1729 1.5318 0.4206
H17 H 0.0681 1.3547 0.4268
C10 C 0.2967(3) 1.3720(2) 0.44958(5)
H18 H 0.4087 1.4348 0.4475
H19 H 0.2373 1.4173 0.467
B1 B 0.3275(2) 0.8295(2) 0.46661(4)
B2 B 0.5532(2) 0.8330(2) 0.42552(3)
B3 B 0.3273(2) 1.0813(2) 0.42983(4)
O1 O 0.16235(17) 0.7976(2) 0.47561(3)
O2 O 0.46784(16) 0.8145(2) 0.48426(2)
O3 O 0.58576(16) 0.66706(16) 0.41650(2)
O4 O 0.67931(15) 0.95817(16) 0.42699(3)
O5 O 0.2965(2) 1.13971(16) 0.40265(3)
O6 O 0.32988(18) 1.18912(15) 0.45305(2)
C11? C 0.1359(11) 0.8202(14) 0.50865(16)
H20? H 0.1488 0.944 0.5143
H21? H 0.0191 0.7787 0.5146
C12? C 0.2761(9) 0.7109(12) 0.52176(13)
H22? H 0.2616 0.7076 0.5429
H23? H 0.2679 0.5901 0.5144
H24? H 0.4591 0.8953 0.5251
H25? H 0.5365 0.703 0.5214
loop_
_geom_bond_atom_site_label_1
_geom_bond_atom_site_label_2
_geom_bond_site_symmetry_1
_geom_bond_site_symmetry_2
C1 H1 1_555 1_555
C2 H2 1_555 1_555
H3 C2 1_555 1_555
C3 C2 1_555 1_555
H4 C3 1_555 1_555
H5 C3 1_555 1_555
C4 C3 1_555 1_555
H6 C4 1_555 1_555
H7 C4 1_555 1_555
C5 H8 1_555 1_555
H9 C5 1_555 1_555
C6 C5 1_555 1_555
H10 C6 1_555 1_555
H11 C6 1_555 1_555
C7 C6 1_555 1_555
H12 C7 1_555 1_555
H13 C7 1_555 1_555
C8 H14 1_555 1_555
H15 C8 1_555 1_555
C9 C8 1_555 1_555
H16 C9 1_555 1_555
H17 C9 1_555 1_555
C10 C9 1_555 1_555
H18 C10 1_555 1_555
H19 C10 1_555 1_555
B1 C1 1_555 1_555
B2 C1 1_555 1_555
B3 C1 1_555 1_555
O1 C2 1_555 1_555
O2 C4 1_555 1_555
O3 C5 1_555 1_555
O4 C7 1_555 1_555
O5 C8 1_555 1_555
O6 C10 1_555 1_555
B1 O1 1_555 1_555
B1 O2 1_555 1_555
B2 O3 1_555 1_555
B2 O4 1_555 1_555
B3 O5 1_555 1_555
B3 O6 1_555 1_555

#END
