
#######################################################################
#
#                 Cambridge Crystallographic Data Centre
#                                CCDC 
#
#######################################################################
#
# If this CIF has been generated from an entry in the Cambridge 
# Structural Database, then it will include bibliographic, chemical, 
# crystal, experimental, refinement or atomic coordinate data resulting 
# from the CCDC's data processing and validation procedures.
#
#######################################################################

data_UFUQAO
_chemical_compound_source        'roots of Aconitum vilmorinianum'
_chemical_name_common            
'11-Ethyl-6,16-dimethoxy-13-methyl-11-azaheptacyclo[7.7.2.1$2,5!.0$1,10!.0$2,8!.0$3,8!.0$13,17!] nonadecan-4-one hemihydrate'
_chemical_formula_moiety         'C23 H33 N1 O3,0.5(H2 O1)'
_chemical_name_systematic        'Vilmoraconitine hemihydrate'
_symmetry_cell_setting           orthorhombic
_symmetry_space_group_name_H-M   'C 2 2 21'
_symmetry_Int_Tables_number      20
_space_group_name_Hall           'C 2n 2'
loop_
_symmetry_equiv_pos_site_id
_symmetry_equiv_pos_as_xyz
1 x,y,z
2 -x,-y,1/2+z
3 x,-y,-z
4 -x,y,1/2-z
5 1/2+x,1/2+y,z
6 1/2-x,1/2-y,1/2+z
7 1/2+x,1/2-y,-z
8 1/2-x,1/2+y,1/2-z
_cell_length_a                   12.7300(9)
_cell_length_b                   13.1310(8)
_cell_length_c                   24.6860(8)
_cell_angle_alpha                90
_cell_angle_beta                 90
_cell_angle_gamma                90
_cell_volume                     4126.45
_exptl_crystal_colour            colorless
_exptl_crystal_description       block
_chemical_melting_point          '86-87 deg.C'
_cell_formula_units_Z            8
_exptl_crystal_recrystallization_method n-hexane/acetone
loop_
_atom_site_label
_atom_site_type_symbol
_atom_site_fract_x
_atom_site_fract_y
_atom_site_fract_z
O1 O 0.90372(12) 0.43830(12) 0.90333(7)
O2 O 0.82508(16) 0.89509(12) 0.92404(7)
O3 O 0.68889(19) 0.80797(15) 1.02850(8)
N1 N 0.65415(14) 0.40789(14) 0.83962(7)
C1 C 0.88628(15) 0.48396(16) 0.85148(9)
H1 H 0.9448 0.5306 0.8443
C2 C 0.88458(19) 0.40479(19) 0.80681(11)
H2 H 0.8388 0.3491 0.8172
H3 H 0.9547 0.3776 0.8017
C3 C 0.8458(2) 0.4514(2) 0.75393(12)
H4 H 0.8420 0.3986 0.7265
H5 H 0.8959 0.5021 0.7418
C4 C 0.73810(19) 0.5010(2) 0.75979(9)
C5 C 0.74471(17) 0.59004(17) 0.80051(8)
H6 H 0.7898 0.6449 0.7869
C6 C 0.63280(18) 0.63004(19) 0.81485(9)
H7 H 0.6296 0.7037 0.8123
H8 H 0.5803 0.6008 0.7910
C7 C 0.61666(15) 0.59459(16) 0.87324(8)
H9 H 0.5430 0.5857 0.8838
C8 C 0.68168(15) 0.65944(15) 0.91258(8)
C9 C 0.75391(17) 0.74066(16) 0.88792(9)
H10 H 0.7432 0.7651 0.8508
C10 C 0.79331(15) 0.63168(14) 0.89897(8)
C11 C 0.78583(15) 0.54753(15) 0.85573(8)
C12 C 0.86774(17) 0.63708(16) 0.94689(9)
H11 H 0.9403 0.6404 0.9350
H12 H 0.8590 0.5787 0.9705
C13 C 0.83474(18) 0.73626(17) 0.97551(9)
H13 H 0.8908 0.7646 0.9981
C14 C 0.80623(19) 0.80487(17) 0.92874(9)
C15 C 0.73289(19) 0.71688(17) 1.00746(10)
H14 H 0.7482 0.6705 1.0376
C16 C 0.64891(18) 0.66880(18) 0.97144(10)
H15 H 0.6324 0.6015 0.9853
H16 H 0.5855 0.7096 0.9735
C17 C 0.68338(14) 0.49377(16) 0.87373(8)
H17 H 0.6913 0.4703 0.9112
C18 C 0.65578(19) 0.42418(19) 0.78071(9)
H18 H 0.5868 0.4474 0.7695
H19 H 0.6684 0.3592 0.7632
C19 C 0.7032(3) 0.5409(3) 0.70429(10)
H20 H 0.6989 0.4852 0.6792
H21 H 0.7533 0.5898 0.6914
H22 H 0.6355 0.5726 0.7075
C20 C 1.0085(2) 0.4065(3) 0.91202(16)
H23 H 1.0145 0.3767 0.9474
H24 H 1.0546 0.4642 0.9094
H25 H 1.0276 0.3571 0.8851
C21 C 0.7501(4) 0.8496(3) 1.07185(17)
H26 H 0.7179 0.9113 1.0846
H27 H 0.8198 0.8643 1.0591
H28 H 0.7538 0.8013 1.1010
C22 C 0.55584(18) 0.36089(18) 0.85738(10)
H29 H 0.4978 0.4049 0.8474
H30 H 0.5564 0.3552 0.8966
C23 C 0.5380(2) 0.2566(2) 0.83321(13)
H31 H 0.4732 0.2291 0.8467
H32 H 0.5949 0.2124 0.8431
H33 H 0.5345 0.2620 0.7945
O4 O 0.4577(3) 0.5000 1.0000
H34 H 0.418(3) 0.463(3) 0.9788(15)
H34B H 0.418(3) 0.537(3) 1.0212(15)
loop_
_geom_bond_atom_site_label_1
_geom_bond_atom_site_label_2
_geom_bond_site_symmetry_1
_geom_bond_site_symmetry_2
O1 C1 1_555 1_555
O2 C14 1_555 1_555
O3 C15 1_555 1_555
N1 C17 1_555 1_555
C1 H1 1_555 1_555
C2 C1 1_555 1_555
H2 C2 1_555 1_555
H3 C2 1_555 1_555
C3 C2 1_555 1_555
H4 C3 1_555 1_555
H5 C3 1_555 1_555
C4 C3 1_555 1_555
C5 C4 1_555 1_555
H6 C5 1_555 1_555
C6 C5 1_555 1_555
H7 C6 1_555 1_555
H8 C6 1_555 1_555
C7 C6 1_555 1_555
H9 C7 1_555 1_555
C8 C7 1_555 1_555
C9 C8 1_555 1_555
H10 C9 1_555 1_555
C10 C8 1_555 1_555
C11 C1 1_555 1_555
C12 C10 1_555 1_555
H11 C12 1_555 1_555
H12 C12 1_555 1_555
C13 C12 1_555 1_555
H13 C13 1_555 1_555
C14 C9 1_555 1_555
C15 C13 1_555 1_555
H14 C15 1_555 1_555
C16 C8 1_555 1_555
H15 C16 1_555 1_555
H16 C16 1_555 1_555
C17 C7 1_555 1_555
H17 C17 1_555 1_555
C18 N1 1_555 1_555
H18 C18 1_555 1_555
H19 C18 1_555 1_555
C19 C4 1_555 1_555
H20 C19 1_555 1_555
H21 C19 1_555 1_555
H22 C19 1_555 1_555
C20 O1 1_555 1_555
H23 C20 1_555 1_555
H24 C20 1_555 1_555
H25 C20 1_555 1_555
C21 O3 1_555 1_555
H26 C21 1_555 1_555
H27 C21 1_555 1_555
H28 C21 1_555 1_555
C22 N1 1_555 1_555
H29 C22 1_555 1_555
H30 C22 1_555 1_555
C23 C22 1_555 1_555
H31 C23 1_555 1_555
H32 C23 1_555 1_555
H33 C23 1_555 1_555
O4 H34 1_555 1_555
H34B O4 1_555 1_555
C4 C18 1_555 1_555
C5 C11 1_555 1_555
C9 C10 1_555 1_555
C10 C11 1_555 1_555
C11 C17 1_555 1_555
C13 C14 1_555 1_555
C15 C16 1_555 1_555

#END
