
#######################################################################
#
#                 Cambridge Crystallographic Data Centre
#                                CCDC 
#
#######################################################################
#
# If this CIF has been generated from an entry in the Cambridge 
# Structural Database, then it will include bibliographic, chemical, 
# crystal, experimental, refinement or atomic coordinate data resulting 
# from the CCDC's data processing and validation procedures.
#
#######################################################################

data_UFUQOE
_chemical_name_common            Pentafluoro-(trimethylsilanolato)-tellurium
_chemical_formula_moiety         'C3 H9 F5 O1 Si1 Te1'
_chemical_name_systematic        trimethyl[(pentafluorotellanyl)oxy]silane
_symmetry_cell_setting           monoclinic
_symmetry_space_group_name_H-M   'P 21/c'
_symmetry_Int_Tables_number      14
_space_group_name_Hall           '-P 2ybc'
loop_
_symmetry_equiv_pos_site_id
_symmetry_equiv_pos_as_xyz
1 x,y,z
2 -x,1/2+y,1/2-z
3 -x,-y,-z
4 x,1/2-y,1/2+z
_cell_length_a                   6.2372(6)
_cell_length_b                   19.3447(18)
_cell_length_c                   8.1649(8)
_cell_angle_alpha                90
_cell_angle_beta                 108.024(5)
_cell_angle_gamma                90
_cell_volume                     936.806
_exptl_crystal_colour            colorless
_exptl_crystal_description       prism
_cell_formula_units_Z            4
_chemical_properties_physical    Air-sensitive,Moisture-sensitive
_exptl_crystal_recrystallization_method Sublimation
loop_
_atom_site_label
_atom_site_type_symbol
_atom_site_fract_x
_atom_site_fract_y
_atom_site_fract_z
Te1 Te 0.51687(3) 0.62527(2) 0.62564(2)
Si1 Si 0.12468(12) 0.61277(4) 0.25233(9)
F1 F 0.5225(3) 0.54882(8) 0.7583(2)
F2 F 0.5352(3) 0.70520(8) 0.5094(2)
F3 F 0.7459(3) 0.58891(10) 0.5581(3)
F4 F 0.7344(4) 0.66087(10) 0.8107(2)
F5 F 0.3116(4) 0.66656(10) 0.7106(2)
O1 O 0.3014(3) 0.58643(9) 0.4473(2)
C1 C -0.0748(5) 0.54002(15) 0.1928(4)
C2 C 0.2972(5) 0.62401(18) 0.1081(4)
C3 C -0.0132(5) 0.69390(16) 0.2816(5)
H1 H 0.209(6) 0.6330(16) 0.008(5)
H2 H -0.084(5) 0.6903(17) 0.361(4)
H3 H 0.371(5) 0.5865(17) 0.100(4)
H4 H 0.401(5) 0.6620(17) 0.147(4)
H5 H -0.187(6) 0.5487(17) 0.081(5)
H6 H -0.145(6) 0.5341(17) 0.273(5)
H7 H 0.001(6) 0.5001(19) 0.176(4)
H8 H -0.127(6) 0.7065(19) 0.164(5)
H9 H 0.086(6) 0.734(2) 0.310(5)
loop_
_geom_bond_atom_site_label_1
_geom_bond_atom_site_label_2
_geom_bond_site_symmetry_1
_geom_bond_site_symmetry_2
Te1 F1 1_555 1_555
Si1 O1 1_555 1_555
F2 Te1 1_555 1_555
F3 Te1 1_555 1_555
F4 Te1 1_555 1_555
F5 Te1 1_555 1_555
O1 Te1 1_555 1_555
C1 Si1 1_555 1_555
C2 Si1 1_555 1_555
C3 Si1 1_555 1_555
H1 C2 1_555 1_555
H2 C3 1_555 1_555
H3 C2 1_555 1_555
H4 C2 1_555 1_555
H5 C1 1_555 1_555
H6 C1 1_555 1_555
H7 C1 1_555 1_555
H8 C3 1_555 1_555
H9 C3 1_555 1_555

#END
