
#######################################################################
#
#                 Cambridge Crystallographic Data Centre
#                                CCDC 
#
#######################################################################
#
# If this CIF has been generated from an entry in the Cambridge 
# Structural Database, then it will include bibliographic, chemical, 
# crystal, experimental, refinement or atomic coordinate data resulting 
# from the CCDC's data processing and validation procedures.
#
#######################################################################

data_UFURES
_chemical_formula_moiety         'C22 H27 N1 O3 S1'
_chemical_name_systematic        
'Methyl 4-(1-(t-butylsulfinylamino)-3-phenylbut-3-enyl)benzoate'
_symmetry_cell_setting           orthorhombic
_symmetry_space_group_name_H-M   'P 21 21 21'
_symmetry_Int_Tables_number      19
_space_group_name_Hall           'P 2ac 2ab'
loop_
_symmetry_equiv_pos_site_id
_symmetry_equiv_pos_as_xyz
1 x,y,z
2 1/2+x,1/2-y,-z
3 -x,1/2+y,1/2-z
4 1/2-x,-y,1/2+z
_cell_length_a                   6.2640(1)
_cell_length_b                   16.5619(3)
_cell_length_c                   20.0492(5)
_cell_angle_alpha                90
_cell_angle_beta                 90
_cell_angle_gamma                90
_cell_volume                     2079.98
_exptl_crystal_colour            colorless
_exptl_crystal_description       needles
_chemical_melting_point          107-110deg.C
_cell_formula_units_Z            4
_exptl_crystal_recrystallization_method ether/petrol
loop_
_atom_site_label
_atom_site_type_symbol
_atom_site_fract_x
_atom_site_fract_y
_atom_site_fract_z
S1 S 0.60991(7) 0.87320(3) 0.82953(2)
O1 O 0.9040(2) 1.00696(9) 0.51201(6)
O2 O 0.3765(2) 0.88193(9) 0.84082(8)
O3 O 1.2354(2) 1.01200(10) 0.55469(6)
C1 C 0.8023(3) 1.01833(11) 0.76133(8)
C2 C 1.0224(3) 1.01011(11) 0.55983(9)
C3 C 0.7248(3) 1.02609(11) 0.83286(9)
H1 H 0.583(3) 1.0436(11) 0.8330(8)
C4 C 0.6749(3) 1.04559(12) 0.70926(9)
H2 H 0.533(3) 1.0674(11) 0.7188(8)
N1 N 0.7431(3) 0.94750(10) 0.86809(8)
H3 H 0.709(3) 0.9495(12) 0.9087(10)
C5 C 1.0041(3) 0.98693(12) 0.74724(9)
H4 H 1.093(4) 0.9674(12) 0.7823(10)
C6 C 0.7469(3) 1.04168(11) 0.64408(9)
H5 H 0.659(3) 1.0614(13) 0.6097(10)
C7 C 0.9501(3) 1.01276(11) 0.63039(8)
C8 C 1.0793(3) 0.98532(12) 0.68240(9)
H6 H 1.225(3) 0.9614(12) 0.6721(10)
C9 C 0.6990(3) 0.78838(13) 0.88221(10)
C10 C 0.5854(4) 0.71565(15) 0.85164(14)
H7 H 0.627(4) 0.6664(17) 0.8770(12)
H8 H 0.435(4) 0.7219(15) 0.8587(12)
H9 H 0.625(5) 0.7128(16) 0.8008(14)
C11 C 0.8608(3) 1.08804(12) 0.87082(9)
H10 H 1.012(3) 1.0751(12) 0.8664(9)
H11 H 0.829(3) 1.0827(11) 0.9173(10)
C12 C 1.3213(4) 1.00574(19) 0.48780(11)
H12 H 1.264(5) 1.048(2) 0.4601(15)
H13 H 1.275(4) 0.9492(15) 0.4706(11)
H14 H 1.469(5) 1.0113(15) 0.4921(11)
C13 C 0.9395(3) 0.78002(15) 0.87470(11)
H15 H 0.985(3) 0.7291(14) 0.8952(10)
H16 H 1.012(4) 0.8246(16) 0.8930(11)
H17 H 0.976(4) 0.7770(14) 0.8283(12)
C14 C 0.5079(4) 1.19020(14) 0.92236(10)
H18 H 0.549(4) 1.1402(15) 0.9443(12)
C15 C 0.6318(4) 1.21680(12) 0.86819(9)
C16 C 0.8266(4) 1.17349(13) 0.84682(9)
C17 C 0.6332(4) 0.80104(15) 0.95440(11)
H19 H 0.482(5) 0.8176(16) 0.9583(12)
H20 H 0.642(4) 0.7489(16) 0.9799(11)
H21 H 0.712(4) 0.8486(17) 0.9769(13)
C18 C 0.3367(4) 1.23402(15) 0.94589(12)
H22 H 0.258(4) 1.2162(15) 0.9861(13)
C19 C 0.2828(5) 1.30560(17) 0.91462(14)
H23 H 0.178(5) 1.339(2) 0.9315(15)
C20 C 0.3928(5) 1.33050(16) 0.85888(14)
H24 H 0.342(5) 1.3775(18) 0.8322(14)
C21 C 0.5656(4) 1.28709(14) 0.83610(12)
H25 H 0.645(4) 1.3023(15) 0.7947(11)
C22 C 0.9762(5) 1.20790(18) 0.80911(13)
H26 H 1.108(5) 1.1774(16) 0.7945(12)
H27 H 0.971(5) 1.266(2) 0.7942(15)
loop_
_geom_bond_atom_site_label_1
_geom_bond_atom_site_label_2
_geom_bond_site_symmetry_1
_geom_bond_site_symmetry_2
S1 O2 1_555 1_555
O1 C2 1_555 1_555
O3 C2 1_555 1_555
C1 C3 1_555 1_555
C2 C7 1_555 1_555
C3 H1 1_555 1_555
C4 C1 1_555 1_555
H2 C4 1_555 1_555
N1 S1 1_555 1_555
H3 N1 1_555 1_555
C5 C1 1_555 1_555
H4 C5 1_555 1_555
C6 C4 1_555 1_555
H5 C6 1_555 1_555
C7 C6 1_555 1_555
C8 C5 1_555 1_555
H6 C8 1_555 1_555
C9 S1 1_555 1_555
C10 C9 1_555 1_555
H7 C10 1_555 1_555
H8 C10 1_555 1_555
H9 C10 1_555 1_555
C11 C3 1_555 1_555
H10 C11 1_555 1_555
H11 C11 1_555 1_555
C12 O3 1_555 1_555
H12 C12 1_555 1_555
H13 C12 1_555 1_555
H14 C12 1_555 1_555
C13 C9 1_555 1_555
H15 C13 1_555 1_555
H16 C13 1_555 1_555
H17 C13 1_555 1_555
C14 H18 1_555 1_555
C15 C14 1_555 1_555
C16 C11 1_555 1_555
C17 C9 1_555 1_555
H19 C17 1_555 1_555
H20 C17 1_555 1_555
H21 C17 1_555 1_555
C18 C14 1_555 1_555
H22 C18 1_555 1_555
C19 C18 1_555 1_555
H23 C19 1_555 1_555
C20 C19 1_555 1_555
H24 C20 1_555 1_555
C21 C15 1_555 1_555
H25 C21 1_555 1_555
C22 C16 1_555 1_555
H26 C22 1_555 1_555
H27 C22 1_555 1_555
C3 N1 1_555 1_555
C7 C8 1_555 1_555
C15 C16 1_555 1_555
C20 C21 1_555 1_555

#END
