
#######################################################################
#
#                 Cambridge Crystallographic Data Centre
#                                CCDC 
#
#######################################################################
#
# If this CIF has been generated from an entry in the Cambridge 
# Structural Database, then it will include bibliographic, chemical, 
# crystal, experimental, refinement or atomic coordinate data resulting 
# from the CCDC's data processing and validation procedures.
#
#######################################################################

data_UFUVOH
_chemical_formula_moiety         'C17 H21 N2 1+,C4 H5 O6 1-,C2 H3 N1'
_chemical_name_systematic        
'(S)-1-Benzyl-2-(2-pyridinyl)piperidinium D-tartrate acetonitrile solvate'
_symmetry_cell_setting           orthorhombic
_symmetry_space_group_name_H-M   'P 21 21 21'
_symmetry_Int_Tables_number      19
_space_group_name_Hall           'P 2ac 2ab'
loop_
_symmetry_equiv_pos_site_id
_symmetry_equiv_pos_as_xyz
1 x,y,z
2 1/2-x,-y,1/2+z
3 -x,1/2+y,1/2-z
4 1/2+x,1/2-y,-z
_cell_length_a                   8.3905(9)
_cell_length_b                   14.2190(14)
_cell_length_c                   19.911(2)
_cell_angle_alpha                90
_cell_angle_beta                 90
_cell_angle_gamma                90
_cell_volume                     2375.47
_cell_formula_units_Z            4
loop_
_atom_site_label
_atom_site_type_symbol
_atom_site_fract_x
_atom_site_fract_y
_atom_site_fract_z
O1 O 0.8330(3) 0.14960(17) 0.15988(13)
O2 O 1.0424(3) 0.12860(17) 0.22738(15)
O3 O 0.8186(4) 0.33258(17) 0.18232(15)
H1 H 0.7493 0.2940 0.1694
O4 O 0.8272(3) 0.24671(16) 0.32038(15)
H2 H 0.7547 0.2825 0.3342
O5 O 1.0240(3) 0.45852(17) 0.27354(15)
H3 H 0.9957 0.5150 0.2771
O6 O 0.8058(3) 0.42965(17) 0.33504(15)
C18 C 0.9383(5) 0.1785(3) 0.1983(2)
C19 C 0.9453(5) 0.2838(2) 0.2128(2)
H25 H 1.0472 0.3087 0.1938
C20 C 0.9475(5) 0.3008(2) 0.2883(2)
H26 H 1.0540 0.2825 0.3066
C21 C 0.9186(5) 0.4047(3) 0.3020(2)
N1 N 0.5524(3) 0.0551(2) 0.17081(14)
H4 H 0.6403 0.0875 0.1694
N2 N 0.5123(4) 0.2612(2) 0.13152(17)
C1 C 0.4176(4) 0.1221(3) 0.18853(19)
H5 H 0.3169 0.0846 0.1908
C2 C 0.4468(5) 0.1646(3) 0.25747(19)
H6 H 0.5432 0.2047 0.2557
H7 H 0.3553 0.2051 0.2697
C3 C 0.4688(6) 0.0897(3) 0.3110(2)
H8 H 0.4930 0.1198 0.3547
H9 H 0.3691 0.0531 0.3161
C4 C 0.6040(5) 0.0244(3) 0.29153(19)
H10 H 0.6150 -0.0259 0.3256
H11 H 0.7053 0.0600 0.2901
C5 C 0.5717(5) -0.0194(3) 0.22304(19)
H12 H 0.6614 -0.0612 0.2106
H13 H 0.4736 -0.0580 0.2253
C6 C 0.5254(5) 0.0133(3) 0.10223(18)
H14 H 0.5341 0.0639 0.0683
H15 H 0.4155 -0.0118 0.1002
C7 C 0.6401(5) -0.0644(3) 0.08383(19)
C8 C 0.7991(5) -0.0463(3) 0.07101(19)
H16 H 0.8391 0.0158 0.0758
C9 C 0.9004(5) -0.1178(3) 0.0513(2)
H17 H 1.0088 -0.1045 0.0413
C10 C 0.8438(6) -0.2082(3) 0.0461(2)
H18 H 0.9135 -0.2576 0.0333
C11 C 0.6868(6) -0.2270(3) 0.0595(2)
H19 H 0.6480 -0.2895 0.0556
C12 C 0.5848(5) -0.1558(3) 0.0787(2)
H20 H 0.4764 -0.1696 0.0884
C13 C 0.3968(5) 0.1962(3) 0.1351(2)
C14 C 0.2647(6) 0.1958(3) 0.0942(2)
H21 H 0.1872 0.1473 0.0975
C15 C 0.2480(8) 0.2685(5) 0.0479(3)
H22 H 0.1573 0.2717 0.0194
C16 C 0.3637(10) 0.3347(4) 0.0444(3)
H23 H 0.3548 0.3850 0.0132
C17 C 0.4936(7) 0.3289(4) 0.0858(2)
H24 H 0.5744 0.3754 0.0817
N3 N 0.7650(6) 0.5181(3) 0.0288(2)
C22 C 0.8698(7) 0.5241(3) 0.0635(2)
C23 C 1.0042(6) 0.5342(4) 0.1088(2)
H27 H 0.9994 0.5958 0.1307
H28 H 1.1038 0.5290 0.0833
H29 H 1.0002 0.4846 0.1429
loop_
_geom_bond_atom_site_label_1
_geom_bond_atom_site_label_2
_geom_bond_site_symmetry_1
_geom_bond_site_symmetry_2
O1 C18 1_555 1_555
O2 C18 1_555 1_555
O3 H1 1_555 1_555
O4 H2 1_555 1_555
O5 H3 1_555 1_555
O6 C21 1_555 1_555
N1 H4 1_555 1_555
N2 C13 1_555 1_555
C1 N1 1_555 1_555
H5 C1 1_555 1_555
C2 C1 1_555 1_555
H6 C2 1_555 1_555
H7 C2 1_555 1_555
C3 C2 1_555 1_555
H8 C3 1_555 1_555
H9 C3 1_555 1_555
C4 C3 1_555 1_555
H10 C4 1_555 1_555
H11 C4 1_555 1_555
C5 N1 1_555 1_555
H12 C5 1_555 1_555
H13 C5 1_555 1_555
C6 N1 1_555 1_555
H14 C6 1_555 1_555
H15 C6 1_555 1_555
C7 C6 1_555 1_555
C8 C7 1_555 1_555
H16 C8 1_555 1_555
C9 C8 1_555 1_555
H17 C9 1_555 1_555
C10 C9 1_555 1_555
H18 C10 1_555 1_555
C11 C10 1_555 1_555
H19 C11 1_555 1_555
C12 C7 1_555 1_555
H20 C12 1_555 1_555
C13 C1 1_555 1_555
C14 C13 1_555 1_555
H21 C14 1_555 1_555
C15 C14 1_555 1_555
H22 C15 1_555 1_555
C16 C15 1_555 1_555
H23 C16 1_555 1_555
C17 N2 1_555 1_555
H24 C17 1_555 1_555
C18 C19 1_555 1_555
C19 O3 1_555 1_555
H25 C19 1_555 1_555
C20 O4 1_555 1_555
H26 C20 1_555 1_555
C21 O5 1_555 1_555
N3 C22 1_555 1_555
C22 C23 1_555 1_555
C23 H27 1_555 1_555
H28 C23 1_555 1_555
H29 C23 1_555 1_555
C4 C5 1_555 1_555
C11 C12 1_555 1_555
C16 C17 1_555 1_555
C19 C20 1_555 1_555
C20 C21 1_555 1_555

#END
