
#######################################################################
#
#                 Cambridge Crystallographic Data Centre
#                                CCDC 
#
#######################################################################
#
# If this CIF has been generated from an entry in the Cambridge 
# Structural Database, then it will include bibliographic, chemical, 
# crystal, experimental, refinement or atomic coordinate data resulting 
# from the CCDC's data processing and validation procedures.
#
#######################################################################

data_UFUXAU
_chemical_formula_moiety         'C21 H33 Li1 N1 O3 P1'
_chemical_name_systematic        
(2,5-Dimethyl-1H-1,3-benzazaphospholyl)-tris(tetrahydrofuran)-lithium
_symmetry_cell_setting           monoclinic
_symmetry_space_group_name_H-M   'P 21/n'
_symmetry_Int_Tables_number      14
_space_group_name_Hall           '-P 2yn'
loop_
_symmetry_equiv_pos_site_id
_symmetry_equiv_pos_as_xyz
1 x,y,z
2 1/2+x,1/2-y,1/2+z
3 -x,-y,-z
4 1/2-x,1/2+y,1/2-z
_cell_length_a                   11.512(2)
_cell_length_b                   23.741(5)
_cell_length_c                   16.565(3)
_cell_angle_alpha                90
_cell_angle_beta                 92.13(3)
_cell_angle_gamma                90
_cell_volume                     4524.19
_exptl_crystal_colour            orange
_exptl_crystal_description       prism
_cell_formula_units_Z            8
loop_
_atom_site_label
_atom_site_type_symbol
_atom_site_fract_x
_atom_site_fract_y
_atom_site_fract_z
C1 C 0.2905(4) 0.2014(2) 0.7390(3)
C2 C 0.1796(4) 0.1987(2) 0.7748(3)
C3 C 0.0873(4) 0.1735(2) 0.7294(3)
H1 H 0.0135(4) 0.1710(2) 0.7530(3)
C4 C 0.0989(4) 0.1524(2) 0.6523(3)
C5 C 0.2093(5) 0.1563(2) 0.6192(3)
H2 H 0.2200(5) 0.1423(2) 0.5663(3)
C6 C 0.3023(4) 0.1800(2) 0.6614(3)
H3 H 0.3758(4) 0.1817(2) 0.6373(3)
C7 C -0.0032(5) 0.1281(2) 0.6034(3)
H4 H 0.0230(5) 0.1155(2) 0.5508(3)
H5 H -0.0631(5) 0.1571(2) 0.5954(3)
H6 H -0.0355(5) 0.0961(2) 0.6324(3)
C8 C 0.4131(5) 0.2748(2) 0.9175(3)
H7 H 0.3694(5) 0.2850(2) 0.9650(3)
H8 H 0.4442(5) 0.3089(2) 0.8930(3)
H9 H 0.4774(5) 0.2497(2) 0.9339(3)
C9 C 0.3331(4) 0.2448(2) 0.8565(3)
C19 C 0.6440(5) 0.1521(2) 0.5452(3)
H19 H 0.5909(5) 0.1547(2) 0.4969(3)
H20 H 0.7240(5) 0.1456(2) 0.5272(3)
C20 C 0.6390(5) 0.2051(2) 0.5940(3)
H21 H 0.7148(5) 0.2248(2) 0.5942(3)
H22 H 0.5786(5) 0.2307(2) 0.5708(3)
C21 C 0.6082(6) 0.1061(2) 0.5979(4)
H23 H 0.5259(6) 0.0958(2) 0.5862(4)
H24 H 0.6573(6) 0.0724(2) 0.5906(4)
C22 C 0.6237(6) 0.1284(2) 0.6799(4)
H25 H 0.5641(6) 0.1127(2) 0.7152(4)
H26 H 0.7016(6) 0.1183(2) 0.7029(4)
C23 C 0.8315(6) 0.2074(3) 0.9249(4)
H27 H 0.9098(6) 0.1916(3) 0.9169(4)
H28 H 0.8031(6) 0.1937(3) 0.9771(4)
C24 C 0.7498(6) 0.1917(2) 0.8572(4)
H29 H 0.7934(6) 0.1812(2) 0.8090(4)
H30 H 0.7016(6) 0.1592(2) 0.8727(4)
C25 C 0.8342(5) 0.2699(3) 0.9229(4)
H31 H 0.8130(5) 0.2854(3) 0.9759(4)
H32 H 0.9133(5) 0.2833(3) 0.9110(4)
C26 C 0.5974(4) 0.3808(2) 0.6091(3)
H33 H 0.6087(4) 0.3603(2) 0.5580(3)
H34 H 0.6353(4) 0.4181(2) 0.6062(3)
C27 C 0.6452(4) 0.3476(2) 0.6806(3)
H35 H 0.7104(4) 0.3233(2) 0.6647(3)
H36 H 0.6731(4) 0.3731(2) 0.7244(3)
C28 C 0.4698(4) 0.3868(2) 0.6253(3)
H37 H 0.4558(4) 0.4188(2) 0.6620(3)
H38 H 0.4231(4) 0.3921(2) 0.5745(3)
Li1 Li 0.5461(7) 0.2401(3) 0.7571(4)
N2 N 0.3771(3) 0.22716(15) 0.7862(2)
O1 O 0.6117(3) 0.18926(13) 0.6739(2)
O2 O 0.6770(3) 0.24032(13) 0.8398(2)
O3 O 0.5485(2) 0.31369(12) 0.7065(2)
P1 P 0.18690(13) 0.23130(6) 0.87154(8)
C47 C 0.7156(6) 0.2858(3) 0.8928(5)
H75 H 0.6629(6) 0.2899(3) 0.9383(5)
H76 H 0.7174(6) 0.3218(3) 0.8628(5)
C48 C 0.4415(5) 0.3313(2) 0.6647(4)
H77 H 0.3786(5) 0.3361(2) 0.7033(4)
H78 H 0.4166(5) 0.3031(2) 0.6235(4)
C10 C -0.0882(4) 0.0211(2) 0.7757(3)
H10 H -0.0150(4) 0.0226(2) 0.7511(3)
C11 C -0.1826(4) -0.0023(2) 0.7314(3)
C12 C -0.2923(4) -0.0032(2) 0.7688(3)
C13 C -0.3020(5) 0.0184(2) 0.8466(3)
H11 H -0.3751(5) 0.0182(2) 0.8713(3)
C14 C -0.2053(5) 0.0401(2) 0.8877(3)
H12 H -0.2130(5) 0.0542(2) 0.9409(3)
C15 C -0.0958(5) 0.0420(2) 0.8530(3)
C16 C 0.0099(5) 0.0647(2) 0.9007(3)
H13 H -0.0137(5) 0.0775(2) 0.9539(3)
H14 H 0.0430(5) 0.0964(2) 0.8714(3)
H15 H 0.0683(5) 0.0349(2) 0.9074(3)
C17 C -0.4229(5) -0.0726(3) 0.5890(3)
H16 H -0.3802(5) -0.0832(3) 0.5413(3)
H17 H -0.4849(5) -0.0460(3) 0.5733(3)
H18 H -0.4570(5) -0.1063(3) 0.6128(3)
C18 C -0.3407(5) -0.0450(2) 0.6504(3)
Li2 Li -0.5475(8) -0.0403(4) 0.7576(6)
N1 N -0.3825(3) -0.0268(2) 0.7219(3)
O4 O -0.5477(3) -0.11342(15) 0.8142(2)
C29 C -0.4602(5) -0.1952(2) 0.8670(4)
H39 H -0.4399(5) -0.2345(2) 0.8535(4)
H40 H -0.4026(5) -0.1803(2) 0.9074(4)
C30 C -0.5807(4) -0.1909(2) 0.8958(4)
H41 H -0.6182(4) -0.2283(2) 0.8987(4)
H42 H -0.5824(4) -0.1724(2) 0.9493(4)
C31 C -0.7604(5) -0.0834(2) 0.6666(3)
H43 H -0.7920(5) -0.0817(2) 0.7213(3)
H44 H -0.7377(5) -0.1227(2) 0.6548(3)
C32 C -0.8460(6) -0.0617(3) 0.6044(4)
H45 H -0.8338(6) -0.0797(3) 0.5514(4)
H46 H -0.9264(6) -0.0695(3) 0.6203(4)
C33 C -0.8255(5) 0.0002(3) 0.5996(4)
H47 H -0.8568(5) 0.0165(3) 0.5482(4)
H48 H -0.8580(5) 0.0206(3) 0.6458(4)
O5 O -0.6081(3) 0.0141(2) 0.8377(2)
C34 C -0.6537(6) 0.0038(3) 0.9168(3)
H49 H -0.6041(6) -0.0235(3) 0.9474(3)
H50 H -0.7337(6) -0.0114(3) 0.9118(3)
C35 C -0.6528(6) 0.0600(3) 0.9586(4)
H51 H -0.7331(6) 0.0750(3) 0.9561(4)
H52 H -0.6310(6) 0.0538(3) 1.0163(4)
P2 P -0.19406(13) -0.03383(6) 0.63462(8)
C37 C -0.6141(10) 0.0955(4) 0.8892(4)
H55 H -0.6523(10) 0.1328(4) 0.8917(4)
H56 H -0.5291(10) 0.1015(4) 0.8951(4)
C39 C -0.6420(10) 0.0694(3) 0.8080(5)
H59 H -0.7253(10) 0.0720(3) 0.7913(5)
H60 H -0.5925(10) 0.0835(3) 0.7648(5)
O6 O -0.6634(4) -0.0453(2) 0.6594(4)
C40 C -0.6959(6) -0.0006(4) 0.6038(5)
H61 H -0.6652(6) -0.0080(4) 0.5498(5)
H62 H -0.6649(6) 0.0360(4) 0.6236(5)
C43 C -0.4343(5) -0.1402(3) 0.8285(6)
H67 H -0.3838(5) -0.1169(3) 0.8647(6)
H68 H -0.3950(5) -0.1460(3) 0.7770(6)
C44 C -0.6368(5) -0.1553(3) 0.8315(4)
H69 H -0.6574(5) -0.1780(3) 0.7828(4)
H70 H -0.7078(5) -0.1370(3) 0.8508(4)
C36? C -0.5738(11) 0.1047(4) 0.9268(6)
H53? H -0.4947(11) 0.1048(4) 0.9523(6)
H54? H -0.6079(11) 0.1429(4) 0.9253(6)
C38? C -0.5835(12) 0.0737(3) 0.8475(7)
H57? H -0.6441(12) 0.0936(3) 0.8146(7)
H58? H -0.5093(12) 0.0804(3) 0.8208(7)
O7? O -0.6895(6) -0.0380(2) 0.6994(5)
C41? C -0.7355(10) 0.0134(4) 0.6639(7)
H63? H -0.6717(10) 0.0352(4) 0.6405(7)
H64? H -0.7703(10) 0.0367(4) 0.7063(7)
C42? C -0.4686(11) -0.1591(4) 0.7936(5)
H65? H -0.3913(11) -0.1440(4) 0.7807(5)
H66? H -0.5001(11) -0.1807(4) 0.7467(5)
C45? C -0.6293(9) -0.1349(4) 0.8726(8)
H71? H -0.7084(9) -0.1386(4) 0.8476(8)
H72? H -0.6325(9) -0.1097(4) 0.9201(8)
C46? C 0.7495(12) 0.2888(3) 0.8588(9)
H73? H 0.7020(12) 0.3204(3) 0.8783(9)
H74? H 0.7904(12) 0.3014(3) 0.8104(9)
C49? C 0.4558(9) 0.3551(4) 0.7034(5)
H79? H 0.4630(9) 0.3810(4) 0.7502(5)
H80? H 0.3789(9) 0.3364(4) 0.7038(5)
loop_
_geom_bond_atom_site_label_1
_geom_bond_atom_site_label_2
_geom_bond_site_symmetry_1
_geom_bond_site_symmetry_2
C1 C2 1_555 1_555
C2 C3 1_555 1_555
C3 H1 1_555 1_555
C4 C3 1_555 1_555
C5 C4 1_555 1_555
H2 C5 1_555 1_555
C6 C1 1_555 1_555
H3 C6 1_555 1_555
C7 C4 1_555 1_555
H4 C7 1_555 1_555
H5 C7 1_555 1_555
H6 C7 1_555 1_555
C8 H7 1_555 1_555
H8 C8 1_555 1_555
H9 C8 1_555 1_555
C9 C8 1_555 1_555
C10 H10 1_555 1_555
C11 C10 1_555 1_555
C12 C11 1_555 1_555
C13 C12 1_555 1_555
H11 C13 1_555 1_555
C14 C13 1_555 1_555
H12 C14 1_555 1_555
C15 C10 1_555 1_555
C16 C15 1_555 1_555
H13 C16 1_555 1_555
H14 C16 1_555 1_555
H15 C16 1_555 1_555
C17 H16 1_555 1_555
H17 C17 1_555 1_555
H18 C17 1_555 1_555
C18 C17 1_555 1_555
C19 H19 1_555 1_555
H20 C19 1_555 1_555
C20 C19 1_555 1_555
H21 C20 1_555 1_555
H22 C20 1_555 1_555
C21 C19 1_555 1_555
H23 C21 1_555 1_555
H24 C21 1_555 1_555
C22 C21 1_555 1_555
H25 C22 1_555 1_555
H26 C22 1_555 1_555
C23 H27 1_555 1_555
H28 C23 1_555 1_555
C24 C23 1_555 1_555
H29 C24 1_555 1_555
H30 C24 1_555 1_555
C25 C23 1_555 1_555
H31 C25 1_555 1_555
H32 C25 1_555 1_555
C26 H33 1_555 1_555
H34 C26 1_555 1_555
C27 C26 1_555 1_555
H35 C27 1_555 1_555
H36 C27 1_555 1_555
C28 C26 1_555 1_555
H37 C28 1_555 1_555
H38 C28 1_555 1_555
Li1 N2 1_555 1_555
Li2 N1 1_555 1_555
N1 C12 1_555 1_555
N2 C1 1_555 1_555
O1 C20 1_555 1_555
O2 C24 1_555 1_555
O3 C27 1_555 1_555
O4 Li2 1_555 1_555
C29 H39 1_555 1_555
H40 C29 1_555 1_555
C30 C29 1_555 1_555
H41 C30 1_555 1_555
H42 C30 1_555 1_555
C31 H43 1_555 1_555
H44 C31 1_555 1_555
C32 C31 1_555 1_555
H45 C32 1_555 1_555
H46 C32 1_555 1_555
C33 C32 1_555 1_555
H47 C33 1_555 1_555
H48 C33 1_555 1_555
O5 Li2 1_555 1_555
C34 O5 1_555 1_555
H49 C34 1_555 1_555
H50 C34 1_555 1_555
C35 C34 1_555 1_555
H51 C35 1_555 1_555
H52 C35 1_555 1_555
P1 C2 1_555 1_555
P2 C11 1_555 1_555
C37 C35 1_555 1_555
H55 C37 1_555 1_555
H56 C37 1_555 1_555
C39 O5 1_555 1_555
H59 C39 1_555 1_555
H60 C39 1_555 1_555
O6 Li2 1_555 1_555
C40 C33 1_555 1_555
H61 C40 1_555 1_555
H62 C40 1_555 1_555
C43 O4 1_555 1_555
H67 C43 1_555 1_555
H68 C43 1_555 1_555
C44 O4 1_555 1_555
H69 C44 1_555 1_555
H70 C44 1_555 1_555
C47 C25 1_555 1_555
H75 C47 1_555 1_555
H76 C47 1_555 1_555
C48 C28 1_555 1_555
H77 C48 1_555 1_555
H78 C48 1_555 1_555
C5 C6 1_555 1_555
C9 N2 1_555 1_555
C9 P1 1_555 1_555
C14 C15 1_555 1_555
C18 N1 1_555 1_555
C18 P2 1_555 1_555
C22 O1 1_555 1_555
Li1 O1 1_555 1_555
Li1 O2 1_555 1_555
Li1 O3 1_555 1_555
O2 C47 1_555 1_555
O3 C48 1_555 1_555
C29 C43 1_555 1_555
C30 C44 1_555 1_555
C31 O6 1_555 1_555
C37 C39 1_555 1_555
O6 C40 1_555 1_555

#END
