
#######################################################################
#
#                 Cambridge Crystallographic Data Centre
#                                CCDC 
#
#######################################################################
#
# If this CIF has been generated from an entry in the Cambridge 
# Structural Database, then it will include bibliographic, chemical, 
# crystal, experimental, refinement or atomic coordinate data resulting 
# from the CCDC's data processing and validation procedures.
#
#######################################################################

data_UFUYOK
_chemical_formula_moiety         'C23 H18 N4 O1'
_chemical_name_systematic        (Z,Z)-1,3-Diphenyl-1,3-bis(2-pyridinyl)urea
_symmetry_cell_setting           orthorhombic
_symmetry_space_group_name_H-M   'P b c n'
_symmetry_Int_Tables_number      60
_space_group_name_Hall           '-P 2n 2ab'
loop_
_symmetry_equiv_pos_site_id
_symmetry_equiv_pos_as_xyz
1 x,y,z
2 1/2-x,1/2-y,1/2+z
3 -x,y,1/2-z
4 1/2+x,1/2-y,-z
5 -x,-y,-z
6 1/2+x,1/2+y,1/2-z
7 x,-y,1/2+z
8 1/2-x,1/2+y,z
_cell_length_a                   11.3440(2)
_cell_length_b                   11.7670(2)
_cell_length_c                   14.1680(3)
_cell_angle_alpha                90
_cell_angle_beta                 90
_cell_angle_gamma                90
_cell_volume                     1891.21
_chemical_melting_point          '228-230 deg.C'
_cell_formula_units_Z            4
_exptl_crystal_recrystallization_method 'dichloromethane/ethyl acetate'
loop_
_atom_site_label
_atom_site_type_symbol
_atom_site_fract_x
_atom_site_fract_y
_atom_site_fract_z
O1 O 0.5000 0.10555(12) 0.2500
N1 N 0.52764(11) 0.27221(10) 0.17032(8)
N2 N 0.67788(12) 0.38657(11) 0.23480(10)
C1 C 0.5000 0.2090(2) 0.2500
C2 C 0.58496(13) 0.37969(12) 0.17678(9)
C3 C 0.5434(2) 0.47032(13) 0.12424(12)
H1 H 0.4762(2) 0.46016(13) 0.08387(12)
C4 C 0.6007(2) 0.57359(14) 0.13244(14)
H2 H 0.5752(2) 0.63737(14) 0.09544(14)
C5 C 0.6946(2) 0.5832(2) 0.19294(14)
H3 H 0.7335(2) 0.6551(2) 0.20037(14)
C6 C 0.7303(2) 0.48933(15) 0.24223(13)
H4 H 0.7964(2) 0.49805(15) 0.28389(13)
C7 C 0.51485(13) 0.22003(12) 0.07929(10)
C8 C 0.6065(2) 0.22383(15) 0.01655(12)
H5 H 0.6788(2) 0.26064(15) 0.03396(12)
C9 C 0.5934(2) 0.1743(2) -0.07138(13)
H6 H 0.6566(2) 0.1785(2) -0.11634(13)
C10 C 0.4916(2) 0.1202(2) -0.09578(13)
H7 H 0.4842(2) 0.0853(2) -0.15673(13)
C11 C 0.4002(2) 0.11658(15) -0.03243(13)
H8 H 0.3287(2) 0.07738(15) -0.04853(13)
C12 C 0.41032(15) 0.16765(14) 0.05540(11)
H9 H 0.34572(15) 0.16795(14) 0.09916(11)
N1B N 0.47236(11) 0.27221(10) 0.32968(8)
N2B N 0.32212(12) 0.38657(11) 0.26520(10)
C2B C 0.41504(13) 0.37969(12) 0.32322(9)
C3B C 0.4566(2) 0.47032(13) 0.37576(12)
H1B H 0.5238(2) 0.46016(13) 0.41613(12)
C4B C 0.3993(2) 0.57359(14) 0.36756(14)
H2B H 0.4248(2) 0.63737(14) 0.40456(14)
C5B C 0.3054(2) 0.5832(2) 0.30706(14)
H3B H 0.2665(2) 0.6551(2) 0.29963(14)
C6B C 0.2697(2) 0.48933(15) 0.25777(13)
H4B H 0.2036(2) 0.49805(15) 0.21611(13)
C7B C 0.48515(13) 0.22003(12) 0.42071(10)
C8B C 0.3935(2) 0.22383(15) 0.48345(12)
H5B H 0.3212(2) 0.26064(15) 0.46604(12)
C9B C 0.4066(2) 0.1743(2) 0.57138(13)
H6B H 0.3434(2) 0.1785(2) 0.61634(13)
C10B C 0.5084(2) 0.1202(2) 0.59578(13)
H7B H 0.5158(2) 0.0853(2) 0.65673(13)
C11B C 0.5998(2) 0.11658(15) 0.53243(13)
H8B H 0.6713(2) 0.07738(15) 0.54853(13)
C12B C 0.58968(15) 0.16765(14) 0.44460(11)
H9B H 0.65428(15) 0.16795(14) 0.40084(11)
loop_
_geom_bond_atom_site_label_1
_geom_bond_atom_site_label_2
_geom_bond_site_symmetry_1
_geom_bond_site_symmetry_2
O1 C1 1_555 1_555
N1 C1 1_555 1_555
N2 C2 1_555 1_555
C1 N1B 1_555 1_555
C2 N1 1_555 1_555
C3 C2 1_555 1_555
H1 C3 1_555 1_555
C4 C3 1_555 1_555
H2 C4 1_555 1_555
C5 C4 1_555 1_555
H3 C5 1_555 1_555
C6 N2 1_555 1_555
H4 C6 1_555 1_555
C7 N1 1_555 1_555
C8 C7 1_555 1_555
H5 C8 1_555 1_555
C9 C8 1_555 1_555
H6 C9 1_555 1_555
C10 C9 1_555 1_555
H7 C10 1_555 1_555
C11 C10 1_555 1_555
H8 C11 1_555 1_555
C12 C7 1_555 1_555
H9 C12 1_555 1_555
N1B C2B 1_555 1_555
N2B C2B 1_555 1_555
C2B C3B 1_555 1_555
C3B H1B 1_555 1_555
C4B C3B 1_555 1_555
H2B C4B 1_555 1_555
C5B C4B 1_555 1_555
H3B C5B 1_555 1_555
C6B N2B 1_555 1_555
H4B C6B 1_555 1_555
C7B N1B 1_555 1_555
C8B C7B 1_555 1_555
H5B C8B 1_555 1_555
C9B C8B 1_555 1_555
H6B C9B 1_555 1_555
C10B C9B 1_555 1_555
H7B C10B 1_555 1_555
C11B C10B 1_555 1_555
H8B C11B 1_555 1_555
C12B C7B 1_555 1_555
H9B C12B 1_555 1_555
C5 C6 1_555 1_555
C11 C12 1_555 1_555
C5B C6B 1_555 1_555
C11B C12B 1_555 1_555

#END
