
#######################################################################
#
#                 Cambridge Crystallographic Data Centre
#                                CCDC 
#
#######################################################################
#
# If this CIF has been generated from an entry in the Cambridge 
# Structural Database, then it will include bibliographic, chemical, 
# crystal, experimental, refinement or atomic coordinate data resulting 
# from the CCDC's data processing and validation procedures.
#
#######################################################################

data_UFUYEC
_chemical_formula_moiety         'C13 H30 B2 O4 Si2'
_chemical_name_systematic        
'[bis(1,3,2-dioxaborinan-2-yl)methylene]bis(trimethylsilane)'
_symmetry_cell_setting           monoclinic
_symmetry_space_group_name_H-M   'P 21/c'
_symmetry_Int_Tables_number      14
_space_group_name_Hall           '-P 2ybc'
loop_
_symmetry_equiv_pos_site_id
_symmetry_equiv_pos_as_xyz
1 x,y,z
2 -x,1/2+y,1/2-z
3 -x,-y,-z
4 x,1/2-y,1/2+z
_cell_length_a                   14.0978(5)
_cell_length_b                   10.2157(4)
_cell_length_c                   26.8971(10)
_cell_angle_alpha                90
_cell_angle_beta                 103.2000(10)
_cell_angle_gamma                90
_cell_volume                     3771.34
_exptl_crystal_colour            colorless
_exptl_crystal_description       plate
_cell_formula_units_Z            8
loop_
_atom_site_label
_atom_site_type_symbol
_atom_site_fract_x
_atom_site_fract_y
_atom_site_fract_z
C1 C 0.01650(9) 0.70784(12) 0.36756(5)
C2 C -0.18457(12) 0.44531(17) 0.32367(9)
H1 H -0.2333 0.4515 0.2908
H2 H -0.2199 0.4271 0.3508
C3 C -0.11637(12) 0.33528(16) 0.32113(7)
H3 H -0.0896 0.3448 0.2903
H4 H -0.1518 0.251 0.3187
C4 C -0.03516(12) 0.33573(14) 0.36777(7)
H5 H -0.0613 0.3152 0.398
H6 H 0.0127 0.267 0.3646
C5 C -0.09593(13) 0.77857(17) 0.25720(6)
H7 H -0.1554 0.7266 0.254
H8 H -0.0449 0.7242 0.2484
H9 H -0.1092 0.8536 0.2339
C6 C 0.02573(15) 0.98292(16) 0.32103(8)
H10 H 0.0826 0.9547 0.3086
H11 H 0.0474 1.0213 0.3551
H12 H -0.0109 1.0484 0.2977
C7 C -0.16384(13) 0.89979(19) 0.34566(7)
H13 H -0.2002 0.9606 0.3201
H14 H -0.1428 0.9452 0.3784
H15 H -0.2057 0.8258 0.3496
C8 C 0.12695(16) 0.62723(19) 0.47593(7)
H16 H 0.1913 0.6511 0.4708
H17 H 0.1117 0.537 0.4645
H18 H 0.127 0.6344 0.5123
C9 C 0.07116(12) 0.91175(16) 0.45742(6)
H19 H 0.0796 0.9213 0.4944
H20 H 0.021 0.9728 0.4399
H21 H 0.1329 0.931 0.448
C10 C -0.08360(15) 0.7078(3) 0.45842(7)
H22 H -0.0733 0.7206 0.4954
H23 H -0.1044 0.6175 0.4498
H24 H -0.134 0.7683 0.4406
B1 B -0.03730(10) 0.57199(14) 0.35758(6)
B2 B 0.11958(10) 0.70173(14) 0.35426(6)
O1 O -0.13405(7) 0.56811(10) 0.33410(5)
O2 O 0.01269(7) 0.46043(9) 0.37481(4)
Si1 Si -0.05443(3) 0.83828(4) 0.32431(2)
Si2 Si 0.03306(3) 0.74037(4) 0.43828(2)
O3 O 0.13127(7) 0.63054(12) 0.31343(4)
C11 C 0.22499(11) 0.6207(2) 0.30114(6)
H25 H 0.2267 0.6803 0.2723
H26 H 0.234 0.5302 0.2898
O4 O 0.1921(3) 0.7826(3) 0.37954(17)
C12 C 0.30757(14) 0.6543(3) 0.34532(9)
H27 H 0.3693 0.6592 0.3338
H28 H 0.3145 0.5858 0.372
C13 C 0.2862(3) 0.7847(3) 0.36678(16)
H29 H 0.3373 0.8047 0.3977
H30 H 0.2872 0.8543 0.3413
C16 C 0.49506(8) 0.25925(11) 0.37552(4)
C17 C 0.61898(12) 0.59852(14) 0.37299(6)
H37 H 0.5694 0.6656 0.3589
H38 H 0.6767 0.6141 0.3586
C18 C 0.64739(11) 0.61092(15) 0.43006(6)
H39 H 0.6712 0.7006 0.4398
H40 H 0.7002 0.5483 0.4443
C19 C 0.55899(15) 0.58201(17) 0.45086(7)
H41 H 0.5772 0.5833 0.4887
H42 H 0.509 0.6503 0.4393
C20 C 0.39933(12) 0.07346(16) 0.28713(6)
H43 H 0.3358 0.085 0.2956
H44 H 0.4332 -0.0011 0.3062
H45 H 0.3898 0.0572 0.2504
C21 C 0.58990(11) 0.20662(16) 0.28239(6)
H46 H 0.5747 0.1977 0.2451
H47 H 0.6246 0.1284 0.298
H48 H 0.6311 0.2839 0.2924
C22 C 0.40334(12) 0.36046(17) 0.26617(6)
H49 H 0.4387 0.4432 0.2742
H50 H 0.3394 0.3677 0.2744
H51 H 0.3948 0.3411 0.2297
C23 C 0.58922(17) 0.1695(2) 0.48602(6)
H52 H 0.5289 0.1337 0.4928
H53 H 0.5939 0.2628 0.4947
H54 H 0.6453 0.123 0.5068
C24 C 0.57123(15) -0.02924(16) 0.40003(8)
H55 H 0.6189 -0.0813 0.4243
H56 H 0.5806 -0.0431 0.3654
H57 H 0.5052 -0.0562 0.4015
C25 C 0.71510(11) 0.19346(19) 0.41130(7)
H58 H 0.7266 0.2866 0.4192
H59 H 0.7217 0.1763 0.3764
H60 H 0.7628 0.141 0.4354
B3 B 0.53311(10) 0.40267(13) 0.38925(5)
B4 B 0.39298(10) 0.24284(14) 0.38931(6)
O6 O 0.58017(8) 0.47015(9) 0.35825(4)
O7 O 0.51955(10) 0.45570(11) 0.43348(4)
Si3 Si 0.47422(2) 0.22562(3) 0.30466(2)
Si4 Si 0.58837(3) 0.14828(4) 0.41696(2)
O8 O 0.31971(19) 0.3208(4) 0.36811(13)
O9 O 0.3811(2) 0.1423(4) 0.42200(13)
C26 C 0.22464(19) 0.3038(4) 0.37845(15)
H61 H 0.1846 0.2472 0.3518
H62 H 0.1919 0.3899 0.3772
C27 C 0.2898(2) 0.1251(4) 0.43620(16)
H63 H 0.3024 0.0969 0.4723
H64 H 0.2525 0.0549 0.415
C28 C 0.23209(12) 0.2427(2) 0.43005(7)
H65 H 0.2617 0.3062 0.4569
H66 H 0.1659 0.2217 0.4344
H31? H 0.2171 0.6241 0.2636
H32? H 0.2556 0.536 0.3135
O5? O 0.1998(6) 0.7436(9) 0.3917(3)
C14? C 0.2888(4) 0.7308(8) 0.3255(3)
H33? H 0.2624 0.8146 0.3098
H34? H 0.355 0.7192 0.3195
C15? C 0.2946(6) 0.7354(12) 0.3819(4)
H35? H 0.3277 0.6557 0.3982
H36? H 0.3335 0.8123 0.3969
H67? H 0.1634 0.2358 0.4327
H68? H 0.2729 0.254 0.465
O10? O 0.3352(4) 0.3564(5) 0.3876(3)
O11? O 0.3603(6) 0.1254(5) 0.3990(4)
C29? C 0.2421(4) 0.3510(6) 0.4014(4)
H69? H 0.2343 0.4306 0.4211
H70? H 0.1896 0.3508 0.3699
C30? C 0.2618(8) 0.1129(8) 0.4070(6)
H71? H 0.2591 0.0392 0.4305
H72? H 0.2157 0.0943 0.374
loop_
_geom_bond_atom_site_label_1
_geom_bond_atom_site_label_2
_geom_bond_site_symmetry_1
_geom_bond_site_symmetry_2
C1 B1 1_555 1_555
C2 H1 1_555 1_555
H2 C2 1_555 1_555
C3 C2 1_555 1_555
H3 C3 1_555 1_555
H4 C3 1_555 1_555
C4 C3 1_555 1_555
H5 C4 1_555 1_555
H6 C4 1_555 1_555
C5 H7 1_555 1_555
H8 C5 1_555 1_555
H9 C5 1_555 1_555
C6 H10 1_555 1_555
H11 C6 1_555 1_555
H12 C6 1_555 1_555
C7 H13 1_555 1_555
H14 C7 1_555 1_555
H15 C7 1_555 1_555
C8 H16 1_555 1_555
H17 C8 1_555 1_555
H18 C8 1_555 1_555
C9 H19 1_555 1_555
H20 C9 1_555 1_555
H21 C9 1_555 1_555
C10 H22 1_555 1_555
H23 C10 1_555 1_555
H24 C10 1_555 1_555
B1 O1 1_555 1_555
B2 C1 1_555 1_555
O1 C2 1_555 1_555
O2 C4 1_555 1_555
Si1 C1 1_555 1_555
Si2 C1 1_555 1_555
O3 B2 1_555 1_555
C11 O3 1_555 1_555
H25 C11 1_555 1_555
H26 C11 1_555 1_555
O4 B2 1_555 1_555
C12 C11 1_555 1_555
H27 C12 1_555 1_555
H28 C12 1_555 1_555
C13 O4 1_555 1_555
H29 C13 1_555 1_555
H30 C13 1_555 1_555
C16 B3 1_555 1_555
C17 H37 1_555 1_555
H38 C17 1_555 1_555
C18 C17 1_555 1_555
H39 C18 1_555 1_555
H40 C18 1_555 1_555
C19 C18 1_555 1_555
H41 C19 1_555 1_555
H42 C19 1_555 1_555
C20 H43 1_555 1_555
H44 C20 1_555 1_555
H45 C20 1_555 1_555
C21 H46 1_555 1_555
H47 C21 1_555 1_555
H48 C21 1_555 1_555
C22 H49 1_555 1_555
H50 C22 1_555 1_555
H51 C22 1_555 1_555
C23 H52 1_555 1_555
H53 C23 1_555 1_555
H54 C23 1_555 1_555
C24 H55 1_555 1_555
H56 C24 1_555 1_555
H57 C24 1_555 1_555
C25 H58 1_555 1_555
H59 C25 1_555 1_555
H60 C25 1_555 1_555
B3 O6 1_555 1_555
B4 C16 1_555 1_555
O6 C17 1_555 1_555
O7 C19 1_555 1_555
Si3 C16 1_555 1_555
Si4 C16 1_555 1_555
O8 B4 1_555 1_555
O9 B4 1_555 1_555
C26 O8 1_555 1_555
H61 C26 1_555 1_555
H62 C26 1_555 1_555
C27 O9 1_555 1_555
H63 C27 1_555 1_555
H64 C27 1_555 1_555
C28 C26 1_555 1_555
H65 C28 1_555 1_555
H66 C28 1_555 1_555
C5 Si1 1_555 1_555
C6 Si1 1_555 1_555
C7 Si1 1_555 1_555
C8 Si2 1_555 1_555
C9 Si2 1_555 1_555
C10 Si2 1_555 1_555
B1 O2 1_555 1_555
C12 C13 1_555 1_555
C20 Si3 1_555 1_555
C21 Si3 1_555 1_555
C22 Si3 1_555 1_555
C23 Si4 1_555 1_555
C24 Si4 1_555 1_555
C25 Si4 1_555 1_555
B3 O7 1_555 1_555
C27 C28 1_555 1_555

#END
