
#######################################################################
#
#                 Cambridge Crystallographic Data Centre
#                                CCDC 
#
#######################################################################
#
# If this CIF has been generated from an entry in the Cambridge 
# Structural Database, then it will include bibliographic, chemical, 
# crystal, experimental, refinement or atomic coordinate data resulting 
# from the CCDC's data processing and validation procedures.
#
#######################################################################

data_UFUYEA
_chemical_name_common            
(12S,17S)-N12,N17-bis((1S)-1-phenylethyl)-(2H,8H,12H,17H-3,7-nitrilo-13,16-etheno-dinaphtho(2,1-j:1',2'-r)(1,9)dioxacyclonondecin-12,17-diamine)
_chemical_formula_moiety         'C51 H45 N3 O2'
_chemical_name_systematic        
"(S,S,S,S)-N,N'-bis(1-phenylethyl)-13,21-dioxa-38-azaheptacyclo[31.2.2.1^15,19^.0^3,12^.0^4,9^.0^22,31^.0^25,30^] octatriaconta-1(35),3,5,7,9,11,15(38),16,18,22,24,26,28,30,33,36-hexadecaene-2,32-diamine"
_symmetry_cell_setting           tetragonal
_symmetry_space_group_name_H-M   'P 43'
_symmetry_Int_Tables_number      78
_space_group_name_Hall           'P 4cw'
loop_
_symmetry_equiv_pos_site_id
_symmetry_equiv_pos_as_xyz
1 x,y,z
2 -x,-y,1/2+z
3 -y,x,3/4+z
4 y,-x,1/4+z
_cell_length_a                   17.8567(12)
_cell_length_b                   17.8567(12)
_cell_length_c                   12.7454(19)
_cell_angle_alpha                90
_cell_angle_beta                 90
_cell_angle_gamma                90
_cell_volume                     4064.02
_chemical_melting_point          '297-298 deg.C'
_cell_formula_units_Z            4
loop_
_atom_site_label
_atom_site_type_symbol
_atom_site_fract_x
_atom_site_fract_y
_atom_site_fract_z
O1 O 1.05539(12) 0.43977(13) 0.0800(2)
O2 O 0.83319(12) 0.65724(12) 0.06762(18)
N1 N 0.9831(2) 0.5819(2) 0.1079(3)
N2 N 0.94752(14) 0.34933(14) 0.1908(2)
H1 H 0.9286 0.3884 0.2200
N3 N 0.79439(13) 0.62958(13) -0.1615(2)
H2 H 0.8421 0.6267 -0.1703
C1 C 0.9972(2) 0.3222(2) 0.3636(3)
H3 H 1.0219 0.3699 0.3625
H4 H 1.0265 0.2873 0.4037
H5 H 0.9487 0.3275 0.3951
C2 C 0.98851(17) 0.29328(17) 0.2515(3)
H6 H 1.0384 0.2873 0.2207
C3 C 0.94948(18) 0.21805(17) 0.2507(3)
C4 C 0.8728(2) 0.2111(2) 0.2536(3)
H7 H 0.8433 0.2540 0.2535
C5 C 0.8386(2) 0.1417(2) 0.2569(4)
H8 H 0.7867 0.1387 0.2586
C6 C 0.8799(2) 0.0779(2) 0.2575(4)
H9 H 0.8569 0.0312 0.2591
C7 C 0.9559(3) 0.0842(2) 0.2556(5)
H10 H 0.9850 0.0410 0.2579
C8 C 0.9910(2) 0.1532(2) 0.2504(4)
H11 H 1.0430 0.1557 0.2468
C9 C 0.94021(17) 0.33578(17) 0.0776(3)
H12 H 0.9111 0.2895 0.0702
C10 C 1.01449(17) 0.32216(17) 0.0209(3)
C11 C 1.02931(18) 0.25360(18) -0.0346(3)
C12 C 0.9733(2) 0.19826(19) -0.0551(4)
H13 H 0.9254 0.2048 -0.0282
C13 C 0.9888(3) 0.1360(2) -0.1132(4)
H14 H 0.9511 0.1013 -0.1262
C14 C 1.0601(3) 0.1235(2) -0.1533(5)
H15 H 1.0695 0.0809 -0.1930
C15 C 1.1156(3) 0.1731(2) -0.1347(4)
H16 H 1.1634 0.1632 -0.1600
C16 C 1.1023(2) 0.2403(2) -0.0772(3)
C17 C 1.1576(2) 0.2947(2) -0.0638(3)
H17 H 1.2056 0.2857 -0.0893
C18 C 1.14306(19) 0.3603(2) -0.0143(3)
H18 H 1.1804 0.3964 -0.0081
C19 C 1.07175(19) 0.3738(2) 0.0274(3)
C20 C 1.0938(2) 0.5058(2) 0.0500(4)
H19 H 1.0910 0.5117 -0.0255
H20 H 1.1462 0.5016 0.0693
C21 C 1.0606(2) 0.57221(19) 0.1019(3)
C22 C 1.1072(2) 0.6271(2) 0.1409(3)
H21 H 1.1588 0.6206 0.1384
C23 C 1.0780(3) 0.6909(3) 0.1829(4)
H22 H 1.1100 0.7277 0.2085
C24 C 1.0009(3) 0.7018(2) 0.1882(3)
H23 H 0.9817 0.7460 0.2160
C25 C 0.9531(2) 0.6472(2) 0.1522(3)
C26 C 0.8704(2) 0.6565(3) 0.1671(3)
H24 H 0.8512 0.6156 0.2094
H25 H 0.8604 0.7030 0.2039
C27 C 0.75602(18) 0.66522(17) 0.0717(3)
C28 C 0.7216(2) 0.71439(19) 0.1430(3)
H26 H 0.7507 0.7401 0.1917
C29 C 0.6462(2) 0.72465(19) 0.1413(3)
H27 H 0.6246 0.7592 0.1867
C30 C 0.60018(19) 0.68410(18) 0.0723(3)
C31 C 0.5209(2) 0.6914(2) 0.0727(3)
H28 H 0.4986 0.7255 0.1182
C32 C 0.4771(2) 0.6498(2) 0.0085(3)
H29 H 0.4253 0.6550 0.0107
C33 C 0.50975(19) 0.5992(2) -0.0608(3)
H30 H 0.4794 0.5699 -0.1036
C34 C 0.58573(19) 0.59182(19) -0.0669(3)
H31 H 0.6062 0.5586 -0.1152
C35 C 0.63402(17) 0.63391(17) -0.0009(3)
C36 C 0.71458(16) 0.62644(16) -0.0021(3)
C37 C 0.75365(16) 0.58091(16) -0.0870(2)
H32 H 0.7139 0.5565 -0.1275
C38 C 0.80353(16) 0.51810(16) -0.0455(3)
C39 C 0.86207(17) 0.48899(17) -0.1048(3)
H33 H 0.8726 0.5094 -0.1703
C40 C 0.90528(17) 0.42964(17) -0.0673(3)
H34 H 0.9437 0.4108 -0.1089
C41 C 0.89226(16) 0.39832(16) 0.0300(3)
C42 C 0.83200(16) 0.42617(17) 0.0876(3)
H35 H 0.8208 0.4055 0.1527
C43 C 0.78857(17) 0.48419(17) 0.0492(3)
H36 H 0.7480 0.5008 0.0886
C44 C 0.74786(17) 0.68290(16) -0.2194(3)
H37 H 0.7134 0.7064 -0.1694
C45 C 0.79763(19) 0.74396(18) -0.2649(3)
H38 H 0.8248 0.7680 -0.2092
H39 H 0.7672 0.7803 -0.3004
H40 H 0.8323 0.7222 -0.3136
C46 C 0.70155(16) 0.64554(18) -0.3036(3)
C47 C 0.6465(2) 0.6870(2) -0.3550(3)
H41 H 0.6384 0.7366 -0.3357
C48 C 0.6041(2) 0.6560(3) -0.4335(4)
H42 H 0.5684 0.6852 -0.4676
C49 C 0.6134(3) 0.5837(4) -0.4619(4)
H43 H 0.5840 0.5629 -0.5147
C50 C 0.6673(3) 0.5405(2) -0.4117(4)
H44 H 0.6734 0.4904 -0.4296
C51 C 0.7118(2) 0.57242(19) -0.3347(3)
H45 H 0.7492 0.5439 -0.3034
loop_
_geom_bond_atom_site_label_1
_geom_bond_atom_site_label_2
_geom_bond_site_symmetry_1
_geom_bond_site_symmetry_2
O1 C19 1_555 1_555
O2 C26 1_555 1_555
N1 C21 1_555 1_555
N2 H1 1_555 1_555
N3 H2 1_555 1_555
C1 H3 1_555 1_555
H4 C1 1_555 1_555
H5 C1 1_555 1_555
C2 N2 1_555 1_555
H6 C2 1_555 1_555
C3 C2 1_555 1_555
C4 C3 1_555 1_555
H7 C4 1_555 1_555
C5 C4 1_555 1_555
H8 C5 1_555 1_555
C6 C5 1_555 1_555
H9 C6 1_555 1_555
C7 C6 1_555 1_555
H10 C7 1_555 1_555
C8 C3 1_555 1_555
H11 C8 1_555 1_555
C9 N2 1_555 1_555
H12 C9 1_555 1_555
C10 C9 1_555 1_555
C11 C10 1_555 1_555
C12 C11 1_555 1_555
H13 C12 1_555 1_555
C13 C12 1_555 1_555
H14 C13 1_555 1_555
C14 C13 1_555 1_555
H15 C14 1_555 1_555
C15 C14 1_555 1_555
H16 C15 1_555 1_555
C16 C11 1_555 1_555
C17 C16 1_555 1_555
H17 C17 1_555 1_555
C18 C17 1_555 1_555
H18 C18 1_555 1_555
C19 C10 1_555 1_555
C20 O1 1_555 1_555
H19 C20 1_555 1_555
H20 C20 1_555 1_555
C21 C20 1_555 1_555
C22 C21 1_555 1_555
H21 C22 1_555 1_555
C23 C22 1_555 1_555
H22 C23 1_555 1_555
C24 C23 1_555 1_555
H23 C24 1_555 1_555
C25 N1 1_555 1_555
C26 C25 1_555 1_555
H24 C26 1_555 1_555
H25 C26 1_555 1_555
C27 O2 1_555 1_555
C28 C27 1_555 1_555
H26 C28 1_555 1_555
C29 C28 1_555 1_555
H27 C29 1_555 1_555
C30 C29 1_555 1_555
C31 C30 1_555 1_555
H28 C31 1_555 1_555
C32 C31 1_555 1_555
H29 C32 1_555 1_555
C33 C32 1_555 1_555
H30 C33 1_555 1_555
C34 C33 1_555 1_555
H31 C34 1_555 1_555
C35 C30 1_555 1_555
C36 C27 1_555 1_555
C37 N3 1_555 1_555
H32 C37 1_555 1_555
C38 C37 1_555 1_555
C39 C38 1_555 1_555
H33 C39 1_555 1_555
C40 C39 1_555 1_555
H34 C40 1_555 1_555
C41 C9 1_555 1_555
C42 C41 1_555 1_555
H35 C42 1_555 1_555
C43 C38 1_555 1_555
H36 C43 1_555 1_555
C44 N3 1_555 1_555
H37 C44 1_555 1_555
C45 C44 1_555 1_555
H38 C45 1_555 1_555
H39 C45 1_555 1_555
H40 C45 1_555 1_555
C46 C44 1_555 1_555
C47 C46 1_555 1_555
H41 C47 1_555 1_555
C48 C47 1_555 1_555
H42 C48 1_555 1_555
C49 C48 1_555 1_555
H43 C49 1_555 1_555
C50 C49 1_555 1_555
H44 C50 1_555 1_555
C51 C46 1_555 1_555
H45 C51 1_555 1_555
C1 C2 1_555 1_555
C7 C8 1_555 1_555
C15 C16 1_555 1_555
C18 C19 1_555 1_555
C24 C25 1_555 1_555
C34 C35 1_555 1_555
C35 C36 1_555 1_555
C36 C37 1_555 1_555
C40 C41 1_555 1_555
C42 C43 1_555 1_555
C50 C51 1_555 1_555

#END
