
#######################################################################
#
#                 Cambridge Crystallographic Data Centre
#                                CCDC 
#
#######################################################################
#
# If this CIF has been generated from an entry in the Cambridge 
# Structural Database, then it will include bibliographic, chemical, 
# crystal, experimental, refinement or atomic coordinate data resulting 
# from the CCDC's data processing and validation procedures.
#
#######################################################################

data_UGADAK
_chemical_formula_moiety         'C39 H56 B1 N2 S3'
_chemical_name_systematic        
'2,2-dicyclohexyl-4,6-bis(2,6-di-isopropylphenyl)-2,4,5,6-tetrahydro-2H,5H-[1,3,2]dithiaborolo[4,5-d]imidazole-5-thione radical'
_symmetry_cell_setting           monoclinic
_symmetry_space_group_name_H-M   'P 21/c'
_symmetry_Int_Tables_number      14
_space_group_name_Hall           '-P 2ybc'
loop_
_symmetry_equiv_pos_site_id
_symmetry_equiv_pos_as_xyz
1 x,y,z
2 -x,1/2+y,1/2-z
3 -x,-y,-z
4 x,1/2-y,1/2+z
_cell_length_a                   10.8184(14)
_cell_length_b                   22.527(3)
_cell_length_c                   16.534(2)
_cell_angle_alpha                90
_cell_angle_beta                 103.111(3)
_cell_angle_gamma                90
_cell_volume                     3924.4
_exptl_crystal_colour            'dark blue'
_exptl_crystal_description       plate
_chemical_melting_point          'decomposes above 118 deg.C'
_cell_formula_units_Z            4
loop_
_atom_site_label
_atom_site_type_symbol
_atom_site_fract_x
_atom_site_fract_y
_atom_site_fract_z
B1 B 0.6216(4) 0.60581(18) 0.2606(2)
S1 S 0.85360(13) 0.75724(5) 0.58953(6)
S2 S 0.66313(10) 0.69363(4) 0.26745(5)
S3 S 0.71917(11) 0.57411(4) 0.37157(6)
N1 N 0.7582(3) 0.73990(11) 0.42467(16)
N2 N 0.7978(3) 0.65708(12) 0.49723(16)
C1 C 0.8042(3) 0.71842(15) 0.5049(2)
C2 C 0.7241(3) 0.69348(14) 0.37036(19)
C3 C 0.7502(3) 0.64170(15) 0.4166(2)
C4 C 0.8376(3) 0.61610(15) 0.5661(2)
C5 C 0.9638(4) 0.59851(17) 0.5865(2)
C6 C 0.9956(4) 0.5566(2) 0.6493(3)
H1 H 1.0789 0.5432 0.6644
C7 C 0.9087(5) 0.5345(2) 0.6895(2)
H2 H 0.9330 0.5064 0.7314
C8 C 0.7851(4) 0.55370(18) 0.6682(2)
H3 H 0.7267 0.5387 0.6963
C9 C 0.7453(4) 0.59521(16) 0.6053(2)
C10 C 0.6099(4) 0.6168(2) 0.5855(2)
H4 H 0.5979 0.6395 0.5337
C11 C 0.5868(5) 0.6591(3) 0.6516(3)
H5 H 0.5002 0.6723 0.6377
H6 H 0.6035 0.6392 0.7043
H7 H 0.6422 0.6928 0.6548
C12 C 0.5152(5) 0.5675(3) 0.5700(5)
H8 H 0.4310 0.5838 0.5577
H9 H 0.5270 0.5441 0.5238
H10 H 0.5265 0.5429 0.6185
C13 C 1.0628(4) 0.6224(2) 0.5436(3)
H11 H 1.0209 0.6524 0.5037
C14 C 1.1100(7) 0.5739(3) 0.4941(4)
H12 H 1.1727 0.5900 0.4675
H13 H 1.1471 0.5424 0.5309
H14 H 1.0402 0.5586 0.4529
C15 C 1.1707(6) 0.6536(4) 0.6042(5)
H15 H 1.1363 0.6837 0.6339
H16 H 1.2166 0.6251 0.6429
H17 H 1.2270 0.6715 0.5741
C16 C 0.7455(3) 0.80281(14) 0.4047(2)
C17 C 0.8508(4) 0.83244(17) 0.3919(2)
C18 C 0.8363(5) 0.89363(19) 0.3777(3)
H18 H 0.9044 0.9159 0.3689
C19 C 0.7233(6) 0.92108(19) 0.3767(3)
H19 H 0.7161 0.9618 0.3680
C20 C 0.6215(5) 0.88977(18) 0.3882(3)
H20 H 0.5455 0.9094 0.3868
C21 C 0.6286(4) 0.82878(16) 0.4020(2)
C22 C 0.5131(4) 0.79505(19) 0.4144(3)
H21 H 0.5346 0.7527 0.4158
C23 C 0.3995(5) 0.8038(3) 0.3429(3)
H22 H 0.3287 0.7818 0.3532
H23 H 0.3782 0.8452 0.3377
H24 H 0.4196 0.7900 0.2924
C24 C 0.4829(5) 0.8101(3) 0.4976(3)
H25 H 0.4095 0.7882 0.5038
H26 H 0.5539 0.7998 0.5417
H27 H 0.4662 0.8519 0.4998
C25 C 0.9742(4) 0.8015(2) 0.3916(3)
H28 H 0.9636 0.7599 0.4060
C26 C 1.0027(6) 0.8016(4) 0.3069(4)
H29 H 1.0817 0.7815 0.3091
H30 H 0.9359 0.7815 0.2685
H31 H 1.0087 0.8418 0.2889
C27 C 1.0837(6) 0.8250(4) 0.4544(4)
H32 H 1.1591 0.8036 0.4510
H33 H 1.0950 0.8663 0.4438
H34 H 1.0679 0.8204 0.5089
C28 C 0.4246(4) 0.6303(2) 0.3259(3)
H35 H 0.4425 0.6723 0.3229
H36 H 0.4714 0.6160 0.3795
C29 C 0.2835(5) 0.6224(2) 0.3209(3)
H37 H 0.2668 0.5813 0.3324
H38 H 0.2587 0.6469 0.3628
C30 C 0.2052(5) 0.6391(3) 0.2367(4)
H39 H 0.1164 0.6308 0.2342
H40 H 0.2137 0.6813 0.2277
C31 C 0.2478(5) 0.6047(3) 0.1693(3)
H41 H 0.1986 0.6172 0.1155
H42 H 0.2322 0.5628 0.1756
C32 C 0.3888(4) 0.6144(2) 0.1731(3)
H43 H 0.4026 0.6558 0.1614
H44 H 0.4133 0.5906 0.1304
C33 C 0.4730(4) 0.59798(17) 0.2576(2)
H45 H 0.4595 0.5555 0.2655
C34 C 0.6776(4) 0.57812(15) 0.1864(2)
H46 H 0.6351 0.5994 0.1361
C35 C 0.6452(4) 0.51269(18) 0.1693(3)
H47 H 0.5544 0.5072 0.1620
H48 H 0.6873 0.4892 0.2168
C36 C 0.6859(5) 0.4907(2) 0.0918(3)
H49 H 0.6674 0.4487 0.0846
H50 H 0.6372 0.5113 0.0435
C37 C 0.8239(5) 0.5006(2) 0.0975(3)
H51 H 0.8441 0.4894 0.0454
H52 H 0.8728 0.4754 0.1408
C38 C 0.8611(4) 0.5650(2) 0.1165(3)
H53 H 0.9525 0.5690 0.1251
H54 H 0.8221 0.5896 0.0695
C39 C 0.8201(4) 0.58650(18) 0.1930(2)
H55 H 0.8409 0.6283 0.2015
H56 H 0.8669 0.5650 0.2411
loop_
_geom_bond_atom_site_label_1
_geom_bond_atom_site_label_2
_geom_bond_site_symmetry_1
_geom_bond_site_symmetry_2
B1 S2 1_555 1_555
S1 C1 1_555 1_555
S2 C2 1_555 1_555
S3 B1 1_555 1_555
N1 C1 1_555 1_555
N2 C1 1_555 1_555
C2 N1 1_555 1_555
C3 S3 1_555 1_555
C4 N2 1_555 1_555
C5 C4 1_555 1_555
C6 C5 1_555 1_555
H1 C6 1_555 1_555
C7 C6 1_555 1_555
H2 C7 1_555 1_555
C8 C7 1_555 1_555
H3 C8 1_555 1_555
C9 C4 1_555 1_555
C10 C9 1_555 1_555
H4 C10 1_555 1_555
C11 C10 1_555 1_555
H5 C11 1_555 1_555
H6 C11 1_555 1_555
H7 C11 1_555 1_555
C12 C10 1_555 1_555
H8 C12 1_555 1_555
H9 C12 1_555 1_555
H10 C12 1_555 1_555
C13 C5 1_555 1_555
H11 C13 1_555 1_555
C14 C13 1_555 1_555
H12 C14 1_555 1_555
H13 C14 1_555 1_555
H14 C14 1_555 1_555
C15 C13 1_555 1_555
H15 C15 1_555 1_555
H16 C15 1_555 1_555
H17 C15 1_555 1_555
C16 N1 1_555 1_555
C17 C16 1_555 1_555
C18 C17 1_555 1_555
H18 C18 1_555 1_555
C19 C18 1_555 1_555
H19 C19 1_555 1_555
C20 C19 1_555 1_555
H20 C20 1_555 1_555
C21 C16 1_555 1_555
C22 C21 1_555 1_555
H21 C22 1_555 1_555
C23 C22 1_555 1_555
H22 C23 1_555 1_555
H23 C23 1_555 1_555
H24 C23 1_555 1_555
C24 C22 1_555 1_555
H25 C24 1_555 1_555
H26 C24 1_555 1_555
H27 C24 1_555 1_555
C25 C17 1_555 1_555
H28 C25 1_555 1_555
C26 C25 1_555 1_555
H29 C26 1_555 1_555
H30 C26 1_555 1_555
H31 C26 1_555 1_555
C27 C25 1_555 1_555
H32 C27 1_555 1_555
H33 C27 1_555 1_555
H34 C27 1_555 1_555
C28 H35 1_555 1_555
H36 C28 1_555 1_555
C29 C28 1_555 1_555
H37 C29 1_555 1_555
H38 C29 1_555 1_555
C30 C29 1_555 1_555
H39 C30 1_555 1_555
H40 C30 1_555 1_555
C31 C30 1_555 1_555
H41 C31 1_555 1_555
H42 C31 1_555 1_555
C32 C31 1_555 1_555
H43 C32 1_555 1_555
H44 C32 1_555 1_555
C33 B1 1_555 1_555
H45 C33 1_555 1_555
C34 B1 1_555 1_555
H46 C34 1_555 1_555
C35 C34 1_555 1_555
H47 C35 1_555 1_555
H48 C35 1_555 1_555
C36 C35 1_555 1_555
H49 C36 1_555 1_555
H50 C36 1_555 1_555
C37 C36 1_555 1_555
H51 C37 1_555 1_555
H52 C37 1_555 1_555
C38 C37 1_555 1_555
H53 C38 1_555 1_555
H54 C38 1_555 1_555
C39 C34 1_555 1_555
H55 C39 1_555 1_555
H56 C39 1_555 1_555
N2 C3 1_555 1_555
C2 C3 1_555 1_555
C8 C9 1_555 1_555
C20 C21 1_555 1_555
C28 C33 1_555 1_555
C32 C33 1_555 1_555
C38 C39 1_555 1_555

#END
