
#######################################################################
#
#                 Cambridge Crystallographic Data Centre
#                                CCDC 
#
#######################################################################
#
# If this CIF has been generated from an entry in the Cambridge 
# Structural Database, then it will include bibliographic, chemical, 
# crystal, experimental, refinement or atomic coordinate data resulting 
# from the CCDC's data processing and validation procedures.
#
#######################################################################

data_UGADOV
_chemical_compound_source        'heartwood of Caesalpinia sappan'
_chemical_formula_moiety         'C16 H14 O7'
_chemical_name_systematic        'Brazilide A'
_chemical_properties_biological  
'plant source is a traditional Chinese medicine used as an emmenagogue, hemostatic and antiinflammatory agent and in treatment of contusion and thrombosis'
_symmetry_cell_setting           monoclinic
_symmetry_space_group_name_H-M   'P 21'
_symmetry_Int_Tables_number      4
_space_group_name_Hall           'P 2yb'
loop_
_symmetry_equiv_pos_site_id
_symmetry_equiv_pos_as_xyz
1 x,y,z
2 -x,1/2+y,-z
_cell_length_a                   9.2517(12)
_cell_length_b                   7.6301(9)
_cell_length_c                   9.6762(12)
_cell_angle_alpha                90
_cell_angle_beta                 102.101(2)
_cell_angle_gamma                90
_cell_volume                     667.879
_exptl_crystal_colour            colorless
_exptl_crystal_description       prism
_chemical_melting_point          251-252deg.C
_cell_formula_units_Z            2
_exptl_crystal_recrystallization_method 'acetone/petroleum ether'
loop_
_atom_site_label
_atom_site_type_symbol
_atom_site_fract_x
_atom_site_fract_y
_atom_site_fract_z
O1 O 0.4291(2) 0.6454(2) 0.6650(2)
O2 O 0.7899(2) 0.8320(2) 0.8228(2)
O3 O 0.1848(2) 0.1349(3) 0.7464(2)
O4 O 0.8577(2) 0.2746(2) 0.7886(1)
O5 O 0.8484(2) 0.0694(2) 0.6249(2)
O6 O 0.9927(2) 0.6437(2) 0.6673(1)
O7 O 1.1537(2) 0.7715(2) 0.8408(2)
C1 C 0.5336(3) 0.7712(4) 0.7348(3)
C2 C 0.6890(3) 0.7052(3) 0.7498(2)
C3 C 0.7142(2) 0.5378(3) 0.8385(2)
C4 C 0.5761(2) 0.4247(3) 0.8107(2)
C5 C 0.5715(2) 0.2616(3) 0.8758(2)
C6 C 0.4444(3) 0.1639(3) 0.8582(2)
C7 C 0.3159(3) 0.2247(3) 0.7718(2)
C8 C 0.3150(3) 0.3876(4) 0.7087(2)
C9 C 0.4426(2) 0.4847(3) 0.7303(2)
C10 C 0.7261(3) 0.6512(3) 0.6099(2)
C11 C 0.8608(2) 0.5351(3) 0.6507(2)
C12 C 1.0588(2) 0.6637(3) 0.8047(2)
C13 C 0.9996(3) 0.5301(4) 0.8931(2)
C14 C 0.8568(2) 0.4632(3) 0.8002(2)
C15 C 0.8583(2) 0.2218(3) 0.6551(3)
C16 C 0.8724(3) 0.3749(3) 0.5611(2)
H1 H 0.5140(20) 0.7950(30) 0.8280(20)
H2 H 0.5230(20) 0.8800(30) 0.6750(20)
H3 H 0.7353(17) 0.5730(20) 0.9325(16)
H4 H 0.6569(19) 0.2220(20) 0.9345(17)
H5 H 0.4439(19) 0.0600(30) 0.9027(19)
H6 H 0.2230(20) 0.4340(30) 0.6480(20)
H7 H 0.8020(40) 0.9040(50) 0.7620(30)
H8 H 0.2030(30) 0.0360(40) 0.7700(30)
H9 H 0.7460(20) 0.7540(30) 0.5537(19)
H10 H 0.6470(20) 0.5860(30) 0.5600(20)
H11 H 1.0670(20) 0.4410(30) 0.9120(20)
H12 H 0.9910(30) 0.5770(30) 0.9790(20)
H13 H 0.7920(20) 0.3680(30) 0.4750(20)
H14 H 0.9730(20) 0.3680(30) 0.5387(19)
loop_
_geom_bond_atom_site_label_1
_geom_bond_atom_site_label_2
_geom_bond_site_symmetry_1
_geom_bond_site_symmetry_2
O1 C1 1_555 1_555
O2 C2 1_555 1_555
O3 C7 1_555 1_555
O4 C14 1_555 1_555
O5 C15 1_555 1_555
O6 C11 1_555 1_555
O7 C12 1_555 1_555
C1 C2 1_555 1_555
C2 C3 1_555 1_555
C3 C4 1_555 1_555
C4 C5 1_555 1_555
C5 C6 1_555 1_555
C6 C7 1_555 1_555
C7 C8 1_555 1_555
C8 C9 1_555 1_555
C9 O1 1_555 1_555
C10 C2 1_555 1_555
C11 C10 1_555 1_555
C12 O6 1_555 1_555
C13 C12 1_555 1_555
C14 C3 1_555 1_555
C15 O4 1_555 1_555
C16 C11 1_555 1_555
H1 C1 1_555 1_555
H2 C1 1_555 1_555
H3 C3 1_555 1_555
H4 C5 1_555 1_555
H5 C6 1_555 1_555
H6 C8 1_555 1_555
H7 O2 1_555 1_555
H8 O3 1_555 1_555
H9 C10 1_555 1_555
H10 C10 1_555 1_555
H11 C13 1_555 1_555
H12 C13 1_555 1_555
H13 C16 1_555 1_555
H14 C16 1_555 1_555
C4 C9 1_555 1_555
C11 C14 1_555 1_555
C13 C14 1_555 1_555
C15 C16 1_555 1_555

#END
