
#######################################################################
#
#                 Cambridge Crystallographic Data Centre
#                                CCDC 
#
#######################################################################
#
# If this CIF has been generated from an entry in the Cambridge 
# Structural Database, then it will include bibliographic, chemical, 
# crystal, experimental, refinement or atomic coordinate data resulting 
# from the CCDC's data processing and validation procedures.
#
#######################################################################

data_UGADOY
_chemical_formula_moiety         'C60 H54 B2 N4'
_chemical_name_systematic        
1,9-dimesityl-5,10-dihydrido-2,3,5,7,8,10-hexaphenyl-1,9-dihydrodiimidazo[1,2-c:2',1'-f][1,3,2,5]diazadiborinine-4,6-diium-5,10-diide
_symmetry_cell_setting           orthorhombic
_symmetry_space_group_name_H-M   'P 21 21 21'
_symmetry_Int_Tables_number      19
_space_group_name_Hall           'P 2ac 2ab'
loop_
_symmetry_equiv_pos_site_id
_symmetry_equiv_pos_as_xyz
1 x,y,z
2 1/2-x,-y,1/2+z
3 -x,1/2+y,1/2-z
4 1/2+x,1/2-y,-z
_cell_length_a                   14.8945(8)
_cell_length_b                   16.6902(9)
_cell_length_c                   19.6727(9)
_cell_angle_alpha                90
_cell_angle_beta                 90
_cell_angle_gamma                90
_cell_volume                     4890.48
_exptl_crystal_colour            colorless
_exptl_crystal_description       block
_cell_formula_units_Z            4
loop_
_atom_site_label
_atom_site_type_symbol
_atom_site_fract_x
_atom_site_fract_y
_atom_site_fract_z
B1 B 0.3787(4) 0.3993(4) 0.3934(3)
H1 H 0.367158 0.418159 0.337125
B2 B 0.4274(4) 0.5022(4) 0.5246(3)
H2 H 0.443092 0.567189 0.544173
C1 C 0.4766(4) 0.4311(3) 0.4139(3)
C2 C 0.6232(4) 0.4624(4) 0.4078(3)
C3 C 0.5887(4) 0.4986(4) 0.4642(3)
C4 C 0.6355(3) 0.5469(4) 0.5164(3)
C5 C 0.6165(4) 0.6273(4) 0.5264(3)
H3 H 0.574458 0.653318 0.497576
C6 C 0.6578(5) 0.6700(4) 0.5776(3)
H4 H 0.643257 0.724835 0.584435
C7 C 0.7207(4) 0.6327(4) 0.6195(3)
H5 H 0.74939 0.661967 0.654774
C8 C 0.7411(4) 0.5529(5) 0.6091(3)
H6 H 0.783922 0.526906 0.637227
C9 C 0.6991(4) 0.5111(4) 0.5577(3)
H7 H 0.714111 0.456437 0.550453
C10 C 0.7123(4) 0.4696(4) 0.3751(3)
C11 C 0.7407(4) 0.5437(4) 0.3511(3)
H8 H 0.703976 0.589484 0.358218
C12 C 0.8215(4) 0.5521(4) 0.3170(3)
H9 H 0.839282 0.60311 0.30031
C13 C 0.8760(4) 0.4864(4) 0.3073(3)
H10 H 0.931333 0.492456 0.283801
C14 C 0.8514(4) 0.4125(4) 0.3312(3)
H11 H 0.889658 0.367592 0.324636
C15 C 0.7695(4) 0.4034(4) 0.3652(3)
H12 H 0.752289 0.352139 0.381754
C16 C 0.5597(4) 0.3707(4) 0.3176(3)
C17 C 0.5427(4) 0.4059(4) 0.2541(3)
C18 C 0.5476(4) 0.3553(4) 0.1972(3)
H13 H 0.536632 0.377305 0.153405
C19 C 0.5675(4) 0.2752(4) 0.2023(3)
C20 C 0.5686(6) 0.2224(5) 0.1395(3)
H14 H 0.509219 0.222962 0.118109
H15 H 0.584038 0.167387 0.15254
H16 H 0.613402 0.242641 0.107297
C21 C 0.5850(4) 0.2433(4) 0.2660(3)
H17 H 0.599688 0.188073 0.269652
C22 C 0.5818(4) 0.2898(4) 0.3248(3)
C23 C 0.5991(4) 0.2514(4) 0.3931(3)
H18 H 0.609573 0.29321 0.427116
H19 H 0.652075 0.216758 0.390035
H20 H 0.546844 0.219323 0.406321
C24 C 0.5201(5) 0.4928(4) 0.2487(3)
H21 H 0.462782 0.503083 0.271478
H22 H 0.515298 0.507814 0.200623
H23 H 0.567464 0.524641 0.270293
C25 C 0.3112(4) 0.4524(3) 0.4378(3)
C26 C 0.1865(4) 0.5184(3) 0.4725(3)
C27 C 0.2569(4) 0.5433(3) 0.5103(3)
C28 C 0.2547(4) 0.6024(3) 0.5662(3)
C29 C 0.2955(5) 0.6768(4) 0.5600(3)
H24 H 0.329364 0.68883 0.520332
C30 C 0.2874(5) 0.7339(4) 0.6109(3)
H25 H 0.31683 0.784099 0.606432
C31 C 0.2367(4) 0.7178(4) 0.6679(3)
H26 H 0.228546 0.757819 0.701713
C32 C 0.1979(4) 0.6430(4) 0.6755(3)
H27 H 0.16569 0.630346 0.715788
C33 C 0.2062(4) 0.5867(4) 0.6242(3)
H28 H 0.177743 0.536097 0.629134
C34 C 0.0925(4) 0.5474(3) 0.4730(3)
C35 C 0.0769(4) 0.6297(4) 0.4792(3)
H29 H 0.126249 0.665688 0.480542
C36 C -0.0106(4) 0.6593(4) 0.4835(4)
H30 H -0.020518 0.715269 0.488345
C37 C -0.0829(4) 0.6071(4) 0.4805(3)
H31 H -0.142501 0.627256 0.482102
C38 C -0.0680(4) 0.5268(4) 0.4755(3)
H32 H -0.117596 0.49098 0.4744
C39 C 0.0189(4) 0.4965(4) 0.4718(3)
H33 H 0.027885 0.440284 0.468379
C40 C 0.1738(3) 0.4311(3) 0.3688(3)
C41 C 0.1730(4) 0.4792(3) 0.3118(3)
C42 C 0.1266(4) 0.4529(4) 0.2552(3)
H34 H 0.125888 0.485176 0.215451
C43 C 0.0808(4) 0.3802(4) 0.2552(3)
C44 C 0.0850(4) 0.3329(4) 0.3138(3)
H35 H 0.054812 0.282782 0.314355
C45 C 0.1319(4) 0.3572(3) 0.3709(3)
C46 C 0.1342(4) 0.3033(4) 0.4337(3)
H36 H 0.144483 0.336081 0.474261
H37 H 0.182821 0.264155 0.428969
H38 H 0.076753 0.275132 0.43801
C47 C 0.0266(4) 0.3530(5) 0.1949(3)
H39 H -0.036659 0.366996 0.201908
H40 H 0.032205 0.294775 0.189873
H41 H 0.048818 0.379403 0.153758
C48 C 0.2226(5) 0.5578(4) 0.3113(4)
H42 H 0.225308 0.57847 0.264686
H43 H 0.283699 0.549657 0.328447
H44 H 0.191178 0.596358 0.340313
C49 C 0.3706(3) 0.3030(3) 0.4021(3)
C50 C 0.3549(4) 0.2539(4) 0.3470(3)
H45 H 0.34317 0.277718 0.304083
C51 C 0.3555(5) 0.1706(4) 0.3519(3)
H46 H 0.345522 0.138728 0.312561
C52 C 0.3705(4) 0.1347(4) 0.4135(3)
H47 H 0.371713 0.077953 0.417042
C53 C 0.3837(4) 0.1816(4) 0.4701(3)
H48 H 0.392728 0.157057 0.513097
C54 C 0.3840(4) 0.2642(4) 0.4648(3)
H49 H 0.393426 0.295521 0.504463
C55 C 0.4246(4) 0.4380(3) 0.5864(3)
C56 C 0.3484(4) 0.3923(4) 0.6027(3)
H50 H 0.296371 0.397617 0.575031
C57 C 0.3457(4) 0.3399(4) 0.6571(3)
H51 H 0.292659 0.310135 0.666241
C58 C 0.4202(4) 0.3308(4) 0.6982(3)
H52 H 0.419162 0.2946 0.735434
C59 C 0.4963(4) 0.3753(4) 0.6843(3)
H53 H 0.547688 0.370137 0.712607
C60 C 0.4983(4) 0.4276(4) 0.6294(3)
H54 H 0.551545 0.457195 0.620721
N1 N 0.4970(3) 0.4783(3) 0.4676(2)
N2 N 0.5530(3) 0.4205(3) 0.3775(2)
N3 N 0.3339(3) 0.5027(3) 0.4878(2)
N4 N 0.2203(3) 0.4610(3) 0.4274(2)
loop_
_geom_bond_atom_site_label_1
_geom_bond_atom_site_label_2
_geom_bond_site_symmetry_1
_geom_bond_site_symmetry_2
B1 H1 1_555 1_555
B2 H2 1_555 1_555
C1 B1 1_555 1_555
C2 C3 1_555 1_555
C3 C4 1_555 1_555
C4 C5 1_555 1_555
C5 H3 1_555 1_555
C6 C5 1_555 1_555
H4 C6 1_555 1_555
C7 C6 1_555 1_555
H5 C7 1_555 1_555
C8 C7 1_555 1_555
H6 C8 1_555 1_555
C9 C4 1_555 1_555
H7 C9 1_555 1_555
C10 C2 1_555 1_555
C11 C10 1_555 1_555
H8 C11 1_555 1_555
C12 C11 1_555 1_555
H9 C12 1_555 1_555
C13 C12 1_555 1_555
H10 C13 1_555 1_555
C14 C13 1_555 1_555
H11 C14 1_555 1_555
C15 C10 1_555 1_555
H12 C15 1_555 1_555
C16 C17 1_555 1_555
C17 C18 1_555 1_555
C18 H13 1_555 1_555
C19 C18 1_555 1_555
C20 C19 1_555 1_555
H14 C20 1_555 1_555
H15 C20 1_555 1_555
H16 C20 1_555 1_555
C21 C19 1_555 1_555
H17 C21 1_555 1_555
C22 C16 1_555 1_555
C23 C22 1_555 1_555
H18 C23 1_555 1_555
H19 C23 1_555 1_555
H20 C23 1_555 1_555
C24 C17 1_555 1_555
H21 C24 1_555 1_555
H22 C24 1_555 1_555
H23 C24 1_555 1_555
C25 B1 1_555 1_555
C26 C27 1_555 1_555
C27 C28 1_555 1_555
C28 C29 1_555 1_555
C29 H24 1_555 1_555
C30 C29 1_555 1_555
H25 C30 1_555 1_555
C31 C30 1_555 1_555
H26 C31 1_555 1_555
C32 C31 1_555 1_555
H27 C32 1_555 1_555
C33 C28 1_555 1_555
H28 C33 1_555 1_555
C34 C26 1_555 1_555
C35 C34 1_555 1_555
H29 C35 1_555 1_555
C36 C35 1_555 1_555
H30 C36 1_555 1_555
C37 C36 1_555 1_555
H31 C37 1_555 1_555
C38 C37 1_555 1_555
H32 C38 1_555 1_555
C39 C34 1_555 1_555
H33 C39 1_555 1_555
C40 C41 1_555 1_555
C41 C42 1_555 1_555
C42 H34 1_555 1_555
C43 C42 1_555 1_555
C44 C43 1_555 1_555
H35 C44 1_555 1_555
C45 C40 1_555 1_555
C46 C45 1_555 1_555
H36 C46 1_555 1_555
H37 C46 1_555 1_555
H38 C46 1_555 1_555
C47 C43 1_555 1_555
H39 C47 1_555 1_555
H40 C47 1_555 1_555
H41 C47 1_555 1_555
C48 C41 1_555 1_555
H42 C48 1_555 1_555
H43 C48 1_555 1_555
H44 C48 1_555 1_555
C49 B1 1_555 1_555
C50 C49 1_555 1_555
H45 C50 1_555 1_555
C51 C50 1_555 1_555
H46 C51 1_555 1_555
C52 C51 1_555 1_555
H47 C52 1_555 1_555
C53 C52 1_555 1_555
H48 C53 1_555 1_555
C54 C49 1_555 1_555
H49 C54 1_555 1_555
C55 B2 1_555 1_555
C56 C55 1_555 1_555
H50 C56 1_555 1_555
C57 C56 1_555 1_555
H51 C57 1_555 1_555
C58 C57 1_555 1_555
H52 C58 1_555 1_555
C59 C58 1_555 1_555
H53 C59 1_555 1_555
C60 C55 1_555 1_555
H54 C60 1_555 1_555
N1 B2 1_555 1_555
N2 C1 1_555 1_555
N3 B2 1_555 1_555
N4 C25 1_555 1_555
C1 N1 1_555 1_555
C2 N2 1_555 1_555
C3 N1 1_555 1_555
C8 C9 1_555 1_555
C14 C15 1_555 1_555
C16 N2 1_555 1_555
C21 C22 1_555 1_555
C25 N3 1_555 1_555
C26 N4 1_555 1_555
C27 N3 1_555 1_555
C32 C33 1_555 1_555
C38 C39 1_555 1_555
C40 N4 1_555 1_555
C44 C45 1_555 1_555
C53 C54 1_555 1_555
C59 C60 1_555 1_555

#END
