
#######################################################################
#
#                 Cambridge Crystallographic Data Centre
#                                CCDC 
#
#######################################################################
#
# If this CIF has been generated from an entry in the Cambridge 
# Structural Database, then it will include bibliographic, chemical, 
# crystal, experimental, refinement or atomic coordinate data resulting 
# from the CCDC's data processing and validation procedures.
#
#######################################################################

data_UGADUE
_chemical_formula_moiety         'C69 H61 B2 N5,3(C6 H6)'
_chemical_name_systematic        
"1,9-dimesityl-5,10-(((2,6-dimethylphenyl)imino)methylidene)-2,3,5,7,8,10-hexaphenyl-1,9-dihydrodiimidazo[1,2-c:2',1'-f][1,3,2,5]diazadiborinine-4,6-diium-5,10-diide benzene solvate"
_symmetry_cell_setting           monoclinic
_symmetry_space_group_name_H-M   'P 21/n'
_symmetry_Int_Tables_number      14
_space_group_name_Hall           '-P 2yn'
loop_
_symmetry_equiv_pos_site_id
_symmetry_equiv_pos_as_xyz
1 x,y,z
2 1/2-x,1/2+y,1/2-z
3 -x,-y,-z
4 1/2+x,1/2-y,1/2+z
_cell_length_a                   15.7274(5)
_cell_length_b                   19.2910(8)
_cell_length_c                   22.7782(8)
_cell_angle_alpha                90
_cell_angle_beta                 94.879(3)
_cell_angle_gamma                90
_cell_volume                     6885.8
_exptl_crystal_colour            colorless
_exptl_crystal_description       block
_cell_formula_units_Z            4
loop_
_atom_site_label
_atom_site_type_symbol
_atom_site_fract_x
_atom_site_fract_y
_atom_site_fract_z
B1 B 0.3179(3) 0.4170(2) 0.32945(16)
B2 B 0.4154(3) 0.3529(2) 0.26580(17)
C1 C 0.2363(2) 0.45071(19) 0.35387(14)
C2 C 0.2123(2) 0.5194(2) 0.34058(16)
H1 H 0.246421 0.546491 0.31684
C3 C 0.1396(2) 0.5490(2) 0.36136(17)
H2 H 0.125689 0.595925 0.352421
C4 C 0.0880(2) 0.5106(2) 0.39462(17)
H3 H 0.039422 0.53117 0.409651
C5 C 0.1074(2) 0.4416(2) 0.40605(16)
H4 H 0.071026 0.414166 0.427817
C6 C 0.1801(2) 0.4126(2) 0.38570(15)
H5 H 0.192173 0.365122 0.393695
C7 C 0.3136(2) 0.37699(18) 0.26446(14)
C8 C 0.1723(2) 0.39222(19) 0.21974(14)
C9 C 0.1549(2) 0.45507(19) 0.19027(15)
C10 C 0.2270(3) 0.4968(2) 0.16871(18)
H6 H 0.264996 0.512366 0.202475
H7 H 0.203772 0.537222 0.146737
H8 H 0.259134 0.468017 0.142893
C11 C 0.5747(2) 0.2512(2) 0.17252(16)
H9 H 0.633862 0.240627 0.17481
C12 C 0.0714(2) 0.4775(2) 0.18156(15)
H10 H 0.059358 0.520159 0.161717
C13 C 0.0048(2) 0.4393(2) 0.20105(16)
H11 H -0.05216 0.45604 0.195344
C14 C 0.0220(2) 0.3764(2) 0.22899(16)
H12 H -0.023672 0.349545 0.241654
C15 C 0.1059(2) 0.3519(2) 0.23879(15)
C16 C 0.1251(3) 0.2848(2) 0.27034(17)
H13 H 0.168976 0.259546 0.250893
H14 H 0.073129 0.25665 0.269394
H15 H 0.145858 0.294229 0.311344
C17 C 0.4478(2) 0.43101(18) 0.28127(14)
C18 C 0.4980(2) 0.54043(19) 0.29286(15)
C19 C 0.4287(2) 0.53303(19) 0.32543(14)
C20 C 0.3953(2) 0.58686(19) 0.36296(15)
C21 C 0.4346(3) 0.2420(2) 0.12368(15)
H16 H 0.397211 0.225041 0.091954
C22 C 0.3973(3) 0.5786(2) 0.42412(16)
H17 H 0.417994 0.536595 0.441863
C23 C 0.3694(3) 0.6312(2) 0.45871(18)
H18 H 0.370243 0.62498 0.500126
C24 C 0.3400(3) 0.6935(2) 0.43352(18)
H19 H 0.32085 0.729507 0.457621
C25 C 0.3388(3) 0.7026(2) 0.37315(18)
H20 H 0.319242 0.745012 0.355579
C26 C 0.3663(2) 0.6495(2) 0.33871(17)
H21 H 0.365282 0.656031 0.297317
C27 C 0.5522(2) 0.6006(2) 0.28484(16)
C28 C 0.5813(2) 0.6417(2) 0.33278(17)
H22 H 0.566929 0.629561 0.371131
C29 C 0.6311(3) 0.7001(2) 0.32528(19)
H23 H 0.649729 0.727959 0.358272
C30 C 0.6534(3) 0.7175(2) 0.26990(19)
H24 H 0.687672 0.757178 0.264723
C31 C 0.6257(3) 0.6769(2) 0.22176(17)
H25 H 0.641549 0.688658 0.183697
C32 C 0.5751(2) 0.6194(2) 0.22883(16)
H26 H 0.555743 0.592372 0.195474
C33 C 0.5781(2) 0.45630(18) 0.23254(14)
C34 C 0.6561(2) 0.43989(19) 0.26304(15)
C35 C 0.7220(2) 0.41719(19) 0.23031(16)
H27 H 0.775419 0.404891 0.250208
C36 C 0.7110(2) 0.4122(2) 0.16910(16)
C37 C 0.6328(2) 0.43192(19) 0.14062(15)
H28 H 0.625732 0.430812 0.098791
C38 C 0.5645(2) 0.45317(18) 0.17145(14)
C39 C 0.4795(2) 0.4695(2) 0.13934(16)
H29 H 0.441159 0.429766 0.141921
H30 H 0.487043 0.479241 0.097882
H31 H 0.454759 0.510167 0.157279
C40 C 0.7817(3) 0.3872(2) 0.13396(18)
H32 H 0.829656 0.371206 0.160828
H33 H 0.800546 0.425168 0.109657
H34 H 0.760828 0.348754 0.108491
C41 C 0.6687(2) 0.4454(2) 0.32904(15)
H35 H 0.677862 0.494014 0.340304
H36 H 0.718511 0.417918 0.343583
H37 H 0.617884 0.427808 0.346249
C42 C 0.4126(2) 0.31799(17) 0.33047(14)
C43 C 0.4108(2) 0.25893(19) 0.41538(14)
C44 C 0.3629(2) 0.31768(19) 0.41987(14)
C45 C 0.3193(2) 0.34114(19) 0.47075(14)
C46 C 0.3300(3) 0.4089(2) 0.49149(16)
H38 H 0.366673 0.439769 0.473177
C47 C 0.2870(3) 0.4313(2) 0.53896(18)
H39 H 0.294101 0.47761 0.552808
C48 C 0.2344(3) 0.3866(3) 0.56584(17)
H40 H 0.205068 0.402042 0.59821
C49 C 0.2241(3) 0.3198(2) 0.54601(16)
H41 H 0.188059 0.289012 0.56498
C50 C 0.2663(2) 0.2965(2) 0.49813(15)
H42 H 0.258484 0.250256 0.484426
C51 C 0.4301(2) 0.20314(18) 0.45831(14)
C52 C 0.4161(2) 0.1338(2) 0.44329(16)
H43 H 0.395741 0.122264 0.404041
C53 C 0.4311(3) 0.0812(2) 0.48456(17)
H44 H 0.421425 0.034166 0.473587
C54 C 0.4606(3) 0.0981(2) 0.54217(17)
H45 H 0.470788 0.06267 0.570834
C55 C 0.4751(2) 0.1667(2) 0.55750(16)
H46 H 0.495087 0.17799 0.596858
C56 C 0.4608(2) 0.2191(2) 0.51633(14)
H47 H 0.471884 0.265973 0.527392
C57 C 0.4945(2) 0.20958(19) 0.33374(14)
C58 C 0.4558(2) 0.16391(19) 0.29165(14)
C59 C 0.5103(2) 0.12049(19) 0.26324(15)
H48 H 0.486211 0.088732 0.234601
C60 C 0.5975(2) 0.1219(2) 0.27512(16)
C61 C 0.6324(2) 0.1670(2) 0.31871(16)
H49 H 0.692428 0.16738 0.328052
C62 C 0.5817(2) 0.21131(19) 0.34877(14)
C63 C 0.6208(2) 0.2598(2) 0.39529(17)
H50 H 0.598668 0.306776 0.387763
H51 H 0.682984 0.260002 0.394226
H52 H 0.606279 0.244333 0.434168
C64 C 0.6551(3) 0.0768(2) 0.24142(19)
H53 H 0.620508 0.043152 0.217688
H54 H 0.695419 0.05222 0.269217
H55 H 0.686699 0.105917 0.215488
C65 C 0.3610(2) 0.1626(2) 0.27710(16)
H56 H 0.344559 0.200064 0.249362
H57 H 0.332258 0.168991 0.31323
H58 H 0.344292 0.117926 0.25919
C66 C 0.5201(3) 0.2260(2) 0.12616(16)
H59 H 0.541638 0.197984 0.096498
C67 C 0.5416(2) 0.29243(18) 0.21576(15)
H60 H 0.579455 0.309811 0.247051
C68 C 0.4548(2) 0.30894(18) 0.21456(14)
C69 C 0.4019(2) 0.2828(2) 0.16697(14)
H61 H 0.34267 0.293114 0.164204
N1 N 0.39737(18) 0.46532(15) 0.31726(12)
N2 N 0.50829(18) 0.47541(15) 0.26581(12)
N3 N 0.36304(17) 0.35369(15) 0.36596(11)
N4 N 0.44088(18) 0.25986(15) 0.35931(12)
N5 N 0.25650(18) 0.36647(16) 0.22215(12)
C70 C 0.1579(3) 0.1142(3) 0.42428(18)
H62 H 0.19447 0.080201 0.409775
C71 C 0.1420(3) 0.1145(3) 0.48260(19)
H63 H 0.167556 0.080464 0.50857
C72 C 0.0892(3) 0.1639(3) 0.50368(18)
H64 H 0.078603 0.164058 0.54411
C73 C 0.0517(3) 0.2133(2) 0.46574(18)
H65 H 0.015257 0.247544 0.480008
C74 C 0.0675(3) 0.2126(3) 0.40786(19)
H66 H 0.041627 0.246386 0.381729
C75 C 0.1202(3) 0.1636(3) 0.38708(19)
H67 H 0.13092 0.163639 0.346652
C76 C 0.8318(3) 0.3296(3) 0.4632(2)
H68 H 0.809001 0.302636 0.493045
C77 C 0.8552(3) 0.2983(3) 0.41272(18)
H69 H 0.84859 0.249672 0.407396
C78 C 0.8885(2) 0.3382(2) 0.36994(18)
H70 H 0.904464 0.316881 0.334939
C79 C 0.8988(3) 0.4082(2) 0.3773(2)
H71 H 0.92218 0.43508 0.347644
C80 C 0.8752(3) 0.4393(3) 0.4275(3)
H72 H 0.882217 0.487854 0.432562
C81 C 0.8415(3) 0.4006(4) 0.4704(3)
H73 H 0.824872 0.422452 0.505009
C82 C 0.7704(4) 0.0764(3) 0.4273(2)
H74 H 0.76996 0.058242 0.388488
C83 C 0.6955(4) 0.0806(3) 0.4542(2)
H75 H 0.643265 0.066388 0.433696
C84 C 0.6965(3) 0.1053(3) 0.5109(2)
H76 H 0.64504 0.107799 0.529914
C85 C 0.7725(3) 0.1265(2) 0.5401(2)
H77 H 0.773495 0.143231 0.579339
C86 C 0.8464(3) 0.1235(3) 0.5127(2)
H78 H 0.898473 0.138905 0.532657
C87 C 0.8453(4) 0.0982(3) 0.4560(2)
H79 H 0.896616 0.095983 0.436905
loop_
_geom_bond_atom_site_label_1
_geom_bond_atom_site_label_2
_geom_bond_site_symmetry_1
_geom_bond_site_symmetry_2
B1 C1 1_555 1_555
B2 C7 1_555 1_555
C1 C2 1_555 1_555
C2 H1 1_555 1_555
C3 C2 1_555 1_555
H2 C3 1_555 1_555
C4 C3 1_555 1_555
H3 C4 1_555 1_555
C5 C4 1_555 1_555
H4 C5 1_555 1_555
C6 C1 1_555 1_555
H5 C6 1_555 1_555
C7 B1 1_555 1_555
C8 C9 1_555 1_555
C9 C10 1_555 1_555
C10 H6 1_555 1_555
H7 C10 1_555 1_555
H8 C10 1_555 1_555
C11 H9 1_555 1_555
C12 C9 1_555 1_555
H10 C12 1_555 1_555
C13 C12 1_555 1_555
H11 C13 1_555 1_555
C14 C13 1_555 1_555
H12 C14 1_555 1_555
C15 C8 1_555 1_555
C16 C15 1_555 1_555
H13 C16 1_555 1_555
H14 C16 1_555 1_555
H15 C16 1_555 1_555
C17 B2 1_555 1_555
C18 C19 1_555 1_555
C19 C20 1_555 1_555
C20 C22 1_555 1_555
C21 H16 1_555 1_555
C22 H17 1_555 1_555
C23 C22 1_555 1_555
H18 C23 1_555 1_555
C24 C23 1_555 1_555
H19 C24 1_555 1_555
C25 C24 1_555 1_555
H20 C25 1_555 1_555
C26 C20 1_555 1_555
H21 C26 1_555 1_555
C27 C18 1_555 1_555
C28 C27 1_555 1_555
H22 C28 1_555 1_555
C29 C28 1_555 1_555
H23 C29 1_555 1_555
C30 C29 1_555 1_555
H24 C30 1_555 1_555
C31 C30 1_555 1_555
H25 C31 1_555 1_555
C32 C27 1_555 1_555
H26 C32 1_555 1_555
C33 C34 1_555 1_555
C34 C35 1_555 1_555
C35 H27 1_555 1_555
C36 C35 1_555 1_555
C37 C36 1_555 1_555
H28 C37 1_555 1_555
C38 C33 1_555 1_555
C39 C38 1_555 1_555
H29 C39 1_555 1_555
H30 C39 1_555 1_555
H31 C39 1_555 1_555
C40 C36 1_555 1_555
H32 C40 1_555 1_555
H33 C40 1_555 1_555
H34 C40 1_555 1_555
C41 C34 1_555 1_555
H35 C41 1_555 1_555
H36 C41 1_555 1_555
H37 C41 1_555 1_555
C42 B2 1_555 1_555
C43 C44 1_555 1_555
C44 C45 1_555 1_555
C45 C46 1_555 1_555
C46 H38 1_555 1_555
C47 C46 1_555 1_555
H39 C47 1_555 1_555
C48 C47 1_555 1_555
H40 C48 1_555 1_555
C49 C48 1_555 1_555
H41 C49 1_555 1_555
C50 C45 1_555 1_555
H42 C50 1_555 1_555
C51 C43 1_555 1_555
C52 C51 1_555 1_555
H43 C52 1_555 1_555
C53 C52 1_555 1_555
H44 C53 1_555 1_555
C54 C53 1_555 1_555
H45 C54 1_555 1_555
C55 C54 1_555 1_555
H46 C55 1_555 1_555
C56 C51 1_555 1_555
H47 C56 1_555 1_555
C57 C58 1_555 1_555
C58 C59 1_555 1_555
C59 H48 1_555 1_555
C60 C59 1_555 1_555
C61 C60 1_555 1_555
H49 C61 1_555 1_555
C62 C57 1_555 1_555
C63 C62 1_555 1_555
H50 C63 1_555 1_555
H51 C63 1_555 1_555
H52 C63 1_555 1_555
C64 C60 1_555 1_555
H53 C64 1_555 1_555
H54 C64 1_555 1_555
H55 C64 1_555 1_555
C65 C58 1_555 1_555
H56 C65 1_555 1_555
H57 C65 1_555 1_555
H58 C65 1_555 1_555
C66 C11 1_555 1_555
H59 C66 1_555 1_555
C67 C11 1_555 1_555
H60 C67 1_555 1_555
C68 B2 1_555 1_555
C69 C21 1_555 1_555
H61 C69 1_555 1_555
N1 B1 1_555 1_555
N2 C17 1_555 1_555
N3 B1 1_555 1_555
N4 C42 1_555 1_555
N5 C7 1_555 1_555
C70 H62 1_555 1_555
C71 C70 1_555 1_555
H63 C71 1_555 1_555
C72 C71 1_555 1_555
H64 C72 1_555 1_555
C73 C72 1_555 1_555
H65 C73 1_555 1_555
C74 C73 1_555 1_555
H66 C74 1_555 1_555
C75 C70 1_555 1_555
H67 C75 1_555 1_555
C76 H68 1_555 1_555
C77 C76 1_555 1_555
H69 C77 1_555 1_555
C78 C77 1_555 1_555
H70 C78 1_555 1_555
C79 C78 1_555 1_555
H71 C79 1_555 1_555
C80 C79 1_555 1_555
H72 C80 1_555 1_555
C81 C76 1_555 1_555
H73 C81 1_555 1_555
C82 H74 1_555 1_555
C83 C82 1_555 1_555
H75 C83 1_555 1_555
C84 C83 1_555 1_555
H76 C84 1_555 1_555
C85 C84 1_555 1_555
H77 C85 1_555 1_555
C86 C85 1_555 1_555
H78 C86 1_555 1_555
C87 C82 1_555 1_555
H79 C87 1_555 1_555
C5 C6 1_555 1_555
C8 N5 1_555 1_555
C14 C15 1_555 1_555
C17 N1 1_555 1_555
C18 N2 1_555 1_555
C19 N1 1_555 1_555
C21 C66 1_555 1_555
C25 C26 1_555 1_555
C31 C32 1_555 1_555
C33 N2 1_555 1_555
C37 C38 1_555 1_555
C42 N3 1_555 1_555
C43 N4 1_555 1_555
C44 N3 1_555 1_555
C49 C50 1_555 1_555
C55 C56 1_555 1_555
C57 N4 1_555 1_555
C61 C62 1_555 1_555
C67 C68 1_555 1_555
C68 C69 1_555 1_555
C74 C75 1_555 1_555
C80 C81 1_555 1_555
C86 C87 1_555 1_555

#END
