
#######################################################################
#
#                 Cambridge Crystallographic Data Centre
#                                CCDC 
#
#######################################################################
#
# If this CIF has been generated from an entry in the Cambridge 
# Structural Database, then it will include bibliographic, chemical, 
# crystal, experimental, refinement or atomic coordinate data resulting 
# from the CCDC's data processing and validation procedures.
#
#######################################################################

data_UGAFEQ
_chemical_formula_moiety         'C60 H52 B2 N4,0.5(C6 H6),0.5(C7 H8)'
_chemical_name_systematic        
"1,9-dimesityl-2,3,5,7,8,10-hexaphenyl-1,9-dihydrodiimidazo[1,2-c:2',1'-f][1,3,2,5]diazadiborinine-4,6-diium-5,10-diide benzene toluene solvate"
_symmetry_cell_setting           triclinic
_symmetry_space_group_name_H-M   'P -1'
_symmetry_Int_Tables_number      2
_space_group_name_Hall           '-P 1'
loop_
_symmetry_equiv_pos_site_id
_symmetry_equiv_pos_as_xyz
1 x,y,z
2 -x,-y,-z
_cell_length_a                   12.7778(4)
_cell_length_b                   14.2394(5)
_cell_length_c                   15.2710(5)
_cell_angle_alpha                87.1250(10)
_cell_angle_beta                 71.8910(10)
_cell_angle_gamma                85.8850(10)
_cell_volume                     2632.96
_exptl_crystal_colour            orange
_exptl_crystal_description       plate
_cell_formula_units_Z            2
loop_
_atom_site_label
_atom_site_type_symbol
_atom_site_fract_x
_atom_site_fract_y
_atom_site_fract_z
B1 B 0.27109(17) 0.35430(15) 0.47323(13)
B2 B 0.23504(17) 0.56172(15) 0.51806(13)
C1 C 0.25299(15) 0.33428(13) 0.64748(12)
C2 C 0.22870(15) 0.39585(13) 0.71713(12)
C3 C 0.23516(15) 0.48328(13) 0.58676(11)
C4 C 0.25581(15) 0.52385(13) 0.42430(12)
C5 C 0.28512(15) 0.41978(13) 0.30800(11)
C6 C 0.28443(15) 0.50797(13) 0.27120(12)
C7 C 0.28746(17) 0.24757(13) 0.44977(12)
C8 C 0.3872(2) 0.20818(17) 0.39333(14)
H1 H 0.447680 0.246794 0.368271
C9 C 0.3992(3) 0.1127(2) 0.37317(17)
H2 H 0.467256 0.086984 0.333753
C10 C 0.3121(3) 0.05520(18) 0.4106(2)
H3 H 0.320949 -0.010140 0.398366
C11 C 0.2135(3) 0.09292(17) 0.46504(18)
H4 H 0.153330 0.053927 0.489711
C12 C 0.2009(2) 0.18751(15) 0.48445(14)
H5 H 0.131660 0.212517 0.522370
C13 C 0.27689(16) 0.23228(13) 0.65680(12)
C14 C 0.37755(17) 0.18885(14) 0.60702(13)
H6 H 0.431247 0.224993 0.564102
C15 C 0.4000(2) 0.09321(15) 0.61959(14)
H7 H 0.468405 0.063911 0.584597
C16 C 0.3228(2) 0.04051(15) 0.68321(15)
H8 H 0.337898 -0.025087 0.691289
C17 C 0.2240(2) 0.08298(15) 0.73480(15)
H9 H 0.171878 0.046967 0.779403
C18 C 0.20072(17) 0.17835(14) 0.72160(13)
H10 H 0.132296 0.207210 0.756988
C19 C 0.2083(9) 0.3758(8) 0.8165(4)
C20 C 0.2896(9) 0.3294(9) 0.8474(6)
H11 H 0.360492 0.315730 0.804747
C21 C 0.2698(7) 0.3021(6) 0.9399(5)
H12 H 0.326877 0.270927 0.960040
C22 C 0.1670(7) 0.3208(5) 1.0019(4)
H13 H 0.152578 0.301965 1.064899
C23 C 0.0859(6) 0.3663(5) 0.9727(4)
H14 H 0.015473 0.380341 1.015893
C24 C 0.1051(7) 0.3925(5) 0.8803(4)
H15 H 0.046881 0.422172 0.860675
C25 C 0.22944(16) 0.56990(13) 0.72549(11)
C26 C 0.33563(17) 0.59023(14) 0.72349(13)
C27 C 0.3469(2) 0.67257(16) 0.76431(14)
H16 H 0.418321 0.687669 0.763663
C28 C 0.2573(2) 0.73326(15) 0.80585(14)
C29 C 0.1539(2) 0.71083(15) 0.80569(13)
H17 H 0.091991 0.752032 0.833948
C30 C 0.13749(17) 0.62986(13) 0.76547(12)
C31 C 0.02486(17) 0.60896(15) 0.76364(14)
H18 H 0.029644 0.587916 0.702318
H19 H -0.024236 0.666026 0.777666
H20 H -0.004460 0.559284 0.809737
C32 C 0.2734(3) 0.82096(18) 0.85076(19)
H21 H 0.264121 0.807027 0.916154
H22 H 0.218745 0.870780 0.844921
H23 H 0.347767 0.841950 0.820357
C33 C 0.43479(18) 0.52745(17) 0.67660(17)
H24 H 0.429699 0.465900 0.708886
H25 H 0.501798 0.556110 0.677759
H26 H 0.437573 0.519369 0.612541
C34 C 0.21769(17) 0.67022(13) 0.54056(12)
C35 C 0.11624(18) 0.72099(14) 0.55311(13)
H27 H 0.055939 0.689753 0.546606
C36 C 0.1012(2) 0.81590(15) 0.57482(14)
H28 H 0.031158 0.848138 0.583487
C37 C 0.1879(2) 0.86331(15) 0.58380(15)
H29 H 0.177636 0.927844 0.599233
C38 C 0.2895(2) 0.81568(16) 0.57006(15)
H30 H 0.349792 0.847931 0.575182
C39 C 0.30407(19) 0.72111(14) 0.54884(14)
H31 H 0.374698 0.689810 0.539619
C40 C 0.22217(15) 0.66683(13) 0.33291(12)
C41 C 0.28998(18) 0.74195(16) 0.31659(16)
C42 C 0.2442(2) 0.83158(17) 0.30748(19)
H32 H 0.289981 0.883382 0.296480
C43 C 0.1340(2) 0.84833(16) 0.31386(17)
C44 C 0.06887(18) 0.77162(15) 0.32949(15)
H33 H -0.006619 0.781809 0.333043
C45 C 0.11041(16) 0.68043(14) 0.34009(13)
C46 C 0.03573(19) 0.59957(16) 0.36168(19)
H34 H 0.010644 0.586863 0.428402
H35 H 0.076162 0.543363 0.330477
H36 H -0.028202 0.615873 0.340213
C47 C 0.0852(3) 0.94702(19) 0.3064(3)
H37 H 0.016006 0.944260 0.291858
H38 H 0.137255 0.982601 0.257333
H39 H 0.070700 0.978264 0.365062
C48 C 0.4102(2) 0.7268(2) 0.3085(3)
H40 H 0.454698 0.752976 0.249144
H41 H 0.429303 0.659160 0.312406
H42 H 0.424853 0.758354 0.358673
C49 C 0.3046(2) 0.5344(2) 0.17275(14)
C50 C 0.21875(18) 0.5649(2) 0.13849(18)
H43 H 0.144707 0.565829 0.177898
C51 C 0.2412(2) 0.5939(3) 0.04658(19)
H44 H 0.182505 0.614774 0.023173
C52 C 0.3495(3) 0.5925(3) -0.01107(14)
H45 H 0.364889 0.612413 -0.073888
C53 C 0.4354(2) 0.5621(3) 0.02318(17)
H46 H 0.509476 0.561106 -0.016224
C54 C 0.4130(2) 0.5330(2) 0.11509(18)
H47 H 0.471680 0.512160 0.138501
C55 C 0.29221(16) 0.33193(13) 0.25875(12)
C56 C 0.38395(19) 0.30945(17) 0.18339(13)
H48 H 0.443588 0.349755 0.164815
C57 C 0.3882(3) 0.2278(2) 0.13529(15)
H49 H 0.451258 0.212252 0.084556
C58 C 0.3010(3) 0.16921(18) 0.16098(17)
H50 H 0.304419 0.113340 0.128459
C59 C 0.2099(2) 0.19241(15) 0.23353(16)
H51 H 0.149464 0.152895 0.250572
C60 C 0.20467(18) 0.27289(13) 0.28243(13)
H52 H 0.140782 0.287980 0.332626
N1 N 0.25570(13) 0.38715(10) 0.56464(10)
N2 N 0.21633(13) 0.48621(11) 0.68146(10)
N3 N 0.26917(13) 0.42765(11) 0.40453(10)
N4 N 0.26684(13) 0.57243(11) 0.34070(10)
C61? C 0.2214(8) 0.3762(7) 0.8157(3)
C62? C 0.3056(7) 0.3237(8) 0.8386(4)
H53? H 0.367602 0.298883 0.791376
C63? C 0.2991(6) 0.3074(6) 0.9306(5)
H54? H 0.356679 0.271540 0.946259
C64? C 0.2084(6) 0.3437(4) 0.9997(3)
H55? H 0.203944 0.332566 1.062577
C65? C 0.1241(6) 0.3962(5) 0.9768(3)
H56? H 0.062131 0.420935 1.024013
C66? C 0.1306(7) 0.4124(5) 0.8848(4)
H57? H 0.073052 0.448279 0.869130
C67? C 0.3008(3) 0.5457(2) 0.17514(14)
C68? C 0.2421(2) 0.5087(2) 0.12343(18)
H58? H 0.192425 0.460889 0.149520
C69? C 0.2559(3) 0.5417(2) 0.03354(18)
H59? H 0.215790 0.516381 -0.001806
C70? C 0.3286(3) 0.6116(2) -0.00464(15)
H60? H 0.338068 0.634174 -0.066078
C71? C 0.3873(3) 0.6487(2) 0.04707(18)
H61? H 0.436983 0.696475 0.020976
C72? C 0.3735(3) 0.6157(2) 0.13696(17)
H62? H 0.413620 0.640984 0.172303
C73? C 1.0404(9) 0.9958(6) 0.0272(7)
H63? H 1.076791 0.955226 0.061260
C74? C 1.0661(6) 1.0896(6) 0.0108(5)
H64? H 1.119947 1.113130 0.033687
C75? C 1.0129(6) 1.1490(4) -0.0390(4)
H65? H 1.030373 1.213144 -0.050238
C76? C 0.9340(6) 1.1146(5) -0.0725(4)
H66? H 0.897643 1.155254 -0.106590
C77? C 0.9084(6) 1.0209(6) -0.0561(5)
H67? H 0.854485 0.997351 -0.079017
C78? C 0.9616(9) 0.9614(4) -0.0063(7)
H68? H 0.944058 0.897336 0.004907
C79? C 0.5416(11) -0.0532(8) 0.1215(7)
H69? H 0.506944 -0.011254 0.172882
H70? H 0.621512 -0.058584 0.110476
H71? H 0.511935 -0.115575 0.136796
C80? C 0.5182(4) -0.0143(3) 0.0383(3)
C81? C 0.4264(4) -0.0377(3) 0.0153(3)
H72? H 0.378739 -0.082571 0.052214
C82? C 0.4042(4) 0.0046(3) -0.0616(4)
H73? H 0.341496 -0.011371 -0.077218
C83? C 0.4739(5) 0.0703(4) -0.1155(3)
H74? H 0.458789 0.099175 -0.168061
C84? C 0.5657(4) 0.0936(3) -0.0926(3)
H75? H 0.613324 0.138522 -0.129473
C85? C 0.5878(4) 0.0513(3) -0.0157(3)
H76? H 0.650569 0.067323 -0.000041
loop_
_geom_bond_atom_site_label_1
_geom_bond_atom_site_label_2
_geom_bond_site_symmetry_1
_geom_bond_site_symmetry_2
B1 C7 1_555 1_555
B2 C3 1_555 1_555
C1 C2 1_555 1_555
C2 C19 1_555 1_555
C3 N1 1_555 1_555
C4 B2 1_555 1_555
C5 C6 1_555 1_555
C6 C49 1_555 1_555
C7 C8 1_555 1_555
C8 H1 1_555 1_555
C9 C8 1_555 1_555
H2 C9 1_555 1_555
C10 C9 1_555 1_555
H3 C10 1_555 1_555
C11 C10 1_555 1_555
H4 C11 1_555 1_555
C12 C7 1_555 1_555
H5 C12 1_555 1_555
C13 C1 1_555 1_555
C14 C13 1_555 1_555
H6 C14 1_555 1_555
C15 C14 1_555 1_555
H7 C15 1_555 1_555
C16 C15 1_555 1_555
H8 C16 1_555 1_555
C17 C16 1_555 1_555
H9 C17 1_555 1_555
C18 C13 1_555 1_555
H10 C18 1_555 1_555
C19 C20 1_555 1_555
C20 H11 1_555 1_555
C21 C20 1_555 1_555
H12 C21 1_555 1_555
C22 C21 1_555 1_555
H13 C22 1_555 1_555
C23 C22 1_555 1_555
H14 C23 1_555 1_555
C24 C19 1_555 1_555
H15 C24 1_555 1_555
C25 C26 1_555 1_555
C26 C27 1_555 1_555
C27 H16 1_555 1_555
C28 C27 1_555 1_555
C29 C28 1_555 1_555
H17 C29 1_555 1_555
C30 C25 1_555 1_555
C31 C30 1_555 1_555
H18 C31 1_555 1_555
H19 C31 1_555 1_555
H20 C31 1_555 1_555
C32 C28 1_555 1_555
H21 C32 1_555 1_555
H22 C32 1_555 1_555
H23 C32 1_555 1_555
C33 C26 1_555 1_555
H24 C33 1_555 1_555
H25 C33 1_555 1_555
H26 C33 1_555 1_555
C34 B2 1_555 1_555
C35 C34 1_555 1_555
H27 C35 1_555 1_555
C36 C35 1_555 1_555
H28 C36 1_555 1_555
C37 C36 1_555 1_555
H29 C37 1_555 1_555
C38 C37 1_555 1_555
H30 C38 1_555 1_555
C39 C34 1_555 1_555
H31 C39 1_555 1_555
C40 C41 1_555 1_555
C41 C42 1_555 1_555
C42 H32 1_555 1_555
C43 C42 1_555 1_555
C44 C43 1_555 1_555
H33 C44 1_555 1_555
C45 C40 1_555 1_555
C46 C45 1_555 1_555
H34 C46 1_555 1_555
H35 C46 1_555 1_555
H36 C46 1_555 1_555
C47 C43 1_555 1_555
H37 C47 1_555 1_555
H38 C47 1_555 1_555
H39 C47 1_555 1_555
C48 C41 1_555 1_555
H40 C48 1_555 1_555
H41 C48 1_555 1_555
H42 C48 1_555 1_555
C49 C50 1_555 1_555
C50 H43 1_555 1_555
C51 C50 1_555 1_555
H44 C51 1_555 1_555
C52 C51 1_555 1_555
H45 C52 1_555 1_555
C53 C52 1_555 1_555
H46 C53 1_555 1_555
C54 C49 1_555 1_555
H47 C54 1_555 1_555
C55 C5 1_555 1_555
C56 C55 1_555 1_555
H48 C56 1_555 1_555
C57 C56 1_555 1_555
H49 C57 1_555 1_555
C58 C57 1_555 1_555
H50 C58 1_555 1_555
C59 C58 1_555 1_555
H51 C59 1_555 1_555
C60 C55 1_555 1_555
H52 C60 1_555 1_555
N1 B1 1_555 1_555
N2 C2 1_555 1_555
N3 B1 1_555 1_555
N4 C4 1_555 1_555
C1 N1 1_555 1_555
C3 N2 1_555 1_555
C4 N3 1_555 1_555
C5 N3 1_555 1_555
C6 N4 1_555 1_555
C11 C12 1_555 1_555
C17 C18 1_555 1_555
C23 C24 1_555 1_555
C25 N2 1_555 1_555
C29 C30 1_555 1_555
C38 C39 1_555 1_555
C40 N4 1_555 1_555
C44 C45 1_555 1_555
C53 C54 1_555 1_555
C59 C60 1_555 1_555

#END
