
#######################################################################
#
#                 Cambridge Crystallographic Data Centre
#                                CCDC 
#
#######################################################################
#
# If this CIF has been generated from an entry in the Cambridge 
# Structural Database, then it will include bibliographic, chemical, 
# crystal, experimental, refinement or atomic coordinate data resulting 
# from the CCDC's data processing and validation procedures.
#
#######################################################################

data_UGAFIU
_chemical_formula_moiety         'C25 H21 N1 O2'
_chemical_name_systematic        
2-hydroxy-3,6-diphenylspiro[cyclohex-3-ene-1,2'-indol]-3'(1'H)-one
_symmetry_cell_setting           monoclinic
_symmetry_space_group_name_H-M   'P 21/c'
_symmetry_Int_Tables_number      14
_space_group_name_Hall           '-P 2ybc'
loop_
_symmetry_equiv_pos_site_id
_symmetry_equiv_pos_as_xyz
1 x,y,z
2 -x,1/2+y,1/2-z
3 -x,-y,-z
4 x,1/2-y,1/2+z
_cell_length_a                   11.1254(3)
_cell_length_b                   6.3869(2)
_cell_length_c                   25.5774(8)
_cell_angle_alpha                90
_cell_angle_beta                 90.078(2)
_cell_angle_gamma                90
_cell_volume                     1817.45
_exptl_crystal_colour            'light blue'
_exptl_crystal_description       rod
_cell_formula_units_Z            4
loop_
_atom_site_label
_atom_site_type_symbol
_atom_site_fract_x
_atom_site_fract_y
_atom_site_fract_z
N1 N 0.40526(17) 0.5750(3) 0.32218(8)
H1 H 0.4309 0.7032 0.3282
O1 O 0.37319(16) 0.0341(3) 0.34580(7)
O2 O 0.52056(16) 0.2061(3) 0.42215(7)
H2 H 0.4945 0.1055 0.4043
C1 C 0.3696(2) 0.2148(4) 0.32862(9)
C2 C 0.3969(2) 0.4110(4) 0.36138(9)
C3 C 0.5165(2) 0.3931(4) 0.39171(9)
H3 H 0.5840 0.3897 0.3659
C4 C 0.5351(2) 0.5773(4) 0.42787(9)
C5 C 0.4405(2) 0.6870(4) 0.44541(10)
H4 H 0.4561 0.7971 0.4694
C6 C 0.3116(2) 0.6496(4) 0.43011(9)
H5 H 0.2843 0.7662 0.4075
H6 H 0.2613 0.6504 0.4620
C7 C 0.2923(2) 0.4431(4) 0.40122(9)
H7 H 0.2990 0.3288 0.4278
C8 C 0.3675(2) 0.5015(4) 0.27442(9)
C9 C 0.3564(2) 0.6104(4) 0.22712(9)
H8 H 0.3797 0.7531 0.2244
C10 C 0.3104(2) 0.5032(4) 0.18458(10)
H9 H 0.3017 0.5754 0.1523
C11 C 0.2760(2) 0.2916(4) 0.18716(10)
H10 H 0.2415 0.2246 0.1576
C12 C 0.2930(2) 0.1818(4) 0.23322(10)
H11 H 0.2724 0.0378 0.2355
C13 C 0.3410(2) 0.2869(4) 0.27634(9)
C14 C 0.6616(2) 0.6284(4) 0.44264(9)
C15 C 0.7538(2) 0.4805(4) 0.43580(10)
H12 H 0.7346 0.3438 0.4238
C16 C 0.8735(2) 0.5321(5) 0.44649(10)
H13 H 0.9348 0.4306 0.4414
C17 C 0.9033(2) 0.7295(5) 0.46437(11)
H14 H 0.9848 0.7641 0.4714
C18 C 0.8127(2) 0.8775(5) 0.47194(11)
H15 H 0.8325 1.0132 0.4845
C19 C 0.6935(2) 0.8273(4) 0.46121(10)
H16 H 0.6327 0.9295 0.4666
C20 C 0.1707(2) 0.4185(4) 0.37481(10)
C21 C 0.1209(2) 0.5745(4) 0.34351(10)
H17 H 0.1584 0.7079 0.3418
C22 C 0.0166(2) 0.5372(5) 0.31473(11)
H18 H -0.0164 0.6446 0.2934
C23 C -0.0390(2) 0.3428(5) 0.31723(11)
H19 H -0.1090 0.3162 0.2970
C24 C 0.0078(2) 0.1876(5) 0.34930(11)
H20 H -0.0313 0.0557 0.3517
C25 C 0.1119(2) 0.2257(4) 0.37791(10)
H21 H 0.1434 0.1190 0.3999
loop_
_geom_bond_atom_site_label_1
_geom_bond_atom_site_label_2
_geom_bond_site_symmetry_1
_geom_bond_site_symmetry_2
N1 H1 1_555 1_555
O1 C1 1_555 1_555
O2 H2 1_555 1_555
C1 C2 1_555 1_555
C2 N1 1_555 1_555
C3 O2 1_555 1_555
H3 C3 1_555 1_555
C4 C3 1_555 1_555
C5 C4 1_555 1_555
H4 C5 1_555 1_555
C6 C5 1_555 1_555
H5 C6 1_555 1_555
H6 C6 1_555 1_555
C7 C2 1_555 1_555
H7 C7 1_555 1_555
C8 N1 1_555 1_555
C9 C8 1_555 1_555
H8 C9 1_555 1_555
C10 C9 1_555 1_555
H9 C10 1_555 1_555
C11 C10 1_555 1_555
H10 C11 1_555 1_555
C12 C11 1_555 1_555
H11 C12 1_555 1_555
C13 C1 1_555 1_555
C14 C4 1_555 1_555
C15 C14 1_555 1_555
H12 C15 1_555 1_555
C16 C15 1_555 1_555
H13 C16 1_555 1_555
C17 C16 1_555 1_555
H14 C17 1_555 1_555
C18 C17 1_555 1_555
H15 C18 1_555 1_555
C19 C14 1_555 1_555
H16 C19 1_555 1_555
C20 C7 1_555 1_555
C21 C20 1_555 1_555
H17 C21 1_555 1_555
C22 C21 1_555 1_555
H18 C22 1_555 1_555
C23 C22 1_555 1_555
H19 C23 1_555 1_555
C24 C23 1_555 1_555
H20 C24 1_555 1_555
C25 C20 1_555 1_555
H21 C25 1_555 1_555
C2 C3 1_555 1_555
C6 C7 1_555 1_555
C8 C13 1_555 1_555
C12 C13 1_555 1_555
C18 C19 1_555 1_555
C24 C25 1_555 1_555

#END
