
#######################################################################
#
#                 Cambridge Crystallographic Data Centre
#                                CCDC 
#
#######################################################################
#
# If this CIF has been generated from an entry in the Cambridge 
# Structural Database, then it will include bibliographic, chemical, 
# crystal, experimental, refinement or atomic coordinate data resulting 
# from the CCDC's data processing and validation procedures.
#
#######################################################################

data_UGAHIT
_chemical_formula_moiety         'C42 H74 O6 Si4'
_chemical_name_systematic        Tetra-O-(t-butyldimethylsilyl)catechin
_symmetry_cell_setting           orthorhombic
_symmetry_space_group_name_H-M   'P 21 21 21'
_symmetry_Int_Tables_number      19
_space_group_name_Hall           'P 2ac 2ab'
loop_
_symmetry_equiv_pos_site_id
_symmetry_equiv_pos_as_xyz
1 x,y,z
2 1/2-x,-y,1/2+z
3 1/2+x,1/2-y,-z
4 -x,1/2+y,1/2-z
_cell_length_a                   6.613(1)
_cell_length_b                   22.666(5)
_cell_length_c                   31.909(7)
_cell_angle_alpha                90
_cell_angle_beta                 90
_cell_angle_gamma                90
_cell_volume                     4782.85
_exptl_crystal_description       prism
_cell_formula_units_Z            4
loop_
_atom_site_label
_atom_site_type_symbol
_atom_site_fract_x
_atom_site_fract_y
_atom_site_fract_z
Si1 Si -0.1545(1) 0.06632(4) -0.68915(2)
Si2 Si -0.4825(1) -0.17626(4) -0.73057(3)
Si3 Si -1.6992(1) -0.06467(4) -0.41084(3)
Si4 Si -1.4267(1) 0.11430(4) -0.48428(3)
O1 O -0.8295(3) -0.03456(8) -0.57391(5)
O2 O -1.1523(3) -0.16417(8) -0.58711(5)
O3 O -0.2581(3) 0.03651(9) -0.64663(6)
O4 O -0.6022(4) -0.13958(10) -0.69394(6)
O5 O -1.5165(4) -0.03189(10) -0.43741(6)
O6 O -1.2909(3) 0.05778(8) -0.46662(6)
C1 C -1.0174(4) -0.0669(1) -0.57906(8)
C2 C -0.6979(4) -0.0424(1) -0.60712(8)
C3 C -0.5455(4) -0.0002(1) -0.61097(8)
C4 C -0.4090(4) -0.0054(1) -0.64382(8)
C5 C -0.4228(5) -0.0519(1) -0.67209(8)
C6 C -0.5739(5) -0.0935(1) -0.66694(8)
C7 C -0.7121(4) -0.0899(1) -0.63428(8)
C8 C -0.8687(5) -0.1377(1) -0.62872(8)
C9 C -0.9699(4) -0.1311(1) -0.58664(8)
C10 C -1.1478(4) -0.0585(1) -0.54102(8)
C11 C -1.1570(5) -0.0042(1) -0.52082(8)
C12 C -1.2819(5) 0.0040(1) -0.48647(9)
C13 C -1.3992(5) -0.0428(1) -0.47140(9)
C14 C -1.3859(5) -0.0968(1) -0.49131(9)
C15 C -1.2643(4) -0.1055(1) -0.52642(8)
C16 C -1.2564(4) -0.1663(1) -0.54732(8)
C17 C -1.4677(5) -0.1880(1) -0.55929(9)
C18 C -1.1542(5) -0.2109(1) -0.51865(9)
C19 C -0.3564(5) 0.0807(1) -0.72832(9)
C20 C 0.0430(5) 0.0174(1) -0.71106(9)
C21 C -0.0421(5) 0.1372(1) -0.66981(9)
C22 C -0.2111(5) 0.1779(1) -0.65359(10)
C23 C 0.1062(5) 0.1255(2) -0.6332(1)
C24 C 0.0692(6) 0.1683(2) -0.7049(1)
C25 C -0.2090(6) -0.1841(2) -0.7176(1)
C26 C -0.6005(6) -0.2501(1) -0.72801(10)
C27 C -0.5261(5) -0.1399(2) -0.78221(9)
C28 C -0.4417(8) -0.0778(2) -0.7833(1)
C29 C -0.7568(6) -0.1367(2) -0.7910(1)
C30 C -0.4273(7) -0.1759(2) -0.8174(1)
C31 C -1.8663(7) -0.0040(2) -0.3930(1)
C32 C -1.8491(6) -0.1148(2) -0.4440(1)
C33 C -1.5793(7) -0.1040(2) -0.3660(1)
C34 C -1.468(1) -0.0595(3) -0.3385(2)
C35 C -1.7420(9) -0.1351(3) -0.3396(1)
C36 C -1.4359(8) -0.1517(3) -0.3820(1)
C37 C -1.6924(5) 0.0913(2) -0.4930(1)
C38 C -1.3214(6) 0.1405(1) -0.53455(9)
C39 C -1.3995(5) 0.1708(1) -0.44202(9)
C40 C -1.5108(7) 0.2273(2) -0.4542(1)
C41 C -1.4911(6) 0.1482(2) -0.40076(10)
C42 C -1.1744(6) 0.1846(2) -0.43462(9)
H1 H -1.0766 -0.0468 -0.6022
H2 H -0.5376 0.0331 -0.5886
H3 H -0.3328 -0.0543 -0.6969
H4 H -0.9625 -0.1359 -0.6495
H5 H -0.8109 -0.1775 -0.6307
H6 H -0.8776 -0.1444 -0.5621
H7 H -1.0905 0.0254 -0.5332
H8 H -1.4510 -0.1323 -0.4796
H9 H -1.5527 -0.1931 -0.5320
H10 H -1.5198 -0.1614 -0.5776
H11 H -1.4641 -0.2262 -0.5766
H12 H -1.2261 -0.2139 -0.4924
H13 H -1.1562 -0.2466 -0.5282
H14 H -1.0086 -0.1993 -0.5076
H15 H -0.4483 0.1046 -0.7154
H16 H -0.3134 0.0995 -0.7576
H17 H -0.4113 0.0442 -0.7404
H18 H -0.0021 -0.0209 -0.7213
H19 H 0.1092 0.0328 -0.7359
H20 H 0.1362 0.0101 -0.6898
H21 H -0.1535 0.2201 -0.6391
H22 H -0.3069 0.1876 -0.6749
H23 H -0.2671 0.1663 -0.6307
H24 H 0.0513 0.1081 -0.6077
H25 H 0.2087 0.1066 -0.6435
H26 H 0.1771 0.1665 -0.6247
H27 H 0.1667 0.1490 -0.7165
H28 H -0.0262 0.1797 -0.7312
H29 H 0.1274 0.2036 -0.6985
H30 H -0.1862 -0.2085 -0.6882
H31 H -0.1490 -0.2079 -0.7403
H32 H -0.1372 -0.1455 -0.7172
H33 H -0.7408 -0.2476 -0.7364
H34 H -0.5373 -0.2751 -0.7515
H35 H -0.5757 -0.2726 -0.7023
H36 H -0.3019 -0.0722 -0.7800
H37 H -0.4707 -0.0602 -0.8131
H38 H -0.5071 -0.0526 -0.7615
H39 H -0.8371 -0.1132 -0.7690
H40 H -0.7894 -0.1134 -0.8189
H41 H -0.8347 -0.1752 -0.7914
H42 H -0.4609 -0.2106 -0.8211
H43 H -0.4485 -0.1570 -0.8469
H44 H -0.2793 -0.1726 -0.8155
H45 H -1.7801 0.0207 -0.3768
H46 H -1.9125 0.0184 -0.4194
H47 H -1.9475 -0.0206 -0.3737
H48 H -1.9527 -0.1365 -0.4265
H49 H -1.8967 -0.0924 -0.4641
H50 H -1.7686 -0.1429 -0.4577
H51 H -1.4411 -0.0810 -0.3192
H52 H -1.3758 -0.0328 -0.3494
H53 H -1.5472 -0.0112 -0.3259
H54 H -1.8253 -0.1066 -0.3334
H55 H -1.8362 -0.1633 -0.3577
H56 H -1.7218 -0.1517 -0.3223
H57 H -1.3909 -0.1742 -0.3635
H58 H -1.4792 -0.1892 -0.3986
H59 H -1.3274 -0.1342 -0.3980
H60 H -1.7787 0.1176 -0.5055
H61 H -1.7088 0.0589 -0.5117
H62 H -1.7540 0.0781 -0.4645
H63 H -1.1972 0.1530 -0.5328
H64 H -1.3254 0.1096 -0.5580
H65 H -1.3964 0.1712 -0.5465
H66 H -1.4977 0.2564 -0.4324
H67 H -1.4680 0.2444 -0.4790
H68 H -1.6557 0.2194 -0.4615
H69 H -1.4745 0.1797 -0.3792
H70 H -1.6272 0.1387 -0.4021
H71 H -1.4301 0.1105 -0.3943
H72 H -1.0859 0.1458 -0.4219
H73 H -1.1115 0.2018 -0.4594
H74 H -1.1543 0.2080 -0.4092
loop_
_geom_bond_atom_site_label_1
_geom_bond_atom_site_label_2
_geom_bond_site_symmetry_1
_geom_bond_site_symmetry_2
Si1 O3 1_555 1_555
Si2 O4 1_555 1_555
Si3 O5 1_555 1_555
Si4 O6 1_555 1_555
O1 C1 1_555 1_555
O2 C9 1_555 1_555
O3 C4 1_555 1_555
O4 C6 1_555 1_555
O5 C13 1_555 1_555
O6 C12 1_555 1_555
C1 C9 1_555 1_555
C2 O1 1_555 1_555
C3 C2 1_555 1_555
C4 C3 1_555 1_555
C5 C4 1_555 1_555
C6 C5 1_555 1_555
C7 C2 1_555 1_555
C8 C7 1_555 1_555
C9 C8 1_555 1_555
C10 C1 1_555 1_555
C11 C10 1_555 1_555
C12 C11 1_555 1_555
C13 C12 1_555 1_555
C14 C13 1_555 1_555
C15 C10 1_555 1_555
C16 O2 1_555 1_555
C17 C16 1_555 1_555
C18 C16 1_555 1_555
C19 Si1 1_555 1_555
C20 Si1 1_555 1_555
C21 Si1 1_555 1_555
C22 C21 1_555 1_555
C23 C21 1_555 1_555
C24 C21 1_555 1_555
C25 Si2 1_555 1_555
C26 Si2 1_555 1_555
C27 Si2 1_555 1_555
C28 C27 1_555 1_555
C29 C27 1_555 1_555
C30 C27 1_555 1_555
C31 Si3 1_555 1_555
C32 Si3 1_555 1_555
C33 Si3 1_555 1_555
C34 C33 1_555 1_555
C35 C33 1_555 1_555
C36 C33 1_555 1_555
C37 Si4 1_555 1_555
C38 Si4 1_555 1_555
C39 Si4 1_555 1_555
C40 C39 1_555 1_555
C41 C39 1_555 1_555
C42 C39 1_555 1_555
H1 C1 1_555 1_555
H2 C3 1_555 1_555
H3 C5 1_555 1_555
H4 C8 1_555 1_555
H5 C8 1_555 1_555
H6 C9 1_555 1_555
H7 C11 1_555 1_555
H8 C14 1_555 1_555
H9 C17 1_555 1_555
H10 C17 1_555 1_555
H11 C17 1_555 1_555
H12 C18 1_555 1_555
H13 C18 1_555 1_555
H14 C18 1_555 1_555
H15 C19 1_555 1_555
H16 C19 1_555 1_555
H17 C19 1_555 1_555
H18 C20 1_555 1_555
H19 C20 1_555 1_555
H20 C20 1_555 1_555
H21 C22 1_555 1_555
H22 C22 1_555 1_555
H23 C22 1_555 1_555
H24 C23 1_555 1_555
H25 C23 1_555 1_555
H26 C23 1_555 1_555
H27 C24 1_555 1_555
H28 C24 1_555 1_555
H29 C24 1_555 1_555
H30 C25 1_555 1_555
H31 C25 1_555 1_555
H32 C25 1_555 1_555
H33 C26 1_555 1_555
H34 C26 1_555 1_555
H35 C26 1_555 1_555
H36 C28 1_555 1_555
H37 C28 1_555 1_555
H38 C28 1_555 1_555
H39 C29 1_555 1_555
H40 C29 1_555 1_555
H41 C29 1_555 1_555
H42 C30 1_555 1_555
H43 C30 1_555 1_555
H44 C30 1_555 1_555
H45 C31 1_555 1_555
H46 C31 1_555 1_555
H47 C31 1_555 1_555
H48 C32 1_555 1_555
H49 C32 1_555 1_555
H50 C32 1_555 1_555
H51 C34 1_555 1_555
H52 C34 1_555 1_555
H53 C34 1_555 1_555
H54 C35 1_555 1_555
H55 C35 1_555 1_555
H56 C35 1_555 1_555
H57 C36 1_555 1_555
H58 C36 1_555 1_555
H59 C36 1_555 1_555
H60 C37 1_555 1_555
H61 C37 1_555 1_555
H62 C37 1_555 1_555
H63 C38 1_555 1_555
H64 C38 1_555 1_555
H65 C38 1_555 1_555
H66 C40 1_555 1_555
H67 C40 1_555 1_555
H68 C40 1_555 1_555
H69 C41 1_555 1_555
H70 C41 1_555 1_555
H71 C41 1_555 1_555
H72 C42 1_555 1_555
H73 C42 1_555 1_555
H74 C42 1_555 1_555
C6 C7 1_555 1_555
C14 C15 1_555 1_555
C15 C16 1_555 1_555

#END
