
#######################################################################
#
#                 Cambridge Crystallographic Data Centre
#                                CCDC 
#
#######################################################################
#
# If this CIF has been generated from an entry in the Cambridge 
# Structural Database, then it will include bibliographic, chemical, 
# crystal, experimental, refinement or atomic coordinate data resulting 
# from the CCDC's data processing and validation procedures.
#
#######################################################################

data_UGAKOC
_chemical_formula_moiety         'C28 H40 O2 Si4'
_chemical_name_systematic        
4,4,6,6,15,15,17,17-Octamethyl-5,16-dioxa-4,6,15,17-tetrasila-tricyclo(18.2.2^9,12^)hexacosa-1(22),2,7,9,11,13,18,20,23,25-decaene
_symmetry_cell_setting           triclinic
_symmetry_space_group_name_H-M   'P -1'
_symmetry_Int_Tables_number      2
_space_group_name_Hall           '-P 1'
loop_
_symmetry_equiv_pos_site_id
_symmetry_equiv_pos_as_xyz
1 x,y,z
2 -x,-y,-z
_cell_length_a                   8.8009(3)
_cell_length_b                   12.6881(6)
_cell_length_c                   14.2737(6)
_cell_angle_alpha                93.865(1)
_cell_angle_beta                 91.300(1)
_cell_angle_gamma                107.045(1)
_cell_volume                     1518.91
_exptl_crystal_colour            colorless
_exptl_crystal_description       plate
_chemical_melting_point          'above 463K (dec.)'
_cell_formula_units_Z            2
_exptl_crystal_recrystallization_method chloroform/methanol
loop_
_atom_site_label
_atom_site_type_symbol
_atom_site_fract_x
_atom_site_fract_y
_atom_site_fract_z
Si1 Si -0.17339(6) 0.70906(4) 0.18788(4)
Si2 Si -0.50007(6) 0.76408(4) 0.17583(3)
O1 O -0.31327(16) 0.76706(12) 0.16549(9)
C1 C -0.2281(2) 0.62309(16) 0.28956(13)
H1 H -0.3267 0.5662 0.2830
C2 C -0.1453(2) 0.63191(15) 0.37023(13)
H2 H -0.0469 0.6889 0.3770
C3 C -0.1892(2) 0.56286(15) 0.45096(12)
C4 C -0.3167(2) 0.46494(15) 0.44578(13)
H3 H -0.3767 0.4404 0.3881
C5 C -0.3566(2) 0.40350(15) 0.52298(13)
H4 H -0.4437 0.3378 0.5174
C6 C -0.2707(2) 0.43637(14) 0.60923(12)
C7 C -0.1427(2) 0.53303(15) 0.61380(13)
H5 H -0.0818 0.5572 0.6712
C8 C -0.1023(2) 0.59460(15) 0.53635(13)
H6 H -0.0138 0.6595 0.5417
C9 C -0.3139(2) 0.37712(15) 0.69541(12)
H7 H -0.2440 0.4055 0.7489
C10 C -0.5626(2) 0.71059(15) 0.29185(13)
H8 H -0.5016 0.7488 0.3462
C11 C 0.0171(2) 0.82032(16) 0.21460(14)
H9 H 0.0064 0.8669 0.2702
H10 H 0.0429 0.8656 0.1609
H11 H 0.1024 0.7871 0.2268
C12 C -0.1570(3) 0.61890(17) 0.08283(14)
H12 H -0.2585 0.5611 0.0696
H13 H -0.0729 0.5846 0.0949
H14 H -0.1311 0.6634 0.0286
C13 C -0.5090(2) 0.90771(15) 0.16485(14)
H15 H -0.4751 0.9308 0.1026
H16 H -0.6183 0.9100 0.1729
H17 H -0.4382 0.9578 0.2133
C14 C -0.6269(3) 0.67190(16) 0.07947(13)
H18 H -0.6229 0.5961 0.0843
H19 H -0.7369 0.6739 0.0846
H20 H -0.5878 0.6972 0.0187
C9A C -0.6861(2) 0.62288(15) 0.30459(12)
C6A C -0.7293(2) 0.56363(14) 0.39077(12)
C5A C -0.6434(2) 0.59650(15) 0.47702(13)
C4A C -0.6833(2) 0.53506(15) 0.55422(13)
C3A C -0.8108(2) 0.43714(15) 0.54904(12)
C2A C -0.8547(2) 0.36809(15) 0.62977(13)
C1A C -0.7719(2) 0.37691(16) 0.71044(13)
Si1A Si -0.82661(6) 0.29094(4) 0.81212(4)
O1A O -0.68673(16) 0.23294(12) 0.83451(9)
Si2A Si -0.49993(6) 0.23592(4) 0.82417(3)
C10A C -0.4374(2) 0.28941(15) 0.70815(13)
H8A H -0.4984 0.2512 0.6538
C13A C -0.4910(2) 0.09229(15) 0.83515(14)
H15A H -0.5249 0.0692 0.8974
H16A H -0.3817 0.0900 0.8271
H17A H -0.5618 0.0422 0.7867
C14A C -0.3731(3) 0.32810(16) 0.92053(13)
H18A H -0.3771 0.4039 0.9157
H19A H -0.2631 0.3261 0.9154
H20A H -0.4122 0.3028 0.9813
C11A C -1.0171(2) 0.17968(16) 0.78540(14)
H9A H -1.0064 0.1331 0.7298
H10A H -1.0429 0.1344 0.8391
H11A H -1.1024 0.2129 0.7732
C12A C -0.8430(3) 0.38110(17) 0.91717(14)
H12A H -0.7415 0.4389 0.9304
H13A H -0.9271 0.4154 0.9051
H14A H -0.8689 0.3366 0.9714
H1A H -0.6733 0.4338 0.7170
H2A H -0.9531 0.3111 0.6230
C8A C -0.8977(2) 0.40540(15) 0.46365(13)
C7A C -0.8573(2) 0.46697(15) 0.38620(13)
H5A H -0.9182 0.4428 0.3288
H6A H -0.9862 0.3405 0.4583
H3A H -0.6233 0.5596 0.6119
H4A H -0.5563 0.6622 0.4826
H7A H -0.7560 0.5945 0.2511
Si3 Si 0.27659(6) 0.25663(4) 0.18492(4)
Si4 Si -0.09180(6) 0.20690(4) 0.16877(4)
O2 O 0.09897(15) 0.27198(11) 0.16687(9)
C15 C 0.2849(2) 0.20914(16) 0.30466(13)
H21 H 0.2715 0.2562 0.3564
C16 C 0.3085(2) 0.11287(16) 0.32264(13)
H22 H 0.3410 0.0747 0.2710
C17 C 0.2912(2) 0.05726(15) 0.41140(13)
C18 C 0.2424(2) 0.10115(16) 0.49450(13)
H23 H 0.2259 0.1720 0.4963
C19 C 0.2181(2) 0.04237(16) 0.57368(14)
H24 H 0.1858 0.0740 0.6292
C20 C 0.2400(2) -0.06357(15) 0.57423(13)
C21 C 0.2922(2) -0.10515(16) 0.49232(13)
H25 H 0.3113 -0.1751 0.4910
C22 C 0.3168(2) -0.04651(16) 0.41277(13)
H26 H 0.3518 -0.0774 0.3579
C23 C 0.2082(2) -0.13066(16) 0.65611(13)
H27 H 0.2490 -0.1922 0.6544
C24 C -0.1293(2) 0.11585(16) 0.26776(13)
H28 H -0.0892 0.0539 0.2638
C25 C 0.4209(2) 0.39433(15) 0.17073(15)
H29 H 0.4032 0.4489 0.2178
H30 H 0.4058 0.4167 0.1076
H31 H 0.5296 0.3899 0.1793
C26 C 0.3068(3) 0.15080(15) 0.09594(13)
H32 H 0.2302 0.0789 0.1045
H33 H 0.4152 0.1456 0.1039
H34 H 0.2909 0.1724 0.0327
C27 C -0.2006(3) 0.31202(18) 0.18360(16)
H35 H -0.1668 0.3557 0.2437
H36 H -0.1771 0.3609 0.1321
H37 H -0.3152 0.2748 0.1827
C28 C -0.1545(3) 0.12294(19) 0.05517(14)
H38 H -0.0967 0.0678 0.0481
H39 H -0.2691 0.0854 0.0541
H40 H -0.1309 0.1713 0.0034
C23A C -0.2082(2) 0.13066(16) 0.34389(13)
C20A C -0.2400(2) 0.06357(15) 0.42577(13)
C19A C -0.2181(2) -0.04237(16) 0.42632(14)
C18A C -0.2424(2) -0.10115(16) 0.50550(13)
C17A C -0.2912(2) -0.05726(15) 0.58860(13)
C16A C -0.3085(2) -0.11287(16) 0.67736(13)
C15A C -0.2849(2) -0.20914(16) 0.69534(13)
Si3A Si -0.27659(6) -0.25663(4) 0.81508(4)
O2A O -0.09897(15) -0.27198(11) 0.83313(9)
Si4A Si 0.09180(6) -0.20690(4) 0.83123(4)
C24A C 0.1293(2) -0.11585(16) 0.73224(13)
H28A H 0.0892 -0.0539 0.7362
C27A C 0.2006(3) -0.31202(18) 0.81640(16)
H35A H 0.1668 -0.3557 0.7563
H36A H 0.1771 -0.3609 0.8679
H37A H 0.3152 -0.2748 0.8173
C28A C 0.1545(3) -0.12294(19) 0.94483(14)
H38A H 0.0967 -0.0678 0.9519
H39A H 0.2691 -0.0854 0.9459
H40A H 0.1309 -0.1713 0.9966
C25A C -0.4209(2) -0.39433(15) 0.82927(15)
H29A H -0.4032 -0.4489 0.7822
H30A H -0.4058 -0.4167 0.8924
H31A H -0.5296 -0.3899 0.8207
C26A C -0.3068(3) -0.15080(15) 0.90406(13)
H32A H -0.2302 -0.0789 0.8955
H33A H -0.4152 -0.1456 0.8961
H34A H -0.2909 -0.1724 0.9673
H21A H -0.2715 -0.2562 0.6436
H22A H -0.3410 -0.0747 0.7290
C22A C -0.3168(2) 0.04651(16) 0.58723(13)
C21A C -0.2922(2) 0.10515(16) 0.50768(13)
H25A H -0.3113 0.1751 0.5090
H26A H -0.3518 0.0774 0.6421
H23A H -0.2259 -0.1720 0.5037
H24A H -0.1858 -0.0740 0.3708
H27A H -0.2490 0.1922 0.3456
loop_
_geom_bond_atom_site_label_1
_geom_bond_atom_site_label_2
_geom_bond_site_symmetry_1
_geom_bond_site_symmetry_2
Si1 O1 1_555 1_555
Si2 O1 1_555 1_555
Si3 O2 1_555 1_555
Si4 O2 1_555 1_555
C1 Si1 1_555 1_555
H1 C1 1_555 1_555
C2 C1 1_555 1_555
H2 C2 1_555 1_555
C3 C2 1_555 1_555
C4 C3 1_555 1_555
H3 C4 1_555 1_555
C5 C4 1_555 1_555
H4 C5 1_555 1_555
C6 C5 1_555 1_555
C7 C6 1_555 1_555
H5 C7 1_555 1_555
C8 C3 1_555 1_555
H6 C8 1_555 1_555
C9 C6 1_555 1_555
H7 C9 1_555 1_555
C10 Si2 1_555 1_555
H8 C10 1_555 1_555
C11 Si1 1_555 1_555
H9 C11 1_555 1_555
H10 C11 1_555 1_555
H11 C11 1_555 1_555
C12 Si1 1_555 1_555
H12 C12 1_555 1_555
H13 C12 1_555 1_555
H14 C12 1_555 1_555
C13 Si2 1_555 1_555
H15 C13 1_555 1_555
H16 C13 1_555 1_555
H17 C13 1_555 1_555
C14 Si2 1_555 1_555
H18 C14 1_555 1_555
H19 C14 1_555 1_555
H20 C14 1_555 1_555
C15 Si3 1_555 1_555
H21 C15 1_555 1_555
C16 C15 1_555 1_555
H22 C16 1_555 1_555
C17 C16 1_555 1_555
C18 C17 1_555 1_555
H23 C18 1_555 1_555
C19 C18 1_555 1_555
H24 C19 1_555 1_555
C20 C19 1_555 1_555
C21 C20 1_555 1_555
H25 C21 1_555 1_555
C22 C17 1_555 1_555
H26 C22 1_555 1_555
C23 C20 1_555 1_555
H27 C23 1_555 1_555
C24 Si4 1_555 1_555
H28 C24 1_555 1_555
C25 Si3 1_555 1_555
H29 C25 1_555 1_555
H30 C25 1_555 1_555
H31 C25 1_555 1_555
C26 Si3 1_555 1_555
H32 C26 1_555 1_555
H33 C26 1_555 1_555
H34 C26 1_555 1_555
C27 Si4 1_555 1_555
H35 C27 1_555 1_555
H36 C27 1_555 1_555
H37 C27 1_555 1_555
C28 Si4 1_555 1_555
H38 C28 1_555 1_555
H39 C28 1_555 1_555
H40 C28 1_555 1_555
C9A C10 1_555 1_555
C6A C9A 1_555 1_555
C5A C6A 1_555 1_555
C4A C5A 1_555 1_555
C3A C4A 1_555 1_555
C2A C3A 1_555 1_555
C1A C2A 1_555 1_555
Si1A C1A 1_555 1_555
O1A Si1A 1_555 1_555
Si2A O1A 1_555 1_555
C10A C9 1_555 1_555
H8A C10A 1_555 1_555
C13A Si2A 1_555 1_555
H15A C13A 1_555 1_555
H16A C13A 1_555 1_555
H17A C13A 1_555 1_555
C14A Si2A 1_555 1_555
H18A C14A 1_555 1_555
H19A C14A 1_555 1_555
H20A C14A 1_555 1_555
C11A Si1A 1_555 1_555
H9A C11A 1_555 1_555
H10A C11A 1_555 1_555
H11A C11A 1_555 1_555
C12A Si1A 1_555 1_555
H12A C12A 1_555 1_555
H13A C12A 1_555 1_555
H14A C12A 1_555 1_555
H1A C1A 1_555 1_555
H2A C2A 1_555 1_555
C8A C3A 1_555 1_555
C7A C6A 1_555 1_555
H5A C7A 1_555 1_555
H6A C8A 1_555 1_555
H3A C4A 1_555 1_555
H4A C5A 1_555 1_555
H7A C9A 1_555 1_555
C23A C24 1_555 1_555
C20A C23A 1_555 1_555
C19A C20A 1_555 1_555
C18A C19A 1_555 1_555
C17A C18A 1_555 1_555
C16A C17A 1_555 1_555
C15A C16A 1_555 1_555
Si3A C15A 1_555 1_555
O2A Si3A 1_555 1_555
Si4A O2A 1_555 1_555
C24A C23 1_555 1_555
H28A C24A 1_555 1_555
C27A Si4A 1_555 1_555
H35A C27A 1_555 1_555
H36A C27A 1_555 1_555
H37A C27A 1_555 1_555
C28A Si4A 1_555 1_555
H38A C28A 1_555 1_555
H39A C28A 1_555 1_555
H40A C28A 1_555 1_555
C25A Si3A 1_555 1_555
H29A C25A 1_555 1_555
H30A C25A 1_555 1_555
H31A C25A 1_555 1_555
C26A Si3A 1_555 1_555
H32A C26A 1_555 1_555
H33A C26A 1_555 1_555
H34A C26A 1_555 1_555
H21A C15A 1_555 1_555
H22A C16A 1_555 1_555
C22A C17A 1_555 1_555
C21A C20A 1_555 1_555
H25A C21A 1_555 1_555
H26A C22A 1_555 1_555
H23A C18A 1_555 1_555
H24A C19A 1_555 1_555
H27A C23A 1_555 1_555
C7 C8 1_555 1_555
C21 C22 1_555 1_555
Si2A C10A 1_555 1_555
C8A C7A 1_555 1_555
Si4A C24A 1_555 1_555
C22A C21A 1_555 1_555

#END
