
#######################################################################
#
#                 Cambridge Crystallographic Data Centre
#                                CCDC 
#
#######################################################################
#
# If this CIF has been generated from an entry in the Cambridge 
# Structural Database, then it will include bibliographic, chemical, 
# crystal, experimental, refinement or atomic coordinate data resulting 
# from the CCDC's data processing and validation procedures.
#
#######################################################################

data_UGAQUQ
_chemical_formula_moiety         'C6 H14 N1 1+,H4 B5 O10 1-'
_chemical_name_systematic        
"Cyclohexanaminium 1,1'-spiro-bis(3,5- dihydroxy-2,4,6-trioxa-1,3,5- triboracyclohexane)"
_symmetry_cell_setting           monoclinic
_symmetry_space_group_name_H-M   'P 21/c'
_symmetry_Int_Tables_number      14
_space_group_name_Hall           '-P 2ybc'
loop_
_symmetry_equiv_pos_site_id
_symmetry_equiv_pos_as_xyz
1 x,y,z
2 -x,1/2+y,1/2-z
3 -x,-y,-z
4 x,1/2-y,1/2+z
_cell_length_a                   9.4628(2)
_cell_length_b                   14.005(3)
_cell_length_c                   10.642(2)
_cell_angle_alpha                90
_cell_angle_beta                 93.82(3)
_cell_angle_gamma                90
_cell_volume                     1407.21
_exptl_crystal_colour            colorless
_cell_formula_units_Z            4
loop_
_atom_site_label
_atom_site_type_symbol
_atom_site_fract_x
_atom_site_fract_y
_atom_site_fract_z
O1 O 0.08540(8) 0.08573(6) 0.93721(9)
O2 O 0.32407(8) 0.08210(6) 0.88540(8)
O3 O 0.49459(8) 0.15683(7) 1.02565(8)
O4 O 0.18404(8) 0.21749(7) 0.82920(8)
O5 O -0.06434(9) 0.20284(7) 0.84072(10)
O6 O 0.25072(9) 0.18602(7) 1.04717(8)
O7 O 0.56098(9) 0.04978(8) 0.86815(9)
H1 H 0.6392 0.0692 0.8943
O8 O -0.16062(9) 0.07634(7) 0.94867(11)
H2 H -0.1369 0.0254 0.9818
O9 O 0.02164(11) 0.31209(9) 0.70375(11)
H3 H 0.0908 0.3208 0.6627
O10 O 0.42490(11) 0.22599(9) 1.20802(10)
H4 H 0.3542 0.2430 1.2426
B1 B 0.21250(12) 0.14369(10) 0.92461(12)
B2 B 0.46058(13) 0.09686(10) 0.92588(13)
B3 B -0.04511(13) 0.12135(10) 0.90991(14)
B4 B 0.05167(14) 0.24400(11) 0.79127(14)
B5 B 0.38622(14) 0.19063(10) 1.09347(14)
N1 N 0.72007(15) 0.10506(12) 0.22737(14)
H5 H 0.6558 0.1495 0.2057
H6 H 0.7131 0.0574 0.1719
H7 H 0.8063 0.1305 0.2282
C1 C 0.69516(16) 0.06806(12) 0.35419(15)
H8 H 0.6026 0.0364 0.3493
C2 C 0.6715(2) 0.10429(17) 0.5789(2)
H9 H 0.6781 0.1554 0.6405
H10 H 0.5774 0.0768 0.5794
C3 C 0.7829(3) -0.04636(17) 0.5193(2)
H11 H 0.6945 -0.0815 0.5158
H12 H 0.8589 -0.0906 0.5432
C4 C 0.8057(2) -0.00576(16) 0.39062(17)
H13 H 0.8990 0.0230 0.3913
H14 H 0.8012 -0.0568 0.3289
C5 C 0.6919(2) 0.14509(13) 0.44989(18)
H15 H 0.6152 0.1889 0.4265
H16 H 0.7800 0.1806 0.4522
C6 C 0.7790(3) 0.02941(19) 0.6156(2)
H17 H 0.8717 0.0588 0.6274
H18 H 0.7566 0.0012 0.6952
loop_
_geom_bond_atom_site_label_1
_geom_bond_atom_site_label_2
_geom_bond_site_symmetry_1
_geom_bond_site_symmetry_2
O1 B1 1_555 1_555
O2 B1 1_555 1_555
O3 B2 1_555 1_555
O4 B1 1_555 1_555
O5 B3 1_555 1_555
O6 B1 1_555 1_555
O7 H1 1_555 1_555
O8 H2 1_555 1_555
O9 H3 1_555 1_555
O10 H4 1_555 1_555
B2 O2 1_555 1_555
B3 O1 1_555 1_555
B4 O4 1_555 1_555
B5 O3 1_555 1_555
N1 H5 1_555 1_555
H6 N1 1_555 1_555
H7 N1 1_555 1_555
C1 N1 1_555 1_555
H8 C1 1_555 1_555
C2 H9 1_555 1_555
H10 C2 1_555 1_555
C3 H11 1_555 1_555
H12 C3 1_555 1_555
C4 C1 1_555 1_555
H13 C4 1_555 1_555
H14 C4 1_555 1_555
C5 C1 1_555 1_555
H15 C5 1_555 1_555
H16 C5 1_555 1_555
C6 C2 1_555 1_555
H17 C6 1_555 1_555
H18 C6 1_555 1_555
O5 B4 1_555 1_555
O6 B5 1_555 1_555
O7 B2 1_555 1_555
O8 B3 1_555 1_555
O9 B4 1_555 1_555
O10 B5 1_555 1_555
C2 C5 1_555 1_555
C3 C4 1_555 1_555
C3 C6 1_555 1_555

#END
