
#######################################################################
#
#                 Cambridge Crystallographic Data Centre
#                                CCDC 
#
#######################################################################
#
# If this CIF has been generated from an entry in the Cambridge 
# Structural Database, then it will include bibliographic, chemical, 
# crystal, experimental, refinement or atomic coordinate data resulting 
# from the CCDC's data processing and validation procedures.
#
#######################################################################

data_UGARUS
_chemical_compound_source        'Atalantia buxifolia'
_chemical_name_common            'buxifoxime A'
_chemical_formula_moiety         'C9 H9 N1 O3'
_chemical_name_systematic        
1-(4-hydroxyphenyl)-2-(methoxyimino)ethan-1-one
_chemical_properties_biological  'anti-inflammatory activity'
_symmetry_cell_setting           orthorhombic
_symmetry_space_group_name_H-M   'P b c a'
_symmetry_Int_Tables_number      61
_space_group_name_Hall           '-P 2ac 2ab'
loop_
_symmetry_equiv_pos_site_id
_symmetry_equiv_pos_as_xyz
1 x,y,z
2 1/2-x,-y,1/2+z
3 -x,1/2+y,1/2-z
4 1/2+x,1/2-y,-z
5 -x,-y,-z
6 1/2+x,y,1/2-z
7 x,1/2-y,1/2+z
8 1/2-x,1/2+y,z
_cell_length_a                   8.7826(2)
_cell_length_b                   13.1341(4)
_cell_length_c                   16.1714(3)
_cell_angle_alpha                90
_cell_angle_beta                 90
_cell_angle_gamma                90
_cell_volume                     1865.4
_cell_formula_units_Z            8
_exptl_crystal_recrystallization_method 
'Re-crystallisation from solvent: methanol/water'
loop_
_atom_site_label
_atom_site_type_symbol
_atom_site_fract_x
_atom_site_fract_y
_atom_site_fract_z
O1 O 0.16093(17) 0.21562(12) 0.20663(7)
O2 O 0.11885(17) 0.40182(12) 0.56503(8)
H1 H 0.164(4) 0.378(2) 0.605(2)
O3 O 0.48647(19) -0.00027(13) 0.19583(9)
N1 N 0.37217(18) 0.07172(13) 0.19390(9)
C1 C 0.20039(18) 0.24098(13) 0.34954(10)
C2 C 0.1004(2) 0.32396(14) 0.35154(10)
H2 H 0.0501 0.3443 0.3022
C3 C 0.0739(2) 0.37623(14) 0.42325(10)
H3 H 0.0057 0.4323 0.4234
C4 C 0.14678(19) 0.34737(14) 0.49633(10)
C5 C 0.2447(2) 0.26369(15) 0.49589(10)
H4 H 0.2931 0.2427 0.5456
C6 C 0.2713(2) 0.21135(15) 0.42331(10)
H5 H 0.3384 0.1546 0.4234
C7 C 0.2292(2) 0.19068(14) 0.26933(10)
C8 C 0.3470(2) 0.10949(14) 0.26482(10)
H6 H 0.4006 0.0871 0.3125
C9 C 0.5050(3) -0.0440(2) 0.11588(15)
H7 H 0.5863 -0.0951 0.1176
H8 H 0.5318 0.0094 0.0762
H9 H 0.4095 -0.0765 0.0988
loop_
_geom_bond_atom_site_label_1
_geom_bond_atom_site_label_2
_geom_bond_site_symmetry_1
_geom_bond_site_symmetry_2
O1 C7 1_555 1_555
O2 H1 1_555 1_555
O3 N1 1_555 1_555
N1 C8 1_555 1_555
C1 C2 1_555 1_555
C2 H2 1_555 1_555
C3 C2 1_555 1_555
H3 C3 1_555 1_555
C4 O2 1_555 1_555
C5 C4 1_555 1_555
H4 C5 1_555 1_555
C6 C1 1_555 1_555
H5 C6 1_555 1_555
C7 C1 1_555 1_555
C8 C7 1_555 1_555
H6 C8 1_555 1_555
C9 O3 1_555 1_555
H7 C9 1_555 1_555
H8 C9 1_555 1_555
H9 C9 1_555 1_555
C3 C4 1_555 1_555
C5 C6 1_555 1_555

#END
