
#######################################################################
#
#                 Cambridge Crystallographic Data Centre
#                                CCDC 
#
#######################################################################
#
# If this CIF has been generated from an entry in the Cambridge 
# Structural Database, then it will include bibliographic, chemical, 
# crystal, experimental, refinement or atomic coordinate data resulting 
# from the CCDC's data processing and validation procedures.
#
#######################################################################

data_UGARAY
_chemical_formula_moiety         'C24 H35 N1 O5,2(H2 O1)'
_chemical_name_systematic        
'12-hydroxy-5-(hydroxymethyl)-4,8-dimethyl-3-(2-methylpropyl)-3,3a,4,6a,9,10,13,14-octahydro-1H-cycloundeca[d]isoindole-1,11,15(2H,12H)-trione dihydrate'
_symmetry_cell_setting           triclinic
_symmetry_space_group_name_H-M   'P 1'
_symmetry_Int_Tables_number      1
_space_group_name_Hall           'P 1'
loop_
_symmetry_equiv_pos_site_id
_symmetry_equiv_pos_as_xyz
1 x,y,z
_cell_length_a                   8.0540(5)
_cell_length_b                   12.5480(7)
_cell_length_c                   14.0945(8)
_cell_angle_alpha                115.8600(10)
_cell_angle_beta                 94.7020(10)
_cell_angle_gamma                102.4350(10)
_cell_volume                     1226.37
_exptl_crystal_colour            colorless
_exptl_crystal_description       block
_cell_formula_units_Z            2
loop_
_atom_site_label
_atom_site_type_symbol
_atom_site_fract_x
_atom_site_fract_y
_atom_site_fract_z
O1 O 0.5741(5) 0.0534(4) 0.6419(3)
C1 C 0.3958(6) 0.3449(5) 0.4620(4)
H1 H 0.4911 0.3626 0.4263
H2 H 0.3714 0.4240 0.5068
O2 O 0.2820(4) -0.0058(3) -0.1699(3)
O3 O 0.5584(4) 0.2514(3) -0.1637(3)
H3 H 0.5658 0.2005 -0.2253
O4 O 0.3414(4) 0.4150(3) 0.1823(2)
O5 O 0.1939(4) 0.0257(3) 0.1111(3)
O6 O -0.1682(5) 0.0972(3) 0.3706(3)
H4 H -0.121(10) 0.052(8) 0.338(6)
N1 N 0.2598(5) 0.1474(4) 0.2935(3)
H5 H 0.3054 0.0981 0.3095
C2 C 0.1852(5) 0.1361(4) -0.2154(3)
H6 H 0.1754 0.0955 -0.2945
H7 H 0.2271 0.2263 -0.1885
C3 C 0.0052(5) 0.1042(4) -0.1893(3)
H8 H -0.0814 0.1145 -0.2363
H9 H -0.0280 0.0167 -0.2047
C4 C 0.0024(5) 0.1848(4) -0.0731(3)
C5 C 0.0015(5) 0.1389(4) -0.0031(3)
H10 H 0.0019 0.0551 -0.0304
C6 C -0.0002(5) 0.2074(4) 0.1138(3)
H11 H -0.0246 0.2870 0.1267
C7 C 0.1761(5) 0.2406(4) 0.1930(3)
C8 C 0.1641(5) 0.3191(4) 0.3116(3)
H12 H 0.2403 0.4050 0.3390
C9 C 0.2341(5) 0.2592(4) 0.3753(4)
H13 H 0.1411 0.2355 0.4110
C10 C 0.4589(7) 0.2961(7) 0.5362(5)
H14 H 0.5001 0.2230 0.4927
C11 C 0.3160(8) 0.2563(8) 0.5888(6)
H15 H 0.3669 0.2402 0.6451
H16 H 0.2297 0.1812 0.5344
H17 H 0.2598 0.3222 0.6208
C12 C 0.3159(6) 0.0952(4) -0.1655(3)
C13 C 0.4955(5) 0.1872(4) -0.1060(4)
H18 H 0.5793 0.1431 -0.0955
C14 C 0.4783(5) 0.2843(4) 0.0027(3)
H19 H 0.3941 0.3263 -0.0095
H20 H 0.5919 0.3470 0.0387
C15 C 0.4185(5) 0.2311(4) 0.0778(3)
H21 H 0.3442 0.1454 0.0339
H22 H 0.5213 0.2288 0.1196
C16 C 0.3185(5) 0.3060(4) 0.1547(3)
C17 C 0.6106(8) 0.3950(9) 0.6240(5)
H23 H 0.7022 0.4218 0.5910
H24 H 0.6563 0.3612 0.6681
H25 H 0.5708 0.4657 0.6695
C18 C 0.2096(5) 0.1242(4) 0.1918(4)
C19 C -0.0258(5) 0.3237(4) 0.3231(4)
H26 H -0.0538 0.3757 0.2902
C20 C -0.1499(5) 0.1958(4) 0.2552(4)
C21 C -0.1386(5) 0.1413(4) 0.1518(4)
H27 H -0.2153 0.0628 0.1031
C22 C 0.0013(6) 0.3153(4) -0.0445(4)
H28 H -0.1146 0.3156 -0.0715
H29 H 0.0864 0.3490 -0.0773
H30 H 0.0313 0.3660 0.0338
C23 C -0.2670(6) 0.1296(5) 0.3020(4)
H31 H -0.3359 0.1831 0.3443
H32 H -0.3487 0.0538 0.2430
C24 C -0.0428(6) 0.3889(4) 0.4408(4)
H33 H -0.1597 0.3994 0.4441
H34 H 0.0431 0.4699 0.4778
H35 H -0.0228 0.3391 0.4759
O7 O 0.5265(5) 0.8588(4) 0.7000(3)
O8 O 0.3810(6) 0.0025(5) 0.3869(4)
O9 O 0.8556(6) 0.1373(6) 0.5748(4)
O10 O 1.2093(5) 0.9253(3) 0.5308(3)
O11 O 1.3145(4) 0.6637(3) 0.5116(3)
H36 H 1.381(10) 0.712(7) 0.565(6)
O12 O 0.8767(4) 0.5147(3) 0.1723(3)
O13 O 0.9975(4) 0.9132(3) 0.2738(2)
C25 C 0.6869(5) 0.7134(4) 0.2551(3)
H37 H 0.6155 0.6297 0.2395
C26 C 1.0831(7) 0.6390(6) -0.2194(4)
H38 H 0.9972 0.5723 -0.2817
H39 H 1.1558 0.6038 -0.1887
H40 H 1.1561 0.6932 -0.2421
C27 C 0.9903(6) 0.7130(4) -0.1349(4)
H41 H 1.0805 0.7848 -0.0755
C28 C 0.8952(5) 0.6348(4) -0.0868(3)
H42 H 0.8085 0.5617 -0.1454
H43 H 0.9803 0.6048 -0.0576
C29 C 0.8029(5) 0.7015(4) 0.0023(3)
H44 H 0.7090 0.7248 -0.0286
C30 C 0.7223(5) 0.6242(4) 0.0568(3)
H45 H 0.7461 0.5420 0.0220
C31 C 0.8208(5) 0.6950(4) 0.1760(3)
C32 C 0.9339(5) 0.6259(4) 0.2058(3)
C33 C 1.1060(5) 0.6981(4) 0.2819(4)
H46 H 1.1009 0.7825 0.3300
H47 H 1.1967 0.7051 0.2400
C34 C 1.1569(5) 0.6391(4) 0.3504(4)
H48 H 1.0502 0.5944 0.3624
H49 H 1.2180 0.5780 0.3103
C35 C 1.2733(5) 0.7327(4) 0.4593(4)
H50 H 1.3820 0.7785 0.4486
C36 C 1.1760(6) 0.8218(4) 0.5227(4)
C37 C 0.5687(5) 0.7752(4) 0.2249(4)
H51 H 0.5504 0.8490 0.2772
C38 C 0.4890(5) 0.7229(4) 0.1211(4)
C39 C 0.3725(6) 0.7775(4) 0.0806(4)
H52 H 0.4208 0.7975 0.0261
H53 H 0.2572 0.7167 0.0455
O14 O 0.3548(6) 0.8810(5) 0.1619(4)
H54 H 0.3465 0.9320 0.1394
C40 C 0.5242(5) 0.6035(4) 0.0457(3)
H55 H 0.4828 0.5437 0.0736
C41 C 0.8678(7) 0.7642(5) -0.1812(4)
H56 H 0.9342 0.8167 -0.2079
H57 H 0.8121 0.8129 -0.1248
H58 H 0.7789 0.6957 -0.2405
N2 N 0.9199(5) 0.8122(3) 0.0913(3)
H59 H 0.9847 0.8710 0.0812
C42 C 0.9239(5) 0.8202(4) 0.1885(4)
C43 C 0.4326(6) 0.5407(5) -0.0726(4)
H60 H 0.3068 0.5245 -0.0773
H61 H 0.4608 0.4626 -0.1116
H62 H 0.4715 0.5948 -0.1046
C44 C 0.7721(5) 0.7806(4) 0.3725(3)
H63 H 0.8311 0.8657 0.4012
C45 C 0.7729(5) 0.7325(4) 0.4403(4)
C46 C 0.8700(6) 0.8118(4) 0.5558(4)
H64 H 0.7946 0.7995 0.6044
H65 H 0.8969 0.8997 0.5727
C47 C 1.0392(5) 0.7812(4) 0.5769(3)
H66 H 1.0850 0.8223 0.6554
H67 H 1.0145 0.6911 0.5503
C48 C 0.6838(5) 0.5998(4) 0.4100(4)
H68 H 0.5776 0.5956 0.4392
H69 H 0.7618 0.5669 0.4397
H70 H 0.6542 0.5509 0.3314
loop_
_geom_bond_atom_site_label_1
_geom_bond_atom_site_label_2
_geom_bond_site_symmetry_1
_geom_bond_site_symmetry_2
C1 H1 1_555 1_555
H2 C1 1_555 1_555
O2 C12 1_555 1_555
O3 H3 1_555 1_555
O4 C16 1_555 1_555
O5 C18 1_555 1_555
O6 H4 1_555 1_555
N1 H5 1_555 1_555
C2 H6 1_555 1_555
H7 C2 1_555 1_555
C3 C2 1_555 1_555
H8 C3 1_555 1_555
H9 C3 1_555 1_555
C4 C3 1_555 1_555
C5 C4 1_555 1_555
H10 C5 1_555 1_555
C6 C5 1_555 1_555
H11 C6 1_555 1_555
C7 C6 1_555 1_555
C8 C7 1_555 1_555
H12 C8 1_555 1_555
C9 C1 1_555 1_555
H13 C9 1_555 1_555
C10 C1 1_555 1_555
H14 C10 1_555 1_555
C11 C10 1_555 1_555
H15 C11 1_555 1_555
H16 C11 1_555 1_555
H17 C11 1_555 1_555
C12 C2 1_555 1_555
C13 O3 1_555 1_555
H18 C13 1_555 1_555
C14 C13 1_555 1_555
H19 C14 1_555 1_555
H20 C14 1_555 1_555
C15 C14 1_555 1_555
H21 C15 1_555 1_555
H22 C15 1_555 1_555
C16 C7 1_555 1_555
C17 C10 1_555 1_555
H23 C17 1_555 1_555
H24 C17 1_555 1_555
H25 C17 1_555 1_555
C18 N1 1_555 1_555
C19 C8 1_555 1_555
H26 C19 1_555 1_555
C20 C19 1_555 1_555
C21 C6 1_555 1_555
H27 C21 1_555 1_555
C22 C4 1_555 1_555
H28 C22 1_555 1_555
H29 C22 1_555 1_555
H30 C22 1_555 1_555
C23 O6 1_555 1_555
H31 C23 1_555 1_555
H32 C23 1_555 1_555
C24 C19 1_555 1_555
H33 C24 1_555 1_555
H34 C24 1_555 1_555
H35 C24 1_555 1_555
O10 C36 1_555 1_555
O11 H36 1_555 1_555
O12 C32 1_555 1_555
O13 C42 1_555 1_555
C25 H37 1_555 1_555
C26 H38 1_555 1_555
H39 C26 1_555 1_555
H40 C26 1_555 1_555
C27 C26 1_555 1_555
H41 C27 1_555 1_555
C28 C27 1_555 1_555
H42 C28 1_555 1_555
H43 C28 1_555 1_555
C29 C28 1_555 1_555
H44 C29 1_555 1_555
C30 C29 1_555 1_555
H45 C30 1_555 1_555
C31 C25 1_555 1_555
C32 C31 1_555 1_555
C33 C32 1_555 1_555
H46 C33 1_555 1_555
H47 C33 1_555 1_555
C34 C33 1_555 1_555
H48 C34 1_555 1_555
H49 C34 1_555 1_555
C35 O11 1_555 1_555
H50 C35 1_555 1_555
C36 C35 1_555 1_555
C37 C25 1_555 1_555
H51 C37 1_555 1_555
C38 C37 1_555 1_555
C39 C38 1_555 1_555
H52 C39 1_555 1_555
H53 C39 1_555 1_555
O14 C39 1_555 1_555
H54 O14 1_555 1_555
C40 C30 1_555 1_555
H55 C40 1_555 1_555
C41 C27 1_555 1_555
H56 C41 1_555 1_555
H57 C41 1_555 1_555
H58 C41 1_555 1_555
N2 C29 1_555 1_555
H59 N2 1_555 1_555
C42 C31 1_555 1_555
C43 C40 1_555 1_555
H60 C43 1_555 1_555
H61 C43 1_555 1_555
H62 C43 1_555 1_555
C44 C25 1_555 1_555
H63 C44 1_555 1_555
C45 C44 1_555 1_555
C46 C45 1_555 1_555
H64 C46 1_555 1_555
H65 C46 1_555 1_555
C47 C36 1_555 1_555
H66 C47 1_555 1_555
H67 C47 1_555 1_555
C48 C45 1_555 1_555
H68 C48 1_555 1_555
H69 C48 1_555 1_555
H70 C48 1_555 1_555
N1 C9 1_555 1_555
C7 C18 1_555 1_555
C8 C9 1_555 1_555
C12 C13 1_555 1_555
C15 C16 1_555 1_555
C20 C21 1_555 1_555
C20 C23 1_555 1_555
C30 C31 1_555 1_555
C34 C35 1_555 1_555
C38 C40 1_555 1_555
N2 C42 1_555 1_555
C46 C47 1_555 1_555

#END
