
#######################################################################
#
#                 Cambridge Crystallographic Data Centre
#                                CCDC 
#
#######################################################################
#
# If this CIF has been generated from an entry in the Cambridge 
# Structural Database, then it will include bibliographic, chemical, 
# crystal, experimental, refinement or atomic coordinate data resulting 
# from the CCDC's data processing and validation procedures.
#
#######################################################################

data_UGAVOQ
_chemical_formula_moiety         'C4 H5 N7 O8'
_chemical_name_systematic        
3-nitro-6-(trinitromethyl)-1,2,3,4-tetrahydro-1,3,5-triazine
_symmetry_cell_setting           monoclinic
_symmetry_space_group_name_H-M   'P 21/n'
_symmetry_Int_Tables_number      14
_space_group_name_Hall           '-P 2yn'
loop_
_symmetry_equiv_pos_site_id
_symmetry_equiv_pos_as_xyz
1 x,y,z
2 1/2-x,1/2+y,1/2-z
3 -x,-y,-z
4 1/2+x,1/2-y,1/2+z
_cell_length_a                   18.913(11)
_cell_length_b                   5.827(3)
_cell_length_c                   18.914(10)
_cell_angle_alpha                90
_cell_angle_beta                 102.724(13)
_cell_angle_gamma                90
_cell_volume                     2033.25
_exptl_crystal_colour            colorless
_exptl_crystal_description       block
_cell_formula_units_Z            8
loop_
_atom_site_label
_atom_site_type_symbol
_atom_site_fract_x
_atom_site_fract_y
_atom_site_fract_z
O1 O 0.52521(11) 0.4328(4) 0.19127(13)
O2 O 0.45988(13) 0.4344(4) 0.08153(13)
O3 O 0.33107(12) 0.8899(4) 0.34870(14)
N1 N 0.33045(13) 0.3632(4) 0.24712(13)
N2 N 0.37311(12) 0.5320(4) 0.36794(13)
O4 O 0.44627(13) 0.8362(4) 0.38888(15)
N3 N 0.45538(12) 0.3700(4) 0.30249(13)
H1 H 0.5002 0.3706 0.2965
N4 N 0.38442(14) 0.7677(4) 0.36734(14)
N5 N 0.47013(14) 0.3922(4) 0.14565(15)
O5 O 0.47029(14) -0.0475(4) 0.13449(15)
O6 O 0.32252(14) 0.4866(5) 0.10082(13)
O7 O 0.40966(15) -0.1068(4) 0.21757(14)
N6 N 0.43303(15) 0.0119(4) 0.17577(16)
N7 N 0.34179(15) 0.2904(6) 0.11476(15)
C1 C 0.39713(15) 0.3476(4) 0.24598(15)
O8 O 0.31256(14) 0.1163(5) 0.08864(14)
C2 C 0.43816(15) 0.3928(5) 0.37334(16)
H2 H 0.4793 0.4658 0.4074
H3 H 0.4303 0.2390 0.3924
C3 C 0.41089(15) 0.2676(5) 0.17358(16)
C4 C 0.31170(15) 0.4422(5) 0.31389(16)
H4 H 0.2900 0.3128 0.3356
H5 H 0.2745 0.5638 0.3017
O9 O 0.84745(13) 0.2793(4) 0.33469(12)
O10 O 0.89304(14) 0.3474(4) 0.44851(12)
O11 O 0.60039(12) 0.6520(4) 0.32949(13)
N8 N 0.87042(13) 0.6442(4) 0.37093(13)
N9 N 0.74680(13) 0.7897(4) 0.32866(13)
N10 N 0.80503(13) 0.8072(4) 0.45243(13)
H6 H 0.7999 0.8115 0.4975
N11 N 0.65187(14) 0.7708(4) 0.47422(13)
O12 O 0.71564(14) 1.2659(4) 0.40511(15)
O13 O 0.58844(12) 1.0205(4) 0.31053(14)
O14 O 0.58951(12) 0.7214(5) 0.46807(13)
N12 N 0.86878(14) 0.4076(4) 0.38593(14)
O15 O 0.69955(14) 0.7429(5) 0.52764(13)
N13 N 0.61486(14) 0.8514(5) 0.34348(14)
N14 N 0.67499(16) 1.1478(4) 0.42978(16)
C5 C 0.74728(15) 0.8172(4) 0.39523(15)
C6 C 0.81434(15) 0.7236(5) 0.30959(15)
H7 H 0.8333 0.8567 0.2871
H8 H 0.8041 0.5998 0.2729
O16 O 0.63410(18) 1.2103(4) 0.46646(19)
C7 C 0.87604(16) 0.7889(5) 0.43446(17)
H9 H 0.8935 0.9433 0.4246
H10 H 0.9113 0.7219 0.4758
C8 C 0.67487(15) 0.8896(5) 0.41083(15)
loop_
_geom_bond_atom_site_label_1
_geom_bond_atom_site_label_2
_geom_bond_site_symmetry_1
_geom_bond_site_symmetry_2
O1 N5 1_555 1_555
O2 N5 1_555 1_555
O3 N4 1_555 1_555
N1 C1 1_555 1_555
N2 N4 1_555 1_555
O4 N4 1_555 1_555
N3 H1 1_555 1_555
N5 C3 1_555 1_555
O5 N6 1_555 1_555
O6 N7 1_555 1_555
O7 N6 1_555 1_555
N6 C3 1_555 1_555
N7 O8 1_555 1_555
C1 N3 1_555 1_555
C2 N2 1_555 1_555
H2 C2 1_555 1_555
H3 C2 1_555 1_555
C3 N7 1_555 1_555
C4 N1 1_555 1_555
H4 C4 1_555 1_555
H5 C4 1_555 1_555
O9 N12 1_555 1_555
O10 N12 1_555 1_555
O11 N13 1_555 1_555
N8 N12 1_555 1_555
N9 C5 1_555 1_555
N10 H6 1_555 1_555
N11 O14 1_555 1_555
O12 N14 1_555 1_555
O13 N13 1_555 1_555
O15 N11 1_555 1_555
N13 C8 1_555 1_555
N14 O16 1_555 1_555
C5 N10 1_555 1_555
C6 N8 1_555 1_555
H7 C6 1_555 1_555
H8 C6 1_555 1_555
C7 N8 1_555 1_555
H9 C7 1_555 1_555
H10 C7 1_555 1_555
C8 N11 1_555 1_555
N2 C4 1_555 1_555
N3 C2 1_555 1_555
C1 C3 1_555 1_555
N9 C6 1_555 1_555
N10 C7 1_555 1_555
N14 C8 1_555 1_555
C5 C8 1_555 1_555

#END
