
#######################################################################
#
#                 Cambridge Crystallographic Data Centre
#                                CCDC 
#
#######################################################################
#
# If this CIF has been generated from an entry in the Cambridge 
# Structural Database, then it will include bibliographic, chemical, 
# crystal, experimental, refinement or atomic coordinate data resulting 
# from the CCDC's data processing and validation procedures.
#
#######################################################################

data_UGECOZ
_chemical_formula_moiety         'C27 H31 N1 O3'
_chemical_name_systematic        
1-(4-Nitrophenyl)-2-pentyl-5-phenyldeca-2,3,4-trien-1-one
_symmetry_cell_setting           triclinic
_symmetry_space_group_name_H-M   'P -1'
_symmetry_Int_Tables_number      2
_space_group_name_Hall           '-P 1'
loop_
_symmetry_equiv_pos_site_id
_symmetry_equiv_pos_as_xyz
1 x,y,z
2 -x,-y,-z
_cell_length_a                   5.7676(19)
_cell_length_b                   7.696(3)
_cell_length_c                   27.249(10)
_cell_angle_alpha                87.539(6)
_cell_angle_beta                 87.232(7)
_cell_angle_gamma                84.004(6)
_cell_volume                     1200.62
_exptl_crystal_colour            yellow
_exptl_crystal_description       prismatic
_chemical_melting_point          116-118deg.C
_cell_formula_units_Z            2
loop_
_atom_site_label
_atom_site_type_symbol
_atom_site_fract_x
_atom_site_fract_y
_atom_site_fract_z
O1 O 0.7059(5) 1.1341(3) 0.26380(9)
O2 O 0.2348(7) 0.8736(5) 0.49949(11)
O3 O 0.5709(6) 0.7326(5) 0.49592(12)
N1 N 0.4154(8) 0.8289(4) 0.47789(13)
C1 C 0.5421(6) 1.0499(4) 0.27715(13)
C2 C 0.3797(6) 1.0024(4) 0.24118(12)
C3 C 0.2553(5) 0.8674(4) 0.25219(11)
C4 C 0.1429(5) 0.7397(4) 0.26186(11)
C5 C 0.0118(5) 0.6095(4) 0.27514(11)
C6 C 0.5062(6) 0.9973(4) 0.32995(12)
C7 C 0.6930(6) 0.9091(4) 0.35427(14)
H1 H 0.8378 0.8879 0.3379
C8 C 0.6627(6) 0.8527(4) 0.40300(14)
H2 H 0.7852 0.7913 0.4194
C9 C 0.4512(6) 0.8890(4) 0.42612(12)
C10 C 0.2673(6) 0.9828(4) 0.40402(12)
H3 H 0.1274 1.0124 0.4215
C11 C 0.2957(6) 1.0322(4) 0.35486(13)
H4 H 0.1703 1.0898 0.3385
C12 C 0.3776(7) 1.1000(5) 0.19204(13)
H5 H 0.3669 1.2242 0.1977
H6 H 0.5256 1.0689 0.1746
C13 C 0.1863(7) 1.0682(5) 0.15966(13)
H7 H 0.0376 1.1013 0.1766
H8 H 0.1953 0.9441 0.1540
C14 C 0.1935(8) 1.1669(6) 0.11066(14)
H9 H 0.1851 1.2909 0.1164
H10 H 0.3424 1.1337 0.0938
C15 C 0.0059(10) 1.1372(7) 0.07827(15)
H11 H -0.1431 1.1747 0.0946
H12 H 0.0105 1.0128 0.0734
C16 C 0.0207(11) 1.2320(8) 0.02850(18)
H13 H 0.0098 1.3557 0.0329
H14 H -0.1053 1.2055 0.0092
H15 H 0.1668 1.1948 0.0119
C17 C -0.1576(6) 0.5535(4) 0.23963(12)
H16 H -0.1292 0.4278 0.2368
H17 H -0.3147 0.5787 0.2537
C18 C -0.1472(6) 0.6374(5) 0.18877(12)
H18 H 0.0059 0.6057 0.1735
H19 H -0.1668 0.7635 0.1914
C19 C -0.3307(6) 0.5850(5) 0.15598(13)
H20 H -0.3098 0.4591 0.1531
H21 H -0.4836 0.6153 0.1715
C20 C -0.3243(8) 0.6698(6) 0.10518(14)
H22 H -0.1743 0.6347 0.0890
H23 H -0.3374 0.7957 0.1080
C21 C -0.5163(9) 0.6235(8) 0.07333(15)
H24 H -0.4927 0.5013 0.0667
H25 H -0.5126 0.6911 0.0429
H26 H -0.6651 0.6490 0.0903
C22 C 0.0214(5) 0.5297(4) 0.32527(11)
C23 C 0.1988(5) 0.5581(4) 0.35599(12)
H27 H 0.3202 0.6207 0.3440
C24 C 0.1958(6) 0.4947(4) 0.40368(13)
H28 H 0.3161 0.5145 0.4236
C25 C 0.0188(6) 0.4024(4) 0.42270(13)
H29 H 0.0157 0.3635 0.4555
C26 C -0.1541(6) 0.3685(4) 0.39244(13)
H30 H -0.2728 0.3037 0.4048
C27 C -0.1537(5) 0.4294(4) 0.34395(12)
H31 H -0.2699 0.4036 0.3238
loop_
_geom_bond_atom_site_label_1
_geom_bond_atom_site_label_2
_geom_bond_site_symmetry_1
_geom_bond_site_symmetry_2
O1 C1 1_555 1_555
O2 N1 1_555 1_555
O3 N1 1_555 1_555
N1 C9 1_555 1_555
C1 C2 1_555 1_555
C2 C3 1_555 1_555
C3 C4 1_555 1_555
C4 C5 1_555 1_555
C5 C17 1_555 1_555
C6 C1 1_555 1_555
C7 C6 1_555 1_555
H1 C7 1_555 1_555
C8 C7 1_555 1_555
H2 C8 1_555 1_555
C9 C8 1_555 1_555
C10 C9 1_555 1_555
H3 C10 1_555 1_555
C11 C6 1_555 1_555
H4 C11 1_555 1_555
C12 C2 1_555 1_555
H5 C12 1_555 1_555
H6 C12 1_555 1_555
C13 C12 1_555 1_555
H7 C13 1_555 1_555
H8 C13 1_555 1_555
C14 C13 1_555 1_555
H9 C14 1_555 1_555
H10 C14 1_555 1_555
C15 C14 1_555 1_555
H11 C15 1_555 1_555
H12 C15 1_555 1_555
C16 C15 1_555 1_555
H13 C16 1_555 1_555
H14 C16 1_555 1_555
H15 C16 1_555 1_555
C17 H16 1_555 1_555
H17 C17 1_555 1_555
C18 C17 1_555 1_555
H18 C18 1_555 1_555
H19 C18 1_555 1_555
C19 C18 1_555 1_555
H20 C19 1_555 1_555
H21 C19 1_555 1_555
C20 C19 1_555 1_555
H22 C20 1_555 1_555
H23 C20 1_555 1_555
C21 C20 1_555 1_555
H24 C21 1_555 1_555
H25 C21 1_555 1_555
H26 C21 1_555 1_555
C22 C5 1_555 1_555
C23 C22 1_555 1_555
H27 C23 1_555 1_555
C24 C23 1_555 1_555
H28 C24 1_555 1_555
C25 C24 1_555 1_555
H29 C25 1_555 1_555
C26 C25 1_555 1_555
H30 C26 1_555 1_555
C27 C22 1_555 1_555
H31 C27 1_555 1_555
C10 C11 1_555 1_555
C26 C27 1_555 1_555

#END
