
#######################################################################
#
#                 Cambridge Crystallographic Data Centre
#                                CCDC 
#
#######################################################################
#
# If this CIF has been generated from an entry in the Cambridge 
# Structural Database, then it will include bibliographic, chemical, 
# crystal, experimental, refinement or atomic coordinate data resulting 
# from the CCDC's data processing and validation procedures.
#
#######################################################################

data_UGECUF
_chemical_formula_moiety         '2(C28 H26 N2 O3),C1 H2 Cl2'
_chemical_name_systematic        
'5-Methoxy-3-(4-methoxyphenyl)-N,N-dimethyl-8-phenyl-1,8-dihydroindeno[2,1-b]pyrrole-2-carboxamide dichloromethane solvate'
_symmetry_cell_setting           orthorhombic
_symmetry_space_group_name_H-M   'P b c a'
_symmetry_Int_Tables_number      61
_space_group_name_Hall           '-P 2ac 2ab'
loop_
_symmetry_equiv_pos_site_id
_symmetry_equiv_pos_as_xyz
1 x,y,z
2 1/2-x,-y,1/2+z
3 -x,1/2+y,1/2-z
4 1/2+x,1/2-y,-z
5 -x,-y,-z
6 1/2+x,y,1/2-z
7 x,1/2-y,1/2+z
8 1/2-x,1/2+y,z
_cell_length_a                   21.3399(13)
_cell_length_b                   19.2862(12)
_cell_length_c                   24.4417(15)
_cell_angle_alpha                90
_cell_angle_beta                 90
_cell_angle_gamma                90
_cell_volume                     10059.4
_exptl_crystal_colour            colorless
_exptl_crystal_description       prismatic
_chemical_melting_point          227-230deg.C
_cell_formula_units_Z            8
loop_
_atom_site_label
_atom_site_type_symbol
_atom_site_fract_x
_atom_site_fract_y
_atom_site_fract_z
Cl1 Cl 0.1174(3) 0.7411(2) 0.4996(4)
Cl2 Cl 0.0895(4) 0.6031(6) 0.4807(4)
C57 C 0.1355(6) 0.6641(6) 0.5096(5)
H51 H 0.1360 0.6561 0.5488
H52 H 0.1779 0.6573 0.4964
N1 N 0.97749(15) 0.64940(19) -0.00982(14)
N2 N 1.08652(13) 0.58467(14) 0.09013(13)
O1 O 1.05221(11) 0.56836(14) -0.01949(10)
O2 O 0.93521(13) 0.56833(14) 0.34808(11)
O3 O 0.72233(11) 0.62920(15) 0.10829(13)
C1 C 1.01954(16) 0.6045(2) 0.01103(16)
C2 C 1.02669(15) 0.59813(17) 0.07093(14)
C3 C 0.98536(15) 0.59854(16) 0.11456(14)
C4 C 1.02299(15) 0.58643(16) 0.16190(14)
C5 C 1.08388(15) 0.57806(16) 0.14490(15)
C6 C 1.12900(15) 0.56453(17) 0.19032(15)
H1 H 1.1488 0.5191 0.1853
C7 C 1.08346(15) 0.56182(15) 0.23860(16)
C8 C 1.02149(16) 0.57600(15) 0.22119(15)
C9 C 0.97337(16) 0.57692(16) 0.25895(16)
H2 H 0.9325 0.5863 0.2479
C10 C 0.98667(19) 0.56350(18) 0.31415(16)
C11 C 1.04665(19) 0.54795(19) 0.33073(17)
H3 H 1.0550 0.5384 0.3673
C12 C 1.09484(18) 0.54668(18) 0.29230(17)
H4 H 1.1353 0.5354 0.3033
C13 C 1.17929(15) 0.62030(17) 0.19671(14)
C14 C 1.16199(17) 0.68917(18) 0.19975(16)
H5 H 1.1197 0.7009 0.1985
C15 C 1.20621(18) 0.74096(18) 0.20468(17)
H6 H 1.1935 0.7870 0.2068
C16 C 1.26891(18) 0.7249(2) 0.20650(16)
H7 H 1.2988 0.7598 0.2093
C17 C 1.28671(16) 0.6567(2) 0.20407(16)
H8 H 1.3290 0.6452 0.2057
C18 C 1.24231(16) 0.60462(18) 0.19922(15)
H9 H 1.2551 0.5586 0.1976
C19 C 0.91618(15) 0.60609(16) 0.11340(14)
C20 C 0.87896(16) 0.57230(17) 0.07446(15)
H10 H 0.8978 0.5436 0.0486
C21 C 0.81512(16) 0.58090(18) 0.07389(16)
H11 H 0.7911 0.5582 0.0477
C22 C 0.78646(16) 0.62311(18) 0.11208(16)
C23 C 0.82190(16) 0.65636(19) 0.15100(16)
H12 H 0.8028 0.6845 0.1770
C24 C 0.88613(16) 0.64760(17) 0.15112(14)
H13 H 0.9099 0.6704 0.1775
C25 C 0.9511(2) 0.7080(2) 0.02002(19)
H14 H 0.9069 0.7011 0.0248
H15 H 0.9582 0.7499 -0.0003
H16 H 0.9709 0.7115 0.0552
C26 C 0.9662(2) 0.6478(3) -0.06792(18)
H17 H 0.9734 0.6018 -0.0815
H18 H 0.9940 0.6796 -0.0859
H19 H 0.9236 0.6609 -0.0751
C27 C 0.69234(19) 0.6742(3) 0.1461(2)
H20 H 0.7018 0.6596 0.1827
H21 H 0.6478 0.6726 0.1405
H22 H 0.7071 0.7207 0.1407
C28 C 0.9436(3) 0.5518(3) 0.40349(18)
H23 H 0.9613 0.5062 0.4066
H24 H 0.9038 0.5530 0.4218
H25 H 0.9713 0.5849 0.4200
H53 H 1.1187(12) 0.5816(19) 0.0698(13)
N3 N 0.25964(14) 0.83427(17) 0.50653(13)
N4 N 0.15372(14) 0.90601(14) 0.40945(13)
O4 O 0.19715(12) 0.92701(14) 0.52001(10)
O5 O 0.30035(12) 0.91275(13) 0.14865(11)
O6 O 0.51670(11) 0.85358(15) 0.39597(12)
C29 C 0.22270(16) 0.88628(19) 0.48787(15)
C30 C 0.21364(15) 0.89389(16) 0.42868(15)
C31 C 0.25497(15) 0.89428(16) 0.38386(15)
C32 C 0.21675(15) 0.90624(16) 0.33713(14)
C33 C 0.15631(15) 0.91323(16) 0.35485(15)
C34 C 0.10996(15) 0.92540(16) 0.30961(14)
H26 H 0.0907 0.9712 0.3138
C35 C 0.15537(15) 0.92586(15) 0.26061(16)
C36 C 0.21781(15) 0.91437(15) 0.27775(14)
C37 C 0.26474(16) 0.91150(16) 0.23852(16)
H27 H 0.3061 0.9048 0.2492
C38 C 0.25011(18) 0.91859(16) 0.18349(15)
C39 C 0.18906(18) 0.92982(17) 0.16744(16)
H28 H 0.1796 0.9346 0.1305
C40 C 0.14156(17) 0.93400(17) 0.20623(15)
H29 H 0.1005 0.9423 0.1953
C41 C 0.05924(15) 0.87044(17) 0.30419(14)
C42 C 0.07485(16) 0.80091(18) 0.30425(17)
H30 H 0.1167 0.7882 0.3075
C43 C 0.03001(18) 0.7499(2) 0.29965(18)
H31 H 0.0418 0.7035 0.2996
C44 C -0.03198(18) 0.7676(2) 0.29512(17)
H32 H -0.0625 0.7334 0.2924
C45 C -0.04835(17) 0.8359(2) 0.29470(17)
H33 H -0.0904 0.8482 0.2917
C46 C -0.00315(16) 0.88741(19) 0.29870(15)
H34 H -0.0151 0.9338 0.2977
C47 C 0.32374(15) 0.88543(17) 0.38600(14)
C48 C 0.36053(16) 0.91580(18) 0.42653(15)
H35 H 0.3418 0.9444 0.4525
C49 C 0.42433(16) 0.9041(2) 0.42875(16)
H36 H 0.4482 0.9246 0.4562
C50 C 0.45278(17) 0.86198(19) 0.39016(17)
C51 C 0.41755(16) 0.83234(18) 0.34990(15)
H37 H 0.4364 0.8043 0.3237
C52 C 0.35368(15) 0.84417(17) 0.34822(15)
H38 H 0.3302 0.8235 0.3206
C53 C 0.2802(2) 0.7756(2) 0.47367(18)
H39 H 0.2571 0.7747 0.4400
H40 H 0.2730 0.7334 0.4935
H41 H 0.3241 0.7801 0.4659
C54 C 0.2740(2) 0.8319(3) 0.56431(18)
H42 H 0.2675 0.8769 0.5801
H43 H 0.3169 0.8184 0.5692
H44 H 0.2472 0.7988 0.5820
C55 C 0.2895(2) 0.9237(3) 0.09203(18)
H45 H 0.2624 0.8880 0.0783
H46 H 0.3287 0.9223 0.0727
H47 H 0.2701 0.9681 0.0868
C56 C 0.54611(19) 0.8061(3) 0.3594(2)
H48 H 0.5274 0.7611 0.3634
H49 H 0.5900 0.8032 0.3677
H50 H 0.5408 0.8219 0.3224
H54 H 0.1240(13) 0.9120(19) 0.4329(13)
Cl3? Cl 0.0912(8) 0.7133(9) 0.4685(7)
Cl4? Cl 0.1329(5) 0.5918(4) 0.5079(4)
H55? H 0.1748 0.6881 0.5117
H56? H 0.1167 0.6754 0.5441
loop_
_geom_bond_atom_site_label_1
_geom_bond_atom_site_label_2
_geom_bond_site_symmetry_1
_geom_bond_site_symmetry_2
Cl1 C57 1_555 1_555
Cl2 C57 1_555 1_555
N1 C1 1_555 1_555
N2 C2 1_555 1_555
N3 C29 1_555 1_555
N4 C30 1_555 1_555
O1 C1 1_555 1_555
O2 C10 1_555 1_555
O3 C22 1_555 1_555
O4 C29 1_555 1_555
O5 C38 1_555 1_555
O6 C50 1_555 1_555
C1 C2 1_555 1_555
C2 C3 1_555 1_555
C3 C4 1_555 1_555
C4 C5 1_555 1_555
C5 N2 1_555 1_555
C6 C5 1_555 1_555
H1 C6 1_555 1_555
C7 C6 1_555 1_555
C8 C4 1_555 1_555
C9 C8 1_555 1_555
H2 C9 1_555 1_555
C10 C9 1_555 1_555
C11 C10 1_555 1_555
H3 C11 1_555 1_555
C12 C7 1_555 1_555
H4 C12 1_555 1_555
C13 C6 1_555 1_555
C14 C13 1_555 1_555
H5 C14 1_555 1_555
C15 C14 1_555 1_555
H6 C15 1_555 1_555
C16 C15 1_555 1_555
H7 C16 1_555 1_555
C17 C16 1_555 1_555
H8 C17 1_555 1_555
C18 C13 1_555 1_555
H9 C18 1_555 1_555
C19 C3 1_555 1_555
C20 C19 1_555 1_555
H10 C20 1_555 1_555
C21 C20 1_555 1_555
H11 C21 1_555 1_555
C22 C21 1_555 1_555
C23 C22 1_555 1_555
H12 C23 1_555 1_555
C24 C19 1_555 1_555
H13 C24 1_555 1_555
C25 N1 1_555 1_555
H14 C25 1_555 1_555
H15 C25 1_555 1_555
H16 C25 1_555 1_555
C26 N1 1_555 1_555
H17 C26 1_555 1_555
H18 C26 1_555 1_555
H19 C26 1_555 1_555
C27 O3 1_555 1_555
H20 C27 1_555 1_555
H21 C27 1_555 1_555
H22 C27 1_555 1_555
C28 O2 1_555 1_555
H23 C28 1_555 1_555
H24 C28 1_555 1_555
H25 C28 1_555 1_555
C29 C30 1_555 1_555
C30 C31 1_555 1_555
C31 C32 1_555 1_555
C32 C33 1_555 1_555
C33 N4 1_555 1_555
C34 C33 1_555 1_555
H26 C34 1_555 1_555
C35 C34 1_555 1_555
C36 C32 1_555 1_555
C37 C36 1_555 1_555
H27 C37 1_555 1_555
C38 C37 1_555 1_555
C39 C38 1_555 1_555
H28 C39 1_555 1_555
C40 C35 1_555 1_555
H29 C40 1_555 1_555
C41 C34 1_555 1_555
C42 C41 1_555 1_555
H30 C42 1_555 1_555
C43 C42 1_555 1_555
H31 C43 1_555 1_555
C44 C43 1_555 1_555
H32 C44 1_555 1_555
C45 C44 1_555 1_555
H33 C45 1_555 1_555
C46 C41 1_555 1_555
H34 C46 1_555 1_555
C47 C31 1_555 1_555
C48 C47 1_555 1_555
H35 C48 1_555 1_555
C49 C48 1_555 1_555
H36 C49 1_555 1_555
C50 C49 1_555 1_555
C51 C50 1_555 1_555
H37 C51 1_555 1_555
C52 C47 1_555 1_555
H38 C52 1_555 1_555
C53 N3 1_555 1_555
H39 C53 1_555 1_555
H40 C53 1_555 1_555
H41 C53 1_555 1_555
C54 N3 1_555 1_555
H42 C54 1_555 1_555
H43 C54 1_555 1_555
H44 C54 1_555 1_555
C55 O5 1_555 1_555
H45 C55 1_555 1_555
H46 C55 1_555 1_555
H47 C55 1_555 1_555
C56 O6 1_555 1_555
H48 C56 1_555 1_555
H49 C56 1_555 1_555
H50 C56 1_555 1_555
C57 H51 1_555 1_555
H52 C57 1_555 1_555
H53 N2 1_555 1_555
H54 N4 1_555 1_555
C7 C8 1_555 1_555
C11 C12 1_555 1_555
C17 C18 1_555 1_555
C23 C24 1_555 1_555
C35 C36 1_555 1_555
C39 C40 1_555 1_555
C45 C46 1_555 1_555
C51 C52 1_555 1_555

#END
