
#######################################################################
#
#                 Cambridge Crystallographic Data Centre
#                                CCDC 
#
#######################################################################
#
# If this CIF has been generated from an entry in the Cambridge 
# Structural Database, then it will include bibliographic, chemical, 
# crystal, experimental, refinement or atomic coordinate data resulting 
# from the CCDC's data processing and validation procedures.
#
#######################################################################

data_UGESUU
_chemical_formula_moiety         'C17 H15 N3'
_chemical_name_systematic        
5-n-Propyl-11H-pyrido(4',3':4,5)pyrrolo(2,3-b)quinoline
_symmetry_cell_setting           monoclinic
_symmetry_space_group_name_H-M   'P 21/n'
_symmetry_Int_Tables_number      14
_space_group_name_Hall           '-P 2yn'
loop_
_symmetry_equiv_pos_site_id
_symmetry_equiv_pos_as_xyz
1 x,y,z
2 1/2-x,1/2+y,1/2-z
3 -x,-y,-z
4 1/2+x,1/2-y,1/2+z
_cell_length_a                   11.307(2)
_cell_length_b                   9.875(1)
_cell_length_c                   12.229(1)
_cell_angle_alpha                90
_cell_angle_beta                 99.00(1)
_cell_angle_gamma                90
_cell_volume                     1348.64
_chemical_melting_point          '253-254 deg.C'
_cell_formula_units_Z            4
_exptl_crystal_recrystallization_method 'absolute ethanol/chloroform'
loop_
_atom_site_label
_atom_site_type_symbol
_atom_site_fract_x
_atom_site_fract_y
_atom_site_fract_z
N1 N 0.8173(1) 0.4078(1) 0.3752(1)
N2 N 0.7436(1) 0.7678(1) 0.3293(1)
N3 N 0.8808(1) 0.2249(1) 0.4963(1)
C1 C 0.7969(1) 0.5436(1) 0.3858(1)
C2 C 0.7592(1) 0.6386(2) 0.3046(1)
C3 C 0.7654(2) 0.8041(2) 0.4361(1)
C4 C 0.8027(2) 0.7166(2) 0.5222(1)
C5 C 0.8191(1) 0.5809(1) 0.4976(1)
C6 C 0.8563(1) 0.4579(1) 0.5585(1)
C7 C 0.9206(2) 0.2873(2) 0.6926(1)
C8 C 0.9583(2) 0.2399(2) 0.8018(1)
C9 C 0.9897(2) 0.1092(2) 0.8238(1)
C10 C 0.9839(2) 0.0172(2) 0.7372(1)
C11 C 0.9479(1) 0.0569(2) 0.6316(1)
C12 C 0.9160(1) 0.1926(2) 0.6051(1)
C13 C 0.8541(1) 0.3531(1) 0.4779(1)
C14 C 0.8672(2) 0.4223(2) 0.6714(2)
C15 C 0.8469(2) 0.5220(2) 0.7606(2)
C16 C 0.9556(2) 0.6039(3) 0.8070(2)
C17 C 0.9281(3) 0.7005(3) 0.8961(2)
H1 H 0.8085(1) 0.3638(1) 0.3137(1)
H2 H 0.7444(1) 0.6114(2) 0.2310(1)
H3 H 0.7546(2) 0.8946(2) 0.4532(1)
H4 H 0.8167(2) 0.7474(2) 0.5950(1)
H5 H 0.9616(2) 0.3006(2) 0.8604(1)
H6 H 1.0149(2) 0.0813(2) 0.8963(1)
H7 H 1.0051(2) -0.0727(2) 0.7521(1)
H8 H 0.9440(1) -0.0066(2) 0.5750(1)
H9 H 0.7833(2) 0.5836(2) 0.7303(2)
H10 H 0.8199(2) 0.4726(2) 0.8207(2)
H11 H 0.9826(2) 0.6550(3) 0.7478(2)
H12 H 1.0197(2) 0.5433(3) 0.8379(2)
H13 H 0.8725(12) 0.7681(11) 0.8635(3)
H14 H 1.0007(4) 0.7435(13) 0.9303(10)
H15 H 0.8937(15) 0.6511(4) 0.9510(8)
C18? C 0.9241(3) 0.4283(4) 0.6625(3)
C19? C 0.9531(3) 0.5365(4) 0.7480(2)
C20? C 0.8587(4) 0.5604(5) 0.8223(3)
C21? C 0.8987(6) 0.6645(7) 0.9128(4)
H16? H 0.9657(3) 0.6208(4) 0.7107(2)
H17? H 1.0279(3) 0.5132(4) 0.7945(2)
H18? H 0.8416(4) 0.4754(5) 0.8564(3)
H19? H 0.7854(4) 0.5915(5) 0.7774(3)
H20? H 0.8397(16) 0.6707(27) 0.9611(18)
H21? H 0.9077(31) 0.7513(10) 0.8796(5)
H22? H 0.9739(17) 0.6371(20) 0.9546(19)
loop_
_geom_bond_atom_site_label_1
_geom_bond_atom_site_label_2
_geom_bond_site_symmetry_1
_geom_bond_site_symmetry_2
N1 C1 1_555 1_555
N2 C2 1_555 1_555
N3 C12 1_555 1_555
C1 C2 1_555 1_555
C2 H2 1_555 1_555
C3 N2 1_555 1_555
C4 C3 1_555 1_555
C5 C1 1_555 1_555
C6 C5 1_555 1_555
C7 C8 1_555 1_555
C8 C9 1_555 1_555
C9 C10 1_555 1_555
C10 C11 1_555 1_555
C11 C12 1_555 1_555
C12 C7 1_555 1_555
C13 N1 1_555 1_555
C14 C6 1_555 1_555
C15 C14 1_555 1_555
C16 C15 1_555 1_555
C17 C16 1_555 1_555
H1 N1 1_555 1_555
H3 C3 1_555 1_555
H4 C4 1_555 1_555
H5 C8 1_555 1_555
H6 C9 1_555 1_555
H7 C10 1_555 1_555
H8 C11 1_555 1_555
H9 C15 1_555 1_555
H10 C15 1_555 1_555
H11 C16 1_555 1_555
H12 C16 1_555 1_555
H13 C17 1_555 1_555
H14 C17 1_555 1_555
H15 C17 1_555 1_555
N3 C13 1_555 1_555
C4 C5 1_555 1_555
C6 C13 1_555 1_555
C7 C14 1_555 1_555

#END
