
#######################################################################
#
#                 Cambridge Crystallographic Data Centre
#                                CCDC 
#
#######################################################################
#
# If this CIF has been generated from an entry in the Cambridge 
# Structural Database, then it will include bibliographic, chemical, 
# crystal, experimental, refinement or atomic coordinate data resulting 
# from the CCDC's data processing and validation procedures.
#
#######################################################################

data_UGESOO
_chemical_formula_moiety         'C20 H13 N3'
_chemical_name_systematic        
11-Phenyl-5H-pyrido(3',4':4,5)pyrrolo(2,3-b)quinoline
_symmetry_cell_setting           orthorhombic
_symmetry_space_group_name_H-M   'P 21 21 21'
_symmetry_Int_Tables_number      19
_space_group_name_Hall           'P 2ac 2ab'
loop_
_symmetry_equiv_pos_site_id
_symmetry_equiv_pos_as_xyz
1 x,y,z
2 1/2-x,-y,1/2+z
3 1/2+x,1/2-y,-z
4 -x,1/2+y,1/2-z
_cell_length_a                   7.569(1)
_cell_length_b                   12.450(1)
_cell_length_c                   16.240(2)
_cell_angle_alpha                90
_cell_angle_beta                 90
_cell_angle_gamma                90
_cell_volume                     1530.36
_exptl_crystal_colour            yellow
_chemical_melting_point          '297-298 deg.C'
_cell_formula_units_Z            4
_exptl_crystal_recrystallization_method 'chloroform/absolute ethanol'
loop_
_atom_site_label
_atom_site_type_symbol
_atom_site_fract_x
_atom_site_fract_y
_atom_site_fract_z
N1 N 0.6802(4) 0.6949(2) 0.2296(2)
N2 N 0.4300(4) 0.4016(2) 0.2243(2)
N3 N 0.9561(4) 0.7470(2) 0.1717(2)
C1 C 0.5803(5) 0.6032(2) 0.2334(2)
C2 C 0.4179(5) 0.5851(3) 0.2706(2)
C3 C 0.3511(5) 0.4832(3) 0.2647(2)
C4 C 0.5848(5) 0.4209(3) 0.1882(2)
C5 C 0.6669(4) 0.5204(2) 0.1906(2)
C6 C 0.8289(5) 0.5652(2) 0.1588(2)
C7 C 0.9678(5) 0.5290(2) 0.1115(2)
C8 C 1.1070(5) 0.6035(3) 0.0951(2)
C9 C 1.2588(5) 0.5749(3) 0.0496(2)
C10 C 1.3917(5) 0.6453(4) 0.0368(3)
C11 C 1.3817(6) 0.7493(4) 0.0691(3)
C12 C 1.2375(5) 0.7811(3) 0.1134(2)
C13 C 1.0970(5) 0.7097(3) 0.1272(2)
C14 C 0.8333(5) 0.6748(3) 0.1853(2)
C15 C 0.9688(4) 0.4164(3) 0.0799(2)
C16 C 0.9955(5) 0.3316(3) 0.1321(2)
C17 C 0.9927(5) 0.2268(3) 0.1042(3)
C18 C 0.9637(6) 0.2078(3) 0.0216(3)
C19 C 0.9353(6) 0.2912(4) -0.0319(3)
C20 C 0.9412(5) 0.3957(3) -0.0027(2)
H1 H 0.6521(4) 0.7554(2) 0.2515(2)
H2 H 0.3572(5) 0.6394(3) 0.2979(2)
H3 H 0.2387(5) 0.4651(3) 0.2882(2)
H4 H 0.6462(5) 0.3615(3) 0.1638(2)
H5 H 1.2688(5) 0.5027(3) 0.0294(2)
H6 H 1.4916(5) 0.6260(4) 0.0035(3)
H7 H 1.4780(6) 0.7987(4) 0.0623(3)
H8 H 1.2326(5) 0.8538(3) 0.1328(2)
H9 H 1.0102(5) 0.3447(3) 0.1900(2)
H10 H 1.0213(5) 0.1683(3) 0.1404(3)
H11 H 0.9517(6) 0.1345(3) 0.0042(3)
H12 H 0.9120(6) 0.2771(4) -0.0871(3)
H13 H 0.9265(5) 0.4525(3) -0.0392(2)
loop_
_geom_bond_atom_site_label_1
_geom_bond_atom_site_label_2
_geom_bond_site_symmetry_1
_geom_bond_site_symmetry_2
N1 C1 1_555 1_555
N2 C3 1_555 1_555
N3 C13 1_555 1_555
C1 C2 1_555 1_555
C2 C3 1_555 1_555
C3 H3 1_555 1_555
C4 N2 1_555 1_555
C5 C1 1_555 1_555
C6 C5 1_555 1_555
C7 C6 1_555 1_555
C8 C7 1_555 1_555
C9 C8 1_555 1_555
C10 C9 1_555 1_555
C11 C10 1_555 1_555
C12 C11 1_555 1_555
C13 C8 1_555 1_555
C14 N1 1_555 1_555
C15 C7 1_555 1_555
C16 C15 1_555 1_555
C17 C16 1_555 1_555
C18 C17 1_555 1_555
C19 C18 1_555 1_555
C20 C15 1_555 1_555
H1 N1 1_555 1_555
H2 C2 1_555 1_555
H4 C4 1_555 1_555
H5 C9 1_555 1_555
H6 C10 1_555 1_555
H7 C11 1_555 1_555
H8 C12 1_555 1_555
H9 C16 1_555 1_555
H10 C17 1_555 1_555
H11 C18 1_555 1_555
H12 C19 1_555 1_555
H13 C20 1_555 1_555
N3 C14 1_555 1_555
C4 C5 1_555 1_555
C6 C14 1_555 1_555
C12 C13 1_555 1_555
C19 C20 1_555 1_555

#END
