
#######################################################################
#
#                 Cambridge Crystallographic Data Centre
#                                CCDC 
#
#######################################################################
#
# If this CIF has been generated from an entry in the Cambridge 
# Structural Database, then it will include bibliographic, chemical, 
# crystal, experimental, refinement or atomic coordinate data resulting 
# from the CCDC's data processing and validation procedures.
#
#######################################################################

data_UGICAQ
_chemical_formula_moiety         'C27 H43 N1 O3,C1 H4 O1'
_chemical_name_systematic        
'13,17-didehydro-12,13-dihydroveratraman-3,9,23-triol methanol solvate'
_symmetry_cell_setting           monoclinic
_symmetry_space_group_name_H-M   'C 2'
_symmetry_Int_Tables_number      5
_space_group_name_Hall           'C 2y'
loop_
_symmetry_equiv_pos_site_id
_symmetry_equiv_pos_as_xyz
1 x,y,z
2 -x,y,-z
3 1/2+x,1/2+y,z
4 1/2-x,1/2+y,-z
_cell_length_a                   19.180(9)
_cell_length_b                   9.572(5)
_cell_length_c                   15.403(7)
_cell_angle_alpha                90
_cell_angle_beta                 107.967(11)
_cell_angle_gamma                90
_cell_volume                     2689.95
_exptl_crystal_colour            colorless
_exptl_crystal_description       prismatic
_cell_formula_units_Z            4
loop_
_atom_site_label
_atom_site_type_symbol
_atom_site_fract_x
_atom_site_fract_y
_atom_site_fract_z
N1 N 0.72590(12) 0.3851(2) 0.85721(13)
O1 O 0.80093(14) 0.1732(2) 0.19564(12)
H1 H 0.7965 0.0892 0.1852
O2 O 0.95872(9) 0.2940(2) 0.58212(13)
H2 H 0.9649 0.3789 0.5852
O3 O 0.78243(13) 0.4348(2) 1.10697(11)
H3 H 0.7852 0.3544 1.1261
C1 C 0.84345(16) 0.3557(3) 0.42057(16)
H4 H 0.8231 0.4405 0.4373
H5 H 0.8954 0.3712 0.4310
C2 C 0.80643(17) 0.3271(3) 0.31872(16)
H6 H 0.7540 0.3175 0.3068
H7 H 0.8149 0.4051 0.2831
C3 C 0.83672(16) 0.1951(3) 0.29063(16)
H8 H 0.8892 0.2087 0.2999
C4 C 0.82770(16) 0.0727(3) 0.34740(17)
H9 H 0.8527 -0.0075 0.3323
H10 H 0.7760 0.0499 0.3318
C5 C 0.85751(14) 0.0990(3) 0.44965(16)
C6 C 0.90038(16) 0.0055(3) 0.50529(17)
H11 H 0.9131 -0.0738 0.4786
C7 C 0.93011(18) 0.0170(3) 0.60778(17)
H12 H 0.9236 -0.0710 0.6356
H13 H 0.9821 0.0380 0.6259
C8 C 0.89019(15) 0.1306(3) 0.63936(16)
H14 H 0.8400 0.0971 0.6291
C9 C 0.88453(13) 0.2618(3) 0.58202(15)
C10 C 0.83380(13) 0.2357(3) 0.48243(14)
C11 C 0.86183(13) 0.3733(3) 0.63771(14)
H15 H 0.8105 0.3642 0.6336
H16 H 0.8704 0.4663 0.6180
C12 C 0.91264(13) 0.3426(3) 0.73634(14)
H17 H 0.9613 0.3789 0.7406
C13 C 0.91847(15) 0.1804(3) 0.73960(16)
H18 H 0.9698 0.1524 0.7667
C14 C 0.8716(2) 0.1175(3) 0.79479(19)
H19 H 0.8201 0.1278 0.7605
H20 H 0.8820 0.0184 0.8036
C15 C 0.88612(19) 0.1863(3) 0.8854(2)
H21 H 0.9359 0.1656 0.9225
H22 H 0.8532 0.1478 0.9161
C16 C 0.87603(13) 0.3440(3) 0.87799(15)
C17 C 0.88842(12) 0.4146(3) 0.80964(14)
C18 C 0.88492(17) 0.5709(3) 0.80213(19)
H23 H 0.9294 0.6103 0.8419
H24 H 0.8439 0.6045 0.8194
H25 H 0.8792 0.5979 0.7403
C19 C 0.75237(15) 0.2279(4) 0.47688(19)
H26 H 0.7464 0.1619 0.5210
H27 H 0.7239 0.1985 0.4168
H28 H 0.7360 0.3183 0.4894
C20 C 0.85327(14) 0.4117(3) 0.95492(15)
H29 H 0.8516 0.5130 0.9454
C21 C 0.91154(17) 0.3812(5) 1.04668(19)
H30 H 0.9590 0.4066 1.0431
H31 H 0.9110 0.2835 1.0604
H32 H 0.9010 0.4346 1.0939
C22 C 0.77578(13) 0.3629(2) 0.95009(13)
H33 H 0.7776 0.2626 0.9634
C23 C 0.73979(16) 0.4374(3) 1.01385(16)
H34 H 0.7339 0.5357 0.9952
C24 C 0.66307(16) 0.3786(3) 0.99885(19)
H35 H 0.6672 0.2814 1.0175
H36 H 0.6403 0.4287 1.0377
C25 C 0.61422(16) 0.3882(3) 0.9020(2)
H37 H 0.6073 0.4873 0.8856
C26 C 0.65349(16) 0.3207(3) 0.84160(18)
H38 H 0.6592 0.2215 0.8548
H39 H 0.6246 0.3318 0.7781
C27 C 0.53871(18) 0.3231(5) 0.8863(3)
H40 H 0.5153 0.3661 0.9263
H41 H 0.5439 0.2247 0.8987
H42 H 0.5094 0.3376 0.8240
H43 H 0.7484(13) 0.346(3) 0.8206(18)
O4 O -0.01551(19) 0.5800(4) 0.5779(2)
H44 H -0.0320 0.6403 0.5391
C28 C 0.0367(3) 0.6371(6) 0.6501(3)
H45 H 0.0786 0.6622 0.6319
H46 H 0.0510 0.5704 0.6990
H47 H 0.0174 0.7191 0.6704
loop_
_geom_bond_atom_site_label_1
_geom_bond_atom_site_label_2
_geom_bond_site_symmetry_1
_geom_bond_site_symmetry_2
N1 C22 1_555 1_555
O1 H1 1_555 1_555
O2 H2 1_555 1_555
O3 H3 1_555 1_555
C1 H4 1_555 1_555
H5 C1 1_555 1_555
C2 C1 1_555 1_555
H6 C2 1_555 1_555
H7 C2 1_555 1_555
C3 O1 1_555 1_555
H8 C3 1_555 1_555
C4 C3 1_555 1_555
H9 C4 1_555 1_555
H10 C4 1_555 1_555
C5 C4 1_555 1_555
C6 C5 1_555 1_555
H11 C6 1_555 1_555
C7 C6 1_555 1_555
H12 C7 1_555 1_555
H13 C7 1_555 1_555
C8 C7 1_555 1_555
H14 C8 1_555 1_555
C9 O2 1_555 1_555
C10 C1 1_555 1_555
C11 C9 1_555 1_555
H15 C11 1_555 1_555
H16 C11 1_555 1_555
C12 C11 1_555 1_555
H17 C12 1_555 1_555
C13 C8 1_555 1_555
H18 C13 1_555 1_555
C14 C13 1_555 1_555
H19 C14 1_555 1_555
H20 C14 1_555 1_555
C15 C14 1_555 1_555
H21 C15 1_555 1_555
H22 C15 1_555 1_555
C16 C15 1_555 1_555
C17 C12 1_555 1_555
C18 C17 1_555 1_555
H23 C18 1_555 1_555
H24 C18 1_555 1_555
H25 C18 1_555 1_555
C19 C10 1_555 1_555
H26 C19 1_555 1_555
H27 C19 1_555 1_555
H28 C19 1_555 1_555
C20 C16 1_555 1_555
H29 C20 1_555 1_555
C21 C20 1_555 1_555
H30 C21 1_555 1_555
H31 C21 1_555 1_555
H32 C21 1_555 1_555
C22 C20 1_555 1_555
H33 C22 1_555 1_555
C23 O3 1_555 1_555
H34 C23 1_555 1_555
C24 C23 1_555 1_555
H35 C24 1_555 1_555
H36 C24 1_555 1_555
C25 C24 1_555 1_555
H37 C25 1_555 1_555
C26 N1 1_555 1_555
H38 C26 1_555 1_555
H39 C26 1_555 1_555
C27 C25 1_555 1_555
H40 C27 1_555 1_555
H41 C27 1_555 1_555
H42 C27 1_555 1_555
H43 N1 1_555 1_555
O4 H44 1_555 1_555
C28 O4 1_555 1_555
H45 C28 1_555 1_555
H46 C28 1_555 1_555
H47 C28 1_555 1_555
C2 C3 1_555 1_555
C5 C10 1_555 1_555
C8 C9 1_555 1_555
C9 C10 1_555 1_555
C12 C13 1_555 1_555
C16 C17 1_555 1_555
C22 C23 1_555 1_555
C25 C26 1_555 1_555

#END
