
#######################################################################
#
#                 Cambridge Crystallographic Data Centre
#                                CCDC 
#
#######################################################################
#
# If this CIF has been generated from an entry in the Cambridge 
# Structural Database, then it will include bibliographic, chemical, 
# crystal, experimental, refinement or atomic coordinate data resulting 
# from the CCDC's data processing and validation procedures.
#
#######################################################################

data_UGICIY
_chemical_formula_moiety         'C27 H41 N1 O2,H2 O1'
_chemical_name_systematic        
'11,17-didehydroveratraman-3,23-diol unknown solvate monohydrate'
_symmetry_cell_setting           monoclinic
_symmetry_space_group_name_H-M   'C 2'
_symmetry_Int_Tables_number      5
_space_group_name_Hall           'C 2y'
loop_
_symmetry_equiv_pos_site_id
_symmetry_equiv_pos_as_xyz
1 x,y,z
2 -x,y,-z
3 1/2+x,1/2+y,z
4 1/2-x,1/2+y,-z
_cell_length_a                   39.1940(9)
_cell_length_b                   9.2075(2)
_cell_length_c                   7.6914(2)
_cell_angle_alpha                90
_cell_angle_beta                 99.5650(10)
_cell_angle_gamma                90
_cell_volume                     2737.07
_exptl_crystal_colour            colorless
_exptl_crystal_description       plate
_cell_formula_units_Z            4
loop_
_atom_site_label
_atom_site_type_symbol
_atom_site_fract_x
_atom_site_fract_y
_atom_site_fract_z
N1 N 1.40832(5) 0.9260(3) 1.5458(3)
H1 H 1.3875(8) 0.928(3) 1.522(4)
O1 O 1.10295(5) 0.6756(2) 0.9080(3)
H2 H 1.0936 0.6002 0.8605
O2 O 1.47276(4) 0.6678(2) 1.7676(2)
H3 H 1.4629 0.6606 1.8562
C1 C 1.19928(6) 0.6022(2) 0.9942(3)
H4 H 1.2166 0.6001 0.9142
H5 H 1.1990 0.5049 1.0490
C2 C 1.16356(6) 0.6317(3) 0.8848(3)
H6 H 1.1641 0.7241 0.8196
H7 H 1.1575 0.5528 0.7976
C3 C 1.13646(6) 0.6407(3) 1.0026(3)
H8 H 1.1352 0.5449 1.0624
C4 C 1.14611(6) 0.7576(3) 1.1434(3)
H9 H 1.1455 0.8539 1.0858
H10 H 1.1288 0.7579 1.2235
C5 C 1.18164(6) 0.7331(2) 1.2501(3)
C6 C 1.18621(6) 0.7263(3) 1.4242(3)
H11 H 1.1662 0.7357 1.4781
C7 C 1.22041(6) 0.7050(3) 1.5449(3)
H12 H 1.2219 0.6046 1.5917
H13 H 1.2222 0.7730 1.6458
C8 C 1.24978(5) 0.7327(3) 1.4429(2)
H14 H 1.2507 0.8396 1.4215
C9 C 1.24304(5) 0.6579(3) 1.2634(2)
H15 H 1.2386 0.5531 1.2858
C10 C 1.21065(5) 0.7155(2) 1.1408(2)
C11 C 1.27819(5) 0.6660(3) 1.2081(2)
H16 H 1.2823 0.6630 1.0899
C12 C 1.30277(5) 0.6783(3) 1.3511(2)
C13 C 1.34046(6) 0.6812(3) 1.3660(3)
C14 C 1.28642(5) 0.6828(3) 1.5172(2)
H17 H 1.2851 0.5810 1.5611
C15 C 1.30833(6) 0.7701(3) 1.6592(3)
H18 H 1.2981 0.7671 1.7686
H19 H 1.3092 0.8726 1.6215
C16 C 1.34475(6) 0.7068(3) 1.6938(3)
H20 H 1.3441 0.6111 1.7519
H21 H 1.3598 0.7714 1.7762
C17 C 1.36052(6) 0.6880(3) 1.5270(3)
C18 C 1.35435(6) 0.6689(4) 1.1945(3)
H22 H 1.3772 0.7149 1.2075
H23 H 1.3385 0.7176 1.1005
H24 H 1.3564 0.5661 1.1644
C19 C 1.21820(6) 0.8625(3) 1.0603(3)
H25 H 1.1980 0.8931 0.9754
H26 H 1.2382 0.8529 1.0001
H27 H 1.2232 0.9353 1.1540
C20 C 1.39972(6) 0.6641(3) 1.5575(3)
H28 H 1.4070 0.6521 1.4397
C21 C 1.40693(8) 0.5209(4) 1.6581(5)
H29 H 1.4025 0.5332 1.7790
H30 H 1.4311 0.4930 1.6609
H31 H 1.3918 0.4449 1.5990
C22 C 1.41937(6) 0.7954(3) 1.6492(3)
H32 H 1.4134 0.8064 1.7699
C23 C 1.45894(6) 0.7888(3) 1.6637(3)
H33 H 1.4649 0.7789 1.5428
C24 C 1.47523(6) 0.9276(3) 1.7477(4)
H34 H 1.4712 0.9326 1.8713
H35 H 1.5005 0.9234 1.7501
C25 C 1.46120(8) 1.0649(4) 1.6521(6)
H36 H 1.4679 1.0665 1.5322
C26 C 1.42123(7) 1.0605(3) 1.6336(5)
H37 H 1.4144 1.0656 1.7517
H38 H 1.4111 1.1450 1.5639
C27 C 1.4739(3) 1.1925(12) 1.7907(14)
H39 H 1.4653 1.2861 1.7405
H40 H 1.4992 1.1941 1.8158
H41 H 1.4648 1.1751 1.9002
O3 O 1.07210(5) 0.4280(2) 0.7924(3)
H45 H 1.0834 0.3687 0.8647
H46 H 1.0789 0.4210 0.6933
C28? C 1.4776(3) 1.2052(14) 1.7122(16)
H42? H 1.4734 1.2262 1.8318
H43? H 1.4677 1.2828 1.6323
H44? H 1.5026 1.1993 1.7123
loop_
_geom_bond_atom_site_label_1
_geom_bond_atom_site_label_2
_geom_bond_site_symmetry_1
_geom_bond_site_symmetry_2
N1 H1 1_555 1_555
O1 H2 1_555 1_555
O2 H3 1_555 1_555
C1 H4 1_555 1_555
H5 C1 1_555 1_555
C2 C1 1_555 1_555
H6 C2 1_555 1_555
H7 C2 1_555 1_555
C3 O1 1_555 1_555
H8 C3 1_555 1_555
C4 C3 1_555 1_555
H9 C4 1_555 1_555
H10 C4 1_555 1_555
C5 C4 1_555 1_555
C6 C5 1_555 1_555
H11 C6 1_555 1_555
C7 C6 1_555 1_555
H12 C7 1_555 1_555
H13 C7 1_555 1_555
C8 C7 1_555 1_555
H14 C8 1_555 1_555
C9 C8 1_555 1_555
H15 C9 1_555 1_555
C10 C1 1_555 1_555
C11 C9 1_555 1_555
H16 C11 1_555 1_555
C12 C11 1_555 1_555
C13 C12 1_555 1_555
C14 C8 1_555 1_555
H17 C14 1_555 1_555
C15 C14 1_555 1_555
H18 C15 1_555 1_555
H19 C15 1_555 1_555
C16 C15 1_555 1_555
H20 C16 1_555 1_555
H21 C16 1_555 1_555
C17 C13 1_555 1_555
C18 C13 1_555 1_555
H22 C18 1_555 1_555
H23 C18 1_555 1_555
H24 C18 1_555 1_555
C19 C10 1_555 1_555
H25 C19 1_555 1_555
H26 C19 1_555 1_555
H27 C19 1_555 1_555
C20 C17 1_555 1_555
H28 C20 1_555 1_555
C21 C20 1_555 1_555
H29 C21 1_555 1_555
H30 C21 1_555 1_555
H31 C21 1_555 1_555
C22 N1 1_555 1_555
H32 C22 1_555 1_555
C23 O2 1_555 1_555
H33 C23 1_555 1_555
C24 C23 1_555 1_555
H34 C24 1_555 1_555
H35 C24 1_555 1_555
C25 C24 1_555 1_555
H36 C25 1_555 1_555
C26 N1 1_555 1_555
H37 C26 1_555 1_555
H38 C26 1_555 1_555
C27 C25 1_555 1_555
H39 C27 1_555 1_555
H40 C27 1_555 1_555
H41 C27 1_555 1_555
O3 H45 1_555 1_555
H46 O3 1_555 1_555
C2 C3 1_555 1_555
C5 C10 1_555 1_555
C9 C10 1_555 1_555
C12 C14 1_555 1_555
C16 C17 1_555 1_555
C20 C22 1_555 1_555
C22 C23 1_555 1_555
C25 C26 1_555 1_555

#END
