
#######################################################################
#
#                 Cambridge Crystallographic Data Centre
#                                CCDC 
#
#######################################################################
#
# If this CIF has been generated from an entry in the Cambridge 
# Structural Database, then it will include bibliographic, chemical, 
# crystal, experimental, refinement or atomic coordinate data resulting 
# from the CCDC's data processing and validation procedures.
#
#######################################################################

data_UGICET
_chemical_formula_moiety         'C27 H23 N1 O2'
_chemical_name_systematic        
(3S*,8aR*)-2,3,4-triphenyl-2,3,6,7,8,8a-hexahydrofuro[4,3,2-de][1,2]benzoxazine
_symmetry_cell_setting           monoclinic
_symmetry_space_group_name_H-M   'C 2/c'
_symmetry_Int_Tables_number      15
_space_group_name_Hall           '-C 2yn'
loop_
_symmetry_equiv_pos_site_id
_symmetry_equiv_pos_as_xyz
1 x,y,z
2 -x,y,1/2-z
3 1/2+x,1/2+y,z
4 1/2-x,1/2+y,1/2-z
5 -x,-y,-z
6 x,-y,1/2+z
7 1/2-x,1/2-y,-z
8 1/2+x,1/2-y,1/2+z
_cell_length_a                   44.6398(10)
_cell_length_b                   6.1678(2)
_cell_length_c                   16.0393(5)
_cell_angle_alpha                90
_cell_angle_beta                 110.008(2)
_cell_angle_gamma                90
_cell_volume                     4149.56
_exptl_crystal_colour            colorless
_exptl_crystal_description       block
_cell_formula_units_Z            8
loop_
_atom_site_label
_atom_site_type_symbol
_atom_site_fract_x
_atom_site_fract_y
_atom_site_fract_z
O1 O 0.14571(3) 0.5508(2) 0.25128(9)
O2 O 0.04913(3) 0.3577(2) 0.08072(10)
N1 N 0.15233(4) 0.3174(3) 0.25508(10)
C1 C 0.06386(5) 0.0673(3) 0.00271(14)
C2 C 0.08501(5) -0.0759(4) -0.01222(16)
H1 H 0.1070 -0.0647 0.0217
C3 C 0.07480(6) -0.2352(4) -0.07553(19)
H2 H 0.0899 -0.3329 -0.0845
C4 C 0.04319(6) -0.2551(4) -0.12588(18)
H3 H 0.0362 -0.3666 -0.1691
C5 C 0.02202(6) -0.1114(5) -0.11255(19)
H4 H 0.0001 -0.1212 -0.1476
C6 C 0.03207(5) 0.0466(5) -0.04926(17)
H5 H 0.0169 0.1442 -0.0408
C7 C 0.15135(4) 0.2767(3) 0.09752(12)
C8 C 0.14687(5) 0.4776(3) 0.05640(13)
H6 H 0.1328 0.5795 0.0680
C9 C 0.16265(6) 0.5309(4) -0.00145(14)
H7 H 0.1595 0.6692 -0.0292
C10 C 0.18283(6) 0.3839(5) -0.01865(15)
H8 H 0.1936 0.4206 -0.0584
C11 C 0.18746(5) 0.1852(5) 0.02107(15)
H9 H 0.2014 0.0834 0.0087
C12 C 0.17183(5) 0.1324(4) 0.07938(14)
H10 H 0.1753 -0.0056 0.1074
C13 C 0.18624(4) 0.2879(3) 0.28829(12)
C14 C 0.20751(5) 0.4481(4) 0.28675(14)
H11 H 0.1999 0.5844 0.2603
C15 C 0.23984(5) 0.4109(4) 0.32353(16)
H12 H 0.2545 0.5223 0.3233
C16 C 0.25088(5) 0.2136(4) 0.36045(16)
H13 H 0.2732 0.1883 0.3858
C17 C 0.22977(5) 0.0528(4) 0.36077(16)
H14 H 0.2374 -0.0846 0.3858
C18 C 0.19746(5) 0.0897(4) 0.32482(15)
H15 H 0.1829 -0.0221 0.3253
C19 C 0.11551(5) 0.5638(3) 0.26522(14)
H16 H 0.1173 0.4965 0.3234
C20 C 0.10313(5) 0.7919(3) 0.26073(18)
H17 H 0.1045 0.8651 0.2072
H18 H 0.1163 0.8743 0.3135
C21 C 0.06832(5) 0.7871(4) 0.25733(18)
H19 H 0.0673 0.7096 0.3104
H20 H 0.0611 0.9378 0.2600
C22 C 0.04541(5) 0.6772(4) 0.17397(17)
H21 H 0.0258 0.6297 0.1847
H22 H 0.0393 0.7801 0.1236
C23 C 0.06205(5) 0.4872(3) 0.15323(15)
C24 C 0.09291(5) 0.4402(3) 0.19203(13)
C25 C 0.10124(4) 0.2794(3) 0.14105(13)
C26 C 0.13607(4) 0.2192(3) 0.16549(12)
H23 H 0.1375 0.0582 0.1731
C27 C 0.07375(4) 0.2284(3) 0.07343(14)
loop_
_geom_bond_atom_site_label_1
_geom_bond_atom_site_label_2
_geom_bond_site_symmetry_1
_geom_bond_site_symmetry_2
O1 N1 1_555 1_555
O2 C23 1_555 1_555
N1 C13 1_555 1_555
C1 C2 1_555 1_555
C2 H1 1_555 1_555
C3 C2 1_555 1_555
H2 C3 1_555 1_555
C4 C3 1_555 1_555
H3 C4 1_555 1_555
C5 C4 1_555 1_555
H4 C5 1_555 1_555
C6 C1 1_555 1_555
H5 C6 1_555 1_555
C7 C8 1_555 1_555
C8 H6 1_555 1_555
C9 C8 1_555 1_555
H7 C9 1_555 1_555
C10 C9 1_555 1_555
H8 C10 1_555 1_555
C11 C10 1_555 1_555
H9 C11 1_555 1_555
C12 C7 1_555 1_555
H10 C12 1_555 1_555
C13 C14 1_555 1_555
C14 H11 1_555 1_555
C15 C14 1_555 1_555
H12 C15 1_555 1_555
C16 C15 1_555 1_555
H13 C16 1_555 1_555
C17 C16 1_555 1_555
H14 C17 1_555 1_555
C18 C13 1_555 1_555
H15 C18 1_555 1_555
C19 O1 1_555 1_555
H16 C19 1_555 1_555
C20 C19 1_555 1_555
H17 C20 1_555 1_555
H18 C20 1_555 1_555
C21 C20 1_555 1_555
H19 C21 1_555 1_555
H20 C21 1_555 1_555
C22 C21 1_555 1_555
H21 C22 1_555 1_555
H22 C22 1_555 1_555
C23 C22 1_555 1_555
C24 C19 1_555 1_555
C25 C24 1_555 1_555
C26 N1 1_555 1_555
H23 C26 1_555 1_555
C27 O2 1_555 1_555
C1 C27 1_555 1_555
C5 C6 1_555 1_555
C7 C26 1_555 1_555
C11 C12 1_555 1_555
C17 C18 1_555 1_555
C23 C24 1_555 1_555
C25 C26 1_555 1_555
C25 C27 1_555 1_555

#END
