
#######################################################################
#
#                 Cambridge Crystallographic Data Centre
#                                CCDC 
#
#######################################################################
#
# If this CIF has been generated from an entry in the Cambridge 
# Structural Database, then it will include bibliographic, chemical, 
# crystal, experimental, refinement or atomic coordinate data resulting 
# from the CCDC's data processing and validation procedures.
#
#######################################################################

data_UGIMUT
_chemical_formula_moiety         'C21 H26 N4 O1'
_chemical_name_systematic        
3-(1-(4-t-Butylphenyl)-3-((dimethylamino)methyl)-1H-1,2,4-triazol-5-yl)phenol
_chemical_properties_biological  'selective delta-opiod receptor'
_symmetry_cell_setting           triclinic
_symmetry_space_group_name_H-M   'P -1'
_symmetry_Int_Tables_number      2
_space_group_name_Hall           '-P 1'
loop_
_symmetry_equiv_pos_site_id
_symmetry_equiv_pos_as_xyz
1 x,y,z
2 -x,-y,-z
_cell_length_a                   9.4032(3)
_cell_length_b                   9.7492(3)
_cell_length_c                   11.3683(3)
_cell_angle_alpha                84.999(2)
_cell_angle_beta                 72.558(2)
_cell_angle_gamma                76.555(2)
_cell_volume                     966.835
_exptl_crystal_colour            colorless
_exptl_crystal_description       rectangular
_cell_formula_units_Z            2
loop_
_atom_site_label
_atom_site_type_symbol
_atom_site_fract_x
_atom_site_fract_y
_atom_site_fract_z
O1 O 0.36249(16) 1.17040(14) 0.89346(12)
H1 H 0.363(3) 1.079(3) 0.884(2)
N1 N 0.75077(16) 0.99988(17) 0.44447(13)
N2 N 0.80750(17) 0.96944(18) 0.32153(13)
N3 N 0.67971(17) 1.19668(17) 0.34826(13)
N4 N 0.67669(16) 1.09266(15) 0.08158(13)
C1 C 0.76101(19) 1.0911(2) 0.26907(16)
C2 C 0.67438(19) 1.13644(19) 0.45894(16)
C3 C 0.5956(2) 1.21120(19) 0.57497(16)
C4 C 0.5198(2) 1.14593(18) 0.68218(16)
H2 H 0.5230 1.0477 0.6836
C5 C 0.4397(2) 1.22535(18) 0.78677(16)
C6 C 0.4367(2) 1.3694(2) 0.78446(17)
H3 H 0.3841 1.4232 0.8565
C7 C 0.5101(3) 1.4339(2) 0.67779(18)
H4 H 0.5059 1.5323 0.6762
C8 C 0.5896(3) 1.3554(2) 0.57315(17)
H5 H 0.6402 1.4000 0.5000
C9 C 0.7994(2) 1.1079(2) 0.13167(16)
H6 H 0.8224 1.2022 0.1078
H7 H 0.8927 1.0366 0.0940
C10 C 0.5417(2) 1.2074(2) 0.11953(19)
H8 H 0.5696 1.2978 0.0904
H9 H 0.5020 1.2071 0.2097
H10 H 0.4631 1.1940 0.0840
C11 C 0.7340(2) 1.0881(2) -0.05375(16)
H11 H 0.6535 1.0747 -0.0871
H12 H 0.8227 1.0095 -0.0782
H13 H 0.7639 1.1769 -0.0861
C12 C 0.78611(19) 0.8911(2) 0.53148(16)
C13 C 0.8610(2) 0.9124(2) 0.61431(17)
H14 H 0.8831 1.0017 0.6191
C14 C 0.9031(2) 0.8004(3) 0.69023(18)
H15 H 0.9534 0.8149 0.7476
C15 C 0.8741(2) 0.6678(2) 0.68502(17)
C16 C 0.7970(2) 0.6517(2) 0.60220(18)
H16 H 0.7741 0.5628 0.5974
C17 C 0.7525(2) 0.7625(2) 0.52586(17)
H17 H 0.6991 0.7492 0.4703
C18 C 0.9275(2) 0.5441(3) 0.76585(18)
C19 C 1.0950(3) 0.5119(3) 0.7449(3)
H18 H 1.1444 0.4464 0.6765
H19 H 1.1189 0.4686 0.8198
H20 H 1.1325 0.5993 0.7246
C20 C 0.8974(3) 0.3919(3) 0.7273(3)
H21 H 0.8295 0.4129 0.6744
H22 H 0.8502 0.3422 0.8023
H23 H 0.9952 0.3324 0.6830
C21 C 0.8351(5) 0.5614(5) 0.8973(3)
H24 H 0.7394 0.5308 0.9094
H25 H 0.8122 0.6609 0.9191
H26 H 0.8927 0.5041 0.9499
C22? C 1.0233(6) 0.6124(5) 0.8511(4)
C23? C 1.0392(6) 0.4488(5) 0.6903(5)
C24? C 0.7970(6) 0.5176(6) 0.8597(5)
H27? H 1.0013 0.7155 0.8436
H28? H 1.1335 0.5753 0.8191
H29? H 0.9882 0.5842 0.9381
H30? H 0.9949 0.4055 0.6391
H31? H 1.0864 0.3755 0.7401
H32? H 1.1168 0.4967 0.6371
H33? H 0.7333 0.4789 0.8228
H34? H 0.7379 0.6059 0.9008
H35? H 0.8299 0.4496 0.9202
loop_
_geom_bond_atom_site_label_1
_geom_bond_atom_site_label_2
_geom_bond_site_symmetry_1
_geom_bond_site_symmetry_2
O1 H1 1_555 1_555
N1 N2 1_555 1_555
N2 C1 1_555 1_555
N3 C1 1_555 1_555
N4 C9 1_555 1_555
C1 C9 1_555 1_555
C2 N1 1_555 1_555
C3 C2 1_555 1_555
C4 C3 1_555 1_555
H2 C4 1_555 1_555
C5 O1 1_555 1_555
C6 C5 1_555 1_555
H3 C6 1_555 1_555
C7 C6 1_555 1_555
H4 C7 1_555 1_555
C8 C3 1_555 1_555
H5 C8 1_555 1_555
C9 H6 1_555 1_555
H7 C9 1_555 1_555
C10 N4 1_555 1_555
H8 C10 1_555 1_555
H9 C10 1_555 1_555
H10 C10 1_555 1_555
C11 N4 1_555 1_555
H11 C11 1_555 1_555
H12 C11 1_555 1_555
H13 C11 1_555 1_555
C12 N1 1_555 1_555
C13 C12 1_555 1_555
H14 C13 1_555 1_555
C14 C13 1_555 1_555
H15 C14 1_555 1_555
C15 C14 1_555 1_555
C16 C15 1_555 1_555
H16 C16 1_555 1_555
C17 C12 1_555 1_555
H17 C17 1_555 1_555
C18 C15 1_555 1_555
C19 C18 1_555 1_555
H18 C19 1_555 1_555
H19 C19 1_555 1_555
H20 C19 1_555 1_555
C20 C18 1_555 1_555
H21 C20 1_555 1_555
H22 C20 1_555 1_555
H23 C20 1_555 1_555
C21 C18 1_555 1_555
H24 C21 1_555 1_555
H25 C21 1_555 1_555
H26 C21 1_555 1_555
N3 C2 1_555 1_555
C4 C5 1_555 1_555
C7 C8 1_555 1_555
C16 C17 1_555 1_555

#END
