
#######################################################################
#
#                 Cambridge Crystallographic Data Centre
#                                CCDC 
#
#######################################################################
#
# If this CIF has been generated from an entry in the Cambridge 
# Structural Database, then it will include bibliographic, chemical, 
# crystal, experimental, refinement or atomic coordinate data resulting 
# from the CCDC's data processing and validation procedures.
#
#######################################################################

data_UGIMON
_chemical_formula_moiety         'C21 H26 N4 O1'
_chemical_name_systematic        
3-(5-(4-t-Butylphenyl)-3-((dimethylamino)methyl)-1H-1,2,4-triazol-1-yl)phenol
_chemical_properties_biological  'selective delta-opiod receptor'
_symmetry_cell_setting           monoclinic
_symmetry_space_group_name_H-M   'P 21/n'
_symmetry_Int_Tables_number      14
_space_group_name_Hall           '-P 2yn'
loop_
_symmetry_equiv_pos_site_id
_symmetry_equiv_pos_as_xyz
1 x,y,z
2 1/2-x,1/2+y,1/2-z
3 -x,-y,-z
4 1/2+x,1/2-y,1/2+z
_cell_length_a                   12.6473(4)
_cell_length_b                   22.2305(8)
_cell_length_c                   13.7862(5)
_cell_angle_alpha                90
_cell_angle_beta                 92.476(2)
_cell_angle_gamma                90
_cell_volume                     3872.45
_exptl_crystal_colour            colorless
_exptl_crystal_description       irregular
_chemical_melting_point          191-193deg.C
_cell_formula_units_Z            8
loop_
_atom_site_label
_atom_site_type_symbol
_atom_site_fract_x
_atom_site_fract_y
_atom_site_fract_z
O1 O 0.10120(7) 0.23986(5) 0.02413(7)
H1 H 0.0337(17) 0.2445(9) -0.0054(15)
N1 N 0.26986(8) 0.21150(5) 0.33823(8)
N2 N 0.30911(8) 0.15684(5) 0.36842(8)
N3 N 0.41480(8) 0.23190(5) 0.42347(8)
N4 N 0.43630(10) 0.12137(6) 0.57163(9)
C1 C 0.39606(10) 0.17161(6) 0.41891(9)
C2 C 0.33422(9) 0.25606(6) 0.37158(9)
C3 C 0.17518(10) 0.21205(6) 0.27627(9)
C4 C 0.18260(10) 0.22740(6) 0.17970(10)
H2 H 0.2486 0.2391 0.1552
C5 C 0.09160(10) 0.22543(6) 0.11879(9)
C6 C -0.00393(10) 0.20767(6) 0.15590(10)
H3 H -0.0660 0.2060 0.1146
C7 C -0.00870(10) 0.19248(6) 0.25296(10)
H4 H -0.0745 0.1805 0.2776
C8 C 0.08062(10) 0.19434(6) 0.31494(10)
H5 H 0.0772 0.1838 0.3815
C9 C 0.46605(10) 0.12697(6) 0.47082(10)
H6 H 0.4595 0.0874 0.4382
H7 H 0.5407 0.1402 0.4688
C10 C 0.34360(14) 0.08328(8) 0.57820(13)
H8 H 0.3608 0.0424 0.5576
H9 H 0.2859 0.0993 0.5360
H10 H 0.3215 0.0825 0.6455
C11 C 0.52356(16) 0.09822(10) 0.63292(14)
H11 H 0.5426 0.0579 0.6108
H12 H 0.5021 0.0961 0.7003
H13 H 0.5847 0.1250 0.6289
C12 C 0.32051(10) 0.32116(6) 0.35775(9)
C13 C 0.40965(11) 0.35790(6) 0.37009(11)
H14 H 0.4768 0.3403 0.3850
C14 C 0.40114(11) 0.41951(6) 0.36085(11)
H15 H 0.4631 0.4434 0.3690
C15 C 0.30438(11) 0.44776(6) 0.33991(10)
C16 C 0.21619(11) 0.41068(6) 0.32900(10)
H16 H 0.1489 0.4284 0.3152
C17 C 0.22319(10) 0.34853(6) 0.33754(10)
H17 H 0.1612 0.3246 0.3295
C18 C 0.29850(12) 0.51620(6) 0.32641(11)
C19 C 0.35758(16) 0.54832(8) 0.41133(14)
H18 H 0.4316 0.5351 0.4152
H19 H 0.3241 0.5384 0.4721
H20 H 0.3548 0.5919 0.4008
C20 C 0.35120(16) 0.53223(8) 0.23235(14)
H21 H 0.4250 0.5187 0.2361
H22 H 0.3489 0.5759 0.2228
H23 H 0.3135 0.5123 0.1776
C21 C 0.18462(13) 0.53924(7) 0.32141(14)
H24 H 0.1847 0.5831 0.3148
H25 H 0.1499 0.5280 0.3810
H26 H 0.1462 0.5213 0.2653
O2 O 0.44775(7) 0.20037(4) 0.15209(7)
H27 H 0.4193(15) 0.2086(8) 0.0927(15)
N5 N 0.75390(8) 0.24271(5) 0.35312(8)
N6 N 0.76480(8) 0.18798(5) 0.39838(8)
N7 N 0.85220(8) 0.26024(5) 0.48355(8)
N8 N 0.95850(9) 0.12520(5) 0.52099(8)
C22 C 0.82471(10) 0.20101(6) 0.47615(9)
C23 C 0.80552(9) 0.28546(6) 0.40544(9)
C24 C 0.70048(10) 0.24608(6) 0.25958(9)
C25 C 0.75105(10) 0.27163(6) 0.18235(10)
H28 H 0.8201 0.2881 0.1907
C26 C 0.69747(10) 0.27229(6) 0.09257(10)
H29 H 0.7304 0.2896 0.0386
C27 C 0.59678(10) 0.24821(6) 0.07998(10)
H30 H 0.5619 0.2483 0.0175
C28 C 0.54667(10) 0.22390(6) 0.15922(10)
C29 C 0.59918(10) 0.22269(6) 0.24967(9)
H31 H 0.5660 0.2060 0.3041
C30 C 0.86146(10) 0.15519(6) 0.54975(10)
H32 H 0.8747 0.1751 0.6133
H33 H 0.8052 0.1248 0.5572
C31 C 0.93423(14) 0.07827(7) 0.45000(11)
H34 H 0.8901 0.0475 0.4791
H35 H 1.0002 0.0599 0.4296
H36 H 0.8960 0.0958 0.3934
C32 C 1.01618(12) 0.10010(7) 0.60558(12)
H37 H 0.9713 0.0708 0.6375
H38 H 1.0355 0.1325 0.6512
H39 H 1.0805 0.0801 0.5849
C33 C 0.80597(10) 0.35020(6) 0.38411(9)
C34 C 0.89461(10) 0.38439(6) 0.41087(10)
H40 H 0.9554 0.3654 0.4397
C35 C 0.89480(11) 0.44592(6) 0.39578(11)
H41 H 0.9563 0.4684 0.4142
C36 C 0.80712(10) 0.47586(6) 0.35435(10)
C37 C 0.71949(10) 0.44088(6) 0.32679(10)
H42 H 0.6590 0.4598 0.2971
C38 C 0.71829(10) 0.37932(6) 0.34156(10)
H43 H 0.6571 0.3567 0.3225
C39 C 0.80875(11) 0.54396(6) 0.33722(11)
C40 C 0.88152(14) 0.57550(7) 0.41241(12)
H44 H 0.9549 0.5634 0.4032
H45 H 0.8614 0.5641 0.4778
H46 H 0.8749 0.6192 0.4045
C41 C 0.69846(14) 0.57166(8) 0.34566(17)
H47 H 0.7028 0.6154 0.3373
H48 H 0.6719 0.5626 0.4098
H49 H 0.6502 0.5548 0.2953
C42 C 0.84775(19) 0.55566(8) 0.23621(13)
H50 H 0.8463 0.5990 0.2231
H51 H 0.8018 0.5348 0.1880
H52 H 0.9203 0.5407 0.2324
loop_
_geom_bond_atom_site_label_1
_geom_bond_atom_site_label_2
_geom_bond_site_symmetry_1
_geom_bond_site_symmetry_2
O1 H1 1_555 1_555
N1 N2 1_555 1_555
N2 C1 1_555 1_555
N3 C1 1_555 1_555
N4 C9 1_555 1_555
C1 C9 1_555 1_555
C2 N1 1_555 1_555
C3 N1 1_555 1_555
C4 C3 1_555 1_555
H2 C4 1_555 1_555
C5 O1 1_555 1_555
C6 C5 1_555 1_555
H3 C6 1_555 1_555
C7 C6 1_555 1_555
H4 C7 1_555 1_555
C8 C3 1_555 1_555
H5 C8 1_555 1_555
C9 H6 1_555 1_555
H7 C9 1_555 1_555
C10 N4 1_555 1_555
H8 C10 1_555 1_555
H9 C10 1_555 1_555
H10 C10 1_555 1_555
C11 N4 1_555 1_555
H11 C11 1_555 1_555
H12 C11 1_555 1_555
H13 C11 1_555 1_555
C12 C2 1_555 1_555
C13 C12 1_555 1_555
H14 C13 1_555 1_555
C14 C13 1_555 1_555
H15 C14 1_555 1_555
C15 C14 1_555 1_555
C16 C15 1_555 1_555
H16 C16 1_555 1_555
C17 C12 1_555 1_555
H17 C17 1_555 1_555
C18 C15 1_555 1_555
C19 C18 1_555 1_555
H18 C19 1_555 1_555
H19 C19 1_555 1_555
H20 C19 1_555 1_555
C20 C18 1_555 1_555
H21 C20 1_555 1_555
H22 C20 1_555 1_555
H23 C20 1_555 1_555
C21 C18 1_555 1_555
H24 C21 1_555 1_555
H25 C21 1_555 1_555
H26 C21 1_555 1_555
O2 H27 1_555 1_555
N5 N6 1_555 1_555
N6 C22 1_555 1_555
N7 C22 1_555 1_555
N8 C30 1_555 1_555
C22 C30 1_555 1_555
C23 N5 1_555 1_555
C24 N5 1_555 1_555
C25 C24 1_555 1_555
H28 C25 1_555 1_555
C26 C25 1_555 1_555
H29 C26 1_555 1_555
C27 C26 1_555 1_555
H30 C27 1_555 1_555
C28 O2 1_555 1_555
C29 C24 1_555 1_555
H31 C29 1_555 1_555
C30 H32 1_555 1_555
H33 C30 1_555 1_555
C31 N8 1_555 1_555
H34 C31 1_555 1_555
H35 C31 1_555 1_555
H36 C31 1_555 1_555
C32 N8 1_555 1_555
H37 C32 1_555 1_555
H38 C32 1_555 1_555
H39 C32 1_555 1_555
C33 C23 1_555 1_555
C34 C33 1_555 1_555
H40 C34 1_555 1_555
C35 C34 1_555 1_555
H41 C35 1_555 1_555
C36 C35 1_555 1_555
C37 C36 1_555 1_555
H42 C37 1_555 1_555
C38 C33 1_555 1_555
H43 C38 1_555 1_555
C39 C36 1_555 1_555
C40 C39 1_555 1_555
H44 C40 1_555 1_555
H45 C40 1_555 1_555
H46 C40 1_555 1_555
C41 C39 1_555 1_555
H47 C41 1_555 1_555
H48 C41 1_555 1_555
H49 C41 1_555 1_555
C42 C39 1_555 1_555
H50 C42 1_555 1_555
H51 C42 1_555 1_555
H52 C42 1_555 1_555
N3 C2 1_555 1_555
C4 C5 1_555 1_555
C7 C8 1_555 1_555
C16 C17 1_555 1_555
N7 C23 1_555 1_555
C27 C28 1_555 1_555
C28 C29 1_555 1_555
C37 C38 1_555 1_555

#END
