
#######################################################################
#
#                 Cambridge Crystallographic Data Centre
#                                CCDC 
#
#######################################################################
#
# If this CIF has been generated from an entry in the Cambridge 
# Structural Database, then it will include bibliographic, chemical, 
# crystal, experimental, refinement or atomic coordinate data resulting 
# from the CCDC's data processing and validation procedures.
#
#######################################################################

data_UGISEI
_chemical_formula_moiety         'C6 H7 Br1 N1 1+,H2 O4 P1 1-'
_chemical_name_systematic        '4-Bromoanilinium dihydrogen phosphate'
_symmetry_cell_setting           orthorhombic
_symmetry_space_group_name_H-M   'P b c a'
_symmetry_Int_Tables_number      61
_space_group_name_Hall           '-P 2ac 2ab'
loop_
_symmetry_equiv_pos_site_id
_symmetry_equiv_pos_as_xyz
1 x,y,z
2 1/2-x,-y,1/2+z
3 1/2+x,1/2-y,-z
4 -x,1/2+y,1/2-z
5 -x,-y,-z
6 1/2+x,y,1/2-z
7 1/2-x,1/2+y,z
8 x,1/2-y,1/2+z
_cell_length_a                   9.805(2)
_cell_length_b                   7.875(2)
_cell_length_c                   25.506(11)
_cell_angle_alpha                90
_cell_angle_beta                 90
_cell_angle_gamma                90
_cell_volume                     1969.43
_cell_formula_units_Z            8
loop_
_atom_site_label
_atom_site_type_symbol
_atom_site_fract_x
_atom_site_fract_y
_atom_site_fract_z
Br1 Br 0.38404(10) 0.12138(12) 0.30971(3)
N1 N 0.3702(5) 0.0280(7) 0.0713(2)
C1 C 0.3819(7) 0.0875(8) 0.2359(3)
C2 C 0.4858(7) 0.1539(9) 0.2049(3)
C3 C 0.4823(7) 0.1318(9) 0.1508(3)
C4 C 0.3738(7) 0.0470(8) 0.1288(2)
C5 C 0.2688(8) -0.0160(9) 0.1586(2)
C6 C 0.2737(8) 0.0042(10) 0.2131(3)
P1 P 0.3802(2) 0.3019(2) -0.0346(1)
O1 O 0.2597(6) 0.3658(7) -0.0681(2)
O2 O 0.5142(6) 0.3765(7) -0.0579(2)
O3 O 0.3910(4) 0.1143(5) -0.0421(2)
O4 O 0.3648(4) 0.3563(5) 0.0222(2)
loop_
_geom_bond_atom_site_label_1
_geom_bond_atom_site_label_2
_geom_bond_site_symmetry_1
_geom_bond_site_symmetry_2
Br1 C1 1_555 1_555
N1 C4 1_555 1_555
C1 C2 1_555 1_555
C2 C3 1_555 1_555
C3 C4 1_555 1_555
C4 C5 1_555 1_555
C5 C6 1_555 1_555
C6 C1 1_555 1_555
P1 O1 1_555 1_555
O2 P1 1_555 1_555
O3 P1 1_555 1_555
O4 P1 1_555 1_555

#END
