
#######################################################################
#
#                 Cambridge Crystallographic Data Centre
#                                CCDC 
#
#######################################################################
#
# If this CIF has been generated from an entry in the Cambridge 
# Structural Database, then it will include bibliographic, chemical, 
# crystal, experimental, refinement or atomic coordinate data resulting 
# from the CCDC's data processing and validation procedures.
#
#######################################################################

data_UGITEJ
_chemical_formula_moiety         '2(C10 H8 S8 1+),C6 H4 O6 S2 2-'
_chemical_name_systematic        
"bis(\a'-4,5:4',5'-bis(Ethylenedithio)-1,1',3,3'-tetrathiafulvalene radical) benzene-1,4-disulfonate"
_symmetry_cell_setting           monoclinic
_symmetry_space_group_name_H-M   'P 2/n'
_symmetry_Int_Tables_number      13
_space_group_name_Hall           '-P 2yac'
loop_
_symmetry_equiv_pos_site_id
_symmetry_equiv_pos_as_xyz
1 x,y,z
2 1/2-x,y,1/2-z
3 -x,-y,-z
4 1/2+x,-y,1/2+z
_cell_length_a                   7.7937(17)
_cell_length_b                   6.6989(11)
_cell_length_c                   34.422(7)
_cell_angle_alpha                90
_cell_angle_beta                 91.135(12)
_cell_angle_gamma                90
_cell_volume                     1796.79
_cell_formula_units_Z            2
loop_
_atom_site_label
_atom_site_type_symbol
_atom_site_fract_x
_atom_site_fract_y
_atom_site_fract_z
S1 S 0.3481(9) 0.0558(7) 0.8710(2)
S2 S 0.3015(6) 0.5577(7) 0.8971(1)
S3 S 0.4195(7) 0.2149(6) 0.7939(1)
S4 S 0.3814(6) 0.6334(6) 0.8156(1)
S5 S 0.5481(6) 0.3507(6) 0.7091(1)
S6 S 0.5217(6) 0.7696(6) 0.7317(1)
S7 S 0.6977(6) 0.4297(6) 0.6326(1)
S8 S 0.6832(7) 0.9253(7) 0.6606(2)
C1 C 0.2440(40) 0.1590(30) 0.9096(7)
C2 C 0.2730(40) 0.3450(30) 0.9268(6)
C3 C 0.3630(20) 0.2630(30) 0.8405(5)
C4 C 0.3470(19) 0.4580(20) 0.8521(5)
C5 C 0.4420(20) 0.4680(20) 0.7799(5)
C6 C 0.5010(20) 0.5200(20) 0.7455(4)
C7 C 0.6190(20) 0.5250(20) 0.6758(5)
C8 C 0.6159(19) 0.7190(20) 0.6874(4)
C9 C 0.6870(40) 0.6440(30) 0.6003(7)
C10 C 0.6740(50) 0.8310(30) 0.6127(7)
S9 S 0.6787(10) 0.2442(10) 0.5061(2)
O1 O 0.7390(30) 0.4400(30) 0.5150(9)
O2 O 0.5930(30) 0.2180(40) 0.4681(7)
O3 O 0.5890(30) 0.1570(50) 0.5355(8)
C11 C 0.8570(30) 0.1140(30) 0.5037(5)
C12 C 1.0020(40) 0.1950(30) 0.4880(6)
C13 C 0.8510(30) -0.0880(30) 0.5145(6)
C13B C 1.1490(30) 0.0880(30) 0.4855(6)
C11B C 1.1430(30) -0.1140(30) 0.4963(5)
S9B S 1.3213(10) -0.2442(10) 0.4939(2)
O1B O 1.2610(30) -0.4400(30) 0.4850(9)
O2B O 1.4070(30) -0.2180(40) 0.5319(7)
O3B O 1.4110(30) -0.1570(50) 0.4645(8)
C12B C 0.9980(40) -0.1950(30) 0.5120(6)
loop_
_geom_bond_atom_site_label_1
_geom_bond_atom_site_label_2
_geom_bond_site_symmetry_1
_geom_bond_site_symmetry_2
S1 C1 1_555 1_555
S2 C2 1_555 1_555
S3 C3 1_555 1_555
S4 C4 1_555 1_555
S5 C6 1_555 1_555
S6 C6 1_555 1_555
S7 C7 1_555 1_555
S8 C8 1_555 1_555
C1 C2 1_555 1_555
C3 S1 1_555 1_555
C4 S2 1_555 1_555
C5 S3 1_555 1_555
C6 C5 1_555 1_555
C7 S5 1_555 1_555
C8 S6 1_555 1_555
C9 S7 1_555 1_555
C10 S8 1_555 1_555
S9 O1 1_555 1_555
O2 S9 1_555 1_555
O3 S9 1_555 1_555
C11 S9 1_555 1_555
C12 C11 1_555 1_555
C13 C11 1_555 1_555
C13B C12 1_555 1_555
C11B C13B 1_555 1_555
S9B C11B 1_555 1_555
O1B S9B 1_555 1_555
O2B S9B 1_555 1_555
O3B S9B 1_555 1_555
C12B C13 1_555 1_555
S4 C5 1_555 1_555
C3 C4 1_555 1_555
C7 C8 1_555 1_555
C9 C10 1_555 1_555
C11B C12B 1_555 1_555

#END
