
#######################################################################
#
#                 Cambridge Crystallographic Data Centre
#                                CCDC 
#
#######################################################################
#
# If this CIF has been generated from an entry in the Cambridge 
# Structural Database, then it will include bibliographic, chemical, 
# crystal, experimental, refinement or atomic coordinate data resulting 
# from the CCDC's data processing and validation procedures.
#
#######################################################################

data_UGIXEO
_chemical_formula_moiety         'C20 H14 I1 N1 O2'
_chemical_name_systematic        2,5-Dibenzoyl-4-iodo-aniline
_symmetry_cell_setting           monoclinic
_symmetry_space_group_name_H-M   'P 21/n'
_symmetry_Int_Tables_number      14
_space_group_name_Hall           '-P 2yn'
loop_
_symmetry_equiv_pos_site_id
_symmetry_equiv_pos_as_xyz
1 x,y,z
2 1/2-x,1/2+y,1/2-z
3 -x,-y,-z
4 1/2+x,1/2-y,1/2+z
_cell_length_a                   9.896(2)
_cell_length_b                   8.4430(17)
_cell_length_c                   20.980(4)
_cell_angle_alpha                90
_cell_angle_beta                 98.01(3)
_cell_angle_gamma                90
_cell_volume                     1735.82
_exptl_crystal_colour            colorless
_exptl_crystal_description       block
_cell_formula_units_Z            4
_exptl_crystal_recrystallization_method ethanol
loop_
_atom_site_label
_atom_site_type_symbol
_atom_site_fract_x
_atom_site_fract_y
_atom_site_fract_z
I1 I 0.61953(6) 0.57005(8) 0.08237(3)
N1 N 1.2303(8) 0.7032(11) 0.0582(5)
H1 H 1.2914 0.6304 0.0651
H2 H 1.2516 0.7948 0.0446
O1 O 1.2688(7) 0.3960(9) 0.0886(4)
C1 C 1.1583(13) 0.0112(15) 0.1967(7)
H3 H 1.1873 -0.0921 0.1914
O2 O 0.7544(8) 0.9691(9) -0.0018(3)
C2 C 1.1747(10) 0.1255(12) 0.1505(6)
H4 H 1.2176 0.0989 0.1153
C3 C 1.1279(9) 0.2777(11) 0.1567(4)
C4 C 1.0693(11) 0.3157(13) 0.2111(5)
H5 H 1.0374 0.4179 0.2163
C5 C 1.0579(13) 0.2015(16) 0.2578(6)
H6 H 1.0215 0.2289 0.2949
C6 C 1.0997(12) 0.0506(15) 0.2499(6)
H7 H 1.0884 -0.0260 0.2806
C7 C 1.1568(10) 0.3999(12) 0.1098(5)
C8 C 1.0569(10) 0.5278(10) 0.0908(4)
C9 C 1.1011(8) 0.6739(11) 0.0686(4)
C10 C 1.0020(9) 0.7939(11) 0.0544(4)
H8 H 1.0282 0.8908 0.0390
C11 C 0.8659(9) 0.7711(10) 0.0629(4)
C12 C 0.8257(9) 0.6201(11) 0.0827(4)
C13 C 0.9215(9) 0.5046(12) 0.0952(4)
H9 H 0.8938 0.4051 0.1074
C14 C 0.7730(9) 0.9113(11) 0.0522(4)
C15 C 0.7095(9) 0.9807(11) 0.1044(5)
C16 C 0.5968(11) 1.0794(12) 0.0916(6)
H10 H 0.5581 1.0981 0.0492
C17 C 0.5415(12) 1.1506(13) 0.1419(7)
H11 H 0.4657 1.2162 0.1334
C18 C 0.5984(14) 1.1240(15) 0.2033(7)
H12 H 0.5622 1.1747 0.2364
C19 C 0.7108(13) 1.022(2) 0.2187(6)
H13 H 0.7475 1.0019 0.2612
C20 C 0.7647(11) 0.9514(13) 0.1673(5)
H14 H 0.8391 0.8836 0.1757
loop_
_geom_bond_atom_site_label_1
_geom_bond_atom_site_label_2
_geom_bond_site_symmetry_1
_geom_bond_site_symmetry_2
I1 C12 1_555 1_555
N1 H1 1_555 1_555
H2 N1 1_555 1_555
O1 C7 1_555 1_555
C1 H3 1_555 1_555
O2 C14 1_555 1_555
C2 C1 1_555 1_555
H4 C2 1_555 1_555
C3 C2 1_555 1_555
C4 C3 1_555 1_555
H5 C4 1_555 1_555
C5 C4 1_555 1_555
H6 C5 1_555 1_555
C6 C1 1_555 1_555
H7 C6 1_555 1_555
C7 C3 1_555 1_555
C8 C7 1_555 1_555
C9 N1 1_555 1_555
C10 C9 1_555 1_555
H8 C10 1_555 1_555
C11 C10 1_555 1_555
C12 C11 1_555 1_555
C13 C8 1_555 1_555
H9 C13 1_555 1_555
C14 C11 1_555 1_555
C15 C14 1_555 1_555
C16 C15 1_555 1_555
H10 C16 1_555 1_555
C17 C16 1_555 1_555
H11 C17 1_555 1_555
C18 C17 1_555 1_555
H12 C18 1_555 1_555
C19 C18 1_555 1_555
H13 C19 1_555 1_555
C20 C15 1_555 1_555
H14 C20 1_555 1_555
C5 C6 1_555 1_555
C8 C9 1_555 1_555
C12 C13 1_555 1_555
C19 C20 1_555 1_555

#END
