
#######################################################################
#
#                 Cambridge Crystallographic Data Centre
#                                CCDC 
#
#######################################################################
#
# If this CIF has been generated from an entry in the Cambridge 
# Structural Database, then it will include bibliographic, chemical, 
# crystal, experimental, refinement or atomic coordinate data resulting 
# from the CCDC's data processing and validation procedures.
#
#######################################################################

data_UGOCIE
_chemical_formula_moiety         'C13 H14 F1 N1 O6'
_chemical_name_systematic        'diethyl fluoro(2-nitrophenyl)malonate'
_symmetry_cell_setting           triclinic
_symmetry_space_group_name_H-M   'P -1'
_symmetry_Int_Tables_number      2
_space_group_name_Hall           '-P 1'
loop_
_symmetry_equiv_pos_site_id
_symmetry_equiv_pos_as_xyz
1 x,y,z
2 -x,-y,-z
_cell_length_a                   7.6353(11)
_cell_length_b                   8.0212(17)
_cell_length_c                   12.559(3)
_cell_angle_alpha                88.846(19)
_cell_angle_beta                 76.201(17)
_cell_angle_gamma                66.218(17)
_cell_volume                     681.033
_exptl_crystal_colour            colorless
_exptl_crystal_description       plate
_cell_formula_units_Z            2
loop_
_atom_site_label
_atom_site_type_symbol
_atom_site_fract_x
_atom_site_fract_y
_atom_site_fract_z
F1 F 0.3019(2) 0.2055(2) 0.25418(16)
O1 O 0.0971(3) 0.4935(3) 0.1558(2)
O2 O 0.3075(5) 0.4789(4) 0.0043(3)
O3 O 0.3403(3) -0.1246(3) 0.3130(2)
O4 O 0.0143(3) -0.0382(3) 0.32825(18)
O5 O -0.0689(3) 0.3865(3) 0.37737(19)
O6 O -0.1800(3) 0.3146(3) 0.24137(17)
N1 N 0.2077(4) 0.4148(4) 0.0685(3)
C1 C 0.1949(4) 0.1126(4) 0.1130(2)
C2 C 0.2228(4) 0.2327(4) 0.0351(3)
C3 C 0.2625(4) 0.1921(5) -0.0766(3)
C4 C 0.2742(4) 0.0255(5) -0.1150(3)
C5 C 0.2513(4) -0.0972(5) -0.0407(3)
C6 C 0.2145(4) -0.0564(4) 0.0711(3)
C7 C 0.1583(4) 0.1516(4) 0.2347(3)
C8 C 0.1860(5) -0.0221(4) 0.2970(3)
C9 C 0.0160(6) -0.1981(5) 0.3873(3)
C10 C -0.1941(6) -0.1731(6) 0.4309(4)
C11 C -0.0429(4) 0.3024(4) 0.2936(3)
C12 C -0.3832(5) 0.4406(5) 0.2971(3)
C13 C -0.4752(5) 0.3526(5) 0.3870(3)
H1 H 0.282(5) 0.283(6) -0.131(3)
H2 H 0.297(4) 0.006(4) -0.194(3)
H3 H 0.273(5) -0.220(5) -0.064(3)
H4 H 0.201(5) -0.148(5) 0.122(3)
H5 H 0.094(5) -0.221(5) 0.445(3)
H6 H 0.103(5) -0.310(5) 0.327(3)
H7 H -0.266(5) -0.162(5) 0.371(3)
H8 H -0.287(6) -0.062(6) 0.483(3)
H9 H -0.183(6) -0.289(7) 0.472(4)
H10 H -0.440(4) 0.463(4) 0.240(3)
H11 H -0.378(4) 0.553(5) 0.322(3)
H12 H -0.624(6) 0.432(5) 0.420(3)
H13 H -0.404(6) 0.308(6) 0.443(3)
H14 H -0.469(6) 0.232(6) 0.361(3)
loop_
_geom_bond_atom_site_label_1
_geom_bond_atom_site_label_2
_geom_bond_site_symmetry_1
_geom_bond_site_symmetry_2
F1 C7 1_555 1_555
O1 N1 1_555 1_555
O2 N1 1_555 1_555
O3 C8 1_555 1_555
O4 C8 1_555 1_555
O5 C11 1_555 1_555
O6 C11 1_555 1_555
N1 C2 1_555 1_555
C1 C2 1_555 1_555
C2 C3 1_555 1_555
C3 C4 1_555 1_555
C4 C5 1_555 1_555
C5 C6 1_555 1_555
C6 C1 1_555 1_555
C7 C1 1_555 1_555
C8 C7 1_555 1_555
C9 O4 1_555 1_555
C10 C9 1_555 1_555
C11 C7 1_555 1_555
C12 O6 1_555 1_555
C13 C12 1_555 1_555
H1 C3 1_555 1_555
H2 C4 1_555 1_555
H3 C5 1_555 1_555
H4 C6 1_555 1_555
H5 C9 1_555 1_555
H6 C9 1_555 1_555
H7 C10 1_555 1_555
H8 C10 1_555 1_555
H9 C10 1_555 1_555
H10 C12 1_555 1_555
H11 C12 1_555 1_555
H12 C13 1_555 1_555
H13 C13 1_555 1_555
H14 C13 1_555 1_555

#END
