
#######################################################################
#
#                 Cambridge Crystallographic Data Centre
#                                CCDC 
#
#######################################################################
#
# If this CIF has been generated from an entry in the Cambridge 
# Structural Database, then it will include bibliographic, chemical, 
# crystal, experimental, refinement or atomic coordinate data resulting 
# from the CCDC's data processing and validation procedures.
#
#######################################################################

data_UGONIP
_chemical_formula_moiety         'C17 H10 O9,C12 H8 N2'
_chemical_name_systematic        
"4,4'-carbonyldiphthalic acid 1,10-phenanthroline"
_symmetry_cell_setting           triclinic
_symmetry_space_group_name_H-M   'P -1'
_symmetry_Int_Tables_number      2
_space_group_name_Hall           '-P 1'
loop_
_symmetry_equiv_pos_site_id
_symmetry_equiv_pos_as_xyz
1 x,y,z
2 -x,-y,-z
_cell_length_a                   7.6085(15)
_cell_length_b                   12.473(3)
_cell_length_c                   12.878(3)
_cell_angle_alpha                74.67(3)
_cell_angle_beta                 84.29(3)
_cell_angle_gamma                82.19(3)
_cell_volume                     1165.13
_exptl_crystal_colour            yellow
_exptl_crystal_description       block
_cell_formula_units_Z            2
loop_
_atom_site_label
_atom_site_type_symbol
_atom_site_fract_x
_atom_site_fract_y
_atom_site_fract_z
O1 O 0.3176(4) 0.49092(16) 0.36982(17)
H1 H 0.3565 0.4548 0.4275
O2 O 0.2989(3) 0.47043(15) 0.20950(16)
O3 O 0.3922(3) 0.37972(17) 0.54655(17)
H2 H 0.3919 0.4189 0.4844
O4 O 0.4439(3) 0.20195(17) 0.62904(15)
O5 O 1.1943(3) -0.01698(18) 0.3053(2)
O6 O 1.3069(3) -0.15786(18) 0.23703(19)
H3 H 1.3915 -0.1563 0.2712
O7 O 1.0976(3) -0.33578(16) 0.20112(19)
H4 H 1.1695 -0.3896 0.1956
O8 O 1.2357(3) -0.25167(18) 0.04806(18)
O9 O 0.4592(3) 0.13344(16) 0.09911(17)
C1 C 0.5556(3) 0.15424(19) 0.2595(2)
C2 C 0.4742(3) 0.2627(2) 0.2477(2)
H5 H 0.4437 0.3045 0.1794
C3 C 0.4364(3) 0.31172(18) 0.3336(2)
C4 C 0.4802(3) 0.2475(2) 0.4381(2)
C5 C 0.5657(4) 0.1397(2) 0.4484(2)
H6 H 0.5987 0.0976 0.5161
C6 C 0.6035(4) 0.0927(2) 0.3612(2)
H7 H 0.6608 0.0203 0.3709
C7 C 0.5724(4) 0.10481(19) 0.1642(2)
C8 C 0.7248(3) 0.01911(19) 0.1516(2)
C9 C 0.8815(3) 0.00832(19) 0.2008(2)
H8 H 0.8946 0.0574 0.2420
C10 C 1.0208(3) -0.07402(19) 0.1906(2)
C11 C 0.9991(4) -0.14849(19) 0.1301(2)
C12 C 0.8451(4) -0.1344(2) 0.0758(2)
H9 H 0.8338 -0.1807 0.0314
C13 C 0.7095(4) -0.0526(2) 0.0873(2)
H10 H 0.6063 -0.0451 0.0516
C14 C 0.3443(4) 0.43129(19) 0.3021(2)
C15 C 0.4361(4) 0.2781(2) 0.5456(2)
C16 C 1.1813(4) -0.0788(2) 0.2495(2)
C17 C 1.1295(4) -0.2490(2) 0.1214(2)
N1 N 0.1484(3) 0.5973(2) 0.5628(2)
N2 N 0.2958(3) 0.44583(18) 0.73434(18)
C18 C 0.0781(5) 0.6720(3) 0.4814(3)
H11 H 0.0972 0.6581 0.4135
C19 C -0.0239(5) 0.7712(3) 0.4906(3)
H12 H -0.0693 0.8219 0.4297
C20 C -0.0567(4) 0.7933(2) 0.5890(3)
H13 H -0.1253 0.8589 0.5962
C21 C 0.0143(4) 0.7160(2) 0.6796(2)
C22 C 0.1161(4) 0.6195(2) 0.6608(2)
C23 C -0.0157(4) 0.7297(2) 0.7862(3)
H14 H -0.0901 0.7912 0.7987
C24 C 0.0621(4) 0.6548(3) 0.8696(3)
H15 H 0.0443 0.6674 0.9381
C25 C 0.1715(4) 0.5565(2) 0.8547(2)
C26 C 0.2594(4) 0.4777(3) 0.9379(2)
H16 H 0.2482 0.4880 1.0073
C27 C 0.3613(5) 0.3860(3) 0.9170(2)
H17 H 0.4190 0.3335 0.9722
C28 C 0.3785(4) 0.3713(2) 0.8137(3)
H18 H 0.4484 0.3090 0.7996
C29 C 0.1936(4) 0.5395(2) 0.7507(2)
loop_
_geom_bond_atom_site_label_1
_geom_bond_atom_site_label_2
_geom_bond_site_symmetry_1
_geom_bond_site_symmetry_2
O1 H1 1_555 1_555
O2 C14 1_555 1_555
O3 H2 1_555 1_555
O4 C15 1_555 1_555
O5 C16 1_555 1_555
O6 H3 1_555 1_555
O7 H4 1_555 1_555
O8 C17 1_555 1_555
O9 C7 1_555 1_555
C1 C2 1_555 1_555
C2 H5 1_555 1_555
C3 C2 1_555 1_555
C4 C3 1_555 1_555
C5 C4 1_555 1_555
H6 C5 1_555 1_555
C6 C1 1_555 1_555
H7 C6 1_555 1_555
C7 C1 1_555 1_555
C8 C7 1_555 1_555
C9 C8 1_555 1_555
H8 C9 1_555 1_555
C10 C9 1_555 1_555
C11 C10 1_555 1_555
C12 C11 1_555 1_555
H9 C12 1_555 1_555
C13 C8 1_555 1_555
H10 C13 1_555 1_555
C14 O1 1_555 1_555
C15 O3 1_555 1_555
C16 O6 1_555 1_555
C17 O7 1_555 1_555
N1 C18 1_555 1_555
N2 C28 1_555 1_555
C18 H11 1_555 1_555
C19 C18 1_555 1_555
H12 C19 1_555 1_555
C20 C19 1_555 1_555
H13 C20 1_555 1_555
C21 C20 1_555 1_555
C22 N1 1_555 1_555
C23 C21 1_555 1_555
H14 C23 1_555 1_555
C24 C23 1_555 1_555
H15 C24 1_555 1_555
C25 C24 1_555 1_555
C26 C25 1_555 1_555
H16 C26 1_555 1_555
C27 C26 1_555 1_555
H17 C27 1_555 1_555
C28 C27 1_555 1_555
H18 C28 1_555 1_555
C29 N2 1_555 1_555
C3 C14 1_555 1_555
C4 C15 1_555 1_555
C5 C6 1_555 1_555
C10 C16 1_555 1_555
C11 C17 1_555 1_555
C12 C13 1_555 1_555
C21 C22 1_555 1_555
C22 C29 1_555 1_555
C25 C29 1_555 1_555

#END
