
#######################################################################
#
#                 Cambridge Crystallographic Data Centre
#                                CCDC 
#
#######################################################################
#
# If this CIF has been generated from an entry in the Cambridge 
# Structural Database, then it will include bibliographic, chemical, 
# crystal, experimental, refinement or atomic coordinate data resulting 
# from the CCDC's data processing and validation procedures.
#
#######################################################################

data_UGOWUJ
_chemical_formula_moiety         'C20 H31 N1 O4,0.5(H2 O1)'
_chemical_name_systematic        
'ent-1\b-hydroxy-16-E-hydroxyiminobeyeran-19-oic acid hemihydrate'
_chemical_properties_biological  'biological activity'
_symmetry_cell_setting           orthorhombic
_symmetry_space_group_name_H-M   'P 21 21 21'
_symmetry_Int_Tables_number      19
_space_group_name_Hall           'P 2ac 2ab'
loop_
_symmetry_equiv_pos_site_id
_symmetry_equiv_pos_as_xyz
1 x,y,z
2 1/2-x,-y,1/2+z
3 -x,1/2+y,1/2-z
4 1/2+x,1/2-y,-z
_cell_length_a                   11.86090(10)
_cell_length_b                   14.08840(10)
_cell_length_c                   23.35940(10)
_cell_angle_alpha                90
_cell_angle_beta                 90
_cell_angle_gamma                90
_cell_volume                     3903.38
_chemical_melting_point          '161-163 deg.C'
_cell_formula_units_Z            8
loop_
_atom_site_label
_atom_site_type_symbol
_atom_site_fract_x
_atom_site_fract_y
_atom_site_fract_z
O1 O 0.24017(12) 0.51534(10) 0.75512(6)
H1 H 0.250(2) 0.4725(19) 0.7306(12)
O2 O 0.57103(11) 0.68312(9) 0.87595(7)
O3 O 0.64717(13) 0.57382(11) 0.82011(7)
H2 H 0.680(2) 0.6187(18) 0.8081(11)
O4 O 0.02964(14) 0.90021(10) 0.89326(8)
H3 H -0.016(2) 0.9504(19) 0.8859(11)
N1 N -0.04357(13) 0.82091(11) 0.89898(7)
C1 C 0.30243(14) 0.49261(12) 0.80613(8)
H4 H 0.2669 0.4367 0.8234
C2 C 0.42159(16) 0.46432(13) 0.78863(9)
H5 H 0.4179 0.4102 0.7630
H6 H 0.4564 0.5164 0.7680
C3 C 0.49366(16) 0.43911(12) 0.83989(9)
H7 H 0.5686 0.4220 0.8269
H8 H 0.4615 0.3843 0.8589
C4 C 0.50276(14) 0.52110(12) 0.88278(8)
C5 C 0.38049(14) 0.55008(11) 0.90045(7)
H9 H 0.3493 0.4920 0.9172
C6 C 0.37206(15) 0.62257(13) 0.94886(7)
H10 H 0.4299 0.6101 0.9773
H11 H 0.3837 0.6860 0.9339
C7 C 0.25600(15) 0.61573(13) 0.97637(7)
H12 H 0.2471 0.5530 0.9929
H13 H 0.2513 0.6616 1.0073
C8 C 0.16000(14) 0.63362(12) 0.93460(7)
C9 C 0.17507(13) 0.57325(11) 0.87878(7)
H14 H 0.1631 0.5073 0.8907
C10 C 0.29630(13) 0.57449(11) 0.85072(7)
C11 C 0.07793(14) 0.59511(12) 0.83731(7)
H15 H 0.0906 0.6570 0.8203
H16 H 0.0787 0.5486 0.8067
C12 C -0.03858(14) 0.59448(12) 0.86567(8)
H17 H -0.0606 0.5293 0.8731
H18 H -0.0932 0.6216 0.8394
C13 C -0.04131(14) 0.65059(12) 0.92214(7)
C14 C 0.04638(15) 0.60612(13) 0.96167(7)
H19 H 0.0377 0.5377 0.9631
H20 H 0.0400 0.6314 1.0002
C15 C 0.13850(15) 0.74024(12) 0.92207(8)
H21 H 0.1614 0.7792 0.9543
H22 H 0.1797 0.7605 0.8883
C16 C 0.01276(14) 0.74731(12) 0.91235(7)
C17 C -0.15978(16) 0.65400(16) 0.94688(9)
H23 H -0.1591 0.6895 0.9820
H24 H -0.1855 0.5906 0.9543
H25 H -0.2095 0.6841 0.9200
C18 C 0.56870(18) 0.48528(16) 0.93535(10)
H26 H 0.6435 0.4675 0.9239
H27 H 0.5309 0.4312 0.9514
H28 H 0.5728 0.5348 0.9635
C19 C 0.57428(14) 0.60224(12) 0.85885(8)
C20 C 0.32532(13) 0.66857(11) 0.82072(7)
H29 H 0.3996 0.6645 0.8045
H30 H 0.3229 0.7194 0.8480
H31 H 0.2716 0.6805 0.7908
O5 O 0.74641(11) 0.72036(9) 0.77220(5)
H32 H 0.741(2) 0.769(2) 0.7907(13)
O6 O 1.07367(12) 0.57123(10) 0.63994(7)
O7 O 1.14663(14) 0.66691(13) 0.70477(7)
H33 H 1.175(2) 0.6192(18) 0.7126(11)
O8 O 0.53625(13) 0.35720(10) 0.61715(8)
H34 H 0.487(2) 0.3092(19) 0.6185(11)
N2 N 0.46324(13) 0.43611(11) 0.61501(7)
C21 C 0.80825(14) 0.75133(11) 0.72255(7)
H35 H 0.7723 0.8095 0.7085
C22 C 0.92718(15) 0.77660(13) 0.74060(7)
H36 H 0.9620 0.7215 0.7582
H37 H 0.9241 0.8266 0.7691
C23 C 0.99954(15) 0.80931(12) 0.69093(8)
H38 H 1.0748 0.8237 0.7047
H39 H 0.9679 0.8670 0.6749
C24 C 1.00679(14) 0.73308(12) 0.64398(7)
C25 C 0.88474(14) 0.70840(12) 0.62533(7)
H40 H 0.8538 0.7692 0.6123
C26 C 0.87421(15) 0.64369(14) 0.57294(7)
H41 H 0.9309 0.6608 0.5448
H42 H 0.8870 0.5783 0.5842
C27 C 0.75801(15) 0.65324(14) 0.54681(7)
H43 H 0.7529 0.6118 0.5137
H44 H 0.7479 0.7180 0.5336
C28 C 0.66328(14) 0.62870(12) 0.58829(7)
C29 C 0.67884(13) 0.68099(11) 0.64666(7)
H45 H 0.6669 0.7483 0.6380
C30 C 0.80085(13) 0.67610(11) 0.67392(7)
C31 C 0.58213(14) 0.65411(13) 0.68708(7)
H46 H 0.5958 0.5907 0.7018
H47 H 0.5825 0.6974 0.7194
C32 C 0.46545(14) 0.65642(13) 0.65936(8)
H48 H 0.4418 0.7220 0.6552
H49 H 0.4120 0.6251 0.6845
C33 C 0.46224(14) 0.60790(12) 0.60033(8)
C34 C 0.54929(15) 0.65883(13) 0.56306(7)
H50 H 0.5398 0.7271 0.5652
H51 H 0.5429 0.6392 0.5234
C35 C 0.64384(15) 0.52096(12) 0.59558(8)
H52 H 0.6669 0.4867 0.5615
H53 H 0.6856 0.4967 0.6281
C36 C 0.51839(14) 0.51179(12) 0.60516(7)
C37 C 0.34381(16) 0.60691(15) 0.57563(10)
H54 H 0.3447 0.5764 0.5389
H55 H 0.3173 0.6709 0.5714
H56 H 0.2946 0.5728 0.6009
C38 C 1.07385(17) 0.77659(15) 0.59345(9)
H57 H 1.1491 0.7912 0.6058
H58 H 1.0372 0.8336 0.5808
H59 H 1.0768 0.7319 0.5625
C39 C 1.07670(14) 0.64743(13) 0.66268(7)
C40 C 0.83060(14) 0.57792(12) 0.69884(7)
H60 H 0.9053 0.5797 0.7146
H61 H 0.8274 0.5311 0.6690
H62 H 0.7777 0.5618 0.7284
O9 O 0.74735(13) 0.88097(10) 0.83826(6)
H63 H 0.798(2) 0.866(2) 0.8605(13)
H64 H 0.695(3) 0.898(2) 0.8589(14)
loop_
_geom_bond_atom_site_label_1
_geom_bond_atom_site_label_2
_geom_bond_site_symmetry_1
_geom_bond_site_symmetry_2
O1 H1 1_555 1_555
O2 C19 1_555 1_555
O3 H2 1_555 1_555
O4 H3 1_555 1_555
N1 O4 1_555 1_555
C1 O1 1_555 1_555
H4 C1 1_555 1_555
C2 C1 1_555 1_555
H5 C2 1_555 1_555
H6 C2 1_555 1_555
C3 C2 1_555 1_555
H7 C3 1_555 1_555
H8 C3 1_555 1_555
C4 C3 1_555 1_555
C5 C4 1_555 1_555
H9 C5 1_555 1_555
C6 C5 1_555 1_555
H10 C6 1_555 1_555
H11 C6 1_555 1_555
C7 C6 1_555 1_555
H12 C7 1_555 1_555
H13 C7 1_555 1_555
C8 C7 1_555 1_555
C9 C8 1_555 1_555
H14 C9 1_555 1_555
C10 C1 1_555 1_555
C11 C9 1_555 1_555
H15 C11 1_555 1_555
H16 C11 1_555 1_555
C12 C11 1_555 1_555
H17 C12 1_555 1_555
H18 C12 1_555 1_555
C13 C12 1_555 1_555
C14 C8 1_555 1_555
H19 C14 1_555 1_555
H20 C14 1_555 1_555
C15 C8 1_555 1_555
H21 C15 1_555 1_555
H22 C15 1_555 1_555
C16 N1 1_555 1_555
C17 C13 1_555 1_555
H23 C17 1_555 1_555
H24 C17 1_555 1_555
H25 C17 1_555 1_555
C18 C4 1_555 1_555
H26 C18 1_555 1_555
H27 C18 1_555 1_555
H28 C18 1_555 1_555
C19 O3 1_555 1_555
C20 C10 1_555 1_555
H29 C20 1_555 1_555
H30 C20 1_555 1_555
H31 C20 1_555 1_555
O5 H32 1_555 1_555
O6 C39 1_555 1_555
O7 H33 1_555 1_555
O8 H34 1_555 1_555
N2 O8 1_555 1_555
C21 O5 1_555 1_555
H35 C21 1_555 1_555
C22 C21 1_555 1_555
H36 C22 1_555 1_555
H37 C22 1_555 1_555
C23 C22 1_555 1_555
H38 C23 1_555 1_555
H39 C23 1_555 1_555
C24 C23 1_555 1_555
C25 C24 1_555 1_555
H40 C25 1_555 1_555
C26 C25 1_555 1_555
H41 C26 1_555 1_555
H42 C26 1_555 1_555
C27 C26 1_555 1_555
H43 C27 1_555 1_555
H44 C27 1_555 1_555
C28 C27 1_555 1_555
C29 C28 1_555 1_555
H45 C29 1_555 1_555
C30 C21 1_555 1_555
C31 C29 1_555 1_555
H46 C31 1_555 1_555
H47 C31 1_555 1_555
C32 C31 1_555 1_555
H48 C32 1_555 1_555
H49 C32 1_555 1_555
C33 C32 1_555 1_555
C34 C28 1_555 1_555
H50 C34 1_555 1_555
H51 C34 1_555 1_555
C35 C28 1_555 1_555
H52 C35 1_555 1_555
H53 C35 1_555 1_555
C36 N2 1_555 1_555
C37 C33 1_555 1_555
H54 C37 1_555 1_555
H55 C37 1_555 1_555
H56 C37 1_555 1_555
C38 C24 1_555 1_555
H57 C38 1_555 1_555
H58 C38 1_555 1_555
H59 C38 1_555 1_555
C39 O7 1_555 1_555
C40 C30 1_555 1_555
H60 C40 1_555 1_555
H61 C40 1_555 1_555
H62 C40 1_555 1_555
O9 H63 1_555 1_555
H64 O9 1_555 1_555
C4 C19 1_555 1_555
C5 C10 1_555 1_555
C9 C10 1_555 1_555
C13 C14 1_555 1_555
C13 C16 1_555 1_555
C15 C16 1_555 1_555
C24 C39 1_555 1_555
C25 C30 1_555 1_555
C29 C30 1_555 1_555
C33 C34 1_555 1_555
C33 C36 1_555 1_555
C35 C36 1_555 1_555

#END
