
#######################################################################
#
#                 Cambridge Crystallographic Data Centre
#                                CCDC 
#
#######################################################################
#
# If this CIF has been generated from an entry in the Cambridge 
# Structural Database, then it will include bibliographic, chemical, 
# crystal, experimental, refinement or atomic coordinate data resulting 
# from the CCDC's data processing and validation procedures.
#
#######################################################################

data_UGUKAK
_chemical_name_common            
'N-(2-Hydroxyethyl)tetrahydropalmatine bromide dihydrate'
_chemical_formula_moiety         'C23 H30 N1 O5 1+,2(H2 O1),Br1 1-'
_chemical_name_systematic        
'7-(2-hydroxyethyl)-2,3,9,10-tetramethoxy-5,8,13,13a-tetrahydro-6H-isoquinolino[3,2-a]isoquinolinium bromide dihydrate'
_symmetry_cell_setting           triclinic
_symmetry_space_group_name_H-M   'P -1'
_symmetry_Int_Tables_number      2
_space_group_name_Hall           '-P 1'
loop_
_symmetry_equiv_pos_site_id
_symmetry_equiv_pos_as_xyz
1 x,y,z
2 -x,-y,-z
_cell_length_a                   10.5887(11)
_cell_length_b                   10.8652(9)
_cell_length_c                   12.0914(12)
_cell_angle_alpha                65.831(9)
_cell_angle_beta                 84.808(9)
_cell_angle_gamma                81.097(8)
_cell_volume                     1253.3
_exptl_crystal_colour            'light yellow'
_exptl_crystal_description       bulk
_cell_formula_units_Z            2
_exptl_crystal_recrystallization_method ethanol
loop_
_atom_site_label
_atom_site_type_symbol
_atom_site_fract_x
_atom_site_fract_y
_atom_site_fract_z
Br1 Br 0.24943(7) 0.46334(8) 1.37445(8)
O1 O -0.3011(6) 1.0367(4) 1.0223(5)
O2 O -0.3976(5) 0.8279(5) 1.2111(6)
O3 O 0.2295(3) -0.0046(4) 1.4026(4)
O4 O 0.0821(4) -0.1346(4) 1.3440(4)
O5 O -0.4798(4) 0.2685(5) 1.4371(5)
H1 H -0.4562 0.2823 1.3670
N1 N -0.2393(4) 0.4241(4) 1.3128(4)
C1 C -0.2628(11) 1.1412(8) 0.9146(9)
H2 H -0.2651 1.1155 0.8477
H3 H -0.1774 1.1556 0.9221
H4 H -0.3199 1.2236 0.9006
C2 C -0.2346(6) 0.9095(6) 1.0536(5)
C3 C -0.1251(7) 0.8792(6) 0.9948(6)
H5 H -0.0915 0.9474 0.9283
C4 C -0.0655(6) 0.7480(6) 1.0345(6)
H6 H 0.0092 0.7289 0.9945
C5 C -0.1126(5) 0.6433(5) 1.1320(5)
C6 C -0.0494(5) 0.5004(5) 1.1697(5)
H7 H 0.0422 0.5000 1.1706
H8 H -0.0649 0.4675 1.1093
C7 C -0.0938(4) 0.4019(5) 1.2935(5)
H9 H -0.0534 0.4168 1.3560
C8 C -0.0514(5) 0.2566(5) 1.3078(5)
C9 C 0.0690(5) 0.1941(5) 1.3526(5)
H10 H 0.1205 0.2403 1.3765
C10 C 0.1121(5) 0.0645(5) 1.3617(5)
C11 C 0.3106(6) 0.0595(6) 1.4431(7)
H11 H 0.3358 0.1378 1.3759
H12 H 0.3851 -0.0032 1.4776
H13 H 0.2657 0.0872 1.5035
C12 C 0.0335(5) -0.0060(5) 1.3291(4)
C13 C -0.0008(6) -0.2161(6) 1.3265(6)
H14 H -0.0308 -0.1732 1.2451
H15 H -0.0724 -0.2258 1.3828
H16 H 0.0450 -0.3042 1.3398
C14 C -0.0854(5) 0.0568(5) 1.2853(5)
H17 H -0.1374 0.0100 1.2627
C15 C -0.1297(5) 0.1890(5) 1.2739(4)
C16 C -0.2636(6) 0.2492(6) 1.2334(6)
H18 H -0.3227 0.1934 1.2913
H19 H -0.2737 0.2456 1.1558
C17 C -0.3002(5) 0.3958(6) 1.2203(5)
H20 H -0.2744 0.4569 1.1399
H21 H -0.3924 0.4138 1.2286
C18 C -0.2718(5) 0.3299(5) 1.4431(5)
H22 H -0.2417 0.2369 1.4536
H23 H -0.2247 0.3500 1.4975
C19 C -0.4109(5) 0.3383(6) 1.4810(5)
H24 H -0.4184 0.3004 1.5689
H25 H -0.4479 0.4331 1.4514
C20 C -0.2798(5) 0.5681(5) 1.2999(5)
H26 H -0.2557 0.5763 1.3719
H27 H -0.3722 0.5867 1.2963
C21 C -0.2232(5) 0.6747(5) 1.1900(4)
C22 C -0.2849(5) 0.8065(6) 1.1522(5)
C23 C -0.4295(15) 0.9125(12) 1.2517(16)
H28 H -0.3742 0.9742 1.2449
H29 H -0.5093 0.9163 1.2900
O6 O 0.2996(10) 0.4845(13) 1.0874(7)
O7 O 0.393(3) 0.3114(16) 1.0855(18)
loop_
_geom_bond_atom_site_label_1
_geom_bond_atom_site_label_2
_geom_bond_site_symmetry_1
_geom_bond_site_symmetry_2
O1 C1 1_555 1_555
O2 C22 1_555 1_555
O3 C10 1_555 1_555
O4 C12 1_555 1_555
O5 H1 1_555 1_555
N1 C7 1_555 1_555
C1 H2 1_555 1_555
H3 C1 1_555 1_555
H4 C1 1_555 1_555
C2 O1 1_555 1_555
C3 C2 1_555 1_555
H5 C3 1_555 1_555
C4 C3 1_555 1_555
H6 C4 1_555 1_555
C5 C4 1_555 1_555
C6 C5 1_555 1_555
H7 C6 1_555 1_555
H8 C6 1_555 1_555
C7 C6 1_555 1_555
H9 C7 1_555 1_555
C8 C7 1_555 1_555
C9 C8 1_555 1_555
H10 C9 1_555 1_555
C10 C9 1_555 1_555
C11 O3 1_555 1_555
H11 C11 1_555 1_555
H12 C11 1_555 1_555
H13 C11 1_555 1_555
C12 C10 1_555 1_555
C13 O4 1_555 1_555
H14 C13 1_555 1_555
H15 C13 1_555 1_555
H16 C13 1_555 1_555
C14 C12 1_555 1_555
H17 C14 1_555 1_555
C15 C8 1_555 1_555
C16 C15 1_555 1_555
H18 C16 1_555 1_555
H19 C16 1_555 1_555
C17 N1 1_555 1_555
H20 C17 1_555 1_555
H21 C17 1_555 1_555
C18 N1 1_555 1_555
H22 C18 1_555 1_555
H23 C18 1_555 1_555
C19 O5 1_555 1_555
H24 C19 1_555 1_555
H25 C19 1_555 1_555
C20 N1 1_555 1_555
H26 C20 1_555 1_555
H27 C20 1_555 1_555
C21 C5 1_555 1_555
C22 C2 1_555 1_555
C23 O2 1_555 1_555
H28 C23 1_555 1_555
H29 C23 1_555 1_555
C14 C15 1_555 1_555
C16 C17 1_555 1_555
C18 C19 1_555 1_555
C20 C21 1_555 1_555
C21 C22 1_555 1_555

#END
