
#######################################################################
#
#                 Cambridge Crystallographic Data Centre
#                                CCDC 
#
#######################################################################
#
# If this CIF has been generated from an entry in the Cambridge 
# Structural Database, then it will include bibliographic, chemical, 
# crystal, experimental, refinement or atomic coordinate data resulting 
# from the CCDC's data processing and validation procedures.
#
#######################################################################

data_UGUKOY
_chemical_formula_moiety         'C8 N6,C20 H12'
_chemical_name_systematic        'Pyrazine-2,3,5,6-tetracarbonitrile perylene'
_symmetry_cell_setting           orthorhombic
_symmetry_space_group_name_H-M   'C m c a'
_symmetry_Int_Tables_number      64
_space_group_name_Hall           '-C 2ac 2'
loop_
_symmetry_equiv_pos_site_id
_symmetry_equiv_pos_as_xyz
1 x,y,z
2 -x,1/2-y,1/2+z
3 -x,1/2+y,1/2-z
4 x,-y,-z
5 1/2+x,1/2+y,z
6 1/2-x,-y,1/2+z
7 1/2-x,y,1/2-z
8 1/2+x,1/2-y,-z
9 -x,-y,-z
10 x,1/2+y,1/2-z
11 x,1/2-y,1/2+z
12 -x,y,z
13 1/2-x,1/2-y,-z
14 1/2+x,y,1/2-z
15 1/2+x,-y,1/2+z
16 1/2-x,1/2+y,z
_cell_length_a                   18.264(4)
_cell_length_b                   7.4049(17)
_cell_length_c                   14.674(3)
_cell_angle_alpha                90
_cell_angle_beta                 90
_cell_angle_gamma                90
_cell_volume                     1984.56
_exptl_crystal_colour            'dark purple'
_exptl_crystal_description       needle
_cell_formula_units_Z            4
loop_
_atom_site_label
_atom_site_type_symbol
_atom_site_fract_x
_atom_site_fract_y
_atom_site_fract_z
N1 N 0.5000 0.10652(16) 0.57961(8)
C1 C 0.43811(5) 0.05352(14) 0.53963(7)
C2 C 0.36976(5) 0.10990(14) 0.58023(7)
N2 N 0.31467(5) 0.15405(12) 0.60980(6)
N1C N 0.5000 -0.10652(16) 0.42039(8)
C1C C 0.43811(5) -0.05352(14) 0.46037(7)
C2C C 0.36976(5) -0.10990(14) 0.41977(7)
N2C N 0.31467(5) -0.15405(12) 0.39020(6)
C1H C 0.56189(5) -0.05352(14) 0.46037(7)
C2H C 0.63024(5) -0.10990(14) 0.41977(7)
N2H N 0.68533(5) -0.15405(12) 0.39020(6)
C1K C 0.56189(5) 0.05352(14) 0.53963(7)
C2K C 0.63024(5) 0.10990(14) 0.58023(7)
N2K N 0.68533(5) 0.15405(12) 0.60980(6)
C3 C 0.5000 0.30167(18) 0.33253(9)
C4 C 0.56734(5) 0.25129(14) 0.29249(7)
H1 H 0.5673(8) 0.178(3) 0.2314(14)
C5 C 0.63232(6) 0.30114(14) 0.33166(7)
H2 H 0.6790(7) 0.272(2) 0.3025(10)
C6 C 0.63266(5) 0.40052(14) 0.41334(7)
H3 H 0.6800(7) 0.435(2) 0.4391(10)
C7 C 0.56818(5) 0.45039(14) 0.45642(7)
C8 C 0.5000 0.40245(18) 0.41548(9)
C3C C 0.5000 0.69833(18) 0.66747(9)
C4C C 0.56734(5) 0.74871(14) 0.70751(7)
H1C H 0.5673(8) 0.822(3) 0.7686(14)
C5C C 0.63232(6) 0.69886(14) 0.66834(7)
H2C H 0.6790(7) 0.728(2) 0.6975(10)
C6C C 0.63266(5) 0.59948(14) 0.58666(7)
H3C H 0.6800(7) 0.565(2) 0.5609(10)
C7C C 0.56818(5) 0.54961(14) 0.54358(7)
C8C C 0.5000 0.59755(18) 0.58452(9)
C4H C 0.43266(5) 0.74871(14) 0.70751(7)
H1H H 0.4327(8) 0.822(3) 0.7686(14)
C5H C 0.36768(6) 0.69886(14) 0.66834(7)
H2H H 0.3210(7) 0.728(2) 0.6975(10)
C6H C 0.36734(5) 0.59948(14) 0.58666(7)
H3H H 0.3200(7) 0.565(2) 0.5609(10)
C7H C 0.43182(5) 0.54961(14) 0.54358(7)
C4K C 0.43266(5) 0.25129(14) 0.29249(7)
H1K H 0.4327(8) 0.178(3) 0.2314(14)
C5K C 0.36768(6) 0.30114(14) 0.33166(7)
H2K H 0.3210(7) 0.272(2) 0.3025(10)
C6K C 0.36734(5) 0.40052(14) 0.41334(7)
H3K H 0.3200(7) 0.435(2) 0.4391(10)
C7K C 0.43182(5) 0.45039(14) 0.45642(7)
loop_
_geom_bond_atom_site_label_1
_geom_bond_atom_site_label_2
_geom_bond_site_symmetry_1
_geom_bond_site_symmetry_2
N1 C1 1_555 1_555
C1 C2 1_555 1_555
C2 N2 1_555 1_555
C3 C4 1_555 1_555
C4 H1 1_555 1_555
C5 C4 1_555 1_555
H2 C5 1_555 1_555
C6 C5 1_555 1_555
H3 C6 1_555 1_555
C7 C6 1_555 1_555
C8 C3 1_555 1_555
N1C C1C 1_555 1_555
C1C C1 1_555 1_555
C2C C1C 1_555 1_555
N2C C2C 1_555 1_555
C1H N1C 1_555 1_555
C2H C1H 1_555 1_555
N2H C2H 1_555 1_555
C1K N1 1_555 1_555
C2K C1K 1_555 1_555
N2K C2K 1_555 1_555
C3C C4C 1_555 1_555
C4C H1C 1_555 1_555
C5C C4C 1_555 1_555
H2C C5C 1_555 1_555
C6C C5C 1_555 1_555
H3C C6C 1_555 1_555
C7C C7 1_555 1_555
C8C C3C 1_555 1_555
C4H C3C 1_555 1_555
H1H C4H 1_555 1_555
C5H C4H 1_555 1_555
H2H C5H 1_555 1_555
C6H C5H 1_555 1_555
H3H C6H 1_555 1_555
C7H C8C 1_555 1_555
C4K C3 1_555 1_555
H1K C4K 1_555 1_555
C5K C4K 1_555 1_555
H2K C5K 1_555 1_555
C6K C5K 1_555 1_555
H3K C6K 1_555 1_555
C7K C8 1_555 1_555
C7 C8 1_555 1_555
C1H C1K 1_555 1_555
C6C C7C 1_555 1_555
C7C C8C 1_555 1_555
C6H C7H 1_555 1_555
C7H C7K 1_555 1_555
C6K C7K 1_555 1_555

#END
