
#######################################################################
#
#                 Cambridge Crystallographic Data Centre
#                                CCDC 
#
#######################################################################
#
# If this CIF has been generated from an entry in the Cambridge 
# Structural Database, then it will include bibliographic, chemical, 
# crystal, experimental, refinement or atomic coordinate data resulting 
# from the CCDC's data processing and validation procedures.
#
#######################################################################

data_UGULAL
_chemical_formula_moiety         'C10 H24 N4 O2 2+,2(Cl1 1-)'
_chemical_name_systematic        
"N,N'-bis(2-Acetamidoethyl)ethane-1,2-diaminium dichloride"
_symmetry_cell_setting           monoclinic
_symmetry_space_group_name_H-M   'P 21/n'
_symmetry_Int_Tables_number      14
_space_group_name_Hall           '-P 2yn'
loop_
_symmetry_equiv_pos_site_id
_symmetry_equiv_pos_as_xyz
1 x,y,z
2 1/2-x,1/2+y,1/2-z
3 -x,-y,-z
4 1/2+x,1/2-y,1/2+z
_cell_length_a                   9.4514(4)
_cell_length_b                   4.7296(2)
_cell_length_c                   16.5451(6)
_cell_angle_alpha                90
_cell_angle_beta                 93.928(3)
_cell_angle_gamma                90
_cell_volume                     737.851
_exptl_crystal_colour            white
_exptl_crystal_description       needle
_cell_formula_units_Z            2
loop_
_atom_site_label
_atom_site_type_symbol
_atom_site_fract_x
_atom_site_fract_y
_atom_site_fract_z
Cl1 Cl 0.29358(3) 0.07899(6) 0.431584(15)
O1 O 0.58864(9) 0.38610(17) 0.19379(5)
N1 N 0.83233(10) 0.5773(2) 0.43532(6)
N2 N 0.49295(10) 0.4024(2) 0.31532(6)
C1 C 0.94517(12) 0.4031(2) 0.47853(7)
C2 C 0.71714(12) 0.4012(2) 0.39453(7)
C3 C 0.60143(12) 0.5869(2) 0.35330(7)
C4 C 0.49806(12) 0.3024(2) 0.24016(6)
C5 C 0.38911(13) 0.0836(3) 0.21397(7)
H1 H 0.9911(14) 0.286(3) 0.4391(8)
H2 H 0.8988(14) 0.287(3) 0.5159(8)
H3 H 0.8673(16) 0.678(3) 0.3986(9)
H4 H 0.7928(16) 0.689(3) 0.4713(9)
H5 H 0.6764(14) 0.285(3) 0.4354(8)
H6 H 0.7629(15) 0.285(3) 0.3557(8)
H7 H 0.5577(15) 0.706(3) 0.3936(8)
H8 H 0.6399(14) 0.703(3) 0.3112(8)
H9 H 0.4344(16) 0.334(3) 0.3451(9)
H10 H 0.3328(16) 0.035(3) 0.2558(9)
H11 H 0.4377(19) -0.087(4) 0.1965(10)
H12 H 0.3316(17) 0.153(3) 0.1673(9)
O1B O 1.41136(9) 0.61390(17) 0.80621(5)
N1B N 1.16767(10) 0.4227(2) 0.56468(6)
N2B N 1.50705(10) 0.5976(2) 0.68468(6)
C1B C 1.05483(12) 0.5969(2) 0.52147(7)
C2B C 1.28286(12) 0.5988(2) 0.60547(7)
C3B C 1.39857(12) 0.4131(2) 0.64670(7)
C4B C 1.50194(12) 0.6976(2) 0.75984(6)
C5B C 1.61089(13) 0.9164(3) 0.78603(7)
H1B H 1.0089(14) 0.714(3) 0.5609(8)
H2B H 1.1012(14) 0.713(3) 0.4841(8)
H3B H 1.1327(16) 0.322(3) 0.6014(9)
H4B H 1.2072(16) 0.311(3) 0.5287(9)
H5B H 1.3236(14) 0.715(3) 0.5646(8)
H6B H 1.2371(15) 0.715(3) 0.6443(8)
H7B H 1.4423(15) 0.294(3) 0.6064(8)
H8B H 1.3601(14) 0.297(3) 0.6888(8)
H9B H 1.5656(16) 0.666(3) 0.6549(9)
H10B H 1.6672(16) 0.965(3) 0.7442(9)
H11B H 1.5623(19) 1.087(4) 0.8035(10)
H12B H 1.6684(17) 0.847(3) 0.8327(9)
loop_
_geom_bond_atom_site_label_1
_geom_bond_atom_site_label_2
_geom_bond_site_symmetry_1
_geom_bond_site_symmetry_2
O1 C4 1_555 1_555
N1 C1 1_555 1_555
N2 C3 1_555 1_555
C1 H1 1_555 1_555
C2 N1 1_555 1_555
C3 C2 1_555 1_555
C4 N2 1_555 1_555
C5 C4 1_555 1_555
H2 C1 1_555 1_555
H3 N1 1_555 1_555
H4 N1 1_555 1_555
H5 C2 1_555 1_555
H6 C2 1_555 1_555
H7 C3 1_555 1_555
H8 C3 1_555 1_555
H9 N2 1_555 1_555
H10 C5 1_555 1_555
H11 C5 1_555 1_555
H12 C5 1_555 1_555
O1B C4B 1_555 1_555
N1B C1B 1_555 1_555
N2B C3B 1_555 1_555
C1B C1 1_555 1_555
C2B N1B 1_555 1_555
C3B C2B 1_555 1_555
C4B N2B 1_555 1_555
C5B C4B 1_555 1_555
H1B C1B 1_555 1_555
H2B C1B 1_555 1_555
H3B N1B 1_555 1_555
H4B N1B 1_555 1_555
H5B C2B 1_555 1_555
H6B C2B 1_555 1_555
H7B C3B 1_555 1_555
H8B C3B 1_555 1_555
H9B N2B 1_555 1_555
H10B C5B 1_555 1_555
H11B C5B 1_555 1_555
H12B C5B 1_555 1_555

#END
