
#######################################################################
#
#                 Cambridge Crystallographic Data Centre
#                                CCDC 
#
#######################################################################
#
# If this CIF has been generated from an entry in the Cambridge 
# Structural Database, then it will include bibliographic, chemical, 
# crystal, experimental, refinement or atomic coordinate data resulting 
# from the CCDC's data processing and validation procedures.
#
#######################################################################

data_UGUMUG
_chemical_compound_source        'isolated from the roots of Stemona tuberosa'
_chemical_name_common            'tuberostemonine D'
_chemical_formula_moiety         'C22 H33 N1 O4'
_chemical_name_systematic        
8-ethyl-11-methyl-2-(4-methyl-5-oxotetrahydrofuran-2-yl)dodecahydroazepino[3,2,1-hi]furo[3,2-e]indol-10(2H)-one
_symmetry_cell_setting           monoclinic
_symmetry_space_group_name_H-M   'P 21'
_symmetry_Int_Tables_number      4
_space_group_name_Hall           'P 2yb'
loop_
_symmetry_equiv_pos_site_id
_symmetry_equiv_pos_as_xyz
1 x,y,z
2 -x,1/2+y,-z
_cell_length_a                   10.5516(4)
_cell_length_b                   9.4061(3)
_cell_length_c                   11.3265(4)
_cell_angle_alpha                90
_cell_angle_beta                 114.205(5)
_cell_angle_gamma                90
_cell_volume                     1025.32
_exptl_crystal_colour            colorless
_exptl_crystal_description       block
_cell_formula_units_Z            2
loop_
_atom_site_label
_atom_site_type_symbol
_atom_site_fract_x
_atom_site_fract_y
_atom_site_fract_z
O1 O 0.3550(3) -0.1027(2) 0.4996(2)
O2 O 0.1801(2) 0.0466(2) 0.39876(18)
O3 O 0.4999(2) 0.5444(2) 0.02816(17)
O4 O 0.7203(2) 0.5202(3) 0.0606(2)
C1 C 0.2973(2) 0.3197(3) 0.2350(2)
H1 H 0.3632 0.3626 0.3157
C2 C 0.3521(3) 0.3401(3) 0.1302(3)
H2 H 0.3146 0.2682 0.0633
H3 H 0.4527 0.3346 0.1670
C3 C 0.3023(3) 0.4888(3) 0.0749(2)
H4 H 0.2443 0.4818 -0.0182
N1 N 0.2168(2) 0.5376(2) 0.14281(18)
C4 C 0.1148(3) 0.6478(3) 0.0800(2)
H5 H 0.0232 0.6055 0.0386
H6 H 0.1363 0.6939 0.0139
C5 C 0.1153(3) 0.7569(3) 0.1789(3)
H7 H 0.0538 0.8343 0.1335
H8 H 0.2083 0.7958 0.2213
C6 C 0.0710(3) 0.7010(3) 0.2820(3)
H9 H -0.0274 0.6792 0.2411
H10 H 0.0831 0.7765 0.3441
C7 C 0.1472(3) 0.5700(3) 0.3555(2)
H11 H 0.1333 0.5623 0.4348
H12 H 0.2460 0.5826 0.3795
C8 C 0.1010(2) 0.4311(3) 0.2798(2)
H13 H 0.0002 0.4367 0.2301
C9 C 0.1667(2) 0.4087(3) 0.1824(2)
H14 H 0.0985 0.3621 0.1050
C10 C 0.1302(2) 0.3011(3) 0.3716(2)
H15 H 0.2188 0.3191 0.4454
C11 C 0.1475(2) 0.1648(3) 0.3073(2)
H16 H 0.0604 0.1442 0.2326
C12 C 0.2665(2) 0.1689(3) 0.2626(2)
H17 H 0.2402 0.1121 0.1835
C13 C 0.3852(3) 0.0938(3) 0.3729(2)
H18 H 0.4363 0.1657 0.4376
C14 C 0.3112(3) -0.0012(3) 0.4314(3)
C15 C 0.4885(3) 0.0153(4) 0.3352(4)
H19 H 0.5584 -0.0278 0.4106
H20 H 0.5315 0.0811 0.2981
H21 H 0.4411 -0.0570 0.2729
C16 C 0.0187(3) 0.2848(4) 0.4260(3)
H22 H 0.0521 0.2166 0.4964
H23 H 0.0087 0.3754 0.4623
C17 C -0.1240(3) 0.2373(5) 0.3297(4)
H24 H -0.1856 0.2304 0.3726
H25 H -0.1165 0.1462 0.2949
H26 H -0.1600 0.3054 0.2607
C18 C 0.4186(3) 0.5954(3) 0.0983(2)
H27 H 0.3784 0.6884 0.0641
C19 C 0.5231(3) 0.6120(4) 0.2372(2)
H28 H 0.5261 0.5275 0.2873
H29 H 0.5007 0.6934 0.2777
C20 C 0.6612(3) 0.6342(3) 0.2258(3)
H30 H 0.7369 0.5880 0.2980
C21 C 0.6378(3) 0.5610(3) 0.1013(3)
C22 C 0.6951(3) 0.7899(4) 0.2178(3)
H31 H 0.7825 0.7975 0.2108
H32 H 0.7008 0.8383 0.2945
H33 H 0.6234 0.8324 0.1432
loop_
_geom_bond_atom_site_label_1
_geom_bond_atom_site_label_2
_geom_bond_site_symmetry_1
_geom_bond_site_symmetry_2
O1 C14 1_555 1_555
O2 C11 1_555 1_555
O3 C18 1_555 1_555
O4 C21 1_555 1_555
C1 H1 1_555 1_555
C2 C1 1_555 1_555
H2 C2 1_555 1_555
H3 C2 1_555 1_555
C3 C2 1_555 1_555
H4 C3 1_555 1_555
N1 C3 1_555 1_555
C4 N1 1_555 1_555
H5 C4 1_555 1_555
H6 C4 1_555 1_555
C5 C4 1_555 1_555
H7 C5 1_555 1_555
H8 C5 1_555 1_555
C6 C5 1_555 1_555
H9 C6 1_555 1_555
H10 C6 1_555 1_555
C7 C6 1_555 1_555
H11 C7 1_555 1_555
H12 C7 1_555 1_555
C8 C7 1_555 1_555
H13 C8 1_555 1_555
C9 C1 1_555 1_555
H14 C9 1_555 1_555
C10 C8 1_555 1_555
H15 C10 1_555 1_555
C11 C10 1_555 1_555
H16 C11 1_555 1_555
C12 C1 1_555 1_555
H17 C12 1_555 1_555
C13 C12 1_555 1_555
H18 C13 1_555 1_555
C14 O2 1_555 1_555
C15 C13 1_555 1_555
H19 C15 1_555 1_555
H20 C15 1_555 1_555
H21 C15 1_555 1_555
C16 C10 1_555 1_555
H22 C16 1_555 1_555
H23 C16 1_555 1_555
C17 C16 1_555 1_555
H24 C17 1_555 1_555
H25 C17 1_555 1_555
H26 C17 1_555 1_555
C18 C3 1_555 1_555
H27 C18 1_555 1_555
C19 C18 1_555 1_555
H28 C19 1_555 1_555
H29 C19 1_555 1_555
C20 C19 1_555 1_555
H30 C20 1_555 1_555
C21 O3 1_555 1_555
C22 C20 1_555 1_555
H31 C22 1_555 1_555
H32 C22 1_555 1_555
H33 C22 1_555 1_555
N1 C9 1_555 1_555
C8 C9 1_555 1_555
C11 C12 1_555 1_555
C13 C14 1_555 1_555
C20 C21 1_555 1_555

#END
