
#######################################################################
#
#                 Cambridge Crystallographic Data Centre
#                                CCDC 
#
#######################################################################
#
# If this CIF has been generated from an entry in the Cambridge 
# Structural Database, then it will include bibliographic, chemical, 
# crystal, experimental, refinement or atomic coordinate data resulting 
# from the CCDC's data processing and validation procedures.
#
#######################################################################

data_UGUXEB
_chemical_formula_moiety         'C13 H13 N3 O1'
_chemical_name_systematic        
2,2-dimethyl-2,3-dihydropyrimido[4,5-b]quinolin-4(1H)-one
_symmetry_cell_setting           monoclinic
_symmetry_space_group_name_H-M   'P 21/c'
_symmetry_Int_Tables_number      14
_space_group_name_Hall           '-P 2ybc'
loop_
_symmetry_equiv_pos_site_id
_symmetry_equiv_pos_as_xyz
1 x,y,z
2 -x,1/2+y,1/2-z
3 -x,-y,-z
4 x,1/2-y,1/2+z
_cell_length_a                   12.321(3)
_cell_length_b                   10.996(2)
_cell_length_c                   16.850(3)
_cell_angle_alpha                90
_cell_angle_beta                 98.727(3)
_cell_angle_gamma                90
_cell_volume                     2256.44
_exptl_crystal_colour            yellow
_exptl_crystal_description       Prism
_cell_formula_units_Z            8
loop_
_atom_site_label
_atom_site_type_symbol
_atom_site_fract_x
_atom_site_fract_y
_atom_site_fract_z
O1 O 0.15961(11) 0.21390(12) 0.73180(8)
N1 N 0.01548(13) 0.59181(14) 0.61771(9)
N2 N 0.02068(14) 0.31131(14) 0.77899(10)
N3 N -0.05940(14) 0.49037(15) 0.71638(9)
C1 C 0.09081(15) 0.59356(16) 0.56503(10)
C2 C 0.08502(17) 0.68786(19) 0.50768(11)
H1 H 0.0294 0.7480 0.5059
C3 C 0.15871(17) 0.6934(2) 0.45472(12)
H2 H 0.1536 0.7577 0.4167
C4 C 0.24163(18) 0.60592(19) 0.45564(12)
H3 H 0.2921 0.6109 0.4184
C5 C 0.24954(17) 0.51312(18) 0.51060(12)
H4 H 0.3057 0.4537 0.5113
C6 C 0.17450(15) 0.50523(17) 0.56631(11)
C7 C 0.17866(17) 0.41057(17) 0.62407(11)
H5 H 0.2351 0.3511 0.6279
C8 C 0.10134(16) 0.40541(15) 0.67392(11)
C9 C 0.01978(15) 0.49895(16) 0.66860(11)
C10 C 0.09776(16) 0.30332(16) 0.73081(11)
C11 C -0.04639(17) 0.41876(16) 0.78980(11)
C12 C -0.1597(2) 0.3744(2) 0.80208(15)
H6 H -0.2086 0.4443 0.8038
H7 H -0.1539 0.3294 0.8528
H8 H -0.1895 0.3208 0.7576
C13 C 0.0080(2) 0.49394(19) 0.86062(13)
H9 H 0.0802 0.5217 0.8503
H10 H 0.0170 0.4440 0.9094
H11 H -0.0380 0.5645 0.8679
H12 H 0.0188(18) 0.252(2) 0.8136(13)
H13 H -0.1008(18) 0.557(2) 0.7190(13)
N4 N 0.6425(2) -0.06211(16) 0.68077(10)
C14 C 0.6746(2) -0.06355(18) 0.60673(12)
C15 C 0.7368(2) -0.1631(2) 0.58593(14)
H14 H 0.7564 -0.2263 0.6239
C16 C 0.76899(18) -0.1700(2) 0.51261(14)
H15 H 0.8110 -0.2378 0.4999
C17 C 0.74119(19) -0.0787(2) 0.45564(15)
H16 H 0.7631 -0.0851 0.4041
C18 C 0.6822(2) 0.0202(2) 0.47418(15)
H17 H 0.6647 0.0829 0.4356
C19 C 0.64698(16) 0.02995(18) 0.54993(12)
C20 C 0.58322(17) 0.12815(18) 0.57228(11)
H18 H 0.5625 0.1923 0.5353
C21 C 0.55154(18) 0.13118(16) 0.64598(11)
C22 C 0.5853(3) 0.03214(18) 0.69976(12)
C23 C 0.4806(2) 0.22930(18) 0.66981(13)
C24 C 0.48939(18) 0.1245(2) 0.80014(12)
O2 O 0.4733(5) 0.3202(8) 0.6268(4)
N5 N 0.4239(3) 0.2155(3) 0.7372(2)
H19 H 0.3619 0.2519 0.7429
N6 N 0.5223(3) 0.0313(2) 0.76796(18)
H20 H 0.5068 -0.0399 0.7874
C25 C 0.4086(3) 0.1074(4) 0.8614(2)
H21 H 0.3382 0.0771 0.8336
H22 H 0.3973 0.1856 0.8869
H23 H 0.4393 0.0487 0.9026
C26 C 0.5823(3) 0.2166(3) 0.8431(2)
H24 H 0.6223 0.1781 0.8913
H25 H 0.5473 0.2914 0.8582
H26 H 0.6336 0.2363 0.8059
O3? O 0.4313(5) 0.3130(8) 0.6240(4)
N7? N 0.4805(3) 0.2183(3) 0.7496(2)
H27? H 0.4730 0.2883 0.7734
N8? N 0.5903(3) 0.0414(3) 0.77938(18)
H28? H 0.6407 0.0075 0.8151
C27? C 0.5137(3) 0.1385(4) 0.88647(19)
H29? H 0.5191 0.0581 0.9119
H30? H 0.4549 0.1850 0.9055
H31? H 0.5835 0.1817 0.9005
C28? C 0.3906(3) 0.0290(3) 0.7764(2)
H32? H 0.3858 0.0072 0.7196
H33? H 0.3213 0.0661 0.7857
H34? H 0.4046 -0.0443 0.8094
loop_
_geom_bond_atom_site_label_1
_geom_bond_atom_site_label_2
_geom_bond_site_symmetry_1
_geom_bond_site_symmetry_2
O1 C10 1_555 1_555
N1 C1 1_555 1_555
N2 C10 1_555 1_555
N3 C9 1_555 1_555
C1 C2 1_555 1_555
C2 H1 1_555 1_555
C3 C2 1_555 1_555
H2 C3 1_555 1_555
C4 C3 1_555 1_555
H3 C4 1_555 1_555
C5 C4 1_555 1_555
H4 C5 1_555 1_555
C6 C1 1_555 1_555
C7 C6 1_555 1_555
H5 C7 1_555 1_555
C8 C7 1_555 1_555
C9 N1 1_555 1_555
C10 C8 1_555 1_555
C11 N2 1_555 1_555
C12 C11 1_555 1_555
H6 C12 1_555 1_555
H7 C12 1_555 1_555
H8 C12 1_555 1_555
C13 C11 1_555 1_555
H9 C13 1_555 1_555
H10 C13 1_555 1_555
H11 C13 1_555 1_555
H12 N2 1_555 1_555
H13 N3 1_555 1_555
N4 C14 1_555 1_555
C14 C15 1_555 1_555
C15 H14 1_555 1_555
C16 C15 1_555 1_555
H15 C16 1_555 1_555
C17 C16 1_555 1_555
H16 C17 1_555 1_555
C18 C17 1_555 1_555
H17 C18 1_555 1_555
C19 C14 1_555 1_555
C20 C19 1_555 1_555
H18 C20 1_555 1_555
C21 C20 1_555 1_555
C22 N4 1_555 1_555
C23 C21 1_555 1_555
C24 N5 1_555 1_555
O2 C23 1_555 1_555
N5 C23 1_555 1_555
H19 N5 1_555 1_555
N6 C22 1_555 1_555
H20 N6 1_555 1_555
C25 C24 1_555 1_555
H21 C25 1_555 1_555
H22 C25 1_555 1_555
H23 C25 1_555 1_555
C26 C24 1_555 1_555
H24 C26 1_555 1_555
H25 C26 1_555 1_555
H26 C26 1_555 1_555
N3 C11 1_555 1_555
C5 C6 1_555 1_555
C8 C9 1_555 1_555
C18 C19 1_555 1_555
C21 C22 1_555 1_555
C24 N6 1_555 1_555

#END
