
#######################################################################
#
#                 Cambridge Crystallographic Data Centre
#                                CCDC 
#
#######################################################################
#
# If this CIF has been generated from an entry in the Cambridge 
# Structural Database, then it will include bibliographic, chemical, 
# crystal, experimental, refinement or atomic coordinate data resulting 
# from the CCDC's data processing and validation procedures.
#
#######################################################################

data_UHAJAQ
_chemical_formula_moiety         'C32 H48 B2 P2'
_chemical_name_systematic        
1',3'-bis(2,6-dimethylphenyl)dispiro[(9-borabicyclo[3.3.1]nonane)-9,2'-([1,3,2,4]diphosphadiboretane)-4',9''-(9-borabicyclo[3.3.1]nonane)]
_symmetry_cell_setting           monoclinic
_symmetry_space_group_name_H-M   'P 21/c'
_symmetry_Int_Tables_number      14
_space_group_name_Hall           '-P 2ybc'
loop_
_symmetry_equiv_pos_site_id
_symmetry_equiv_pos_as_xyz
1 x,y,z
2 -x,1/2+y,1/2-z
3 -x,-y,-z
4 x,1/2-y,1/2+z
_cell_length_a                   11.253(3)
_cell_length_b                   13.730(4)
_cell_length_c                   10.039(3)
_cell_angle_alpha                90
_cell_angle_beta                 112.391(5)
_cell_angle_gamma                90
_cell_volume                     1434.12
_exptl_crystal_colour            colorless
_exptl_crystal_description       block
_cell_formula_units_Z            2
loop_
_atom_site_label
_atom_site_type_symbol
_atom_site_fract_x
_atom_site_fract_y
_atom_site_fract_z
P1 P 0.39982(7) 0.00778(6) 0.54362(9)
B1 B 0.5891(3) 0.0381(3) 0.6428(4)
C1 C 0.2674(3) 0.0800(2) 0.5572(3)
C2 C 0.1867(3) 0.0398(3) 0.6223(4)
C3 C 0.0865(3) 0.0971(3) 0.6283(4)
H1 H 0.0324 0.0719 0.6732
C4 C 0.0643(3) 0.1892(3) 0.5706(5)
H2 H -0.0047 0.2268 0.5756
C5 C 0.1414(3) 0.2266(3) 0.5060(4)
H3 H 0.1244 0.2901 0.4653
C6 C 0.2439(3) 0.1743(2) 0.4986(4)
C7 C 0.3270(3) 0.2221(2) 0.4298(4)
H4 H 0.2742 0.2390 0.3298
H5 H 0.3950 0.1770 0.4316
H6 H 0.3656 0.2813 0.4833
C8 C 0.2028(3) -0.0608(3) 0.6874(4)
H7 H 0.1392 -0.0708 0.7308
H8 H 0.2895 -0.0672 0.7617
H9 H 0.1904 -0.1096 0.6121
C9 C 0.6562(3) -0.0236(2) 0.7904(3)
H10 H 0.6291 -0.0932 0.7704
C10 C 0.6048(3) 0.0161(2) 0.9016(4)
H11 H 0.5119 0.0010 0.8679
H12 H 0.6484 -0.0187 0.9938
C11 C 0.6227(3) 0.1263(2) 0.9304(4)
H13 H 0.5691 0.1471 0.9838
H14 H 0.7136 0.1390 0.9927
C12 C 0.5873(3) 0.1880(2) 0.7934(4)
H15 H 0.6213 0.2546 0.8213
H16 H 0.4924 0.1929 0.7481
C13 C 0.6374(3) 0.1491(2) 0.6799(3)
H17 H 0.5983 0.1889 0.5903
C14 C 0.7847(3) 0.1519(2) 0.7266(4)
H18 H 0.8060 0.1346 0.6425
H19 H 0.8144 0.2195 0.7545
C15 C 0.8595(3) 0.0841(2) 0.8515(4)
H20 H 0.9491 0.0790 0.8574
H21 H 0.8620 0.1135 0.9425
C16 C 0.8028(3) -0.0185(2) 0.8380(4)
H22 H 0.8424 -0.0514 0.9324
H23 H 0.8275 -0.0555 0.7679
H24 H 0.397(3) -0.073(3) 0.615(4)
P1B P 0.60018(7) -0.00778(6) 0.45638(9)
B1B B 0.4109(3) -0.0381(3) 0.3572(4)
C1B C 0.7326(3) -0.0800(2) 0.4428(3)
C2B C 0.8133(3) -0.0398(3) 0.3777(4)
C3B C 0.9135(3) -0.0971(3) 0.3717(4)
H1B H 0.9676 -0.0719 0.3268
C4B C 0.9357(3) -0.1892(3) 0.4294(5)
H2B H 1.0047 -0.2268 0.4244
C5B C 0.8586(3) -0.2266(3) 0.4940(4)
H3B H 0.8756 -0.2901 0.5347
C6B C 0.7561(3) -0.1743(2) 0.5014(4)
C7B C 0.6730(3) -0.2221(2) 0.5702(4)
H4B H 0.7258 -0.2390 0.6702
H5B H 0.6050 -0.1770 0.5684
H6B H 0.6344 -0.2813 0.5167
C8B C 0.7972(3) 0.0608(3) 0.3126(4)
H7B H 0.8608 0.0708 0.2692
H8B H 0.7105 0.0672 0.2383
H9B H 0.8096 0.1096 0.3879
C9B C 0.3438(3) 0.0236(2) 0.2096(3)
H10B H 0.3709 0.0932 0.2296
C10B C 0.3952(3) -0.0161(2) 0.0984(4)
H11B H 0.4881 -0.0010 0.1321
H12B H 0.3516 0.0187 0.0062
C11B C 0.3773(3) -0.1263(2) 0.0696(4)
H13B H 0.4309 -0.1471 0.0162
H14B H 0.2864 -0.1390 0.0073
C12B C 0.4127(3) -0.1880(2) 0.2066(4)
H15B H 0.3787 -0.2546 0.1787
H16B H 0.5076 -0.1929 0.2519
C13B C 0.3626(3) -0.1491(2) 0.3201(3)
H17B H 0.4017 -0.1889 0.4097
C14B C 0.2153(3) -0.1519(2) 0.2734(4)
H18B H 0.1940 -0.1346 0.3575
H19B H 0.1856 -0.2195 0.2455
C15B C 0.1405(3) -0.0841(2) 0.1485(4)
H20B H 0.0509 -0.0790 0.1426
H21B H 0.1380 -0.1135 0.0575
C16B C 0.1972(3) 0.0185(2) 0.1620(4)
H22B H 0.1576 0.0514 0.0676
H23B H 0.1725 0.0555 0.2321
H24B H 0.603(3) 0.073(3) 0.385(4)
loop_
_geom_bond_atom_site_label_1
_geom_bond_atom_site_label_2
_geom_bond_site_symmetry_1
_geom_bond_site_symmetry_2
P1 B1 1_555 1_555
B1 C9 1_555 1_555
C1 P1 1_555 1_555
C2 C1 1_555 1_555
C3 C2 1_555 1_555
H1 C3 1_555 1_555
C4 C3 1_555 1_555
H2 C4 1_555 1_555
C5 C4 1_555 1_555
H3 C5 1_555 1_555
C6 C1 1_555 1_555
C7 C6 1_555 1_555
H4 C7 1_555 1_555
H5 C7 1_555 1_555
H6 C7 1_555 1_555
C8 C2 1_555 1_555
H7 C8 1_555 1_555
H8 C8 1_555 1_555
H9 C8 1_555 1_555
C9 H10 1_555 1_555
C10 C9 1_555 1_555
H11 C10 1_555 1_555
H12 C10 1_555 1_555
C11 C10 1_555 1_555
H13 C11 1_555 1_555
H14 C11 1_555 1_555
C12 C11 1_555 1_555
H15 C12 1_555 1_555
H16 C12 1_555 1_555
C13 B1 1_555 1_555
H17 C13 1_555 1_555
C14 C13 1_555 1_555
H18 C14 1_555 1_555
H19 C14 1_555 1_555
C15 C14 1_555 1_555
H20 C15 1_555 1_555
H21 C15 1_555 1_555
C16 C9 1_555 1_555
H22 C16 1_555 1_555
H23 C16 1_555 1_555
H24 P1 1_555 1_555
P1B B1 1_555 1_555
B1B P1 1_555 1_555
C1B P1B 1_555 1_555
C2B C1B 1_555 1_555
C3B C2B 1_555 1_555
H1B C3B 1_555 1_555
C4B C3B 1_555 1_555
H2B C4B 1_555 1_555
C5B C4B 1_555 1_555
H3B C5B 1_555 1_555
C6B C1B 1_555 1_555
C7B C6B 1_555 1_555
H4B C7B 1_555 1_555
H5B C7B 1_555 1_555
H6B C7B 1_555 1_555
C8B C2B 1_555 1_555
H7B C8B 1_555 1_555
H8B C8B 1_555 1_555
H9B C8B 1_555 1_555
C9B B1B 1_555 1_555
H10B C9B 1_555 1_555
C10B C9B 1_555 1_555
H11B C10B 1_555 1_555
H12B C10B 1_555 1_555
C11B C10B 1_555 1_555
H13B C11B 1_555 1_555
H14B C11B 1_555 1_555
C12B C11B 1_555 1_555
H15B C12B 1_555 1_555
H16B C12B 1_555 1_555
C13B B1B 1_555 1_555
H17B C13B 1_555 1_555
C14B C13B 1_555 1_555
H18B C14B 1_555 1_555
H19B C14B 1_555 1_555
C15B C14B 1_555 1_555
H20B C15B 1_555 1_555
H21B C15B 1_555 1_555
C16B C9B 1_555 1_555
H22B C16B 1_555 1_555
H23B C16B 1_555 1_555
H24B P1B 1_555 1_555
C5 C6 1_555 1_555
C12 C13 1_555 1_555
C15 C16 1_555 1_555
P1B B1B 1_555 1_555
C5B C6B 1_555 1_555
C12B C13B 1_555 1_555
C15B C16B 1_555 1_555

#END
