
#######################################################################
#
#                 Cambridge Crystallographic Data Centre
#                                CCDC 
#
#######################################################################
#
# If this CIF has been generated from an entry in the Cambridge 
# Structural Database, then it will include bibliographic, chemical, 
# crystal, experimental, refinement or atomic coordinate data resulting 
# from the CCDC's data processing and validation procedures.
#
#######################################################################

data_UHARIF
_chemical_formula_moiety         'C24 H20 O10'
_chemical_name_systematic        
'Tetramethyl 13-oxo-17-oxatetracyclo[8.5.1.1^4,7^.0^3,8^]heptadeca-1,3(8),5,9,11,14-hexaene-5,6,12,14-tetracarboxylate'
_symmetry_cell_setting           triclinic
_symmetry_space_group_name_H-M   'P -1'
_symmetry_Int_Tables_number      2
_space_group_name_Hall           '-P 1'
loop_
_symmetry_equiv_pos_site_id
_symmetry_equiv_pos_as_xyz
1 x,y,z
2 -x,-y,-z
_cell_length_a                   9.788(3)
_cell_length_b                   14.132(4)
_cell_length_c                   9.179(3)
_cell_angle_alpha                107.36(2)
_cell_angle_beta                 116.27(2)
_cell_angle_gamma                73.97(2)
_cell_volume                     1071.17
_exptl_crystal_colour            yellow
_exptl_crystal_description       prismatic
_cell_formula_units_Z            2
loop_
_atom_site_label
_atom_site_type_symbol
_atom_site_fract_x
_atom_site_fract_y
_atom_site_fract_z
O1 O 1.1311(4) -0.1318(2) 0.8601(4)
O2 O 0.8466(4) 0.4034(2) 0.5500(4)
O3 O 1.2766(4) 0.0383(3) 1.3131(4)
O4 O 1.3832(5) -0.0952(3) 1.1740(4)
O5 O 1.4351(5) -0.2042(3) 0.8600(4)
O6 O 1.1946(5) 0.3514(3) 0.3791(4)
O7 O 1.3442(4) 0.4122(3) 0.6406(4)
O8 O 1.2277(5) 0.4877(3) 1.0132(4)
O9 O 1.2094(5) 0.5848(2) 0.8510(4)
O10 O 1.4310(6) -0.1737(3) 0.6384(6)
C1 C 1.2052(6) 0.0237(3) 1.0247(5)
C2 C 1.1874(6) -0.0624(3) 0.8749(5)
C3 C 1.2602(6) -0.0660(3) 0.7585(5)
C4 C 1.2191(5) 0.0002(3) 0.6603(5)
C5 C 1.0976(6) 0.0842(3) 0.6431(5)
C6 C 1.0858(6) 0.1563(3) 0.5628(5)
C7 C 1.0037(5) 0.2525(3) 0.5940(5)
C8 C 0.9635(6) 0.3356(4) 0.4974(5)
C9 C 1.0962(6) 0.3946(3) 0.5859(6)
C10 C 1.0822(6) 0.4458(3) 0.7287(6)
C11 C 0.9423(6) 0.4154(3) 0.7240(6)
C12 C 0.9872(6) 0.3047(3) 0.7426(5)
C13 C 1.0388(6) 0.2679(3) 0.8882(5)
C14 C 1.0572(6) 0.1673(3) 0.8844(5)
C15 C 1.1484(6) 0.1224(3) 1.0254(5)
C16 C 0.9858(6) 0.1007(3) 0.7200(5)
C17 C 1.2903(6) -0.0078(4) 1.1874(6)
C18 C 1.3841(7) -0.1525(4) 0.7431(6)
C19 C 1.2155(7) 0.3838(3) 0.5244(7)
C20 C 1.4604(7) 0.4117(4) 0.5851(7)
C21 C 1.1819(6) 0.5076(3) 0.8790(6)
C22 C 1.3044(8) 0.6489(4) 0.9947(7)
C23 C 1.4670(7) -0.1382(4) 1.3203(6)
C24 C 1.5537(8) -0.2903(5) 0.8558(9)
H1 H 1.2778 -0.0106 0.5958
H2 H 1.1336 0.1404 0.4862
H3 H 1.0615 0.3140 0.9920
H4 H 1.1717 0.1665 1.1310
H5 H 0.9338 0.3137 0.3808
H6 H 0.8954 0.4605 0.7955
H7 H 0.8871 0.1331 0.6556
H8 H 0.9761 0.0391 0.7333
H9 H 1.4889 0.3455 0.5306
H10 H 1.4208 0.4560 0.5102
H11 H 1.5486 0.4333 0.6779
H12 H 1.4026 0.6106 1.0463
H13 H 1.3176 0.7021 0.9612
H14 H 1.2556 0.6761 1.0712
H15 H 1.3959 -0.1489 1.3558
H16 H 1.5287 -0.2005 1.2952
H17 H 1.5315 -0.0934 1.4061
H18 H 1.5797 -0.3219 0.9448
H19 H 1.5174 -0.3364 0.7534
H20 H 1.6427 -0.2695 0.8666
loop_
_geom_bond_atom_site_label_1
_geom_bond_atom_site_label_2
_geom_bond_site_symmetry_1
_geom_bond_site_symmetry_2
O1 C2 1_555 1_555
O2 C8 1_555 1_555
O3 C17 1_555 1_555
O4 C17 1_555 1_555
O5 C18 1_555 1_555
O6 C19 1_555 1_555
O7 C19 1_555 1_555
O8 C21 1_555 1_555
O9 C21 1_555 1_555
O10 C18 1_555 1_555
C1 C2 1_555 1_555
C2 C3 1_555 1_555
C3 C4 1_555 1_555
C4 C5 1_555 1_555
C5 C6 1_555 1_555
C6 C7 1_555 1_555
C7 C8 1_555 1_555
C8 C9 1_555 1_555
C9 C10 1_555 1_555
C10 C11 1_555 1_555
C11 O2 1_555 1_555
C12 C7 1_555 1_555
C13 C12 1_555 1_555
C14 C13 1_555 1_555
C15 C1 1_555 1_555
C16 C5 1_555 1_555
C17 C1 1_555 1_555
C18 C3 1_555 1_555
C19 C9 1_555 1_555
C20 O7 1_555 1_555
C21 C10 1_555 1_555
C22 O9 1_555 1_555
C23 O4 1_555 1_555
C24 O5 1_555 1_555
H1 C4 1_555 1_555
H2 C6 1_555 1_555
H3 C13 1_555 1_555
H4 C15 1_555 1_555
H5 C8 1_555 1_555
H6 C11 1_555 1_555
H7 C16 1_555 1_555
H8 C16 1_555 1_555
H9 C20 1_555 1_555
H10 C20 1_555 1_555
H11 C20 1_555 1_555
H12 C22 1_555 1_555
H13 C22 1_555 1_555
H14 C22 1_555 1_555
H15 C23 1_555 1_555
H16 C23 1_555 1_555
H17 C23 1_555 1_555
H18 C24 1_555 1_555
H19 C24 1_555 1_555
H20 C24 1_555 1_555
C11 C12 1_555 1_555
C14 C15 1_555 1_555
C14 C16 1_555 1_555

#END
