
#######################################################################
#
#                 Cambridge Crystallographic Data Centre
#                                CCDC 
#
#######################################################################
#
# If this CIF has been generated from an entry in the Cambridge 
# Structural Database, then it will include bibliographic, chemical, 
# crystal, experimental, refinement or atomic coordinate data resulting 
# from the CCDC's data processing and validation procedures.
#
#######################################################################

data_UHAROL
_chemical_formula_moiety         'C18 H14 O6'
_chemical_name_systematic        
'Dimethyl 12-oxo-5-oxatricyclo[7.5.1.0^3,7^]pentadeca-1,3,6,8,10,13-hexaene-11,13-dicarboxylate'
_symmetry_cell_setting           monoclinic
_symmetry_space_group_name_H-M   'P 21/c'
_symmetry_Int_Tables_number      14
_space_group_name_Hall           '-P 2ybc'
loop_
_symmetry_equiv_pos_site_id
_symmetry_equiv_pos_as_xyz
1 x,y,z
2 -x,1/2+y,1/2-z
3 -x,-y,-z
4 x,1/2-y,1/2+z
_cell_length_a                   11.574(5)
_cell_length_b                   7.529(3)
_cell_length_c                   17.605(4)
_cell_angle_alpha                90
_cell_angle_beta                 100.06(2)
_cell_angle_gamma                90
_cell_volume                     1510.52
_exptl_crystal_colour            yellow
_exptl_crystal_description       prismatic
_chemical_melting_point          '198-200 deg.C'
_cell_formula_units_Z            4
loop_
_atom_site_label
_atom_site_type_symbol
_atom_site_fract_x
_atom_site_fract_y
_atom_site_fract_z
O1 O 0.7258(2) -0.1075(4) 0.4699(2)
O2 O 0.1349(3) 0.0810(5) 0.1522(2)
O3 O 0.6265(3) 0.3824(5) 0.5561(2)
O4 O 0.7838(3) 0.2257(6) 0.5452(2)
O5 O 0.8846(3) 0.0899(6) 0.2902(2)
O6 O 0.9030(2) 0.1178(5) 0.4171(2)
C1 C 0.4979(4) 0.1878(6) 0.4347(2)
C2 C 0.6125(3) 0.1565(6) 0.4602(2)
C3 C 0.6864(3) 0.0173(6) 0.4300(2)
C4 C 0.7191(3) 0.0387(6) 0.3501(2)
C5 C 0.6459(4) 0.0196(6) 0.2827(2)
C6 C 0.5215(3) -0.0141(5) 0.2715(2)
C7 C 0.4505(4) 0.0213(6) 0.2046(2)
C8 C 0.3251(4) 0.0423(6) 0.2005(2)
C9 C 0.2414(4) 0.0341(7) 0.1363(3)
C10 C 0.1518(4) 0.1260(8) 0.2281(3)
C11 C 0.2655(4) 0.1061(6) 0.2614(2)
C12 C 0.3212(4) 0.1664(6) 0.3367(2)
C13 C 0.4235(3) 0.0973(6) 0.3728(2)
C14 C 0.4669(3) -0.0668(5) 0.3388(2)
C15 C 0.6722(4) 0.2680(7) 0.5251(2)
C16 C 0.8502(6) 0.321(1) 0.6085(4)
C17 C 0.8432(4) 0.0830(7) 0.3476(3)
C18 C 1.0244(5) 0.1710(9) 0.4222(3)
H1 H 0.4625 0.2789 0.4602
H2 H 0.6796 0.0293 0.2374
H3 H 0.4830 0.0328 0.1589
H4 H 0.2554 0.0001 0.0868
H5 H 0.0916 0.1662 0.2543
H6 H 0.2847 0.2573 0.3616
H7 H 0.5235 -0.1244 0.3764
H8 H 0.4031 -0.1451 0.3224
H9 H 0.8496 0.4443 0.5964
H10 H 0.8163 0.3038 0.6534
H11 H 0.9288 0.2792 0.6178
H12 H 1.0282 0.2765 0.3932
H13 H 1.0578 0.1921 0.4747
H14 H 1.0667 0.0792 0.4022
loop_
_geom_bond_atom_site_label_1
_geom_bond_atom_site_label_2
_geom_bond_site_symmetry_1
_geom_bond_site_symmetry_2
O1 C3 1_555 1_555
O2 C9 1_555 1_555
O3 C15 1_555 1_555
O4 C15 1_555 1_555
O5 C17 1_555 1_555
O6 C17 1_555 1_555
C1 C2 1_555 1_555
C2 C3 1_555 1_555
C3 C4 1_555 1_555
C4 C5 1_555 1_555
C5 C6 1_555 1_555
C6 C7 1_555 1_555
C7 C8 1_555 1_555
C8 C9 1_555 1_555
C9 H4 1_555 1_555
C10 O2 1_555 1_555
C11 C8 1_555 1_555
C12 C11 1_555 1_555
C13 C1 1_555 1_555
C14 C6 1_555 1_555
C15 C2 1_555 1_555
C16 O4 1_555 1_555
C17 C4 1_555 1_555
C18 O6 1_555 1_555
H1 C1 1_555 1_555
H2 C5 1_555 1_555
H3 C7 1_555 1_555
H5 C10 1_555 1_555
H6 C12 1_555 1_555
H7 C14 1_555 1_555
H8 C14 1_555 1_555
H9 C16 1_555 1_555
H10 C16 1_555 1_555
H11 C16 1_555 1_555
H12 C18 1_555 1_555
H13 C18 1_555 1_555
H14 C18 1_555 1_555
C10 C11 1_555 1_555
C12 C13 1_555 1_555
C13 C14 1_555 1_555

#END
