
#######################################################################
#
#                 Cambridge Crystallographic Data Centre
#                                CCDC 
#
#######################################################################
#
# If this CIF has been generated from an entry in the Cambridge 
# Structural Database, then it will include bibliographic, chemical, 
# crystal, experimental, refinement or atomic coordinate data resulting 
# from the CCDC's data processing and validation procedures.
#
#######################################################################

data_UHATOM
_chemical_formula_moiety         'C13 H10 O1,C13 H11 O1 1+,C1 H6 B11 Cl6 1-'
_chemical_name_systematic        
'bis(Benzophenenone)hydronium hexachloro-carbadodecaborane(6)'
_symmetry_cell_setting           triclinic
_symmetry_space_group_name_H-M   'P -1'
_symmetry_Int_Tables_number      2
_space_group_name_Hall           '-P 1'
loop_
_symmetry_equiv_pos_site_id
_symmetry_equiv_pos_as_xyz
1 x,y,z
2 -x,-y,-z
_cell_length_a                   9.9028(5)
_cell_length_b                   13.8281(7)
_cell_length_c                   13.9213(7)
_cell_angle_alpha                68.2140(10)
_cell_angle_beta                 74.9370(10)
_cell_angle_gamma                84.967(2)
_cell_volume                     1709.28
_exptl_crystal_colour            colorless
_exptl_crystal_description       prism
_cell_formula_units_Z            2
_exptl_crystal_recrystallization_method toluene
loop_
_atom_site_label
_atom_site_type_symbol
_atom_site_fract_x
_atom_site_fract_y
_atom_site_fract_z
C1 C 0.1595(5) 0.6104(3) 0.5269(3)
H1 H 0.1189(11) 0.5534(7) 0.5916(6)
B1 B 0.3049(5) 0.5844(4) 0.4444(3)
H2 H 0.3581 0.5071 0.4594
B2 B 0.3108(5) 0.6624(4) 0.5199(4)
H3 H 0.3681 0.6365 0.5847
B3 B 0.1512(5) 0.7312(4) 0.5330(4)
H4 H 0.1031 0.7504 0.6059
B4 B 0.0476(6) 0.6955(4) 0.4658(4)
H5 H -0.0691 0.6910 0.4951
B5 B 0.1408(5) 0.6058(4) 0.4102(4)
H6 H 0.0858 0.5426 0.4026
B6 B 0.2926(5) 0.6684(3) 0.3152(3)
Cl1 Cl 0.36555(12) 0.63261(8) 0.20109(8)
B7 B 0.3994(5) 0.7040(3) 0.3821(3)
Cl2 Cl 0.58659(11) 0.70796(8) 0.33779(8)
B8 B 0.3045(5) 0.7949(3) 0.4372(4)
Cl3 Cl 0.39492(12) 0.89483(8) 0.44986(9)
B9 B 0.1403(5) 0.8168(4) 0.4037(4)
Cl4 Cl 0.05130(13) 0.93726(10) 0.38630(11)
B10 B 0.1325(5) 0.7378(4) 0.3275(4)
Cl5 Cl 0.03832(12) 0.77915(9) 0.22483(10)
B11 B 0.2930(4) 0.8003(3) 0.3091(3)
Cl6 Cl 0.36895(10) 0.90479(7) 0.18885(8)
O1 O 0.4413(3) 0.33849(19) 0.0268(2)
H7 H 0.508(6) 0.380(4) 0.037(4)
C2 C 0.3615(4) 0.2705(3) 0.1053(3)
C3 C 0.3546(4) 0.2618(3) 0.2138(3)
C4 C 0.3308(4) 0.1659(3) 0.2979(3)
H8 H 0.3186 0.1047 0.2851
C5 C 0.3252(5) 0.1606(4) 0.3997(4)
H9 H 0.3088 0.0956 0.4575
C6 C 0.3435(5) 0.2503(4) 0.4178(4)
H10 H 0.3401 0.2460 0.4881
C7 C 0.3665(4) 0.3455(4) 0.3353(4)
H11 H 0.3778 0.4065 0.3486
C8 C 0.3730(4) 0.3512(3) 0.2338(3)
H12 H 0.3901 0.4165 0.1764
C9 C 0.2788(4) 0.2071(3) 0.0775(3)
C10 C 0.3236(4) 0.1978(3) -0.0220(3)
H13 H 0.4104 0.2281 -0.0682
C11 C 0.2436(5) 0.1454(3) -0.0539(4)
H14 H 0.2750 0.1382 -0.1214
C12 C 0.1169(5) 0.1032(3) 0.0129(4)
H15 H 0.0594 0.0697 -0.0106
C13 C 0.0724(4) 0.1085(3) 0.1119(4)
H16 H -0.0135 0.0764 0.1578
C14 C 0.1531(4) 0.1613(3) 0.1461(3)
H17 H 0.1226 0.1658 0.2149
C15 C 0.7189(4) 0.3736(3) 0.0985(3)
O2 O 0.6369(3) 0.42497(18) 0.0441(2)
C16 C 0.7177(4) 0.2583(3) 0.1351(3)
C17 C 0.7169(4) 0.1987(3) 0.2412(3)
H18 H 0.7288 0.2312 0.2878
C18 C 0.6987(4) 0.0928(3) 0.2775(3)
H19 H 0.6968 0.0521 0.3499
C19 C 0.6831(4) 0.0446(3) 0.2097(3)
H20 H 0.6688 -0.0286 0.2359
C20 C 0.6886(4) 0.1032(3) 0.1040(3)
H21 H 0.6816 0.0700 0.0567
C21 C 0.7041(4) 0.2098(3) 0.0671(3)
H22 H 0.7055 0.2502 -0.0053
C22 C 0.8140(4) 0.4292(3) 0.1270(3)
C23 C 0.7740(4) 0.5244(3) 0.1393(3)
H23 H 0.6850 0.5527 0.1309
C24 C 0.8640(5) 0.5766(3) 0.1636(4)
H24 H 0.8359 0.6398 0.1749
C25 C 0.9957(5) 0.5374(3) 0.1718(4)
H25 H 1.0595 0.5753 0.1853
C26 C 1.0335(4) 0.4449(3) 0.1605(4)
H26 H 1.1231 0.4174 0.1680
C27 C 0.9436(4) 0.3900(3) 0.1382(3)
H27 H 0.9713 0.3252 0.1305
loop_
_geom_bond_atom_site_label_1
_geom_bond_atom_site_label_2
_geom_bond_site_symmetry_1
_geom_bond_site_symmetry_2
C1 H1 1_555 1_555
B1 C1 1_555 1_555
H2 B1 1_555 1_555
B2 C1 1_555 1_555
H3 B2 1_555 1_555
B3 C1 1_555 1_555
H4 B3 1_555 1_555
B4 C1 1_555 1_555
H5 B4 1_555 1_555
B5 C1 1_555 1_555
H6 B5 1_555 1_555
B6 B1 1_555 1_555
Cl1 B6 1_555 1_555
B7 B1 1_555 1_555
Cl2 B7 1_555 1_555
B8 B2 1_555 1_555
Cl3 B8 1_555 1_555
B9 B3 1_555 1_555
Cl4 B9 1_555 1_555
B10 B4 1_555 1_555
Cl5 B10 1_555 1_555
B11 B6 1_555 1_555
Cl6 B11 1_555 1_555
O1 H7 1_555 1_555
C2 O1 1_555 1_555
C3 C2 1_555 1_555
C4 C3 1_555 1_555
H8 C4 1_555 1_555
C5 C4 1_555 1_555
H9 C5 1_555 1_555
C6 C5 1_555 1_555
H10 C6 1_555 1_555
C7 C6 1_555 1_555
H11 C7 1_555 1_555
C8 C3 1_555 1_555
H12 C8 1_555 1_555
C9 C2 1_555 1_555
C10 C9 1_555 1_555
H13 C10 1_555 1_555
C11 C10 1_555 1_555
H14 C11 1_555 1_555
C12 C11 1_555 1_555
H15 C12 1_555 1_555
C13 C12 1_555 1_555
H16 C13 1_555 1_555
C14 C9 1_555 1_555
H17 C14 1_555 1_555
C15 O2 1_555 1_555
C16 C15 1_555 1_555
C17 C16 1_555 1_555
H18 C17 1_555 1_555
C18 C17 1_555 1_555
H19 C18 1_555 1_555
C19 C18 1_555 1_555
H20 C19 1_555 1_555
C20 C19 1_555 1_555
H21 C20 1_555 1_555
C21 C16 1_555 1_555
H22 C21 1_555 1_555
C22 C15 1_555 1_555
C23 C22 1_555 1_555
H23 C23 1_555 1_555
C24 C23 1_555 1_555
H24 C24 1_555 1_555
C25 C24 1_555 1_555
H25 C25 1_555 1_555
C26 C25 1_555 1_555
H26 C26 1_555 1_555
C27 C22 1_555 1_555
H27 C27 1_555 1_555
B1 B2 1_555 1_555
B1 B5 1_555 1_555
B2 B7 1_555 1_555
B2 B3 1_555 1_555
B3 B8 1_555 1_555
B3 B4 1_555 1_555
B4 B9 1_555 1_555
B4 B5 1_555 1_555
B5 B6 1_555 1_555
B5 B10 1_555 1_555
B6 B7 1_555 1_555
B6 B10 1_555 1_555
B7 B8 1_555 1_555
B7 B11 1_555 1_555
B8 B11 1_555 1_555
B8 B9 1_555 1_555
B9 B10 1_555 1_555
B9 B11 1_555 1_555
B10 B11 1_555 1_555
C7 C8 1_555 1_555
C13 C14 1_555 1_555
C20 C21 1_555 1_555
C26 C27 1_555 1_555

#END
