
#######################################################################
#
#                 Cambridge Crystallographic Data Centre
#                                CCDC 
#
#######################################################################
#
# If this CIF has been generated from an entry in the Cambridge 
# Structural Database, then it will include bibliographic, chemical, 
# crystal, experimental, refinement or atomic coordinate data resulting 
# from the CCDC's data processing and validation procedures.
#
#######################################################################

data_UHATEC
_chemical_formula_moiety         'C4 H10 O1,C4 H11 O1 1+,C1 H6 B11 Cl6 1-'
_chemical_name_systematic        
'bis(diethyl ether)hydronium hexachloro-carbadodecaborane(6)'
_symmetry_cell_setting           monoclinic
_symmetry_space_group_name_H-M   'P 21/c'
_symmetry_Int_Tables_number      14
_space_group_name_Hall           '-P 2ybc'
loop_
_symmetry_equiv_pos_site_id
_symmetry_equiv_pos_as_xyz
1 x,y,z
2 x,1/2-y,1/2+z
3 -x,-y,-z
4 -x,1/2+y,1/2-z
_cell_length_a                   7.6777(4)
_cell_length_b                   23.5020(13)
_cell_length_c                   13.5215(7)
_cell_angle_alpha                90
_cell_angle_beta                 90.7730(10)
_cell_angle_gamma                90
_cell_volume                     2439.62
_exptl_crystal_colour            colorless
_exptl_crystal_description       'thin needle'
_cell_formula_units_Z            4
_exptl_crystal_recrystallization_method 'diethyl ether'
loop_
_atom_site_label
_atom_site_type_symbol
_atom_site_fract_x
_atom_site_fract_y
_atom_site_fract_z
C1 C 1.0212(2) 0.55999(7) 0.87755(12)
H1 H 1.1194(9) 0.5373(3) 0.8967(6)
B1 B 1.0366(2) 0.63145(8) 0.89753(14)
H2 H 1.1521 0.6537 0.9311
B2 B 0.8984(2) 0.58767(8) 0.96968(13)
H3 H 0.9230 0.5811 1.0507
B3 B 0.8198(2) 0.53168(8) 0.89331(14)
H4 H 0.7930 0.4883 0.9241
B4 B 0.9087(2) 0.54032(8) 0.77377(14)
H5 H 0.9403 0.5029 0.7260
B5 B 1.0426(2) 0.60210(9) 0.77624(14)
H6 H 1.1621 0.6052 0.7300
B6 B 0.9100(2) 0.66194(8) 0.80067(13)
B7 B 0.8206(2) 0.65324(8) 0.92133(13)
B8 B 0.6847(2) 0.59115(8) 0.91880(13)
B9 B 0.6905(2) 0.56177(8) 0.79719(13)
B10 B 0.8289(2) 0.60541(8) 0.72427(13)
B11 B 0.6903(2) 0.63744(7) 0.81367(13)
Cl1 Cl 0.95919(7) 0.73024(2) 0.74890(4)
Cl2 Cl 0.77531(6) 0.71237(2) 1.00089(3)
Cl3 Cl 0.49498(6) 0.58485(2) 0.99316(4)
Cl4 Cl 0.50612(6) 0.52486(2) 0.74496(4)
Cl5 Cl 0.79113(7) 0.61570(2) 0.59401(3)
Cl6 Cl 0.50668(5) 0.680108(19) 0.77843(3)
C6 C 0.207(2) 0.8615(5) 0.6966(10)
H17 H 0.1462 0.8452 0.6391
H18 H 0.2346 0.9015 0.6834
H19 H 0.1323 0.8590 0.7546
C7 C 0.3714(8) 0.8294(2) 0.7159(5)
H20 H 0.3453 0.7894 0.7330
H21 H 0.4456 0.8298 0.6566
O2 O 0.4587(17) 0.8575(6) 0.7978(8)
C8 C 0.6489(14) 0.8369(6) 0.8091(11)
H22 H 0.6551 0.8091 0.8640
H23 H 0.6816 0.8167 0.7478
C9 C 0.7715(18) 0.8800(7) 0.8276(9)
H24 H 0.8766 0.8633 0.8576
H25 H 0.7221 0.9081 0.8728
H26 H 0.8014 0.8986 0.7652
C10 C 0.2645(16) 0.9536(4) 0.9799(7)
H27 H 0.2847 0.9824 1.0313
H28 H 0.1453 0.9572 0.9538
H29 H 0.3472 0.9593 0.9263
C11 C 0.2882(8) 0.8979(2) 1.0215(3)
H30 H 0.2086 0.8921 1.0776
H31 H 0.4096 0.8930 1.0456
O3 O 0.2491(6) 0.8575(2) 0.9421(3)
H32 H 0.371(4) 0.8594(12) 0.904(2)
C12 C 0.1832(8) 0.8003(4) 0.9748(4)
H33 H 0.0852 0.8058 1.0207
H34 H 0.1388 0.7791 0.9165
C13 C 0.3177(13) 0.7671(4) 1.0236(6)
H35 H 0.2786 0.7276 1.0300
H36 H 0.3414 0.7830 1.0895
H37 H 0.4241 0.7684 0.9845
C2? C 0.2479(19) 0.8636(6) 0.6972(8)
H7? H 0.2271 0.8673 0.6258
H8? H 0.2159 0.8992 0.7301
H9? H 0.1773 0.8324 0.7230
C3? C 0.4335(9) 0.8516(4) 0.7161(5)
H10? H 0.4619 0.8138 0.6881
H11? H 0.5044 0.8803 0.6814
O1? O 0.4795(15) 0.8520(6) 0.8179(7)
C4? C 0.6468(12) 0.8402(3) 0.8436(4)
H12? H 0.6806 0.8026 0.8172
H13? H 0.6597 0.8392 0.9165
C5? C 0.7635(17) 0.8864(9) 0.8011(12)
H14? H 0.8858 0.8768 0.8144
H15? H 0.7363 0.9230 0.8320
H16? H 0.7435 0.8891 0.7295
C14? C 0.1976(11) 0.9623(3) 1.0101(5)
H38? H 0.2285 1.0004 1.0340
H39? H 0.1426 0.9408 1.0633
H40? H 0.1162 0.9655 0.9539
C15? C 0.3518(10) 0.9333(4) 0.9794(6)
H41? H 0.4376 0.9329 1.0347
H42? H 0.4040 0.9542 0.9236
O4? O 0.3141(7) 0.8728(2) 0.9478(4)
H43? H 0.371(4) 0.8594(12) 0.904(2)
C16? C 0.2886(11) 0.8324(3) 1.0241(4)
H44? H 0.1852 0.8435 1.0626
H45? H 0.3909 0.8331 1.0695
C17? C 0.2641(12) 0.7745(4) 0.9871(8)
H46? H 0.2152 0.7507 1.0393
H47? H 0.3766 0.7589 0.9670
H48? H 0.1840 0.7751 0.9300
loop_
_geom_bond_atom_site_label_1
_geom_bond_atom_site_label_2
_geom_bond_site_symmetry_1
_geom_bond_site_symmetry_2
C1 H1 1_555 1_555
B1 C1 1_555 1_555
H2 B1 1_555 1_555
B2 C1 1_555 1_555
H3 B2 1_555 1_555
B3 C1 1_555 1_555
H4 B3 1_555 1_555
B4 C1 1_555 1_555
H5 B4 1_555 1_555
B5 C1 1_555 1_555
H6 B5 1_555 1_555
B6 B1 1_555 1_555
B7 B1 1_555 1_555
B8 B2 1_555 1_555
B9 B3 1_555 1_555
B10 B4 1_555 1_555
B11 B6 1_555 1_555
Cl1 B6 1_555 1_555
Cl2 B7 1_555 1_555
Cl3 B8 1_555 1_555
Cl4 B9 1_555 1_555
Cl5 B10 1_555 1_555
Cl6 B11 1_555 1_555
C6 H17 1_555 1_555
H18 C6 1_555 1_555
H19 C6 1_555 1_555
C7 C6 1_555 1_555
H20 C7 1_555 1_555
H21 C7 1_555 1_555
O2 C7 1_555 1_555
C8 O2 1_555 1_555
H22 C8 1_555 1_555
H23 C8 1_555 1_555
C9 C8 1_555 1_555
H24 C9 1_555 1_555
H25 C9 1_555 1_555
H26 C9 1_555 1_555
C10 H27 1_555 1_555
H28 C10 1_555 1_555
H29 C10 1_555 1_555
C11 C10 1_555 1_555
H30 C11 1_555 1_555
H31 C11 1_555 1_555
O3 C11 1_555 1_555
H32 O3 1_555 1_555
C12 O3 1_555 1_555
H33 C12 1_555 1_555
H34 C12 1_555 1_555
C13 C12 1_555 1_555
H35 C13 1_555 1_555
H36 C13 1_555 1_555
H37 C13 1_555 1_555
B1 B2 1_555 1_555
B1 B5 1_555 1_555
B2 B7 1_555 1_555
B2 B3 1_555 1_555
B3 B8 1_555 1_555
B3 B4 1_555 1_555
B4 B9 1_555 1_555
B4 B5 1_555 1_555
B5 B6 1_555 1_555
B5 B10 1_555 1_555
B6 B7 1_555 1_555
B6 B10 1_555 1_555
B7 B8 1_555 1_555
B7 B11 1_555 1_555
B8 B11 1_555 1_555
B8 B9 1_555 1_555
B9 B10 1_555 1_555
B9 B11 1_555 1_555
B10 B11 1_555 1_555

#END
