
#######################################################################
#
#                 Cambridge Crystallographic Data Centre
#                                CCDC 
#
#######################################################################
#
# If this CIF has been generated from an entry in the Cambridge 
# Structural Database, then it will include bibliographic, chemical, 
# crystal, experimental, refinement or atomic coordinate data resulting 
# from the CCDC's data processing and validation procedures.
#
#######################################################################

data_UHAVAB
_chemical_name_common            N-(1-Naphthyl)succinimide
_chemical_formula_moiety         'C14 H11 N1 O2'
_chemical_name_systematic        1-(1-Naphthyl)pyrrolidine-2,5-dione
_symmetry_cell_setting           orthorhombic
_symmetry_space_group_name_H-M   'P 21 21 21'
_symmetry_Int_Tables_number      19
_space_group_name_Hall           'P 2ac 2ab'
loop_
_symmetry_equiv_pos_site_id
_symmetry_equiv_pos_as_xyz
1 x,y,z
2 1/2-x,-y,1/2+z
3 1/2+x,1/2-y,-z
4 -x,1/2+y,1/2-z
_cell_length_a                   8.735(4)
_cell_length_b                   9.807(4)
_cell_length_c                   13.729(5)
_cell_angle_alpha                90
_cell_angle_beta                 90
_cell_angle_gamma                90
_cell_volume                     1176.08
_chemical_melting_point          '159-160.5 deg.C'
_cell_formula_units_Z            4
loop_
_atom_site_label
_atom_site_type_symbol
_atom_site_fract_x
_atom_site_fract_y
_atom_site_fract_z
O1 O 0.5971(2) 0.50649(16) 0.68076(10)
O2 O 0.3258(2) 0.21089(16) 0.49574(14)
N1 N 0.44897(18) 0.38176(15) 0.57653(10)
C1 C 0.3646(2) 0.49396(19) 0.53518(13)
C2 C 0.2528(3) 0.5536(2) 0.58674(16)
H1 H 0.2338 0.5243 0.6500
C3 C 0.1648(3) 0.6580(2) 0.54795(19)
H2 H 0.0880 0.6979 0.5852
C4 C 0.1906(3) 0.7017(2) 0.45605(18)
H3 H 0.1297 0.7703 0.4298
C5 C 0.3095(2) 0.64407(19) 0.39935(14)
C6 C 0.3425(3) 0.6916(2) 0.30538(16)
H4 H 0.2825 0.7599 0.2779
C7 C 0.4599(3) 0.6393(2) 0.25484(16)
H5 H 0.4808 0.6722 0.1927
C8 C 0.5515(3) 0.5361(2) 0.29414(16)
H6 H 0.6331 0.5020 0.2582
C9 C 0.5224(2) 0.4854(2) 0.38411(14)
H7 H 0.5831 0.4157 0.4090
C10 C 0.3999(2) 0.53813(18) 0.44036(13)
C11 C 0.5565(2) 0.3972(2) 0.65014(14)
C12 C 0.6030(3) 0.2581(2) 0.68288(15)
H8 H 0.5735 0.2431 0.7501
H9 H 0.7130 0.2466 0.6773
C13 C 0.5200(3) 0.1600(2) 0.61622(16)
H10 H 0.5922 0.1097 0.5764
H11 H 0.4596 0.0957 0.6537
C14 C 0.4193(3) 0.2465(2) 0.55430(15)
loop_
_geom_bond_atom_site_label_1
_geom_bond_atom_site_label_2
_geom_bond_site_symmetry_1
_geom_bond_site_symmetry_2
O1 C11 1_555 1_555
O2 C14 1_555 1_555
N1 C1 1_555 1_555
C1 C2 1_555 1_555
C2 H1 1_555 1_555
C3 C2 1_555 1_555
H2 C3 1_555 1_555
C4 C3 1_555 1_555
H3 C4 1_555 1_555
C5 C4 1_555 1_555
C6 C5 1_555 1_555
H4 C6 1_555 1_555
C7 C6 1_555 1_555
H5 C7 1_555 1_555
C8 C7 1_555 1_555
H6 C8 1_555 1_555
C9 C8 1_555 1_555
H7 C9 1_555 1_555
C10 C1 1_555 1_555
C11 N1 1_555 1_555
C12 C11 1_555 1_555
H8 C12 1_555 1_555
H9 C12 1_555 1_555
C13 C12 1_555 1_555
H10 C13 1_555 1_555
H11 C13 1_555 1_555
C14 N1 1_555 1_555
C5 C10 1_555 1_555
C9 C10 1_555 1_555
C13 C14 1_555 1_555

#END
