
#######################################################################
#
#                 Cambridge Crystallographic Data Centre
#                                CCDC 
#
#######################################################################
#
# If this CIF has been generated from an entry in the Cambridge 
# Structural Database, then it will include bibliographic, chemical, 
# crystal, experimental, refinement or atomic coordinate data resulting 
# from the CCDC's data processing and validation procedures.
#
#######################################################################

data_UHAXEI
_chemical_formula_moiety         'C18 H20 N2 O4,2(C6 H4 Cl1 N3 O4)'
_chemical_name_systematic        
"2,2'-(ethane-1,2-diylbis(nitrilomethylylidene))bis(6-methoxyphenol) bis(2-chloro-4,6-dinitroaniline)"
_symmetry_cell_setting           monoclinic
_symmetry_space_group_name_H-M   'P 21/c'
_symmetry_Int_Tables_number      14
_space_group_name_Hall           '-P 2ybc'
loop_
_symmetry_equiv_pos_site_id
_symmetry_equiv_pos_as_xyz
1 x,y,z
2 -x,1/2+y,1/2-z
3 -x,-y,-z
4 x,1/2-y,1/2+z
_cell_length_a                   5.0104(2)
_cell_length_b                   33.9414(14)
_cell_length_c                   9.9580(4)
_cell_angle_alpha                90
_cell_angle_beta                 96.359(2)
_cell_angle_gamma                90
_cell_volume                     1683.04
_exptl_crystal_colour            red
_exptl_crystal_description       needle
_chemical_melting_point          '406.36 K'
_cell_formula_units_Z            2
loop_
_atom_site_label
_atom_site_type_symbol
_atom_site_fract_x
_atom_site_fract_y
_atom_site_fract_z
Cl1 Cl 0.41128(12) 0.451901(16) 0.17505(6)
N1 N 1.0945(4) 0.44095(7) -0.16778(17)
C1 C 0.7563(5) 0.36189(6) 0.0033(2)
C2 C 0.7650(4) 0.44310(6) -0.00442(19)
H1 H 0.7687 0.4705 -0.0079
C3 C 0.9221(4) 0.42079(6) -0.0828(2)
C4 C 0.5911(4) 0.38246(6) 0.0859(2)
N2 N 0.4324(4) 0.36565(6) 0.16703(19)
H2 H 0.4246 0.3404 0.1722
H3 H 0.3370 0.3800 0.2146
C5 C 0.9197(5) 0.38078(7) -0.0795(2)
H4 H 1.0264 0.3663 -0.1323
O1 O 1.0831(4) 0.47686(6) -0.17410(17)
C6 C 0.6065(4) 0.42433(6) 0.07713(19)
O2 O 1.2451(4) 0.42127(6) -0.22983(18)
N3 N 0.7629(5) 0.31912(6) 0.0018(2)
O3 O 0.6045(5) 0.30030(6) 0.0617(3)
O4 O 0.9321(6) 0.30336(6) -0.0578(3)
N4 N 0.8772(3) 0.44907(5) 0.46866(17)
O5 O 1.0583(3) 0.39073(4) 0.34506(16)
H5 H 1.0395 0.4138 0.3667
C7 C 0.9213(5) 0.36729(6) 0.4221(2)
O6 O 1.0951(4) 0.31426(5) 0.30938(19)
C8 C 0.7631(4) 0.38261(6) 0.5160(2)
C9 C 0.7460(4) 0.42492(6) 0.5343(2)
H6 H 0.6359 0.4347 0.5958
C10 C 0.8601(4) 0.49118(6) 0.4907(2)
H7 H 0.7701 0.4962 0.5703
H8 H 0.7560 0.5034 0.4138
C11 C 0.9396(5) 0.32618(6) 0.4057(2)
C12 C 0.6217(5) 0.35691(7) 0.5926(3)
H9 H 0.5140 0.3669 0.6548
C13 C 0.8025(6) 0.30170(7) 0.4835(3)
H10 H 0.8167 0.2745 0.4745
C14 C 0.6424(6) 0.31727(8) 0.5759(3)
H11 H 0.5481 0.3004 0.6270
C15 C 1.1341(7) 0.27273(8) 0.2943(3)
H12 H 1.2051 0.2617 0.3796
H13 H 1.2579 0.2682 0.2290
H14 H 0.9653 0.2605 0.2643
N4B N 1.1228(3) 0.55093(5) 0.53134(17)
O5B O 0.9417(3) 0.60927(4) 0.65494(16)
H5B H 0.9605 0.5862 0.6333
C7B C 1.0787(5) 0.63271(6) 0.5779(2)
O6B O 0.9049(4) 0.68574(5) 0.69062(19)
C8B C 1.2369(4) 0.61739(6) 0.4840(2)
C9B C 1.2540(4) 0.57508(6) 0.4657(2)
H6B H 1.3641 0.5653 0.4042
C10B C 1.1399(4) 0.50882(6) 0.5093(2)
H7B H 1.2299 0.5038 0.4297
H8B H 1.2440 0.4966 0.5862
C11B C 1.0604(5) 0.67382(6) 0.5943(2)
C12B C 1.3783(5) 0.64309(7) 0.4074(3)
H9B H 1.4860 0.6331 0.3452
C13B C 1.1975(6) 0.69830(7) 0.5165(3)
H10B H 1.1833 0.7255 0.5255
C14B C 1.3576(6) 0.68273(8) 0.4241(3)
H11B H 1.4519 0.6996 0.3730
C15B C 0.8659(7) 0.72727(8) 0.7057(3)
H12B H 0.7949 0.7383 0.6204
H13B H 0.7421 0.7318 0.7710
H14B H 1.0347 0.7395 0.7357
loop_
_geom_bond_atom_site_label_1
_geom_bond_atom_site_label_2
_geom_bond_site_symmetry_1
_geom_bond_site_symmetry_2
Cl1 C6 1_555 1_555
N1 C3 1_555 1_555
C1 C4 1_555 1_555
C2 H1 1_555 1_555
C3 C2 1_555 1_555
C4 N2 1_555 1_555
N2 H2 1_555 1_555
H3 N2 1_555 1_555
C5 C1 1_555 1_555
H4 C5 1_555 1_555
O1 N1 1_555 1_555
C6 C2 1_555 1_555
O2 N1 1_555 1_555
N3 C1 1_555 1_555
O3 N3 1_555 1_555
O4 N3 1_555 1_555
N4 C9 1_555 1_555
O5 H5 1_555 1_555
C7 O5 1_555 1_555
O6 C11 1_555 1_555
C8 C7 1_555 1_555
C9 C8 1_555 1_555
H6 C9 1_555 1_555
C10 N4 1_555 1_555
H7 C10 1_555 1_555
H8 C10 1_555 1_555
C11 C7 1_555 1_555
C12 C8 1_555 1_555
H9 C12 1_555 1_555
C13 C11 1_555 1_555
H10 C13 1_555 1_555
C14 C12 1_555 1_555
H11 C14 1_555 1_555
C15 O6 1_555 1_555
H12 C15 1_555 1_555
H13 C15 1_555 1_555
H14 C15 1_555 1_555
N4B C9B 1_555 1_555
O5B H5B 1_555 1_555
C7B O5B 1_555 1_555
O6B C11B 1_555 1_555
C8B C7B 1_555 1_555
C9B C8B 1_555 1_555
H6B C9B 1_555 1_555
C10B C10 1_555 1_555
H7B C10B 1_555 1_555
H8B C10B 1_555 1_555
C11B C7B 1_555 1_555
C12B C8B 1_555 1_555
H9B C12B 1_555 1_555
C13B C11B 1_555 1_555
H10B C13B 1_555 1_555
C14B C12B 1_555 1_555
H11B C14B 1_555 1_555
C15B O6B 1_555 1_555
H12B C15B 1_555 1_555
H13B C15B 1_555 1_555
H14B C15B 1_555 1_555
C3 C5 1_555 1_555
C4 C6 1_555 1_555
C13 C14 1_555 1_555
N4B C10B 1_555 1_555
C13B C14B 1_555 1_555

#END
