
#######################################################################
#
#                 Cambridge Crystallographic Data Centre
#                                CCDC 
#
#######################################################################
#
# If this CIF has been generated from an entry in the Cambridge 
# Structural Database, then it will include bibliographic, chemical, 
# crystal, experimental, refinement or atomic coordinate data resulting 
# from the CCDC's data processing and validation procedures.
#
#######################################################################

data_UHELID
_chemical_name_common            
(Z)-9-((2-Bromo-2-phenyl)etheneyl)-4,5-diazafluoren-9-ol
_chemical_formula_moiety         'C19 H13 Br1 N2 O1'
_chemical_name_systematic        
5-(2-Bromo-2-phenylvinyl)-5H-pyrido[3',2':4,5]cyclopenta[1,2-b]pyridin-5-ol
_symmetry_cell_setting           triclinic
_symmetry_space_group_name_H-M   'P -1'
_symmetry_Int_Tables_number      2
_space_group_name_Hall           '-P 1'
loop_
_symmetry_equiv_pos_site_id
_symmetry_equiv_pos_as_xyz
1 x,y,z
2 -x,-y,-z
_cell_length_a                   8.2371(12)
_cell_length_b                   9.3676(14)
_cell_length_c                   10.2678(15)
_cell_angle_alpha                85.532(3)
_cell_angle_beta                 81.873(2)
_cell_angle_gamma                84.309(3)
_cell_volume                     778.817
_exptl_crystal_colour            colorless
_exptl_crystal_description       plate
_cell_formula_units_Z            2
_exptl_crystal_recrystallization_method 'dichloromethane/diethyl ether'
loop_
_atom_site_label
_atom_site_type_symbol
_atom_site_fract_x
_atom_site_fract_y
_atom_site_fract_z
C1 C 0.0567(4) 0.6838(3) 0.4663(3)
H1 H 0.1434 0.6206 0.4261
C2 C -0.1047(4) 0.6857(3) 0.4371(3)
H2 H -0.1304 0.6205 0.3783
C3 C -0.2263(4) 0.7826(3) 0.4941(3)
H3 H -0.3338 0.7838 0.4703
N1 N -0.2011(3) 0.8762(3) 0.5822(3)
C4 C -0.0480(4) 0.8690(3) 0.6115(3)
C5 C 0.0128(4) 0.9566(3) 0.7047(3)
N2 N -0.0774(3) 1.0525(3) 0.7800(3)
C6 C 0.0080(5) 1.1185(3) 0.8564(3)
H4 H -0.0510 1.1878 0.9122
C7 C 0.1769(4) 1.0923(4) 0.8595(3)
H5 H 0.2299 1.1435 0.9152
C8 C 0.2674(4) 0.9904(3) 0.7802(3)
H6 H 0.3827 0.9699 0.7800
C9 C 0.1820(4) 0.9206(3) 0.7019(3)
C10 C 0.2437(4) 0.8037(3) 0.6057(3)
O1 O 0.3638(3) 0.8500(2) 0.5017(2)
H7 H 0.3258 0.9257 0.4630
C11 C 0.0840(4) 0.7776(3) 0.5559(3)
C12 C 0.3285(4) 0.6721(3) 0.6726(3)
H8 H 0.4410 0.6505 0.6389
C13 C 0.2704(4) 0.5833(3) 0.7700(3)
Br1 Br 0.04511(4) 0.61243(3) 0.84753(3)
C14 C 0.3642(4) 0.4569(3) 0.8301(3)
C15 C 0.4818(4) 0.3735(3) 0.7505(3)
H9 H 0.4990 0.3953 0.6579
C16 C 0.5737(4) 0.2587(4) 0.8063(4)
H10 H 0.6543 0.2024 0.7519
C17 C 0.5483(4) 0.2256(4) 0.9418(4)
H11 H 0.6115 0.1469 0.9797
C18 C 0.4309(4) 0.3072(4) 1.0211(3)
H12 H 0.4131 0.2841 1.1135
C19 C 0.3388(4) 0.4228(3) 0.9664(3)
H13 H 0.2586 0.4788 1.0214
loop_
_geom_bond_atom_site_label_1
_geom_bond_atom_site_label_2
_geom_bond_site_symmetry_1
_geom_bond_site_symmetry_2
C1 H1 1_555 1_555
C2 C1 1_555 1_555
H2 C2 1_555 1_555
C3 C2 1_555 1_555
H3 C3 1_555 1_555
N1 C3 1_555 1_555
C4 N1 1_555 1_555
C5 C4 1_555 1_555
N2 C5 1_555 1_555
C6 N2 1_555 1_555
H4 C6 1_555 1_555
C7 C6 1_555 1_555
H5 C7 1_555 1_555
C8 C7 1_555 1_555
H6 C8 1_555 1_555
C9 C5 1_555 1_555
C10 C9 1_555 1_555
O1 C10 1_555 1_555
H7 O1 1_555 1_555
C11 C1 1_555 1_555
C12 C10 1_555 1_555
H8 C12 1_555 1_555
C13 C12 1_555 1_555
Br1 C13 1_555 1_555
C14 C13 1_555 1_555
C15 C14 1_555 1_555
H9 C15 1_555 1_555
C16 C15 1_555 1_555
H10 C16 1_555 1_555
C17 C16 1_555 1_555
H11 C17 1_555 1_555
C18 C17 1_555 1_555
H12 C18 1_555 1_555
C19 C14 1_555 1_555
H13 C19 1_555 1_555
C4 C11 1_555 1_555
C8 C9 1_555 1_555
C10 C11 1_555 1_555
C18 C19 1_555 1_555

#END
