
#######################################################################
#
#                 Cambridge Crystallographic Data Centre
#                                CCDC 
#
#######################################################################
#
# If this CIF has been generated from an entry in the Cambridge 
# Structural Database, then it will include bibliographic, chemical, 
# crystal, experimental, refinement or atomic coordinate data resulting 
# from the CCDC's data processing and validation procedures.
#
#######################################################################

data_UHEROP
_chemical_formula_moiety         'C21 H39 N8 3+,3(N1 O3 1-),3(H2 O1)'
_chemical_name_systematic        
'1,8,11,18,27-Penta-aza-4,14,23-triazoniabicyclo[9.9.9]nonacosa-4,6,14,16,23,25-hexaene trinitrate trihydrate'
_symmetry_cell_setting           hexagonal
_symmetry_space_group_name_H-M   'P 63/m'
_symmetry_Int_Tables_number      176
_space_group_name_Hall           '-P 6c'
loop_
_symmetry_equiv_pos_site_id
_symmetry_equiv_pos_as_xyz
1 x,y,z
2 -y,x-y,z
3 -x+y,-x,z
4 -x,-y,1/2+z
5 y,-x+y,1/2+z
6 x-y,x,1/2+z
7 -x,-y,-z
8 y,-x+y,-z
9 x-y,x,-z
10 x,y,1/2-z
11 -y,x-y,1/2-z
12 -x+y,-x,1/2-z
_cell_length_a                   8.4018(5)
_cell_length_b                   8.4018(5)
_cell_length_c                   26.022(2)
_cell_angle_alpha                90
_cell_angle_beta                 90
_cell_angle_gamma                120
_cell_volume                     1590.8
_exptl_crystal_colour            colorless
_exptl_crystal_description       'hexagonal plate'
_cell_formula_units_Z            2
loop_
_atom_site_label
_atom_site_type_symbol
_atom_site_fract_x
_atom_site_fract_y
_atom_site_fract_z
O1 O 0.5280(4) 0.3484(4) 0.17072(14)
N3 N 0.6667 0.3333 0.1706(2)
O1A O 0.6516(4) 0.1796(6) 0.17072(14)
O1B O 0.8204(6) 0.4720(4) 0.17072(14)
N1 N 1.0000 1.0000 0.0949(2)
C1 C 0.8202(5) 0.8512(5) 0.07673(15)
H1 H 0.8216 0.7365 0.0768
H2 H 0.8016 0.8768 0.0416
C2 C 0.6609(5) 0.8288(5) 0.10930(16)
H3 H 0.6726 0.9483 0.1150
H4 H 0.5466 0.7531 0.0910
N2 N 0.6548(4) 0.7440(4) 0.15882(13)
H5 H 0.6320 0.6321 0.1583
C3 C 0.6807(5) 0.8217(5) 0.20373(15)
H6 H 0.7094 0.9439 0.2048
C4 C 0.6682(7) 0.7345(7) 0.2500
H7 H 0.6513 0.6164 0.2500
N1I N 1.0000 1.0000 0.4051(2)
C1A C 1.1488(5) 0.9690(7) 0.07673(15)
C1B C 1.0310(7) 1.1798(5) 0.07673(15)
C1I C 0.8202(5) 0.8512(5) 0.42327(15)
C1J C 1.1488(5) 0.9690(7) 0.42327(15)
C1K C 1.0310(7) 1.1798(5) 0.42327(15)
H1A H 1.2635 1.0851 0.0768
H1B H 0.9149 1.1784 0.0768
H1I H 0.8216 0.7365 0.4232
H1J H 1.2635 1.0851 0.4232
H1K H 0.9149 1.1784 0.4232
H2A H 1.1232 0.9248 0.0416
H2B H 1.0752 1.1984 0.0416
H2I H 0.8016 0.8768 0.4584
H2J H 1.1232 0.9248 0.4584
H2K H 1.0752 1.1984 0.4584
C2A C 1.1712(5) 0.8321(7) 0.10930(16)
C2B C 1.1679(7) 1.3391(5) 0.10930(16)
C2I C 0.6609(5) 0.8288(5) 0.39070(16)
C2J C 1.1712(5) 0.8321(7) 0.39070(16)
C2K C 1.1679(7) 1.3391(5) 0.39070(16)
H3A H 1.0517 0.7243 0.1150
H3B H 1.2757 1.3274 0.1150
H3I H 0.6726 0.9483 0.3850
H3J H 1.0517 0.7243 0.3850
H3K H 1.2757 1.3274 0.3850
H4A H 1.2469 0.7935 0.0910
H4B H 1.2065 1.4534 0.0910
H4I H 0.5466 0.7531 0.4090
H4J H 1.2469 0.7935 0.4090
H4K H 1.2065 1.4534 0.4090
N2A N 1.2560(4) 0.9108(6) 0.15882(13)
N2B N 1.0892(6) 1.3452(4) 0.15882(13)
N2I N 0.6548(4) 0.7440(4) 0.34118(13)
N2J N 1.2560(4) 0.9108(6) 0.34118(13)
N2K N 1.0892(6) 1.3452(4) 0.34118(13)
H5A H 1.3679 0.9999 0.1583
H5B H 1.0001 1.3680 0.1583
H5I H 0.6320 0.6321 0.3417
H5J H 1.3679 0.9999 0.3417
H5K H 1.0001 1.3680 0.3417
C3A C 1.1783(5) 0.8590(7) 0.20373(15)
C3B C 1.1410(7) 1.3193(5) 0.20373(15)
C3I C 0.6807(5) 0.8217(5) 0.29627(15)
C3J C 1.1783(5) 0.8590(7) 0.29627(15)
C3K C 1.1410(7) 1.3193(5) 0.29627(15)
H6A H 1.0561 0.7655 0.2048
H6B H 1.2345 1.2906 0.2048
H6I H 0.7094 0.9439 0.2952
H6J H 1.0561 0.7655 0.2952
H6K H 1.2345 1.2906 0.2952
C4A C 1.2655(7) 0.9337(10) 0.2500
C4B C 1.0663(10) 1.3318(7) 0.2500
H7A H 1.3836 1.0349 0.2500
H7B H 0.9651 1.3487 0.2500
loop_
_geom_bond_atom_site_label_1
_geom_bond_atom_site_label_2
_geom_bond_site_symmetry_1
_geom_bond_site_symmetry_2
N1 C1 1_555 1_555
C1 H1 1_555 1_555
H2 C1 1_555 1_555
C2 C1 1_555 1_555
H3 C2 1_555 1_555
H4 C2 1_555 1_555
N2 C2 1_555 1_555
H5 N2 1_555 1_555
C3 N2 1_555 1_555
H6 C3 1_555 1_555
C4 C3 1_555 1_555
H7 C4 1_555 1_555
O1 N3 1_555 1_555
N3 O1A 1_555 1_555
N1I C1I 1_555 1_555
C1A N1 1_555 1_555
C1B N1 1_555 1_555
C1I H1I 1_555 1_555
C1J N1I 1_555 1_555
C1K N1I 1_555 1_555
H1A C1A 1_555 1_555
H1B C1B 1_555 1_555
H1J C1J 1_555 1_555
H1K C1K 1_555 1_555
H2A C1A 1_555 1_555
H2B C1B 1_555 1_555
H2I C1I 1_555 1_555
H2J C1J 1_555 1_555
H2K C1K 1_555 1_555
C2A C1A 1_555 1_555
C2B C1B 1_555 1_555
C2I C1I 1_555 1_555
C2J C1J 1_555 1_555
C2K C1K 1_555 1_555
H3A C2A 1_555 1_555
H3B C2B 1_555 1_555
H3I C2I 1_555 1_555
H3J C2J 1_555 1_555
H3K C2K 1_555 1_555
H4A C2A 1_555 1_555
H4B C2B 1_555 1_555
H4I C2I 1_555 1_555
H4J C2J 1_555 1_555
H4K C2K 1_555 1_555
N2A C2A 1_555 1_555
N2B C2B 1_555 1_555
N2I C2I 1_555 1_555
N2J C2J 1_555 1_555
N2K C2K 1_555 1_555
H5A N2A 1_555 1_555
H5B N2B 1_555 1_555
H5I N2I 1_555 1_555
H5J N2J 1_555 1_555
H5K N2K 1_555 1_555
C3A N2A 1_555 1_555
C3B N2B 1_555 1_555
C3I C4 1_555 1_555
C3J N2J 1_555 1_555
C3K N2K 1_555 1_555
H6A C3A 1_555 1_555
H6B C3B 1_555 1_555
H6I C3I 1_555 1_555
H6J C3J 1_555 1_555
H6K C3K 1_555 1_555
C4A C3A 1_555 1_555
C4B C3B 1_555 1_555
H7A C4A 1_555 1_555
H7B C4B 1_555 1_555
O1B N3 1_555 1_555
N2I C3I 1_555 1_555
C3J C4A 1_555 1_555
C3K C4B 1_555 1_555

#END
