
#######################################################################
#
#                 Cambridge Crystallographic Data Centre
#                                CCDC 
#
#######################################################################
#
# If this CIF has been generated from an entry in the Cambridge 
# Structural Database, then it will include bibliographic, chemical, 
# crystal, experimental, refinement or atomic coordinate data resulting 
# from the CCDC's data processing and validation procedures.
#
#######################################################################

data_UHERIJ
_chemical_formula_moiety         'C21 H39 N8 3+,3(Cl1 1-),3(H2 O1)'
_chemical_name_systematic        
'1,8,11,18,27-Penta-aza-4,14,23-triazoniabicyclo[9.9.9]nonacosa-4,6,14,16,23,25-hexaene trichloride trihydrate'
_symmetry_cell_setting           hexagonal
_symmetry_space_group_name_H-M   'P -6'
_symmetry_Int_Tables_number      174
_space_group_name_Hall           'P -6'
loop_
_symmetry_equiv_pos_site_id
_symmetry_equiv_pos_as_xyz
1 x,y,z
2 -y,x-y,z
3 -x+y,-x,z
4 x,y,-z
5 -y,x-y,-z
6 -x+y,-x,-z
_cell_length_a                   7.9230(5)
_cell_length_b                   7.9230(5)
_cell_length_c                   13.4371(11)
_cell_angle_alpha                90
_cell_angle_beta                 90
_cell_angle_gamma                120
_cell_volume                     730.492
_exptl_crystal_colour            colorless
_exptl_crystal_description       plate
_cell_formula_units_Z            1
_exptl_crystal_recrystallization_method ether
loop_
_atom_site_label
_atom_site_type_symbol
_atom_site_fract_x
_atom_site_fract_y
_atom_site_fract_z
Cl2 Cl -0.3333 0.3333 0.5000
N1 N 0.3333 0.6667 -0.30729(15)
C1 C 0.4899(3) 0.6328(2) -0.34095(10)
H1 H 0.4606 0.5784 -0.4092
H2 H 0.6139 0.7586 -0.3432
C2 C 0.5135(3) 0.4933(2) -0.27267(11)
H3 H 0.5987 0.4513 -0.3050
H4 H 0.3847 0.3761 -0.2612
N2 N 0.59841(26) 0.58589(18) -0.17710(8)
C3 C 0.5217(4) 0.5182(2) -0.08953(11)
C4 C 0.6075(4) 0.6064(3) 0.0000
H5 H 0.7033 0.6963 -0.1819
H6 H 0.4007 0.4048 -0.0886
H7 H 0.7178 0.7262 0.0000
N1C N 0.3333 0.6667 0.30729(15)
C1C C 0.4899(3) 0.6328(2) 0.34095(10)
C1D C 0.3672(2) 0.8571(4) 0.34095(10)
C1A C 0.3672(2) 0.8571(4) -0.34095(10)
C1B C 0.1429(4) 0.5101(3) -0.34095(10)
C1E C 0.1429(4) 0.5101(3) 0.34095(10)
H1D H 0.4216 0.8822 0.4092
H1B H 0.1178 0.5394 -0.4092
H1E H 0.1178 0.5394 0.4092
H1A H 0.4216 0.8822 -0.4092
H1C H 0.4606 0.5784 0.4092
H2D H 0.2414 0.8553 0.3432
H2B H 0.1447 0.3861 -0.3432
H2E H 0.1447 0.3861 0.3432
H2A H 0.2414 0.8553 -0.3432
H2C H 0.6139 0.7586 0.3432
C2C C 0.5135(3) 0.4933(2) 0.27267(11)
C2D C 0.5067(2) 1.0202(4) 0.27267(11)
C2A C 0.5067(2) 1.0202(4) -0.27267(11)
C2B C -0.0202(4) 0.4865(3) -0.27267(11)
C2E C -0.0202(4) 0.4865(3) 0.27267(11)
H3D H 0.5487 1.1474 0.3050
H3B H -0.1474 0.4013 -0.3050
H3E H -0.1474 0.4013 0.3050
H3A H 0.5487 1.1474 -0.3050
H3C H 0.5987 0.4513 0.3050
H4D H 0.6239 1.0086 0.2612
H4B H -0.0086 0.6153 -0.2612
H4E H -0.0086 0.6153 0.2612
H4A H 0.6239 1.0086 -0.2612
H4C H 0.3847 0.3761 0.2612
N2C N 0.59841(26) 0.58589(18) 0.17710(8)
N2D N 0.41411(18) 1.01252(32) 0.17710(8)
N2A N 0.41411(18) 1.01252(32) -0.17710(8)
N2B N -0.01252(32) 0.40159(26) -0.17710(8)
N2E N -0.01252(32) 0.40159(26) 0.17710(8)
C3C C 0.5217(4) 0.5182(2) 0.08953(11)
C3D C 0.4818(2) 1.0035(4) 0.08953(11)
C3A C 0.4818(2) 1.0035(4) -0.08953(11)
C3B C -0.0035(4) 0.4783(4) -0.08953(11)
C3E C -0.0035(4) 0.4783(4) 0.08953(11)
C4A C 0.3936(3) 1.0011(5) 0.0000
C4B C -0.0011(5) 0.3925(4) 0.0000
H5E H -0.0070 0.2967 0.1819
H5B H -0.0070 0.2967 -0.1819
H5A H 0.3037 1.0070 -0.1819
H5D H 0.3037 1.0070 0.1819
H5C H 0.7033 0.6963 0.1819
H6E H 0.0041 0.5993 0.0886
H6B H 0.0041 0.5993 -0.0886
H6A H 0.5952 0.9959 -0.0886
H6D H 0.5952 0.9959 0.0886
H6C H 0.4007 0.4048 0.0886
H7B H 0.0084 0.2822 0.0000
H7A H 0.2738 0.9916 0.0000
O1 O -0.0593(4) 0.7783(4) 0.4631(2)
H8 H -0.1161 0.8235 0.5000
H9 H -0.1236 0.6600 0.5000
O1C O -0.0593(4) 0.7783(4) 0.5369(2)
Cl1 Cl 0.0000 1.0000 0.16448(5)
loop_
_geom_bond_atom_site_label_1
_geom_bond_atom_site_label_2
_geom_bond_site_symmetry_1
_geom_bond_site_symmetry_2
N1 C1 1_555 1_555
C1 H1 1_555 1_555
H2 C1 1_555 1_555
C2 C1 1_555 1_555
H3 C2 1_555 1_555
H4 C2 1_555 1_555
N2 C2 1_555 1_555
C3 N2 1_555 1_555
C4 C3 1_555 1_555
O1 H8 1_555 1_555
H5 N2 1_555 1_555
H6 C3 1_555 1_555
H7 C4 1_555 1_555
H8 O1C 1_555 1_555
H9 O1 1_555 1_555
N1C C1C 1_555 1_555
C1C H1C 1_555 1_555
C1D N1C 1_555 1_555
C1A N1 1_555 1_555
C1B N1 1_555 1_555
C1E N1C 1_555 1_555
H1D C1D 1_555 1_555
H1B C1B 1_555 1_555
H1E C1E 1_555 1_555
H1A C1A 1_555 1_555
H2D C1D 1_555 1_555
H2B C1B 1_555 1_555
H2E C1E 1_555 1_555
H2A C1A 1_555 1_555
H2C C1C 1_555 1_555
C2C C1C 1_555 1_555
C2D C1D 1_555 1_555
C2A C1A 1_555 1_555
C2B C1B 1_555 1_555
C2E C1E 1_555 1_555
H3D C2D 1_555 1_555
H3B C2B 1_555 1_555
H3E C2E 1_555 1_555
H3A C2A 1_555 1_555
H3C C2C 1_555 1_555
H4D C2D 1_555 1_555
H4B C2B 1_555 1_555
H4E C2E 1_555 1_555
H4A C2A 1_555 1_555
H4C C2C 1_555 1_555
N2C C2C 1_555 1_555
N2D C2D 1_555 1_555
N2A C2A 1_555 1_555
N2B C2B 1_555 1_555
N2E C2E 1_555 1_555
C3C C4 1_555 1_555
C3D N2D 1_555 1_555
C3A N2A 1_555 1_555
C3B N2B 1_555 1_555
C3E N2E 1_555 1_555
C4A C3D 1_555 1_555
C4B C3B 1_555 1_555
O1C H9 1_555 1_555
H5E N2E 1_555 1_555
H5B N2B 1_555 1_555
H5A N2A 1_555 1_555
H5D N2D 1_555 1_555
H5C N2C 1_555 1_555
H6E C3E 1_555 1_555
H6B C3B 1_555 1_555
H6A C3A 1_555 1_555
H6D C3D 1_555 1_555
H6C C3C 1_555 1_555
H7B C4B 1_555 1_555
H7A C4A 1_555 1_555
N2C C3C 1_555 1_555
C3A C4A 1_555 1_555
C3E C4B 1_555 1_555

#END
