
#######################################################################
#
#                 Cambridge Crystallographic Data Centre
#                                CCDC 
#
#######################################################################
#
# If this CIF has been generated from an entry in the Cambridge 
# Structural Database, then it will include bibliographic, chemical, 
# crystal, experimental, refinement or atomic coordinate data resulting 
# from the CCDC's data processing and validation procedures.
#
#######################################################################

data_UHEWEJ
_chemical_formula_moiety         'C20 H16 S2'
_chemical_name_systematic        
(1R*,4S*)-1,4-Dihydro-1,4-diphenyl-2,3-benzodithiin
_symmetry_cell_setting           monoclinic
_symmetry_space_group_name_H-M   'P 21/c'
_symmetry_Int_Tables_number      14
_space_group_name_Hall           '-P 2ybc'
loop_
_symmetry_equiv_pos_site_id
_symmetry_equiv_pos_as_xyz
1 x,y,z
2 x,1/2-y,1/2+z
3 -x,-y,-z
4 -x,1/2+y,1/2-z
_cell_length_a                   12.689(2)
_cell_length_b                   8.080(3)
_cell_length_c                   16.942(3)
_cell_angle_alpha                90
_cell_angle_beta                 109.18(1)
_cell_angle_gamma                90
_cell_volume                     1640.59
_exptl_crystal_colour            colorless
_exptl_crystal_description       prismatic
_chemical_melting_point          113.0-113.5deg.C
_cell_formula_units_Z            4
loop_
_atom_site_label
_atom_site_type_symbol
_atom_site_fract_x
_atom_site_fract_y
_atom_site_fract_z
S1 S 0.62990(8) 0.0484(1) 0.95204(6)
S2 S 0.50584(7) -0.0983(1) 0.88033(6)
C1 C 0.7095(3) -0.1112(4) 1.0234(2)
C2 C 0.5879(3) -0.2237(4) 0.8330(2)
C3 C 0.7228(4) -0.4512(5) 0.8679(3)
C4 C 0.8082(4) -0.5463(6) 0.9192(4)
C5 C 0.8599(4) -0.4999(6) 0.9998(4)
C6 C 0.8266(4) -0.3579(5) 1.0286(3)
C7 C 0.6868(3) -0.3078(4) 0.8970(2)
C8 C 0.7403(3) -0.2588(4) 0.9791(2)
C9 C 0.8080(3) -0.0263(4) 1.0845(2)
C10 C 0.8906(4) 0.0449(6) 1.0581(3)
C11 C 0.9816(5) 0.1218(7) 1.1161(5)
C12 C 0.9887(7) 0.1275(8) 1.1977(5)
C13 C 0.9074(7) 0.0571(10) 1.2248(4)
C14 C 0.8167(5) -0.0172(7) 1.1676(3)
C15 C 0.6150(3) -0.1352(4) 0.7637(2)
C16 C 0.5420(4) -0.1472(5) 0.6834(2)
C17 C 0.5619(5) -0.0653(7) 0.6192(3)
C18 C 0.6540(5) 0.0306(7) 0.6325(3)
C19 C 0.7273(5) 0.0443(7) 0.7123(4)
C20 C 0.7099(3) -0.0404(6) 0.7779(3)
H1 H 0.659(3) -0.148(4) 1.052(2)
H2 H 0.538(3) -0.306(4) 0.812(2)
H3 H 0.688(3) -0.486(5) 0.809(3)
H4 H 0.828(4) -0.646(6) 0.897(3)
H5 H 0.914(4) -0.558(6) 1.045(3)
H6 H 0.861(3) -0.330(5) 1.077(2)
H7 H 0.887(3) 0.034(5) 1.004(3)
H8 H 1.032(4) 0.159(7) 1.090(3)
H9 H 1.044(4) 0.168(6) 1.237(3)
H10 H 0.914(6) 0.063(9) 1.281(5)
H11 H 0.752(5) -0.059(7) 1.182(3)
H12 H 0.475(4) -0.224(5) 0.675(3)
H13 H 0.511(4) -0.079(6) 0.566(3)
H14 H 0.671(4) 0.093(6) 0.598(3)
H15 H 0.786(4) 0.098(6) 0.732(3)
H16 H 0.757(4) -0.031(5) 0.835(3)
loop_
_geom_bond_atom_site_label_1
_geom_bond_atom_site_label_2
_geom_bond_site_symmetry_1
_geom_bond_site_symmetry_2
S1 S2 1_555 1_555
S2 C2 1_555 1_555
C1 S1 1_555 1_555
C2 C7 1_555 1_555
C3 C4 1_555 1_555
C4 C5 1_555 1_555
C5 C6 1_555 1_555
C6 C8 1_555 1_555
C7 C3 1_555 1_555
C8 C1 1_555 1_555
C9 C1 1_555 1_555
C10 C9 1_555 1_555
C11 C10 1_555 1_555
C12 C11 1_555 1_555
C13 C12 1_555 1_555
C14 C9 1_555 1_555
C15 C2 1_555 1_555
C16 C15 1_555 1_555
C17 C16 1_555 1_555
C18 C17 1_555 1_555
C19 C18 1_555 1_555
C20 C15 1_555 1_555
H1 C1 1_555 1_555
H2 C2 1_555 1_555
H3 C3 1_555 1_555
H4 C4 1_555 1_555
H5 C5 1_555 1_555
H6 C6 1_555 1_555
H7 C10 1_555 1_555
H8 C11 1_555 1_555
H9 C12 1_555 1_555
H10 C13 1_555 1_555
H11 C14 1_555 1_555
H12 C16 1_555 1_555
H13 C17 1_555 1_555
H14 C18 1_555 1_555
H15 C19 1_555 1_555
H16 C20 1_555 1_555
C7 C8 1_555 1_555
C13 C14 1_555 1_555
C19 C20 1_555 1_555

#END
