
#######################################################################
#
#                 Cambridge Crystallographic Data Centre
#                                CCDC 
#
#######################################################################
#
# If this CIF has been generated from an entry in the Cambridge 
# Structural Database, then it will include bibliographic, chemical, 
# crystal, experimental, refinement or atomic coordinate data resulting 
# from the CCDC's data processing and validation procedures.
#
#######################################################################

data_UHIFOI
_chemical_name_common            
3-(1-(3-ethyl-4-nitroisoxazol-5-yl)ethyl)-3-hydroxy-5-methoxyindolin-2-one
_chemical_formula_moiety         'C16 H17 N3 O6'
_chemical_name_systematic        
3-(1-(3-ethyl-4-nitro-1,2-oxazol-5-yl)ethyl)-3-hydroxy-5-methoxy-1,3-dihydro-2H-indol-2-one
_symmetry_cell_setting           monoclinic
_symmetry_space_group_name_H-M   'P 21/n'
_symmetry_Int_Tables_number      14
_space_group_name_Hall           '-P 2yn'
loop_
_symmetry_equiv_pos_site_id
_symmetry_equiv_pos_as_xyz
1 x,y,z
2 1/2-x,1/2+y,1/2-z
3 -x,-y,-z
4 1/2+x,1/2-y,1/2+z
_cell_length_a                   13.5271(6)
_cell_length_b                   7.4112(3)
_cell_length_c                   16.5010(8)
_cell_angle_alpha                90
_cell_angle_beta                 94.7630(10)
_cell_angle_gamma                90
_cell_volume                     1648.55
_exptl_crystal_description       BLOCK
_cell_formula_units_Z            4
loop_
_atom_site_label
_atom_site_type_symbol
_atom_site_fract_x
_atom_site_fract_y
_atom_site_fract_z
C1 C 0.58363(17) 0.0470(3) 0.66488(15)
H1 H 0.5964 0.1649 0.6496
C2 C 0.39618(16) 0.1053(3) 0.68942(16)
C3 C 0.21409(18) -0.0956(4) 0.54952(17)
C4 C 0.34336(17) 0.1542(3) 0.60387(16)
H2 H 0.2860 0.2295 0.6136
C5 C 0.30411(17) -0.0124(3) 0.56171(16)
C6 C 0.65745(18) -0.0834(4) 0.66738(17)
C7 C 0.47359(18) -0.1781(3) 0.70911(16)
C8 C 0.49066(16) -0.0030(3) 0.68575(15)
C9 C 0.32970(18) -0.0324(3) 0.72844(16)
C10 C 0.6384(2) -0.2605(4) 0.68832(19)
H3 H 0.6885 -0.3465 0.6881
C11 C 0.2305(2) -0.2649(4) 0.5120(2)
C12 C 0.4087(2) 0.2646(4) 0.55151(18)
H4 H 0.3726 0.2912 0.5003
H5 H 0.4672 0.1969 0.5423
H6 H 0.4273 0.3753 0.5789
C13 C 0.5447(2) -0.3102(4) 0.70969(19)
H7 H 0.5308 -0.4284 0.7238
C14 C 0.8282(2) -0.1441(4) 0.6492(2)
H8 H 0.8863 -0.0827 0.6338
H9 H 0.8121 -0.2414 0.6120
H10 H 0.8409 -0.1914 0.7033
C15 C 0.1597(3) -0.4224(5) 0.4890(3)
H11 H 0.1973 -0.5331 0.4855
H12 H 0.1137 -0.4377 0.5305
C16 C 0.1049(3) -0.3857(6) 0.4110(3)
H13 H 0.0611 -0.4847 0.3967
H14 H 0.1506 -0.3711 0.3700
H15 H 0.0668 -0.2772 0.4149
N1 N 0.37539(15) -0.1915(3) 0.73271(14)
H16 H 0.3488 -0.2899 0.7479
N2 N 0.32336(18) -0.2811(3) 0.50024(17)
N3 N 0.12097(18) -0.0268(4) 0.57169(16)
O1 O 0.41328(13) 0.2625(2) 0.73601(11)
H17 H 0.3617 0.3207 0.7359
O2 O 0.37076(11) -0.1213(2) 0.53135(11)
O3 O 0.24528(13) -0.0018(2) 0.74985(12)
O4 O 0.74796(13) -0.0218(3) 0.64725(13)
O5 O 0.11638(15) 0.1300(4) 0.59345(18)
O6 O 0.05026(16) -0.1273(4) 0.56767(17)
loop_
_geom_bond_atom_site_label_1
_geom_bond_atom_site_label_2
_geom_bond_site_symmetry_1
_geom_bond_site_symmetry_2
C1 H1 1_555 1_555
C2 C4 1_555 1_555
C3 C5 1_555 1_555
C4 H2 1_555 1_555
C5 C4 1_555 1_555
C6 C1 1_555 1_555
C7 C8 1_555 1_555
C8 C1 1_555 1_555
C9 C2 1_555 1_555
C10 C6 1_555 1_555
H3 C10 1_555 1_555
C11 C3 1_555 1_555
C12 C4 1_555 1_555
H4 C12 1_555 1_555
H5 C12 1_555 1_555
H6 C12 1_555 1_555
C13 C7 1_555 1_555
H7 C13 1_555 1_555
C14 H8 1_555 1_555
H9 C14 1_555 1_555
H10 C14 1_555 1_555
C15 C11 1_555 1_555
H11 C15 1_555 1_555
H12 C15 1_555 1_555
C16 C15 1_555 1_555
H13 C16 1_555 1_555
H14 C16 1_555 1_555
H15 C16 1_555 1_555
N1 C7 1_555 1_555
H16 N1 1_555 1_555
N2 C11 1_555 1_555
N3 C3 1_555 1_555
O1 C2 1_555 1_555
H17 O1 1_555 1_555
O2 C5 1_555 1_555
O3 C9 1_555 1_555
O4 C6 1_555 1_555
O5 N3 1_555 1_555
O6 N3 1_555 1_555
C2 C8 1_555 1_555
C9 N1 1_555 1_555
C10 C13 1_555 1_555
C14 O4 1_555 1_555
N2 O2 1_555 1_555

#END
