
#######################################################################
#
#                 Cambridge Crystallographic Data Centre
#                                CCDC 
#
#######################################################################
#
# If this CIF has been generated from an entry in the Cambridge 
# Structural Database, then it will include bibliographic, chemical, 
# crystal, experimental, refinement or atomic coordinate data resulting 
# from the CCDC's data processing and validation procedures.
#
#######################################################################

data_UHILUU
_chemical_formula_moiety         'C13 H23 N1 O3 S1'
_chemical_name_systematic        
2-methyl-N-(1-(4-methyl-5-oxo-2,5-dihydrofuran-2-yl)butyl)propane-2-sulfinamide
_symmetry_cell_setting           monoclinic
_symmetry_space_group_name_H-M   'P 21'
_symmetry_Int_Tables_number      4
_space_group_name_Hall           'P 2yb'
loop_
_symmetry_equiv_pos_site_id
_symmetry_equiv_pos_as_xyz
1 x,y,z
2 -x,1/2+y,-z
_cell_length_a                   10.291(2)
_cell_length_b                   5.9808(12)
_cell_length_c                   12.068(2)
_cell_angle_alpha                90
_cell_angle_beta                 103.531(3)
_cell_angle_gamma                90
_cell_volume                     722.15
_exptl_crystal_description       pillar
_cell_formula_units_Z            2
loop_
_atom_site_label
_atom_site_type_symbol
_atom_site_fract_x
_atom_site_fract_y
_atom_site_fract_z
S1 S -0.619319(3) -0.037804(3) -0.447119(3)
O1 O -0.572465(3) 0.007992(3) -0.553855(3)
N1 N -0.526355(3) 0.106118(3) -0.338996(3)
H1 H -0.543894(3) 0.242958(3) -0.326131(3)
O2 O -0.695603(3) 0.038524(3) -0.034600(3)
C1 C -0.411560(3) -0.014557(3) -0.266010(3)
H2 H -0.379868(3) -0.126468(3) -0.312867(3)
C2 C -0.837635(3) 0.060333(3) -0.365468(3)
H3 H -0.845088(4) -0.099262(3) -0.361120(4)
H4 H -0.780922(4) 0.115378(4) -0.296074(3)
H5 H -0.924674(4) 0.126518(4) -0.376139(4)
C3 C -0.627934(3) -0.060557(3) -0.087758(3)
C4 C -0.755765(3) 0.371087(3) -0.472948(3)
H6 H -0.711083(4) 0.426971(3) -0.399311(3)
H7 H -0.701826(4) 0.399655(3) -0.526434(4)
H8 H -0.840474(3) 0.444722(3) -0.497859(4)
C5 C -0.298191(3) 0.152302(3) -0.221973(3)
H9 H -0.289150(3) 0.248743(3) -0.284358(3)
H10 H -0.322358(3) 0.245618(3) -0.164181(3)
C6 C -0.553140(3) -0.316026(3) -0.195732(3)
H11 H -0.546278(3) -0.439792(3) -0.240668(3)
C7 C -0.777764(3) 0.121130(3) -0.465419(3)
C8 C -0.451543(3) -0.134792(3) -0.167112(3)
H12 H -0.370590(3) -0.198077(3) -0.117699(3)
C9 C -0.864309(3) 0.032529(3) -0.577692(3)
H13 H -0.822239(4) 0.066336(4) -0.638803(3)
H14 H -0.874246(4) -0.126456(3) -0.572453(4)
H15 H -0.950697(4) 0.102162(4) -0.592203(4)
C10 C -0.654529(3) -0.276458(3) -0.148332(3)
C11 C -0.776904(3) -0.408454(3) -0.146870(3)
H16 H -0.760317(4) -0.502075(4) -0.080423(4)
H17 H -0.849408(4) -0.308465(3) -0.145236(4)
H18 H -0.799837(4) -0.499871(4) -0.214009(4)
C12 C -0.163941(3) 0.043425(3) -0.171680(3)
H19 H -0.172713(3) -0.056536(3) -0.110552(3)
H20 H -0.137147(3) -0.044999(3) -0.229949(3)
C13 C -0.056158(3) 0.216980(3) -0.125456(3)
H21 H -0.052769(4) 0.324081(4) -0.183965(4)
H22 H -0.076838(4) 0.292049(4) -0.061389(4)
H23 H 0.028928(3) 0.143976(3) -0.101937(4)
O3 O -0.508925(3) 0.021185(3) -0.100489(3)
loop_
_geom_bond_atom_site_label_1
_geom_bond_atom_site_label_2
_geom_bond_site_symmetry_1
_geom_bond_site_symmetry_2
S1 O1 1_555 1_555
N1 S1 1_555 1_555
H1 N1 1_555 1_555
O2 C3 1_555 1_555
C1 N1 1_555 1_555
H2 C1 1_555 1_555
C2 H3 1_555 1_555
H4 C2 1_555 1_555
H5 C2 1_555 1_555
C3 C10 1_555 1_555
C4 H6 1_555 1_555
H7 C4 1_555 1_555
H8 C4 1_555 1_555
C5 C1 1_555 1_555
H9 C5 1_555 1_555
H10 C5 1_555 1_555
C6 H11 1_555 1_555
C7 S1 1_555 1_555
C8 C1 1_555 1_555
H12 C8 1_555 1_555
C9 C7 1_555 1_555
H13 C9 1_555 1_555
H14 C9 1_555 1_555
H15 C9 1_555 1_555
C10 C6 1_555 1_555
C11 C10 1_555 1_555
H16 C11 1_555 1_555
H17 C11 1_555 1_555
H18 C11 1_555 1_555
C12 C5 1_555 1_555
H19 C12 1_555 1_555
H20 C12 1_555 1_555
C13 C12 1_555 1_555
H21 C13 1_555 1_555
H22 C13 1_555 1_555
H23 C13 1_555 1_555
O3 C3 1_555 1_555
C2 C7 1_555 1_555
C4 C7 1_555 1_555
C6 C8 1_555 1_555
C8 O3 1_555 1_555

#END
