
#######################################################################
#
#                 Cambridge Crystallographic Data Centre
#                                CCDC 
#
#######################################################################
#
# If this CIF has been generated from an entry in the Cambridge 
# Structural Database, then it will include bibliographic, chemical, 
# crystal, experimental, refinement or atomic coordinate data resulting 
# from the CCDC's data processing and validation procedures.
#
#######################################################################

data_UHINOP
_chemical_formula_moiety         'C15 H21 Cl1 O1'
_chemical_name_systematic        
(R)-1-t-Butyl-6-chloro-3,3-dimethyl-2,3-dihydro-1H-inden-1-ol
_symmetry_cell_setting           monoclinic
_symmetry_space_group_name_H-M   'P 21'
_symmetry_Int_Tables_number      4
_space_group_name_Hall           'P 2yb'
loop_
_symmetry_equiv_pos_site_id
_symmetry_equiv_pos_as_xyz
1 x,y,z
2 -x,1/2+y,-z
_cell_length_a                   9.5447(5)
_cell_length_b                   19.6094(11)
_cell_length_c                   12.2558(8)
_cell_angle_alpha                90
_cell_angle_beta                 110.381(2)
_cell_angle_gamma                90
_cell_volume                     2150.27
_exptl_crystal_colour            colorless
_exptl_crystal_description       cube
_chemical_melting_point          75-77deg.C
_cell_formula_units_Z            6
loop_
_atom_site_label
_atom_site_type_symbol
_atom_site_fract_x
_atom_site_fract_y
_atom_site_fract_z
Cl1 Cl -0.0013(2) 0.40759(9) -0.2191(2)
O1 O 0.1145(5) 0.6442(2) 0.0818(3)
C1 C 0.0269(6) 0.6575(3) -0.0392(4)
C2 C 0.1011(6) 0.7203(3) -0.0720(5)
C3 C 0.2246(6) 0.6943(3) -0.1186(5)
C4 C 0.2256(7) 0.5781(3) -0.2201(5)
C5 C 0.1719(8) 0.5121(3) -0.2402(5)
C6 C 0.0646(7) 0.4911(3) -0.1958(6)
C7 C 0.0082(6) 0.5345(3) -0.1308(5)
C8 C 0.0597(6) 0.6015(3) -0.1125(5)
C9 C 0.1708(6) 0.6224(3) -0.1556(4)
C10 C -0.1395(6) 0.6694(3) -0.0517(5)
C11 C -0.2033(7) 0.6108(4) -0.0025(6)
C12 C -0.1493(8) 0.7335(4) 0.0152(6)
C13 C -0.2385(7) 0.6797(3) -0.1797(5)
C14 C 0.2325(8) 0.7386(3) -0.2186(6)
C15 C 0.3769(6) 0.6917(3) -0.0224(5)
H2 H 0.0268 0.7458 -0.1312
H3 H 0.1444 0.7485 -0.0046
H4 H 0.3011 0.5939 -0.2491
H5 H 0.2103 0.4822 -0.2850
H6 H -0.0651 0.5174 -0.1005
H7 H -0.2971 0.6252 0.0062
H8 H -0.1316 0.5977 0.0736
H9 H -0.2221 0.5718 -0.0557
H10 H -0.2534 0.7412 0.0086
H11 H -0.1133 0.7727 -0.0172
H12 H -0.0875 0.7279 0.0974
H13 H -0.3425 0.6862 -0.1849
H14 H -0.2316 0.6395 -0.2250
H15 H -0.2046 0.7200 -0.2107
H16 H 0.3130 0.7222 -0.2441
H17 H 0.2523 0.7860 -0.1922
H18 H 0.1371 0.7361 -0.2836
H19 H 0.4485 0.6690 -0.0513
H20 H 0.3693 0.6664 0.0442
H21 H 0.4112 0.7383 0.0020
H62 H 0.082(8) 0.605(4) 0.093(6)
Cl2 Cl 0.6090(2) 0.50518(10) 0.69095(14)
O2 O 0.1535(5) 0.5392(2) 0.2395(4)
C16 C 0.1938(7) 0.4691(3) 0.2720(5)
C17 C 0.2165(7) 0.4329(4) 0.1701(5)
C18 C 0.3802(7) 0.4379(3) 0.1812(5)
C19 C 0.6062(7) 0.4506(3) 0.3758(5)
C20 C 0.6550(7) 0.4673(3) 0.4946(6)
C21 C 0.5511(7) 0.4834(3) 0.5438(5)
C22 C 0.3985(7) 0.4852(3) 0.4794(5)
C23 C 0.3529(6) 0.4683(3) 0.3644(5)
C24 C 0.4545(6) 0.4518(3) 0.3110(5)
C25 C 0.0664(7) 0.4379(3) 0.3083(5)
C26 C 0.1077(8) 0.3678(4) 0.3621(7)
C27 C 0.0279(8) 0.4836(4) 0.3963(7)
C28 C -0.0771(8) 0.4322(4) 0.2013(6)
C29 C 0.4102(8) 0.4960(3) 0.1104(5)
C30 C 0.4362(8) 0.3714(3) 0.1454(6)
H1 H 0.2109 0.5653 0.2898
H22 H 0.1881 0.3859 0.1701
H23 H 0.1542 0.4543 0.0994
H24 H 0.6771 0.4381 0.3397
H25 H 0.7599 0.4674 0.5394
H26 H 0.3291 0.4980 0.5167
H27 H 0.0222 0.3481 0.3778
H28 H 0.1928 0.3716 0.4351
H29 H 0.1347 0.3382 0.3080
H30 H -0.0648 0.4675 0.4050
H31 H 0.0148 0.5308 0.3680
H32 H 0.1093 0.4816 0.4718
H33 H -0.1564 0.4116 0.2242
H34 H -0.0583 0.4035 0.1424
H35 H -0.1083 0.4777 0.1691
H36 H 0.5180 0.4999 0.1267
H37 H 0.3728 0.5388 0.1314
H38 H 0.3592 0.4870 0.0273
H39 H 0.5436 0.3750 0.1602
H40 H 0.3830 0.3631 0.0624
H41 H 0.4178 0.3335 0.1908
O3 O 0.6533(5) 0.1493(2) 0.7146(4)
C31 C 0.5722(6) 0.1996(3) 0.6304(4)
C32 C 0.4250(6) 0.1639(3) 0.5577(5)
C33 C 0.3013(7) 0.1836(3) 0.6057(5)
C34 C 0.2942(8) 0.2918(3) 0.7296(6)
C35 C 0.3761(8) 0.3411(3) 0.8036(6)
C36 C 0.5269(8) 0.3470(3) 0.8238(5)
C37 C 0.6018(7) 0.3041(3) 0.7713(5)
C38 C 0.5181(6) 0.2553(3) 0.6947(4)
C39 C 0.3661(6) 0.2471(3) 0.6764(5)
C40 C 0.1536(8) 0.1961(4) 0.5060(7)
C41 C 0.6635(7) 0.2235(3) 0.5551(5)
C42 C 0.8155(9) 0.2508(5) 0.6306(8)
C43 C 0.6939(8) 0.1629(3) 0.4885(5)
C44 C 0.5786(12) 0.2775(4) 0.4694(8)
C45 C 0.2798(9) 0.1295(4) 0.6887(6)
Cl3 Cl 0.6346(2) 0.40528(9) 0.92752(14)
H42 H 0.3973 0.1780 0.4779
H43 H 0.4400 0.1155 0.5629
H44 H 0.1888 0.2880 0.7143
H45 H 0.3285 0.3709 0.8422
H46 H 0.7079 0.3090 0.7911
H47 H 0.0807 0.2155 0.5371
H48 H 0.1155 0.1528 0.4669
H49 H 0.1702 0.2279 0.4501
H50 H 0.8760 0.2600 0.5819
H51 H 0.8662 0.2169 0.6900
H52 H 0.8024 0.2930 0.6686
H53 H 0.7603 0.1771 0.4471
H54 H 0.5993 0.1464 0.4323
H55 H 0.7415 0.1263 0.5432
H56 H 0.6377 0.2920 0.4222
H57 H 0.5601 0.3168 0.5119
H58 H 0.4830 0.2587 0.4186
H59 H 0.2044 0.1452 0.7205
H60 H 0.3748 0.1219 0.7524
H61 H 0.2465 0.0867 0.6462
H63 H 0.722(6) 0.170(2) 0.772(4)
loop_
_geom_bond_atom_site_label_1
_geom_bond_atom_site_label_2
_geom_bond_site_symmetry_1
_geom_bond_site_symmetry_2
Cl1 C6 1_555 1_555
Cl2 C21 1_555 1_555
O1 C1 1_555 1_555
O2 C16 1_555 1_555
O3 C31 1_555 1_555
C1 C2 1_555 1_555
C2 C3 1_555 1_555
C3 C9 1_555 1_555
C4 C5 1_555 1_555
C5 C6 1_555 1_555
C6 C7 1_555 1_555
C7 C8 1_555 1_555
C8 C1 1_555 1_555
C9 C4 1_555 1_555
C10 C1 1_555 1_555
C11 C10 1_555 1_555
C12 C10 1_555 1_555
C13 C10 1_555 1_555
C14 C3 1_555 1_555
C15 C3 1_555 1_555
C16 C17 1_555 1_555
C17 C18 1_555 1_555
C18 C24 1_555 1_555
C19 C20 1_555 1_555
C20 C21 1_555 1_555
C21 C22 1_555 1_555
C22 C23 1_555 1_555
C23 C16 1_555 1_555
C24 C19 1_555 1_555
C25 C16 1_555 1_555
C26 C25 1_555 1_555
C27 C25 1_555 1_555
C28 C25 1_555 1_555
C29 C18 1_555 1_555
C30 C18 1_555 1_555
C31 C32 1_555 1_555
C32 C33 1_555 1_555
C33 C39 1_555 1_555
C34 C35 1_555 1_555
C35 C36 1_555 1_555
C36 C37 1_555 1_555
C37 C38 1_555 1_555
C38 C31 1_555 1_555
C39 C34 1_555 1_555
C40 C33 1_555 1_555
C41 C31 1_555 1_555
C42 C41 1_555 1_555
C43 C41 1_555 1_555
C44 C41 1_555 1_555
C45 C33 1_555 1_555
Cl3 C36 1_555 1_555
H1 O2 1_555 1_555
H2 C2 1_555 1_555
H3 C2 1_555 1_555
H4 C4 1_555 1_555
H5 C5 1_555 1_555
H6 C7 1_555 1_555
H7 C11 1_555 1_555
H8 C11 1_555 1_555
H9 C11 1_555 1_555
H10 C12 1_555 1_555
H11 C12 1_555 1_555
H12 C12 1_555 1_555
H13 C13 1_555 1_555
H14 C13 1_555 1_555
H15 C13 1_555 1_555
H16 C14 1_555 1_555
H17 C14 1_555 1_555
H18 C14 1_555 1_555
H19 C15 1_555 1_555
H20 C15 1_555 1_555
H21 C15 1_555 1_555
H22 C17 1_555 1_555
H23 C17 1_555 1_555
H24 C19 1_555 1_555
H25 C20 1_555 1_555
H26 C22 1_555 1_555
H27 C26 1_555 1_555
H28 C26 1_555 1_555
H29 C26 1_555 1_555
H30 C27 1_555 1_555
H31 C27 1_555 1_555
H32 C27 1_555 1_555
H33 C28 1_555 1_555
H34 C28 1_555 1_555
H35 C28 1_555 1_555
H36 C29 1_555 1_555
H37 C29 1_555 1_555
H38 C29 1_555 1_555
H39 C30 1_555 1_555
H40 C30 1_555 1_555
H41 C30 1_555 1_555
H42 C32 1_555 1_555
H43 C32 1_555 1_555
H44 C34 1_555 1_555
H45 C35 1_555 1_555
H46 C37 1_555 1_555
H47 C40 1_555 1_555
H48 C40 1_555 1_555
H49 C40 1_555 1_555
H50 C42 1_555 1_555
H51 C42 1_555 1_555
H52 C42 1_555 1_555
H53 C43 1_555 1_555
H54 C43 1_555 1_555
H55 C43 1_555 1_555
H56 C44 1_555 1_555
H57 C44 1_555 1_555
H58 C44 1_555 1_555
H59 C45 1_555 1_555
H60 C45 1_555 1_555
H61 C45 1_555 1_555
H62 O1 1_555 1_555
H63 O3 1_555 1_555
C8 C9 1_555 1_555
C23 C24 1_555 1_555
C38 C39 1_555 1_555

#END
