
#######################################################################
#
#                 Cambridge Crystallographic Data Centre
#                                CCDC 
#
#######################################################################
#
# If this CIF has been generated from an entry in the Cambridge 
# Structural Database, then it will include bibliographic, chemical, 
# crystal, experimental, refinement or atomic coordinate data resulting 
# from the CCDC's data processing and validation procedures.
#
#######################################################################

data_UHIPOS
_chemical_formula_moiety         'C13 H11 N3 O5'
_chemical_name_systematic        
3-hydroxy-3-((3-methyl-4-nitro-1,2-oxazol-5-yl)methyl)-1,3-dihydro-2H-indol-2-one
_symmetry_cell_setting           monoclinic
_symmetry_space_group_name_H-M   'P 21'
_symmetry_Int_Tables_number      4
_space_group_name_Hall           'P 2yb'
loop_
_symmetry_equiv_pos_site_id
_symmetry_equiv_pos_as_xyz
1 x,y,z
2 -x,1/2+y,-z
_cell_length_a                   8.60650(10)
_cell_length_b                   7.18580(10)
_cell_length_c                   11.1840(2)
_cell_angle_alpha                90
_cell_angle_beta                 110.9850(10)
_cell_angle_gamma                90
_cell_volume                     645.794
_exptl_crystal_colour            colorless
_exptl_crystal_description       block
_cell_formula_units_Z            2
loop_
_atom_site_label
_atom_site_type_symbol
_atom_site_fract_x
_atom_site_fract_y
_atom_site_fract_z
C1 C 0.14808(15) -0.11621(19) -0.22609(12)
C2 C 0.34164(13) 0.03719(15) -0.06034(11)
C3 C 0.08843(14) 0.06546(18) -0.23726(11)
C4 C 0.22028(15) 0.37368(19) 0.06386(13)
C5 C 0.11590(15) 0.2502(2) -0.04047(13)
H1 H 0.0160 0.3169 -0.0910
H2 H 0.0822 0.1431 -0.0028
C6 C 0.20548(13) 0.18159(16) -0.12989(12)
C7 C 0.32507(17) 0.3521(2) 0.18630(14)
C8 C 0.39287(19) 0.5325(3) 0.22892(15)
C9 C 0.06916(19) -0.2547(2) -0.31095(16)
H3 H 0.1100 -0.3757 -0.3017
C10 C -0.05568(17) 0.1128(2) -0.33698(14)
H4 H -0.0974 0.2334 -0.3454
C11 C 0.5171(3) 0.5923(4) 0.35441(19)
H5 H 0.5366 0.7236 0.3524
H6 H 0.6195 0.5262 0.3703
H7 H 0.4752 0.5655 0.4214
C12 C -0.13686(18) -0.0255(3) -0.42473(14)
H8 H -0.2337 0.0034 -0.4930
C13 C -0.0753(2) -0.2040(3) -0.41152(15)
H9 H -0.1317 -0.2935 -0.4714
N1 N 0.29819(13) -0.12763(15) -0.12000(11)
H10 H 0.3553 -0.2281 -0.0962
N2 N 0.33030(19) 0.6540(2) 0.13898(15)
N3 N 0.3592(2) 0.1813(2) 0.25632(14)
O1 O 0.46793(9) 0.06773(12) 0.03273(8)
O2 O 0.27116(11) 0.32801(12) -0.18096(9)
H11 H 0.3454 0.3802 -0.1230
O3 O 0.22120(12) 0.55384(14) 0.03337(10)
O4 O 0.2569(2) 0.0560(2) 0.22222(17)
O5 O 0.4895(3) 0.1733(3) 0.34797(16)
loop_
_geom_bond_atom_site_label_1
_geom_bond_atom_site_label_2
_geom_bond_site_symmetry_1
_geom_bond_site_symmetry_2
C1 C3 1_555 1_555
C2 C6 1_555 1_555
C3 C6 1_555 1_555
C4 C5 1_555 1_555
C5 H1 1_555 1_555
H2 C5 1_555 1_555
C6 C5 1_555 1_555
C7 C4 1_555 1_555
C8 C7 1_555 1_555
C9 C1 1_555 1_555
H3 C9 1_555 1_555
C10 C3 1_555 1_555
H4 C10 1_555 1_555
C11 C8 1_555 1_555
H5 C11 1_555 1_555
H6 C11 1_555 1_555
H7 C11 1_555 1_555
C12 C10 1_555 1_555
H8 C12 1_555 1_555
C13 C9 1_555 1_555
H9 C13 1_555 1_555
N1 C1 1_555 1_555
H10 N1 1_555 1_555
N2 C8 1_555 1_555
N3 C7 1_555 1_555
O1 C2 1_555 1_555
O2 C6 1_555 1_555
H11 O2 1_555 1_555
O3 C4 1_555 1_555
O4 N3 1_555 1_555
O5 N3 1_555 1_555
C2 N1 1_555 1_555
C12 C13 1_555 1_555
N2 O3 1_555 1_555

#END
