
#######################################################################
#
#                 Cambridge Crystallographic Data Centre
#                                CCDC 
#
#######################################################################
#
# If this CIF has been generated from an entry in the Cambridge 
# Structural Database, then it will include bibliographic, chemical, 
# crystal, experimental, refinement or atomic coordinate data resulting 
# from the CCDC's data processing and validation procedures.
#
#######################################################################

data_UHIROT
_chemical_formula_moiety         'C26 H33 N1 O6'
_chemical_name_systematic        
'(1\a,1a\a,4a\a,8b\a,8c\a)-1-(1,1-dimethylethyl) 4,8c-diethyl-1a,2,4a,8b-tetrahydro-1a,3-dimethyl-2-azacyclobuta(jk)fluorene-1,4,8c(1H)-tricarboxylate'
_symmetry_cell_setting           triclinic
_symmetry_space_group_name_H-M   'P -1'
_symmetry_Int_Tables_number      2
_space_group_name_Hall           '-P 1'
loop_
_symmetry_equiv_pos_site_id
_symmetry_equiv_pos_as_xyz
1 x,y,z
2 -x,-y,-z
_cell_length_a                   9.7936(8)
_cell_length_b                   10.8357(9)
_cell_length_c                   13.663(2)
_cell_angle_alpha                69.27(2)
_cell_angle_beta                 77.760(10)
_cell_angle_gamma                68.216(7)
_cell_volume                     1253.78
_exptl_crystal_colour            colorless
_exptl_crystal_description       prism
_cell_formula_units_Z            2
_exptl_crystal_recrystallization_method 'heptane/ethyl acetate'
loop_
_atom_site_label
_atom_site_type_symbol
_atom_site_fract_x
_atom_site_fract_y
_atom_site_fract_z
N1 N 0.84546(15) 0.34736(14) 0.37945(11)
O1 O 0.9669(2) -0.06244(15) 0.35793(13)
O2 O 1.06322(17) 0.02143(13) 0.19574(11)
O3 O 1.30414(14) 0.21113(14) 0.26520(15)
O4 O 1.27108(12) 0.42950(13) 0.25636(11)
O5 O 0.69503(15) 0.61196(13) 0.40607(11)
O6 O 0.74523(12) 0.77443(12) 0.25937(10)
C1 C 0.86657(17) 0.21677(16) 0.37605(12)
C2 C 0.95907(17) 0.17496(15) 0.29602(12)
C3 C 1.01400(15) 0.28373(15) 0.20916(11)
C4 C 1.06038(14) 0.37590(14) 0.25121(11)
C5 C 0.97157(15) 0.39824(14) 0.35740(11)
C6 C 0.92760(15) 0.55767(14) 0.30334(11)
C7 C 0.98190(14) 0.53332(14) 0.19388(11)
C8 C 0.87454(16) 0.52727(16) 0.13259(11)
C9 C 0.7711(2) 0.6380(2) 0.06989(14)
C10 C 0.6870(2) 0.6095(3) 0.01571(15)
C11 C 0.7054(2) 0.4739(3) 0.02355(16)
C12 C 0.8088(2) 0.3628(2) 0.08567(14)
C13 C 0.89367(16) 0.39079(16) 0.13961(11)
C14 C 0.7760(3) 0.1387(3) 0.45965(17)
C15 C 0.9939(2) 0.03494(17) 0.28976(14)
C16 C 1.1041(3) -0.1173(3) 0.1868(2)
C17 C 1.1903(5) -0.1161(4) 0.0830(3)
C18 C 1.0548(2) 0.33972(18) 0.45472(14)
C19 C 1.22447(16) 0.32819(16) 0.25722(13)
C20 C 1.4265(2) 0.3877(3) 0.2730(3)
C21 C 1.4508(4) 0.5035(4) 0.2895(5)
C22 C 0.77444(16) 0.64853(15) 0.32936(12)
C23 C 0.60760(18) 0.89015(18) 0.27238(15)
C24 C 0.5971(3) 0.9151(3) 0.3760(2)
C25 C 0.4756(3) 0.8559(3) 0.2640(3)
C26 C 0.6313(4) 1.0116(3) 0.1818(3)
H1 H 0.785(2) 0.371(2) 0.4292(18)
H2 H 1.099(2) 0.240(2) 0.1671(15)
H3 H 0.995(2) 0.592(2) 0.3181(16)
H4 H 1.044(2) 0.587(2) 0.1509(14)
H5 H 0.762(2) 0.730(2) 0.0649(17)
H6 H 0.617(3) 0.688(3) -0.030(2)
H7 H 0.644(3) 0.458(3) -0.014(2)
H8 H 0.818(3) 0.266(3) 0.0938(19)
H9 H 1.170(4) -0.188(4) 0.246(3)
H10 H 1.008(4) -0.130(4) 0.177(3)
H11 H 0.685(4) 0.208(4) 0.484(3)
H12 H 0.742(4) 0.082(4) 0.439(3)
H13 H 0.826(4) 0.089(4) 0.519(3)
H14 H 1.223(5) -0.214(5) 0.074(4)
H15 H 1.283(5) -0.091(5) 0.088(4)
H16 H 1.122(6) -0.038(6) 0.025(4)
H17 H 1.138(3) 0.376(2) 0.4424(18)
H18 H 0.985(3) 0.365(2) 0.5114(19)
H19 H 1.092(2) 0.241(2) 0.4744(17)
H20 H 1.489(5) 0.358(4) 0.212(3)
H21 H 1.451(5) 0.310(5) 0.343(4)
H22 H 1.560(5) 0.477(4) 0.297(3)
H23 H 1.421(7) 0.582(7) 0.210(5)
H24 H 1.387(5) 0.527(4) 0.349(3)
H25 H 0.518(3) 0.998(3) 0.380(2)
H26 H 0.579(3) 0.834(4) 0.436(3)
H27 H 0.691(4) 0.920(4) 0.386(3)
H28 H 0.465(3) 0.771(4) 0.322(3)
H29 H 0.490(4) 0.836(4) 0.202(3)
H30 H 0.384(4) 0.937(4) 0.263(3)
H31 H 0.541(5) 1.095(4) 0.182(3)
H32 H 0.653(5) 0.994(4) 0.113(4)
H33 H 0.731(6) 1.019(5) 0.175(4)
loop_
_geom_bond_atom_site_label_1
_geom_bond_atom_site_label_2
_geom_bond_site_symmetry_1
_geom_bond_site_symmetry_2
N1 C1 1_555 1_555
O1 C15 1_555 1_555
O2 C15 1_555 1_555
O3 C19 1_555 1_555
O4 C19 1_555 1_555
O5 C22 1_555 1_555
O6 C22 1_555 1_555
C1 C2 1_555 1_555
C2 C3 1_555 1_555
C3 C4 1_555 1_555
C4 C5 1_555 1_555
C5 N1 1_555 1_555
C6 C5 1_555 1_555
C7 C4 1_555 1_555
C8 C7 1_555 1_555
C9 C8 1_555 1_555
C10 C9 1_555 1_555
C11 C10 1_555 1_555
C12 C11 1_555 1_555
C13 C3 1_555 1_555
C14 C1 1_555 1_555
C15 C2 1_555 1_555
C16 O2 1_555 1_555
C17 C16 1_555 1_555
C18 C5 1_555 1_555
C19 C4 1_555 1_555
C20 O4 1_555 1_555
C21 C20 1_555 1_555
C22 C6 1_555 1_555
C23 O6 1_555 1_555
C24 C23 1_555 1_555
C25 C23 1_555 1_555
C26 C23 1_555 1_555
H1 N1 1_555 1_555
H2 C3 1_555 1_555
H3 C6 1_555 1_555
H4 C7 1_555 1_555
H5 C9 1_555 1_555
H6 C10 1_555 1_555
H7 C11 1_555 1_555
H8 C12 1_555 1_555
H9 C16 1_555 1_555
H10 C16 1_555 1_555
H11 C14 1_555 1_555
H12 C14 1_555 1_555
H13 C14 1_555 1_555
H14 C17 1_555 1_555
H15 C17 1_555 1_555
H16 C17 1_555 1_555
H17 C18 1_555 1_555
H18 C18 1_555 1_555
H19 C18 1_555 1_555
H20 C20 1_555 1_555
H21 C20 1_555 1_555
H22 C21 1_555 1_555
H23 C21 1_555 1_555
H24 C21 1_555 1_555
H25 C24 1_555 1_555
H26 C24 1_555 1_555
H27 C24 1_555 1_555
H28 C25 1_555 1_555
H29 C25 1_555 1_555
H30 C25 1_555 1_555
H31 C26 1_555 1_555
H32 C26 1_555 1_555
H33 C26 1_555 1_555
C6 C7 1_555 1_555
C8 C13 1_555 1_555
C12 C13 1_555 1_555

#END
