
#######################################################################
#
#                 Cambridge Crystallographic Data Centre
#                                CCDC 
#
#######################################################################
#
# If this CIF has been generated from an entry in the Cambridge 
# Structural Database, then it will include bibliographic, chemical, 
# crystal, experimental, refinement or atomic coordinate data resulting 
# from the CCDC's data processing and validation procedures.
#
#######################################################################

data_UHOJIK
_chemical_formula_moiety         'C20 H20 S10'
_chemical_name_systematic        
1,4,7,10-tetraethyl(4,5-b:4',5'-j)bis(1,2,3)trithiolodibenzo(c,g)(1,2,5,6)tetrathiocin
_symmetry_cell_setting           monoclinic
_symmetry_space_group_name_H-M   'P 21/a'
_symmetry_Int_Tables_number      14
_space_group_name_Hall           '-P 2yab'
loop_
_symmetry_equiv_pos_site_id
_symmetry_equiv_pos_as_xyz
1 x,y,z
2 1/2+x,1/2-y,z
3 -x,-y,-z
4 1/2-x,1/2+y,-z
_cell_length_a                   9.404(3)
_cell_length_b                   9.859(2)
_cell_length_c                   13.528(2)
_cell_angle_alpha                90
_cell_angle_beta                 105.69(1)
_cell_angle_gamma                90
_cell_volume                     1207.5
_exptl_crystal_colour            orange
_exptl_crystal_description       prismatic
_chemical_melting_point          239.5-241.5deg.C
_cell_formula_units_Z            2
_exptl_crystal_recrystallization_method dichloromethane
loop_
_atom_site_label
_atom_site_type_symbol
_atom_site_fract_x
_atom_site_fract_y
_atom_site_fract_z
S1 S 1.3193(1) -0.0816(1) 0.94940(7)
S2 S 1.4729(1) -0.2260(1) 0.94007(9)
S3 S 1.3177(1) -0.3600(1) 0.85681(8)
S4 S 0.9321(1) -0.1872(1) 0.49532(7)
S5 S 1.0601(1) -0.11145(10) 0.40582(7)
C1 C 1.2145(4) -0.1022(4) 0.8189(3)
C2 C 1.2128(4) -0.2318(4) 0.7757(3)
C3 C 1.1267(4) -0.2611(4) 0.6775(3)
C4 C 1.0446(4) -0.1539(4) 0.6216(3)
C5 C 1.0484(4) -0.0226(4) 0.6641(3)
C6 C 1.1318(4) 0.0028(4) 0.7653(3)
C7 C 1.1150(5) -0.4051(4) 0.6383(3)
C8 C 0.9855(7) -0.4817(5) 0.6623(4)
C9 C 1.1360(5) 0.1405(4) 0.8157(3)
C10 C 1.2596(7) 0.2282(5) 0.7966(4)
H1 H 1.2043 -0.4514 0.6698
H2 H 1.1005 -0.4035 0.5660
H3 H 0.9996 -0.4847 0.7345
H4 H 0.9816 -0.5715 0.6362
H5 H 0.8956 -0.4362 0.6309
H6 H 1.1520 0.1284 0.8875
H7 H 1.0441 0.1849 0.7882
H8 H 1.3519 0.1844 0.8242
H9 H 1.2600 0.3137 0.8290
H10 H 1.2440 0.2409 0.7249
S5B S 0.9399(1) 0.11145(10) 0.59418(7)
S4B S 1.0679(1) 0.1872(1) 0.50468(7)
C4B C 0.9554(4) 0.1539(4) 0.3784(3)
C3B C 0.8733(4) 0.2611(4) 0.3225(3)
C2B C 0.7872(4) 0.2318(4) 0.2243(3)
S3B S 0.6823(1) 0.3600(1) 0.14319(8)
S2B S 0.5271(1) 0.2260(1) 0.05993(9)
S1B S 0.6807(1) 0.0816(1) 0.05060(7)
C1B C 0.7855(4) 0.1022(4) 0.1811(3)
C6B C 0.8682(4) -0.0028(4) 0.2347(3)
C5B C 0.9516(4) 0.0226(4) 0.3359(3)
C9B C 0.8640(5) -0.1405(4) 0.1843(3)
C10B C 0.7404(7) -0.2282(5) 0.2034(4)
H8B H 0.6481 -0.1844 0.1758
H9B H 0.7400 -0.3137 0.1710
H10B H 0.7560 -0.2409 0.2751
H6B H 0.8480 -0.1284 0.1125
H7B H 0.9559 -0.1849 0.2118
C7B C 0.8850(5) 0.4051(4) 0.3617(3)
C8B C 1.0145(7) 0.4817(5) 0.3377(4)
H3B H 1.0004 0.4847 0.2655
H4B H 1.0184 0.5715 0.3638
H5B H 1.1044 0.4362 0.3691
H1B H 0.7957 0.4514 0.3302
H2B H 0.8995 0.4035 0.4340
loop_
_geom_bond_atom_site_label_1
_geom_bond_atom_site_label_2
_geom_bond_site_symmetry_1
_geom_bond_site_symmetry_2
S1 S2 1_555 1_555
S2 S3 1_555 1_555
S3 C2 1_555 1_555
S4 S5 1_555 1_555
S5 C5B 1_555 1_555
C1 S1 1_555 1_555
C2 C1 1_555 1_555
C3 C2 1_555 1_555
C4 S4 1_555 1_555
C5 C4 1_555 1_555
C6 C1 1_555 1_555
C7 C3 1_555 1_555
C8 C7 1_555 1_555
C9 C6 1_555 1_555
C10 C9 1_555 1_555
H1 C7 1_555 1_555
H2 C7 1_555 1_555
H3 C8 1_555 1_555
H4 C8 1_555 1_555
H5 C8 1_555 1_555
H6 C9 1_555 1_555
H7 C9 1_555 1_555
H8 C10 1_555 1_555
H9 C10 1_555 1_555
H10 C10 1_555 1_555
S5B C5 1_555 1_555
S4B S5B 1_555 1_555
C4B S4B 1_555 1_555
C3B C4B 1_555 1_555
C2B C3B 1_555 1_555
S3B C2B 1_555 1_555
S2B S3B 1_555 1_555
S1B S2B 1_555 1_555
C1B C2B 1_555 1_555
C6B C1B 1_555 1_555
C5B C4B 1_555 1_555
C9B C6B 1_555 1_555
C10B C9B 1_555 1_555
H8B C10B 1_555 1_555
H9B C10B 1_555 1_555
H10B C10B 1_555 1_555
H6B C9B 1_555 1_555
H7B C9B 1_555 1_555
C7B C3B 1_555 1_555
C8B C7B 1_555 1_555
H3B C8B 1_555 1_555
H4B C8B 1_555 1_555
H5B C8B 1_555 1_555
H1B C7B 1_555 1_555
H2B C7B 1_555 1_555
C3 C4 1_555 1_555
C5 C6 1_555 1_555
S1B C1B 1_555 1_555
C6B C5B 1_555 1_555

#END
