
#######################################################################
#
#                 Cambridge Crystallographic Data Centre
#                                CCDC 
#
#######################################################################
#
# If this CIF has been generated from an entry in the Cambridge 
# Structural Database, then it will include bibliographic, chemical, 
# crystal, experimental, refinement or atomic coordinate data resulting 
# from the CCDC's data processing and validation procedures.
#
#######################################################################

data_UHOMIO
_chemical_formula_moiety         'C14 H19 B10 F1'
_chemical_name_systematic        
1-(4-Fluorophenyl)-2-phenyl-1,2-dicarba-closo-dodecaborane
_symmetry_cell_setting           orthorhombic
_symmetry_space_group_name_H-M   'P 21 21 21'
_symmetry_Int_Tables_number      19
_space_group_name_Hall           'P 2ac 2ab'
loop_
_symmetry_equiv_pos_site_id
_symmetry_equiv_pos_as_xyz
1 x,y,z
2 1/2+x,1/2-y,-z
3 -x,1/2+y,1/2-z
4 1/2-x,-y,1/2+z
_cell_length_a                   10.808(1)
_cell_length_b                   11.249(1)
_cell_length_c                   28.296(3)
_cell_angle_alpha                90
_cell_angle_beta                 90
_cell_angle_gamma                90
_cell_volume                     3440.2
_exptl_crystal_colour            colorless
_exptl_crystal_description       wedge
_chemical_melting_point          '409.7 K'
_cell_formula_units_Z            8
loop_
_atom_site_label
_atom_site_type_symbol
_atom_site_fract_x
_atom_site_fract_y
_atom_site_fract_z
F1 F 0.30138(13) 0.55540(13) -0.00195(4)
C1 C -0.02597(16) 0.71601(15) 0.13831(6)
C2 C 0.02955(16) 0.73802(15) 0.19500(6)
B1 B -0.0136(2) 0.85841(17) 0.16049(7)
H1 H 0.0539 0.9253 0.1466
B2 B -0.1451(2) 0.81289(19) 0.12719(7)
H2 H -0.1660 0.8506 0.0914
B3 B -0.17355(19) 0.66090(19) 0.14096(8)
H3 H -0.2130 0.5980 0.1142
B4 B -0.05981(19) 0.61519(18) 0.18250(7)
H4 H -0.0224 0.5224 0.1828
B5 B -0.0518(2) 0.84904(19) 0.22147(7)
H5 H -0.0108 0.9116 0.2480
B6 B -0.1645(2) 0.8968(2) 0.17970(7)
H6 H -0.1984 0.9908 0.1787
B7 B -0.2639(2) 0.7742(2) 0.16784(8)
H7 H -0.3641 0.7870 0.1592
B8 B -0.2110(2) 0.6499(2) 0.20201(8)
H8 H -0.2760 0.5802 0.2155
B9 B -0.08030(19) 0.69748(19) 0.23555(7)
H9 H -0.0584 0.6592 0.2711
B10 B -0.2066(2) 0.7963(2) 0.22620(8)
H10 H -0.2690 0.8238 0.2559
C3 C 0.06242(17) 0.67472(16) 0.10087(6)
C4 C 0.14405(17) 0.75305(16) 0.07883(6)
H11 H 0.1442 0.8346 0.0876
C5 C 0.22533(19) 0.71312(18) 0.04406(7)
H12 H 0.2817 0.7661 0.0292
C6 C 0.22201(19) 0.59511(19) 0.03177(6)
C7 C 0.1429(2) 0.51559(18) 0.05239(7)
H13 H 0.1430 0.4345 0.0431
C8 C 0.0624(2) 0.55561(17) 0.08719(6)
H14 H 0.0069 0.5014 0.1018
C9 C 0.16556(16) 0.72097(16) 0.20488(6)
C10 C 0.24275(18) 0.82002(18) 0.20759(7)
H15 H 0.2099 0.8971 0.2020
C11 C 0.36760(19) 0.8066(2) 0.21847(7)
H16 H 0.4198 0.8745 0.2198
C12 C 0.41584(18) 0.6950(2) 0.22719(6)
H17 H 0.5010 0.6860 0.2347
C13 C 0.34002(18) 0.59657(19) 0.22510(7)
H18 H 0.3731 0.5199 0.2313
C14 C 0.21482(18) 0.60904(17) 0.21391(6)
H19 H 0.1632 0.5408 0.2125
F2 F 0.5822(2) 0.74385(16) 0.05568(7)
C15 C 0.45528(15) 0.26649(15) 0.08533(6)
C16 C 0.56050(16) 0.16566(15) 0.10724(6)
B11 B 0.51348(19) 0.15713(18) 0.04903(7)
H20 H 0.5763 0.1766 0.0185
B12 B 0.35483(19) 0.19639(19) 0.04777(7)
H21 H 0.3116 0.2402 0.0163
B13 B 0.31113(19) 0.23357(19) 0.10664(7)
H22 H 0.2387 0.3022 0.1141
B14 B 0.44337(19) 0.21704(18) 0.14313(7)
H23 H 0.4601 0.2758 0.1744
B15 B 0.53154(19) 0.02767(18) 0.08426(7)
H24 H 0.6051 -0.0399 0.0768
B16 B 0.4001(2) 0.04433(19) 0.04719(7)
H25 H 0.3863 -0.0127 0.0152
B17 B 0.2742(2) 0.09090(19) 0.08326(8)
H26 H 0.1765 0.0642 0.0752
B18 B 0.3287(2) 0.10536(19) 0.14258(7)
H27 H 0.2672 0.0889 0.1738
B19 B 0.48798(19) 0.06485(18) 0.14315(7)
H28 H 0.5324 0.0221 0.1746
B20 B 0.38307(19) -0.01296(19) 0.10585(7)
H29 H 0.3576 -0.1079 0.1127
C17 C 0.49467(16) 0.39323(16) 0.07818(6)
C18 C 0.56900(19) 0.42654(17) 0.04008(6)
H30 H 0.5993 0.3677 0.0190
C19 C 0.5992(2) 0.54512(18) 0.03290(7)
H31 H 0.6500 0.5676 0.0070
C20 C 0.55488(19) 0.62958(17) 0.06369(7)
C21 C 0.48191(18) 0.59998(17) 0.10175(7)
H32 H 0.4523 0.6595 0.1227
C22 C 0.45206(18) 0.48120(16) 0.10906(6)
H33 H 0.4021 0.4595 0.1353
C23 C 0.69133(16) 0.20404(15) 0.11622(6)
C24 C 0.78545(17) 0.16710(18) 0.08590(7)
H34 H 0.7656 0.1221 0.0585
C25 C 0.90783(19) 0.1950(2) 0.09556(8)
H35 H 0.9717 0.1697 0.0748
C26 C 0.9360(2) 0.2600(2) 0.13542(8)
H36 H 1.0207 0.2791 0.1423
C27 C 0.8446(2) 0.2979(2) 0.16548(7)
H37 H 0.8652 0.3428 0.1928
C28 C 0.72205(19) 0.27064(17) 0.15612(7)
H38 H 0.6588 0.2974 0.1769
F3? F 0.525(2) 0.671(2) 0.2401(8)
F4? F 1.0450(3) 0.2949(3) 0.14889(13)
H39? H 0.5754 0.7116 0.0585
loop_
_geom_bond_atom_site_label_1
_geom_bond_atom_site_label_2
_geom_bond_site_symmetry_1
_geom_bond_site_symmetry_2
F1 C6 1_555 1_555
C1 C2 1_555 1_555
C2 B1 1_555 1_555
B1 C1 1_555 1_555
H1 B1 1_555 1_555
B2 C1 1_555 1_555
H2 B2 1_555 1_555
B3 C1 1_555 1_555
H3 B3 1_555 1_555
B4 C1 1_555 1_555
H4 B4 1_555 1_555
B5 C2 1_555 1_555
H5 B5 1_555 1_555
B6 B1 1_555 1_555
H6 B6 1_555 1_555
B7 B2 1_555 1_555
H7 B7 1_555 1_555
B8 B3 1_555 1_555
H8 B8 1_555 1_555
B9 C2 1_555 1_555
H9 B9 1_555 1_555
B10 B5 1_555 1_555
H10 B10 1_555 1_555
C3 C1 1_555 1_555
C4 C3 1_555 1_555
H11 C4 1_555 1_555
C5 C4 1_555 1_555
H12 C5 1_555 1_555
C6 C5 1_555 1_555
C7 C6 1_555 1_555
H13 C7 1_555 1_555
C8 C3 1_555 1_555
H14 C8 1_555 1_555
C9 C2 1_555 1_555
C10 C9 1_555 1_555
H15 C10 1_555 1_555
C11 C10 1_555 1_555
H16 C11 1_555 1_555
C12 C11 1_555 1_555
H17 C12 1_555 1_555
C13 C12 1_555 1_555
H18 C13 1_555 1_555
C14 C9 1_555 1_555
H19 C14 1_555 1_555
F2 C20 1_555 1_555
C15 C16 1_555 1_555
C16 B11 1_555 1_555
B11 C15 1_555 1_555
H20 B11 1_555 1_555
B12 C15 1_555 1_555
H21 B12 1_555 1_555
B13 C15 1_555 1_555
H22 B13 1_555 1_555
B14 C15 1_555 1_555
H23 B14 1_555 1_555
B15 C16 1_555 1_555
H24 B15 1_555 1_555
B16 B11 1_555 1_555
H25 B16 1_555 1_555
B17 B12 1_555 1_555
H26 B17 1_555 1_555
B18 B13 1_555 1_555
H27 B18 1_555 1_555
B19 C16 1_555 1_555
H28 B19 1_555 1_555
B20 B15 1_555 1_555
H29 B20 1_555 1_555
C17 C15 1_555 1_555
C18 C17 1_555 1_555
H30 C18 1_555 1_555
C19 C18 1_555 1_555
H31 C19 1_555 1_555
C20 C19 1_555 1_555
C21 C20 1_555 1_555
H32 C21 1_555 1_555
C22 C17 1_555 1_555
H33 C22 1_555 1_555
C23 C16 1_555 1_555
C24 C23 1_555 1_555
H34 C24 1_555 1_555
C25 C24 1_555 1_555
H35 C25 1_555 1_555
C26 C25 1_555 1_555
H36 C26 1_555 1_555
C27 C26 1_555 1_555
H37 C27 1_555 1_555
C28 C23 1_555 1_555
H38 C28 1_555 1_555
C2 B4 1_555 1_555
B1 B2 1_555 1_555
B1 B5 1_555 1_555
B2 B3 1_555 1_555
B2 B6 1_555 1_555
B3 B4 1_555 1_555
B3 B7 1_555 1_555
B4 B8 1_555 1_555
B4 B9 1_555 1_555
B5 B6 1_555 1_555
B5 B9 1_555 1_555
B6 B7 1_555 1_555
B6 B10 1_555 1_555
B7 B8 1_555 1_555
B7 B10 1_555 1_555
B8 B9 1_555 1_555
B8 B10 1_555 1_555
B9 B10 1_555 1_555
C7 C8 1_555 1_555
C13 C14 1_555 1_555
C16 B14 1_555 1_555
B11 B12 1_555 1_555
B11 B15 1_555 1_555
B12 B13 1_555 1_555
B12 B16 1_555 1_555
B13 B14 1_555 1_555
B13 B17 1_555 1_555
B14 B18 1_555 1_555
B14 B19 1_555 1_555
B15 B16 1_555 1_555
B15 B19 1_555 1_555
B16 B17 1_555 1_555
B16 B20 1_555 1_555
B17 B18 1_555 1_555
B17 B20 1_555 1_555
B18 B19 1_555 1_555
B18 B20 1_555 1_555
B19 B20 1_555 1_555
C21 C22 1_555 1_555
C27 C28 1_555 1_555

#END
