
#######################################################################
#
#                 Cambridge Crystallographic Data Centre
#                                CCDC 
#
#######################################################################
#
# If this CIF has been generated from an entry in the Cambridge 
# Structural Database, then it will include bibliographic, chemical, 
# crystal, experimental, refinement or atomic coordinate data resulting 
# from the CCDC's data processing and validation procedures.
#
#######################################################################

data_UHONAH
_chemical_formula_moiety         'C14 H20 B10 O1,0.08(C6 H14)'
_chemical_name_systematic        
'1-(4-Hydroxyphenyl)-2-phenyl-1,2-dicarba-closo-dodecaborane n-hexane solvate'
_symmetry_cell_setting           triclinic
_symmetry_space_group_name_H-M   'P -1'
_symmetry_Int_Tables_number      2
_space_group_name_Hall           '-P 1'
loop_
_symmetry_equiv_pos_site_id
_symmetry_equiv_pos_as_xyz
1 x,y,z
2 -x,-y,-z
_cell_length_a                   12.7576(11)
_cell_length_b                   15.5454(15)
_cell_length_c                   27.808(3)
_cell_angle_alpha                87.14(1)
_cell_angle_beta                 88.04(1)
_cell_angle_gamma                82.34(1)
_cell_volume                     5456.8
_exptl_crystal_colour            colorless
_exptl_crystal_description       block
_cell_formula_units_Z            12
loop_
_atom_site_label
_atom_site_type_symbol
_atom_site_fract_x
_atom_site_fract_y
_atom_site_fract_z
O1 O 0.64716(9) 0.36637(9) 0.53051(5)
H1 H 0.6030 0.4077 0.5383
C1 C 1.09263(12) 0.33815(10) 0.54054(6)
C2 C 1.17338(11) 0.24322(10) 0.55393(6)
B1 B 1.17319(15) 0.28923(17) 0.49604(8)
H2 H 1.1425 0.2593 0.4646
B2 B 1.15717(17) 0.40332(19) 0.50197(11)
H3 H 1.1167 0.4492 0.4741
B3 B 1.14285(16) 0.42297(14) 0.56399(11)
H4 H 1.0928 0.4821 0.5772
B4 B 1.15008(14) 0.32126(12) 0.59596(8)
H5 H 1.1035 0.3123 0.6302
B5 B 1.29305(15) 0.24402(16) 0.52426(8)
H6 H 1.3424 0.1846 0.5110
B6 B 1.28482(17) 0.3459(2) 0.49185(11)
H7 H 1.3292 0.3543 0.4570
B7 B 1.26641(18) 0.42848(18) 0.53449(14)
H8 H 1.2992 0.4913 0.5279
B8 B 1.26118(16) 0.37756(14) 0.59298(11)
H9 H 1.2895 0.4066 0.6253
B9 B 1.27767(14) 0.26361(13) 0.58653(8)
H10 H 1.3165 0.2171 0.6145
B10 B 1.34999(16) 0.32978(16) 0.54796(10)
H11 H 1.4375 0.3276 0.5502
C3 C 0.97493(11) 0.33790(10) 0.53923(6)
C4 C 0.92721(13) 0.30158(14) 0.50286(6)
H12 H 0.9697 0.2708 0.4791
C5 C 0.81792(13) 0.30979(15) 0.50035(6)
H13 H 0.7864 0.2837 0.4754
C6 C 0.75521(11) 0.35542(10) 0.53408(6)
C7 C 0.80087(13) 0.39075(12) 0.57109(7)
H14 H 0.7578 0.4213 0.5948
C8 C 0.90999(13) 0.38170(12) 0.57364(8)
H15 H 0.9408 0.4059 0.5995
C9 C 1.12470(12) 0.16045(10) 0.56175(6)
C10 C 1.14799(17) 0.09426(13) 0.52969(8)
H16 H 1.1922 0.1025 0.5022
C11 C 1.1069(2) 0.01631(15) 0.53761(11)
H17 H 1.1241 -0.0286 0.5157
C12 C 1.04206(19) 0.00396(14) 0.57648(11)
H18 H 1.0139 -0.0493 0.5816
C13 C 1.01749(17) 0.06840(14) 0.60809(9)
H19 H 0.9722 0.0597 0.6351
C14 C 1.05865(14) 0.14673(12) 0.60115(7)
H20 H 1.0412 0.1910 0.6234
O2 O 0.57303(10) 0.36092(8) 0.44075(5)
H21 H 0.5909 0.3685 0.4684
C15 C 0.43010(12) 0.05183(10) 0.38684(5)
C16 C 0.48239(12) -0.01748(9) 0.34279(5)
B11 B 0.36457(14) 0.04987(11) 0.33384(6)
H22 H 0.3564 0.1054 0.3066
B12 B 0.29536(14) 0.05536(13) 0.39039(7)
H23 H 0.2399 0.1139 0.4005
B13 B 0.37792(15) -0.00641(13) 0.43338(7)
H24 H 0.3772 0.0115 0.4718
B14 B 0.49633(14) -0.04935(11) 0.40291(6)
H25 H 0.5743 -0.0587 0.4209
B15 B 0.38210(14) -0.05985(11) 0.31683(7)
H26 H 0.3837 -0.0773 0.2783
B16 B 0.26309(14) -0.01544(12) 0.34679(7)
H27 H 0.1861 -0.0036 0.3280
B17 B 0.27179(16) -0.05174(14) 0.40879(8)
H28 H 0.2003 -0.0644 0.4310
B18 B 0.39690(16) -0.11628(13) 0.41678(7)
H29 H 0.4082 -0.1712 0.4444
B19 B 0.46447(15) -0.12143(12) 0.36000(7)
H30 H 0.5207 -0.1796 0.3500
B20 B 0.32506(15) -0.12259(13) 0.36345(7)
H31 H 0.2885 -0.1818 0.3559
C17 C 0.47947(12) 0.13144(10) 0.39682(5)
C18 C 0.44587(18) 0.21053(12) 0.37373(8)
H32 H 0.3990 0.2129 0.3478
C19 C 0.47892(18) 0.28639(12) 0.38771(9)
H33 H 0.4552 0.3398 0.3711
C20 C 0.54597(12) 0.28489(10) 0.42526(6)
C21 C 0.58272(17) 0.20683(13) 0.44768(7)
H34 H 0.6309 0.2049 0.4730
C22 C 0.54970(17) 0.13091(12) 0.43364(7)
H35 H 0.5758 0.0774 0.4496
C23 C 0.57773(12) 0.00146(10) 0.31312(6)
C24 C 0.56555(14) 0.03436(13) 0.26589(6)
H36 H 0.4968 0.0475 0.2534
C25 C 0.65289(16) 0.04832(14) 0.23689(7)
H37 H 0.6436 0.0711 0.2048
C26 C 0.75336(15) 0.02910(12) 0.25459(8)
H38 H 0.8131 0.0394 0.2350
C27 C 0.76640(14) -0.00500(13) 0.30110(8)
H39 H 0.8355 -0.0195 0.3130
C28 C 0.67987(13) -0.01871(12) 0.33041(7)
H40 H 0.6900 -0.0416 0.3624
O3 O 0.46687(10) 0.51730(9) 0.40957(4)
H41 H 0.5015 0.4780 0.4258
C29 C 0.55636(11) 0.67230(10) 0.22643(5)
C30 C 0.48088(11) 0.65867(9) 0.17807(5)
B21 B 0.46692(14) 0.75770(11) 0.20485(6)
H42 H 0.3940 0.7840 0.2255
B22 B 0.59504(14) 0.77406(12) 0.22253(6)
H43 H 0.6074 0.8119 0.2545
B23 B 0.68337(14) 0.68057(12) 0.20725(6)
H44 H 0.7542 0.6570 0.2292
B24 B 0.60933(13) 0.60778(11) 0.18054(6)
H45 H 0.6302 0.5358 0.1853
B25 B 0.46837(14) 0.75099(11) 0.14123(6)
H46 H 0.3970 0.7739 0.1196
B26 B 0.54107(15) 0.82482(12) 0.16834(7)
H47 H 0.5178 0.8966 0.1645
B27 B 0.67624(15) 0.77709(13) 0.16921(7)
H48 H 0.7425 0.8175 0.1657
B28 B 0.68537(14) 0.67289(12) 0.14360(7)
H49 H 0.7579 0.6443 0.1234
B29 B 0.55669(14) 0.65759(11) 0.12618(6)
H50 H 0.5438 0.6189 0.0946
B30 B 0.59804(15) 0.76260(12) 0.11937(6)
H51 H 0.6130 0.7936 0.0831
C31 C 0.53095(11) 0.62931(10) 0.27422(5)
C32 C 0.46469(13) 0.67457(10) 0.30770(6)
H52 H 0.4329 0.7318 0.2994
C33 C 0.44397(13) 0.63795(10) 0.35286(6)
H53 H 0.3993 0.6703 0.3753
C34 C 0.48884(12) 0.55396(10) 0.36512(5)
C35 C 0.55489(12) 0.50739(11) 0.33229(6)
H54 H 0.5854 0.4498 0.3405
C36 C 0.57612(12) 0.54518(11) 0.28736(6)
H55 H 0.6221 0.5132 0.2652
C37 C 0.39101(12) 0.60579(10) 0.18558(5)
C38 C 0.28754(13) 0.64721(11) 0.19048(6)
H56 H 0.2747 0.7087 0.1905
C39 C 0.20317(13) 0.59921(13) 0.19544(6)
H57 H 0.1332 0.6280 0.1987
C40 C 0.22074(14) 0.50943(13) 0.19554(6)
H58 H 0.1631 0.4767 0.1989
C41 C 0.32294(14) 0.46779(12) 0.19084(6)
H59 H 0.3352 0.4063 0.1909
C42 C 0.40777(13) 0.51528(11) 0.18602(5)
H60 H 0.4775 0.4859 0.1830
O4 O 0.07490(9) 0.34804(7) -0.05063(4)
H61 H 0.0421(16) 0.3958(14) -0.0633(8)
C43 C -0.08626(12) 0.05174(10) -0.11349(6)
C44 C -0.09069(11) 0.03693(10) -0.17408(6)
B31 B -0.20693(13) 0.06275(12) -0.14089(7)
H62 H -0.2590 0.1262 -0.1455
B32 B -0.18851(17) 0.00883(14) -0.08357(8)
H63 H -0.2290 0.0358 -0.0503
B33 B -0.05672(17) -0.04673(13) -0.08342(8)
H64 H -0.0105 -0.0564 -0.0497
B34 B 0.00427(14) -0.02579(12) -0.14025(7)
H65 H 0.0906 -0.0204 -0.1443
B35 B -0.19587(14) -0.01664(12) -0.18505(8)
H66 H -0.2418 -0.0063 -0.2188
B36 B -0.25773(15) -0.03627(13) -0.12840(9)
H67 H -0.3446 -0.0393 -0.1246
B37 B -0.16436(18) -0.10513(14) -0.09278(9)
H68 H -0.1895 -0.1540 -0.0654
B38 B -0.04410(16) -0.12586(12) -0.12796(8)
H69 H 0.0103 -0.1881 -0.1237
B39 B -0.06441(14) -0.07117(12) -0.18493(8)
H70 H -0.0235 -0.0968 -0.2184
B40 B -0.16887(15) -0.11997(12) -0.15552(8)
H71 H -0.1972 -0.1787 -0.1695
C45 C -0.04466(12) 0.13143(10) -0.09762(5)
C46 C -0.09087(12) 0.21484(10) -0.11158(5)
H72 H -0.1505 0.2218 -0.1315
C47 C -0.05138(12) 0.28769(10) -0.09691(5)
H73 H -0.0829 0.3439 -0.1073
C48 C 0.03440(12) 0.27780(10) -0.06686(5)
C49 C 0.08124(13) 0.19549(11) -0.05223(6)
H74 H 0.1395 0.1888 -0.0315
C50 C 0.04248(13) 0.12278(10) -0.06803(6)
H75 H 0.0758 0.0666 -0.0586
C51 C -0.05922(13) 0.10694(10) -0.20883(6)
C52 C -0.13274(15) 0.14751(12) -0.24165(7)
H76 H -0.2010 0.1300 -0.2421
C53 C -0.10645(19) 0.21326(14) -0.27366(7)
H77 H -0.1568 0.2403 -0.2958
C54 C -0.00747(19) 0.23947(14) -0.27329(7)
H78 H 0.0101 0.2846 -0.2950
C55 C 0.06592(17) 0.19968(14) -0.24112(7)
H79 H 0.1341 0.2175 -0.2409
C56 C 0.04059(14) 0.13362(12) -0.20896(7)
H80 H 0.0915 0.1066 -0.1871
O5 O 0.14545(8) 0.38872(8) 0.03476(4)
H81 H 0.1250(18) 0.3681(15) 0.0090(9)
C57 C 0.59152(11) 0.34916(9) 0.04746(5)
C58 C 0.65540(11) 0.29846(9) 0.09672(5)
B41 B 0.65031(13) 0.40957(11) 0.08678(6)
H82 H 0.6044 0.4577 0.1106
B42 B 0.66009(13) 0.42937(11) 0.02372(6)
H83 H 0.6219 0.4910 0.0058
B43 B 0.66715(13) 0.32744(12) -0.00357(6)
H84 H 0.6338 0.3220 -0.0398
B44 B 0.65984(13) 0.24585(11) 0.04320(6)
H85 H 0.6202 0.1871 0.0384
B45 B 0.76797(13) 0.34357(11) 0.10587(6)
H86 H 0.8013 0.3488 0.1421
B46 B 0.77346(13) 0.42607(12) 0.05960(6)
H87 H 0.8105 0.4858 0.0653
B47 B 0.78439(13) 0.37459(12) 0.00345(7)
H88 H 0.8291 0.4003 -0.0281
B48 B 0.78357(13) 0.26021(12) 0.01546(7)
H89 H 0.8272 0.2104 -0.0081
B49 B 0.77334(13) 0.24148(12) 0.07905(7)
H90 H 0.8095 0.1797 0.0976
B50 B 0.85048(13) 0.32179(12) 0.05411(6)
H91 H 0.9386 0.3129 0.0558
C59 C 0.47324(11) 0.35705(9) 0.04561(5)
C60 C 0.40747(11) 0.40923(10) 0.07655(5)
H92 H 0.4378 0.4388 0.1005
C61 C 0.29844(11) 0.41856(10) 0.07300(5)
H93 H 0.2547 0.4536 0.0946
C62 C 0.25360(11) 0.37626(10) 0.03769(5)
C63 C 0.31751(12) 0.32344(10) 0.00674(5)
H94 H 0.2869 0.2942 -0.0172
C64 C 0.42661(11) 0.31356(10) 0.01110(5)
H95 H 0.4700 0.2767 -0.0098
C65 C 0.58725(11) 0.27112(10) 0.13853(5)
C66 C 0.59999(13) 0.30179(11) 0.18399(6)
H96 H 0.6533 0.3375 0.1884
C67 C 0.53553(14) 0.28081(12) 0.22279(6)
H97 H 0.5459 0.3011 0.2536
C68 C 0.45636(14) 0.22990(12) 0.21649(7)
H98 H 0.4109 0.2169 0.2428
C69 C 0.44350(14) 0.19841(11) 0.17185(7)
H99 H 0.3900 0.1629 0.1677
C70 C 0.50882(12) 0.21837(10) 0.13297(6)
H100 H 0.4999 0.1960 0.1025
O6 O 0.02371(9) 0.50113(7) 0.09127(4)
H101 H 0.0604(17) 0.4635(15) 0.0736(8)
C71 C -0.07514(11) 0.33626(9) 0.27019(5)
C72 C 0.00366(11) 0.33830(9) 0.31921(5)
B51 B -0.12130(13) 0.39649(11) 0.31891(6)
H102 H -0.1359 0.4690 0.3171
B52 B -0.20304(13) 0.33304(11) 0.28953(6)
H103 H -0.2729 0.3635 0.2687
B53 B -0.12263(13) 0.23843(11) 0.27011(6)
H104 H -0.1390 0.2064 0.2366
B54 B 0.00830(13) 0.24433(11) 0.28833(6)
H105 H 0.0791 0.2172 0.2665
B55 B -0.07110(14) 0.33658(11) 0.37117(6)
H106 H -0.0538 0.3693 0.4043
B56 B -0.20250(14) 0.33188(12) 0.35348(6)
H107 H -0.2723 0.3615 0.3751
B57 B -0.20383(15) 0.23292(12) 0.32346(7)
H108 H -0.2742 0.1970 0.3255
B58 B -0.07157(14) 0.17796(11) 0.32201(6)
H109 H -0.0546 0.1055 0.3227
B59 B 0.00917(15) 0.24161(11) 0.35205(6)
H110 H 0.0796 0.2116 0.3726
B60 B -0.12188(15) 0.23510(12) 0.37358(7)
H111 H -0.1386 0.2002 0.4085
C73 C -0.04697(11) 0.38168(9) 0.22367(5)
C74 C -0.08447(12) 0.46889(10) 0.21275(5)
H112 H -0.1265 0.5017 0.2359
C75 C -0.06079(12) 0.50807(10) 0.16843(6)
H113 H -0.0865 0.5673 0.1614
C76 C 0.00089(11) 0.46014(9) 0.13435(5)
C77 C 0.03809(11) 0.37332(10) 0.14445(5)
H114 H 0.0797 0.3406 0.1212
C78 C 0.01394(11) 0.33490(9) 0.18872(5)
H115 H 0.0395 0.2756 0.1955
C79 C 0.09775(12) 0.38717(10) 0.31448(5)
C80 C 0.08665(14) 0.47673(11) 0.31925(6)
H116 H 0.0186 0.5079 0.3247
C81 C 0.17487(15) 0.52058(13) 0.31606(7)
H117 H 0.1664 0.5816 0.3190
C82 C 0.27485(15) 0.47586(13) 0.30860(6)
H118 H 0.3348 0.5060 0.3066
C83 C 0.28642(14) 0.38696(13) 0.30405(6)
H119 H 0.3548 0.3561 0.2991
C84 C 0.19881(13) 0.34249(12) 0.30697(6)
H120 H 0.2077 0.2816 0.3036
C85 C 0.6753(2) -0.00803(19) 0.07920(15)
H121 H 0.6731 0.0017 0.1130
H122 H 0.7109 -0.0651 0.0737
H123 H 0.7126 0.0343 0.0623
C86 C 0.5664(2) -0.00031(17) 0.06166(11)
H124 H 0.5293 0.0547 0.0703
H125 H 0.5309 -0.0447 0.0777
C87 C 0.5569(2) -0.0057(2) 0.00917(12)
H126 H 0.5894 -0.0623 0.0008
H127 H 0.5962 0.0361 -0.0069
C85A C 0.3247(2) 0.00803(19) -0.07920(15)
H121A H 0.3269 -0.0017 -0.1130
H122A H 0.2891 0.0651 -0.0737
H123A H 0.2874 -0.0343 -0.0623
C86A C 0.4336(2) 0.00031(17) -0.06166(11)
H124A H 0.4707 -0.0547 -0.0703
H125A H 0.4691 0.0447 -0.0777
C87A C 0.4431(2) 0.0057(2) -0.00917(12)
H126A H 0.4106 0.0623 -0.0008
H127A H 0.4038 -0.0361 0.0069
C88? C 0.6096(15) -0.0435(12) 0.0170(7)
C89? C 0.5093(16) -0.0529(13) -0.0164(7)
H128? H 0.6128 0.3623 0.5066
H129? H 0.5280 0.3933 0.4404
H130? H 0.4565 0.5598 0.4279
loop_
_geom_bond_atom_site_label_1
_geom_bond_atom_site_label_2
_geom_bond_site_symmetry_1
_geom_bond_site_symmetry_2
O1 H1 1_555 1_555
C1 C2 1_555 1_555
C2 B1 1_555 1_555
B1 C1 1_555 1_555
H2 B1 1_555 1_555
B2 C1 1_555 1_555
H3 B2 1_555 1_555
B3 C1 1_555 1_555
H4 B3 1_555 1_555
B4 C1 1_555 1_555
H5 B4 1_555 1_555
B5 C2 1_555 1_555
H6 B5 1_555 1_555
B6 B1 1_555 1_555
H7 B6 1_555 1_555
B7 B2 1_555 1_555
H8 B7 1_555 1_555
B8 B3 1_555 1_555
H9 B8 1_555 1_555
B9 C2 1_555 1_555
H10 B9 1_555 1_555
B10 B5 1_555 1_555
H11 B10 1_555 1_555
C3 C1 1_555 1_555
C4 C3 1_555 1_555
H12 C4 1_555 1_555
C5 C4 1_555 1_555
H13 C5 1_555 1_555
C6 O1 1_555 1_555
C7 C6 1_555 1_555
H14 C7 1_555 1_555
C8 C3 1_555 1_555
H15 C8 1_555 1_555
C9 C2 1_555 1_555
C10 C9 1_555 1_555
H16 C10 1_555 1_555
C11 C10 1_555 1_555
H17 C11 1_555 1_555
C12 C11 1_555 1_555
H18 C12 1_555 1_555
C13 C12 1_555 1_555
H19 C13 1_555 1_555
C14 C9 1_555 1_555
H20 C14 1_555 1_555
O2 H21 1_555 1_555
C15 C16 1_555 1_555
C16 B11 1_555 1_555
B11 C15 1_555 1_555
H22 B11 1_555 1_555
B12 C15 1_555 1_555
H23 B12 1_555 1_555
B13 C15 1_555 1_555
H24 B13 1_555 1_555
B14 C15 1_555 1_555
H25 B14 1_555 1_555
B15 C16 1_555 1_555
H26 B15 1_555 1_555
B16 B11 1_555 1_555
H27 B16 1_555 1_555
B17 B12 1_555 1_555
H28 B17 1_555 1_555
B18 B13 1_555 1_555
H29 B18 1_555 1_555
B19 C16 1_555 1_555
H30 B19 1_555 1_555
B20 B15 1_555 1_555
H31 B20 1_555 1_555
C17 C15 1_555 1_555
C18 C17 1_555 1_555
H32 C18 1_555 1_555
C19 C18 1_555 1_555
H33 C19 1_555 1_555
C20 O2 1_555 1_555
C21 C20 1_555 1_555
H34 C21 1_555 1_555
C22 C17 1_555 1_555
H35 C22 1_555 1_555
C23 C16 1_555 1_555
C24 C23 1_555 1_555
H36 C24 1_555 1_555
C25 C24 1_555 1_555
H37 C25 1_555 1_555
C26 C25 1_555 1_555
H38 C26 1_555 1_555
C27 C26 1_555 1_555
H39 C27 1_555 1_555
C28 C23 1_555 1_555
H40 C28 1_555 1_555
O3 H41 1_555 1_555
C29 C30 1_555 1_555
C30 B21 1_555 1_555
B21 C29 1_555 1_555
H42 B21 1_555 1_555
B22 C29 1_555 1_555
H43 B22 1_555 1_555
B23 C29 1_555 1_555
H44 B23 1_555 1_555
B24 C29 1_555 1_555
H45 B24 1_555 1_555
B25 C30 1_555 1_555
H46 B25 1_555 1_555
B26 B21 1_555 1_555
H47 B26 1_555 1_555
B27 B22 1_555 1_555
H48 B27 1_555 1_555
B28 B23 1_555 1_555
H49 B28 1_555 1_555
B29 C30 1_555 1_555
H50 B29 1_555 1_555
B30 B25 1_555 1_555
H51 B30 1_555 1_555
C31 C29 1_555 1_555
C32 C31 1_555 1_555
H52 C32 1_555 1_555
C33 C32 1_555 1_555
H53 C33 1_555 1_555
C34 O3 1_555 1_555
C35 C34 1_555 1_555
H54 C35 1_555 1_555
C36 C31 1_555 1_555
H55 C36 1_555 1_555
C37 C30 1_555 1_555
C38 C37 1_555 1_555
H56 C38 1_555 1_555
C39 C38 1_555 1_555
H57 C39 1_555 1_555
C40 C39 1_555 1_555
H58 C40 1_555 1_555
C41 C40 1_555 1_555
H59 C41 1_555 1_555
C42 C37 1_555 1_555
H60 C42 1_555 1_555
O4 H61 1_555 1_555
C43 C44 1_555 1_555
C44 B31 1_555 1_555
B31 C43 1_555 1_555
H62 B31 1_555 1_555
B32 C43 1_555 1_555
H63 B32 1_555 1_555
B33 C43 1_555 1_555
H64 B33 1_555 1_555
B34 C43 1_555 1_555
H65 B34 1_555 1_555
B35 C44 1_555 1_555
H66 B35 1_555 1_555
B36 B31 1_555 1_555
H67 B36 1_555 1_555
B37 B32 1_555 1_555
H68 B37 1_555 1_555
B38 B33 1_555 1_555
H69 B38 1_555 1_555
B39 C44 1_555 1_555
H70 B39 1_555 1_555
B40 B35 1_555 1_555
H71 B40 1_555 1_555
C45 C43 1_555 1_555
C46 C45 1_555 1_555
H72 C46 1_555 1_555
C47 C46 1_555 1_555
H73 C47 1_555 1_555
C48 O4 1_555 1_555
C49 C48 1_555 1_555
H74 C49 1_555 1_555
C50 C45 1_555 1_555
H75 C50 1_555 1_555
C51 C44 1_555 1_555
C52 C51 1_555 1_555
H76 C52 1_555 1_555
C53 C52 1_555 1_555
H77 C53 1_555 1_555
C54 C53 1_555 1_555
H78 C54 1_555 1_555
C55 C54 1_555 1_555
H79 C55 1_555 1_555
C56 C51 1_555 1_555
H80 C56 1_555 1_555
O5 H81 1_555 1_555
C57 C58 1_555 1_555
C58 B41 1_555 1_555
B41 C57 1_555 1_555
H82 B41 1_555 1_555
B42 C57 1_555 1_555
H83 B42 1_555 1_555
B43 C57 1_555 1_555
H84 B43 1_555 1_555
B44 C57 1_555 1_555
H85 B44 1_555 1_555
B45 C58 1_555 1_555
H86 B45 1_555 1_555
B46 B41 1_555 1_555
H87 B46 1_555 1_555
B47 B42 1_555 1_555
H88 B47 1_555 1_555
B48 B43 1_555 1_555
H89 B48 1_555 1_555
B49 C58 1_555 1_555
H90 B49 1_555 1_555
B50 B45 1_555 1_555
H91 B50 1_555 1_555
C59 C57 1_555 1_555
C60 C59 1_555 1_555
H92 C60 1_555 1_555
C61 C60 1_555 1_555
H93 C61 1_555 1_555
C62 O5 1_555 1_555
C63 C62 1_555 1_555
H94 C63 1_555 1_555
C64 C59 1_555 1_555
H95 C64 1_555 1_555
C65 C58 1_555 1_555
C66 C65 1_555 1_555
H96 C66 1_555 1_555
C67 C66 1_555 1_555
H97 C67 1_555 1_555
C68 C67 1_555 1_555
H98 C68 1_555 1_555
C69 C68 1_555 1_555
H99 C69 1_555 1_555
C70 C65 1_555 1_555
H100 C70 1_555 1_555
O6 H101 1_555 1_555
C71 C72 1_555 1_555
C72 B51 1_555 1_555
B51 C71 1_555 1_555
H102 B51 1_555 1_555
B52 C71 1_555 1_555
H103 B52 1_555 1_555
B53 C71 1_555 1_555
H104 B53 1_555 1_555
B54 C71 1_555 1_555
H105 B54 1_555 1_555
B55 C72 1_555 1_555
H106 B55 1_555 1_555
B56 B51 1_555 1_555
H107 B56 1_555 1_555
B57 B52 1_555 1_555
H108 B57 1_555 1_555
B58 B53 1_555 1_555
H109 B58 1_555 1_555
B59 C72 1_555 1_555
H110 B59 1_555 1_555
B60 B55 1_555 1_555
H111 B60 1_555 1_555
C73 C71 1_555 1_555
C74 C73 1_555 1_555
H112 C74 1_555 1_555
C75 C74 1_555 1_555
H113 C75 1_555 1_555
C76 O6 1_555 1_555
C77 C76 1_555 1_555
H114 C77 1_555 1_555
C78 C73 1_555 1_555
H115 C78 1_555 1_555
C79 C72 1_555 1_555
C80 C79 1_555 1_555
H116 C80 1_555 1_555
C81 C80 1_555 1_555
H117 C81 1_555 1_555
C82 C81 1_555 1_555
H118 C82 1_555 1_555
C83 C82 1_555 1_555
H119 C83 1_555 1_555
C84 C79 1_555 1_555
H120 C84 1_555 1_555
C85 H121 1_555 1_555
H122 C85 1_555 1_555
H123 C85 1_555 1_555
C86 C85 1_555 1_555
H124 C86 1_555 1_555
H125 C86 1_555 1_555
C87 C86 1_555 1_555
H126 C87 1_555 1_555
H127 C87 1_555 1_555
C85A H121A 1_555 1_555
H122A C85A 1_555 1_555
H123A C85A 1_555 1_555
C86A C85A 1_555 1_555
H124A C86A 1_555 1_555
H125A C86A 1_555 1_555
C87A C87 1_555 1_555
H126A C87A 1_555 1_555
H127A C87A 1_555 1_555
C2 B4 1_555 1_555
B1 B2 1_555 1_555
B1 B5 1_555 1_555
B2 B3 1_555 1_555
B2 B6 1_555 1_555
B3 B4 1_555 1_555
B3 B7 1_555 1_555
B4 B8 1_555 1_555
B4 B9 1_555 1_555
B5 B6 1_555 1_555
B5 B9 1_555 1_555
B6 B7 1_555 1_555
B6 B10 1_555 1_555
B7 B8 1_555 1_555
B7 B10 1_555 1_555
B8 B9 1_555 1_555
B8 B10 1_555 1_555
B9 B10 1_555 1_555
C5 C6 1_555 1_555
C7 C8 1_555 1_555
C13 C14 1_555 1_555
C16 B14 1_555 1_555
B11 B12 1_555 1_555
B11 B15 1_555 1_555
B12 B13 1_555 1_555
B12 B16 1_555 1_555
B13 B14 1_555 1_555
B13 B17 1_555 1_555
B14 B18 1_555 1_555
B14 B19 1_555 1_555
B15 B16 1_555 1_555
B15 B19 1_555 1_555
B16 B17 1_555 1_555
B16 B20 1_555 1_555
B17 B18 1_555 1_555
B17 B20 1_555 1_555
B18 B19 1_555 1_555
B18 B20 1_555 1_555
B19 B20 1_555 1_555
C19 C20 1_555 1_555
C21 C22 1_555 1_555
C27 C28 1_555 1_555
C30 B24 1_555 1_555
B21 B22 1_555 1_555
B21 B25 1_555 1_555
B22 B23 1_555 1_555
B22 B26 1_555 1_555
B23 B24 1_555 1_555
B23 B27 1_555 1_555
B24 B28 1_555 1_555
B24 B29 1_555 1_555
B25 B26 1_555 1_555
B25 B29 1_555 1_555
B26 B27 1_555 1_555
B26 B30 1_555 1_555
B27 B28 1_555 1_555
B27 B30 1_555 1_555
B28 B29 1_555 1_555
B28 B30 1_555 1_555
B29 B30 1_555 1_555
C33 C34 1_555 1_555
C35 C36 1_555 1_555
C41 C42 1_555 1_555
C44 B34 1_555 1_555
B31 B32 1_555 1_555
B31 B35 1_555 1_555
B32 B33 1_555 1_555
B32 B36 1_555 1_555
B33 B34 1_555 1_555
B33 B37 1_555 1_555
B34 B38 1_555 1_555
B34 B39 1_555 1_555
B35 B36 1_555 1_555
B35 B39 1_555 1_555
B36 B37 1_555 1_555
B36 B40 1_555 1_555
B37 B38 1_555 1_555
B37 B40 1_555 1_555
B38 B39 1_555 1_555
B38 B40 1_555 1_555
B39 B40 1_555 1_555
C47 C48 1_555 1_555
C49 C50 1_555 1_555
C55 C56 1_555 1_555
C58 B44 1_555 1_555
B41 B42 1_555 1_555
B41 B45 1_555 1_555
B42 B43 1_555 1_555
B42 B46 1_555 1_555
B43 B44 1_555 1_555
B43 B47 1_555 1_555
B44 B48 1_555 1_555
B44 B49 1_555 1_555
B45 B46 1_555 1_555
B45 B49 1_555 1_555
B46 B47 1_555 1_555
B46 B50 1_555 1_555
B47 B48 1_555 1_555
B47 B50 1_555 1_555
B48 B49 1_555 1_555
B48 B50 1_555 1_555
B49 B50 1_555 1_555
C61 C62 1_555 1_555
C63 C64 1_555 1_555
C69 C70 1_555 1_555
C72 B54 1_555 1_555
B51 B52 1_555 1_555
B51 B55 1_555 1_555
B52 B53 1_555 1_555
B52 B56 1_555 1_555
B53 B54 1_555 1_555
B53 B57 1_555 1_555
B54 B58 1_555 1_555
B54 B59 1_555 1_555
B55 B56 1_555 1_555
B55 B59 1_555 1_555
B56 B57 1_555 1_555
B56 B60 1_555 1_555
B57 B58 1_555 1_555
B57 B60 1_555 1_555
B58 B59 1_555 1_555
B58 B60 1_555 1_555
B59 B60 1_555 1_555
C75 C76 1_555 1_555
C77 C78 1_555 1_555
C83 C84 1_555 1_555
C86A C87A 1_555 1_555

#END
