
#######################################################################
#
#                 Cambridge Crystallographic Data Centre
#                                CCDC 
#
#######################################################################
#
# If this CIF has been generated from an entry in the Cambridge 
# Structural Database, then it will include bibliographic, chemical, 
# crystal, experimental, refinement or atomic coordinate data resulting 
# from the CCDC's data processing and validation procedures.
#
#######################################################################

data_UHUFIO
_chemical_name_common            
'diethyl 4-oxo-3-phenyl-1,3a,4,9b-tetrahydrochromeno[4,3-b]pyrrole-2,2(3H)-dicarboxylate'
_chemical_formula_moiety         'C23 H23 N1 O6'
_chemical_name_systematic        
'(3S,3aR,9bR)-diethyl 4-oxo-3-phenyl-1,3a,4,9b-tetrahydrochromeno[4,3-b]pyrrole-2,2(3H)-dicarboxylate'
_symmetry_cell_setting           triclinic
_symmetry_space_group_name_H-M   'P -1'
_symmetry_Int_Tables_number      2
_space_group_name_Hall           '-P 1'
loop_
_symmetry_equiv_pos_site_id
_symmetry_equiv_pos_as_xyz
1 x,y,z
2 -x,-y,-z
_cell_length_a                   11.9434(15)
_cell_length_b                   13.6730(17)
_cell_length_c                   15.0587(17)
_cell_angle_alpha                67.836(11)
_cell_angle_beta                 66.852(11)
_cell_angle_gamma                74.346(11)
_cell_volume                     2072.63
_exptl_crystal_colour            'light colorless'
_exptl_crystal_description       'small block'
_chemical_melting_point          '417.15-418.15 K'
_cell_formula_units_Z            4
_chemical_properties_physical    Air-Stable
_exptl_crystal_recrystallization_method 'dichloromethane/petroleum ether'
_exptl_crystal_preparation       'Normally solid'
loop_
_atom_site_label
_atom_site_type_symbol
_atom_site_fract_x
_atom_site_fract_y
_atom_site_fract_z
O1 O -0.1218(3) 0.4763(3) 1.1478(3)
O2 O 0.0501(3) 0.3672(3) 1.1050(2)
O3 O 0.2193(3) 0.6132(2) 1.2697(2)
O4 O 0.0869(3) 0.7636(2) 1.2487(2)
O5 O 0.0481(4) 0.8156(3) 1.0205(3)
O6 O 0.2226(3) 0.8209(2) 1.0363(2)
N1 N 0.2344(3) 0.5930(3) 1.0915(3)
H1 H 0.270(4) 0.552(3) 1.138(3)
C1 C 0.1257(5) 0.7758(3) 1.0583(3)
C2 C -0.0855(4) 0.6240(3) 1.2731(3)
C3 C -0.0795(4) 0.5498(3) 1.3645(3)
H2 H -0.0170 0.4919 1.3653
C4 C -0.1666(5) 0.5617(4) 1.4551(4)
H3 H -0.1612 0.5123 1.5164
C5 C -0.2604(5) 0.6455(6) 1.4549(5)
H4 H -0.3191 0.6527 1.5157
C6 C -0.2671(5) 0.7177(5) 1.3656(6)
H5 H -0.3305 0.7748 1.3651
C7 C -0.1806(4) 0.7073(4) 1.2754(4)
H6 H -0.1867 0.7577 1.2147
C8 C 0.0073(3) 0.6178(3) 1.1724(3)
H7 H -0.0327 0.6574 1.1207
C9 C 0.0594(3) 0.5075(3) 1.1606(3)
H8 H 0.0799 0.4606 1.2215
C10 C -0.0151(4) 0.4537(4) 1.1390(3)
C11 C 0.1782(5) 0.3432(3) 1.0822(3)
C12 C 0.2478(4) 0.4198(3) 1.0614(2)
C13 C 0.1784(3) 0.5249(3) 1.0711(2)
H9 H 0.1570 0.5651 1.0092
C14 C 0.2306(6) 0.2413(4) 1.0778(3)
H10 H 0.1819 0.1911 1.0916
C15 C 0.3551(6) 0.2156(4) 1.0528(3)
H11 H 0.3911 0.1469 1.0505
C16 C 0.4285(5) 0.2890(3) 1.0309(3)
H12 H 0.5135 0.2705 1.0134
C17 C 0.3741(4) 0.3909(3) 1.0353(3)
H13 H 0.4235 0.4410 1.0203
C18 C 0.1312(3) 0.6654(3) 1.1373(3)
C19 C 0.1532(4) 0.6768(3) 1.2260(3)
C20 C 0.1158(6) 0.7951(5) 1.3278(6)
H14 H 0.1995 0.7676 1.3280
H15 H 0.1015 0.8718 1.3146
C21 C 0.0334(6) 0.7463(5) 1.4146(5)
H16 H -0.0471 0.7677 1.4081
H17 H 0.0338 0.7660 1.4693
H18 H 0.0548 0.6704 1.4285
C22 C 0.2509(11) 0.9221(9) 0.9603(9)
H19 H 0.2067 0.9427 0.9125
H20 H 0.3384 0.9195 0.9235
C23 C 0.2083(14) 0.9966(9) 1.0220(9)
H21 H 0.2088 1.0688 0.9779
H22 H 0.2624 0.9819 1.0601
H23 H 0.1263 0.9870 1.0678
O7 O 0.1281(3) 1.2683(2) 0.3477(2)
O8 O 0.2945(2) 1.34331(17) 0.29055(18)
O9 O 0.3146(3) 0.9689(2) 0.2476(2)
O10 O 0.4841(3) 0.8616(2) 0.2683(2)
O11 O 0.4863(2) 0.87402(18) 0.50096(18)
O12 O 0.3560(2) 0.80160(17) 0.47841(17)
N2 N 0.4944(3) 1.0378(2) 0.3227(2)
H29 H 0.518(3) 1.037(2) 0.368(2)
C26 C 0.2001(3) 1.0077(2) 0.5249(3)
C27 C 0.1130(4) 0.9405(3) 0.5597(3)
H30 H 0.0950 0.9232 0.5132
C28 C 0.0525(4) 0.8989(4) 0.6622(4)
H31 H -0.0047 0.8531 0.6843
C29 C 0.0772(4) 0.9252(4) 0.7312(4)
H32 H 0.0372 0.8970 0.8002
C30 C 0.1602(4) 0.9923(3) 0.6985(3)
H33 H 0.1755 1.0115 0.7453
C31 C 0.2225(3) 1.0326(3) 0.5959(3)
H34 H 0.2806 1.0773 0.5748
C32 C 0.2682(3) 1.0479(2) 0.4115(2)
H35 H 0.2134 1.0538 0.3750
C33 C 0.3142(3) 1.1547(2) 0.3739(2)
H36 H 0.3362 1.1602 0.4278
C34 C 0.4318(3) 1.1454(2) 0.2863(2)
H37 H 0.4092 1.1485 0.2293
C35 C 0.4971(3) 1.2372(3) 0.2540(2)
C36 C 0.4230(3) 1.3340(3) 0.2617(2)
C37 C 0.2343(4) 1.2556(3) 0.3388(3)
C38 C 0.6230(4) 1.2348(3) 0.2178(2)
H38 H 0.6743 1.1713 0.2120
C39 C 0.6736(4) 1.3258(3) 0.1901(3)
H39 H 0.7586 1.3234 0.1653
C40 C 0.5988(4) 1.4196(3) 0.1990(3)
H40 H 0.6336 1.4805 0.1808
C41 C 0.4720(4) 1.4248(3) 0.2349(3)
H41 H 0.4213 1.4885 0.2407
C42 C 0.3936(3) 0.9733(2) 0.3715(2)
C43 C 0.3900(4) 0.9350(3) 0.2894(3)
C44 C 0.4942(6) 0.8110(4) 0.1952(3)
H42 H 0.4204 0.8347 0.1759
H43 H 0.5637 0.8323 0.1346
C45 C 0.5100(6) 0.6990(4) 0.2367(5)
H44 H 0.5125 0.6674 0.1887
H45 H 0.4425 0.6781 0.2978
H46 H 0.5856 0.6753 0.2518
C46 C 0.4199(3) 0.8773(2) 0.4572(2)
C47 C 0.3630(5) 0.7074(3) 0.5641(3)
H47 H 0.4486 0.6802 0.5588
H48 H 0.3225 0.7261 0.6266
C48 C 0.3076(9) 0.6293(5) 0.5668(5)
H49 H 0.3575 0.6003 0.5122
H50 H 0.2279 0.6598 0.5598
H51 H 0.2987 0.5735 0.6304
C24? C 0.1890(12) 0.9401(11) 0.9822(11)
H24? H 0.1847 0.9512 0.9160
H25? H 0.1120 0.9711 1.0226
C25? C 0.2984(15) 0.9838(13) 0.9739(15)
H26? H 0.3017 1.0543 0.9262
H27? H 0.3729 0.9382 0.9510
H28? H 0.2895 0.9866 1.0391
loop_
_geom_bond_atom_site_label_1
_geom_bond_atom_site_label_2
_geom_bond_site_symmetry_1
_geom_bond_site_symmetry_2
O1 C10 1_555 1_555
O2 C10 1_555 1_555
O3 C19 1_555 1_555
O4 C19 1_555 1_555
O5 C1 1_555 1_555
O6 C1 1_555 1_555
N1 H1 1_555 1_555
C1 C18 1_555 1_555
C2 C3 1_555 1_555
C3 H2 1_555 1_555
C4 C3 1_555 1_555
H3 C4 1_555 1_555
C5 C4 1_555 1_555
H4 C5 1_555 1_555
C6 C5 1_555 1_555
H5 C6 1_555 1_555
C7 C2 1_555 1_555
H6 C7 1_555 1_555
C8 C2 1_555 1_555
H7 C8 1_555 1_555
C9 C8 1_555 1_555
H8 C9 1_555 1_555
C10 C9 1_555 1_555
C11 O2 1_555 1_555
C12 C11 1_555 1_555
C13 N1 1_555 1_555
H9 C13 1_555 1_555
C14 C11 1_555 1_555
H10 C14 1_555 1_555
C15 C14 1_555 1_555
H11 C15 1_555 1_555
C16 C15 1_555 1_555
H12 C16 1_555 1_555
C17 C12 1_555 1_555
H13 C17 1_555 1_555
C18 N1 1_555 1_555
C19 C18 1_555 1_555
C20 O4 1_555 1_555
H14 C20 1_555 1_555
H15 C20 1_555 1_555
C21 C20 1_555 1_555
H16 C21 1_555 1_555
H17 C21 1_555 1_555
H18 C21 1_555 1_555
C22 O6 1_555 1_555
H19 C22 1_555 1_555
H20 C22 1_555 1_555
C23 C22 1_555 1_555
H21 C23 1_555 1_555
H22 C23 1_555 1_555
H23 C23 1_555 1_555
O7 C37 1_555 1_555
O8 C36 1_555 1_555
O9 C43 1_555 1_555
O10 C43 1_555 1_555
O11 C46 1_555 1_555
O12 C46 1_555 1_555
N2 H29 1_555 1_555
C26 C27 1_555 1_555
C27 H30 1_555 1_555
C28 C27 1_555 1_555
H31 C28 1_555 1_555
C29 C28 1_555 1_555
H32 C29 1_555 1_555
C30 C29 1_555 1_555
H33 C30 1_555 1_555
C31 C26 1_555 1_555
H34 C31 1_555 1_555
C32 C26 1_555 1_555
H35 C32 1_555 1_555
C33 C32 1_555 1_555
H36 C33 1_555 1_555
C34 N2 1_555 1_555
H37 C34 1_555 1_555
C35 C34 1_555 1_555
C36 C35 1_555 1_555
C37 O8 1_555 1_555
C38 C35 1_555 1_555
H38 C38 1_555 1_555
C39 C38 1_555 1_555
H39 C39 1_555 1_555
C40 C39 1_555 1_555
H40 C40 1_555 1_555
C41 C36 1_555 1_555
H41 C41 1_555 1_555
C42 N2 1_555 1_555
C43 C42 1_555 1_555
C44 O10 1_555 1_555
H42 C44 1_555 1_555
H43 C44 1_555 1_555
C45 C44 1_555 1_555
H44 C45 1_555 1_555
H45 C45 1_555 1_555
H46 C45 1_555 1_555
C46 C42 1_555 1_555
C47 O12 1_555 1_555
H47 C47 1_555 1_555
H48 C47 1_555 1_555
C48 C47 1_555 1_555
H49 C48 1_555 1_555
H50 C48 1_555 1_555
H51 C48 1_555 1_555
C6 C7 1_555 1_555
C8 C18 1_555 1_555
C9 C13 1_555 1_555
C12 C13 1_555 1_555
C16 C17 1_555 1_555
C30 C31 1_555 1_555
C32 C42 1_555 1_555
C33 C34 1_555 1_555
C33 C37 1_555 1_555
C40 C41 1_555 1_555

#END
