
#######################################################################
#
#                 Cambridge Crystallographic Data Centre
#                                CCDC 
#
#######################################################################
#
# If this CIF has been generated from an entry in the Cambridge 
# Structural Database, then it will include bibliographic, chemical, 
# crystal, experimental, refinement or atomic coordinate data resulting 
# from the CCDC's data processing and validation procedures.
#
#######################################################################

data_UHUFEK
_chemical_name_common            
'diethyl 4-oxo-3-phenyl-1,3a,4,9b-tetrahydrochromeno[4,3-b]pyrrole-2,2(3H)-dicarboxylate'
_chemical_formula_moiety         'C23 H23 N1 O6'
_chemical_name_systematic        
'(3S,3aS,9bR)-diethyl 4-oxo-3-phenyl-1,3a,4,9b-tetrahydrochromeno[4,3-b]pyrrole-2,2(3H)-dicarboxylate'
_symmetry_cell_setting           monoclinic
_symmetry_space_group_name_H-M   'P 21/n'
_symmetry_Int_Tables_number      14
_space_group_name_Hall           '-P 2yn'
loop_
_symmetry_equiv_pos_site_id
_symmetry_equiv_pos_as_xyz
1 x,y,z
2 1/2-x,1/2+y,1/2-z
3 -x,-y,-z
4 1/2+x,1/2-y,1/2+z
_cell_length_a                   9.7610(9)
_cell_length_b                   20.0288(15)
_cell_length_c                   10.7032(9)
_cell_angle_alpha                90
_cell_angle_beta                 104.558(8)
_cell_angle_gamma                90
_cell_volume                     2025.31
_exptl_crystal_colour            'light colorless'
_exptl_crystal_description       'small block'
_chemical_melting_point          '412.15-413.15 K'
_cell_formula_units_Z            4
_chemical_properties_physical    Air-Stable
_exptl_crystal_recrystallization_method 'dichloromethane//petroleum ether'
_exptl_crystal_preparation       'Normally solid'
loop_
_atom_site_label
_atom_site_type_symbol
_atom_site_fract_x
_atom_site_fract_y
_atom_site_fract_z
O1 O 0.2042(3) 0.11951(10) 1.00611(16)
O2 O 0.4330(3) 0.11039(12) 1.03579(18)
O3 O 0.46117(19) -0.01848(9) 0.66289(19)
O4 O 0.26748(17) -0.05345(8) 0.51994(16)
O5 O 0.08083(16) 0.09061(8) 0.43212(14)
O6 O 0.31357(15) 0.10520(8) 0.45999(14)
N1 N 0.11971(18) 0.02664(9) 0.66363(16)
H1 H 0.0781 -0.0073 0.6212
C1 C 0.2449(2) 0.04770(10) 0.62420(19)
C2 C 0.3259(2) 0.09155(11) 0.7378(2)
H2 H 0.4272 0.0886 0.7421
C3 C 0.2968(3) 0.05156(12) 0.8545(2)
H3 H 0.3674 0.0158 0.8749
C4 C 0.3187(4) 0.09461(15) 0.9717(2)
C5 C 0.0660(3) 0.09722(12) 0.9494(2)
C6 C -0.0400(4) 0.12689(14) 0.9957(3)
H4 H -0.0184 0.1607 1.0571
C7 C -0.1766(4) 0.10575(17) 0.9499(3)
H5 H -0.2483 0.1256 0.9799
C8 C -0.2090(3) 0.05564(16) 0.8601(3)
H6 H -0.3017 0.0406 0.8308
C9 C -0.1020(3) 0.02767(13) 0.8137(2)
H7 H -0.1243 -0.0058 0.7517
C10 C 0.0374(3) 0.04808(11) 0.8569(2)
C11 C 0.1525(2) 0.01813(11) 0.8040(2)
H8 H 0.1608 -0.0296 0.8248
C12 C 0.2846(2) 0.16459(11) 0.7310(2)
C13 C 0.1452(3) 0.18590(12) 0.6880(2)
H9 H 0.0730 0.1546 0.6643
C14 C 0.1127(3) 0.25324(13) 0.6803(3)
H10 H 0.0192 0.2670 0.6502
C15 C 0.2183(4) 0.29972(14) 0.7169(3)
H11 H 0.1964 0.3450 0.7109
C16 C 0.3558(4) 0.27958(14) 0.7624(3)
H12 H 0.4269 0.3112 0.7892
C17 C 0.3892(3) 0.21233(13) 0.7687(2)
H13 H 0.4831 0.1991 0.7986
C18 C 0.3395(2) -0.01113(11) 0.6060(2)
C19 C 0.3433(3) -0.11261(13) 0.4954(3)
H14 H 0.4006 -0.1303 0.5760
H15 H 0.4054 -0.1013 0.4406
C20 C 0.2382(3) -0.16315(14) 0.4308(3)
H16 H 0.1838 -0.1457 0.3499
H17 H 0.1762 -0.1735 0.4849
H18 H 0.2866 -0.2029 0.4156
C21 C 0.2006(2) 0.08427(10) 0.49530(19)
C22 C 0.2912(3) 0.14181(14) 0.3390(2)
H19 H 0.1979 0.1320 0.2845
H20 H 0.3611 0.1285 0.2935
C23 C 0.3041(4) 0.21416(15) 0.3682(4)
H21 H 0.2899 0.2389 0.2891
H22 H 0.3968 0.2235 0.4218
H23 H 0.2341 0.2270 0.4125
loop_
_geom_bond_atom_site_label_1
_geom_bond_atom_site_label_2
_geom_bond_site_symmetry_1
_geom_bond_site_symmetry_2
O1 C4 1_555 1_555
O2 C4 1_555 1_555
O3 C18 1_555 1_555
O4 C18 1_555 1_555
O5 C21 1_555 1_555
O6 C21 1_555 1_555
N1 H1 1_555 1_555
C1 N1 1_555 1_555
C2 C1 1_555 1_555
H2 C2 1_555 1_555
C3 C2 1_555 1_555
H3 C3 1_555 1_555
C4 C3 1_555 1_555
C5 O1 1_555 1_555
C6 C5 1_555 1_555
H4 C6 1_555 1_555
C7 C6 1_555 1_555
H5 C7 1_555 1_555
C8 C7 1_555 1_555
H6 C8 1_555 1_555
C9 C8 1_555 1_555
H7 C9 1_555 1_555
C10 C5 1_555 1_555
C11 N1 1_555 1_555
H8 C11 1_555 1_555
C12 C2 1_555 1_555
C13 C12 1_555 1_555
H9 C13 1_555 1_555
C14 C13 1_555 1_555
H10 C14 1_555 1_555
C15 C14 1_555 1_555
H11 C15 1_555 1_555
C16 C15 1_555 1_555
H12 C16 1_555 1_555
C17 C12 1_555 1_555
H13 C17 1_555 1_555
C18 C1 1_555 1_555
C19 O4 1_555 1_555
H14 C19 1_555 1_555
H15 C19 1_555 1_555
C20 C19 1_555 1_555
H16 C20 1_555 1_555
H17 C20 1_555 1_555
H18 C20 1_555 1_555
C21 C1 1_555 1_555
C22 O6 1_555 1_555
H19 C22 1_555 1_555
H20 C22 1_555 1_555
C23 C22 1_555 1_555
H21 C23 1_555 1_555
H22 C23 1_555 1_555
H23 C23 1_555 1_555
C3 C11 1_555 1_555
C9 C10 1_555 1_555
C10 C11 1_555 1_555
C16 C17 1_555 1_555

#END
