
#######################################################################
#
#                 Cambridge Crystallographic Data Centre
#                                CCDC 
#
#######################################################################
#
# If this CIF has been generated from an entry in the Cambridge 
# Structural Database, then it will include bibliographic, chemical, 
# crystal, experimental, refinement or atomic coordinate data resulting 
# from the CCDC's data processing and validation procedures.
#
#######################################################################

data_UHUKUE
_chemical_formula_moiety         'C35 H37 N3 O4'
_chemical_name_systematic        
3,4,12,13-Tetramethyl-5,11-diphenyl-3,13-diaza-6,10-dioxa-1(2,6)-pyridina-8(1,3)-benzenacyclotetradecaphane-2,14-dione
_symmetry_cell_setting           monoclinic
_symmetry_space_group_name_H-M   'P 21'
_symmetry_Int_Tables_number      4
_space_group_name_Hall           'P 2yb'
loop_
_symmetry_equiv_pos_site_id
_symmetry_equiv_pos_as_xyz
1 x,y,z
2 -x,1/2+y,-z
_cell_length_a                   9.828(9)
_cell_length_b                   10.310(10)
_cell_length_c                   15.902(15)
_cell_angle_alpha                90
_cell_angle_beta                 96.400(15)
_cell_angle_gamma                90
_cell_volume                     1601.26
_chemical_melting_point          '207-208 deg.C'
_cell_formula_units_Z            2
_exptl_crystal_recrystallization_method methanol/chloroform
loop_
_atom_site_label
_atom_site_type_symbol
_atom_site_fract_x
_atom_site_fract_y
_atom_site_fract_z
O1 O 0.2292(3) 0.0291(3) 0.55713(18)
N1 N 0.6739(3) -0.0523(4) 0.6739(2)
C1 C 0.7835(4) -0.0485(4) 0.7333(3)
O2 O 0.4544(3) 0.1077(3) 0.91249(17)
N2 N 0.4555(4) -0.1321(4) 0.5382(2)
C2 C 0.9148(4) -0.0705(4) 0.7137(3)
H2 H 0.9884 -0.0696 0.7559
O3 O 0.5938(3) -0.0228(3) 0.4597(2)
N3 N 0.7104(4) 0.0869(4) 0.8470(2)
C3 C 0.9355(5) -0.0936(5) 0.6312(3)
H3 H 1.0233 -0.1071 0.6163
O4 O 0.7959(4) -0.1128(4) 0.8735(2)
C4 C 0.8227(4) -0.0965(5) 0.5703(3)
H4 H 0.8341 -0.1107 0.5137
C5 C 0.6950(4) -0.0783(4) 0.5942(3)
C6 C 0.5750(4) -0.0769(4) 0.5269(3)
C7 C 0.3422(4) -0.1133(5) 0.4698(3)
H5 H 0.3821 -0.1160 0.4160
C8 C 0.2796(4) 0.0222(4) 0.4773(3)
H6 H 0.3521 0.0870 0.4756
C9 C 0.2487(9) 0.1502(7) 0.5952(4)
H7 H 0.1974 0.2147 0.5604
H8 H 0.3449 0.1731 0.5986
C10 C 0.2043(6) 0.1529(4) 0.6821(3)
C11 C 0.2769(5) 0.0889(4) 0.7470(3)
H9 H 0.3518 0.0390 0.7363
C12 C 0.2422(4) 0.0963(5) 0.8278(3)
C13 C 0.1293(6) 0.1708(6) 0.8429(4)
H10 H 0.1032 0.1767 0.8972
C14 C 0.0590(6) 0.2336(7) 0.7788(7)
H11 H -0.0165 0.2828 0.7896
C15 C 0.0924(7) 0.2287(6) 0.7001(6)
H12 H 0.0421 0.2753 0.6572
C16 C 0.3318(5) 0.0322(7) 0.8967(3)
H13 H 0.2857 0.0272 0.9475
H14 H 0.3538 -0.0552 0.8800
C17 C 0.5637(4) 0.0408(5) 0.9591(2)
H15 H 0.5627 -0.0491 0.9390
C18 C 0.6966(5) 0.1047(5) 0.9376(3)
H16 H 0.7723 0.0572 0.9690
C19 C 0.7607(4) -0.0259(5) 0.8226(3)
C20 C 0.4327(5) -0.2071(5) 0.6130(3)
H17 H 0.5156 -0.2097 0.6512
H18 H 0.4059 -0.2938 0.5966
H19 H 0.3615 -0.1671 0.6407
C21 C 0.2363(5) -0.2219(5) 0.4676(3)
H20 H 0.2806 -0.3039 0.4620
H21 H 0.1678 -0.2091 0.4204
H22 H 0.1939 -0.2209 0.5192
C22 C 0.1678(4) 0.0502(4) 0.4061(3)
C23 C 0.0314(4) 0.0540(4) 0.4170(3)
H23 H 0.0051 0.0419 0.4708
C24 C -0.0674(5) 0.0751(5) 0.3498(4)
H24 H -0.1594 0.0776 0.3585
C25 C -0.0301(6) 0.0924(5) 0.2711(4)
H25 H -0.0967 0.1058 0.2257
C26 C 0.1054(6) 0.0901(6) 0.2583(4)
H26 H 0.1312 0.1031 0.2044
C27 C 0.2028(5) 0.0684(5) 0.3257(3)
H27 H 0.2947 0.0660 0.3167
C28 C 0.5543(4) 0.0388(5) 1.0533(2)
C29 C 0.6258(4) -0.0504(5) 1.1024(3)
H28 H 0.6775 -0.1122 1.0775
C30 C 0.6229(5) -0.0509(5) 1.1892(3)
H29 H 0.6721 -0.1131 1.2223
C31 C 0.5483(5) 0.0393(6) 1.2263(3)
H30 H 0.5477 0.0401 1.2847
C32 C 0.4746(5) 0.1286(5) 1.1773(3)
H31 H 0.4221 0.1893 1.2025
C33 C 0.4769(5) 0.1301(5) 1.0915(3)
H32 H 0.4267 0.1920 1.0587
C34 C 0.7111(6) 0.2451(6) 0.9651(4)
H33 H 0.7960 0.2791 0.9500
H34 H 0.7102 0.2506 1.0253
H35 H 0.6363 0.2946 0.9375
C35 C 0.6635(5) 0.1898(5) 0.7862(3)
H36 H 0.6805 0.1640 0.7303
H37 H 0.7123 0.2686 0.8013
H38 H 0.5672 0.2039 0.7873
H1? H 0.5927 -0.0384 0.6871
loop_
_geom_bond_atom_site_label_1
_geom_bond_atom_site_label_2
_geom_bond_site_symmetry_1
_geom_bond_site_symmetry_2
O1 C8 1_555 1_555
N1 C1 1_555 1_555
C1 C2 1_555 1_555
O2 C16 1_555 1_555
N2 C6 1_555 1_555
C2 H2 1_555 1_555
O3 C6 1_555 1_555
N3 C18 1_555 1_555
C3 C2 1_555 1_555
H3 C3 1_555 1_555
O4 C19 1_555 1_555
C4 C3 1_555 1_555
H4 C4 1_555 1_555
C5 N1 1_555 1_555
C6 C5 1_555 1_555
C7 N2 1_555 1_555
H5 C7 1_555 1_555
C8 C7 1_555 1_555
H6 C8 1_555 1_555
C9 O1 1_555 1_555
H7 C9 1_555 1_555
H8 C9 1_555 1_555
C10 C9 1_555 1_555
C11 C10 1_555 1_555
H9 C11 1_555 1_555
C12 C11 1_555 1_555
C13 C12 1_555 1_555
H10 C13 1_555 1_555
C14 C13 1_555 1_555
H11 C14 1_555 1_555
C15 C10 1_555 1_555
H12 C15 1_555 1_555
C16 C12 1_555 1_555
H13 C16 1_555 1_555
H14 C16 1_555 1_555
C17 O2 1_555 1_555
H15 C17 1_555 1_555
C18 C17 1_555 1_555
H16 C18 1_555 1_555
C19 C1 1_555 1_555
C20 N2 1_555 1_555
H17 C20 1_555 1_555
H18 C20 1_555 1_555
H19 C20 1_555 1_555
C21 C7 1_555 1_555
H20 C21 1_555 1_555
H21 C21 1_555 1_555
H22 C21 1_555 1_555
C22 C8 1_555 1_555
C23 C22 1_555 1_555
H23 C23 1_555 1_555
C24 C23 1_555 1_555
H24 C24 1_555 1_555
C25 C24 1_555 1_555
H25 C25 1_555 1_555
C26 C25 1_555 1_555
H26 C26 1_555 1_555
C27 C22 1_555 1_555
H27 C27 1_555 1_555
C28 C17 1_555 1_555
C29 C28 1_555 1_555
H28 C29 1_555 1_555
C30 C29 1_555 1_555
H29 C30 1_555 1_555
C31 C30 1_555 1_555
H30 C31 1_555 1_555
C32 C31 1_555 1_555
H31 C32 1_555 1_555
C33 C28 1_555 1_555
H32 C33 1_555 1_555
C34 C18 1_555 1_555
H33 C34 1_555 1_555
H34 C34 1_555 1_555
H35 C34 1_555 1_555
C35 N3 1_555 1_555
H36 C35 1_555 1_555
H37 C35 1_555 1_555
H38 C35 1_555 1_555
N3 C19 1_555 1_555
C4 C5 1_555 1_555
C14 C15 1_555 1_555
C26 C27 1_555 1_555
C32 C33 1_555 1_555

#END
