
#######################################################################
#
#                 Cambridge Crystallographic Data Centre
#                                CCDC 
#
#######################################################################
#
# If this CIF has been generated from an entry in the Cambridge 
# Structural Database, then it will include bibliographic, chemical, 
# crystal, experimental, refinement or atomic coordinate data resulting 
# from the CCDC's data processing and validation procedures.
#
#######################################################################

data_UHULAK
_chemical_formula_moiety         'C11 H16 N8,1.5(H2 O1)'
_chemical_name_systematic        
'2,4-bis(Dimethylaminomethyleneamino)-imidazo(1,5-a)(1,3,5)triazine sesquihydrate'
_symmetry_cell_setting           monoclinic
_symmetry_space_group_name_H-M   'P 2/c'
_symmetry_Int_Tables_number      13
_space_group_name_Hall           '-P 2yc'
loop_
_symmetry_equiv_pos_site_id
_symmetry_equiv_pos_as_xyz
1 x,y,z
2 x,-y,1/2+z
3 -x,-y,-z
4 -x,y,1/2-z
_cell_length_a                   7.087(3)
_cell_length_b                   9.782(4)
_cell_length_c                   20.586(8)
_cell_angle_alpha                90
_cell_angle_beta                 97.469(7)
_cell_angle_gamma                90
_cell_volume                     1415.02
_exptl_crystal_colour            colorless
_exptl_crystal_description       plate
_chemical_melting_point          '137 deg.C'
_cell_formula_units_Z            4
_exptl_crystal_recrystallization_method methanol
loop_
_atom_site_label
_atom_site_type_symbol
_atom_site_fract_x
_atom_site_fract_y
_atom_site_fract_z
N1 N 0.4190(11) 0.7423(8) 0.6261(4)
N2 N 0.3303(9) 0.6591(6) 0.5279(3)
N3 N 0.3537(10) 0.8524(6) 0.4577(4)
N4 N 0.2597(9) 0.6301(6) 0.4161(3)
N5 N 0.2343(9) 0.4474(6) 0.4903(3)
N6 N 0.1357(9) 0.2391(7) 0.4463(4)
N7 N 0.2873(10) 0.8221(7) 0.3477(4)
N8 N 0.2489(11) 0.7781(8) 0.2386(4)
C1 C 0.3601(13) 0.6350(8) 0.5923(5)
H1 H 0.3407 0.5503 0.6109
C2 C 0.4260(13) 0.8445(9) 0.5806(4)
H2 H 0.4621 0.9341 0.5909
C3 C 0.3734(12) 0.7980(7) 0.5188(5)
C4 C 0.3031(11) 0.7698(8) 0.4095(4)
C5 C 0.2714(11) 0.5791(8) 0.4739(4)
C6 C 0.1802(12) 0.3696(8) 0.4386(5)
H3 H 0.1733 0.4064 0.3967
C7 C 0.1536(13) 0.1764(8) 0.5105(5)
H4 H 0.2190 0.2376 0.5422
H5 H 0.2243 0.0928 0.5098
H6 H 0.0292 0.1571 0.5219
C8 C 0.0793(14) 0.1517(8) 0.3902(5)
H7 H 0.0835 0.2028 0.3506
H8 H -0.0478 0.1189 0.3916
H9 H 0.1649 0.0754 0.3911
C9 C 0.2652(12) 0.7432(10) 0.2984(5)
H10 H 0.2604 0.6500 0.3070
C10 C 0.2290(15) 0.6823(12) 0.1835(5)
H11 H 0.2240 0.5905 0.1997
H12 H 0.3360 0.6915 0.1596
H13 H 0.1139 0.7020 0.1550
C11 C 0.2423(16) 0.9212(12) 0.2195(5)
H14 H 0.2482 0.9775 0.2580
H15 H 0.1258 0.9391 0.1915
H16 H 0.3484 0.9417 0.1966
O1 O 0.688(2) 0.6943(17) 0.7438(8)
O2 O 0.0000 0.419(2) 0.2500
loop_
_geom_bond_atom_site_label_1
_geom_bond_atom_site_label_2
_geom_bond_site_symmetry_1
_geom_bond_site_symmetry_2
N1 C1 1_555 1_555
N2 C1 1_555 1_555
N3 C3 1_555 1_555
N4 C4 1_555 1_555
N5 C5 1_555 1_555
N6 C6 1_555 1_555
N7 C4 1_555 1_555
N8 C9 1_555 1_555
C1 H1 1_555 1_555
C2 N1 1_555 1_555
H2 C2 1_555 1_555
C3 N2 1_555 1_555
C4 N3 1_555 1_555
C5 N2 1_555 1_555
C6 N5 1_555 1_555
H3 C6 1_555 1_555
C7 N6 1_555 1_555
H4 C7 1_555 1_555
H5 C7 1_555 1_555
H6 C7 1_555 1_555
C8 N6 1_555 1_555
H7 C8 1_555 1_555
H8 C8 1_555 1_555
H9 C8 1_555 1_555
C9 N7 1_555 1_555
H10 C9 1_555 1_555
C10 N8 1_555 1_555
H11 C10 1_555 1_555
H12 C10 1_555 1_555
H13 C10 1_555 1_555
C11 N8 1_555 1_555
H14 C11 1_555 1_555
H15 C11 1_555 1_555
H16 C11 1_555 1_555
N4 C5 1_555 1_555
C2 C3 1_555 1_555

#END
