
#######################################################################
#
#                 Cambridge Crystallographic Data Centre
#                                CCDC 
#
#######################################################################
#
# If this CIF has been generated from an entry in the Cambridge 
# Structural Database, then it will include bibliographic, chemical, 
# crystal, experimental, refinement or atomic coordinate data resulting 
# from the CCDC's data processing and validation procedures.
#
#######################################################################

data_UHUQOE
_chemical_formula_moiety         
'C46 H48 O14,C12 H14 N2 2+,2(F6 P1 1-),2.5(C3 H6 O1)'
_chemical_name_systematic        
"(2)-(1,1'-Dimethyl-4,4'-bipyridinium)-(1^2^,1^5^-bis((4-carboxyphenyl)ethynyl)-2,5,8,11,14,16,19,22,25,28-decaoxa-1,15(1,4)-dibenzenacyclooctacosaphane)-pseudorotaxane bis(hexafluorophosphate) acetone solvate"
_symmetry_cell_setting           triclinic
_symmetry_space_group_name_H-M   'P -1'
_symmetry_Int_Tables_number      2
_space_group_name_Hall           '-P 1'
loop_
_symmetry_equiv_pos_site_id
_symmetry_equiv_pos_as_xyz
1 x,y,z
2 -x,-y,-z
_cell_length_a                   11.0078(4)
_cell_length_b                   16.9569(6)
_cell_length_c                   19.1579(7)
_cell_angle_alpha                73.836(2)
_cell_angle_beta                 83.257(2)
_cell_angle_gamma                85.681(2)
_cell_volume                     3407.45
_exptl_crystal_colour            red
_exptl_crystal_description       block
_cell_formula_units_Z            2
loop_
_atom_site_label
_atom_site_type_symbol
_atom_site_fract_x
_atom_site_fract_y
_atom_site_fract_z
C1 C 0.6059(11) 0.4714(8) 0.4163(7)
H1 H 0.6033 0.4529 0.4697
H2 H 0.5278 0.4611 0.4014
H3 H 0.6200 0.5304 0.3995
N1 N 0.7069(8) 0.4256(6) 0.3835(5)
C2 C 0.6928(12) 0.4085(7) 0.3211(7)
H4 H 0.6182 0.4241 0.2994
C3 C 0.7861(10) 0.3680(7) 0.2877(6)
H5 H 0.7750 0.3562 0.2432
C4 C 0.8101(10) 0.4044(6) 0.4147(6)
H6 H 0.8192 0.4180 0.4586
C5 C 0.9037(10) 0.3631(6) 0.3844(5)
H7 H 0.9758 0.3466 0.4085
C6 C 0.8950(9) 0.3447(6) 0.3184(5)
C7 C 0.9960(9) 0.3041(6) 0.2833(5)
C8 C 0.9805(10) 0.2686(6) 0.2280(6)
H8 H 0.9010 0.2681 0.2136
C9 C 1.1156(10) 0.3037(7) 0.2998(6)
H9 H 1.1319 0.3272 0.3372
C10 C 1.0786(10) 0.2340(6) 0.1937(6)
H10 H 1.0659 0.2085 0.1570
C11 C 1.2096(11) 0.2703(7) 0.2633(6)
H11 H 1.2907 0.2715 0.2753
N2 N 1.1911(7) 0.2361(5) 0.2118(4)
C12 C 1.2969(10) 0.2045(7) 0.1710(6)
H12 H 1.3662 0.1914 0.2007
H13 H 1.3199 0.2463 0.1254
H14 H 1.2749 0.1547 0.1598
O1 O 1.3637(6) 0.1000(4) 0.9174(3)
O2 O 1.5331(6) 0.1264(5) 0.8400(4)
H15 H 1.5645 0.1189 0.8793
C13 C 1.4126(11) 0.1185(6) 0.8540(6)
C14 C 1.3453(9) 0.1296(6) 0.7916(5)
C15 C 1.4043(10) 0.1441(6) 0.7211(6)
H16 H 1.4902 0.1504 0.7129
C16 C 1.3377(10) 0.1492(6) 0.6627(6)
H17 H 1.3789 0.1596 0.6149
C17 C 1.2207(9) 0.1216(6) 0.8022(6)
H18 H 1.1801 0.1121 0.8501
C18 C 1.1535(10) 0.1272(6) 0.7443(6)
H19 H 1.0672 0.1225 0.7529
C19 C 1.2111(9) 0.1396(6) 0.6728(5)
C20 C 1.1387(9) 0.1417(6) 0.6127(6)
C21 C 1.0860(8) 0.1427(5) 0.5671(5)
C22 C 1.0269(9) 0.1335(6) 0.5049(5)
C23 C 1.0934(10) 0.1021(6) 0.4511(6)
H20 H 1.1788 0.0902 0.4534
C24 C 0.9026(9) 0.1547(6) 0.4974(5)
C25 C 0.8485(9) 0.1426(6) 0.4403(5)
H21 H 0.7642 0.1575 0.4362
C26 C 1.0386(11) 0.0874(7) 0.3940(7)
C27 C 0.9146(9) 0.1090(6) 0.3886(5)
C28 C 0.8568(9) 0.0966(6) 0.3287(6)
C29 C 0.8077(9) 0.0939(6) 0.2790(6)
C30 C 0.7510(9) 0.0906(6) 0.2156(6)
C31 C 0.8189(10) 0.1014(6) 0.1475(5)
H22 H 0.9045 0.1087 0.1429
C32 C 0.7630(9) 0.1016(6) 0.0871(6)
H23 H 0.8104 0.1089 0.0412
C33 C 0.6367(9) 0.0912(6) 0.0921(5)
C34 C 0.5708(10) 0.0784(6) 0.1600(5)
H24 H 0.4860 0.0682 0.1651
C35 C 0.6263(9) 0.0800(6) 0.2207(6)
H25 H 0.5785 0.0738 0.2664
C36 C 0.5802(11) 0.0939(6) 0.0259(7)
O3 O 0.6369(6) 0.1062(4) -0.0352(3)
O4 O 0.4609(6) 0.0842(5) 0.0372(4)
H26 H 0.4334 0.0873 -0.0026
O5 O 1.1002(8) 0.0551(8) 0.3416(5)
C37 C 1.209(3) 0.0209(11) 0.3500(10)
H27 H 1.2094 -0.0152 0.4004
H28 H 1.2677 0.0643 0.3439
C38 C 1.250(2) -0.0279(10) 0.2985(10)
H29 H 1.3355 -0.0488 0.3067
H30 H 1.1989 -0.0761 0.3100
O6 O 1.2476(11) 0.0114(7) 0.2285(7)
C39 C 1.1411(13) -0.0023(8) 0.2071(7)
H31 H 1.0766 0.0370 0.2193
H32 H 1.1162 -0.0586 0.2335
C40 C 1.1532(15) 0.0066(10) 0.1333(9)
H33 H 1.0919 -0.0258 0.1209
H34 H 1.2359 -0.0134 0.1176
O7 O 1.1325(8) 0.1016(7) 0.0930(5)
C41 C 1.1196(17) 0.1217(18) 0.0264(12)
H35 H 1.0315 0.1234 0.0198
H36 H 1.1620 0.0799 0.0039
C42 C 1.165(2) 0.1955(13) -0.0074(12)
H37 H 1.1544 0.2085 -0.0601
H38 H 1.2539 0.1923 -0.0027
O8 O 1.1002(10) 0.2711(8) 0.0249(5)
C43 C 1.1758(17) 0.3353(11) -0.0145(11)
H39 H 1.1778 0.3468 -0.0682
C44 C 1.084(2) 0.3968(14) 0.0198(12)
H40 H 1.0747 0.4520 -0.0146
H41 H 1.0034 0.3739 0.0394
O9 O 1.1616(11) 0.3957(7) 0.0768(6)
C46 C 1.1917(8) 0.5146(6) 0.2119(5)
C47 C 1.0658(8) 0.5248(6) 0.2088(5)
H45 H 1.2422 0.5260 0.2374
C51 C 1.1165(19) 0.4429(15) 0.1219(13)
C52 C 1.001(2) 0.4767(13) 0.1265(11)
H46 H 0.9434 0.4676 0.0964
C53 C 0.965(2) 0.5235(13) 0.1736(11)
H47 H 0.8864 0.5496 0.1805
C54 C 1.199(2) 0.4626(13) 0.1614(11)
H48 H 1.2777 0.4373 0.1550
O10 O 1.0246(6) 0.5727(4) 0.2617(4)
C55 C 0.8973(15) 0.5990(11) 0.2647(9)
H49 H 0.8457 0.5507 0.2769
H50 H 0.8786 0.6353 0.2166
C56 C 0.8707(12) 0.6440(9) 0.3212(11)
H51 H 0.9344 0.6843 0.3150
H52 H 0.7908 0.6747 0.3150
C57 C 0.8283(18) 0.6284(12) 0.4458(11)
H53 H 0.7403 0.6445 0.4432
H54 H 0.8738 0.6792 0.4361
O11 O 0.8676(8) 0.5884(5) 0.3933(6)
C58 C 0.8463(12) 0.5772(11) 0.5184(10)
H55 H 0.8271 0.6096 0.5543
H56 H 0.9327 0.5566 0.5203
O12 O 0.7640(7) 0.5065(5) 0.5367(5)
C59 C 0.7591(17) 0.4574(11) 0.6110(9)
H57 H 0.7261 0.4914 0.6439
H58 H 0.8427 0.4368 0.6231
C60 C 0.6807(17) 0.3877(10) 0.6217(7)
H59 H 0.6714 0.3569 0.6740
H60 H 0.5984 0.4082 0.6068
O13 O 0.7334(7) 0.3354(5) 0.5798(4)
C61 C 0.6742(11) 0.2603(8) 0.5979(6)
H61 H 0.5845 0.2712 0.5992
H62 H 0.6931 0.2269 0.6470
C62 C 0.7162(9) 0.2140(7) 0.5428(6)
H63 H 0.6667 0.1652 0.5514
H64 H 0.7068 0.2495 0.4929
O14 O 0.8436(6) 0.1889(4) 0.5503(3)
H80 H 1.2595 0.3296 0.0008
O15 O 0.7765(8) 0.3528(6) 0.1160(4)
C63 C 0.652(2) 0.4085(15) 0.0273(9)
H65 H 0.6115 0.4613 0.0300
H66 H 0.5971 0.3780 0.0085
H67 H 0.7278 0.4183 -0.0054
C64 C 0.6791(14) 0.3623(7) 0.0978(7)
C65 C 0.5760(15) 0.3252(11) 0.1490(10)
H68 H 0.5241 0.2997 0.1240
H69 H 0.5279 0.3678 0.1670
H70 H 0.6072 0.2833 0.1902
O16 O 0.9383(9) 0.1714(7) 0.8835(5)
C66 C 0.8073(19) 0.2755(8) 0.9153(8)
H71 H 0.8320 0.2504 0.9644
H72 H 0.7178 0.2773 0.9171
H73 H 0.8363 0.3315 0.8972
C67 C 0.8180(13) 0.2452(8) 0.7931(8)
H74 H 0.8677 0.2126 0.7643
H75 H 0.8259 0.3038 0.7684
H76 H 0.7320 0.2314 0.7978
C68 C 0.8607(16) 0.2267(11) 0.8661(10)
P1 P 0.4374(3) 0.2526(2) 0.40896(19)
F1 F 0.5822(5) 0.2458(5) 0.3879(4)
F2 F 0.4501(6) 0.1790(4) 0.4797(3)
F3 F 0.4576(7) 0.3152(4) 0.4547(4)
F4 F 0.2937(5) 0.2596(4) 0.4282(3)
F5 F 0.4250(6) 0.3292(4) 0.3378(3)
F6 F 0.4188(6) 0.1909(4) 0.3632(3)
F7 F 0.3677(14) 0.3386(9) 0.8494(9)
F8 F 0.3235(10) 0.4715(8) 0.8349(7)
F9 F 0.5128(11) 0.5011(7) 0.7871(7)
F14 F 0.4019(10) 0.4290(7) 0.7372(5)
F15 F 0.5676(11) 0.3670(8) 0.8019(7)
F17 F 0.4807(13) 0.4123(10) 0.8951(7)
P3 P 0.4435(8) 0.4193(5) 0.8179(5)
C45? C 1.2627(8) 0.4733(8) 0.1672(7)
C48? C 1.0108(8) 0.4937(9) 0.1610(8)
C49? C 1.0818(13) 0.4523(11) 0.1163(8)
C50? C 1.2077(13) 0.4421(10) 0.1193(8)
H42? H 0.9486 0.4786 0.0968
H43? H 0.9063 0.5215 0.1884
H44? H 1.3140 0.4520 0.1691
C69? C 0.4064(13) -0.0103(9) 0.5463(7)
H77? H 0.3252 0.0168 0.5513
H78? H 0.4031 -0.0684 0.5738
H79? H 0.5343 -0.0163 0.4345
C70? C 0.447(3) -0.0033(17) 0.4627(17)
O17? O 0.5914(19) 0.0191(13) 0.5882(12)
P2? P 0.4465(8) 0.3735(5) 0.8070(5)
F10? F 0.4984(14) 0.3746(11) 0.8804(7)
F11? F 0.3901(12) 0.3710(10) 0.7357(7)
F12? F 0.5229(10) 0.4508(7) 0.7584(6)
C71? C 1.251(2) 0.3993(13) 0.0010(13)
F13? F 0.3338(11) 0.4318(9) 0.8233(7)
F16? F 0.5537(12) 0.3141(9) 0.7873(8)
F18? F 0.3741(12) 0.2965(9) 0.8512(7)
H81? H 1.3362 0.4081 -0.0289
H82? H 1.2161 0.4616 -0.0139
O18? O 1.2869(13) 0.3995(9) 0.0771(7)
loop_
_geom_bond_atom_site_label_1
_geom_bond_atom_site_label_2
_geom_bond_site_symmetry_1
_geom_bond_site_symmetry_2
C1 H1 1_555 1_555
H2 C1 1_555 1_555
H3 C1 1_555 1_555
N1 C1 1_555 1_555
C2 N1 1_555 1_555
H4 C2 1_555 1_555
C3 C2 1_555 1_555
H5 C3 1_555 1_555
C4 N1 1_555 1_555
H6 C4 1_555 1_555
C5 C4 1_555 1_555
H7 C5 1_555 1_555
C6 C3 1_555 1_555
C7 C6 1_555 1_555
C8 C7 1_555 1_555
H8 C8 1_555 1_555
C9 C7 1_555 1_555
H9 C9 1_555 1_555
C10 C8 1_555 1_555
H10 C10 1_555 1_555
C11 C9 1_555 1_555
H11 C11 1_555 1_555
N2 C10 1_555 1_555
C12 N2 1_555 1_555
H12 C12 1_555 1_555
H13 C12 1_555 1_555
H14 C12 1_555 1_555
O1 C13 1_555 1_555
O2 H15 1_555 1_555
C13 O2 1_555 1_555
C14 C13 1_555 1_555
C15 C14 1_555 1_555
H16 C15 1_555 1_555
C16 C15 1_555 1_555
H17 C16 1_555 1_555
C17 C14 1_555 1_555
H18 C17 1_555 1_555
C18 C17 1_555 1_555
H19 C18 1_555 1_555
C19 C16 1_555 1_555
C20 C19 1_555 1_555
C21 C20 1_555 1_555
C22 C21 1_555 1_555
C23 C22 1_555 1_555
H20 C23 1_555 1_555
C24 C22 1_555 1_555
C25 C24 1_555 1_555
H21 C25 1_555 1_555
C26 C23 1_555 1_555
C27 C25 1_555 1_555
C28 C27 1_555 1_555
C29 C28 1_555 1_555
C30 C29 1_555 1_555
C31 C30 1_555 1_555
H22 C31 1_555 1_555
C32 C31 1_555 1_555
H23 C32 1_555 1_555
C33 C32 1_555 1_555
C34 C33 1_555 1_555
H24 C34 1_555 1_555
C35 C30 1_555 1_555
H25 C35 1_555 1_555
C36 C33 1_555 1_555
O3 C36 1_555 1_555
O4 C36 1_555 1_555
H26 O4 1_555 1_555
O5 C26 1_555 1_555
C37 O5 1_555 1_555
H27 C37 1_555 1_555
H28 C37 1_555 1_555
C38 C37 1_555 1_555
H29 C38 1_555 1_555
H30 C38 1_555 1_555
O6 C38 1_555 1_555
C39 O6 1_555 1_555
H31 C39 1_555 1_555
H32 C39 1_555 1_555
C40 C39 1_555 1_555
H33 C40 1_555 1_555
H34 C40 1_555 1_555
O7 C40 1_555 1_555
C41 O7 1_555 1_555
H35 C41 1_555 1_555
H36 C41 1_555 1_555
C42 C41 1_555 1_555
H37 C42 1_555 1_555
H38 C42 1_555 1_555
O8 C42 1_555 1_555
C43 O8 1_555 1_555
H39 C43 1_555 1_555
C44 C43 1_555 1_555
H40 C44 1_555 1_555
H41 C44 1_555 1_555
O9 C44 1_555 1_555
C46 C47 1_555 1_555
C47 C53 1_555 1_555
H45 C46 1_555 1_555
C51 O9 1_555 1_555
C52 C51 1_555 1_555
H46 C52 1_555 1_555
C53 C52 1_555 1_555
H47 C53 1_555 1_555
C54 C46 1_555 1_555
H48 C54 1_555 1_555
O10 C47 1_555 1_555
C55 O10 1_555 1_555
H49 C55 1_555 1_555
H50 C55 1_555 1_555
C56 C55 1_555 1_555
H51 C56 1_555 1_555
H52 C56 1_555 1_555
C57 H53 1_555 1_555
H54 C57 1_555 1_555
O11 C56 1_555 1_555
C58 C57 1_555 1_555
H55 C58 1_555 1_555
H56 C58 1_555 1_555
O12 C58 1_555 1_555
C59 O12 1_555 1_555
H57 C59 1_555 1_555
H58 C59 1_555 1_555
C60 C59 1_555 1_555
H59 C60 1_555 1_555
H60 C60 1_555 1_555
O13 C60 1_555 1_555
C61 O13 1_555 1_555
H61 C61 1_555 1_555
H62 C61 1_555 1_555
C62 C61 1_555 1_555
H63 C62 1_555 1_555
H64 C62 1_555 1_555
O14 C24 1_555 1_555
O15 C64 1_555 1_555
C63 H65 1_555 1_555
H66 C63 1_555 1_555
H67 C63 1_555 1_555
C64 C63 1_555 1_555
C65 C64 1_555 1_555
H68 C65 1_555 1_555
H69 C65 1_555 1_555
H70 C65 1_555 1_555
O16 C68 1_555 1_555
C66 H71 1_555 1_555
H72 C66 1_555 1_555
H73 C66 1_555 1_555
C67 H74 1_555 1_555
H75 C67 1_555 1_555
H76 C67 1_555 1_555
C68 C66 1_555 1_555
P1 F1 1_555 1_555
F2 P1 1_555 1_555
F3 P1 1_555 1_555
F4 P1 1_555 1_555
F5 P1 1_555 1_555
F6 P1 1_555 1_555
F7 P3 1_555 1_555
F8 P3 1_555 1_555
F9 P3 1_555 1_555
F14 P3 1_555 1_555
F15 P3 1_555 1_555
F17 P3 1_555 1_555
H80 C43 1_555 1_555
C5 C6 1_555 1_555
C11 N2 1_555 1_555
C18 C19 1_555 1_555
C26 C27 1_555 1_555
C34 C35 1_555 1_555
C51 C54 1_555 1_555
C57 O11 1_555 1_555
C62 O14 1_555 1_555
C67 C68 1_555 1_555

#END
