
#######################################################################
#
#                 Cambridge Crystallographic Data Centre
#                                CCDC 
#
#######################################################################
#
# If this CIF has been generated from an entry in the Cambridge 
# Structural Database, then it will include bibliographic, chemical, 
# crystal, experimental, refinement or atomic coordinate data resulting 
# from the CCDC's data processing and validation procedures.
#
#######################################################################

data_UHUSOF
_chemical_formula_moiety         'C20 H32 N4 O2'
_chemical_name_systematic        
4,11-Diisopropyl-3,6,9,12-tetraazabicyclo(12.3.1)octadeca-1(18),14,16-triene-5,10-dione
_symmetry_cell_setting           orthorhombic
_symmetry_space_group_name_H-M   'P 21 21 21'
_symmetry_Int_Tables_number      19
_space_group_name_Hall           'P 2ac 2ab'
loop_
_symmetry_equiv_pos_site_id
_symmetry_equiv_pos_as_xyz
1 x,y,z
2 1/2-x,-y,1/2+z
3 -x,1/2+y,1/2-z
4 1/2+x,1/2-y,-z
_cell_length_a                   6.4222(4)
_cell_length_b                   15.1710(10)
_cell_length_c                   20.007(2)
_cell_angle_alpha                90
_cell_angle_beta                 90
_cell_angle_gamma                90
_cell_volume                     1949.31
_exptl_crystal_colour            colorless
_exptl_crystal_description       needle
_chemical_melting_point          '156-157 deg.C'
_cell_formula_units_Z            4
_exptl_crystal_recrystallization_method ether/dichloromethane
loop_
_atom_site_label
_atom_site_type_symbol
_atom_site_fract_x
_atom_site_fract_y
_atom_site_fract_z
C1 C 0.4560(4) 0.57688(17) 0.43529(13)
H1 H 0.5085 0.6088 0.4750
H2 H 0.3112 0.5965 0.4271
N1 N 0.4560(4) 0.48185(15) 0.44934(11)
H3 H 0.332(5) 0.468(2) 0.4657(15)
C2 C 0.6199(4) 0.45385(17) 0.49493(13)
H4 H 0.6350 0.5000 0.5303
C3 C 0.5688(4) 0.36555(17) 0.52968(13)
H5 H 0.6998 0.3444 0.5514
C4 C 0.4075(5) 0.37848(19) 0.58514(14)
H6 H 0.4553 0.4246 0.6158
H7 H 0.3898 0.3232 0.6098
H8 H 0.2742 0.3960 0.5654
C5 C 0.4983(5) 0.29372(18) 0.48140(15)
H9 H 0.4689 0.2396 0.5064
H10 H 0.6087 0.2824 0.4487
H11 H 0.3720 0.3130 0.4581
C6 C 0.8299(4) 0.44450(17) 0.45923(13)
O1 O 0.9933(3) 0.45954(13) 0.49020(9)
N2 N 0.8242(4) 0.41768(16) 0.39647(12)
H12 H 0.706(5) 0.4148(18) 0.3806(14)
C7 C 1.0089(4) 0.40857(19) 0.35505(13)
H13 H 1.1186 0.3776 0.3807
H14 H 1.0621 0.4678 0.3433
C8 C 0.9637(5) 0.35790(19) 0.29172(13)
H15 H 1.0965 0.3471 0.2680
H16 H 0.9043 0.2998 0.3039
N3 N 0.8206(4) 0.40219(16) 0.24638(12)
H17 H 0.870(6) 0.439(2) 0.2155(19)
C9 C 0.6134(4) 0.38937(17) 0.24780(14)
O2 O 0.5260(3) 0.34490(15) 0.29049(10)
C10 C 0.4902(5) 0.42942(17) 0.18995(13)
H18 H 0.3554 0.4519 0.2083
C11 C 0.4399(5) 0.35331(19) 0.14041(13)
H19 H 0.3934 0.3017 0.1676
C12 C 0.2593(5) 0.3783(2) 0.09429(16)
H20 H 0.1402 0.3975 0.1212
H21 H 0.2193 0.3270 0.0674
H22 H 0.3027 0.4263 0.0647
C13 C 0.6289(5) 0.3239(2) 0.10003(15)
H23 H 0.7427 0.3085 0.1305
H24 H 0.6735 0.3719 0.0706
H25 H 0.5921 0.2723 0.0730
N4 N 0.5979(4) 0.50365(15) 0.15769(11)
H26 H 0.567(4) 0.5035(18) 0.1126(13)
C14 C 0.5412(5) 0.59022(18) 0.18602(13)
H27 H 0.3876 0.5949 0.1879
H28 H 0.5926 0.6372 0.1559
C15 C 0.6282(4) 0.60554(17) 0.25500(14)
C16 C 0.8305(5) 0.63861(18) 0.26327(14)
H29 H 0.9140 0.6514 0.2253
C17 C 0.9079(5) 0.65258(18) 0.32662(14)
H30 H 1.0449 0.6752 0.3320
C18 C 0.7889(4) 0.63422(17) 0.38251(14)
H31 H 0.8442 0.6445 0.4259
C19 C 0.5888(4) 0.60083(17) 0.37542(13)
C20 C 0.5110(4) 0.58786(17) 0.31124(13)
H32 H 0.3732 0.5662 0.3060
loop_
_geom_bond_atom_site_label_1
_geom_bond_atom_site_label_2
_geom_bond_site_symmetry_1
_geom_bond_site_symmetry_2
C1 H1 1_555 1_555
H2 C1 1_555 1_555
N1 C1 1_555 1_555
H3 N1 1_555 1_555
C2 N1 1_555 1_555
H4 C2 1_555 1_555
C3 C2 1_555 1_555
H5 C3 1_555 1_555
C4 C3 1_555 1_555
H6 C4 1_555 1_555
H7 C4 1_555 1_555
H8 C4 1_555 1_555
C5 C3 1_555 1_555
H9 C5 1_555 1_555
H10 C5 1_555 1_555
H11 C5 1_555 1_555
C6 C2 1_555 1_555
O1 C6 1_555 1_555
N2 C6 1_555 1_555
H12 N2 1_555 1_555
C7 N2 1_555 1_555
H13 C7 1_555 1_555
H14 C7 1_555 1_555
C8 C7 1_555 1_555
H15 C8 1_555 1_555
H16 C8 1_555 1_555
N3 C8 1_555 1_555
H17 N3 1_555 1_555
C9 N3 1_555 1_555
O2 C9 1_555 1_555
C10 C9 1_555 1_555
H18 C10 1_555 1_555
C11 C10 1_555 1_555
H19 C11 1_555 1_555
C12 C11 1_555 1_555
H20 C12 1_555 1_555
H21 C12 1_555 1_555
H22 C12 1_555 1_555
C13 C11 1_555 1_555
H23 C13 1_555 1_555
H24 C13 1_555 1_555
H25 C13 1_555 1_555
N4 C10 1_555 1_555
H26 N4 1_555 1_555
C14 N4 1_555 1_555
H27 C14 1_555 1_555
H28 C14 1_555 1_555
C15 C14 1_555 1_555
C16 C15 1_555 1_555
H29 C16 1_555 1_555
C17 C16 1_555 1_555
H30 C17 1_555 1_555
C18 C17 1_555 1_555
H31 C18 1_555 1_555
C19 C1 1_555 1_555
C20 C15 1_555 1_555
H32 C20 1_555 1_555
C18 C19 1_555 1_555
C19 C20 1_555 1_555

#END
