
#######################################################################
#
#                 Cambridge Crystallographic Data Centre
#                                CCDC 
#
#######################################################################
#
# If this CIF has been generated from an entry in the Cambridge 
# Structural Database, then it will include bibliographic, chemical, 
# crystal, experimental, refinement or atomic coordinate data resulting 
# from the CCDC's data processing and validation procedures.
#
#######################################################################

data_UHUSIB
_chemical_formula_moiety         'C16 H13 Br1 O2'
_chemical_name_systematic        2-(4-Bromophenoxy)-1,2-dihydronaphthalen-1-ol
_symmetry_cell_setting           monoclinic
_symmetry_space_group_name_H-M   'P 21'
_symmetry_Int_Tables_number      4
_space_group_name_Hall           'P 2yb'
loop_
_symmetry_equiv_pos_site_id
_symmetry_equiv_pos_as_xyz
1 x,y,z
2 -x,1/2+y,-z
_cell_length_a                   11.525(2)
_cell_length_b                   4.8201(11)
_cell_length_c                   12.208(2)
_cell_angle_alpha                90
_cell_angle_beta                 94.761(14)
_cell_angle_gamma                90
_cell_volume                     675.835
_exptl_crystal_colour            gold
_exptl_crystal_description       plate
_cell_formula_units_Z            2
loop_
_atom_site_label
_atom_site_type_symbol
_atom_site_fract_x
_atom_site_fract_y
_atom_site_fract_z
Br1 Br 0.44866(2) 0.19461(7) 0.110137(16)
O1 O 0.23694(12) 0.3687(3) 0.53909(10)
O2 O 0.00739(10) 0.2229(3) 0.55987(9)
H1 H 0.0251(19) 0.360(5) 0.5258(18)
C1 C 0.21340(16) 0.1255(4) 0.60397(15)
H2 H 0.2123 -0.0403 0.5574
C2 C 0.09484(14) 0.1655(5) 0.64662(13)
H3 H 0.0741 -0.0141 0.6771
C3 C 0.09421(17) 0.3714(4) 0.74062(15)
C4 C -0.0030(2) 0.5256(4) 0.76063(17)
H4 H -0.0667(15) 0.503(4) 0.7097(14)
C5 C -0.00148(19) 0.6970(6) 0.85283(15)
H5 H -0.0663 0.8043 0.8649
C6 C 0.0949(2) 0.7071(7) 0.92513(16)
H6 H 0.102(2) 0.825(6) 0.985(2)
C7 C 0.1921(2) 0.5521(5) 0.90735(18)
H7 H 0.2635(18) 0.543(4) 0.9616(17)
C8 C 0.19255(19) 0.3816(5) 0.81501(16)
C9 C 0.29304(17) 0.2109(6) 0.79353(15)
H8 H 0.3516 0.1851 0.8497
C10 C 0.3039(2) 0.0928(5) 0.69839(17)
H9 H 0.3695 -0.0142 0.6892
C11 C 0.29057(17) 0.3226(4) 0.44393(15)
C12 C 0.37822(18) 0.1351(5) 0.43546(16)
H10 H 0.4058 0.0319 0.4965
C13 C 0.42594(19) 0.0985(5) 0.33632(17)
H11 H 0.4847 -0.0314 0.3302
C14 C 0.38669(17) 0.2528(5) 0.24787(15)
C15 C 0.30209(19) 0.4492(5) 0.25612(17)
H12 H 0.2779 0.5591 0.1959
C16 C 0.25321(19) 0.4824(5) 0.35429(18)
H13 H 0.1975(15) 0.599(4) 0.3637(14)
loop_
_geom_bond_atom_site_label_1
_geom_bond_atom_site_label_2
_geom_bond_site_symmetry_1
_geom_bond_site_symmetry_2
Br1 C14 1_555 1_555
O1 C1 1_555 1_555
O2 H1 1_555 1_555
C1 H2 1_555 1_555
C2 O2 1_555 1_555
H3 C2 1_555 1_555
C3 C2 1_555 1_555
C4 C3 1_555 1_555
H4 C4 1_555 1_555
C5 C4 1_555 1_555
H5 C5 1_555 1_555
C6 C5 1_555 1_555
H6 C6 1_555 1_555
C7 C6 1_555 1_555
H7 C7 1_555 1_555
C8 C3 1_555 1_555
C9 C8 1_555 1_555
H8 C9 1_555 1_555
C10 C1 1_555 1_555
H9 C10 1_555 1_555
C11 O1 1_555 1_555
C12 C11 1_555 1_555
H10 C12 1_555 1_555
C13 C12 1_555 1_555
H11 C13 1_555 1_555
C14 C13 1_555 1_555
C15 C14 1_555 1_555
H12 C15 1_555 1_555
C16 C11 1_555 1_555
H13 C16 1_555 1_555
C1 C2 1_555 1_555
C7 C8 1_555 1_555
C9 C10 1_555 1_555
C15 C16 1_555 1_555

#END
