
#######################################################################
#
#                 Cambridge Crystallographic Data Centre
#                                CCDC 
#
#######################################################################
#
# If this CIF has been generated from an entry in the Cambridge 
# Structural Database, then it will include bibliographic, chemical, 
# crystal, experimental, refinement or atomic coordinate data resulting 
# from the CCDC's data processing and validation procedures.
#
#######################################################################

data_UHUSAT
_chemical_formula_moiety         'C62 H92 O4 P2 Si8'
_chemical_name_systematic        
4,4'-bi-1,3-benzodioxole-5,5'-diylbis(bis(3,5-bis(trimethylsilyl)phenyl)phosphine)
_symmetry_cell_setting           orthorhombic
_symmetry_space_group_name_H-M   'P 21 21 21'
_symmetry_Int_Tables_number      19
_space_group_name_Hall           'P 2ac 2ab'
loop_
_symmetry_equiv_pos_site_id
_symmetry_equiv_pos_as_xyz
1 x,y,z
2 1/2-x,-y,1/2+z
3 -x,1/2+y,1/2-z
4 1/2+x,1/2-y,-z
_cell_length_a                   10.7392(15)
_cell_length_b                   19.865(3)
_cell_length_c                   35.767(5)
_cell_angle_alpha                90
_cell_angle_beta                 90
_cell_angle_gamma                90
_cell_volume                     7630.32
_exptl_crystal_colour            colorless
_exptl_crystal_description       Prism
_cell_formula_units_Z            4
loop_
_atom_site_label
_atom_site_type_symbol
_atom_site_fract_x
_atom_site_fract_y
_atom_site_fract_z
P1 P 0.58719(6) 0.44168(3) 0.402381(17)
P2 P 0.59203(6) 0.40487(3) 0.294703(17)
Si1 Si 0.60913(8) 0.70130(4) 0.47159(2)
Si2 Si 1.02206(9) 0.52263(6) 0.47717(3)
Si3 Si 0.42296(10) 0.46021(4) 0.55275(2)
Si4 Si 0.73027(9) 0.29735(5) 0.15467(2)
O1 O 0.4494(2) 0.60240(12) 0.29382(6)
O2 O 0.2378(2) 0.59945(15) 0.30719(6)
O3 O 0.7028(2) 0.63381(10) 0.36036(6)
O4 O 0.9124(2) 0.63178(13) 0.34487(7)
C1 C 0.5154(2) 0.52515(12) 0.34379(6)
C2 C 0.4714(2) 0.48928(13) 0.37562(7)
C3 C 0.3455(3) 0.49042(16) 0.38411(8)
H1 H 0.3174 0.4666 0.4055
C4 C 0.2578(3) 0.52535(19) 0.36237(9)
H2 H 0.1716 0.5250 0.3683
C5 C 0.3028(3) 0.55949(17) 0.33261(8)
C6 C 0.4288(3) 0.56106(15) 0.32395(7)
C7 C 0.3272(4) 0.6131(2) 0.27833(10)
H3 H 0.3188 0.6601 0.2696
H4 H 0.3135 0.5826 0.2568
C8 C 0.6500(2) 0.52428(13) 0.33214(6)
C9 C 0.7000(2) 0.47131(13) 0.30978(6)
C10 C 0.8259(3) 0.47215(15) 0.30011(8)
H5 H 0.8579 0.4366 0.2852
C11 C 0.9072(3) 0.52351(16) 0.31164(8)
H6 H 0.9934 0.5227 0.3057
C12 C 0.8555(3) 0.57465(16) 0.33192(8)
C13 C 0.7304(3) 0.57492(13) 0.34125(7)
C14 C 0.8230(4) 0.66183(18) 0.36911(10)
H7 H 0.8219 0.7112 0.3655
H8 H 0.8445 0.6524 0.3955
C15 C 0.6721(2) 0.50986(12) 0.42610(7)
C16 C 0.6187(2) 0.57191(12) 0.43570(7)
H9 H 0.5371 0.5820 0.4271
C17 C 0.6815(3) 0.61936(13) 0.45753(7)
C18 C 0.8023(3) 0.60205(15) 0.46928(8)
H10 H 0.8464 0.6332 0.4845
C19 C 0.8609(3) 0.54166(15) 0.45988(9)
C20 C 0.7931(3) 0.49634(14) 0.43780(8)
H11 H 0.8309 0.4551 0.4306
C21 C 0.4936(2) 0.40994(12) 0.44223(7)
C22 C 0.4888(3) 0.44167(12) 0.47675(6)
H12 H 0.5314 0.4832 0.4799
C23 C 0.4231(3) 0.41453(13) 0.50720(7)
C24 C 0.3621(3) 0.35345(13) 0.50147(8)
H13 H 0.3171 0.3343 0.5217
C25 C 0.3638(3) 0.31884(12) 0.46731(8)
C26 C 0.4321(3) 0.34859(13) 0.43809(7)
H14 H 0.4365 0.3260 0.4147
C27 C 0.5082(2) 0.44831(13) 0.25680(7)
C28 C 0.3951(2) 0.42056(15) 0.24540(7)
H15 H 0.3609 0.3843 0.2593
C29 C 0.3298(2) 0.44457(18) 0.21388(8)
C30 C 0.3816(3) 0.4995(2) 0.19545(8)
H16 H 0.3395 0.5162 0.1740
C31 C 0.4922(3) 0.53208(15) 0.20644(8)
C32 C 0.5546(3) 0.50324(15) 0.23717(7)
H17 H 0.6318 0.5222 0.2448
C33 C 0.6936(2) 0.35019(13) 0.26646(7)
C34 C 0.6858(3) 0.34621(13) 0.22744(7)
H18 H 0.6289 0.3747 0.2147
C35 C 0.7591(2) 0.30166(14) 0.20661(7)
C36 C 0.8436(3) 0.26183(14) 0.22574(7)
H19 H 0.8953 0.2322 0.2118
C37 C 0.8560(2) 0.26336(13) 0.26492(7)
C38 C 0.7775(3) 0.30732(13) 0.28438(7)
H20 H 0.7814 0.3080 0.3109
C39 C 0.4439(3) 0.70381(18) 0.45641(12)
H21 H 0.4085 0.7480 0.4622
H22 H 0.3969 0.6688 0.4696
H23 H 0.4392 0.6959 0.4294
C40 C 0.6157(4) 0.7093(2) 0.52383(10)
H24 H 0.5845 0.7537 0.5313
H25 H 0.7020 0.7042 0.5323
H26 H 0.5641 0.6742 0.5353
C41 C 0.6970(4) 0.77158(16) 0.44914(12)
H27 H 0.6797 0.7720 0.4222
H28 H 0.7864 0.7651 0.4532
H29 H 0.6710 0.8145 0.4602
C42 C 1.0148(5) 0.5261(4) 0.52947(8)
H30 H 1.0973 0.5163 0.5399
H31 H 0.9549 0.4926 0.5385
H32 H 0.9883 0.5711 0.5374
C43 C 1.1333(3) 0.5867(2) 0.45984(12)
H33 H 1.1249 0.5911 0.4327
H34 H 1.2184 0.5728 0.4660
H35 H 1.1154 0.6301 0.4717
C44 C 1.0712(4) 0.4389(2) 0.4591(2)
H36 H 1.0652 0.4386 0.4317
H37 H 1.0169 0.4039 0.4694
H38 H 1.1575 0.4301 0.4665
C45 C 0.3885(4) 0.55067(16) 0.54437(10)
H39 H 0.4490 0.5691 0.5266
H40 H 0.3940 0.5754 0.5680
H41 H 0.3043 0.5552 0.5341
C46 C 0.5814(6) 0.4568(3) 0.57353(15)
H42 H 0.6417 0.4758 0.5559
H43 H 0.6034 0.4099 0.5789
H44 H 0.5828 0.4829 0.5968
C47 C 0.2990(7) 0.4227(2) 0.58334(12)
H45 H 0.2776 0.4545 0.6033
H46 H 0.3299 0.3808 0.5944
H47 H 0.2248 0.4131 0.5683
Si5 Si 0.2783(2) 0.23656(13) 0.46190(10)
C48 C 0.2350(8) 0.2009(3) 0.50861(19)
H48 H 0.1710 0.2292 0.5202
H49 H 0.3088 0.1997 0.5247
H50 H 0.2027 0.1551 0.5054
C49 C 0.3918(7) 0.1747(3) 0.4420(3)
H51 H 0.3517 0.1305 0.4397
H52 H 0.4641 0.1711 0.4586
H53 H 0.4190 0.1900 0.4173
C50 C 0.1449(10) 0.2501(4) 0.4294(4)
H54 H 0.1145 0.2065 0.4204
H55 H 0.1724 0.2773 0.4081
H56 H 0.0778 0.2736 0.4426
Si6 Si 0.18472(19) 0.39935(12) 0.19843(5)
C51 C 0.1522(9) 0.4204(6) 0.1498(2)
H57 H 0.0847 0.3918 0.1405
H58 H 0.2272 0.4130 0.1347
H59 H 0.1273 0.4678 0.1481
C52 C 0.0579(5) 0.4227(3) 0.2311(2)
H60 H 0.0392 0.4708 0.2284
H61 H 0.0841 0.4134 0.2568
H62 H -0.0168 0.3963 0.2252
C53 C 0.2081(5) 0.30603(17) 0.20086(19)
H63 H 0.1314 0.2832 0.1931
H64 H 0.2286 0.2931 0.2266
H65 H 0.2763 0.2930 0.1842
Si7 Si 0.55587(18) 0.61305(11) 0.18546(7)
C54 C 0.6997(6) 0.5884(5) 0.1608(2)
H66 H 0.7418 0.6287 0.1514
H67 H 0.6787 0.5588 0.1398
H68 H 0.7549 0.5645 0.1782
C55 C 0.5929(9) 0.6770(3) 0.2220(2)
H69 H 0.6455 0.6565 0.2413
H70 H 0.5154 0.6931 0.2334
H71 H 0.6371 0.7149 0.2106
C56 C 0.4399(6) 0.6538(5) 0.1534(2)
H72 H 0.3629 0.6630 0.1671
H73 H 0.4220 0.6235 0.1324
H74 H 0.4743 0.6961 0.1438
C57 C 0.8402(5) 0.2390(2) 0.13163(10)
H75 H 0.8172 0.2338 0.1053
H76 H 0.8369 0.1950 0.1440
H77 H 0.9249 0.2571 0.1334
C58 C 0.5668(4) 0.2687(3) 0.14805(12)
H78 H 0.5449 0.2713 0.1215
H79 H 0.5107 0.2977 0.1625
H80 H 0.5586 0.2221 0.1567
C59 C 0.7453(6) 0.3827(2) 0.13476(12)
H81 H 0.8299 0.3995 0.1390
H82 H 0.6853 0.4129 0.1468
H83 H 0.7286 0.3811 0.1078
Si8 Si 0.9719(3) 0.21141(18) 0.29170(10)
C60 C 1.0502(6) 0.1529(3) 0.25841(16)
H84 H 1.1089 0.1243 0.2721
H85 H 1.0953 0.1790 0.2395
H86 H 0.9876 0.1247 0.2461
C61 C 1.0934(7) 0.2702(3) 0.31211(19)
H87 H 1.1422 0.2462 0.3310
H88 H 1.0520 0.3089 0.3237
H89 H 1.1488 0.2859 0.2922
C62 C 0.8941(8) 0.1648(5) 0.3304(2)
H90 H 0.8208 0.1411 0.3207
H91 H 0.8681 0.1966 0.3499
H92 H 0.9523 0.1320 0.3411
Si9? Si 0.2851(10) 0.2396(4) 0.4572(3)
C63? C 0.1480(15) 0.2393(9) 0.4895(6)
H93? H 0.0742 0.2556 0.4761
H94? H 0.1649 0.2687 0.5109
H95? H 0.1330 0.1933 0.4984
C64? C 0.3860(16) 0.1690(8) 0.4735(7)
H96? H 0.3402 0.1265 0.4715
H97? H 0.4097 0.1766 0.4996
H98? H 0.4610 0.1668 0.4579
C65? C 0.248(3) 0.2326(13) 0.4066(4)
H99? H 0.2117 0.2751 0.3978
H100? H 0.1875 0.1961 0.4028
H101? H 0.3238 0.2229 0.3925
Si10? Si 0.1622(7) 0.4210(4) 0.2046(3)
C66? C 0.0562(18) 0.4858(9) 0.1878(6)
H102? H -0.0212 0.4648 0.1791
H103? H 0.0951 0.5103 0.1671
H104? H 0.0375 0.5173 0.2082
C67? C 0.1083(18) 0.3776(10) 0.2474(4)
H105? H 0.1199 0.4072 0.2691
H106? H 0.1566 0.3362 0.2510
H107? H 0.0199 0.3663 0.2449
C68? C 0.180(2) 0.3572(9) 0.1665(5)
H108? H 0.0981 0.3427 0.1579
H109? H 0.2265 0.3182 0.1761
H110? H 0.2264 0.3772 0.1456
Si11? Si 0.5733(6) 0.5916(3) 0.17455(13)
C69? C 0.7413(9) 0.5782(10) 0.1671(4)
H111? H 0.7822 0.5712 0.1913
H112? H 0.7772 0.6177 0.1548
H113? H 0.7537 0.5384 0.1513
C70? C 0.5471(14) 0.6710(5) 0.2012(4)
H114? H 0.4581 0.6759 0.2066
H115? H 0.5752 0.7094 0.1862
H116? H 0.5941 0.6695 0.2246
C71? C 0.4842(14) 0.5999(9) 0.1297(3)
H117? H 0.5214 0.5706 0.1107
H118? H 0.4874 0.6468 0.1212
H119? H 0.3974 0.5868 0.1339
Si12? Si 0.9777(5) 0.2074(3) 0.2865(2)
C72? C 1.1217(14) 0.2039(12) 0.2575(6)
H120? H 1.1932 0.1935 0.2735
H121? H 1.1348 0.2475 0.2453
H122? H 1.1129 0.1687 0.2384
C73? C 1.017(2) 0.2447(9) 0.3338(4)
H123? H 1.0893 0.2211 0.3443
H124? H 0.9459 0.2399 0.3506
H125? H 1.0374 0.2926 0.3308
C74? C 0.9088(14) 0.1220(5) 0.2932(6)
H126? H 0.9335 0.0928 0.2724
H127? H 0.8178 0.1255 0.2939
H128? H 0.9389 0.1028 0.3168
loop_
_geom_bond_atom_site_label_1
_geom_bond_atom_site_label_2
_geom_bond_site_symmetry_1
_geom_bond_site_symmetry_2
P1 C2 1_555 1_555
P2 C9 1_555 1_555
Si1 C17 1_555 1_555
Si2 C19 1_555 1_555
Si3 C23 1_555 1_555
Si4 C35 1_555 1_555
O1 C6 1_555 1_555
O2 C5 1_555 1_555
O3 C13 1_555 1_555
O4 C12 1_555 1_555
C1 C2 1_555 1_555
C2 C3 1_555 1_555
C3 H1 1_555 1_555
C4 C3 1_555 1_555
H2 C4 1_555 1_555
C5 C4 1_555 1_555
C6 C1 1_555 1_555
C7 O1 1_555 1_555
H3 C7 1_555 1_555
H4 C7 1_555 1_555
C8 C1 1_555 1_555
C9 C8 1_555 1_555
C10 C9 1_555 1_555
H5 C10 1_555 1_555
C11 C10 1_555 1_555
H6 C11 1_555 1_555
C12 C11 1_555 1_555
C13 C8 1_555 1_555
C14 O3 1_555 1_555
H7 C14 1_555 1_555
H8 C14 1_555 1_555
C15 P1 1_555 1_555
C16 C15 1_555 1_555
H9 C16 1_555 1_555
C17 C16 1_555 1_555
C18 C17 1_555 1_555
H10 C18 1_555 1_555
C19 C18 1_555 1_555
C20 C15 1_555 1_555
H11 C20 1_555 1_555
C21 P1 1_555 1_555
C22 C21 1_555 1_555
H12 C22 1_555 1_555
C23 C22 1_555 1_555
C24 C23 1_555 1_555
H13 C24 1_555 1_555
C25 C24 1_555 1_555
C26 C21 1_555 1_555
H14 C26 1_555 1_555
C27 P2 1_555 1_555
C28 C27 1_555 1_555
H15 C28 1_555 1_555
C29 C28 1_555 1_555
C30 C29 1_555 1_555
H16 C30 1_555 1_555
C31 C30 1_555 1_555
C32 C27 1_555 1_555
H17 C32 1_555 1_555
C33 P2 1_555 1_555
C34 C33 1_555 1_555
H18 C34 1_555 1_555
C35 C34 1_555 1_555
C36 C35 1_555 1_555
H19 C36 1_555 1_555
C37 C36 1_555 1_555
C38 C33 1_555 1_555
H20 C38 1_555 1_555
C39 Si1 1_555 1_555
H21 C39 1_555 1_555
H22 C39 1_555 1_555
H23 C39 1_555 1_555
C40 Si1 1_555 1_555
H24 C40 1_555 1_555
H25 C40 1_555 1_555
H26 C40 1_555 1_555
C41 Si1 1_555 1_555
H27 C41 1_555 1_555
H28 C41 1_555 1_555
H29 C41 1_555 1_555
C42 Si2 1_555 1_555
H30 C42 1_555 1_555
H31 C42 1_555 1_555
H32 C42 1_555 1_555
C43 Si2 1_555 1_555
H33 C43 1_555 1_555
H34 C43 1_555 1_555
H35 C43 1_555 1_555
C44 Si2 1_555 1_555
H36 C44 1_555 1_555
H37 C44 1_555 1_555
H38 C44 1_555 1_555
C45 Si3 1_555 1_555
H39 C45 1_555 1_555
H40 C45 1_555 1_555
H41 C45 1_555 1_555
C46 Si3 1_555 1_555
H42 C46 1_555 1_555
H43 C46 1_555 1_555
H44 C46 1_555 1_555
C47 Si3 1_555 1_555
H45 C47 1_555 1_555
H46 C47 1_555 1_555
H47 C47 1_555 1_555
Si5 C25 1_555 1_555
C48 Si5 1_555 1_555
H48 C48 1_555 1_555
H49 C48 1_555 1_555
H50 C48 1_555 1_555
C49 Si5 1_555 1_555
H51 C49 1_555 1_555
H52 C49 1_555 1_555
H53 C49 1_555 1_555
C50 Si5 1_555 1_555
H54 C50 1_555 1_555
H55 C50 1_555 1_555
H56 C50 1_555 1_555
Si6 C29 1_555 1_555
C51 Si6 1_555 1_555
H57 C51 1_555 1_555
H58 C51 1_555 1_555
H59 C51 1_555 1_555
C52 Si6 1_555 1_555
H60 C52 1_555 1_555
H61 C52 1_555 1_555
H62 C52 1_555 1_555
C53 Si6 1_555 1_555
H63 C53 1_555 1_555
H64 C53 1_555 1_555
H65 C53 1_555 1_555
Si7 C31 1_555 1_555
C54 Si7 1_555 1_555
H66 C54 1_555 1_555
H67 C54 1_555 1_555
H68 C54 1_555 1_555
C55 Si7 1_555 1_555
H69 C55 1_555 1_555
H70 C55 1_555 1_555
H71 C55 1_555 1_555
C56 Si7 1_555 1_555
H72 C56 1_555 1_555
H73 C56 1_555 1_555
H74 C56 1_555 1_555
C57 Si4 1_555 1_555
H75 C57 1_555 1_555
H76 C57 1_555 1_555
H77 C57 1_555 1_555
C58 Si4 1_555 1_555
H78 C58 1_555 1_555
H79 C58 1_555 1_555
H80 C58 1_555 1_555
C59 Si4 1_555 1_555
H81 C59 1_555 1_555
H82 C59 1_555 1_555
H83 C59 1_555 1_555
Si8 C37 1_555 1_555
C60 Si8 1_555 1_555
H84 C60 1_555 1_555
H85 C60 1_555 1_555
H86 C60 1_555 1_555
C61 Si8 1_555 1_555
H87 C61 1_555 1_555
H88 C61 1_555 1_555
H89 C61 1_555 1_555
C62 Si8 1_555 1_555
H90 C62 1_555 1_555
H91 C62 1_555 1_555
H92 C62 1_555 1_555
O2 C7 1_555 1_555
O4 C14 1_555 1_555
C5 C6 1_555 1_555
C12 C13 1_555 1_555
C19 C20 1_555 1_555
C25 C26 1_555 1_555
C31 C32 1_555 1_555
C37 C38 1_555 1_555

#END
