
#######################################################################
#
#                 Cambridge Crystallographic Data Centre
#                                CCDC 
#
#######################################################################
#
# If this CIF has been generated from an entry in the Cambridge 
# Structural Database, then it will include bibliographic, chemical, 
# crystal, experimental, refinement or atomic coordinate data resulting 
# from the CCDC's data processing and validation procedures.
#
#######################################################################

data_UHUVEA
_chemical_formula_moiety         'C21 H14 N2 O3'
_chemical_name_systematic        
3-(4-methoxyphenyl)-1',3'-dioxo-1',3'-dihydro-2H-spiro[cyclobutane-1,2'-indene]-2,2-dicarbonitrile
_symmetry_cell_setting           orthorhombic
_symmetry_space_group_name_H-M   'P b c a'
_symmetry_Int_Tables_number      61
_space_group_name_Hall           '-P 2ac 2ab'
loop_
_symmetry_equiv_pos_site_id
_symmetry_equiv_pos_as_xyz
1 x,y,z
2 1/2-x,-y,1/2+z
3 1/2+x,1/2-y,-z
4 -x,1/2+y,1/2-z
5 -x,-y,-z
6 1/2+x,y,1/2-z
7 1/2-x,1/2+y,z
8 x,1/2-y,1/2+z
_cell_length_a                   7.6196(16)
_cell_length_b                   20.278(4)
_cell_length_c                   21.360(5)
_cell_angle_alpha                90
_cell_angle_beta                 90
_cell_angle_gamma                90
_cell_volume                     3300.34
_exptl_crystal_colour            'light yellow'
_exptl_crystal_description       plank
_cell_formula_units_Z            8
loop_
_atom_site_label
_atom_site_type_symbol
_atom_site_fract_x
_atom_site_fract_y
_atom_site_fract_z
O1 O 0.09233(15) 0.44014(5) 0.55047(5)
O2 O -0.17594(15) 0.48021(5) 0.74534(5)
O3 O -0.10047(16) 0.85715(5) 0.56509(5)
N1 N 0.42207(19) 0.52875(8) 0.61577(7)
N2 N 0.06872(19) 0.62003(6) 0.75070(7)
C1 C -0.0729(2) 0.79074(7) 0.56840(7)
C2 C -0.0358(2) 0.65465(7) 0.58461(7)
C3 C 0.0825(2) 0.58916(7) 0.70625(7)
C4 C -0.1649(2) 0.75827(8) 0.61539(7)
H1 H -0.2401 0.7826 0.6423
C5 C 0.0990(2) 0.55156(7) 0.64777(7)
C6 C 0.2832(2) 0.53917(7) 0.63283(7)
C7 C -0.1480(2) 0.69109(7) 0.62328(7)
H2 H -0.2130 0.6694 0.6552
C8 C -0.03093(19) 0.49057(7) 0.64453(7)
C9 C 0.0535(2) 0.68790(7) 0.53764(7)
H3 H 0.1289 0.6637 0.5107
C10 C -0.0307(2) 0.33830(8) 0.74709(8)
H4 H -0.0792 0.3467 0.7873
C11 C -0.0203(2) 0.38739(7) 0.70210(7)
C12 C -0.0122(2) 0.58188(7) 0.59124(7)
H5 H 0.0390 0.5649 0.5513
C13 C 0.0360(2) 0.75533(7) 0.52879(7)
H6 H 0.0977 0.7769 0.4960
C14 C -0.0855(2) 0.45614(7) 0.70503(7)
C15 C -0.1626(2) 0.53566(7) 0.61010(7)
H7 H -0.2210 0.5141 0.5741
H8 H -0.2500 0.5565 0.6382
C16 C 0.05247(19) 0.37506(7) 0.64354(7)
C17 C 0.0464(2) 0.43496(7) 0.60445(7)
C18 C 0.1159(2) 0.31309(7) 0.62765(8)
H9 H 0.1652 0.3047 0.5876
C19 C 0.1045(2) 0.26406(8) 0.67242(8)
H10 H 0.1467 0.2211 0.6630
C20 C 0.0323(2) 0.27650(8) 0.73115(8)
H11 H 0.0261 0.2418 0.7609
C21 C -0.0120(2) 0.89195(8) 0.51623(8)
H12 H -0.0462 0.8735 0.4756
H13 H 0.1151 0.8875 0.5217
H14 H -0.0443 0.9387 0.5179
loop_
_geom_bond_atom_site_label_1
_geom_bond_atom_site_label_2
_geom_bond_site_symmetry_1
_geom_bond_site_symmetry_2
O1 C17 1_555 1_555
O2 C14 1_555 1_555
O3 C1 1_555 1_555
N1 C6 1_555 1_555
N2 C3 1_555 1_555
C1 C4 1_555 1_555
C2 C7 1_555 1_555
C3 C5 1_555 1_555
C4 H1 1_555 1_555
C5 C6 1_555 1_555
C7 C4 1_555 1_555
H2 C7 1_555 1_555
C8 C5 1_555 1_555
C9 C2 1_555 1_555
H3 C9 1_555 1_555
C10 H4 1_555 1_555
C11 C10 1_555 1_555
C12 C2 1_555 1_555
H5 C12 1_555 1_555
C13 C1 1_555 1_555
H6 C13 1_555 1_555
C14 C8 1_555 1_555
C15 C8 1_555 1_555
H7 C15 1_555 1_555
H8 C15 1_555 1_555
C16 C11 1_555 1_555
C17 C8 1_555 1_555
C18 C16 1_555 1_555
H9 C18 1_555 1_555
C19 C18 1_555 1_555
H10 C19 1_555 1_555
C20 C10 1_555 1_555
H11 C20 1_555 1_555
C21 O3 1_555 1_555
H12 C21 1_555 1_555
H13 C21 1_555 1_555
H14 C21 1_555 1_555
C5 C12 1_555 1_555
C9 C13 1_555 1_555
C11 C14 1_555 1_555
C12 C15 1_555 1_555
C16 C17 1_555 1_555
C19 C20 1_555 1_555

#END
