
#######################################################################
#
#                 Cambridge Crystallographic Data Centre
#                                CCDC 
#
#######################################################################
#
# If this CIF has been generated from an entry in the Cambridge 
# Structural Database, then it will include bibliographic, chemical, 
# crystal, experimental, refinement or atomic coordinate data resulting 
# from the CCDC's data processing and validation procedures.
#
#######################################################################

data_UJABIQ
_chemical_formula_moiety         'C12 H24 K1 O6 1+,C2 F6 P1 1-'
_chemical_name_systematic        
'(18-Crown-6)-potassium bis(trifluoromethyl)phosphanide'
_symmetry_cell_setting           monoclinic
_symmetry_space_group_name_H-M   'C 2/c'
_symmetry_Int_Tables_number      15
_space_group_name_Hall           '-C 2yn'
loop_
_symmetry_equiv_pos_site_id
_symmetry_equiv_pos_as_xyz
1 x,y,z
2 1/2+x,1/2+y,z
3 x,-y,1/2+z
4 1/2+x,1/2-y,1/2+z
5 -x,-y,-z
6 1/2-x,1/2-y,-z
7 -x,y,1/2-z
8 1/2-x,1/2+y,1/2-z
_cell_length_a                   16.335(8)
_cell_length_b                   9.641(3)
_cell_length_c                   13.702(6)
_cell_angle_alpha                90
_cell_angle_beta                 97.14(4)
_cell_angle_gamma                90
_cell_volume                     2141.14
_exptl_crystal_colour            colorless
_exptl_crystal_description       parallelepiped
_cell_formula_units_Z            4
_exptl_crystal_recrystallization_method 'diethyl ether/acetone'
loop_
_atom_site_label
_atom_site_type_symbol
_atom_site_fract_x
_atom_site_fract_y
_atom_site_fract_z
P1 P 0.5000 0.1265(4) 0.2500
C1 C 0.4167(5) 0.2531(10) 0.2580(7)
F1 F 0.3988(3) 0.3442(6) 0.1836(5)
F2 F 0.3457(3) 0.1844(6) 0.2633(4)
F3 F 0.4256(4) 0.3338(8) 0.3404(5)
C1F C 0.5833(5) 0.2531(10) 0.2420(7)
F1F F 0.6012(3) 0.3442(6) 0.3164(5)
F2F F 0.6543(3) 0.1844(6) 0.2367(4)
F3F F 0.5744(4) 0.3338(8) 0.1596(5)
K1 K 0.0000 0.5000 0.5000
C2 C 0.2238(4) 0.5013(10) 0.5265(7)
H1 H 0.276(4) 0.541(7) 0.522(5)
H2 H 0.225(3) 0.444(6) 0.587(5)
C3 C 0.2048(5) 0.4100(10) 0.4382(7)
H3 H 0.245(4) 0.358(6) 0.427(4)
H4 H 0.200(4) 0.468(8) 0.388(5)
O1 O 0.1318(3) 0.3329(5) 0.4498(4)
C4 C 0.1050(5) 0.2469(10) 0.3671(7)
H5 H 0.147(5) 0.188(8) 0.361(5)
H6 H 0.097(4) 0.311(7) 0.305(5)
C5 C 0.0315(6) 0.1657(9) 0.3889(8)
H7 H 0.037(4) 0.134(7) 0.452(6)
H8 H 0.011(4) 0.109(8) 0.333(6)
O2 O -0.0370(3) 0.2580(5) 0.3872(4)
C6 C -0.1112(5) 0.1906(9) 0.4050(8)
H9 H -0.103(4) 0.161(7) 0.472(6)
H10 H -0.128(5) 0.122(9) 0.361(6)
C7 C -0.1796(5) 0.2971(9) 0.3963(7)
H11 H -0.233(5) 0.255(8) 0.400(6)
H12 H -0.188(5) 0.345(9) 0.335(6)
O3 O 0.1628(3) 0.6078(5) 0.5232(4)
O1D O -0.1318(3) 0.6671(5) 0.5502(4)
C3D C -0.2048(5) 0.5900(10) 0.5618(7)
C2D C -0.2238(4) 0.4987(10) 0.4735(7)
H1D H -0.276(4) 0.459(7) 0.478(5)
H2D H -0.225(3) 0.556(6) 0.413(5)
O3D O -0.1628(3) 0.3922(5) 0.4768(4)
O2D O 0.0370(3) 0.7420(5) 0.6128(4)
C5D C -0.0315(6) 0.8343(9) 0.6111(8)
C4D C -0.1050(5) 0.7531(10) 0.6329(7)
H5D H -0.147(5) 0.812(8) 0.639(5)
H6D H -0.097(4) 0.689(7) 0.695(5)
H7D H -0.037(4) 0.866(7) 0.548(6)
H8D H -0.011(4) 0.891(8) 0.667(6)
C6D C 0.1112(5) 0.8094(9) 0.5950(8)
H9D H 0.103(4) 0.839(7) 0.528(6)
H10D H 0.128(5) 0.878(9) 0.639(6)
C7D C 0.1796(5) 0.7029(9) 0.6037(7)
H11D H 0.233(5) 0.745(8) 0.600(6)
H12D H 0.188(5) 0.655(9) 0.665(6)
H3D H -0.245(4) 0.642(6) 0.573(4)
H4D H -0.200(4) 0.532(8) 0.612(5)
loop_
_geom_bond_atom_site_label_1
_geom_bond_atom_site_label_2
_geom_bond_site_symmetry_1
_geom_bond_site_symmetry_2
P1 C1 1_555 1_555
C1 F1 1_555 1_555
F2 C1 1_555 1_555
F3 C1 1_555 1_555
K1 O1 1_555 1_555
C2 H1 1_555 1_555
H2 C2 1_555 1_555
C3 C2 1_555 1_555
H3 C3 1_555 1_555
H4 C3 1_555 1_555
O1 C3 1_555 1_555
C4 O1 1_555 1_555
H5 C4 1_555 1_555
H6 C4 1_555 1_555
C5 C4 1_555 1_555
H7 C5 1_555 1_555
H8 C5 1_555 1_555
O2 K1 1_555 1_555
C6 O2 1_555 1_555
H9 C6 1_555 1_555
H10 C6 1_555 1_555
C7 C6 1_555 1_555
H11 C7 1_555 1_555
H12 C7 1_555 1_555
O3 K1 1_555 1_555
C1F P1 1_555 1_555
F1F C1F 1_555 1_555
F2F C1F 1_555 1_555
F3F C1F 1_555 1_555
O1D K1 1_555 1_555
C3D O1D 1_555 1_555
C2D C3D 1_555 1_555
H1D C2D 1_555 1_555
H2D C2D 1_555 1_555
O3D K1 1_555 1_555
O2D K1 1_555 1_555
C5D O2D 1_555 1_555
C4D O1D 1_555 1_555
H5D C4D 1_555 1_555
H6D C4D 1_555 1_555
H7D C5D 1_555 1_555
H8D C5D 1_555 1_555
C6D O2D 1_555 1_555
H9D C6D 1_555 1_555
H10D C6D 1_555 1_555
C7D O3 1_555 1_555
H11D C7D 1_555 1_555
H12D C7D 1_555 1_555
H3D C3D 1_555 1_555
H4D C3D 1_555 1_555
C2 O3 1_555 1_555
C5 O2 1_555 1_555
C7 O3D 1_555 1_555
C2D O3D 1_555 1_555
C5D C4D 1_555 1_555
C6D C7D 1_555 1_555

#END
