
#######################################################################
#
#                 Cambridge Crystallographic Data Centre
#                                CCDC 
#
#######################################################################
#
# If this CIF has been generated from an entry in the Cambridge 
# Structural Database, then it will include bibliographic, chemical, 
# crystal, experimental, refinement or atomic coordinate data resulting 
# from the CCDC's data processing and validation procedures.
#
#######################################################################

data_UJEBUI
_chemical_formula_moiety         'C60 H48,C7 H8'
_chemical_name_systematic        
"6,14,22-Tri-t-butylacephenanthryleno[4',5':9,10]benzo[4,5]fluorantheno[7,8-e]acephenanthrylene toluene solvate"
_symmetry_cell_setting           monoclinic
_symmetry_space_group_name_H-M   'P 21/c'
_symmetry_Int_Tables_number      14
_space_group_name_Hall           '-P 2ybc'
loop_
_symmetry_equiv_pos_site_id
_symmetry_equiv_pos_as_xyz
1 x,y,z
2 -x,1/2+y,1/2-z
3 -x,-y,-z
4 x,1/2-y,1/2+z
_cell_length_a                   22.746(16)
_cell_length_b                   5.993(5)
_cell_length_c                   34.46(3)
_cell_angle_alpha                90
_cell_angle_beta                 102.36(2)
_cell_angle_gamma                90
_cell_volume                     4588.6
_exptl_crystal_colour            yellow
_exptl_crystal_description       needle
_cell_formula_units_Z            4
loop_
_atom_site_label
_atom_site_type_symbol
_atom_site_fract_x
_atom_site_fract_y
_atom_site_fract_z
C1 C 0.7409(8) 0.434(3) 0.2624(5)
C2 C 0.7020(7) 0.530(2) 0.2287(4)
C3 C 0.6914(8) 0.419(3) 0.1936(4)
C4 C 0.7253(7) 0.225(3) 0.1888(4)
C5 C 0.7678(7) 0.151(3) 0.2198(4)
C6 C 0.7758(8) 0.256(3) 0.2576(4)
C7 C 0.7317(10) 0.567(3) 0.2979(6)
C8 C 0.7439(8) 0.550(3) 0.3364(4)
H1 H 0.7657 0.4215 0.3475
C9 C 0.7280(10) 0.701(4) 0.3628(6)
C10 C 0.6918(10) 0.887(4) 0.3457(5)
H2 H 0.6817 1.0008 0.3624
C11 C 0.6705(9) 0.903(3) 0.3023(5)
C12 C 0.6278(9) 1.085(3) 0.2799(5)
C13 C 0.6093(9) 1.248(3) 0.3016(6)
H3 H 0.6232 1.2541 0.3297
C14 C 0.5699(8) 1.405(3) 0.2822(5)
H4 H 0.5588 1.5262 0.2969
C15 C 0.5464(8) 1.394(3) 0.2430(5)
H5 H 0.5167 1.4978 0.2306
C16 C 0.5665(8) 1.223(3) 0.2204(5)
H6 H 0.5518 1.2119 0.1925
C17 C 0.6107(8) 1.067(3) 0.2419(5)
C18 C 0.6333(10) 0.892(3) 0.2174(6)
H7 H 0.6227 0.8912 0.1892
C19 C 0.6708(7) 0.733(3) 0.2390(4)
C20 C 0.6871(9) 0.756(3) 0.2786(5)
C21 C 0.7435(8) 0.666(3) 0.4077(5)
C22 C 0.6998(11) 0.510(4) 0.4192(7)
H8 H 0.6590 0.5684 0.4101
H9 H 0.7030 0.3642 0.4069
H10 H 0.7087 0.4937 0.4481
C23 C 0.8048(10) 0.575(5) 0.4216(8)
H11 H 0.8341 0.6775 0.4141
H12 H 0.8132 0.5589 0.4505
H13 H 0.8076 0.4294 0.4093
C24 C 0.7422(13) 0.882(4) 0.4286(8)
H14 H 0.7022 0.9500 0.4204
H15 H 0.7509 0.8569 0.4574
H16 H 0.7725 0.9830 0.4219
C25 C 0.6452(11) 0.443(4) 0.1555(6)
C26 C 0.5949(7) 0.553(3) 0.1429(5)
H17 H 0.5826 0.6545 0.1608
C27 C 0.5586(9) 0.532(4) 0.1057(6)
C28 C 0.5746(10) 0.364(4) 0.0805(6)
H18 H 0.5495 0.3392 0.0550
C29 C 0.6298(9) 0.225(3) 0.0932(6)
C30 C 0.6491(10) 0.026(3) 0.0709(6)
C31 C 0.6194(9) -0.001(3) 0.0323(5)
H19 H 0.5898 0.1038 0.0200
C32 C 0.6335(9) -0.182(3) 0.0119(6)
H20 H 0.6132 -0.2019 -0.0150
C33 C 0.6750(9) -0.333(3) 0.0284(5)
H21 H 0.6853 -0.4537 0.0132
C34 C 0.7032(9) -0.308(3) 0.0691(5)
H22 H 0.7307 -0.4166 0.0824
C35 C 0.6890(9) -0.111(3) 0.0899(5)
C36 C 0.7217(10) -0.077(3) 0.1323(5)
H23 H 0.7496 -0.1814 0.1465
C37 C 0.7070(8) 0.123(3) 0.1489(4)
C38 C 0.6622(9) 0.250(3) 0.1292(6)
C39 C 0.4970(7) 0.648(3) 0.0947(5)
C40 C 0.4973(14) 0.867(4) 0.1150(9)
H24 H 0.5076 0.8453 0.1439
H25 H 0.5271 0.9657 0.1071
H26 H 0.4573 0.9358 0.1075
C41 C 0.4502(9) 0.508(4) 0.1067(6)
H27 H 0.4617 0.4780 0.1353
H28 H 0.4116 0.5875 0.1008
H29 H 0.4464 0.3671 0.0921
C42 C 0.4811(13) 0.697(5) 0.0519(6)
H30 H 0.5127 0.7890 0.0446
H31 H 0.4775 0.5565 0.0369
H32 H 0.4427 0.7769 0.0456
C43 C 0.8143(10) -0.035(4) 0.2256(6)
C44 C 0.8386(7) -0.168(3) 0.2029(5)
H33 H 0.8261 -0.1534 0.1748
C45 C 0.8814(9) -0.330(3) 0.2177(6)
C46 C 0.9018(10) -0.345(4) 0.2596(5)
H34 H 0.9312 -0.4538 0.2706
C47 C 0.8776(10) -0.194(3) 0.2863(5)
C48 C 0.9019(9) -0.173(3) 0.3312(5)
C49 C 0.9409(9) -0.336(3) 0.3482(5)
H35 H 0.9490 -0.4627 0.3335
C50 C 0.9677(9) -0.309(3) 0.3874(5)
H36 H 0.9958 -0.4174 0.4000
C51 C 0.9558(8) -0.135(3) 0.4086(5)
H37 H 0.9737 -0.1254 0.4361
C52 C 0.9164(9) 0.037(3) 0.3902(5)
H38 H 0.9076 0.1625 0.4047
C53 C 0.8904(8) 0.010(3) 0.3484(5)
C54 C 0.8445(10) 0.181(4) 0.3289(6)
H39 H 0.8337 0.3070 0.3425
C55 C 0.8192(8) 0.136(3) 0.2890(5)
C56 C 0.8381(10) -0.040(4) 0.2715(5)
C57 C 0.9100(7) -0.470(3) 0.1893(4)
C58 C 0.8666(11) -0.565(4) 0.1557(6)
H40 H 0.8382 -0.6612 0.1656
H41 H 0.8445 -0.4447 0.1397
H42 H 0.8880 -0.6541 0.1392
C59 C 0.9530(7) -0.325(3) 0.1743(5)
H43 H 0.9820 -0.2615 0.1967
H44 H 0.9745 -0.4137 0.1578
H45 H 0.9310 -0.2043 0.1583
C60 C 0.9435(10) -0.655(4) 0.2126(7)
H46 H 0.9728 -0.5945 0.2352
H47 H 0.9152 -0.7529 0.2223
H48 H 0.9647 -0.7414 0.1956
C61 C 0.805(2) 0.233(8) 0.5434(11)
H49 H 0.7763 0.2101 0.5181
H50 H 0.7843 0.3059 0.5622
H51 H 0.8209 0.0889 0.5541
C62 C 0.8433(10) 0.343(4) 0.5384(7)
C63 C 0.8777(12) 0.281(4) 0.5113(6)
H52 H 0.8692 0.1458 0.4969
C64 C 0.9243(12) 0.418(5) 0.5053(7)
H53 H 0.9478 0.3754 0.4868
C65 C 0.9367(11) 0.616(5) 0.5264(9)
H54 H 0.9686 0.7092 0.5223
C66 C 0.9023(13) 0.678(4) 0.5535(8)
H55 H 0.9108 0.8135 0.5680
C67 C 0.8556(12) 0.542(4) 0.5595(6)
H56 H 0.8322 0.5839 0.5781
loop_
_geom_bond_atom_site_label_1
_geom_bond_atom_site_label_2
_geom_bond_site_symmetry_1
_geom_bond_site_symmetry_2
C1 C2 1_555 1_555
C2 C3 1_555 1_555
C3 C4 1_555 1_555
C4 C5 1_555 1_555
C5 C6 1_555 1_555
C6 C1 1_555 1_555
C7 C1 1_555 1_555
C8 C7 1_555 1_555
H1 C8 1_555 1_555
C9 C8 1_555 1_555
C10 C9 1_555 1_555
H2 C10 1_555 1_555
C11 C10 1_555 1_555
C12 C11 1_555 1_555
C13 C12 1_555 1_555
H3 C13 1_555 1_555
C14 C13 1_555 1_555
H4 C14 1_555 1_555
C15 C14 1_555 1_555
H5 C15 1_555 1_555
C16 C15 1_555 1_555
H6 C16 1_555 1_555
C17 C12 1_555 1_555
C18 C17 1_555 1_555
H7 C18 1_555 1_555
C19 C2 1_555 1_555
C20 C7 1_555 1_555
C21 C9 1_555 1_555
C22 C21 1_555 1_555
H8 C22 1_555 1_555
H9 C22 1_555 1_555
H10 C22 1_555 1_555
C23 C21 1_555 1_555
H11 C23 1_555 1_555
H12 C23 1_555 1_555
H13 C23 1_555 1_555
C24 C21 1_555 1_555
H14 C24 1_555 1_555
H15 C24 1_555 1_555
H16 C24 1_555 1_555
C25 C3 1_555 1_555
C26 C25 1_555 1_555
H17 C26 1_555 1_555
C27 C26 1_555 1_555
C28 C27 1_555 1_555
H18 C28 1_555 1_555
C29 C28 1_555 1_555
C30 C29 1_555 1_555
C31 C30 1_555 1_555
H19 C31 1_555 1_555
C32 C31 1_555 1_555
H20 C32 1_555 1_555
C33 C32 1_555 1_555
H21 C33 1_555 1_555
C34 C33 1_555 1_555
H22 C34 1_555 1_555
C35 C30 1_555 1_555
C36 C35 1_555 1_555
H23 C36 1_555 1_555
C37 C4 1_555 1_555
C38 C25 1_555 1_555
C39 C27 1_555 1_555
C40 C39 1_555 1_555
H24 C40 1_555 1_555
H25 C40 1_555 1_555
H26 C40 1_555 1_555
C41 C39 1_555 1_555
H27 C41 1_555 1_555
H28 C41 1_555 1_555
H29 C41 1_555 1_555
C42 C39 1_555 1_555
H30 C42 1_555 1_555
H31 C42 1_555 1_555
H32 C42 1_555 1_555
C43 C5 1_555 1_555
C44 C43 1_555 1_555
H33 C44 1_555 1_555
C45 C44 1_555 1_555
C46 C45 1_555 1_555
H34 C46 1_555 1_555
C47 C46 1_555 1_555
C48 C47 1_555 1_555
C49 C48 1_555 1_555
H35 C49 1_555 1_555
C50 C49 1_555 1_555
H36 C50 1_555 1_555
C51 C50 1_555 1_555
H37 C51 1_555 1_555
C52 C51 1_555 1_555
H38 C52 1_555 1_555
C53 C48 1_555 1_555
C54 C53 1_555 1_555
H39 C54 1_555 1_555
C55 C6 1_555 1_555
C56 C43 1_555 1_555
C57 C45 1_555 1_555
C58 C57 1_555 1_555
H40 C58 1_555 1_555
H41 C58 1_555 1_555
H42 C58 1_555 1_555
C59 C57 1_555 1_555
H43 C59 1_555 1_555
H44 C59 1_555 1_555
H45 C59 1_555 1_555
C60 C57 1_555 1_555
H46 C60 1_555 1_555
H47 C60 1_555 1_555
H48 C60 1_555 1_555
C61 H49 1_555 1_555
H50 C61 1_555 1_555
H51 C61 1_555 1_555
C62 C61 1_555 1_555
C63 C62 1_555 1_555
H52 C63 1_555 1_555
C64 C63 1_555 1_555
H53 C64 1_555 1_555
C65 C64 1_555 1_555
H54 C65 1_555 1_555
C66 C65 1_555 1_555
H55 C66 1_555 1_555
C67 C62 1_555 1_555
H56 C67 1_555 1_555
C11 C20 1_555 1_555
C16 C17 1_555 1_555
C18 C19 1_555 1_555
C19 C20 1_555 1_555
C29 C38 1_555 1_555
C34 C35 1_555 1_555
C36 C37 1_555 1_555
C37 C38 1_555 1_555
C47 C56 1_555 1_555
C52 C53 1_555 1_555
C54 C55 1_555 1_555
C55 C56 1_555 1_555
C66 C67 1_555 1_555

#END
