
#######################################################################
#
#                 Cambridge Crystallographic Data Centre
#                                CCDC 
#
#######################################################################
#
# If this CIF has been generated from an entry in the Cambridge 
# Structural Database, then it will include bibliographic, chemical, 
# crystal, experimental, refinement or atomic coordinate data resulting 
# from the CCDC's data processing and validation procedures.
#
#######################################################################

data_UJEBOC
_chemical_formula_moiety         'C57 H75 B3 O6,C1 H2 Cl2'
_chemical_name_systematic        
"2,2',2''-(3,8,13-Tri-t-butyl-10,15-dihydro-5H-diindeno[1,2-a:1',2'-c]fluorene-1,6,11-triyl)tris(4,4,5,5-tetramethyl-1,3,2-dioxaborolane) dichloromethane solvate"
_symmetry_cell_setting           triclinic
_symmetry_space_group_name_H-M   'P -1'
_symmetry_Int_Tables_number      2
_space_group_name_Hall           '-P 1'
loop_
_symmetry_equiv_pos_site_id
_symmetry_equiv_pos_as_xyz
1 x,y,z
2 -x,-y,-z
_cell_length_a                   10.5450(5)
_cell_length_b                   16.7775(8)
_cell_length_c                   16.7940(8)
_cell_angle_alpha                101.1115(14)
_cell_angle_beta                 99.8709(14)
_cell_angle_gamma                96.1059(13)
_cell_volume                     2842.3
_exptl_crystal_colour            colorless
_exptl_crystal_description       plate
_cell_formula_units_Z            2
loop_
_atom_site_label
_atom_site_type_symbol
_atom_site_fract_x
_atom_site_fract_y
_atom_site_fract_z
C1 C 0.2534(3) 0.57912(18) 0.72377(19)
C2 C 0.1821(3) 0.50013(19) 0.72872(19)
C3 C 0.0533(3) 0.46576(19) 0.6981(2)
H1 H -0.0039 0.4946 0.6681
C4 C 0.0068(3) 0.38905(19) 0.7108(2)
C5 C 0.0936(3) 0.3494(2) 0.7555(2)
H2 H 0.0622 0.2978 0.7655
C6 C 0.2254(3) 0.38141(19) 0.78661(19)
C7 C 0.2681(3) 0.45816(19) 0.77210(19)
C8 C 0.4030(3) 0.50741(18) 0.7963(2)
H3 H 0.4338 0.5203 0.8570
H4 H 0.4661 0.4776 0.7696
C9 C 0.3836(3) 0.58385(19) 0.76461(19)
C10 C -0.1364(3) 0.3528(2) 0.6766(2)
C11 C -0.1708(5) 0.3517(4) 0.5852(3)
H5 H -0.1500 0.4072 0.5763
H6 H -0.1206 0.3146 0.5552
H7 H -0.2639 0.3324 0.5649
C12 C -0.2222(4) 0.4061(3) 0.7215(3)
H8 H -0.2008 0.4073 0.7809
H9 H -0.2069 0.4620 0.7125
H10 H -0.3138 0.3831 0.7000
C13 C -0.1685(4) 0.2667(3) 0.6905(4)
H11 H -0.1462 0.2674 0.7497
H12 H -0.2617 0.2474 0.6702
H13 H -0.1184 0.2297 0.6604
B1 B 0.3201(4) 0.3331(2) 0.8334(2)
O1 O 0.2806(2) 0.26755(13) 0.86516(14)
O2 O 0.4524(2) 0.35215(14) 0.84692(15)
C14 C 0.3960(3) 0.23103(19) 0.8917(2)
C15 C 0.4008(4) 0.1603(2) 0.8215(2)
H14 H 0.4771 0.1337 0.8365
H15 H 0.3217 0.1204 0.8112
H16 H 0.4067 0.1810 0.7714
C16 C 0.3826(3) 0.2001(2) 0.9693(2)
H17 H 0.4597 0.1755 0.9874
H18 H 0.3743 0.2460 1.0131
H19 H 0.3050 0.1588 0.9575
C17 C 0.5077(3) 0.3046(2) 0.9048(2)
C18 C 0.5331(4) 0.3599(2) 0.9900(2)
H20 H 0.5706 0.3302 1.0311
H21 H 0.5941 0.4087 0.9916
H22 H 0.4512 0.3765 1.0026
C19 C 0.6333(3) 0.2803(3) 0.8818(3)
H23 H 0.6719 0.2482 0.9201
H24 H 0.6150 0.2471 0.8252
H25 H 0.6941 0.3298 0.8852
C20 C 0.4716(3) 0.65452(19) 0.77134(19)
C21 C 0.6093(3) 0.67819(18) 0.81279(19)
C22 C 0.6936(3) 0.63632(19) 0.85646(19)
H26 H 0.6651 0.5820 0.8610
C23 C 0.8201(3) 0.67382(19) 0.8937(2)
C24 C 0.8583(3) 0.75318(19) 0.8841(2)
H27 H 0.9447 0.7787 0.9085
C25 C 0.7759(3) 0.79700(19) 0.8403(2)
C26 C 0.6493(3) 0.75783(18) 0.80498(19)
C27 C 0.5396(3) 0.79002(19) 0.7569(2)
H28 H 0.5626 0.8038 0.7060
H29 H 0.5159 0.8392 0.7908
C28 C 0.4309(3) 0.71913(19) 0.73669(19)
C29 C 0.9153(3) 0.6299(2) 0.9434(2)
C30 C 0.8443(4) 0.5566(2) 0.9682(3)
H30 H 0.7820 0.5758 1.0020
H31 H 0.7978 0.5169 0.9183
H32 H 0.9077 0.5303 1.0001
C31 C 1.0127(4) 0.6006(2) 0.8906(3)
H33 H 1.0742 0.5724 0.9216
H34 H 0.9661 0.5627 0.8395
H35 H 1.0602 0.6479 0.8768
C32 C 0.9882(4) 0.6886(2) 1.0239(2)
H36 H 0.9256 0.7073 1.0577
H37 H 1.0491 0.6599 1.0547
H38 H 1.0363 0.7360 1.0107
B2 B 0.8204(3) 0.8865(2) 0.8340(2)
O3 O 0.9446(9) 0.9262(5) 0.8589(8)
O4 O 0.7349(8) 0.9353(4) 0.8051(6)
C33 C 0.9460(7) 1.0049(5) 0.8328(5)
C34 C 0.9879(12) 0.9903(6) 0.7499(6)
H39 H 0.9907 1.0411 0.7292
H40 H 1.0745 0.9733 0.7565
H41 H 0.9257 0.9471 0.7104
C35 C 1.0412(12) 1.0686(9) 0.9000(9)
H42 H 1.0447 1.1222 0.8846
H43 H 1.0119 1.0726 0.9528
H44 H 1.1280 1.0519 0.9057
C36 C 0.8022(6) 1.0194(4) 0.8256(5)
C37 C 0.7704(10) 1.0587(6) 0.9080(5)
H45 H 0.8133 1.1158 0.9251
H46 H 0.6761 1.0575 0.9020
H47 H 0.8013 1.0283 0.9500
C38 C 0.7503(18) 1.0608(10) 0.7564(10)
H48 H 0.7938 1.1176 0.7684
H49 H 0.7673 1.0310 0.7040
H50 H 0.6564 1.0604 0.7522
C39 C 0.3038(3) 0.71286(19) 0.6940(2)
C40 C 0.2375(3) 0.76969(19) 0.6512(2)
C41 C 0.2854(3) 0.8449(2) 0.6365(2)
H51 H 0.3743 0.8671 0.6572
C42 C 0.2045(3) 0.8878(2) 0.5919(2)
C43 C 0.0733(3) 0.8536(2) 0.5645(2)
H52 H 0.0166 0.8833 0.5352
C44 C 0.0213(3) 0.7779(2) 0.5779(2)
C45 C 0.1065(3) 0.7362(2) 0.6214(2)
C46 C 0.0823(3) 0.6528(2) 0.6429(2)
H53 H 0.0169 0.6520 0.6787
H54 H 0.0523 0.6089 0.5924
C47 C 0.2137(3) 0.64281(19) 0.6884(2)
C48 C 0.2558(3) 0.9688(2) 0.5707(2)
C49 C 0.2454(5) 0.9552(3) 0.4771(2)
H55 H 0.1548 0.9352 0.4494
H56 H 0.2738 1.0071 0.4626
H57 H 0.3007 0.9146 0.4594
C50 C 0.1748(4) 1.0359(2) 0.5983(3)
H58 H 0.0831 1.0176 0.5723
H59 H 0.1840 1.0467 0.6587
H60 H 0.2055 1.0863 0.5817
C51 C 0.3971(4) 0.9999(2) 0.6126(3)
H61 H 0.4052 1.0089 0.6727
H62 H 0.4519 0.9591 0.5943
H63 H 0.4251 1.0517 0.5975
B3 B -0.1250(4) 0.7424(2) 0.5437(2)
O5 O -0.2182(6) 0.7874(4) 0.5206(6)
O6 O -0.1709(6) 0.6600(4) 0.5329(6)
C52 C -0.3357(9) 0.7302(7) 0.4794(6)
C53 C -0.3403(14) 0.7189(8) 0.3867(5)
H64 H -0.4180 0.6808 0.3564
H65 H -0.3432 0.7720 0.3708
H66 H -0.2625 0.6967 0.3731
C54 C -0.4511(10) 0.7695(8) 0.5023(8)
H67 H -0.5317 0.7324 0.4754
H68 H -0.4439 0.7801 0.5625
H69 H -0.4524 0.8214 0.4837
C55 C -0.3127(10) 0.6519(6) 0.5136(7)
C56 C -0.3590(14) 0.6492(8) 0.5946(7)
H70 H -0.4542 0.6437 0.5847
H71 H -0.3305 0.6021 0.6157
H72 H -0.3220 0.6999 0.6355
C57 C -0.3640(12) 0.5718(6) 0.4505(6)
H73 H -0.4592 0.5653 0.4369
H74 H -0.3290 0.5728 0.4003
H75 H -0.3369 0.5257 0.4739
C70 C 1.2346(5) 0.8736(3) 0.8596(3)
H100 H 1.1552 0.8944 0.8740
H101 H 1.2197 0.8555 0.7986
Cl1 Cl 1.26021(13) 0.79084(8) 0.90360(9)
Cl2 Cl 1.36574(18) 0.95295(9) 0.89251(15)
O7? O 0.9317(10) 0.9348(6) 0.8799(9)
O8? O 0.7518(9) 0.9242(6) 0.7795(6)
C58? C 0.9200(8) 1.0186(5) 0.8688(5)
C59? C 1.0550(14) 1.0623(12) 0.8699(11)
H76? H 1.0485 1.1184 0.8625
H77? H 1.1120 1.0642 0.9231
H78? H 1.0911 1.0325 0.8249
C60? C 0.8555(13) 1.0581(7) 0.9376(7)
H79? H 0.8454 1.1145 0.9329
H80? H 0.7698 1.0266 0.9330
H81? H 0.9098 1.0588 0.9914
C61? C 0.8292(8) 1.0015(5) 0.7818(5)
C62? C 0.742(2) 1.0671(13) 0.7730(13)
H82? H 0.7950 1.1192 0.7746
H83? H 0.6797 1.0503 0.7202
H84? H 0.6943 1.0741 0.8187
C63? C 0.8999(12) 0.9836(7) 0.7103(7)
H85? H 0.9548 1.0336 0.7079
H86? H 0.9542 0.9408 0.7185
H87? H 0.8361 0.9647 0.6583
O9? O -0.2030(7) 0.7747(6) 0.4874(7)
O10? O -0.1866(8) 0.6786(6) 0.5665(7)
C64? C -0.3356(10) 0.7346(8) 0.4797(8)
C65? C -0.4024(14) 0.7207(10) 0.3896(7)
H88? H -0.4920 0.6937 0.3826
H89? H -0.4033 0.7735 0.3731
H90? H -0.3551 0.6857 0.3550
C66? C -0.4021(14) 0.7939(8) 0.5332(9)
H91? H -0.4919 0.7694 0.5299
H92? H -0.3551 0.8054 0.5907
H93? H -0.4020 0.8452 0.5134
C67? C -0.3137(11) 0.6548(7) 0.5109(8)
C68? C -0.4094(12) 0.6289(8) 0.5625(9)
H94? H -0.4963 0.6123 0.5276
H95? H -0.3820 0.5826 0.5855
H96? H -0.4116 0.6751 0.6077
C69? C -0.2996(16) 0.5820(8) 0.4454(8)
H97? H -0.3826 0.5635 0.4063
H98? H -0.2323 0.5983 0.4157
H99? H -0.2749 0.5373 0.4719
loop_
_geom_bond_atom_site_label_1
_geom_bond_atom_site_label_2
_geom_bond_site_symmetry_1
_geom_bond_site_symmetry_2
C1 C2 1_555 1_555
C2 C3 1_555 1_555
C3 H1 1_555 1_555
C4 C3 1_555 1_555
C5 C4 1_555 1_555
H2 C5 1_555 1_555
C6 C5 1_555 1_555
C7 C2 1_555 1_555
C8 C7 1_555 1_555
H3 C8 1_555 1_555
H4 C8 1_555 1_555
C9 C1 1_555 1_555
C10 C4 1_555 1_555
C11 C10 1_555 1_555
H5 C11 1_555 1_555
H6 C11 1_555 1_555
H7 C11 1_555 1_555
C12 C10 1_555 1_555
H8 C12 1_555 1_555
H9 C12 1_555 1_555
H10 C12 1_555 1_555
C13 C10 1_555 1_555
H11 C13 1_555 1_555
H12 C13 1_555 1_555
H13 C13 1_555 1_555
B1 C6 1_555 1_555
O1 B1 1_555 1_555
O2 B1 1_555 1_555
C14 O1 1_555 1_555
C15 C14 1_555 1_555
H14 C15 1_555 1_555
H15 C15 1_555 1_555
H16 C15 1_555 1_555
C16 C14 1_555 1_555
H17 C16 1_555 1_555
H18 C16 1_555 1_555
H19 C16 1_555 1_555
C17 O2 1_555 1_555
C18 C17 1_555 1_555
H20 C18 1_555 1_555
H21 C18 1_555 1_555
H22 C18 1_555 1_555
C19 C17 1_555 1_555
H23 C19 1_555 1_555
H24 C19 1_555 1_555
H25 C19 1_555 1_555
C20 C9 1_555 1_555
C21 C20 1_555 1_555
C22 C21 1_555 1_555
H26 C22 1_555 1_555
C23 C22 1_555 1_555
C24 C23 1_555 1_555
H27 C24 1_555 1_555
C25 C24 1_555 1_555
C26 C21 1_555 1_555
C27 C26 1_555 1_555
H28 C27 1_555 1_555
H29 C27 1_555 1_555
C28 C20 1_555 1_555
C29 C23 1_555 1_555
C30 C29 1_555 1_555
H30 C30 1_555 1_555
H31 C30 1_555 1_555
H32 C30 1_555 1_555
C31 C29 1_555 1_555
H33 C31 1_555 1_555
H34 C31 1_555 1_555
H35 C31 1_555 1_555
C32 C29 1_555 1_555
H36 C32 1_555 1_555
H37 C32 1_555 1_555
H38 C32 1_555 1_555
B2 C25 1_555 1_555
O3 B2 1_555 1_555
O4 B2 1_555 1_555
C33 O3 1_555 1_555
C34 C33 1_555 1_555
H39 C34 1_555 1_555
H40 C34 1_555 1_555
H41 C34 1_555 1_555
C35 C33 1_555 1_555
H42 C35 1_555 1_555
H43 C35 1_555 1_555
H44 C35 1_555 1_555
C36 O4 1_555 1_555
C37 C36 1_555 1_555
H45 C37 1_555 1_555
H46 C37 1_555 1_555
H47 C37 1_555 1_555
C38 C36 1_555 1_555
H48 C38 1_555 1_555
H49 C38 1_555 1_555
H50 C38 1_555 1_555
C39 C28 1_555 1_555
C40 C39 1_555 1_555
C41 C40 1_555 1_555
H51 C41 1_555 1_555
C42 C41 1_555 1_555
C43 C42 1_555 1_555
H52 C43 1_555 1_555
C44 C43 1_555 1_555
C45 C40 1_555 1_555
C46 C45 1_555 1_555
H53 C46 1_555 1_555
H54 C46 1_555 1_555
C47 C1 1_555 1_555
C48 C42 1_555 1_555
C49 C48 1_555 1_555
H55 C49 1_555 1_555
H56 C49 1_555 1_555
H57 C49 1_555 1_555
C50 C48 1_555 1_555
H58 C50 1_555 1_555
H59 C50 1_555 1_555
H60 C50 1_555 1_555
C51 C48 1_555 1_555
H61 C51 1_555 1_555
H62 C51 1_555 1_555
H63 C51 1_555 1_555
B3 C44 1_555 1_555
O5 B3 1_555 1_555
O6 B3 1_555 1_555
C52 O5 1_555 1_555
C53 C52 1_555 1_555
H64 C53 1_555 1_555
H65 C53 1_555 1_555
H66 C53 1_555 1_555
C54 C52 1_555 1_555
H67 C54 1_555 1_555
H68 C54 1_555 1_555
H69 C54 1_555 1_555
C55 O6 1_555 1_555
C56 C55 1_555 1_555
H70 C56 1_555 1_555
H71 C56 1_555 1_555
H72 C56 1_555 1_555
C57 C55 1_555 1_555
H73 C57 1_555 1_555
H74 C57 1_555 1_555
H75 C57 1_555 1_555
C70 H100 1_555 1_555
H101 C70 1_555 1_555
Cl1 C70 1_555 1_555
Cl2 C70 1_555 1_555
C6 C7 1_555 1_555
C8 C9 1_555 1_555
C14 C17 1_555 1_555
C25 C26 1_555 1_555
C27 C28 1_555 1_555
C33 C36 1_555 1_555
C39 C47 1_555 1_555
C44 C45 1_555 1_555
C46 C47 1_555 1_555
C52 C55 1_555 1_555

#END
