
#######################################################################
#
#                 Cambridge Crystallographic Data Centre
#                                CCDC 
#
#######################################################################
#
# If this CIF has been generated from an entry in the Cambridge 
# Structural Database, then it will include bibliographic, chemical, 
# crystal, experimental, refinement or atomic coordinate data resulting 
# from the CCDC's data processing and validation procedures.
#
#######################################################################

data_UJECAO
_chemical_formula_moiety         'C24 H32 O9'
_chemical_name_systematic        
'13-Hydroxy-1,4a,8,11a-tetramethyl-11-oxo-2,3,4,4a,5,6,7,9a,11,11a,13,13a-dodecahydro-1H-1,2-epoxybenzo[4,5]cyclodeca[1,2-b]oxireno[c]furan-4,5-diyl diacetate'
_symmetry_cell_setting           monoclinic
_symmetry_space_group_name_H-M   'P 21'
_symmetry_Int_Tables_number      4
_space_group_name_Hall           'P 2yb'
loop_
_symmetry_equiv_pos_site_id
_symmetry_equiv_pos_as_xyz
1 x,y,z
2 -x,1/2+y,-z
_cell_length_a                   7.6288(4)
_cell_length_b                   16.6943(9)
_cell_length_c                   18.1201(10)
_cell_angle_alpha                90
_cell_angle_beta                 101.634(3)
_cell_angle_gamma                90
_cell_volume                     2260.32
_exptl_crystal_colour            colorless
_exptl_crystal_description       prism
_cell_formula_units_Z            4
loop_
_atom_site_label
_atom_site_type_symbol
_atom_site_fract_x
_atom_site_fract_y
_atom_site_fract_z
O1 O 0.5494(2) 0.73477(11) 0.65266(9)
O2 O 0.7751(3) 0.68903(15) 0.74114(11)
O3 O 0.9728(2) 0.56426(10) 0.39406(10)
O4 O 0.9877(2) 0.72683(10) 0.37567(10)
O5 O 0.5236(2) 0.69419(11) 0.39979(11)
O6 O 0.5720(2) 0.92176(11) 0.40967(10)
O7 O 0.8309(2) 0.87338(11) 0.61794(10)
O8 O 0.7911(3) 0.88549(12) 0.73701(10)
O9 O 1.0238(3) 0.55912(11) 0.27722(11)
C1 C 0.5987(3) 0.79528(15) 0.53780(14)
C2 C 0.6549(3) 0.72429(15) 0.59344(14)
H1 H 0.7817 0.7309 0.6166
C3 C 0.6274(3) 0.63888(15) 0.56375(14)
H2 H 0.6052 0.6401 0.5091
H3 H 0.5221 0.6166 0.5785
C4 C 0.7882(3) 0.58390(15) 0.59280(14)
H4 H 0.7962 0.5746 0.6462
H5 H 0.7675 0.5326 0.5674
C5 C 0.9666(3) 0.61764(14) 0.58078(15)
C6 C 1.0014(3) 0.63132(15) 0.51274(15)
H6 H 1.1132 0.6525 0.5110
C7 C 0.8784(3) 0.61595(15) 0.43946(15)
H7 H 0.7701 0.5890 0.4479
C8 C 0.8277(3) 0.69048(15) 0.39160(14)
C9 C 0.6743(3) 0.74501(15) 0.40306(14)
H8 H 0.6475 0.7811 0.3596
C10 C 0.7214(3) 0.79908(15) 0.47646(13)
H9 H 0.8413 0.7826 0.5025
C11 C 0.7416(3) 0.88444(16) 0.44770(15)
C12 C 0.6714(3) 0.95516(16) 0.47897(14)
H10 H 0.7345 1.0054 0.4738
C13 C 0.5888(4) 0.94938(16) 0.54718(14)
H11 H 0.4597 0.9535 0.5320
H12 H 0.6305 0.9935 0.5810
C14 C 0.6372(3) 0.87119(16) 0.58769(14)
H13 H 0.5739 0.8670 0.6295
C15 C 0.3955(3) 0.79386(17) 0.50618(14)
H14 H 0.3596 0.7407 0.4894
H15 H 0.3671 0.8304 0.4645
H16 H 0.3332 0.8097 0.5449
C16 C 1.1034(3) 0.63651(17) 0.65001(16)
H17 H 1.0512 0.6706 0.6824
H18 H 1.2032 0.6633 0.6360
H19 H 1.1435 0.5877 0.6761
C17 C 0.8801(3) 0.67592(15) 0.31860(14)
C18 C 0.8074(4) 0.70988(16) 0.24292(14)
H20 H 0.9039 0.7207 0.2176
H21 H 0.7447 0.7587 0.2482
H22 H 0.7265 0.6722 0.2140
C19 C 0.9665(3) 0.59487(16) 0.32468(15)
C20 C 0.8929(4) 0.89813(17) 0.40730(17)
H23 H 1.0038 0.8827 0.4394
H24 H 0.8978 0.9538 0.3947
H25 H 0.8738 0.8666 0.3621
C21 C 0.6286(4) 0.71758(16) 0.72396(15)
C22 C 0.5120(4) 0.73970(18) 0.77780(15)
H26 H 0.3949 0.7174 0.7608
H27 H 0.5033 0.7970 0.7803
H28 H 0.5629 0.7190 0.8269
C23 C 0.8896(3) 0.87915(15) 0.69274(15)
C24 C 1.0882(4) 0.87445(19) 0.71300(17)
H29 H 1.1291 0.8966 0.7623
H30 H 1.1387 0.9042 0.6770
H31 H 1.1249 0.8195 0.7127
H63 H 0.456(5) 0.701(2) 0.359(2)
O10 O -0.0352(2) 0.41656(10) -0.14597(9)
O11 O 0.0366(3) 0.49868(13) -0.23301(11)
O12 O 0.1634(2) 0.67935(11) 0.14317(10)
O13 O 0.4673(2) 0.59581(11) 0.13802(10)
O14 O 0.1273(2) 0.43503(11) 0.11248(10)
O15 O 0.5350(3) 0.33130(12) 0.07458(11)
O16 O 0.4060(2) 0.44168(10) -0.12379(9)
O17 O 0.3973(3) 0.37962(13) -0.23438(11)
O18 O 0.2938(3) 0.70553(11) 0.26175(10)
C25 C 0.2131(3) 0.40314(14) -0.03896(13)
C26 C 0.0742(3) 0.46172(15) -0.08407(14)
H32 H 0.1384 0.5037 -0.1056
C27 C -0.0586(3) 0.50148(15) -0.04284(14)
H33 H -0.0124 0.4982 0.0110
H34 H -0.1707 0.4722 -0.0538
C28 C -0.0947(3) 0.58971(16) -0.06489(14)
H35 H -0.1515 0.5926 -0.1178
H36 H -0.1774 0.6117 -0.0360
C29 C 0.0741(3) 0.64055(15) -0.05156(14)
C30 C 0.1801(3) 0.64874(15) 0.01608(14)
H37 H 0.2827 0.6795 0.0185
C31 C 0.1514(3) 0.61376(15) 0.08819(14)
H38 H 0.0334 0.5882 0.0809
C32 C 0.2964(3) 0.55495(16) 0.12400(14)
C33 C 0.2941(3) 0.46668(15) 0.10383(14)
H39 H 0.3860 0.4407 0.1419
C34 C 0.3454(3) 0.44986(15) 0.02453(13)
H40 H 0.3619 0.5026 0.0032
C35 C 0.5344(3) 0.41161(16) 0.04393(14)
C36 C 0.5861(4) 0.34379(17) 0.00278(15)
H41 H 0.7144 0.3392 0.0033
C37 C 0.4650(4) 0.31162(16) -0.06570(15)
H42 H 0.4100 0.2624 -0.0531
H43 H 0.5340 0.2993 -0.1037
C38 C 0.3209(3) 0.37191(15) -0.09675(15)
H44 H 0.2379 0.3477 -0.1393
C39 C 0.1192(4) 0.33006(15) -0.01245(15)
H45 H 0.0238 0.3479 0.0109
H46 H 0.2040 0.2999 0.0233
H47 H 0.0714 0.2968 -0.0550
C40 C 0.1194(4) 0.68083(17) -0.11918(15)
H48 H 0.0264 0.7181 -0.1397
H49 H 0.1298 0.6413 -0.1565
H50 H 0.2308 0.7089 -0.1047
C41 C 0.3727(3) 0.58543(15) 0.20024(14)
C42 C 0.4637(4) 0.54058(16) 0.26817(15)
H51 H 0.5275 0.4959 0.2530
H52 H 0.3761 0.5215 0.2953
H53 H 0.5464 0.5754 0.3000
C43 C 0.2765(3) 0.66203(15) 0.20770(15)
C44 C 0.6814(3) 0.46328(19) 0.08692(16)
H54 H 0.6571 0.4751 0.1357
H55 H 0.6876 0.5123 0.0599
H56 H 0.7934 0.4354 0.0926
C45 C -0.0452(3) 0.44206(16) -0.21747(14)
C46 C -0.1664(3) 0.39041(16) -0.27189(15)
H57 H -0.2672 0.3750 -0.2508
H58 H -0.1030 0.3434 -0.2822
H59 H -0.2074 0.4195 -0.3179
C47 C 0.4275(3) 0.43827(17) -0.19596(15)
C48 C 0.4928(4) 0.51639(18) -0.22031(16)
H60 H 0.4141 0.5586 -0.2114
H61 H 0.4950 0.5141 -0.2731
H62 H 0.6114 0.5267 -0.1921
H64 H 0.141(5) 0.416(2) 0.154(2)
loop_
_geom_bond_atom_site_label_1
_geom_bond_atom_site_label_2
_geom_bond_site_symmetry_1
_geom_bond_site_symmetry_2
O1 C2 1_555 1_555
O2 C21 1_555 1_555
O3 C7 1_555 1_555
O4 C8 1_555 1_555
O5 C9 1_555 1_555
O6 C11 1_555 1_555
O7 C14 1_555 1_555
O8 C23 1_555 1_555
O9 C19 1_555 1_555
O10 C26 1_555 1_555
O11 C45 1_555 1_555
O12 C31 1_555 1_555
O13 C32 1_555 1_555
O14 C33 1_555 1_555
O15 C35 1_555 1_555
O16 C38 1_555 1_555
O17 C47 1_555 1_555
O18 C43 1_555 1_555
C1 C2 1_555 1_555
C2 H1 1_555 1_555
C3 C2 1_555 1_555
H2 C3 1_555 1_555
H3 C3 1_555 1_555
C4 C3 1_555 1_555
H4 C4 1_555 1_555
H5 C4 1_555 1_555
C5 C4 1_555 1_555
C6 C5 1_555 1_555
H6 C6 1_555 1_555
C7 C6 1_555 1_555
H7 C7 1_555 1_555
C8 C7 1_555 1_555
C9 C8 1_555 1_555
H8 C9 1_555 1_555
C10 C1 1_555 1_555
H9 C10 1_555 1_555
C11 C10 1_555 1_555
C12 O6 1_555 1_555
H10 C12 1_555 1_555
C13 C12 1_555 1_555
H11 C13 1_555 1_555
H12 C13 1_555 1_555
C14 C1 1_555 1_555
H13 C14 1_555 1_555
C15 C1 1_555 1_555
H14 C15 1_555 1_555
H15 C15 1_555 1_555
H16 C15 1_555 1_555
C16 C5 1_555 1_555
H17 C16 1_555 1_555
H18 C16 1_555 1_555
H19 C16 1_555 1_555
C17 O4 1_555 1_555
C18 C17 1_555 1_555
H20 C18 1_555 1_555
H21 C18 1_555 1_555
H22 C18 1_555 1_555
C19 O3 1_555 1_555
C20 C11 1_555 1_555
H23 C20 1_555 1_555
H24 C20 1_555 1_555
H25 C20 1_555 1_555
C21 O1 1_555 1_555
C22 C21 1_555 1_555
H26 C22 1_555 1_555
H27 C22 1_555 1_555
H28 C22 1_555 1_555
C23 O7 1_555 1_555
C24 C23 1_555 1_555
H29 C24 1_555 1_555
H30 C24 1_555 1_555
H31 C24 1_555 1_555
C25 C26 1_555 1_555
C26 H32 1_555 1_555
C27 C26 1_555 1_555
H33 C27 1_555 1_555
H34 C27 1_555 1_555
C28 C27 1_555 1_555
H35 C28 1_555 1_555
H36 C28 1_555 1_555
C29 C28 1_555 1_555
C30 C29 1_555 1_555
H37 C30 1_555 1_555
C31 C30 1_555 1_555
H38 C31 1_555 1_555
C32 C31 1_555 1_555
C33 C32 1_555 1_555
H39 C33 1_555 1_555
C34 C25 1_555 1_555
H40 C34 1_555 1_555
C35 C34 1_555 1_555
C36 O15 1_555 1_555
H41 C36 1_555 1_555
C37 C36 1_555 1_555
H42 C37 1_555 1_555
H43 C37 1_555 1_555
C38 C25 1_555 1_555
H44 C38 1_555 1_555
C39 C25 1_555 1_555
H45 C39 1_555 1_555
H46 C39 1_555 1_555
H47 C39 1_555 1_555
C40 C29 1_555 1_555
H48 C40 1_555 1_555
H49 C40 1_555 1_555
H50 C40 1_555 1_555
C41 O13 1_555 1_555
C42 C41 1_555 1_555
H51 C42 1_555 1_555
H52 C42 1_555 1_555
H53 C42 1_555 1_555
C43 O12 1_555 1_555
C44 C35 1_555 1_555
H54 C44 1_555 1_555
H55 C44 1_555 1_555
H56 C44 1_555 1_555
C45 O10 1_555 1_555
C46 C45 1_555 1_555
H57 C46 1_555 1_555
H58 C46 1_555 1_555
H59 C46 1_555 1_555
C47 O16 1_555 1_555
C48 C47 1_555 1_555
H60 C48 1_555 1_555
H61 C48 1_555 1_555
H62 C48 1_555 1_555
H63 O5 1_555 1_555
H64 O14 1_555 1_555
C8 C17 1_555 1_555
C9 C10 1_555 1_555
C11 C12 1_555 1_555
C13 C14 1_555 1_555
C17 C19 1_555 1_555
C32 C41 1_555 1_555
C33 C34 1_555 1_555
C35 C36 1_555 1_555
C37 C38 1_555 1_555
C41 C43 1_555 1_555

#END
