
#######################################################################
#
#                 Cambridge Crystallographic Data Centre
#                                CCDC 
#
#######################################################################
#
# If this CIF has been generated from an entry in the Cambridge 
# Structural Database, then it will include bibliographic, chemical, 
# crystal, experimental, refinement or atomic coordinate data resulting 
# from the CCDC's data processing and validation procedures.
#
#######################################################################

data_UJENOM
_chemical_name_common            'Methyl 4-methoxycarbonyl-O-methylpodocarpate'
_chemical_formula_moiety         'C20 H26 O5'
_chemical_name_systematic        
'diethyl 4a-methyl-1,2,3,4,4a,9,10,10a-octahydro-6-methoxyphenanthrene-1,1 dicarboxylate'
_symmetry_cell_setting           triclinic
_symmetry_space_group_name_H-M   'P -1'
_symmetry_Int_Tables_number      2
_space_group_name_Hall           '-P 1'
loop_
_symmetry_equiv_pos_site_id
_symmetry_equiv_pos_as_xyz
1 x,y,z
2 -x,-y,-z
_cell_length_a                   7.759(14)
_cell_length_b                   10.826(17)
_cell_length_c                   11.748(18)
_cell_angle_alpha                104.507(10)
_cell_angle_beta                 91.068(10)
_cell_angle_gamma                106.091(10)
_cell_volume                     913.805
_cell_formula_units_Z            2
loop_
_atom_site_label
_atom_site_type_symbol
_atom_site_fract_x
_atom_site_fract_y
_atom_site_fract_z
C1 C 0.2005(3) 0.6198(2) -0.24167(16)
C2 C -0.0052(3) 0.5685(2) -0.27416(18)
H1 H -0.0298 0.5585 -0.3577
H2 H -0.0504 0.4810 -0.2603
C3 C -0.1058(3) 0.6598(3) -0.20459(18)
H3 H -0.2344 0.6182 -0.2238
H4 H -0.0747 0.7428 -0.2274
C4 C -0.0609(3) 0.6897(3) -0.07181(18)
H5 H -0.1047 0.6078 -0.0480
H6 H -0.1237 0.7515 -0.0313
C5 C 0.1426(3) 0.7498(2) -0.03286(16)
C6 C 0.2084(3) 0.8923(2) -0.0487(2)
H7 H 0.1494 0.9486 0.0023
H8 H 0.1802 0.8898 -0.1293
H9 H 0.3363 0.9269 -0.0290
C7 C 0.1795(3) 0.76088(19) 0.09928(16)
C8 C 0.0694(3) 0.8141(2) 0.17900(17)
H10 H -0.0247 0.8393 0.1506
C9 C 0.0982(3) 0.8296(2) 0.29867(17)
O1 O -0.0017(2) 0.88233(17) 0.38172(12)
C10 C -0.1350(4) 0.9331(3) 0.3442(2)
H11 H -0.0800 1.0034 0.3086
H12 H -0.1938 0.9675 0.4109
H13 H -0.2221 0.8631 0.2874
C11 C 0.2375(3) 0.7913(2) 0.34171(17)
H14 H 0.2567 0.8002 0.4221
C12 C 0.3459(3) 0.7406(2) 0.26454(18)
H15 H 0.4395 0.7156 0.2939
C13 C 0.3212(3) 0.7247(2) 0.14249(17)
C14 C 0.4474(3) 0.6687(3) 0.06354(18)
H16 H 0.4170 0.5733 0.0544
H17 H 0.5696 0.7086 0.1008
C15 C 0.4390(3) 0.6941(2) -0.05808(18)
H18 H 0.5033 0.6424 -0.1110
H19 H 0.4943 0.7878 -0.0523
C16 C 0.2408(2) 0.6529(2) -0.10517(15)
H20 H 0.1876 0.5682 -0.0859
C17 C 0.2693(3) 0.5012(2) -0.30080(17)
O2 O 0.3080(3) 0.42614(16) -0.25310(13)
O3 O 0.2678(2) 0.48674(16) -0.41725(12)
C18 C 0.3065(4) 0.3681(3) -0.4860(2)
H21 H 0.4196 0.3639 -0.4551
H22 H 0.3130 0.3710 -0.5668
H23 H 0.2126 0.2906 -0.4816
C19 C 0.2843(3) 0.7330(2) -0.29675(17)
O4 O 0.4633(2) 0.77340(16) -0.27485(14)
O5 O 0.2042(3) 0.78037(19) -0.35320(15)
C20 C 0.5584(5) 0.8857(3) -0.3162(3)
H24 H 0.5338 0.8648 -0.4004
H25 H 0.6855 0.9055 -0.2965
H26 H 0.5192 0.9617 -0.2794
loop_
_geom_bond_atom_site_label_1
_geom_bond_atom_site_label_2
_geom_bond_site_symmetry_1
_geom_bond_site_symmetry_2
C1 C2 1_555 1_555
C2 H1 1_555 1_555
H2 C2 1_555 1_555
C3 C2 1_555 1_555
H3 C3 1_555 1_555
H4 C3 1_555 1_555
C4 C3 1_555 1_555
H5 C4 1_555 1_555
H6 C4 1_555 1_555
C5 C4 1_555 1_555
C6 C5 1_555 1_555
H7 C6 1_555 1_555
H8 C6 1_555 1_555
H9 C6 1_555 1_555
C7 C5 1_555 1_555
C8 C7 1_555 1_555
H10 C8 1_555 1_555
C9 C8 1_555 1_555
O1 C9 1_555 1_555
C10 O1 1_555 1_555
H11 C10 1_555 1_555
H12 C10 1_555 1_555
H13 C10 1_555 1_555
C11 C9 1_555 1_555
H14 C11 1_555 1_555
C12 C11 1_555 1_555
H15 C12 1_555 1_555
C13 C7 1_555 1_555
C14 C13 1_555 1_555
H16 C14 1_555 1_555
H17 C14 1_555 1_555
C15 C14 1_555 1_555
H18 C15 1_555 1_555
H19 C15 1_555 1_555
C16 C1 1_555 1_555
H20 C16 1_555 1_555
C17 C1 1_555 1_555
O2 C17 1_555 1_555
O3 C17 1_555 1_555
C18 O3 1_555 1_555
H21 C18 1_555 1_555
H22 C18 1_555 1_555
H23 C18 1_555 1_555
C19 C1 1_555 1_555
O4 C19 1_555 1_555
O5 C19 1_555 1_555
C20 O4 1_555 1_555
H24 C20 1_555 1_555
H25 C20 1_555 1_555
H26 C20 1_555 1_555
C5 C16 1_555 1_555
C12 C13 1_555 1_555
C15 C16 1_555 1_555

#END
