
#######################################################################
#
#                 Cambridge Crystallographic Data Centre
#                                CCDC 
#
#######################################################################
#
# If this CIF has been generated from an entry in the Cambridge 
# Structural Database, then it will include bibliographic, chemical, 
# crystal, experimental, refinement or atomic coordinate data resulting 
# from the CCDC's data processing and validation procedures.
#
#######################################################################

data_UJENUS
_chemical_name_common            'Methyl (+-)-O-methylpodocarpate'
_chemical_formula_moiety         'C19 H26 O3'
_chemical_name_systematic        
'Methyl 1,4a-dimethyl-1,2,3,4,4a,9,10,10a-octahydro-6-methoxyphenanthrene-1 carboxylate'
_symmetry_cell_setting           monoclinic
_symmetry_space_group_name_H-M   'P 21/c'
_symmetry_Int_Tables_number      14
_space_group_name_Hall           '-P 2ybc'
loop_
_symmetry_equiv_pos_site_id
_symmetry_equiv_pos_as_xyz
1 x,y,z
2 x,1/2-y,1/2+z
3 -x,-y,-z
4 -x,1/2+y,1/2-z
_cell_length_a                   15.108(3)
_cell_length_b                   10.240(2)
_cell_length_c                   25.284(5)
_cell_angle_alpha                90
_cell_angle_beta                 123.50(3)
_cell_angle_gamma                90
_cell_volume                     3261.81
_exptl_crystal_colour            colorless
_exptl_crystal_description       cubic
_cell_formula_units_Z            8
loop_
_atom_site_label
_atom_site_type_symbol
_atom_site_fract_x
_atom_site_fract_y
_atom_site_fract_z
C1 C 0.0569(4) 0.6012(6) 0.8322(2)
H1 H 0.0277(4) 0.6885(6) 0.8255(2)
H2 H -0.0012(4) 0.5397(6) 0.8168(2)
C2 C 0.1362(4) 0.5794(6) 0.9036(2)
H3 H 0.1018(4) 0.5976(6) 0.9258(2)
H4 H 0.1588(4) 0.4889(6) 0.9112(2)
C3 C 0.2332(4) 0.6682(6) 0.9293(2)
H5 H 0.2832(4) 0.6488(6) 0.9739(2)
H6 H 0.2109(4) 0.7583(6) 0.9261(2)
C4 C 0.2897(4) 0.6535(5) 0.8946(2)
C5 C 0.2054(4) 0.6738(4) 0.8227(2)
H7 H 0.1775(4) 0.7615(4) 0.8201(2)
C6 C 0.2475(4) 0.6802(6) 0.7788(2)
H8 H 0.3148(4) 0.7262(6) 0.8000(2)
H9 H 0.2582(4) 0.5928(6) 0.7687(2)
C7 C 0.1657(5) 0.7520(6) 0.7188(3)
H10 H 0.1668(5) 0.8438(6) 0.7285(3)
H11 H 0.1852(5) 0.7450(6) 0.6882(3)
C8 C 0.0546(5) 0.7004(5) 0.6892(2)
C9 C -0.0212(5) 0.7275(5) 0.6272(2)
H12 H -0.0016(5) 0.7782(5) 0.6047(2)
C10 C -0.1242(5) 0.6848(6) 0.5959(2)
H13 H -0.1729(5) 0.7042(6) 0.5534(2)
C11 C -0.1524(4) 0.6122(6) 0.6300(2)
C12 C -0.0792(4) 0.5805(5) 0.6925(2)
H14 H -0.0997(4) 0.5294(5) 0.7144(2)
C13 C 0.0265(4) 0.6248(5) 0.7235(2)
C14 C 0.1067(4) 0.5846(5) 0.7929(2)
C15 C 0.3493(4) 0.5234(5) 0.9123(2)
C16 C 0.3743(4) 0.7615(5) 0.9196(3)
H15 H 0.3405(4) 0.8454(5) 0.9098(3)
H16 H 0.4132(4) 0.7534(5) 0.8999(3)
H17 H 0.4222(4) 0.7530(5) 0.9647(3)
C17 C 0.4562(6) 0.3919(7) 0.8939(3)
H18 H 0.4846(6) 0.3885(7) 0.8680(3)
H19 H 0.4128(6) 0.3163(7) 0.8857(3)
H20 H 0.5134(6) 0.3933(7) 0.9378(3)
C18 C -0.3359(5) 0.6097(6) 0.5445(3)
H21 H -0.4021(5) 0.5719(6) 0.5335(3)
H22 H -0.3200(5) 0.5828(6) 0.5142(3)
H23 H -0.3410(5) 0.7032(6) 0.5442(3)
C19 C 0.1337(5) 0.4385(4) 0.7925(2)
H24 H 0.1836(5) 0.4099(4) 0.8352(2)
H25 H 0.1641(5) 0.4280(4) 0.7680(2)
H26 H 0.0701(5) 0.3873(4) 0.7741(2)
O1 O 0.3636(3) 0.4531(4) 0.9532(2)
O2 O 0.3942(3) 0.5058(4) 0.8793(2)
O3 O -0.2539(3) 0.5670(4) 0.6059(2)
C20 C 0.5534(4) 0.6838(6) 0.8302(2)
H27 H 0.5252(4) 0.5957(6) 0.8220(2)
H28 H 0.4948(4) 0.7435(6) 0.8167(2)
C21 C 0.6322(5) 0.6997(7) 0.9005(2)
H29 H 0.6529(5) 0.7907(7) 0.9098(2)
H30 H 0.5985(5) 0.6757(7) 0.9226(2)
C22 C 0.7300(4) 0.6169(6) 0.9250(2)
H31 H 0.7105(4) 0.5256(6) 0.9218(2)
H32 H 0.7804(4) 0.6365(6) 0.9695(2)
C23 C 0.7833(4) 0.6376(5) 0.8897(2)
C24 C 0.7001(4) 0.6217(5) 0.8172(2)
H33 H 0.6731(4) 0.5327(5) 0.8131(2)
C25 C 0.7405(4) 0.6229(6) 0.7734(2)
H34 H 0.8089(4) 0.5797(6) 0.7939(2)
H35 H 0.7489(4) 0.7121(6) 0.7640(2)
C26 C 0.6590(4) 0.5508(6) 0.7116(2)
H36 H 0.6768(4) 0.5640(6) 0.6806(2)
H37 H 0.6626(4) 0.4579(6) 0.7201(2)
C27 C 0.5481(4) 0.5985(5) 0.6850(2)
C28 C 0.4694(4) 0.5714(5) 0.6214(2)
H38 H 0.4876(4) 0.5243(5) 0.5973(2)
C29 C 0.3661(4) 0.6123(5) 0.5935(2)
H39 H 0.3157(4) 0.5937(5) 0.5511(2)
C30 C 0.3377(4) 0.6808(5) 0.6287(2)
C31 C 0.4142(5) 0.7106(6) 0.6911(2)
H40 H 0.3946(5) 0.7586(6) 0.7143(2)
C32 C 0.5196(4) 0.6715(5) 0.7207(2)
C33 C 0.5997(4) 0.7091(5) 0.7901(2)
C34 C 0.8416(4) 0.7695(6) 0.9087(2)
C35 C 0.8734(5) 0.5347(6) 0.9122(3)
H41 H 0.9075(5) 0.5480(6) 0.8899(3)
H42 H 0.8437(5) 0.4484(6) 0.9036(3)
H43 H 0.9246(5) 0.5443(6) 0.9569(3)
C36 C 0.9360(6) 0.9221(7) 0.8876(3)
H44 H 0.9622(6) 0.9321(7) 0.8608(3)
H45 H 0.9944(6) 0.9249(7) 0.9312(3)
H46 H 0.8874(6) 0.9915(7) 0.8794(3)
C37 C 0.1543(5) 0.6917(7) 0.5441(2)
H47 H 0.0889(5) 0.7281(7) 0.5353(2)
H48 H 0.1480(5) 0.5983(7) 0.5401(2)
H49 H 0.1694(5) 0.7259(7) 0.5145(2)
C38 C 0.6237(5) 0.8559(5) 0.7909(2)
H50 H 0.6523(5) 0.8707(5) 0.7657(2)
H51 H 0.6744(5) 0.8832(5) 0.8338(2)
H52 H 0.5594(5) 0.9051(5) 0.7739(2)
O4 O 0.8531(4) 0.8380(4) 0.9505(2)
O5 O 0.8824(3) 0.7989(4) 0.8747(2)
O6 O 0.2372(3) 0.7249(4) 0.6062(2)
loop_
_geom_bond_atom_site_label_1
_geom_bond_atom_site_label_2
_geom_bond_site_symmetry_1
_geom_bond_site_symmetry_2
C1 H1 1_555 1_555
H2 C1 1_555 1_555
C2 C1 1_555 1_555
H3 C2 1_555 1_555
H4 C2 1_555 1_555
C3 C2 1_555 1_555
H5 C3 1_555 1_555
H6 C3 1_555 1_555
C4 C3 1_555 1_555
C5 C4 1_555 1_555
H7 C5 1_555 1_555
C6 C5 1_555 1_555
H8 C6 1_555 1_555
H9 C6 1_555 1_555
C7 C6 1_555 1_555
H10 C7 1_555 1_555
H11 C7 1_555 1_555
C8 C7 1_555 1_555
C9 C8 1_555 1_555
H12 C9 1_555 1_555
C10 C9 1_555 1_555
H13 C10 1_555 1_555
C11 C10 1_555 1_555
C12 C11 1_555 1_555
H14 C12 1_555 1_555
C13 C8 1_555 1_555
C14 C1 1_555 1_555
C15 C4 1_555 1_555
C16 C4 1_555 1_555
H15 C16 1_555 1_555
H16 C16 1_555 1_555
H17 C16 1_555 1_555
C17 H18 1_555 1_555
H19 C17 1_555 1_555
H20 C17 1_555 1_555
C18 H21 1_555 1_555
H22 C18 1_555 1_555
H23 C18 1_555 1_555
C19 C14 1_555 1_555
H24 C19 1_555 1_555
H25 C19 1_555 1_555
H26 C19 1_555 1_555
C20 H27 1_555 1_555
H28 C20 1_555 1_555
C21 C20 1_555 1_555
H29 C21 1_555 1_555
H30 C21 1_555 1_555
C22 C21 1_555 1_555
H31 C22 1_555 1_555
H32 C22 1_555 1_555
C23 C22 1_555 1_555
C24 C23 1_555 1_555
H33 C24 1_555 1_555
C25 C24 1_555 1_555
H34 C25 1_555 1_555
H35 C25 1_555 1_555
C26 C25 1_555 1_555
H36 C26 1_555 1_555
H37 C26 1_555 1_555
C27 C26 1_555 1_555
C28 C27 1_555 1_555
H38 C28 1_555 1_555
C29 C28 1_555 1_555
H39 C29 1_555 1_555
C30 C29 1_555 1_555
C31 C30 1_555 1_555
H40 C31 1_555 1_555
C32 C27 1_555 1_555
C33 C20 1_555 1_555
C34 C23 1_555 1_555
C35 C23 1_555 1_555
H41 C35 1_555 1_555
H42 C35 1_555 1_555
H43 C35 1_555 1_555
C36 H44 1_555 1_555
H45 C36 1_555 1_555
H46 C36 1_555 1_555
C37 H47 1_555 1_555
H48 C37 1_555 1_555
H49 C37 1_555 1_555
C38 C33 1_555 1_555
H50 C38 1_555 1_555
H51 C38 1_555 1_555
H52 C38 1_555 1_555
O1 C15 1_555 1_555
O2 C15 1_555 1_555
O3 C11 1_555 1_555
O4 C34 1_555 1_555
O5 C34 1_555 1_555
O6 C30 1_555 1_555
C5 C14 1_555 1_555
C12 C13 1_555 1_555
C13 C14 1_555 1_555
C17 O2 1_555 1_555
C18 O3 1_555 1_555
C24 C33 1_555 1_555
C31 C32 1_555 1_555
C32 C33 1_555 1_555
C36 O5 1_555 1_555
C37 O6 1_555 1_555

#END
