
#######################################################################
#
#                 Cambridge Crystallographic Data Centre
#                                CCDC 
#
#######################################################################
#
# If this CIF has been generated from an entry in the Cambridge 
# Structural Database, then it will include bibliographic, chemical, 
# crystal, experimental, refinement or atomic coordinate data resulting 
# from the CCDC's data processing and validation procedures.
#
#######################################################################

data_UJEPEE
_chemical_formula_moiety         'C30 H30 N16,C1 H2 Cl2'
_chemical_name_systematic        
'Pyrimidine-4,6-dicarboxaldehyde bis(methyl(6-(1-methyl-2-(2-pyridylmethylene)hydrazino)pyrimidin-4-yl)hydrazone) dichloromethane solvate'
_symmetry_cell_setting           monoclinic
_symmetry_space_group_name_H-M   'C 2/c'
_symmetry_Int_Tables_number      15
_space_group_name_Hall           '-C 2yn'
loop_
_symmetry_equiv_pos_site_id
_symmetry_equiv_pos_as_xyz
1 x,y,z
2 x,-y,1/2+z
3 1/2+x,1/2+y,z
4 1/2+x,1/2-y,1/2+z
5 -x,-y,-z
6 -x,y,1/2-z
7 1/2-x,1/2-y,-z
8 1/2-x,1/2+y,1/2-z
_cell_length_a                   31.6897(5)
_cell_length_b                   10.4646(2)
_cell_length_c                   25.5977(4)
_cell_angle_alpha                90
_cell_angle_beta                 126.951(5)
_cell_angle_gamma                90
_cell_volume                     6783.75
_exptl_crystal_colour            yellow
_exptl_crystal_description       prism
_cell_formula_units_Z            8
_exptl_crystal_recrystallization_method dichloromethane/acetonitrile
loop_
_atom_site_label
_atom_site_type_symbol
_atom_site_fract_x
_atom_site_fract_y
_atom_site_fract_z
C1 C 0.9180(1) -0.0664(4) 0.3763(1)
N1 N 0.9699(1) -0.0798(4) 0.4061(1)
C2 C 0.9850(1) -0.0931(6) 0.3678(2)
C3 C 0.9517(1) -0.0931(5) 0.3012(2)
C4 C 0.8989(1) -0.0800(4) 0.2715(1)
C5 C 0.8819(1) -0.0657(4) 0.3090(1)
C6 C 0.9033(1) -0.0531(4) 0.4202(1)
N2 N 0.85394(8) -0.0497(3) 0.3956(1)
N3 N 0.84034(9) -0.0408(3) 0.4369(1)
C7 C 0.8800(1) -0.0254(4) 0.5069(1)
C8 C 0.7867(1) -0.0306(3) 0.4076(1)
N4 N 0.77358(9) -0.0374(3) 0.4489(1)
C9 C 0.7223(1) -0.0255(4) 0.4203(1)
N5 N 0.68300(9) -0.0034(3) 0.3579(1)
C10 C 0.6980(1) 0.0045(3) 0.3185(1)
C11 C 0.7496(1) -0.0146(3) 0.3410(1)
N6 N 0.65791(8) 0.0382(3) 0.2539(1)
C12 C 0.6036(1) 0.0577(4) 0.2305(1)
N7 N 0.67310(8) 0.0596(3) 0.2150(1)
C13 C 0.6379(1) 0.0910(3) 0.1550(1)
C14 C 0.6526(1) 0.1120(3) 0.1114(1)
N8 N 0.61096(9) 0.1150(3) 0.0472(1)
C15 C 0.6232(1) 0.1282(4) 0.0060(1)
N9 N 0.67078(9) 0.1390(3) 0.0197(1)
C16 C 0.7115(1) 0.1400(3) 0.0843(1)
C17 C 0.7039(1) 0.1266(3) 0.1318(1)
C18 C 0.7632(1) 0.1557(4) 0.0983(1)
N10 N 0.80418(8) 0.1739(3) 0.1574(1)
N11 N 0.85183(8) 0.1870(3) 0.1689(1)
C19 C 0.8578(1) 0.1719(5) 0.1174(1)
C20 C 0.8941(1) 0.2184(4) 0.2329(1)
N12 N 0.94114(9) 0.2272(4) 0.2432(1)
C21 C 0.9817(1) 0.2508(5) 0.3049(2)
N13 N 0.98258(9) 0.2660(4) 0.3567(1)
C22 C 0.9345(1) 0.2593(3) 0.3439(1)
C23 C 0.8883(1) 0.2361(3) 0.2817(1)
N14 N 0.93401(8) 0.2779(3) 0.3970(1)
C24 C 0.9815(1) 0.3007(5) 0.4631(2)
N15 N 0.88547(8) 0.2780(3) 0.3834(1)
C25 C 0.8818(1) 0.2940(3) 0.4302(1)
C26 C 0.8294(1) 0.2982(3) 0.4149(1)
N16 N 0.82902(9) 0.3054(3) 0.4671(1)
C27 C 0.7817(1) 0.3097(4) 0.4556(2)
C28 C 0.7348(1) 0.3069(4) 0.3948(2)
C29 C 0.7354(1) 0.3001(4) 0.3413(2)
C30 C 0.7830(1) 0.2962(3) 0.3513(1)
H1 H 1.0216 -0.1033 0.3884
H2 H 0.9647 -0.1019 0.2763
H3 H 0.8744 -0.0807 0.2252
H4 H 0.8453 -0.0554 0.2889
H5 H 0.9296 -0.0469 0.4661
H6 H 0.8632 -0.0210 0.5276
H7 H 0.9034 -0.0962 0.5237
H8 H 0.8992 0.0511 0.5153
H9 H 0.7122 -0.0339 0.4484
H10 H 0.7591 -0.0166 0.3121
H11 H 0.6007 0.0379 0.2645
H12 H 0.5939 0.1443 0.2177
H13 H 0.5808 0.0035 0.1941
H14 H 0.6022 0.1007 0.1389
H15 H 0.5941 0.1302 -0.0391
H16 H 0.7328 0.1274 0.1769
H17 H 0.7665 0.1525 0.0638
H18 H 0.8938 0.1846 0.1349
H19 H 0.8472 0.0882 0.0997
H20 H 0.8365 0.2329 0.0840
H21 H 1.0150 0.2578 0.3128
H22 H 0.8548 0.2327 0.2732
H23 H 0.9722 0.3108 0.4919
H24 H 1.0048 0.2300 0.4769
H25 H 0.9985 0.3760 0.4636
H26 H 0.9126 0.3028 0.4740
H27 H 0.7809 0.3149 0.4921
H28 H 0.7023 0.3096 0.3892
H29 H 0.7033 0.2981 0.2983
H30 H 0.7843 0.2921 0.3152
C31 C 0.9064(1) -0.3725(5) 0.1205(2)
Cl1 Cl 0.96751(6) -0.4262(2) 0.1531(1)
Cl2 Cl 0.90524(4) -0.2144(2) 0.14245(5)
H31 H 0.8911 -0.4261 0.1349
H32 H 0.8861 -0.3770 0.0742
loop_
_geom_bond_atom_site_label_1
_geom_bond_atom_site_label_2
_geom_bond_site_symmetry_1
_geom_bond_site_symmetry_2
C1 N1 1_555 1_555
N1 C2 1_555 1_555
C2 C3 1_555 1_555
C3 C4 1_555 1_555
C4 C5 1_555 1_555
C5 C1 1_555 1_555
C6 C1 1_555 1_555
N2 C6 1_555 1_555
N3 N2 1_555 1_555
C7 N3 1_555 1_555
C8 N3 1_555 1_555
N4 C8 1_555 1_555
C9 N4 1_555 1_555
N5 C9 1_555 1_555
C10 N5 1_555 1_555
C11 C8 1_555 1_555
N6 C10 1_555 1_555
C12 N6 1_555 1_555
N7 N6 1_555 1_555
C13 N7 1_555 1_555
C14 C13 1_555 1_555
N8 C14 1_555 1_555
C15 N8 1_555 1_555
N9 C15 1_555 1_555
C16 N9 1_555 1_555
C17 C14 1_555 1_555
C18 C16 1_555 1_555
N10 C18 1_555 1_555
N11 N10 1_555 1_555
C19 N11 1_555 1_555
C20 N11 1_555 1_555
N12 C20 1_555 1_555
C21 N12 1_555 1_555
N13 C21 1_555 1_555
C22 N13 1_555 1_555
C23 C20 1_555 1_555
N14 C22 1_555 1_555
C24 N14 1_555 1_555
N15 N14 1_555 1_555
C25 N15 1_555 1_555
C26 C25 1_555 1_555
N16 C26 1_555 1_555
C27 N16 1_555 1_555
C28 C27 1_555 1_555
C29 C28 1_555 1_555
C30 C26 1_555 1_555
C31 Cl1 1_555 1_555
Cl2 C31 1_555 1_555
H1 C2 1_555 1_555
H2 C3 1_555 1_555
H3 C4 1_555 1_555
H4 C5 1_555 1_555
H5 C6 1_555 1_555
H6 C7 1_555 1_555
H7 C7 1_555 1_555
H8 C7 1_555 1_555
H9 C9 1_555 1_555
H10 C11 1_555 1_555
H11 C12 1_555 1_555
H12 C12 1_555 1_555
H13 C12 1_555 1_555
H14 C13 1_555 1_555
H15 C15 1_555 1_555
H16 C17 1_555 1_555
H17 C18 1_555 1_555
H18 C19 1_555 1_555
H19 C19 1_555 1_555
H20 C19 1_555 1_555
H21 C21 1_555 1_555
H22 C23 1_555 1_555
H23 C24 1_555 1_555
H24 C24 1_555 1_555
H25 C24 1_555 1_555
H26 C25 1_555 1_555
H27 C27 1_555 1_555
H28 C28 1_555 1_555
H29 C29 1_555 1_555
H30 C30 1_555 1_555
H31 C31 1_555 1_555
H32 C31 1_555 1_555
C10 C11 1_555 1_555
C16 C17 1_555 1_555
C22 C23 1_555 1_555
C29 C30 1_555 1_555

#END
