
#######################################################################
#
#                 Cambridge Crystallographic Data Centre
#                                CCDC 
#
#######################################################################
#
# If this CIF has been generated from an entry in the Cambridge 
# Structural Database, then it will include bibliographic, chemical, 
# crystal, experimental, refinement or atomic coordinate data resulting 
# from the CCDC's data processing and validation procedures.
#
#######################################################################

data_UJEPAC
_chemical_formula_moiety         'C13 H17 B1 N4 O2'
_chemical_name_systematic        
1-(4-(4,4,5,5-Tetramethyl-1,3,2-dioxaborolan-2-yl)phenyl)-1H-tetrazole
_symmetry_cell_setting           monoclinic
_symmetry_space_group_name_H-M   'P 21/c'
_symmetry_Int_Tables_number      14
_space_group_name_Hall           '-P 2ybc'
loop_
_symmetry_equiv_pos_site_id
_symmetry_equiv_pos_as_xyz
1 x,y,z
2 -x,1/2+y,1/2-z
3 -x,-y,-z
4 x,1/2-y,1/2+z
_cell_length_a                   17.6880(11)
_cell_length_b                   6.9800(8)
_cell_length_c                   11.9076(9)
_cell_angle_alpha                90
_cell_angle_beta                 108.949(5)
_cell_angle_gamma                90
_cell_volume                     1390.47
_exptl_crystal_colour            colorless
_exptl_crystal_description       prism
_cell_formula_units_Z            4
_exptl_crystal_recrystallization_method 'n-hexane/ dichloromethane'
loop_
_atom_site_label
_atom_site_type_symbol
_atom_site_fract_x
_atom_site_fract_y
_atom_site_fract_z
C1 C 0.86623(11) 0.4438(4) 0.58593(19)
C2 C 0.88464(14) 0.6560(4) 0.5855(2)
H1 H 0.8384 0.7302 0.5891
H2 H 0.8962 0.6882 0.5127
H3 H 0.9312 0.6866 0.6546
C3 C 0.93733(12) 0.3264(4) 0.5802(2)
H4 H 0.9248 0.1897 0.5804
H5 H 0.9841 0.3560 0.6492
H6 H 0.9489 0.3579 0.5072
C4 C 0.83233(11) 0.3818(4) 0.68700(19)
C5 C 0.85917(14) 0.5042(5) 0.7975(2)
H7 H 0.8503 0.6396 0.7753
H8 H 0.9162 0.4824 0.8390
H9 H 0.8284 0.4699 0.8498
C6 C 0.84452(13) 0.1709(4) 0.7175(2)
H10 H 0.8264 0.0949 0.6444
H11 H 0.8137 0.1352 0.7694
H12 H 0.9014 0.1462 0.7583
C7 C 0.64648(11) 0.4004(3) 0.41570(18)
C8 C 0.57812(11) 0.3688(3) 0.44767(18)
H13 H 0.5839 0.3483 0.5289
C9 C 0.50220(11) 0.3664(3) 0.36463(18)
H14 H 0.4566 0.3433 0.3881
C10 C 0.49433(11) 0.3985(3) 0.24669(18)
C11 C 0.56077(11) 0.4295(3) 0.21071(18)
H15 H 0.5547 0.4503 0.1294
C12 C 0.63557(11) 0.4296(3) 0.29548(18)
H16 H 0.6811 0.4501 0.2713
C13 C 0.34377(11) 0.4286(3) 0.1679(2)
H17 H 0.3332 0.4518 0.2400
B1 B 0.73146(13) 0.4051(4) 0.5100(2)
N1 N 0.41652(9) 0.3997(3) 0.15905(14)
N2 N 0.40704(10) 0.3731(3) 0.04282(15)
N3 N 0.33102(10) 0.3847(3) -0.01370(16)
N4 N 0.28939(10) 0.4201(3) 0.06256(17)
O1 O 0.79932(7) 0.4067(2) 0.47887(12)
O2 O 0.74575(7) 0.4094(2) 0.62962(12)
loop_
_geom_bond_atom_site_label_1
_geom_bond_atom_site_label_2
_geom_bond_site_symmetry_1
_geom_bond_site_symmetry_2
C1 C2 1_555 1_555
C2 H1 1_555 1_555
H2 C2 1_555 1_555
H3 C2 1_555 1_555
C3 C1 1_555 1_555
H4 C3 1_555 1_555
H5 C3 1_555 1_555
H6 C3 1_555 1_555
C4 C1 1_555 1_555
C5 C4 1_555 1_555
H7 C5 1_555 1_555
H8 C5 1_555 1_555
H9 C5 1_555 1_555
C6 C4 1_555 1_555
H10 C6 1_555 1_555
H11 C6 1_555 1_555
H12 C6 1_555 1_555
C7 C8 1_555 1_555
C8 H13 1_555 1_555
C9 C8 1_555 1_555
H14 C9 1_555 1_555
C10 C9 1_555 1_555
C11 C10 1_555 1_555
H15 C11 1_555 1_555
C12 C7 1_555 1_555
H16 C12 1_555 1_555
C13 H17 1_555 1_555
B1 C7 1_555 1_555
N1 C10 1_555 1_555
N2 N1 1_555 1_555
N3 N2 1_555 1_555
N4 C13 1_555 1_555
O1 C1 1_555 1_555
O2 C4 1_555 1_555
C11 C12 1_555 1_555
C13 N1 1_555 1_555
B1 O1 1_555 1_555
B1 O2 1_555 1_555
N3 N4 1_555 1_555

#END
