
#######################################################################
#
#                 Cambridge Crystallographic Data Centre
#                                CCDC 
#
#######################################################################
#
# If this CIF has been generated from an entry in the Cambridge 
# Structural Database, then it will include bibliographic, chemical, 
# crystal, experimental, refinement or atomic coordinate data resulting 
# from the CCDC's data processing and validation procedures.
#
#######################################################################

data_UJEQIJ
_chemical_formula_moiety         'C48 H42 N16'
_chemical_name_systematic        
'2-Phenylpyrimidine-4,6-dicarboxaldehyde bis(methyl(6-(1-methyl-2-(2-pyridylmethylene)hydrazino)-2-phenylpyrimidin-4-yl)hydrazone)'
_symmetry_cell_setting           orthorhombic
_symmetry_space_group_name_H-M   'P b c a'
_symmetry_Int_Tables_number      61
_space_group_name_Hall           '-P 2ac 2ab'
loop_
_symmetry_equiv_pos_site_id
_symmetry_equiv_pos_as_xyz
1 x,y,z
2 1/2+x,y,1/2-z
3 x,1/2-y,1/2+z
4 1/2-x,1/2+y,z
5 -x,-y,-z
6 1/2-x,-y,1/2+z
7 -x,1/2+y,1/2-z
8 1/2+x,1/2-y,-z
_cell_length_a                   8.5901(1)
_cell_length_b                   23.3589(2)
_cell_length_c                   42.3853(4)
_cell_angle_alpha                90
_cell_angle_beta                 90
_cell_angle_gamma                90
_cell_volume                     8504.83
_exptl_crystal_colour            yellow
_exptl_crystal_description       prism
_cell_formula_units_Z            8
_exptl_crystal_recrystallization_method chloroform/methanol
loop_
_atom_site_label
_atom_site_type_symbol
_atom_site_fract_x
_atom_site_fract_y
_atom_site_fract_z
C1 C 1.2102(3) -0.0967(1) 0.09865(6)
N1 N 1.2939(3) -0.14156(9) 0.10928(6)
C2 C 1.2579(4) -0.1602(1) 0.13857(7)
C3 C 1.1452(4) -0.1394(1) 0.15696(7)
C4 C 1.0599(4) -0.0938(1) 0.14568(7)
C5 C 1.0905(3) -0.0717(1) 0.11654(6)
C6 C 1.2526(3) -0.0765(1) 0.06727(6)
N2 N 1.1862(2) -0.03126(8) 0.05663(5)
N3 N 1.2203(2) -0.01083(8) 0.02723(5)
C7 C 1.3234(3) -0.0409(1) 0.00602(6)
C8 C 1.1459(3) 0.04024(9) 0.01978(6)
N4 N 1.1803(2) 0.06307(8) -0.00886(4)
C9 C 1.1055(3) 0.11138(9) -0.01581(6)
N5 N 1.0009(2) 0.13883(8) 0.00231(4)
C10 C 0.9748(3) 0.1162(1) 0.03102(5)
C11 C 1.0437(3) 0.0660(1) 0.04094(5)
C12 C 1.1441(3) 0.13986(9) -0.04598(5)
C13 C 1.2872(3) 0.1315(1) -0.06025(6)
C14 C 1.3229(3) 0.1596(1) -0.08834(7)
C15 C 1.2159(3) 0.1948(1) -0.10226(6)
C16 C 1.0732(3) 0.2038(1) -0.08837(6)
C17 C 1.0374(3) 0.1767(1) -0.06035(6)
N6 N 0.8717(2) 0.14686(8) 0.04992(4)
C18 C 0.7927(3) 0.1978(1) 0.03873(6)
N7 N 0.8599(2) 0.12887(8) 0.08031(4)
C19 C 0.7671(3) 0.1563(1) 0.09889(5)
C20 C 0.7493(3) 0.13750(9) 0.13162(5)
N8 N 0.6183(2) 0.15735(8) 0.14582(4)
C21 C 0.5878(3) 0.13707(9) 0.17477(5)
N9 N 0.6809(2) 0.10227(8) 0.19155(5)
C22 C 0.8152(3) 0.08579(9) 0.17779(5)
C23 C 0.8519(3) 0.1019(1) 0.14737(5)
C24 C 0.4364(3) 0.15376(9) 0.18925(5)
C25 C 0.3389(3) 0.1922(1) 0.17470(6)
C26 C 0.1929(3) 0.2046(1) 0.18763(7)
C27 C 0.1456(3) 0.1782(1) 0.21518(6)
C28 C 0.2442(3) 0.1408(1) 0.23015(5)
C29 C 0.3881(3) 0.1283(1) 0.21713(6)
C30 C 0.9162(3) 0.0501(1) 0.19766(6)
N10 N 1.0502(2) 0.03589(8) 0.18706(4)
N11 N 1.1449(2) 0.00210(8) 0.20459(5)
C31 C 1.0982(3) -0.0219(1) 0.23417(6)
C32 C 1.2852(3) -0.01308(9) 0.18949(5)
N12 N 1.3651(2) -0.05588(8) 0.20280(5)
C33 C 1.4898(3) -0.0736(1) 0.18667(5)
N13 N 1.5444(2) -0.05115(8) 0.15979(5)
C34 C 1.4634(3) -0.00692(9) 0.14795(5)
C35 C 1.3315(2) 0.0147(1) 0.16245(6)
C36 C 1.5732(3) -0.1245(1) 0.19903(6)
C37 C 1.5276(3) -0.1518(1) 0.22668(6)
C38 C 1.6047(3) -0.1997(1) 0.23759(6)
C39 C 1.7274(3) -0.2225(1) 0.22068(6)
C40 C 1.7718(3) -0.1973(1) 0.19277(7)
C41 C 1.6974(3) -0.1481(1) 0.18224(7)
N14 N 1.5170(2) 0.01616(8) 0.11976(5)
C42 C 1.6458(3) -0.0082(1) 0.10192(7)
N15 N 1.4317(2) 0.06056(8) 0.10815(5)
C43 C 1.4630(3) 0.0818(1) 0.08120(6)
C44 C 1.3749(3) 0.1320(1) 0.07041(6)
N16 N 1.4082(3) 0.1485(1) 0.04062(5)
C45 C 1.3313(4) 0.1941(1) 0.02950(7)
C46 C 1.2241(4) 0.2252(1) 0.04688(8)
C47 C 1.1923(3) 0.2081(1) 0.07757(8)
C48 C 1.2689(3) 0.1602(1) 0.08939(7)
H1 H 1.3182 -0.1909 0.1468
H2 H 1.1245 -0.1554 0.1771
H3 H 0.9795 -0.0777 0.1582
H4 H 1.0325 -0.0402 0.1086
H5 H 1.3277 -0.0964 0.0550
H6 H 1.3324 -0.0200 -0.0131
H7 H 1.4231 -0.0445 0.0155
H8 H 1.2824 -0.0778 0.0017
H9 H 1.0227 0.0499 0.0611
H10 H 1.3613 0.1066 -0.0509
H11 H 1.4220 0.1542 -0.0979
H12 H 1.2402 0.2133 -0.1216
H13 H 0.9995 0.2285 -0.0980
H14 H 0.9391 0.1833 -0.0507
H15 H 0.8151 0.2033 0.0170
H16 H 0.6836 0.1935 0.0415
H17 H 0.8278 0.2301 0.0504
H18 H 0.7107 0.1885 0.0913
H19 H 0.9449 0.0890 0.1375
H20 H 0.3708 0.2104 0.1557
H21 H 0.1261 0.2312 0.1774
H22 H 0.0455 0.1859 0.2237
H23 H 0.2137 0.1235 0.2495
H24 H 0.4547 0.1018 0.2275
H25 H 0.8828 0.0379 0.2179
H26 H 1.1810 -0.0441 0.2426
H27 H 1.0730 0.0081 0.2484
H28 H 1.0095 -0.0455 0.2311
H29 H 1.2764 0.0467 0.1543
H30 H 1.4418 -0.1372 0.2383
H31 H 1.5732 -0.2171 0.2568
H32 H 1.7807 -0.2554 0.2283
H33 H 1.8535 -0.2137 0.1807
H34 H 1.7315 -0.1303 0.1633
H35 H 1.6634 0.0140 0.0835
H36 H 1.7371 -0.0082 0.1146
H37 H 1.6211 -0.0464 0.0960
H38 H 1.5419 0.0655 0.0683
H39 H 1.3514 0.2059 0.0084
H40 H 1.1733 0.2575 0.0380
H41 H 1.1201 0.2287 0.0902
H42 H 1.2486 0.1471 0.1102
loop_
_geom_bond_atom_site_label_1
_geom_bond_atom_site_label_2
_geom_bond_site_symmetry_1
_geom_bond_site_symmetry_2
C1 N1 1_555 1_555
N1 C2 1_555 1_555
C2 C3 1_555 1_555
C3 C4 1_555 1_555
C4 C5 1_555 1_555
C5 C1 1_555 1_555
C6 C1 1_555 1_555
N2 C6 1_555 1_555
N3 N2 1_555 1_555
C7 N3 1_555 1_555
C8 N3 1_555 1_555
N4 C8 1_555 1_555
C9 N4 1_555 1_555
N5 C9 1_555 1_555
C10 N5 1_555 1_555
C11 C8 1_555 1_555
C12 C9 1_555 1_555
C13 C12 1_555 1_555
C14 C13 1_555 1_555
C15 C14 1_555 1_555
C16 C15 1_555 1_555
C17 C12 1_555 1_555
N6 C10 1_555 1_555
C18 N6 1_555 1_555
N7 N6 1_555 1_555
C19 N7 1_555 1_555
C20 C19 1_555 1_555
N8 C20 1_555 1_555
C21 N8 1_555 1_555
N9 C21 1_555 1_555
C22 N9 1_555 1_555
C23 C20 1_555 1_555
C24 C21 1_555 1_555
C25 C24 1_555 1_555
C26 C25 1_555 1_555
C27 C26 1_555 1_555
C28 C27 1_555 1_555
C29 C24 1_555 1_555
C30 C22 1_555 1_555
N10 C30 1_555 1_555
N11 N10 1_555 1_555
C31 N11 1_555 1_555
C32 N11 1_555 1_555
N12 C32 1_555 1_555
C33 N12 1_555 1_555
N13 C33 1_555 1_555
C34 N13 1_555 1_555
C35 C32 1_555 1_555
C36 C33 1_555 1_555
C37 C36 1_555 1_555
C38 C37 1_555 1_555
C39 C38 1_555 1_555
C40 C39 1_555 1_555
C41 C36 1_555 1_555
N14 C34 1_555 1_555
C42 N14 1_555 1_555
N15 N14 1_555 1_555
C43 N15 1_555 1_555
C44 C43 1_555 1_555
N16 C44 1_555 1_555
C45 N16 1_555 1_555
C46 C45 1_555 1_555
C47 C46 1_555 1_555
C48 C44 1_555 1_555
H1 C2 1_555 1_555
H2 C3 1_555 1_555
H3 C4 1_555 1_555
H4 C5 1_555 1_555
H5 C6 1_555 1_555
H6 C7 1_555 1_555
H7 C7 1_555 1_555
H8 C7 1_555 1_555
H9 C11 1_555 1_555
H10 C13 1_555 1_555
H11 C14 1_555 1_555
H12 C15 1_555 1_555
H13 C16 1_555 1_555
H14 C17 1_555 1_555
H15 C18 1_555 1_555
H16 C18 1_555 1_555
H17 C18 1_555 1_555
H18 C19 1_555 1_555
H19 C23 1_555 1_555
H20 C25 1_555 1_555
H21 C26 1_555 1_555
H22 C27 1_555 1_555
H23 C28 1_555 1_555
H24 C29 1_555 1_555
H25 C30 1_555 1_555
H26 C31 1_555 1_555
H27 C31 1_555 1_555
H28 C31 1_555 1_555
H29 C35 1_555 1_555
H30 C37 1_555 1_555
H31 C38 1_555 1_555
H32 C39 1_555 1_555
H33 C40 1_555 1_555
H34 C41 1_555 1_555
H35 C42 1_555 1_555
H36 C42 1_555 1_555
H37 C42 1_555 1_555
H38 C43 1_555 1_555
H39 C45 1_555 1_555
H40 C46 1_555 1_555
H41 C47 1_555 1_555
H42 C48 1_555 1_555
C10 C11 1_555 1_555
C16 C17 1_555 1_555
C22 C23 1_555 1_555
C28 C29 1_555 1_555
C34 C35 1_555 1_555
C40 C41 1_555 1_555
C47 C48 1_555 1_555

#END
