
#######################################################################
#
#                 Cambridge Crystallographic Data Centre
#                                CCDC 
#
#######################################################################
#
# If this CIF has been generated from an entry in the Cambridge 
# Structural Database, then it will include bibliographic, chemical, 
# crystal, experimental, refinement or atomic coordinate data resulting 
# from the CCDC's data processing and validation procedures.
#
#######################################################################

data_UJEQEF
_chemical_formula_moiety         'C24 H22 N8'
_chemical_name_systematic        
'bis(Pyridine-2-carboxaldehyde) dimethyl(2-phenylpyrimidine-4,6-diyl)dihydrazone'
_symmetry_cell_setting           orthorhombic
_symmetry_space_group_name_H-M   'P b c a'
_symmetry_Int_Tables_number      61
_space_group_name_Hall           '-P 2ac 2ab'
loop_
_symmetry_equiv_pos_site_id
_symmetry_equiv_pos_as_xyz
1 x,y,z
2 1/2+x,y,1/2-z
3 x,1/2-y,1/2+z
4 1/2-x,1/2+y,z
5 -x,-y,-z
6 1/2-x,-y,1/2+z
7 -x,1/2+y,1/2-z
8 1/2+x,1/2-y,-z
_cell_length_a                   7.8112(1)
_cell_length_b                   24.7505(3)
_cell_length_c                   21.8993(4)
_cell_angle_alpha                90
_cell_angle_beta                 90
_cell_angle_gamma                90
_cell_volume                     4233.82
_exptl_crystal_colour            colorless
_exptl_crystal_description       prism
_cell_formula_units_Z            8
_exptl_crystal_recrystallization_method chloroform/methanol
loop_
_atom_site_label
_atom_site_type_symbol
_atom_site_fract_x
_atom_site_fract_y
_atom_site_fract_z
C1 C 0.3055(4) 0.3210(1) 0.1769(1)
C2 C 0.2193(4) 0.3692(1) 0.1507(1)
C3 C 0.1079(4) 0.4002(1) 0.1859(1)
C4 C 0.0185(4) 0.4431(1) 0.1598(1)
C5 C 0.0445(4) 0.4563(1) 0.0993(1)
C6 C 0.1594(5) 0.4266(1) 0.0644(1)
C7 C 0.2439(4) 0.3828(1) 0.0895(1)
N1 N 0.3100(3) 0.31727(9) 0.2381(1)
C8 C 0.3873(4) 0.2731(1) 0.2602(1)
N2 N 0.3958(3) 0.26926(9) 0.3237(1)
C9 C 0.3185(4) 0.3087(1) 0.3645(1)
N3 N 0.4794(3) 0.22503(9) 0.3451(1)
C10 C 0.4925(4) 0.2171(1) 0.4026(1)
C11 C 0.5814(4) 0.1685(1) 0.4242(1)
N4 N 0.5726(3) 0.1602(1) 0.4848(1)
C12 C 0.6500(5) 0.1156(1) 0.5063(1)
C13 C 0.7352(5) 0.0787(1) 0.4705(2)
C14 C 0.7433(4) 0.0881(1) 0.4081(1)
C15 C 0.6667(4) 0.1334(1) 0.3846(1)
N5 N 0.3707(3) 0.28561(9) 0.1369(1)
C16 C 0.4463(4) 0.2419(1) 0.1610(1)
C17 C 0.4570(4) 0.2331(1) 0.2234(1)
N6 N 0.5150(3) 0.20539(9) 0.1190(1)
C18 C 0.5010(4) 0.2131(1) 0.0535(1)
N7 N 0.5999(3) 0.16278(9) 0.1439(1)
C19 C 0.6649(4) 0.1268(1) 0.1084(1)
C20 C 0.7658(4) 0.0829(1) 0.1351(1)
C21 C 0.8118(4) 0.0826(1) 0.1967(1)
C22 C 0.9137(5) 0.0411(2) 0.2180(2)
C23 C 0.9660(5) 0.0013(1) 0.1777(2)
C24 C 0.9151(5) 0.0048(1) 0.1184(2)
N8 N 0.8150(3) 0.0444(1) 0.0959(1)
H1 H 0.0929 0.3921 0.2280
H2 H -0.0604 0.4633 0.1837
H3 H -0.0162 0.4856 0.0815
H4 H 0.1801 0.4364 0.0231
H5 H 0.3190 0.3619 0.0649
H6 H 0.3392 0.2985 0.4056
H7 H 0.3670 0.3433 0.3570
H8 H 0.1986 0.3101 0.3573
H9 H 0.4455 0.2422 0.4308
H10 H 0.6455 0.1090 0.5490
H11 H 0.7871 0.0477 0.4880
H12 H 0.8011 0.0635 0.3820
H13 H 0.6716 0.1408 0.3421
H14 H 0.5090 0.2016 0.2399
H15 H 0.5557 0.1840 0.0330
H16 H 0.3836 0.2142 0.0423
H17 H 0.5545 0.2462 0.0424
H18 H 0.6478 0.1286 0.0655
H19 H 0.7737 0.1103 0.2234
H20 H 0.9474 0.0399 0.2596
H21 H 1.0357 -0.0278 0.1912
H22 H 0.9529 -0.0224 0.0910
loop_
_geom_bond_atom_site_label_1
_geom_bond_atom_site_label_2
_geom_bond_site_symmetry_1
_geom_bond_site_symmetry_2
C1 C2 1_555 1_555
C2 C3 1_555 1_555
C3 C4 1_555 1_555
C4 C5 1_555 1_555
C5 C6 1_555 1_555
C6 C7 1_555 1_555
C7 C2 1_555 1_555
N1 C1 1_555 1_555
C8 N1 1_555 1_555
N2 C8 1_555 1_555
C9 N2 1_555 1_555
N3 N2 1_555 1_555
C10 N3 1_555 1_555
C11 C10 1_555 1_555
N4 C11 1_555 1_555
C12 N4 1_555 1_555
C13 C12 1_555 1_555
C14 C13 1_555 1_555
C15 C11 1_555 1_555
N5 C1 1_555 1_555
C16 N5 1_555 1_555
C17 C8 1_555 1_555
N6 C16 1_555 1_555
C18 N6 1_555 1_555
N7 N6 1_555 1_555
C19 N7 1_555 1_555
C20 C19 1_555 1_555
C21 C20 1_555 1_555
C22 C21 1_555 1_555
C23 C22 1_555 1_555
C24 C23 1_555 1_555
N8 C20 1_555 1_555
H1 C3 1_555 1_555
H2 C4 1_555 1_555
H3 C5 1_555 1_555
H4 C6 1_555 1_555
H5 C7 1_555 1_555
H6 C9 1_555 1_555
H7 C9 1_555 1_555
H8 C9 1_555 1_555
H9 C10 1_555 1_555
H10 C12 1_555 1_555
H11 C13 1_555 1_555
H12 C14 1_555 1_555
H13 C15 1_555 1_555
H14 C17 1_555 1_555
H15 C18 1_555 1_555
H16 C18 1_555 1_555
H17 C18 1_555 1_555
H18 C19 1_555 1_555
H19 C21 1_555 1_555
H20 C22 1_555 1_555
H21 C23 1_555 1_555
H22 C24 1_555 1_555
C14 C15 1_555 1_555
C16 C17 1_555 1_555
C24 N8 1_555 1_555

#END
