
#######################################################################
#
#                 Cambridge Crystallographic Data Centre
#                                CCDC 
#
#######################################################################
#
# If this CIF has been generated from an entry in the Cambridge 
# Structural Database, then it will include bibliographic, chemical, 
# crystal, experimental, refinement or atomic coordinate data resulting 
# from the CCDC's data processing and validation procedures.
#
#######################################################################

data_UJEWIR
_chemical_formula_moiety         'C15 H17 N1 O3'
_chemical_name_systematic        
5-Hydroxy-1',5-dimethyl-3H-spiro[cyclohexane-1,3'-indole]-2',3(1'H)-dione
_symmetry_cell_setting           triclinic
_symmetry_space_group_name_H-M   'P 1'
_symmetry_Int_Tables_number      1
_space_group_name_Hall           'P 1'
loop_
_symmetry_equiv_pos_site_id
_symmetry_equiv_pos_as_xyz
1 x,y,z
_cell_length_a                   5.9370(3)
_cell_length_b                   5.9425(3)
_cell_length_c                   10.0505(7)
_cell_angle_alpha                105.428(4)
_cell_angle_beta                 101.284(4)
_cell_angle_gamma                99.757(3)
_cell_volume                     325.87
_exptl_crystal_colour            colorless
_exptl_crystal_description       block
_cell_formula_units_Z            1
loop_
_atom_site_label
_atom_site_type_symbol
_atom_site_fract_x
_atom_site_fract_y
_atom_site_fract_z
N1 N 0.6834(5) -0.2678(6) 0.2548(4)
O1 O 0.4627(5) -0.3507(6) 0.6969(4)
O2 O 1.0248(5) 0.0313(6) 0.7151(3)
H1 H 0.9792 -0.0906 0.6425
O3 O 0.8327(5) -0.3320(5) 0.4661(3)
C1 C 0.7538(6) 0.1926(7) 0.5663(4)
H2 H 0.8889 0.2388 0.5271
H3 H 0.6695 0.3240 0.5768
C2 C 0.8513(6) 0.1745(7) 0.7145(4)
C3 C 0.6517(7) 0.0689(8) 0.7730(4)
H4 H 0.7207 0.0405 0.8633
H5 H 0.5525 0.1856 0.7938
C4 C 0.4995(7) -0.1647(7) 0.6671(4)
C5 C 0.3973(6) -0.1474(7) 0.5226(4)
H6 H 0.2794 -0.0483 0.5304
H7 H 0.3138 -0.3101 0.4580
C6 C 0.5838(6) -0.0374(7) 0.4559(4)
C7 C 0.7171(6) -0.2293(7) 0.3977(4)
C8 C 0.4692(6) 0.0079(7) 0.3211(4)
C9 C 0.3172(7) 0.1553(8) 0.2981(5)
H8 H 0.2713 0.2514 0.3753
C10 C 0.2331(9) 0.1593(9) 0.1588(5)
H9 H 0.1300 0.2601 0.1413
C11 C 0.2990(8) 0.0175(8) 0.0459(5)
H10 H 0.2385 0.0211 -0.0481
C12 C 0.4511(7) -0.1289(8) 0.0677(4)
H11 H 0.4969 -0.2247 -0.0097
C13 C 0.5346(6) -0.1314(7) 0.2061(4)
C14 C 0.7881(8) -0.4326(9) 0.1660(5)
H12 H 0.9184 -0.3413 0.1411
H13 H 0.6684 -0.5311 0.0787
H14 H 0.8485 -0.5367 0.2182
C15 C 0.9846(7) 0.4234(8) 0.8148(4)
H15 H 1.0277 0.4169 0.9127
H16 H 0.8836 0.5370 0.8100
H17 H 1.1281 0.4763 0.7862
loop_
_geom_bond_atom_site_label_1
_geom_bond_atom_site_label_2
_geom_bond_site_symmetry_1
_geom_bond_site_symmetry_2
N1 C7 1_555 1_555
O1 C4 1_555 1_555
O2 H1 1_555 1_555
O3 C7 1_555 1_555
C1 H2 1_555 1_555
H3 C1 1_555 1_555
C2 O2 1_555 1_555
C3 C2 1_555 1_555
H4 C3 1_555 1_555
H5 C3 1_555 1_555
C4 C3 1_555 1_555
C5 C4 1_555 1_555
H6 C5 1_555 1_555
H7 C5 1_555 1_555
C6 C1 1_555 1_555
C7 C6 1_555 1_555
C8 C6 1_555 1_555
C9 C8 1_555 1_555
H8 C9 1_555 1_555
C10 C9 1_555 1_555
H9 C10 1_555 1_555
C11 C10 1_555 1_555
H10 C11 1_555 1_555
C12 C11 1_555 1_555
H11 C12 1_555 1_555
C13 N1 1_555 1_555
C14 N1 1_555 1_555
H12 C14 1_555 1_555
H13 C14 1_555 1_555
H14 C14 1_555 1_555
C15 C2 1_555 1_555
H15 C15 1_555 1_555
H16 C15 1_555 1_555
H17 C15 1_555 1_555
C1 C2 1_555 1_555
C5 C6 1_555 1_555
C8 C13 1_555 1_555
C12 C13 1_555 1_555

#END
