
#######################################################################
#
#                 Cambridge Crystallographic Data Centre
#                                CCDC 
#
#######################################################################
#
# If this CIF has been generated from an entry in the Cambridge 
# Structural Database, then it will include bibliographic, chemical, 
# crystal, experimental, refinement or atomic coordinate data resulting 
# from the CCDC's data processing and validation procedures.
#
#######################################################################

data_UJEXOW
_chemical_formula_moiety         'C23 H20 O8'
_chemical_name_systematic        
4-Acetoxy-6,7-dimethoxy-9-(3,4-(methylenedioxy)phenyl)-1,3,3a,4-tetrahydronaptho[2,3-c]furan-1-one
_symmetry_cell_setting           monoclinic
_symmetry_space_group_name_H-M   'P 21/c'
_symmetry_Int_Tables_number      14
_space_group_name_Hall           '-P 2ybc'
loop_
_symmetry_equiv_pos_site_id
_symmetry_equiv_pos_as_xyz
1 x,y,z
2 -x,1/2+y,1/2-z
3 -x,-y,-z
4 x,1/2-y,1/2+z
_cell_length_a                   11.2554(8)
_cell_length_b                   24.3001(14)
_cell_length_c                   7.6694(4)
_cell_angle_alpha                90
_cell_angle_beta                 109.076(3)
_cell_angle_gamma                90
_cell_volume                     1982.45
_exptl_crystal_colour            colorless
_chemical_melting_point          152deg.C
_cell_formula_units_Z            4
_exptl_crystal_recrystallization_method benzene
loop_
_atom_site_label
_atom_site_type_symbol
_atom_site_fract_x
_atom_site_fract_y
_atom_site_fract_z
O1 O 0.9441(3) 0.42327(16) 1.6394(4)
O2 O 1.1237(3) 0.44061(15) 1.5617(5)
O3 O 0.6989(3) 0.52003(14) 0.9589(5)
O4 O 0.5125(3) 0.51052(13) 0.7386(4)
O5 O 0.3345(3) 0.34629(12) 0.5864(3)
O6 O 0.2165(3) 0.31896(14) 0.7577(4)
O7 O 0.5527(3) 0.16856(12) 0.8638(4)
O8 O 0.7694(3) 0.19436(12) 1.0980(4)
C1 C 0.8042(4) 0.40719(18) 1.3187(5)
H1 H 0.7325 0.3981 1.3525
C2 C 0.9170(4) 0.42006(18) 1.4489(5)
C3 C 1.0763(5) 0.4357(2) 1.7158(7)
H2 H 1.0890 0.4706 1.7861
H3 H 1.1209 0.4060 1.8000
C4 C 1.0226(4) 0.43189(19) 1.4028(6)
C5 C 1.0207(4) 0.4324(2) 1.2230(7)
H4 H 1.0938 0.4404 1.1914
C6 C 0.9051(4) 0.4206(2) 1.0885(6)
H5 H 0.8993 0.4212 0.9621
C7 C 0.7990(4) 0.40808(17) 1.1343(6)
C8 C 0.6797(4) 0.39247(17) 0.9850(5)
C9 C 0.6077(4) 0.42957(19) 0.8660(6)
C10 C 0.6186(5) 0.4897(2) 0.8668(6)
C11 C 0.4212(4) 0.46743(19) 0.6648(6)
H6 H 0.3796 0.4724 0.5305
H7 H 0.3562 0.4676 0.7260
C12 C 0.4956(4) 0.41357(19) 0.7041(6)
H8 H 0.5236 0.4041 0.5967
C13 C 0.4314(4) 0.36505(18) 0.7528(5)
H9 H 0.3907 0.3767 0.8448
C14 C 0.5246(4) 0.31997(17) 0.8362(5)
C15 C 0.4935(4) 0.26497(18) 0.8059(5)
H10 H 0.4126 0.2555 0.7240
C16 C 0.5757(4) 0.22325(18) 0.8903(5)
C17 C 0.6944(4) 0.23737(18) 1.0190(5)
C18 C 0.7248(4) 0.29236(18) 1.0496(5)
H11 H 0.8043 0.3021 1.1351
C19 C 0.6429(4) 0.33420(17) 0.9593(5)
C20 C 0.4350(4) 0.15328(19) 0.7320(5)
H12 H 0.4288 0.1131 0.7244
H13 H 0.4292 0.1683 0.6109
H14 H 0.3663 0.1680 0.7703
C21 C 0.8901(4) 0.2071(2) 1.2272(6)
H15 H 0.9351 0.1728 1.2749
H16 H 0.8796 0.2284 1.3295
H17 H 0.9385 0.2286 1.1658
C22 C 0.2319(4) 0.32347(18) 0.6098(6)
C23 C 0.1441(4) 0.3026(2) 0.4314(6)
H18 H 0.1777 0.3112 0.3318
H19 H 0.0618 0.3202 0.4062
H20 H 0.1350 0.2626 0.4390
loop_
_geom_bond_atom_site_label_1
_geom_bond_atom_site_label_2
_geom_bond_site_symmetry_1
_geom_bond_site_symmetry_2
O1 C2 1_555 1_555
O2 C3 1_555 1_555
O3 C10 1_555 1_555
O4 C10 1_555 1_555
O5 C13 1_555 1_555
O6 C22 1_555 1_555
O7 C16 1_555 1_555
O8 C17 1_555 1_555
C1 H1 1_555 1_555
C2 C1 1_555 1_555
C3 O1 1_555 1_555
H2 C3 1_555 1_555
H3 C3 1_555 1_555
C4 O2 1_555 1_555
C5 C4 1_555 1_555
H4 C5 1_555 1_555
C6 C5 1_555 1_555
H5 C6 1_555 1_555
C7 C1 1_555 1_555
C8 C7 1_555 1_555
C9 C8 1_555 1_555
C10 C9 1_555 1_555
C11 O4 1_555 1_555
H6 C11 1_555 1_555
H7 C11 1_555 1_555
C12 C9 1_555 1_555
H8 C12 1_555 1_555
C13 C12 1_555 1_555
H9 C13 1_555 1_555
C14 C13 1_555 1_555
C15 C14 1_555 1_555
H10 C15 1_555 1_555
C16 C15 1_555 1_555
C17 C16 1_555 1_555
C18 C17 1_555 1_555
H11 C18 1_555 1_555
C19 C8 1_555 1_555
C20 O7 1_555 1_555
H12 C20 1_555 1_555
H13 C20 1_555 1_555
H14 C20 1_555 1_555
C21 O8 1_555 1_555
H15 C21 1_555 1_555
H16 C21 1_555 1_555
H17 C21 1_555 1_555
C22 O5 1_555 1_555
C23 C22 1_555 1_555
H18 C23 1_555 1_555
H19 C23 1_555 1_555
H20 C23 1_555 1_555
C2 C4 1_555 1_555
C6 C7 1_555 1_555
C11 C12 1_555 1_555
C14 C19 1_555 1_555
C18 C19 1_555 1_555

#END
