
#######################################################################
#
#                 Cambridge Crystallographic Data Centre
#                                CCDC 
#
#######################################################################
#
# If this CIF has been generated from an entry in the Cambridge 
# Structural Database, then it will include bibliographic, chemical, 
# crystal, experimental, refinement or atomic coordinate data resulting 
# from the CCDC's data processing and validation procedures.
#
#######################################################################

data_UJIHUS
_chemical_formula_moiety         'C24 H25 N3 O2'
_chemical_name_systematic        
4-(3,5-dimethylbenzyl)-N-(3-(3,5-dimethylphenyl)prop-2-yn-1-yl)-3-nitro-1H-pyrrol-2-amine
_symmetry_cell_setting           triclinic
_symmetry_space_group_name_H-M   'P -1'
_symmetry_Int_Tables_number      2
_space_group_name_Hall           '-P 1'
loop_
_symmetry_equiv_pos_site_id
_symmetry_equiv_pos_as_xyz
1 x,y,z
2 -x,-y,-z
_cell_length_a                   7.1591(17)
_cell_length_b                   10.085(2)
_cell_length_c                   14.807(4)
_cell_angle_alpha                91.497(4)
_cell_angle_beta                 98.577(4)
_cell_angle_gamma                105.775(4)
_cell_volume                     1014.79
_exptl_crystal_colour            yellow
_exptl_crystal_description       block
_cell_formula_units_Z            2
loop_
_atom_site_label
_atom_site_type_symbol
_atom_site_fract_x
_atom_site_fract_y
_atom_site_fract_z
O1 O 0.4792(3) 1.14227(17) 0.87045(13)
O2 O 0.5139(3) 0.93921(17) 0.90307(13)
N1 N -0.1002(3) 0.9721(2) 0.88130(16)
H1 H -0.219(4) 0.995(3) 0.880(2)
N2 N 0.1167(3) 1.1850(2) 0.85485(15)
H2 H 0.2401 1.2334 0.8577
N3 N 0.4067(3) 1.0188(2) 0.88847(15)
C1 C 0.0792(4) 1.0528(2) 0.87398(17)
C2 C 0.2103(4) 0.9717(2) 0.89175(17)
C3 C 0.1016(4) 0.8351(2) 0.91233(18)
C4 C -0.0860(4) 0.8410(2) 0.90505(18)
H3 H -0.1937 0.7666 0.9147
C5 C 0.1787(4) 0.7161(2) 0.93953(18)
H4 H 0.0748 0.6473 0.9641
H5 H 0.2914 0.7495 0.9899
C6 C 0.2446(4) 0.6439(2) 0.86467(18)
C7 C 0.1463(4) 0.6234(2) 0.77515(18)
H6 H 0.0395 0.6618 0.7588
C8 C 0.2007(4) 0.5478(2) 0.70866(19)
C9 C 0.3597(4) 0.4947(3) 0.7340(2)
H7 H 0.3968 0.4414 0.6897
C10 C 0.4652(4) 0.5173(2) 0.8217(2)
C11 C 0.4047(4) 0.5902(2) 0.88670(19)
H8 H 0.4737 0.6039 0.9477
C12 C 0.6431(4) 0.4646(3) 0.8444(2)
H9 H 0.6183 0.3739 0.8121
H10 H 0.6697 0.4563 0.9105
H11 H 0.7570 0.5294 0.8253
C13 C 0.0926(4) 0.5273(3) 0.6126(2)
H12 H 0.1300 0.6134 0.5820
H13 H -0.0494 0.5010 0.6133
H14 H 0.1263 0.4540 0.5793
C14 C -0.0367(4) 1.2531(3) 0.82949(18)
H15 H 0.0216 1.3542 0.8411
H16 H -0.1376 1.2242 0.8695
C15 C -0.1327(4) 1.2236(2) 0.7341(2)
C16 C -0.2083(4) 1.2050(3) 0.6555(2)
C17 C -0.2965(4) 1.1867(3) 0.56072(19)
C18 C -0.4471(4) 1.2469(3) 0.5294(2)
H17 H -0.4903 1.3008 0.5711
C19 C -0.5333(4) 1.2282(3) 0.4378(2)
C20 C -0.4668(4) 1.1504(3) 0.3790(2)
H18 H -0.5243 1.1382 0.3162
C21 C -0.3180(4) 1.0889(3) 0.4083(2)
C22 C -0.2341(4) 1.1081(3) 0.49948(19)
H19 H -0.1324 1.0670 0.5206
C23 C -0.2507(5) 1.0042(3) 0.3424(2)
H20 H -0.1691 1.0653 0.3043
H21 H -0.3653 0.9421 0.3033
H22 H -0.1735 0.9495 0.3764
C24 C -0.6972(5) 1.2904(4) 0.4043(3)
H23 H -0.7184 1.2865 0.3372
H24 H -0.6619 1.3869 0.4286
H25 H -0.8180 1.2385 0.4252
loop_
_geom_bond_atom_site_label_1
_geom_bond_atom_site_label_2
_geom_bond_site_symmetry_1
_geom_bond_site_symmetry_2
O1 N3 1_555 1_555
O2 N3 1_555 1_555
N1 H1 1_555 1_555
N2 H2 1_555 1_555
N3 C2 1_555 1_555
C1 N1 1_555 1_555
C2 C1 1_555 1_555
C3 C2 1_555 1_555
C4 N1 1_555 1_555
H3 C4 1_555 1_555
C5 C3 1_555 1_555
H4 C5 1_555 1_555
H5 C5 1_555 1_555
C6 C5 1_555 1_555
C7 C6 1_555 1_555
H6 C7 1_555 1_555
C8 C7 1_555 1_555
C9 C8 1_555 1_555
H7 C9 1_555 1_555
C10 C9 1_555 1_555
C11 C6 1_555 1_555
H8 C11 1_555 1_555
C12 C10 1_555 1_555
H9 C12 1_555 1_555
H10 C12 1_555 1_555
H11 C12 1_555 1_555
C13 C8 1_555 1_555
H12 C13 1_555 1_555
H13 C13 1_555 1_555
H14 C13 1_555 1_555
C14 N2 1_555 1_555
H15 C14 1_555 1_555
H16 C14 1_555 1_555
C15 C14 1_555 1_555
C16 C15 1_555 1_555
C17 C16 1_555 1_555
C18 C17 1_555 1_555
H17 C18 1_555 1_555
C19 C18 1_555 1_555
C20 C19 1_555 1_555
H18 C20 1_555 1_555
C21 C20 1_555 1_555
C22 C17 1_555 1_555
H19 C22 1_555 1_555
C23 C21 1_555 1_555
H20 C23 1_555 1_555
H21 C23 1_555 1_555
H22 C23 1_555 1_555
C24 C19 1_555 1_555
H23 C24 1_555 1_555
H24 C24 1_555 1_555
H25 C24 1_555 1_555
N2 C1 1_555 1_555
C3 C4 1_555 1_555
C10 C11 1_555 1_555
C21 C22 1_555 1_555

#END
