
#######################################################################
#
#                 Cambridge Crystallographic Data Centre
#                                CCDC 
#
#######################################################################
#
# If this CIF has been generated from an entry in the Cambridge 
# Structural Database, then it will include bibliographic, chemical, 
# crystal, experimental, refinement or atomic coordinate data resulting 
# from the CCDC's data processing and validation procedures.
#
#######################################################################

data_UJIHOM
_chemical_formula_moiety         'C24 H23 N3 O1'
_chemical_name_systematic        
6-(3,5-dimethylbenzyl)-3-(3,5-dimethylphenyl)-4H-imidazo[1',2':1,2]pyrrolo[3,4-c][1,2]oxazole
_symmetry_cell_setting           monoclinic
_symmetry_space_group_name_H-M   'C 2/c'
_symmetry_Int_Tables_number      15
_space_group_name_Hall           '-C 2yn'
loop_
_symmetry_equiv_pos_site_id
_symmetry_equiv_pos_as_xyz
1 x,y,z
2 -x,y,1/2-z
3 1/2+x,1/2+y,z
4 1/2-x,1/2+y,1/2-z
5 -x,-y,-z
6 x,-y,1/2+z
7 1/2-x,1/2-y,-z
8 1/2+x,1/2-y,1/2+z
_cell_length_a                   34.037(6)
_cell_length_b                   8.0572(13)
_cell_length_c                   14.117(2)
_cell_angle_alpha                90
_cell_angle_beta                 94.811(4)
_cell_angle_gamma                90
_cell_volume                     3857.85
_exptl_crystal_colour            'greyish white'
_exptl_crystal_description       prismatic
_chemical_melting_point          '471-471.7 K'
_cell_formula_units_Z            8
loop_
_atom_site_label
_atom_site_type_symbol
_atom_site_fract_x
_atom_site_fract_y
_atom_site_fract_z
N1 N 0.07206(5) 0.0155(2) 0.35037(11)
N2 N 0.12354(4) 0.07651(17) 0.57603(9)
N3 N 0.15933(5) -0.06738(19) 0.48063(11)
O1 O 0.03437(4) 0.08925(17) 0.35376(8)
C1 C 0.03089(5) 0.1566(2) 0.44153(12)
C2 C 0.08868(5) 0.0415(2) 0.43559(12)
C3 C 0.06480(5) 0.1289(2) 0.49488(11)
C4 C 0.08608(5) 0.1567(2) 0.59122(11)
H1 H 0.0894 0.2738 0.6056
H2 H 0.0728 0.1029 0.6412
C5 C 0.12571(5) 0.0063(2) 0.48880(12)
C6 C 0.17936(6) -0.0425(2) 0.56753(14)
H3 H 0.2048 -0.0812 0.5835
C7 C 0.15819(5) 0.0451(2) 0.62834(12)
C8 C 0.16779(6) 0.1055(2) 0.72640(12)
H4 H 0.1882 0.0354 0.7572
H5 H 0.1446 0.0948 0.7614
C9 C 0.18167(5) 0.2841(2) 0.73193(11)
C10 C 0.17377(5) 0.3820(2) 0.80786(12)
H6 H 0.1589 0.3390 0.8546
C11 C 0.18748(6) 0.5431(2) 0.81586(13)
C12 C 0.20967(6) 0.6039(2) 0.74638(14)
H7 H 0.2191 0.7122 0.7514
C13 C 0.21829(5) 0.5090(2) 0.66979(13)
C14 C 0.20379(5) 0.3495(2) 0.66368(12)
H8 H 0.2091 0.2840 0.6120
C15 C 0.17711(9) 0.6514(3) 0.89686(17)
H9 H 0.1994 0.7184 0.9180
H10 H 0.1699 0.5829 0.9483
H11 H 0.1553 0.7218 0.8759
C16 C 0.24179(7) 0.5777(3) 0.59373(16)
H12 H 0.2242 0.6136 0.5409
H13 H 0.2590 0.4933 0.5730
H14 H 0.2572 0.6703 0.6185
C17 C -0.00615(5) 0.2343(2) 0.45829(12)
C18 C -0.03694(6) 0.2467(2) 0.38751(13)
H15 H -0.0337 0.2060 0.3270
C19 C -0.07223(6) 0.3187(2) 0.40588(14)
C20 C -0.07596(6) 0.3778(3) 0.49638(16)
H16 H -0.0997 0.4268 0.5093
C21 C -0.04624(6) 0.3676(3) 0.56834(15)
C22 C -0.01128(6) 0.2955(3) 0.54758(13)
H17 H 0.0093 0.2879 0.5949
C23 C -0.10612(6) 0.3299(3) 0.33161(15)
H18 H -0.1296 0.2903 0.3573
H19 H -0.1007 0.2632 0.2778
H20 H -0.1098 0.4433 0.3120
C24 C -0.05188(8) 0.4287(4) 0.66670(17)
H21 H -0.0435 0.3447 0.7122
H22 H -0.0793 0.4531 0.6715
H23 H -0.0365 0.5275 0.6793
loop_
_geom_bond_atom_site_label_1
_geom_bond_atom_site_label_2
_geom_bond_site_symmetry_1
_geom_bond_site_symmetry_2
N1 O1 1_555 1_555
N2 C4 1_555 1_555
N3 C5 1_555 1_555
O1 C1 1_555 1_555
C1 C3 1_555 1_555
C2 N1 1_555 1_555
C3 C2 1_555 1_555
C4 C3 1_555 1_555
H1 C4 1_555 1_555
H2 C4 1_555 1_555
C5 N2 1_555 1_555
C6 N3 1_555 1_555
H3 C6 1_555 1_555
C7 N2 1_555 1_555
C8 C7 1_555 1_555
H4 C8 1_555 1_555
H5 C8 1_555 1_555
C9 C8 1_555 1_555
C10 C9 1_555 1_555
H6 C10 1_555 1_555
C11 C10 1_555 1_555
C12 C11 1_555 1_555
H7 C12 1_555 1_555
C13 C12 1_555 1_555
C14 C9 1_555 1_555
H8 C14 1_555 1_555
C15 C11 1_555 1_555
H9 C15 1_555 1_555
H10 C15 1_555 1_555
H11 C15 1_555 1_555
C16 C13 1_555 1_555
H12 C16 1_555 1_555
H13 C16 1_555 1_555
H14 C16 1_555 1_555
C17 C1 1_555 1_555
C18 C17 1_555 1_555
H15 C18 1_555 1_555
C19 C18 1_555 1_555
C20 C19 1_555 1_555
H16 C20 1_555 1_555
C21 C20 1_555 1_555
C22 C17 1_555 1_555
H17 C22 1_555 1_555
C23 C19 1_555 1_555
H18 C23 1_555 1_555
H19 C23 1_555 1_555
H20 C23 1_555 1_555
C24 C21 1_555 1_555
H21 C24 1_555 1_555
H22 C24 1_555 1_555
H23 C24 1_555 1_555
C2 C5 1_555 1_555
C6 C7 1_555 1_555
C13 C14 1_555 1_555
C21 C22 1_555 1_555

#END
