
#######################################################################
#
#                 Cambridge Crystallographic Data Centre
#                                CCDC 
#
#######################################################################
#
# If this CIF has been generated from an entry in the Cambridge 
# Structural Database, then it will include bibliographic, chemical, 
# crystal, experimental, refinement or atomic coordinate data resulting 
# from the CCDC's data processing and validation procedures.
#
#######################################################################

data_UJIKUV
_chemical_formula_moiety         'C41 H32 N2 O1'
_chemical_name_systematic        
1,1-Dimethyl-3-(5,6,7,8-tetraphenyl-9-phenanthryl)urea
_symmetry_cell_setting           monoclinic
_symmetry_space_group_name_H-M   'P 21/c'
_symmetry_Int_Tables_number      14
_space_group_name_Hall           '-P 2ybc'
loop_
_symmetry_equiv_pos_site_id
_symmetry_equiv_pos_as_xyz
1 x,y,z
2 -x,1/2+y,1/2-z
3 -x,-y,-z
4 x,1/2-y,1/2+z
_cell_length_a                   17.751(4)
_cell_length_b                   6.9635(16)
_cell_length_c                   26.097(5)
_cell_angle_alpha                90
_cell_angle_beta                 107.904(6)
_cell_angle_gamma                90
_cell_volume                     3069.61
_exptl_crystal_colour            colorless
_exptl_crystal_description       needle
_cell_formula_units_Z            4
loop_
_atom_site_label
_atom_site_type_symbol
_atom_site_fract_x
_atom_site_fract_y
_atom_site_fract_z
O1 O 0.13247(12) 0.6119(3) 0.24946(7)
N1 N 0.11467(11) 0.4011(3) 0.18003(7)
H1 H 0.1033 0.2849 0.1693
N2 N 0.10141(13) 0.3027(3) 0.26104(8)
C1 C 0.13015(13) 0.5359(3) 0.14395(8)
C2 C 0.19176(13) 0.4987(3) 0.11936(8)
C3 C 0.18942(13) 0.6064(3) 0.07265(8)
C4 C 0.14447(13) 0.7863(3) 0.06207(8)
C5 C 0.09237(13) 0.8274(3) 0.09213(9)
C6 C 0.08340(13) 0.6907(4) 0.13005(9)
H2 H 0.0436 0.7091 0.1459
C7 C 0.15445(13) 0.9315(3) 0.02727(9)
H3 H 0.189 0.9106 0.0073
C8 C 0.11464(14) 1.1035(4) 0.02184(10)
H4 H 0.1233 1.1974 -0.0011
C9 C 0.06164(15) 1.1377(4) 0.05031(10)
H5 H 0.0339 1.253 0.0459
C10 C 0.05048(14) 1.0020(4) 0.08454(9)
H6 H 0.0145 1.0248 0.1033
C11 C 0.25196(13) 0.3576(3) 0.13886(8)
C12 C 0.30185(13) 0.3100(3) 0.10897(9)
C13 C 0.28933(13) 0.3903(3) 0.05737(9)
C14 C 0.23342(13) 0.5366(3) 0.03888(8)
C15 C 0.26825(13) 0.2691(4) 0.19343(9)
C16 C 0.29719(14) 0.3831(4) 0.23876(9)
H7 H 0.305 0.5136 0.2347
C17 C 0.31452(17) 0.3065(6) 0.28961(11)
H8 H 0.3342 0.3852 0.3195
C18 C 0.30306(19) 0.1159(6) 0.29645(13)
H9 H 0.3147 0.0648 0.3309
C19 C 0.27407(18) -0.0010(5) 0.25198(13)
H10 H 0.2661 -0.1311 0.2565
C20 C 0.25694(15) 0.0757(4) 0.20075(11)
H11 H 0.2376 -0.0037 0.1709
C21 C 0.36597(14) 0.1643(4) 0.13091(9)
C22 C 0.43254(15) 0.2105(4) 0.17301(10)
H12 H 0.4391 0.3343 0.187
C23 C 0.48983(17) 0.0712(6) 0.19443(12)
H13 H 0.5349 0.1032 0.2225
C24 C 0.48081(19) -0.1107(5) 0.17488(14)
H14 H 0.5192 -0.2028 0.1898
C25 C 0.41549(18) -0.1582(5) 0.13337(13)
H15 H 0.4091 -0.2829 0.1199
C26 C 0.35874(15) -0.0208(4) 0.11133(10)
H16 H 0.3147 -0.0538 0.0826
C27 C 0.33707(15) 0.3168(3) 0.02314(9)
C28 C 0.41833(16) 0.3431(4) 0.03914(12)
H17 H 0.4434 0.4061 0.0713
C29 C 0.4624(2) 0.2750(5) 0.00707(16)
H18 H 0.517 0.291 0.0182
C30 C 0.4258(3) 0.1847(5) -0.04068(16)
H19 H 0.4553 0.1419 -0.0623
C31 C 0.3457(2) 0.1578(4) -0.05630(12)
H20 H 0.3209 0.095 -0.0885
C32 C 0.30165(17) 0.2226(4) -0.02488(10)
H21 H 0.2472 0.203 -0.036
C33 C 0.21313(15) 0.5993(3) -0.01854(9)
C34 C 0.13562(17) 0.5760(4) -0.05202(10)
H22 H 0.0974 0.5286 -0.0377
C35 C 0.1146(2) 0.6216(4) -0.10588(11)
H23 H 0.0624 0.6073 -0.1275
C36 C 0.1708(3) 0.6882(5) -0.12748(12)
H24 H 0.1569 0.7169 -0.164
C37 C 0.2476(3) 0.7128(4) -0.09543(13)
H25 H 0.2855 0.7581 -0.1104
C38 C 0.26904(18) 0.6702(4) -0.04069(10)
H26 H 0.3209 0.6894 -0.019
C39 C 0.11710(14) 0.4489(4) 0.23179(10)
C40 C 0.07056(17) 0.1182(4) 0.23961(11)
H27 H 0.0415 0.0633 0.2615
H28 H 0.1136 0.0347 0.2395
H29 H 0.0361 0.1337 0.2035
C41 C 0.11674(19) 0.3300(4) 0.31859(10)
H30 H 0.1547 0.2367 0.3379
H31 H 0.0684 0.3145 0.3273
H32 H 0.1373 0.4568 0.3285
loop_
_geom_bond_atom_site_label_1
_geom_bond_atom_site_label_2
_geom_bond_site_symmetry_1
_geom_bond_site_symmetry_2
O1 C39 1_555 1_555
N1 H1 1_555 1_555
N2 C39 1_555 1_555
C1 N1 1_555 1_555
C2 C1 1_555 1_555
C3 C2 1_555 1_555
C4 C3 1_555 1_555
C5 C4 1_555 1_555
C6 C1 1_555 1_555
H2 C6 1_555 1_555
C7 C4 1_555 1_555
H3 C7 1_555 1_555
C8 C7 1_555 1_555
H4 C8 1_555 1_555
C9 C8 1_555 1_555
H5 C9 1_555 1_555
C10 C5 1_555 1_555
H6 C10 1_555 1_555
C11 C2 1_555 1_555
C12 C11 1_555 1_555
C13 C12 1_555 1_555
C14 C3 1_555 1_555
C15 C11 1_555 1_555
C16 C15 1_555 1_555
H7 C16 1_555 1_555
C17 C16 1_555 1_555
H8 C17 1_555 1_555
C18 C17 1_555 1_555
H9 C18 1_555 1_555
C19 C18 1_555 1_555
H10 C19 1_555 1_555
C20 C15 1_555 1_555
H11 C20 1_555 1_555
C21 C12 1_555 1_555
C22 C21 1_555 1_555
H12 C22 1_555 1_555
C23 C22 1_555 1_555
H13 C23 1_555 1_555
C24 C23 1_555 1_555
H14 C24 1_555 1_555
C25 C24 1_555 1_555
H15 C25 1_555 1_555
C26 C21 1_555 1_555
H16 C26 1_555 1_555
C27 C13 1_555 1_555
C28 C27 1_555 1_555
H17 C28 1_555 1_555
C29 C28 1_555 1_555
H18 C29 1_555 1_555
C30 C29 1_555 1_555
H19 C30 1_555 1_555
C31 C30 1_555 1_555
H20 C31 1_555 1_555
C32 C27 1_555 1_555
H21 C32 1_555 1_555
C33 C14 1_555 1_555
C34 C33 1_555 1_555
H22 C34 1_555 1_555
C35 C34 1_555 1_555
H23 C35 1_555 1_555
C36 C35 1_555 1_555
H24 C36 1_555 1_555
C37 C36 1_555 1_555
H25 C37 1_555 1_555
C38 C33 1_555 1_555
H26 C38 1_555 1_555
C39 N1 1_555 1_555
C40 N2 1_555 1_555
H27 C40 1_555 1_555
H28 C40 1_555 1_555
H29 C40 1_555 1_555
C41 N2 1_555 1_555
H30 C41 1_555 1_555
H31 C41 1_555 1_555
H32 C41 1_555 1_555
C5 C6 1_555 1_555
C9 C10 1_555 1_555
C13 C14 1_555 1_555
C19 C20 1_555 1_555
C25 C26 1_555 1_555
C31 C32 1_555 1_555
C37 C38 1_555 1_555

#END
