
#######################################################################
#
#                 Cambridge Crystallographic Data Centre
#                                CCDC 
#
#######################################################################
#
# If this CIF has been generated from an entry in the Cambridge 
# Structural Database, then it will include bibliographic, chemical, 
# crystal, experimental, refinement or atomic coordinate data resulting 
# from the CCDC's data processing and validation procedures.
#
#######################################################################

data_UJILAC
_chemical_formula_moiety         'C41 H32 N2 O1'
_chemical_name_systematic        
1,1-Dimethyl-3-(2,3,4,5-tetraphenyl-2'H-spiro[cyclopenta-2,4-diene-1,1'-naphthalen]-2'-ylidene)urea
_symmetry_cell_setting           monoclinic
_symmetry_space_group_name_H-M   'P 21/c'
_symmetry_Int_Tables_number      14
_space_group_name_Hall           '-P 2ybc'
loop_
_symmetry_equiv_pos_site_id
_symmetry_equiv_pos_as_xyz
1 x,y,z
2 -x,1/2+y,1/2-z
3 -x,-y,-z
4 x,1/2-y,1/2+z
_cell_length_a                   19.0371(13)
_cell_length_b                   9.7457(7)
_cell_length_c                   18.7726(12)
_cell_angle_alpha                90
_cell_angle_beta                 114.993(2)
_cell_angle_gamma                90
_cell_volume                     3156.74
_exptl_crystal_colour            yellow
_exptl_crystal_description       block
_cell_formula_units_Z            4
loop_
_atom_site_label
_atom_site_type_symbol
_atom_site_fract_x
_atom_site_fract_y
_atom_site_fract_z
C1 C 0.35337(11) 0.0618(2) 0.08476(11)
C2 C 0.41759(12) -0.0205(2) 0.13730(12)
H1 H 0.4627 0.0229 0.1717
C3 C 0.41368(13) -0.1570(3) 0.13756(13)
H2 H 0.4567 -0.2051 0.1723
C4 C 0.34619(12) -0.2347(2) 0.08686(12)
C5 C 0.28040(11) -0.16530(19) 0.03563(11)
C6 C 0.27567(10) -0.00957(18) 0.03737(10)
C7 C 0.34639(16) -0.3782(2) 0.08815(15)
H3 H 0.3904 -0.4247 0.1224
C8 C 0.28257(17) -0.4511(2) 0.03953(16)
H4 H 0.2831 -0.5465 0.0408
C9 C 0.21775(15) -0.3823(2) -0.01108(15)
H5 H 0.1744 -0.4315 -0.0443
C10 C 0.21634(13) -0.2408(2) -0.01305(13)
H6 H 0.1719 -0.1955 -0.0474
C11 C 0.22473(10) 0.03349(17) 0.07878(10)
C12 C 0.16778(10) 0.11493(17) 0.03064(10)
C13 C 0.17228(10) 0.12784(17) -0.04598(10)
C14 C 0.23342(10) 0.05417(18) -0.04409(10)
C15 C 0.24432(11) 0.00295(19) 0.16231(11)
C16 C 0.27652(13) 0.1050(2) 0.21801(12)
H7 H 0.2877 0.1901 0.2028
C17 C 0.29230(14) 0.0820(3) 0.29603(13)
H8 H 0.3139 0.1515 0.3328
C18 C 0.27636(14) -0.0423(3) 0.31923(14)
H9 H 0.2866 -0.0572 0.3716
C19 C 0.24543(15) -0.1446(3) 0.26543(15)
H10 H 0.2349 -0.2295 0.2814
C20 C 0.22944(13) -0.1233(2) 0.18695(13)
H11 H 0.2087 -0.1940 0.1508
C21 C 0.11165(11) 0.18846(18) 0.05236(11)
C22 C 0.06188(13) 0.1172(2) 0.07476(14)
H12 H 0.0631 0.0218 0.0756
C23 C 0.01037(16) 0.1855(3) 0.09590(17)
H13 H -0.0243 0.1358 0.1089
C24 C 0.00955(17) 0.3237(3) 0.09798(16)
H14 H -0.0244 0.3689 0.1140
C25 C 0.05865(16) 0.3975(3) 0.07649(16)
H15 H 0.0579 0.4929 0.0776
C26 C 0.10957(13) 0.3296(2) 0.05308(13)
H16 H 0.1424 0.3798 0.0378
C27 C 0.11613(11) 0.21413(17) -0.10942(10)
C28 C 0.03701(12) 0.1967(2) -0.13383(12)
H17 H 0.0192 0.1264 -0.1122
C29 C -0.01587(13) 0.2823(2) -0.18986(13)
H18 H -0.0687 0.2686 -0.2061
C30 C 0.00971(16) 0.3868(3) -0.22117(14)
H19 H -0.0257 0.4448 -0.2585
C31 C 0.08771(16) 0.4059(2) -0.19748(14)
H20 H 0.1051 0.4768 -0.2191
C32 C 0.14043(13) 0.32106(19) -0.14202(12)
H21 H 0.1932 0.3358 -0.1262
C33 C 0.26128(11) 0.03100(18) -0.10535(11)
C34 C 0.21500(14) 0.0508(2) -0.18491(12)
H22 H 0.1633 0.0753 -0.2012
C35 C 0.24428(17) 0.0348(2) -0.24025(14)
H23 H 0.2121 0.0494 -0.2931
C36 C 0.31988(18) -0.0022(3) -0.21859(16)
H24 H 0.3397 -0.0094 -0.2560
C37 C 0.36556(15) -0.0284(3) -0.14146(16)
H25 H 0.4165 -0.0566 -0.1263
C38 C 0.33685(13) -0.0133(2) -0.08561(13)
H26 H 0.3688 -0.0332 -0.0334
C39 C 0.42196(13) 0.2669(2) 0.12693(15)
C40 C 0.53291(16) 0.3979(3) 0.13796(19)
H27 H 0.5746 0.3731 0.1246
H28 H 0.5482 0.3821 0.1930
H29 H 0.5207 0.4932 0.1264
C41 C 0.4465(2) 0.2962(4) 0.01060(18)
H30 H 0.3965 0.2536 -0.0149
H31 H 0.4849 0.2386 0.0052
H32 H 0.4457 0.3837 -0.0133
N1 N 0.35598(10) 0.19181(18) 0.07709(10)
N2 N 0.46506(12) 0.3151(2) 0.09239(13)
O1 O 0.43441(11) 0.2921(2) 0.19491(11)
loop_
_geom_bond_atom_site_label_1
_geom_bond_atom_site_label_2
_geom_bond_site_symmetry_1
_geom_bond_site_symmetry_2
C1 C2 1_555 1_555
C2 H1 1_555 1_555
C3 C2 1_555 1_555
H2 C3 1_555 1_555
C4 C3 1_555 1_555
C5 C4 1_555 1_555
C6 C1 1_555 1_555
C7 C4 1_555 1_555
H3 C7 1_555 1_555
C8 C7 1_555 1_555
H4 C8 1_555 1_555
C9 C8 1_555 1_555
H5 C9 1_555 1_555
C10 C5 1_555 1_555
H6 C10 1_555 1_555
C11 C6 1_555 1_555
C12 C11 1_555 1_555
C13 C12 1_555 1_555
C14 C6 1_555 1_555
C15 C11 1_555 1_555
C16 C15 1_555 1_555
H7 C16 1_555 1_555
C17 C16 1_555 1_555
H8 C17 1_555 1_555
C18 C17 1_555 1_555
H9 C18 1_555 1_555
C19 C18 1_555 1_555
H10 C19 1_555 1_555
C20 C15 1_555 1_555
H11 C20 1_555 1_555
C21 C12 1_555 1_555
C22 C21 1_555 1_555
H12 C22 1_555 1_555
C23 C22 1_555 1_555
H13 C23 1_555 1_555
C24 C23 1_555 1_555
H14 C24 1_555 1_555
C25 C24 1_555 1_555
H15 C25 1_555 1_555
C26 C21 1_555 1_555
H16 C26 1_555 1_555
C27 C13 1_555 1_555
C28 C27 1_555 1_555
H17 C28 1_555 1_555
C29 C28 1_555 1_555
H18 C29 1_555 1_555
C30 C29 1_555 1_555
H19 C30 1_555 1_555
C31 C30 1_555 1_555
H20 C31 1_555 1_555
C32 C27 1_555 1_555
H21 C32 1_555 1_555
C33 C14 1_555 1_555
C34 C33 1_555 1_555
H22 C34 1_555 1_555
C35 C34 1_555 1_555
H23 C35 1_555 1_555
C36 C35 1_555 1_555
H24 C36 1_555 1_555
C37 C36 1_555 1_555
H25 C37 1_555 1_555
C38 C33 1_555 1_555
H26 C38 1_555 1_555
C39 N1 1_555 1_555
C40 H27 1_555 1_555
H28 C40 1_555 1_555
H29 C40 1_555 1_555
C41 H30 1_555 1_555
H31 C41 1_555 1_555
H32 C41 1_555 1_555
N1 C1 1_555 1_555
N2 C39 1_555 1_555
O1 C39 1_555 1_555
C5 C6 1_555 1_555
C9 C10 1_555 1_555
C13 C14 1_555 1_555
C19 C20 1_555 1_555
C25 C26 1_555 1_555
C31 C32 1_555 1_555
C37 C38 1_555 1_555
C40 N2 1_555 1_555
C41 N2 1_555 1_555

#END
