
#######################################################################
#
#                 Cambridge Crystallographic Data Centre
#                                CCDC 
#
#######################################################################
#
# If this CIF has been generated from an entry in the Cambridge 
# Structural Database, then it will include bibliographic, chemical, 
# crystal, experimental, refinement or atomic coordinate data resulting 
# from the CCDC's data processing and validation procedures.
#
#######################################################################

data_UJIMOR
_chemical_formula_moiety         'C26 H18 F6 N2 O1 S2'
_chemical_name_systematic        
4-(2-(2,5-Dimethyl-3-thienyl)-3,3,4,4,5,5-hexafluorocyclopent-1-en-1-yl)-5-methyl-N-(quinolin-8-yl)thiophene-2-carboxamide
_symmetry_cell_setting           triclinic
_symmetry_space_group_name_H-M   'P -1'
_symmetry_Int_Tables_number      2
_space_group_name_Hall           '-P 1'
loop_
_symmetry_equiv_pos_site_id
_symmetry_equiv_pos_as_xyz
1 x,y,z
2 -x,-y,-z
_cell_length_a                   7.8646(6)
_cell_length_b                   11.1640(8)
_cell_length_c                   14.6716(10)
_cell_angle_alpha                99.4950(10)
_cell_angle_beta                 101.2560(10)
_cell_angle_gamma                92.8710(10)
_cell_volume                     1241.57
_exptl_crystal_colour            colorless
_exptl_crystal_description       block
_cell_formula_units_Z            2
loop_
_atom_site_label
_atom_site_type_symbol
_atom_site_fract_x
_atom_site_fract_y
_atom_site_fract_z
S1 S 1.16813(10) -0.19688(6) 0.70436(5)
S2 S 0.50822(9) 0.05269(7) 0.66837(5)
F1 F 1.3878(4) 0.2311(3) 0.8795(3)
F2 F 1.3126(5) 0.1551(3) 0.9920(2)
F3 F 1.2726(8) 0.4234(4) 0.9675(6)
F4 F 1.1068(9) 0.3138(7) 1.0300(3)
F5 F 1.0210(3) 0.40580(17) 0.81430(15)
F6 F 0.8746(3) 0.3586(2) 0.91270(18)
O1 O 0.3398(2) 0.1339(2) 0.49721(15)
N1 N 0.5529(3) 0.2765(2) 0.49031(15)
H1 H 0.6569 0.3058 0.5178
N2 N 0.7294(3) 0.4670(2) 0.45775(18)
C1 C 1.2804(5) -0.3015(3) 0.8661(3)
H2 H 1.2032 -0.3724 0.8361
H3 H 1.2823 -0.2869 0.9327
H4 H 1.3955 -0.3146 0.8560
C2 C 1.2178(4) -0.1929(2) 0.8248(2)
C3 C 1.1929(3) -0.0820(2) 0.87033(19)
H5 H 1.2143 -0.0612 0.9358
C4 C 1.1303(3) 0.0011(2) 0.80912(16)
C5 C 1.1089(3) -0.0496(2) 0.71542(17)
C6 C 1.0537(3) 0.0033(3) 0.62822(17)
H6 H 1.1077 -0.0357 0.5793
H7 H 1.0883 0.0891 0.6415
H8 H 0.9295 -0.0095 0.6078
C7 C 1.1032(3) 0.1280(2) 0.84483(16)
C8 C 1.2386(4) 0.2039(3) 0.9220(2)
C9 C 1.1632(13) 0.3225(8) 0.9517(7)
C10 C 1.0058(4) 0.3242(2) 0.8714(2)
C11 C 0.9726(3) 0.1957(2) 0.81774(16)
C12 C 0.8061(3) 0.1587(2) 0.74943(17)
C13 C 0.6869(3) 0.0696(2) 0.75813(19)
C14 C 0.6946(5) -0.0052(3) 0.8351(2)
H9 H 0.5833 -0.0487 0.8287
H10 H 0.7244 0.0476 0.8956
H11 H 0.7812 -0.0623 0.8302
C15 C 0.7490(3) 0.2138(2) 0.66927(18)
H12 H 0.8131 0.2770 0.6538
C16 C 0.5911(3) 0.1645(2) 0.61782(18)
C17 C 0.4822(3) 0.1894(2) 0.52987(18)
C18 C 0.4791(3) 0.3248(3) 0.41077(18)
C19 C 0.5772(3) 0.4279(2) 0.39587(18)
C20 C 0.8182(4) 0.5633(3) 0.4437(3)
H13 H 0.9220 0.5920 0.4860
C21 C 0.7644(5) 0.6248(3) 0.3684(3)
H14 H 0.8316 0.6924 0.3617
C22 C 0.6144(5) 0.5851(3) 0.3057(3)
H15 H 0.5791 0.6244 0.2548
C23 C 0.5117(4) 0.4841(3) 0.3175(2)
C24 C 0.3527(5) 0.4374(4) 0.2575(2)
H16 H 0.3086 0.4743 0.2064
C25 C 0.2633(5) 0.3392(4) 0.2732(2)
H17 H 0.1588 0.3089 0.2322
C26 C 0.3244(4) 0.2814(3) 0.3503(2)
H18 H 0.2602 0.2141 0.3601
F7? F 1.3945(8) 0.1883(6) 0.9216(5)
F8? F 1.2141(8) 0.1611(5) 1.0077(4)
F9? F 1.3008(8) 0.3954(6) 0.9003(6)
F10? F 1.1962(14) 0.3848(7) 1.0222(4)
C27? C 1.1855(14) 0.3320(9) 0.9332(8)
loop_
_geom_bond_atom_site_label_1
_geom_bond_atom_site_label_2
_geom_bond_site_symmetry_1
_geom_bond_site_symmetry_2
S1 C2 1_555 1_555
S2 C13 1_555 1_555
F1 C8 1_555 1_555
F2 C8 1_555 1_555
F3 C9 1_555 1_555
F4 C9 1_555 1_555
F5 C10 1_555 1_555
F6 C10 1_555 1_555
O1 C17 1_555 1_555
N1 H1 1_555 1_555
N2 C19 1_555 1_555
C1 H2 1_555 1_555
H3 C1 1_555 1_555
H4 C1 1_555 1_555
C2 C1 1_555 1_555
C3 C2 1_555 1_555
H5 C3 1_555 1_555
C4 C3 1_555 1_555
C5 S1 1_555 1_555
C6 C5 1_555 1_555
H6 C6 1_555 1_555
H7 C6 1_555 1_555
H8 C6 1_555 1_555
C7 C4 1_555 1_555
C8 C7 1_555 1_555
C9 C8 1_555 1_555
C10 C9 1_555 1_555
C11 C7 1_555 1_555
C12 C11 1_555 1_555
C13 C12 1_555 1_555
C14 C13 1_555 1_555
H9 C14 1_555 1_555
H10 C14 1_555 1_555
H11 C14 1_555 1_555
C15 C12 1_555 1_555
H12 C15 1_555 1_555
C16 S2 1_555 1_555
C17 N1 1_555 1_555
C18 N1 1_555 1_555
C19 C18 1_555 1_555
C20 N2 1_555 1_555
H13 C20 1_555 1_555
C21 C20 1_555 1_555
H14 C21 1_555 1_555
C22 C21 1_555 1_555
H15 C22 1_555 1_555
C23 C19 1_555 1_555
C24 C23 1_555 1_555
H16 C24 1_555 1_555
C25 C24 1_555 1_555
H17 C25 1_555 1_555
C26 C18 1_555 1_555
H18 C26 1_555 1_555
C4 C5 1_555 1_555
C10 C11 1_555 1_555
C15 C16 1_555 1_555
C16 C17 1_555 1_555
C22 C23 1_555 1_555
C25 C26 1_555 1_555

#END
