
#######################################################################
#
#                 Cambridge Crystallographic Data Centre
#                                CCDC 
#
#######################################################################
#
# If this CIF has been generated from an entry in the Cambridge 
# Structural Database, then it will include bibliographic, chemical, 
# crystal, experimental, refinement or atomic coordinate data resulting 
# from the CCDC's data processing and validation procedures.
#
#######################################################################

data_UJINEI
_chemical_formula_moiety         'C26 H24 Cl1 N1 O3'
_chemical_name_systematic        
10-(4-Chlorophenyl)-9-(4-methoxyphenyl)-3,4,6,7,9,10-hexahydroacridine-1,8(2H,5H)-dione
_symmetry_cell_setting           monoclinic
_symmetry_space_group_name_H-M   'P 21/n'
_symmetry_Int_Tables_number      14
_space_group_name_Hall           '-P 2yn'
loop_
_symmetry_equiv_pos_site_id
_symmetry_equiv_pos_as_xyz
1 x,y,z
2 1/2-x,1/2+y,1/2-z
3 -x,-y,-z
4 1/2+x,1/2-y,1/2+z
_cell_length_a                   8.628(2)
_cell_length_b                   10.912(3)
_cell_length_c                   22.425(7)
_cell_angle_alpha                90
_cell_angle_beta                 90.786(4)
_cell_angle_gamma                90
_cell_volume                     2111.09
_exptl_crystal_colour            colorless
_exptl_crystal_description       block
_cell_formula_units_Z            4
loop_
_atom_site_label
_atom_site_type_symbol
_atom_site_fract_x
_atom_site_fract_y
_atom_site_fract_z
C1 C 0.2906(4) 0.3492(3) 0.18885(16)
C2 C 0.4627(4) 0.3746(3) 0.19197(19)
H1 H 0.5093 0.3518 0.1545
H2 H 0.5096 0.3250 0.2232
C3 C 0.4951(4) 0.5091(3) 0.20452(19)
H3 H 0.6060 0.5235 0.2038
H4 H 0.4587 0.5299 0.2440
C4 C 0.4148(4) 0.5910(3) 0.15836(18)
H5 H 0.4186 0.6753 0.1720
H6 H 0.4705 0.5864 0.1211
C5 C 0.2488(4) 0.5550(3) 0.14739(15)
C6 C 0.1902(4) 0.4446(3) 0.16347(15)
C7 C 0.0199(4) 0.4150(3) 0.15694(16)
H7 H 0.0115 0.3300 0.1432
C8 C -0.0530(4) 0.4957(3) 0.10936(16)
C9 C -0.1895(4) 0.4500(3) 0.07785(15)
C10 C -0.2622(4) 0.5316(3) 0.03067(17)
H8 H -0.3721 0.5138 0.0275
H9 H -0.2159 0.5139 -0.0076
C11 C -0.2401(4) 0.6668(3) 0.04515(18)
H10 H -0.2844 0.7165 0.0134
H11 H -0.2930 0.6867 0.0818
C12 C -0.0680(4) 0.6947(3) 0.05214(16)
H12 H -0.0192 0.6896 0.0135
H13 H -0.0548 0.7776 0.0669
C13 C 0.0099(4) 0.6065(3) 0.09451(15)
C14 C -0.0629(4) 0.4236(3) 0.21642(15)
C15 C -0.1318(4) 0.3223(3) 0.24209(16)
H14 H -0.1259 0.2469 0.2229
C16 C -0.2090(4) 0.3303(3) 0.29523(17)
H15 H -0.2535 0.2606 0.3116
C17 C -0.2210(4) 0.4425(3) 0.32489(16)
C18 C -0.1496(4) 0.5440(3) 0.30066(16)
H16 H -0.1540 0.6190 0.3202
C19 C -0.0716(4) 0.5344(3) 0.24729(16)
H17 H -0.0239 0.6034 0.2316
C20 C -0.3517(5) 0.5564(4) 0.39955(19)
H18 H -0.4077 0.5436 0.4357
H19 H -0.2627 0.6068 0.4077
H20 H -0.4177 0.5963 0.3708
C21 C 0.2129(4) 0.7640(3) 0.10713(16)
C22 C 0.2847(5) 0.7921(3) 0.05504(18)
H21 H 0.2950 0.7331 0.0254
C23 C 0.3420(5) 0.9089(4) 0.04662(18)
H22 H 0.3910 0.9290 0.0113
C24 C 0.3262(5) 0.9953(3) 0.09087(17)
C25 C 0.2560(4) 0.9677(3) 0.14311(17)
H23 H 0.2473 1.0265 0.1729
C26 C 0.1976(4) 0.8509(3) 0.15137(16)
H24 H 0.1482 0.8310 0.1867
Cl1 Cl 0.40045(15) 1.14194(9) 0.07964(5)
N1 N 0.1545(3) 0.6412(2) 0.11768(13)
O1 O 0.2370(3) 0.2511(2) 0.20597(12)
O2 O -0.2426(3) 0.3470(2) 0.08773(12)
O3 O -0.3029(3) 0.4417(2) 0.37663(12)
loop_
_geom_bond_atom_site_label_1
_geom_bond_atom_site_label_2
_geom_bond_site_symmetry_1
_geom_bond_site_symmetry_2
C1 C2 1_555 1_555
C2 H1 1_555 1_555
H2 C2 1_555 1_555
C3 C2 1_555 1_555
H3 C3 1_555 1_555
H4 C3 1_555 1_555
C4 C3 1_555 1_555
H5 C4 1_555 1_555
H6 C4 1_555 1_555
C5 C4 1_555 1_555
C6 C1 1_555 1_555
C7 C6 1_555 1_555
H7 C7 1_555 1_555
C8 C7 1_555 1_555
C9 C8 1_555 1_555
C10 C9 1_555 1_555
H8 C10 1_555 1_555
H9 C10 1_555 1_555
C11 C10 1_555 1_555
H10 C11 1_555 1_555
H11 C11 1_555 1_555
C12 C11 1_555 1_555
H12 C12 1_555 1_555
H13 C12 1_555 1_555
C13 C8 1_555 1_555
C14 C7 1_555 1_555
C15 C14 1_555 1_555
H14 C15 1_555 1_555
C16 C15 1_555 1_555
H15 C16 1_555 1_555
C17 C16 1_555 1_555
C18 C17 1_555 1_555
H16 C18 1_555 1_555
C19 C14 1_555 1_555
H17 C19 1_555 1_555
C20 H18 1_555 1_555
H19 C20 1_555 1_555
H20 C20 1_555 1_555
C21 C22 1_555 1_555
C22 H21 1_555 1_555
C23 C22 1_555 1_555
H22 C23 1_555 1_555
C24 C23 1_555 1_555
C25 C24 1_555 1_555
H23 C25 1_555 1_555
C26 C21 1_555 1_555
H24 C26 1_555 1_555
Cl1 C24 1_555 1_555
N1 C5 1_555 1_555
O1 C1 1_555 1_555
O2 C9 1_555 1_555
O3 C17 1_555 1_555
C5 C6 1_555 1_555
C12 C13 1_555 1_555
C13 N1 1_555 1_555
C18 C19 1_555 1_555
C20 O3 1_555 1_555
C21 N1 1_555 1_555
C25 C26 1_555 1_555

#END
