
#######################################################################
#
#                 Cambridge Crystallographic Data Centre
#                                CCDC 
#
#######################################################################
#
# If this CIF has been generated from an entry in the Cambridge 
# Structural Database, then it will include bibliographic, chemical, 
# crystal, experimental, refinement or atomic coordinate data resulting 
# from the CCDC's data processing and validation procedures.
#
#######################################################################

data_UJIPIM
_chemical_formula_moiety         'C16 H22 O11'
_chemical_name_systematic        
'Ethyl 1,2,3,4-tetra-O-acetyl-\b-D-glucopyranuronate'
_symmetry_cell_setting           triclinic
_symmetry_space_group_name_H-M   'P 1'
_symmetry_Int_Tables_number      1
_space_group_name_Hall           'P 1'
loop_
_symmetry_equiv_pos_site_id
_symmetry_equiv_pos_as_xyz
1 x,y,z
_cell_length_a                   6.0209(3)
_cell_length_b                   8.9698(5)
_cell_length_c                   9.9818(8)
_cell_angle_alpha                104.965(2)
_cell_angle_beta                 98.522(3)
_cell_angle_gamma                106.790(5)
_cell_volume                     483.914
_exptl_crystal_colour            colorless
_exptl_crystal_description       needle
_chemical_melting_point          407-408K
_cell_formula_units_Z            1
_exptl_crystal_recrystallization_method methanol
loop_
_atom_site_label
_atom_site_type_symbol
_atom_site_fract_x
_atom_site_fract_y
_atom_site_fract_z
O1 O 0.4317(5) -0.0210(3) 0.1060(3)
C1 C 0.4400(7) 0.1276(5) 0.2072(4)
H1 H 0.6026 0.2129 0.2334
O2 O 0.2677(5) 0.1795(3) 0.1402(3)
C2 C 0.3441(9) 0.2812(5) 0.0627(5)
O3 O 0.5460(6) 0.3254(5) 0.0504(4)
C3 C 0.1415(10) 0.3234(7) -0.0027(6)
H2 H 0.0412 0.2317 -0.0875
H3 H 0.2041 0.4218 -0.0303
H4 H 0.0458 0.3446 0.0666
C4 C 0.3712(7) 0.0922(5) 0.3385(4)
H5 H 0.1996 0.0209 0.3145
O4 O 0.4141(5) 0.2431(3) 0.4494(3)
C5 C 0.2291(7) 0.2974(5) 0.4655(4)
O5 O 0.0333(5) 0.2346(4) 0.3868(3)
C6 C 0.2993(9) 0.4434(7) 0.5971(5)
H6 H 0.1638 0.4385 0.6415
H7 H 0.3453 0.5443 0.5711
H8 H 0.4347 0.4429 0.6647
C7 C 0.5309(7) 0.0105(5) 0.4002(4)
H9 H 0.6967 0.0915 0.4422
O6 O 0.4353(5) -0.0426(4) 0.5106(3)
C8 C 0.5811(11) 0.0169(8) 0.6421(6)
O7 O 0.7851(9) 0.1000(9) 0.6680(5)
C9 C 0.4446(13) -0.0288(8) 0.7492(6)
H10 H 0.5464 0.0289 0.8460
H11 H 0.3972 -0.1476 0.7313
H12 H 0.3016 0.0027 0.7397
C10 C 0.5359(7) -0.1365(5) 0.2861(4)
H13 H 0.3765 -0.2263 0.2532
O8 O 0.7193(5) -0.1924(3) 0.3443(3)
C11 C 0.6518(8) -0.3448(5) 0.3547(5)
O9 O 0.4464(6) -0.4325(4) 0.3265(5)
C12 C 0.8632(9) -0.3896(6) 0.4027(6)
H14 H 0.9262 -0.4285 0.3205
H15 H 0.8151 -0.4768 0.4458
H16 H 0.9871 -0.2930 0.4734
C13 C 0.6081(7) -0.0805(5) 0.1612(4)
H17 H 0.7678 0.0089 0.1955
C14 C 0.6141(7) -0.2213(5) 0.0400(4)
O10 O 0.8311(5) -0.2325(4) 0.0605(3)
O11 O 0.4475(5) -0.3079(4) -0.0584(3)
C15 C 0.8698(10) -0.3570(6) -0.0508(5)
H18 H 0.7256 -0.4572 -0.0859
H19 H 1.0055 -0.3865 -0.0106
C16 C 0.9218(11) -0.2954(7) -0.1721(6)
H20 H 1.0647 -0.1963 -0.1373
H21 H 0.7855 -0.2692 -0.2135
H22 H 0.9493 -0.3801 -0.2453
loop_
_geom_bond_atom_site_label_1
_geom_bond_atom_site_label_2
_geom_bond_site_symmetry_1
_geom_bond_site_symmetry_2
O1 C1 1_555 1_555
C1 H1 1_555 1_555
O2 C1 1_555 1_555
C2 O2 1_555 1_555
O3 C2 1_555 1_555
C3 C2 1_555 1_555
H2 C3 1_555 1_555
H3 C3 1_555 1_555
H4 C3 1_555 1_555
C4 C1 1_555 1_555
H5 C4 1_555 1_555
O4 C4 1_555 1_555
C5 O4 1_555 1_555
O5 C5 1_555 1_555
C6 C5 1_555 1_555
H6 C6 1_555 1_555
H7 C6 1_555 1_555
H8 C6 1_555 1_555
C7 C4 1_555 1_555
H9 C7 1_555 1_555
O6 C7 1_555 1_555
C8 O6 1_555 1_555
O7 C8 1_555 1_555
C9 C8 1_555 1_555
H10 C9 1_555 1_555
H11 C9 1_555 1_555
H12 C9 1_555 1_555
C10 C7 1_555 1_555
H13 C10 1_555 1_555
O8 C10 1_555 1_555
C11 O8 1_555 1_555
O9 C11 1_555 1_555
C12 C11 1_555 1_555
H14 C12 1_555 1_555
H15 C12 1_555 1_555
H16 C12 1_555 1_555
C13 O1 1_555 1_555
H17 C13 1_555 1_555
C14 C13 1_555 1_555
O10 C14 1_555 1_555
O11 C14 1_555 1_555
C15 O10 1_555 1_555
H18 C15 1_555 1_555
H19 C15 1_555 1_555
C16 C15 1_555 1_555
H20 C16 1_555 1_555
H21 C16 1_555 1_555
H22 C16 1_555 1_555
C10 C13 1_555 1_555

#END
