
#######################################################################
#
#                 Cambridge Crystallographic Data Centre
#                                CCDC 
#
#######################################################################
#
# If this CIF has been generated from an entry in the Cambridge 
# Structural Database, then it will include bibliographic, chemical, 
# crystal, experimental, refinement or atomic coordinate data resulting 
# from the CCDC's data processing and validation procedures.
#
#######################################################################

data_UJIROV
_chemical_formula_moiety         'C8 H20 N5 3+,3(Cl1 O4 1-)'
_chemical_name_systematic        
'5-((bis(2-ammonioethyl)amino)methyl)-1H-imidazol-3-ium triperchlorate'
_symmetry_cell_setting           triclinic
_symmetry_space_group_name_H-M   'P -1'
_symmetry_Int_Tables_number      2
_space_group_name_Hall           '-P 1'
loop_
_symmetry_equiv_pos_site_id
_symmetry_equiv_pos_as_xyz
1 x,y,z
2 -x,-y,-z
_cell_length_a                   7.991(3)
_cell_length_b                   8.282(3)
_cell_length_c                   15.207(5)
_cell_angle_alpha                95.112(6)
_cell_angle_beta                 90.618(6)
_cell_angle_gamma                112.718(5)
_cell_volume                     923.528
_exptl_crystal_colour            colorless
_exptl_crystal_description       block
_cell_formula_units_Z            2
loop_
_atom_site_label
_atom_site_type_symbol
_atom_site_fract_x
_atom_site_fract_y
_atom_site_fract_z
C1 C 0.7658(6) 0.6947(5) 0.8461(3)
H1 H 0.7898 0.7557 0.7932
H2 H 0.8147 0.7819 0.8966
C2 C 0.5649(6) 0.6024(6) 0.8528(3)
H3 H 0.5411 0.5534 0.9091
H4 H 0.5091 0.6875 0.8515
C3 C 0.2941(6) 0.3453(7) 0.8029(3)
H5 H 0.2240 0.2863 0.7487
H6 H 0.2358 0.4177 0.8316
C4 C 0.2928(7) 0.2112(7) 0.8618(3)
H7 H 0.1685 0.1391 0.8736
H8 H 0.3564 0.2694 0.9176
C5 C 0.4726(7) 0.5363(6) 0.6975(3)
H9 H 0.5889 0.6306 0.6905
H10 H 0.3810 0.5863 0.7003
C6 C 0.4291(6) 0.4021(5) 0.6192(3)
C7 C 0.2714(7) 0.3140(7) 0.5713(3)
H11 H 0.1603 0.3228 0.5806
C8 C 0.4747(10) 0.2318(7) 0.5117(3)
H12 H 0.5311 0.1760 0.4741
N1 N 0.8575(5) 0.5713(5) 0.8430(2)
H13 H 0.9764 0.6301 0.8392
H14 H 0.8146 0.4925 0.7960
H15 H 0.8371 0.5163 0.8919
N2 N 0.4799(5) 0.4599(4) 0.7810(2)
N3 N 0.3815(6) 0.0975(5) 0.8204(3)
H16 H 0.3791 0.0178 0.8564
H17 H 0.4963 0.1634 0.8105
H18 H 0.3225 0.0433 0.7694
N4 N 0.5538(6) 0.3476(6) 0.5798(3)
H19 H 0.6664 0.3834 0.5968
N5 N 0.3089(7) 0.2091(6) 0.5061(3)
H20 H 0.2306 0.1378 0.4669
O1 O 0.3168(5) 0.6956(5) 0.0387(2)
O2 O 0.2269(5) 0.7866(5) -0.0863(2)
O3 O 0.0347(5) 0.7129(5) 0.0308(2)
O4 O 0.3040(7) 0.9697(5) 0.0456(3)
Cl1 Cl 0.21886(14) 0.79342(13) 0.00815(6)
O5 O 0.0968(8) 0.9317(8) 0.2534(4)
O6 O 0.1686(8) 0.8686(8) 0.3888(3)
O7 O 0.3938(6) 1.0432(7) 0.3078(4)
O8 O 0.2589(8) 0.7565(6) 0.2606(3)
Cl2 Cl 0.22697(15) 0.89614(14) 0.30364(7)
O9 O 0.1474(6) 0.7590(8) 0.7233(3)
O10 O 0.1625(8) 0.6471(9) 0.5800(3)
O11 O -0.1067(6) 0.6441(9) 0.6349(3)
O12 O 0.1215(17) 0.8934(10) 0.6058(6)
Cl3 Cl 0.08073(16) 0.73387(15) 0.63539(7)
loop_
_geom_bond_atom_site_label_1
_geom_bond_atom_site_label_2
_geom_bond_site_symmetry_1
_geom_bond_site_symmetry_2
C1 H1 1_555 1_555
H2 C1 1_555 1_555
C2 C1 1_555 1_555
H3 C2 1_555 1_555
H4 C2 1_555 1_555
C3 H5 1_555 1_555
H6 C3 1_555 1_555
C4 C3 1_555 1_555
H7 C4 1_555 1_555
H8 C4 1_555 1_555
C5 H9 1_555 1_555
H10 C5 1_555 1_555
C6 C5 1_555 1_555
C7 C6 1_555 1_555
H11 C7 1_555 1_555
C8 H12 1_555 1_555
N1 C1 1_555 1_555
H13 N1 1_555 1_555
H14 N1 1_555 1_555
H15 N1 1_555 1_555
N2 C2 1_555 1_555
N3 C4 1_555 1_555
H16 N3 1_555 1_555
H17 N3 1_555 1_555
H18 N3 1_555 1_555
N4 C6 1_555 1_555
H19 N4 1_555 1_555
N5 C7 1_555 1_555
H20 N5 1_555 1_555
O1 Cl1 1_555 1_555
O2 Cl1 1_555 1_555
O3 Cl1 1_555 1_555
O4 Cl1 1_555 1_555
O5 Cl2 1_555 1_555
O6 Cl2 1_555 1_555
O7 Cl2 1_555 1_555
O8 Cl2 1_555 1_555
O9 Cl3 1_555 1_555
O10 Cl3 1_555 1_555
O11 Cl3 1_555 1_555
O12 Cl3 1_555 1_555
C3 N2 1_555 1_555
C5 N2 1_555 1_555
C8 N4 1_555 1_555
C8 N5 1_555 1_555

#END
