
#######################################################################
#
#                 Cambridge Crystallographic Data Centre
#                                CCDC 
#
#######################################################################
#
# If this CIF has been generated from an entry in the Cambridge 
# Structural Database, then it will include bibliographic, chemical, 
# crystal, experimental, refinement or atomic coordinate data resulting 
# from the CCDC's data processing and validation procedures.
#
#######################################################################

data_UJOCAZ
_chemical_formula_moiety         'C19 H19 N1 O2 S2'
_chemical_name_systematic        
4-(benzylsulfanyl)-5-(3-hydroxy-1-phenylpropyl)-1,3-thiazol-2(3H)-one
_symmetry_cell_setting           orthorhombic
_symmetry_space_group_name_H-M   'P 21 21 21'
_symmetry_Int_Tables_number      19
_space_group_name_Hall           'P 2ac 2ab'
loop_
_symmetry_equiv_pos_site_id
_symmetry_equiv_pos_as_xyz
1 x,y,z
2 1/2+x,1/2-y,-z
3 -x,1/2+y,1/2-z
4 1/2-x,-y,1/2+z
_cell_length_a                   10.8460(13)
_cell_length_b                   11.5153(15)
_cell_length_c                   14.8533(18)
_cell_angle_alpha                90
_cell_angle_beta                 90
_cell_angle_gamma                90
_cell_volume                     1855.1
_exptl_crystal_colour            yellow
_exptl_crystal_description       block
_cell_formula_units_Z            4
loop_
_atom_site_label
_atom_site_type_symbol
_atom_site_fract_x
_atom_site_fract_y
_atom_site_fract_z
S1 S 0.77864(9) 0.68256(7) 0.12532(6)
S2 S 0.78396(10) 0.31358(7) 0.12314(6)
N1 N 0.6688(2) 0.5065(2) 0.18833(16)
H1 H 0.617(3) 0.469(3) 0.219(2)
O1 O 0.5875(3) 0.6786(2) 0.23876(18)
O2 O 0.9996(3) 0.6110(2) -0.20972(13)
H2 H 1.022(4) 0.687(3) -0.213(3)
C1 C 0.6614(3) 0.6225(3) 0.1936(2)
C2 C 0.8289(3) 0.5439(2) 0.09260(19)
C3 C 0.7602(3) 0.4631(2) 0.13272(19)
C4 C 0.9383(3) 0.5269(2) 0.03229(17)
H3 H 0.9380 0.4449 0.0149
C5 C 0.9276(3) 0.5967(3) -0.05544(19)
H4 H 0.8459 0.5858 -0.0807
H5 H 0.9378 0.6786 -0.0423
C6 C 1.0225(3) 0.5602(3) -0.1236(2)
H6 H 1.1037 0.5834 -0.1028
H7 H 1.0218 0.4763 -0.1291
C7 C 1.0569(3) 0.5463(3) 0.08477(18)
C8 C 1.1120(3) 0.4527(3) 0.1267(2)
H8 H 1.0777 0.3792 0.1201
C9 C 1.2174(4) 0.4661(4) 0.1782(2)
H9 H 1.2534 0.4018 0.2056
C10 C 1.2678(4) 0.5717(5) 0.1889(3)
H10 H 1.3390 0.5800 0.2232
C11 C 1.2153(4) 0.6677(4) 0.1495(3)
H11 H 1.2495 0.7410 0.1579
C12 C 1.1099(4) 0.6539(3) 0.0966(2)
H12 H 1.0749 0.7184 0.0689
C13 C 0.6374(4) 0.2674(3) 0.0736(3)
H13 H 0.6496 0.1925 0.0450
H14 H 0.5782 0.2566 0.1218
C14 C 0.5833(4) 0.3484(3) 0.0061(2)
C15 C 0.6372(4) 0.3692(4) -0.0768(3)
H15 H 0.7096 0.3307 -0.0923
C16 C 0.5843(6) 0.4471(5) -0.1375(3)
H16 H 0.6210 0.4610 -0.1930
C17 C 0.4773(5) 0.5028(6) -0.1141(4)
H17 H 0.4405 0.5542 -0.1542
C18 C 0.4251(5) 0.4833(6) -0.0328(3)
H18 H 0.3529 0.5218 -0.0170
C19 C 0.4783(4) 0.4069(5) 0.0263(3)
H19 H 0.4413 0.3948 0.0820
loop_
_geom_bond_atom_site_label_1
_geom_bond_atom_site_label_2
_geom_bond_site_symmetry_1
_geom_bond_site_symmetry_2
S1 C1 1_555 1_555
S2 C3 1_555 1_555
N1 H1 1_555 1_555
O1 C1 1_555 1_555
O2 H2 1_555 1_555
C1 N1 1_555 1_555
C2 S1 1_555 1_555
C3 N1 1_555 1_555
C4 C2 1_555 1_555
H3 C4 1_555 1_555
C5 C4 1_555 1_555
H4 C5 1_555 1_555
H5 C5 1_555 1_555
C6 O2 1_555 1_555
H6 C6 1_555 1_555
H7 C6 1_555 1_555
C7 C4 1_555 1_555
C8 C7 1_555 1_555
H8 C8 1_555 1_555
C9 C8 1_555 1_555
H9 C9 1_555 1_555
C10 C9 1_555 1_555
H10 C10 1_555 1_555
C11 C10 1_555 1_555
H11 C11 1_555 1_555
C12 C7 1_555 1_555
H12 C12 1_555 1_555
C13 S2 1_555 1_555
H13 C13 1_555 1_555
H14 C13 1_555 1_555
C14 C13 1_555 1_555
C15 C14 1_555 1_555
H15 C15 1_555 1_555
C16 C15 1_555 1_555
H16 C16 1_555 1_555
C17 C16 1_555 1_555
H17 C17 1_555 1_555
C18 C17 1_555 1_555
H18 C18 1_555 1_555
C19 C14 1_555 1_555
H19 C19 1_555 1_555
C2 C3 1_555 1_555
C5 C6 1_555 1_555
C11 C12 1_555 1_555
C18 C19 1_555 1_555

#END
