
#######################################################################
#
#                 Cambridge Crystallographic Data Centre
#                                CCDC 
#
#######################################################################
#
# If this CIF has been generated from an entry in the Cambridge 
# Structural Database, then it will include bibliographic, chemical, 
# crystal, experimental, refinement or atomic coordinate data resulting 
# from the CCDC's data processing and validation procedures.
#
#######################################################################

data_UJOTES04
_chemical_formula_moiety         'C22 H16 N2 O2'
_chemical_name_systematic        
1,1'-(Hydrazine-1,2-diylidenedimethylylidene)bis(2-naphthol)
_symmetry_cell_setting           monoclinic
_symmetry_space_group_name_H-M   'P 21/n'
_symmetry_Int_Tables_number      14
_space_group_name_Hall           '-P 2yn'
loop_
_symmetry_equiv_pos_site_id
_symmetry_equiv_pos_as_xyz
1 x,y,z
2 1/2-x,1/2+y,1/2-z
3 -x,-y,-z
4 1/2+x,1/2-y,1/2+z
_cell_length_a                   8.5492(7)
_cell_length_b                   6.1078(5)
_cell_length_c                   15.9912(13)
_cell_angle_alpha                90
_cell_angle_beta                 91.210(3)
_cell_angle_gamma                90
_cell_volume                     834.823
_exptl_crystal_colour            yellow
_exptl_crystal_description       block
_chemical_melting_point          '568 K'
_cell_formula_units_Z            2
_chemical_properties_physical    Heat-sensitive
_exptl_crystal_preparation       Luminescent
loop_
_atom_site_label
_atom_site_type_symbol
_atom_site_fract_x
_atom_site_fract_y
_atom_site_fract_z
C1 C 0.6295(2) 0.0244(3) 0.10507(12)
C2 C 0.6746(2) -0.1635(3) 0.14935(13)
H1 H 0.7385 -0.2668 0.1244
C3 C 0.6258(2) -0.1955(3) 0.22829(12)
H2 H 0.6549 -0.3230 0.2564
C4 C 0.5315(2) -0.0401(3) 0.26928(12)
C5 C 0.4888(2) -0.0689(4) 0.35337(13)
H3 H 0.5188 -0.1957 0.3816
C6 C 0.4044(2) 0.0858(4) 0.39381(13)
H4 H 0.3785 0.0661 0.4495
C7 C 0.3570(2) 0.2749(4) 0.35082(13)
H5 H 0.2998 0.3811 0.3784
C8 C 0.3936(2) 0.3058(3) 0.26884(12)
H6 H 0.3581 0.4309 0.2412
C9 C 0.4842(2) 0.1517(3) 0.22519(11)
C10 C 0.5333(2) 0.1817(3) 0.14067(11)
C11 C 0.4847(2) 0.3709(3) 0.09308(11)
H7 H 0.4180 0.4719 0.1173
O1 O 0.68568(18) 0.0448(2) 0.02736(8)
H8 H 0.6527 0.1584 0.0061
N1 N 0.53061(19) 0.4048(2) 0.01806(9)
C1B C 0.3705(2) 0.9756(3) -0.10507(12)
C2B C 0.3254(2) 1.1635(3) -0.14935(13)
H1B H 0.2615 1.2668 -0.1244
C3B C 0.3742(2) 1.1955(3) -0.22829(12)
H2B H 0.3451 1.3230 -0.2564
C4B C 0.4685(2) 1.0401(3) -0.26928(12)
C5B C 0.5112(2) 1.0689(4) -0.35337(13)
H3B H 0.4812 1.1957 -0.3816
C6B C 0.5956(2) 0.9142(4) -0.39381(13)
H4B H 0.6215 0.9339 -0.4495
C7B C 0.6430(2) 0.7251(4) -0.35082(13)
H5B H 0.7002 0.6189 -0.3784
C8B C 0.6064(2) 0.6942(3) -0.26884(12)
H6B H 0.6419 0.5691 -0.2412
C9B C 0.5158(2) 0.8483(3) -0.22519(11)
C10B C 0.4667(2) 0.8183(3) -0.14067(11)
C11B C 0.5153(2) 0.6291(3) -0.09308(11)
H7B H 0.5820 0.5281 -0.1173
O1B O 0.31432(18) 0.9552(2) -0.02736(8)
H8B H 0.3473 0.8416 -0.0061
N1B N 0.46939(19) 0.5952(2) -0.01806(9)
loop_
_geom_bond_atom_site_label_1
_geom_bond_atom_site_label_2
_geom_bond_site_symmetry_1
_geom_bond_site_symmetry_2
C1 C2 1_555 1_555
C2 H1 1_555 1_555
C3 C2 1_555 1_555
H2 C3 1_555 1_555
C4 C3 1_555 1_555
C5 C4 1_555 1_555
H3 C5 1_555 1_555
C6 C5 1_555 1_555
H4 C6 1_555 1_555
C7 C6 1_555 1_555
H5 C7 1_555 1_555
C8 C7 1_555 1_555
H6 C8 1_555 1_555
C9 C4 1_555 1_555
C10 C1 1_555 1_555
C11 C10 1_555 1_555
H7 C11 1_555 1_555
O1 C1 1_555 1_555
H8 O1 1_555 1_555
N1 C11 1_555 1_555
C1B C2B 1_555 1_555
C2B H1B 1_555 1_555
C3B C2B 1_555 1_555
H2B C3B 1_555 1_555
C4B C3B 1_555 1_555
C5B C4B 1_555 1_555
H3B C5B 1_555 1_555
C6B C5B 1_555 1_555
H4B C6B 1_555 1_555
C7B C6B 1_555 1_555
H5B C7B 1_555 1_555
C8B C7B 1_555 1_555
H6B C8B 1_555 1_555
C9B C4B 1_555 1_555
C10B C1B 1_555 1_555
C11B C10B 1_555 1_555
H7B C11B 1_555 1_555
O1B C1B 1_555 1_555
H8B O1B 1_555 1_555
N1B N1 1_555 1_555
C8 C9 1_555 1_555
C9 C10 1_555 1_555
C8B C9B 1_555 1_555
C9B C10B 1_555 1_555
C11B N1B 1_555 1_555

#END
