
#######################################################################
#
#                 Cambridge Crystallographic Data Centre
#                                CCDC 
#
#######################################################################
#
# If this CIF has been generated from an entry in the Cambridge 
# Structural Database, then it will include bibliographic, chemical, 
# crystal, experimental, refinement or atomic coordinate data resulting 
# from the CCDC's data processing and validation procedures.
#
#######################################################################

data_UJUNUK
_chemical_name_common            
bis(4-(2,4,4-trimethylpentan-2-yl)phenyl)amine
_chemical_formula_moiety         'C28 H43 N1'
_chemical_name_systematic        
4-(2,4,4-trimethylpentan-2-yl)-N-(4-(2,4,4-trimethylpentan-2-yl)phenyl)aniline
_symmetry_cell_setting           monoclinic
_symmetry_space_group_name_H-M   'P 21/c'
_symmetry_Int_Tables_number      14
_space_group_name_Hall           '-P 2ybc'
loop_
_symmetry_equiv_pos_site_id
_symmetry_equiv_pos_as_xyz
1 x,y,z
2 -x,1/2+y,1/2-z
3 -x,-y,-z
4 x,1/2-y,1/2+z
_cell_length_a                   17.7676(16)
_cell_length_b                   13.1380(13)
_cell_length_c                   11.4852(11)
_cell_angle_alpha                90
_cell_angle_beta                 108.261(2)
_cell_angle_gamma                90
_cell_volume                     2545.98
_exptl_crystal_colour            colorless
_exptl_crystal_description       prismatic
_cell_formula_units_Z            4
loop_
_atom_site_label
_atom_site_type_symbol
_atom_site_fract_x
_atom_site_fract_y
_atom_site_fract_z
N1 N 0.28793(14) 0.71370(18) 0.1340(2)
H1 H 0.2884 0.7428 0.0672
C1 C 0.33224(15) 0.6249(2) 0.1632(2)
C2 C 0.35062(16) 0.5742(2) 0.0694(2)
H2 H 0.3311 0.5986 -0.0105
C3 C 0.39711(17) 0.4888(2) 0.0930(2)
H3 H 0.4093 0.4575 0.0286
C4 C 0.42689(15) 0.4470(2) 0.2101(2)
C5 C 0.40892(16) 0.4997(2) 0.3021(2)
H4 H 0.4286 0.4755 0.3821
C6 C 0.36305(17) 0.5864(2) 0.2803(2)
H5 H 0.3528 0.6195 0.3453
C7 C 0.47709(17) 0.3505(2) 0.2313(3)
C8 C 0.5460(2) 0.3688(3) 0.1771(4)
H6 H 0.5779 0.4248 0.2187
H7 H 0.5246 0.3841 0.0913
H8 H 0.5782 0.3087 0.1878
C9 C 0.5169(2) 0.3290(3) 0.3654(3)
H9 H 0.4773 0.3159 0.4044
H10 H 0.5480 0.3869 0.4032
H11 H 0.5506 0.2706 0.3741
C10 C 0.4322(2) 0.2591(3) 0.1546(3)
H12 H 0.4700 0.2037 0.1676
H13 H 0.4194 0.2786 0.0692
C11 C 0.3549(2) 0.2131(3) 0.1704(3)
C12 C 0.2868(3) 0.2861(4) 0.1300(7)
H14 H 0.2382 0.2487 0.0982
H15 H 0.2938 0.3297 0.0671
H16 H 0.2848 0.3265 0.1985
C13 C 0.3370(3) 0.1250(4) 0.0808(4)
H17 H 0.3575 0.1398 0.0146
H18 H 0.2807 0.1152 0.0489
H19 H 0.3615 0.0643 0.1220
C14 C 0.3689(5) 0.1698(6) 0.2948(5)
H20 H 0.4226 0.1829 0.3440
H21 H 0.3597 0.0977 0.2886
H22 H 0.3333 0.2009 0.3323
C15 C 0.24268(15) 0.7629(2) 0.1969(2)
C16 C 0.21175(16) 0.7158(2) 0.2791(3)
H23 H 0.2235 0.6478 0.2993
C17 C 0.16335(17) 0.7687(2) 0.3318(3)
H24 H 0.1434 0.7350 0.3870
C18 C 0.14367(16) 0.8692(2) 0.3055(3)
C19 C 0.17542(18) 0.9152(2) 0.2240(3)
H25 H 0.1635 0.9831 0.2037
C20 C 0.22417(17) 0.8643(2) 0.1714(3)
H26 H 0.2450 0.8987 0.1178
C21 C 0.08906(19) 0.9284(3) 0.3625(3)
C22 C 0.0681(4) 0.8611(6) 0.4614(5)
H27 H 0.1143 0.8533 0.5317
H28 H 0.0502 0.7953 0.4272
H29 H 0.0269 0.8935 0.4855
C23 C 0.1356(4) 1.0216(6) 0.4278(8)
H30 H 0.1482 1.0646 0.3690
H31 H 0.1836 0.9997 0.4881
H32 H 0.1039 1.0590 0.4673
C24 C 0.0145(3) 0.9664(4) 0.2669(4)
H33 H 0.0318 1.0085 0.2108
H34 H -0.0113 1.0117 0.3093
C25 C -0.0511(6) 0.8954(9) 0.1864(9)
C26 C -0.1080(6) 0.9765(8) 0.1194(10)
H35 H -0.1536 0.9451 0.0625
H36 H -0.0825 1.0195 0.0756
H37 H -0.1242 1.0165 0.1772
C27 C -0.0214(6) 0.8335(7) 0.1007(7)
H38 H -0.0631 0.7903 0.0525
H39 H 0.0224 0.7924 0.1471
H40 H -0.0044 0.8780 0.0476
C28 C -0.0974(6) 0.8275(8) 0.2440(10)
H41 H -0.1347 0.7884 0.1814
H42 H -0.1252 0.8682 0.2866
H43 H -0.0617 0.7823 0.3009
C29? C 0.304(2) 0.148(3) 0.261(2)
H44? H 0.3394 0.1391 0.3429
H45? H 0.2863 0.0830 0.2253
H46? H 0.2592 0.1880 0.2637
C30? C 0.1271(14) 0.943(2) 0.4881(18)
H47? H 0.1635 0.9992 0.4995
H48? H 0.1555 0.8827 0.5228
H49? H 0.0883 0.9582 0.5280
C31? C 0.0859(14) 1.0473(14) 0.325(2)
H50? H 0.0614 1.0855 0.3748
H51? H 0.0557 1.0551 0.2404
H52? H 0.1388 1.0720 0.3386
C32? C 0.0065(7) 0.8881(15) 0.3270(13)
H53? H -0.0198 0.9201 0.3798
H54? H 0.0098 0.8159 0.3457
C33? C -0.0504(14) 0.901(3) 0.1871(19)
C34? C -0.0986(13) 0.961(2) 0.0669(16)
H55? H -0.1308 0.9137 0.0084
H56? H -0.0623 0.9939 0.0324
H57? H -0.1319 1.0108 0.0871
C35? C -0.0232(17) 0.804(2) 0.136(2)
H58? H -0.0503 0.7984 0.0498
H59? H -0.0355 0.7451 0.1772
H60? H 0.0329 0.8065 0.1502
C36? C -0.1175(10) 0.8818(18) 0.242(2)
H61? H -0.1677 0.8893 0.1790
H62? H -0.1139 0.9299 0.3062
H63? H -0.1129 0.8140 0.2744
loop_
_geom_bond_atom_site_label_1
_geom_bond_atom_site_label_2
_geom_bond_site_symmetry_1
_geom_bond_site_symmetry_2
N1 H1 1_555 1_555
C1 N1 1_555 1_555
C2 C1 1_555 1_555
H2 C2 1_555 1_555
C3 C2 1_555 1_555
H3 C3 1_555 1_555
C4 C3 1_555 1_555
C5 C4 1_555 1_555
H4 C5 1_555 1_555
C6 C1 1_555 1_555
H5 C6 1_555 1_555
C7 C4 1_555 1_555
C8 C7 1_555 1_555
H6 C8 1_555 1_555
H7 C8 1_555 1_555
H8 C8 1_555 1_555
C9 C7 1_555 1_555
H9 C9 1_555 1_555
H10 C9 1_555 1_555
H11 C9 1_555 1_555
C10 C7 1_555 1_555
H12 C10 1_555 1_555
H13 C10 1_555 1_555
C11 C10 1_555 1_555
C12 C11 1_555 1_555
H14 C12 1_555 1_555
H15 C12 1_555 1_555
H16 C12 1_555 1_555
C13 C11 1_555 1_555
H17 C13 1_555 1_555
H18 C13 1_555 1_555
H19 C13 1_555 1_555
C14 C11 1_555 1_555
H20 C14 1_555 1_555
H21 C14 1_555 1_555
H22 C14 1_555 1_555
C15 N1 1_555 1_555
C16 C15 1_555 1_555
H23 C16 1_555 1_555
C17 C16 1_555 1_555
H24 C17 1_555 1_555
C18 C17 1_555 1_555
C19 C18 1_555 1_555
H25 C19 1_555 1_555
C20 C15 1_555 1_555
H26 C20 1_555 1_555
C21 C18 1_555 1_555
C22 C21 1_555 1_555
H27 C22 1_555 1_555
H28 C22 1_555 1_555
H29 C22 1_555 1_555
C23 C21 1_555 1_555
H30 C23 1_555 1_555
H31 C23 1_555 1_555
H32 C23 1_555 1_555
C24 C21 1_555 1_555
H33 C24 1_555 1_555
H34 C24 1_555 1_555
C25 C24 1_555 1_555
C26 C25 1_555 1_555
H35 C26 1_555 1_555
H36 C26 1_555 1_555
H37 C26 1_555 1_555
C27 C25 1_555 1_555
H38 C27 1_555 1_555
H39 C27 1_555 1_555
H40 C27 1_555 1_555
C28 C25 1_555 1_555
H41 C28 1_555 1_555
H42 C28 1_555 1_555
H43 C28 1_555 1_555
C5 C6 1_555 1_555
C19 C20 1_555 1_555

#END
