
#######################################################################
#
#                 Cambridge Crystallographic Data Centre
#                                CCDC 
#
#######################################################################
#
# If this CIF has been generated from an entry in the Cambridge 
# Structural Database, then it will include bibliographic, chemical, 
# crystal, experimental, refinement or atomic coordinate data resulting 
# from the CCDC's data processing and validation procedures.
#
#######################################################################

data_UJUTIE
_chemical_formula_moiety         'C10 H15 O4 S1 1-,C6 H16 N1 1+'
_chemical_name_systematic        'Di-n-propylammonium D-(+)-10-camphorsulfonate'
_symmetry_cell_setting           monoclinic
_symmetry_space_group_name_H-M   'P 21'
_symmetry_Int_Tables_number      4
_space_group_name_Hall           'P 2yb'
loop_
_symmetry_equiv_pos_site_id
_symmetry_equiv_pos_as_xyz
1 x,y,z
2 -x,1/2+y,-z
_cell_length_a                   13.7632(3)
_cell_length_b                   7.3472(2)
_cell_length_c                   18.3748(4)
_cell_angle_alpha                90
_cell_angle_beta                 107.385(2)
_cell_angle_gamma                90
_cell_volume                     1773.2
_exptl_crystal_colour            colorless
_exptl_crystal_description       block
_cell_formula_units_Z            4
loop_
_atom_site_label
_atom_site_type_symbol
_atom_site_fract_x
_atom_site_fract_y
_atom_site_fract_z
S1 S 0.22455(4) 0.50096(5) 0.22457(3)
O1 O 0.26486(12) 0.3280(3) 0.26050(10)
O2 O 0.27663(11) 0.6561(3) 0.26836(9)
O3 O 0.11426(12) 0.5120(2) 0.20498(11)
O4 O 0.32291(11) 0.8794(2) 0.13687(9)
C1 C 0.25114(17) 0.5044(3) 0.13447(14)
H1 H 0.2349 0.3827 0.1108
H2 H 0.2044 0.5927 0.1008
C2 C 0.35950(13) 0.5526(3) 0.13628(11)
C3 C 0.44848(16) 0.4938(3) 0.20693(13)
H3 H 0.4551 0.5780 0.2502
H4 H 0.4376 0.3688 0.2231
C4 C 0.54461(18) 0.5022(3) 0.17907(15)
H5 H 0.5961 0.5870 0.2106
H6 H 0.5757 0.3804 0.1801
C5 C 0.50083(14) 0.5731(3) 0.09659(11)
H7 H 0.5457 0.5516 0.0635
C6 C 0.37672(13) 0.7551(3) 0.12760(10)
C7 C 0.47208(14) 0.7730(3) 0.10227(11)
H8 H 0.5266 0.8397 0.1405
H9 H 0.4573 0.8353 0.0524
C8 C 0.39581(18) 0.4767(3) 0.06893(14)
C9 C 0.40401(16) 0.2693(3) 0.06874(12)
H10 H 0.4409 0.2321 0.0331
H11 H 0.3356 0.2161 0.0528
H12 H 0.4407 0.2267 0.1201
C10 C 0.32972(17) 0.5387(4) -0.01027(13)
H13 H 0.3641 0.5084 -0.0483
H14 H 0.3192 0.6705 -0.0099
H15 H 0.2637 0.4766 -0.0231
S2 S 0.77704(4) 0.00082(5) 0.27637(4)
O5 O 0.74105(12) 0.1700(3) 0.23591(10)
O6 O 0.72231(11) -0.1583(3) 0.23628(10)
O7 O 0.88715(12) -0.0220(3) 0.29711(11)
O8 O 0.67773(10) 0.3856(2) 0.36446(8)
C11 C 0.74944(17) 0.0112(3) 0.36589(14)
H16 H 0.7662 -0.1087 0.3911
H17 H 0.7959 0.1016 0.3985
C12 C 0.64113(13) 0.0595(3) 0.36398(11)
C13 C 0.55219(16) 0.0020(3) 0.29290(14)
H18 H 0.5457 0.0876 0.2501
H19 H 0.5633 -0.1222 0.2761
C14 C 0.45606(18) 0.0084(3) 0.32039(15)
H20 H 0.4044 0.0931 0.2890
H21 H 0.4253 -0.1139 0.3189
C15 C 0.60388(18) -0.0183(3) 0.43092(14)
C16 C 0.49909(14) 0.0779(3) 0.40293(11)
H22 H 0.4538 0.0557 0.4356
C17 C 0.62383(13) 0.2619(3) 0.37275(10)
C18 C 0.52787(14) 0.2783(3) 0.39772(11)
H23 H 0.4735 0.3450 0.3595
H24 H 0.5422 0.3400 0.4477
C19 C 0.66957(17) 0.0426(4) 0.51047(13)
H25 H 0.6357 0.0086 0.5485
H26 H 0.6786 0.1749 0.5109
H27 H 0.7362 -0.0170 0.5228
C20 C 0.59718(16) -0.2257(3) 0.43079(12)
H28 H 0.5584 -0.2645 0.4649
H29 H 0.6659 -0.2773 0.4484
H30 H 0.5630 -0.2686 0.3789
N1 N 0.17079(14) -0.0121(3) 0.23048(12)
H31 H 0.2241 -0.0919 0.2366
H32 H 0.1974 0.1037 0.2372
C21 C 0.10131(17) -0.0288(4) 0.15039(14)
H33 H 0.0762 -0.1557 0.1417
H34 H 0.1405 -0.0030 0.1143
C22 C 0.01072(17) 0.0993(4) 0.13372(14)
H35 H 0.0338 0.2223 0.1535
H36 H -0.0384 0.0553 0.1597
C23 C -0.04092(19) 0.1086(4) 0.04801(15)
H37 H -0.1019 0.1851 0.0377
H38 H -0.0604 -0.0143 0.0282
H39 H 0.0063 0.1609 0.0229
C24 C 0.12136(17) -0.0487(5) 0.29095(13)
H40 H 0.0956 -0.1753 0.2861
H41 H 0.0626 0.0342 0.2842
C25 C 0.19601(19) -0.0213(4) 0.36970(15)
H42 H 0.2182 0.1075 0.3760
H43 H 0.2569 -0.0982 0.3754
C26 C 0.14650(19) -0.0714(5) 0.43067(15)
H44 H 0.1948 -0.0499 0.4812
H45 H 0.1272 -0.2002 0.4256
H46 H 0.0857 0.0036 0.4245
C27 C -0.10158(17) 0.5303(4) 0.34985(14)
H47 H -0.1419 0.5062 0.3853
H48 H -0.0758 0.6567 0.3587
C28 C -0.01195(17) 0.4017(4) 0.36825(15)
H49 H 0.0376 0.4430 0.3422
H50 H -0.0355 0.2784 0.3493
C29 C 0.03969(19) 0.3946(5) 0.45409(15)
H51 H 0.1005 0.3177 0.4648
H52 H -0.0076 0.3436 0.4794
H53 H 0.0593 0.5178 0.4733
C30 C -0.11904(17) 0.5461(5) 0.20981(14)
H54 H -0.0621 0.4589 0.2169
H55 H -0.0905 0.6707 0.2150
C31 C -0.19305(19) 0.5225(4) 0.13101(15)
H56 H -0.2532 0.6012 0.1255
H57 H -0.2166 0.3945 0.1239
C32 C -0.1427(2) 0.5721(5) 0.07070(15)
H58 H -0.1871 0.5363 0.0203
H59 H -0.0774 0.5083 0.0812
H60 H -0.1311 0.7038 0.0716
N2 N -0.17002(14) 0.5149(3) 0.26982(12)
H61 H -0.1986 0.4005 0.2632
H62 H -0.2221 0.5977 0.2631
loop_
_geom_bond_atom_site_label_1
_geom_bond_atom_site_label_2
_geom_bond_site_symmetry_1
_geom_bond_site_symmetry_2
S1 O1 1_555 1_555
O2 S1 1_555 1_555
O3 S1 1_555 1_555
O4 C6 1_555 1_555
C1 S1 1_555 1_555
H1 C1 1_555 1_555
H2 C1 1_555 1_555
C2 C1 1_555 1_555
C3 C2 1_555 1_555
H3 C3 1_555 1_555
H4 C3 1_555 1_555
C4 C3 1_555 1_555
H5 C4 1_555 1_555
H6 C4 1_555 1_555
C5 C4 1_555 1_555
H7 C5 1_555 1_555
C6 C2 1_555 1_555
C7 C5 1_555 1_555
H8 C7 1_555 1_555
H9 C7 1_555 1_555
C8 C2 1_555 1_555
C9 C8 1_555 1_555
H10 C9 1_555 1_555
H11 C9 1_555 1_555
H12 C9 1_555 1_555
C10 C8 1_555 1_555
H13 C10 1_555 1_555
H14 C10 1_555 1_555
H15 C10 1_555 1_555
S2 O5 1_555 1_555
O6 S2 1_555 1_555
O7 S2 1_555 1_555
O8 C17 1_555 1_555
C11 S2 1_555 1_555
H16 C11 1_555 1_555
H17 C11 1_555 1_555
C12 C11 1_555 1_555
C13 C12 1_555 1_555
H18 C13 1_555 1_555
H19 C13 1_555 1_555
C14 C13 1_555 1_555
H20 C14 1_555 1_555
H21 C14 1_555 1_555
C15 C12 1_555 1_555
C16 C14 1_555 1_555
H22 C16 1_555 1_555
C17 C12 1_555 1_555
C18 C16 1_555 1_555
H23 C18 1_555 1_555
H24 C18 1_555 1_555
C19 C15 1_555 1_555
H25 C19 1_555 1_555
H26 C19 1_555 1_555
H27 C19 1_555 1_555
C20 C15 1_555 1_555
H28 C20 1_555 1_555
H29 C20 1_555 1_555
H30 C20 1_555 1_555
N1 H31 1_555 1_555
H32 N1 1_555 1_555
C21 N1 1_555 1_555
H33 C21 1_555 1_555
H34 C21 1_555 1_555
C22 C21 1_555 1_555
H35 C22 1_555 1_555
H36 C22 1_555 1_555
C23 C22 1_555 1_555
H37 C23 1_555 1_555
H38 C23 1_555 1_555
H39 C23 1_555 1_555
C24 N1 1_555 1_555
H40 C24 1_555 1_555
H41 C24 1_555 1_555
C25 C24 1_555 1_555
H42 C25 1_555 1_555
H43 C25 1_555 1_555
C26 C25 1_555 1_555
H44 C26 1_555 1_555
H45 C26 1_555 1_555
H46 C26 1_555 1_555
C27 H47 1_555 1_555
H48 C27 1_555 1_555
C28 C27 1_555 1_555
H49 C28 1_555 1_555
H50 C28 1_555 1_555
C29 C28 1_555 1_555
H51 C29 1_555 1_555
H52 C29 1_555 1_555
H53 C29 1_555 1_555
C30 H54 1_555 1_555
H55 C30 1_555 1_555
C31 C30 1_555 1_555
H56 C31 1_555 1_555
H57 C31 1_555 1_555
C32 C31 1_555 1_555
H58 C32 1_555 1_555
H59 C32 1_555 1_555
H60 C32 1_555 1_555
N2 C27 1_555 1_555
H61 N2 1_555 1_555
H62 N2 1_555 1_555
C5 C8 1_555 1_555
C6 C7 1_555 1_555
C15 C16 1_555 1_555
C17 C18 1_555 1_555
C30 N2 1_555 1_555

#END
