
#######################################################################
#
#                 Cambridge Crystallographic Data Centre
#                                CCDC 
#
#######################################################################
#
# If this CIF has been generated from an entry in the Cambridge 
# Structural Database, then it will include bibliographic, chemical, 
# crystal, experimental, refinement or atomic coordinate data resulting 
# from the CCDC's data processing and validation procedures.
#
#######################################################################

data_UJUVUQ01
_chemical_formula_moiety         'C16 H15 N3 O2'
_chemical_name_systematic        
4-(2-Furanylmethyleneamino)-1,5-dimethyl-2-phenyl-1,2-dihydropyrazol-3-one
_symmetry_cell_setting           monoclinic
_symmetry_space_group_name_H-M   'P 21/c'
_symmetry_Int_Tables_number      14
_space_group_name_Hall           '-P 2ybc'
loop_
_symmetry_equiv_pos_site_id
_symmetry_equiv_pos_as_xyz
1 x,y,z
2 -x,1/2+y,1/2-z
3 -x,-y,-z
4 x,1/2-y,1/2+z
_cell_length_a                   11.150(3)
_cell_length_b                   9.906(3)
_cell_length_c                   13.624(4)
_cell_angle_alpha                90
_cell_angle_beta                 106.360(4)
_cell_angle_gamma                90
_cell_volume                     1443.87
_exptl_crystal_colour            colorless
_exptl_crystal_description       rod
_cell_formula_units_Z            4
loop_
_atom_site_label
_atom_site_type_symbol
_atom_site_fract_x
_atom_site_fract_y
_atom_site_fract_z
N1 N 0.44836(18) 0.2752(2) 0.49461(15)
N2 N 0.42959(18) 0.1845(2) 0.41312(14)
N3 N 0.74347(18) 0.0982(2) 0.54517(15)
O1 O 0.60425(16) 0.3094(2) 0.64606(15)
O2 O 0.97691(19) -0.0182(2) 0.60757(17)
C1 C 0.5676(2) 0.2538(3) 0.5620(2)
C2 C 0.6245(2) 0.1563(2) 0.51141(18)
C3 C 0.5402(2) 0.1202(2) 0.42211(17)
C4 C 0.5555(3) 0.0279(3) 0.3416(2)
C5 C 0.3453(4) 0.2247(5) 0.3152(3)
C6 C 0.8185(2) 0.1317(3) 0.6310(2)
C7 C 0.9398(2) 0.0719(3) 0.66779(19)
C8 C 1.0304(3) 0.0845(4) 0.7557(3)
C9 C 1.1283(3) -0.0011(4) 0.7514(4)
C10 C 1.0933(3) -0.0605(4) 0.6631(4)
C11 C 0.3441(2) 0.3283(3) 0.52308(18)
C12 C 0.2396(3) 0.2514(4) 0.5151(2)
C13 C 0.1412(3) 0.3065(4) 0.5436(2)
C14 C 0.1484(4) 0.4357(5) 0.5800(3)
C15 C 0.2535(4) 0.5117(4) 0.5884(3)
C16 C 0.3523(3) 0.4587(3) 0.5593(2)
H1 H 0.561(2) 0.080(3) 0.283(2)
H2 H 0.632(3) -0.020(3) 0.365(2)
H3 H 0.488(3) -0.038(3) 0.3191(19)
H4 H 0.357(3) 0.164(4) 0.270(3)
H5 H 0.271(4) 0.251(4) 0.320(3)
H6 H 0.366(4) 0.315(4) 0.292(3)
H7 H 0.799(2) 0.195(2) 0.6749(18)
H8 H 1.022(3) 0.136(3) 0.802(2)
H9 H 1.200(3) -0.012(3) 0.802(2)
H10 H 1.128(3) -0.127(4) 0.628(3)
H11 H 0.237(2) 0.167(3) 0.491(2)
H12 H 0.068(3) 0.252(3) 0.536(2)
H13 H 0.086(3) 0.473(3) 0.599(2)
H14 H 0.259(3) 0.597(3) 0.612(3)
H15 H 0.426(3) 0.511(3) 0.564(2)
loop_
_geom_bond_atom_site_label_1
_geom_bond_atom_site_label_2
_geom_bond_site_symmetry_1
_geom_bond_site_symmetry_2
N1 N2 1_555 1_555
N2 C3 1_555 1_555
N3 C2 1_555 1_555
O1 C1 1_555 1_555
O2 C7 1_555 1_555
C1 N1 1_555 1_555
C2 C1 1_555 1_555
C3 C2 1_555 1_555
C4 C3 1_555 1_555
C5 N2 1_555 1_555
C6 N3 1_555 1_555
C7 C6 1_555 1_555
C8 C7 1_555 1_555
C9 C8 1_555 1_555
C10 O2 1_555 1_555
C11 N1 1_555 1_555
C12 C11 1_555 1_555
C13 C12 1_555 1_555
C14 C13 1_555 1_555
C15 C14 1_555 1_555
C16 C11 1_555 1_555
H1 C4 1_555 1_555
H2 C4 1_555 1_555
H3 C4 1_555 1_555
H4 C5 1_555 1_555
H5 C5 1_555 1_555
H6 C5 1_555 1_555
H7 C6 1_555 1_555
H8 C8 1_555 1_555
H9 C9 1_555 1_555
H10 C10 1_555 1_555
H11 C12 1_555 1_555
H12 C13 1_555 1_555
H13 C14 1_555 1_555
H14 C15 1_555 1_555
H15 C16 1_555 1_555
C9 C10 1_555 1_555
C15 C16 1_555 1_555

#END
