
#######################################################################
#
#                 Cambridge Crystallographic Data Centre
#                                CCDC 
#
#######################################################################
#
# If this CIF has been generated from an entry in the Cambridge 
# Structural Database, then it will include bibliographic, chemical, 
# crystal, experimental, refinement or atomic coordinate data resulting 
# from the CCDC's data processing and validation procedures.
#
#######################################################################

data_UJUYED
_chemical_formula_moiety         'C26 H33 N1 O4'
_chemical_name_systematic        
(4S,2'S,3'S,5'S)-3-(7'-Benzyloxy-2',3',5'-trimethylheptanoyl)-4-phenyl-1,3-oxazolidin-2-one
_symmetry_cell_setting           monoclinic
_symmetry_space_group_name_H-M   'C 2'
_symmetry_Int_Tables_number      5
_space_group_name_Hall           'C 2y'
loop_
_symmetry_equiv_pos_site_id
_symmetry_equiv_pos_as_xyz
1 x,y,z
2 -x,y,-z
3 1/2+x,1/2+y,z
4 1/2-x,1/2+y,-z
_cell_length_a                   29.048(7)
_cell_length_b                   5.7108(6)
_cell_length_c                   14.709(3)
_cell_angle_alpha                90
_cell_angle_beta                 102.212(8)
_cell_angle_gamma                90
_cell_volume                     2384.82
_exptl_crystal_colour            colorless
_exptl_crystal_description       prism
_cell_formula_units_Z            4
loop_
_atom_site_label
_atom_site_type_symbol
_atom_site_fract_x
_atom_site_fract_y
_atom_site_fract_z
C1 C -0.0669(2) 0.5481(14) -0.3634(4)
H1 H -0.0905 0.4429 -0.3979
H2 H -0.0830 0.6750 -0.3390
C2 C -0.0350(2) 0.4158(13) -0.2831(4)
H3 H -0.0186 0.2928 -0.3090
H4 H -0.0545 0.3418 -0.2454
C3 C 0.0023(2) 0.5749(12) -0.2191(4)
H5 H 0.0213 0.6535 -0.2577
C4 C -0.0218(2) 0.7616(13) -0.1703(4)
H6 H -0.0413 0.8588 -0.2160
H7 H 0.0017 0.8562 -0.1313
H8 H -0.0409 0.6865 -0.1328
C5 C 0.0343(2) 0.4094(12) -0.1509(4)
H9 H 0.0483 0.2974 -0.1867
H10 H 0.0149 0.3223 -0.1167
C6 C 0.07470(19) 0.5296(11) -0.0796(4)
H11 H 0.0608 0.6249 -0.0369
C7 C 0.1050(2) 0.6884(13) -0.1282(4)
H12 H 0.1294 0.7599 -0.0823
H13 H 0.0855 0.8079 -0.1627
H14 H 0.1190 0.5963 -0.1698
C8 C 0.1053(2) 0.3313(12) -0.0229(4)
H15 H 0.1196 0.2372 -0.0653
C9 C 0.0782(2) 0.1671(11) 0.0315(4)
H16 H 0.0515 0.1010 -0.0105
H17 H 0.0676 0.2551 0.0788
H18 H 0.0987 0.0437 0.0599
C10 C 0.1447(2) 0.4391(12) 0.0529(4)
C11 C 0.2115(2) 0.2403(13) -0.0036(4)
C12 C 0.26535(19) 0.2206(13) 0.1367(4)
H19 H 0.2954 0.2944 0.1617
H20 H 0.2648 0.0685 0.1658
C13 C 0.22434(19) 0.3755(12) 0.1545(4)
H21 H 0.2332 0.5412 0.1559
C14 C 0.2081(2) 0.3093(13) 0.2441(4)
C15 C 0.2206(2) 0.4592(13) 0.3212(4)
H22 H 0.2364 0.5982 0.3156
C16 C 0.2094(2) 0.4008(14) 0.4064(4)
H23 H 0.2178 0.5010 0.4570
C17 C 0.1854(2) 0.1923(14) 0.4157(4)
H24 H 0.1780 0.1541 0.4725
C18 C 0.1725(2) 0.0408(14) 0.3393(5)
H25 H 0.1564 -0.0974 0.3449
C19 C 0.18444(19) 0.1018(12) 0.2525(4)
H26 H 0.1763 0.0020 0.2017
C20 C -0.0654(2) 0.7625(14) -0.5042(4)
H27 H -0.0445 0.8362 -0.5391
H28 H -0.0838 0.8845 -0.4829
C21 C -0.0983(2) 0.5942(13) -0.5674(4)
C22 C -0.0797(2) 0.3952(13) -0.6038(5)
H29 H -0.0474 0.3691 -0.5900
C23 C -0.1097(2) 0.2361(14) -0.6611(4)
H30 H -0.0974 0.1049 -0.6851
C24 C -0.1581(2) 0.2789(14) -0.6811(4)
H31 H -0.1783 0.1748 -0.7187
C25 C -0.1767(2) 0.4758(14) -0.6455(4)
H32 H -0.2091 0.5015 -0.6596
C26 C -0.1469(2) 0.6354(13) -0.5886(4)
H33 H -0.1593 0.7670 -0.5653
N1 N 0.18904(16) 0.3217(9) 0.0681(3)
O1 O -0.03758(13) 0.6412(8) -0.4244(3)
O2 O 0.13851(13) 0.5979(8) 0.1044(3)
O3 O 0.19588(13) 0.2072(9) -0.0845(3)
O4 O 0.25807(12) 0.1961(9) 0.0355(3)
loop_
_geom_bond_atom_site_label_1
_geom_bond_atom_site_label_2
_geom_bond_site_symmetry_1
_geom_bond_site_symmetry_2
C1 H1 1_555 1_555
H2 C1 1_555 1_555
C2 C1 1_555 1_555
H3 C2 1_555 1_555
H4 C2 1_555 1_555
C3 C2 1_555 1_555
H5 C3 1_555 1_555
C4 C3 1_555 1_555
H6 C4 1_555 1_555
H7 C4 1_555 1_555
H8 C4 1_555 1_555
C5 C3 1_555 1_555
H9 C5 1_555 1_555
H10 C5 1_555 1_555
C6 C5 1_555 1_555
H11 C6 1_555 1_555
C7 C6 1_555 1_555
H12 C7 1_555 1_555
H13 C7 1_555 1_555
H14 C7 1_555 1_555
C8 C6 1_555 1_555
H15 C8 1_555 1_555
C9 C8 1_555 1_555
H16 C9 1_555 1_555
H17 C9 1_555 1_555
H18 C9 1_555 1_555
C10 C8 1_555 1_555
C11 N1 1_555 1_555
C12 H19 1_555 1_555
H20 C12 1_555 1_555
C13 C12 1_555 1_555
H21 C13 1_555 1_555
C14 C13 1_555 1_555
C15 C14 1_555 1_555
H22 C15 1_555 1_555
C16 C15 1_555 1_555
H23 C16 1_555 1_555
C17 C16 1_555 1_555
H24 C17 1_555 1_555
C18 C17 1_555 1_555
H25 C18 1_555 1_555
C19 C14 1_555 1_555
H26 C19 1_555 1_555
C20 H27 1_555 1_555
H28 C20 1_555 1_555
C21 C20 1_555 1_555
C22 C21 1_555 1_555
H29 C22 1_555 1_555
C23 C22 1_555 1_555
H30 C23 1_555 1_555
C24 C23 1_555 1_555
H31 C24 1_555 1_555
C25 C24 1_555 1_555
H32 C25 1_555 1_555
C26 C21 1_555 1_555
H33 C26 1_555 1_555
N1 C10 1_555 1_555
O1 C1 1_555 1_555
O2 C10 1_555 1_555
O3 C11 1_555 1_555
O4 C11 1_555 1_555
C12 O4 1_555 1_555
C13 N1 1_555 1_555
C18 C19 1_555 1_555
C20 O1 1_555 1_555
C25 C26 1_555 1_555

#END
