
#######################################################################
#
#                 Cambridge Crystallographic Data Centre
#                                CCDC 
#
#######################################################################
#
# If this CIF has been generated from an entry in the Cambridge 
# Structural Database, then it will include bibliographic, chemical, 
# crystal, experimental, refinement or atomic coordinate data resulting 
# from the CCDC's data processing and validation procedures.
#
#######################################################################

data_UKABEN02
_chemical_formula_moiety         'C18 H18 O9'
_chemical_name_systematic        
"Methyl (2R,4aR,6S,9aR,9bS)-4,4a,6,8,9a,9b-hexahydro-9a-hydroxy-6-methoxy-8-oxo-2-phenylfuro[2',3':4,5]pyrano[3,2-d]-1,3-dioxin-7-carboxylate"
_symmetry_cell_setting           orthorhombic
_symmetry_space_group_name_H-M   'P 21 21 21'
_symmetry_Int_Tables_number      19
_space_group_name_Hall           'P 2ac 2ab'
loop_
_symmetry_equiv_pos_site_id
_symmetry_equiv_pos_as_xyz
1 x,y,z
2 1/2-x,-y,1/2+z
3 -x,1/2+y,1/2-z
4 1/2+x,1/2-y,-z
_cell_length_a                   6.2914(13)
_cell_length_b                   11.579(2)
_cell_length_c                   23.725(5)
_cell_angle_alpha                90
_cell_angle_beta                 90
_cell_angle_gamma                90
_cell_volume                     1728.32
_exptl_crystal_colour            colorless
_exptl_crystal_description       prismatic
_cell_formula_units_Z            4
_exptl_crystal_recrystallization_method ethanol/acetate
loop_
_atom_site_label
_atom_site_type_symbol
_atom_site_fract_x
_atom_site_fract_y
_atom_site_fract_z
O1 O -0.1769(5) 0.6700(3) 0.17067(14)
O2 O 0.0697(4) 0.8202(3) 0.16601(12)
O3 O 0.1423(5) 1.0727(3) 0.13107(13)
O4 O 0.1392(6) 1.2654(3) 0.13523(16)
O5 O -0.4105(5) 0.9019(3) 0.08792(13)
O6 O -0.2497(6) 0.9229(3) -0.00034(13)
O7 O -0.3869(6) 1.2374(3) 0.01945(15)
O8 O -0.2736(6) 1.3438(3) 0.09164(14)
O9 O 0.1573(9) 0.9327(5) 0.0653(2)
H1 H 0.265(16) 0.920(8) 0.093(4)
C1 C -0.3302(6) 0.9798(4) 0.04599(17)
H2 H -0.4433 1.0327 0.0341
C2 C -0.1518(7) 1.0475(4) 0.07293(17)
C3 C 0.0196(7) 0.9828(4) 0.10292(19)
C4 C -0.0813(7) 0.8979(4) 0.14365(18)
H3 H -0.1511 0.9400 0.1743
C5 C -0.2462(7) 0.8277(4) 0.11070(18)
H4 H -0.1753 0.7871 0.0797
C6 C -0.3455(8) 0.7405(4) 0.1499(2)
H5 H -0.4170 0.7792 0.1808
H6 H -0.4486 0.6938 0.1298
C7 C -0.0304(8) 0.7352(4) 0.20134(19)
H7 H -0.1026 0.7737 0.2328
C8 C 0.1449(7) 0.6593(4) 0.22372(18)
C9 C 0.1911(8) 0.5511(4) 0.20122(19)
H8 H 0.1051 0.5207 0.1730
C10 C 0.3624(8) 0.4891(5) 0.2203(2)
H9 H 0.3917 0.4172 0.2046
C11 C 0.4915(9) 0.5315(5) 0.2623(2)
H10 H 0.6084 0.4894 0.2747
C12 C 0.4444(8) 0.6384(5) 0.2858(2)
H11 H 0.5278 0.6673 0.3149
C13 C 0.2754(8) 0.7011(4) 0.2662(2)
H12 H 0.2474 0.7733 0.2817
C14 C 0.0596(7) 1.1791(4) 0.11828(18)
C15 C -0.1286(7) 1.1613(4) 0.08169(17)
C16 C -0.2795(8) 1.2510(4) 0.0603(2)
C17 C -0.4215(11) 1.4348(5) 0.0752(3)
H13 H -0.4066 1.4993 0.1003
H14 H -0.5644 1.4060 0.0770
H15 H -0.3907 1.4591 0.0373
C18 C -0.4006(11) 0.8759(7) -0.0361(3)
H16 H -0.3306 0.8377 -0.0669
H17 H -0.4900 0.9362 -0.0505
H18 H -0.4856 0.8211 -0.0158
loop_
_geom_bond_atom_site_label_1
_geom_bond_atom_site_label_2
_geom_bond_site_symmetry_1
_geom_bond_site_symmetry_2
O1 C6 1_555 1_555
O2 C4 1_555 1_555
O3 C3 1_555 1_555
O4 C14 1_555 1_555
O5 C1 1_555 1_555
O6 C1 1_555 1_555
O7 C16 1_555 1_555
O8 C16 1_555 1_555
O9 H1 1_555 1_555
C1 H2 1_555 1_555
C2 C1 1_555 1_555
C3 O9 1_555 1_555
C4 C3 1_555 1_555
H3 C4 1_555 1_555
C5 O5 1_555 1_555
H4 C5 1_555 1_555
C6 C5 1_555 1_555
H5 C6 1_555 1_555
H6 C6 1_555 1_555
C7 O1 1_555 1_555
H7 C7 1_555 1_555
C8 C7 1_555 1_555
C9 C8 1_555 1_555
H8 C9 1_555 1_555
C10 C9 1_555 1_555
H9 C10 1_555 1_555
C11 C10 1_555 1_555
H10 C11 1_555 1_555
C12 C11 1_555 1_555
H11 C12 1_555 1_555
C13 C8 1_555 1_555
H12 C13 1_555 1_555
C14 O3 1_555 1_555
C15 C2 1_555 1_555
C16 C15 1_555 1_555
C17 O8 1_555 1_555
H13 C17 1_555 1_555
H14 C17 1_555 1_555
H15 C17 1_555 1_555
C18 O6 1_555 1_555
H16 C18 1_555 1_555
H17 C18 1_555 1_555
H18 C18 1_555 1_555
O2 C7 1_555 1_555
C2 C3 1_555 1_555
C4 C5 1_555 1_555
C12 C13 1_555 1_555
C14 C15 1_555 1_555

#END
