
#######################################################################
#
#                 Cambridge Crystallographic Data Centre
#                                CCDC 
#
#######################################################################
#
# If this CIF has been generated from an entry in the Cambridge 
# Structural Database, then it will include bibliographic, chemical, 
# crystal, experimental, refinement or atomic coordinate data resulting 
# from the CCDC's data processing and validation procedures.
#
#######################################################################

data_UKABEN
_chemical_formula_moiety         'C18 H18 O9'
_chemical_name_systematic        
'Methyl 10-hydroxy-2-methoxy-7-phenyl-12-oxo-3,6,8,11-tetraoxatricyclo(8.3.0.0^4,9^)tridec-1(13)-ene-13-carboxylate'
_symmetry_cell_setting           orthorhombic
_symmetry_space_group_name_H-M   'P 21 21 21'
_symmetry_Int_Tables_number      19
_space_group_name_Hall           'P 2ac 2ab'
loop_
_symmetry_equiv_pos_site_id
_symmetry_equiv_pos_as_xyz
1 x,y,z
2 1/2-x,-y,1/2+z
3 -x,1/2+y,1/2-z
4 1/2+x,1/2-y,-z
_cell_length_a                   6.3659(13)
_cell_length_b                   11.591(2)
_cell_length_c                   23.782(5)
_cell_angle_alpha                90
_cell_angle_beta                 90
_cell_angle_gamma                90
_cell_volume                     1754.81
_exptl_crystal_colour            colorless
_exptl_crystal_description       prismatic
_cell_formula_units_Z            4
loop_
_atom_site_label
_atom_site_type_symbol
_atom_site_fract_x
_atom_site_fract_y
_atom_site_fract_z
O1 O 0.7481(4) 0.57590(17) -0.00019(8)
O2 O 0.3673(4) 0.23197(17) 0.13605(10)
O3 O 0.3613(4) 0.42576(15) 0.13265(8)
O4 O 0.4249(3) 0.67819(15) 0.16629(8)
O5 O 0.9037(3) 0.59804(15) 0.08923(8)
O6 O 0.6697(3) 0.82983(15) 0.17125(9)
O7 O 0.8799(4) 0.2629(2) 0.01844(11)
O8 O 0.7749(4) 0.15617(16) 0.09195(9)
O9 O 0.3404(4) 0.56766(19) 0.06555(9)
H1 H 0.2472 0.6017 0.0826
C1 C 0.8268(5) 0.5189(2) 0.04691(11)
H2 H 0.9391 0.4659 0.0357
C2 C 0.6483(5) 0.4520(2) 0.07313(10)
C3 C 0.4760(5) 0.5152(2) 0.10395(11)
C4 C 0.5782(5) 0.6008(2) 0.14384(11)
H3 H 0.6476 0.5592 0.1745
C5 C 0.7403(4) 0.6713(2) 0.11102(12)
H4 H 0.6707 0.7112 0.0798
C6 C 0.8379(5) 0.7595(2) 0.15032(14)
H5 H 0.9091 0.7211 0.1811
H6 H 0.9392 0.8065 0.1303
C7 C 0.9043(8) 0.6204(4) -0.03551(17)
H7 H 0.8399 0.6593 -0.0667
H8 H 0.9905 0.5585 -0.0492
H9 H 0.9896 0.6740 -0.0149
C8 C 0.6288(5) 0.3394(2) 0.08188(12)
C9 C 0.7755(5) 0.2489(2) 0.06038(14)
C10 C 0.9248(7) 0.0667(3) 0.07572(17)
H10 H 0.9127 0.0024 0.1010
H11 H 1.0649 0.0972 0.0775
H12 H 0.8954 0.0417 0.0380
C11 C 0.5244(5) 0.7642(3) 0.20228(12)
H13 H 0.5957 0.7260 0.2337
C12 C 0.3503(5) 0.8399(2) 0.22420(11)
C13 C 0.2227(6) 0.7980(2) 0.26679(12)
H14 H 0.2526 0.7266 0.2828
C14 C 0.0533(6) 0.8597(3) 0.28567(14)
H15 H -0.0323 0.8296 0.3138
C15 C 0.0092(6) 0.9675(3) 0.26281(14)
H16 H -0.1053 1.0100 0.2755
C16 C 0.1368(6) 1.0104(3) 0.22130(13)
H17 H 0.1081 1.0824 0.2059
C17 C 0.3076(5) 0.9480(2) 0.20198(12)
H18 H 0.3936 0.9786 0.1741
C18 C 0.4429(5) 0.3191(2) 0.11896(13)
loop_
_geom_bond_atom_site_label_1
_geom_bond_atom_site_label_2
_geom_bond_site_symmetry_1
_geom_bond_site_symmetry_2
O1 C1 1_555 1_555
O2 C18 1_555 1_555
O3 C3 1_555 1_555
O4 C4 1_555 1_555
O5 C1 1_555 1_555
O6 C6 1_555 1_555
O7 C9 1_555 1_555
O8 C9 1_555 1_555
O9 H1 1_555 1_555
C1 H2 1_555 1_555
C2 C1 1_555 1_555
C3 O9 1_555 1_555
C4 C3 1_555 1_555
H3 C4 1_555 1_555
C5 O5 1_555 1_555
H4 C5 1_555 1_555
C6 C5 1_555 1_555
H5 C6 1_555 1_555
H6 C6 1_555 1_555
C7 O1 1_555 1_555
H7 C7 1_555 1_555
H8 C7 1_555 1_555
H9 C7 1_555 1_555
C8 C2 1_555 1_555
C9 C8 1_555 1_555
C10 O8 1_555 1_555
H10 C10 1_555 1_555
H11 C10 1_555 1_555
H12 C10 1_555 1_555
C11 O4 1_555 1_555
H13 C11 1_555 1_555
C12 C11 1_555 1_555
C13 C12 1_555 1_555
H14 C13 1_555 1_555
C14 C13 1_555 1_555
H15 C14 1_555 1_555
C15 C14 1_555 1_555
H16 C15 1_555 1_555
C16 C15 1_555 1_555
H17 C16 1_555 1_555
C17 C12 1_555 1_555
H18 C17 1_555 1_555
C18 O3 1_555 1_555
O6 C11 1_555 1_555
C2 C3 1_555 1_555
C4 C5 1_555 1_555
C8 C18 1_555 1_555
C16 C17 1_555 1_555

#END
