
#######################################################################
#
#                 Cambridge Crystallographic Data Centre
#                                CCDC 
#
#######################################################################
#
# If this CIF has been generated from an entry in the Cambridge 
# Structural Database, then it will include bibliographic, chemical, 
# crystal, experimental, refinement or atomic coordinate data resulting 
# from the CCDC's data processing and validation procedures.
#
#######################################################################

data_UKAGOC
_chemical_formula_moiety         'C42 H70 O35,C10 H8 N2,9.5(H2 O1)'
_chemical_name_systematic        
"\b-D-Cyclodextrin 4,4'-bipyridine clathrate hydrate"
_symmetry_cell_setting           triclinic
_symmetry_space_group_name_H-M   'P 1'
_symmetry_Int_Tables_number      1
_space_group_name_Hall           'P 1'
loop_
_symmetry_equiv_pos_site_id
_symmetry_equiv_pos_as_xyz
1 x,y,z
_cell_length_a                   15.364(3)
_cell_length_b                   15.497(3)
_cell_length_c                   18.115(3)
_cell_angle_alpha                99.463(4)
_cell_angle_beta                 113.195(3)
_cell_angle_gamma                103.022(3)
_cell_volume                     3704.98
_exptl_crystal_colour            colorless
_cell_formula_units_Z            2
loop_
_atom_site_label
_atom_site_type_symbol
_atom_site_fract_x
_atom_site_fract_y
_atom_site_fract_z
C1 C 0.7475(6) 0.9623(5) 0.7880(5)
H1 H 0.7296 1.0184 0.7984
C2 C 0.7826(6) 0.9612(5) 0.721(5)
H2 H 0.8414 1.0158 0.7408
O1 O 0.7068(4) 0.9667(5) 0.6468(4)
H3 H 0.6925 0.9221 0.6079
C3 C 0.8132(6) 0.8758(6) 0.7051(5)
H4 H 0.7550 0.8206 0.6855
O2 O 0.8478(5) 0.8759(5) 0.6434(4)
H5 H 0.8838 0.8432 0.6485
C4 C 0.8946(6) 0.8740(6) 0.7864(5)
H6 H 0.9563 0.9241 0.8029
O3 O 0.9106(4) 0.7868(4) 0.7719(4)
C5 C 0.8624(6) 0.8831(6) 0.8553(5)
H7 H 0.8096 0.8264 0.8440
O4 O 0.8267(4) 0.9612(4) 0.8631(4)
C6 C 0.9502(9) 0.9013(10) 0.9415(6)
H8 H 1.001 0.9591 0.9543
H9 H 0.9797 0.8523 0.9408
O5 O 0.9169(7) 0.9055(7) 1.0017(5)
H10 H 0.9625 0.9090 1.0465
C7 C 1.0102(6) 0.7848(6) 0.7913(5)
H11 H 1.0546 0.8478 0.8061
C8 C 1.0038(6) 0.7268(6) 0.7107(5)
H12 H 1.0709 0.7239 0.7224
O6 O 0.9738(5) 0.7670(5) 0.6456(4)
H13 H 0.9306 0.7892 0.6471
C9 C 0.9367(6) 0.6303(5) 0.6898(4)
H14 H 0.8691 0.6310 0.6786
O7 O 0.9339(5) 0.5724(4) 0.6176(4)
H15 H 0.9470 0.6043 0.5891
C10 C 0.9777(6) 0.5917(5) 0.7633(5)
H16 H 1.0425 0.5853 0.7709
O8 O 0.9064(4) 0.5010(4) 0.7432(3)
C11 C 0.9896(6) 0.6540(6) 0.844(5)
H17 H 0.9235 0.6515 0.8399
O9 O 1.0457(4) 0.7475(4) 0.8571(3)
C12 C 1.0476(7) 0.6255(6) 0.9206(5)
H18 H 1.0087 0.5650 0.9175
H19 H 1.0577 0.6690 0.9706
O10 O 1.1399(5) 0.6226(5) 0.9263(4)
H20 H 1.1389 0.6175 0.8802
C13 C 0.9442(6) 0.4274(5) 0.7555(5)
H21 H 1.0162 0.4493 0.7726
C14 C 0.8928(6) 0.3524(5) 0.6712(5)
H22 H 0.9224 0.3028 0.6791
O11 O 0.9101(4) 0.3857(4) 0.6081(4)
H23 H 0.9155 0.4408 0.6168
C15 C 0.7841(6) 0.3121(5) 0.6457(4)
H24 H 0.7523 0.3601 0.6367
O12 O 0.7360(4) 0.2373(4) 0.5713(3)
H25 H 0.7371 0.2564 0.5320
C16 C 0.7718(5) 0.2761(6) 0.7162(5)
H26 H 0.8003 0.2258 0.7236
O13 O 0.6671(4) 0.2432(4) 0.6945(3)
C17 C 0.8242(6) 0.3540(6) 0.7970(5)
H27 H 0.7927 0.4024 0.7896
O14 O 0.9289(4) 0.3925(4) 0.8161(4)
C18 C 0.8205(8) 0.3236(8) 0.8690(6)
H28 H 0.7521 0.3053 0.8612
H29 H 0.8602 0.3743 0.9198
O15 O 0.8586(7) 0.2468(8) 0.8774(5)
H30 H 0.8308 0.2134 0.8978
C19 C 0.6278(6) 0.1509(5) 0.6935(5)
H31 H 0.6779 0.1196 0.6994
C20 C 0.5366(5) 0.1035(5) 0.6094(5)
H32 H 0.5082 0.0397 0.6081
O16 O 0.5634(4) 0.1015(4) 0.5430(3)
H33 H 0.5466 0.0477 0.5157
C21 C 0.4588(6) 0.1509(5) 0.6002(4)
H34 H 0.4860 0.2148 0.6008
O17 O 0.3709(4) 0.1052(4) 0.5235(3)
H35 H 0.3847 0.0732 0.4917
C22 C 0.4335(6) 0.1515(5) 0.6738(5)
H36 H 0.3966 0.0884 0.6683
O18 O 0.3699(4) 0.2082(4) 0.6680(4)
C23 C 0.524(6) 0.1889(5) 0.7572(5)
H37 H 0.5517 0.2555 0.7670
O19 O 0.6001(4) 0.1475(4) 0.7584(3)
C24 C 0.5056(7) 0.1741(7) 0.8296(5)
H38 H 0.4618 0.2079 0.8362
H39 H 0.5684 0.1982 0.8803
O20 O 0.4604(6) 0.0772(5) 0.8184(5)
H40 H 0.5043 0.0548 0.8403
C25 C 0.2765(7) 0.1722(6) 0.6697(6)
H41 H 0.2660 0.1075 0.6698
C26 C 0.1940(6) 0.1769(6) 0.5921(5)
H42 H 0.1301 0.1503 0.5927
O21 O 0.1918(5) 0.1250(4) 0.5178(4)
H43 H 0.2491 0.1342 0.5236
C27 C 0.2065(6) 0.2772(5) 0.5924(5)
H44 H 0.2693 0.3047 0.5905
O22 O 0.1247(4) 0.2815(4) 0.5211(4)
H45 H 0.1464 0.3143 0.4969
C28 C 0.2077(6) 0.3302(6) 0.6710(5)
H46 H 0.1426 0.3074 0.6706
O23 O 0.2304(4) 0.4244(3) 0.6745(3)
C29 C 0.2908(8) 0.3168(6) 0.7475(5)
H47 H 0.3566 0.3474 0.7521
O24 O 0.2785(5) 0.2222(5) 0.7425(4)
C30 C 0.2840(12) 0.3577(10) 0.8269(7)
H48 H 0.3025 0.4244 0.8386
H49 H 0.3303 0.3432 0.8739
O25 O 0.183(3) 0.3208(19) 0.8166(17)
H50 H 0.1751 0.3539 0.8517
C32 C 0.1622(5) 0.4698(5) 0.6829(5)
H54 H 0.1028 0.4238 0.6771
C33 C 0.1317(5) 0.5150(5) 0.6121(5)
H55 H 0.0844 0.5459 0.6172
O27 O 0.0834(4) 0.4483(4) 0.5330(3)
H56 H 0.0877 0.3979 0.5391
C34 C 0.2232(6) 0.5879(5) 0.6212(4)
H57 H 0.2714 0.5582 0.6164
O28 O 0.1933(5) 0.6302(4) 0.5570(3)
H58 H 0.2374 0.6786 0.5689
C35 C 0.2697(5) 0.6560(5) 0.7068(5)
H59 H 0.2242 0.6902 0.7097
O29 O 0.3619(4) 0.7198(3) 0.7177(3)
C36 C 0.2937(6) 0.6098(5) 0.7764(5)
H60 H 0.3468 0.5836 0.7787
O30 O 0.2056(4) 0.5362(4) 0.7612(3)
C37 C 0.3258(7) 0.6744(6) 0.8604(5)
H61 H 0.3886 0.7214 0.8759
H62 H 0.3373 0.6403 0.9017
O31 O 0.2545(5) 0.7182(4) 0.8620(4)
H63 H 0.2760 0.7729 0.8655
C38 C 0.3751(6) 0.8144(6) 0.7381(5)
H64 H 0.3139 0.8230 0.7382
C39 C 0.3931(6) 0.8542(5) 0.6725(5)
H65 H 0.3992 0.9198 0.6863
O32 O 0.3109(4) 0.8090(4) 0.5924(4)
H66 H 0.3037 0.7537 0.5807
C40 C 0.4906(6) 0.8459(5) 0.6736(5)
H67 H 0.4863 0.7807 0.6609
O33 O 0.5078(4) 0.8845(4) 0.6132(4)
H68 H 0.5537 0.9336 0.6369
C41 C 0.5740(6) 0.8967(5) 0.7592(5)
H69 H 0.5817 0.9627 0.7699
O34 O 0.6627(4) 0.8833(4) 0.7613(3)
C42 C 0.5513(6) 0.8608(6) 0.8259(5)
H70 H 0.5537 0.7975 0.8201
O35 O 0.4557(4) 0.8612(4) 0.8182(3)
C43 C 0.6234(8) 0.9195(8) 0.9154(6)
H71 H 0.6916 0.9244 0.9260
H72 H 0.6088 0.8908 0.9548
O36 O 0.6124(6) 1.0113(6) 0.9267(5)
H73 H 0.6662 1.0499 0.9603
C44 C 0.4927(5) 0.8790(5) 0.3170(5)
H74 H 0.5417 0.9357 0.3229
C45 C 0.4639(5) 0.8957(5) 0.3881(4)
H75 H 0.4327 0.9445 0.3835
O37 O 0.5498(4) 0.9250(4) 0.467(3)
H76 H 0.6001 0.9318 0.4599
C46 C 0.3885(6) 0.8084(5) 0.3794(4)
H77 H 0.4180 0.7584 0.3832
O38 O 0.36(4) 0.8254(4) 0.4454(3)
H78 H 0.3173 0.7790 0.4402
C47 C 0.2983(5) 0.7826(5) 0.2955(4)
H79 H 0.2637 0.8288 0.2937
O39 O 0.2329(4) 0.6931(3) 0.2841(3)
C48 C 0.3311(6) 0.7738(5) 0.2238(5)
H80 H 0.3573 0.7217 0.2220
O40 O 0.4072(4) 0.8558(4) 0.2389(3)
C49 C 0.2444(6) 0.7578(6) 0.1389(5)
H81 H 0.1950 0.6984 0.1243
H82 H 0.2685 0.7561 0.0968
O41 O 0.1985(5) 0.8284(5) 0.1387(4)
H83 H 0.2137 0.8624 0.1124
C50 C 0.1320(6) 0.6848(6) 0.2639(5)
H84 H 0.1225 0.7453 0.2638
C51 C 0.1082(5) 0.6511(5) 0.3293(5)
H85 H 0.0388 0.6469 0.3161
O42 O 0.1721(5) 0.7160(4) 0.4106(4)
H86 H 0.2290 0.7335 0.4155
C52 C 0.1184(6) 0.5577(6) 0.3296(5)
H87 H 0.1873 0.5601 0.3425
C53 C 0.0474(5) 0.4919(5) 0.2431(4)
H88 H -0.0218 0.4860 0.2319
O43 O 0.0915(5) 0.5241(4) 0.3897(4)
H89 H 0.0858 0.4690 0.3815
O44 O 0.0621(4) 0.4032(4) 0.2410(3)
C54 C 0.0702(6) 0.5284(6) 0.1770(5)
H90 H 0.1360 0.5261 0.1838
O45 O 0.0685(4) 0.6215(4) 0.1845(3)
C55 C -0.0093(8) 0.4731(7) 0.0878(5)
H91 H -0.0110 0.4092 0.0786
H92 H 0.009 0.4973 0.0480
O46 O -0.1041(6) 0.4772(6) 0.0736(5)
H93 H -0.1099 0.5249 0.0613
C56 C -0.0238(6) 0.3234(5) 0.2139(5)
H94 H -0.0829 0.3430 0.2035
C57 C -0.0067(6) 0.2768(6) 0.2814(5)
H95 H -0.0662 0.2230 0.2617
O47 O 0.0034(5) 0.3337(4) 0.3549(4)
H96 H 0.0286 0.3877 0.3584
C58 C 0.0820(6) 0.2407(6) 0.2965(5)
H97 H 0.1429 0.2930 0.3162
O48 O 0.0938(5) 0.1922(5) 0.3577(4)
H98 H 0.1533 0.1995 0.3852
C59 C 0.0625(6) 0.1784(6) 0.2143(5)
H99 H 0.0062 0.1224 0.1972
O49 O 0.1523(4) 0.1547(4) 0.2278(3)
C60 C 0.0411(7) 0.2274(6) 0.1465(5)
H100 H 0.1014 0.2781 0.1605
O50 O -0.0383(4) 0.2638(4) 0.1388(4)
C61 C 0.0087(11) 0.1635(10) 0.0615(7)
H101 H 0.0615 0.1389 0.0616
H102 H -0.0061 0.1966 0.0194
O51 O -0.0827(9) 0.0869(6) 0.0429(5)
H103 H -0.0858 0.0405 0.0115
C62 C 0.1434(6) 0.0585(6) 0.2069(5)
H104 H 0.0758 0.0203 0.1929
C63 C 0.2186(6) 0.0439(5) 0.2838(5)
H105 H 0.2151 -0.0211 0.2712
O52 O 0.1941(4) 0.0636(4) 0.3522(4)
H106 H 0.1902 0.0192 0.3713
C64 C 0.3218(6) 0.1017(6) 0.3059(5)
H107 H 0.3265 0.1670 0.3185
O53 O 0.3941(4) 0.0860(5) 0.3769(4)
H108 H 0.4143 0.1300 0.4181
C65 C 0.3446(5) 0.0777(5) 0.2324(5)
H109 H 0.3487 0.0149 0.2241
O54 O 0.4386(4) 0.1422(4) 0.2521(3)
C66 C 0.2627(6) 0.0849(5) 0.1514(5)
H110 H 0.268 0.1500 0.1566
O55 O 0.1660(4) 0.0356(4) 0.1386(3)
C67 C 0.2729(7) 0.0453(6) 0.0741(5)
H111 H 0.3350 0.0818 0.0771
H112 H 0.2181 0.0472 0.0245
O56 O 0.2718(6) -0.0461(5) 0.0691(4)
H113 H 0.3081 -0.0574 0.0483
C68 C 0.5136(6) 0.1078(6) 0.2420(5)
H114 H 0.4888 0.0402 0.2258
C69 C 0.6042(6) 0.1405(6) 0.3230(5)
H115 H 0.6531 0.1137 0.3153
O57 O 0.5856(4) 0.1098(4) 0.3869(4)
H116 H 0.5252 0.0855 0.3691
C70 C 0.6506(6) 0.2446(6) 0.3496(5)
H117 H 0.6034 0.2736 0.3577
O58 O 0.7411(4) 0.2755(4) 0.4247(3)
H118 H 0.7296 0.2638 0.4631
C71 C 0.6711(6) 0.2710(6) 0.2786(5)
H119 H 0.7224 0.2464 0.2733
O59 O 0.7068(4) 0.3703(4) 0.3014(3)
C72 C 0.5756(7) 0.2332(6) 0.1960(5)
H120 H 0.5273 0.2622 0.2019
O60 O 0.5333(5) 0.1359(4) 0.1785(4)
C73 C 0.5906(10) 0.2525(10) 0.1257(7)
H121 H 0.6060 0.3184 0.1320
H122 H 0.5293 0.2212 0.0746
O61 O 0.6674(12) 0.2244(9) 0.1191(8)
H123 H 0.6444 0.172 0.0872
C74 C 0.7998(6) 0.4116(5) 0.3019(5)
H124 H 0.8304 0.3636 0.2954
C75 C 0.8676(6) 0.4825(5) 0.3869(5)
H125 H 0.9324 0.5101 0.3884
O62 O 0.8831(4) 0.4412(4) 0.4531(3)
H126 H 0.8489 0.3865 0.4340
C76 C 0.8214(6) 0.5589(5) 0.3970(5)
H127 H 0.7570 0.5322 0.3967
O63 O 0.8847(5) 0.6284(4) 0.4728(4)
H128 H 0.8933 0.6063 0.5123
C77 C 0.8047(5) 0.5995(5) 0.3242(5)
H129 H 0.8697 0.6332 0.3288
O64 O 0.7515(4) 0.6633(4) 0.3305(4)
C78 C 0.7451(6) 0.5255(6) 0.2389(5)
H130 H 0.6762 0.4995 0.2299
O65 O 0.7884(4) 0.4526(4) 0.2371(3)
C79 C 0.7439(8) 0.5628(7) 0.1685(6)
H131 H 0.7071 0.6066 0.1631
H132 H 0.7095 0.5128 0.1170
O66 O 0.8412(7) 0.6069(6) 0.1803(6)
H133 H 0.8420 0.6519 0.1619
C80 C 0.7886(6) 0.7540(6) 0.3278(6)
H134 H 0.8538 0.7624 0.3278
C81 C 0.8025(6) 0.8215(6) 0.4051(6)
H135 H 0.8303 0.8843 0.4037
O67 O 0.8712(4) 0.8064(5) 0.4790(4)
H136 H 0.8438 0.7583 0.4855
C82 C 0.7030(6) 0.8113(5) 0.4052(5)
H137 H 0.6744 0.7491 0.4075
O68 O 0.7177(5) 0.8801(4) 0.4781(4)
H138 H 0.6719 0.8630 0.4902
C83 C 0.6337(6) 0.8282(6) 0.3264(5)
H139 H 0.6585 0.8922 0.3262
O69 O 0.5369(4) 0.8088(3) 0.3234(3)
C84 C 0.6252(7) 0.7611(7) 0.2500(5)
H140 H 0.5911 0.6975 0.2456
O70 O 0.7241(5) 0.7702(5) 0.2551(4)
C85 C 0.5704(11) 0.7866(13) 0.1711(7)
H141 H 0.5013 0.7755 0.1605
H142 H 0.5709 0.7462 0.1243
O71 O 0.6116(13) 0.8794(16) 0.1743(12)
H143 H 0.5785 0.8888 0.1300
O73 O 0.7408(7) 0.3181(7) 0.0287(6)
O74 O 0.3164(8) 0.9049(5) 0.9371(6)
O75 O 0.7707(7) 0.1560(6) 0.9604(6)
O76 O 0.184(2) 0.4682(16) 0.9638(15)
O77 O 0.0028(7) 0.7999(8) 0.0986(7)
O78 O 0.2470(9) 0.9323(8) 0.5217(8)
O79 O 0.0616(9) 0.7540(1) 0.4884(11)
O80 O 0.9281(10) 0.7915(9) 0.2098(9)
O81 O 0.2803(11) 0.0067(12) 0.8194(10)
O82 O 0.9391(11) 0.2367(12) 0.5290(13)
O83 O 0.8677(14) 0.6244(14) 0.0110(13)
O84 O 0.7542(13) 0.0624(12) 0.4602(15)
O85 O 0.0853(18) 0.8967(15) 0.3633(14)
O86 O 0.1497(15) 0.8919(18) 0.6564(17)
O87 O 0.596(2) 0.3990(17) 0.9500(15)
O88 O 0.822(2) 0.0888(14) 0.5947(19)
O89 O 1.006(2) 1.016(2) 0.437(3)
O90 O 0.5237(17) 0.992(2) 0.0386(16)
O91 O 0.410(3) 0.534(3) 0.0232(18)
O92 O 0.987(2) 0.9873(18) 0.580(2)
C87 C 0.3890(16) 0.4257(15) 0.3012(11)
C88 C 0.3178(17) 0.3720(14) 0.2212(12)
H147 H 0.2793 0.3125 0.2133
C89 C 0.3043(19) 0.407(2) 0.1532(11)
H148 H 0.2568 0.3713 0.0997
N1 N 0.362(2) 0.496(2) 0.1651(16)
C90 C 0.433(2) 0.5499(16) 0.2451(19)
H149 H 0.4716 0.6094 0.2531
C91 C 0.4466(16) 0.5146(15) 0.3132(14)
H150 H 0.4942 0.5506 0.3667
C92 C 0.3852(17) 0.3971(17) 0.3759(12)
C93 C 0.4494(16) 0.3512(16) 0.4161(13)
H151 H 0.4866 0.3294 0.3921
C94 C 0.4579(19) 0.3376(19) 0.4924(14)
H152 H 0.5008 0.3069 0.5193
N2 N 0.402(2) 0.3701(19) 0.5283(11)
C95 C 0.338(2) 0.4161(18) 0.4880(15)
H153 H 0.3009 0.4378 0.5121
C96 C 0.3296(19) 0.4296(19) 0.4118(16)
H154 H 0.2867 0.4604 0.3849
C97 C 0.5567(14) 0.5990(16) 0.6150(12)
C98 C 0.4645(13) 0.5927(17) 0.5526(13)
H155 H 0.4068 0.5719 0.5588
C99 C 0.4587(17) 0.6174(18) 0.4808(12)
H156 H 0.3971 0.6132 0.4390
N3 N 0.545(2) 0.6484(17) 0.4715(12)
C100 C 0.6371(18) 0.6547(15) 0.5339(15)
H157 H 0.6948 0.6755 0.5277
C101 C 0.6429(13) 0.6300(16) 0.6057(13)
H158 H 0.7045 0.6342 0.6475
C102 C 0.5596(17) 0.5589(14) 0.6859(11)
C103 C 0.559(2) 0.6131(16) 0.7549(13)
H159 H 0.5460 0.6686 0.7529
C104 C 0.579(2) 0.584(2) 0.8270(11)
H160 H 0.5784 0.6207 0.8731
N4 N 0.5984(19) 0.502(2) 0.8299(14)
C105 C 0.599(2) 0.4473(18) 0.7609(18)
H161 H 0.6120 0.3918 0.7629
C106 C 0.579(2) 0.4760(14) 0.6889(15)
H162 H 0.5796 0.4397 0.6427
C31? C 0.2840(12) 0.3577(10) 0.8269(7)
H51? H 0.2868 0.4217 0.8320
H52? H 0.2216 0.3237 0.8251
O26? O 0.3760(17) 0.3508(16) 0.9039(14)
H53? H 0.4265 0.3684 0.8976
C86? C 0.5704(11) 0.7866(13) 0.1711(7)
H144? H 0.6093 0.8468 0.1739
H145? H 0.5066 0.7902 0.1671
O72? O 0.553(3) 0.717(3) 0.0946(16)
H146? H 0.5102 0.6682 0.0843
O93? O 0.025(4) 0.180(4) 0.729(4)
O94? O 0.070(3) 0.306(4) 0.927(4)
O95? O 0.749(3) 0.821(5) 0.100(4)
O96? O 0.323(5) 0.181(3) 0.929(4)
loop_
_geom_bond_atom_site_label_1
_geom_bond_atom_site_label_2
_geom_bond_site_symmetry_1
_geom_bond_site_symmetry_2
C1 H1 1_555 1_555
C2 C1 1_555 1_555
H2 C2 1_555 1_555
O1 C2 1_555 1_555
H3 O1 1_555 1_555
C3 C2 1_555 1_555
H4 C3 1_555 1_555
O2 C3 1_555 1_555
H5 O2 1_555 1_555
C4 C3 1_555 1_555
H6 C4 1_555 1_555
O3 C4 1_555 1_555
C5 C4 1_555 1_555
H7 C5 1_555 1_555
O4 C1 1_555 1_555
C6 C5 1_555 1_555
H8 C6 1_555 1_555
H9 C6 1_555 1_555
O5 C6 1_555 1_555
H10 O5 1_555 1_555
C7 O3 1_555 1_555
H11 C7 1_555 1_555
C8 C7 1_555 1_555
H12 C8 1_555 1_555
O6 C8 1_555 1_555
H13 O6 1_555 1_555
C9 C8 1_555 1_555
H14 C9 1_555 1_555
O7 C9 1_555 1_555
H15 O7 1_555 1_555
C10 C9 1_555 1_555
H16 C10 1_555 1_555
O8 C10 1_555 1_555
C11 C10 1_555 1_555
H17 C11 1_555 1_555
O9 C7 1_555 1_555
C12 C11 1_555 1_555
H18 C12 1_555 1_555
H19 C12 1_555 1_555
O10 C12 1_555 1_555
H20 O10 1_555 1_555
C13 O8 1_555 1_555
H21 C13 1_555 1_555
C14 C13 1_555 1_555
H22 C14 1_555 1_555
O11 C14 1_555 1_555
H23 O11 1_555 1_555
C15 C14 1_555 1_555
H24 C15 1_555 1_555
O12 C15 1_555 1_555
H25 O12 1_555 1_555
C16 C15 1_555 1_555
H26 C16 1_555 1_555
O13 C16 1_555 1_555
C17 C16 1_555 1_555
H27 C17 1_555 1_555
O14 C13 1_555 1_555
C18 C17 1_555 1_555
H28 C18 1_555 1_555
H29 C18 1_555 1_555
O15 C18 1_555 1_555
H30 O15 1_555 1_555
C19 O13 1_555 1_555
H31 C19 1_555 1_555
C20 C19 1_555 1_555
H32 C20 1_555 1_555
O16 C20 1_555 1_555
H33 O16 1_555 1_555
C21 C20 1_555 1_555
H34 C21 1_555 1_555
O17 C21 1_555 1_555
H35 O17 1_555 1_555
C22 C21 1_555 1_555
H36 C22 1_555 1_555
O18 C22 1_555 1_555
C23 C22 1_555 1_555
H37 C23 1_555 1_555
O19 C19 1_555 1_555
C24 C23 1_555 1_555
H38 C24 1_555 1_555
H39 C24 1_555 1_555
O20 C24 1_555 1_555
H40 O20 1_555 1_555
C25 O18 1_555 1_555
H41 C25 1_555 1_555
C26 C25 1_555 1_555
H42 C26 1_555 1_555
O21 C26 1_555 1_555
H43 O21 1_555 1_555
C27 C26 1_555 1_555
H44 C27 1_555 1_555
O22 C27 1_555 1_555
H45 O22 1_555 1_555
C28 C27 1_555 1_555
H46 C28 1_555 1_555
O23 C28 1_555 1_555
C29 C28 1_555 1_555
H47 C29 1_555 1_555
O24 C25 1_555 1_555
C30 C29 1_555 1_555
H48 C30 1_555 1_555
H49 C30 1_555 1_555
O25 C30 1_555 1_555
H50 O25 1_555 1_555
C32 O23 1_555 1_555
H54 C32 1_555 1_555
C33 C32 1_555 1_555
H55 C33 1_555 1_555
O27 C33 1_555 1_555
H56 O27 1_555 1_555
C34 C33 1_555 1_555
H57 C34 1_555 1_555
O28 C34 1_555 1_555
H58 O28 1_555 1_555
C35 C34 1_555 1_555
H59 C35 1_555 1_555
O29 C35 1_555 1_555
C36 C35 1_555 1_555
H60 C36 1_555 1_555
O30 C32 1_555 1_555
C37 C36 1_555 1_555
H61 C37 1_555 1_555
H62 C37 1_555 1_555
O31 C37 1_555 1_555
H63 O31 1_555 1_555
C38 O29 1_555 1_555
H64 C38 1_555 1_555
C39 C38 1_555 1_555
H65 C39 1_555 1_555
O32 C39 1_555 1_555
H66 O32 1_555 1_555
C40 C39 1_555 1_555
H67 C40 1_555 1_555
O33 C40 1_555 1_555
H68 O33 1_555 1_555
C41 C40 1_555 1_555
H69 C41 1_555 1_555
O34 C1 1_555 1_555
C42 C41 1_555 1_555
H70 C42 1_555 1_555
O35 C38 1_555 1_555
C43 C42 1_555 1_555
H71 C43 1_555 1_555
H72 C43 1_555 1_555
O36 C43 1_555 1_555
H73 O36 1_555 1_555
C44 H74 1_555 1_555
C45 C44 1_555 1_555
H75 C45 1_555 1_555
O37 C45 1_555 1_555
H76 O37 1_555 1_555
C46 C45 1_555 1_555
H77 C46 1_555 1_555
O38 C46 1_555 1_555
H78 O38 1_555 1_555
C47 C46 1_555 1_555
H79 C47 1_555 1_555
O39 C47 1_555 1_555
C48 C47 1_555 1_555
H80 C48 1_555 1_555
O40 C44 1_555 1_555
C49 C48 1_555 1_555
H81 C49 1_555 1_555
H82 C49 1_555 1_555
O41 C49 1_555 1_555
H83 O41 1_555 1_555
C50 O39 1_555 1_555
H84 C50 1_555 1_555
C51 C50 1_555 1_555
H85 C51 1_555 1_555
O42 C51 1_555 1_555
H86 O42 1_555 1_555
C52 C51 1_555 1_555
H87 C52 1_555 1_555
C53 C52 1_555 1_555
H88 C53 1_555 1_555
O43 C52 1_555 1_555
H89 O43 1_555 1_555
O44 C53 1_555 1_555
C54 C53 1_555 1_555
H90 C54 1_555 1_555
O45 C50 1_555 1_555
C55 C54 1_555 1_555
H91 C55 1_555 1_555
H92 C55 1_555 1_555
O46 C55 1_555 1_555
H93 O46 1_555 1_555
C56 O44 1_555 1_555
H94 C56 1_555 1_555
C57 C56 1_555 1_555
H95 C57 1_555 1_555
O47 C57 1_555 1_555
H96 O47 1_555 1_555
C58 C57 1_555 1_555
H97 C58 1_555 1_555
O48 C58 1_555 1_555
H98 O48 1_555 1_555
C59 C58 1_555 1_555
H99 C59 1_555 1_555
O49 C59 1_555 1_555
C60 C59 1_555 1_555
H100 C60 1_555 1_555
O50 C56 1_555 1_555
C61 C60 1_555 1_555
H101 C61 1_555 1_555
H102 C61 1_555 1_555
O51 C61 1_555 1_555
H103 O51 1_555 1_555
C62 O49 1_555 1_555
H104 C62 1_555 1_555
C63 C62 1_555 1_555
H105 C63 1_555 1_555
O52 C63 1_555 1_555
H106 O52 1_555 1_555
C64 C63 1_555 1_555
H107 C64 1_555 1_555
O53 C64 1_555 1_555
H108 O53 1_555 1_555
C65 C64 1_555 1_555
H109 C65 1_555 1_555
O54 C65 1_555 1_555
C66 C65 1_555 1_555
H110 C66 1_555 1_555
O55 C62 1_555 1_555
C67 C66 1_555 1_555
H111 C67 1_555 1_555
H112 C67 1_555 1_555
O56 C67 1_555 1_555
H113 O56 1_555 1_555
C68 O54 1_555 1_555
H114 C68 1_555 1_555
C69 C68 1_555 1_555
H115 C69 1_555 1_555
O57 C69 1_555 1_555
H116 O57 1_555 1_555
C70 C69 1_555 1_555
H117 C70 1_555 1_555
O58 C70 1_555 1_555
H118 O58 1_555 1_555
C71 C70 1_555 1_555
H119 C71 1_555 1_555
O59 C71 1_555 1_555
C72 C71 1_555 1_555
H120 C72 1_555 1_555
O60 C68 1_555 1_555
C73 C72 1_555 1_555
H121 C73 1_555 1_555
H122 C73 1_555 1_555
O61 C73 1_555 1_555
H123 O61 1_555 1_555
C74 O59 1_555 1_555
H124 C74 1_555 1_555
C75 C74 1_555 1_555
H125 C75 1_555 1_555
O62 C75 1_555 1_555
H126 O62 1_555 1_555
C76 C75 1_555 1_555
H127 C76 1_555 1_555
O63 C76 1_555 1_555
H128 O63 1_555 1_555
C77 C76 1_555 1_555
H129 C77 1_555 1_555
O64 C77 1_555 1_555
C78 C77 1_555 1_555
H130 C78 1_555 1_555
O65 C74 1_555 1_555
C79 C78 1_555 1_555
H131 C79 1_555 1_555
H132 C79 1_555 1_555
O66 C79 1_555 1_555
H133 O66 1_555 1_555
C80 O64 1_555 1_555
H134 C80 1_555 1_555
C81 C80 1_555 1_555
H135 C81 1_555 1_555
O67 C81 1_555 1_555
H136 O67 1_555 1_555
C82 C81 1_555 1_555
H137 C82 1_555 1_555
O68 C82 1_555 1_555
H138 O68 1_555 1_555
C83 C82 1_555 1_555
H139 C83 1_555 1_555
O69 C44 1_555 1_555
C84 C83 1_555 1_555
H140 C84 1_555 1_555
O70 C80 1_555 1_555
C85 C84 1_555 1_555
H141 C85 1_555 1_555
H142 C85 1_555 1_555
O71 C85 1_555 1_555
H143 O71 1_555 1_555
C87 C88 1_555 1_555
C88 H147 1_555 1_555
C89 C88 1_555 1_555
H148 C89 1_555 1_555
N1 C89 1_555 1_555
C90 N1 1_555 1_555
H149 C90 1_555 1_555
C91 C87 1_555 1_555
H150 C91 1_555 1_555
C92 C87 1_555 1_555
C93 C92 1_555 1_555
H151 C93 1_555 1_555
C94 C93 1_555 1_555
H152 C94 1_555 1_555
N2 C94 1_555 1_555
C95 N2 1_555 1_555
H153 C95 1_555 1_555
C96 C92 1_555 1_555
H154 C96 1_555 1_555
C97 C98 1_555 1_555
C98 H155 1_555 1_555
C99 C98 1_555 1_555
H156 C99 1_555 1_555
N3 C99 1_555 1_555
C100 N3 1_555 1_555
H157 C100 1_555 1_555
C101 C97 1_555 1_555
H158 C101 1_555 1_555
C102 C97 1_555 1_555
C103 C102 1_555 1_555
H159 C103 1_555 1_555
C104 C103 1_555 1_555
H160 C104 1_555 1_555
N4 C104 1_555 1_555
C105 N4 1_555 1_555
H161 C105 1_555 1_555
C106 C102 1_555 1_555
H162 C106 1_555 1_555
C5 O4 1_555 1_555
C11 O9 1_555 1_555
C17 O14 1_555 1_555
C23 O19 1_555 1_555
C29 O24 1_555 1_555
C36 O30 1_555 1_555
C41 O34 1_555 1_555
C42 O35 1_555 1_555
C48 O40 1_555 1_555
C54 O45 1_555 1_555
C60 O50 1_555 1_555
C66 O55 1_555 1_555
C72 O60 1_555 1_555
C78 O65 1_555 1_555
C83 O69 1_555 1_555
C84 O70 1_555 1_555
C90 C91 1_555 1_555
C95 C96 1_555 1_555
C100 C101 1_555 1_555
C105 C106 1_555 1_555

#END
