
#######################################################################
#
#                 Cambridge Crystallographic Data Centre
#                                CCDC 
#
#######################################################################
#
# If this CIF has been generated from an entry in the Cambridge 
# Structural Database, then it will include bibliographic, chemical, 
# crystal, experimental, refinement or atomic coordinate data resulting 
# from the CCDC's data processing and validation procedures.
#
#######################################################################

data_UKAJAT
_chemical_formula_moiety         'C17 H14 Cl2 N2 O2'
_chemical_name_systematic        
N-(2,5-Dichlorobenzoyl)-3,4-dihydroquinoline-1(2H)-carboxamide
_chemical_properties_biological  'antifungal activity'
_symmetry_cell_setting           triclinic
_symmetry_space_group_name_H-M   'P -1'
_symmetry_Int_Tables_number      2
_space_group_name_Hall           '-P 1'
loop_
_symmetry_equiv_pos_site_id
_symmetry_equiv_pos_as_xyz
1 x,y,z
2 -x,-y,-z
_cell_length_a                   7.9904(7)
_cell_length_b                   9.6230(8)
_cell_length_c                   10.8411(10)
_cell_angle_alpha                82.689(7)
_cell_angle_beta                 70.970(8)
_cell_angle_gamma                87.890(7)
_cell_volume                     781.616
_cell_formula_units_Z            2
loop_
_atom_site_label
_atom_site_type_symbol
_atom_site_fract_x
_atom_site_fract_y
_atom_site_fract_z
H1 H 0.101(4) 0.514(3) 0.577(3)
C1 C 0.1411(3) 0.4302(2) 0.7985(2)
C2 C -0.0232(3) 0.4915(3) 0.8430(2)
H2 H -0.0380 0.5887 0.8199
C3 C -0.1671(3) 0.4088(3) 0.9225(2)
H3 H -0.2814 0.4491 0.9521
C4 C -0.1437(4) 0.2680(3) 0.9582(2)
H4 H -0.2422 0.2114 1.0112
C5 C 0.0223(4) 0.2099(3) 0.9170(2)
H5 H 0.0379 0.1139 0.9443
C6 C 0.1677(3) 0.2893(2) 0.8361(2)
C7 C 0.3540(3) 0.2373(3) 0.7955(3)
H6 H 0.3973 0.2293 0.7001
H7 H 0.3612 0.1441 0.8440
C8 C 0.4643(3) 0.3449(2) 0.8285(2)
H8 H 0.4151 0.3562 0.9230
H9 H 0.5876 0.3113 0.8104
C9 C 0.4627(3) 0.4852(3) 0.7464(2)
H10 H 0.4798 0.5614 0.7945
H11 H 0.5628 0.4889 0.6630
C10 C 0.3059(3) 0.5967(2) 0.6062(2)
C11 C 0.1070(3) 0.6980(2) 0.4848(2)
C12 C 0.1804(3) 0.8440(2) 0.4597(2)
C13 C 0.2027(3) 0.9233(2) 0.5527(2)
C14 C 0.2713(4) 1.0570(3) 0.5154(3)
H12 H 0.2848 1.1098 0.5799
C15 C 0.3203(3) 1.1153(3) 0.3863(3)
H13 H 0.3716 1.2063 0.3605
C16 C 0.2938(3) 1.0392(3) 0.2947(2)
C17 C 0.2216(3) 0.9069(2) 0.3306(2)
H14 H 0.1997 0.8579 0.2667
Cl1 Cl 0.35141(10) 1.11236(8) 0.13100(7)
Cl2 Cl 0.13842(10) 0.86120(6) 0.71920(6)
N1 N 0.2954(2) 0.50827(19) 0.71648(17)
N2 N 0.1556(3) 0.5958(2) 0.56490(18)
O1 O 0.4357(2) 0.66839(16) 0.54424(15)
O2 O 0.0004(2) 0.67100(17) 0.43116(17)
loop_
_geom_bond_atom_site_label_1
_geom_bond_atom_site_label_2
_geom_bond_site_symmetry_1
_geom_bond_site_symmetry_2
H1 N2 1_555 1_555
C1 C2 1_555 1_555
C2 H2 1_555 1_555
C3 C2 1_555 1_555
H3 C3 1_555 1_555
C4 C3 1_555 1_555
H4 C4 1_555 1_555
C5 C4 1_555 1_555
H5 C5 1_555 1_555
C6 C1 1_555 1_555
C7 C6 1_555 1_555
H6 C7 1_555 1_555
H7 C7 1_555 1_555
C8 C7 1_555 1_555
H8 C8 1_555 1_555
H9 C8 1_555 1_555
C9 C8 1_555 1_555
H10 C9 1_555 1_555
H11 C9 1_555 1_555
C10 N1 1_555 1_555
C11 C12 1_555 1_555
C12 C13 1_555 1_555
C13 C14 1_555 1_555
C14 H12 1_555 1_555
C15 C14 1_555 1_555
H13 C15 1_555 1_555
C16 C15 1_555 1_555
C17 C12 1_555 1_555
H14 C17 1_555 1_555
Cl1 C16 1_555 1_555
Cl2 C13 1_555 1_555
N1 C1 1_555 1_555
N2 C10 1_555 1_555
O1 C10 1_555 1_555
O2 C11 1_555 1_555
C5 C6 1_555 1_555
C9 N1 1_555 1_555
C11 N2 1_555 1_555
C16 C17 1_555 1_555

#END
