
#######################################################################
#
#                 Cambridge Crystallographic Data Centre
#                                CCDC 
#
#######################################################################
#
# If this CIF has been generated from an entry in the Cambridge 
# Structural Database, then it will include bibliographic, chemical, 
# crystal, experimental, refinement or atomic coordinate data resulting 
# from the CCDC's data processing and validation procedures.
#
#######################################################################

data_UKANIE
_chemical_name_common            
(2-(furan-3-yl(2H-pyrrol-2-ylidene)methyl)pyrrolyl)-difluoro-boron
_chemical_formula_moiety         'C13 H9 B1 F2 N2 O1'
_chemical_name_systematic        Difluoroboryl-(3-furyl)dipyrrin
_symmetry_cell_setting           monoclinic
_symmetry_space_group_name_H-M   'C c'
_symmetry_Int_Tables_number      9
_space_group_name_Hall           'C -2yc'
loop_
_symmetry_equiv_pos_site_id
_symmetry_equiv_pos_as_xyz
1 x,y,z
2 x,-y,1/2+z
3 1/2+x,1/2+y,z
4 1/2+x,1/2-y,1/2+z
_cell_length_a                   17.0644(15)
_cell_length_b                   9.8723(9)
_cell_length_c                   7.3992(6)
_cell_angle_alpha                90
_cell_angle_beta                 113.720(5)
_cell_angle_gamma                90
_cell_volume                     1141.2
_exptl_crystal_colour            red
_exptl_crystal_description       needle
_cell_formula_units_Z            4
loop_
_atom_site_label
_atom_site_type_symbol
_atom_site_fract_x
_atom_site_fract_y
_atom_site_fract_z
F1 F 0.30874(16) 0.6668(3) 0.1670(3)
F2 F 0.23962(17) 0.6689(3) 0.3731(4)
O1 O 0.5621(2) 1.2436(3) 0.7743(4)
N1 N 0.2924(2) 0.8798(4) 0.3030(5)
N2 N 0.3916(2) 0.7082(4) 0.5121(5)
C1 C 0.5032(3) 0.6138(5) 0.7583(7)
H1 H 0.5378 0.5491 0.8451
C2 C 0.4523(3) 0.8096(4) 0.6009(7)
C3 C 0.3170(3) 1.1063(5) 0.3057(6)
H2 H 0.3435 1.1906 0.3356
C4 C 0.2223(3) 0.9414(5) 0.1704(6)
H3 H 0.1723 0.8970 0.0901
C5 C 0.6233(3) 1.1536(5) 0.7780(7)
H4 H 0.6816 1.1723 0.8321
C6 C 0.4226(3) 0.5918(5) 0.6084(7)
H5 H 0.3945 0.5088 0.5794
C7 C 0.5221(3) 0.7490(5) 0.7541(7)
H6 H 0.5720 0.7924 0.8374
C8 C 0.3536(3) 0.9805(5) 0.3916(6)
C9 C 0.5898(3) 1.0358(5) 0.6952(6)
H7 H 0.6191 0.9599 0.6811
C10 C 0.4345(3) 0.9455(5) 0.5388(6)
C11 C 0.4854(3) 1.1776(5) 0.6829(6)
H8 H 0.4320 1.2144 0.6592
C12 C 0.4991(3) 1.0506(5) 0.6322(6)
C13 C 0.2353(3) 1.0808(5) 0.1706(6)
H9 H 0.1960 1.1446 0.0935
B1 B 0.3052(3) 0.7261(6) 0.3356(8)
loop_
_geom_bond_atom_site_label_1
_geom_bond_atom_site_label_2
_geom_bond_site_symmetry_1
_geom_bond_site_symmetry_2
F1 B1 1_555 1_555
F2 B1 1_555 1_555
O1 C5 1_555 1_555
N1 C4 1_555 1_555
N2 C2 1_555 1_555
C1 H1 1_555 1_555
C2 C7 1_555 1_555
C3 H2 1_555 1_555
C4 H3 1_555 1_555
C5 H4 1_555 1_555
C6 N2 1_555 1_555
H5 C6 1_555 1_555
C7 C1 1_555 1_555
H6 C7 1_555 1_555
C8 N1 1_555 1_555
C9 C5 1_555 1_555
H7 C9 1_555 1_555
C10 C2 1_555 1_555
C11 O1 1_555 1_555
H8 C11 1_555 1_555
C12 C9 1_555 1_555
C13 C3 1_555 1_555
H9 C13 1_555 1_555
B1 N1 1_555 1_555
N2 B1 1_555 1_555
C1 C6 1_555 1_555
C3 C8 1_555 1_555
C4 C13 1_555 1_555
C8 C10 1_555 1_555
C10 C12 1_555 1_555
C11 C12 1_555 1_555

#END
