
#######################################################################
#
#                 Cambridge Crystallographic Data Centre
#                                CCDC 
#
#######################################################################
#
# If this CIF has been generated from an entry in the Cambridge 
# Structural Database, then it will include bibliographic, chemical, 
# crystal, experimental, refinement or atomic coordinate data resulting 
# from the CCDC's data processing and validation procedures.
#
#######################################################################

data_UKANUQ
_chemical_name_common            
(2-(furan-2-yl(2H-pyrrol-2-ylidene)methyl)pyrrolyl)-difluoro-boron
_chemical_formula_moiety         'C13 H9 B1 F2 N2 O1'
_chemical_name_systematic        Difluoroboryl-(2-furyl)dipyrrin
_symmetry_cell_setting           monoclinic
_symmetry_space_group_name_H-M   'P 21/c'
_symmetry_Int_Tables_number      14
_space_group_name_Hall           '-P 2ybc'
loop_
_symmetry_equiv_pos_site_id
_symmetry_equiv_pos_as_xyz
1 x,y,z
2 -x,1/2+y,1/2-z
3 -x,-y,-z
4 x,1/2-y,1/2+z
_cell_length_a                   7.465(5)
_cell_length_b                   19.329(5)
_cell_length_c                   16.278(5)
_cell_angle_alpha                90
_cell_angle_beta                 92.305(5)
_cell_angle_gamma                90
_cell_volume                     2346.87
_exptl_crystal_colour            red
_exptl_crystal_description       block
_cell_formula_units_Z            8
loop_
_atom_site_label
_atom_site_type_symbol
_atom_site_fract_x
_atom_site_fract_y
_atom_site_fract_z
F1 F -0.3967(3) -0.05005(10) 0.38034(13)
F2 F -0.6908(3) -0.05872(9) 0.34513(13)
O1 O -0.4736(3) 0.15755(13) 0.0922(2)
N1 N -0.5626(3) 0.05429(14) 0.35617(19)
N2 N -0.4898(3) -0.02157(16) 0.24240(17)
C1 C -0.5379(4) 0.11153(18) 0.3067(2)
C2 C -0.4373(5) 0.2220(3) 0.0618(3)
H1 H -0.4387 0.2334 0.0063
C4 C -0.4558(4) 0.16280(19) 0.1764(3)
C7 C -0.4829(4) 0.10295(18) 0.2260(2)
C8 C -0.4098(4) 0.2278(2) 0.1956(2)
H3 H -0.3880 0.2452 0.2484
C9 C -0.5864(4) 0.17015(18) 0.3518(2)
H4 H -0.5854 0.2157 0.3336
C13 C -0.6352(4) 0.1478(2) 0.4274(2)
H6 H -0.6719 0.1754 0.4704
C14 C -0.4571(4) 0.03614(18) 0.1940(2)
C16 C -0.6199(4) 0.0770(2) 0.4281(2)
H8 H -0.6457 0.0488 0.4724
C18 C -0.4031(4) 0.0118(2) 0.1180(2)
H10 H -0.3713 0.0389 0.0737
C19 C -0.4004(5) 0.2650(2) 0.1222(4)
H11 H -0.3729 0.3117 0.1172
C20 C -0.4595(5) -0.07776(19) 0.1971(3)
H12 H -0.4729 -0.1231 0.2150
C24 C -0.4055(5) -0.0591(2) 0.1202(3)
H16 H -0.3762 -0.0889 0.0780
B1 B -0.5361(6) -0.0209(2) 0.3330(3)
F3 F 0.0886(4) 0.30133(12) 0.42551(15)
F4 F -0.2040(4) 0.30860(13) 0.38430(16)
O2 O 0.0251(3) 0.12238(15) 0.1091(2)
N3 N -0.0645(3) 0.19767(17) 0.3861(2)
N4 N 0.0114(3) 0.28404(19) 0.2835(2)
C3 C 0.0080(4) 0.16238(19) 0.2492(2)
C5 C -0.0471(4) 0.1459(2) 0.3281(2)
C6 C 0.0746(6) 0.0613(3) 0.0702(3)
H2 H 0.0816 0.0554 0.0137
C10 C 0.0871(4) 0.0427(2) 0.2026(2)
H5 H 0.1041 0.0206 0.2530
C11 C 0.0371(4) 0.1076(2) 0.1914(3)
C12 C 0.0394(4) 0.2315(2) 0.2279(2)
C15 C -0.0896(4) 0.0830(2) 0.3653(3)
H7 H -0.0914 0.0397 0.3402
C17 C 0.1100(5) 0.0134(2) 0.1260(4)
H9 H 0.1441 -0.0320 0.1159
C21 C -0.1123(5) 0.1673(3) 0.4560(3)
H13 H -0.1320 0.1905 0.5048
C22 C -0.1280(5) 0.0966(3) 0.4450(3)
H14 H -0.1589 0.0644 0.4845
C23 C 0.1017(4) 0.2621(2) 0.1563(2)
H15 H 0.1334 0.2391 0.1089
C25 C 0.0520(5) 0.3440(2) 0.2475(4)
H17 H 0.0441 0.3873 0.2720
C26 C 0.1072(5) 0.3322(3) 0.1690(3)
H18 H 0.1417 0.3656 0.1316
B2 B -0.0431(7) 0.2754(3) 0.3723(4)
loop_
_geom_bond_atom_site_label_1
_geom_bond_atom_site_label_2
_geom_bond_site_symmetry_1
_geom_bond_site_symmetry_2
F1 B1 1_555 1_555
F2 B1 1_555 1_555
O1 C2 1_555 1_555
N1 C1 1_555 1_555
N2 C14 1_555 1_555
F3 B2 1_555 1_555
C1 C7 1_555 1_555
C2 H1 1_555 1_555
F4 B2 1_555 1_555
O2 C6 1_555 1_555
N3 C5 1_555 1_555
N4 C12 1_555 1_555
C3 C5 1_555 1_555
C4 O1 1_555 1_555
C5 C15 1_555 1_555
C6 H2 1_555 1_555
C7 C4 1_555 1_555
C8 C4 1_555 1_555
H3 C8 1_555 1_555
C9 C1 1_555 1_555
H4 C9 1_555 1_555
C10 H5 1_555 1_555
C11 O2 1_555 1_555
C12 C3 1_555 1_555
C13 C9 1_555 1_555
H6 C13 1_555 1_555
C14 C7 1_555 1_555
C15 H7 1_555 1_555
C16 N1 1_555 1_555
H8 C16 1_555 1_555
C17 C6 1_555 1_555
H9 C17 1_555 1_555
C18 C14 1_555 1_555
H10 C18 1_555 1_555
C19 C2 1_555 1_555
H11 C19 1_555 1_555
C20 N2 1_555 1_555
H12 C20 1_555 1_555
C21 N3 1_555 1_555
H13 C21 1_555 1_555
C22 C15 1_555 1_555
H14 C22 1_555 1_555
C23 C12 1_555 1_555
H15 C23 1_555 1_555
C24 C18 1_555 1_555
H16 C24 1_555 1_555
B1 N1 1_555 1_555
C25 N4 1_555 1_555
H17 C25 1_555 1_555
C26 C23 1_555 1_555
H18 C26 1_555 1_555
B2 N3 1_555 1_555
N2 B1 1_555 1_555
N4 B2 1_555 1_555
C3 C11 1_555 1_555
C8 C19 1_555 1_555
C10 C11 1_555 1_555
C10 C17 1_555 1_555
C13 C16 1_555 1_555
C20 C24 1_555 1_555
C21 C22 1_555 1_555
C25 C26 1_555 1_555

#END
