
#######################################################################
#
#                 Cambridge Crystallographic Data Centre
#                                CCDC 
#
#######################################################################
#
# If this CIF has been generated from an entry in the Cambridge 
# Structural Database, then it will include bibliographic, chemical, 
# crystal, experimental, refinement or atomic coordinate data resulting 
# from the CCDC's data processing and validation procedures.
#
#######################################################################

data_UKATEG
_chemical_formula_moiety         'C8 H32 B4 Mg1 N2 O1'
_chemical_name_systematic        
bis(N,N-Dimethylaminodiboranato)-tetrahydrofuran-magnesium(ii)
_symmetry_cell_setting           monoclinic
_symmetry_space_group_name_H-M   'C c'
_symmetry_Int_Tables_number      9
_space_group_name_Hall           'C -2yc'
loop_
_symmetry_equiv_pos_site_id
_symmetry_equiv_pos_as_xyz
1 x,y,z
2 x,-y,1/2+z
3 1/2+x,1/2+y,z
4 1/2+x,1/2-y,1/2+z
_cell_length_a                   10.0103(8)
_cell_length_b                   17.5686(15)
_cell_length_c                   10.5611(8)
_cell_angle_alpha                90
_cell_angle_beta                 111.412(5)
_cell_angle_gamma                90
_cell_volume                     1729.15
_cell_formula_units_Z            4
_exptl_crystal_recrystallization_method sublimation
loop_
_atom_site_label
_atom_site_type_symbol
_atom_site_fract_x
_atom_site_fract_y
_atom_site_fract_z
Mg1 Mg 0.62425(9) 0.85751(5) 0.55550(8)
B1 B 0.5468(4) 0.7298(3) 0.6037(4)
H1 H 0.640(3) 0.7581(17) 0.677(3)
H2 H 0.535(3) 0.7489(18) 0.500(3)
H3 H 0.558(4) 0.6659(18) 0.599(4)
B2 B 0.4163(9) 0.8454(3) 0.6397(10)
H4 H 0.529(5) 0.854(3) 0.721(5)
H5 H 0.431(4) 0.878(2) 0.558(3)
H6 H 0.319(4) 0.871(3) 0.658(5)
N1 N 0.4123(3) 0.75830(15) 0.6322(2)
C1 C 0.2817(4) 0.7271(3) 0.5310(4)
H7 H 0.1983 0.7438 0.5514
H8 H 0.2866 0.6714 0.5333
H9 H 0.2724 0.7451 0.4404
C2 C 0.4169(4) 0.7295(3) 0.7653(4)
H10 H 0.4411 0.6752 0.7731
H11 H 0.3228 0.7366 0.7725
H12 H 0.4897 0.7576 0.8385
B3 B 0.7837(4) 0.9656(2) 0.6674(4)
H13 H 0.750(3) 0.9264(17) 0.734(3)
H14 H 0.695(3) 0.9720(19) 0.575(3)
H15 H 0.795(3) 1.0214(16) 0.709(3)
B4 B 0.8856(4) 0.8475(2) 0.5939(4)
H16 H 0.853(3) 0.8170(17) 0.671(3)
H17 H 0.785(3) 0.8480(19) 0.495(3)
H18 H 0.978(3) 0.8218(16) 0.582(3)
N2 N 0.9210(2) 0.93012(14) 0.6510(2)
C3 C 0.9655(4) 0.9767(2) 0.5568(4)
H19 H 1.0497 0.9536 0.5459
H20 H 0.9897 1.0282 0.5939
H21 H 0.8868 0.9793 0.4683
C4 C 1.0406(3) 0.9290(2) 0.7850(3)
H22 H 1.0611 0.9810 0.8202
H23 H 1.1263 0.9074 0.7746
H24 H 1.0135 0.8978 0.8487
O1 O 0.5232(2) 0.88507(12) 0.35288(19)
C5 C 0.5369(5) 0.8435(2) 0.2428(4)
H25 H 0.5162 0.7890 0.2507
H26 H 0.6361 0.8480 0.2443
C6 C 0.4353(5) 0.8745(3) 0.1155(4)
H27 H 0.4854 0.8879 0.0532
H28 H 0.3597 0.8367 0.0700
C7 C 0.3729(5) 0.9419(3) 0.1509(4)
H29 H 0.3958 0.9874 0.1074
H30 H 0.2672 0.9367 0.1191
C8 C 0.4329(6) 0.9494(3) 0.2974(4)
H31 H 0.4894 0.9969 0.3229
H32 H 0.3549 0.9516 0.3339
loop_
_geom_bond_atom_site_label_1
_geom_bond_atom_site_label_2
_geom_bond_site_symmetry_1
_geom_bond_site_symmetry_2
Mg1 H1 1_555 1_555
B1 H1 1_555 1_555
H2 Mg1 1_555 1_555
H3 B1 1_555 1_555
B2 H4 1_555 1_555
H4 Mg1 1_555 1_555
H5 Mg1 1_555 1_555
H6 B2 1_555 1_555
N1 B1 1_555 1_555
C1 N1 1_555 1_555
H7 C1 1_555 1_555
H8 C1 1_555 1_555
H9 C1 1_555 1_555
C2 N1 1_555 1_555
H10 C2 1_555 1_555
H11 C2 1_555 1_555
H12 C2 1_555 1_555
B3 H13 1_555 1_555
H13 Mg1 1_555 1_555
H14 Mg1 1_555 1_555
H15 B3 1_555 1_555
B4 H16 1_555 1_555
H16 Mg1 1_555 1_555
H17 Mg1 1_555 1_555
H18 B4 1_555 1_555
N2 B3 1_555 1_555
C3 N2 1_555 1_555
H19 C3 1_555 1_555
H20 C3 1_555 1_555
H21 C3 1_555 1_555
C4 N2 1_555 1_555
H22 C4 1_555 1_555
H23 C4 1_555 1_555
H24 C4 1_555 1_555
O1 Mg1 1_555 1_555
C5 O1 1_555 1_555
H25 C5 1_555 1_555
H26 C5 1_555 1_555
C6 C5 1_555 1_555
H27 C6 1_555 1_555
H28 C6 1_555 1_555
C7 C6 1_555 1_555
H29 C7 1_555 1_555
H30 C7 1_555 1_555
C8 O1 1_555 1_555
H31 C8 1_555 1_555
H32 C8 1_555 1_555
B1 H2 1_555 1_555
B2 H5 1_555 1_555
B2 N1 1_555 1_555
B3 H14 1_555 1_555
B4 H17 1_555 1_555
B4 N2 1_555 1_555
C7 C8 1_555 1_555

#END
