
#######################################################################
#
#                 Cambridge Crystallographic Data Centre
#                                CCDC 
#
#######################################################################
#
# If this CIF has been generated from an entry in the Cambridge 
# Structural Database, then it will include bibliographic, chemical, 
# crystal, experimental, refinement or atomic coordinate data resulting 
# from the CCDC's data processing and validation procedures.
#
#######################################################################

data_UKATOQ
_chemical_formula_moiety         'C16 H35 B2 Mg1 N1 O1'
_chemical_name_systematic        
(\h^5^-Pentamethyl-cyclopentadienyl)-(N,N-dimethylaminodiboranato)-tetrahydrofuran-magnesium(ii)
_symmetry_cell_setting           monoclinic
_symmetry_space_group_name_H-M   'P 21/n'
_symmetry_Int_Tables_number      14
_space_group_name_Hall           '-P 2yn'
loop_
_symmetry_equiv_pos_site_id
_symmetry_equiv_pos_as_xyz
1 x,y,z
2 1/2-x,1/2+y,1/2-z
3 -x,-y,-z
4 1/2+x,1/2-y,1/2+z
_cell_length_a                   11.309(3)
_cell_length_b                   14.569(3)
_cell_length_c                   12.255(3)
_cell_angle_alpha                90
_cell_angle_beta                 90.397(4)
_cell_angle_gamma                90
_cell_volume                     2019.1
_exptl_crystal_colour            colorless
_exptl_crystal_description       tabular
_cell_formula_units_Z            4
_exptl_crystal_recrystallization_method sublimation
loop_
_atom_site_label
_atom_site_type_symbol
_atom_site_fract_x
_atom_site_fract_y
_atom_site_fract_z
Mg1 Mg 0.04538(13) 0.39226(10) 0.26301(13)
C1 C 0.2454(4) 0.3504(3) 0.2954(6)
C2 C 0.2155(6) 0.3184(4) 0.1896(5)
C3 C 0.1299(6) 0.2496(4) 0.2007(6)
C4 C 0.1060(5) 0.2401(4) 0.3112(6)
C5 C 0.1765(5) 0.3025(4) 0.3689(5)
C6 C 0.3399(4) 0.4200(4) 0.3229(5)
H1 H 0.3098 0.4629 0.3777
H2 H 0.3614 0.4539 0.2569
H3 H 0.4097 0.3884 0.3521
C7 C 0.2746(5) 0.3451(4) 0.0826(5)
H4 H 0.3286 0.2962 0.0602
H5 H 0.3190 0.4023 0.0930
H6 H 0.2140 0.3541 0.0261
C8 C 0.0759(5) 0.1931(4) 0.1095(5)
H7 H 0.1116 0.2106 0.0400
H8 H -0.0096 0.2041 0.1063
H9 H 0.0906 0.1278 0.1234
C9 C 0.0226(5) 0.1692(3) 0.3594(5)
H10 H 0.0083 0.1838 0.4363
H11 H 0.0583 0.1081 0.3540
H12 H -0.0525 0.1700 0.3191
C10 C 0.1796(5) 0.3133(4) 0.4929(5)
H13 H 0.2432 0.2753 0.5235
H14 H 0.1037 0.2936 0.5232
H15 H 0.1938 0.3777 0.5116
N1 N -0.2262(4) 0.4166(3) 0.2711(3)
B1 B -0.1411(7) 0.4167(6) 0.3728(6)
H16 H -0.095(3) 0.341(3) 0.383(3)
H17 H -0.079(3) 0.469(2) 0.363(3)
H18 H -0.192(3) 0.434(2) 0.451(3)
B2 B -0.1542(7) 0.3988(7) 0.1646(6)
H19 H -0.101(4) 0.329(3) 0.176(3)
H20 H -0.091(3) 0.450(3) 0.153(3)
H21 H -0.208(3) 0.392(3) 0.093(3)
C11 C -0.2906(4) 0.5044(4) 0.2624(4)
H22 H -0.3375 0.5051 0.1948
H23 H -0.2339 0.5553 0.2615
H24 H -0.3433 0.5112 0.3250
C12 C -0.3133(4) 0.3412(4) 0.2834(4)
H25 H -0.3554 0.3485 0.3525
H26 H -0.2720 0.2820 0.2831
H27 H -0.3702 0.3432 0.2227
O1 O 0.1073(2) 0.5229(2) 0.2362(3)
C13 C 0.1054(5) 0.6009(4) 0.3081(4)
H28 H 0.1864 0.6239 0.3224
H29 H 0.0680 0.5851 0.3785
C14 C 0.0325(4) 0.6714(3) 0.2465(5)
H30 H -0.0526 0.6649 0.2630
H31 H 0.0581 0.7345 0.2650
C15 C 0.0565(5) 0.6501(4) 0.1283(5)
H32 H 0.1033 0.6997 0.0944
H33 H -0.0185 0.6429 0.0871
C16 C 0.1252(5) 0.5613(4) 0.1297(5)
H34 H 0.0954 0.5191 0.0725
H35 H 0.2102 0.5730 0.1171
loop_
_geom_bond_atom_site_label_1
_geom_bond_atom_site_label_2
_geom_bond_site_symmetry_1
_geom_bond_site_symmetry_2
Mg1 C1 1_555 1_555
C1 C2 1_555 1_555
C2 Mg1 1_555 1_555
C3 Mg1 1_555 1_555
C4 Mg1 1_555 1_555
C5 Mg1 1_555 1_555
C6 C1 1_555 1_555
H1 C6 1_555 1_555
H2 C6 1_555 1_555
H3 C6 1_555 1_555
C7 C2 1_555 1_555
H4 C7 1_555 1_555
H5 C7 1_555 1_555
H6 C7 1_555 1_555
C8 C3 1_555 1_555
H7 C8 1_555 1_555
H8 C8 1_555 1_555
H9 C8 1_555 1_555
C9 C4 1_555 1_555
H10 C9 1_555 1_555
H11 C9 1_555 1_555
H12 C9 1_555 1_555
C10 C5 1_555 1_555
H13 C10 1_555 1_555
H14 C10 1_555 1_555
H15 C10 1_555 1_555
N1 B1 1_555 1_555
B1 H16 1_555 1_555
H16 Mg1 1_555 1_555
H17 Mg1 1_555 1_555
H18 B1 1_555 1_555
B2 N1 1_555 1_555
H19 Mg1 1_555 1_555
H20 Mg1 1_555 1_555
H21 B2 1_555 1_555
C11 N1 1_555 1_555
H22 C11 1_555 1_555
H23 C11 1_555 1_555
H24 C11 1_555 1_555
C12 N1 1_555 1_555
H25 C12 1_555 1_555
H26 C12 1_555 1_555
H27 C12 1_555 1_555
O1 Mg1 1_555 1_555
C13 O1 1_555 1_555
H28 C13 1_555 1_555
H29 C13 1_555 1_555
C14 C13 1_555 1_555
H30 C14 1_555 1_555
H31 C14 1_555 1_555
C15 C14 1_555 1_555
H32 C15 1_555 1_555
H33 C15 1_555 1_555
C16 O1 1_555 1_555
H34 C16 1_555 1_555
H35 C16 1_555 1_555
C1 C5 1_555 1_555
C2 C3 1_555 1_555
C3 C4 1_555 1_555
C4 C5 1_555 1_555
B1 H17 1_555 1_555
B2 H19 1_555 1_555
B2 H20 1_555 1_555
C15 C16 1_555 1_555

#END
