
#######################################################################
#
#                 Cambridge Crystallographic Data Centre
#                                CCDC 
#
#######################################################################
#
# If this CIF has been generated from an entry in the Cambridge 
# Structural Database, then it will include bibliographic, chemical, 
# crystal, experimental, refinement or atomic coordinate data resulting 
# from the CCDC's data processing and validation procedures.
#
#######################################################################

data_UKAYEM
_chemical_formula_moiety         'C22 H28 O3'
_chemical_name_systematic        
5-Methoxy-2'-(3-methoxyprop-1-yn-1-yl)-5',5'-dimethyl-3',5',6',7',8',8a'-hexahydro-2H,2'H-spiro[cyclohexa-3,5-diene-1,1'-naphthalen]-2-one
_symmetry_cell_setting           triclinic
_symmetry_space_group_name_H-M   'P -1'
_symmetry_Int_Tables_number      2
_space_group_name_Hall           '-P 1'
loop_
_symmetry_equiv_pos_site_id
_symmetry_equiv_pos_as_xyz
1 x,y,z
2 -x,-y,-z
_cell_length_a                   7.9086(8)
_cell_length_b                   9.3782(9)
_cell_length_c                   13.0792(8)
_cell_angle_alpha                93.991(6)
_cell_angle_beta                 93.766(6)
_cell_angle_gamma                94.466(8)
_cell_volume                     962.304
_exptl_crystal_colour            colorless
_exptl_crystal_description       block
_cell_formula_units_Z            2
loop_
_atom_site_label
_atom_site_type_symbol
_atom_site_fract_x
_atom_site_fract_y
_atom_site_fract_z
O1 O 0.9804(3) 0.51786(18) 0.28260(14)
O2 O 0.9394(2) -0.03931(17) 0.36871(13)
O3 O 0.5437(3) 0.1917(2) 0.60807(14)
C1 C 0.6780(3) 0.2555(2) -0.05497(15)
C2 C 0.8298(3) 0.1749(3) -0.08416(18)
H1 H 0.8075 0.0748 -0.0712
H2 H 0.8417 0.1794 -0.1572
C3 C 0.9953(3) 0.2329(3) -0.02637(18)
H3 H 1.0240 0.3306 -0.0432
H4 H 1.0859 0.1752 -0.0466
C4 C 0.9790(3) 0.2299(3) 0.08803(17)
H5 H 1.0836 0.2732 0.1240
H6 H 0.9649 0.1308 0.1051
C5 C 0.8302(3) 0.3084(2) 0.12600(14)
H7 H 0.8570 0.4106 0.1178
C6 C 0.8166(3) 0.2925(2) 0.24339(14)
C7 C 0.6459(3) 0.3503(2) 0.27483(15)
H8 H 0.6452 0.4496 0.2561
C8 C 0.4944(3) 0.2635(3) 0.21575(17)
H9 H 0.4780 0.1708 0.2439
H10 H 0.3926 0.3130 0.2249
C9 C 0.5186(3) 0.2415(3) 0.10383(16)
H11 H 0.4233 0.2102 0.0603
C10 C 0.6655(3) 0.2632(2) 0.06159(14)
C11 C 0.5188(4) 0.1788(4) -0.11385(18)
H12 H 0.4982 0.0848 -0.0902
H13 H 0.5357 0.1707 -0.1860
H14 H 0.4228 0.2329 -0.1023
C12 C 0.6973(4) 0.4091(3) -0.08939(19)
H15 H 0.5970 0.4564 -0.0757
H16 H 0.7127 0.4056 -0.1617
H17 H 0.7944 0.4609 -0.0523
C13 C 0.9590(3) 0.3923(2) 0.30290(16)
C14 C 1.0619(4) 0.3367(3) 0.38435(18)
H18 H 1.1404 0.3986 0.4251
C15 C 1.0458(4) 0.1992(3) 0.40160(19)
H19 H 1.1141 0.1668 0.4543
C16 C 0.9250(3) 0.0971(2) 0.34110(16)
C17 C 0.8193(3) 0.1384(2) 0.26797(15)
H20 H 0.7443 0.0696 0.2306
C18 C 0.6300(4) 0.3504(3) 0.38621(18)
C19 C 0.6122(4) 0.3436(3) 0.47498(19)
C20 C 0.5922(6) 0.3286(3) 0.5843(2)
H21 H 0.6993 0.3604 0.6226
H22 H 0.5081 0.3915 0.6069
C21 C 0.6680(7) 0.0974(5) 0.5927(3)
H23 H 0.6805 0.0810 0.5205
H24 H 0.6354 0.0081 0.6206
H25 H 0.7740 0.1379 0.6266
C22 C 0.8394(3) -0.1513(2) 0.3088(2)
H26 H 0.8613 -0.1462 0.2377
H27 H 0.7212 -0.1411 0.3170
H28 H 0.8683 -0.2423 0.3311
loop_
_geom_bond_atom_site_label_1
_geom_bond_atom_site_label_2
_geom_bond_site_symmetry_1
_geom_bond_site_symmetry_2
O1 C13 1_555 1_555
O2 C16 1_555 1_555
O3 C20 1_555 1_555
C1 C2 1_555 1_555
C2 H1 1_555 1_555
H2 C2 1_555 1_555
C3 C2 1_555 1_555
H3 C3 1_555 1_555
H4 C3 1_555 1_555
C4 C3 1_555 1_555
H5 C4 1_555 1_555
H6 C4 1_555 1_555
C5 C4 1_555 1_555
H7 C5 1_555 1_555
C6 C5 1_555 1_555
C7 C6 1_555 1_555
H8 C7 1_555 1_555
C8 C7 1_555 1_555
H9 C8 1_555 1_555
H10 C8 1_555 1_555
C9 C8 1_555 1_555
H11 C9 1_555 1_555
C10 C1 1_555 1_555
C11 C1 1_555 1_555
H12 C11 1_555 1_555
H13 C11 1_555 1_555
H14 C11 1_555 1_555
C12 C1 1_555 1_555
H15 C12 1_555 1_555
H16 C12 1_555 1_555
H17 C12 1_555 1_555
C13 C6 1_555 1_555
C14 C13 1_555 1_555
H18 C14 1_555 1_555
C15 C14 1_555 1_555
H19 C15 1_555 1_555
C16 C15 1_555 1_555
C17 C6 1_555 1_555
H20 C17 1_555 1_555
C18 C7 1_555 1_555
C19 C18 1_555 1_555
C20 C19 1_555 1_555
H21 C20 1_555 1_555
H22 C20 1_555 1_555
C21 O3 1_555 1_555
H23 C21 1_555 1_555
H24 C21 1_555 1_555
H25 C21 1_555 1_555
C22 O2 1_555 1_555
H26 C22 1_555 1_555
H27 C22 1_555 1_555
H28 C22 1_555 1_555
C5 C10 1_555 1_555
C9 C10 1_555 1_555
C16 C17 1_555 1_555

#END
