
#######################################################################
#
#                 Cambridge Crystallographic Data Centre
#                                CCDC 
#
#######################################################################
#
# If this CIF has been generated from an entry in the Cambridge 
# Structural Database, then it will include bibliographic, chemical, 
# crystal, experimental, refinement or atomic coordinate data resulting 
# from the CCDC's data processing and validation procedures.
#
#######################################################################

data_UKEBIV
_chemical_formula_moiety         'C20 H18 I1 N2 1+,I3 1-'
_chemical_name_systematic        
'1-(9-Anthracylmethyl)-3-ethyl-2-iodoimidazolium triiodide'
_symmetry_cell_setting           monoclinic
_symmetry_space_group_name_H-M   'P 21/c'
_symmetry_Int_Tables_number      14
_space_group_name_Hall           '-P 2ybc'
loop_
_symmetry_equiv_pos_site_id
_symmetry_equiv_pos_as_xyz
1 x,y,z
2 x,1/2-y,1/2+z
3 -x,-y,-z
4 -x,1/2+y,1/2-z
_cell_length_a                   10.982(4)
_cell_length_b                   9.951(3)
_cell_length_c                   21.886(7)
_cell_angle_alpha                90
_cell_angle_beta                 101.281(6)
_cell_angle_gamma                90
_cell_volume                     2345.53
_exptl_crystal_colour            red
_exptl_crystal_description       block
_chemical_melting_point          214-216deg.C
_cell_formula_units_Z            4
_exptl_crystal_recrystallization_method dichloromethane/methanol
loop_
_atom_site_label
_atom_site_type_symbol
_atom_site_fract_x
_atom_site_fract_y
_atom_site_fract_z
I1 I 0.86460(4) 0.54567(5) 0.211808(19)
N1 N 0.7406(4) 0.4677(5) 0.0789(2)
N2 N 0.6316(5) 0.3994(6) 0.1447(3)
C1 C 0.7348(5) 0.4657(7) 0.1395(3)
C2 C 0.5717(6) 0.3592(8) 0.0865(3)
H1 H 0.4976 0.3115 0.0770
C3 C 0.6400(6) 0.4018(7) 0.0461(3)
H2 H 0.6222 0.3887 0.0032
C4 C 0.8474(6) 0.5222(8) 0.0536(3)
H3 H 0.9201 0.4672 0.0686
H4 H 0.8655 0.6125 0.0694
C5 C 0.8235(5) 0.5256(7) -0.0163(3)
C6 C 0.8490(5) 0.4108(7) -0.0482(3)
C7 C 0.8871(7) 0.2847(8) -0.0193(4)
H5 H 0.8946 0.2757 0.0236
C8 C 0.9128(7) 0.1770(9) -0.0535(6)
H6 H 0.9381 0.0965 -0.0335
C9 C 0.9017(8) 0.1856(10) -0.1177(6)
H7 H 0.9212 0.1115 -0.1399
C10 C 0.8630(7) 0.2998(9) -0.1482(4)
H8 H 0.8534 0.3029 -0.1914
C11 C 0.8364(6) 0.4168(8) -0.1150(3)
C12 C 0.8015(6) 0.5367(8) -0.1449(3)
H9 H 0.7980 0.5419 -0.1877
C13 C 0.7718(6) 0.6486(7) -0.1144(3)
C14 C 0.7314(7) 0.7707(9) -0.1464(4)
H10 H 0.7254 0.7752 -0.1893
C15 C 0.7018(8) 0.8796(10) -0.1155(5)
H11 H 0.6763 0.9583 -0.1372
C16 C 0.7095(8) 0.8743(9) -0.0509(5)
H12 H 0.6865 0.9489 -0.0301
C17 C 0.7495(6) 0.7637(8) -0.0188(4)
H13 H 0.7553 0.7642 0.0242
C18 C 0.7839(6) 0.6437(7) -0.0479(3)
C19 C 0.5934(9) 0.3591(14) 0.2063(4)
H14 H 0.5421 0.2790 0.2003
H15 H 0.6664 0.3404 0.2380
C20 C 0.5271(10) 0.4662(15) 0.2249(5)
H16 H 0.5022 0.4440 0.2633
H17 H 0.4547 0.4834 0.1934
H18 H 0.5787 0.5448 0.2307
I2 I 0.91926(5) 1.15718(6) 0.16186(2)
I3 I 0.71257(5) 0.96103(5) 0.13816(2)
I4 I 0.51137(7) 0.77269(7) 0.11009(4)
loop_
_geom_bond_atom_site_label_1
_geom_bond_atom_site_label_2
_geom_bond_site_symmetry_1
_geom_bond_site_symmetry_2
I1 C1 1_555 1_555
I2 I3 1_555 1_555
I3 I4 1_555 1_555
N1 C1 1_555 1_555
N2 C1 1_555 1_555
C2 N2 1_555 1_555
H1 C2 1_555 1_555
C3 N1 1_555 1_555
H2 C3 1_555 1_555
C4 N1 1_555 1_555
H3 C4 1_555 1_555
H4 C4 1_555 1_555
C5 C4 1_555 1_555
C6 C5 1_555 1_555
C7 C6 1_555 1_555
H5 C7 1_555 1_555
C8 C7 1_555 1_555
H6 C8 1_555 1_555
C9 C8 1_555 1_555
H7 C9 1_555 1_555
C10 C9 1_555 1_555
H8 C10 1_555 1_555
C11 C6 1_555 1_555
C12 C11 1_555 1_555
H9 C12 1_555 1_555
C13 C12 1_555 1_555
C14 C13 1_555 1_555
H10 C14 1_555 1_555
C15 C14 1_555 1_555
H11 C15 1_555 1_555
C16 C15 1_555 1_555
H12 C16 1_555 1_555
C17 C16 1_555 1_555
H13 C17 1_555 1_555
C18 C5 1_555 1_555
C19 N2 1_555 1_555
H14 C19 1_555 1_555
H15 C19 1_555 1_555
C20 C19 1_555 1_555
H16 C20 1_555 1_555
H17 C20 1_555 1_555
H18 C20 1_555 1_555
C2 C3 1_555 1_555
C10 C11 1_555 1_555
C13 C18 1_555 1_555
C17 C18 1_555 1_555

#END
