
#######################################################################
#
#                 Cambridge Crystallographic Data Centre
#                                CCDC 
#
#######################################################################
#
# If this CIF has been generated from an entry in the Cambridge 
# Structural Database, then it will include bibliographic, chemical, 
# crystal, experimental, refinement or atomic coordinate data resulting 
# from the CCDC's data processing and validation procedures.
#
#######################################################################

data_UKEFEX
_chemical_formula_moiety         'C26 H25 N1 O3'
_chemical_name_systematic        
(2S,10bR)-8,9-Dimethoxy-2,10b-diphenyl-1,5,6,10b-tetrahydropyrrolo[2,1-a]isoquinolin-3(2H)-one
_symmetry_cell_setting           orthorhombic
_symmetry_space_group_name_H-M   'P b c n'
_symmetry_Int_Tables_number      60
_space_group_name_Hall           '-P 2n 2ab'
loop_
_symmetry_equiv_pos_site_id
_symmetry_equiv_pos_as_xyz
1 x,y,z
2 1/2-x,1/2-y,1/2+z
3 -x,y,1/2-z
4 1/2+x,1/2-y,-z
5 -x,-y,-z
6 1/2+x,1/2+y,1/2-z
7 x,-y,1/2+z
8 1/2-x,1/2+y,z
_cell_length_a                   19.7400(13)
_cell_length_b                   9.0462(5)
_cell_length_c                   22.9888(12)
_cell_angle_alpha                90
_cell_angle_beta                 90
_cell_angle_gamma                90
_cell_volume                     4105.16
_exptl_crystal_colour            colorless
_exptl_crystal_description       block
_cell_formula_units_Z            8
loop_
_atom_site_label
_atom_site_type_symbol
_atom_site_fract_x
_atom_site_fract_y
_atom_site_fract_z
O1 O 0.45442(6) 0.16135(16) 0.30901(6)
O2 O 0.34224(7) 0.17478(17) 0.25228(6)
O3 O 0.22688(6) 0.41413(17) 0.57774(5)
N1 N 0.29194(7) 0.47480(16) 0.49904(6)
C1 C 0.51985(9) 0.1694(2) 0.33444(8)
H1 H 0.5526 0.1286 0.3081
H2 H 0.5203 0.1143 0.3701
H3 H 0.5309 0.2708 0.3423
C2 C 0.28245(11) 0.1903(3) 0.21755(9)
H4 H 0.2897 0.1451 0.1803
H5 H 0.2725 0.2934 0.2124
H6 H 0.2451 0.1429 0.2367
C3 C 0.40271(8) 0.2331(2) 0.33688(7)
C4 C 0.40699(8) 0.29774(19) 0.39122(7)
H7 H 0.4474 0.2920 0.4119
C5 C 0.35137(8) 0.37183(18) 0.41569(7)
C6 C 0.29080(8) 0.37940(18) 0.38482(7)
C7 C 0.28680(9) 0.3126(2) 0.32999(7)
H8 H 0.2462 0.3168 0.3095
C8 C 0.34141(9) 0.2411(2) 0.30567(7)
C9 C 0.22751(8) 0.4498(2) 0.40935(7)
H9 H 0.1955 0.3726 0.4193
H10 H 0.2069 0.5110 0.3795
C10 C 0.24052(9) 0.54428(19) 0.46311(7)
H11 H 0.2556 0.6419 0.4514
H12 H 0.1989 0.5550 0.4852
C11 C 0.28007(9) 0.4063(2) 0.55021(7)
C12 C 0.34178(9) 0.3132(2) 0.56547(7)
H13 H 0.3309 0.2103 0.5560
C13 C 0.39646(9) 0.3652(2) 0.52225(7)
H14 H 0.4200 0.2810 0.5058
H15 H 0.4293 0.4278 0.5418
C14 C 0.35925(8) 0.45346(19) 0.47352(7)
C15 C 0.36330(9) 0.3175(2) 0.62860(7)
C16 C 0.37865(11) 0.4501(2) 0.65597(8)
H16 H 0.3738 0.5385 0.6358
C17 C 0.40109(12) 0.4522(3) 0.71305(8)
H17 H 0.4113 0.5418 0.7309
C18 C 0.40836(11) 0.3216(3) 0.74351(8)
H18 H 0.4240 0.3233 0.7816
C19 C 0.39243(11) 0.1891(2) 0.71754(8)
H19 H 0.3967 0.1012 0.7382
C20 C 0.36978(10) 0.1874(2) 0.66004(8)
H20 H 0.3589 0.0978 0.6426
C21 C 0.39228(8) 0.6065(2) 0.46467(7)
C22 C 0.38730(9) 0.7112(2) 0.50901(8)
H21 H 0.3650 0.6867 0.5433
C23 C 0.41490(9) 0.8506(2) 0.50294(8)
H22 H 0.4111 0.9189 0.5330
C24 C 0.44840(9) 0.8887(2) 0.45197(8)
H23 H 0.4670 0.9825 0.4478
C25 C 0.45401(9) 0.7866(2) 0.40753(8)
H24 H 0.4765 0.8117 0.3734
C26 C 0.42611(9) 0.6466(2) 0.41373(7)
H25 H 0.4300 0.5787 0.3836
loop_
_geom_bond_atom_site_label_1
_geom_bond_atom_site_label_2
_geom_bond_site_symmetry_1
_geom_bond_site_symmetry_2
O1 C1 1_555 1_555
O2 C2 1_555 1_555
O3 C11 1_555 1_555
N1 C10 1_555 1_555
C1 H1 1_555 1_555
H2 C1 1_555 1_555
H3 C1 1_555 1_555
C2 H4 1_555 1_555
H5 C2 1_555 1_555
H6 C2 1_555 1_555
C3 O1 1_555 1_555
C4 C3 1_555 1_555
H7 C4 1_555 1_555
C5 C4 1_555 1_555
C6 C5 1_555 1_555
C7 C6 1_555 1_555
H8 C7 1_555 1_555
C8 O2 1_555 1_555
C9 C6 1_555 1_555
H9 C9 1_555 1_555
H10 C9 1_555 1_555
C10 C9 1_555 1_555
H11 C10 1_555 1_555
H12 C10 1_555 1_555
C11 N1 1_555 1_555
C12 C11 1_555 1_555
H13 C12 1_555 1_555
C13 C12 1_555 1_555
H14 C13 1_555 1_555
H15 C13 1_555 1_555
C14 N1 1_555 1_555
C15 C12 1_555 1_555
C16 C15 1_555 1_555
H16 C16 1_555 1_555
C17 C16 1_555 1_555
H17 C17 1_555 1_555
C18 C17 1_555 1_555
H18 C18 1_555 1_555
C19 C18 1_555 1_555
H19 C19 1_555 1_555
C20 C15 1_555 1_555
H20 C20 1_555 1_555
C21 C14 1_555 1_555
C22 C21 1_555 1_555
H21 C22 1_555 1_555
C23 C22 1_555 1_555
H22 C23 1_555 1_555
C24 C23 1_555 1_555
H23 C24 1_555 1_555
C25 C24 1_555 1_555
H24 C25 1_555 1_555
C26 C21 1_555 1_555
H25 C26 1_555 1_555
C3 C8 1_555 1_555
C5 C14 1_555 1_555
C7 C8 1_555 1_555
C13 C14 1_555 1_555
C19 C20 1_555 1_555
C25 C26 1_555 1_555

#END
