
#######################################################################
#
#                 Cambridge Crystallographic Data Centre
#                                CCDC 
#
#######################################################################
#
# If this CIF has been generated from an entry in the Cambridge 
# Structural Database, then it will include bibliographic, chemical, 
# crystal, experimental, refinement or atomic coordinate data resulting 
# from the CCDC's data processing and validation procedures.
#
#######################################################################

data_UKENUU
_chemical_name_common            
(3S,5S,7R,7aS)-1-Benzyl-5-t-butoxycarbonyl-7-methoxycarbonyl-7-methyl-3-phenylhexahydropyrrolo[1,2-a]imidazole
_chemical_formula_moiety         'C27 H34 N2 O4'
_chemical_name_systematic        
'(3S,5S,7R,7aS)-5-t-Butyl 7-methyl 1-benzyl-7-methyl-3-phenylhexahydro-1H-pyrrolo[1,2-a]imidazole-5,7-dicarboxylate'
_symmetry_cell_setting           orthorhombic
_symmetry_space_group_name_H-M   'P 21 21 21'
_symmetry_Int_Tables_number      19
_space_group_name_Hall           'P 2ac 2ab'
loop_
_symmetry_equiv_pos_site_id
_symmetry_equiv_pos_as_xyz
1 x,y,z
2 1/2-x,-y,1/2+z
3 -x,1/2+y,1/2-z
4 1/2+x,1/2-y,-z
_cell_length_a                   8.046(1)
_cell_length_b                   14.280(2)
_cell_length_c                   22.646(3)
_cell_angle_alpha                90
_cell_angle_beta                 90
_cell_angle_gamma                90
_cell_volume                     2601.95
_exptl_crystal_colour            colorless
_exptl_crystal_description       block
_cell_formula_units_Z            4
loop_
_atom_site_label
_atom_site_type_symbol
_atom_site_fract_x
_atom_site_fract_y
_atom_site_fract_z
N1 N -0.2866(4) -0.47670(18) -0.01322(11)
C1 C -0.1996(5) -0.4484(2) 0.04008(15)
H1 H -0.2265 -0.3843 0.0506
H2 H -0.0802 -0.4539 0.0351
C2 C -0.2626(5) -0.5165(2) 0.08646(14)
H3 H -0.3706 -0.4951 0.1012
N2 N -0.2850(4) -0.60271(19) 0.05230(10)
C3 C -0.4335(5) -0.6597(2) 0.06524(14)
H4 H -0.5266 -0.6197 0.0773
C4 C -0.4696(5) -0.7060(2) 0.00644(14)
H5 H -0.5850 -0.7251 0.0041
H6 H -0.3995 -0.7605 0.0008
C5 C -0.4308(4) -0.6306(2) -0.03995(14)
C6 C -0.2824(4) -0.5789(2) -0.01102(14)
H7 H -0.1783 -0.6013 -0.0286
C7 C -0.2068(5) -0.4406(3) -0.06702(15)
H8 H -0.2605 -0.4680 -0.1013
H9 H -0.0912 -0.4598 -0.0674
C8 C -0.2156(5) -0.3346(3) -0.07163(15)
C9 C -0.3438(5) -0.2926(3) -0.10080(16)
H10 H -0.4258 -0.3297 -0.1178
C10 C -0.3555(6) -0.1959(3) -0.10589(19)
H11 H -0.4431 -0.1685 -0.1264
C11 C -0.2355(7) -0.1421(3) -0.0802(2)
H12 H -0.2414 -0.0772 -0.0833
C12 C -0.1074(7) -0.1820(3) -0.0501(2)
H13 H -0.0281 -0.1445 -0.0318
C13 C -0.0956(6) -0.2779(3) -0.04666(17)
H14 H -0.0056 -0.3049 -0.0273
C14 C -0.1419(5) -0.5254(3) 0.13770(15)
C15 C -0.1749(7) -0.4821(3) 0.19062(17)
H15 H -0.2751 -0.4510 0.1966
C16 C -0.0534(9) -0.4856(5) 0.2359(2)
H16 H -0.0734 -0.4562 0.2719
C17 C 0.0916(9) -0.5315(4) 0.2270(2)
H17 H 0.1704 -0.5333 0.2571
C18 C 0.1232(6) -0.5745(4) 0.1755(2)
H18 H 0.2234 -0.6059 0.1701
C19 C 0.0089(6) -0.5724(3) 0.13087(18)
H19 H 0.0319 -0.6026 0.0954
C20 C -0.3925(5) -0.7308(3) 0.11361(17)
O1 O -0.3185(5) -0.8023(2) 0.10575(13)
O2 O -0.4437(4) -0.6998(2) 0.16540(11)
C21 C -0.4070(7) -0.7515(4) 0.22134(19)
C22 C -0.2252(6) -0.7609(4) 0.2297(2)
H20 H -0.1756 -0.6999 0.2318
H21 H -0.1786 -0.7948 0.1970
H22 H -0.2035 -0.7943 0.2657
C23 C -0.4920(10) -0.8460(5) 0.2179(3)
H23 H -0.4396 -0.8834 0.1880
H24 H -0.6072 -0.8374 0.2082
H25 H -0.4831 -0.8771 0.2553
C24 C -0.4795(10) -0.6876(6) 0.2668(2)
H26 H -0.4203 -0.6293 0.2667
H27 H -0.4704 -0.7162 0.3051
H28 H -0.5945 -0.6764 0.2579
C25 C -0.3850(5) -0.6750(3) -0.09970(15)
H29 H -0.4806 -0.7061 -0.1158
H30 H -0.2972 -0.7196 -0.0941
H31 H -0.3487 -0.6270 -0.1264
O3 O -0.6810(4) -0.5536(2) -0.00670(12)
O4 O -0.5813(3) -0.51857(19) -0.09576(11)
C26 C -0.5791(5) -0.5645(3) -0.04363(17)
C27 C -0.7241(6) -0.4550(3) -0.1013(2)
H32 H -0.7202 -0.4241 -0.1389
H33 H -0.7201 -0.4091 -0.0703
H34 H -0.8254 -0.4902 -0.0982
loop_
_geom_bond_atom_site_label_1
_geom_bond_atom_site_label_2
_geom_bond_site_symmetry_1
_geom_bond_site_symmetry_2
N1 C1 1_555 1_555
C1 H1 1_555 1_555
H2 C1 1_555 1_555
C2 C1 1_555 1_555
H3 C2 1_555 1_555
N2 C2 1_555 1_555
C3 N2 1_555 1_555
H4 C3 1_555 1_555
C4 C3 1_555 1_555
H5 C4 1_555 1_555
H6 C4 1_555 1_555
C5 C4 1_555 1_555
C6 N1 1_555 1_555
H7 C6 1_555 1_555
C7 N1 1_555 1_555
H8 C7 1_555 1_555
H9 C7 1_555 1_555
C8 C7 1_555 1_555
C9 C8 1_555 1_555
H10 C9 1_555 1_555
C10 C9 1_555 1_555
H11 C10 1_555 1_555
C11 C10 1_555 1_555
H12 C11 1_555 1_555
C12 C11 1_555 1_555
H13 C12 1_555 1_555
C13 C8 1_555 1_555
H14 C13 1_555 1_555
C14 C2 1_555 1_555
C15 C14 1_555 1_555
H15 C15 1_555 1_555
C16 C15 1_555 1_555
H16 C16 1_555 1_555
C17 C16 1_555 1_555
H17 C17 1_555 1_555
C18 C17 1_555 1_555
H18 C18 1_555 1_555
C19 C14 1_555 1_555
H19 C19 1_555 1_555
C20 C3 1_555 1_555
O1 C20 1_555 1_555
O2 C20 1_555 1_555
C21 O2 1_555 1_555
C22 C21 1_555 1_555
H20 C22 1_555 1_555
H21 C22 1_555 1_555
H22 C22 1_555 1_555
C23 C21 1_555 1_555
H23 C23 1_555 1_555
H24 C23 1_555 1_555
H25 C23 1_555 1_555
C24 C21 1_555 1_555
H26 C24 1_555 1_555
H27 C24 1_555 1_555
H28 C24 1_555 1_555
C25 C5 1_555 1_555
H29 C25 1_555 1_555
H30 C25 1_555 1_555
H31 C25 1_555 1_555
O3 C26 1_555 1_555
O4 C26 1_555 1_555
C26 C5 1_555 1_555
C27 O4 1_555 1_555
H32 C27 1_555 1_555
H33 C27 1_555 1_555
H34 C27 1_555 1_555
N2 C6 1_555 1_555
C5 C6 1_555 1_555
C12 C13 1_555 1_555
C18 C19 1_555 1_555

#END
