
#######################################################################
#
#                 Cambridge Crystallographic Data Centre
#                                CCDC 
#
#######################################################################
#
# If this CIF has been generated from an entry in the Cambridge 
# Structural Database, then it will include bibliographic, chemical, 
# crystal, experimental, refinement or atomic coordinate data resulting 
# from the CCDC's data processing and validation procedures.
#
#######################################################################

data_UKEQUX
_chemical_formula_moiety         'C19 H16 Cl1 N1 O4'
_chemical_name_systematic        
erythro-2-(2-((2-Chlorophenyl)(hydroxy)methyl)-3-oxobutyl)-1H-isoindole-1,3(2H)-dione
_symmetry_cell_setting           monoclinic
_symmetry_space_group_name_H-M   'P 21/c'
_symmetry_Int_Tables_number      14
_space_group_name_Hall           '-P 2ybc'
loop_
_symmetry_equiv_pos_site_id
_symmetry_equiv_pos_as_xyz
1 x,y,z
2 -x,1/2+y,1/2-z
3 -x,-y,-z
4 x,1/2-y,1/2+z
_cell_length_a                   7.8329(3)
_cell_length_b                   16.6085(6)
_cell_length_c                   13.2043(5)
_cell_angle_alpha                90
_cell_angle_beta                 101.014(2)
_cell_angle_gamma                90
_cell_volume                     1686.14
_exptl_crystal_colour            colorless
_exptl_crystal_description       prism
_chemical_melting_point          '150.6-151.3 deg.C'
_cell_formula_units_Z            4
loop_
_atom_site_label
_atom_site_type_symbol
_atom_site_fract_x
_atom_site_fract_y
_atom_site_fract_z
C1 C 0.4601(3) 0.67404(14) -0.05993(16)
C2 C 0.5027(4) 0.59361(15) -0.06934(17)
H1 H 0.4145 0.5536 -0.0775
C3 C 0.6731(4) 0.57220(15) -0.06672(18)
H2 H 0.7034 0.5171 -0.0716
C4 C 0.7998(4) 0.63078(14) -0.05697(17)
H3 H 0.9172 0.6163 -0.0569
C5 C 0.7556(3) 0.71124(13) -0.04723(16)
H4 H 0.8440 0.7511 -0.0410
C6 C 0.5862(3) 0.73466(12) -0.04643(14)
C7 C 0.5388(3) 0.82211(12) -0.03225(15)
H5 H 0.4384 0.8366 -0.0881
C8 C 0.4850(3) 0.83754(12) 0.07425(15)
H6 H 0.4033 0.7939 0.0865
C9 C 0.3897(3) 0.91772(13) 0.06886(15)
C10 C 0.2057(3) 0.92032(16) 0.01128(19)
H7 H 0.1601 0.9751 0.0134
H8 H 0.1347 0.8831 0.0433
H9 H 0.2018 0.9045 -0.0606
C11 C 0.6381(3) 0.83986(13) 0.16611(16)
H10 H 0.7187 0.8833 0.1545
H11 H 0.5931 0.8535 0.2291
C12 C 0.6657(3) 0.69083(12) 0.20550(14)
C13 C 0.8115(3) 0.63232(12) 0.21877(14)
C14 C 0.8145(3) 0.55049(13) 0.23753(16)
H12 H 0.7121 0.5223 0.2450
C15 C 0.9721(3) 0.51106(14) 0.24508(18)
H13 H 0.9781 0.4547 0.2577
C16 C 1.1220(3) 0.55275(16) 0.23451(18)
H14 H 1.2288 0.5243 0.2409
C17 C 1.1188(3) 0.63455(14) 0.21496(17)
H15 H 1.2208 0.6629 0.2070
C18 C 0.9606(3) 0.67331(12) 0.20745(15)
C19 C 0.9140(3) 0.75906(13) 0.18597(15)
Cl1 Cl 0.24102(8) 0.69825(5) -0.06709(6)
N1 N 0.7354(2) 0.76443(10) 0.18376(12)
O1 O 0.6825(2) 0.87097(9) -0.04328(12)
H16 H 0.6576 0.9196 -0.0361
O2 O 0.4614(2) 0.97735(9) 0.11115(13)
O3 O 0.51493(19) 0.67990(10) 0.21124(12)
O4 O 1.0071(2) 0.81461(9) 0.17248(13)
loop_
_geom_bond_atom_site_label_1
_geom_bond_atom_site_label_2
_geom_bond_site_symmetry_1
_geom_bond_site_symmetry_2
C1 C2 1_555 1_555
C2 H1 1_555 1_555
C3 C2 1_555 1_555
H2 C3 1_555 1_555
C4 C3 1_555 1_555
H3 C4 1_555 1_555
C5 C4 1_555 1_555
H4 C5 1_555 1_555
C6 C1 1_555 1_555
C7 C6 1_555 1_555
H5 C7 1_555 1_555
C8 C7 1_555 1_555
H6 C8 1_555 1_555
C9 C8 1_555 1_555
C10 C9 1_555 1_555
H7 C10 1_555 1_555
H8 C10 1_555 1_555
H9 C10 1_555 1_555
C11 C8 1_555 1_555
H10 C11 1_555 1_555
H11 C11 1_555 1_555
C12 C13 1_555 1_555
C13 C14 1_555 1_555
C14 H12 1_555 1_555
C15 C14 1_555 1_555
H13 C15 1_555 1_555
C16 C15 1_555 1_555
H14 C16 1_555 1_555
C17 C16 1_555 1_555
H15 C17 1_555 1_555
C18 C13 1_555 1_555
C19 C18 1_555 1_555
Cl1 C1 1_555 1_555
N1 C11 1_555 1_555
O1 C7 1_555 1_555
H16 O1 1_555 1_555
O2 C9 1_555 1_555
O3 C12 1_555 1_555
O4 C19 1_555 1_555
C5 C6 1_555 1_555
C12 N1 1_555 1_555
C17 C18 1_555 1_555
C19 N1 1_555 1_555

#END
