
#######################################################################
#
#                 Cambridge Crystallographic Data Centre
#                                CCDC 
#
#######################################################################
#
# If this CIF has been generated from an entry in the Cambridge 
# Structural Database, then it will include bibliographic, chemical, 
# crystal, experimental, refinement or atomic coordinate data resulting 
# from the CCDC's data processing and validation procedures.
#
#######################################################################

data_UKEQIL
_chemical_formula_moiety         'C21 H20 N2 O3'
_chemical_name_systematic        
(E)-3-((5-Oxo-2-phenylpyrazolidin-1-yl)methylene)-1-phenylpentane-1,4-dione
_symmetry_cell_setting           monoclinic
_symmetry_space_group_name_H-M   'P 21/n'
_symmetry_Int_Tables_number      14
_space_group_name_Hall           '-P 2yn'
loop_
_symmetry_equiv_pos_site_id
_symmetry_equiv_pos_as_xyz
1 x,y,z
2 1/2-x,1/2+y,1/2-z
3 -x,-y,-z
4 1/2+x,1/2-y,1/2+z
_cell_length_a                   9.8444(4)
_cell_length_b                   10.7537(4)
_cell_length_c                   17.1394(8)
_cell_angle_alpha                90
_cell_angle_beta                 100.088(2)
_cell_angle_gamma                90
_cell_volume                     1786.39
_exptl_crystal_colour            colorless
_exptl_crystal_description       prism
_chemical_melting_point          '155.8-156.8 deg.C'
_cell_formula_units_Z            4
loop_
_atom_site_label
_atom_site_type_symbol
_atom_site_fract_x
_atom_site_fract_y
_atom_site_fract_z
O1 O 0.9640(3) 0.0967(3) 0.83213(18)
O2 O 0.3726(3) -0.0817(3) 0.70827(19)
O3 O 0.7838(3) -0.2031(2) 0.67232(16)
N1 N 0.8307(3) 0.0636(3) 0.70998(17)
N2 N 0.8449(3) 0.0542(3) 0.62863(18)
C1 C 0.9547(4) 0.0862(4) 0.7613(3)
C2 C 1.0634(4) 0.0889(5) 0.7098(3)
H1 H 1.1451 0.0436 0.7342
H2 H 1.0891 0.1737 0.6997
C3 C 0.9945(4) 0.0262(4) 0.6346(3)
H3 H 1.0292 0.0592 0.5892
H4 H 1.0106 -0.0628 0.6374
C4 C 0.7997(4) 0.1653(4) 0.5844(2)
C5 C 0.7655(4) 0.2748(4) 0.6180(2)
H5 H 0.7718 0.2809 0.6726
C6 C 0.7215(4) 0.3761(4) 0.5698(3)
H6 H 0.6974 0.4497 0.5924
C7 C 0.7134(5) 0.3685(5) 0.4889(3)
H7 H 0.6855 0.4372 0.4572
C8 C 0.7467(4) 0.2592(5) 0.4553(3)
H8 H 0.7406 0.2538 0.4007
C9 C 0.7890(4) 0.1575(4) 0.5023(2)
H9 H 0.8105 0.0835 0.4792
C10 C 0.7073(4) 0.0447(3) 0.7354(2)
H10 H 0.7011 0.0762 0.7852
C11 C 0.5938(4) -0.0142(4) 0.6968(2)
C12 C 0.4715(4) -0.0177(4) 0.7353(2)
C13 C 0.4653(5) 0.0611(5) 0.8080(2)
H11 H 0.3791 0.0471 0.8255
H12 H 0.4730 0.1474 0.7950
H13 H 0.5400 0.0387 0.8496
C14 C 0.5855(4) -0.0817(4) 0.6196(2)
H14 H 0.5809 -0.0204 0.5776
H15 H 0.4999 -0.1285 0.6099
C15 C 0.7021(4) -0.1694(4) 0.6137(2)
C16 C 0.7150(4) -0.2172(4) 0.5336(2)
C17 C 0.8418(4) -0.2628(4) 0.5198(2)
H16 H 0.9179 -0.2614 0.5604
C18 C 0.8551(5) -0.3092(4) 0.4475(3)
H17 H 0.9400 -0.3392 0.4392
C19 C 0.7425(5) -0.3116(4) 0.3864(3)
H18 H 0.7516 -0.3430 0.3370
C20 C 0.6181(5) -0.2678(4) 0.3991(3)
H19 H 0.5422 -0.2702 0.3584
C21 C 0.6042(4) -0.2197(4) 0.4721(2)
H20 H 0.5193 -0.1888 0.4797
loop_
_geom_bond_atom_site_label_1
_geom_bond_atom_site_label_2
_geom_bond_site_symmetry_1
_geom_bond_site_symmetry_2
O1 C1 1_555 1_555
O2 C12 1_555 1_555
O3 C15 1_555 1_555
N1 N2 1_555 1_555
N2 C3 1_555 1_555
C1 N1 1_555 1_555
C2 C1 1_555 1_555
H1 C2 1_555 1_555
H2 C2 1_555 1_555
C3 C2 1_555 1_555
H3 C3 1_555 1_555
H4 C3 1_555 1_555
C4 N2 1_555 1_555
C5 C4 1_555 1_555
H5 C5 1_555 1_555
C6 C5 1_555 1_555
H6 C6 1_555 1_555
C7 C6 1_555 1_555
H7 C7 1_555 1_555
C8 C7 1_555 1_555
H8 C8 1_555 1_555
C9 C4 1_555 1_555
H9 C9 1_555 1_555
C10 N1 1_555 1_555
H10 C10 1_555 1_555
C11 C10 1_555 1_555
C12 C11 1_555 1_555
C13 C12 1_555 1_555
H11 C13 1_555 1_555
H12 C13 1_555 1_555
H13 C13 1_555 1_555
C14 C11 1_555 1_555
H14 C14 1_555 1_555
H15 C14 1_555 1_555
C15 C14 1_555 1_555
C16 C15 1_555 1_555
C17 C16 1_555 1_555
H16 C17 1_555 1_555
C18 C17 1_555 1_555
H17 C18 1_555 1_555
C19 C18 1_555 1_555
H18 C19 1_555 1_555
C20 C19 1_555 1_555
H19 C20 1_555 1_555
C21 C16 1_555 1_555
H20 C21 1_555 1_555
C8 C9 1_555 1_555
C20 C21 1_555 1_555

#END
