
#######################################################################
#
#                 Cambridge Crystallographic Data Centre
#                                CCDC 
#
#######################################################################
#
# If this CIF has been generated from an entry in the Cambridge 
# Structural Database, then it will include bibliographic, chemical, 
# crystal, experimental, refinement or atomic coordinate data resulting 
# from the CCDC's data processing and validation procedures.
#
#######################################################################

data_UKEQEH
_chemical_formula_moiety         'C15 H15 Br1 N2 O3'
_chemical_name_systematic        
(E)-3-(2-(4-Bromobenzylidene)-3-oxobutyl)-1-methylimidazolidine-2,4-dione
_symmetry_cell_setting           triclinic
_symmetry_space_group_name_H-M   'P -1'
_symmetry_Int_Tables_number      2
_space_group_name_Hall           '-P 1'
loop_
_symmetry_equiv_pos_site_id
_symmetry_equiv_pos_as_xyz
1 x,y,z
2 -x,-y,-z
_cell_length_a                   7.8110(2)
_cell_length_b                   8.3322(2)
_cell_length_c                   12.4088(4)
_cell_angle_alpha                70.775(1)
_cell_angle_beta                 89.288(1)
_cell_angle_gamma                78.720(1)
_cell_volume                     746.652
_exptl_crystal_colour            colorless
_exptl_crystal_description       prism
_chemical_melting_point          '97.0-98.0 deg.C'
_cell_formula_units_Z            2
loop_
_atom_site_label
_atom_site_type_symbol
_atom_site_fract_x
_atom_site_fract_y
_atom_site_fract_z
Br1 Br 0.3162 0.2842 0.4972
O1 O 0.1972(5) -0.5045(5) 1.2186(3)
O2 O -0.1033(4) -0.1770(4) 0.9054(3)
O3 O 0.3757(5) -0.4642(5) 0.7838(3)
N1 N 0.1541(4) -0.3368(4) 0.8737(3)
N2 N 0.1315(5) -0.2730(5) 0.6857(3)
C1 C 0.3160(6) 0.1533(5) 0.6549(3)
C2 C 0.4268(6) -0.0048(6) 0.6978(4)
H1 H 0.5023 -0.0470 0.6503
C3 C 0.4259(6) -0.1016(6) 0.8121(4)
H2 H 0.5025 -0.2082 0.8417
C4 C 0.3117(5) -0.0407(5) 0.8828(3)
C5 C 0.2056(6) 0.1230(5) 0.8384(4)
H3 H 0.1336 0.1683 0.8861
C6 C 0.2058(6) 0.2194(5) 0.7239(4)
H4 H 0.1322 0.3277 0.6941
C7 C 0.2993(5) -0.1406(5) 1.0047(3)
H5 H 0.3176 -0.0849 1.0560
C8 C 0.2657(5) -0.2993(5) 1.0516(3)
C9 C 0.2504(5) -0.3707(5) 1.1773(4)
C10 C 0.2984(7) -0.2783(6) 1.2539(4)
H6 H 0.2812 -0.3423 1.3318
H7 H 0.2259 -0.1643 1.2329
H8 H 0.4188 -0.2690 1.2462
C11 C 0.2302(7) -0.4193(5) 0.9897(4)
H9 H 0.3396 -0.4966 0.9877
H10 H 0.1524 -0.4902 1.0342
C12 C -0.0008(5) -0.2238(5) 0.8419(3)
C13 C -0.0196(6) -0.1690(5) 0.7140(3)
H11 H -0.1265 -0.1928 0.6893
H12 H -0.0197 -0.0463 0.6792
C14 C 0.1784(8) -0.2564(8) 0.5707(4)
H13 H 0.0829 -0.1842 0.5182
H14 H 0.2041 -0.3692 0.5625
H15 H 0.2796 -0.2049 0.5546
C15 C 0.2368(6) -0.3686(6) 0.7789(4)
loop_
_geom_bond_atom_site_label_1
_geom_bond_atom_site_label_2
_geom_bond_site_symmetry_1
_geom_bond_site_symmetry_2
Br1 C1 1_555 1_555
O1 C9 1_555 1_555
O2 C12 1_555 1_555
O3 C15 1_555 1_555
N1 C11 1_555 1_555
N2 C13 1_555 1_555
C1 C2 1_555 1_555
C2 H1 1_555 1_555
C3 C2 1_555 1_555
H2 C3 1_555 1_555
C4 C3 1_555 1_555
C5 C4 1_555 1_555
H3 C5 1_555 1_555
C6 C1 1_555 1_555
H4 C6 1_555 1_555
C7 C4 1_555 1_555
H5 C7 1_555 1_555
C8 C7 1_555 1_555
C9 C8 1_555 1_555
C10 C9 1_555 1_555
H6 C10 1_555 1_555
H7 C10 1_555 1_555
H8 C10 1_555 1_555
C11 C8 1_555 1_555
H9 C11 1_555 1_555
H10 C11 1_555 1_555
C12 N1 1_555 1_555
C13 C12 1_555 1_555
H11 C13 1_555 1_555
H12 C13 1_555 1_555
C14 N2 1_555 1_555
H13 C14 1_555 1_555
H14 C14 1_555 1_555
H15 C14 1_555 1_555
C15 N1 1_555 1_555
N2 C15 1_555 1_555
C5 C6 1_555 1_555

#END
