
#######################################################################
#
#                 Cambridge Crystallographic Data Centre
#                                CCDC 
#
#######################################################################
#
# If this CIF has been generated from an entry in the Cambridge 
# Structural Database, then it will include bibliographic, chemical, 
# crystal, experimental, refinement or atomic coordinate data resulting 
# from the CCDC's data processing and validation procedures.
#
#######################################################################

data_UKEQAD
_chemical_formula_moiety         'C20 H14 F3 N1 O3'
_chemical_name_systematic        
(E)-2-(3-Oxo-2-(4-(trifluoromethyl)benzylidene)butyl)-1H-isoindole-1,3(2H)-dione
_symmetry_cell_setting           monoclinic
_symmetry_space_group_name_H-M   'P 21/n'
_symmetry_Int_Tables_number      14
_space_group_name_Hall           '-P 2yn'
loop_
_symmetry_equiv_pos_site_id
_symmetry_equiv_pos_as_xyz
1 x,y,z
2 1/2-x,1/2+y,1/2-z
3 -x,-y,-z
4 1/2+x,1/2-y,1/2+z
_cell_length_a                   8.7790(2)
_cell_length_b                   15.4270(4)
_cell_length_c                   12.6700(4)
_cell_angle_alpha                90
_cell_angle_beta                 94.858(2)
_cell_angle_gamma                90
_cell_volume                     1709.78
_exptl_crystal_colour            colorless
_exptl_crystal_description       prism
_chemical_melting_point          '132.7-133.3 deg.C'
_cell_formula_units_Z            4
loop_
_atom_site_label
_atom_site_type_symbol
_atom_site_fract_x
_atom_site_fract_y
_atom_site_fract_z
F1 F -0.2853(4) 0.35206(19) 0.1044(2)
F2 F -0.3321(3) 0.40346(16) -0.0469(2)
F3 F -0.1308(3) 0.43922(17) 0.0402(3)
O1 O 0.3934(3) -0.06478(18) -0.1623(2)
O2 O 0.1705(3) 0.07596(15) 0.15684(18)
O3 O 0.4178(3) 0.24279(15) -0.07148(16)
N1 N 0.2963(3) 0.14221(15) 0.02619(17)
C1 C -0.2195(4) 0.3713(2) 0.0184(3)
C2 C -0.1395(3) 0.2982(2) -0.0270(2)
C3 C -0.1596(4) 0.2143(2) 0.0090(2)
H1 H -0.2250 0.2040 0.0617
C4 C -0.0831(3) 0.1463(2) -0.0329(2)
H2 H -0.0972 0.0903 -0.0082
C5 C 0.0150(3) 0.16029(18) -0.1120(2)
C6 C 0.0306(3) 0.2438(2) -0.1498(2)
H3 H 0.0924 0.2540 -0.2046
C7 C -0.0447(3) 0.3122(2) -0.1069(3)
H4 H -0.0315 0.3681 -0.1320
C8 C 0.0912(3) 0.0856(2) -0.1598(2)
H5 H 0.0398 0.0636 -0.2212
C9 C 0.2206(3) 0.04541(17) -0.1288(2)
C10 C 0.2710(3) -0.0310(2) -0.1901(2)
C11 C 0.1726(4) -0.0658(2) -0.2820(3)
H6 H 0.2231 -0.1138 -0.3122
H7 H 0.1545 -0.0211 -0.3343
H8 H 0.0769 -0.0847 -0.2586
C12 C 0.3302(3) 0.06561(19) -0.0335(2)
H9 H 0.3329 0.0162 0.0139
H10 H 0.4318 0.0721 -0.0573
C13 C 0.2187(3) 0.14100(19) 0.1175(2)
C14 C 0.2093(3) 0.23240(19) 0.1517(2)
C15 C 0.1385(4) 0.2689(2) 0.2337(2)
H11 H 0.0868 0.2352 0.2799
C16 C 0.1477(4) 0.3575(3) 0.2444(3)
H12 H 0.1004 0.3839 0.2990
C17 C 0.2240(4) 0.4084(2) 0.1774(3)
H13 H 0.2276 0.4681 0.1874
C18 C 0.2961(4) 0.3713(2) 0.0946(2)
H14 H 0.3489 0.4051 0.0490
C19 C 0.2861(3) 0.28333(19) 0.08317(19)
C20 C 0.3447(3) 0.2252(2) 0.0021(2)
loop_
_geom_bond_atom_site_label_1
_geom_bond_atom_site_label_2
_geom_bond_site_symmetry_1
_geom_bond_site_symmetry_2
F1 C1 1_555 1_555
F2 C1 1_555 1_555
F3 C1 1_555 1_555
O1 C10 1_555 1_555
O2 C13 1_555 1_555
O3 C20 1_555 1_555
N1 C12 1_555 1_555
C1 C2 1_555 1_555
C2 C3 1_555 1_555
C3 H1 1_555 1_555
C4 C3 1_555 1_555
H2 C4 1_555 1_555
C5 C4 1_555 1_555
C6 C5 1_555 1_555
H3 C6 1_555 1_555
C7 C2 1_555 1_555
H4 C7 1_555 1_555
C8 C5 1_555 1_555
H5 C8 1_555 1_555
C9 C8 1_555 1_555
C10 C9 1_555 1_555
C11 C10 1_555 1_555
H6 C11 1_555 1_555
H7 C11 1_555 1_555
H8 C11 1_555 1_555
C12 C9 1_555 1_555
H9 C12 1_555 1_555
H10 C12 1_555 1_555
C13 N1 1_555 1_555
C14 C13 1_555 1_555
C15 C14 1_555 1_555
H11 C15 1_555 1_555
C16 C15 1_555 1_555
H12 C16 1_555 1_555
C17 C16 1_555 1_555
H13 C17 1_555 1_555
C18 C17 1_555 1_555
H14 C18 1_555 1_555
C19 C14 1_555 1_555
C20 N1 1_555 1_555
C6 C7 1_555 1_555
C18 C19 1_555 1_555
C19 C20 1_555 1_555

#END
