
#######################################################################
#
#                 Cambridge Crystallographic Data Centre
#                                CCDC 
#
#######################################################################
#
# If this CIF has been generated from an entry in the Cambridge 
# Structural Database, then it will include bibliographic, chemical, 
# crystal, experimental, refinement or atomic coordinate data resulting 
# from the CCDC's data processing and validation procedures.
#
#######################################################################

data_UKESIM
_chemical_formula_moiety         'C7 H17 Cl1 N1 1+,C14 H9 O4 S2 1-'
_chemical_name_systematic        
'Triethyl(chloromethyl)ammonium bis(2-carboxyphenyl)disulfide'
_symmetry_cell_setting           triclinic
_symmetry_space_group_name_H-M   'P -1'
_symmetry_Int_Tables_number      2
_space_group_name_Hall           '-P 1'
loop_
_symmetry_equiv_pos_site_id
_symmetry_equiv_pos_as_xyz
1 x,y,z
2 -x,-y,-z
_cell_length_a                   7.88(12)
_cell_length_b                   12.39(19)
_cell_length_c                   21.8(3)
_cell_angle_alpha                89.2(4)
_cell_angle_beta                 89.6(4)
_cell_angle_gamma                76.9(4)
_cell_volume                     2072.8
_cell_formula_units_Z            4
loop_
_atom_site_label
_atom_site_type_symbol
_atom_site_fract_x
_atom_site_fract_y
_atom_site_fract_z
Cl1 Cl 0.3735(5) 0.5595(3) 0.2850(2)
N1 N 0.4283(6) 0.4786(4) 0.1720(3)
C15 C 0.4879(9) 0.5421(6) 0.2180(4)
H2 H 0.4873(9) 0.597(4) 0.2049(10)
H3 H 0.579(7) 0.5154(19) 0.2251(7)
C16 C 0.2565(9) 0.5263(6) 0.1483(5)
H4 H 0.166(6) 0.5368(8) 0.185(2)
H5 H 0.222(3) 0.470(3) 0.1174(19)
C17 C 0.2422(7) 0.6401(4) 0.1150(4)
H6 H 0.1253 0.6671 0.1005
H7 H 0.3214 0.6311 0.0809
H8 H 0.2710 0.6922 0.1430
C18 C 0.5557(9) 0.4646(6) 0.1216(5)
H9 H 0.649(7) 0.435(2) 0.1352(10)
H10 H 0.5622(11) 0.525(4) 0.1094(9)
C19 C 0.5197(11) 0.3995(8) 0.0679(5)
H11 H 0.611(5) 0.3957(9) 0.038(2)
H12 H 0.410(7) 0.435(2) 0.0501(13)
H13 H 0.5158(12) 0.326(5) 0.0813(8)
C20 C 0.4105(9) 0.3728(5) 0.1967(4)
H14 H 0.371(3) 0.334(2) 0.1660(19)
H15 H 0.326(6) 0.3851(9) 0.2271(19)
C21 C 0.5695(9) 0.3046(5) 0.2219(4)
H16 H 0.5530(15) 0.252(4) 0.2328(9)
H17 H 0.599(2) 0.333(2) 0.2472(19)
H18 H 0.636(5) 0.2943(10) 0.1983(18)
Cl2 Cl 0.1264(5) -0.0597(3) 0.7850(2)
N2 N 0.0729(6) 0.0214(4) 0.6720(3)
C36 C 0.0128(9) -0.0431(6) 0.7198(4)
H19 H 0.0135(9) -0.100(4) 0.7073(9)
H20 H -0.081(7) -0.0157(19) 0.7272(7)
C37 C 0.0907(9) 0.1266(6) 0.6969(5)
H21 H 0.133(3) 0.168(3) 0.6653(19)
H22 H 0.176(5) 0.1121(10) 0.7287(19)
C38 C -0.0713(9) 0.1947(5) 0.7220(5)
H23 H -0.0538(13) 0.251(4) 0.7337(9)
H24 H -0.104(2) 0.163(2) 0.7496(18)
H25 H -0.143(5) 0.2069(10) 0.6961(17)
C39 C -0.0560(9) 0.0360(6) 0.6205(4)
H26 H -0.0614(11) -0.031(4) 0.6074(9)
H27 H -0.160(7) 0.068(2) 0.6352(10)
C40 C -0.0196(11) 0.1015(8) 0.5683(5)
H28 H -0.102(5) 0.1044(8) 0.539(2)
H29 H 0.086(7) 0.070(2) 0.5524(12)
H30 H -0.0196(11) 0.171(5) 0.5805(8)
C41 C 0.2431(9) -0.0272(7) 0.6487(5)
H31 H 0.320(5) -0.0375(8) 0.680(2)
H32 H 0.275(2) 0.021(3) 0.6217(18)
C42 C 0.2579(7) -0.1406(4) 0.6160(4)
H33 H 0.3747 -0.1669 0.6012
H34 H 0.1783 -0.1308 0.5822
H35 H 0.2298 -0.1937 0.6445
O1 O 1.0701(6) 0.7179(5) -0.1152(2)
O2 O 0.8378(6) 0.6958(4) -0.0697(2)
O3 O 0.5820(6) 0.7679(4) 0.2467(2)
O4 O 0.4493(6) 0.8994(4) 0.2997(3)
S1 S 0.73657(18) 0.74999(13) 0.04281(8)
S2 S 0.67902(18) 0.76549(12) 0.13324(8)
C1 C 0.9641(8) 0.7324(5) -0.0701(3)
C2 C 1.0085(7) 0.7946(5) -0.0208(3)
C3 C 0.9185(6) 0.8088(4) 0.0342(3)
C4 C 0.9675(7) 0.8684(5) 0.0793(3)
C5 C 1.1063(9) 0.9134(6) 0.0726(4)
C6 C 1.1966(9) 0.9007(6) 0.0198(4)
C7 C 1.1459(8) 0.8419(6) -0.0259(4)
C8 C 0.5092(7) 0.8579(6) 0.2509(3)
C9 C 0.4890(6) 0.9290(5) 0.1976(3)
C10 C 0.5612(6) 0.8963(4) 0.1408(3)
C11 C 0.5424(7) 0.9666(5) 0.0946(3)
C12 C 0.4478(8) 1.0677(5) 0.1004(4)
C13 C 0.3750(8) 1.0985(5) 0.1551(4)
C14 C 0.3957(7) 1.0311(5) 0.2026(3)
H36 H 1.190(7) 0.822(4) -0.060(3)
H37 H 1.274(9) 0.944(6) 0.013(3)
H38 H 1.155(9) 0.932(6) 0.106(4)
H39 H 0.926(7) 0.864(5) 0.116(3)
H40 H 0.597(6) 0.944(4) 0.059(3)
H41 H 0.439(6) 1.120(5) 0.061(3)
H42 H 0.305(8) 1.160(6) 0.158(3)
H43 H 0.368(9) 1.055(6) 0.2408(14)
H44 H 0.444(11) 0.861(8) 0.331(5)
O5 O 0.4311(6) 0.7811(5) 0.3850(2)
O6 O 0.6628(6) 0.8043(4) 0.4293(2)
O7 O 0.9181(6) 0.7321(4) 0.7463(2)
O8 O 1.0505(6) 0.5995(4) 0.7998(2)
H1 H 1.033(3) 0.641(6) 0.824(4)
S3 S 0.76281(18) 0.74996(13) 0.54278(8)
S4 S 0.82073(19) 0.73472(12) 0.63315(8)
C22 C 0.5353(7) 0.7696(5) 0.4291(3)
C23 C 0.4910(7) 0.7048(5) 0.4796(3)
C24 C 0.5832(6) 0.6917(4) 0.5341(3)
C25 C 0.5320(8) 0.6317(5) 0.5802(3)
C26 C 0.3933(8) 0.5864(6) 0.5728(4)
C27 C 0.3039(8) 0.5997(6) 0.5197(4)
C28 C 0.3547(8) 0.6575(6) 0.4740(4)
C29 C 0.9906(7) 0.6415(5) 0.7517(3)
C30 C 1.0111(6) 0.5707(5) 0.6979(3)
C31 C 0.9389(6) 0.6032(5) 0.6409(3)
C32 C 0.9589(8) 0.5342(5) 0.5944(3)
C33 C 1.0515(7) 0.4321(5) 0.5999(4)
C34 C 1.1258(7) 0.4011(6) 0.6555(3)
C35 C 1.1029(7) 0.4686(5) 0.7024(3)
H45 H 0.584(8) 0.624(5) 0.617(4)
H46 H 0.370(6) 0.536(5) 0.599(3)
H47 H 0.209(8) 0.560(5) 0.507(3)
H48 H 0.299(8) 0.679(5) 0.443(3)
H49 H 0.903(8) 0.553(5) 0.564(3)
H50 H 1.033(8) 0.391(6) 0.561(4)
H51 H 1.203(10) 0.324(8) 0.657(4)
H52 H 1.138(8) 0.451(5) 0.740(4)
loop_
_geom_bond_atom_site_label_1
_geom_bond_atom_site_label_2
_geom_bond_site_symmetry_1
_geom_bond_site_symmetry_2
Cl1 C15 1_555 1_555
Cl2 C36 1_555 1_555
N1 C15 1_555 1_555
N2 C36 1_555 1_555
O1 C1 1_555 1_555
O2 C1 1_555 1_555
O3 C8 1_555 1_555
O4 C8 1_555 1_555
O5 C22 1_555 1_555
O6 C22 1_555 1_555
O7 C29 1_555 1_555
O8 H1 1_555 1_555
S1 S2 1_555 1_555
S2 C10 1_555 1_555
S3 S4 1_555 1_555
S4 C31 1_555 1_555
C1 C2 1_555 1_555
C2 C3 1_555 1_555
C3 S1 1_555 1_555
C4 C3 1_555 1_555
C5 C4 1_555 1_555
C6 C5 1_555 1_555
C7 C2 1_555 1_555
C8 C9 1_555 1_555
C9 C10 1_555 1_555
C10 C11 1_555 1_555
C11 C12 1_555 1_555
C12 C13 1_555 1_555
C13 C14 1_555 1_555
C14 C9 1_555 1_555
C15 H2 1_555 1_555
H3 C15 1_555 1_555
C16 N1 1_555 1_555
H4 C16 1_555 1_555
H5 C16 1_555 1_555
C17 C16 1_555 1_555
H6 C17 1_555 1_555
H7 C17 1_555 1_555
H8 C17 1_555 1_555
C18 N1 1_555 1_555
H9 C18 1_555 1_555
H10 C18 1_555 1_555
C19 C18 1_555 1_555
H11 C19 1_555 1_555
H12 C19 1_555 1_555
H13 C19 1_555 1_555
C20 N1 1_555 1_555
H14 C20 1_555 1_555
H15 C20 1_555 1_555
C21 C20 1_555 1_555
H16 C21 1_555 1_555
H17 C21 1_555 1_555
H18 C21 1_555 1_555
C22 C23 1_555 1_555
C23 C24 1_555 1_555
C24 S3 1_555 1_555
C25 C24 1_555 1_555
C26 C25 1_555 1_555
C27 C26 1_555 1_555
C28 C23 1_555 1_555
C29 O8 1_555 1_555
C30 C29 1_555 1_555
C31 C30 1_555 1_555
C32 C31 1_555 1_555
C33 C32 1_555 1_555
C34 C33 1_555 1_555
C35 C30 1_555 1_555
C36 H19 1_555 1_555
H20 C36 1_555 1_555
C37 N2 1_555 1_555
H21 C37 1_555 1_555
H22 C37 1_555 1_555
C38 C37 1_555 1_555
H23 C38 1_555 1_555
H24 C38 1_555 1_555
H25 C38 1_555 1_555
C39 N2 1_555 1_555
H26 C39 1_555 1_555
H27 C39 1_555 1_555
C40 C39 1_555 1_555
H28 C40 1_555 1_555
H29 C40 1_555 1_555
H30 C40 1_555 1_555
C41 N2 1_555 1_555
H31 C41 1_555 1_555
H32 C41 1_555 1_555
C42 C41 1_555 1_555
H33 C42 1_555 1_555
H34 C42 1_555 1_555
H35 C42 1_555 1_555
H36 C7 1_555 1_555
H37 C6 1_555 1_555
H38 C5 1_555 1_555
H39 C4 1_555 1_555
H40 C11 1_555 1_555
H41 C12 1_555 1_555
H42 C13 1_555 1_555
H43 C14 1_555 1_555
H44 O4 1_555 1_555
H45 C25 1_555 1_555
H46 C26 1_555 1_555
H47 C27 1_555 1_555
H48 C28 1_555 1_555
H49 C32 1_555 1_555
H50 C33 1_555 1_555
H51 C34 1_555 1_555
H52 C35 1_555 1_555
C6 C7 1_555 1_555
C27 C28 1_555 1_555
C34 C35 1_555 1_555

#END
