
#######################################################################
#
#                 Cambridge Crystallographic Data Centre
#                                CCDC 
#
#######################################################################
#
# If this CIF has been generated from an entry in the Cambridge 
# Structural Database, then it will include bibliographic, chemical, 
# crystal, experimental, refinement or atomic coordinate data resulting 
# from the CCDC's data processing and validation procedures.
#
#######################################################################

data_UKEZAN
_chemical_formula_moiety         'C17 H15 Br1 N2 O2'
_chemical_name_systematic        
2-(1-(4-bromophenyl)-2-nitroethyl)-3-methyl-1H-indole
_symmetry_cell_setting           tetragonal
_symmetry_space_group_name_H-M   'P 43 21 2'
_symmetry_Int_Tables_number      96
_space_group_name_Hall           'P 4nw 2abw'
loop_
_symmetry_equiv_pos_site_id
_symmetry_equiv_pos_as_xyz
1 x,y,z
2 1/2-y,1/2+x,3/4+z
3 -x,-y,1/2+z
4 1/2+y,1/2-x,1/4+z
5 1/2+x,1/2-y,1/4-z
6 1/2-x,1/2+y,3/4-z
7 y,x,-z
8 -y,-x,1/2-z
_cell_length_a                   9.62840(13)
_cell_length_b                   9.62840(13)
_cell_length_c                   34.5870(7)
_cell_angle_alpha                90
_cell_angle_beta                 90
_cell_angle_gamma                90
_cell_volume                     3206.43
_exptl_crystal_colour            colorless
_exptl_crystal_description       block
_cell_formula_units_Z            8
loop_
_atom_site_label
_atom_site_type_symbol
_atom_site_fract_x
_atom_site_fract_y
_atom_site_fract_z
N1 N 0.9387(3) 0.7690(3) 0.37915(7)
H1 H 0.9113 0.6864 0.3714
C1 C 0.8865(3) 0.8403(3) 0.41039(9)
C2 C 0.9519(3) 0.9656(3) 0.41343(9)
C3 C 1.0506(3) 0.9713(3) 0.38259(10)
C4 C 1.1493(4) 1.0712(4) 0.37065(14)
H2 H 1.1600 1.1564 0.3842
C5 C 1.2290(5) 1.0407(6) 0.33883(17)
H3 H 1.2954 1.1068 0.3302
C6 C 1.2158(5) 0.9182(6) 0.31913(16)
H4 H 1.2737 0.9020 0.2974
C7 C 1.1216(4) 0.8179(5) 0.32973(12)
H5 H 1.1124 0.7333 0.3158
C8 C 1.0404(3) 0.8475(3) 0.36208(9)
C9 C 0.7692(3) 0.7825(3) 0.43383(8)
H6 H 0.7465 0.8536 0.4539
C10 C 0.6383(3) 0.7636(4) 0.40928(11)
H7 H 0.6548 0.6917 0.3894
H8 H 0.5605 0.7323 0.4259
N2 N 0.6011(3) 0.8976(3) 0.39029(10)
O1 O 0.5967(4) 1.0011(3) 0.41034(9)
O2 O 0.5779(5) 0.8985(4) 0.35646(10)
C11 C 0.9270(5) 1.0749(4) 0.44349(11)
H9 H 0.8534 1.0441 0.4611
H10 H 0.8986 1.1616 0.4309
H11 H 1.0126 1.0907 0.4582
C12 C 0.8064(3) 0.6486(3) 0.45547(7)
C13 C 0.9347(3) 0.6386(3) 0.47275(8)
H12 H 1.0010 0.7101 0.4686
C14 C 0.9691(4) 0.5278(4) 0.49586(9)
H13 H 1.0582 0.5230 0.5076
C15 C 0.8734(4) 0.4239(3) 0.50189(9)
C16 C 0.7471(4) 0.4284(4) 0.48434(12)
H14 H 0.6828 0.3546 0.4878
C17 C 0.7125(4) 0.5412(4) 0.46128(11)
H15 H 0.6237 0.5450 0.4494
Br1 Br 0.91529(6) 0.27659(4) 0.536411(13)
loop_
_geom_bond_atom_site_label_1
_geom_bond_atom_site_label_2
_geom_bond_site_symmetry_1
_geom_bond_site_symmetry_2
N1 H1 1_555 1_555
C1 N1 1_555 1_555
C2 C1 1_555 1_555
C3 C2 1_555 1_555
C4 C3 1_555 1_555
H2 C4 1_555 1_555
C5 C4 1_555 1_555
H3 C5 1_555 1_555
C6 C5 1_555 1_555
H4 C6 1_555 1_555
C7 C6 1_555 1_555
H5 C7 1_555 1_555
C8 N1 1_555 1_555
C9 C1 1_555 1_555
H6 C9 1_555 1_555
C10 C9 1_555 1_555
H7 C10 1_555 1_555
H8 C10 1_555 1_555
N2 C10 1_555 1_555
O1 N2 1_555 1_555
O2 N2 1_555 1_555
C11 C2 1_555 1_555
H9 C11 1_555 1_555
H10 C11 1_555 1_555
H11 C11 1_555 1_555
C12 C9 1_555 1_555
C13 C12 1_555 1_555
H12 C13 1_555 1_555
C14 C13 1_555 1_555
H13 C14 1_555 1_555
C15 C14 1_555 1_555
C16 C15 1_555 1_555
H14 C16 1_555 1_555
C17 C12 1_555 1_555
H15 C17 1_555 1_555
Br1 C15 1_555 1_555
C3 C8 1_555 1_555
C7 C8 1_555 1_555
C16 C17 1_555 1_555

#END
