
#######################################################################
#
#                 Cambridge Crystallographic Data Centre
#                                CCDC 
#
#######################################################################
#
# If this CIF has been generated from an entry in the Cambridge 
# Structural Database, then it will include bibliographic, chemical, 
# crystal, experimental, refinement or atomic coordinate data resulting 
# from the CCDC's data processing and validation procedures.
#
#######################################################################

data_UKIGUS
_chemical_formula_moiety         'C24 H19 F3 O3 S1,C1 H1 Cl3'
_chemical_name_systematic        
'2,2-bis(2-methoxyphenyl)-4-((trifluoromethyl)sulfanyl)-2H-chromene chloroform solvate'
_symmetry_cell_setting           monoclinic
_symmetry_space_group_name_H-M   'P 21/n'
_symmetry_Int_Tables_number      14
_space_group_name_Hall           '-P 2yn'
loop_
_symmetry_equiv_pos_site_id
_symmetry_equiv_pos_as_xyz
1 x,y,z
2 1/2-x,1/2+y,1/2-z
3 -x,-y,-z
4 1/2+x,1/2-y,1/2+z
_cell_length_a                   9.3849(5)
_cell_length_b                   19.4808(11)
_cell_length_c                   14.2431(6)
_cell_angle_alpha                90
_cell_angle_beta                 93.135(4)
_cell_angle_gamma                90
_cell_volume                     2600.1
_exptl_crystal_colour            'light colorless'
_exptl_crystal_description       block
_cell_formula_units_Z            4
loop_
_atom_site_label
_atom_site_type_symbol
_atom_site_fract_x
_atom_site_fract_y
_atom_site_fract_z
S1 S 0.2925(2) 0.09885(8) 0.41582(10)
O1 O 0.2139(3) 0.31509(18) 0.5200(2)
O2 O 0.5259(4) 0.2884(2) 0.3199(2)
O3 O 0.4309(4) 0.2484(2) 0.6409(2)
C1 C 0.3646(6) 0.2289(3) 0.4531(3)
H1 H 0.4568 0.2120 0.4489
C2 C 0.2558(6) 0.1858(3) 0.4456(3)
C3 C 0.1109(6) 0.2090(3) 0.4586(3)
C4 C -0.0111(7) 0.1698(4) 0.4384(4)
H2 H -0.0032 0.1259 0.4136
C5 C -0.1437(8) 0.1961(5) 0.4553(5)
H3 H -0.2246 0.1694 0.4429
C6 C -0.1580(7) 0.2620(5) 0.4907(5)
H4 H -0.2479 0.2799 0.5004
C7 C -0.0376(7) 0.3006(4) 0.5112(4)
H5 H -0.0462 0.3444 0.5364
C8 C 0.0971(6) 0.2748(3) 0.4947(3)
C9 C 0.3430(5) 0.3051(3) 0.4686(3)
C10 C 0.4612(5) 0.3368(3) 0.5328(3)
C11 C 0.5292(6) 0.3973(3) 0.5083(4)
H6 H 0.5022 0.4190 0.4519
C12 C 0.6363(6) 0.4257(3) 0.5665(4)
H7 H 0.6811 0.4660 0.5492
C13 C 0.6764(7) 0.3938(4) 0.6505(4)
H8 H 0.7487 0.4127 0.6896
C14 C 0.6109(7) 0.3348(4) 0.6767(4)
H9 H 0.6398 0.3136 0.7331
C15 C 0.5007(6) 0.3059(3) 0.6193(3)
C16 C 0.4905(7) 0.2073(3) 0.7168(4)
H10 H 0.5908 0.2011 0.7095
H11 H 0.4442 0.1633 0.7161
H12 H 0.4765 0.2299 0.7755
C17 C 0.3223(6) 0.3436(3) 0.3742(3)
C18 C 0.2154(6) 0.3913(3) 0.3597(4)
H13 H 0.1528 0.3990 0.4070
C19 C 0.1978(7) 0.4285(3) 0.2767(4)
H14 H 0.1260 0.4613 0.2691
C20 C 0.2886(8) 0.4160(4) 0.2058(4)
H15 H 0.2769 0.4398 0.1493
C21 C 0.3961(7) 0.3686(4) 0.2183(4)
H16 H 0.4564 0.3606 0.1697
C22 C 0.4168(6) 0.3321(3) 0.3022(3)
C23 C 0.6276(8) 0.2781(5) 0.2517(5)
H17 H 0.5817 0.2585 0.1961
H18 H 0.7007 0.2475 0.2763
H19 H 0.6697 0.3214 0.2365
C24 C 0.2868(12) 0.0580(4) 0.5271(6)
F1 F 0.2834(15) -0.0085(7) 0.5191(9)
F2 F 0.1986(17) 0.0790(6) 0.5822(7)
F3 F 0.4282(13) 0.0759(6) 0.5760(8)
Cl1 Cl 0.3589(3) 0.4857(2) 0.7270(2)
Cl2 Cl 0.1049(3) 0.41363(15) 0.76370(17)
Cl3 Cl 0.1127(3) 0.49266(18) 0.6005(2)
C25 C 0.2129(8) 0.4434(4) 0.6782(5)
H20 H 0.2471 0.4036 0.6439
F4? F 0.129(2) 0.0462(12) 0.5390(14)
F5? F 0.3532(19) -0.0026(15) 0.5154(18)
F6? F 0.327(3) 0.0840(8) 0.5983(8)
loop_
_geom_bond_atom_site_label_1
_geom_bond_atom_site_label_2
_geom_bond_site_symmetry_1
_geom_bond_site_symmetry_2
S1 C2 1_555 1_555
O1 C8 1_555 1_555
O2 C22 1_555 1_555
O3 C15 1_555 1_555
C1 H1 1_555 1_555
C2 C1 1_555 1_555
C3 C2 1_555 1_555
C4 C3 1_555 1_555
H2 C4 1_555 1_555
C5 C4 1_555 1_555
H3 C5 1_555 1_555
C6 C5 1_555 1_555
H4 C6 1_555 1_555
C7 C6 1_555 1_555
H5 C7 1_555 1_555
C8 C3 1_555 1_555
C9 O1 1_555 1_555
C10 C9 1_555 1_555
C11 C10 1_555 1_555
H6 C11 1_555 1_555
C12 C11 1_555 1_555
H7 C12 1_555 1_555
C13 C12 1_555 1_555
H8 C13 1_555 1_555
C14 C13 1_555 1_555
H9 C14 1_555 1_555
C15 C10 1_555 1_555
C16 O3 1_555 1_555
H10 C16 1_555 1_555
H11 C16 1_555 1_555
H12 C16 1_555 1_555
C17 C9 1_555 1_555
C18 C17 1_555 1_555
H13 C18 1_555 1_555
C19 C18 1_555 1_555
H14 C19 1_555 1_555
C20 C19 1_555 1_555
H15 C20 1_555 1_555
C21 C20 1_555 1_555
H16 C21 1_555 1_555
C22 C17 1_555 1_555
C23 O2 1_555 1_555
H17 C23 1_555 1_555
H18 C23 1_555 1_555
H19 C23 1_555 1_555
C24 S1 1_555 1_555
F1 C24 1_555 1_555
F2 C24 1_555 1_555
F3 C24 1_555 1_555
Cl1 C25 1_555 1_555
Cl2 C25 1_555 1_555
Cl3 C25 1_555 1_555
C25 H20 1_555 1_555
C1 C9 1_555 1_555
C7 C8 1_555 1_555
C14 C15 1_555 1_555
C21 C22 1_555 1_555

#END
