
#######################################################################
#
#                 Cambridge Crystallographic Data Centre
#                                CCDC 
#
#######################################################################
#
# If this CIF has been generated from an entry in the Cambridge 
# Structural Database, then it will include bibliographic, chemical, 
# crystal, experimental, refinement or atomic coordinate data resulting 
# from the CCDC's data processing and validation procedures.
#
#######################################################################

data_UKIHED
_chemical_formula_moiety         'C29 H20 F5 N1 O2 S2'
_chemical_name_systematic        
2,2-bis(4-fluorophenyl)-1-((4-methylphenyl)sulfonyl)-4-((trifluoromethyl)sulfanyl)-1,2-dihydroquinoline
_symmetry_cell_setting           orthorhombic
_symmetry_space_group_name_H-M   'P b c a'
_symmetry_Int_Tables_number      61
_space_group_name_Hall           '-P 2ac 2ab'
loop_
_symmetry_equiv_pos_site_id
_symmetry_equiv_pos_as_xyz
1 x,y,z
2 1/2-x,-y,1/2+z
3 1/2+x,1/2-y,-z
4 -x,1/2+y,1/2-z
5 -x,-y,-z
6 1/2+x,y,1/2-z
7 1/2-x,1/2+y,z
8 x,1/2-y,1/2+z
_cell_length_a                   19.4188(8)
_cell_length_b                   11.5902(4)
_cell_length_c                   22.8272(6)
_cell_angle_alpha                90
_cell_angle_beta                 90
_cell_angle_gamma                90
_cell_volume                     5137.67
_exptl_crystal_colour            'light colorless'
_exptl_crystal_description       block
_cell_formula_units_Z            8
loop_
_atom_site_label
_atom_site_type_symbol
_atom_site_fract_x
_atom_site_fract_y
_atom_site_fract_z
S1 S 0.50462(5) 0.75471(8) 0.52839(3)
S2 S 0.53108(4) 0.75037(7) 0.28328(3)
F1 F 0.25281(12) 0.49924(18) 0.23861(8)
F2 F 0.27014(13) 1.2095(2) 0.40400(11)
F3 F 0.63292(12) 0.7031(2) 0.50372(10)
F4 F 0.58804(15) 0.6201(2) 0.57774(10)
F5 F 0.56332(15) 0.5670(2) 0.49025(12)
O1 O 0.48003(12) 0.69895(18) 0.24679(8)
O2 O 0.58264(12) 0.82171(18) 0.25719(8)
N1 N 0.49124(12) 0.8355(2) 0.33227(9)
C1 C 0.42533(15) 0.8051(2) 0.36316(11)
C2 C 0.44321(16) 0.7561(2) 0.42348(11)
H1 H 0.4165 0.6971 0.4392
C3 C 0.49650(16) 0.7969(3) 0.45374(11)
C4 C 0.54053(15) 0.8866(2) 0.42867(11)
C5 C 0.58365(17) 0.9559(3) 0.46201(12)
H2 H 0.5863 0.9446 0.5023
C6 C 0.62250(18) 1.0412(3) 0.43620(13)
H3 H 0.6516 1.0865 0.4590
C7 C 0.61830(18) 1.0596(3) 0.37647(13)
H4 H 0.6448 1.1172 0.3592
C8 C 0.57519(16) 0.9932(3) 0.34246(12)
H5 H 0.5718 1.0072 0.3025
C9 C 0.53690(15) 0.9056(2) 0.36783(11)
C10 C 0.5750(2) 0.6576(3) 0.52377(16)
C11 C 0.38516(15) 0.9182(3) 0.37317(11)
C12 C 0.39944(19) 1.0199(3) 0.34415(13)
H6 H 0.4355 1.0223 0.3174
C13 C 0.3609(2) 1.1183(3) 0.35427(17)
H7 H 0.3711 1.1868 0.3349
C14 C 0.3083(2) 1.1131(4) 0.39287(18)
C15 C 0.29068(19) 1.0147(4) 0.42185(15)
H8 H 0.2536 1.0136 0.4476
C16 C 0.32968(17) 0.9157(3) 0.41183(13)
H9 H 0.3186 0.8475 0.4311
C17 C 0.37921(16) 0.7216(2) 0.32872(11)
C18 C 0.33379(17) 0.7618(3) 0.28680(12)
H10 H 0.3321 0.8405 0.2789
C19 C 0.29084(18) 0.6881(3) 0.25626(13)
H11 H 0.2604 0.7162 0.2282
C20 C 0.29443(18) 0.5726(3) 0.26844(13)
C21 C 0.38057(17) 0.6037(3) 0.33999(12)
H12 H 0.4103 0.5749 0.3684
C22 C 0.33820(18) 0.5285(3) 0.30943(13)
H13 H 0.3396 0.4496 0.3167
C23 C 0.57448(16) 0.6410(3) 0.32144(12)
C24 C 0.63426(18) 0.6687(3) 0.35157(14)
H14 H 0.6495 0.7447 0.3531
C25 C 0.67090(19) 0.5826(3) 0.37921(15)
H15 H 0.7108 0.6016 0.3996
C26 C 0.64970(19) 0.4683(3) 0.37727(15)
C27 C 0.59014(19) 0.4431(3) 0.34673(14)
H16 H 0.5750 0.3671 0.3450
C28 C 0.55264(18) 0.5275(3) 0.31878(13)
H17 H 0.5129 0.5083 0.2982
C29 C 0.6912(2) 0.3749(4) 0.40713(19)
H18 H 0.6625 0.3345 0.4345
H19 H 0.7293 0.4091 0.4275
H20 H 0.7082 0.3217 0.3783
loop_
_geom_bond_atom_site_label_1
_geom_bond_atom_site_label_2
_geom_bond_site_symmetry_1
_geom_bond_site_symmetry_2
S1 C3 1_555 1_555
S2 O1 1_555 1_555
F1 C20 1_555 1_555
F2 C14 1_555 1_555
F3 C10 1_555 1_555
F4 C10 1_555 1_555
F5 C10 1_555 1_555
O2 S2 1_555 1_555
N1 S2 1_555 1_555
C1 N1 1_555 1_555
C2 C1 1_555 1_555
H1 C2 1_555 1_555
C3 C2 1_555 1_555
C4 C3 1_555 1_555
C5 C4 1_555 1_555
H2 C5 1_555 1_555
C6 C5 1_555 1_555
H3 C6 1_555 1_555
C7 C6 1_555 1_555
H4 C7 1_555 1_555
C8 C7 1_555 1_555
H5 C8 1_555 1_555
C9 N1 1_555 1_555
C10 S1 1_555 1_555
C11 C1 1_555 1_555
C12 C11 1_555 1_555
H6 C12 1_555 1_555
C13 C12 1_555 1_555
H7 C13 1_555 1_555
C14 C13 1_555 1_555
C15 C14 1_555 1_555
H8 C15 1_555 1_555
C16 C11 1_555 1_555
H9 C16 1_555 1_555
C17 C1 1_555 1_555
C18 C17 1_555 1_555
H10 C18 1_555 1_555
C19 C18 1_555 1_555
H11 C19 1_555 1_555
C20 C19 1_555 1_555
C21 C17 1_555 1_555
H12 C21 1_555 1_555
C22 C20 1_555 1_555
H13 C22 1_555 1_555
C23 S2 1_555 1_555
C24 C23 1_555 1_555
H14 C24 1_555 1_555
C25 C24 1_555 1_555
H15 C25 1_555 1_555
C26 C25 1_555 1_555
C27 C26 1_555 1_555
H16 C27 1_555 1_555
C28 C23 1_555 1_555
H17 C28 1_555 1_555
C29 C26 1_555 1_555
H18 C29 1_555 1_555
H19 C29 1_555 1_555
H20 C29 1_555 1_555
C4 C9 1_555 1_555
C8 C9 1_555 1_555
C15 C16 1_555 1_555
C21 C22 1_555 1_555
C27 C28 1_555 1_555

#END
