
#######################################################################
#
#                 Cambridge Crystallographic Data Centre
#                                CCDC 
#
#######################################################################
#
# If this CIF has been generated from an entry in the Cambridge 
# Structural Database, then it will include bibliographic, chemical, 
# crystal, experimental, refinement or atomic coordinate data resulting 
# from the CCDC's data processing and validation procedures.
#
#######################################################################

data_UKIJAB
_chemical_formula_moiety         'C3 H1 N6 O6 1-,H5 N2 1+'
_chemical_name_systematic        
'hydrazinium dinitro(3-nitro-1H-1,2,4-triazol-1-yl)methanide'
_symmetry_cell_setting           monoclinic
_symmetry_space_group_name_H-M   'P 21/c'
_symmetry_Int_Tables_number      14
_space_group_name_Hall           '-P 2ybc'
loop_
_symmetry_equiv_pos_site_id
_symmetry_equiv_pos_as_xyz
1 x,y,z
2 -x,1/2+y,1/2-z
3 -x,-y,-z
4 x,1/2-y,1/2+z
_cell_length_a                   6.4094(9)
_cell_length_b                   16.106(2)
_cell_length_c                   9.1462(11)
_cell_angle_alpha                90
_cell_angle_beta                 100.123(4)
_cell_angle_gamma                90
_cell_volume                     929.462
_exptl_crystal_description       block
_cell_formula_units_Z            4
loop_
_atom_site_label
_atom_site_type_symbol
_atom_site_fract_x
_atom_site_fract_y
_atom_site_fract_z
C1 C 0.8258(4) 0.22733(19) 1.0782(3)
C2 C 0.5775(5) 0.2267(2) 0.9027(3)
H1 H 0.4764 0.2120 0.8178
C3 C 0.4594(5) 0.37140(19) 0.9345(3)
N1 N 0.5802(4) 0.29958(15) 0.9745(3)
N2 N 0.7466(4) 0.30059(16) 1.0913(2)
N3 N 0.7336(4) 0.17834(16) 0.9656(3)
N4 N 0.2945(4) 0.38896(17) 1.0071(3)
N5 N 0.5248(4) 0.42247(16) 0.8298(3)
N6 N 1.0111(4) 0.20074(17) 1.1828(3)
O1 O 0.1775(4) 0.44972(14) 0.9754(2)
O2 O 0.2663(3) 0.33884(14) 1.1082(2)
O3 O 0.4338(3) 0.48918(14) 0.7915(2)
O4 O 0.6811(4) 0.39835(14) 0.7775(3)
O5 O 1.0586(3) 0.24009(14) 1.2984(2)
O6 O 1.1092(4) 0.14151(15) 1.1474(3)
N7 N 1.0162(5) 0.56570(18) 0.7227(3)
H2 H 1.104(3) 0.5991(15) 0.692(3)
H3 H 0.965(4) 0.5942(15) 0.791(2)
H4 H 1.095(4) 0.5283(15) 0.774(3)
N8 N 0.8577(6) 0.5349(3) 0.6121(4)
H5 H 0.787(5) 0.4925(18) 0.644(4)
H6 H 0.759(5) 0.5670(18) 0.573(4)
loop_
_geom_bond_atom_site_label_1
_geom_bond_atom_site_label_2
_geom_bond_site_symmetry_1
_geom_bond_site_symmetry_2
C1 N2 1_555 1_555
C2 H1 1_555 1_555
C3 N1 1_555 1_555
N1 C2 1_555 1_555
N2 N1 1_555 1_555
N3 C1 1_555 1_555
N4 C3 1_555 1_555
N5 C3 1_555 1_555
N6 C1 1_555 1_555
O1 N4 1_555 1_555
O2 N4 1_555 1_555
O3 N5 1_555 1_555
O4 N5 1_555 1_555
O5 N6 1_555 1_555
O6 N6 1_555 1_555
N7 H2 1_555 1_555
H3 N7 1_555 1_555
H4 N7 1_555 1_555
N8 N7 1_555 1_555
H5 N8 1_555 1_555
H6 N8 1_555 1_555
C2 N3 1_555 1_555

#END
