
#######################################################################
#
#                 Cambridge Crystallographic Data Centre
#                                CCDC 
#
#######################################################################
#
# If this CIF has been generated from an entry in the Cambridge 
# Structural Database, then it will include bibliographic, chemical, 
# crystal, experimental, refinement or atomic coordinate data resulting 
# from the CCDC's data processing and validation procedures.
#
#######################################################################

data_UKIKIK
_chemical_formula_moiety         'C3 H1 N6 O6 1-,H4 N1 O1 1+'
_chemical_name_systematic        
'hydroxyammonium dinitro(3-nitro-1H-1,2,4-triazol-1-yl)methanide'
_symmetry_cell_setting           monoclinic
_symmetry_space_group_name_H-M   'P 21/c'
_symmetry_Int_Tables_number      14
_space_group_name_Hall           '-P 2ybc'
loop_
_symmetry_equiv_pos_site_id
_symmetry_equiv_pos_as_xyz
1 x,y,z
2 -x,1/2+y,1/2-z
3 -x,-y,-z
4 x,1/2-y,1/2+z
_cell_length_a                   6.4054(9)
_cell_length_b                   15.829(2)
_cell_length_c                   8.9085(10)
_cell_angle_alpha                90
_cell_angle_beta                 99.085(4)
_cell_angle_gamma                90
_cell_volume                     891.911
_exptl_crystal_description       block
_cell_formula_units_Z            4
loop_
_atom_site_label
_atom_site_type_symbol
_atom_site_fract_x
_atom_site_fract_y
_atom_site_fract_z
C1 C 0.1689(4) 0.77223(17) 0.4172(3)
C2 C 0.4202(4) 0.77429(16) 0.5919(3)
H1 H 0.5229 0.7902 0.6761
C3 C 0.5369(4) 0.62716(16) 0.5633(3)
N1 N 0.4150(3) 0.69878(13) 0.5215(2)
N2 N 0.2465(3) 0.69660(13) 0.4046(2)
N3 N 0.2642(3) 0.82306(13) 0.5286(2)
N4 N 0.7074(3) 0.61071(14) 0.4899(2)
N5 N 0.4711(3) 0.57331(14) 0.6669(2)
N6 N -0.0172(3) 0.79976(14) 0.3131(2)
O1 O 0.8283(3) 0.55065(11) 0.5257(2)
O2 O 0.7349(3) 0.66047(12) 0.3845(2)
O3 O 0.5635(3) 0.50603(11) 0.70675(19)
O4 O 0.3068(3) 0.59495(11) 0.7190(2)
O5 O -0.0646(3) 0.76077(11) 0.1937(2)
O6 O -0.1129(3) 0.85991(12) 0.3537(2)
N7 N -0.0126(4) 0.44064(14) 0.8002(3)
H2 H -0.084(3) 0.4096(12) 0.859(2)
H3 H 0.036(4) 0.4067(12) 0.732(2)
H4 H -0.087(3) 0.4814(12) 0.754(2)
O7 O 0.1652(3) 0.47329(13) 0.8946(2)
H5 H 0.218(5) 0.5098(16) 0.842(3)
loop_
_geom_bond_atom_site_label_1
_geom_bond_atom_site_label_2
_geom_bond_site_symmetry_1
_geom_bond_site_symmetry_2
C1 N2 1_555 1_555
C2 H1 1_555 1_555
C3 N1 1_555 1_555
N1 C2 1_555 1_555
N2 N1 1_555 1_555
N3 C1 1_555 1_555
N4 C3 1_555 1_555
N5 C3 1_555 1_555
N6 C1 1_555 1_555
O1 N4 1_555 1_555
O2 N4 1_555 1_555
O3 N5 1_555 1_555
O4 N5 1_555 1_555
O5 N6 1_555 1_555
O6 N6 1_555 1_555
N7 H2 1_555 1_555
H3 N7 1_555 1_555
H4 N7 1_555 1_555
O7 N7 1_555 1_555
H5 O7 1_555 1_555
C2 N3 1_555 1_555

#END
