
#######################################################################
#
#                 Cambridge Crystallographic Data Centre
#                                CCDC 
#
#######################################################################
#
# If this CIF has been generated from an entry in the Cambridge 
# Structural Database, then it will include bibliographic, chemical, 
# crystal, experimental, refinement or atomic coordinate data resulting 
# from the CCDC's data processing and validation procedures.
#
#######################################################################

data_UKININ
_chemical_formula_moiety         'C16 H16 O1 S1'
_chemical_name_systematic        2-(biphenyl-4-ylsulfanyl)tetrahydrofuran
_symmetry_cell_setting           monoclinic
_symmetry_space_group_name_H-M   'P 21/c'
_symmetry_Int_Tables_number      14
_space_group_name_Hall           '-P 2ybc'
loop_
_symmetry_equiv_pos_site_id
_symmetry_equiv_pos_as_xyz
1 x,y,z
2 -x,1/2+y,1/2-z
3 -x,-y,-z
4 x,1/2-y,1/2+z
_cell_length_a                   6.0777(12)
_cell_length_b                   9.854(2)
_cell_length_c                   22.853(5)
_cell_angle_alpha                90
_cell_angle_beta                 103.86(3)
_cell_angle_gamma                90
_cell_volume                     1328.81
_exptl_crystal_colour            colorless
_exptl_crystal_description       plate
_cell_formula_units_Z            4
_exptl_crystal_recrystallization_method 'Re-crystallisation from solvent'
loop_
_atom_site_label
_atom_site_type_symbol
_atom_site_fract_x
_atom_site_fract_y
_atom_site_fract_z
S1 S 0.5234(4) 0.5632(2) 0.38528(10)
O1 O 0.3698(16) 0.3087(7) 0.3900(4)
C1 C 0.6258(12) 0.5320(8) 0.3200(3)
C2 C 0.6121(13) 0.4095(8) 0.2908(4)
H1 H 0.5381 0.3368 0.3036
C3 C 0.7091(13) 0.3945(8) 0.2420(3)
H2 H 0.6977 0.3112 0.2223
C4 C 0.8218(12) 0.4993(7) 0.2217(3)
C5 C 0.8329(12) 0.6222(8) 0.2515(3)
H3 H 0.9084 0.6944 0.2388
C6 C 0.7349(12) 0.6402(8) 0.2995(3)
H4 H 0.7416 0.7245 0.3182
C7 C 0.9329(12) 0.4798(7) 0.1708(3)
C8 C 0.8359(14) 0.3967(8) 0.1223(4)
H5 H 0.7004 0.3519 0.1214
C9 C 0.9416(16) 0.3808(10) 0.0754(4)
H6 H 0.8757 0.3255 0.0430
C10 C 1.1419(16) 0.4454(10) 0.0760(4)
H7 H 1.2116 0.4333 0.0443
C11 C 1.2387(15) 0.5277(10) 0.1233(4)
H8 H 1.3740 0.5722 0.1237
C12 C 1.1349(13) 0.5450(9) 0.1709(4)
H9 H 1.2018 0.6009 0.2030
C13 C 0.2957(15) 0.4434(10) 0.3796(4)
H10 H 0.1918 0.4504 0.3397
C14 C 0.1692(15) 0.4784(11) 0.4281(4)
H11 H 0.2630 0.5322 0.4601
H12 H 0.0303 0.5276 0.4111
C15 C 0.1207(19) 0.3430(11) 0.4505(5)
H13 H 0.1135 0.3473 0.4924
H14 H -0.0210 0.3067 0.4266
C16 C 0.316(2) 0.2603(11) 0.4432(5)
H15 H 0.4491 0.2741 0.4787
H16 H 0.2871 0.1669 0.4391
loop_
_geom_bond_atom_site_label_1
_geom_bond_atom_site_label_2
_geom_bond_site_symmetry_1
_geom_bond_site_symmetry_2
S1 C1 1_555 1_555
O1 C13 1_555 1_555
C1 C2 1_555 1_555
C2 H1 1_555 1_555
C3 C2 1_555 1_555
H2 C3 1_555 1_555
C4 C3 1_555 1_555
C5 C4 1_555 1_555
H3 C5 1_555 1_555
C6 C1 1_555 1_555
H4 C6 1_555 1_555
C7 C4 1_555 1_555
C8 C7 1_555 1_555
H5 C8 1_555 1_555
C9 C8 1_555 1_555
H6 C9 1_555 1_555
C10 C9 1_555 1_555
H7 C10 1_555 1_555
C11 C10 1_555 1_555
H8 C11 1_555 1_555
C12 C7 1_555 1_555
H9 C12 1_555 1_555
C13 S1 1_555 1_555
H10 C13 1_555 1_555
C14 C13 1_555 1_555
H11 C14 1_555 1_555
H12 C14 1_555 1_555
C15 C14 1_555 1_555
H13 C15 1_555 1_555
H14 C15 1_555 1_555
C16 O1 1_555 1_555
H15 C16 1_555 1_555
H16 C16 1_555 1_555
C5 C6 1_555 1_555
C11 C12 1_555 1_555
C15 C16 1_555 1_555

#END
