
#######################################################################
#
#                 Cambridge Crystallographic Data Centre
#                                CCDC 
#
#######################################################################
#
# If this CIF has been generated from an entry in the Cambridge 
# Structural Database, then it will include bibliographic, chemical, 
# crystal, experimental, refinement or atomic coordinate data resulting 
# from the CCDC's data processing and validation procedures.
#
#######################################################################

data_UKIYAQ
_chemical_formula_moiety         'C23 H22 Br1 N1 O3 S1'
_chemical_name_systematic        
6-bromo-1'-((4-methylphenyl)sulfonyl)-3'-vinyl-2H-spiro[naphthalene-1,4'-piperidin]-2-one
_symmetry_cell_setting           monoclinic
_symmetry_space_group_name_H-M   'P 21'
_symmetry_Int_Tables_number      4
_space_group_name_Hall           'P 2yb'
loop_
_symmetry_equiv_pos_site_id
_symmetry_equiv_pos_as_xyz
1 x,y,z
2 -x,1/2+y,-z
_cell_length_a                   10.0946(10)
_cell_length_b                   8.9773(9)
_cell_length_c                   11.6435(11)
_cell_angle_alpha                90
_cell_angle_beta                 94.463(2)
_cell_angle_gamma                90
_cell_volume                     1051.96
_exptl_crystal_colour            colorless
_exptl_crystal_description       block
_cell_formula_units_Z            2
loop_
_atom_site_label
_atom_site_type_symbol
_atom_site_fract_x
_atom_site_fract_y
_atom_site_fract_z
Br1 Br 0.90646(3) 0.25125(4) 0.99365(3)
S1 S 0.33707(8) 0.99224(9) 0.53664(6)
O1 O 0.5453(2) 1.0673(3) 0.92353(18)
O2 O 0.2348(3) 0.8835(3) 0.5132(2)
O3 O 0.4262(2) 1.0262(3) 0.45089(18)
N1 N 0.4290(3) 0.9353(3) 0.6490(2)
C1 C 0.5988(3) 0.9473(3) 0.9427(3)
C2 C 0.6733(3) 0.9193(4) 1.0530(3)
H1 H 0.6748 0.9941 1.1108
C3 C 0.7384(3) 0.7946(3) 1.0757(3)
H2 H 0.7873 0.7845 1.1483
C4 C 0.7390(3) 0.6721(3) 0.9952(2)
C5 C 0.8103(3) 0.5430(3) 1.0250(2)
H3 H 0.8611 0.5374 1.0970
C6 C 0.8074(3) 0.4239(3) 0.9509(3)
C7 C 0.7339(3) 0.4316(4) 0.8452(3)
H4 H 0.7316 0.3492 0.7939
C8 C 0.6646(3) 0.5593(4) 0.8153(3)
H5 H 0.6144 0.5635 0.7429
C9 C 0.6656(3) 0.6831(3) 0.8880(2)
C10 C 0.5902(3) 0.8235(3) 0.8507(2)
C11 C 0.4414(3) 0.7850(3) 0.8234(3)
H6 H 0.4353 0.6896 0.7806
H7 H 0.4005 0.7695 0.8971
C12 C 0.3606(3) 0.9018(4) 0.7537(3)
H8 H 0.2701 0.8636 0.7321
H9 H 0.3529 0.9933 0.8001
C13 C 0.5613(3) 1.0010(4) 0.6747(2)
H10 H 0.5546 1.0912 0.7228
H11 H 0.5999 1.0298 0.6024
C14 C 0.6492(3) 0.8849(3) 0.7391(2)
H12 H 0.6553 0.7983 0.6857
C15 C 0.7875(3) 0.9430(4) 0.7633(3)
H13 H 0.8011 1.0207 0.8183
C16 C 0.8901(4) 0.8945(4) 0.7142(3)
H14 H 0.8801 0.8169 0.6587
H15 H 0.9753 0.9365 0.7337
C17 C 0.2590(3) 1.1589(4) 0.5737(3)
C18 C 0.3318(3) 1.2897(4) 0.5842(3)
H16 H 0.4233 1.2900 0.5703
C19 C 0.2703(4) 1.4197(4) 0.6151(3)
H17 H 0.3203 1.5094 0.6218
C20 C 0.1358(4) 1.4214(4) 0.6365(3)
C21 C 0.0658(3) 1.2899(4) 0.6241(3)
H18 H -0.0259 1.2894 0.6373
C22 C 0.1251(3) 1.1584(4) 0.5930(3)
H19 H 0.0748 1.0691 0.5850
C23 C 0.0724(4) 1.5636(5) 0.6727(3)
H20 H -0.0243 1.5560 0.6582
H21 H 0.1050 1.6470 0.6284
H22 H 0.0952 1.5805 0.7550
loop_
_geom_bond_atom_site_label_1
_geom_bond_atom_site_label_2
_geom_bond_site_symmetry_1
_geom_bond_site_symmetry_2
Br1 C6 1_555 1_555
S1 O2 1_555 1_555
O1 C1 1_555 1_555
O3 S1 1_555 1_555
N1 S1 1_555 1_555
C1 C2 1_555 1_555
C2 H1 1_555 1_555
C3 C2 1_555 1_555
H2 C3 1_555 1_555
C4 C3 1_555 1_555
C5 C4 1_555 1_555
H3 C5 1_555 1_555
C6 C5 1_555 1_555
C7 C6 1_555 1_555
H4 C7 1_555 1_555
C8 C7 1_555 1_555
H5 C8 1_555 1_555
C9 C4 1_555 1_555
C10 C1 1_555 1_555
C11 C10 1_555 1_555
H6 C11 1_555 1_555
H7 C11 1_555 1_555
C12 N1 1_555 1_555
H8 C12 1_555 1_555
H9 C12 1_555 1_555
C13 N1 1_555 1_555
H10 C13 1_555 1_555
H11 C13 1_555 1_555
C14 C10 1_555 1_555
H12 C14 1_555 1_555
C15 C14 1_555 1_555
H13 C15 1_555 1_555
C16 C15 1_555 1_555
H14 C16 1_555 1_555
H15 C16 1_555 1_555
C17 S1 1_555 1_555
C18 C17 1_555 1_555
H16 C18 1_555 1_555
C19 C18 1_555 1_555
H17 C19 1_555 1_555
C20 C19 1_555 1_555
C21 C20 1_555 1_555
H18 C21 1_555 1_555
C22 C17 1_555 1_555
H19 C22 1_555 1_555
C23 C20 1_555 1_555
H20 C23 1_555 1_555
H21 C23 1_555 1_555
H22 C23 1_555 1_555
C8 C9 1_555 1_555
C9 C10 1_555 1_555
C11 C12 1_555 1_555
C13 C14 1_555 1_555
C21 C22 1_555 1_555

#END
