
#######################################################################
#
#                 Cambridge Crystallographic Data Centre
#                                CCDC 
#
#######################################################################
#
# If this CIF has been generated from an entry in the Cambridge 
# Structural Database, then it will include bibliographic, chemical, 
# crystal, experimental, refinement or atomic coordinate data resulting 
# from the CCDC's data processing and validation procedures.
#
#######################################################################

data_UKOQUG
_chemical_formula_moiety         'C15 H13 Cl1 N2 O1 S1'
_chemical_name_systematic        N-(4-Chlorobenzoyl)-N'-(o-tolyl)thiourea
_symmetry_cell_setting           monoclinic
_symmetry_space_group_name_H-M   'P n'
_symmetry_Int_Tables_number      7
_space_group_name_Hall           'P -2yac'
loop_
_symmetry_equiv_pos_site_id
_symmetry_equiv_pos_as_xyz
1 x,y,z
2 1/2+x,-y,1/2+z
_cell_length_a                   3.9898(3)
_cell_length_b                   22.922(2)
_cell_length_c                   16.005(2)
_cell_angle_alpha                90
_cell_angle_beta                 104.367(4)
_cell_angle_gamma                90
_cell_volume                     1417.95
_exptl_crystal_colour            colorless
_exptl_crystal_description       platelet
_chemical_melting_point          '163-164 deg.C'
_cell_formula_units_Z            4
loop_
_atom_site_label
_atom_site_type_symbol
_atom_site_fract_x
_atom_site_fract_y
_atom_site_fract_z
Cl1 Cl 1.0501(8) 0.33220(9) 0.5262(2)
S1 S -0.4152(6) 0.17078(8) 0.0500(2)
O1 O 0.331(2) 0.1047(3) 0.2941(4)
N1 N 0.047(2) 0.1745(3) 0.1999(5)
N2 N -0.053(2) 0.0814(3) 0.1438(5)
C1 C -0.201(2) 0.0404(3) 0.0784(6)
C2 C -0.160(2) 0.0393(4) -0.0042(5)
C3 C -0.298(3) -0.0006(5) -0.0563(6)
C4 C -0.432(2) -0.0462(4) -0.0404(6)
C5 C -0.474(3) -0.0550(4) 0.0496(7)
C6 C -0.351(2) -0.0115(3) 0.1100(4)
C7 C 0.454(2) 0.2042(4) 0.3357(6)
C8 C 0.537(2) 0.1900(4) 0.4263(5)
C9 C 0.743(2) 0.2281(4) 0.4858(6)
C10 C 0.814(2) 0.2824(3) 0.4515(5)
C11 C 0.734(2) 0.2972(3) 0.3658(6)
C12 C 0.554(2) 0.2560(3) 0.3069(6)
C13 C 0.270(2) 0.1567(3) 0.2726(5)
C14 C -0.129(2) 0.1406(4) 0.1337(5)
C15 C -0.386(2) -0.0183(4) 0.2001(5)
H1 H -0.025(2) 0.0687(4) -0.0225(5)
H2 H -0.300(3) 0.0056(5) -0.1151(6)
H3 H -0.507(2) -0.0750(4) -0.0836(6)
H4 H -0.581(3) -0.0891(4) 0.0647(7)
H5 H 0.454(2) 0.1549(4) 0.4456(5)
H6 H 0.829(2) 0.2183(4) 0.5449(6)
H7 H 0.797(2) 0.3340(3) 0.3472(6)
H8 H 0.502(2) 0.2640(3) 0.2468(6)
H9 H -0.291(2) 0.0150(4) 0.2330(5)
H10 H -0.624(2) -0.0219(4) 0.1995(5)
H11 H -0.265(2) -0.0522(4) 0.2251(5)
H12 H 0.007(2) 0.2153(3) 0.1939(5)
H13 H 0.100(2) 0.0681(3) 0.1955(5)
Cl2 Cl -0.5138(7) 0.16676(10) -0.3176(2)
S2 S 0.9496(6) 0.32861(9) 0.1593(2)
O2 O 0.221(2) 0.3947(3) -0.0857(4)
N3 N 0.481(2) 0.3249(3) 0.0099(4)
N4 N 0.615(2) 0.4162(3) 0.0697(4)
C16 C 0.742(2) 0.4644(3) 0.1280(5)
C17 C 0.879(2) 0.5111(4) 0.1062(6)
C18 C 1.002(2) 0.5545(3) 0.1661(6)
C19 C 0.999(2) 0.5522(3) 0.2453(6)
C20 C 0.825(2) 0.5004(3) 0.2780(5)
C21 C 0.718(2) 0.4533(3) 0.2148(5)
C22 C 0.081(2) 0.2981(3) -0.1260(6)
C23 C -0.011(2) 0.2432(4) -0.0982(5)
C24 C -0.195(2) 0.2043(4) -0.1560(5)
C25 C -0.293(3) 0.2176(4) -0.2436(5)
C26 C -0.188(2) 0.2696(4) -0.2687(5)
C27 C -0.025(2) 0.3110(3) -0.2098(6)
C28 C 0.258(2) 0.3432(4) -0.0690(5)
C29 C 0.667(2) 0.3612(3) 0.0783(5)
C30 C 0.883(2) 0.5199(3) 0.0106(5)
H14 H 1.097(2) 0.5885(3) 0.1468(6)
H15 H 1.103(2) 0.5823(3) 0.2839(6)
H16 H 0.789(2) 0.4988(3) 0.3345(5)
H17 H 0.637(2) 0.4170(3) 0.2306(5)
H18 H 0.058(2) 0.2333(4) -0.0387(5)
H19 H -0.257(2) 0.1677(4) -0.1364(5)
H20 H -0.227(2) 0.2777(4) -0.3286(5)
H21 H 0.013(2) 0.3491(3) -0.2291(6)
H22 H 0.993(2) 0.5558(3) 0.0045(5)
H23 H 1.006(2) 0.4888(3) -0.0074(5)
H24 H 0.652(2) 0.5204(3) -0.0241(5)
H25 H 0.509(2) 0.2840(3) 0.0183(4)
H26 H 0.468(2) 0.4275(3) 0.0158(4)
loop_
_geom_bond_atom_site_label_1
_geom_bond_atom_site_label_2
_geom_bond_site_symmetry_1
_geom_bond_site_symmetry_2
Cl1 C10 1_555 1_555
Cl2 C25 1_555 1_555
S1 C14 1_555 1_555
S2 C29 1_555 1_555
O1 C13 1_555 1_555
O2 C28 1_555 1_555
N1 C13 1_555 1_555
N2 C1 1_555 1_555
N3 C28 1_555 1_555
N4 C16 1_555 1_555
C1 C2 1_555 1_555
C2 C3 1_555 1_555
C3 C4 1_555 1_555
C4 C5 1_555 1_555
C5 C6 1_555 1_555
C6 C1 1_555 1_555
C7 C8 1_555 1_555
C8 C9 1_555 1_555
C9 C10 1_555 1_555
C10 C11 1_555 1_555
C11 C12 1_555 1_555
C12 C7 1_555 1_555
C13 C7 1_555 1_555
C14 N1 1_555 1_555
C15 C6 1_555 1_555
C16 C17 1_555 1_555
C17 C18 1_555 1_555
C18 C19 1_555 1_555
C19 C20 1_555 1_555
C20 C21 1_555 1_555
C21 C16 1_555 1_555
C22 C23 1_555 1_555
C23 C24 1_555 1_555
C24 C25 1_555 1_555
C25 C26 1_555 1_555
C26 C27 1_555 1_555
C27 C22 1_555 1_555
C28 C22 1_555 1_555
C29 N3 1_555 1_555
C30 C17 1_555 1_555
H1 C2 1_555 1_555
H2 C3 1_555 1_555
H3 C4 1_555 1_555
H4 C5 1_555 1_555
H5 C8 1_555 1_555
H6 C9 1_555 1_555
H7 C11 1_555 1_555
H8 C12 1_555 1_555
H9 C15 1_555 1_555
H10 C15 1_555 1_555
H11 C15 1_555 1_555
H12 N1 1_555 1_555
H13 N2 1_555 1_555
H14 C18 1_555 1_555
H15 C19 1_555 1_555
H16 C20 1_555 1_555
H17 C21 1_555 1_555
H18 C23 1_555 1_555
H19 C24 1_555 1_555
H20 C26 1_555 1_555
H21 C27 1_555 1_555
H22 C30 1_555 1_555
H23 C30 1_555 1_555
H24 C30 1_555 1_555
H25 N3 1_555 1_555
H26 N4 1_555 1_555
N2 C14 1_555 1_555
N4 C29 1_555 1_555

#END
