
#######################################################################
#
#                 Cambridge Crystallographic Data Centre
#                                CCDC 
#
#######################################################################
#
# If this CIF has been generated from an entry in the Cambridge 
# Structural Database, then it will include bibliographic, chemical, 
# crystal, experimental, refinement or atomic coordinate data resulting 
# from the CCDC's data processing and validation procedures.
#
#######################################################################

data_UKOYOK
_chemical_name_common            2-(4-bromobenzoyl)-2,3-dihydro-4H-pyran-4-one
_chemical_formula_moiety         'C12 H9 Br1 O3'
_chemical_name_systematic        (R)-2-(4-bromobenzoyl)-2H-pyran-4(3H)-one
_symmetry_cell_setting           monoclinic
_symmetry_space_group_name_H-M   'P 21'
_symmetry_Int_Tables_number      4
_space_group_name_Hall           'P 2yb'
loop_
_symmetry_equiv_pos_site_id
_symmetry_equiv_pos_as_xyz
1 x,y,z
2 -x,1/2+y,-z
_cell_length_a                   5.3040(3)
_cell_length_b                   6.0907(3)
_cell_length_c                   16.9947(10)
_cell_angle_alpha                90
_cell_angle_beta                 91.708(5)
_cell_angle_gamma                90
_cell_volume                     548.771
_exptl_crystal_colour            white
_exptl_crystal_description       block
_chemical_melting_point          '107-109 deg.C'
_cell_formula_units_Z            2
_chemical_properties_physical    Moisture-sensitive
_exptl_crystal_recrystallization_method 'chloroform/petroleum ether'
loop_
_atom_site_label
_atom_site_type_symbol
_atom_site_fract_x
_atom_site_fract_y
_atom_site_fract_z
Br1 Br 1.9219(2) 2.3195(3) 0.44055(6)
O1 O 1.6423(15) 1.6283(15) 0.1216(5)
O2 O 1.1307(17) 1.1236(18) 0.0985(7)
C1 C 1.248(2) 1.489(2) 0.0722(7)
H1 H 1.0965 1.5203 0.0456
C2 C 1.6206(18) 1.723(2) 0.2929(6)
O3 O 1.3328(18) 1.4354(18) 0.2721(6)
C3 C 1.539(2) 1.2386(19) 0.1445(8)
H2 H 1.6529 1.1762 0.1069
H3 H 1.5220 1.1341 0.1871
C4 C 1.2854(19) 1.2740(19) 0.1048(7)
C5 C 1.7970(19) 2.0769(19) 0.3804(6)
C6 C 1.9250(19) 2.018(2) 0.3150(6)
H4 H 2.0668 2.0950 0.2998
C7 C 1.589(2) 1.969(2) 0.4051(6)
H5 H 1.5067 2.0171 0.4496
C8 C 1.4988(18) 1.785(2) 0.3627(6)
H6 H 1.3618 1.7056 0.3802
C9 C 1.651(2) 1.4495(18) 0.1770(7)
H7 H 1.8280 1.4213 0.1913
C10 C 1.420(3) 1.642(2) 0.0785(7)
H8 H 1.3892 1.7723 0.0513
C11 C 1.8350(16) 1.837(3) 0.2718(5)
H9 H 1.9210 1.7928 0.2276
C12 C 1.5183(18) 1.528(2) 0.2520(6)
loop_
_geom_bond_atom_site_label_1
_geom_bond_atom_site_label_2
_geom_bond_site_symmetry_1
_geom_bond_site_symmetry_2
Br1 C5 1_555 1_555
O1 C9 1_555 1_555
O2 C4 1_555 1_555
C1 H1 1_555 1_555
C2 C8 1_555 1_555
O3 C12 1_555 1_555
C3 H2 1_555 1_555
H3 C3 1_555 1_555
C4 C1 1_555 1_555
C5 C6 1_555 1_555
C6 H4 1_555 1_555
C7 C5 1_555 1_555
H5 C7 1_555 1_555
C8 C7 1_555 1_555
H6 C8 1_555 1_555
C9 C3 1_555 1_555
H7 C9 1_555 1_555
C10 O1 1_555 1_555
H8 C10 1_555 1_555
C11 C2 1_555 1_555
H9 C11 1_555 1_555
C12 C2 1_555 1_555
C1 C10 1_555 1_555
C3 C4 1_555 1_555
C6 C11 1_555 1_555
C9 C12 1_555 1_555

#END
