
#######################################################################
#
#                 Cambridge Crystallographic Data Centre
#                                CCDC 
#
#######################################################################
#
# If this CIF has been generated from an entry in the Cambridge 
# Structural Database, then it will include bibliographic, chemical, 
# crystal, experimental, refinement or atomic coordinate data resulting 
# from the CCDC's data processing and validation procedures.
#
#######################################################################

data_UKUDUZ
_chemical_formula_moiety         'C26 H28 K2 N2 O2'
_chemical_name_systematic        
bis(\m~2~-2,6-Dimethylphenolato)-bis(pyridine)-di-potassium
_symmetry_cell_setting           triclinic
_symmetry_space_group_name_H-M   'P -1'
_symmetry_Int_Tables_number      2
_space_group_name_Hall           '-P 1'
loop_
_symmetry_equiv_pos_site_id
_symmetry_equiv_pos_as_xyz
1 x,y,z
2 -x,-y,-z
_cell_length_a                   11.485(2)
_cell_length_b                   11.844(2)
_cell_length_c                   12.012(2)
_cell_angle_alpha                117.927(3)
_cell_angle_beta                 108.854(3)
_cell_angle_gamma                98.180(3)
_cell_volume                     1279.21
_exptl_crystal_colour            colorless
_exptl_crystal_description       sphere
_cell_formula_units_Z            2
loop_
_atom_site_label
_atom_site_type_symbol
_atom_site_fract_x
_atom_site_fract_y
_atom_site_fract_z
K1 K 0.69379(3) 0.61851(3) 0.45455(3)
K2 K 0.45227(3) 0.61656(3) 0.19293(3)
N1 N 0.92172(15) 0.84932(15) 0.70560(16)
N2 N 0.67899(13) 0.85513(13) 0.41348(14)
O1 O 0.64602(10) 0.52936(11) 0.18964(10)
O2 O 0.45309(10) 0.61442(11) 0.40360(10)
C1 C 0.66280(14) 0.42553(14) 0.09868(14)
C2 C 0.56296(15) 0.29322(16) 0.00818(15)
H1 H 0.3864(19) 0.182(2) -0.033(2)
H2 H 0.3817(19) 0.320(2) -0.022(2)
H3 H 0.4475(18) 0.3230(19) 0.118(2)
C3 C 0.58178(17) 0.18420(16) -0.09041(17)
H4 H 0.5149 0.0966 -0.1482
C4 C 0.69595(18) 0.20046(17) -0.10629(17)
H5 H 0.7072 0.1252 -0.1748
C5 C 0.79351(16) 0.32832(17) -0.02059(17)
H6 H 0.8718 0.3399 -0.0316
C6 C 0.78002(14) 0.44029(15) 0.08117(15)
H7 H 0.963(2) 0.580(2) 0.161(2)
H8 H 0.853(2) 0.647(2) 0.151(2)
H9 H 0.911(2) 0.612(2) 0.268(2)
C7 C 0.43499(19) 0.2775(2) 0.0179(2)
C8 C 0.88438(17) 0.57939(19) 0.1709(2)
C9 C 0.37175(13) 0.61389(13) 0.45727(14)
C10 C 0.41527(14) 0.69377(14) 0.60581(15)
C11 C 0.32636(17) 0.69279(16) 0.66077(17)
H10 H 0.3567 0.7467 0.7599
C12 C 0.19388(17) 0.61486(17) 0.5743(2)
H11 H 0.1343 0.6141 0.6137
C13 C 0.14990(15) 0.53837(15) 0.43009(18)
H12 H 0.0590 0.4864 0.3706
C14 C 0.23540(13) 0.53565(13) 0.37019(15)
H13 H 0.098(2) 0.392(2) 0.165(2)
H14 H 0.2427(19) 0.397(2) 0.183(2)
H15 H 0.1839(18) 0.5129(19) 0.175(2)
C15 C 0.55847(18) 0.7790(2) 0.69843(18)
H16 H 0.5788(18) 0.8458(19) 0.803(2)
H17 H 0.617(2) 0.722(2) 0.698(2)
H18 H 0.5876(19) 0.833(2) 0.667(2)
C16 C 0.18718(17) 0.45400(18) 0.21325(17)
C17 C 1.0282(2) 0.83869(18) 0.7821(2)
H19 H 1.0339 0.7504 0.7490
C18 C 1.12988(18) 0.9471(2) 0.9057(2)
H20 H 1.2038 0.9337 0.9554
C19 C 1.12278(17) 1.07353(18) 0.95532(19)
H21 H 1.1910 1.1505 1.0412
C20 C 1.01508(19) 1.08775(18) 0.8788(2)
H22 H 1.0077 1.1752 0.9102
C21 C 0.91790(18) 0.9738(2) 0.75630(19)
H23 H 0.8434 0.9853 0.7048
C22 C 0.76983(18) 0.87929(17) 0.37450(18)
H24 H 0.7946 0.8059 0.3225
C23 C 0.8304(2) 1.0079(2) 0.4067(2)
H25 H 0.8958 1.0233 0.3781
C24 C 0.7916(2) 1.11406(19) 0.4829(2)
H26 H 0.8307 1.2039 0.5077
C25 C 0.6978(3) 1.0865(2) 0.5205(2)
H27 H 0.6689 1.1564 0.5710
C26 C 0.6462(2) 0.9592(2) 0.4856(2)
H28 H 0.5816 0.9424 0.5146
loop_
_geom_bond_atom_site_label_1
_geom_bond_atom_site_label_2
_geom_bond_site_symmetry_1
_geom_bond_site_symmetry_2
K1 N1 1_555 1_555
K2 N2 1_555 1_555
N1 C17 1_555 1_555
N2 C22 1_555 1_555
O1 K1 1_555 1_555
O2 K1 1_555 1_555
C1 O1 1_555 1_555
C2 C1 1_555 1_555
H1 C7 1_555 1_555
H2 C7 1_555 1_555
H3 C7 1_555 1_555
C3 C2 1_555 1_555
H4 C3 1_555 1_555
C4 C3 1_555 1_555
H5 C4 1_555 1_555
C5 C4 1_555 1_555
H6 C5 1_555 1_555
C6 C1 1_555 1_555
H7 C8 1_555 1_555
H8 C8 1_555 1_555
H9 C8 1_555 1_555
C7 C2 1_555 1_555
C8 C6 1_555 1_555
C9 O2 1_555 1_555
C10 C9 1_555 1_555
C11 C10 1_555 1_555
H10 C11 1_555 1_555
C12 C11 1_555 1_555
H11 C12 1_555 1_555
C13 C12 1_555 1_555
H12 C13 1_555 1_555
C14 C9 1_555 1_555
H13 C16 1_555 1_555
H14 C16 1_555 1_555
H15 C16 1_555 1_555
C15 C10 1_555 1_555
H16 C15 1_555 1_555
H17 C15 1_555 1_555
H18 C15 1_555 1_555
C16 C14 1_555 1_555
C17 H19 1_555 1_555
C18 C17 1_555 1_555
H20 C18 1_555 1_555
C19 C18 1_555 1_555
H21 C19 1_555 1_555
C20 C19 1_555 1_555
H22 C20 1_555 1_555
C21 N1 1_555 1_555
H23 C21 1_555 1_555
C22 H24 1_555 1_555
C23 C22 1_555 1_555
H25 C23 1_555 1_555
C24 C23 1_555 1_555
H26 C24 1_555 1_555
C25 C24 1_555 1_555
H27 C25 1_555 1_555
C26 N2 1_555 1_555
H28 C26 1_555 1_555
K2 O1 1_555 1_555
K2 O2 1_555 1_555
C5 C6 1_555 1_555
C13 C14 1_555 1_555
C20 C21 1_555 1_555
C25 C26 1_555 1_555

#END
