
#######################################################################
#
#                 Cambridge Crystallographic Data Centre
#                                CCDC 
#
#######################################################################
#
# If this CIF has been generated from an entry in the Cambridge 
# Structural Database, then it will include bibliographic, chemical, 
# crystal, experimental, refinement or atomic coordinate data resulting 
# from the CCDC's data processing and validation procedures.
#
#######################################################################

data_UKUFOX
_chemical_formula_moiety         'C14 H15 F1 O3'
_chemical_name_systematic        
(2S,3R)-3-Acetyl-6-fluoro-2-hydroxy-2,3-dimethyl-3,4-dihydronaphthalen-1(2H)-one
_symmetry_cell_setting           monoclinic
_symmetry_space_group_name_H-M   'P 21'
_symmetry_Int_Tables_number      4
_space_group_name_Hall           'P 2yb'
loop_
_symmetry_equiv_pos_site_id
_symmetry_equiv_pos_as_xyz
1 x,y,z
2 -x,1/2+y,-z
_cell_length_a                   7.0830(2)
_cell_length_b                   7.1796(2)
_cell_length_c                   11.8698(3)
_cell_angle_alpha                90
_cell_angle_beta                 92.156(3)
_cell_angle_gamma                90
_cell_volume                     603.189
_exptl_crystal_colour            colorless
_exptl_crystal_description       prism
_cell_formula_units_Z            2
loop_
_atom_site_label
_atom_site_type_symbol
_atom_site_fract_x
_atom_site_fract_y
_atom_site_fract_z
F1 F 0.01596(16) 0.4662(2) 0.66663(9)
O1 O -0.06090(18) 0.4891(3) 0.05154(10)
O2 O 0.52402(16) 0.5219(2) 0.10166(10)
H1 H 0.6331 0.5271 0.1319
O3 O 0.65215(18) 0.5347(3) 0.31253(11)
C1 C 0.2121(3) 0.4481(4) -0.05405(15)
H2 H 0.1211 0.4407 -0.1181
H3 H 0.2912 0.3361 -0.0520
H4 H 0.2921 0.5583 -0.0622
C2 C 0.1075(2) 0.4625(3) 0.05387(14)
C3 C 0.2157(2) 0.4319(3) 0.16827(15)
C4 C 0.3887(2) 0.5645(3) 0.18308(14)
C5 C 0.4806(2) 0.5365(3) 0.30128(16)
C6 C 0.3555(2) 0.5220(3) 0.39746(15)
C7 C 0.4319(3) 0.5424(3) 0.50808(16)
H5 H 0.5627 0.5680 0.5201
C8 C 0.3180(3) 0.5255(4) 0.59867(15)
H6 H 0.3674 0.5420 0.6735
C9 C 0.1291(3) 0.4837(3) 0.57761(15)
C10 C 0.0490(3) 0.4627(3) 0.47107(15)
H7 H -0.0815 0.4347 0.4605
C11 C 0.1636(2) 0.4834(3) 0.37882(14)
C12 C 0.0758(2) 0.4701(3) 0.26131(13)
H8 H 0.0089 0.5882 0.2437
H9 H -0.0197 0.3694 0.2601
C13 C 0.2817(3) 0.2280(3) 0.17276(16)
H10 H 0.3305 0.1986 0.2491
H11 H 0.3818 0.2095 0.1191
H12 H 0.1750 0.1460 0.1530
C14 C 0.3315(3) 0.7698(3) 0.17331(16)
H13 H 0.4437 0.8484 0.1847
H14 H 0.2402 0.7990 0.2307
H15 H 0.2741 0.7931 0.0982
loop_
_geom_bond_atom_site_label_1
_geom_bond_atom_site_label_2
_geom_bond_site_symmetry_1
_geom_bond_site_symmetry_2
F1 C9 1_555 1_555
O1 C2 1_555 1_555
O2 H1 1_555 1_555
O3 C5 1_555 1_555
C1 H2 1_555 1_555
H3 C1 1_555 1_555
H4 C1 1_555 1_555
C2 C1 1_555 1_555
C3 C2 1_555 1_555
C4 O2 1_555 1_555
C5 C4 1_555 1_555
C6 C5 1_555 1_555
C7 C6 1_555 1_555
H5 C7 1_555 1_555
C8 C7 1_555 1_555
H6 C8 1_555 1_555
C9 C8 1_555 1_555
C10 C9 1_555 1_555
H7 C10 1_555 1_555
C11 C6 1_555 1_555
C12 C3 1_555 1_555
H8 C12 1_555 1_555
H9 C12 1_555 1_555
C13 C3 1_555 1_555
H10 C13 1_555 1_555
H11 C13 1_555 1_555
H12 C13 1_555 1_555
C14 C4 1_555 1_555
H13 C14 1_555 1_555
H14 C14 1_555 1_555
H15 C14 1_555 1_555
C3 C4 1_555 1_555
C10 C11 1_555 1_555
C11 C12 1_555 1_555

#END
