
#######################################################################
#
#                 Cambridge Crystallographic Data Centre
#                                CCDC 
#
#######################################################################
#
# If this CIF has been generated from an entry in the Cambridge 
# Structural Database, then it will include bibliographic, chemical, 
# crystal, experimental, refinement or atomic coordinate data resulting 
# from the CCDC's data processing and validation procedures.
#
#######################################################################

data_UKULIX
_chemical_formula_moiety         'C2 H7 N6 1+,C4 N5 1-'
_chemical_name_systematic        
'4-amino-5-hydrazino-4H-1,2,4-triazol-1-ium 4,5-dicyano-1,2,3-triazol-2-ide'
_symmetry_cell_setting           orthorhombic
_symmetry_space_group_name_H-M   'P b c a'
_symmetry_Int_Tables_number      61
_space_group_name_Hall           '-P 2ac 2ab'
loop_
_symmetry_equiv_pos_site_id
_symmetry_equiv_pos_as_xyz
1 x,y,z
2 1/2-x,-y,1/2+z
3 -x,1/2+y,1/2-z
4 1/2+x,1/2-y,-z
5 -x,-y,-z
6 1/2+x,y,1/2-z
7 x,1/2-y,1/2+z
8 1/2-x,1/2+y,z
_cell_length_a                   13.0265(12)
_cell_length_b                   7.3372(7)
_cell_length_c                   22.137(2)
_cell_angle_alpha                90
_cell_angle_beta                 90
_cell_angle_gamma                90
_cell_volume                     2115.81
_cell_formula_units_Z            8
loop_
_atom_site_label
_atom_site_type_symbol
_atom_site_fract_x
_atom_site_fract_y
_atom_site_fract_z
N1 N 0.28188(12) 0.0453(3) 0.66304(7)
N2 N 0.19461(11) 0.0206(2) 0.69793(7)
H1 H 0.1939 -0.0332 0.7324
N3 N 0.14544(12) 0.1587(2) 0.61839(7)
N4 N 0.07714(14) 0.2362(3) 0.57715(8)
H2 H 0.0839 0.1809 0.5416
H3 H 0.0911 0.3543 0.5731
N5 N 0.01776(12) 0.0971(3) 0.69121(7)
H4 H -0.0301 0.1471 0.6702
N6 N -0.00245(13) 0.0196(3) 0.74793(7)
H5 H -0.0587 -0.0489 0.7455
H6 H -0.0125 0.1084 0.7747
C1 C 0.11283(14) 0.0901(3) 0.67147(8)
C2 C 0.24916(16) 0.1289(3) 0.61585(9)
H7 H 0.2908 0.1648 0.5839
N7 N 0.82741(12) 0.2620(2) 0.65020(7)
N8 N 0.76885(13) 0.3222(3) 0.69526(7)
N9 N 0.66933(12) 0.3043(2) 0.68270(7)
N10 N 0.49425(17) 0.1576(4) 0.57449(11)
N11 N 0.82121(18) 0.0655(3) 0.50667(9)
C3 C 0.56913(18) 0.1897(3) 0.59856(10)
C4 C 0.66404(14) 0.2294(3) 0.62746(9)
C5 C 0.76305(15) 0.2034(3) 0.60705(8)
C6 C 0.79713(17) 0.1276(3) 0.55150(9)
loop_
_geom_bond_atom_site_label_1
_geom_bond_atom_site_label_2
_geom_bond_site_symmetry_1
_geom_bond_site_symmetry_2
N1 N2 1_555 1_555
N2 H1 1_555 1_555
N3 N4 1_555 1_555
N4 H2 1_555 1_555
H3 N4 1_555 1_555
N5 H4 1_555 1_555
N6 N5 1_555 1_555
H5 N6 1_555 1_555
H6 N6 1_555 1_555
C1 N2 1_555 1_555
C2 N1 1_555 1_555
H7 C2 1_555 1_555
N7 N8 1_555 1_555
N8 N9 1_555 1_555
N9 C4 1_555 1_555
N10 C3 1_555 1_555
N11 C6 1_555 1_555
C3 C4 1_555 1_555
C4 C5 1_555 1_555
C5 N7 1_555 1_555
C6 C5 1_555 1_555
N3 C1 1_555 1_555
N3 C2 1_555 1_555
N5 C1 1_555 1_555

#END
