
#######################################################################
#
#                 Cambridge Crystallographic Data Centre
#                                CCDC 
#
#######################################################################
#
# If this CIF has been generated from an entry in the Cambridge 
# Structural Database, then it will include bibliographic, chemical, 
# crystal, experimental, refinement or atomic coordinate data resulting 
# from the CCDC's data processing and validation procedures.
#
#######################################################################

data_UKULUJ
_chemical_formula_moiety         'C4 N5 1-,C2 H5 N4 1+'
_chemical_name_systematic        
'5-amino-4H-1,2,4-triazol-1-ium 4,5-dicyano-1,2,3-triazol-2-ide'
_symmetry_cell_setting           triclinic
_symmetry_space_group_name_H-M   'P -1'
_symmetry_Int_Tables_number      2
_space_group_name_Hall           '-P 1'
loop_
_symmetry_equiv_pos_site_id
_symmetry_equiv_pos_as_xyz
1 x,y,z
2 -x,-y,-z
_cell_length_a                   3.8031(4)
_cell_length_b                   11.0559(8)
_cell_length_c                   11.8592(9)
_cell_angle_alpha                115.240(2)
_cell_angle_beta                 90.5470(10)
_cell_angle_gamma                91.9950(10)
_cell_volume                     450.597
_exptl_crystal_colour            yellow
_exptl_crystal_description       needle
_cell_formula_units_Z            2
loop_
_atom_site_label
_atom_site_type_symbol
_atom_site_fract_x
_atom_site_fract_y
_atom_site_fract_z
N1 N 0.2690(8) 0.2085(3) 0.2425(3)
N2 N 0.3988(8) 0.2875(3) 0.3557(3)
N3 N 0.5441(8) 0.2186(2) 0.4101(2)
N4 N 0.1557(10) -0.1274(3) 0.0305(3)
N5 N 0.7464(10) -0.1045(3) 0.3634(3)
C1 C 0.2364(10) -0.0316(4) 0.1150(3)
C2 C 0.3361(9) 0.0830(3) 0.2236(3)
C3 C 0.5093(9) 0.0898(3) 0.3277(3)
C4 C 0.6404(10) -0.0167(3) 0.3504(3)
N6 N 0.7061(9) 0.5609(3) 0.1360(3)
N7 N 0.8634(8) 0.6158(3) 0.2527(3)
H1 H 0.8760 0.7001 0.3010
N8 N 0.9247(7) 0.4075(2) 0.1828(2)
H2 H 0.9803 0.3296 0.1748
N9 N 1.1569(8) 0.5414(3) 0.3846(3)
H3 H 1.1904 0.6210 0.4428
H4 H 1.2320 0.4741 0.3946
C5 C 0.9934(9) 0.5229(3) 0.2817(3)
C6 C 0.7509(10) 0.4351(4) 0.0968(3)
H5 H 0.6737 0.3708 0.0189
loop_
_geom_bond_atom_site_label_1
_geom_bond_atom_site_label_2
_geom_bond_site_symmetry_1
_geom_bond_site_symmetry_2
N1 N2 1_555 1_555
N2 N3 1_555 1_555
N3 C3 1_555 1_555
N4 C1 1_555 1_555
N5 C4 1_555 1_555
C1 C2 1_555 1_555
C2 N1 1_555 1_555
C3 C2 1_555 1_555
C4 C3 1_555 1_555
N6 N7 1_555 1_555
N7 H1 1_555 1_555
N8 H2 1_555 1_555
N9 H3 1_555 1_555
H4 N9 1_555 1_555
C5 N7 1_555 1_555
C6 N6 1_555 1_555
H5 C6 1_555 1_555
N8 C5 1_555 1_555
N8 C6 1_555 1_555
N9 C5 1_555 1_555

#END
