
#######################################################################
#
#                 Cambridge Crystallographic Data Centre
#                                CCDC 
#
#######################################################################
#
# If this CIF has been generated from an entry in the Cambridge 
# Structural Database, then it will include bibliographic, chemical, 
# crystal, experimental, refinement or atomic coordinate data resulting 
# from the CCDC's data processing and validation procedures.
#
#######################################################################

data_UKUNUK01
_chemical_formula_moiety         'C20 H6 F10 N2'
_chemical_name_systematic        
1,4-phenylenebis(N-(pentafluorophenyl)methanimine)
_symmetry_cell_setting           monoclinic
_symmetry_space_group_name_H-M   'P 21/n'
_symmetry_Int_Tables_number      14
_space_group_name_Hall           '-P 2yn'
loop_
_symmetry_equiv_pos_site_id
_symmetry_equiv_pos_as_xyz
1 x,y,z
2 1/2-x,1/2+y,1/2-z
3 -x,-y,-z
4 1/2+x,1/2-y,1/2+z
_cell_length_a                   4.8760(10)
_cell_length_b                   6.4070(13)
_cell_length_c                   28.336(6)
_cell_angle_alpha                90
_cell_angle_beta                 93.32(3)
_cell_angle_gamma                90
_cell_volume                     883.746
_cell_formula_units_Z            2
loop_
_atom_site_label
_atom_site_type_symbol
_atom_site_fract_x
_atom_site_fract_y
_atom_site_fract_z
C1 C 0.3496(6) 0.3377(5) 0.16048(9)
C2 C 0.1643(6) 0.2893(5) 0.19321(10)
C3 C 0.0231(6) 0.1039(6) 0.18949(11)
C4 C 0.0736(6) -0.0301(5) 0.15366(12)
C5 C 0.2620(6) 0.0184(4) 0.12175(10)
C6 C 0.4054(5) 0.2063(4) 0.12362(9)
F1 F 0.4884(4) 0.5177(3) 0.16628(6)
F2 F 0.1187(4) 0.4205(4) 0.22820(6)
F3 F -0.1625(4) 0.0575(4) 0.22086(7)
F4 F -0.0682(4) -0.2099(3) 0.14925(8)
F5 F 0.3030(4) -0.1152(2) 0.08645(7)
N1 N 0.6010(4) 0.2376(3) 0.08977(7)
C7 C 0.6270(6) 0.4168(5) 0.07192(10)
H1 H 0.508(5) 0.527(4) 0.0811(9)
C8 C 0.8212(5) 0.4578(4) 0.03545(9)
C9 C 0.8494(6) 0.6602(4) 0.01828(10)
H2 H 0.735(5) 0.768(4) 0.0312(8)
C10 C 0.9737(6) 0.2991(4) 0.01644(9)
H3 H 0.951(5) 0.164(4) 0.0276(9)
C1B C 1.6504(6) 0.6623(5) -0.16048(9)
C2B C 1.8357(6) 0.7107(5) -0.19321(10)
C3B C 1.9769(6) 0.8961(6) -0.18949(11)
C4B C 1.9264(6) 1.0301(5) -0.15366(12)
C5B C 1.7380(6) 0.9816(4) -0.12175(10)
C6B C 1.5946(5) 0.7937(4) -0.12362(9)
F1B F 1.5116(4) 0.4823(3) -0.16628(6)
F2B F 1.8813(4) 0.5795(4) -0.22820(6)
F3B F 2.1625(4) 0.9425(4) -0.22086(7)
F4B F 2.0682(4) 1.2099(3) -0.14925(8)
F5B F 1.6970(4) 1.1152(2) -0.08645(7)
N1B N 1.3990(4) 0.7624(3) -0.08977(7)
C7B C 1.3730(6) 0.5832(5) -0.07192(10)
H1B H 1.492(5) 0.473(4) -0.0811(9)
C8B C 1.1788(5) 0.5422(4) -0.03545(9)
C9B C 1.1506(6) 0.3398(4) -0.01828(10)
H2B H 1.265(5) 0.232(4) -0.0312(8)
C10B C 1.0263(6) 0.7009(4) -0.01644(9)
H3B H 1.049(5) 0.836(4) -0.0276(9)
loop_
_geom_bond_atom_site_label_1
_geom_bond_atom_site_label_2
_geom_bond_site_symmetry_1
_geom_bond_site_symmetry_2
C1 C2 1_555 1_555
C2 C3 1_555 1_555
C3 C4 1_555 1_555
C4 C5 1_555 1_555
C5 C6 1_555 1_555
C6 C1 1_555 1_555
F1 C1 1_555 1_555
F2 C2 1_555 1_555
F3 C3 1_555 1_555
F4 C4 1_555 1_555
F5 C5 1_555 1_555
N1 C6 1_555 1_555
C7 N1 1_555 1_555
H1 C7 1_555 1_555
C8 C7 1_555 1_555
C9 C8 1_555 1_555
H2 C9 1_555 1_555
C10 C8 1_555 1_555
H3 C10 1_555 1_555
C1B C2B 1_555 1_555
C2B C3B 1_555 1_555
C3B C4B 1_555 1_555
C4B C5B 1_555 1_555
C5B C6B 1_555 1_555
C6B C1B 1_555 1_555
F1B C1B 1_555 1_555
F2B C2B 1_555 1_555
F3B C3B 1_555 1_555
F4B C4B 1_555 1_555
F5B C5B 1_555 1_555
N1B C6B 1_555 1_555
C7B N1B 1_555 1_555
H1B C7B 1_555 1_555
C8B C7B 1_555 1_555
C9B C10 1_555 1_555
H2B C9B 1_555 1_555
C10B C9 1_555 1_555
H3B C10B 1_555 1_555
C8B C9B 1_555 1_555
C8B C10B 1_555 1_555

#END
