
#######################################################################
#
#                 Cambridge Crystallographic Data Centre
#                                CCDC 
#
#######################################################################
#
# If this CIF has been generated from an entry in the Cambridge 
# Structural Database, then it will include bibliographic, chemical, 
# crystal, experimental, refinement or atomic coordinate data resulting 
# from the CCDC's data processing and validation procedures.
#
#######################################################################

data_UKUPOH
_chemical_formula_moiety         'C30 H50 O2,C1 H4 O1'
_chemical_name_systematic        'lup-20(29)-ene-3,28-diol methanol solvate'
_symmetry_cell_setting           orthorhombic
_symmetry_space_group_name_H-M   'P 21 21 21'
_symmetry_Int_Tables_number      19
_space_group_name_Hall           'P 2ac 2ab'
loop_
_symmetry_equiv_pos_site_id
_symmetry_equiv_pos_as_xyz
1 x,y,z
2 1/2-x,-y,1/2+z
3 1/2+x,1/2-y,-z
4 -x,1/2+y,1/2-z
_cell_length_a                   6.985(2)
_cell_length_b                   12.623(4)
_cell_length_c                   32.683(10)
_cell_angle_alpha                90
_cell_angle_beta                 90
_cell_angle_gamma                90
_cell_volume                     2881.71
_exptl_crystal_colour            colorless
_exptl_crystal_description       Prism
_cell_formula_units_Z            4
loop_
_atom_site_label
_atom_site_type_symbol
_atom_site_fract_x
_atom_site_fract_y
_atom_site_fract_z
O1 O 0.1952(3) 0.2001(2) 0.58642(5)
H1 H 0.0939 0.1759 0.5779
O2 O 0.1370(3) 0.5889(2) 0.93313(6)
H2 H 0.2230 0.6233 0.9439
C1 C 0.0987(4) 0.3305(2) 0.68901(6)
H3 H 0.0162 0.2725 0.6983
C2 C 0.2472(4) 0.2968(3) 0.75773(6)
H4 H 0.1618 0.2354 0.7592
C3 C 0.1965(4) 0.3089(3) 0.89330(7)
H5 H 0.1044 0.2504 0.8937
C4 C 0.0649(4) 0.3493(2) 0.82237(7)
C5 C 0.2934(4) 0.3098(3) 0.71067(6)
C6 C 0.1826(4) 0.2149(3) 0.63002(7)
H6 H 0.0964 0.1600 0.6406
C7 C 0.0933(4) 0.4055(3) 0.91187(7)
C8 C 0.1325(4) 0.3887(2) 0.77812(7)
C9 C 0.0043(4) 0.4297(3) 0.70605(7)
H7 H -0.1124 0.4443 0.6910
H8 H 0.0896 0.4897 0.7027
C10 C -0.0943(5) 0.4211(3) 0.88913(7)
H9 H -0.1591 0.4832 0.8998
H10 H -0.1763 0.3602 0.8937
C11 C 0.2494(4) 0.3271(3) 0.84811(6)
H11 H 0.3269 0.3918 0.8471
C12 C 0.0948(4) 0.3221(3) 0.64134(6)
C13 C -0.0427(4) 0.4156(3) 0.75133(7)
H12 H -0.1364 0.3593 0.7541
H13 H -0.1006 0.4803 0.7615
C14 C -0.0615(5) 0.4349(3) 0.84290(7)
H14 H -0.0027 0.5035 0.8383
H15 H -0.1851 0.4355 0.8294
C15 C 0.3685(5) 0.2397(3) 0.82841(7)
H16 H 0.2971 0.1738 0.8290
H17 H 0.4852 0.2297 0.8440
C16 C 0.3716(5) 0.2036(3) 0.69506(7)
H18 H 0.5005 0.1941 0.7055
H19 H 0.2932 0.1468 0.7059
C17 C 0.0760(5) 0.3703(3) 0.95652(7)
H20 H 0.0529 0.4305 0.9743
H21 H -0.0275 0.3198 0.9598
C18 C 0.1970(6) 0.4125(3) 0.61925(8)
H22 H 0.1512 0.4791 0.6295
H23 H 0.1716 0.4080 0.5904
H24 H 0.3324 0.4073 0.6239
C19 C 0.3546(5) 0.2803(3) 0.92445(7)
H25 H 0.4679 0.3233 0.9183
C20 C 0.2178(5) 0.5053(3) 0.90959(8)
H26 H 0.3451 0.4894 0.9197
H27 H 0.2293 0.5277 0.8813
C21 C 0.3758(5) 0.1948(3) 0.64835(7)
H28 H 0.4666 0.2457 0.6375
H29 H 0.4189 0.1245 0.6407
C22 C -0.0586(5) 0.2490(3) 0.81981(8)
H30 H -0.1615 0.2603 0.8008
H31 H -0.1103 0.2332 0.8463
H32 H 0.0187 0.1908 0.8107
C23 C -0.1146(5) 0.3216(3) 0.62708(8)
H33 H -0.1849 0.2694 0.6423
H34 H -0.1198 0.3048 0.5985
H35 H -0.1700 0.3902 0.6316
C24 C 0.4200(5) 0.2666(3) 0.78401(7)
H36 H 0.5104 0.3250 0.7839
H37 H 0.4830 0.2059 0.7717
C25 C 0.2529(5) 0.4901(3) 0.78164(8)
H38 H 0.3778 0.4727 0.7919
H39 H 0.1914 0.5386 0.8001
H40 H 0.2648 0.5223 0.7552
C26 C 0.2689(6) 0.3191(4) 0.96600(8)
H41 H 0.2522 0.2598 0.9845
H42 H 0.3540 0.3701 0.9787
C27 C 0.4452(5) 0.3951(3) 0.70244(8)
H43 H 0.5076 0.3807 0.6769
H44 H 0.5382 0.3946 0.7241
H45 H 0.3848 0.4634 0.7012
C28 C 0.4156(7) 0.1663(3) 0.92683(8)
C29 C 0.6016(8) 0.1408(4) 0.92924(10)
H46 H 0.6378 0.0706 0.9331
H47 H 0.6944 0.1933 0.9270
C30 C 0.2647(11) 0.0851(5) 0.9302(2)
H48 H 0.1866 0.0996 0.9537
H49 H 0.3225 0.0165 0.9330
H50 H 0.1866 0.0864 0.9060
O3 O 0.4685(4) 0.6852(4) 0.95812(7)
H51 H 0.5622 0.6915 0.9432
C31 C 0.5270(12) 0.6636(10) 0.99683(15)
H52 H 0.6086 0.6024 0.9966
H53 H 0.4174 0.6499 1.0138
H54 H 0.5964 0.7231 1.0075
loop_
_geom_bond_atom_site_label_1
_geom_bond_atom_site_label_2
_geom_bond_site_symmetry_1
_geom_bond_site_symmetry_2
O1 H1 1_555 1_555
O2 H2 1_555 1_555
C1 H3 1_555 1_555
C2 H4 1_555 1_555
C3 H5 1_555 1_555
C4 C8 1_555 1_555
C5 C1 1_555 1_555
C6 O1 1_555 1_555
H6 C6 1_555 1_555
C7 C3 1_555 1_555
C8 C2 1_555 1_555
C9 C1 1_555 1_555
H7 C9 1_555 1_555
H8 C9 1_555 1_555
C10 C7 1_555 1_555
H9 C10 1_555 1_555
H10 C10 1_555 1_555
C11 C3 1_555 1_555
H11 C11 1_555 1_555
C12 C1 1_555 1_555
C13 C8 1_555 1_555
H12 C13 1_555 1_555
H13 C13 1_555 1_555
C14 C4 1_555 1_555
H14 C14 1_555 1_555
H15 C14 1_555 1_555
C15 C11 1_555 1_555
H16 C15 1_555 1_555
H17 C15 1_555 1_555
C16 C5 1_555 1_555
H18 C16 1_555 1_555
H19 C16 1_555 1_555
C17 C7 1_555 1_555
H20 C17 1_555 1_555
H21 C17 1_555 1_555
C18 C12 1_555 1_555
H22 C18 1_555 1_555
H23 C18 1_555 1_555
H24 C18 1_555 1_555
C19 C3 1_555 1_555
H25 C19 1_555 1_555
C20 O2 1_555 1_555
H26 C20 1_555 1_555
H27 C20 1_555 1_555
C21 C6 1_555 1_555
H28 C21 1_555 1_555
H29 C21 1_555 1_555
C22 C4 1_555 1_555
H30 C22 1_555 1_555
H31 C22 1_555 1_555
H32 C22 1_555 1_555
C23 C12 1_555 1_555
H33 C23 1_555 1_555
H34 C23 1_555 1_555
H35 C23 1_555 1_555
C24 C2 1_555 1_555
H36 C24 1_555 1_555
H37 C24 1_555 1_555
C25 C8 1_555 1_555
H38 C25 1_555 1_555
H39 C25 1_555 1_555
H40 C25 1_555 1_555
C26 C17 1_555 1_555
H41 C26 1_555 1_555
H42 C26 1_555 1_555
C27 C5 1_555 1_555
H43 C27 1_555 1_555
H44 C27 1_555 1_555
H45 C27 1_555 1_555
C28 C19 1_555 1_555
C29 C28 1_555 1_555
H46 C29 1_555 1_555
H47 C29 1_555 1_555
C30 C28 1_555 1_555
H48 C30 1_555 1_555
H49 C30 1_555 1_555
H50 C30 1_555 1_555
O3 H51 1_555 1_555
C31 O3 1_555 1_555
H52 C31 1_555 1_555
H53 C31 1_555 1_555
H54 C31 1_555 1_555
C2 C5 1_555 1_555
C4 C11 1_555 1_555
C6 C12 1_555 1_555
C7 C20 1_555 1_555
C9 C13 1_555 1_555
C10 C14 1_555 1_555
C15 C24 1_555 1_555
C16 C21 1_555 1_555
C19 C26 1_555 1_555

#END
