
#######################################################################
#
#                 Cambridge Crystallographic Data Centre
#                                CCDC 
#
#######################################################################
#
# If this CIF has been generated from an entry in the Cambridge 
# Structural Database, then it will include bibliographic, chemical, 
# crystal, experimental, refinement or atomic coordinate data resulting 
# from the CCDC's data processing and validation procedures.
#
#######################################################################

data_UKUQIC
_chemical_formula_moiety         'C17 H15 Br1 O2'
_chemical_name_systematic        
(Z)-(3-(4-Bromobenzylidene)-2-methyl-2,3-dihydrobenzofuran-2-yl)methanol
_symmetry_cell_setting           monoclinic
_symmetry_space_group_name_H-M   'P 21'
_symmetry_Int_Tables_number      4
_space_group_name_Hall           'P 2yb'
loop_
_symmetry_equiv_pos_site_id
_symmetry_equiv_pos_as_xyz
1 x,y,z
2 -x,1/2+y,-z
_cell_length_a                   5.9605(6)
_cell_length_b                   32.909(3)
_cell_length_c                   7.1915(7)
_cell_angle_alpha                90
_cell_angle_beta                 91.991(3)
_cell_angle_gamma                90
_cell_volume                     1409.79
_exptl_crystal_colour            colorless
_exptl_crystal_description       plates
_cell_formula_units_Z            4
loop_
_atom_site_label
_atom_site_type_symbol
_atom_site_fract_x
_atom_site_fract_y
_atom_site_fract_z
Br1 Br 1.06114(6) 0.98555(2) 1.32124(6)
O1 O 0.4553(4) 0.78997(7) 0.6240(3)
O2 O 0.5709(4) 0.77978(8) 1.0194(4)
H1 H 0.530(8) 0.7641(17) 0.969(8)
C1 C 0.8872(7) 0.95725(11) 1.1356(5)
C2 C 0.9678(6) 0.95402(12) 0.9594(6)
H2 H 1.1095 0.9652 0.9308
C3 C 0.8365(6) 0.93397(12) 0.8233(5)
H3 H 0.8904 0.9314 0.7011
C4 C 0.6267(6) 0.91748(10) 0.8635(5)
C5 C 0.4812(6) 0.90056(11) 0.7115(5)
H4 H 0.3987 0.9201 0.64
C6 C 0.4481(5) 0.86177(11) 0.6592(5)
C7 C 0.2997(5) 0.84868(10) 0.5050(4)
C8 C 0.1581(6) 0.86994(11) 0.3802(5)
H5 H 0.1513 0.8988 0.3833
C9 C 0.0282(6) 0.84811(12) 0.2519(5)
H6 H -0.0703 0.8622 0.1675
C10 C 0.0394(6) 0.80583(11) 0.2447(4)
H7 H -0.0513 0.7915 0.1554
C11 C 0.5530(6) 0.92137(11) 1.0440(5)
H8 H 0.4115 0.9103 1.0742
C12 C 0.6826(6) 0.94114(11) 1.1819(5)
H9 H 0.6312 0.9435 1.305
C13 C 0.5524(5) 0.82299(11) 0.7415(4)
C14 C 0.3100(5) 0.80675(10) 0.4929(4)
C15 C 0.1813(5) 0.78430(10) 0.3663(4)
H10 H 0.1897 0.7555 0.3627
C16 C 0.8053(5) 0.82077(11) 0.7251(5)
H11 H 0.8578 0.7935 0.7604
H12 H 0.877 0.841 0.8079
H13 H 0.8443 0.8264 0.5963
C17 C 0.4751(6) 0.81514(11) 0.9385(4)
H14 H 0.5154 0.8388 1.0177
H15 H 0.3096 0.8125 0.9352
Br2 Br 0.46901(6) 0.01445(2) -0.37011(6)
O3 O 1.0337(4) 0.20944(8) 0.3586(3)
O4 O 0.5955(4) 0.21436(7) 0.1962(3)
H16 H 0.604(8) 0.2260(16) 0.271(7)
C18 C 0.6345(6) 0.04288(11) -0.1786(5)
C19 C 0.5502(6) 0.04512(12) -0.0039(6)
H17 H 0.4094 0.0332 0.0215
C20 C 0.6735(6) 0.06502(11) 0.1344(5)
H18 H 0.6162 0.0666 0.2559
C21 C 0.8795(6) 0.08284(10) 0.0999(5)
C22 C 1.0223(6) 0.09949(11) 0.2554(5)
H19 H 1.1047 0.0798 0.3259
C23 C 1.0530(5) 0.13789(11) 0.3119(4)
C24 C 1.2001(5) 0.15069(10) 0.4686(4)
C25 C 1.3448(6) 0.12918(10) 0.5877(5)
H20 H 1.3555 0.1004 0.5789
C26 C 1.4734(6) 0.15024(12) 0.7197(5)
H21 H 1.5731 0.1359 0.8019
C27 C 1.4573(6) 0.19245(11) 0.7328(5)
H22 H 1.5483 0.2065 0.8229
C28 C 0.9489(5) 0.17714(10) 0.2335(5)
C29 C 1.1831(5) 0.19260(10) 0.4856(4)
C30 C 1.3098(5) 0.21455(10) 0.6158(4)
H23 H 1.2972 0.2432 0.6251
C31 C 1.0240(6) 0.18791(11) 0.0413(5)
H24 H 0.9624 0.2145 0.0049
H25 H 0.97 0.1673 -0.0476
H26 H 1.1883 0.189 0.0418
C32 C 0.6932(5) 0.17677(10) 0.2503(5)
H27 H 0.6284 0.1548 0.1709
H28 H 0.6565 0.1708 0.3807
C33 C 0.9583(6) 0.08044(11) -0.0802(5)
H29 H 1.098 0.0926 -0.1069
C34 C 0.8367(6) 0.06062(12) -0.2209(5)
H30 H 0.8911 0.0593 -0.3434
loop_
_geom_bond_atom_site_label_1
_geom_bond_atom_site_label_2
_geom_bond_site_symmetry_1
_geom_bond_site_symmetry_2
Br1 C1 1_555 1_555
O1 C13 1_555 1_555
O2 H1 1_555 1_555
C1 C2 1_555 1_555
C2 H2 1_555 1_555
C3 C2 1_555 1_555
H3 C3 1_555 1_555
C4 C3 1_555 1_555
C5 C4 1_555 1_555
H4 C5 1_555 1_555
C6 C5 1_555 1_555
C7 C6 1_555 1_555
C8 C7 1_555 1_555
H5 C8 1_555 1_555
C9 C8 1_555 1_555
H6 C9 1_555 1_555
C10 C9 1_555 1_555
H7 C10 1_555 1_555
C11 C4 1_555 1_555
H8 C11 1_555 1_555
C12 C1 1_555 1_555
H9 C12 1_555 1_555
C13 C6 1_555 1_555
C14 O1 1_555 1_555
C15 C10 1_555 1_555
H10 C15 1_555 1_555
C16 C13 1_555 1_555
H11 C16 1_555 1_555
H12 C16 1_555 1_555
H13 C16 1_555 1_555
C17 O2 1_555 1_555
H14 C17 1_555 1_555
H15 C17 1_555 1_555
Br2 C18 1_555 1_555
O3 C28 1_555 1_555
O4 H16 1_555 1_555
C18 C19 1_555 1_555
C19 H17 1_555 1_555
C20 C19 1_555 1_555
H18 C20 1_555 1_555
C21 C20 1_555 1_555
C22 C21 1_555 1_555
H19 C22 1_555 1_555
C23 C22 1_555 1_555
C24 C23 1_555 1_555
C25 C24 1_555 1_555
H20 C25 1_555 1_555
C26 C25 1_555 1_555
H21 C26 1_555 1_555
C27 C26 1_555 1_555
H22 C27 1_555 1_555
C28 C23 1_555 1_555
C29 O3 1_555 1_555
C30 C27 1_555 1_555
H23 C30 1_555 1_555
C31 C28 1_555 1_555
H24 C31 1_555 1_555
H25 C31 1_555 1_555
H26 C31 1_555 1_555
C32 O4 1_555 1_555
H27 C32 1_555 1_555
H28 C32 1_555 1_555
C33 C21 1_555 1_555
H29 C33 1_555 1_555
C34 C18 1_555 1_555
H30 C34 1_555 1_555
C7 C14 1_555 1_555
C11 C12 1_555 1_555
C13 C17 1_555 1_555
C14 C15 1_555 1_555
C24 C29 1_555 1_555
C28 C32 1_555 1_555
C29 C30 1_555 1_555
C33 C34 1_555 1_555

#END
