
#######################################################################
#
#                 Cambridge Crystallographic Data Centre
#                                CCDC 
#
#######################################################################
#
# If this CIF has been generated from an entry in the Cambridge 
# Structural Database, then it will include bibliographic, chemical, 
# crystal, experimental, refinement or atomic coordinate data resulting 
# from the CCDC's data processing and validation procedures.
#
#######################################################################

data_UKUQIA
_chemical_formula_moiety         
'4(K1 1+),C36 H36 N24 O24,2(O4 S1 2-),C4 H8 O1,16(H2 O1)'
_chemical_name_systematic        
'Tetrapotassium perhydroxycucurbit(6)uril bis(sulfate) tetrahydrofuran clathrate hexadecahydrate'
_symmetry_cell_setting           monoclinic
_symmetry_space_group_name_H-M   'P 21/c'
_symmetry_Int_Tables_number      14
_space_group_name_Hall           '-P 2ybc'
loop_
_symmetry_equiv_pos_site_id
_symmetry_equiv_pos_as_xyz
1 x,y,z
2 x,1/2-y,1/2+z
3 -x,-y,-z
4 -x,1/2+y,1/2-z
_cell_length_a                   12.86330(10)
_cell_length_b                   13.6950(2)
_cell_length_c                   20.51830(10)
_cell_angle_alpha                90
_cell_angle_beta                 102.5640(10)
_cell_angle_gamma                90
_cell_volume                     3528.01
_exptl_crystal_colour            colorless
_exptl_crystal_description       plate
_cell_formula_units_Z            2
loop_
_atom_site_label
_atom_site_type_symbol
_atom_site_fract_x
_atom_site_fract_y
_atom_site_fract_z
K2 K 0.18975(11) 0.22359(9) 0.04246(6)
S1 S 0.08229(10) 0.08808(10) 0.15017(6)
O1 O 0.0099(3) 0.1323(3) 0.09253(19)
O2 O 0.1800(4) 0.0594(4) 0.1295(2)
O3 O 0.0325(4) 0.0016(3) 0.1729(3)
O4 O 0.1088(4) 0.1583(4) 0.2048(2)
O5 O 0.5076(3) 0.2440(2) -0.14168(16)
O6 O 0.2630(3) 0.3562(2) -0.14901(17)
O7 O 0.1317(3) 0.4059(2) -0.01862(16)
O8 O 0.2928(3) 0.3611(2) 0.12107(17)
O9 O 0.5598(3) 0.2327(2) 0.15011(15)
O10 O 0.3433(3) 0.8058(2) -0.00996(16)
O11 O 0.5861(3) 0.4548(3) -0.29178(16)
H1 H 0.585(5) 0.399(5) -0.305(3)
O12 O 0.3206(3) 0.5623(3) -0.30628(16)
H2 H 0.275(5) 0.519(5) -0.322(3)
O13 O 0.1502(3) 0.6325(3) -0.25612(17)
H3 H 0.118(5) 0.589(5) -0.274(3)
O14 O 0.0216(3) 0.6803(3) -0.10084(16)
H4 H 0.021(5) 0.737(5) -0.091(3)
O15 O 0.0503(3) 0.7068(3) 0.03557(17)
H5 H -0.003(5) 0.664(5) 0.030(3)
O16 O 0.7644(3) 0.3594(2) -0.22258(16)
H6 H 0.792(5) 0.413(4) -0.249(3)
N1 N 0.6650(3) 0.3207(3) -0.14687(18)
N2 N 0.5141(3) 0.3775(3) -0.20937(18)
N3 N 0.3434(3) 0.4571(3) -0.21318(18)
N4 N 0.2097(3) 0.5152(3) -0.17112(19)
N5 N 0.1342(3) 0.5512(3) -0.07501(18)
N6 N 0.1376(3) 0.5560(3) 0.03360(18)
N7 N 0.2507(3) 0.5200(3) 0.14310(18)
N8 N 0.4090(3) 0.4593(3) 0.19440(18)
N9 N 0.5805(3) 0.3787(3) 0.20768(18)
N10 N 0.2830(3) 0.6800(3) -0.16921(17)
N11 N 0.2061(3) 0.7165(3) -0.07351(18)
N12 N 0.2283(3) 0.7134(3) 0.03689(18)
C1 C 0.5572(4) 0.3082(3) -0.1633(2)
C2 C 0.4017(3) 0.3818(3) -0.2400(2)
H7 H 0.3695 0.3183 -0.2344
H8 H 0.3937 0.3930 -0.2881
C3 C 0.2713(4) 0.4349(3) -0.1750(2)
C4 C 0.1168(4) 0.5097(3) -0.1423(2)
H9 H 0.0957 0.4411 -0.1405
H10 H 0.0579 0.5445 -0.1713
C5 C 0.1347(3) 0.4953(3) -0.0200(2)
C6 C 0.1442(4) 0.5217(3) 0.1015(2)
H11 H 0.0996 0.5638 0.1228
H12 H 0.1146 0.4556 0.0996
C7 C 0.3148(4) 0.4389(3) 0.1499(2)
C8 C 0.4771(4) 0.3805(3) 0.2251(2)
H13 H 0.4410 0.3183 0.2119
H14 H 0.4877 0.3861 0.2738
C9 C 0.5922(4) 0.4444(3) -0.2238(2)
C10 C 0.3321(3) 0.5567(3) -0.2381(2)
C11 C 0.2363(4) 0.5973(3) -0.2095(2)
C12 C 0.1199(4) 0.6539(3) -0.0632(2)
C13 C 0.1322(3) 0.6582(3) 0.0142(2)
C14 C 0.7004(3) 0.3987(3) -0.1838(2)
C15 C 0.6139(4) 0.3037(3) 0.1733(2)
C16 C 0.2214(4) 0.7478(3) -0.1388(2)
H15 H 0.1515 0.7567 -0.1687
H16 H 0.2575 0.8113 -0.1339
C17 C 0.2669(4) 0.7510(3) -0.0153(2)
C18 C 0.7357(4) 0.2528(3) -0.1051(2)
H17 H 0.6989 0.1902 -0.1047
H18 H 0.7979 0.2415 -0.1245
N7B N 0.7493(3) 0.4800(3) -0.14310(18)
C6B C 0.8558(4) 0.4783(3) -0.1015(2)
N6B N 0.8624(3) 0.4440(3) -0.03360(18)
C5B C 0.8653(3) 0.5047(3) 0.0200(2)
O7B O 0.8683(3) 0.5941(2) 0.01862(16)
N5B N 0.8658(3) 0.4488(3) 0.07501(18)
C4B C 0.8832(4) 0.4903(3) 0.1423(2)
N4B N 0.7903(3) 0.4848(3) 0.17112(19)
C3B C 0.7287(4) 0.5651(3) 0.1750(2)
O6B O 0.7370(3) 0.6438(2) 0.14901(17)
N3B N 0.6566(3) 0.5429(3) 0.21318(18)
C2B C 0.5983(3) 0.6182(3) 0.2400(2)
N2B N 0.4859(3) 0.6225(3) 0.20937(18)
C1B C 0.4428(4) 0.6918(3) 0.1633(2)
O5B O 0.4924(3) 0.7560(2) 0.14168(16)
N1B N 0.3350(3) 0.6793(3) 0.14687(18)
C14B C 0.2996(3) 0.6013(3) 0.1838(2)
O16B O 0.2356(3) 0.6406(2) 0.22258(16)
H6B H 0.208(5) 0.587(4) 0.249(3)
N8B N 0.5910(3) 0.5407(3) -0.19440(18)
C7B C 0.6852(4) 0.5611(3) -0.1499(2)
O8B O 0.7072(3) 0.6389(2) -0.12107(17)
C8B C 0.5229(4) 0.6195(3) -0.2251(2)
N9B N 0.4195(3) 0.6213(3) -0.20768(18)
C15B C 0.3861(4) 0.6963(3) -0.1733(2)
O9B O 0.4402(3) 0.7673(2) -0.15011(15)
C18B C 0.2643(4) 0.7472(3) 0.1051(2)
H17B H 0.3011 0.8098 0.1047
H18B H 0.2021 0.7585 0.1245
H13B H 0.5590 0.6817 -0.2119
H14B H 0.5123 0.6139 -0.2738
C10B C 0.6679(3) 0.4433(3) 0.2381(2)
O12B O 0.6794(3) 0.4377(3) 0.30628(16)
H2B H 0.725(5) 0.481(5) 0.322(3)
C11B C 0.7637(4) 0.4027(3) 0.2095(2)
O13B O 0.8498(3) 0.3675(3) 0.25612(17)
H3B H 0.882(5) 0.411(5) 0.274(3)
N10B N 0.7170(3) 0.3200(3) 0.16921(17)
C16B C 0.7786(4) 0.2522(3) 0.1388(2)
N11B N 0.7939(3) 0.2835(3) 0.07351(18)
C12B C 0.8801(4) 0.3461(3) 0.0632(2)
O14B O 0.9784(3) 0.3197(3) 0.10084(16)
H4B H 0.979(5) 0.263(5) 0.091(3)
C13B C 0.8678(3) 0.3418(3) -0.0142(2)
O15B O 0.9497(3) 0.2932(3) -0.03557(17)
H5B H 1.003(5) 0.336(5) -0.030(3)
N12B N 0.7717(3) 0.2866(3) -0.03689(18)
C17B C 0.7331(4) 0.2490(3) 0.0153(2)
O10B O 0.6567(3) 0.1942(2) 0.00996(16)
H15B H 0.8485 0.2433 0.1687
H16B H 0.7425 0.1887 0.1339
C9B C 0.4078(4) 0.5556(3) 0.2238(2)
O11B O 0.4139(3) 0.5452(3) 0.29178(16)
H1B H 0.415(5) 0.601(5) 0.305(3)
H7B H 0.6305 0.6817 0.2344
H8B H 0.6063 0.6070 0.2881
H9B H 0.9043 0.5589 0.1405
H10B H 0.9421 0.4555 0.1713
H11B H 0.9004 0.4362 -0.1228
H12B H 0.8854 0.5444 -0.0996
O17 O 0.5447(4) 0.0378(3) -0.0733(2)
O18 O 0.2388(4) 0.1717(3) -0.2404(2)
O19 O 0.2882(4) -0.0090(3) -0.0796(2)
O20 O 0.1260(3) 0.1758(3) -0.0894(2)
O21 O 0.3929(4) 0.1615(3) 0.0370(2)
O22 O -0.0044(3) 0.7067(3) 0.1902(2)
O23 O 0.8410(3) 0.0095(3) 0.2075(2)
O24 O 0.1406(5) -0.0215(6) -0.0045(3)
O25 O 0.4108(18) 0.534(3) 0.002(2)
C19 C 0.4266(19) 0.456(3) 0.0068(8)
C20 C 0.489(3) 0.5805(11) 0.0062(13)
C20B C 0.511(3) 0.4195(11) -0.0062(13)
O25B O 0.5892(18) 0.466(3) -0.002(2)
C19B C 0.5734(19) 0.544(3) -0.0068(8)
K1 K 0.33723(11) 0.17864(11) -0.10492(7)
loop_
_geom_bond_atom_site_label_1
_geom_bond_atom_site_label_2
_geom_bond_site_symmetry_1
_geom_bond_site_symmetry_2
S1 O1 1_555 1_555
O2 S1 1_555 1_555
O3 S1 1_555 1_555
O4 S1 1_555 1_555
O5 C1 1_555 1_555
O6 C3 1_555 1_555
O7 C5 1_555 1_555
O8 C7 1_555 1_555
O9 C15 1_555 1_555
O10 C17 1_555 1_555
O11 H1 1_555 1_555
O12 H2 1_555 1_555
O13 H3 1_555 1_555
O14 H4 1_555 1_555
O15 H5 1_555 1_555
O16 H6 1_555 1_555
N1 C1 1_555 1_555
N2 C1 1_555 1_555
N3 C2 1_555 1_555
N4 C3 1_555 1_555
N5 C4 1_555 1_555
N6 C5 1_555 1_555
N7 C6 1_555 1_555
N8 C7 1_555 1_555
N9 C8 1_555 1_555
N10 C11 1_555 1_555
N11 C12 1_555 1_555
N12 C13 1_555 1_555
C2 N2 1_555 1_555
H7 C2 1_555 1_555
H8 C2 1_555 1_555
C3 N3 1_555 1_555
C4 N4 1_555 1_555
H9 C4 1_555 1_555
H10 C4 1_555 1_555
C5 N5 1_555 1_555
C6 N6 1_555 1_555
H11 C6 1_555 1_555
H12 C6 1_555 1_555
C7 N7 1_555 1_555
C8 N8 1_555 1_555
H13 C8 1_555 1_555
H14 C8 1_555 1_555
C9 O11 1_555 1_555
C10 O12 1_555 1_555
C11 O13 1_555 1_555
C12 O14 1_555 1_555
C13 O15 1_555 1_555
C14 O16 1_555 1_555
C15 N9 1_555 1_555
C16 N10 1_555 1_555
H15 C16 1_555 1_555
H16 C16 1_555 1_555
C17 N11 1_555 1_555
C18 N1 1_555 1_555
H17 C18 1_555 1_555
H18 C18 1_555 1_555
O25 C19 1_555 1_555
C19 C20B 1_555 1_555
C20 O25 1_555 1_555
N7B C14 1_555 1_555
C6B N7B 1_555 1_555
N6B C6B 1_555 1_555
C5B N6B 1_555 1_555
O7B C5B 1_555 1_555
N5B C5B 1_555 1_555
C4B N5B 1_555 1_555
N4B C4B 1_555 1_555
C3B N4B 1_555 1_555
O6B C3B 1_555 1_555
N3B C3B 1_555 1_555
C2B N3B 1_555 1_555
N2B C2B 1_555 1_555
C1B N2B 1_555 1_555
O5B C1B 1_555 1_555
N1B C1B 1_555 1_555
C14B N7 1_555 1_555
O16B C14B 1_555 1_555
H6B O16B 1_555 1_555
N8B C9 1_555 1_555
C7B N7B 1_555 1_555
O8B C7B 1_555 1_555
C8B N8B 1_555 1_555
N9B C10 1_555 1_555
C15B N10 1_555 1_555
O9B C15B 1_555 1_555
C18B N12 1_555 1_555
H17B C18B 1_555 1_555
H18B C18B 1_555 1_555
H13B C8B 1_555 1_555
H14B C8B 1_555 1_555
C10B N9 1_555 1_555
O12B C10B 1_555 1_555
H2B O12B 1_555 1_555
C11B N4B 1_555 1_555
O13B C11B 1_555 1_555
H3B O13B 1_555 1_555
N10B C15 1_555 1_555
C16B N10B 1_555 1_555
N11B C16B 1_555 1_555
C12B N5B 1_555 1_555
O14B C12B 1_555 1_555
H4B O14B 1_555 1_555
C13B N6B 1_555 1_555
O15B C13B 1_555 1_555
H5B O15B 1_555 1_555
N12B C18 1_555 1_555
C17B N11B 1_555 1_555
O10B C17B 1_555 1_555
H15B C16B 1_555 1_555
H16B C16B 1_555 1_555
C9B N8 1_555 1_555
O11B C9B 1_555 1_555
H1B O11B 1_555 1_555
H7B C2B 1_555 1_555
H8B C2B 1_555 1_555
H9B C4B 1_555 1_555
H10B C4B 1_555 1_555
H11B C6B 1_555 1_555
H12B C6B 1_555 1_555
C20B O25B 1_555 1_555
O25B C19B 1_555 1_555
C19B C20 1_555 1_555
N1 C14 1_555 1_555
N2 C9 1_555 1_555
N3 C10 1_555 1_555
N4 C11 1_555 1_555
N5 C12 1_555 1_555
N6 C13 1_555 1_555
N11 C16 1_555 1_555
N12 C17 1_555 1_555
C9 C14 1_555 1_555
C10 C11 1_555 1_555
C12 C13 1_555 1_555
N3B C10B 1_555 1_555
N2B C9B 1_555 1_555
N1B C14B 1_555 1_555
N1B C18B 1_555 1_555
C14B C9B 1_555 1_555
N8B C7B 1_555 1_555
C8B N9B 1_555 1_555
N9B C15B 1_555 1_555
C10B C11B 1_555 1_555
C11B N10B 1_555 1_555
N11B C12B 1_555 1_555
C12B C13B 1_555 1_555
C13B N12B 1_555 1_555
N12B C17B 1_555 1_555

#END
