
#######################################################################
#
#                 Cambridge Crystallographic Data Centre
#                                CCDC 
#
#######################################################################
#
# If this CIF has been generated from an entry in the Cambridge 
# Structural Database, then it will include bibliographic, chemical, 
# crystal, experimental, refinement or atomic coordinate data resulting 
# from the CCDC's data processing and validation procedures.
#
#######################################################################

data_UKUTOK
_chemical_name_common            
'1,1,3-trimethyl-5-(2,4-dihydroxy-3-methylphenyl)-1-azonia-3-azalidine-2-one triflate'
_chemical_formula_moiety         'C13 H19 N2 O3 1+,C1 F3 O3 S1 1-'
_chemical_name_systematic        
'5-(2,4-Dihydroxy-3-methylphenyl)-1,1,3-trimethyl-2-oxoimidazolidin-1-ium trifluoromethanesulfonate'
_symmetry_cell_setting           orthorhombic
_symmetry_space_group_name_H-M   'F d d 2'
_symmetry_Int_Tables_number      43
_space_group_name_Hall           'F 2 -2d'
loop_
_symmetry_equiv_pos_site_id
_symmetry_equiv_pos_as_xyz
1 x,y,z
2 -x,-y,z
3 1/4-x,1/4+y,1/4+z
4 1/4+x,1/4-y,1/4+z
5 x,1/2+y,1/2+z
6 -x,1/2-y,1/2+z
7 1/4-x,3/4+y,3/4+z
8 1/4+x,3/4-y,3/4+z
9 1/2+x,y,1/2+z
10 1/2-x,-y,1/2+z
11 3/4-x,1/4+y,3/4+z
12 3/4+x,1/4-y,3/4+z
13 1/2+x,1/2+y,z
14 1/2-x,1/2-y,z
15 3/4-x,3/4+y,1/4+z
16 3/4+x,3/4-y,1/4+z
_cell_length_a                   28.584(4)
_cell_length_b                   23.566(5)
_cell_length_c                   10.518(3)
_cell_angle_alpha                90
_cell_angle_beta                 90
_cell_angle_gamma                90
_cell_volume                     7085.04
_exptl_crystal_colour            colorless
_exptl_crystal_description       prism
_chemical_melting_point          154deg.C
_cell_formula_units_Z            16
loop_
_atom_site_label
_atom_site_type_symbol
_atom_site_fract_x
_atom_site_fract_y
_atom_site_fract_z
S1 S -0.90017(4) 0.39704(5) 1.27117(11)
O1 O -0.91081(15) 0.43565(14) 1.1688(3)
O2 O -0.92791(12) 0.34711(13) 1.2710(4)
O6 O -0.85208(13) 0.3877(2) 1.2888(5)
F1 F -0.91451(17) 0.40393(19) 1.5144(3)
F2 F -0.8941(2) 0.48124(18) 1.4279(5)
F3 F -0.96270(18) 0.4506(2) 1.4018(4)
C11 C -0.9194(3) 0.4347(3) 1.4114(6)
O3 O -0.84809(13) 0.38269(14) 0.7222(4)
O4 O -0.73468(11) 0.56515(13) 0.8541(3)
C1 C -0.82909(16) 0.40186(18) 0.8141(5)
C2 C -0.75883(13) 0.57242(17) 0.9660(4)
C3 C -0.77994(15) 0.62557(18) 1.1480(5)
C4 C -0.78652(13) 0.47329(16) 0.9311(4)
H1 H -0.7567 0.4715 0.8854
C5 C -0.87224(14) 0.4863(2) 0.8798(5)
H2 H -0.8962 0.4753 0.8209
H3 H -0.8720 0.5269 0.8880
H4 H -0.8784 0.4695 0.9612
N1 N -0.80891(13) 0.37899(13) 0.9126(4)
N2 N -0.82590(11) 0.46670(13) 0.8322(3)
O5 O -0.77618(12) 0.67520(13) 1.2163(4)
C6 C -0.75496(14) 0.62289(16) 1.0350(5)
C7 C -0.78701(12) 0.52741(15) 1.0052(4)
C8 C -0.81100(15) 0.53318(18) 1.1186(4)
H5 H -0.8296 0.5034 1.1472
C9 C -0.80806(15) 0.58183(19) 1.1903(4)
H6 H -0.8247 0.5852 1.2659
C10 C -0.79143(14) 0.41853(16) 1.0073(5)
H7 H -0.7615 0.4063 1.0410
H8 H -0.8134 0.4230 1.0767
C12 C -0.81486(18) 0.4955(2) 0.7099(4)
H9 H -0.8111 0.5355 0.7245
H10 H -0.8400 0.4895 0.6508
H11 H -0.7864 0.4802 0.6756
C13 C -0.72506(18) 0.67108(19) 0.9906(5)
H12 H -0.7271 0.7018 1.0503
H13 H -0.7357 0.6837 0.9088
H14 H -0.6931 0.6587 0.9844
C14 C -0.80868(18) 0.31751(17) 0.9330(6)
H15 H -0.8160 0.2986 0.8547
H16 H -0.8316 0.3078 0.9961
H17 H -0.7783 0.3058 0.9616
H18 H -0.7079(10) 0.581(2) 0.852(5)
H19 H -0.7953(16) 0.675(2) 1.277(4)
loop_
_geom_bond_atom_site_label_1
_geom_bond_atom_site_label_2
_geom_bond_site_symmetry_1
_geom_bond_site_symmetry_2
S1 O1 1_555 1_555
O2 S1 1_555 1_555
O3 C1 1_555 1_555
O4 C2 1_555 1_555
C1 N1 1_555 1_555
C2 C6 1_555 1_555
C3 O5 1_555 1_555
C4 H1 1_555 1_555
C5 H2 1_555 1_555
H3 C5 1_555 1_555
H4 C5 1_555 1_555
N1 C10 1_555 1_555
N2 C1 1_555 1_555
O5 H19 1_555 1_555
C6 C3 1_555 1_555
C7 C2 1_555 1_555
C8 C7 1_555 1_555
H5 C8 1_555 1_555
C9 C3 1_555 1_555
H6 C9 1_555 1_555
C10 C4 1_555 1_555
H7 C10 1_555 1_555
H8 C10 1_555 1_555
O6 S1 1_555 1_555
F1 C11 1_555 1_555
F2 C11 1_555 1_555
F3 C11 1_555 1_555
C11 S1 1_555 1_555
C12 N2 1_555 1_555
H9 C12 1_555 1_555
H10 C12 1_555 1_555
H11 C12 1_555 1_555
C13 C6 1_555 1_555
H12 C13 1_555 1_555
H13 C13 1_555 1_555
H14 C13 1_555 1_555
C14 N1 1_555 1_555
H15 C14 1_555 1_555
H16 C14 1_555 1_555
H17 C14 1_555 1_555
H18 O4 1_555 1_555
C4 N2 1_555 1_555
C4 C7 1_555 1_555
C5 N2 1_555 1_555
C8 C9 1_555 1_555

#END
