
#######################################################################
#
#                 Cambridge Crystallographic Data Centre
#                                CCDC 
#
#######################################################################
#
# If this CIF has been generated from an entry in the Cambridge 
# Structural Database, then it will include bibliographic, chemical, 
# crystal, experimental, refinement or atomic coordinate data resulting 
# from the CCDC's data processing and validation procedures.
#
#######################################################################

data_UKUTUP
_chemical_formula_moiety         'C36 H34 N4 O5,H2 O1'
_chemical_name_systematic        
'6,9,12-Tribenzyl-4b-hydroxy-5,6,8,9,11,12-hexahydro-4bH-6,9,12,14a-tetraazacyclododeca(a)indene-7,10,13,15-tetraone monohydrate'
_symmetry_cell_setting           triclinic
_symmetry_space_group_name_H-M   'P -1'
_symmetry_Int_Tables_number      2
_space_group_name_Hall           '-P 1'
loop_
_symmetry_equiv_pos_site_id
_symmetry_equiv_pos_as_xyz
1 x,y,z
2 -x,-y,-z
_cell_length_a                   6.6763(14)
_cell_length_b                   15.329(3)
_cell_length_c                   16.572(4)
_cell_angle_alpha                111.772(6)
_cell_angle_beta                 97.092(13)
_cell_angle_gamma                93.043(14)
_cell_volume                     1553.94
_exptl_crystal_colour            colorless
_exptl_crystal_description       prism
_chemical_melting_point          '155-158 deg.C'
_cell_formula_units_Z            2
_exptl_crystal_preparation       'irradiated product'
loop_
_atom_site_label
_atom_site_type_symbol
_atom_site_fract_x
_atom_site_fract_y
_atom_site_fract_z
O1 O 0.2294(2) 0.45575(9) 0.41067(9)
O2 O 0.7617(2) 0.34709(10) 0.49427(9)
H1 H 0.765(3) 0.4054(17) 0.5230(15)
O3 O 0.5853(2) 0.08207(9) 0.28760(8)
O4 O 0.2721(2) -0.03504(10) 0.01783(9)
O5 O 0.1303(2) 0.23974(9) 0.27737(8)
N1 N 0.4374(2) 0.34209(10) 0.41270(9)
N2 N 0.3839(2) 0.14627(10) 0.39007(9)
N3 N 0.2801(2) -0.02149(10) 0.15826(9)
N4 N 0.3492(2) 0.18451(10) 0.18059(9)
C1 C 0.3160(3) 0.40981(13) 0.44865(13)
C2 C 0.3171(3) 0.41847(13) 0.54070(12)
C3 C 0.2118(3) 0.47377(15) 0.60427(14)
H4 H 0.1215 0.5133 0.5926
C4 C 0.2461(4) 0.46794(17) 0.68620(15)
H5 H 0.1761 0.5035 0.7303
C5 C 0.3821(4) 0.41029(17) 0.70325(15)
H6 H 0.4023 0.4077 0.7588
C6 C 0.4893(4) 0.35622(16) 0.63991(13)
H7 H 0.5828 0.3182 0.6521
C7 C 0.4529(3) 0.36059(13) 0.55771(12)
C8 C 0.5538(3) 0.31291(13) 0.47843(12)
C9 C 0.5590(3) 0.20603(13) 0.45021(12)
H8 H 0.6790 0.1891 0.4227
H9 H 0.5743 0.1915 0.5027
C10 C 0.4164(3) 0.08757(12) 0.30927(12)
C11 C 0.2319(3) 0.02773(13) 0.24535(11)
H10 H 0.1792 -0.0180 0.2673
H11 H 0.1267 0.0681 0.2421
C12 C 0.2506(3) 0.01256(13) 0.09374(12)
C13 C 0.1939(3) 0.11308(13) 0.11651(12)
H12 H 0.1724 0.1258 0.0631
H13 H 0.0671 0.1181 0.1400
C14 C 0.2999(3) 0.24331(12) 0.25862(11)
C15 C 0.4734(3) 0.31373(13) 0.32302(12)
H14 H 0.5996 0.2850 0.3172
H15 H 0.4876 0.3691 0.3083
C16 C 0.1858(3) 0.15495(14) 0.42022(12)
H16 H 0.0840 0.1118 0.3735
H17 H 0.1507 0.2186 0.4316
C17 C 0.1790(3) 0.13441(13) 0.50213(12)
C18 C 0.0817(3) 0.19063(15) 0.56803(13)
H18 H 0.0223 0.2421 0.5625
C19 C 0.0722(4) 0.17067(19) 0.64261(15)
H19 H 0.0056 0.2087 0.6868
C20 C 0.1601(4) 0.0954(2) 0.65184(15)
H20 H 0.1554 0.0829 0.7024
C21 C 0.2543(4) 0.03908(18) 0.58629(16)
H21 H 0.3132 -0.0124 0.5920
C22 C 0.2633(3) 0.05781(16) 0.51118(14)
H22 H 0.3266 0.0184 0.4665
C23 C 0.3625(3) -0.11180(13) 0.14213(13)
H23 H 0.4800 -0.1021 0.1865
H24 H 0.4089 -0.1324 0.0854
C24 C 0.2163(3) -0.18969(13) 0.14296(12)
C25 C 0.2917(4) -0.25914(15) 0.16921(15)
H25 H 0.4293 -0.2545 0.1900
C26 C 0.1641(5) -0.33500(17) 0.16477(17)
H26 H 0.2164 -0.3819 0.1815
C27 C -0.0377(5) -0.34155(18) 0.13608(17)
H27 H -0.1230 -0.3931 0.1329
C28 C -0.1167(4) -0.27215(18) 0.11174(16)
H28 H -0.2553 -0.2762 0.0932
C29 C 0.0110(3) -0.19623(15) 0.11501(13)
H29 H -0.0421 -0.1495 0.0983
C30 C 0.5430(3) 0.19529(14) 0.15132(13)
H30 H 0.5577 0.1373 0.1031
H31 H 0.6515 0.2038 0.1991
C31 C 0.5687(3) 0.27687(14) 0.12160(12)
C32 C 0.4163(4) 0.33037(16) 0.11324(15)
H32 H 0.2906 0.3187 0.1281
C33 C 0.4484(5) 0.40248(17) 0.08255(16)
H33 H 0.3445 0.4390 0.0772
C34 C 0.6329(6) 0.41933(19) 0.06036(16)
H34 H 0.6536 0.4668 0.0391
C35 C 0.7855(5) 0.3675(2) 0.06921(19)
H35 H 0.9113 0.3797 0.0547
C36 C 0.7542(4) 0.29642(17) 0.09968(17)
H36 H 0.8598 0.2610 0.1056
O6 O 0.7894(3) -0.00235(13) 0.13850(12)
H2 H 0.689(4) 0.0288(18) 0.1878(18)
H3 H 0.734(4) 0.0051(19) 0.0863(18)
loop_
_geom_bond_atom_site_label_1
_geom_bond_atom_site_label_2
_geom_bond_site_symmetry_1
_geom_bond_site_symmetry_2
O1 C1 1_555 1_555
O2 H1 1_555 1_555
O3 C10 1_555 1_555
O4 C12 1_555 1_555
O5 C14 1_555 1_555
O6 H2 1_555 1_555
H3 O6 1_555 1_555
N1 C1 1_555 1_555
N2 C9 1_555 1_555
N3 C11 1_555 1_555
N4 C13 1_555 1_555
C1 C2 1_555 1_555
C2 C3 1_555 1_555
C3 H4 1_555 1_555
C4 C3 1_555 1_555
H5 C4 1_555 1_555
C5 C4 1_555 1_555
H6 C5 1_555 1_555
C6 C5 1_555 1_555
H7 C6 1_555 1_555
C7 C2 1_555 1_555
C8 O2 1_555 1_555
C9 C8 1_555 1_555
H8 C9 1_555 1_555
H9 C9 1_555 1_555
C10 N2 1_555 1_555
C11 C10 1_555 1_555
H10 C11 1_555 1_555
H11 C11 1_555 1_555
C12 N3 1_555 1_555
C13 C12 1_555 1_555
H12 C13 1_555 1_555
H13 C13 1_555 1_555
C14 N4 1_555 1_555
C15 N1 1_555 1_555
H14 C15 1_555 1_555
H15 C15 1_555 1_555
C16 N2 1_555 1_555
H16 C16 1_555 1_555
H17 C16 1_555 1_555
C17 C16 1_555 1_555
C18 C17 1_555 1_555
H18 C18 1_555 1_555
C19 C18 1_555 1_555
H19 C19 1_555 1_555
C20 C19 1_555 1_555
H20 C20 1_555 1_555
C21 C20 1_555 1_555
H21 C21 1_555 1_555
C22 C17 1_555 1_555
H22 C22 1_555 1_555
C23 N3 1_555 1_555
H23 C23 1_555 1_555
H24 C23 1_555 1_555
C24 C23 1_555 1_555
C25 C24 1_555 1_555
H25 C25 1_555 1_555
C26 C25 1_555 1_555
H26 C26 1_555 1_555
C27 C26 1_555 1_555
H27 C27 1_555 1_555
C28 C27 1_555 1_555
H28 C28 1_555 1_555
C29 C24 1_555 1_555
H29 C29 1_555 1_555
C30 N4 1_555 1_555
H30 C30 1_555 1_555
H31 C30 1_555 1_555
C31 C30 1_555 1_555
C32 C31 1_555 1_555
H32 C32 1_555 1_555
C33 C32 1_555 1_555
H33 C33 1_555 1_555
C34 C33 1_555 1_555
H34 C34 1_555 1_555
C35 C34 1_555 1_555
H35 C35 1_555 1_555
C36 C31 1_555 1_555
H36 C36 1_555 1_555
N1 C8 1_555 1_555
C6 C7 1_555 1_555
C7 C8 1_555 1_555
C14 C15 1_555 1_555
C21 C22 1_555 1_555
C28 C29 1_555 1_555
C35 C36 1_555 1_555

#END
