
#######################################################################
#
#                 Cambridge Crystallographic Data Centre
#                                CCDC 
#
#######################################################################
#
# If this CIF has been generated from an entry in the Cambridge 
# Structural Database, then it will include bibliographic, chemical, 
# crystal, experimental, refinement or atomic coordinate data resulting 
# from the CCDC's data processing and validation procedures.
#
#######################################################################

data_UKUVEB
_chemical_formula_moiety         'C38 H38 N4 O5'
_chemical_name_systematic        
6,9,12-Tribenzyl-8,11-dimethyl-4b-hydroxy-5,6,8,9,11,12-hexahydro-4bH-6,9,12,14a-tetraazacyclododeca(a)indene-7,10,13,15-tetraone
_symmetry_cell_setting           orthorhombic
_symmetry_space_group_name_H-M   'P 21 21 21'
_symmetry_Int_Tables_number      19
_space_group_name_Hall           'P 2ac 2ab'
loop_
_symmetry_equiv_pos_site_id
_symmetry_equiv_pos_as_xyz
1 x,y,z
2 1/2-x,-y,1/2+z
3 -x,1/2+y,1/2-z
4 1/2+x,1/2-y,-z
_cell_length_a                   10.2589(13)
_cell_length_b                   13.3262(12)
_cell_length_c                   24.287(3)
_cell_angle_alpha                90
_cell_angle_beta                 90
_cell_angle_gamma                90
_cell_volume                     3320.33
_exptl_crystal_colour            colorless
_exptl_crystal_description       prism
_chemical_melting_point          '221.4-222.3 deg.C'
_cell_formula_units_Z            4
_exptl_crystal_preparation       'irradiated product'
loop_
_atom_site_label
_atom_site_type_symbol
_atom_site_fract_x
_atom_site_fract_y
_atom_site_fract_z
O1 O 0.47903(15) 0.24812(12) -0.11828(7)
O2 O 0.19616(19) 0.30430(14) 0.01207(6)
H1 H 0.263(3) 0.331(2) 0.0238(11)
O3 O -0.08685(14) 0.13239(10) -0.06472(5)
O4 O -0.09779(15) -0.14297(10) -0.13621(7)
O5 O 0.22491(14) 0.13184(9) -0.16522(5)
N1 N 0.28011(17) 0.24711(12) -0.07396(7)
N2 N 0.01070(15) 0.25925(11) -0.11053(6)
N3 N -0.14451(15) 0.01944(11) -0.15206(6)
N4 N 0.14796(15) 0.00347(11) -0.11388(6)
C1 C 0.3871(2) 0.29146(16) -0.09732(9)
C2 C 0.3663(2) 0.40076(16) -0.09105(9)
C3 C 0.4417(3) 0.48011(19) -0.10923(12)
H2 H 0.5182 0.4689 -0.1288
C4 C 0.4006(3) 0.5761(2) -0.09749(13)
H3 H 0.4490 0.6308 -0.1096
C5 C 0.2883(3) 0.59139(18) -0.06798(13)
H4 H 0.2624 0.6567 -0.0601
C6 C 0.2133(2) 0.51299(16) -0.04973(11)
H5 H 0.1375 0.5244 -0.0297
C7 C 0.2535(2) 0.41668(15) -0.06199(8)
C8 C 0.1932(2) 0.31758(15) -0.04556(8)
C9 C 0.0462(2) 0.30575(19) -0.05805(9)
H6 H 0.015(2) 0.2613(17) -0.0295(9)
H7 H 0.008(2) 0.3736(18) -0.0565(9)
C10 C -0.05859(18) 0.17310(13) -0.10879(7)
C11 C -0.10366(19) 0.12349(13) -0.16288(8)
H8 H -0.030(2) 0.1214(14) -0.1879(8)
C12 C -0.0602(2) -0.05852(14) -0.14919(8)
C13 C 0.0847(2) -0.04341(14) -0.16208(9)
H9 H 0.097(2) 0.0054(16) -0.1917(9)
C14 C 0.21229(18) 0.09178(13) -0.12054(8)
C15 C 0.2693(3) 0.13946(16) -0.06865(10)
H10 H 0.212(2) 0.1283(17) -0.0347(10)
H11 H 0.352(2) 0.1134(17) -0.0626(10)
C16 C -0.2137(2) 0.18361(17) -0.18933(10)
H12 H -0.178(2) 0.2482(16) -0.2042(9)
H13 H -0.283(2) 0.1987(16) -0.1639(10)
H14 H -0.257(2) 0.1461(16) -0.2179(9)
C17 C 0.1463(3) -0.14293(18) -0.17786(13)
H15 H 0.138(3) -0.191(2) -0.1454(11)
H16 H 0.233(3) -0.139(2) -0.1826(11)
H17 H 0.089(3) -0.1723(19) -0.2082(11)
C18 C 0.0527(2) 0.31069(14) -0.16087(9)
H18 H 0.025(2) 0.2679(16) -0.1929(9)
H19 H 0.148(2) 0.3135(15) -0.1604(8)
C19 C -0.0026(2) 0.41559(14) -0.16689(8)
C20 C -0.1291(2) 0.43934(16) -0.15301(11)
H20 H -0.1836 0.3902 -0.1385
C21 C -0.1762(3) 0.5365(2) -0.16055(13)
H21 H -0.2621 0.5518 -0.1516
C22 C -0.0963(4) 0.60890(19) -0.18094(12)
H22 H -0.1277 0.6737 -0.1860
C23 C 0.0288(4) 0.58674(19) -0.19387(11)
H23 H 0.0832 0.6369 -0.2073
C24 C 0.0770(3) 0.48978(16) -0.18732(9)
H24 H 0.1628 0.4752 -0.1967
C25 C -0.2797(2) 0.00027(17) -0.13252(9)
H25 H -0.310(2) 0.0624(17) -0.1158(9)
H26 H -0.271(2) -0.0499(17) -0.1044(9)
C26 C -0.3700(2) -0.03599(15) -0.17748(8)
C27 C -0.4781(2) 0.01900(18) -0.19166(9)
H27 H -0.4943 0.0796 -0.1739
C28 C -0.5629(2) -0.0140(2) -0.23174(11)
H28 H -0.6355 0.0243 -0.2408
C29 C -0.5406(3) -0.1030(2) -0.25822(11)
H29 H -0.5984 -0.1255 -0.2850
C30 C -0.4333(3) -0.1585(2) -0.24517(12)
H30 H -0.4170 -0.2185 -0.2635
C31 C -0.3488(3) -0.12571(18) -0.20475(11)
H31 H -0.2765 -0.1645 -0.1957
C32 C 0.1334(2) -0.04698(17) -0.06049(9)
H32 H 0.067(2) -0.0968(17) -0.0678(9)
H33 H 0.097(2) -0.0013(17) -0.0325(9)
C33 C 0.2548(2) -0.09637(13) -0.03819(8)
C34 C 0.2503(3) -0.13409(17) 0.01524(9)
H34 H 0.1757 -0.1249 0.0364
C35 C 0.3550(4) -0.1848(2) 0.03699(11)
H35 H 0.3504 -0.2100 0.0726
C36 C 0.4651(3) -0.19842(17) 0.00682(13)
H36 H 0.5355 -0.2330 0.0217
C37 C 0.4721(2) -0.16102(17) -0.04568(12)
H37 H 0.5478 -0.1694 -0.0662
C38 C 0.3671(2) -0.11108(16) -0.06801(10)
H38 H 0.3722 -0.0869 -0.1039
loop_
_geom_bond_atom_site_label_1
_geom_bond_atom_site_label_2
_geom_bond_site_symmetry_1
_geom_bond_site_symmetry_2
O1 C1 1_555 1_555
O2 H1 1_555 1_555
O3 C10 1_555 1_555
O4 C12 1_555 1_555
O5 C14 1_555 1_555
N1 C1 1_555 1_555
N2 C9 1_555 1_555
N3 C11 1_555 1_555
N4 C13 1_555 1_555
C1 C2 1_555 1_555
C2 C3 1_555 1_555
C3 H2 1_555 1_555
C4 C3 1_555 1_555
H3 C4 1_555 1_555
C5 C4 1_555 1_555
H4 C5 1_555 1_555
C6 C5 1_555 1_555
H5 C6 1_555 1_555
C7 C2 1_555 1_555
C8 O2 1_555 1_555
C9 C8 1_555 1_555
H6 C9 1_555 1_555
H7 C9 1_555 1_555
C10 N2 1_555 1_555
C11 C10 1_555 1_555
H8 C11 1_555 1_555
C12 N3 1_555 1_555
C13 C12 1_555 1_555
H9 C13 1_555 1_555
C14 N4 1_555 1_555
C15 N1 1_555 1_555
H10 C15 1_555 1_555
H11 C15 1_555 1_555
C16 C11 1_555 1_555
H12 C16 1_555 1_555
H13 C16 1_555 1_555
H14 C16 1_555 1_555
C17 C13 1_555 1_555
H15 C17 1_555 1_555
H16 C17 1_555 1_555
H17 C17 1_555 1_555
C18 N2 1_555 1_555
H18 C18 1_555 1_555
H19 C18 1_555 1_555
C19 C18 1_555 1_555
C20 C19 1_555 1_555
H20 C20 1_555 1_555
C21 C20 1_555 1_555
H21 C21 1_555 1_555
C22 C21 1_555 1_555
H22 C22 1_555 1_555
C23 C22 1_555 1_555
H23 C23 1_555 1_555
C24 C19 1_555 1_555
H24 C24 1_555 1_555
C25 N3 1_555 1_555
H25 C25 1_555 1_555
H26 C25 1_555 1_555
C26 C25 1_555 1_555
C27 C26 1_555 1_555
H27 C27 1_555 1_555
C28 C27 1_555 1_555
H28 C28 1_555 1_555
C29 C28 1_555 1_555
H29 C29 1_555 1_555
C30 C29 1_555 1_555
H30 C30 1_555 1_555
C31 C26 1_555 1_555
H31 C31 1_555 1_555
C32 N4 1_555 1_555
H32 C32 1_555 1_555
H33 C32 1_555 1_555
C33 C32 1_555 1_555
C34 C33 1_555 1_555
H34 C34 1_555 1_555
C35 C34 1_555 1_555
H35 C35 1_555 1_555
C36 C35 1_555 1_555
H36 C36 1_555 1_555
C37 C36 1_555 1_555
H37 C37 1_555 1_555
C38 C33 1_555 1_555
H38 C38 1_555 1_555
N1 C8 1_555 1_555
C6 C7 1_555 1_555
C7 C8 1_555 1_555
C14 C15 1_555 1_555
C23 C24 1_555 1_555
C30 C31 1_555 1_555
C37 C38 1_555 1_555

#END
