
#######################################################################
#
#                 Cambridge Crystallographic Data Centre
#                                CCDC 
#
#######################################################################
#
# If this CIF has been generated from an entry in the Cambridge 
# Structural Database, then it will include bibliographic, chemical, 
# crystal, experimental, refinement or atomic coordinate data resulting 
# from the CCDC's data processing and validation procedures.
#
#######################################################################

data_ULAGAR
_chemical_formula_moiety         'C19 H18 Br1 N1 O2'
_chemical_name_systematic        
'Ethyl 3-(4-bromophenyl)-3-(1H-indol-3-yl)propanoate'
_symmetry_cell_setting           monoclinic
_symmetry_space_group_name_H-M   'P 21'
_symmetry_Int_Tables_number      4
_space_group_name_Hall           'P 2yb'
loop_
_symmetry_equiv_pos_site_id
_symmetry_equiv_pos_as_xyz
1 x,y,z
2 -x,1/2+y,-z
_cell_length_a                   9.3436(3)
_cell_length_b                   5.68927(15)
_cell_length_c                   15.9284(6)
_cell_angle_alpha                90
_cell_angle_beta                 105.053(3)
_cell_angle_gamma                90
_cell_volume                     817.672
_cell_formula_units_Z            2
loop_
_atom_site_label
_atom_site_type_symbol
_atom_site_fract_x
_atom_site_fract_y
_atom_site_fract_z
Br1 Br 0.14366(2) 0.13480(6) 0.992229(13)
C1 C 0.2898(2) 0.1150(6) 0.92850(13)
C2 C 0.7651(2) 0.1254(6) 0.82513(13)
H1 H 0.7758 0.2903 0.8457
H2 H 0.7909 0.0210 0.8766
O1 O 0.8710(2) -0.1037(3) 0.72974(12)
O2 O 0.95247(18) 0.2648(3) 0.76292(11)
C3 C 0.5555(2) 0.2460(4) 0.69681(15)
C4 C 0.2912(3) -0.0802(4) 0.87706(15)
H3 H 0.2218 -0.2039 0.8744
C5 C 0.4927(3) 0.2852(4) 0.88421(15)
H4 H 0.5610 0.4103 0.8865
C6 C 0.6231(3) 0.4509(4) 0.68224(15)
H5 H 0.7130 0.5110 0.7183
C7 C 0.3903(3) 0.2973(4) 0.93391(15)
H6 H 0.3894 0.4281 0.9709
C8 C 1.0381(3) 0.2483(5) 0.69845(15)
H7 H 0.9711 0.2361 0.6392
H8 H 1.1029 0.1078 0.7095
C9 C 0.4963(2) 0.0901(4) 0.83074(14)
C10 C 0.4198(3) 0.4202(4) 0.57128(15)
C11 C 0.3963(3) -0.0918(4) 0.82933(15)
H9 H 0.3999 -0.2271 0.7950
C12 C 0.6034(2) 0.0796(4) 0.77291(14)
H10 H 0.5991 -0.0833 0.7489
C13 C 0.1939(3) 0.2876(5) 0.47597(16)
H11 H 0.1138 0.3081 0.4258
C14 C 0.8682(3) 0.0791(4) 0.76779(15)
C15 C 0.1980(3) 0.0856(4) 0.52783(15)
H12 H 0.1212 -0.0280 0.5118
C16 C 0.4246(3) 0.2207(4) 0.62556(15)
C17 C 1.1304(3) 0.4695(5) 0.70692(17)
H13 H 1.1783 0.4772 0.6591
H14 H 1.2062 0.4675 0.7625
H15 H 1.0664 0.6070 0.7047
C18 C 0.3037(3) 0.4562(5) 0.49643(15)
H16 H 0.3008 0.5916 0.4611
N1 N 0.5408(2) 0.5556(4) 0.60751(14)
H17 H 0.5627 0.6896 0.5862
C19 C 0.3128(3) 0.0502(4) 0.60208(15)
H18 H 0.3156 -0.0871 0.6364
loop_
_geom_bond_atom_site_label_1
_geom_bond_atom_site_label_2
_geom_bond_site_symmetry_1
_geom_bond_site_symmetry_2
Br1 C1 1_555 1_555
C1 C4 1_555 1_555
C2 H1 1_555 1_555
H2 C2 1_555 1_555
O1 C14 1_555 1_555
O2 C8 1_555 1_555
C3 C6 1_555 1_555
C4 H3 1_555 1_555
C5 H4 1_555 1_555
C6 H5 1_555 1_555
C7 C1 1_555 1_555
H6 C7 1_555 1_555
C8 H7 1_555 1_555
H8 C8 1_555 1_555
C9 C5 1_555 1_555
C10 C16 1_555 1_555
C11 C4 1_555 1_555
H9 C11 1_555 1_555
C12 C2 1_555 1_555
H10 C12 1_555 1_555
C13 H11 1_555 1_555
C14 C2 1_555 1_555
C15 C13 1_555 1_555
H12 C15 1_555 1_555
C16 C3 1_555 1_555
C17 C8 1_555 1_555
H13 C17 1_555 1_555
H14 C17 1_555 1_555
H15 C17 1_555 1_555
C18 C10 1_555 1_555
H16 C18 1_555 1_555
N1 C6 1_555 1_555
H17 N1 1_555 1_555
C19 C15 1_555 1_555
H18 C19 1_555 1_555
O2 C14 1_555 1_555
C3 C12 1_555 1_555
C5 C7 1_555 1_555
C9 C11 1_555 1_555
C9 C12 1_555 1_555
C10 N1 1_555 1_555
C13 C18 1_555 1_555
C16 C19 1_555 1_555

#END
