
#######################################################################
#
#                 Cambridge Crystallographic Data Centre
#                                CCDC 
#
#######################################################################
#
# If this CIF has been generated from an entry in the Cambridge 
# Structural Database, then it will include bibliographic, chemical, 
# crystal, experimental, refinement or atomic coordinate data resulting 
# from the CCDC's data processing and validation procedures.
#
#######################################################################

data_ULAJAU
_chemical_formula_moiety         'C26 H30 N2'
_chemical_name_systematic        
2-Ethyl-9-methyl-3-(3-methyl-1H-indol-2-yl)-1-propyl-2,3-dihydro-1H-pyrrolo[1,2-a]indole
_symmetry_cell_setting           triclinic
_symmetry_space_group_name_H-M   'P -1'
_symmetry_Int_Tables_number      2
_space_group_name_Hall           '-P 1'
loop_
_symmetry_equiv_pos_site_id
_symmetry_equiv_pos_as_xyz
1 x,y,z
2 -x,-y,-z
_cell_length_a                   12.332(3)
_cell_length_b                   13.810(3)
_cell_length_c                   14.408(3)
_cell_angle_alpha                75.882(3)
_cell_angle_beta                 66.387(2)
_cell_angle_gamma                74.137(3)
_cell_volume                     2137.38
_exptl_crystal_colour            colorless
_exptl_crystal_description       block
_cell_formula_units_Z            4
loop_
_atom_site_label
_atom_site_type_symbol
_atom_site_fract_x
_atom_site_fract_y
_atom_site_fract_z
N1 N 0.9208(2) 0.6587(2) 0.4338(2)
N2 N 0.7192(2) 0.7997(2) 0.39312(19)
H1 H 0.7871 0.8158 0.3525
C1 C 0.9495(3) 0.7266(3) 0.4726(3)
C2 C 0.8789(4) 0.7925(3) 0.5420(3)
H2 H 0.7959 0.7962 0.5732
C3 C 0.9363(4) 0.8531(3) 0.5634(3)
H3 H 0.8916 0.8972 0.6111
C4 C 1.0598(4) 0.8487(3) 0.5145(3)
H4 H 1.0956 0.8921 0.5281
C5 C 1.1297(4) 0.7825(3) 0.4472(3)
H5 H 1.2126 0.7793 0.4169
C6 C 1.0754(3) 0.7194(3) 0.4241(3)
C7 C 1.1217(3) 0.6420(3) 0.3587(3)
C8 C 1.0234(3) 0.6071(2) 0.3691(2)
C9 C 0.9924(3) 0.5284(3) 0.3333(3)
H6 H 1.0125 0.4621 0.3730
C10 C 0.8537(3) 0.5585(3) 0.3673(3)
H7 H 0.8340 0.6024 0.3092
C11 C 0.8113(3) 0.6239(2) 0.4542(2)
H8 H 0.7917 0.5792 0.5204
C12 C 0.7056(3) 0.7082(2) 0.4559(2)
C13 C 0.5856(3) 0.7085(2) 0.5076(2)
C14 C 0.5218(3) 0.8057(2) 0.4761(2)
C15 C 0.3997(3) 0.8514(3) 0.5006(3)
H9 H 0.3405 0.8158 0.5467
C16 C 0.3681(3) 0.9486(3) 0.4563(3)
H10 H 0.2869 0.9792 0.4727
C17 C 0.4560(3) 1.0029(3) 0.3864(3)
H11 H 0.4322 1.0690 0.3570
C18 C 0.5766(3) 0.9605(3) 0.3603(2)
H12 H 0.6351 0.9970 0.3144
C19 C 0.6081(3) 0.8616(2) 0.4049(2)
C20 C 0.5295(3) 0.6232(3) 0.5824(3)
H13 H 0.4915 0.5947 0.5517
H14 H 0.4702 0.6490 0.6429
H15 H 0.5908 0.5714 0.6003
C21 C 0.7871(3) 0.4707(3) 0.4010(3)
H16 H 0.7976 0.4317 0.4638
H17 H 0.7017 0.4990 0.4172
C22 C 0.8248(4) 0.3989(3) 0.3259(4)
H18 H 0.8191 0.4365 0.2619
H19 H 0.7728 0.3503 0.3522
H20 H 0.9066 0.3638 0.3152
C23 C 1.0601(4) 0.5194(3) 0.2192(3)
H21 H 1.1456 0.4962 0.2073
H22 H 1.0332 0.4680 0.2030
C24 C 1.0430(5) 0.6175(4) 0.1469(4)
H23 H 0.9571 0.6458 0.1679
H24 H 1.0806 0.6650 0.1577
C25 C 1.0862(7) 0.6155(5) 0.0417(5)
H25 H 1.0734 0.6837 0.0062
H26 H 1.0439 0.5751 0.0278
H27 H 1.1709 0.5864 0.0188
C26 C 1.2514(3) 0.6096(3) 0.2925(3)
H28 H 1.2703 0.6563 0.2295
H29 H 1.2638 0.5424 0.2779
H30 H 1.3029 0.6095 0.3279
N3 N 0.8067(2) 1.03434(18) 0.05907(18)
N4 N 0.6632(2) 0.8791(2) 0.12498(19)
H31 H 0.6259 0.9249 0.1643
C27 C 0.8664(3) 0.9939(2) 0.1266(2)
C28 C 0.9324(3) 0.8973(2) 0.1449(2)
H32 H 0.9460 0.8469 0.1066
C29 C 0.9773(3) 0.8793(3) 0.2232(2)
H33 H 1.0219 0.8152 0.2378
C30 C 0.9573(3) 0.9546(3) 0.2801(3)
H34 H 0.9883 0.9399 0.3323
C31 C 0.8932(3) 1.0495(3) 0.2612(2)
H35 H 0.8806 1.0993 0.2998
C32 C 0.8462(3) 1.0716(2) 0.1827(2)
C33 C 0.7743(3) 1.1602(3) 0.1456(3)
C34 C 0.7529(3) 1.1339(2) 0.0700(2)
C35 C 0.6921(3) 1.1784(3) -0.0072(3)
H36 H 0.7498 1.2121 -0.0671
C36 C 0.6832(3) 1.0830(3) -0.0388(3)
H37 H 0.6049 1.0652 0.0057
C37 C 0.7834(3) 0.9955(2) -0.0159(2)
H38 H 0.8557 0.9899 -0.0781
C38 C 0.7493(3) 0.8932(2) 0.0278(2)
C39 C 0.7872(3) 0.8054(3) -0.0123(3)
C40 C 0.7233(3) 0.7324(3) 0.0626(3)
C41 C 0.7236(4) 0.6299(3) 0.0673(4)
H39 H 0.7734 0.5957 0.0121
C42 C 0.6496(5) 0.5810(4) 0.1539(5)
H40 H 0.6478 0.5135 0.1566
C43 C 0.5768(5) 0.6298(4) 0.2382(4)
H41 H 0.5296 0.5933 0.2967
C44 C 0.5726(4) 0.7304(3) 0.2377(3)
H42 H 0.5229 0.7633 0.2938
C45 C 0.6470(3) 0.7804(3) 0.1486(3)
C46 C 0.8797(4) 0.7850(3) -0.1159(3)
H43 H 0.8395 0.7850 -0.1608
H44 H 0.9316 0.7199 -0.1086
H45 H 0.9270 0.8372 -0.1441
C47 C 0.6888(4) 1.1030(3) -0.1506(3)
H46 H 0.6286 1.1632 -0.1589
H47 H 0.7673 1.1181 -0.1953
C48 C 0.6690(5) 1.0191(4) -0.1846(4)
H48 H 0.6624 1.0418 -0.2510
H49 H 0.5959 0.9980 -0.1366
H50 H 0.7358 0.9627 -0.1885
C49 C 0.5769(4) 1.2578(3) 0.0258(3)
H51 H 0.5974 1.3184 0.0319
H52 H 0.5428 1.2763 -0.0277
C50 C 0.4833(4) 1.2254(4) 0.1239(4)
H53 H 0.5213 1.1912 0.1737
H54 H 0.4471 1.1768 0.1133
C51 C 0.3829(5) 1.3155(5) 0.1676(5)
H55 H 0.3391 1.3452 0.1221
H56 H 0.4186 1.3659 0.1743
H57 H 0.3286 1.2913 0.2337
C52 C 0.7294(5) 1.2595(3) 0.1877(4)
H58 H 0.6757 1.2489 0.2576
H59 H 0.6870 1.3087 0.1477
H60 H 0.7967 1.2840 0.1845
loop_
_geom_bond_atom_site_label_1
_geom_bond_atom_site_label_2
_geom_bond_site_symmetry_1
_geom_bond_site_symmetry_2
N1 C1 1_555 1_555
N2 H1 1_555 1_555
C1 C2 1_555 1_555
C2 H2 1_555 1_555
C3 C2 1_555 1_555
H3 C3 1_555 1_555
C4 C3 1_555 1_555
H4 C4 1_555 1_555
C5 C4 1_555 1_555
H5 C5 1_555 1_555
C6 C1 1_555 1_555
C7 C6 1_555 1_555
C8 N1 1_555 1_555
C9 C8 1_555 1_555
H6 C9 1_555 1_555
C10 C9 1_555 1_555
H7 C10 1_555 1_555
C11 N1 1_555 1_555
H8 C11 1_555 1_555
C12 N2 1_555 1_555
C13 C12 1_555 1_555
C14 C13 1_555 1_555
C15 C14 1_555 1_555
H9 C15 1_555 1_555
C16 C15 1_555 1_555
H10 C16 1_555 1_555
C17 C16 1_555 1_555
H11 C17 1_555 1_555
C18 C17 1_555 1_555
H12 C18 1_555 1_555
C19 N2 1_555 1_555
C20 C13 1_555 1_555
H13 C20 1_555 1_555
H14 C20 1_555 1_555
H15 C20 1_555 1_555
C21 C10 1_555 1_555
H16 C21 1_555 1_555
H17 C21 1_555 1_555
C22 C21 1_555 1_555
H18 C22 1_555 1_555
H19 C22 1_555 1_555
H20 C22 1_555 1_555
C23 C9 1_555 1_555
H21 C23 1_555 1_555
H22 C23 1_555 1_555
C24 C23 1_555 1_555
H23 C24 1_555 1_555
H24 C24 1_555 1_555
C25 C24 1_555 1_555
H25 C25 1_555 1_555
H26 C25 1_555 1_555
H27 C25 1_555 1_555
C26 C7 1_555 1_555
H28 C26 1_555 1_555
H29 C26 1_555 1_555
H30 C26 1_555 1_555
N3 C27 1_555 1_555
N4 H31 1_555 1_555
C27 C28 1_555 1_555
C28 H32 1_555 1_555
C29 C28 1_555 1_555
H33 C29 1_555 1_555
C30 C29 1_555 1_555
H34 C30 1_555 1_555
C31 C30 1_555 1_555
H35 C31 1_555 1_555
C32 C27 1_555 1_555
C33 C32 1_555 1_555
C34 N3 1_555 1_555
C35 C34 1_555 1_555
H36 C35 1_555 1_555
C36 C35 1_555 1_555
H37 C36 1_555 1_555
C37 N3 1_555 1_555
H38 C37 1_555 1_555
C38 N4 1_555 1_555
C39 C38 1_555 1_555
C40 C39 1_555 1_555
C41 C40 1_555 1_555
H39 C41 1_555 1_555
C42 C41 1_555 1_555
H40 C42 1_555 1_555
C43 C42 1_555 1_555
H41 C43 1_555 1_555
C44 C43 1_555 1_555
H42 C44 1_555 1_555
C45 N4 1_555 1_555
C46 C39 1_555 1_555
H43 C46 1_555 1_555
H44 C46 1_555 1_555
H45 C46 1_555 1_555
C47 C36 1_555 1_555
H46 C47 1_555 1_555
H47 C47 1_555 1_555
C48 C47 1_555 1_555
H48 C48 1_555 1_555
H49 C48 1_555 1_555
H50 C48 1_555 1_555
C49 C35 1_555 1_555
H51 C49 1_555 1_555
H52 C49 1_555 1_555
C50 C49 1_555 1_555
H53 C50 1_555 1_555
H54 C50 1_555 1_555
C51 C50 1_555 1_555
H55 C51 1_555 1_555
H56 C51 1_555 1_555
H57 C51 1_555 1_555
C52 C33 1_555 1_555
H58 C52 1_555 1_555
H59 C52 1_555 1_555
H60 C52 1_555 1_555
C5 C6 1_555 1_555
C7 C8 1_555 1_555
C10 C11 1_555 1_555
C11 C12 1_555 1_555
C14 C19 1_555 1_555
C18 C19 1_555 1_555
C31 C32 1_555 1_555
C33 C34 1_555 1_555
C36 C37 1_555 1_555
C37 C38 1_555 1_555
C40 C45 1_555 1_555
C44 C45 1_555 1_555

#END
