
#######################################################################
#
#                 Cambridge Crystallographic Data Centre
#                                CCDC 
#
#######################################################################
#
# If this CIF has been generated from an entry in the Cambridge 
# Structural Database, then it will include bibliographic, chemical, 
# crystal, experimental, refinement or atomic coordinate data resulting 
# from the CCDC's data processing and validation procedures.
#
#######################################################################

data_ULALOK
_chemical_formula_moiety         'C27 H42 O3'
_chemical_name_systematic        5\a-Spirostan-3-one
_symmetry_cell_setting           monoclinic
_symmetry_space_group_name_H-M   'C 2'
_symmetry_Int_Tables_number      5
_space_group_name_Hall           'C 2y'
loop_
_symmetry_equiv_pos_site_id
_symmetry_equiv_pos_as_xyz
1 x,y,z
2 -x,y,-z
3 1/2+x,1/2+y,z
4 1/2-x,1/2+y,-z
_cell_length_a                   12.775(7)
_cell_length_b                   6.273(3)
_cell_length_c                   30.613(18)
_cell_angle_alpha                90
_cell_angle_beta                 95.733(11)
_cell_angle_gamma                90
_cell_volume                     2440.98
_cell_formula_units_Z            4
loop_
_atom_site_label
_atom_site_type_symbol
_atom_site_fract_x
_atom_site_fract_y
_atom_site_fract_z
C1 C 0.2096(2) 0.3457(6) 0.34101(9)
H1 H 0.2098 0.1982 0.3516
C2 C 0.1018(2) 0.3773(6) 0.31385(10)
H2 H 0.0966 0.5254 0.3037
C3 C 0.1305(3) 0.4327(6) 0.41039(10)
H3 H 0.1367 0.2805 0.4175
C4 C 0.2210(3) 0.4875(6) 0.38281(10)
C5 C 0.1838(3) 0.2589(6) 0.24389(10)
O1 O -0.0006(2) 0.1860(5) 0.16174(7)
C6 C 0.3236(3) 0.4297(7) 0.41132(10)
H4 H 0.3255 0.2768 0.4160
H5 H 0.3830 0.4671 0.3955
C7 C 0.0956(3) 0.2306(6) 0.27400(10)
H6 H 0.1031 0.0853 0.2857
C8 C 0.3026(3) 0.3618(7) 0.31242(11)
H7 H 0.3095 0.5084 0.3030
H8 H 0.3671 0.3228 0.3300
C9 C 0.2882(3) 0.2170(7) 0.27175(10)
H9 H 0.3458 0.2404 0.2540
H10 H 0.2906 0.0691 0.2811
C10 C 0.1356(3) 0.5532(8) 0.45424(11)
H11 H 0.1200 0.7024 0.4484
H12 H 0.0819 0.4974 0.4714
C11 C 0.2421(3) 0.5362(7) 0.48120(11)
C12 C 0.0740(3) 0.1059(7) 0.13391(11)
C13 C 0.0236(3) 0.4643(8) 0.38460(11)
H13 H -0.0312 0.4223 0.4026
H14 H 0.0140 0.6141 0.3775
C14 C 0.0135(3) 0.3342(8) 0.34252(11)
H15 H 0.0135 0.1838 0.3499
H16 H -0.0533 0.3666 0.3260
O2 O 0.0526(2) -0.1113(5) 0.12406(8)
C15 C 0.1803(3) 0.1174(7) 0.16083(10)
H17 H 0.2085 0.2614 0.1579
C16 C 0.3356(3) 0.5417(8) 0.45604(11)
H18 H 0.3942 0.4771 0.4739
H19 H 0.3537 0.6897 0.4515
C17 C -0.0034(3) 0.2291(8) 0.24170(11)
H20 H -0.0622 0.1652 0.2546
H21 H -0.0225 0.3719 0.2317
C18 C 0.0637(4) 0.2369(9) 0.09177(12)
H22 H 0.1207 0.2003 0.0744
H23 H 0.0699 0.3871 0.0991
C19 C -0.0625(4) -0.0369(12) 0.05674(14)
H24 H -0.0095 -0.0917 0.0386
C20 C -0.0424(4) 0.1972(11) 0.06428(14)
H25 H -0.0988 0.2575 0.0794
H26 H -0.0424 0.2687 0.0362
C21 C 0.1846(3) 0.4843(7) 0.22428(12)
H27 H 0.1782 0.5875 0.2470
H28 H 0.1266 0.4993 0.2020
H29 H 0.2494 0.5069 0.2116
C22 C 0.0308(3) 0.0927(7) 0.20441(10)
H30 H 0.0031 -0.0524 0.2060
C23 C -0.0478(4) -0.1501(10) 0.10129(14)
H31 H -0.1017 -0.1019 0.1192
H32 H -0.0568 -0.3023 0.0968
C24 C 0.2595(3) -0.0389(9) 0.14678(13)
H33 H 0.2370 -0.1813 0.1525
H34 H 0.3266 -0.0127 0.1629
H35 H 0.2654 -0.0225 0.1159
C25 C -0.1733(5) -0.0822(16) 0.03256(19)
H36 H -0.2260 -0.0162 0.0483
H37 H -0.1851 -0.2332 0.0311
H38 H -0.1770 -0.0250 0.0034
O3 O 0.2494(3) 0.5294(5) 0.52103(8)
C26 C 0.1523(3) 0.0903(6) 0.20847(10)
H39 H 0.1770 -0.0496 0.2194
C27 C 0.2233(3) 0.7261(6) 0.37099(12)
H40 H 0.2244 0.8097 0.3973
H41 H 0.1619 0.7612 0.3517
H42 H 0.2852 0.7559 0.3566
loop_
_geom_bond_atom_site_label_1
_geom_bond_atom_site_label_2
_geom_bond_site_symmetry_1
_geom_bond_site_symmetry_2
C1 H1 1_555 1_555
C2 C1 1_555 1_555
H2 C2 1_555 1_555
C3 H3 1_555 1_555
C4 C1 1_555 1_555
C5 C7 1_555 1_555
O1 C12 1_555 1_555
C6 C4 1_555 1_555
H4 C6 1_555 1_555
H5 C6 1_555 1_555
C7 C2 1_555 1_555
H6 C7 1_555 1_555
C8 C1 1_555 1_555
H7 C8 1_555 1_555
H8 C8 1_555 1_555
C9 C5 1_555 1_555
H9 C9 1_555 1_555
H10 C9 1_555 1_555
C10 C3 1_555 1_555
H11 C10 1_555 1_555
H12 C10 1_555 1_555
C11 C10 1_555 1_555
C12 O2 1_555 1_555
C13 C3 1_555 1_555
H13 C13 1_555 1_555
H14 C13 1_555 1_555
C14 C2 1_555 1_555
H15 C14 1_555 1_555
H16 C14 1_555 1_555
O2 C23 1_555 1_555
C15 C12 1_555 1_555
H17 C15 1_555 1_555
C16 C6 1_555 1_555
H18 C16 1_555 1_555
H19 C16 1_555 1_555
C17 C7 1_555 1_555
H20 C17 1_555 1_555
H21 C17 1_555 1_555
C18 C12 1_555 1_555
H22 C18 1_555 1_555
H23 C18 1_555 1_555
C19 H24 1_555 1_555
C20 C18 1_555 1_555
H25 C20 1_555 1_555
H26 C20 1_555 1_555
C21 C5 1_555 1_555
H27 C21 1_555 1_555
H28 C21 1_555 1_555
H29 C21 1_555 1_555
C22 O1 1_555 1_555
H30 C22 1_555 1_555
C23 C19 1_555 1_555
H31 C23 1_555 1_555
H32 C23 1_555 1_555
C24 C15 1_555 1_555
H33 C24 1_555 1_555
H34 C24 1_555 1_555
H35 C24 1_555 1_555
C25 C19 1_555 1_555
H36 C25 1_555 1_555
H37 C25 1_555 1_555
H38 C25 1_555 1_555
O3 C11 1_555 1_555
C26 C5 1_555 1_555
H39 C26 1_555 1_555
C27 C4 1_555 1_555
H40 C27 1_555 1_555
H41 C27 1_555 1_555
H42 C27 1_555 1_555
C3 C4 1_555 1_555
C8 C9 1_555 1_555
C11 C16 1_555 1_555
C13 C14 1_555 1_555
C15 C26 1_555 1_555
C17 C22 1_555 1_555
C19 C20 1_555 1_555
C22 C26 1_555 1_555

#END
