
#######################################################################
#
#                 Cambridge Crystallographic Data Centre
#                                CCDC 
#
#######################################################################
#
# If this CIF has been generated from an entry in the Cambridge 
# Structural Database, then it will include bibliographic, chemical, 
# crystal, experimental, refinement or atomic coordinate data resulting 
# from the CCDC's data processing and validation procedures.
#
#######################################################################

data_ULAPII
_chemical_formula_moiety         'C2 H1 N10 O2 1-,C2 H7 N6 1+'
_chemical_name_systematic        
'4-amino-3-hydrazino-4H-1,2,4-triazol-1-ium 5-((1-hydroxy-1H-tetrazol-5-yl)diazenyl)-1H-tetrazol-1-olate'
_symmetry_cell_setting           triclinic
_symmetry_space_group_name_H-M   'P -1'
_symmetry_Int_Tables_number      2
_space_group_name_Hall           '-P 1'
loop_
_symmetry_equiv_pos_site_id
_symmetry_equiv_pos_as_xyz
1 x,y,z
2 -x,-y,-z
_cell_length_a                   7.9720(6)
_cell_length_b                   8.1923(8)
_cell_length_c                   10.2690(9)
_cell_angle_alpha                90.3780(10)
_cell_angle_beta                 110.218(2)
_cell_angle_gamma                115.520(2)
_cell_volume                     558.279
_exptl_crystal_colour            red
_exptl_crystal_description       block
_cell_formula_units_Z            2
loop_
_atom_site_label
_atom_site_type_symbol
_atom_site_fract_x
_atom_site_fract_y
_atom_site_fract_z
N1 N 0.4272(8) 0.2743(7) 0.7360(6)
N2 N 0.6197(8) 0.3428(8) 0.8073(6)
N3 N 0.6782(8) 0.5113(8) 0.8601(7)
N4 N 0.5246(8) 0.5485(8) 0.8268(6)
N5 N -0.0993(7) 0.5873(7) 0.6437(6)
N6 N -0.2879(8) 0.5264(8) 0.5644(6)
N7 N -0.3466(8) 0.3588(8) 0.5111(6)
N8 N -0.2000(8) 0.3142(8) 0.5520(6)
N9 N 0.1759(7) 0.3607(7) 0.6845(6)
N10 N 0.1464(8) 0.4932(7) 0.7052(6)
O1 O 0.3195(7) 0.1100(6) 0.6687(5)
O2 O 0.0082(7) 0.7488(7) 0.7169(5)
H1 H -0.0597 0.8037 0.7028
C1 C 0.3690(9) 0.3973(9) 0.7474(7)
C2 C -0.0450(9) 0.4591(8) 0.6378(7)
N11 N 0.9575(8) 0.1953(8) 0.9816(6)
H2 H 1.0610 0.2782 1.0493
N12 N 0.9605(8) 0.1404(8) 0.8588(6)
N13 N 0.6660(7) -0.0059(7) 0.8660(5)
N14 N 0.4645(7) -0.1142(7) 0.8309(6)
H3 H 0.3963 -0.0861 0.7535
H4 H 0.4360 -0.2319 0.8141
N15 N 0.7058(8) -0.0661(7) 0.6619(5)
H5 H 0.5790 -0.1351 0.6154
N16 N 0.8474(8) -0.0373(7) 0.6052(5)
H6 H 0.9391 0.0806 0.6307
H7 H 0.7866 -0.0659 0.5115
C3 C 0.7787(9) 0.0195(9) 0.7918(7)
C4 C 0.7842(10) 0.1103(9) 0.9857(8)
H8 H 0.7479 0.1272 1.0597
loop_
_geom_bond_atom_site_label_1
_geom_bond_atom_site_label_2
_geom_bond_site_symmetry_1
_geom_bond_site_symmetry_2
N1 N2 1_555 1_555
N2 N3 1_555 1_555
N3 N4 1_555 1_555
N4 C1 1_555 1_555
N5 N6 1_555 1_555
N6 N7 1_555 1_555
N7 N8 1_555 1_555
N8 C2 1_555 1_555
N9 N10 1_555 1_555
N10 C2 1_555 1_555
O1 N1 1_555 1_555
O2 N5 1_555 1_555
H1 O2 1_555 1_555
C1 N1 1_555 1_555
C2 N5 1_555 1_555
N11 H2 1_555 1_555
N12 N11 1_555 1_555
N13 N14 1_555 1_555
N14 H3 1_555 1_555
H4 N14 1_555 1_555
N15 H5 1_555 1_555
N16 N15 1_555 1_555
H6 N16 1_555 1_555
H7 N16 1_555 1_555
C3 N12 1_555 1_555
C4 N11 1_555 1_555
H8 C4 1_555 1_555
N9 C1 1_555 1_555
N13 C3 1_555 1_555
N13 C4 1_555 1_555
N15 C3 1_555 1_555

#END
