
#######################################################################
#
#                 Cambridge Crystallographic Data Centre
#                                CCDC 
#
#######################################################################
#
# If this CIF has been generated from an entry in the Cambridge 
# Structural Database, then it will include bibliographic, chemical, 
# crystal, experimental, refinement or atomic coordinate data resulting 
# from the CCDC's data processing and validation procedures.
#
#######################################################################

data_ULAPAA
_chemical_formula_moiety         '2(C6 H2 N3 O7 1-),C2 H8 N6 2+,H2 O1'
_chemical_name_systematic        
'4-amino-3-(diazan-2-ium-1-yl)-4H-1,2,4-triazol-1-ium bis(2,4,6-trinitrophenolate) monohydrate'
_symmetry_cell_setting           triclinic
_symmetry_space_group_name_H-M   'P -1'
_symmetry_Int_Tables_number      2
_space_group_name_Hall           '-P 1'
loop_
_symmetry_equiv_pos_site_id
_symmetry_equiv_pos_as_xyz
1 x,y,z
2 -x,-y,-z
_cell_length_a                   8.0048(18)
_cell_length_b                   11.527(2)
_cell_length_c                   13.178(2)
_cell_angle_alpha                69.469(9)
_cell_angle_beta                 73.214(9)
_cell_angle_gamma                80.053(10)
_cell_volume                     1086.73
_exptl_crystal_colour            yellow
_exptl_crystal_description       Block
_cell_formula_units_Z            2
loop_
_atom_site_label
_atom_site_type_symbol
_atom_site_fract_x
_atom_site_fract_y
_atom_site_fract_z
O1 O 0.0406(2) 0.19300(15) 0.46234(15)
O2 O 0.3947(3) 0.16199(16) 0.46241(18)
O3 O 0.4140(3) 0.28047(19) 0.55370(19)
O4 O 0.3018(3) 0.71518(18) 0.3443(2)
O5 O 0.0705(3) 0.77043(17) 0.2794(2)
O6 O -0.3281(3) 0.46371(19) 0.36793(19)
O7 O -0.2144(3) 0.28646(18) 0.3476(2)
N1 N 0.3507(3) 0.25717(18) 0.48890(18)
N2 N 0.1730(3) 0.69128(18) 0.32512(18)
N3 N -0.2041(3) 0.38354(19) 0.36368(19)
C1 C 0.0742(3) 0.3057(2) 0.42593(19)
C2 C 0.2241(3) 0.3483(2) 0.4385(2)
C3 C 0.2552(3) 0.4712(2) 0.4089(2)
H1 H 0.3544 0.4935 0.4217
C4 C 0.1376(3) 0.5615(2) 0.3601(2)
C5 C -0.0112(3) 0.5315(2) 0.3442(2)
H2 H -0.0912 0.5949 0.3119
C6 C -0.0410(3) 0.4080(2) 0.3762(2)
O8 O 0.4801(3) 0.82877(16) 0.03421(16)
O9 O 0.1539(3) 0.87946(19) -0.0014(2)
O10 O 0.0945(3) 0.7421(2) -0.0599(2)
O11 O 0.1921(3) 0.31536(19) 0.1478(2)
O12 O 0.4311(3) 0.25361(18) 0.2040(2)
O13 O 0.8367(3) 0.55164(19) 0.12729(19)
O14 O 0.7258(3) 0.7277(2) 0.1520(2)
N4 N 0.1721(3) 0.7735(2) -0.0063(2)
N5 N 0.3265(3) 0.33663(19) 0.16376(18)
N6 N 0.7155(3) 0.6333(2) 0.1325(2)
C7 C 0.4399(3) 0.7186(2) 0.0668(2)
C8 C 0.2897(3) 0.6800(2) 0.0514(2)
C9 C 0.2525(3) 0.5584(2) 0.0816(2)
H3 H 0.1518 0.5391 0.0681
C10 C 0.3647(3) 0.4644(2) 0.1321(2)
C11 C 0.5153(3) 0.4906(2) 0.1484(2)
H4 H 0.5934 0.4251 0.1803
C12 C 0.5510(3) 0.6126(2) 0.1180(2)
O15 O 0.7062(3) 0.08047(19) 0.28609(17)
H5 H 0.653(5) 0.035(3) 0.274(3)
H6 H 0.657(6) 0.145(4) 0.275(4)
N7 N 0.0834(3) 0.02079(18) 0.32338(17)
N8 N 0.0682(3) 0.05281(19) 0.21592(18)
N9 N 0.3370(3) -0.00520(18) 0.20671(17)
N10 N 0.5202(3) -0.0287(2) 0.17316(19)
N11 N 0.3372(3) -0.04709(18) 0.39752(17)
N12 N 0.2212(3) -0.04141(18) 0.50185(17)
C13 C 0.2493(3) -0.0136(2) 0.31441(19)
C14 C 0.2172(4) 0.0371(2) 0.1462(2)
H7 H 0.2368 0.0525 0.0681
H8 H -0.018(5) 0.081(3) 0.201(3)
H9 H 0.554(4) 0.027(3) 0.112(3)
H10 H 0.539(4) -0.099(3) 0.160(3)
H11 H 0.402(5) -0.113(3) 0.403(3)
H12 H 0.143(4) -0.095(3) 0.522(2)
H13 H 0.291(5) -0.061(3) 0.564(3)
H14 H 0.160(5) 0.037(3) 0.492(3)
loop_
_geom_bond_atom_site_label_1
_geom_bond_atom_site_label_2
_geom_bond_site_symmetry_1
_geom_bond_site_symmetry_2
O1 C1 1_555 1_555
O2 N1 1_555 1_555
O3 N1 1_555 1_555
O4 N2 1_555 1_555
O5 N2 1_555 1_555
O6 N3 1_555 1_555
O7 N3 1_555 1_555
N1 C2 1_555 1_555
N2 C4 1_555 1_555
N3 C6 1_555 1_555
C1 C2 1_555 1_555
C2 C3 1_555 1_555
C3 H1 1_555 1_555
C4 C3 1_555 1_555
C5 C4 1_555 1_555
H2 C5 1_555 1_555
C6 C1 1_555 1_555
O8 C7 1_555 1_555
O9 N4 1_555 1_555
O10 N4 1_555 1_555
O11 N5 1_555 1_555
O12 N5 1_555 1_555
O13 N6 1_555 1_555
O14 N6 1_555 1_555
N4 C8 1_555 1_555
N5 C10 1_555 1_555
N6 C12 1_555 1_555
C7 C8 1_555 1_555
C8 C9 1_555 1_555
C9 H3 1_555 1_555
C10 C9 1_555 1_555
C11 C10 1_555 1_555
H4 C11 1_555 1_555
C12 C7 1_555 1_555
O15 H5 1_555 1_555
H6 O15 1_555 1_555
N7 N8 1_555 1_555
N8 C14 1_555 1_555
N9 N10 1_555 1_555
N10 H9 1_555 1_555
N11 N12 1_555 1_555
N12 H12 1_555 1_555
C13 N7 1_555 1_555
C14 N9 1_555 1_555
H7 C14 1_555 1_555
H8 N8 1_555 1_555
H10 N10 1_555 1_555
H11 N11 1_555 1_555
H13 N12 1_555 1_555
H14 N12 1_555 1_555
C5 C6 1_555 1_555
C11 C12 1_555 1_555
N9 C13 1_555 1_555
N11 C13 1_555 1_555

#END
