
#######################################################################
#
#                 Cambridge Crystallographic Data Centre
#                                CCDC 
#
#######################################################################
#
# If this CIF has been generated from an entry in the Cambridge 
# Structural Database, then it will include bibliographic, chemical, 
# crystal, experimental, refinement or atomic coordinate data resulting 
# from the CCDC's data processing and validation procedures.
#
#######################################################################

data_ULAQED
_chemical_formula_moiety         'C16 H12 N2'
_chemical_name_systematic        2,5-Diphenylpyrimidine
_symmetry_cell_setting           monoclinic
_symmetry_space_group_name_H-M   'I 2/a'
_symmetry_Int_Tables_number      15
_space_group_name_Hall           '-I 2ya'
loop_
_symmetry_equiv_pos_site_id
_symmetry_equiv_pos_as_xyz
1 x,y,z
2 1/2+x,1/2+y,1/2+z
3 1/2-x,y,-z
4 -x,1/2+y,1/2-z
5 -x,-y,-z
6 1/2-x,1/2-y,1/2-z
7 1/2+x,-y,z
8 x,1/2-y,1/2+z
_cell_length_a                   7.444(2)
_cell_length_b                   5.731(2)
_cell_length_c                   26.932(8)
_cell_angle_alpha                90
_cell_angle_beta                 92.82(1)
_cell_angle_gamma                90
_cell_volume                     1147.57
_exptl_crystal_colour            colorless
_exptl_crystal_description       plate
_chemical_melting_point          458.0-458.5K
_cell_formula_units_Z            4
loop_
_atom_site_label
_atom_site_type_symbol
_atom_site_fract_x
_atom_site_fract_y
_atom_site_fract_z
N1 N 0.2440(3) 0.0285(4) 0.02919(7)
C1 C 0.2102(3) 0.0299(4) 0.01828(9)
H1 H 0.241(4) 0.590(5) 0.0383(10)
C2 C 0.20376(14) 0.23514(18) 0.04795(4)
N2 N 0.2043(3) 0.4415(4) 0.02592(8)
C3 C 0.2505(3) 0.4405(4) 0.02149(10)
H2 H 0.183(4) -0.122(5) 0.0350(9)
C4 C 0.15481(14) 0.23892(18) 0.10052(4)
C5 C 0.20313(14) 0.05514(18) 0.13281(4)
H3 H 0.272(2) -0.076(3) 0.1211(5)
C6 C 0.16072(15) 0.0650(2) 0.18251(4)
H4 H 0.198(2) -0.063(3) 0.2045(5)
C7 C 0.06849(15) 0.2561(2) 0.20051(4)
H5 H 0.038(2) 0.263(3) 0.2354(6)
C8 C 0.01845(15) 0.4380(2) 0.16859(4)
H6 H -0.048(2) 0.572(3) 0.1798(6)
C9 C 0.06219(15) 0.43064(19) 0.11905(4)
H7 H 0.026(2) 0.557(3) 0.0964(5)
N1B N 0.2560(3) 0.0285(4) -0.02919(7)
C1B C 0.2898(3) 0.0299(4) -0.01828(9)
C2B C 0.29624(14) 0.23514(18) -0.04795(4)
N2B N 0.2957(3) 0.4415(4) -0.02592(8)
H1B H 0.259(4) 0.590(5) -0.0383(10)
C3B C 0.2495(3) 0.4405(4) -0.02149(10)
C4B C 0.34519(14) 0.23892(18) -0.10052(4)
C5B C 0.29687(14) 0.05514(18) -0.13281(4)
H3B H 0.228(2) -0.076(3) -0.1211(5)
C6B C 0.33928(15) 0.0650(2) -0.18251(4)
H4B H 0.302(2) -0.063(3) -0.2045(5)
C7B C 0.43151(15) 0.2561(2) -0.20051(4)
H5B H 0.462(2) 0.263(3) -0.2354(6)
C8B C 0.48155(15) 0.4380(2) -0.16859(4)
H6B H 0.548(2) 0.572(3) -0.1798(6)
C9B C 0.43781(15) 0.43064(19) -0.11905(4)
H7B H 0.474(2) 0.557(3) -0.0964(5)
H2B H 0.317(4) -0.122(5) -0.0350(9)
loop_
_geom_bond_atom_site_label_1
_geom_bond_atom_site_label_2
_geom_bond_site_symmetry_1
_geom_bond_site_symmetry_2
N1 C1 1_555 1_555
C1 C2 1_555 1_555
H1 N2 1_555 1_555
C2 N1 1_555 1_555
N2 C2 1_555 1_555
C3 H1 1_555 1_555
H2 N1 1_555 1_555
C4 C2 1_555 1_555
C5 C4 1_555 1_555
H3 C5 1_555 1_555
C6 C5 1_555 1_555
H4 C6 1_555 1_555
C7 C6 1_555 1_555
H5 C7 1_555 1_555
C8 C7 1_555 1_555
H6 C8 1_555 1_555
C9 C4 1_555 1_555
H7 C9 1_555 1_555
N1B N1 1_555 1_555
C1B N1 1_555 1_555
C2B N1B 1_555 1_555
N2B N2 1_555 1_555
H1B N2B 1_555 1_555
C3B N2 1_555 1_555
C4B C2B 1_555 1_555
C5B C4B 1_555 1_555
H3B C5B 1_555 1_555
C6B C5B 1_555 1_555
H4B C6B 1_555 1_555
C7B C6B 1_555 1_555
H5B C7B 1_555 1_555
C8B C7B 1_555 1_555
H6B C8B 1_555 1_555
C9B C4B 1_555 1_555
H7B C9B 1_555 1_555
H2B N1B 1_555 1_555
C1 H2 1_555 1_555
C1 N1B 1_555 1_555
C1 C1B 1_555 1_555
C2 C3 1_555 1_555
N2 C3 1_555 1_555
C3 N2B 1_555 1_555
C3 C3B 1_555 1_555
C8 C9 1_555 1_555
N1B C1B 1_555 1_555
C1B C2B 1_555 1_555
C1B H2B 1_555 1_555
C2B N2B 1_555 1_555
C2B C3B 1_555 1_555
N2B C3B 1_555 1_555
H1B C3B 1_555 1_555
C8B C9B 1_555 1_555

#END
