
#######################################################################
#
#                 Cambridge Crystallographic Data Centre
#                                CCDC 
#
#######################################################################
#
# If this CIF has been generated from an entry in the Cambridge 
# Structural Database, then it will include bibliographic, chemical, 
# crystal, experimental, refinement or atomic coordinate data resulting 
# from the CCDC's data processing and validation procedures.
#
#######################################################################

data_ULAQAZ
_chemical_formula_moiety         'C10 H7 Br1 N2'
_chemical_name_systematic        5-Bromo-2-phenylpyrimidine
_symmetry_cell_setting           monoclinic
_symmetry_space_group_name_H-M   'P 21/c'
_symmetry_Int_Tables_number      14
_space_group_name_Hall           '-P 2ybc'
loop_
_symmetry_equiv_pos_site_id
_symmetry_equiv_pos_as_xyz
1 x,y,z
2 -x,1/2+y,1/2-z
3 -x,-y,-z
4 x,1/2-y,1/2+z
_cell_length_a                   6.271(1)
_cell_length_b                   21.359(3)
_cell_length_c                   6.932(1)
_cell_angle_alpha                90
_cell_angle_beta                 108.27(1)
_cell_angle_gamma                90
_cell_volume                     881.683
_exptl_crystal_colour            colorless
_exptl_crystal_description       plate
_chemical_melting_point          377.0-377.5K
_cell_formula_units_Z            4
loop_
_atom_site_label
_atom_site_type_symbol
_atom_site_fract_x
_atom_site_fract_y
_atom_site_fract_z
Br1 Br 0.44701(4) 0.324565(10) 0.66886(4)
N1 N 0.5500(3) 0.51320(9) 0.7701(3)
C1 C 0.7619(3) 0.51852(9) 0.7635(3)
N2 N 0.8861(3) 0.47109(8) 0.7279(3)
C2 C 0.7922(4) 0.41454(10) 0.7006(3)
H1 H 0.8744 0.3822 0.6794
C3 C 0.5766(4) 0.40488(10) 0.7075(3)
C4 C 0.4580(4) 0.45632(10) 0.7418(4)
H2 H 0.3070 0.4560 0.7502
C5 C 0.8636(3) 0.58173(9) 0.7976(3)
C6 C 0.7715(4) 0.62791(10) 0.8901(3)
H3 H 0.6524 0.6185 0.9373
C7 C 0.8700(4) 0.68687(10) 0.9282(4)
H4 H 0.8144 0.7122 0.9954
C8 C 1.0568(4) 0.70084(11) 0.8689(4)
H5 H 1.1112 0.7363 0.8879
C9 C 1.1473(4) 0.65495(12) 0.7742(4)
H6 H 1.2820 0.6651 0.7307
C10 C 1.0537(4) 0.59555(10) 0.7414(3)
H7 H 1.1185 0.5658 0.6800
loop_
_geom_bond_atom_site_label_1
_geom_bond_atom_site_label_2
_geom_bond_site_symmetry_1
_geom_bond_site_symmetry_2
Br1 C3 1_555 1_555
N1 C1 1_555 1_555
C1 N2 1_555 1_555
N2 C2 1_555 1_555
C2 H1 1_555 1_555
C3 C2 1_555 1_555
C4 N1 1_555 1_555
H2 C4 1_555 1_555
C5 C1 1_555 1_555
C6 C5 1_555 1_555
H3 C6 1_555 1_555
C7 C6 1_555 1_555
H4 C7 1_555 1_555
C8 C7 1_555 1_555
H5 C8 1_555 1_555
C9 C8 1_555 1_555
H6 C9 1_555 1_555
C10 C5 1_555 1_555
H7 C10 1_555 1_555
C3 C4 1_555 1_555
C9 C10 1_555 1_555

#END
