
#######################################################################
#
#                 Cambridge Crystallographic Data Centre
#                                CCDC 
#
#######################################################################
#
# If this CIF has been generated from an entry in the Cambridge 
# Structural Database, then it will include bibliographic, chemical, 
# crystal, experimental, refinement or atomic coordinate data resulting 
# from the CCDC's data processing and validation procedures.
#
#######################################################################

data_ULAZOY
_chemical_formula_moiety         'C30 H26 N2 O4'
_chemical_name_systematic        
"Ethyl 2-(1'-methyl-2'-oxo-1',2'-dihydro-1H,3'H-3,3'-biindol-3'-yl)-3-oxo-5-phenylpent-4-enoate"
_symmetry_cell_setting           triclinic
_symmetry_space_group_name_H-M   'P -1'
_symmetry_Int_Tables_number      2
_space_group_name_Hall           '-P 1'
loop_
_symmetry_equiv_pos_site_id
_symmetry_equiv_pos_as_xyz
1 x,y,z
2 -x,-y,-z
_cell_length_a                   7.925(9)
_cell_length_b                   10.251(11)
_cell_length_c                   31.83(3)
_cell_angle_alpha                92.971(17)
_cell_angle_beta                 90.325(17)
_cell_angle_gamma                106.258(17)
_cell_volume                     2478.55
_exptl_crystal_colour            colorless
_exptl_crystal_description       block
_cell_formula_units_Z            4
loop_
_atom_site_label
_atom_site_type_symbol
_atom_site_fract_x
_atom_site_fract_y
_atom_site_fract_z
O1 O 0.1312(6) 1.3012(5) 0.32127(16)
O2 O 0.3303(7) 1.0207(6) 0.43559(17)
O3 O -0.0702(6) 1.0267(5) 0.37036(17)
O4 O -0.0093(7) 1.0872(5) 0.43907(17)
N1 N 0.1176(7) 1.1007(7) 0.28445(19)
N2 N 0.7593(8) 1.2698(7) 0.33246(19)
H1 H 0.8626 1.2581 0.3266
C1 C 0.1676(9) 1.1911(8) 0.3167(2)
C2 C 0.2807(9) 1.1412(7) 0.3478(2)
C3 C 0.2502(9) 0.9951(8) 0.3308(2)
C4 C 0.3011(9) 0.8855(8) 0.3440(2)
H2 H 0.3687 0.8948 0.3693
C5 C 0.2552(10) 0.7627(9) 0.3209(3)
H3 H 0.2838 0.6858 0.3310
C6 C 0.1666(10) 0.7533(9) 0.2826(3)
H4 H 0.1396 0.6705 0.2658
C7 C 0.1172(9) 0.8627(9) 0.2687(3)
H5 H 0.0547 0.8556 0.2427
C8 C 0.1595(9) 0.9805(8) 0.2928(2)
C9 C 0.0182(11) 1.1186(9) 0.2490(3)
H6 H -0.0946 1.0479 0.2475
H7 H 0.0834 1.1119 0.2233
H8 H -0.0028 1.2084 0.2518
C10 C 0.4713(10) 1.2215(8) 0.3432(2)
C11 C 0.5467(9) 1.3653(8) 0.3486(2)
C12 C 0.4864(10) 1.4788(8) 0.3596(2)
H9 H 0.3663 1.4664 0.3661
C13 C 0.6005(11) 1.6081(10) 0.3608(3)
H10 H 0.5581 1.6843 0.3678
C14 C 0.7794(11) 1.6282(9) 0.3518(2)
H11 H 0.8561 1.7181 0.3527
C15 C 0.8456(11) 1.5199(10) 0.3415(3)
H12 H 0.9658 1.5327 0.3350
C16 C 0.7275(9) 1.3917(9) 0.3412(2)
C17 C 0.6071(9) 1.1693(9) 0.3341(2)
H13 H 0.5968 1.0751 0.3295
C18 C 0.2193(9) 1.1637(7) 0.3924(2)
H14 H 0.2243 1.2622 0.3961
C19 C 0.3418(10) 1.1364(8) 0.4271(2)
C20 C 0.4684(10) 1.2560(8) 0.4480(2)
H15 H 0.4849 1.3440 0.4377
C21 C 0.5595(9) 1.2388(8) 0.4815(2)
H16 H 0.5429 1.1477 0.4892
C22 C 0.6815(10) 1.3443(8) 0.5076(2)
C23 C 0.7549(10) 1.3052(8) 0.5432(2)
H17 H 0.7222 1.2119 0.5494
C24 C 0.8748(11) 1.3993(9) 0.5697(3)
H18 H 0.9239 1.3702 0.5936
C25 C 0.9218(10) 1.5352(8) 0.5610(2)
H19 H 1.0046 1.6002 0.5787
C26 C 0.8463(10) 1.5768(8) 0.5258(3)
H20 H 0.8765 1.6705 0.5202
C27 C 0.7294(10) 1.4835(8) 0.4995(2)
H21 H 0.6807 1.5130 0.4757
C28 C 0.0302(10) 1.0839(8) 0.3991(3)
C29 C -0.1850(11) 1.0011(8) 0.4493(3)
H22 H -0.2710 1.0062 0.4273
H23 H -0.2221 1.0351 0.4764
C30 C -0.1827(12) 0.8544(10) 0.4525(3)
H24 H -0.1476 0.8205 0.4255
H25 H -0.3003 0.7986 0.4594
H26 H -0.0986 0.8494 0.4746
O5 O -0.3273(6) 0.8710(6) 0.17664(16)
O6 O -0.1547(8) 0.5440(6) 0.06288(17)
O7 O -0.5359(6) 0.5747(6) 0.12982(16)
O8 O -0.4999(6) 0.6083(5) 0.06113(16)
N3 N -0.3218(8) 0.6904(7) 0.2154(2)
N4 N 0.2998(8) 0.8427(7) 0.16845(19)
H27 H 0.4049 0.8357 0.1749
C31 C -0.2855(9) 0.7671(9) 0.1816(2)
C32 C -0.1803(9) 0.7001(7) 0.1505(2)
C33 C -0.2032(9) 0.5647(8) 0.1691(2)
C34 C -0.1586(10) 0.4510(8) 0.1558(2)
H28 H -0.1051 0.4466 0.1293
C35 C -0.1921(9) 0.3407(8) 0.1815(3)
H29 H -0.1580 0.2622 0.1725
C36 C -0.2734(11) 0.3430(9) 0.2195(3)
H30 H -0.3003 0.2649 0.2357
C37 C -0.3162(11) 0.4596(10) 0.2340(3)
H31 H -0.3665 0.4652 0.2609
C38 C -0.2832(10) 0.5661(9) 0.2082(2)
C39 C -0.4204(12) 0.7226(10) 0.2512(3)
H32 H -0.5232 0.6453 0.2553
H33 H -0.4591 0.8030 0.2457
H34 H -0.3451 0.7412 0.2766
C40 C 0.0079(9) 0.7854(8) 0.1543(2)
C41 C 0.0825(10) 0.9313(9) 0.1490(3)
C42 C 0.0160(10) 1.0340(8) 0.1367(2)
H35 H -0.1045 1.0163 0.1289
C43 C 0.1297(10) 1.1641(8) 0.1359(2)
H36 H 0.0876 1.2353 0.1261
C44 C 0.3067(11) 1.1928(9) 0.1495(3)
H37 H 0.3794 1.2841 0.1510
C45 C 0.3741(11) 1.0904(9) 0.1603(3)
H38 H 0.4944 1.1079 0.1683
C46 C 0.2627(10) 0.9617(9) 0.1594(3)
C47 C 0.1501(10) 0.7373(9) 0.1660(2)
H39 H 0.1429 0.6455 0.1713
C48 C -0.2537(8) 0.7030(8) 0.1056(2)
H40 H -0.2507 0.7996 0.1014
C49 C -0.1421(10) 0.6629(9) 0.0720(2)
C50 C -0.0187(9) 0.7753(9) 0.0501(2)
H41 H -0.0006 0.8671 0.0603
C51 C 0.0659(9) 0.7474(8) 0.0164(2)
H42 H 0.0460 0.6535 0.0086
C52 C 0.1830(10) 0.8399(9) -0.0099(3)
C53 C 0.2326(10) 0.9818(8) -0.0014(3)
H43 H 0.1860 1.0191 0.0223
C54 C 0.3474(9) 1.0672(9) -0.0269(2)
H44 H 0.3818 1.1627 -0.0207
C55 C 0.4115(10) 1.0130(10) -0.0613(3)
H45 H 0.4909 1.0718 -0.0790
C56 C 0.3639(11) 0.8770(10) -0.0707(3)
H46 H 0.4063 0.8409 -0.0952
C57 C 0.2522(10) 0.7908(10) -0.0440(3)
H47 H 0.2238 0.6952 -0.0498
C58 C -0.4466(10) 0.6192(8) 0.1013(2)
C59 C -0.6752(10) 0.5178(9) 0.0514(3)
H48 H -0.7563 0.5280 0.0741
H49 H -0.7203 0.5426 0.0248
C60 C -0.6687(12) 0.3774(9) 0.0473(3)
H50 H -0.5873 0.3678 0.0251
H51 H -0.7863 0.3176 0.0401
H52 H -0.6281 0.3521 0.0740
loop_
_geom_bond_atom_site_label_1
_geom_bond_atom_site_label_2
_geom_bond_site_symmetry_1
_geom_bond_site_symmetry_2
O1 C1 1_555 1_555
O2 C19 1_555 1_555
O3 C28 1_555 1_555
O4 C28 1_555 1_555
N1 C1 1_555 1_555
N2 H1 1_555 1_555
C1 C2 1_555 1_555
C2 C3 1_555 1_555
C3 C4 1_555 1_555
C4 H2 1_555 1_555
C5 C4 1_555 1_555
H3 C5 1_555 1_555
C6 C5 1_555 1_555
H4 C6 1_555 1_555
C7 C6 1_555 1_555
H5 C7 1_555 1_555
C8 N1 1_555 1_555
C9 N1 1_555 1_555
H6 C9 1_555 1_555
H7 C9 1_555 1_555
H8 C9 1_555 1_555
C10 C2 1_555 1_555
C11 C10 1_555 1_555
C12 C11 1_555 1_555
H9 C12 1_555 1_555
C13 C12 1_555 1_555
H10 C13 1_555 1_555
C14 C13 1_555 1_555
H11 C14 1_555 1_555
C15 C14 1_555 1_555
H12 C15 1_555 1_555
C16 N2 1_555 1_555
C17 N2 1_555 1_555
H13 C17 1_555 1_555
C18 C2 1_555 1_555
H14 C18 1_555 1_555
C19 C18 1_555 1_555
C20 C19 1_555 1_555
H15 C20 1_555 1_555
C21 C20 1_555 1_555
H16 C21 1_555 1_555
C22 C21 1_555 1_555
C23 C22 1_555 1_555
H17 C23 1_555 1_555
C24 C23 1_555 1_555
H18 C24 1_555 1_555
C25 C24 1_555 1_555
H19 C25 1_555 1_555
C26 C25 1_555 1_555
H20 C26 1_555 1_555
C27 C22 1_555 1_555
H21 C27 1_555 1_555
C28 C18 1_555 1_555
C29 O4 1_555 1_555
H22 C29 1_555 1_555
H23 C29 1_555 1_555
C30 C29 1_555 1_555
H24 C30 1_555 1_555
H25 C30 1_555 1_555
H26 C30 1_555 1_555
O5 C31 1_555 1_555
O6 C49 1_555 1_555
O7 C58 1_555 1_555
O8 C58 1_555 1_555
N3 C31 1_555 1_555
N4 H27 1_555 1_555
C31 C32 1_555 1_555
C32 C33 1_555 1_555
C33 C34 1_555 1_555
C34 H28 1_555 1_555
C35 C34 1_555 1_555
H29 C35 1_555 1_555
C36 C35 1_555 1_555
H30 C36 1_555 1_555
C37 C36 1_555 1_555
H31 C37 1_555 1_555
C38 N3 1_555 1_555
C39 N3 1_555 1_555
H32 C39 1_555 1_555
H33 C39 1_555 1_555
H34 C39 1_555 1_555
C40 C32 1_555 1_555
C41 C40 1_555 1_555
C42 C41 1_555 1_555
H35 C42 1_555 1_555
C43 C42 1_555 1_555
H36 C43 1_555 1_555
C44 C43 1_555 1_555
H37 C44 1_555 1_555
C45 C44 1_555 1_555
H38 C45 1_555 1_555
C46 N4 1_555 1_555
C47 N4 1_555 1_555
H39 C47 1_555 1_555
C48 C32 1_555 1_555
H40 C48 1_555 1_555
C49 C48 1_555 1_555
C50 C49 1_555 1_555
H41 C50 1_555 1_555
C51 C50 1_555 1_555
H42 C51 1_555 1_555
C52 C51 1_555 1_555
C53 C52 1_555 1_555
H43 C53 1_555 1_555
C54 C53 1_555 1_555
H44 C54 1_555 1_555
C55 C54 1_555 1_555
H45 C55 1_555 1_555
C56 C55 1_555 1_555
H46 C56 1_555 1_555
C57 C52 1_555 1_555
H47 C57 1_555 1_555
C58 C48 1_555 1_555
C59 O8 1_555 1_555
H48 C59 1_555 1_555
H49 C59 1_555 1_555
C60 C59 1_555 1_555
H50 C60 1_555 1_555
H51 C60 1_555 1_555
H52 C60 1_555 1_555
C3 C8 1_555 1_555
C7 C8 1_555 1_555
C10 C17 1_555 1_555
C11 C16 1_555 1_555
C15 C16 1_555 1_555
C26 C27 1_555 1_555
C33 C38 1_555 1_555
C37 C38 1_555 1_555
C40 C47 1_555 1_555
C41 C46 1_555 1_555
C45 C46 1_555 1_555
C56 C57 1_555 1_555

#END
