
#######################################################################
#
#                 Cambridge Crystallographic Data Centre
#                                CCDC 
#
#######################################################################
#
# If this CIF has been generated from an entry in the Cambridge 
# Structural Database, then it will include bibliographic, chemical, 
# crystal, experimental, refinement or atomic coordinate data resulting 
# from the CCDC's data processing and validation procedures.
#
#######################################################################

data_ULAZUD
_chemical_name_common            'Adamantan-1-aminium p-toluenesulfonate'
_chemical_formula_moiety         'C10 H18 N1 1+,C7 H7 O3 S1 1-'
_chemical_name_systematic        'Adamantan-1-aminium 4-methylbenzenesulfonate'
_symmetry_cell_setting           triclinic
_symmetry_space_group_name_H-M   'P -1'
_symmetry_Int_Tables_number      2
_space_group_name_Hall           '-P 1'
loop_
_symmetry_equiv_pos_site_id
_symmetry_equiv_pos_as_xyz
1 x,y,z
2 -x,-y,-z
_cell_length_a                   6.464(2)
_cell_length_b                   11.589(4)
_cell_length_c                   22.562(8)
_cell_angle_alpha                92.975(4)
_cell_angle_beta                 94.034(5)
_cell_angle_gamma                96.408(5)
_cell_volume                     1672.38
_exptl_crystal_colour            colorless
_exptl_crystal_description       prism
_chemical_melting_point          99deg.C
_cell_formula_units_Z            4
loop_
_atom_site_label
_atom_site_type_symbol
_atom_site_fract_x
_atom_site_fract_y
_atom_site_fract_z
S1 S 0.77493(9) 0.69083(5) 0.55264(3)
O1 O 0.6491(3) 0.69428(16) 0.60347(7)
O2 O 0.7429(4) 0.57650(17) 0.52171(8)
O3 O 0.9931(3) 0.73164(18) 0.56771(9)
C1 C 0.4410(6) 1.0064(3) 0.37104(14)
H1 H 0.2931 0.9859 0.3635
H2 H 0.5080 0.9951 0.3349
H3 H 0.4687 1.0866 0.3853
C2 C 0.5244(4) 0.9307(2) 0.41724(11)
C3 C 0.7334(5) 0.9425(2) 0.43641(12)
H4 H 0.8241 0.9993 0.4209
C4 C 0.8118(4) 0.8718(2) 0.47826(11)
H5 H 0.9535 0.8811 0.4904
C5 C 0.6786(3) 0.7876(2) 0.50179(10)
C6 C 0.4681(4) 0.7753(3) 0.48367(12)
H6 H 0.3768 0.7196 0.4997
C7 C 0.3941(4) 0.8462(3) 0.44176(12)
H7 H 0.2524 0.8369 0.4296
S2 S 0.74660(10) 0.63466(5) 0.92134(3)
O4 O 0.6009(3) 0.53539(17) 0.90067(9)
O5 O 0.6549(5) 0.72161(19) 0.95484(12)
O6 O 0.9274(3) 0.5982(2) 0.95394(9)
C8 C 1.0559(6) 0.8874(3) 0.70974(14)
H8 H 1.2028 0.9116 0.7170
H9 H 0.9827 0.9546 0.7059
H10 H 1.0310 0.8386 0.6737
C9 C 0.9792(4) 0.8206(2) 0.76101(11)
C10 C 1.1150(4) 0.8022(2) 0.80870(11)
H11 H 1.2555 0.8302 0.8084
C11 C 1.0482(4) 0.7432(2) 0.85693(11)
H12 H 1.1430 0.7314 0.8883
C12 C 0.8394(4) 0.70212(19) 0.85811(10)
C13 C 0.7015(4) 0.7182(2) 0.81016(11)
H13 H 0.5612 0.6897 0.8103
C14 C 0.7716(5) 0.7760(2) 0.76237(12)
H14 H 0.6778 0.7854 0.7303
N1 N 0.6926(4) 0.34970(18) 0.97681(10)
H15 H 0.807(3) 0.369(2) 1.0008(10)
H16 H 0.584(4) 0.331(2) 0.9986(11)
H17 H 0.662(4) 0.408(2) 0.9545(11)
C15 C 0.7115(3) 0.24380(18) 0.93733(9)
C16 C 0.5136(4) 0.2176(2) 0.89602(11)
H18 H 0.4953 0.2834 0.8721
H19 H 0.3934 0.2042 0.9192
C17 C 0.9013(4) 0.2673(2) 0.90126(10)
H20 H 1.0267 0.2854 0.9278
H21 H 0.8857 0.3331 0.8772
C18 C 0.7379(4) 0.14183(19) 0.97613(10)
H22 H 0.6193 0.1286 0.9999
H23 H 0.8631 0.1591 1.0028
C19 C 0.7543(4) 0.0330(2) 0.93597(11)
H24 H 0.7712 -0.0331 0.9605
C20 C 0.5573(4) 0.0060(2) 0.89403(12)
H25 H 0.4366 -0.0086 0.9170
H26 H 0.5672 -0.0633 0.8688
C21 C 0.5313(4) 0.1090(2) 0.85546(11)
H27 H 0.4046 0.0916 0.8286
C22 C 0.7210(4) 0.1309(3) 0.81899(11)
H28 H 0.7045 0.1956 0.7941
H29 H 0.7328 0.0625 0.7933
C23 C 0.9435(4) 0.0554(2) 0.89951(13)
H30 H 0.9563 -0.0133 0.8742
H31 H 1.0694 0.0716 0.9260
C24 C 0.9185(4) 0.1586(2) 0.86126(11)
H32 H 1.0402 0.1723 0.8379
N2 N 0.2620(3) 0.5509(2) 0.58768(10)
H33 H 0.390(3) 0.593(2) 0.5944(12)
H34 H 0.254(5) 0.503(2) 0.5550(11)
H35 H 0.172(4) 0.603(2) 0.5820(12)
C25 C -0.0056(4) 0.4160(2) 0.62903(11)
H36 H -0.0101 0.3636 0.5939
H37 H -0.1082 0.4698 0.6221
C26 C 0.2118(3) 0.48292(19) 0.64076(9)
C27 C 0.2180(4) 0.5664(2) 0.69513(11)
H38 H 0.1161 0.6208 0.6888
H39 H 0.3552 0.6104 0.7019
C28 C 0.1690(5) 0.4966(2) 0.74942(11)
H40 H 0.1728 0.5500 0.7847
C29 C -0.0484(4) 0.4300(3) 0.73803(12)
H41 H -0.0827 0.3868 0.7724
H42 H -0.1507 0.4842 0.7318
C30 C -0.0558(4) 0.3464(2) 0.68349(12)
H43 H -0.1957 0.3035 0.6766
C31 C 0.3731(4) 0.3978(2) 0.65023(11)
H44 H 0.5118 0.4401 0.6569
H45 H 0.3703 0.3455 0.6151
C32 C 0.3228(4) 0.3284(2) 0.70416(12)
H46 H 0.4257 0.2734 0.7105
C33 C 0.1040(4) 0.2613(2) 0.69326(12)
H47 H 0.0989 0.2077 0.6586
H48 H 0.0721 0.2165 0.7273
C34 C 0.3292(5) 0.4114(3) 0.75947(12)
H49 H 0.2984 0.3675 0.7939
H50 H 0.4676 0.4536 0.7670
loop_
_geom_bond_atom_site_label_1
_geom_bond_atom_site_label_2
_geom_bond_site_symmetry_1
_geom_bond_site_symmetry_2
S1 O1 1_555 1_555
O2 S1 1_555 1_555
O3 S1 1_555 1_555
C1 H1 1_555 1_555
H2 C1 1_555 1_555
H3 C1 1_555 1_555
C2 C1 1_555 1_555
C3 C2 1_555 1_555
H4 C3 1_555 1_555
C4 C3 1_555 1_555
H5 C4 1_555 1_555
C5 S1 1_555 1_555
C6 C5 1_555 1_555
H6 C6 1_555 1_555
C7 C2 1_555 1_555
H7 C7 1_555 1_555
S2 O4 1_555 1_555
O5 S2 1_555 1_555
O6 S2 1_555 1_555
C8 H8 1_555 1_555
H9 C8 1_555 1_555
H10 C8 1_555 1_555
C9 C8 1_555 1_555
C10 C9 1_555 1_555
H11 C10 1_555 1_555
C11 C10 1_555 1_555
H12 C11 1_555 1_555
C12 S2 1_555 1_555
C13 C12 1_555 1_555
H13 C13 1_555 1_555
C14 C9 1_555 1_555
H14 C14 1_555 1_555
N1 H15 1_555 1_555
H16 N1 1_555 1_555
H17 N1 1_555 1_555
C15 N1 1_555 1_555
C16 C15 1_555 1_555
H18 C16 1_555 1_555
H19 C16 1_555 1_555
C17 C15 1_555 1_555
H20 C17 1_555 1_555
H21 C17 1_555 1_555
C18 C15 1_555 1_555
H22 C18 1_555 1_555
H23 C18 1_555 1_555
C19 C18 1_555 1_555
H24 C19 1_555 1_555
C20 C19 1_555 1_555
H25 C20 1_555 1_555
H26 C20 1_555 1_555
C21 C16 1_555 1_555
H27 C21 1_555 1_555
C22 C21 1_555 1_555
H28 C22 1_555 1_555
H29 C22 1_555 1_555
C23 C19 1_555 1_555
H30 C23 1_555 1_555
H31 C23 1_555 1_555
C24 C17 1_555 1_555
H32 C24 1_555 1_555
N2 H33 1_555 1_555
H34 N2 1_555 1_555
H35 N2 1_555 1_555
C25 H36 1_555 1_555
H37 C25 1_555 1_555
C26 N2 1_555 1_555
C27 C26 1_555 1_555
H38 C27 1_555 1_555
H39 C27 1_555 1_555
C28 C27 1_555 1_555
H40 C28 1_555 1_555
C29 C28 1_555 1_555
H41 C29 1_555 1_555
H42 C29 1_555 1_555
C30 C25 1_555 1_555
H43 C30 1_555 1_555
C31 C26 1_555 1_555
H44 C31 1_555 1_555
H45 C31 1_555 1_555
C32 C31 1_555 1_555
H46 C32 1_555 1_555
C33 C30 1_555 1_555
H47 C33 1_555 1_555
H48 C33 1_555 1_555
C34 C28 1_555 1_555
H49 C34 1_555 1_555
H50 C34 1_555 1_555
C4 C5 1_555 1_555
C6 C7 1_555 1_555
C11 C12 1_555 1_555
C13 C14 1_555 1_555
C20 C21 1_555 1_555
C22 C24 1_555 1_555
C23 C24 1_555 1_555
C25 C26 1_555 1_555
C29 C30 1_555 1_555
C32 C33 1_555 1_555
C32 C34 1_555 1_555

#END
