
#######################################################################
#
#                 Cambridge Crystallographic Data Centre
#                                CCDC 
#
#######################################################################
#
# If this CIF has been generated from an entry in the Cambridge 
# Structural Database, then it will include bibliographic, chemical, 
# crystal, experimental, refinement or atomic coordinate data resulting 
# from the CCDC's data processing and validation procedures.
#
#######################################################################

data_ULEBIY
_chemical_formula_moiety         'C28 H24 O3'
_chemical_name_systematic        
'Methyl 2-benzoyl-2-methyl-3-phenyl-2,8-dihydrocyclopenta[a]indene-8a(1H)-carboxylate'
_symmetry_cell_setting           triclinic
_symmetry_space_group_name_H-M   'P -1'
_symmetry_Int_Tables_number      2
_space_group_name_Hall           '-P 1'
loop_
_symmetry_equiv_pos_site_id
_symmetry_equiv_pos_as_xyz
1 x,y,z
2 -x,-y,-z
_cell_length_a                   9.4157(7)
_cell_length_b                   10.9457(8)
_cell_length_c                   11.4448(9)
_cell_angle_alpha                84.5790(10)
_cell_angle_beta                 65.7320(10)
_cell_angle_gamma                84.3700(10)
_cell_volume                     1068.19
_exptl_crystal_colour            colorless
_cell_formula_units_Z            2
loop_
_atom_site_label
_atom_site_type_symbol
_atom_site_fract_x
_atom_site_fract_y
_atom_site_fract_z
O1 O -0.25302(13) 0.37072(11) 0.53100(11)
C1 C 0.00095(15) 0.27972(12) 0.41284(12)
O2 O 0.36576(16) 0.09039(10) 0.37903(13)
C2 C 0.08024(14) 0.22104(10) 0.28272(11)
O3 O 0.42139(14) 0.25093(10) 0.45398(11)
C3 C 0.23437(14) 0.23247(11) 0.23363(12)
C4 C 0.36705(15) 0.22428(12) 0.10857(13)
C5 C 0.39951(18) 0.15293(15) 0.00542(13)
H1 H 0.3341 0.0924 0.0106
C6 C 0.5330(2) 0.1745(2) -0.10631(16)
H2 H 0.5572 0.1274 -0.1763
C7 C 0.6296(2) 0.2649(2) -0.1143(2)
H3 H 0.7169 0.2790 -0.1900
C8 C 0.59826(19) 0.33447(19) -0.0114(2)
H4 H 0.6640 0.3951 -0.0176
C9 C 0.46854(16) 0.31369(14) 0.10107(15)
C10 C 0.41309(18) 0.37916(14) 0.22404(16)
H5 H 0.3693 0.4616 0.2146
H6 H 0.4973 0.3837 0.2512
C11 C 0.28640(15) 0.29602(11) 0.31963(13)
C12 C 0.13271(16) 0.35366(13) 0.41746(14)
H7 H 0.1187 0.4401 0.3940
H8 H 0.1320 0.3460 0.5028
C13 C -0.0484(2) 0.17787(15) 0.52057(14)
H9 H -0.0984 0.2142 0.6021
H10 H 0.0421 0.1274 0.5179
H11 H -0.1199 0.1283 0.5092
C14 C -0.14046(15) 0.37057(13) 0.42842(14)
C15 C -0.14354(15) 0.46224(12) 0.32347(14)
C16 C -0.28997(19) 0.51325(16) 0.33365(19)
H12 H -0.3788 0.4910 0.4048
C17 C -0.3050(2) 0.59562(18) 0.2406(2)
H13 H -0.4036 0.6266 0.2478
C18 C -0.1748(3) 0.63247(16) 0.1370(2)
H14 H -0.1850 0.6894 0.0748
C19 C -0.0293(2) 0.58485(15) 0.12543(19)
H15 H 0.0591 0.6105 0.0558
C20 C -0.01355(17) 0.49905(13) 0.21671(16)
H16 H 0.0852 0.4656 0.2065
C21 C -0.00281(14) 0.14396(11) 0.23467(11)
C22 C -0.13434(17) 0.18352(14) 0.21186(16)
H17 H -0.1723 0.2653 0.2221
C23 C -0.20971(19) 0.10284(17) 0.17412(17)
H18 H -0.2968 0.1312 0.1582
C24 C -0.1573(2) -0.01798(16) 0.16008(16)
H19 H -0.2102 -0.0723 0.1372
C25 C -0.0258(2) -0.05885(15) 0.17998(18)
H20 H 0.0119 -0.1406 0.1685
C26 C 0.05041(19) 0.02115(13) 0.21698(15)
H21 H 0.1391 -0.0076 0.2304
C27 C 0.36072(16) 0.19901(12) 0.38632(13)
C28 C 0.4907(2) 0.16807(17) 0.52515(18)
H22 H 0.5310 0.2149 0.5702
H23 H 0.5741 0.1176 0.4668
H24 H 0.4130 0.1167 0.5857
loop_
_geom_bond_atom_site_label_1
_geom_bond_atom_site_label_2
_geom_bond_site_symmetry_1
_geom_bond_site_symmetry_2
O1 C14 1_555 1_555
C1 C2 1_555 1_555
O2 C27 1_555 1_555
C2 C3 1_555 1_555
O3 C27 1_555 1_555
C3 C4 1_555 1_555
C4 C5 1_555 1_555
C5 H1 1_555 1_555
C6 C5 1_555 1_555
H2 C6 1_555 1_555
C7 C6 1_555 1_555
H3 C7 1_555 1_555
C8 C7 1_555 1_555
H4 C8 1_555 1_555
C9 C4 1_555 1_555
C10 C9 1_555 1_555
H5 C10 1_555 1_555
H6 C10 1_555 1_555
C11 C3 1_555 1_555
C12 C1 1_555 1_555
H7 C12 1_555 1_555
H8 C12 1_555 1_555
C13 C1 1_555 1_555
H9 C13 1_555 1_555
H10 C13 1_555 1_555
H11 C13 1_555 1_555
C14 C1 1_555 1_555
C15 C14 1_555 1_555
C16 C15 1_555 1_555
H12 C16 1_555 1_555
C17 C16 1_555 1_555
H13 C17 1_555 1_555
C18 C17 1_555 1_555
H14 C18 1_555 1_555
C19 C18 1_555 1_555
H15 C19 1_555 1_555
C20 C15 1_555 1_555
H16 C20 1_555 1_555
C21 C2 1_555 1_555
C22 C21 1_555 1_555
H17 C22 1_555 1_555
C23 C22 1_555 1_555
H18 C23 1_555 1_555
C24 C23 1_555 1_555
H19 C24 1_555 1_555
C25 C24 1_555 1_555
H20 C25 1_555 1_555
C26 C21 1_555 1_555
H21 C26 1_555 1_555
C27 C11 1_555 1_555
C28 O3 1_555 1_555
H22 C28 1_555 1_555
H23 C28 1_555 1_555
H24 C28 1_555 1_555
C8 C9 1_555 1_555
C10 C11 1_555 1_555
C11 C12 1_555 1_555
C19 C20 1_555 1_555
C25 C26 1_555 1_555

#END
