
#######################################################################
#
#                 Cambridge Crystallographic Data Centre
#                                CCDC 
#
#######################################################################
#
# If this CIF has been generated from an entry in the Cambridge 
# Structural Database, then it will include bibliographic, chemical, 
# crystal, experimental, refinement or atomic coordinate data resulting 
# from the CCDC's data processing and validation procedures.
#
#######################################################################

data_ULECIZ
_chemical_formula_moiety         'C16 H21 N1 O3'
_chemical_name_systematic        
5-Hydroxy-4-methoxy-1,3,5-trimethyl-6-(3-methylphenyl)-5,6-dihydropyridin-2(1H)-one
_symmetry_cell_setting           monoclinic
_symmetry_space_group_name_H-M   'P 21/n'
_symmetry_Int_Tables_number      14
_space_group_name_Hall           '-P 2yn'
loop_
_symmetry_equiv_pos_site_id
_symmetry_equiv_pos_as_xyz
1 x,y,z
2 1/2-x,1/2+y,1/2-z
3 -x,-y,-z
4 1/2+x,1/2-y,1/2+z
_cell_length_a                   9.595(11)
_cell_length_b                   13.074(14)
_cell_length_c                   12.450(14)
_cell_angle_alpha                90
_cell_angle_beta                 106.779(17)
_cell_angle_gamma                90
_cell_volume                     1495.3
_exptl_crystal_colour            colorless
_exptl_crystal_description       block
_cell_formula_units_Z            4
loop_
_atom_site_label
_atom_site_type_symbol
_atom_site_fract_x
_atom_site_fract_y
_atom_site_fract_z
O1 O 0.0306(2) 0.57214(14) 0.7050(2)
H1 H -0.0187 0.6062 0.6524
O2 O 0.3682(3) 0.77904(18) 1.0597(3)
N1 N 0.2487(3) 0.77909(17) 0.8749(3)
O3 O 0.1698(3) 0.46913(15) 0.8971(2)
C1 C 0.3021(3) 0.7320(2) 0.9741(3)
C2 C 0.1805(3) 0.57313(19) 0.8950(3)
C3 C 0.4324(3) 0.6699(2) 0.7630(3)
H2 H 0.4700 0.6797 0.8399
C4 C 0.2346(3) 0.6719(2) 0.5959(3)
H3 H 0.1372 0.6854 0.5596
C5 C 0.1784(3) 0.72289(18) 0.7725(3)
H4 H 0.1113 0.7707 0.7226
C6 C 0.2852(3) 0.68777(19) 0.7104(3)
C7 C 0.0836(3) 0.63550(19) 0.7991(3)
C8 C 0.3227(4) 0.6369(2) 0.5326(4)
C9 C 0.2814(3) 0.6193(2) 0.9772(3)
C10 C 0.5229(3) 0.6376(3) 0.7007(4)
H5 H 0.6212 0.6269 0.7364
C11 C -0.0432(3) 0.6812(3) 0.8351(3)
H6 H -0.1040 0.7208 0.7746
H7 H -0.0056 0.7245 0.8993
H8 H -0.0994 0.6271 0.8541
C12 C 0.4706(4) 0.6211(2) 0.5886(4)
H9 H 0.5333 0.5992 0.5486
C13 C 0.2732(4) 0.8893(2) 0.8656(4)
H10 H 0.1928 0.9267 0.8776
H11 H 0.2812 0.9043 0.7921
H12 H 0.3614 0.9090 0.9210
C14 C 0.2601(4) 0.6147(3) 0.4114(4)
H13 H 0.1906 0.5601 0.4019
H14 H 0.3365 0.5948 0.3802
H15 H 0.2127 0.6748 0.3737
C15 C 0.0304(4) 0.4202(2) 0.8713(4)
H16 H -0.0242 0.4478 0.9182
H17 H 0.0435 0.3480 0.8845
H18 H -0.0215 0.4319 0.7940
C16 C 0.3724(4) 0.5645(3) 1.0796(4)
H19 H 0.4736 0.5782 1.0891
H20 H 0.3551 0.4922 1.0708
H21 H 0.3468 0.5879 1.1445
loop_
_geom_bond_atom_site_label_1
_geom_bond_atom_site_label_2
_geom_bond_site_symmetry_1
_geom_bond_site_symmetry_2
O1 H1 1_555 1_555
O2 C1 1_555 1_555
N1 C1 1_555 1_555
O3 C2 1_555 1_555
C1 C9 1_555 1_555
C2 C7 1_555 1_555
C3 H2 1_555 1_555
C4 H3 1_555 1_555
C5 N1 1_555 1_555
H4 C5 1_555 1_555
C6 C3 1_555 1_555
C7 O1 1_555 1_555
C8 C4 1_555 1_555
C9 C2 1_555 1_555
C10 C3 1_555 1_555
H5 C10 1_555 1_555
C11 C7 1_555 1_555
H6 C11 1_555 1_555
H7 C11 1_555 1_555
H8 C11 1_555 1_555
C12 C8 1_555 1_555
H9 C12 1_555 1_555
C13 N1 1_555 1_555
H10 C13 1_555 1_555
H11 C13 1_555 1_555
H12 C13 1_555 1_555
C14 C8 1_555 1_555
H13 C14 1_555 1_555
H14 C14 1_555 1_555
H15 C14 1_555 1_555
C15 O3 1_555 1_555
H16 C15 1_555 1_555
H17 C15 1_555 1_555
H18 C15 1_555 1_555
C16 C9 1_555 1_555
H19 C16 1_555 1_555
H20 C16 1_555 1_555
H21 C16 1_555 1_555
C4 C6 1_555 1_555
C5 C6 1_555 1_555
C5 C7 1_555 1_555
C10 C12 1_555 1_555

#END
