
#######################################################################
#
#                 Cambridge Crystallographic Data Centre
#                                CCDC 
#
#######################################################################
#
# If this CIF has been generated from an entry in the Cambridge 
# Structural Database, then it will include bibliographic, chemical, 
# crystal, experimental, refinement or atomic coordinate data resulting 
# from the CCDC's data processing and validation procedures.
#
#######################################################################

data_ULECOF
_chemical_formula_moiety         'C15 H18 N2 O5'
_chemical_name_systematic        
5-Hydroxy-4-methoxy-1,3,5-trimethyl-6-(4-nitrophenyl)-5,6-dihydropyridin-2(1H)-one
_symmetry_cell_setting           monoclinic
_symmetry_space_group_name_H-M   'P 21/n'
_symmetry_Int_Tables_number      14
_space_group_name_Hall           '-P 2yn'
loop_
_symmetry_equiv_pos_site_id
_symmetry_equiv_pos_as_xyz
1 x,y,z
2 1/2-x,1/2+y,1/2-z
3 -x,-y,-z
4 1/2+x,1/2-y,1/2+z
_cell_length_a                   7.6658(19)
_cell_length_b                   18.906(5)
_cell_length_c                   10.529(3)
_cell_angle_alpha                90
_cell_angle_beta                 97.466(5)
_cell_angle_gamma                90
_cell_volume                     1513.03
_exptl_crystal_description       block
_cell_formula_units_Z            4
loop_
_atom_site_label
_atom_site_type_symbol
_atom_site_fract_x
_atom_site_fract_y
_atom_site_fract_z
N1 N -0.1797(2) 0.26311(10) 0.2794(2)
N2 N 0.2449(4) 0.48792(14) 0.6638(3)
O1 O 0.2915(2) 0.24895(10) 0.2675(2)
H1 H 0.3582 0.2205 0.3074
O2 O 0.2429(3) 0.13484(11) 0.4035(3)
O3 O -0.3651(2) 0.18991(9) 0.36484(17)
O4 O 0.3769(4) 0.52036(16) 0.6538(4)
O5 O 0.1614(4) 0.49603(13) 0.7529(3)
C1 C 0.0697(4) 0.18948(16) 0.1256(3)
H2 H 0.0943 0.2222 0.0604
H3 H -0.0531 0.1777 0.1133
H4 H 0.1381 0.1473 0.1202
C2 C 0.1172(3) 0.22322(13) 0.2571(3)
C3 C 0.0915(3) 0.17009(13) 0.3606(3)
C4 C -0.0637(3) 0.16021(12) 0.4016(2)
C5 C -0.2136(3) 0.20529(13) 0.3466(2)
C6 C -0.0018(3) 0.28757(13) 0.2699(2)
H5 H -0.0074 0.3138 0.1891
C7 C 0.2653(5) 0.06420(19) 0.3953(5)
H6 H 0.2620 0.0431 0.4779
H7 H 0.3769 0.0546 0.3669
H8 H 0.1729 0.0447 0.3353
C8 C -0.1070(4) 0.10641(15) 0.4979(3)
H9 H -0.1804 0.0702 0.4552
H10 H -0.1681 0.1291 0.5608
H11 H -0.0003 0.0856 0.5393
C9 C -0.3221(3) 0.31063(14) 0.2327(3)
H12 H -0.4124 0.2847 0.1805
H13 H -0.2782 0.3474 0.1826
H14 H -0.3700 0.3312 0.3040
C10 C 0.0636(3) 0.33926(12) 0.3756(2)
C11 C 0.0021(3) 0.33895(13) 0.4932(3)
H15 H -0.0796 0.3049 0.5096
C12 C 0.0583(4) 0.38764(14) 0.5868(3)
H16 H 0.0149 0.3869 0.6652
C13 C 0.1794(4) 0.43712(14) 0.5617(3)
C14 C 0.2451(4) 0.43948(15) 0.4479(3)
H17 H 0.3287 0.4732 0.4334
C15 C 0.1857(4) 0.39112(14) 0.3545(3)
H18 H 0.2279 0.3931 0.2756
loop_
_geom_bond_atom_site_label_1
_geom_bond_atom_site_label_2
_geom_bond_site_symmetry_1
_geom_bond_site_symmetry_2
N1 C5 1_555 1_555
N2 O4 1_555 1_555
O1 H1 1_555 1_555
O2 C3 1_555 1_555
O3 C5 1_555 1_555
O5 N2 1_555 1_555
C1 H2 1_555 1_555
H3 C1 1_555 1_555
H4 C1 1_555 1_555
C2 O1 1_555 1_555
C3 C2 1_555 1_555
C4 C3 1_555 1_555
C5 C4 1_555 1_555
C6 N1 1_555 1_555
H5 C6 1_555 1_555
C7 O2 1_555 1_555
H6 C7 1_555 1_555
H7 C7 1_555 1_555
H8 C7 1_555 1_555
C8 C4 1_555 1_555
H9 C8 1_555 1_555
H10 C8 1_555 1_555
H11 C8 1_555 1_555
C9 N1 1_555 1_555
H12 C9 1_555 1_555
H13 C9 1_555 1_555
H14 C9 1_555 1_555
C10 C6 1_555 1_555
C11 C10 1_555 1_555
H15 C11 1_555 1_555
C12 C11 1_555 1_555
H16 C12 1_555 1_555
C13 N2 1_555 1_555
C14 C13 1_555 1_555
H17 C14 1_555 1_555
C15 C10 1_555 1_555
H18 C15 1_555 1_555
C1 C2 1_555 1_555
C2 C6 1_555 1_555
C12 C13 1_555 1_555
C14 C15 1_555 1_555

#END
