
#######################################################################
#
#                 Cambridge Crystallographic Data Centre
#                                CCDC 
#
#######################################################################
#
# If this CIF has been generated from an entry in the Cambridge 
# Structural Database, then it will include bibliographic, chemical, 
# crystal, experimental, refinement or atomic coordinate data resulting 
# from the CCDC's data processing and validation procedures.
#
#######################################################################

data_ULECIY
_chemical_formula_moiety         'C18 H16 N6,2(C1 H4 O1)'
_chemical_name_systematic        
"5,5'-bis[(1H-Imidazol-1-yl)methyl]-2,2'-bipyridine methanol solvate"
_symmetry_cell_setting           monoclinic
_symmetry_space_group_name_H-M   'P 21/c'
_symmetry_Int_Tables_number      14
_space_group_name_Hall           '-P 2ybc'
loop_
_symmetry_equiv_pos_site_id
_symmetry_equiv_pos_as_xyz
1 x,y,z
2 -x,1/2+y,1/2-z
3 -x,-y,-z
4 x,1/2-y,1/2+z
_cell_length_a                   4.5653(4)
_cell_length_b                   14.7886(12)
_cell_length_c                   14.5378(11)
_cell_angle_alpha                90
_cell_angle_beta                 93.805(2)
_cell_angle_gamma                90
_cell_volume                     979.347
_exptl_crystal_colour            colorless
_exptl_crystal_description       plate
_cell_formula_units_Z            2
loop_
_atom_site_label
_atom_site_type_symbol
_atom_site_fract_x
_atom_site_fract_y
_atom_site_fract_z
N1 N 0.8022(3) 0.40136(8) 0.45831(9)
N2 N 0.4002(3) 0.36956(9) 0.17390(9)
N3 N 0.5877(4) 0.36182(11) 0.03818(10)
C1 C 0.5974(4) 0.37871(10) 0.39254(11)
H1 H 0.5329 0.3176 0.3901
C2 C 0.4722(3) 0.43832(10) 0.32748(10)
C3 C 0.5628(4) 0.52770(11) 0.33297(11)
H2 H 0.4831 0.5710 0.2900
C4 C 0.7704(4) 0.55308(10) 0.40161(11)
H3 H 0.8328 0.6143 0.4070
C5 C 0.8868(3) 0.48825(9) 0.46263(10)
C6 C 0.2535(4) 0.40622(11) 0.25242(11)
H4 H 0.1273 0.3589 0.2774
H5 H 0.1260 0.4573 0.2313
C7 C 0.4342(4) 0.41095(12) 0.09281(12)
H6 H 0.3563 0.4689 0.0770
C8 C 0.6558(4) 0.28448(12) 0.08778(13)
H7 H 0.7665 0.2353 0.0663
C9 C 0.5437(4) 0.28818(11) 0.17102(12)
H8 H 0.5604 0.2436 0.2181
N1B N 1.1978(3) 0.59864(8) 0.54169(9)
N2B N 1.5998(3) 0.63044(9) 0.82610(9)
N3B N 1.4123(4) 0.63818(11) 0.96182(10)
C1B C 1.4026(4) 0.62129(10) 0.60746(11)
H1B H 1.4671 0.6824 0.6099
C2B C 1.5278(3) 0.56168(10) 0.67252(10)
C3B C 1.4372(4) 0.47230(11) 0.66703(11)
H2B H 1.5169 0.4290 0.7100
C4B C 1.2296(4) 0.44692(10) 0.59839(11)
H3B H 1.1672 0.3857 0.5930
C5B C 1.1132(3) 0.51175(9) 0.53737(10)
C6B C 1.7465(4) 0.59378(11) 0.74758(11)
H4B H 1.8727 0.6411 0.7226
H5B H 1.8740 0.5427 0.7687
C7B C 1.5658(4) 0.58905(12) 0.90719(12)
H6B H 1.6437 0.5311 0.9230
C8B C 1.3442(4) 0.71552(12) 0.91222(13)
H7B H 1.2335 0.7647 0.9337
C9B C 1.4563(4) 0.71182(11) 0.82898(12)
H8B H 1.4396 0.7564 0.7819
O1 O 0.2950(3) 0.64181(9) 0.14603(8)
H9 H 0.3447 0.6360 0.0917
C10 C -0.0113(4) 0.65194(15) 0.14519(15)
H10 H -0.0687 0.6604 0.2084
H11 H -0.1069 0.5977 0.1186
H12 H -0.0717 0.7048 0.1080
loop_
_geom_bond_atom_site_label_1
_geom_bond_atom_site_label_2
_geom_bond_site_symmetry_1
_geom_bond_site_symmetry_2
N1 C1 1_555 1_555
N2 C6 1_555 1_555
N3 C7 1_555 1_555
C1 H1 1_555 1_555
C2 C1 1_555 1_555
C3 C2 1_555 1_555
H2 C3 1_555 1_555
C4 C3 1_555 1_555
H3 C4 1_555 1_555
C5 N1 1_555 1_555
C6 C2 1_555 1_555
H4 C6 1_555 1_555
H5 C6 1_555 1_555
C7 N2 1_555 1_555
H6 C7 1_555 1_555
C8 N3 1_555 1_555
H7 C8 1_555 1_555
C9 N2 1_555 1_555
H8 C9 1_555 1_555
O1 H9 1_555 1_555
C10 O1 1_555 1_555
H10 C10 1_555 1_555
H11 C10 1_555 1_555
H12 C10 1_555 1_555
N1B C1B 1_555 1_555
N2B C6B 1_555 1_555
N3B C7B 1_555 1_555
C1B H1B 1_555 1_555
C2B C1B 1_555 1_555
C3B C2B 1_555 1_555
H2B C3B 1_555 1_555
C4B C3B 1_555 1_555
H3B C4B 1_555 1_555
C5B C5 1_555 1_555
C6B C2B 1_555 1_555
H4B C6B 1_555 1_555
H5B C6B 1_555 1_555
C7B N2B 1_555 1_555
H6B C7B 1_555 1_555
C8B N3B 1_555 1_555
H7B C8B 1_555 1_555
C9B N2B 1_555 1_555
H8B C9B 1_555 1_555
C4 C5 1_555 1_555
C8 C9 1_555 1_555
N1B C5B 1_555 1_555
C4B C5B 1_555 1_555
C8B C9B 1_555 1_555

#END
