
#######################################################################
#
#                 Cambridge Crystallographic Data Centre
#                                CCDC 
#
#######################################################################
#
# If this CIF has been generated from an entry in the Cambridge 
# Structural Database, then it will include bibliographic, chemical, 
# crystal, experimental, refinement or atomic coordinate data resulting 
# from the CCDC's data processing and validation procedures.
#
#######################################################################

data_ULEDUM
_chemical_compound_source        
'marine-derived fungus Paraconiothyrium sporulosum YK-03'
_chemical_name_common            'Sporulaminal A sporulaminal B'
_chemical_formula_moiety         'C15 H21 N1 O2,C14 H18 N1 O3'
_chemical_name_systematic        
"(1S,2'R,4''S,5S,6S)-4''-Methyl-2-methylene-5''H-dispiro[bicyclo[3.1.1]heptane-6,4'-furan-2',2''-pyrrolidin]-5''-one (1S,2'S,4''S,5S,6S)-4''-methyl-2-methylene-5''H-dispiro[bicyclo[3.1.1]heptane-6,4'-furan-2',2''-pyrrolidin]-5''-one"
_symmetry_cell_setting           monoclinic
_symmetry_space_group_name_H-M   'P 21'
_symmetry_Int_Tables_number      4
_space_group_name_Hall           'P 2yb'
loop_
_symmetry_equiv_pos_site_id
_symmetry_equiv_pos_as_xyz
1 x,y,z
2 -x,1/2+y,-z
_cell_length_a                   12.3508(3)
_cell_length_b                   12.2285(3)
_cell_length_c                   17.9527(3)
_cell_angle_alpha                90
_cell_angle_beta                 94.4756(18)
_cell_angle_gamma                90
_cell_volume                     2703.16
_exptl_crystal_colour            white
_cell_formula_units_Z            4
_chemical_properties_physical    'Moisture-sensitive, Heat-sensitive'
_exptl_crystal_recrystallization_method methanol/water
loop_
_atom_site_label
_atom_site_type_symbol
_atom_site_fract_x
_atom_site_fract_y
_atom_site_fract_z
O3 O -0.88719(11) -0.58276(11) -0.10399(8)
O4 O -0.75311(12) -0.47515(13) -0.30078(8)
C16 C -0.82231(16) -0.51638(17) -0.26382(11)
N2 N -0.87408(13) -0.46758(14) -0.21031(9)
H22 H -0.8672 -0.3991 -0.2001
C17 C -1.08964(16) -0.41435(17) -0.01136(11)
H23 H -1.1521 -0.4640 -0.0168
C18 C -0.94354(16) -0.54057(16) -0.17050(11)
C19 C -1.04111(17) -0.39739(18) 0.06877(12)
H24 H -1.0279 -0.4680 0.0924
H25 H -1.0927 -0.3581 0.0968
C20 C -1.04257(16) -0.48434(17) -0.14251(12)
H26 H -1.1004 -0.5365 -0.1364
H27 H -1.0694 -0.4275 -0.1768
C21 C -0.98686(16) -0.30773(16) -0.06805(12)
H28 H -0.9707 -0.2759 -0.1160
C22 C -0.96254(16) -0.63494(17) -0.22672(12)
H29 H -1.0287 -0.6232 -0.2585
H30 H -0.9681 -0.7041 -0.2009
C23 C -1.00042(15) -0.43521(16) -0.06661(11)
C24 C -0.86268(16) -0.63409(17) -0.27303(12)
H31 H -0.8853 -0.6484 -0.3257
C25 C -0.84291(17) -0.19217(18) -0.00394(13)
H32 H -0.8334 -0.1573 -0.0490
H33 H -0.8009 -0.1719 0.0391
C26 C -1.10764(16) -0.30142(17) -0.04895(12)
H34 H -1.1227 -0.2430 -0.0147
H35 H -1.1597 -0.3018 -0.0923
C27 C -0.90070(16) -0.50721(17) -0.04410(12)
H36 H -0.8364 -0.4620 -0.0355
H37 H -0.9117 -0.5467 0.0015
C28 C -0.91605(16) -0.27051(16) -0.00101(12)
C29 C -0.77330(18) -0.71463(19) -0.24558(14)
H38 H -0.7548 -0.7033 -0.1932
H39 H -0.7103 -0.7029 -0.2726
H40 H -0.7988 -0.7881 -0.2537
C30 C -0.93320(17) -0.33238(18) 0.07096(12)
H41 H -0.9316 -0.2805 0.1119
H42 H -0.8732 -0.3828 0.0812
O5 O -1.16560(12) -0.20859(12) -0.41782(8)
O6 O -1.29088(12) -0.28651(12) -0.21276(8)
C31 C -1.22604(16) -0.24910(17) -0.25484(11)
N3 N -1.17026(14) -0.30568(14) -0.30320(9)
H43 H -1.1726 -0.3758 -0.3069
C32 C -0.95784(16) -0.36652(17) -0.50401(12)
H44 H -0.9025 -0.3090 -0.5033
C33 C -0.92258(17) -0.47423(18) -0.46339(12)
H45 H -0.9032 -0.5326 -0.4964
H46 H -0.8679 -0.4647 -0.4221
C34 C -1.00440(16) -0.29313(17) -0.37398(12)
H47 H -0.9750 -0.3442 -0.3363
H48 H -0.9488 -0.2401 -0.3837
C35 C -1.09112(18) -0.13355(17) -0.30130(12)
H49 H -1.0843 -0.0694 -0.3323
H50 H -1.0274 -0.1390 -0.2663
C36 C -1.04026(17) -0.48101(17) -0.43979(12)
H51 H -1.0476 -0.5104 -0.3897
C37 C -1.10525(16) -0.23664(17) -0.34895(11)
C38 C -1.19491(17) -0.12855(17) -0.26023(12)
H52 H -1.2511 -0.0911 -0.2923
C39 C -1.04477(16) -0.35356(17) -0.44620(11)
C40 C -1.01223(18) -0.39395(18) -0.57976(12)
C41 C -1.15243(17) -0.29550(19) -0.46946(12)
H53 H -1.1511 -0.2666 -0.5197
H54 H -1.2124 -0.3466 -0.4687
C42 C -1.11158(19) -0.53576(19) -0.50268(13)
H55 H -1.1865 -0.5356 -0.4899
H56 H -1.0891 -0.6113 -0.5074
C43 C -1.1848(2) -0.07174(18) -0.18417(13)
H57 H -1.1275 -0.1052 -0.1529
H58 H -1.2520 -0.0786 -0.1611
H59 H -1.1686 0.0043 -0.1908
C44 C -1.10433(18) -0.4772(2) -0.57834(12)
H60 H -1.0951 -0.5318 -0.6165
H61 H -1.1726 -0.4400 -0.5913
C45 C -0.9822(2) -0.3494(2) -0.64180(14)
H62 H -0.9256 -0.2991 -0.6398
H63 H -1.0177 -0.3683 -0.6876
O7 O -0.83157(12) -0.22697(13) -0.20823(8)
O8 O -0.66972(14) -0.15450(15) -0.40172(9)
C46 C -0.75810(17) -0.19122(18) -0.24387(12)
N4 N -0.69848(14) -0.24912(15) -0.28926(10)
H64 H -0.7043 -0.3188 -0.2946
C47 C -0.71879(19) -0.07271(19) -0.24260(13)
H65 H -0.7704 -0.0291 -0.2744
C48 C -0.4794(2) -0.3480(2) -0.54470(14)
C49 C -0.51952(18) -0.2421(2) -0.34446(13)
H66 H -0.4986 -0.2939 -0.3050
H67 H -0.4607 -0.1905 -0.3487
C50 C -0.4232(2) -0.4230(2) -0.41916(16)
H68 H -0.3801 -0.4117 -0.3723
H69 H -0.3948 -0.4828 -0.4474
C51 C -0.62314(19) -0.18320(19) -0.32869(13)
C52 C -0.54712(17) -0.30136(19) -0.41890(13)
C53 C -0.64820(19) -0.2403(2) -0.45121(14)
H70 H -0.6359 -0.2109 -0.5000
H71 H -0.7097 -0.2898 -0.4567
C54 C -0.44654(18) -0.3173(2) -0.46515(13)
H72 H -0.3908 -0.2603 -0.4585
C55 C -0.7103(2) -0.0236(2) -0.16489(14)
H73 H -0.6575 -0.0635 -0.1336
H74 H -0.7796 -0.0276 -0.1443
H75 H -0.6882 0.0515 -0.1675
C56 C -0.6016(2) -0.4833(2) -0.48093(17)
H76 H -0.6798 -0.4807 -0.4785
H77 H -0.5801 -0.5595 -0.4815
C57 C -0.5473(2) -0.4288(2) -0.41172(15)
H78 H -0.5687 -0.4572 -0.3640
C58 C -0.4318(2) -0.3071(2) -0.60170(15)
H79 H -0.3755 -0.2571 -0.5935
H80 H -0.4547 -0.3283 -0.6502
C59 C -0.6126(2) -0.0802(2) -0.28040(15)
H81 H -0.5513 -0.0862 -0.2435
H82 H -0.6028 -0.0162 -0.3110
C60 C -0.5725(3) -0.4289(3) -0.55339(18)
H83 H -0.5540 -0.4856 -0.5880
H84 H -0.6363 -0.3913 -0.5755
O1 O -1.21190(11) -0.54239(12) -0.30830(8)
O2 O -1.38973(11) -0.60995(12) -0.11977(8)
N1 N -1.34201(14) -0.51172(15) -0.22664(10)
H1 H -1.3260 -0.4444 -0.2172
C1 C -1.29009(16) -0.57211(17) -0.27469(11)
C2 C -1.50225(16) -0.45917(18) -0.09435(11)
C3 C -1.63030(18) -0.3449(2) -0.08399(14)
H2 H -1.6635 -0.2956 -0.0501
H3 H -1.6681 -0.3432 -0.1334
C4 C -1.34430(17) -0.68408(18) -0.28200(12)
H4 H -1.3594 -0.7027 -0.3349
C5 C -1.50491(18) -0.33306(19) -0.08365(14)
H5 H -1.4783 -0.2892 -0.1241
C6 C -1.40047(17) -0.5236(2) -0.06754(12)
H6 H -1.3371 -0.4765 -0.0656
H7 H -1.4077 -0.5530 -0.0180
C7 C -1.42799(16) -0.56918(17) -0.19152(12)
C8 C -1.60874(17) -0.4617(2) -0.05235(13)
H8 H -1.6621 -0.5170 -0.0700
C9 C -1.52427(17) -0.49669(19) -0.17608(12)
H9 H -1.5917 -0.5375 -0.1825
H10 H -1.5289 -0.4343 -0.2096
C10 C -1.45156(17) -0.66500(18) -0.24555(12)
H11 H -1.5096 -0.6466 -0.2830
H12 H -1.4722 -0.7297 -0.2188
C11 C -1.27349(19) -0.7721(2) -0.24287(14)
H13 H -1.2668 -0.7583 -0.1901
H14 H -1.2028 -0.7710 -0.2616
H15 H -1.3063 -0.8424 -0.2522
C12 C -1.5840(2) -0.4570(2) 0.03225(14)
H16 H -1.5410 -0.5202 0.0486
H17 H -1.6514 -0.4594 0.0565
C13 C -1.5220(2) -0.3526(3) 0.05521(15)
H18 H -1.5734 -0.2977 0.0692
H19 H -1.4730 -0.3680 0.0988
C14 C -1.4571(2) -0.3067(2) -0.00594(16)
C15 C -1.3668(2) -0.2495(3) 0.0061(2)
H20 H -1.3306 -0.2242 -0.0341
H21 H -1.3393 -0.2345 0.0547
loop_
_geom_bond_atom_site_label_1
_geom_bond_atom_site_label_2
_geom_bond_site_symmetry_1
_geom_bond_site_symmetry_2
O1 C1 1_555 1_555
O2 C6 1_555 1_555
N1 H1 1_555 1_555
C1 N1 1_555 1_555
C2 C5 1_555 1_555
C3 H2 1_555 1_555
H3 C3 1_555 1_555
C4 C1 1_555 1_555
H4 C4 1_555 1_555
C5 C3 1_555 1_555
H5 C5 1_555 1_555
C6 C2 1_555 1_555
H6 C6 1_555 1_555
H7 C6 1_555 1_555
C7 O2 1_555 1_555
C8 C2 1_555 1_555
H8 C8 1_555 1_555
C9 C2 1_555 1_555
H9 C9 1_555 1_555
H10 C9 1_555 1_555
C10 C4 1_555 1_555
H11 C10 1_555 1_555
H12 C10 1_555 1_555
C11 C4 1_555 1_555
H13 C11 1_555 1_555
H14 C11 1_555 1_555
H15 C11 1_555 1_555
C12 C8 1_555 1_555
H16 C12 1_555 1_555
H17 C12 1_555 1_555
C13 C12 1_555 1_555
H18 C13 1_555 1_555
H19 C13 1_555 1_555
C14 C5 1_555 1_555
C15 C14 1_555 1_555
H20 C15 1_555 1_555
H21 C15 1_555 1_555
O3 C18 1_555 1_555
O4 C16 1_555 1_555
C16 N2 1_555 1_555
N2 H22 1_555 1_555
C17 H23 1_555 1_555
C18 N2 1_555 1_555
C19 C17 1_555 1_555
H24 C19 1_555 1_555
H25 C19 1_555 1_555
C20 C18 1_555 1_555
H26 C20 1_555 1_555
H27 C20 1_555 1_555
C21 H28 1_555 1_555
C22 C18 1_555 1_555
H29 C22 1_555 1_555
H30 C22 1_555 1_555
C23 C17 1_555 1_555
C24 C16 1_555 1_555
H31 C24 1_555 1_555
C25 H32 1_555 1_555
H33 C25 1_555 1_555
C26 C17 1_555 1_555
H34 C26 1_555 1_555
H35 C26 1_555 1_555
C27 O3 1_555 1_555
H36 C27 1_555 1_555
H37 C27 1_555 1_555
C28 C21 1_555 1_555
C29 C24 1_555 1_555
H38 C29 1_555 1_555
H39 C29 1_555 1_555
H40 C29 1_555 1_555
C30 C19 1_555 1_555
H41 C30 1_555 1_555
H42 C30 1_555 1_555
O5 C37 1_555 1_555
O6 C31 1_555 1_555
C31 N3 1_555 1_555
N3 H43 1_555 1_555
C32 H44 1_555 1_555
C33 C32 1_555 1_555
H45 C33 1_555 1_555
H46 C33 1_555 1_555
C34 H47 1_555 1_555
H48 C34 1_555 1_555
C35 H49 1_555 1_555
H50 C35 1_555 1_555
C36 C33 1_555 1_555
H51 C36 1_555 1_555
C37 N3 1_555 1_555
C38 C31 1_555 1_555
H52 C38 1_555 1_555
C39 C32 1_555 1_555
C40 C32 1_555 1_555
C41 O5 1_555 1_555
H53 C41 1_555 1_555
H54 C41 1_555 1_555
C42 C36 1_555 1_555
H55 C42 1_555 1_555
H56 C42 1_555 1_555
C43 C38 1_555 1_555
H57 C43 1_555 1_555
H58 C43 1_555 1_555
H59 C43 1_555 1_555
C44 C40 1_555 1_555
H60 C44 1_555 1_555
H61 C44 1_555 1_555
C45 C40 1_555 1_555
H62 C45 1_555 1_555
H63 C45 1_555 1_555
O7 C46 1_555 1_555
O8 C51 1_555 1_555
C46 N4 1_555 1_555
N4 H64 1_555 1_555
C47 C46 1_555 1_555
H65 C47 1_555 1_555
C48 C54 1_555 1_555
C49 H66 1_555 1_555
H67 C49 1_555 1_555
C50 H68 1_555 1_555
H69 C50 1_555 1_555
C51 N4 1_555 1_555
C52 C49 1_555 1_555
C53 O8 1_555 1_555
H70 C53 1_555 1_555
H71 C53 1_555 1_555
C54 C50 1_555 1_555
H72 C54 1_555 1_555
C55 C47 1_555 1_555
H73 C55 1_555 1_555
H74 C55 1_555 1_555
H75 C55 1_555 1_555
C56 H76 1_555 1_555
H77 C56 1_555 1_555
C57 C50 1_555 1_555
H78 C57 1_555 1_555
C58 C48 1_555 1_555
H79 C58 1_555 1_555
H80 C58 1_555 1_555
C59 C47 1_555 1_555
H81 C59 1_555 1_555
H82 C59 1_555 1_555
C60 C48 1_555 1_555
H83 C60 1_555 1_555
H84 C60 1_555 1_555
N1 C7 1_555 1_555
C3 C8 1_555 1_555
C7 C9 1_555 1_555
C7 C10 1_555 1_555
C13 C14 1_555 1_555
C20 C23 1_555 1_555
C21 C23 1_555 1_555
C21 C26 1_555 1_555
C22 C24 1_555 1_555
C23 C27 1_555 1_555
C25 C28 1_555 1_555
C28 C30 1_555 1_555
C34 C37 1_555 1_555
C34 C39 1_555 1_555
C35 C37 1_555 1_555
C35 C38 1_555 1_555
C36 C39 1_555 1_555
C39 C41 1_555 1_555
C42 C44 1_555 1_555
C49 C51 1_555 1_555
C51 C59 1_555 1_555
C52 C53 1_555 1_555
C52 C54 1_555 1_555
C52 C57 1_555 1_555
C56 C57 1_555 1_555
C56 C60 1_555 1_555

#END
