
#######################################################################
#
#                 Cambridge Crystallographic Data Centre
#                                CCDC 
#
#######################################################################
#
# If this CIF has been generated from an entry in the Cambridge 
# Structural Database, then it will include bibliographic, chemical, 
# crystal, experimental, refinement or atomic coordinate data resulting 
# from the CCDC's data processing and validation procedures.
#
#######################################################################

data_ULEDAS
_chemical_formula_moiety         'C16 H19 N1 O3'
_chemical_name_systematic        
1-Hydroxy-2-methoxy-1,3-dimethyl-1,6,7,11b-tetrahydro-4H-pyrido[2,1-a]isoquinolin-4-one
_symmetry_cell_setting           monoclinic
_symmetry_space_group_name_H-M   'P 21/c'
_symmetry_Int_Tables_number      14
_space_group_name_Hall           '-P 2ybc'
loop_
_symmetry_equiv_pos_site_id
_symmetry_equiv_pos_as_xyz
1 x,y,z
2 -x,1/2+y,1/2-z
3 -x,-y,-z
4 x,1/2-y,1/2+z
_cell_length_a                   18.055(4)
_cell_length_b                   9.0109(19)
_cell_length_c                   8.4981(19)
_cell_angle_alpha                90
_cell_angle_beta                 96.030(4)
_cell_angle_gamma                90
_cell_volume                     1374.92
_exptl_crystal_description       block
_cell_formula_units_Z            4
loop_
_atom_site_label
_atom_site_type_symbol
_atom_site_fract_x
_atom_site_fract_y
_atom_site_fract_z
O1 O 0.68756(6) 0.45541(11) 0.57105(12)
O2 O 0.55852(6) 0.44754(13) 0.30128(17)
N1 N 0.78148(6) 0.55812(12) 0.32928(15)
O3 O 0.75160(7) 0.77074(13) 0.19502(17)
C1 C 0.76089(7) 0.40064(14) 0.34734(16)
H1 H 0.7533 0.3585 0.2405
C2 C 0.68415(7) 0.39712(14) 0.41410(16)
C3 C 0.82296(7) 0.31158(15) 0.43768(16)
C4 C 0.63120(7) 0.48874(15) 0.29838(17)
C5 C 0.88052(7) 0.38005(16) 0.53378(17)
C6 C 0.65459(8) 0.23961(15) 0.42423(18)
H2 H 0.6886 0.1821 0.4942
H3 H 0.6498 0.1955 0.3209
H4 H 0.6068 0.2419 0.4640
C7 C 0.65569(8) 0.59238(15) 0.20394(18)
C8 C 0.73330(8) 0.64642(16) 0.23963(18)
C9 C 0.82459(8) 0.15784(16) 0.41624(19)
H5 H 0.7875 0.1122 0.3490
C10 C 0.88268(8) 0.54632(17) 0.5435(2)
H6 H 0.9332 0.5790 0.5761
H7 H 0.8511 0.5800 0.6218
C11 C 0.93732(8) 0.29157(19) 0.61050(19)
H8 H 0.9757 0.3362 0.6754
C12 C 0.85608(8) 0.61256(17) 0.3841(2)
H9 H 0.8551 0.7199 0.3924
H10 H 0.8903 0.5861 0.3081
C13 C 0.88079(9) 0.07292(18) 0.4939(2)
H11 H 0.8806 -0.0295 0.4807
C14 C 0.93724(9) 0.1399(2) 0.5912(2)
H12 H 0.9750 0.0827 0.6435
C15 C 0.61065(11) 0.6695(2) 0.0676(2)
H13 H 0.5691 0.6084 0.0294
H14 H 0.6415 0.6863 -0.0161
H15 H 0.5928 0.7629 0.1030
C16 C 0.50154(9) 0.5575(2) 0.2935(3)
H16 H 0.4817 0.5718 0.1853
H17 H 0.5221 0.6493 0.3357
H18 H 0.4625 0.5256 0.3542
H19 H 0.7057(13) 0.5436(15) 0.575(3)
loop_
_geom_bond_atom_site_label_1
_geom_bond_atom_site_label_2
_geom_bond_site_symmetry_1
_geom_bond_site_symmetry_2
O1 C2 1_555 1_555
O2 C4 1_555 1_555
N1 C1 1_555 1_555
O3 C8 1_555 1_555
C1 H1 1_555 1_555
C2 C1 1_555 1_555
C3 C1 1_555 1_555
C4 C2 1_555 1_555
C5 C3 1_555 1_555
C6 C2 1_555 1_555
H2 C6 1_555 1_555
H3 C6 1_555 1_555
H4 C6 1_555 1_555
C7 C4 1_555 1_555
C8 N1 1_555 1_555
C9 C3 1_555 1_555
H5 C9 1_555 1_555
C10 C5 1_555 1_555
H6 C10 1_555 1_555
H7 C10 1_555 1_555
C11 C5 1_555 1_555
H8 C11 1_555 1_555
C12 N1 1_555 1_555
H9 C12 1_555 1_555
H10 C12 1_555 1_555
C13 C9 1_555 1_555
H11 C13 1_555 1_555
C14 C11 1_555 1_555
H12 C14 1_555 1_555
C15 C7 1_555 1_555
H13 C15 1_555 1_555
H14 C15 1_555 1_555
H15 C15 1_555 1_555
C16 O2 1_555 1_555
H16 C16 1_555 1_555
H17 C16 1_555 1_555
H18 C16 1_555 1_555
H19 O1 1_555 1_555
C7 C8 1_555 1_555
C10 C12 1_555 1_555
C13 C14 1_555 1_555

#END
