
#######################################################################
#
#                 Cambridge Crystallographic Data Centre
#                                CCDC 
#
#######################################################################
#
# If this CIF has been generated from an entry in the Cambridge 
# Structural Database, then it will include bibliographic, chemical, 
# crystal, experimental, refinement or atomic coordinate data resulting 
# from the CCDC's data processing and validation procedures.
#
#######################################################################

data_ULEGEY
_chemical_formula_moiety         'C22 H19 N1 O1 S2'
_chemical_name_systematic        
1-Benzyl-3,5-bis[(E)-3-thienylmethylidene]piperidin-4-one
_symmetry_cell_setting           triclinic
_symmetry_space_group_name_H-M   'P -1'
_symmetry_Int_Tables_number      2
_space_group_name_Hall           '-P 1'
loop_
_symmetry_equiv_pos_site_id
_symmetry_equiv_pos_as_xyz
1 x,y,z
2 -x,-y,-z
_cell_length_a                   6.1809(3)
_cell_length_b                   12.7391(9)
_cell_length_c                   12.9251(7)
_cell_angle_alpha                112.657(6)
_cell_angle_beta                 95.845(5)
_cell_angle_gamma                98.512(5)
_cell_volume                     914.648
_exptl_crystal_colour            colorless
_exptl_crystal_description       chunk
_chemical_melting_point          '429 K'
_cell_formula_units_Z            2
_exptl_crystal_recrystallization_method ethanol
loop_
_atom_site_label
_atom_site_type_symbol
_atom_site_fract_x
_atom_site_fract_y
_atom_site_fract_z
S1 S 0.18315(9) 1.03620(4) 0.61944(5)
S2 S 0.73267(10) 0.08626(5) 0.16709(6)
O1 O 0.8340(2) 0.63874(10) 0.50798(10)
N1 N 0.3176(2) 0.57437(11) 0.26094(11)
C1 C 0.3584(3) 0.46955(14) 0.27383(14)
C2 C 0.5717(3) 0.49305(13) 0.35403(13)
C3 C 0.6540(3) 0.61272(14) 0.44395(13)
C4 C 0.5080(3) 0.69853(13) 0.45572(13)
C5 C 0.2948(3) 0.66158(13) 0.37148(13)
C6 C 0.5750(3) 0.80356(12) 0.54314(13)
C7 C 0.4685(3) 0.90348(14) 0.5796(3)
C8 C 0.2461(4) 0.90208(14) 0.5516(3)
C9 C 0.4535(3) 1.0966(3) 0.6871(4)
C10 C 0.5831(4) 1.0177(2) 0.6602(3)
C11 C 0.6925(3) 0.41222(11) 0.34934(12)
C12 C 0.6495(7) 0.28977(15) 0.2719(3)
C13 C 0.8188(6) 0.22914(15) 0.2613(3)
C14 C 0.4666(3) 0.1060(3) 0.1415(4)
C15 C 0.4455(6) 0.2152(2) 0.2014(4)
C16 C 0.1124(3) 0.54282(14) 0.17762(14)
C17 C 0.0842(3) 0.63387(14) 0.13266(13)
C18 C 0.2395(3) 0.66337(15) 0.07197(14)
C19 C 0.2113(3) 0.74264(16) 0.02500(15)
C20 C 0.0256(3) 0.79278(16) 0.03671(15)
C21 C -0.1304(3) 0.76399(16) 0.09586(15)
C22 C -0.1007(3) 0.68515(15) 0.14398(14)
H1 H 0.36535 0.40961 0.19840
H2 H 0.25596 0.73017 0.36152
H3 H 0.17305 0.62863 0.40123
H4 H 0.23312 0.43872 0.30305
H5 H 0.11277 0.46894 0.11292
H6 H -0.01661 0.52956 0.21384
H7 H 0.36607 0.62866 0.06278
H8 H 0.31915 0.76265 -0.01525
H9 H 0.00581 0.84676 0.00415
H10 H -0.25789 0.79798 0.10372
H11 H -0.20800 0.66618 0.18501
H12 H 0.713(3) 0.8169(16) 0.5895(17)
H13 H 0.14054 0.83497 0.50085
H14 H 0.50486 1.17598 0.73726
H15 H 0.73660 1.03548 0.69141
H16 H 0.823(3) 0.4373(16) 0.4015(17)
H17 H 0.96646 0.26254 0.30162
H18 H 0.34781 0.04620 0.09052
H19 H 0.30930 0.24073 0.19759
C23? C 0.221(2) 0.9007(8) 0.5623(14)
C24? C 0.640(3) 0.2900(3) 0.2707(10)
C25? C 0.438(2) 0.2290(5) 0.2021(17)
C26? C 0.7253(7) 0.1115(10) 0.1784(12)
C27? C 0.800(3) 0.2159(10) 0.2558(16)
C28? C 0.4467(8) 0.8937(4) 0.5864(15)
C29? C 0.5804(14) 1.0004(7) 0.6512(15)
C30? C 0.1915(10) 1.0076(7) 0.6059(10)
H20? H 0.10440 0.83526 0.51955
H21? H 0.31035 0.26169 0.19782
H22? H 0.81485 0.05504 0.15365
H23? H 0.94614 0.24115 0.29862
H24? H 0.73734 1.01388 0.67126
H25? H 0.05409 1.02885 0.59182
S3? S 0.4253(4) 1.1062(3) 0.6913(4)
S4? S 0.4472(4) 0.0861(3) 0.1254(4)
loop_
_geom_bond_atom_site_label_1
_geom_bond_atom_site_label_2
_geom_bond_site_symmetry_1
_geom_bond_site_symmetry_2
S1 C8 1_555 1_555
S2 C13 1_555 1_555
O1 C3 1_555 1_555
N1 C1 1_555 1_555
C1 C2 1_555 1_555
C2 C3 1_555 1_555
C3 C4 1_555 1_555
C4 C5 1_555 1_555
C5 N1 1_555 1_555
C6 C4 1_555 1_555
C7 C6 1_555 1_555
C8 C7 1_555 1_555
C9 S1 1_555 1_555
C10 C7 1_555 1_555
C11 C2 1_555 1_555
C12 C11 1_555 1_555
C13 C12 1_555 1_555
C14 S2 1_555 1_555
C15 C12 1_555 1_555
C16 N1 1_555 1_555
C17 C16 1_555 1_555
C18 C17 1_555 1_555
C19 C18 1_555 1_555
C20 C19 1_555 1_555
C21 C20 1_555 1_555
C22 C17 1_555 1_555
H1 C1 1_555 1_555
H2 C5 1_555 1_555
H3 C5 1_555 1_555
H4 C1 1_555 1_555
H5 C16 1_555 1_555
H6 C16 1_555 1_555
H7 C18 1_555 1_555
H8 C19 1_555 1_555
H9 C20 1_555 1_555
H10 C21 1_555 1_555
H11 C22 1_555 1_555
H12 C6 1_555 1_555
H13 C8 1_555 1_555
H14 C9 1_555 1_555
H15 C10 1_555 1_555
H16 C11 1_555 1_555
H17 C13 1_555 1_555
H18 C14 1_555 1_555
H19 C15 1_555 1_555
C9 C10 1_555 1_555
C14 C15 1_555 1_555
C21 C22 1_555 1_555

#END
