
#######################################################################
#
#                 Cambridge Crystallographic Data Centre
#                                CCDC 
#
#######################################################################
#
# If this CIF has been generated from an entry in the Cambridge 
# Structural Database, then it will include bibliographic, chemical, 
# crystal, experimental, refinement or atomic coordinate data resulting 
# from the CCDC's data processing and validation procedures.
#
#######################################################################

data_ULELEE
_chemical_formula_moiety         'C30 H25 N1 O4 S1'
_chemical_name_systematic        
N-Benzyl-4-methyl-N-(4-(4-methylphenyl)-1-oxo-1H-isochromen-3-yl)benzenesulfonamide
_symmetry_cell_setting           triclinic
_symmetry_space_group_name_H-M   'P -1'
_symmetry_Int_Tables_number      2
_space_group_name_Hall           '-P 1'
loop_
_symmetry_equiv_pos_site_id
_symmetry_equiv_pos_as_xyz
1 x,y,z
2 -x,-y,-z
_cell_length_a                   12.2963(4)
_cell_length_b                   13.8393(4)
_cell_length_c                   16.8203(4)
_cell_angle_alpha                71.7040(10)
_cell_angle_beta                 82.1800(10)
_cell_angle_gamma                66.1200(10)
_cell_volume                     2484.87
_exptl_crystal_colour            colorless
_exptl_crystal_description       block
_cell_formula_units_Z            4
_exptl_crystal_recrystallization_method 'hexane/ethyl acetate'
loop_
_atom_site_label
_atom_site_type_symbol
_atom_site_fract_x
_atom_site_fract_y
_atom_site_fract_z
C1 C 0.8297(2) 0.3478(2) 0.44606(14)
C2 C 0.8319(3) 0.4456(2) 0.44964(17)
H1 H 0.7715 0.4906 0.4770
C3 C 0.9255(3) 0.4753(3) 0.4118(2)
H2 H 0.9276 0.5404 0.4149
C4 C 1.0149(3) 0.4118(3) 0.36979(19)
C5 C 1.0110(3) 0.3143(3) 0.36741(18)
H3 H 1.0717 0.2696 0.3399
C6 C 0.9196(2) 0.2814(2) 0.40472(16)
H4 H 0.9184 0.2157 0.4021
C7 C 1.1139(3) 0.4472(4) 0.3264(2)
H5 H 1.1031 0.5159 0.3351
H6 H 1.1127 0.4563 0.2675
H7 H 1.1889 0.3920 0.3491
C8 C 0.5658(2) 0.44964(19) 0.37156(16)
H8 H 0.6137 0.4915 0.3691
H9 H 0.4965 0.4748 0.4063
C9 C 0.5262(2) 0.47167(18) 0.28511(15)
C10 C 0.4067(2) 0.5134(2) 0.26785(18)
H10 H 0.3512 0.5225 0.3111
C11 C 0.3687(3) 0.5417(3) 0.1879(2)
H11 H 0.2877 0.5704 0.1773
C12 C 0.4474(4) 0.5282(3) 0.1245(2)
H12 H 0.4206 0.5484 0.0703
C13 C 0.5676(4) 0.4846(3) 0.1396(2)
H13 H 0.6222 0.4738 0.0961
C14 C 0.6065(2) 0.4569(2) 0.22039(18)
H14 H 0.6875 0.4282 0.2308
C15 C 0.3881(2) 0.2447(2) 0.46186(16)
C16 C 0.4260(2) 0.1534(2) 0.42567(15)
C17 C 0.3466(3) 0.1035(3) 0.42727(19)
H15 H 0.2714 0.1287 0.4513
C18 C 0.3794(3) 0.0180(3) 0.3936(2)
H16 H 0.3266 -0.0153 0.3947
C19 C 0.4913(3) -0.0196(3) 0.3575(2)
H17 H 0.5130 -0.0777 0.3343
C20 C 0.5710(2) 0.0286(2) 0.35559(17)
H18 H 0.6460 0.0024 0.3316
C21 C 0.53928(19) 0.11656(19) 0.38952(14)
C22 C 0.61860(18) 0.17228(18) 0.38651(14)
C23 C 0.57747(18) 0.25929(19) 0.41624(14)
C24 C 0.74175(18) 0.13237(17) 0.35189(14)
C25 C 0.7667(2) 0.1699(2) 0.26789(15)
H19 H 0.7054 0.2197 0.2311
C26 C 0.8835(2) 0.1335(2) 0.23807(17)
H20 H 0.8990 0.1596 0.1814
C27 C 0.9766(2) 0.0595(2) 0.29079(17)
C28 C 0.9503(2) 0.0190(2) 0.37360(17)
H21 H 1.0113 -0.0330 0.4099
C29 C 0.83499(19) 0.05416(19) 0.40375(15)
H22 H 0.8196 0.0249 0.4599
C30 C 1.1038(2) 0.0239(3) 0.2597(2)
H23 H 1.1556 -0.0272 0.3053
H24 H 1.1244 0.0872 0.2372
H25 H 1.1124 -0.0110 0.2168
N1 N 0.63617(16) 0.33060(15) 0.41077(12)
O1 O 0.64648(17) 0.37823(16) 0.54336(11)
O2 O 0.75797(15) 0.19037(14) 0.53221(10)
O3 O 0.29578(16) 0.28173(19) 0.49685(14)
O4 O 0.46701(13) 0.29471(14) 0.45416(11)
S1 S 0.71370(5) 0.30652(5) 0.49392(4)
C31 C 0.3274(3) -0.0509(2) 0.96106(16)
C32 C 0.3203(3) -0.1497(3) 0.96302(19)
H26 H 0.2603 -0.1704 0.9935
C33 C 0.4033(4) -0.2159(3) 0.9191(2)
H27 H 0.3988 -0.2819 0.9203
C34 C 0.4934(3) -0.1870(3) 0.8732(2)
C35 C 0.4999(3) -0.0904(3) 0.8746(2)
H28 H 0.5614 -0.0709 0.8457
C36 C 0.4182(3) -0.0223(3) 0.91753(19)
H29 H 0.4242 0.0427 0.9172
C37 C 0.5786(3) -0.2575(3) 0.8216(3)
H30 H 0.6347 -0.2253 0.7939
H31 H 0.5353 -0.2621 0.7805
H32 H 0.6203 -0.3301 0.8573
C38 C 0.0650(2) 0.0938(2) 0.88962(15)
H33 H -0.0118 0.1074 0.9178
H34 H 0.1051 0.0150 0.8977
C39 C 0.0471(2) 0.1518(2) 0.79811(14)
C40 C 0.1427(2) 0.1429(2) 0.74379(15)
H35 H 0.2193 0.1019 0.7647
C41 C 0.1275(3) 0.1932(2) 0.65949(16)
H36 H 0.1932 0.1871 0.6238
C42 C 0.0152(3) 0.2523(2) 0.62820(18)
H37 H 0.0042 0.2863 0.5710
C43 C -0.0811(3) 0.2614(3) 0.6811(2)
H38 H -0.1575 0.3014 0.6597
C44 C -0.0654(2) 0.2118(2) 0.76563(18)
H39 H -0.1314 0.2188 0.8012
C45 C -0.1068(2) 0.3657(3) 0.97037(17)
C46 C -0.0679(2) 0.4558(3) 0.92989(16)
C47 C -0.1428(3) 0.5618(3) 0.93144(19)
H40 H -0.2163 0.5738 0.9585
C48 C -0.1095(3) 0.6489(3) 0.8936(2)
H41 H -0.1603 0.7197 0.8948
C49 C 0.0009(3) 0.6310(3) 0.85309(19)
H42 H 0.0236 0.6901 0.8271
C50 C 0.0762(3) 0.5259(2) 0.85163(17)
H43 H 0.1494 0.5146 0.8243
C51 C 0.0439(2) 0.4364(2) 0.89067(14)
C52 C 0.1207(2) 0.3241(2) 0.89086(14)
C53 C 0.0810(2) 0.2438(2) 0.92773(14)
C54 C 0.2415(2) 0.3001(2) 0.85086(14)
C55 C 0.2580(2) 0.3104(2) 0.76615(15)
H44 H 0.1925 0.3347 0.7326
C56 C 0.3703(2) 0.2850(2) 0.73082(16)
H45 H 0.3794 0.2918 0.6738
C57 C 0.4693(2) 0.2499(2) 0.77827(18)
C58 C 0.4517(2) 0.2449(2) 0.86158(18)
H46 H 0.5168 0.2246 0.8943
C59 C 0.3400(2) 0.2693(2) 0.89796(15)
H47 H 0.3309 0.2649 0.9546
C60 C 0.5930(3) 0.2170(3) 0.7402(2)
H48 H 0.5880 0.2252 0.6818
H49 H 0.6395 0.1415 0.7683
H50 H 0.6301 0.2634 0.7463
N2 N 0.13714(18) 0.13290(19) 0.92719(12)
O5 O 0.1492(2) -0.0181(2) 1.06339(11)
O6 O 0.26437(18) 0.09711(18) 1.04359(11)
O7 O -0.20015(18) 0.3723(2) 1.00624(15)
O8 O -0.02856(16) 0.26255(18) 0.96784(11)
S2 S 0.21648(7) 0.04021(7) 1.00994(4)
loop_
_geom_bond_atom_site_label_1
_geom_bond_atom_site_label_2
_geom_bond_site_symmetry_1
_geom_bond_site_symmetry_2
C1 C2 1_555 1_555
C2 H1 1_555 1_555
C3 C2 1_555 1_555
H2 C3 1_555 1_555
C4 C3 1_555 1_555
C5 C4 1_555 1_555
H3 C5 1_555 1_555
C6 C1 1_555 1_555
H4 C6 1_555 1_555
C7 C4 1_555 1_555
H5 C7 1_555 1_555
H6 C7 1_555 1_555
H7 C7 1_555 1_555
C8 H8 1_555 1_555
H9 C8 1_555 1_555
C9 C8 1_555 1_555
C10 C9 1_555 1_555
H10 C10 1_555 1_555
C11 C10 1_555 1_555
H11 C11 1_555 1_555
C12 C11 1_555 1_555
H12 C12 1_555 1_555
C13 C12 1_555 1_555
H13 C13 1_555 1_555
C14 C9 1_555 1_555
H14 C14 1_555 1_555
C15 C16 1_555 1_555
C16 C17 1_555 1_555
C17 H15 1_555 1_555
C18 C17 1_555 1_555
H16 C18 1_555 1_555
C19 C18 1_555 1_555
H17 C19 1_555 1_555
C20 C19 1_555 1_555
H18 C20 1_555 1_555
C21 C16 1_555 1_555
C22 C21 1_555 1_555
C23 C22 1_555 1_555
C24 C22 1_555 1_555
C25 C24 1_555 1_555
H19 C25 1_555 1_555
C26 C25 1_555 1_555
H20 C26 1_555 1_555
C27 C26 1_555 1_555
C28 C27 1_555 1_555
H21 C28 1_555 1_555
C29 C24 1_555 1_555
H22 C29 1_555 1_555
C30 C27 1_555 1_555
H23 C30 1_555 1_555
H24 C30 1_555 1_555
H25 C30 1_555 1_555
N1 C8 1_555 1_555
O1 S1 1_555 1_555
O2 S1 1_555 1_555
O3 C15 1_555 1_555
O4 C15 1_555 1_555
S1 C1 1_555 1_555
C31 C32 1_555 1_555
C32 H26 1_555 1_555
C33 C32 1_555 1_555
H27 C33 1_555 1_555
C34 C33 1_555 1_555
C35 C34 1_555 1_555
H28 C35 1_555 1_555
C36 C31 1_555 1_555
H29 C36 1_555 1_555
C37 C34 1_555 1_555
H30 C37 1_555 1_555
H31 C37 1_555 1_555
H32 C37 1_555 1_555
C38 H33 1_555 1_555
H34 C38 1_555 1_555
C39 C38 1_555 1_555
C40 C39 1_555 1_555
H35 C40 1_555 1_555
C41 C40 1_555 1_555
H36 C41 1_555 1_555
C42 C41 1_555 1_555
H37 C42 1_555 1_555
C43 C42 1_555 1_555
H38 C43 1_555 1_555
C44 C39 1_555 1_555
H39 C44 1_555 1_555
C45 C46 1_555 1_555
C46 C47 1_555 1_555
C47 H40 1_555 1_555
C48 C47 1_555 1_555
H41 C48 1_555 1_555
C49 C48 1_555 1_555
H42 C49 1_555 1_555
C50 C49 1_555 1_555
H43 C50 1_555 1_555
C51 C46 1_555 1_555
C52 C51 1_555 1_555
C53 C52 1_555 1_555
C54 C52 1_555 1_555
C55 C54 1_555 1_555
H44 C55 1_555 1_555
C56 C55 1_555 1_555
H45 C56 1_555 1_555
C57 C56 1_555 1_555
C58 C57 1_555 1_555
H46 C58 1_555 1_555
C59 C54 1_555 1_555
H47 C59 1_555 1_555
C60 C57 1_555 1_555
H48 C60 1_555 1_555
H49 C60 1_555 1_555
H50 C60 1_555 1_555
N2 C38 1_555 1_555
O5 S2 1_555 1_555
O6 S2 1_555 1_555
O7 C45 1_555 1_555
O8 C45 1_555 1_555
S2 C31 1_555 1_555
C5 C6 1_555 1_555
C13 C14 1_555 1_555
C20 C21 1_555 1_555
C23 N1 1_555 1_555
C23 O4 1_555 1_555
C28 C29 1_555 1_555
N1 S1 1_555 1_555
C35 C36 1_555 1_555
C43 C44 1_555 1_555
C50 C51 1_555 1_555
C53 N2 1_555 1_555
C53 O8 1_555 1_555
C58 C59 1_555 1_555
N2 S2 1_555 1_555

#END
