
#######################################################################
#
#                 Cambridge Crystallographic Data Centre
#                                CCDC 
#
#######################################################################
#
# If this CIF has been generated from an entry in the Cambridge 
# Structural Database, then it will include bibliographic, chemical, 
# crystal, experimental, refinement or atomic coordinate data resulting 
# from the CCDC's data processing and validation procedures.
#
#######################################################################

data_ULEMAB
_chemical_formula_moiety         'C15 H24 Cl2 N2 O4'
_chemical_name_systematic        
1,1'-(9,9-diethoxy-3,7-diazabicyclo[3.3.1]nonane-3,7-diyl)bis(2-chloroethanone)
_symmetry_cell_setting           triclinic
_symmetry_space_group_name_H-M   'P -1'
_symmetry_Int_Tables_number      2
_space_group_name_Hall           '-P 1'
loop_
_symmetry_equiv_pos_site_id
_symmetry_equiv_pos_as_xyz
1 x,y,z
2 -x,-y,-z
_cell_length_a                   8.2504(11)
_cell_length_b                   9.6655(13)
_cell_length_c                   11.6169(15)
_cell_angle_alpha                100.4670(10)
_cell_angle_beta                 91.1200(10)
_cell_angle_gamma                107.5420(10)
_cell_volume                     865.871
_exptl_crystal_colour            colorless
_exptl_crystal_description       plate
_chemical_melting_point          '458 K'
_cell_formula_units_Z            2
loop_
_atom_site_label
_atom_site_type_symbol
_atom_site_fract_x
_atom_site_fract_y
_atom_site_fract_z
C1 C 0.33868(16) 0.10141(13) 0.00271(11)
C2 C 0.05345(16) 0.19684(14) -0.20044(11)
C3 C 0.47759(16) 0.17387(14) -0.17624(11)
C4 C 0.34517(15) 0.37935(13) -0.18228(11)
C5 C 0.16862(15) 0.38667(13) -0.01874(11)
C6 C 0.12381(15) 0.08017(13) -0.27030(11)
C7 C -0.00278(17) 0.32319(14) 0.02957(11)
C8 C 0.18833(17) -0.00609(14) -0.19102(12)
C9 C 0.26718(15) 0.15357(13) -0.34258(11)
C10 C 0.40985(15) 0.26045(13) -0.25378(11)
C11 C 0.49871(17) 0.20893(14) 0.07478(11)
C12 C 0.2586(2) -0.20122(17) -0.50834(15)
C13 C 0.23121(19) -0.05416(16) -0.50437(12)
C14 C 0.2046(2) 0.3675(2) -0.56319(18)
C15 C 0.30851(18) 0.31494(18) -0.48414(13)
H1 H 0.430(2) 0.4384(17) -0.1202(14)
H2 H 0.323(2) 0.4424(18) -0.2332(14)
H3 H 0.000(2) 0.2403(17) -0.2539(14)
H4 H -0.031(2) 0.1505(17) -0.1514(13)
H5 H 0.103(2) -0.0433(18) -0.1420(14)
H6 H 0.5664(19) 0.2428(16) -0.1210(13)
H7 H 0.520(2) 0.3052(19) 0.0604(14)
H8 H 0.503(2) 0.3099(17) -0.2949(13)
H9 H -0.092(2) 0.3386(18) -0.0183(15)
H10 H 0.031(2) 0.0096(17) -0.3226(13)
H11 H 0.5264(19) 0.1056(17) -0.2240(13)
H12 H 0.597(2) 0.1760(18) 0.0564(14)
H13 H -0.027(2) 0.2181(18) 0.0295(14)
H14 H 0.217(2) -0.0897(19) -0.2384(15)
H15 H 0.110(2) -0.0617(19) -0.4927(15)
H16 H 0.372(2) 0.2587(19) -0.5290(16)
H17 H 0.263(2) -0.019(2) -0.5775(17)
H18 H 0.392(2) 0.401(2) -0.4304(17)
H19 H 0.277(3) 0.431(2) -0.6111(18)
H20 H 0.145(3) 0.425(2) -0.5181(18)
H21 H 0.116(3) 0.283(3) -0.617(2)
H22 H 0.222(2) -0.238(2) -0.4371(18)
H23 H 0.191(3) -0.274(2) -0.5750(18)
H24 H 0.375(3) -0.193(2) -0.5125(17)
Cl1 Cl -0.00884(5) 0.41439(4) 0.17590(3)
Cl2 Cl 0.47918(5) 0.21781(4) 0.22733(3)
O1 O 0.27863(11) 0.49659(10) 0.03672(8)
O2 O 0.19422(11) 0.22531(10) -0.41552(8)
O3 O 0.33904(11) 0.05213(10) -0.40861(8)
N1 N 0.19000(13) 0.31524(11) -0.12533(9)
N2 N 0.34021(13) 0.08869(11) -0.11474(9)
O4 O 0.21838(14) 0.03095(12) 0.04994(9)
loop_
_geom_bond_atom_site_label_1
_geom_bond_atom_site_label_2
_geom_bond_site_symmetry_1
_geom_bond_site_symmetry_2
C1 C11 1_555 1_555
C2 C6 1_555 1_555
C3 C10 1_555 1_555
C4 C10 1_555 1_555
C5 C7 1_555 1_555
C6 C8 1_555 1_555
C7 H9 1_555 1_555
C8 H5 1_555 1_555
C9 C6 1_555 1_555
C10 C9 1_555 1_555
C11 H7 1_555 1_555
C12 C13 1_555 1_555
C13 H15 1_555 1_555
C14 C15 1_555 1_555
C15 H16 1_555 1_555
H1 C4 1_555 1_555
H2 C4 1_555 1_555
H3 C2 1_555 1_555
H4 C2 1_555 1_555
H6 C3 1_555 1_555
H8 C10 1_555 1_555
H10 C6 1_555 1_555
H11 C3 1_555 1_555
H12 C11 1_555 1_555
H13 C7 1_555 1_555
H14 C8 1_555 1_555
H17 C13 1_555 1_555
H18 C15 1_555 1_555
H19 C14 1_555 1_555
H20 C14 1_555 1_555
H21 C14 1_555 1_555
H22 C12 1_555 1_555
H23 C12 1_555 1_555
H24 C12 1_555 1_555
Cl1 C7 1_555 1_555
Cl2 C11 1_555 1_555
O1 C5 1_555 1_555
O2 C9 1_555 1_555
O3 C9 1_555 1_555
N1 C2 1_555 1_555
N2 C1 1_555 1_555
O4 C1 1_555 1_555
C3 N2 1_555 1_555
C4 N1 1_555 1_555
C5 N1 1_555 1_555
C8 N2 1_555 1_555
C13 O3 1_555 1_555
C15 O2 1_555 1_555

#END
