
#######################################################################
#
#                 Cambridge Crystallographic Data Centre
#                                CCDC 
#
#######################################################################
#
# If this CIF has been generated from an entry in the Cambridge 
# Structural Database, then it will include bibliographic, chemical, 
# crystal, experimental, refinement or atomic coordinate data resulting 
# from the CCDC's data processing and validation procedures.
#
#######################################################################

data_ULEMEF
_chemical_formula_moiety         'C33 H35 N1 O4 Si1'
_chemical_name_systematic        
'Isopropyl 4-((3-(4-(1,3-dioxolan-2-yl)phenyl)-1-(4-((trimethylsilyl)ethynyl)phenyl)prop-2-yn-1-yl)amino)benzoate'
_symmetry_cell_setting           triclinic
_symmetry_space_group_name_H-M   'P 1'
_symmetry_Int_Tables_number      1
_space_group_name_Hall           'P 1'
loop_
_symmetry_equiv_pos_site_id
_symmetry_equiv_pos_as_xyz
1 x,y,z
_cell_length_a                   8.4991(9)
_cell_length_b                   9.6789(10)
_cell_length_c                   10.3917(10)
_cell_angle_alpha                84.461(2)
_cell_angle_beta                 82.866(2)
_cell_angle_gamma                69.252(2)
_cell_volume                     791.942
_exptl_crystal_colour            colorless
_exptl_crystal_description       block
_cell_formula_units_Z            1
_exptl_crystal_recrystallization_method dichloromethane
loop_
_atom_site_label
_atom_site_type_symbol
_atom_site_fract_x
_atom_site_fract_y
_atom_site_fract_z
C1 C 0.8366(14) 0.0329(9) 1.3507(11)
H1 H 0.7181 0.0832 1.3432
H2 H 0.8534 -0.0611 1.3972
H3 H 0.8961 0.0178 1.2655
C2 C 0.7845(13) 0.2141(9) 1.5910(8)
H4 H 0.8347 0.2676 1.6361
H5 H 0.7742 0.1312 1.6455
H6 H 0.6745 0.2783 1.5698
C3 C 1.1399(13) 0.0433(9) 1.4743(9)
H7 H 1.2083 0.0141 1.3941
H8 H 1.1439 -0.0431 1.5295
H9 H 1.1821 0.1049 1.5169
C4 C 0.9149(8) 0.3136(6) 1.3363(6)
C5 C 0.9097(7) 0.4182(6) 1.2644(6)
C6 C 0.9018(7) 0.5428(5) 1.1705(5)
C7 C 1.0161(7) 0.5201(6) 1.0621(6)
H10 H 1.1018 0.4286 1.0531
C8 C 1.0050(6) 0.6314(5) 0.9664(5)
H11 H 1.0845 0.6144 0.8943
C9 C 0.8772(6) 0.7682(5) 0.9761(5)
C10 C 0.7652(7) 0.7910(6) 1.0883(6)
H12 H 0.6809 0.8830 1.0985
C11 C 0.7763(8) 0.6808(6) 1.1844(6)
H13 H 0.7001 0.6985 1.2585
C12 C 0.8611(6) 0.8882(5) 0.8690(5)
C13 C 0.9882(7) 0.9579(6) 0.8739(6)
C14 C 1.0828(7) 1.0198(6) 0.8887(6)
C15 C 1.1935(7) 1.0994(7) 0.9001(7)
C16 C 1.2718(9) 1.0824(8) 1.0114(9)
H14 H 1.2546 1.0210 1.0821
C17 C 1.3884(9) 1.1704(10) 1.0116(11)
H15 H 1.4488 1.1658 1.0816
C18 C 1.3985(10) 1.2615(9) 0.8952(13)
C19 C 1.3196(15) 1.2750(14) 0.8030(13)
H16 H 1.3272 1.3423 0.7345
C20 C 1.2243(12) 1.1968(9) 0.7982(9)
H17 H 1.1728 1.2056 0.7224
C21 C 1.5248(13) 1.3420(15) 0.924(3)
H18 H 1.53(3) 1.40(3) 0.84(3)
C22 C 1.7572(12) 1.3496(13) 0.9660(13)
H19 H 1.8302 1.3725 0.8943
H20 H 1.8227 1.3061 1.0391
C23 C 1.6108(15) 1.4831(11) 1.0023(19)
H21 H 1.6166 1.5088 1.0892
H22 H 1.6107 1.5662 0.9422
C24 C 0.7545(6) 0.7826(5) 0.7052(5)
C25 C 0.5893(7) 0.8250(6) 0.7653(6)
H23 H 0.5585 0.8868 0.8342
C26 C 0.4728(6) 0.7762(6) 0.7237(6)
H24 H 0.3636 0.8067 0.7651
C27 C 0.5101(6) 0.6849(6) 0.6244(5)
C28 C 0.6754(6) 0.6413(6) 0.5619(5)
H25 H 0.7039 0.5809 0.4921
C29 C 0.7947(6) 0.6873(6) 0.6035(5)
H26 H 0.9045 0.6545 0.5633
C30 C 0.3761(7) 0.6409(7) 0.5806(6)
C31 C 0.3014(10) 0.5158(15) 0.4187(11)
H27 H 0.206(15) 0.517(12) 0.483(12)
C32 C 0.3850(14) 0.3683(13) 0.3712(12)
H28 H 0.4801 0.3677 0.3106
H29 H 0.3069 0.3413 0.3287
H30 H 0.4230 0.2988 0.4428
C33 C 0.2437(17) 0.6383(13) 0.3129(18)
H31 H 0.3371 0.6338 0.2492
H32 H 0.2028 0.7327 0.3509
H33 H 0.1547 0.6256 0.2722
H34 H 0.75(3) 0.97(2) 0.89(2)
H35 H 0.97(3) 0.79(2) 0.70(2)
N1 N 0.8759(5) 0.8340(5) 0.7399(4)
O1 O 1.4658(7) 1.4500(5) 0.9976(8)
O2 O 1.6804(6) 1.2565(7) 0.9301(7)
O3 O 0.2354(5) 0.6723(5) 0.6336(4)
O4 O 0.4270(6) 0.5579(8) 0.4784(5)
Si1 Si 0.9190(2) 0.14761(19) 1.4406(2)
loop_
_geom_bond_atom_site_label_1
_geom_bond_atom_site_label_2
_geom_bond_site_symmetry_1
_geom_bond_site_symmetry_2
C1 H1 1_555 1_555
H2 C1 1_555 1_555
H3 C1 1_555 1_555
C2 H4 1_555 1_555
H5 C2 1_555 1_555
H6 C2 1_555 1_555
C3 H7 1_555 1_555
H8 C3 1_555 1_555
H9 C3 1_555 1_555
C4 C5 1_555 1_555
C5 C6 1_555 1_555
C6 C7 1_555 1_555
C7 H10 1_555 1_555
C8 C7 1_555 1_555
H11 C8 1_555 1_555
C9 C8 1_555 1_555
C10 C9 1_555 1_555
H12 C10 1_555 1_555
C11 C6 1_555 1_555
H13 C11 1_555 1_555
C12 C9 1_555 1_555
C13 C12 1_555 1_555
C14 C13 1_555 1_555
C15 C14 1_555 1_555
C16 C15 1_555 1_555
H14 C16 1_555 1_555
C17 C16 1_555 1_555
H15 C17 1_555 1_555
C18 C17 1_555 1_555
C19 C18 1_555 1_555
H16 C19 1_555 1_555
C20 C15 1_555 1_555
H17 C20 1_555 1_555
C21 C18 1_555 1_555
H18 C21 1_555 1_555
C22 H19 1_555 1_555
H20 C22 1_555 1_555
C23 C22 1_555 1_555
H21 C23 1_555 1_555
H22 C23 1_555 1_555
C24 C25 1_555 1_555
C25 H23 1_555 1_555
C26 C25 1_555 1_555
H24 C26 1_555 1_555
C27 C26 1_555 1_555
C28 C27 1_555 1_555
H25 C28 1_555 1_555
C29 C24 1_555 1_555
H26 C29 1_555 1_555
C30 C27 1_555 1_555
C31 H27 1_555 1_555
C32 C31 1_555 1_555
H28 C32 1_555 1_555
H29 C32 1_555 1_555
H30 C32 1_555 1_555
C33 C31 1_555 1_555
H31 C33 1_555 1_555
H32 C33 1_555 1_555
H33 C33 1_555 1_555
H34 C12 1_555 1_555
H35 N1 1_555 1_555
N1 C12 1_555 1_555
O1 C21 1_555 1_555
O2 C21 1_555 1_555
O3 C30 1_555 1_555
O4 C30 1_555 1_555
Si1 C1 1_555 1_555
C2 Si1 1_555 1_555
C3 Si1 1_555 1_555
C4 Si1 1_555 1_555
C10 C11 1_555 1_555
C19 C20 1_555 1_555
C22 O2 1_555 1_555
C23 O1 1_555 1_555
C24 N1 1_555 1_555
C28 C29 1_555 1_555
C31 O4 1_555 1_555

#END
