
#######################################################################
#
#                 Cambridge Crystallographic Data Centre
#                                CCDC 
#
#######################################################################
#
# If this CIF has been generated from an entry in the Cambridge 
# Structural Database, then it will include bibliographic, chemical, 
# crystal, experimental, refinement or atomic coordinate data resulting 
# from the CCDC's data processing and validation procedures.
#
#######################################################################

data_ULEZER
_chemical_name_common            
(2-Methyl-6-phenyl-1-propylpyridin-4(1H)-ylidene)malononitrile
_chemical_formula_moiety         'C18 H17 N3'
_chemical_name_systematic        
2-(2-Methyl-6-phenyl-1-propyl-1,4-dihydropyridin-4-ylidene)propanedinitrile
_symmetry_cell_setting           monoclinic
_symmetry_space_group_name_H-M   'P 21/c'
_symmetry_Int_Tables_number      14
_space_group_name_Hall           '-P 2ybc'
loop_
_symmetry_equiv_pos_site_id
_symmetry_equiv_pos_as_xyz
1 x,y,z
2 -x,1/2+y,1/2-z
3 -x,-y,-z
4 x,1/2-y,1/2+z
_cell_length_a                   11.5580(7)
_cell_length_b                   9.9179(6)
_cell_length_c                   13.9268(7)
_cell_angle_alpha                90
_cell_angle_beta                 105.707(2)
_cell_angle_gamma                90
_cell_volume                     1536.83
_exptl_crystal_colour            yellow
_exptl_crystal_description       block
_chemical_melting_point          '166-167 deg.C'
_cell_formula_units_Z            4
_exptl_crystal_recrystallization_method methanol
loop_
_atom_site_label
_atom_site_type_symbol
_atom_site_fract_x
_atom_site_fract_y
_atom_site_fract_z
C1 C 0.86513(14) 0.37654(15) 0.41005(10)
C2 C 0.94627(14) 0.43142(16) 0.36078(11)
H1 H 1.0277 0.4120 0.3851
C3 C 0.90918(14) 0.51234(16) 0.27834(11)
C4 C 0.70719(14) 0.49082(15) 0.28609(10)
C5 C 0.74344(14) 0.41302(16) 0.36931(11)
H2 H 0.6864 0.3829 0.4004
C6 C 0.57636(14) 0.51915(15) 0.24329(11)
C7 C 0.51068(15) 0.45459(18) 0.15657(12)
H3 H 0.5498 0.3993 0.1214
C8 C 0.38795(16) 0.4724(2) 0.12290(13)
H4 H 0.3443 0.4281 0.0657
C9 C 0.32989(16) 0.55609(19) 0.17404(13)
H5 H 0.2473 0.5686 0.1506
C10 C 0.39303(17) 0.62090(19) 0.25902(14)
H6 H 0.3534 0.6773 0.2931
C11 C 0.51660(15) 0.60193(18) 0.29407(12)
H7 H 0.5594 0.6452 0.3521
C12 C 0.90262(14) 0.28936(16) 0.49335(11)
C13 C 0.82087(16) 0.24072(17) 0.54461(12)
C14 C 1.02361(17) 0.24658(18) 0.52802(12)
C15 C 0.74831(15) 0.63071(16) 0.15180(11)
H8 H 0.6704 0.5997 0.1122
H9 H 0.8041 0.6235 0.1110
C16 C 0.73834(19) 0.77697(18) 0.17897(12)
H10 H 0.8174 0.8115 0.2129
H11 H 0.6877 0.7844 0.2241
C17 C 0.6847(2) 0.8605(2) 0.08532(15)
H12 H 0.6826 0.9537 0.1032
H13 H 0.6045 0.8298 0.0542
H14 H 0.7333 0.8503 0.0397
C18 C 0.99893(17) 0.5697(2) 0.22903(14)
H15 H 0.9884 0.6655 0.2224
H16 H 0.9869 0.5300 0.1642
H17 H 1.0788 0.5500 0.2690
N1 N 0.78979(11) 0.54168(13) 0.24021(9)
N2 N 0.75433(16) 0.20179(18) 0.58685(12)
N3 N 1.12223(16) 0.2122(2) 0.55469(12)
loop_
_geom_bond_atom_site_label_1
_geom_bond_atom_site_label_2
_geom_bond_site_symmetry_1
_geom_bond_site_symmetry_2
C1 C2 1_555 1_555
C2 H1 1_555 1_555
C3 C2 1_555 1_555
C4 C5 1_555 1_555
C5 C1 1_555 1_555
H2 C5 1_555 1_555
C6 C4 1_555 1_555
C7 C6 1_555 1_555
H3 C7 1_555 1_555
C8 C7 1_555 1_555
H4 C8 1_555 1_555
C9 C8 1_555 1_555
H5 C9 1_555 1_555
C10 C9 1_555 1_555
H6 C10 1_555 1_555
C11 C6 1_555 1_555
H7 C11 1_555 1_555
C12 C1 1_555 1_555
C13 C12 1_555 1_555
C14 C12 1_555 1_555
C15 H8 1_555 1_555
H9 C15 1_555 1_555
C16 C15 1_555 1_555
H10 C16 1_555 1_555
H11 C16 1_555 1_555
C17 C16 1_555 1_555
H12 C17 1_555 1_555
H13 C17 1_555 1_555
H14 C17 1_555 1_555
C18 C3 1_555 1_555
H15 C18 1_555 1_555
H16 C18 1_555 1_555
H17 C18 1_555 1_555
N1 C3 1_555 1_555
N2 C13 1_555 1_555
N3 C14 1_555 1_555
C4 N1 1_555 1_555
C10 C11 1_555 1_555
C15 N1 1_555 1_555

#END
