
#######################################################################
#
#                 Cambridge Crystallographic Data Centre
#                                CCDC 
#
#######################################################################
#
# If this CIF has been generated from an entry in the Cambridge 
# Structural Database, then it will include bibliographic, chemical, 
# crystal, experimental, refinement or atomic coordinate data resulting 
# from the CCDC's data processing and validation procedures.
#
#######################################################################

data_ULIBEX
_chemical_name_common            
'(1R,2R)-(Pyridin-4-ylmethyl)cyclohexane-1,2-diamine hydrochloride'
_chemical_formula_moiety         'C12 H20 N3 1+,Cl1 1-'
_chemical_name_systematic        
'(1R,2R)-2-(Pyridin-4-ylmethylamino)cyclohexanaminium chloride'
_symmetry_cell_setting           orthorhombic
_symmetry_space_group_name_H-M   'P 21 21 21'
_symmetry_Int_Tables_number      19
_space_group_name_Hall           'P 2ac 2ab'
loop_
_symmetry_equiv_pos_site_id
_symmetry_equiv_pos_as_xyz
1 x,y,z
2 1/2-x,-y,1/2+z
3 -x,1/2+y,1/2-z
4 1/2+x,1/2-y,-z
_cell_length_a                   5.5256(10)
_cell_length_b                   13.928(2)
_cell_length_c                   16.685(3)
_cell_angle_alpha                90
_cell_angle_beta                 90
_cell_angle_gamma                90
_cell_volume                     1284.09
_exptl_crystal_colour            colorless
_exptl_crystal_description       block
_cell_formula_units_Z            4
loop_
_atom_site_label
_atom_site_type_symbol
_atom_site_fract_x
_atom_site_fract_y
_atom_site_fract_z
Cl1 Cl 0.80278(10) -0.57398(4) -0.18879(4)
C1 C 0.2910(4) -0.76369(13) -0.19230(10)
H1 H 0.1413 -0.7975 -0.2063
C2 C 0.2862(4) -0.74096(15) -0.10296(10)
H2 H 0.4249 -0.7015 -0.0894
H3 H 0.1410 -0.7048 -0.0905
C3 C 0.2912(5) -0.83212(16) -0.05335(12)
H4 H 0.2945 -0.8158 0.0032
H5 H 0.1459 -0.8692 -0.0636
C4 C 0.5108(5) -0.89136(16) -0.07397(12)
H6 H 0.5090 -0.9502 -0.0429
H7 H 0.6559 -0.8560 -0.0599
C5 C 0.5163(5) -0.91576(15) -0.16282(12)
H8 H 0.3803 -0.9571 -0.1754
H9 H 0.6636 -0.9509 -0.1746
C6 C 0.5051(4) -0.82635(13) -0.21600(10)
H10 H 0.6531 -0.7892 -0.2067
C7 C 0.7097(5) -0.89100(19) -0.33387(12)
H11 H 0.7163 -0.9575 -0.3168
H12 H 0.8493 -0.8583 -0.3116
C8 C 0.7219(4) -0.88678(13) -0.42405(11)
C9 C 0.9147(4) -0.84386(15) -0.46266(14)
H13 H 1.0437 -0.8198 -0.4330
C10 C 0.9160(5) -0.83668(16) -0.54485(14)
H14 H 1.0495 -0.8084 -0.5693
C11 C 0.5538(4) -0.91212(16) -0.55406(12)
H15 H 0.4288 -0.9367 -0.5852
C12 C 0.5397(4) -0.92329(16) -0.47230(12)
H16 H 0.4087 -0.9551 -0.4495
N1 N 0.2983(3) -0.67078(11) -0.23746(9)
H17 H 0.3011 -0.6827 -0.2899
H18 H 0.4305 -0.6382 -0.2237
H19 H 0.1676 -0.6362 -0.2256
N2 N 0.4907(3) -0.84717(12) -0.30272(9)
H20 H 0.3781 -0.8927 -0.3056
N3 N 0.7369(4) -0.86795(12) -0.59140(10)
loop_
_geom_bond_atom_site_label_1
_geom_bond_atom_site_label_2
_geom_bond_site_symmetry_1
_geom_bond_site_symmetry_2
C1 H1 1_555 1_555
C2 C1 1_555 1_555
H2 C2 1_555 1_555
H3 C2 1_555 1_555
C3 C2 1_555 1_555
H4 C3 1_555 1_555
H5 C3 1_555 1_555
C4 C3 1_555 1_555
H6 C4 1_555 1_555
H7 C4 1_555 1_555
C5 C4 1_555 1_555
H8 C5 1_555 1_555
H9 C5 1_555 1_555
C6 C1 1_555 1_555
H10 C6 1_555 1_555
C7 H11 1_555 1_555
H12 C7 1_555 1_555
C8 C7 1_555 1_555
C9 C8 1_555 1_555
H13 C9 1_555 1_555
C10 C9 1_555 1_555
H14 C10 1_555 1_555
C11 H15 1_555 1_555
C12 C8 1_555 1_555
H16 C12 1_555 1_555
N1 C1 1_555 1_555
H17 N1 1_555 1_555
H18 N1 1_555 1_555
H19 N1 1_555 1_555
N2 C6 1_555 1_555
H20 N2 1_555 1_555
N3 C10 1_555 1_555
C5 C6 1_555 1_555
C7 N2 1_555 1_555
C11 C12 1_555 1_555
C11 N3 1_555 1_555

#END
