
#######################################################################
#
#                 Cambridge Crystallographic Data Centre
#                                CCDC 
#
#######################################################################
#
# If this CIF has been generated from an entry in the Cambridge 
# Structural Database, then it will include bibliographic, chemical, 
# crystal, experimental, refinement or atomic coordinate data resulting 
# from the CCDC's data processing and validation procedures.
#
#######################################################################

data_ULICOI
_chemical_formula_moiety         'C15 H9 F4 N3 O2 S1'
_chemical_name_systematic        
N-((4-Carbamoylphenyl)carbamothioyl)-2,3,4,5-tetrafluorobenzamide
_symmetry_cell_setting           monoclinic
_symmetry_space_group_name_H-M   'P 21/c'
_symmetry_Int_Tables_number      14
_space_group_name_Hall           '-P 2ybc'
loop_
_symmetry_equiv_pos_site_id
_symmetry_equiv_pos_as_xyz
1 x,y,z
2 -x,1/2+y,1/2-z
3 -x,-y,-z
4 x,1/2-y,1/2+z
_cell_length_a                   7.4246(3)
_cell_length_b                   20.3368(7)
_cell_length_c                   9.8954(4)
_cell_angle_alpha                90
_cell_angle_beta                 95.554(3)
_cell_angle_gamma                90
_cell_volume                     1487.12
_exptl_crystal_colour            colorless
_exptl_crystal_description       block
_cell_formula_units_Z            4
_exptl_crystal_recrystallization_method 'ethyl acetate'
loop_
_atom_site_label
_atom_site_type_symbol
_atom_site_fract_x
_atom_site_fract_y
_atom_site_fract_z
S1 S 0.41600(7) 0.40876(2) 0.28889(6)
F1 F 0.98701(18) 0.10215(6) -0.07009(12)
F2 F 0.66951(14) 0.21050(5) 0.34645(9)
F3 F 0.72451(16) 0.08149(5) 0.33952(12)
F4 F 0.87569(17) 0.02540(5) 0.12899(13)
O1 O 0.66762(17) 0.73716(6) 0.33958(11)
O2 O 0.91223(18) 0.33325(6) 0.09914(14)
N1 N 0.7405(2) 0.75363(7) 0.12865(14)
H1 H 0.7340 0.7956 0.1382
H2 H 0.7683 0.7373 0.0532
N2 N 0.7175(2) 0.43553(7) 0.17165(14)
H3 H 0.8046 0.4200 0.1300
N3 N 0.64026(19) 0.32604(7) 0.18763(14)
H4 H 0.5580 0.2981 0.2036
C1 C 0.7076(2) 0.71401(8) 0.23066(16)
C2 C 0.7164(2) 0.64135(8) 0.21097(16)
C3 C 0.7548(3) 0.61151(9) 0.09123(18)
H5 H 0.7823 0.6372 0.0182
C4 C 0.7524(3) 0.54374(9) 0.07970(18)
H6 H 0.7771 0.5241 -0.0013
C5 C 0.7133(2) 0.50499(8) 0.18833(17)
C6 C 0.6795(2) 0.53412(8) 0.30877(17)
H7 H 0.6566 0.5083 0.3828
C7 C 0.6796(2) 0.60191(8) 0.31958(16)
H8 H 0.6546 0.6214 0.4007
C8 C 0.6006(2) 0.39170(8) 0.21371(17)
C9 C 0.7920(2) 0.30012(9) 0.14025(17)
C10 C 0.8043(2) 0.22623(8) 0.14010(16)
C11 C 0.8887(2) 0.19686(9) 0.03581(18)
H9 H 0.9315 0.2228 -0.0316
C12 C 0.9089(2) 0.13022(9) 0.03208(19)
C13 C 0.8521(3) 0.09051(8) 0.1325(2)
C14 C 0.7735(2) 0.11852(8) 0.23825(18)
C15 C 0.7476(2) 0.18583(8) 0.24020(16)
loop_
_geom_bond_atom_site_label_1
_geom_bond_atom_site_label_2
_geom_bond_site_symmetry_1
_geom_bond_site_symmetry_2
S1 C8 1_555 1_555
F1 C12 1_555 1_555
F2 C15 1_555 1_555
F3 C14 1_555 1_555
F4 C13 1_555 1_555
O1 C1 1_555 1_555
O2 C9 1_555 1_555
N1 H1 1_555 1_555
H2 N1 1_555 1_555
N2 H3 1_555 1_555
N3 H4 1_555 1_555
C1 N1 1_555 1_555
C2 C1 1_555 1_555
C3 C2 1_555 1_555
H5 C3 1_555 1_555
C4 C3 1_555 1_555
H6 C4 1_555 1_555
C5 N2 1_555 1_555
C6 C5 1_555 1_555
H7 C6 1_555 1_555
C7 C2 1_555 1_555
H8 C7 1_555 1_555
C8 N2 1_555 1_555
C9 N3 1_555 1_555
C10 C9 1_555 1_555
C11 C10 1_555 1_555
H9 C11 1_555 1_555
C12 C11 1_555 1_555
C13 C12 1_555 1_555
C14 C13 1_555 1_555
C15 C10 1_555 1_555
N3 C8 1_555 1_555
C4 C5 1_555 1_555
C6 C7 1_555 1_555
C14 C15 1_555 1_555

#END
