
#######################################################################
#
#                 Cambridge Crystallographic Data Centre
#                                CCDC 
#
#######################################################################
#
# If this CIF has been generated from an entry in the Cambridge 
# Structural Database, then it will include bibliographic, chemical, 
# crystal, experimental, refinement or atomic coordinate data resulting 
# from the CCDC's data processing and validation procedures.
#
#######################################################################

data_ULIKOQ
_chemical_formula_moiety         'C23 H14 N4 O1'
_chemical_name_systematic        
1-(1H-Imidazo[4,5-f][1,10]phenanthrolin-2-yl)naphthalen-2-ol
_symmetry_cell_setting           tetragonal
_symmetry_space_group_name_H-M   'I 41 c d'
_symmetry_Int_Tables_number      110
_space_group_name_Hall           'I 4bw -2c'
loop_
_symmetry_equiv_pos_site_id
_symmetry_equiv_pos_as_xyz
1 x,y,z
2 -x,-y,z
3 -y,1/2+x,1/4+z
4 y,1/2-x,1/4+z
5 -x,y,1/2+z
6 x,-y,1/2+z
7 1/2+y,x,1/4+z
8 1/2-y,-x,1/4+z
9 1/2+x,1/2+y,1/2+z
10 1/2-x,1/2-y,1/2+z
11 1/2-y,x,3/4+z
12 1/2+y,-x,3/4+z
13 1/2-x,1/2+y,z
14 1/2+x,1/2-y,z
15 y,1/2+x,3/4+z
16 -y,1/2-x,3/4+z
_cell_length_a                   22.5800(4)
_cell_length_b                   22.5800(4)
_cell_length_c                   13.7196(5)
_cell_angle_alpha                90
_cell_angle_beta                 90
_cell_angle_gamma                90
_cell_volume                     6995.03
_exptl_crystal_colour            'pale yellow'
_exptl_crystal_description       block
_cell_formula_units_Z            16
loop_
_atom_site_label
_atom_site_type_symbol
_atom_site_fract_x
_atom_site_fract_y
_atom_site_fract_z
N1 N 0.15231(6) 0.04557(6) 0.26423(9)
H1 H 0.1345 0.0224 0.3045
O1 O 0.15580(7) 0.17926(6) 0.40232(9)
H2 H 0.1466 0.2049 0.4418
N2 N 0.14620(7) 0.08057(7) -0.13144(9)
C1 C 0.19348(7) 0.14069(7) 0.44439(12)
N3 N 0.08332(6) -0.01202(7) -0.06297(11)
C2 C 0.11269(7) 0.02173(7) 0.00293(11)
C3 C 0.19309(6) 0.08738(6) 0.28685(10)
N4 N 0.21230(5) 0.11616(5) 0.20892(9)
C4 C 0.18392(7) 0.10501(6) 0.02914(10)
C5 C 0.14849(6) 0.07058(7) -0.03403(10)
C6 C 0.25212(6) 0.05078(7) 0.42951(11)
C7 C 0.21381(7) 0.09461(7) 0.38867(11)
C8 C 0.31013(8) -0.03905(8) 0.41619(17)
H3 H 0.3238 -0.0707 0.3791
C9 C 0.14476(6) 0.04705(6) 0.16521(10)
C10 C 0.21610(9) 0.15939(8) -0.11023(13)
H4 H 0.2389 0.1889 -0.1391
C11 C 0.27385(7) 0.00224(8) 0.37510(13)
H5 H 0.2632 -0.0016 0.3099
C12 C 0.30698(8) 0.01212(10) 0.56875(15)
H6 H 0.3185 0.0151 0.6337
C13 C 0.21017(8) 0.14513(9) 0.54344(13)
H7 H 0.1961 0.1762 0.5815
C14 C 0.10968(7) 0.01000(7) 0.10380(11)
C15 C 0.18153(6) 0.09101(6) 0.13142(10)
C16 C 0.07478(8) -0.03699(8) 0.13643(14)
H8 H 0.0721 -0.0458 0.2025
C17 C 0.26900(7) 0.05588(8) 0.52860(13)
C18 C 0.17893(9) 0.12442(9) -0.16609(13)
H9 H 0.1768 0.1323 -0.2325
C19 C 0.24695(8) 0.10373(10) 0.58300(13)
H10 H 0.2578 0.1073 0.6481
C20 C 0.05054(10) -0.05570(10) -0.02947(17)
H11 H 0.0300 -0.0787 -0.0744
C21 C 0.04461(9) -0.06976(9) 0.06877(17)
H12 H 0.0205 -0.1010 0.0882
C22 C 0.21879(8) 0.14991(7) -0.01156(12)
H13 H 0.2433 0.1729 0.0276
C23 C 0.32682(9) -0.03397(10) 0.51413(19)
H14 H 0.3516 -0.0623 0.5419
loop_
_geom_bond_atom_site_label_1
_geom_bond_atom_site_label_2
_geom_bond_site_symmetry_1
_geom_bond_site_symmetry_2
N1 H1 1_555 1_555
O1 H2 1_555 1_555
N2 C5 1_555 1_555
C1 O1 1_555 1_555
N3 C2 1_555 1_555
C2 C5 1_555 1_555
C3 N1 1_555 1_555
N4 C3 1_555 1_555
C4 C5 1_555 1_555
C6 C7 1_555 1_555
C7 C1 1_555 1_555
C8 H3 1_555 1_555
C9 N1 1_555 1_555
C10 H4 1_555 1_555
C11 C6 1_555 1_555
H5 C11 1_555 1_555
C12 H6 1_555 1_555
C13 C1 1_555 1_555
H7 C13 1_555 1_555
C14 C2 1_555 1_555
C15 N4 1_555 1_555
C16 C14 1_555 1_555
H8 C16 1_555 1_555
C17 C6 1_555 1_555
C18 N2 1_555 1_555
H9 C18 1_555 1_555
C19 C13 1_555 1_555
H10 C19 1_555 1_555
C20 N3 1_555 1_555
H11 C20 1_555 1_555
C21 C16 1_555 1_555
H12 C21 1_555 1_555
C22 C4 1_555 1_555
H13 C22 1_555 1_555
C23 C8 1_555 1_555
H14 C23 1_555 1_555
C3 C7 1_555 1_555
C4 C15 1_555 1_555
C8 C11 1_555 1_555
C9 C14 1_555 1_555
C9 C15 1_555 1_555
C10 C18 1_555 1_555
C10 C22 1_555 1_555
C12 C17 1_555 1_555
C12 C23 1_555 1_555
C17 C19 1_555 1_555
C20 C21 1_555 1_555

#END
