
#######################################################################
#
#                 Cambridge Crystallographic Data Centre
#                                CCDC 
#
#######################################################################
#
# If this CIF has been generated from an entry in the Cambridge 
# Structural Database, then it will include bibliographic, chemical, 
# crystal, experimental, refinement or atomic coordinate data resulting 
# from the CCDC's data processing and validation procedures.
#
#######################################################################

data_ULILUX
_chemical_formula_moiety         'C20 H27 Br1 O4'
_chemical_name_systematic        
'[(2R,5R,6S,9R)-6-Isopropyl-9-methyl-1,4-dioxaspiro[4.5]decan-2-yl]methyl 4-bromobenzoate'
_symmetry_cell_setting           monoclinic
_symmetry_space_group_name_H-M   'C 2'
_symmetry_Int_Tables_number      5
_space_group_name_Hall           'C 2y'
loop_
_symmetry_equiv_pos_site_id
_symmetry_equiv_pos_as_xyz
1 x,y,z
2 -x,y,-z
3 1/2+x,1/2+y,z
4 1/2-x,1/2+y,-z
_cell_length_a                   42.976(7)
_cell_length_b                   5.5763(9)
_cell_length_c                   16.072(3)
_cell_angle_alpha                90
_cell_angle_beta                 92.618(2)
_cell_angle_gamma                90
_cell_volume                     3847.59
_exptl_crystal_colour            colorless
_exptl_crystal_description       needle
_chemical_melting_point          '353.5-354 K'
_cell_formula_units_Z            8
loop_
_atom_site_label
_atom_site_type_symbol
_atom_site_fract_x
_atom_site_fract_y
_atom_site_fract_z
Br1 Br 0.677987(16) 0.69491(10) 0.98525(5)
C1 C 0.79543(14) 0.4707(12) 0.7970(4)
C2 C 0.76758(14) 0.5328(11) 0.8445(4)
C3 C 0.74302(14) 0.3702(11) 0.8413(4)
H1 H 0.7448 0.2269 0.8099
C4 C 0.71634(15) 0.4125(12) 0.8826(4)
H2 H 0.6998 0.2990 0.8814
C5 C 0.71416(17) 0.6295(9) 0.9266(5)
C6 C 0.73825(16) 0.7922(11) 0.9304(4)
H3 H 0.7365 0.9360 0.9615
C7 C 0.76521(14) 0.7446(12) 0.8881(4)
H4 H 0.7818 0.8571 0.8894
C8 C 0.84603(15) 0.6051(12) 0.7615(5)
H5 H 0.8517 0.7596 0.7359
H6 H 0.8419 0.4871 0.7163
C9 C 0.87254(10) 0.5184(8) 0.8185(3)
H7 H 0.8746 0.6223 0.8691
C10 C 0.86975(11) 0.2539(9) 0.8437(3)
H8 H 0.8786 0.2267 0.9009
H9 H 0.8478 0.2005 0.8404
C11 C 0.91262(10) 0.2894(9) 0.7673(3)
C12 C 0.93969(12) 0.2590(10) 0.8319(3)
H10 H 0.9557 0.3822 0.8221
H11 H 0.9320 0.2852 0.8883
C13 C 0.95462(12) 0.0102(10) 0.8282(3)
H12 H 0.9388 -0.1127 0.8423
C14 C 0.96479(11) -0.0364(10) 0.7392(3)
H13 H 0.9817 0.0764 0.7263
H14 H 0.9731 -0.2014 0.7357
C15 C 0.93810(12) -0.0064(10) 0.6753(3)
H15 H 0.9220 -0.1289 0.6850
H16 H 0.9458 -0.0324 0.6189
C16 C 0.92351(11) 0.2444(9) 0.6798(3)
H17 H 0.9408 0.3608 0.6715
C17 C 0.89885(11) 0.2924(9) 0.6090(3)
H18 H 0.8856 0.4287 0.6270
C18 C 0.87701(16) 0.0784(15) 0.5892(5)
H19 H 0.8662 0.0337 0.6394
H20 H 0.8893 -0.0582 0.5707
H21 H 0.8616 0.1237 0.5450
C19 C 0.91434(13) 0.3708(10) 0.5304(3)
H22 H 0.8983 0.4080 0.4869
H23 H 0.9276 0.2411 0.5112
H24 H 0.9271 0.5137 0.5422
C20 C 0.98250(12) -0.0095(12) 0.8913(3)
H25 H 0.9986 0.1052 0.8766
H26 H 0.9910 -0.1725 0.8902
H27 H 0.9757 0.0265 0.9473
O1 O 0.79755(11) 0.2908(9) 0.7548(3)
O2 O 0.81834(12) 0.6356(6) 0.8087(3)
O3 O 0.90037(7) 0.5265(6) 0.7737(2)
O4 O 0.88748(12) 0.1333(6) 0.7838(3)
Br2 Br 0.822411(16) 0.57423(10) 0.51465(5)
C21 C 0.70385(15) 0.7839(11) 0.6994(4)
C22 C 0.73214(14) 0.7265(13) 0.6536(4)
C23 C 0.75673(15) 0.8902(13) 0.6586(4)
H28 H 0.7550 1.0339 0.6898
C24 C 0.78383(15) 0.8412(12) 0.6174(4)
H29 H 0.8008 0.9506 0.6204
C25 C 0.78569(19) 0.6330(10) 0.5726(5)
C26 C 0.76197(14) 0.4659(12) 0.5682(4)
H30 H 0.7641 0.3207 0.5381
C27 C 0.73489(14) 0.5156(11) 0.6091(4)
H31 H 0.7182 0.4042 0.6064
C28 C 0.65383(17) 0.6320(10) 0.7341(5)
H32 H 0.6496 0.8006 0.7493
H33 H 0.6560 0.5358 0.7858
C29 C 0.62768(10) 0.5353(8) 0.6779(3)
H34 H 0.6255 0.6337 0.6259
C30 C 0.63120(11) 0.2705(9) 0.6557(3)
H35 H 0.6230 0.2379 0.5982
H36 H 0.6533 0.2198 0.6611
C31 C 0.58757(10) 0.3063(9) 0.7291(3)
C32 C 0.56128(12) 0.2708(10) 0.6640(3)
H37 H 0.5693 0.2956 0.6079
H38 H 0.5449 0.3919 0.6724
C33 C 0.54689(11) 0.0148(10) 0.6691(3)
H39 H 0.5631 -0.1054 0.6551
C34 C 0.53697(11) -0.0327(9) 0.7582(3)
H40 H 0.5192 0.0726 0.7701
H41 H 0.5299 -0.2010 0.7625
C35 C 0.56317(12) 0.0115(10) 0.8228(3)
H42 H 0.5800 -0.1063 0.8149
H43 H 0.5553 -0.0133 0.8791
C36 C 0.57645(11) 0.2651(9) 0.8171(3)
H44 H 0.5584 0.3760 0.8231
C37 C 0.60009(12) 0.3292(9) 0.8881(3)
H45 H 0.6117 0.4749 0.8707
C38 C 0.6239(2) 0.1343(11) 0.9093(5)
H46 H 0.6132 -0.0096 0.9282
H47 H 0.6385 0.1913 0.9537
H48 H 0.6354 0.0959 0.8598
C39 C 0.58304(13) 0.3940(11) 0.9663(3)
H49 H 0.5983 0.4311 1.0117
H50 H 0.5701 0.2583 0.9824
H51 H 0.5698 0.5342 0.9550
C40 C 0.51938(12) -0.0086(11) 0.6060(3)
H52 H 0.5032 0.1069 0.6195
H53 H 0.5109 -0.1716 0.6082
H54 H 0.5264 0.0237 0.5500
O5 O 0.70079(11) 0.9560(8) 0.7431(3)
O6 O 0.68186(12) 0.6166(8) 0.6883(4)
O7 O 0.59946(7) 0.5436(6) 0.7213(2)
O8 O 0.61311(12) 0.1522(7) 0.7151(3)
loop_
_geom_bond_atom_site_label_1
_geom_bond_atom_site_label_2
_geom_bond_site_symmetry_1
_geom_bond_site_symmetry_2
Br1 C5 1_555 1_555
Br2 C25 1_555 1_555
C1 C2 1_555 1_555
C2 C3 1_555 1_555
C3 H1 1_555 1_555
C4 C3 1_555 1_555
H2 C4 1_555 1_555
C5 C4 1_555 1_555
C6 C5 1_555 1_555
H3 C6 1_555 1_555
C7 C2 1_555 1_555
H4 C7 1_555 1_555
C8 H5 1_555 1_555
H6 C8 1_555 1_555
C9 C8 1_555 1_555
H7 C9 1_555 1_555
C10 C9 1_555 1_555
H8 C10 1_555 1_555
H9 C10 1_555 1_555
C11 C12 1_555 1_555
C12 H10 1_555 1_555
H11 C12 1_555 1_555
C13 C12 1_555 1_555
H12 C13 1_555 1_555
C14 C13 1_555 1_555
H13 C14 1_555 1_555
H14 C14 1_555 1_555
C15 C14 1_555 1_555
H15 C15 1_555 1_555
H16 C15 1_555 1_555
C16 C11 1_555 1_555
H17 C16 1_555 1_555
C17 C16 1_555 1_555
H18 C17 1_555 1_555
C18 C17 1_555 1_555
H19 C18 1_555 1_555
H20 C18 1_555 1_555
H21 C18 1_555 1_555
C19 C17 1_555 1_555
H22 C19 1_555 1_555
H23 C19 1_555 1_555
H24 C19 1_555 1_555
C20 C13 1_555 1_555
H25 C20 1_555 1_555
H26 C20 1_555 1_555
H27 C20 1_555 1_555
C21 C22 1_555 1_555
C22 C23 1_555 1_555
C23 H28 1_555 1_555
C24 C23 1_555 1_555
H29 C24 1_555 1_555
C25 C24 1_555 1_555
C26 C25 1_555 1_555
H30 C26 1_555 1_555
C27 C22 1_555 1_555
H31 C27 1_555 1_555
C28 H32 1_555 1_555
H33 C28 1_555 1_555
C29 C28 1_555 1_555
H34 C29 1_555 1_555
C30 C29 1_555 1_555
H35 C30 1_555 1_555
H36 C30 1_555 1_555
C31 C32 1_555 1_555
C32 H37 1_555 1_555
H38 C32 1_555 1_555
C33 C32 1_555 1_555
H39 C33 1_555 1_555
C34 C33 1_555 1_555
H40 C34 1_555 1_555
H41 C34 1_555 1_555
C35 C34 1_555 1_555
H42 C35 1_555 1_555
H43 C35 1_555 1_555
C36 C31 1_555 1_555
H44 C36 1_555 1_555
C37 C36 1_555 1_555
H45 C37 1_555 1_555
C38 C37 1_555 1_555
H46 C38 1_555 1_555
H47 C38 1_555 1_555
H48 C38 1_555 1_555
C39 C37 1_555 1_555
H49 C39 1_555 1_555
H50 C39 1_555 1_555
H51 C39 1_555 1_555
C40 C33 1_555 1_555
H52 C40 1_555 1_555
H53 C40 1_555 1_555
H54 C40 1_555 1_555
O1 C1 1_555 1_555
O2 C1 1_555 1_555
O3 C9 1_555 1_555
O4 C10 1_555 1_555
O5 C21 1_555 1_555
O6 C21 1_555 1_555
O7 C29 1_555 1_555
O8 C30 1_555 1_555
C6 C7 1_555 1_555
C8 O2 1_555 1_555
C11 O3 1_555 1_555
C11 O4 1_555 1_555
C15 C16 1_555 1_555
C26 C27 1_555 1_555
C28 O6 1_555 1_555
C31 O7 1_555 1_555
C31 O8 1_555 1_555
C35 C36 1_555 1_555

#END
