
#######################################################################
#
#                 Cambridge Crystallographic Data Centre
#                                CCDC 
#
#######################################################################
#
# If this CIF has been generated from an entry in the Cambridge 
# Structural Database, then it will include bibliographic, chemical, 
# crystal, experimental, refinement or atomic coordinate data resulting 
# from the CCDC's data processing and validation procedures.
#
#######################################################################

data_ULILOR01
_chemical_name_common            "2',4,4'-Trihydroxychalcone monohydrate"
_chemical_formula_moiety         'C15 H12 O4,H2 O1'
_chemical_name_systematic        
'1-(2,4-dihydroxyphenyl)-3-(4-hydroxyphenyl)prop-2-en-1-one monohydrate'
_symmetry_cell_setting           monoclinic
_symmetry_space_group_name_H-M   'P 21'
_symmetry_Int_Tables_number      4
_space_group_name_Hall           'P 2yb'
loop_
_symmetry_equiv_pos_site_id
_symmetry_equiv_pos_as_xyz
1 x,y,z
2 -x,1/2+y,-z
_cell_length_a                   5.14140(10)
_cell_length_b                   10.57280(10)
_cell_length_c                   11.9377(2)
_cell_angle_alpha                90
_cell_angle_beta                 95.9470(10)
_cell_angle_gamma                90
_cell_volume                     645.429
_exptl_crystal_colour            colorless
_exptl_crystal_description       needle
_cell_formula_units_Z            2
loop_
_atom_site_label
_atom_site_type_symbol
_atom_site_fract_x
_atom_site_fract_y
_atom_site_fract_z
O1 O 1.5144(3) -0.08728(18) 1.08959(14)
O2 O 1.0393(4) -0.23107(17) 0.75839(14)
H1 H 0.912(8) -0.204(4) 0.709(3)
O3 O 0.6840(3) -0.09614(15) 0.66335(13)
O4 O -0.4954(3) 0.44326(16) 0.56112(14)
H2 H -0.561(6) 0.432(3) 0.495(3)
C1 C 1.3113(4) -0.0670(2) 1.00982(17)
C2 C 1.2709(4) -0.1570(2) 0.92560(18)
H3 H 1.376(5) -0.228(3) 0.925(2)
C3 C 1.0693(4) -0.1414(2) 0.84042(17)
C4 C 0.9000(4) -0.0355(2) 0.83795(17)
C5 C 0.9467(4) 0.0528(2) 0.92620(17)
H4 H 0.840(5) 0.124(2) 0.9291(19)
C6 C 1.1486(4) 0.0391(2) 1.01095(18)
H5 H 1.174(5) 0.102(3) 1.072(2)
C7 C 0.6961(4) -0.0186(2) 0.74504(17)
C8 C 0.5092(4) 0.0856(2) 0.74235(17)
H6 H 0.529(4) 0.153(2) 0.7974(19)
C9 C 0.3080(4) 0.0885(2) 0.66136(18)
H7 H 0.301(4) 0.017(2) 0.6096(17)
C10 C 0.1045(4) 0.18343(19) 0.63801(17)
C11 C 0.0658(4) 0.2847(2) 0.70963(18)
H8 H 0.172(5) 0.293(2) 0.776(2)
C12 C -0.1325(4) 0.3714(2) 0.68301(18)
H9 H -0.165(5) 0.434(3) 0.732(2)
C13 C -0.2966(4) 0.3573(2) 0.58299(17)
C14 C -0.2602(4) 0.2587(2) 0.50998(18)
H10 H -0.361(5) 0.249(2) 0.447(2)
C15 C -0.0604(4) 0.1728(2) 0.53745(18)
H11 H -0.035(4) 0.100(2) 0.4818(17)
H12 H 1.518(5) -0.024(3) 1.135(3)
O5 O 0.5720(4) 0.08790(19) 0.24848(15)
H13 H 0.564(7) 0.048(4) 0.309(4)
H14 H 0.693(7) 0.130(3) 0.247(3)
loop_
_geom_bond_atom_site_label_1
_geom_bond_atom_site_label_2
_geom_bond_site_symmetry_1
_geom_bond_site_symmetry_2
O1 C1 1_555 1_555
O2 H1 1_555 1_555
O3 C7 1_555 1_555
O4 H2 1_555 1_555
C1 C2 1_555 1_555
C2 H3 1_555 1_555
C3 O2 1_555 1_555
C4 C3 1_555 1_555
C5 C4 1_555 1_555
H4 C5 1_555 1_555
C6 C1 1_555 1_555
H5 C6 1_555 1_555
C7 C4 1_555 1_555
C8 C7 1_555 1_555
H6 C8 1_555 1_555
C9 C8 1_555 1_555
H7 C9 1_555 1_555
C10 C9 1_555 1_555
C11 C10 1_555 1_555
H8 C11 1_555 1_555
C12 C11 1_555 1_555
H9 C12 1_555 1_555
C13 O4 1_555 1_555
C14 C13 1_555 1_555
H10 C14 1_555 1_555
C15 C10 1_555 1_555
H11 C15 1_555 1_555
H12 O1 1_555 1_555
O5 H13 1_555 1_555
H14 O5 1_555 1_555
C2 C3 1_555 1_555
C5 C6 1_555 1_555
C12 C13 1_555 1_555
C14 C15 1_555 1_555

#END
