
#######################################################################
#
#                 Cambridge Crystallographic Data Centre
#                                CCDC 
#
#######################################################################
#
# If this CIF has been generated from an entry in the Cambridge 
# Structural Database, then it will include bibliographic, chemical, 
# crystal, experimental, refinement or atomic coordinate data resulting 
# from the CCDC's data processing and validation procedures.
#
#######################################################################

data_ULIQOW
_chemical_formula_moiety         'C10 H12 N2 S1'
_chemical_name_systematic        
2-Amino-6-methyl-4,5,6,7-tetrahydro-1-benzothiophene-3-carbonitrile
_symmetry_cell_setting           monoclinic
_symmetry_space_group_name_H-M   'P 21/c'
_symmetry_Int_Tables_number      14
_space_group_name_Hall           '-P 2ybc'
loop_
_symmetry_equiv_pos_site_id
_symmetry_equiv_pos_as_xyz
1 x,y,z
2 -x,1/2+y,1/2-z
3 -x,-y,-z
4 x,1/2-y,1/2+z
_cell_length_a                   9.0415(2)
_cell_length_b                   8.3294(2)
_cell_length_c                   13.1283(3)
_cell_angle_alpha                90
_cell_angle_beta                 90.169(2)
_cell_angle_gamma                90
_cell_volume                     988.692
_exptl_crystal_colour            yellow
_exptl_crystal_description       block
_cell_formula_units_Z            4
loop_
_atom_site_label
_atom_site_type_symbol
_atom_site_fract_x
_atom_site_fract_y
_atom_site_fract_z
S1 S 0.68698(5) 0.02703(5) 0.34885(3)
N1 N 0.5603(2) -0.40456(18) 0.60740(11)
N2 N 0.54766(17) -0.25706(17) 0.33230(10)
H1 H 0.5129 -0.3480 0.3565
H2 H 0.5362 -0.2336 0.2674
C1 C 0.5991(2) -0.3000(2) 0.55684(12)
C2 C 0.64719(19) -0.16794(19) 0.49726(12)
C3 C 0.61829(18) -0.15372(19) 0.39455(12)
C4 C 0.75534(19) 0.0810(2) 0.46849(12)
C5 C 0.72696(19) -0.0328(2) 0.53858(12)
C6 C 0.7762(2) -0.0180(2) 0.64700(13)
H3 H 0.8312 -0.1158 0.6670
H4 H 0.6885 -0.0088 0.6916
C7 C 0.8734(3) 0.1266(3) 0.66129(16)
H5 H 0.8688 0.1572 0.7341
H6 H 0.9764 0.0931 0.6474
C8 C 0.8387(2) 0.2343(2) 0.48637(13)
H7 H 0.7892 0.3236 0.4500
H8 H 0.9405 0.2241 0.4596
C9 C 0.8440(3) 0.2705(3) 0.6012(2)
H9 H 0.7434 0.3094 0.6209
C10 C 0.9518(5) 0.4053(5) 0.6248(3)
H10 H 0.9544 0.4241 0.6985
H11 H 0.9199 0.5034 0.5900
H12 H 1.0508 0.3753 0.6013
C11? C 1.0183(9) 0.3644(11) 0.6111(7)
C12? C 0.9414(6) 0.2065(6) 0.5837(4)
H13? H 0.9449 0.4508 0.6140
H14? H 1.0924 0.3897 0.5592
H15? H 1.0669 0.3537 0.6775
H16? H 0.8128 0.2072 0.6977
H17? H 0.9527 0.0937 0.7091
H18? H 0.7690 0.3238 0.4988
H19? H 0.8997 0.2611 0.4262
H20? H 1.0221 0.1334 0.5601
loop_
_geom_bond_atom_site_label_1
_geom_bond_atom_site_label_2
_geom_bond_site_symmetry_1
_geom_bond_site_symmetry_2
S1 C3 1_555 1_555
N1 C1 1_555 1_555
N2 H1 1_555 1_555
H2 N2 1_555 1_555
C1 C2 1_555 1_555
C2 C3 1_555 1_555
C3 N2 1_555 1_555
C4 S1 1_555 1_555
C5 C2 1_555 1_555
C6 C5 1_555 1_555
H3 C6 1_555 1_555
H4 C6 1_555 1_555
C7 C6 1_555 1_555
H5 C7 1_555 1_555
H6 C7 1_555 1_555
C8 C4 1_555 1_555
H7 C8 1_555 1_555
H8 C8 1_555 1_555
C9 C7 1_555 1_555
H9 C9 1_555 1_555
C10 C9 1_555 1_555
H10 C10 1_555 1_555
H11 C10 1_555 1_555
H12 C10 1_555 1_555
C4 C5 1_555 1_555
C8 C9 1_555 1_555

#END
