
#######################################################################
#
#                 Cambridge Crystallographic Data Centre
#                                CCDC 
#
#######################################################################
#
# If this CIF has been generated from an entry in the Cambridge 
# Structural Database, then it will include bibliographic, chemical, 
# crystal, experimental, refinement or atomic coordinate data resulting 
# from the CCDC's data processing and validation procedures.
#
#######################################################################

data_ULIVAO
_chemical_formula_moiety         'C8 H4 Cl1 N1 O2'
_chemical_name_systematic        6-Chloro-1H-indole-2,3-dione
_symmetry_cell_setting           monoclinic
_symmetry_space_group_name_H-M   'P 21'
_symmetry_Int_Tables_number      4
_space_group_name_Hall           'P 2yb'
loop_
_symmetry_equiv_pos_site_id
_symmetry_equiv_pos_as_xyz
1 x,y,z
2 -x,1/2+y,-z
_cell_length_a                   5.6231(6)
_cell_length_b                   4.9930(6)
_cell_length_c                   12.5145(14)
_cell_angle_alpha                90
_cell_angle_beta                 91.916(7)
_cell_angle_gamma                90
_cell_volume                     351.162
_exptl_crystal_colour            orange
_exptl_crystal_description       block
_cell_formula_units_Z            2
loop_
_atom_site_label
_atom_site_type_symbol
_atom_site_fract_x
_atom_site_fract_y
_atom_site_fract_z
Cl1 Cl 0.09834(14) -0.01835(18) 0.08160(7)
O1 O 0.2777(4) 1.0175(6) 0.49908(19)
O2 O 0.6762(4) 1.0073(6) 0.35185(18)
N1 N 0.1575(5) 0.6515(6) 0.3975(2)
H1 H 0.035(5) 0.614(9) 0.434(3)
C1 C 0.3027(6) 0.8549(8) 0.4278(3)
C2 C 0.5114(6) 0.8531(8) 0.3481(3)
C3 C 0.4503(6) 0.6351(7) 0.2732(3)
C4 C 0.5569(6) 0.5441(7) 0.1822(3)
H2 H 0.7019 0.6208 0.1602
C5 C 0.4494(6) 0.3391(8) 0.1233(3)
H3 H 0.5195 0.2729 0.0605
C6 C 0.2363(6) 0.2324(7) 0.1582(3)
C7 C 0.1259(6) 0.3158(7) 0.2494(3)
H4 H -0.0174 0.2362 0.2721
C8 C 0.2363(5) 0.5226(8) 0.3059(3)
loop_
_geom_bond_atom_site_label_1
_geom_bond_atom_site_label_2
_geom_bond_site_symmetry_1
_geom_bond_site_symmetry_2
Cl1 C6 1_555 1_555
O1 C1 1_555 1_555
O2 C2 1_555 1_555
N1 H1 1_555 1_555
C1 N1 1_555 1_555
C2 C1 1_555 1_555
C3 C2 1_555 1_555
C4 C3 1_555 1_555
H2 C4 1_555 1_555
C5 C4 1_555 1_555
H3 C5 1_555 1_555
C6 C5 1_555 1_555
C7 C6 1_555 1_555
H4 C7 1_555 1_555
C8 N1 1_555 1_555
C3 C8 1_555 1_555
C7 C8 1_555 1_555

#END
