
#######################################################################
#
#                 Cambridge Crystallographic Data Centre
#                                CCDC 
#
#######################################################################
#
# If this CIF has been generated from an entry in the Cambridge 
# Structural Database, then it will include bibliographic, chemical, 
# crystal, experimental, refinement or atomic coordinate data resulting 
# from the CCDC's data processing and validation procedures.
#
#######################################################################

data_ULIVOC
_chemical_formula_moiety         'C8 H4 I1 N1 O2'
_chemical_name_systematic        6-Iodo-1H-indole-2,3-dione
_symmetry_cell_setting           triclinic
_symmetry_space_group_name_H-M   'P -1'
_symmetry_Int_Tables_number      2
_space_group_name_Hall           '-P 1'
loop_
_symmetry_equiv_pos_site_id
_symmetry_equiv_pos_as_xyz
1 x,y,z
2 -x,-y,-z
_cell_length_a                   6.4152(12)
_cell_length_b                   7.5089(12)
_cell_length_c                   8.9546(15)
_cell_angle_alpha                110.162(7)
_cell_angle_beta                 96.120(8)
_cell_angle_gamma                91.997(8)
_cell_volume                     401.427
_exptl_crystal_colour            yellow
_exptl_crystal_description       block
_cell_formula_units_Z            2
loop_
_atom_site_label
_atom_site_type_symbol
_atom_site_fract_x
_atom_site_fract_y
_atom_site_fract_z
I1 I 0.88468(3) 0.23586(3) 0.83188(2)
O1 O 0.2881(4) 0.1534(3) 0.0076(2)
O2 O 0.0321(3) 0.3232(3) 0.2659(3)
N1 N 0.5260(4) 0.1523(4) 0.2204(3)
H1 H 0.621(4) 0.087(4) 0.168(4)
C1 C 0.3425(5) 0.1870(4) 0.1497(3)
C2 C 0.2080(5) 0.2776(4) 0.2872(3)
C3 C 0.3404(4) 0.2856(4) 0.4329(3)
C4 C 0.3091(5) 0.3516(4) 0.5932(3)
H2 H 0.1825 0.4068 0.6248
C5 C 0.4653(5) 0.3358(4) 0.7071(3)
H3 H 0.4460 0.3788 0.8173
C6 C 0.6502(5) 0.2565(4) 0.6580(3)
C7 C 0.6862(5) 0.1905(4) 0.4976(3)
H4 H 0.8137 0.1373 0.4662
C8 C 0.5280(5) 0.2063(4) 0.3870(3)
loop_
_geom_bond_atom_site_label_1
_geom_bond_atom_site_label_2
_geom_bond_site_symmetry_1
_geom_bond_site_symmetry_2
I1 C6 1_555 1_555
O1 C1 1_555 1_555
O2 C2 1_555 1_555
N1 H1 1_555 1_555
C1 N1 1_555 1_555
C2 C1 1_555 1_555
C3 C2 1_555 1_555
C4 C3 1_555 1_555
H2 C4 1_555 1_555
C5 C4 1_555 1_555
H3 C5 1_555 1_555
C6 C5 1_555 1_555
C7 C6 1_555 1_555
H4 C7 1_555 1_555
C8 N1 1_555 1_555
C3 C8 1_555 1_555
C7 C8 1_555 1_555

#END
