
#######################################################################
#
#                 Cambridge Crystallographic Data Centre
#                                CCDC 
#
#######################################################################
#
# If this CIF has been generated from an entry in the Cambridge 
# Structural Database, then it will include bibliographic, chemical, 
# crystal, experimental, refinement or atomic coordinate data resulting 
# from the CCDC's data processing and validation procedures.
#
#######################################################################

data_ULOBUT
_chemical_formula_moiety         'C19 H35 F1 N1 O1 Si1 1+,Br1 1-'
_chemical_name_systematic        
'N-(4-(Di-t-butyl(fluoro)silyl)benzyl)-2-hydroxy-N,N-dimethylethanaminium bromide'
_symmetry_cell_setting           monoclinic
_symmetry_space_group_name_H-M   'P 21/c'
_symmetry_Int_Tables_number      14
_space_group_name_Hall           '-P 2ybc'
loop_
_symmetry_equiv_pos_site_id
_symmetry_equiv_pos_as_xyz
1 x,y,z
2 -x,1/2+y,1/2-z
3 -x,-y,-z
4 x,1/2-y,1/2+z
_cell_length_a                   24.9905(14)
_cell_length_b                   6.4938(3)
_cell_length_c                   14.1497(7)
_cell_angle_alpha                90
_cell_angle_beta                 96.811(5)
_cell_angle_gamma                90
_cell_volume                     2280.05
_exptl_crystal_colour            colorless
_chemical_melting_point          '421 K'
_cell_formula_units_Z            4
_exptl_crystal_recrystallization_method chloroform/hexane
loop_
_atom_site_label
_atom_site_type_symbol
_atom_site_fract_x
_atom_site_fract_y
_atom_site_fract_z
Br1 Br 0.108735(13) 0.72825(4) 0.91767(2)
Si1 Si 0.34634(3) 0.98720(11) 0.83862(6)
F1 F 0.34858(7) 0.7453(2) 0.81600(13)
N1 N 0.09433(8) 1.2495(3) 0.61284(15)
O1 O 0.04018(9) 1.0722(3) 0.79158(16)
H1 H 0.0558(15) 1.004(5) 0.823(3)
C1 C 0.29007(10) 1.0841(4) 0.75204(18)
C2 C 0.26208(10) 0.9468(4) 0.68846(19)
H2 H 0.2744 0.8119 0.6859
C3 C 0.21673(10) 1.0047(4) 0.62924(19)
H3 H 0.1995 0.9088 0.5873
C4 C 0.19639(10) 1.2024(4) 0.63097(18)
C5 C 0.22452(11) 1.3429(4) 0.6921(2)
H4 H 0.2124 1.4781 0.6935
C6 C 0.27007(11) 1.2850(4) 0.75061(19)
H5 H 0.2881 1.3830 0.7905
C7 C 0.14674(9) 1.2605(4) 0.56665(18)
H6 H 0.1435 1.1700 0.5117
H7 H 0.1511 1.3998 0.5440
C8 C 0.09430(12) 1.4069(4) 0.6891(2)
H8 H 0.0615 1.3966 0.7178
H9 H 0.0969 1.5417 0.6622
H10 H 0.1245 1.3840 0.7365
C9 C 0.04959(11) 1.2951(5) 0.5348(2)
H11 H 0.0156 1.2906 0.5601
H12 H 0.0498 1.1943 0.4852
H13 H 0.0548 1.4297 0.5093
C10 C 0.41358(12) 1.0896(5) 0.8145(2)
C11 C 0.41758(16) 1.3177(6) 0.8246(4)
H14 H 0.4526 1.3622 0.8116
H15 H 0.4122 1.3562 0.8883
H16 H 0.3905 1.3816 0.7804
C12 C 0.42028(15) 1.0320(8) 0.7113(3)
H17 H 0.4543 1.0823 0.6958
H18 H 0.3917 1.0929 0.6692
H19 H 0.4190 0.8850 0.7044
C13 C 0.45962(13) 0.9858(7) 0.8745(3)
H20 H 0.4931 1.0430 0.8600
H21 H 0.4589 0.8408 0.8612
H22 H 0.4562 1.0075 0.9407
C14 C 0.32638(13) 1.0044(5) 0.9621(2)
C15 C 0.36576(16) 0.8871(6) 1.0335(2)
H23 H 0.3546 0.8987 1.0959
H24 H 0.4012 0.9444 1.0339
H25 H 0.3663 0.7447 1.0155
C16 C 0.27063(15) 0.9025(7) 0.9598(3)
H26 H 0.2592 0.9077 1.0221
H27 H 0.2728 0.7616 0.9402
H28 H 0.2451 0.9747 0.9156
C17 C 0.32213(17) 1.2280(5) 0.9951(2)
H29 H 0.3122 1.2301 1.0586
H30 H 0.2953 1.2988 0.9531
H31 H 0.3563 1.2952 0.9944
C18 C 0.08773(10) 1.0359(4) 0.65131(18)
H32 H 0.1186 1.0064 0.6976
H33 H 0.0884 0.9387 0.5994
C19 C 0.03716(11) 0.9978(4) 0.6978(2)
H34 H 0.0070 1.0631 0.6599
H35 H 0.0302 0.8509 0.6981
loop_
_geom_bond_atom_site_label_1
_geom_bond_atom_site_label_2
_geom_bond_site_symmetry_1
_geom_bond_site_symmetry_2
Si1 F1 1_555 1_555
N1 C7 1_555 1_555
O1 H1 1_555 1_555
C1 Si1 1_555 1_555
C2 C1 1_555 1_555
H2 C2 1_555 1_555
C3 C2 1_555 1_555
H3 C3 1_555 1_555
C4 C3 1_555 1_555
C5 C4 1_555 1_555
H4 C5 1_555 1_555
C6 C1 1_555 1_555
H5 C6 1_555 1_555
C7 C4 1_555 1_555
H6 C7 1_555 1_555
H7 C7 1_555 1_555
C8 N1 1_555 1_555
H8 C8 1_555 1_555
H9 C8 1_555 1_555
H10 C8 1_555 1_555
C9 N1 1_555 1_555
H11 C9 1_555 1_555
H12 C9 1_555 1_555
H13 C9 1_555 1_555
C10 Si1 1_555 1_555
C11 C10 1_555 1_555
H14 C11 1_555 1_555
H15 C11 1_555 1_555
H16 C11 1_555 1_555
C12 C10 1_555 1_555
H17 C12 1_555 1_555
H18 C12 1_555 1_555
H19 C12 1_555 1_555
C13 C10 1_555 1_555
H20 C13 1_555 1_555
H21 C13 1_555 1_555
H22 C13 1_555 1_555
C14 Si1 1_555 1_555
C15 C14 1_555 1_555
H23 C15 1_555 1_555
H24 C15 1_555 1_555
H25 C15 1_555 1_555
C16 C14 1_555 1_555
H26 C16 1_555 1_555
H27 C16 1_555 1_555
H28 C16 1_555 1_555
C17 C14 1_555 1_555
H29 C17 1_555 1_555
H30 C17 1_555 1_555
H31 C17 1_555 1_555
C18 N1 1_555 1_555
H32 C18 1_555 1_555
H33 C18 1_555 1_555
C19 O1 1_555 1_555
H34 C19 1_555 1_555
H35 C19 1_555 1_555
C5 C6 1_555 1_555
C18 C19 1_555 1_555

#END
