
#######################################################################
#
#                 Cambridge Crystallographic Data Centre
#                                CCDC 
#
#######################################################################
#
# If this CIF has been generated from an entry in the Cambridge 
# Structural Database, then it will include bibliographic, chemical, 
# crystal, experimental, refinement or atomic coordinate data resulting 
# from the CCDC's data processing and validation procedures.
#
#######################################################################

data_ULOBAA
_chemical_formula_moiety         'C10 H10 N4,H2 O1'
_chemical_name_systematic        
'(1E,3E)-1,4-bis(1H-Imidazol-1-yl)buta-1,3-diene monohydrate'
_symmetry_cell_setting           monoclinic
_symmetry_space_group_name_H-M   'P 21'
_symmetry_Int_Tables_number      4
_space_group_name_Hall           'P 2yb'
loop_
_symmetry_equiv_pos_site_id
_symmetry_equiv_pos_as_xyz
1 x,y,z
2 -x,1/2+y,-z
_cell_length_a                   6.8081(14)
_cell_length_b                   7.5140(15)
_cell_length_c                   10.618(2)
_cell_angle_alpha                90
_cell_angle_beta                 99.17(3)
_cell_angle_gamma                90
_cell_volume                     536.233
_exptl_crystal_colour            brown
_exptl_crystal_description       block
_cell_formula_units_Z            2
_exptl_crystal_recrystallization_method water
_exptl_crystal_preparation       Luminescent
loop_
_atom_site_label
_atom_site_type_symbol
_atom_site_fract_x
_atom_site_fract_y
_atom_site_fract_z
C1 C 1.2821(3) 0.4377(3) 0.6265(2)
H1 H 1.2163 0.4990 0.6834
C2 C 1.5037(3) 0.3012(4) 0.5438(2)
H2 H 1.6244 0.2496 0.5338
C3 C 1.3405(3) 0.3042(3) 0.45291(19)
H3 H 1.3281 0.2562 0.3713
C4 C 1.0034(3) 0.4374(3) 0.44769(19)
H4 H 0.9257 0.5031 0.4954
C5 C 0.9236(3) 0.3920(3) 0.3291(2)
H5 H 0.9987 0.3242 0.2809
C6 C 0.7248(3) 0.4444(3) 0.2728(2)
H6 H 0.6526 0.5165 0.3200
C7 C 0.6409(3) 0.3950(3) 0.1577(2)
H7 H 0.7145 0.3234 0.1110
C8 C 0.3555(4) 0.3916(4) -0.0168(2)
H8 H 0.4148 0.3197 -0.0713
C9 C 0.1498(3) 0.5546(4) 0.0592(2)
H9 H 0.0350 0.6178 0.0671
C10 C 0.3139(3) 0.5493(4) 0.1481(2)
H10 H 0.3331 0.6067 0.2267
N1 N 1.4672(3) 0.3842(3) 0.65261(17)
N2 N 1.1975(2) 0.3921(2) 0.50507(16)
N3 N 0.4462(3) 0.4434(2) 0.10038(15)
N4 N 0.1746(3) 0.4548(3) -0.0442(2)
O1 O 0.1577(5) 0.0301(5) 0.2311(3)
H11 H 0.2425 0.0419 0.1680
H12 H 0.1299 -0.0640 0.2543
loop_
_geom_bond_atom_site_label_1
_geom_bond_atom_site_label_2
_geom_bond_site_symmetry_1
_geom_bond_site_symmetry_2
C1 H1 1_555 1_555
C2 H2 1_555 1_555
C3 C2 1_555 1_555
H3 C3 1_555 1_555
C4 H4 1_555 1_555
C5 C4 1_555 1_555
H5 C5 1_555 1_555
C6 C5 1_555 1_555
H6 C6 1_555 1_555
C7 C6 1_555 1_555
H7 C7 1_555 1_555
C8 H8 1_555 1_555
C9 H9 1_555 1_555
C10 C9 1_555 1_555
H10 C10 1_555 1_555
N1 C1 1_555 1_555
N2 C1 1_555 1_555
N3 C7 1_555 1_555
N4 C8 1_555 1_555
O1 H11 1_555 1_555
H12 O1 1_555 1_555
C2 N1 1_555 1_555
C3 N2 1_555 1_555
C4 N2 1_555 1_555
C8 N3 1_555 1_555
C9 N4 1_555 1_555
C10 N3 1_555 1_555

#END
