
#######################################################################
#
#                 Cambridge Crystallographic Data Centre
#                                CCDC 
#
#######################################################################
#
# If this CIF has been generated from an entry in the Cambridge 
# Structural Database, then it will include bibliographic, chemical, 
# crystal, experimental, refinement or atomic coordinate data resulting 
# from the CCDC's data processing and validation procedures.
#
#######################################################################

data_ULODAB
_chemical_formula_moiety         'C13 H14 F2 O2 S1'
_chemical_name_systematic        
'2,2-Difluoro-3-isopropylidenecyclopropyl 4-methylphenyl sulfone'
_symmetry_cell_setting           monoclinic
_symmetry_space_group_name_H-M   'P 21/c'
_symmetry_Int_Tables_number      14
_space_group_name_Hall           '-P 2ybc'
loop_
_symmetry_equiv_pos_site_id
_symmetry_equiv_pos_as_xyz
1 x,y,z
2 -x,1/2+y,1/2-z
3 -x,-y,-z
4 x,1/2-y,1/2+z
_cell_length_a                   11.7978(19)
_cell_length_b                   7.7949(12)
_cell_length_c                   15.164(2)
_cell_angle_alpha                90
_cell_angle_beta                 108.132(3)
_cell_angle_gamma                90
_cell_volume                     1325.27
_exptl_crystal_colour            colorless
_exptl_crystal_description       prismatic
_cell_formula_units_Z            4
loop_
_atom_site_label
_atom_site_type_symbol
_atom_site_fract_x
_atom_site_fract_y
_atom_site_fract_z
S1 S 0.83526(4) 0.15061(7) 0.03026(3)
F1 F 0.70985(16) -0.30777(19) 0.06943(10)
F2 F 0.62458(11) -0.0607(2) 0.06195(9)
O1 O 0.78316(14) 0.2600(2) 0.08180(9)
O2 O 0.95420(13) 0.1842(2) 0.02968(10)
C1 C 0.8376(2) -0.0603(3) 0.07329(13)
C2 C 0.7302(2) -0.1403(3) 0.08963(15)
C3 C 0.82495(18) -0.0838(3) 0.16708(13)
C4 C 0.86731(18) -0.0434(3) 0.25544(13)
C5 C 0.8026(2) -0.0901(3) 0.32211(15)
H1 H 0.7871 0.0117 0.3521
H2 H 0.8506 -0.1675 0.3679
H3 H 0.7285 -0.1446 0.2893
C6 C 0.9815(2) 0.0508(3) 0.29285(16)
H4 H 1.0098 0.0851 0.2426
H5 H 1.0395 -0.0225 0.3344
H6 H 0.9692 0.1506 0.3258
C7 C 0.74065(17) 0.1442(2) -0.08491(12)
C8 C 0.6273(2) 0.2064(3) -0.10545(15)
H7 H 0.5986 0.2453 -0.0584
C9 C 0.5559(2) 0.2110(4) -0.19629(16)
H8 H 0.4787 0.2539 -0.2106
C10 C 0.5973(2) 0.1528(3) -0.26665(14)
C11 C 0.7109(2) 0.0878(3) -0.24406(14)
H9 H 0.7390 0.0459 -0.2908
C12 C 0.78386(19) 0.0836(3) -0.15340(13)
H10 H 0.8610 0.0405 -0.1387
C13 C 0.5206(3) 0.1638(4) -0.36657(16)
H11 H 0.4781 0.2707 -0.3769
H12 H 0.4647 0.0705 -0.3804
H13 H 0.5702 0.1571 -0.4061
H14 H 0.896(2) -0.125(4) 0.0544(18)
loop_
_geom_bond_atom_site_label_1
_geom_bond_atom_site_label_2
_geom_bond_site_symmetry_1
_geom_bond_site_symmetry_2
S1 O1 1_555 1_555
F1 C2 1_555 1_555
F2 C2 1_555 1_555
O2 S1 1_555 1_555
C1 S1 1_555 1_555
C2 C1 1_555 1_555
C3 C1 1_555 1_555
C4 C3 1_555 1_555
C5 C4 1_555 1_555
H1 C5 1_555 1_555
H2 C5 1_555 1_555
H3 C5 1_555 1_555
C6 C4 1_555 1_555
H4 C6 1_555 1_555
H5 C6 1_555 1_555
H6 C6 1_555 1_555
C7 S1 1_555 1_555
C8 C7 1_555 1_555
H7 C8 1_555 1_555
C9 C8 1_555 1_555
H8 C9 1_555 1_555
C10 C9 1_555 1_555
C11 C10 1_555 1_555
H9 C11 1_555 1_555
C12 C7 1_555 1_555
H10 C12 1_555 1_555
C13 C10 1_555 1_555
H11 C13 1_555 1_555
H12 C13 1_555 1_555
H13 C13 1_555 1_555
H14 C1 1_555 1_555
C2 C3 1_555 1_555
C11 C12 1_555 1_555

#END
