
#######################################################################
#
#                 Cambridge Crystallographic Data Centre
#                                CCDC 
#
#######################################################################
#
# If this CIF has been generated from an entry in the Cambridge 
# Structural Database, then it will include bibliographic, chemical, 
# crystal, experimental, refinement or atomic coordinate data resulting 
# from the CCDC's data processing and validation procedures.
#
#######################################################################

data_ULOJUA
_chemical_formula_moiety         'C2 Br2 F4,C6 H14 N2'
_chemical_name_systematic        
'1,2-Dibromo-1,1,2,2-tetrafluoroethane 1,4-dimethylpiperazine'
_symmetry_cell_setting           monoclinic
_symmetry_space_group_name_H-M   'C 2/c'
_symmetry_Int_Tables_number      15
_space_group_name_Hall           '-C 2yn'
loop_
_symmetry_equiv_pos_site_id
_symmetry_equiv_pos_as_xyz
1 x,y,z
2 1/2+x,1/2+y,z
3 x,-y,1/2+z
4 1/2+x,1/2-y,1/2+z
5 -x,-y,-z
6 1/2-x,1/2-y,-z
7 -x,y,1/2-z
8 1/2-x,1/2+y,1/2-z
_cell_length_a                   15.2502(3)
_cell_length_b                   10.4520(4)
_cell_length_c                   10.5579(3)
_cell_angle_alpha                90
_cell_angle_beta                 127.5085(16)
_cell_angle_gamma                90
_cell_volume                     1334.96
_exptl_crystal_colour            colorless
_exptl_crystal_description       block
_chemical_melting_point          '303 K'
_cell_formula_units_Z            4
_exptl_crystal_recrystallization_method sublimation
loop_
_atom_site_label
_atom_site_type_symbol
_atom_site_fract_x
_atom_site_fract_y
_atom_site_fract_z
N1 N 0.2756(2) 0.6658(3) 0.1255(3)
C1 C 0.3507(3) 0.5825(4) 0.2623(4)
H1 H 0.4223 0.5835 0.2859
H2 H 0.3223 0.4968 0.2374
H3 H 0.3569 0.6127 0.3533
C2 C 0.3167(3) 0.7967(3) 0.1570(4)
H4 H 0.3887 0.7978 0.1798
H5 H 0.3253 0.8291 0.2501
C3 C 0.2613(3) 0.6185(3) -0.0162(4)
H6 H 0.3324 0.6165 0.0038
H7 H 0.2324 0.5320 -0.0395
C3E C 0.2387(3) 0.8815(3) 0.0162(4)
N1E N 0.2244(2) 0.8342(3) -0.1255(3)
C1E C 0.1493(3) 0.9175(4) -0.2623(4)
H1E H 0.0777 0.9165 -0.2859
H2E H 0.1777 1.0032 -0.2374
H3E H 0.1431 0.8873 -0.3533
C2E C 0.1833(3) 0.7033(3) -0.1570(4)
H4E H 0.1113 0.7022 -0.1798
H5E H 0.1747 0.6709 -0.2501
H6E H 0.1676 0.8835 -0.0038
H7E H 0.2676 0.9680 0.0395
Br1 Br 0.09513(3) 0.67436(4) 0.14220(4)
C4 C -0.0168(8) 0.7148(9) 0.1793(11)
C5 C -0.0105(6) 0.6392(9) 0.1786(9)
F1 F -0.11347(18) 0.6765(3) 0.0495(3)
F2 F -0.0243(8) 0.8381(4) 0.1993(7)
F3 F 0.0000 0.5155(3) 0.2500
C4F C 0.0168(8) 0.7148(9) 0.3207(11)
Br1F Br -0.09513(3) 0.67436(4) 0.35780(4)
C5F C 0.0105(6) 0.6392(9) 0.3214(9)
F1F F 0.11347(18) 0.6765(3) 0.4505(3)
F2F F 0.0243(8) 0.8381(4) 0.3007(7)
loop_
_geom_bond_atom_site_label_1
_geom_bond_atom_site_label_2
_geom_bond_site_symmetry_1
_geom_bond_site_symmetry_2
Br1 C4 1_555 1_555
N1 C1 1_555 1_555
C1 H1 1_555 1_555
H2 C1 1_555 1_555
H3 C1 1_555 1_555
C2 N1 1_555 1_555
H4 C2 1_555 1_555
H5 C2 1_555 1_555
C3 N1 1_555 1_555
H6 C3 1_555 1_555
H7 C3 1_555 1_555
C4 C5 1_555 1_555
C5 Br1 1_555 1_555
F1 C4 1_555 1_555
F2 C4 1_555 1_555
F3 C5 1_555 1_555
C4F C4 1_555 1_555
Br1F C4F 1_555 1_555
C5F C4 1_555 1_555
F1F C4F 1_555 1_555
F2F C4 1_555 1_555
C3E C2 1_555 1_555
N1E C3E 1_555 1_555
C1E N1E 1_555 1_555
H1E C1E 1_555 1_555
H2E C1E 1_555 1_555
H3E C1E 1_555 1_555
C2E C3 1_555 1_555
H4E C2E 1_555 1_555
H5E C2E 1_555 1_555
H6E C3E 1_555 1_555
H7E C3E 1_555 1_555
C5 C4F 1_555 1_555
C5 F1 1_555 1_555
C5 C5F 1_555 1_555
F2 C4F 1_555 1_555
F2 F2F 1_555 1_555
F3 C5F 1_555 1_555
C4F C5F 1_555 1_555
C4F F2F 1_555 1_555
Br1F C5F 1_555 1_555
C5F F1F 1_555 1_555
N1E C2E 1_555 1_555

#END
