
#######################################################################
#
#                 Cambridge Crystallographic Data Centre
#                                CCDC 
#
#######################################################################
#
# If this CIF has been generated from an entry in the Cambridge 
# Structural Database, then it will include bibliographic, chemical, 
# crystal, experimental, refinement or atomic coordinate data resulting 
# from the CCDC's data processing and validation procedures.
#
#######################################################################

data_ULOTEU
_chemical_formula_moiety         'C30 H34 N6 O6 S2'
_chemical_name_systematic        
2,4-bis(1-(Diethylamino)-1-(4-nitrophenylimino)-3-oxobut-2-ylidene)-1,3-dithietane
_symmetry_cell_setting           triclinic
_symmetry_space_group_name_H-M   'P -1'
_symmetry_Int_Tables_number      2
_space_group_name_Hall           '-P 1'
loop_
_symmetry_equiv_pos_site_id
_symmetry_equiv_pos_as_xyz
1 x,y,z
2 -x,-y,-z
_cell_length_a                   11.2163(14)
_cell_length_b                   11.8813(17)
_cell_length_c                   13.9299(16)
_cell_angle_alpha                67.796(10)
_cell_angle_beta                 76.078(9)
_cell_angle_gamma                89.157(11)
_cell_volume                     1662.2
_exptl_crystal_colour            yellow
_exptl_crystal_description       plate
_chemical_melting_point          '193-195 deg.C'
_cell_formula_units_Z            2
loop_
_atom_site_label
_atom_site_type_symbol
_atom_site_fract_x
_atom_site_fract_y
_atom_site_fract_z
S1 S 0.02602(9) 0.24192(9) -0.22347(7)
S2 S -0.03444(10) 0.31490(9) -0.41052(7)
O1 O 0.1272(3) 0.2387(3) -0.5511(2)
O2 O -0.2863(4) -0.2491(5) -0.1640(4)
O3 O -0.2981(3) -0.2663(4) -0.0025(3)
O4 O -0.2500(3) 0.4395(3) -0.3992(2)
O5 O 0.2943(3) 0.8024(4) -0.4323(3)
O6 O 0.3975(3) 0.6863(4) -0.3297(3)
N1 N 0.2219(3) 0.0238(3) -0.2287(2)
N2 N 0.3729(3) 0.1760(3) -0.3392(2)
N3 N -0.2431(4) -0.2316(4) -0.0977(4)
N4 N -0.1286(3) 0.4108(3) -0.0935(2)
N5 N -0.3013(3) 0.2868(3) -0.0567(2)
N6 N 0.3011(4) 0.7136(4) -0.3540(3)
C1 C 0.0786(3) 0.2359(3) -0.3502(3)
C2 C 0.1780(3) 0.1850(3) -0.3869(3)
C3 C 0.1992(4) 0.1891(4) -0.4977(3)
C4 C 0.3053(4) 0.1281(4) -0.5404(3)
H1 H 0.3066 0.1389 -0.6125
H2 H 0.2961 0.0426 -0.4962
H3 H 0.3812 0.1639 -0.5397
C5 C 0.2585(3) 0.1225(3) -0.3148(3)
C6 C 0.1076(4) -0.0404(3) -0.2017(3)
C7 C 0.0416(4) -0.0830(3) -0.0945(3)
H4 H 0.0762 -0.0694 -0.0452
C8 C -0.0731(4) -0.1445(4) -0.0597(3)
H5 H -0.1171 -0.1702 0.0117
C9 C -0.1212(4) -0.1671(4) -0.1334(4)
C10 C -0.0569(4) -0.1317(4) -0.2385(4)
H6 H -0.0905 -0.1493 -0.2866
C11 C 0.0579(4) -0.0699(4) -0.2723(3)
H7 H 0.1027 -0.0476 -0.3431
C12 C 0.4075(4) 0.3032(4) -0.4120(3)
H8 H 0.3657 0.3226 -0.4690
H9 H 0.4956 0.3134 -0.4445
C13 C 0.3758(5) 0.3917(5) -0.3565(5)
H10 H 0.4000 0.4737 -0.4078
H11 H 0.4186 0.3744 -0.3013
H12 H 0.2885 0.3831 -0.3253
C14 C 0.4592(4) 0.1191(5) -0.2727(4)
H13 H 0.4549 0.1592 -0.2230
H14 H 0.4270 0.0350 -0.2301
C16 C 0.5201(7) 0.0215(8) -0.3040(5)
H18 H 0.5771 -0.0131 -0.2613
H19 H 0.5637 0.0556 -0.3784
H20 H 0.4588 -0.0410 -0.2925
C17 C -0.0875(3) 0.3216(3) -0.2833(3)
C18 C -0.1830(3) 0.3714(3) -0.2411(3)
C19 C -0.2633(4) 0.4413(4) -0.3102(3)
C20 C -0.3583(4) 0.5118(4) -0.2668(3)
H21 H -0.4036 0.5520 -0.3189
H22 H -0.3183 0.5716 -0.2515
H23 H -0.4139 0.4570 -0.2022
C21 C -0.2019(3) 0.3607(3) -0.1275(3)
C22 C -0.0260(3) 0.4898(3) -0.1622(3)
C23 C 0.0815(4) 0.4765(4) -0.1278(3)
H24 H 0.0806 0.4180 -0.0605
C24 C 0.1892(4) 0.5471(4) -0.1898(3)
H25 H 0.2611 0.5342 -0.1665
C25 C 0.1885(4) 0.6368(4) -0.2868(3)
C26 C 0.0829(4) 0.6565(3) -0.3213(3)
H26 H 0.0834 0.7189 -0.3866
C27 C -0.0240(4) 0.5843(3) -0.2598(3)
H27 H -0.0956 0.5988 -0.2834
C28 C -0.3735(4) 0.2051(4) -0.0813(3)
H28 H -0.3751 0.2428 -0.1561
H29 H -0.4577 0.1939 -0.0382
C29 C -0.3229(4) 0.0805(4) -0.0606(4)
H30 H -0.3742 0.0305 -0.0776
H31 H -0.3224 0.0421 0.0135
H32 H -0.2404 0.0906 -0.1047
C30 C -0.3311(4) 0.2765(4) 0.0560(3)
H33 H -0.2558 0.2881 0.0751
H34 H -0.3697 0.1956 0.1032
C31 C -0.4158(4) 0.3698(5) 0.0698(4)
H35 H -0.4348 0.3623 0.1431
H36 H -0.4905 0.3576 0.0515
H37 H -0.3769 0.4498 0.0238
C15? C 0.589(3) 0.118(4) -0.322(3)
H15? H 0.6324 0.0856 -0.2665
H16? H 0.6231 0.1993 -0.3680
H17? H 0.5977 0.0674 -0.3625
loop_
_geom_bond_atom_site_label_1
_geom_bond_atom_site_label_2
_geom_bond_site_symmetry_1
_geom_bond_site_symmetry_2
S1 C1 1_555 1_555
S2 C1 1_555 1_555
O1 C3 1_555 1_555
O2 N3 1_555 1_555
O3 N3 1_555 1_555
O4 C19 1_555 1_555
O5 N6 1_555 1_555
O6 N6 1_555 1_555
N1 C5 1_555 1_555
N2 C5 1_555 1_555
N3 C9 1_555 1_555
N4 C21 1_555 1_555
N5 C21 1_555 1_555
N6 C25 1_555 1_555
C1 C2 1_555 1_555
C2 C3 1_555 1_555
C3 C4 1_555 1_555
C4 H1 1_555 1_555
H2 C4 1_555 1_555
H3 C4 1_555 1_555
C5 C2 1_555 1_555
C6 N1 1_555 1_555
C7 C6 1_555 1_555
H4 C7 1_555 1_555
C8 C7 1_555 1_555
H5 C8 1_555 1_555
C9 C8 1_555 1_555
C10 C9 1_555 1_555
H6 C10 1_555 1_555
C11 C6 1_555 1_555
H7 C11 1_555 1_555
C12 N2 1_555 1_555
H8 C12 1_555 1_555
H9 C12 1_555 1_555
C13 C12 1_555 1_555
H10 C13 1_555 1_555
H11 C13 1_555 1_555
H12 C13 1_555 1_555
C14 N2 1_555 1_555
H13 C14 1_555 1_555
H14 C14 1_555 1_555
C16 C14 1_555 1_555
H18 C16 1_555 1_555
H19 C16 1_555 1_555
H20 C16 1_555 1_555
C17 S1 1_555 1_555
C18 C17 1_555 1_555
C19 C18 1_555 1_555
C20 C19 1_555 1_555
H21 C20 1_555 1_555
H22 C20 1_555 1_555
H23 C20 1_555 1_555
C21 C18 1_555 1_555
C22 N4 1_555 1_555
C23 C22 1_555 1_555
H24 C23 1_555 1_555
C24 C23 1_555 1_555
H25 C24 1_555 1_555
C25 C24 1_555 1_555
C26 C25 1_555 1_555
H26 C26 1_555 1_555
C27 C22 1_555 1_555
H27 C27 1_555 1_555
C28 N5 1_555 1_555
H28 C28 1_555 1_555
H29 C28 1_555 1_555
C29 C28 1_555 1_555
H30 C29 1_555 1_555
H31 C29 1_555 1_555
H32 C29 1_555 1_555
C30 N5 1_555 1_555
H33 C30 1_555 1_555
H34 C30 1_555 1_555
C31 C30 1_555 1_555
H35 C31 1_555 1_555
H36 C31 1_555 1_555
H37 C31 1_555 1_555
S2 C17 1_555 1_555
C10 C11 1_555 1_555
C26 C27 1_555 1_555

#END
