
#######################################################################
#
#                 Cambridge Crystallographic Data Centre
#                                CCDC 
#
#######################################################################
#
# If this CIF has been generated from an entry in the Cambridge 
# Structural Database, then it will include bibliographic, chemical, 
# crystal, experimental, refinement or atomic coordinate data resulting 
# from the CCDC's data processing and validation procedures.
#
#######################################################################

data_ULOYUR
_chemical_formula_moiety         'C11 H10 N2 S1,C4 H6 O4'
_chemical_name_systematic        
'4-((Pyridin-4-ylmethyl)sulfanyl)pyridine succinic acid'
_symmetry_cell_setting           triclinic
_symmetry_space_group_name_H-M   'P -1'
_symmetry_Int_Tables_number      2
_space_group_name_Hall           '-P 1'
loop_
_symmetry_equiv_pos_site_id
_symmetry_equiv_pos_as_xyz
1 x,y,z
2 -x,-y,-z
_cell_length_a                   7.3024(6)
_cell_length_b                   10.7115(7)
_cell_length_c                   11.2743(6)
_cell_angle_alpha                109.491(5)
_cell_angle_beta                 100.496(5)
_cell_angle_gamma                107.860(5)
_cell_volume                     750.444
_exptl_crystal_colour            colorless
_exptl_crystal_description       Block
_cell_formula_units_Z            2
loop_
_atom_site_label
_atom_site_type_symbol
_atom_site_fract_x
_atom_site_fract_y
_atom_site_fract_z
S1 S 0.68243(17) 0.39601(11) 0.96789(10)
N1 N 0.4520(5) 0.1980(4) 0.4477(3)
N2 N 0.9786(5) 0.7361(3) 1.3892(3)
C1 C 0.9795(6) 0.7748(4) 1.2907(4)
H1 H 1.0421 0.8725 1.3110
C2 C 0.8928(6) 0.6790(4) 1.1577(4)
H2 H 0.8983 0.7118 1.0912
C3 C 0.7981(5) 0.5339(4) 1.1268(3)
C4 C 0.7977(6) 0.4918(4) 1.2308(4)
H3 H 0.7357 0.3949 1.2138
C5 C 0.8894(6) 0.5943(4) 1.3584(4)
H4 H 0.8903 0.5647 1.4271
C6 C 0.7154(5) 0.4943(4) 0.8619(3)
H5 H 0.6506 0.5621 0.8799
H6 H 0.8586 0.5477 0.8796
C7 C 0.6190(5) 0.3841(4) 0.7170(3)
C8 C 0.6498(6) 0.4326(4) 0.6206(4)
H7 H 0.7279 0.5291 0.6442
C9 C 0.5640(6) 0.3369(5) 0.4885(4)
H8 H 0.5859 0.3719 0.4249
C10 C 0.4234(6) 0.1523(4) 0.5406(4)
H9 H 0.3444 0.0553 0.5142
C11 C 0.5031(6) 0.2395(4) 0.6737(4)
H10 H 0.4790 0.2009 0.7348
O1 O 0.1284(4) -0.0738(3) -0.3638(2)
H11 H 0.0801 -0.1402 -0.4381
O2 O 0.0612(5) -0.2531(3) -0.3013(3)
O3 O 0.3669(5) 0.1803(3) 0.1315(3)
O4 O 0.3002(5) 0.0059(3) 0.1993(3)
H12 H 0.3500 0.0738 0.2726
C12 C 0.3020(5) 0.0547(4) 0.1077(3)
C13 C 0.2124(6) -0.0651(4) -0.0303(3)
H13 H 0.2891 -0.1254 -0.0391
H14 H 0.0739 -0.1245 -0.0427
C14 C 0.2130(6) -0.0098(4) -0.1371(3)
H15 H 0.1358 0.0502 -0.1280
H16 H 0.3515 0.0504 -0.1237
C15 C 0.1263(5) -0.1261(4) -0.2748(3)
loop_
_geom_bond_atom_site_label_1
_geom_bond_atom_site_label_2
_geom_bond_site_symmetry_1
_geom_bond_site_symmetry_2
S1 C3 1_555 1_555
N1 C9 1_555 1_555
N2 C1 1_555 1_555
C1 H1 1_555 1_555
C2 C1 1_555 1_555
H2 C2 1_555 1_555
C3 C2 1_555 1_555
C4 C3 1_555 1_555
H3 C4 1_555 1_555
C5 N2 1_555 1_555
H4 C5 1_555 1_555
C6 S1 1_555 1_555
H5 C6 1_555 1_555
H6 C6 1_555 1_555
C7 C6 1_555 1_555
C8 C7 1_555 1_555
H7 C8 1_555 1_555
C9 C8 1_555 1_555
H8 C9 1_555 1_555
C10 N1 1_555 1_555
H9 C10 1_555 1_555
C11 C7 1_555 1_555
H10 C11 1_555 1_555
O1 H11 1_555 1_555
O2 C15 1_555 1_555
O3 C12 1_555 1_555
O4 H12 1_555 1_555
C12 O4 1_555 1_555
C13 C12 1_555 1_555
H13 C13 1_555 1_555
H14 C13 1_555 1_555
C14 C13 1_555 1_555
H15 C14 1_555 1_555
H16 C14 1_555 1_555
C15 O1 1_555 1_555
C4 C5 1_555 1_555
C10 C11 1_555 1_555
C14 C15 1_555 1_555

#END
