
#######################################################################
#
#                 Cambridge Crystallographic Data Centre
#                                CCDC 
#
#######################################################################
#
# If this CIF has been generated from an entry in the Cambridge 
# Structural Database, then it will include bibliographic, chemical, 
# crystal, experimental, refinement or atomic coordinate data resulting 
# from the CCDC's data processing and validation procedures.
#
#######################################################################

data_ULOZAY
_chemical_formula_moiety         'C19 H17 Br1 N2'
_chemical_name_systematic        
2-(4-Bromophenyl)-1,3-dimethyl-2,3-dihydro-1H-perimidine
_symmetry_cell_setting           orthorhombic
_symmetry_space_group_name_H-M   'P n m a'
_symmetry_Int_Tables_number      62
_space_group_name_Hall           '-P 2ac 2n'
loop_
_symmetry_equiv_pos_site_id
_symmetry_equiv_pos_as_xyz
1 x,y,z
2 1/2+x,1/2-y,1/2-z
3 -x,1/2+y,-z
4 1/2-x,-y,1/2+z
5 -x,-y,-z
6 1/2-x,1/2+y,1/2+z
7 x,1/2-y,z
8 1/2+x,y,1/2-z
_cell_length_a                   11.506(5)
_cell_length_b                   12.176(5)
_cell_length_c                   11.327(5)
_cell_angle_alpha                90
_cell_angle_beta                 90
_cell_angle_gamma                90
_cell_volume                     1586.88
_exptl_crystal_colour            colorless
_exptl_crystal_description       block
_cell_formula_units_Z            4
loop_
_atom_site_label
_atom_site_type_symbol
_atom_site_fract_x
_atom_site_fract_y
_atom_site_fract_z
Br1 Br 0.85259(4) 0.2500 1.22694(4)
C1 C 0.1252(2) 0.3514(2) 1.0246(2)
H1 H 0.0574 0.3527 1.0692
C2 C 0.1743(3) 0.2500 0.9909(3)
C3 C 0.2769(3) 0.2500 0.9220(3)
C4 C 0.3282(2) 0.1484(2) 0.8879(2)
N1 N 0.42508(18) 0.15229(19) 0.81504(19)
C5 C 0.4977(3) 0.2500 0.8184(3)
H2 H 0.5433 0.2500 0.7453
C6 C 0.7452(3) 0.2500 1.1012(3)
C7 C 0.5497(3) 0.2500 1.0373(3)
H3 H 0.4707 0.2500 1.0549
C8 C 0.6294(3) 0.2500 1.1278(3)
H4 H 0.6048 0.2500 1.2061
C9 C 0.4874(3) 0.0508(3) 0.7910(3)
H5 H 0.5185 0.0221 0.8633
H6 H 0.5496 0.0651 0.7367
H7 H 0.4350 -0.0019 0.7570
C10 C 0.1761(3) 0.0535(2) 0.9922(3)
H8 H 0.1426 -0.0127 1.0153
C11 C 0.2779(2) 0.0518(2) 0.9247(3)
H9 H 0.3119 -0.0150 0.9047
C12 C 0.7025(3) 0.2500 0.8968(3)
H10 H 0.7277 0.2500 0.8188
C13 C 0.5849(3) 0.2500 0.9202(3)
C14 C 0.7836(3) 0.2500 0.9864(3)
H11 H 0.8627 0.2500 0.9695
C1F C 0.1252(2) 0.1486(2) 1.0246(2)
H1F H 0.0574 0.1473 1.0692
C4F C 0.3282(2) 0.3516(2) 0.8879(2)
N1F N 0.42508(18) 0.34771(19) 0.81504(19)
C9F C 0.4874(3) 0.4492(3) 0.7910(3)
H5F H 0.5185 0.4779 0.8633
H6F H 0.5496 0.4349 0.7367
H7F H 0.4350 0.5019 0.7570
C10F C 0.1761(3) 0.4465(2) 0.9922(3)
H8F H 0.1426 0.5127 1.0153
C11F C 0.2779(2) 0.4482(2) 0.9247(3)
H9F H 0.3119 0.5150 0.9047
loop_
_geom_bond_atom_site_label_1
_geom_bond_atom_site_label_2
_geom_bond_site_symmetry_1
_geom_bond_site_symmetry_2
Br1 C6 1_555 1_555
C1 H1 1_555 1_555
C2 C1 1_555 1_555
C3 C2 1_555 1_555
C4 C3 1_555 1_555
N1 C4 1_555 1_555
C5 N1 1_555 1_555
H2 C5 1_555 1_555
C6 C8 1_555 1_555
C7 H3 1_555 1_555
C8 C7 1_555 1_555
H4 C8 1_555 1_555
C9 N1 1_555 1_555
H5 C9 1_555 1_555
H6 C9 1_555 1_555
H7 C9 1_555 1_555
C10 H8 1_555 1_555
C11 C4 1_555 1_555
H9 C11 1_555 1_555
C12 H10 1_555 1_555
C13 C5 1_555 1_555
C14 C6 1_555 1_555
H11 C14 1_555 1_555
C1F C2 1_555 1_555
H1F C1F 1_555 1_555
C4F C3 1_555 1_555
N1F C5 1_555 1_555
C9F N1F 1_555 1_555
H5F C9F 1_555 1_555
H6F C9F 1_555 1_555
H7F C9F 1_555 1_555
C10F C1 1_555 1_555
H8F C10F 1_555 1_555
C11F C4F 1_555 1_555
H9F C11F 1_555 1_555
C7 C13 1_555 1_555
C10 C11 1_555 1_555
C10 C1F 1_555 1_555
C12 C13 1_555 1_555
C12 C14 1_555 1_555
C4F N1F 1_555 1_555
C10F C11F 1_555 1_555

#END
