
#######################################################################
#
#                 Cambridge Crystallographic Data Centre
#                                CCDC 
#
#######################################################################
#
# If this CIF has been generated from an entry in the Cambridge 
# Structural Database, then it will include bibliographic, chemical, 
# crystal, experimental, refinement or atomic coordinate data resulting 
# from the CCDC's data processing and validation procedures.
#
#######################################################################

data_ULUFAK
_chemical_formula_moiety         'C17 H14 B1 F2 N1 O4'
_chemical_name_systematic        
1,1-Difluoro-3-(2,4-dimethoxyphenyl)-1H-[1,3,2]oxazaborinino[4,3-b][1,3]benzoxazol-10-ium-1-ide
_symmetry_cell_setting           monoclinic
_symmetry_space_group_name_H-M   'P 21/n'
_symmetry_Int_Tables_number      14
_space_group_name_Hall           '-P 2yn'
loop_
_symmetry_equiv_pos_site_id
_symmetry_equiv_pos_as_xyz
1 x,y,z
2 1/2-x,1/2+y,1/2-z
3 -x,-y,-z
4 1/2+x,1/2-y,1/2+z
_cell_length_a                   8.6901(17)
_cell_length_b                   8.0756(16)
_cell_length_c                   22.705(5)
_cell_angle_alpha                90
_cell_angle_beta                 100.06(3)
_cell_angle_gamma                90
_cell_volume                     1568.89
_exptl_crystal_colour            colorless
_exptl_crystal_description       block
_cell_formula_units_Z            4
loop_
_atom_site_label
_atom_site_type_symbol
_atom_site_fract_x
_atom_site_fract_y
_atom_site_fract_z
C1 C -0.4595(3) 0.4504(3) -0.17246(11)
H1 H -0.4258 0.5328 -0.1979
H2 H -0.5608 0.4100 -0.1904
H3 H -0.3863 0.3603 -0.1673
C2 C 0.5975(3) 1.1391(3) 0.22843(9)
H4 H 0.6250 1.1894 0.2656
C3 C 0.7116(3) 1.1147(3) 0.19355(9)
H5 H 0.8137 1.1468 0.2085
C4 C 0.6778(2) 1.0439(3) 0.13699(9)
H6 H 0.7531 1.0294 0.1129
C5 C 0.5254(2) 0.9973(2) 0.11940(8)
C6 C -0.3568(3) 0.6673(3) -0.03046(9)
H7 H -0.4553 0.6733 -0.0198
C7 C -0.3367(3) 0.5883(3) -0.08292(9)
B1 B 0.1094(3) 0.9229(3) 0.13660(9)
C8 C 0.4443(3) 1.0908(3) 0.20960(8)
H8 H 0.3681 1.1062 0.2332
C9 C -0.2300(2) 0.7362(3) 0.00537(9)
H9 H -0.2444 0.7885 0.0405
C10 C 0.1067(3) 0.5518(3) -0.12742(9)
H10 H 0.0751 0.4386 -0.1245
H11 H 0.2153 0.5556 -0.1307
H12 H 0.0456 0.6018 -0.1622
C11 C -0.1905(2) 0.5794(2) -0.09848(8)
H13 H -0.1776 0.5263 -0.1336
C12 C 0.2006(2) 0.8217(2) 0.02464(8)
H14 H 0.2319 0.7813 -0.0098
C13 C 0.3066(2) 0.8984(2) 0.06935(8)
O1 O -0.46802(19) 0.5216(2) -0.11576(7)
C14 C -0.0792(2) 0.7312(2) -0.00864(8)
C15 C 0.4107(2) 1.0181(2) 0.15371(8)
C16 C -0.0625(2) 0.6494(2) -0.06181(8)
C17 C 0.0495(2) 0.8076(2) 0.03275(7)
N1 N 0.27292(18) 0.95392(18) 0.12040(6)
O2 O 0.08320(17) 0.63996(17) -0.07530(6)
O3 O 0.45848(16) 0.92110(17) 0.06578(5)
O4 O 0.00635(15) 0.86771(18) 0.08240(5)
F1 F 0.05259(14) 1.06408(14) 0.15822(5)
F2 F 0.12255(15) 0.79917(16) 0.17934(5)
loop_
_geom_bond_atom_site_label_1
_geom_bond_atom_site_label_2
_geom_bond_site_symmetry_1
_geom_bond_site_symmetry_2
C1 H1 1_555 1_555
H2 C1 1_555 1_555
H3 C1 1_555 1_555
C2 H4 1_555 1_555
C3 C2 1_555 1_555
H5 C3 1_555 1_555
C4 C3 1_555 1_555
H6 C4 1_555 1_555
C5 C4 1_555 1_555
C6 H7 1_555 1_555
C7 C6 1_555 1_555
B1 N1 1_555 1_555
C8 C2 1_555 1_555
H8 C8 1_555 1_555
C9 C6 1_555 1_555
H9 C9 1_555 1_555
C10 H10 1_555 1_555
H11 C10 1_555 1_555
H12 C10 1_555 1_555
C11 C7 1_555 1_555
H13 C11 1_555 1_555
C12 H14 1_555 1_555
C13 C12 1_555 1_555
O1 C1 1_555 1_555
C14 C9 1_555 1_555
C15 C5 1_555 1_555
C16 C11 1_555 1_555
C17 C12 1_555 1_555
N1 C13 1_555 1_555
O2 C10 1_555 1_555
O3 C5 1_555 1_555
O4 B1 1_555 1_555
F1 B1 1_555 1_555
F2 B1 1_555 1_555
C7 O1 1_555 1_555
C8 C15 1_555 1_555
C13 O3 1_555 1_555
C14 C16 1_555 1_555
C14 C17 1_555 1_555
C15 N1 1_555 1_555
C16 O2 1_555 1_555
C17 O4 1_555 1_555

#END
