
#######################################################################
#
#                 Cambridge Crystallographic Data Centre
#                                CCDC 
#
#######################################################################
#
# If this CIF has been generated from an entry in the Cambridge 
# Structural Database, then it will include bibliographic, chemical, 
# crystal, experimental, refinement or atomic coordinate data resulting 
# from the CCDC's data processing and validation procedures.
#
#######################################################################

data_ULUGAL
_chemical_formula_moiety         'C23 H20 Br2 N2 O2'
_chemical_name_systematic        
3-((2-(4-Bromo-1-methyl-1H-indol-3-yl)-3-(4-bromophenyl)cyclobutylidene)methyl)-1,3-oxazolidin-2-one
_symmetry_cell_setting           monoclinic
_symmetry_space_group_name_H-M   'P 21/n'
_symmetry_Int_Tables_number      14
_space_group_name_Hall           '-P 2yn'
loop_
_symmetry_equiv_pos_site_id
_symmetry_equiv_pos_as_xyz
1 x,y,z
2 1/2-x,1/2+y,1/2-z
3 -x,-y,-z
4 1/2+x,1/2-y,1/2+z
_cell_length_a                   13.4028(8)
_cell_length_b                   11.2931(6)
_cell_length_c                   14.0439(8)
_cell_angle_alpha                90
_cell_angle_beta                 91.990(2)
_cell_angle_gamma                90
_cell_volume                     2124.39
_exptl_crystal_colour            colorless
_exptl_crystal_description       block
_cell_formula_units_Z            4
loop_
_atom_site_label
_atom_site_type_symbol
_atom_site_fract_x
_atom_site_fract_y
_atom_site_fract_z
Br1 Br 0.19253(5) 0.44333(5) 0.03024(4)
Br2 Br 0.28349(4) 0.77391(7) -0.29547(4)
O1 O 0.6316(2) 0.4672(3) 0.4646(2)
O2 O 0.5267(2) 0.3135(2) 0.4707(2)
N1 N 0.4978(2) 0.4475(3) 0.3581(2)
N2 N 0.1803(2) 0.6161(3) 0.3672(2)
C1 C 0.1288(3) 0.4763(3) 0.1439(3)
C2 C 0.0300(4) 0.4462(4) 0.1490(5)
H1 H -0.0014 0.4066 0.0982
C3 C -0.0235(4) 0.4733(5) 0.2280(5)
H2 H -0.0905 0.4523 0.2289
C4 C 0.0192(3) 0.5306(4) 0.3053(4)
H3 H -0.0172 0.5493 0.3584
C5 C 0.1206(3) 0.5594(3) 0.3002(3)
C6 C 0.2732(3) 0.6277(3) 0.3310(3)
H4 H 0.3271 0.6637 0.3628
C7 C 0.2764(3) 0.5799(3) 0.2424(3)
C8 C 0.1782(3) 0.5340(3) 0.2207(3)
C9 C 0.1501(4) 0.6571(5) 0.4599(4)
H5 H 0.2057 0.6942 0.4927
H6 H 0.1278 0.5909 0.4964
H7 H 0.0966 0.7131 0.4517
C10 C 0.4209(3) 0.3610(4) 0.3395(3)
H8 H 0.4259 0.3269 0.2764
H9 H 0.3550 0.3951 0.3455
C11 C 0.4429(4) 0.2711(4) 0.4156(4)
H10 H 0.3857 0.2616 0.4555
H11 H 0.4580 0.1951 0.3874
C12 C 0.5592(3) 0.4152(4) 0.4335(3)
C13 C 0.5225(3) 0.5426(3) 0.3007(3)
H12 H 0.5840 0.5777 0.3152
C14 C 0.4708(3) 0.5903(3) 0.2285(3)
C15 C 0.5011(3) 0.6865(4) 0.1617(3)
H13 H 0.5423 0.6591 0.1107
H14 H 0.5308 0.7548 0.1935
C16 C 0.3907(3) 0.7037(3) 0.1312(3)
H15 H 0.3630 0.7693 0.1677
C17 C 0.3659(3) 0.5826(3) 0.1819(3)
H16 H 0.3626 0.5180 0.1352
C18 C 0.3642(3) 0.7207(3) 0.0280(3)
C19 C 0.3896(4) 0.6377(4) -0.0399(3)
H17 H 0.4240 0.5698 -0.0206
C20 C 0.3654(4) 0.6531(5) -0.1352(3)
H18 H 0.3826 0.5961 -0.1795
C21 C 0.3157(3) 0.7535(5) -0.1638(3)
C22 C 0.2907(3) 0.8386(4) -0.0998(3)
H19 H 0.2579 0.9071 -0.1201
C23 C 0.3151(3) 0.8214(4) -0.0040(3)
H20 H 0.2980 0.8791 0.0398
loop_
_geom_bond_atom_site_label_1
_geom_bond_atom_site_label_2
_geom_bond_site_symmetry_1
_geom_bond_site_symmetry_2
Br1 C1 1_555 1_555
Br2 C21 1_555 1_555
O1 C12 1_555 1_555
O2 C11 1_555 1_555
N1 C10 1_555 1_555
N2 C5 1_555 1_555
C1 C2 1_555 1_555
C2 H1 1_555 1_555
C3 C2 1_555 1_555
H2 C3 1_555 1_555
C4 C3 1_555 1_555
H3 C4 1_555 1_555
C5 C4 1_555 1_555
C6 N2 1_555 1_555
H4 C6 1_555 1_555
C7 C6 1_555 1_555
C8 C1 1_555 1_555
C9 N2 1_555 1_555
H5 C9 1_555 1_555
H6 C9 1_555 1_555
H7 C9 1_555 1_555
C10 H8 1_555 1_555
H9 C10 1_555 1_555
C11 C10 1_555 1_555
H10 C11 1_555 1_555
H11 C11 1_555 1_555
C12 O2 1_555 1_555
C13 N1 1_555 1_555
H12 C13 1_555 1_555
C14 C13 1_555 1_555
C15 C14 1_555 1_555
H13 C15 1_555 1_555
H14 C15 1_555 1_555
C16 C15 1_555 1_555
H15 C16 1_555 1_555
C17 C7 1_555 1_555
H16 C17 1_555 1_555
C18 C16 1_555 1_555
C19 C18 1_555 1_555
H17 C19 1_555 1_555
C20 C19 1_555 1_555
H18 C20 1_555 1_555
C21 C20 1_555 1_555
C22 C21 1_555 1_555
H19 C22 1_555 1_555
C23 C18 1_555 1_555
H20 C23 1_555 1_555
N1 C12 1_555 1_555
C5 C8 1_555 1_555
C7 C8 1_555 1_555
C14 C17 1_555 1_555
C16 C17 1_555 1_555
C22 C23 1_555 1_555

#END
