
#######################################################################
#
#                 Cambridge Crystallographic Data Centre
#                                CCDC 
#
#######################################################################
#
# If this CIF has been generated from an entry in the Cambridge 
# Structural Database, then it will include bibliographic, chemical, 
# crystal, experimental, refinement or atomic coordinate data resulting 
# from the CCDC's data processing and validation procedures.
#
#######################################################################

data_ULUHAL
_chemical_formula_moiety         'C28 H18 O2'
_chemical_name_systematic        
1,4-bis((4-ethynylphenyl)ethynyl)-2,5-dimethoxybenzene
_symmetry_cell_setting           monoclinic
_symmetry_space_group_name_H-M   'P 21/c'
_symmetry_Int_Tables_number      14
_space_group_name_Hall           '-P 2ybc'
loop_
_symmetry_equiv_pos_site_id
_symmetry_equiv_pos_as_xyz
1 x,y,z
2 -x,1/2+y,1/2-z
3 -x,-y,-z
4 x,1/2-y,1/2+z
_cell_length_a                   12.0449(3)
_cell_length_b                   7.1061(2)
_cell_length_c                   12.6949(3)
_cell_angle_alpha                90
_cell_angle_beta                 115.26(1)
_cell_angle_gamma                90
_cell_volume                     982.687
_exptl_crystal_colour            colorless
_exptl_crystal_description       plate
_cell_formula_units_Z            2
loop_
_atom_site_label
_atom_site_type_symbol
_atom_site_fract_x
_atom_site_fract_y
_atom_site_fract_z
O1 O 0.40088(8) 0.30935(13) 0.62951(8)
C1 C 1.25003(14) 0.1116(2) 0.28994(14)
C2 C 1.17613(12) 0.12326(19) 0.32246(11)
C3 C 1.07361(11) 0.14659(18) 0.35645(11)
C4 C 0.95203(11) 0.10609(19) 0.27570(12)
C5 C 0.85597(12) 0.1465(2) 0.30516(12)
C6 C 0.87747(11) 0.22834(18) 0.41236(11)
C7 C 0.99857(12) 0.2616(2) 0.49327(12)
C8 C 1.09593(11) 0.22297(18) 0.46662(11)
C9 C 0.77583(12) 0.28795(18) 0.43765(11)
C10 C 0.69521(12) 0.34740(19) 0.45684(11)
C11 C 0.59589(10) 0.42378(18) 0.47859(10)
C12 C 0.54684(11) 0.32261(18) 0.54349(11)
C13 C 0.45195(11) 0.39771(18) 0.56529(10)
C14 C 0.43604(14) 0.1189(2) 0.66258(15)
H1 H 1.308(3) 0.104(4) 0.245(3)
H2 H 0.9412(14) 0.056(3) 0.2099(15)
H3 H 0.7743(16) 0.122(3) 0.2482(15)
H4 H 1.0172(15) 0.322(2) 0.5693(15)
H5 H 1.1735(16) 0.243(2) 0.5187(15)
H6 H 0.5806(14) 0.200(2) 0.5724(14)
H7 H 0.3879(16) 0.078(3) 0.7071(16)
H8 H 0.5262(19) 0.113(3) 0.7175(18)
H9 H 0.4140(17) 0.041(3) 0.5924(17)
O1B O 0.59912(8) 0.69065(13) 0.37049(8)
C1B C -0.25003(14) 0.8884(2) 0.71006(14)
C2B C -0.17613(12) 0.87674(19) 0.67754(11)
C3B C -0.07361(11) 0.85341(18) 0.64355(11)
C4B C 0.04797(11) 0.89391(19) 0.72430(12)
C5B C 0.14403(12) 0.8535(2) 0.69484(12)
C6B C 0.12253(11) 0.77166(18) 0.58764(11)
C7B C 0.00143(12) 0.7384(2) 0.50673(12)
C8B C -0.09593(11) 0.77703(18) 0.53338(11)
C9B C 0.22417(12) 0.71205(18) 0.56235(11)
C10B C 0.30479(12) 0.65260(19) 0.54316(11)
C11B C 0.40411(10) 0.57622(18) 0.52141(10)
C12B C 0.45316(11) 0.67739(18) 0.45651(11)
C13B C 0.54805(11) 0.60229(18) 0.43471(10)
C14B C 0.56396(14) 0.8811(2) 0.33742(15)
H1B H -0.308(3) 0.896(4) 0.755(3)
H2B H 0.0588(14) 0.944(3) 0.7901(15)
H3B H 0.2257(16) 0.878(3) 0.7518(15)
H4B H -0.0172(15) 0.678(2) 0.4307(15)
H5B H -0.1735(16) 0.757(2) 0.4813(15)
H6B H 0.4194(14) 0.800(2) 0.4276(14)
H7B H 0.6121(16) 0.922(3) 0.2929(16)
H8B H 0.4738(19) 0.887(3) 0.2825(18)
H9B H 0.5860(17) 0.959(3) 0.4076(17)
loop_
_geom_bond_atom_site_label_1
_geom_bond_atom_site_label_2
_geom_bond_site_symmetry_1
_geom_bond_site_symmetry_2
O1 C13 1_555 1_555
C1 C2 1_555 1_555
C2 C3 1_555 1_555
C3 C4 1_555 1_555
C4 C5 1_555 1_555
C5 C6 1_555 1_555
C6 C7 1_555 1_555
C7 C8 1_555 1_555
C8 C3 1_555 1_555
C9 C6 1_555 1_555
C10 C9 1_555 1_555
C11 C10 1_555 1_555
C12 C11 1_555 1_555
C13 C12 1_555 1_555
C14 O1 1_555 1_555
H1 C1 1_555 1_555
H2 C4 1_555 1_555
H3 C5 1_555 1_555
H4 C7 1_555 1_555
H5 C8 1_555 1_555
H6 C12 1_555 1_555
H7 C14 1_555 1_555
H8 C14 1_555 1_555
H9 C14 1_555 1_555
O1B C13B 1_555 1_555
C1B C2B 1_555 1_555
C2B C3B 1_555 1_555
C3B C4B 1_555 1_555
C4B C5B 1_555 1_555
C5B C6B 1_555 1_555
C6B C7B 1_555 1_555
C7B C8B 1_555 1_555
C8B C3B 1_555 1_555
C9B C6B 1_555 1_555
C10B C9B 1_555 1_555
C11B C13 1_555 1_555
C12B C11B 1_555 1_555
C13B C11 1_555 1_555
C14B O1B 1_555 1_555
H1B C1B 1_555 1_555
H2B C4B 1_555 1_555
H3B C5B 1_555 1_555
H4B C7B 1_555 1_555
H5B C8B 1_555 1_555
H6B C12B 1_555 1_555
H7B C14B 1_555 1_555
H8B C14B 1_555 1_555
H9B C14B 1_555 1_555
C10B C11B 1_555 1_555
C12B C13B 1_555 1_555

#END
