
#######################################################################
#
#                 Cambridge Crystallographic Data Centre
#                                CCDC 
#
#######################################################################
#
# If this CIF has been generated from an entry in the Cambridge 
# Structural Database, then it will include bibliographic, chemical, 
# crystal, experimental, refinement or atomic coordinate data resulting 
# from the CCDC's data processing and validation procedures.
#
#######################################################################

data_ULUNEW
_chemical_formula_moiety         'C22 H18 N2 O4'
_chemical_name_systematic        
'methyl 2-(2-(3-methoxy-3-oxoprop-1-en-1-yl)phenyl)-2,4-dihydropyrrolo[3,4-b]indole-1-carboxylate'
_symmetry_cell_setting           monoclinic
_symmetry_space_group_name_H-M   'P 21/c'
_symmetry_Int_Tables_number      14
_space_group_name_Hall           '-P 2ybc'
loop_
_symmetry_equiv_pos_site_id
_symmetry_equiv_pos_as_xyz
1 x,y,z
2 -x,1/2+y,1/2-z
3 -x,-y,-z
4 x,1/2-y,1/2+z
_cell_length_a                   10.3710(11)
_cell_length_b                   11.8160(12)
_cell_length_c                   15.6080(17)
_cell_angle_alpha                90
_cell_angle_beta                 100.675(2)
_cell_angle_gamma                90
_cell_volume                     1879.56
_cell_formula_units_Z            4
loop_
_atom_site_label
_atom_site_type_symbol
_atom_site_fract_x
_atom_site_fract_y
_atom_site_fract_z
O1 O 0.01603(12) 0.36023(10) 0.08134(9)
O2 O 0.08275(13) 0.39044(10) -0.31925(8)
O3 O 0.05139(12) 0.21024(11) -0.00017(9)
N1 N 0.33134(13) 0.25941(11) 0.05162(9)
C1 C 0.28548(16) 0.42421(13) 0.10773(10)
C2 C 0.22858(16) 0.32582(13) 0.06778(10)
C3 C 0.26250(17) 0.53363(13) 0.14436(10)
C4 C 0.32252(16) 0.15322(13) 0.00538(11)
O4 O 0.23193(13) 0.47489(11) -0.21863(9)
C5 C 0.17550(17) 0.39017(15) -0.24868(11)
C6 C 0.38828(18) 0.58261(14) 0.16963(11)
C7 C 0.09289(17) 0.29025(14) 0.04470(11)
N2 N 0.48435(15) 0.50993(13) 0.15162(11)
H1 H 0.5675 0.5222 0.1621
C8 C 0.29508(16) 0.15465(14) -0.08572(11)
C9 C 0.42202(17) 0.41389(14) 0.11374(11)
C10 C 0.34471(18) 0.05345(15) 0.05149(13)
H2 H 0.3634 0.0545 0.1121
C11 C 0.44958(17) 0.31249(15) 0.07884(12)
H3 H 0.5321 0.2850 0.0744
C12 C 0.29307(17) 0.05100(15) -0.12830(13)
H4 H 0.2773 0.0491 -0.1889
C13 C 0.19995(17) 0.27656(15) -0.21169(11)
H5 H 0.1674 0.2138 -0.2448
C14 C 0.26753(17) 0.26195(14) -0.13203(11)
H6 H 0.3012 0.3268 -0.1023
C15 C 0.4037(2) 0.69011(16) 0.20686(13)
H7 H 0.4864 0.7223 0.2234
C16 C 0.15258(19) 0.59308(15) 0.15754(12)
H8 H 0.0693 0.5617 0.1419
C17 C -0.12099(19) 0.33124(19) 0.06841(15)
H9 H -0.1668 0.3864 0.0966
H10 H -0.1308 0.2579 0.0929
H11 H -0.1568 0.3301 0.0071
C18 C 0.33904(19) -0.04805(15) 0.00720(15)
H12 H 0.3521 -0.1158 0.0379
C19 C 0.0474(2) 0.49818(17) -0.36076(15)
H13 H -0.0204 0.4872 -0.4110
H14 H 0.1229 0.5311 -0.3785
H15 H 0.0162 0.5479 -0.3204
C20 C 0.31398(19) -0.04865(16) -0.08240(15)
H16 H 0.3111 -0.1170 -0.1122
C21 C 0.2925(2) 0.74695(16) 0.21830(14)
H17 H 0.3004 0.8190 0.2428
C22 C 0.1689(2) 0.69937(16) 0.19420(14)
H18 H 0.0956 0.7400 0.2029
loop_
_geom_bond_atom_site_label_1
_geom_bond_atom_site_label_2
_geom_bond_site_symmetry_1
_geom_bond_site_symmetry_2
O1 C7 1_555 1_555
O2 C5 1_555 1_555
O3 C7 1_555 1_555
N1 C2 1_555 1_555
C1 C2 1_555 1_555
C2 C7 1_555 1_555
C3 C1 1_555 1_555
C4 N1 1_555 1_555
O4 C5 1_555 1_555
C5 C13 1_555 1_555
C6 C3 1_555 1_555
N2 C6 1_555 1_555
H1 N2 1_555 1_555
C8 C4 1_555 1_555
C9 C1 1_555 1_555
C10 C4 1_555 1_555
H2 C10 1_555 1_555
C11 N1 1_555 1_555
H3 C11 1_555 1_555
C12 C8 1_555 1_555
H4 C12 1_555 1_555
C13 H5 1_555 1_555
C14 C8 1_555 1_555
H6 C14 1_555 1_555
C15 C6 1_555 1_555
H7 C15 1_555 1_555
C16 C3 1_555 1_555
H8 C16 1_555 1_555
C17 O1 1_555 1_555
H9 C17 1_555 1_555
H10 C17 1_555 1_555
H11 C17 1_555 1_555
C18 C10 1_555 1_555
H12 C18 1_555 1_555
C19 O2 1_555 1_555
H13 C19 1_555 1_555
H14 C19 1_555 1_555
H15 C19 1_555 1_555
C20 C12 1_555 1_555
H16 C20 1_555 1_555
C21 C15 1_555 1_555
H17 C21 1_555 1_555
C22 C16 1_555 1_555
H18 C22 1_555 1_555
N2 C9 1_555 1_555
C9 C11 1_555 1_555
C13 C14 1_555 1_555
C18 C20 1_555 1_555
C21 C22 1_555 1_555

#END
