
#######################################################################
#
#                 Cambridge Crystallographic Data Centre
#                                CCDC 
#
#######################################################################
#
# If this CIF has been generated from an entry in the Cambridge 
# Structural Database, then it will include bibliographic, chemical, 
# crystal, experimental, refinement or atomic coordinate data resulting 
# from the CCDC's data processing and validation procedures.
#
#######################################################################

data_ULUZUY
_chemical_formula_moiety         'C6 H8 O6,C5 H4 Br1 N1 O1'
_chemical_name_systematic        'L-ascorbic acid 3-bromopyridin-4(1H)-one'
_symmetry_cell_setting           monoclinic
_symmetry_space_group_name_H-M   'P 21'
_symmetry_Int_Tables_number      4
_space_group_name_Hall           'P 2yb'
loop_
_symmetry_equiv_pos_site_id
_symmetry_equiv_pos_as_xyz
1 x,y,z
2 -x,1/2+y,-z
_cell_length_a                   8.3401(3)
_cell_length_b                   6.5548(2)
_cell_length_c                   12.0226(5)
_cell_angle_alpha                90
_cell_angle_beta                 101.043(2)
_cell_angle_gamma                90
_cell_volume                     645.078
_exptl_crystal_colour            colorless
_exptl_crystal_description       block
_cell_formula_units_Z            2
loop_
_atom_site_label
_atom_site_type_symbol
_atom_site_fract_x
_atom_site_fract_y
_atom_site_fract_z
Br1 Br -0.30070(5) 0.75660(11) -0.01943(4)
C1 C -0.1226(5) 0.7485(11) 0.2026(3)
H1 H -0.2272 0.7502 0.2228
C2 C -0.1090(5) 0.7527(12) 0.0905(3)
C3 C 0.0447(5) 0.7463(11) 0.0573(3)
C4 C 0.1850(6) 0.7368(10) 0.1502(3)
C5 C 0.1624(6) 0.7309(9) 0.2595(4)
H2 H 0.2543 0.7189 0.3195
N1 N 0.0124(5) 0.7420(9) 0.2831(3)
H3 H 0.0020 0.7451 0.3546
O1 O 0.0627(3) 0.7458(8) -0.0458(2)
O2 O 0.3110(3) 0.7673(8) 0.8567(2)
O3 O 0.2224(3) 0.7618(7) 0.55380(18)
O4 O 0.3881(4) 0.4090(5) 0.6461(3)
H4 H 0.3565 0.3881 0.5764
O5 O 0.6481(4) 0.8375(5) 0.5930(3)
H5 H 0.7344 0.8265 0.6419
O6 O -0.0632(3) 0.7254(6) 0.7390(2)
H6 H -0.0512 0.7844 0.8021
C6 C 0.5709(5) 0.6435(7) 0.5746(4)
H7 H 0.6550 0.5355 0.5797
H8 H 0.5026 0.6389 0.4976
O7 O -0.0485(3) 0.7247(6) 0.5008(2)
C7 C 0.2355(4) 0.7588(10) 0.7486(3)
C8 C 0.3392(4) 0.7734(10) 0.6601(3)
H9 H 0.3957 0.9086 0.6659
C9 C 0.4640(5) 0.6038(7) 0.6628(3)
H10 H 0.5365 0.6044 0.7394
C10 C 0.0700(4) 0.7407(9) 0.5768(3)
C11 C 0.0783(4) 0.7395(9) 0.6980(3)
H11 H 0.236(6) 0.713(9) 0.901(4)
Br2? Br 0.3558(10) 0.6953(13) 0.1413(7)
loop_
_geom_bond_atom_site_label_1
_geom_bond_atom_site_label_2
_geom_bond_site_symmetry_1
_geom_bond_site_symmetry_2
Br1 C2 1_555 1_555
C1 H1 1_555 1_555
C2 C1 1_555 1_555
C3 C2 1_555 1_555
C4 C3 1_555 1_555
C5 C4 1_555 1_555
H2 C5 1_555 1_555
N1 C1 1_555 1_555
H3 N1 1_555 1_555
O1 C3 1_555 1_555
O2 C7 1_555 1_555
O3 C8 1_555 1_555
O4 H4 1_555 1_555
O5 H5 1_555 1_555
O6 H6 1_555 1_555
C6 O5 1_555 1_555
H7 C6 1_555 1_555
H8 C6 1_555 1_555
O7 C10 1_555 1_555
C7 C8 1_555 1_555
C8 H9 1_555 1_555
C9 O4 1_555 1_555
H10 C9 1_555 1_555
C10 O3 1_555 1_555
C11 O6 1_555 1_555
H11 O2 1_555 1_555
C5 N1 1_555 1_555
C6 C9 1_555 1_555
C7 C11 1_555 1_555
C8 C9 1_555 1_555
C10 C11 1_555 1_555

#END
