
#######################################################################
#
#                 Cambridge Crystallographic Data Centre
#                                CCDC 
#
#######################################################################
#
# If this CIF has been generated from an entry in the Cambridge 
# Structural Database, then it will include bibliographic, chemical, 
# crystal, experimental, refinement or atomic coordinate data resulting 
# from the CCDC's data processing and validation procedures.
#
#######################################################################

data_UMAFET
_chemical_formula_moiety         'C34 H38 B1 N1'
_chemical_name_systematic        
trans-4'-N,N-Dimethylamino-4-dimesitylborylstilbene
_symmetry_cell_setting           monoclinic
_symmetry_space_group_name_H-M   'P 21/c'
_symmetry_Int_Tables_number      14
_space_group_name_Hall           '-P 2ybc'
loop_
_symmetry_equiv_pos_site_id
_symmetry_equiv_pos_as_xyz
1 x,y,z
2 x,1/2-y,1/2+z
3 -x,-y,-z
4 -x,1/2+y,1/2-z
_cell_length_a                   8.411(3)
_cell_length_b                   7.899(3)
_cell_length_c                   43.847(14)
_cell_angle_alpha                90
_cell_angle_beta                 93.851(6)
_cell_angle_gamma                90
_cell_volume                     2906.55
_exptl_crystal_colour            'pale green'
_exptl_crystal_description       prism
_chemical_melting_point          455-461K
_cell_formula_units_Z            4
_exptl_crystal_preparation       
'intense single-photon excited fluorescent activity (SPEF)'
loop_
_atom_site_label
_atom_site_type_symbol
_atom_site_fract_x
_atom_site_fract_y
_atom_site_fract_z
B1 B 0.8520(6) 0.4794(6) 0.09201(13)
N1 N -0.0192(6) 0.5794(6) 0.30699(10)
C1 C 0.7649(5) 0.5122(7) 0.12165(11)
C2 C 0.6821(6) 0.6598(8) 0.12779(13)
C3 C 0.5985(6) 0.6717(10) 0.15453(16)
C4 C 0.5934(8) 0.5412(12) 0.17473(14)
C5 C 0.6790(8) 0.3960(11) 0.16906(17)
C6 C 0.7628(6) 0.3809(9) 0.14339(14)
C7 C 0.5034(8) 0.5156(11) 0.2042(2)
C8 C 0.3938(10) 0.6265(11) 0.2105(2)
C9 C 0.3044(11) 0.5946(12) 0.23906(14)
C10 C 0.1824(11) 0.7080(11) 0.23950(17)
C11 C 0.0779(9) 0.7038(8) 0.26209(14)
C12 C 0.0897(7) 0.5803(7) 0.28504(12)
C13 C 0.2190(8) 0.4704(9) 0.28527(14)
C14 C 0.3236(7) 0.4766(10) 0.26188(18)
C15 C -0.0041(13) 0.4619(11) 0.33244(17)
C16 C -0.1587(14) 0.6882(15) 0.3045(2)
C17 C 0.9935(5) 0.3503(6) 0.09496(10)
C18 C 0.9827(6) 0.1948(7) 0.07965(10)
C19 C 1.1041(8) 0.0782(8) 0.08305(13)
C20 C 1.2437(7) 0.1125(8) 0.09979(14)
C21 C 1.2570(6) 0.2653(9) 0.11493(13)
C22 C 1.1327(6) 0.3840(7) 0.11344(11)
C23 C 0.8315(9) 0.1474(10) 0.0604(2)
C24 C 1.3813(10) -0.0122(12) 0.1020(2)
C25 C 1.1510(10) 0.5515(12) 0.1305(2)
C26 C 0.7990(5) 0.5711(5) 0.06117(10)
C27 C 0.9099(6) 0.6425(6) 0.04190(12)
C28 C 0.8584(7) 0.7338(6) 0.01643(12)
C29 C 0.6983(8) 0.7609(7) 0.00831(12)
C30 C 0.5910(7) 0.6834(7) 0.02537(13)
C31 C 0.6346(6) 0.5924(6) 0.05150(12)
C32 C 1.0870(7) 0.6154(12) 0.0471(2)
C33 C 0.6476(12) 0.8685(12) -0.01907(17)
C34 C 0.5047(7) 0.5034(11) 0.06821(17)
H1 H 0.682(5) 0.776(6) 0.1124(9)
H2 H 0.564(5) 0.793(5) 0.1575(9)
H3 H 0.693(8) 0.292(8) 0.1824(14)
H4 H 0.832(7) 0.255(7) 0.1391(12)
H5 H 0.491(4) 0.459(4) 0.2241(6)
H6 H 0.438(5) 0.707(3) 0.1953(10)
H7 H 0.177(7) 0.823(7) 0.2241(12)
H8 H -0.021(6) 0.788(6) 0.2619(10)
H9 H 0.232(6) 0.371(6) 0.3006(11)
H10 H 0.399(7) 0.346(7) 0.2634(12)
H11 H -0.025(6) 0.334(7) 0.3260(11)
H12 H 0.114(8) 0.463(8) 0.3421(15)
H13 H -0.048(10) 0.503(10) 0.352(2)
H14 H -0.224(8) 0.685(9) 0.2851(16)
H15 H -0.078(8) 0.820(9) 0.3019(17)
H16 H -0.205(9) 0.674(9) 0.3208(16)
H17 H 1.087(6) -0.043(7) 0.0731(11)
H18 H 1.345(5) 0.302(5) 0.1296(8)
H19 H 0.840(6) 0.049(7) 0.0490(12)
H20 H 0.831(7) 0.245(8) 0.0392(14)
H21 H 0.728(8) 0.166(8) 0.0716(14)
H22 H 1.385(8) -0.057(8) 0.0823(14)
H23 H 1.456(5) 0.049(6) 0.1151(10)
H24 H 1.368(11) -0.096(12) 0.125(2)
H25 H 1.096(11) 0.673(12) 0.1232(18)
H26 H 1.121(9) 0.507(10) 0.1463(17)
H27 H 1.252(6) 0.577(6) 0.1369(10)
H28 H 0.943(5) 0.801(5) 0.0038(9)
H29 H 0.472(5) 0.701(5) 0.0191(8)
H30 H 1.134(6) 0.646(6) 0.0665(11)
H31 H 1.113(7) 0.485(9) 0.0458(13)
H32 H 1.130(8) 0.677(8) 0.0355(14)
H33 H 0.698(7) 0.827(7) -0.0368(12)
H34 H 0.526(6) 0.870(6) -0.0216(10)
H35 H 0.655(7) 1.007(8) -0.0157(13)
H36 H 0.414(6) 0.476(5) 0.0537(10)
H37 H 0.538(6) 0.411(7) 0.0812(11)
H38 H 0.452(7) 0.593(7) 0.0814(12)
loop_
_geom_bond_atom_site_label_1
_geom_bond_atom_site_label_2
_geom_bond_site_symmetry_1
_geom_bond_site_symmetry_2
B1 C1 1_555 1_555
N1 C12 1_555 1_555
C1 C2 1_555 1_555
C2 C3 1_555 1_555
C3 C4 1_555 1_555
C4 C5 1_555 1_555
C5 C6 1_555 1_555
C6 C1 1_555 1_555
C7 C4 1_555 1_555
C8 C7 1_555 1_555
C9 C8 1_555 1_555
C10 C9 1_555 1_555
C11 C10 1_555 1_555
C12 C11 1_555 1_555
C13 C12 1_555 1_555
C14 C9 1_555 1_555
C15 N1 1_555 1_555
C16 N1 1_555 1_555
C17 B1 1_555 1_555
C18 C17 1_555 1_555
C19 C18 1_555 1_555
C20 C19 1_555 1_555
C21 C20 1_555 1_555
C22 C17 1_555 1_555
C23 C18 1_555 1_555
C24 C20 1_555 1_555
C25 C22 1_555 1_555
C26 B1 1_555 1_555
C27 C26 1_555 1_555
C28 C27 1_555 1_555
C29 C28 1_555 1_555
C30 C29 1_555 1_555
C31 C26 1_555 1_555
C32 C27 1_555 1_555
C33 C29 1_555 1_555
C34 C31 1_555 1_555
H1 C2 1_555 1_555
H2 C3 1_555 1_555
H3 C5 1_555 1_555
H4 C6 1_555 1_555
H5 C7 1_555 1_555
H6 C8 1_555 1_555
H7 C10 1_555 1_555
H8 C11 1_555 1_555
H9 C13 1_555 1_555
H10 C14 1_555 1_555
H11 C15 1_555 1_555
H12 C15 1_555 1_555
H13 C15 1_555 1_555
H14 C16 1_555 1_555
H15 C16 1_555 1_555
H16 C16 1_555 1_555
H17 C19 1_555 1_555
H18 C21 1_555 1_555
H19 C23 1_555 1_555
H20 C23 1_555 1_555
H21 C23 1_555 1_555
H22 C24 1_555 1_555
H23 C24 1_555 1_555
H24 C24 1_555 1_555
H25 C25 1_555 1_555
H26 C25 1_555 1_555
H27 C25 1_555 1_555
H28 C28 1_555 1_555
H29 C30 1_555 1_555
H30 C32 1_555 1_555
H31 C32 1_555 1_555
H32 C32 1_555 1_555
H33 C33 1_555 1_555
H34 C33 1_555 1_555
H35 C33 1_555 1_555
H36 C34 1_555 1_555
H37 C34 1_555 1_555
H38 C34 1_555 1_555
C13 C14 1_555 1_555
C21 C22 1_555 1_555
C30 C31 1_555 1_555

#END
