
#######################################################################
#
#                 Cambridge Crystallographic Data Centre
#                                CCDC 
#
#######################################################################
#
# If this CIF has been generated from an entry in the Cambridge 
# Structural Database, then it will include bibliographic, chemical, 
# crystal, experimental, refinement or atomic coordinate data resulting 
# from the CCDC's data processing and validation procedures.
#
#######################################################################

data_UMASUX
_chemical_formula_moiety         'C12 H12 N2 O1'
_chemical_name_systematic        
2-Methyl-3,4-dihydropyrazino[1,2-a]indol-1(2H)-one
_symmetry_cell_setting           monoclinic
_symmetry_space_group_name_H-M   'P 21/c'
_symmetry_Int_Tables_number      14
_space_group_name_Hall           '-P 2ybc'
loop_
_symmetry_equiv_pos_site_id
_symmetry_equiv_pos_as_xyz
1 x,y,z
2 -x,1/2+y,1/2-z
3 -x,-y,-z
4 x,1/2-y,1/2+z
_cell_length_a                   10.5035(12)
_cell_length_b                   8.0361(9)
_cell_length_c                   12.2743(14)
_cell_angle_alpha                90
_cell_angle_beta                 98.375(2)
_cell_angle_gamma                90
_cell_volume                     1024.99
_exptl_crystal_colour            colorless
_exptl_crystal_description       block
_cell_formula_units_Z            4
loop_
_atom_site_label
_atom_site_type_symbol
_atom_site_fract_x
_atom_site_fract_y
_atom_site_fract_z
C1 C 0.16565(13) 0.13074(17) 0.19738(11)
C2 C 0.24280(16) 0.0599(2) 0.28771(13)
H1 H 0.2102 -0.0170 0.3331
C3 C 0.37007(18) 0.1096(3) 0.30643(18)
H2 H 0.4243 0.0658 0.3662
C4 C 0.41932(19) 0.2246(3) 0.2375(2)
H3 H 0.5055 0.2553 0.2525
C5 C 0.34380(18) 0.2920(2) 0.14953(17)
H4 H 0.3780 0.3678 0.1044
C6 C 0.21429(15) 0.24668(19) 0.12714(12)
C7 C 0.11106(16) 0.29173(18) 0.04598(12)
H5 H 0.1144 0.3661 -0.0116
C8 C 0.00541(14) 0.20640(14) 0.06732(10)
C9 C -0.12593(15) 0.20632(16) 0.00743(11)
C10 C -0.18620(14) 0.0630(2) 0.16895(12)
H6 H -0.2474 -0.0235 0.1802
H7 H -0.1982 0.1543 0.2181
C11 C -0.05322(13) -0.00387(17) 0.19816(11)
H8 H -0.0333 -0.0173 0.2774
H9 H -0.0470 -0.1120 0.1642
C12 C -0.34675(17) 0.1207(3) 0.00354(16)
H10 H -0.3945 0.2014 0.0387
H11 H -0.3829 0.0122 0.0108
H12 H -0.3511 0.1477 -0.0731
N1 N 0.03789(10) 0.11018(12) 0.15995(8)
N2 N -0.21352(11) 0.12156(15) 0.05536(9)
O1 O -0.15158(12) 0.27745(14) -0.08203(9)
loop_
_geom_bond_atom_site_label_1
_geom_bond_atom_site_label_2
_geom_bond_site_symmetry_1
_geom_bond_site_symmetry_2
C1 C2 1_555 1_555
C2 H1 1_555 1_555
C3 C2 1_555 1_555
H2 C3 1_555 1_555
C4 C3 1_555 1_555
H3 C4 1_555 1_555
C5 C4 1_555 1_555
H4 C5 1_555 1_555
C6 C1 1_555 1_555
C7 C6 1_555 1_555
H5 C7 1_555 1_555
C8 C7 1_555 1_555
C9 C8 1_555 1_555
C10 H6 1_555 1_555
H7 C10 1_555 1_555
C11 C10 1_555 1_555
H8 C11 1_555 1_555
H9 C11 1_555 1_555
C12 H10 1_555 1_555
H11 C12 1_555 1_555
H12 C12 1_555 1_555
N1 C1 1_555 1_555
N2 C9 1_555 1_555
O1 C9 1_555 1_555
C5 C6 1_555 1_555
C8 N1 1_555 1_555
C10 N2 1_555 1_555
C11 N1 1_555 1_555
C12 N2 1_555 1_555

#END
