
#######################################################################
#
#                 Cambridge Crystallographic Data Centre
#                                CCDC 
#
#######################################################################
#
# If this CIF has been generated from an entry in the Cambridge 
# Structural Database, then it will include bibliographic, chemical, 
# crystal, experimental, refinement or atomic coordinate data resulting 
# from the CCDC's data processing and validation procedures.
#
#######################################################################

data_UMAVEL
_chemical_compound_source        'Morinda parvifolia'
_chemical_formula_moiety         'C13 H11 N1 O5'
_chemical_name_systematic        
'Methyl 3-amino-6-methoxy-1,4-dioxo-1,4-dihydronaphthalene-2-carboxylate'
_chemical_properties_biological  'cytotoxic activity'
_symmetry_cell_setting           monoclinic
_symmetry_space_group_name_H-M   'P 21/c'
_symmetry_Int_Tables_number      14
_space_group_name_Hall           '-P 2ybc'
loop_
_symmetry_equiv_pos_site_id
_symmetry_equiv_pos_as_xyz
1 x,y,z
2 -x,1/2+y,1/2-z
3 -x,-y,-z
4 x,1/2-y,1/2+z
_cell_length_a                   4.671(3)
_cell_length_b                   18.357(7)
_cell_length_c                   13.454(6)
_cell_angle_alpha                90
_cell_angle_beta                 91.671(12)
_cell_angle_gamma                90
_cell_volume                     1153.13
_exptl_crystal_colour            yellow
_exptl_crystal_description       prism
_cell_formula_units_Z            4
loop_
_atom_site_label
_atom_site_type_symbol
_atom_site_fract_x
_atom_site_fract_y
_atom_site_fract_z
N1 N -0.2247(5) 0.09986(11) 0.45294(14)
H1 H -0.3309 0.0633 0.4672
H2 H -0.2377 0.1193 0.3948
O1 O 0.2724(4) 0.11804(9) 0.76764(13)
O2 O 0.0823(5) 0.20838(10) 0.39407(12)
O3 O 0.8171(4) 0.38499(9) 0.54983(12)
O4 O -0.3496(4) 0.01060(10) 0.59593(14)
O5 O -0.1081(4) 0.01335(9) 0.73962(13)
C1 C 0.5635(5) 0.24029(13) 0.70633(17)
H3 H 0.5959 0.2242 0.7712
C2 C 0.7098(5) 0.30001(12) 0.67240(17)
H4 H 0.8418 0.3235 0.7144
C3 C 0.6619(5) 0.32562(12) 0.57548(17)
C4 C 0.4663(5) 0.29028(12) 0.51259(16)
H5 H 0.4317 0.3069 0.4480
C5 C 0.3227(5) 0.22941(12) 0.54800(15)
C6 C 0.1233(5) 0.19113(12) 0.48090(17)
C7 C -0.0407(5) 0.12634(11) 0.52061(16)
C8 C 0.0053(5) 0.10153(11) 0.61624(16)
C9 C 0.2161(5) 0.13810(12) 0.68252(16)
C10 C 0.3677(4) 0.20375(11) 0.64457(16)
C11 C 0.8021(8) 0.40805(18) 0.4483(2)
H6 H 0.9208 0.4502 0.4403
H7 H 0.6075 0.4199 0.4299
H8 H 0.8678 0.3695 0.4065
C12 C -0.1654(5) 0.03858(12) 0.64834(17)
C13 C -0.2914(6) -0.04527(13) 0.7712(2)
H9 H -0.2354 -0.0599 0.8374
H10 H -0.2739 -0.0859 0.7269
H11 H -0.4867 -0.0289 0.7703
loop_
_geom_bond_atom_site_label_1
_geom_bond_atom_site_label_2
_geom_bond_site_symmetry_1
_geom_bond_site_symmetry_2
N1 H1 1_555 1_555
H2 N1 1_555 1_555
O1 C9 1_555 1_555
O2 C6 1_555 1_555
O3 C3 1_555 1_555
O4 C12 1_555 1_555
O5 C12 1_555 1_555
C1 H3 1_555 1_555
C2 C1 1_555 1_555
H4 C2 1_555 1_555
C3 C2 1_555 1_555
C4 C3 1_555 1_555
H5 C4 1_555 1_555
C5 C4 1_555 1_555
C6 C5 1_555 1_555
C7 N1 1_555 1_555
C8 C7 1_555 1_555
C9 C8 1_555 1_555
C10 C1 1_555 1_555
C11 O3 1_555 1_555
H6 C11 1_555 1_555
H7 C11 1_555 1_555
H8 C11 1_555 1_555
C12 C8 1_555 1_555
C13 O5 1_555 1_555
H9 C13 1_555 1_555
H10 C13 1_555 1_555
H11 C13 1_555 1_555
C5 C10 1_555 1_555
C6 C7 1_555 1_555
C9 C10 1_555 1_555

#END
