
#######################################################################
#
#                 Cambridge Crystallographic Data Centre
#                                CCDC 
#
#######################################################################
#
# If this CIF has been generated from an entry in the Cambridge 
# Structural Database, then it will include bibliographic, chemical, 
# crystal, experimental, refinement or atomic coordinate data resulting 
# from the CCDC's data processing and validation procedures.
#
#######################################################################

data_UMAXOX
_chemical_formula_moiety         'C7 H11 N2 1+,C7 H4 N1 O3 S1 1-'
_chemical_name_systematic        '2-(Dimethylamino)pyridinium saccharinate'
_symmetry_cell_setting           monoclinic
_symmetry_space_group_name_H-M   'P 21/c'
_symmetry_Int_Tables_number      14
_space_group_name_Hall           '-P 2ybc'
loop_
_symmetry_equiv_pos_site_id
_symmetry_equiv_pos_as_xyz
1 x,y,z
2 -x,1/2+y,1/2-z
3 -x,-y,-z
4 x,1/2-y,1/2+z
_cell_length_a                   7.1952(4)
_cell_length_b                   8.4058(4)
_cell_length_c                   23.5390(11)
_cell_angle_alpha                90
_cell_angle_beta                 96.981(2)
_cell_angle_gamma                90
_cell_volume                     1413.12
_exptl_crystal_colour            colorless
_exptl_crystal_description       prism
_cell_formula_units_Z            4
loop_
_atom_site_label
_atom_site_type_symbol
_atom_site_fract_x
_atom_site_fract_y
_atom_site_fract_z
C1 C 0.1819(2) 0.5460(2) 0.41537(7)
C2 C 0.1520(3) 0.6451(2) 0.46027(8)
H1 H 0.1519 0.6055 0.4981
C3 C 0.1221(3) 0.8052(2) 0.44757(9)
H2 H 0.1001 0.8768 0.4772
C4 C 0.1239(3) 0.8625(2) 0.39220(10)
H3 H 0.1047 0.9727 0.3847
C5 C 0.1535(3) 0.7605(2) 0.34774(9)
H4 H 0.1542 0.7994 0.3099
C6 C 0.1819(2) 0.6004(2) 0.36010(7)
C7 C 0.2131(3) 0.4664(2) 0.31997(8)
N1 N 0.2349(2) 0.32372(19) 0.34559(7)
O1 O 0.0632(2) 0.25208(17) 0.42956(7)
O2 O 0.3996(2) 0.29985(19) 0.44614(6)
O3 O 0.2174(2) 0.49128(18) 0.26788(6)
S1 S 0.22241(7) 0.33829(5) 0.413505(19)
C8 C 0.2640(3) 0.1086(2) 0.22312(8)
H5 H 0.2378 0.1069 0.2617
C9 C 0.2695(3) -0.0301(2) 0.19407(9)
H6 H 0.2493 -0.1291 0.2118
C10 C 0.3060(3) -0.0228(2) 0.13677(9)
H7 H 0.3093 -0.1185 0.1154
C11 C 0.3368(3) 0.1184(2) 0.11137(8)
H8 H 0.3609 0.1211 0.0726
C12 C 0.3329(2) 0.2616(2) 0.14291(7)
C13 C 0.3616(3) 0.5511(2) 0.15302(9)
H9 H 0.3880 0.6411 0.1288
H10 H 0.4571 0.5462 0.1864
H11 H 0.2380 0.5650 0.1658
C14 C 0.3850(3) 0.4189(3) 0.05974(8)
H12 H 0.4074 0.5305 0.0507
H13 H 0.2703 0.3820 0.0368
H14 H 0.4911 0.3541 0.0510
N2 N 0.2953(2) 0.25056(18) 0.19797(6)
H15 H 0.2792 0.3421 0.2209
N3 N 0.3644(2) 0.40402(18) 0.12048(6)
loop_
_geom_bond_atom_site_label_1
_geom_bond_atom_site_label_2
_geom_bond_site_symmetry_1
_geom_bond_site_symmetry_2
C1 C2 1_555 1_555
C2 H1 1_555 1_555
C3 C2 1_555 1_555
H2 C3 1_555 1_555
C4 C3 1_555 1_555
H3 C4 1_555 1_555
C5 C4 1_555 1_555
H4 C5 1_555 1_555
C6 C1 1_555 1_555
C7 C6 1_555 1_555
N1 C7 1_555 1_555
O1 S1 1_555 1_555
O2 S1 1_555 1_555
O3 C7 1_555 1_555
S1 C1 1_555 1_555
C8 H5 1_555 1_555
C9 C8 1_555 1_555
H6 C9 1_555 1_555
C10 C9 1_555 1_555
H7 C10 1_555 1_555
C11 C10 1_555 1_555
H8 C11 1_555 1_555
C12 C11 1_555 1_555
C13 H9 1_555 1_555
H10 C13 1_555 1_555
H11 C13 1_555 1_555
C14 H12 1_555 1_555
H13 C14 1_555 1_555
H14 C14 1_555 1_555
N2 C8 1_555 1_555
H15 N2 1_555 1_555
N3 C12 1_555 1_555
C5 C6 1_555 1_555
N1 S1 1_555 1_555
C12 N2 1_555 1_555
C13 N3 1_555 1_555
C14 N3 1_555 1_555

#END
