
#######################################################################
#
#                 Cambridge Crystallographic Data Centre
#                                CCDC 
#
#######################################################################
#
# If this CIF has been generated from an entry in the Cambridge 
# Structural Database, then it will include bibliographic, chemical, 
# crystal, experimental, refinement or atomic coordinate data resulting 
# from the CCDC's data processing and validation procedures.
#
#######################################################################

data_UMAXUD
_chemical_formula_moiety         'C9 H13 N2 1+,C7 H4 N1 O3 S1 1-'
_chemical_name_systematic        '4-(Pyrrolidinyl)pyridinium saccharinate'
_symmetry_cell_setting           monoclinic
_symmetry_space_group_name_H-M   'P 21/n'
_symmetry_Int_Tables_number      14
_space_group_name_Hall           '-P 2yn'
loop_
_symmetry_equiv_pos_site_id
_symmetry_equiv_pos_as_xyz
1 x,y,z
2 1/2-x,1/2+y,1/2-z
3 -x,-y,-z
4 1/2+x,1/2-y,1/2+z
_cell_length_a                   13.4242(4)
_cell_length_b                   8.9063(3)
_cell_length_c                   13.6575(4)
_cell_angle_alpha                90
_cell_angle_beta                 112.260(2)
_cell_angle_gamma                90
_cell_volume                     1511.2
_exptl_crystal_colour            colorless
_exptl_crystal_description       prism
_cell_formula_units_Z            4
loop_
_atom_site_label
_atom_site_type_symbol
_atom_site_fract_x
_atom_site_fract_y
_atom_site_fract_z
S1 S 0.82193(3) 0.01066(4) 0.02547(3)
O1 O 0.90028(9) -0.10592(13) 0.07133(9)
O2 O 0.77606(9) 0.01402(13) -0.08860(9)
O3 O 0.65766(8) 0.16649(13) 0.16282(9)
N1 N 0.72873(10) 0.00857(14) 0.07313(11)
C1 C 0.72405(11) 0.13936(17) 0.12282(11)
C2 C 0.82747(12) 0.39243(17) 0.16485(12)
C3 C 0.91009(13) 0.47627(18) 0.15362(13)
C4 C 0.97435(12) 0.41538(19) 0.10401(12)
C5 C 0.95751(12) 0.27017(18) 0.06284(12)
C6 C 0.87347(11) 0.19059(17) 0.07311(11)
C7 C 0.80942(11) 0.24903(17) 0.12322(11)
H1 H 0.7873(16) 0.432(2) 0.2024(16)
H2 H 0.9249(14) 0.577(2) 0.1821(14)
H3 H 1.0312(16) 0.475(2) 0.0946(15)
H4 H 1.0023(15) 0.228(2) 0.0296(15)
N2 N 0.90481(10) 0.02692(14) -0.34021(10)
N3 N 1.08718(10) -0.29590(15) -0.40846(10)
C8 C 0.93982(12) 0.18328(17) -0.31225(13)
C9 C 0.86514(12) 0.23891(18) -0.25973(12)
C10 C 0.76128(12) 0.15116(18) -0.31666(13)
C11 C 0.80187(13) -0.00453(17) -0.32901(14)
C12 C 0.96409(11) -0.07796(17) -0.36199(11)
C13 C 0.93089(12) -0.23063(17) -0.37738(12)
C14 C 0.99368(12) -0.33438(18) -0.39954(12)
C15 C 1.12131(12) -0.15215(17) -0.39414(12)
C16 C 1.06351(12) -0.04115(18) -0.37154(12)
H5 H 1.1300(17) -0.367(3) -0.4209(17)
H6 H 0.9301(14) 0.242(2) -0.3751(15)
H7 H 1.0131(16) 0.186(2) -0.2662(15)
H8 H 0.8960(14) 0.214(2) -0.1846(15)
H9 H 0.8540(15) 0.345(2) -0.2674(15)
H10 H 0.7144(15) 0.149(2) -0.2781(16)
H11 H 0.7215(15) 0.194(2) -0.3855(16)
H12 H 0.8144(14) -0.065(2) -0.2654(14)
H13 H 0.7522(15) -0.059(2) -0.3913(15)
H14 H 0.8660(16) -0.264(2) -0.3686(15)
H15 H 0.9752(14) -0.440(2) -0.4097(15)
H16 H 1.1892(15) -0.132(2) -0.4017(14)
H17 H 1.0891(14) 0.058(2) -0.3634(14)
loop_
_geom_bond_atom_site_label_1
_geom_bond_atom_site_label_2
_geom_bond_site_symmetry_1
_geom_bond_site_symmetry_2
S1 O1 1_555 1_555
O2 S1 1_555 1_555
O3 C1 1_555 1_555
N1 S1 1_555 1_555
C1 N1 1_555 1_555
C2 C3 1_555 1_555
C3 C4 1_555 1_555
C4 C5 1_555 1_555
C5 C6 1_555 1_555
C6 S1 1_555 1_555
C7 C1 1_555 1_555
H1 C2 1_555 1_555
H2 C3 1_555 1_555
H3 C4 1_555 1_555
H4 C5 1_555 1_555
N2 C8 1_555 1_555
N3 C14 1_555 1_555
C8 C9 1_555 1_555
C9 C10 1_555 1_555
C10 C11 1_555 1_555
C11 N2 1_555 1_555
C12 N2 1_555 1_555
C13 C12 1_555 1_555
C14 C13 1_555 1_555
C15 N3 1_555 1_555
C16 C12 1_555 1_555
H5 N3 1_555 1_555
H6 C8 1_555 1_555
H7 C8 1_555 1_555
H8 C9 1_555 1_555
H9 C9 1_555 1_555
H10 C10 1_555 1_555
H11 C10 1_555 1_555
H12 C11 1_555 1_555
H13 C11 1_555 1_555
H14 C13 1_555 1_555
H15 C14 1_555 1_555
H16 C15 1_555 1_555
H17 C16 1_555 1_555
C2 C7 1_555 1_555
C6 C7 1_555 1_555
C15 C16 1_555 1_555

#END
