
#######################################################################
#
#                 Cambridge Crystallographic Data Centre
#                                CCDC 
#
#######################################################################
#
# If this CIF has been generated from an entry in the Cambridge 
# Structural Database, then it will include bibliographic, chemical, 
# crystal, experimental, refinement or atomic coordinate data resulting 
# from the CCDC's data processing and validation procedures.
#
#######################################################################

data_UMEMUV
_chemical_formula_moiety         'C33 H29 N1 O4'
_chemical_name_systematic        
"Ethyl 2-acetyl-1'-(9-anthrylmethyl)-5-methyl-2'-oxo-1',2'-dihydrospiro[cyclopent-3-ene-1,3'-indole]-3-carboxylate"
_symmetry_cell_setting           triclinic
_symmetry_space_group_name_H-M   'P -1'
_symmetry_Int_Tables_number      2
_space_group_name_Hall           '-P 1'
loop_
_symmetry_equiv_pos_site_id
_symmetry_equiv_pos_as_xyz
1 x,y,z
2 -x,-y,-z
_cell_length_a                   7.5777(9)
_cell_length_b                   12.4273(15)
_cell_length_c                   14.6322(18)
_cell_angle_alpha                81.787(2)
_cell_angle_beta                 77.390(2)
_cell_angle_gamma                80.671(2)
_cell_volume                     1318.61
_exptl_crystal_colour            colorless
_exptl_crystal_description       prismatic
_chemical_melting_point          134-136deg.C
_cell_formula_units_Z            2
loop_
_atom_site_label
_atom_site_type_symbol
_atom_site_fract_x
_atom_site_fract_y
_atom_site_fract_z
N1 N 0.2177(2) 0.67776(13) 0.59361(11)
O1 O -0.0165(2) 0.67618(14) 0.72271(12)
O2 O 0.4460(3) 0.32328(18) 0.98337(14)
O3 O 0.2428(3) 0.27647(17) 0.91257(16)
O4 O 0.0006(2) 0.40499(15) 0.73518(11)
C1 C 0.1409(3) 0.64900(17) 0.68534(15)
C2 C 0.4036(3) 0.63523(15) 0.57360(13)
C3 C 0.5268(3) 0.64228(15) 0.48931(14)
H1 H 0.4913 0.6782 0.4346
C4 C 0.7055(3) 0.59410(16) 0.48845(14)
H2 H 0.7912 0.5982 0.4323
C5 C 0.7585(3) 0.54024(17) 0.56925(15)
H3 H 0.8796 0.5098 0.5675
C6 C 0.6317(3) 0.53131(17) 0.65333(14)
H4 H 0.6664 0.4935 0.7076
C7 C 0.4545(3) 0.57893(16) 0.65544(13)
C8 C 0.2899(3) 0.58210(17) 0.73399(13)
C9 C 0.2502(3) 0.46345(17) 0.77787(13)
H5 H 0.3233 0.4110 0.7357
C10 C 0.3280(3) 0.4498(2) 0.86659(14)
C11 C 0.3616(3) 0.5432(2) 0.88670(15)
H6 H 0.4127 0.5490 0.9378
C12 C 0.3094(3) 0.63883(19) 0.81950(15)
H7 H 0.1876 0.6734 0.8475
C13 C 0.4354(4) 0.7270(2) 0.79675(18)
H8 H 0.4349 0.7581 0.8532
H9 H 0.3935 0.7835 0.7514
H10 H 0.5571 0.6950 0.7713
C14 C 0.3497(4) 0.3452(2) 0.92728(17)
C15 C 0.2382(7) 0.1743(4) 0.9748(4)
H11 H 0.2910 0.1130 0.9389
H12 H 0.3100 0.1745 1.0222
C16 C 0.0534(13) 0.1621(10) 1.0198(12)
H13 H -0.0246 0.1854 0.9750
H14 H 0.0157 0.2061 1.0712
H15 H 0.0454 0.0864 1.0432
C17 C 0.0493(3) 0.44649(19) 0.79331(15)
C18 C -0.0814(4) 0.4802(2) 0.87936(17)
H16 H -0.2026 0.4961 0.8667
H17 H -0.0485 0.5445 0.8972
H18 H -0.0775 0.4218 0.9298
C19 C 0.1121(3) 0.74451(17) 0.52757(16)
H19 H -0.0108 0.7656 0.5617
H20 H 0.1036 0.6995 0.4801
C20 C 0.1896(3) 0.84719(17) 0.47835(17)
C21 C 0.2383(3) 0.86261(19) 0.37908(18)
C22 C 0.2241(4) 0.7845(2) 0.31920(19)
H21 H 0.1851 0.7179 0.3464
C23 C 0.2656(5) 0.8045(3) 0.2242(2)
H22 H 0.2550 0.7518 0.1872
C24 C 0.3247(5) 0.9041(4) 0.1810(3)
H23 H 0.3512 0.9173 0.1156
C25 C 0.3431(5) 0.9798(3) 0.2323(3)
H24 H 0.3836 1.0450 0.2022
C26 C 0.3019(4) 0.9630(2) 0.3335(2)
C27 C 0.3186(4) 1.0418(2) 0.3875(3)
H25 H 0.3624 1.1061 0.3574
C28 C 0.2728(3) 1.02844(19) 0.4845(3)
C29 C 0.2882(4) 1.1106(2) 0.5393(4)
H26 H 0.3349 1.1740 0.5088
C30 C 0.2377(5) 1.1002(3) 0.6336(4)
H27 H 0.2508 1.1549 0.6678
C31 C 0.1642(4) 1.0045(2) 0.6800(3)
H28 H 0.1266 0.9976 0.7452
C32 C 0.1472(4) 0.9226(2) 0.6315(2)
H29 H 0.0985 0.8607 0.6641
C33 C 0.2025(3) 0.92997(18) 0.5316(2)
C34? C 0.102(3) 0.1174(14) 0.9503(17)
H30? H 0.1858 0.1880 1.0392
H31? H 0.3598 0.1350 0.9692
H32? H 0.0542 0.0685 1.0036
H33? H 0.1583 0.0762 0.8983
H34? H 0.0043 0.1704 0.9330
loop_
_geom_bond_atom_site_label_1
_geom_bond_atom_site_label_2
_geom_bond_site_symmetry_1
_geom_bond_site_symmetry_2
N1 C1 1_555 1_555
O1 C1 1_555 1_555
O2 C14 1_555 1_555
O3 C14 1_555 1_555
O4 C17 1_555 1_555
C1 C8 1_555 1_555
C2 N1 1_555 1_555
C3 C2 1_555 1_555
H1 C3 1_555 1_555
C4 C3 1_555 1_555
H2 C4 1_555 1_555
C5 C4 1_555 1_555
H3 C5 1_555 1_555
C6 C5 1_555 1_555
H4 C6 1_555 1_555
C7 C2 1_555 1_555
C8 C7 1_555 1_555
C9 C8 1_555 1_555
H5 C9 1_555 1_555
C10 C9 1_555 1_555
C11 C10 1_555 1_555
H6 C11 1_555 1_555
C12 C8 1_555 1_555
H7 C12 1_555 1_555
C13 C12 1_555 1_555
H8 C13 1_555 1_555
H9 C13 1_555 1_555
H10 C13 1_555 1_555
C14 C10 1_555 1_555
C15 O3 1_555 1_555
H11 C15 1_555 1_555
H12 C15 1_555 1_555
C16 C15 1_555 1_555
H13 C16 1_555 1_555
H14 C16 1_555 1_555
H15 C16 1_555 1_555
C17 C9 1_555 1_555
C18 C17 1_555 1_555
H16 C18 1_555 1_555
H17 C18 1_555 1_555
H18 C18 1_555 1_555
C19 N1 1_555 1_555
H19 C19 1_555 1_555
H20 C19 1_555 1_555
C20 C19 1_555 1_555
C21 C20 1_555 1_555
C22 C21 1_555 1_555
H21 C22 1_555 1_555
C23 C22 1_555 1_555
H22 C23 1_555 1_555
C24 C23 1_555 1_555
H23 C24 1_555 1_555
C25 C24 1_555 1_555
H24 C25 1_555 1_555
C26 C21 1_555 1_555
C27 C26 1_555 1_555
H25 C27 1_555 1_555
C28 C27 1_555 1_555
C29 C28 1_555 1_555
H26 C29 1_555 1_555
C30 C29 1_555 1_555
H27 C30 1_555 1_555
C31 C30 1_555 1_555
H28 C31 1_555 1_555
C32 C31 1_555 1_555
H29 C32 1_555 1_555
C33 C20 1_555 1_555
C6 C7 1_555 1_555
C11 C12 1_555 1_555
C25 C26 1_555 1_555
C28 C33 1_555 1_555
C32 C33 1_555 1_555

#END
