
#######################################################################
#
#                 Cambridge Crystallographic Data Centre
#                                CCDC 
#
#######################################################################
#
# If this CIF has been generated from an entry in the Cambridge 
# Structural Database, then it will include bibliographic, chemical, 
# crystal, experimental, refinement or atomic coordinate data resulting 
# from the CCDC's data processing and validation procedures.
#
#######################################################################

data_UMEMIJ
_chemical_formula_moiety         'C24 H28 N4 O4'
_chemical_name_systematic        
't-Butyl 1-(2-t-butoxy-2-oxoethyl)-4,5-bis(pyridin-4-yl)-1H-imidazole-2-carboxylate'
_symmetry_cell_setting           monoclinic
_symmetry_space_group_name_H-M   'P 21/c'
_symmetry_Int_Tables_number      14
_space_group_name_Hall           '-P 2ybc'
loop_
_symmetry_equiv_pos_site_id
_symmetry_equiv_pos_as_xyz
1 x,y,z
2 -x,1/2+y,1/2-z
3 -x,-y,-z
4 x,1/2-y,1/2+z
_cell_length_a                   14.9775(10)
_cell_length_b                   16.1633(12)
_cell_length_c                   10.1797(7)
_cell_angle_alpha                90
_cell_angle_beta                 105.199(2)
_cell_angle_gamma                90
_cell_volume                     2378.16
_exptl_crystal_colour            colorless
_exptl_crystal_description       cubic
_cell_formula_units_Z            4
loop_
_atom_site_label
_atom_site_type_symbol
_atom_site_fract_x
_atom_site_fract_y
_atom_site_fract_z
O1 O 0.10479(10) 0.10184(9) 1.05445(15)
O2 O 0.27335(11) 0.00023(11) 0.63421(14)
C1 C 0.24460(13) 0.05008(13) 1.0386(2)
H1 H 0.2657 0.0479 1.1371
H2 H 0.2168 -0.0029 1.0067
O3 O 0.17873(12) 0.17436(11) 0.9259(2)
N1 N 0.32350(11) 0.06446(10) 0.98280(16)
N2 N 0.40992(11) 0.06833(10) 0.83604(15)
C2 C 0.40715(12) 0.09770(11) 1.05171(19)
C3 C 0.45999(13) 0.09929(11) 0.95893(18)
C4 C 0.1607(4) -0.1032(3) 0.5231(4)
H3 H 0.1332 -0.0998 0.5982
H4 H 0.2070 -0.1459 0.5406
H5 H 0.1139 -0.1160 0.4414
C5 C 0.20421(17) -0.02292(17) 0.5066(2)
C6 C 0.6681(2) 0.17265(19) 0.8581(3)
H6 H 0.6850 0.1796 0.7771
C7 C -0.0321(2) 0.1493(3) 0.8867(3)
H7 H 0.0040 0.1699 0.8286
H8 H -0.0878 0.1813 0.8730
H9 H -0.0476 0.0924 0.8653
C8 C 0.36981(17) 0.19260(13) 1.2208(2)
H10 H 0.3315 0.2223 1.1497
N3 N 0.43186(17) 0.17600(14) 1.4612(2)
C9 C 0.47882(16) 0.08675(15) 1.3033(2)
H11 H 0.5152 0.0425 1.2902
O4 O 0.17498(13) 0.00433(18) 0.7635(2)
C10 C 0.1390(5) 0.0443(4) 0.4665(5)
H12 H 0.0932 0.0412 0.5171
H13 H 0.1092 0.0402 0.3710
H14 H 0.1711 0.0962 0.4849
C11 C 0.42091(13) 0.12629(12) 1.19411(19)
C12 C 0.17290(14) 0.11726(13) 0.9972(2)
C13 C 0.2627(3) -0.0331(4) 0.4097(4)
H15 H 0.2236 -0.0389 0.3189
H16 H 0.3005 -0.0816 0.4335
H17 H 0.3015 0.0146 0.4142
C14 C 0.37651(19) 0.21417(16) 1.3548(3)
H18 H 0.3403 0.2577 1.3713
C15 C 0.61628(15) 0.15180(17) 1.0887(2)
H19 H 0.6012 0.1460 1.1712
C16 C 0.0533(3) 0.2432(2) 1.0744(5)
H20 H 0.0943 0.2425 1.1644
H21 H 0.0002 0.2766 1.0738
H22 H 0.0849 0.2658 1.0118
C17 C 0.32869(13) 0.04833(12) 0.85304(19)
C18 C 0.70262(17) 0.18071(18) 1.0855(3)
H23 H 0.7442 0.1935 1.1682
N4 N 0.73036(15) 0.19153(15) 0.9740(3)
C19 C 0.02258(15) 0.15622(16) 1.0322(2)
C20 C -0.0303(2) 0.1192(3) 1.1250(4)
H24 H -0.0416 0.0617 1.1037
H25 H -0.0882 0.1476 1.1127
H26 H 0.0053 0.1248 1.2179
C21 C 0.4817(2) 0.11429(18) 1.4329(2)
H27 H 0.5217 0.0874 1.5057
C22 C 0.58051(17) 0.14358(17) 0.8506(3)
H28 H 0.5400 0.1319 0.7665
C23 C 0.24972(15) 0.01491(14) 0.7469(2)
C24 C 0.55300(13) 0.13176(12) 0.9689(2)
loop_
_geom_bond_atom_site_label_1
_geom_bond_atom_site_label_2
_geom_bond_site_symmetry_1
_geom_bond_site_symmetry_2
O1 C12 1_555 1_555
O2 C5 1_555 1_555
C1 H1 1_555 1_555
H2 C1 1_555 1_555
O3 C12 1_555 1_555
N1 C1 1_555 1_555
N2 C3 1_555 1_555
C2 N1 1_555 1_555
C3 C2 1_555 1_555
C4 H3 1_555 1_555
H4 C4 1_555 1_555
H5 C4 1_555 1_555
C5 C4 1_555 1_555
C6 H6 1_555 1_555
C7 H7 1_555 1_555
H8 C7 1_555 1_555
H9 C7 1_555 1_555
C8 H10 1_555 1_555
N3 C14 1_555 1_555
C9 H11 1_555 1_555
O4 C23 1_555 1_555
C10 C5 1_555 1_555
H12 C10 1_555 1_555
H13 C10 1_555 1_555
H14 C10 1_555 1_555
C11 C2 1_555 1_555
C12 C1 1_555 1_555
C13 C5 1_555 1_555
H15 C13 1_555 1_555
H16 C13 1_555 1_555
H17 C13 1_555 1_555
C14 C8 1_555 1_555
H18 C14 1_555 1_555
C15 H19 1_555 1_555
C16 H20 1_555 1_555
H21 C16 1_555 1_555
H22 C16 1_555 1_555
C17 N1 1_555 1_555
C18 C15 1_555 1_555
H23 C18 1_555 1_555
N4 C6 1_555 1_555
C19 O1 1_555 1_555
C20 C19 1_555 1_555
H24 C20 1_555 1_555
H25 C20 1_555 1_555
H26 C20 1_555 1_555
C21 N3 1_555 1_555
H27 C21 1_555 1_555
C22 C6 1_555 1_555
H28 C22 1_555 1_555
C23 O2 1_555 1_555
C24 C3 1_555 1_555
N2 C17 1_555 1_555
C7 C19 1_555 1_555
C8 C11 1_555 1_555
C9 C11 1_555 1_555
C9 C21 1_555 1_555
C15 C24 1_555 1_555
C16 C19 1_555 1_555
C17 C23 1_555 1_555
C18 N4 1_555 1_555
C22 C24 1_555 1_555

#END
