
#######################################################################
#
#                 Cambridge Crystallographic Data Centre
#                                CCDC 
#
#######################################################################
#
# If this CIF has been generated from an entry in the Cambridge 
# Structural Database, then it will include bibliographic, chemical, 
# crystal, experimental, refinement or atomic coordinate data resulting 
# from the CCDC's data processing and validation procedures.
#
#######################################################################

data_UMEMEF
_chemical_formula_moiety         'C23 H25 N1 O3'
_chemical_name_systematic        
't-Butyl 9b-methyl-3-phenyl-3,3a,4,9b-tetrahydrochromeno[4,3-b]pyrrole-2-carboxylate'
_symmetry_cell_setting           triclinic
_symmetry_space_group_name_H-M   'P -1'
_symmetry_Int_Tables_number      2
_space_group_name_Hall           '-P 1'
loop_
_symmetry_equiv_pos_site_id
_symmetry_equiv_pos_as_xyz
1 x,y,z
2 -x,-y,-z
_cell_length_a                   8.752(6)
_cell_length_b                   10.838(8)
_cell_length_c                   11.416(8)
_cell_angle_alpha                69.727(9)
_cell_angle_beta                 85.757(9)
_cell_angle_gamma                85.893(8)
_cell_volume                     1011.77
_exptl_crystal_colour            colorless
_exptl_crystal_description       square
_cell_formula_units_Z            2
loop_
_atom_site_label
_atom_site_type_symbol
_atom_site_fract_x
_atom_site_fract_y
_atom_site_fract_z
N1 N 0.41898(16) 0.80582(15) 0.24229(14)
O1 O -0.01842(15) 0.81002(14) 0.37013(16)
O2 O 0.65103(17) 1.00452(18) 0.18335(16)
O3 O 0.48712(14) 1.07731(12) 0.30990(11)
C1 C 0.2125(2) 0.67295(17) 0.37060(17)
C2 C 0.3014(2) 0.56302(19) 0.4402(2)
C3 C 0.2586(3) 0.4901(2) 0.5625(2)
C4 C 0.1279(3) 0.5262(3) 0.6184(2)
C5 C 0.0378(3) 0.6323(2) 0.5531(2)
C6 C 0.0792(2) 0.70582(18) 0.42794(19)
C7 C -0.0048(2) 0.8541(2) 0.2364(3)
C8 C 0.1594(2) 0.87953(18) 0.1880(2)
C9 C 0.2654(2) 0.75492(18) 0.23755(17)
C10 C 0.23429(19) 0.98128(16) 0.22756(17)
C11 C 0.39766(19) 0.92478(17) 0.23625(15)
C12 C 0.5297(2) 1.00490(18) 0.23974(16)
C13 C 0.2832(2) 1.1655(2) 0.02319(19)
C14 C 0.21567(19) 1.12384(17) 0.14317(16)
C15 C 0.1357(3) 1.2155(2) 0.1849(2)
C16 C 0.1252(3) 1.3471(2) 0.1103(3)
C17 C 0.1938(3) 1.3866(3) -0.0082(3)
C18 C 0.2730(3) 1.2969(3) -0.0512(2)
C19 C 0.2809(3) 0.6741(3) 0.1508(3)
C20 C 0.5875(3) 1.1747(2) 0.32649(18)
C21 C 0.7244(4) 1.1008(4) 0.3978(3)
C22 C 0.4853(5) 1.2348(3) 0.4068(4)
C23 C 0.6293(7) 1.2751(4) 0.2010(3)
H1 H 0.093(3) 1.183(2) 0.270(2)
H2 H 0.061(4) 1.415(3) 0.138(3)
H3 H 0.187(3) 1.482(3) -0.053(3)
H4 H 0.318(3) 1.324(3) -0.135(3)
H5 H 0.336(2) 1.102(2) -0.0099(19)
H6 H -0.051(3) 0.664(2) 0.583(2)
H7 H 0.095(3) 0.465(2) 0.711(2)
H8 H 0.319(3) 0.420(3) 0.603(2)
H9 H 0.399(2) 0.5386(19) 0.3962(18)
H10 H 0.524(4) 1.312(3) 0.158(3)
H11 H 0.705(4) 1.231(3) 0.160(3)
H12 H 0.686(3) 1.342(3) 0.217(3)
H13 H 0.794(4) 1.070(3) 0.343(3)
H14 H 0.787(4) 1.167(3) 0.413(3)
H15 H 0.539(3) 1.305(3) 0.421(3)
H16 H 0.453(4) 1.168(4) 0.482(4)
H17 H 0.332(3) 0.727(3) 0.067(3)
H18 H 0.341(3) 0.592(3) 0.184(2)
H19 H 0.176(3) 0.649(3) 0.138(2)
H20 H -0.071(2) 0.936(2) 0.209(2)
H21 H -0.042(3) 0.780(3) 0.202(2)
H22 H 0.187(2) 0.9765(18) 0.3173(18)
H23 H 0.161(2) 0.907(2) 0.095(2)
H24 H 0.693(4) 1.029(3) 0.485(3)
H25 H 0.405(4) 1.285(4) 0.353(4)
loop_
_geom_bond_atom_site_label_1
_geom_bond_atom_site_label_2
_geom_bond_site_symmetry_1
_geom_bond_site_symmetry_2
N1 C9 1_555 1_555
O1 C6 1_555 1_555
O2 C12 1_555 1_555
O3 C12 1_555 1_555
C1 C2 1_555 1_555
C2 C3 1_555 1_555
C3 C4 1_555 1_555
C4 C5 1_555 1_555
C5 C6 1_555 1_555
C6 C1 1_555 1_555
C7 O1 1_555 1_555
C8 C7 1_555 1_555
C9 C1 1_555 1_555
C10 C8 1_555 1_555
C11 N1 1_555 1_555
C12 C11 1_555 1_555
C13 C14 1_555 1_555
C14 C10 1_555 1_555
C15 C14 1_555 1_555
C16 C15 1_555 1_555
C17 C16 1_555 1_555
C18 C13 1_555 1_555
C19 C9 1_555 1_555
C20 O3 1_555 1_555
C21 C20 1_555 1_555
C22 C20 1_555 1_555
C23 C20 1_555 1_555
H1 C15 1_555 1_555
H2 C16 1_555 1_555
H3 C17 1_555 1_555
H4 C18 1_555 1_555
H5 C13 1_555 1_555
H6 C5 1_555 1_555
H7 C4 1_555 1_555
H8 C3 1_555 1_555
H9 C2 1_555 1_555
H10 C23 1_555 1_555
H11 C23 1_555 1_555
H12 C23 1_555 1_555
H13 C21 1_555 1_555
H14 C21 1_555 1_555
H15 C22 1_555 1_555
H16 C22 1_555 1_555
H17 C19 1_555 1_555
H18 C19 1_555 1_555
H19 C19 1_555 1_555
H20 C7 1_555 1_555
H21 C7 1_555 1_555
H22 C10 1_555 1_555
H23 C8 1_555 1_555
H24 C21 1_555 1_555
H25 C22 1_555 1_555
C8 C9 1_555 1_555
C10 C11 1_555 1_555
C17 C18 1_555 1_555

#END
