
#######################################################################
#
#                 Cambridge Crystallographic Data Centre
#                                CCDC 
#
#######################################################################
#
# If this CIF has been generated from an entry in the Cambridge 
# Structural Database, then it will include bibliographic, chemical, 
# crystal, experimental, refinement or atomic coordinate data resulting 
# from the CCDC's data processing and validation procedures.
#
#######################################################################

data_UMERAF
_chemical_formula_moiety         'C9 H12 N4'
_chemical_name_systematic        
2,3,7,8-Tetra-azatetracyclo(7.3.1.0^4,12^.0^6,10^)trideca-2,7-diene
_symmetry_cell_setting           monoclinic
_symmetry_space_group_name_H-M   'P 21/n'
_symmetry_Int_Tables_number      14
_space_group_name_Hall           '-P 2yn'
loop_
_symmetry_equiv_pos_site_id
_symmetry_equiv_pos_as_xyz
1 x,y,z
2 1/2+x,1/2-y,1/2+z
3 -x,-y,-z
4 1/2-x,1/2+y,1/2-z
_cell_length_a                   6.8117(2)
_cell_length_b                   11.0991(4)
_cell_length_c                   11.1631(4)
_cell_angle_alpha                90
_cell_angle_beta                 94.569(2)
_cell_angle_gamma                90
_cell_volume                     841.29
_exptl_crystal_colour            white
_exptl_crystal_description       prism
_chemical_melting_point          175deg.C.(dec.)
_cell_formula_units_Z            4
_exptl_crystal_recrystallization_method acetonitrile
loop_
_atom_site_label
_atom_site_type_symbol
_atom_site_fract_x
_atom_site_fract_y
_atom_site_fract_z
C1 C 0.14927(18) 0.22464(11) 0.27352(11)
C2 C 0.1240(2) 0.23547(13) 0.13749(12)
C3 C -0.0687(2) 0.18219(12) 0.08120(11)
C4 C -0.12813(19) 0.06177(11) 0.13619(12)
C5 C -0.31333(19) 0.09684(12) 0.19921(14)
C6 C -0.2886(2) 0.08813(13) 0.33613(14)
C7 C -0.0946(2) 0.13907(11) 0.39058(11)
C8 C 0.08496(18) 0.10303(10) 0.32350(11)
C9 C 0.0335(2) 0.01122(10) 0.22409(12)
N1 N -0.09968(17) 0.27360(10) 0.38872(9)
N2 N 0.02732(17) 0.31752(9) 0.32904(9)
N3 N -0.23463(18) 0.26699(10) 0.09964(11)
N4 N -0.35934(17) 0.22298(11) 0.16106(12)
H1 H 0.284(2) 0.2437(14) 0.2982(14)
H2 H 0.133(3) 0.3209(17) 0.1177(15)
H3 H 0.235(3) 0.1962(16) 0.1062(16)
H4 H -0.061(3) 0.1839(17) -0.0060(17)
H5 H -0.168(3) 0.0046(19) 0.0721(18)
H6 H -0.436(3) 0.0496(19) 0.1674(16)
H7 H -0.397(3) 0.1316(18) 0.3724(17)
H8 H -0.297(3) 0.0016(19) 0.3665(16)
H9 H -0.081(2) 0.1197(17) 0.4735(15)
H10 H 0.186(2) 0.0711(14) 0.3822(13)
H11 H 0.157(2) -0.0087(15) 0.1797(14)
H12 H -0.014(3) -0.0653(19) 0.2596(16)
loop_
_geom_bond_atom_site_label_1
_geom_bond_atom_site_label_2
_geom_bond_site_symmetry_1
_geom_bond_site_symmetry_2
C1 C2 1_555 1_555
C2 C3 1_555 1_555
C3 C4 1_555 1_555
C4 C5 1_555 1_555
C5 C6 1_555 1_555
C6 C7 1_555 1_555
C7 C8 1_555 1_555
C8 C1 1_555 1_555
C9 C4 1_555 1_555
N1 C7 1_555 1_555
N2 C1 1_555 1_555
N3 C3 1_555 1_555
N4 C5 1_555 1_555
H1 C1 1_555 1_555
H2 C2 1_555 1_555
H3 C2 1_555 1_555
H4 C3 1_555 1_555
H5 C4 1_555 1_555
H6 C5 1_555 1_555
H7 C6 1_555 1_555
H8 C6 1_555 1_555
H9 C7 1_555 1_555
H10 C8 1_555 1_555
H11 C9 1_555 1_555
H12 C9 1_555 1_555
C8 C9 1_555 1_555
N1 N2 1_555 1_555
N3 N4 1_555 1_555

#END
