
#######################################################################
#
#                 Cambridge Crystallographic Data Centre
#                                CCDC 
#
#######################################################################
#
# If this CIF has been generated from an entry in the Cambridge 
# Structural Database, then it will include bibliographic, chemical, 
# crystal, experimental, refinement or atomic coordinate data resulting 
# from the CCDC's data processing and validation procedures.
#
#######################################################################

data_UMINEJ
_chemical_formula_moiety         'C12 H10 N2,C6 H10 O4'
_chemical_name_systematic        '1,2-bis(4-Pyridyl)ethene adipic acid'
_symmetry_cell_setting           triclinic
_symmetry_space_group_name_H-M   'P -1'
_symmetry_Int_Tables_number      2
_space_group_name_Hall           '-P 1'
loop_
_symmetry_equiv_pos_site_id
_symmetry_equiv_pos_as_xyz
1 x,y,z
2 -x,-y,-z
_cell_length_a                   7.2696(3)
_cell_length_b                   11.23750(10)
_cell_length_c                   21.0712(8)
_cell_angle_alpha                87.370(2)
_cell_angle_beta                 89.330(2)
_cell_angle_gamma                72.781(4)
_cell_volume                     1642.47
_exptl_crystal_colour            colorless
_exptl_crystal_description       block
_cell_formula_units_Z            4
loop_
_atom_site_label
_atom_site_type_symbol
_atom_site_fract_x
_atom_site_fract_y
_atom_site_fract_z
C1 C 0.4993(3) -0.08084(19) 0.25030(10)
C2 C 0.4514(4) -0.0382(2) 0.18258(10)
C3 C 0.3802(4) -0.1277(2) 0.14551(10)
C4 C 0.3207(4) -0.0792(2) 0.07854(10)
C5 C 0.2625(4) -0.1754(2) 0.04198(10)
C6 C 0.2174(3) -0.1429(2) -0.02669(10)
O1 O 0.5652(3) -0.00304(16) 0.28141(8)
O2 O 0.4788(3) -0.17366(16) 0.27502(8)
O3 O 0.1760(3) -0.23345(15) -0.05512(8)
O4 O 0.2190(3) -0.04714(15) -0.05398(8)
H5 H 0.217(3) -0.001(2) 0.0826(9)
H6 H 0.559(3) -0.026(2) 0.1668(10)
H7 H 0.272(3) -0.1525(18) 0.1702(10)
H11 H 0.366(4) -0.256(2) 0.0424(11)
H12 H 0.420(3) -0.0589(18) 0.0575(9)
H16 H 0.357(3) 0.037(2) 0.1836(10)
H18 H 0.480(3) -0.208(2) 0.1442(10)
H21 H 0.156(3) -0.1900(18) 0.0575(10)
H36 H 0.593(5) -0.030(3) 0.3191(7)
H40 H 0.140(4) -0.215(3) -0.0968(15)
C7 C 0.4875(3) 0.3890(2) 0.21939(10)
C8 C 0.5203(3) 0.5022(2) 0.22849(10)
C9 C 0.5815(3) 0.5261(2) 0.28705(10)
N1 N 0.6101(3) 0.44472(17) 0.33622(8)
C10 C 0.5773(4) 0.3360(2) 0.32768(11)
C11 C 0.5181(3) 0.3056(2) 0.27114(11)
C12 C 0.4258(4) 0.3541(2) 0.15906(11)
C13 C 0.3633(4) 0.4268(2) 0.10869(11)
C14 C 0.3020(3) 0.3879(2) 0.04888(10)
C15 C 0.2812(4) 0.2704(2) 0.04169(11)
C16 C 0.2219(3) 0.2410(2) -0.01587(11)
N2 N 0.1825(3) 0.32009(19) -0.06598(8)
C17 C 0.2031(4) 0.4323(2) -0.05913(11)
C18 C 0.2610(4) 0.4695(2) -0.00369(11)
H14 H 0.506(3) 0.565(2) 0.1998(11)
H17 H 0.213(3) 0.160(2) -0.0195(10)
H19 H 0.170(4) 0.491(2) -0.0949(12)
H24 H 0.273(3) 0.545(2) -0.0007(11)
H27 H 0.597(3) 0.610(2) 0.2946(10)
H30 H 0.303(3) 0.213(2) 0.0773(12)
H31 H 0.360(4) 0.515(3) 0.1169(13)
H32 H 0.595(3) 0.279(2) 0.3660(12)
H33 H 0.497(4) 0.230(2) 0.2659(12)
H37 H 0.436(4) 0.267(3) 0.1540(14)
C19 C 0.0221(3) 0.3319(2) -0.21900(10)
C20 C -0.0386(4) 0.2871(2) -0.27843(10)
C21 C -0.0816(4) 0.3819(2) -0.33342(10)
C22 C -0.1579(4) 0.3359(2) -0.39149(10)
C23 C -0.1926(4) 0.4334(2) -0.44516(10)
C24 C -0.2541(3) 0.3980(2) -0.50734(10)
O5 O 0.0292(3) 0.43544(16) -0.21230(8)
O6 O 0.0687(3) 0.24411(16) -0.17338(8)
O7 O -0.2863(3) 0.30116(17) -0.51626(8)
O8 O -0.2686(3) 0.48643(16) -0.55183(7)
H1 H -0.3017 0.4644 -0.5853
H4 H -0.279(3) 0.3156(19) -0.3800(10)
H8 H -0.069(3) 0.257(2) -0.4032(10)
H10 H -0.174(3) 0.459(2) -0.3172(10)
H13 H -0.145(3) 0.259(2) -0.2686(11)
H15 H 0.057(4) 0.217(2) -0.2897(11)
H20 H 0.039(3) 0.399(2) -0.3468(10)
H22 H -0.291(4) 0.512(2) -0.4326(12)
H29 H -0.075(4) 0.458(2) -0.4529(11)
H39 H 0.108(5) 0.276(3) -0.1387(16)
C25 C 1.2319(3) 0.1349(2) 0.47302(10)
C26 C 1.2934(4) 0.2146(2) 0.50952(12)
C27 C 1.3493(4) 0.1799(2) 0.57020(12)
N3 N 1.3446(3) 0.07363(19) 0.59881(8)
C28 C 1.2867(4) -0.0042(2) 0.56399(12)
C29 C 1.2307(4) 0.0227(3) 0.50128(12)
C30 C 1.1703(4) 0.1780(2) 0.40774(11)
H2 H 1.1616 0.2600 0.3952
C31 C 1.1267(4) 0.1069(2) 0.36580(10)
H3 H 1.1395 0.0247 0.3791
C32 C 1.0598(3) 0.1442(2) 0.30026(10)
C33 C 1.0034(4) 0.0574(2) 0.26803(11)
C34 C 0.9411(4) 0.0834(2) 0.20661(12)
N4 N 0.9333(3) 0.18944(17) 0.17519(8)
C35 C 0.9857(3) 0.2751(2) 0.20625(11)
C36 C 1.0488(3) 0.2568(2) 0.26848(11)
H9 H 1.091(3) 0.319(2) 0.2890(10)
H23 H 1.194(3) -0.037(2) 0.4794(10)
H25 H 0.986(3) 0.353(2) 0.1828(11)
H26 H 1.001(4) -0.026(2) 0.2919(12)
H28 H 1.308(4) 0.294(3) 0.4943(13)
H34 H 1.395(4) 0.237(2) 0.5976(13)
H35 H 1.284(3) -0.080(2) 0.5818(11)
H38 H 0.899(4) 0.020(2) 0.1877(12)
loop_
_geom_bond_atom_site_label_1
_geom_bond_atom_site_label_2
_geom_bond_site_symmetry_1
_geom_bond_site_symmetry_2
C1 C2 1_555 1_555
C2 C3 1_555 1_555
C3 C4 1_555 1_555
C4 C5 1_555 1_555
C5 C6 1_555 1_555
C6 O3 1_555 1_555
O1 C1 1_555 1_555
O2 C1 1_555 1_555
O3 H40 1_555 1_555
O4 C6 1_555 1_555
C7 C8 1_555 1_555
C8 C9 1_555 1_555
C9 N1 1_555 1_555
N1 C10 1_555 1_555
C10 C11 1_555 1_555
C11 C7 1_555 1_555
C12 C7 1_555 1_555
C13 C12 1_555 1_555
C14 C13 1_555 1_555
C15 C14 1_555 1_555
C16 C15 1_555 1_555
N2 C16 1_555 1_555
C17 N2 1_555 1_555
C18 C14 1_555 1_555
C19 C20 1_555 1_555
C20 C21 1_555 1_555
C21 C22 1_555 1_555
C22 C23 1_555 1_555
C23 C24 1_555 1_555
C24 O7 1_555 1_555
O5 C19 1_555 1_555
O6 C19 1_555 1_555
O8 C24 1_555 1_555
H1 O8 1_555 1_555
C25 C26 1_555 1_555
C26 C27 1_555 1_555
C27 N3 1_555 1_555
N3 C28 1_555 1_555
C28 C29 1_555 1_555
C29 C25 1_555 1_555
C30 C25 1_555 1_555
H2 C30 1_555 1_555
C31 C30 1_555 1_555
H3 C31 1_555 1_555
C32 C31 1_555 1_555
C33 C32 1_555 1_555
C34 C33 1_555 1_555
N4 C34 1_555 1_555
C35 N4 1_555 1_555
C36 C32 1_555 1_555
H4 C22 1_555 1_555
H5 C4 1_555 1_555
H6 C2 1_555 1_555
H7 C3 1_555 1_555
H8 C22 1_555 1_555
H9 C36 1_555 1_555
H10 C21 1_555 1_555
H11 C5 1_555 1_555
H12 C4 1_555 1_555
H13 C20 1_555 1_555
H14 C8 1_555 1_555
H15 C20 1_555 1_555
H16 C2 1_555 1_555
H17 C16 1_555 1_555
H18 C3 1_555 1_555
H19 C17 1_555 1_555
H20 C21 1_555 1_555
H21 C5 1_555 1_555
H22 C23 1_555 1_555
H23 C29 1_555 1_555
H24 C18 1_555 1_555
H25 C35 1_555 1_555
H26 C33 1_555 1_555
H27 C9 1_555 1_555
H28 C26 1_555 1_555
H29 C23 1_555 1_555
H30 C15 1_555 1_555
H31 C13 1_555 1_555
H32 C10 1_555 1_555
H33 C11 1_555 1_555
H34 C27 1_555 1_555
H35 C28 1_555 1_555
H36 O1 1_555 1_555
H37 C12 1_555 1_555
H38 C34 1_555 1_555
H39 O6 1_555 1_555
C17 C18 1_555 1_555
C35 C36 1_555 1_555

#END
