
#######################################################################
#
#                 Cambridge Crystallographic Data Centre
#                                CCDC 
#
#######################################################################
#
# If this CIF has been generated from an entry in the Cambridge 
# Structural Database, then it will include bibliographic, chemical, 
# crystal, experimental, refinement or atomic coordinate data resulting 
# from the CCDC's data processing and validation procedures.
#
#######################################################################

data_UMIPUD
_chemical_formula_moiety         'C6 H18 N2 2+,2(C7 H4 N1 O5 1-)'
_chemical_name_systematic        
"N,N,N',N'-Tetramethylethane-1,2-diammonium bis(2-hydroxy-5-nitrobenzoate)"
_symmetry_cell_setting           triclinic
_symmetry_space_group_name_H-M   'P -1'
_symmetry_Int_Tables_number      2
_space_group_name_Hall           '-P 1'
loop_
_symmetry_equiv_pos_site_id
_symmetry_equiv_pos_as_xyz
1 x,y,z
2 -x,-y,-z
_cell_length_a                   7.6542(6)
_cell_length_b                   12.2296(11)
_cell_length_c                   13.9565(12)
_cell_angle_alpha                67.6900(10)
_cell_angle_beta                 85.571(2)
_cell_angle_gamma                71.8270(10)
_cell_volume                     1147.09
_exptl_crystal_colour            colorless
_exptl_crystal_description       block
_cell_formula_units_Z            2
loop_
_atom_site_label
_atom_site_type_symbol
_atom_site_fract_x
_atom_site_fract_y
_atom_site_fract_z
N1 N 0.8700(4) 0.9044(2) 0.60088(18)
H1 H 0.8637 0.8594 0.5629
C1 C 1.0155(5) 0.9650(3) 0.5573(2)
H2 H 1.1351 0.9022 0.5717
H3 H 1.0154 1.0217 0.5906
C2 C 0.6837(5) 0.9931(3) 0.5954(3)
H4 H 0.5986 0.9479 0.6274
H5 H 0.6448 1.0430 0.5241
H6 H 0.6874 1.0458 0.6311
C3 C 0.9309(5) 0.8156(3) 0.7085(2)
H7 H 0.9506 0.8594 0.7490
H8 H 1.0436 0.7533 0.7074
H9 H 0.8379 0.7768 0.7386
N1A N 1.1300(4) 1.0956(2) 0.39912(18)
H1A H 1.1363 1.1406 0.4371
C1A C 0.9845(5) 1.0350(3) 0.4427(2)
H2A H 0.8649 1.0978 0.4283
H3A H 0.9846 0.9783 0.4094
C2A C 1.3163(5) 1.0069(3) 0.4046(3)
H4A H 1.4014 1.0521 0.3726
H5A H 1.3552 0.9570 0.4759
H6A H 1.3126 0.9542 0.3689
C3A C 1.0691(5) 1.1844(3) 0.2915(2)
H7A H 1.0494 1.1406 0.2510
H8A H 0.9564 1.2467 0.2926
H9A H 1.1621 1.2232 0.2614
N2 N 0.7836(4) 0.0545(3) 0.9162(2)
H10 H 0.7134 0.1050 0.9479
C4 C 0.9465(7) -0.0380(4) 0.9912(4)
H11 H 0.9029 -0.0850 1.0562
H12 H 1.0234 -0.0955 0.9614
C5 C 0.8082(7) 0.1333(4) 0.8101(3)
H13 H 0.8933 0.0836 0.7773
H14 H 0.8556 0.1966 0.8116
H15 H 0.6919 0.1713 0.7718
C6 C 0.6840(6) -0.0322(4) 0.9176(3)
H16 H 0.5697 0.0139 0.8777
H17 H 0.6598 -0.0769 0.9878
H18 H 0.7579 -0.0898 0.8880
N2A N 1.2164(4) -0.0545(3) 1.0838(2)
H10A H 1.2866 -0.1050 1.0521
C4A C 1.0535(7) 0.0380(4) 1.0088(4)
H11A H 1.0971 0.0850 0.9438
H12A H 0.9766 0.0955 1.0386
C5A C 1.1918(7) -0.1333(4) 1.1899(3)
H13A H 1.1067 -0.0836 1.2227
H14A H 1.1444 -0.1966 1.1884
H15A H 1.3081 -0.1713 1.2282
C6A C 1.3160(6) 0.0322(4) 1.0824(3)
H16A H 1.4303 -0.0139 1.1223
H17A H 1.3402 0.0769 1.0122
H18A H 1.2421 0.0898 1.1120
N3 N 0.1062(5) 0.6086(3) 0.0150(4)
O1 O 0.5781(3) 0.2274(2) -0.01590(18)
O2 O 0.6965(3) 0.1119(2) 0.14424(18)
O3 O 0.6048(4) 0.1885(2) 0.28842(16)
H21 H 0.6721 0.1468 0.2580
O4 O 0.0009(5) 0.6817(3) 0.0504(3)
O5 O 0.1003(5) 0.6236(3) -0.0760(3)
C8 C 0.5932(5) 0.2082(3) 0.0784(3)
C9 C 0.4743(4) 0.3065(3) 0.1159(2)
C10 C 0.4907(4) 0.2909(3) 0.2195(2)
C11 C 0.3779(5) 0.3808(3) 0.2553(3)
H22 H 0.3873 0.3698 0.3247
C12 C 0.2550(5) 0.4839(3) 0.1890(3)
H23 H 0.1813 0.5441 0.2126
C13 C 0.2396(5) 0.4995(3) 0.0864(3)
C14 C 0.3497(4) 0.4124(3) 0.0489(2)
H24 H 0.3400 0.4251 -0.0208
N4 N 0.7392(4) 0.3661(3) 0.5017(3)
O6 O 0.8341(4) 0.7495(2) 0.52218(17)
O7 O 0.7793(3) 0.8892(2) 0.36037(17)
O8 O 0.7186(4) 0.8313(2) 0.21536(16)
H25 H 0.7456 0.8724 0.2432
O9 O 0.7123(5) 0.2910(2) 0.4701(3)
O10 O 0.7671(5) 0.3418(2) 0.5937(2)
C15 C 0.7943(4) 0.7825(3) 0.4271(3)
C16 C 0.7637(4) 0.6886(3) 0.3916(2)
C17 C 0.7288(4) 0.7187(3) 0.2861(2)
C18 C 0.6998(5) 0.6308(3) 0.2533(3)
H26 H 0.6772 0.6508 0.1832
C19 C 0.7043(5) 0.5163(3) 0.3229(3)
H27 H 0.6853 0.4580 0.3006
C20 C 0.7372(4) 0.4872(3) 0.4269(3)
C21 C 0.7689(4) 0.5716(3) 0.4619(2)
H28 H 0.7934 0.5498 0.5321
C7? C 0.9873(14) 0.0401(9) 0.9435(8)
H19? H 1.0738 0.0003 0.9031
H20? H 1.0027 0.1201 0.9311
loop_
_geom_bond_atom_site_label_1
_geom_bond_atom_site_label_2
_geom_bond_site_symmetry_1
_geom_bond_site_symmetry_2
N1 H1 1_555 1_555
C1 N1 1_555 1_555
H2 C1 1_555 1_555
H3 C1 1_555 1_555
C2 N1 1_555 1_555
H4 C2 1_555 1_555
H5 C2 1_555 1_555
H6 C2 1_555 1_555
C3 N1 1_555 1_555
H7 C3 1_555 1_555
H8 C3 1_555 1_555
H9 C3 1_555 1_555
N2 H10 1_555 1_555
C4 N2 1_555 1_555
H11 C4 1_555 1_555
H12 C4 1_555 1_555
C5 N2 1_555 1_555
H13 C5 1_555 1_555
H14 C5 1_555 1_555
H15 C5 1_555 1_555
C6 N2 1_555 1_555
H16 C6 1_555 1_555
H17 C6 1_555 1_555
H18 C6 1_555 1_555
N3 O4 1_555 1_555
O1 C8 1_555 1_555
O2 C8 1_555 1_555
O3 H21 1_555 1_555
O5 N3 1_555 1_555
C8 C9 1_555 1_555
C9 C10 1_555 1_555
C10 O3 1_555 1_555
C11 C10 1_555 1_555
H22 C11 1_555 1_555
C12 C11 1_555 1_555
H23 C12 1_555 1_555
C13 N3 1_555 1_555
C14 C9 1_555 1_555
H24 C14 1_555 1_555
N4 O9 1_555 1_555
O6 C15 1_555 1_555
O7 C15 1_555 1_555
O8 H25 1_555 1_555
O10 N4 1_555 1_555
C15 C16 1_555 1_555
C16 C17 1_555 1_555
C17 O8 1_555 1_555
C18 C17 1_555 1_555
H26 C18 1_555 1_555
C19 C18 1_555 1_555
H27 C19 1_555 1_555
C20 N4 1_555 1_555
C21 C16 1_555 1_555
H28 C21 1_555 1_555
N1A H1A 1_555 1_555
C1A C1 1_555 1_555
H2A C1A 1_555 1_555
H3A C1A 1_555 1_555
C2A N1A 1_555 1_555
H4A C2A 1_555 1_555
H5A C2A 1_555 1_555
H6A C2A 1_555 1_555
C3A N1A 1_555 1_555
H7A C3A 1_555 1_555
H8A C3A 1_555 1_555
H9A C3A 1_555 1_555
N2A H10A 1_555 1_555
C4A C4 1_555 1_555
H11A C4A 1_555 1_555
H12A C4A 1_555 1_555
C5A N2A 1_555 1_555
H13A C5A 1_555 1_555
H14A C5A 1_555 1_555
H15A C5A 1_555 1_555
C6A N2A 1_555 1_555
H16A C6A 1_555 1_555
H17A C6A 1_555 1_555
H18A C6A 1_555 1_555
C12 C13 1_555 1_555
C13 C14 1_555 1_555
C19 C20 1_555 1_555
C20 C21 1_555 1_555
N1A C1A 1_555 1_555
N2A C4A 1_555 1_555

#END
