
#######################################################################
#
#                 Cambridge Crystallographic Data Centre
#                                CCDC 
#
#######################################################################
#
# If this CIF has been generated from an entry in the Cambridge 
# Structural Database, then it will include bibliographic, chemical, 
# crystal, experimental, refinement or atomic coordinate data resulting 
# from the CCDC's data processing and validation procedures.
#
#######################################################################

data_UMIQAK
_chemical_formula_moiety         'C6 H18 N2 2+,C10 H6 O6 S2 2-,2(H2 O1)'
_chemical_name_systematic        
"N,N,N',N'-Tetramethylethane-1,2-diammonium naphthalene-1,5-disulfonate dihydrate"
_symmetry_cell_setting           monoclinic
_symmetry_space_group_name_H-M   'P 21/c'
_symmetry_Int_Tables_number      14
_space_group_name_Hall           '-P 2ybc'
loop_
_symmetry_equiv_pos_site_id
_symmetry_equiv_pos_as_xyz
1 x,y,z
2 -x,1/2+y,1/2-z
3 -x,-y,-z
4 x,1/2-y,1/2+z
_cell_length_a                   6.9377(5)
_cell_length_b                   12.0824(9)
_cell_length_c                   12.1639(11)
_cell_angle_alpha                90
_cell_angle_beta                 94.6840(10)
_cell_angle_gamma                90
_cell_volume                     1016.22
_exptl_crystal_colour            colorless
_exptl_crystal_description       block
_cell_formula_units_Z            2
loop_
_atom_site_label
_atom_site_type_symbol
_atom_site_fract_x
_atom_site_fract_y
_atom_site_fract_z
N1 N 0.4535(4) 0.5698(2) 0.6371(2)
H1 H 0.3268 0.5838 0.6164
C1 C 0.5517(4) 0.5441(3) 0.5339(3)
H2 H 0.5573 0.6109 0.4899
H3 H 0.6834 0.5204 0.5542
C2 C 0.4600(5) 0.4730(3) 0.7153(3)
H4 H 0.3719 0.4168 0.6865
H5 H 0.4234 0.4971 0.7859
H6 H 0.5888 0.4434 0.7234
C3 C 0.5369(6) 0.6725(3) 0.6932(3)
H7 H 0.4646 0.6904 0.7548
H8 H 0.5296 0.7329 0.6417
H9 H 0.6695 0.6594 0.7186
N1B N 0.5465(4) 0.4302(2) 0.3629(2)
H1B H 0.6732 0.4162 0.3836
C1B C 0.4483(4) 0.4559(3) 0.4661(3)
H2B H 0.4427 0.3891 0.5101
H3B H 0.3166 0.4796 0.4458
C2B C 0.5400(5) 0.5270(3) 0.2847(3)
H4B H 0.6281 0.5832 0.3135
H5B H 0.5766 0.5029 0.2141
H6B H 0.4112 0.5566 0.2766
C3B C 0.4631(6) 0.3275(3) 0.3068(3)
H7B H 0.5354 0.3096 0.2452
H8B H 0.4704 0.2671 0.3583
H9B H 0.3305 0.3406 0.2814
O1 O 0.7777(3) 0.28538(15) 0.57228(14)
O2 O 0.9320(3) 0.36167(15) 0.41659(15)
O3 O 1.1303(3) 0.30206(15) 0.58181(15)
S1 S 0.95212(9) 0.28552(5) 0.51135(5)
C4 C 0.9891(4) 0.0329(2) 0.29283(19)
H10 H 0.9893 0.0265 0.2166
C5 C 0.9688(4) 0.1387(2) 0.34054(19)
H11 H 0.9550 0.2011 0.2959
C6 C 0.9695(3) 0.1487(2) 0.45388(18)
C7 C 0.9893(3) 0.05355(19) 0.52489(17)
C8 C 0.9913(4) 0.0602(2) 0.64290(19)
H12 H 0.9791 0.1288 0.6762
O1B O 1.2223(3) -0.28538(15) 0.42772(14)
O2B O 1.0680(3) -0.36167(15) 0.58341(15)
O3B O 0.8697(3) -0.30206(15) 0.41819(15)
S1B S 1.04788(9) -0.28552(5) 0.48865(5)
C4B C 1.0109(4) -0.0329(2) 0.70717(19)
H10B H 1.0107 -0.0265 0.7834
C5B C 1.0312(4) -0.1387(2) 0.65946(19)
H11B H 1.0450 -0.2011 0.7041
C6B C 1.0305(3) -0.1487(2) 0.54612(18)
C7B C 1.0107(3) -0.05355(19) 0.47511(17)
C8B C 1.0087(4) -0.0602(2) 0.35710(19)
H12B H 1.0209 -0.1288 0.3238
O4 O 0.4690(5) 0.1192(4) 0.5113(3)
H13 H 0.4837 0.0669 0.5581
H14 H 0.5566 0.1668 0.5280
loop_
_geom_bond_atom_site_label_1
_geom_bond_atom_site_label_2
_geom_bond_site_symmetry_1
_geom_bond_site_symmetry_2
N1 H1 1_555 1_555
C1 N1 1_555 1_555
H2 C1 1_555 1_555
H3 C1 1_555 1_555
C2 N1 1_555 1_555
H4 C2 1_555 1_555
H5 C2 1_555 1_555
H6 C2 1_555 1_555
C3 N1 1_555 1_555
H7 C3 1_555 1_555
H8 C3 1_555 1_555
H9 C3 1_555 1_555
O1 S1 1_555 1_555
O2 S1 1_555 1_555
O3 S1 1_555 1_555
S1 C6 1_555 1_555
C4 H10 1_555 1_555
C5 C4 1_555 1_555
H11 C5 1_555 1_555
C6 C5 1_555 1_555
C7 C6 1_555 1_555
C8 C7 1_555 1_555
H12 C8 1_555 1_555
O4 H13 1_555 1_555
H14 O4 1_555 1_555
N1B H1B 1_555 1_555
C1B C1 1_555 1_555
H2B C1B 1_555 1_555
H3B C1B 1_555 1_555
C2B N1B 1_555 1_555
H4B C2B 1_555 1_555
H5B C2B 1_555 1_555
H6B C2B 1_555 1_555
C3B N1B 1_555 1_555
H7B C3B 1_555 1_555
H8B C3B 1_555 1_555
H9B C3B 1_555 1_555
O1B S1B 1_555 1_555
O2B S1B 1_555 1_555
O3B S1B 1_555 1_555
S1B C6B 1_555 1_555
C4B C8 1_555 1_555
H10B C4B 1_555 1_555
C5B C4B 1_555 1_555
H11B C5B 1_555 1_555
C6B C5B 1_555 1_555
C7B C7 1_555 1_555
C8B C4 1_555 1_555
H12B C8B 1_555 1_555
N1B C1B 1_555 1_555
C6B C7B 1_555 1_555
C7B C8B 1_555 1_555

#END
