
#######################################################################
#
#                 Cambridge Crystallographic Data Centre
#                                CCDC 
#
#######################################################################
#
# If this CIF has been generated from an entry in the Cambridge 
# Structural Database, then it will include bibliographic, chemical, 
# crystal, experimental, refinement or atomic coordinate data resulting 
# from the CCDC's data processing and validation procedures.
#
#######################################################################

data_UMIVET
_chemical_formula_moiety         'C20 H23 N2 1+,Cl1 1-'
_chemical_name_systematic        
'5-benzyl-1-t-butyl-4-phenyl-1H-imidazol-3-ium chloride'
_symmetry_cell_setting           monoclinic
_symmetry_space_group_name_H-M   'C 2/c'
_symmetry_Int_Tables_number      15
_space_group_name_Hall           '-C 2yn'
loop_
_symmetry_equiv_pos_site_id
_symmetry_equiv_pos_as_xyz
1 x,y,z
2 -x,y,1/2-z
3 1/2+x,1/2+y,z
4 1/2-x,1/2+y,1/2-z
5 -x,-y,-z
6 x,-y,1/2+z
7 1/2-x,1/2-y,-z
8 1/2+x,1/2-y,1/2+z
_cell_length_a                   17.884(4)
_cell_length_b                   7.9752(16)
_cell_length_c                   26.113(5)
_cell_angle_alpha                90
_cell_angle_beta                 107.863(15)
_cell_angle_gamma                90
_cell_volume                     3544.91
_exptl_crystal_colour            colorless
_exptl_crystal_description       needle
_cell_formula_units_Z            8
loop_
_atom_site_label
_atom_site_type_symbol
_atom_site_fract_x
_atom_site_fract_y
_atom_site_fract_z
Cl1 Cl 0.18552(6) 0.38619(13) 0.05745(4)
N1 N 0.35675(19) 0.4640(4) 0.07533(12)
H1 H 0.3053 0.4707 0.0669
C1 C 0.3964(2) 0.3349(5) 0.06487(14)
H2 H 0.3736 0.2348 0.0471
N2 N 0.47344(18) 0.3671(4) 0.08309(11)
C2 C 0.4835(2) 0.5283(5) 0.10634(13)
C3 C 0.4093(2) 0.5869(5) 0.10159(14)
C4 C 0.5343(2) 0.2456(5) 0.07470(14)
C5 C 0.5589(2) 0.3058(5) 0.02627(15)
H3 H 0.5807 0.4193 0.0332
H4 H 0.5130 0.3067 -0.0060
H5 H 0.5988 0.2297 0.0207
C6 C 0.4967(2) 0.0717(5) 0.06361(15)
H6 H 0.5362 -0.0103 0.0610
H7 H 0.4536 0.0738 0.0297
H8 H 0.4762 0.0401 0.0930
C7 C 0.6057(2) 0.2341(6) 0.12517(15)
H9 H 0.6336 0.3416 0.1311
H10 H 0.6410 0.1457 0.1204
H11 H 0.5882 0.2078 0.1563
C8 C 0.5587(2) 0.6240(5) 0.12716(14)
H12 H 0.5464 0.7447 0.1209
H13 H 0.5929 0.5926 0.1053
C9 C 0.6060(2) 0.6016(5) 0.18651(14)
C10 C 0.5826(2) 0.4931(5) 0.22087(14)
H14 H 0.5349 0.4320 0.2078
C11 C 0.6294(2) 0.4742(5) 0.27456(14)
H15 H 0.6137 0.3994 0.2977
C12 C 0.6980(2) 0.5641(6) 0.29379(15)
H16 H 0.7299 0.5499 0.3300
C13 C 0.7210(2) 0.6755(6) 0.26056(16)
H17 H 0.7679 0.7390 0.2741
C14 C 0.6744(2) 0.6935(5) 0.20692(15)
H18 H 0.6899 0.7699 0.1842
C15 C 0.3822(2) 0.7506(5) 0.11673(15)
C16 C 0.4219(2) 0.8294(5) 0.16557(14)
H19 H 0.4675 0.7793 0.1896
C17 C 0.3939(3) 0.9822(5) 0.17863(17)
H20 H 0.4209 1.0360 0.2116
C18 C 0.3277(3) 1.0557(5) 0.14441(18)
H21 H 0.3091 1.1591 0.1539
C19 C 0.2880(3) 0.9784(5) 0.09587(18)
H22 H 0.2428 1.0299 0.0719
C20 C 0.3145(2) 0.8261(5) 0.08250(16)
H23 H 0.2865 0.7724 0.0498
loop_
_geom_bond_atom_site_label_1
_geom_bond_atom_site_label_2
_geom_bond_site_symmetry_1
_geom_bond_site_symmetry_2
N1 H1 1_555 1_555
C1 N1 1_555 1_555
H2 C1 1_555 1_555
N2 C1 1_555 1_555
C2 N2 1_555 1_555
C3 N1 1_555 1_555
C4 N2 1_555 1_555
C5 C4 1_555 1_555
H3 C5 1_555 1_555
H4 C5 1_555 1_555
H5 C5 1_555 1_555
C6 C4 1_555 1_555
H6 C6 1_555 1_555
H7 C6 1_555 1_555
H8 C6 1_555 1_555
C7 C4 1_555 1_555
H9 C7 1_555 1_555
H10 C7 1_555 1_555
H11 C7 1_555 1_555
C8 C2 1_555 1_555
H12 C8 1_555 1_555
H13 C8 1_555 1_555
C9 C8 1_555 1_555
C10 C9 1_555 1_555
H14 C10 1_555 1_555
C11 C10 1_555 1_555
H15 C11 1_555 1_555
C12 C11 1_555 1_555
H16 C12 1_555 1_555
C13 C12 1_555 1_555
H17 C13 1_555 1_555
C14 C9 1_555 1_555
H18 C14 1_555 1_555
C15 C3 1_555 1_555
C16 C15 1_555 1_555
H19 C16 1_555 1_555
C17 C16 1_555 1_555
H20 C17 1_555 1_555
C18 C17 1_555 1_555
H21 C18 1_555 1_555
C19 C18 1_555 1_555
H22 C19 1_555 1_555
C20 C15 1_555 1_555
H23 C20 1_555 1_555
C2 C3 1_555 1_555
C13 C14 1_555 1_555
C19 C20 1_555 1_555

#END
