
#######################################################################
#
#                 Cambridge Crystallographic Data Centre
#                                CCDC 
#
#######################################################################
#
# If this CIF has been generated from an entry in the Cambridge 
# Structural Database, then it will include bibliographic, chemical, 
# crystal, experimental, refinement or atomic coordinate data resulting 
# from the CCDC's data processing and validation procedures.
#
#######################################################################

data_UMODEF
_chemical_formula_moiety         'C56 H64 N4 P2 Rb2'
_chemical_name_systematic        
bis(\m~2~-\h^6^,\h^3^-2,4,6,2'',4'',6''-Hexamethylterphenyl-2'-phosphanido)-bis((\h^2^-N-methylimidazole)-rubidium(i))
_symmetry_cell_setting           triclinic
_symmetry_space_group_name_H-M   'P -1'
_symmetry_Int_Tables_number      2
_space_group_name_Hall           '-P 1'
loop_
_symmetry_equiv_pos_site_id
_symmetry_equiv_pos_as_xyz
1 x,y,z
2 -x,-y,-z
_cell_length_a                   8.6940(3)
_cell_length_b                   12.3225(4)
_cell_length_c                   13.6724(5)
_cell_angle_alpha                67.2280(10)
_cell_angle_beta                 75.1380(10)
_cell_angle_gamma                85.9170(10)
_cell_volume                     1304.75
_exptl_crystal_colour            orange
_exptl_crystal_description       block
_cell_formula_units_Z            1
_exptl_crystal_recrystallization_method toluene
loop_
_atom_site_label
_atom_site_type_symbol
_atom_site_fract_x
_atom_site_fract_y
_atom_site_fract_z
Rb1 Rb 0.74970(3) 0.55673(2) 0.28931(2)
P1 P 0.42706(9) 0.65670(6) 0.41498(7)
N1 N 0.5913(3) 0.4171(2) 0.2103(2)
N2 N 0.4434(3) 0.2520(2) 0.2906(2)
C1 C 0.5788(3) 0.7800(2) 0.1120(2)
C2 C 0.7296(3) 0.7633(2) 0.0521(2)
H1 H 0.7351 0.7392 -0.0106
C3 C 0.8683(3) 0.8042(2) 0.0600(2)
C4 C 0.8552(3) 0.8605(2) 0.1333(2)
H2 H 0.9536 0.8936 0.1380
C5 C 0.7071(3) 0.8796(2) 0.1937(2)
C6 C 0.5671(3) 0.8401(2) 0.1823(2)
C7 C 0.4061(3) 0.8671(2) 0.2413(2)
C8 C 0.3345(3) 0.9694(2) 0.1850(2)
H3 H 0.3863 1.0176 0.1118
C9 C 0.1872(3) 1.0014(2) 0.2353(2)
H4 H 0.1387 1.0712 0.1974
C10 C 0.1132(3) 0.9290(2) 0.3419(2)
H5 H 0.0136 0.9507 0.3767
C11 C 0.1804(3) 0.8258(2) 0.3991(2)
C12 C 0.3304(3) 0.7907(2) 0.3493(2)
C13 C 0.0925(3) 0.7529(2) 0.5145(2)
C14 C 0.1240(3) 0.7697(2) 0.6036(2)
C15 C 0.0430(3) 0.7007(2) 0.7101(2)
H6 H 0.0655 0.7128 0.7696
C16 C 1.0704(3) 0.3858(2) 0.2682(2)
C17 C 1.1021(3) 0.4017(2) 0.3568(2)
H7 H 1.1787 0.4603 0.3436
C18 C -0.0238(3) 0.6665(2) 0.5356(2)
C19 C 0.4302(4) 0.7330(3) 0.1009(3)
H8 H 0.3533 0.7029 0.1725
H9 H 0.4584 0.6692 0.0742
H10 H 0.3828 0.7965 0.0490
C20 C 1.0293(4) 0.7896(3) -0.0078(3)
H11 H 1.0995 0.7502 0.0405
H12 H 1.0758 0.8671 -0.0593
H13 H 1.0172 0.7419 -0.0487
C21 C 0.6980(4) 0.9425(3) 0.2701(3)
H14 H 0.6319 0.8954 0.3427
H15 H 0.6508 1.0195 0.2414
H16 H 0.8053 0.9535 0.2759
C22 C 0.2461(3) 0.8623(2) 0.5839(3)
H17 H 0.3453 0.8527 0.5346
H18 H 0.2667 0.8533 0.6538
H19 H 0.2055 0.9408 0.5506
C23 C 1.1578(4) 0.4597(3) 0.1516(3)
H20 H 1.0986 0.4558 0.1008
H21 H 1.1667 0.5417 0.1437
H22 H 1.2645 0.4294 0.1348
C24 C -0.0651(4) 0.6489(3) 0.4423(3)
H23 H -0.1301 0.5763 0.4708
H24 H 0.0329 0.6429 0.3901
H25 H -0.1251 0.7159 0.4053
C25 C 0.4988(3) 0.3453(3) 0.3020(2)
H26 H 0.4736 0.3574 0.3688
C26 C 0.5041(4) 0.2648(3) 0.1848(3)
H27 H 0.4865 0.2135 0.1515
C27 C 0.5949(4) 0.3656(3) 0.1360(3)
H28 H 0.6527 0.3965 0.0614
C28 C 0.3406(4) 0.1539(3) 0.3776(3)
H29 H 0.3182 0.0984 0.3471
H30 H 0.2404 0.1847 0.4075
H31 H 0.3948 0.1134 0.4360
H32 H 0.339(4) 0.614(3) 0.492(3)
Rb1A Rb 0.25030(3) 0.44327(2) 0.71069(2)
P1A P 0.57294(9) 0.34330(6) 0.58502(7)
C16A C -0.0704(3) 0.6142(2) 0.7318(2)
N1A N 0.4087(3) 0.5829(2) 0.7897(2)
C25A C 0.5012(3) 0.6547(3) 0.6980(2)
C1A C 0.4212(3) 0.2200(2) 0.8880(2)
C2A C 0.2704(3) 0.2367(2) 0.9479(2)
C3A C 0.1317(3) 0.1958(2) 0.9400(2)
H1A H 0.2649 0.2608 1.0106
C4A C 0.1448(3) 0.1395(2) 0.8667(2)
H2A H 0.0464 0.1064 0.8620
C5A C 0.2929(3) 0.1204(2) 0.8063(2)
C6A C 0.4329(3) 0.1599(2) 0.8177(2)
C19A C 0.5698(4) 0.2670(3) 0.8991(3)
H8A H 0.6467 0.2971 0.8275
H9A H 0.5416 0.3308 0.9258
H10A H 0.6172 0.2035 0.9510
C7A C 0.5939(3) 0.1329(2) 0.7587(2)
C8A C 0.6655(3) 0.0306(2) 0.8150(2)
H3A H 0.6137 -0.0176 0.8882
C9A C 0.8128(3) -0.0014(2) 0.7647(2)
H4A H 0.8613 -0.0712 0.8026
C10A C 0.8868(3) 0.0710(2) 0.6581(2)
H5A H 0.9864 0.0493 0.6233
C11A C 0.8196(3) 0.1742(2) 0.6009(2)
C12A C 0.6696(3) 0.2093(2) 0.6507(2)
H32A H 0.661(4) 0.386(3) 0.508(3)
C13A C 0.9075(3) 0.2471(2) 0.4855(2)
C14A C 0.8760(3) 0.2303(2) 0.3964(2)
C15A C 0.9570(3) 0.2993(2) 0.2899(2)
H6A H 0.9345 0.2872 0.2304
C18A C 1.0238(3) 0.3335(2) 0.4644(2)
C24A C 1.0651(4) 0.3511(3) 0.5577(3)
H23A H 1.1301 0.4237 0.5292
H24A H 0.9671 0.3571 0.6099
H25A H 1.1251 0.2841 0.5947
C22A C 0.7539(3) 0.1377(2) 0.4161(3)
H17A H 0.6547 0.1473 0.4654
H18A H 0.7333 0.1467 0.3462
H19A H 0.7945 0.0592 0.4494
C21A C 0.3020(4) 0.0575(3) 0.7299(3)
H14A H 0.3681 0.1046 0.6573
H15A H 0.3492 -0.0195 0.7586
H16A H 0.1947 0.0465 0.7241
C20A C -0.0293(4) 0.2104(3) 1.0078(3)
H11A H -0.0995 0.2498 0.9595
H12A H -0.0758 0.1329 1.0593
H13A H -0.0172 0.2581 1.0487
N2A N 0.5566(3) 0.7480(2) 0.7094(2)
C26A C 0.4959(4) 0.7352(3) 0.8152(3)
H27A H 0.5135 0.7865 0.8485
C27A C 0.4051(4) 0.6344(3) 0.8640(3)
H28A H 0.3473 0.6035 0.9386
C28A C 0.6594(4) 0.8461(3) 0.6224(3)
H29A H 0.6818 0.9016 0.6529
H30A H 0.7596 0.8153 0.5925
H31A H 0.6052 0.8866 0.5640
H26A H 0.5264 0.6426 0.6312
C17A C -0.1021(3) 0.5983(2) 0.6432(2)
H7A H -0.1787 0.5397 0.6564
C23A C -0.1578(4) 0.5403(3) 0.8484(3)
H20A H -0.0986 0.5442 0.8992
H21A H -0.1667 0.4583 0.8563
H22A H -0.2645 0.5706 0.8652
loop_
_geom_bond_atom_site_label_1
_geom_bond_atom_site_label_2
_geom_bond_site_symmetry_1
_geom_bond_site_symmetry_2
Rb1 P1 1_555 1_555
P1 C12 1_555 1_555
N1 Rb1 1_555 1_555
N2 C25 1_555 1_555
C1 Rb1 1_555 1_555
C2 Rb1 1_555 1_555
H1 C2 1_555 1_555
C3 Rb1 1_555 1_555
C4 C3 1_555 1_555
H2 C4 1_555 1_555
C5 C4 1_555 1_555
C6 C1 1_555 1_555
C7 C6 1_555 1_555
C8 C7 1_555 1_555
H3 C8 1_555 1_555
C9 C8 1_555 1_555
H4 C9 1_555 1_555
C10 C9 1_555 1_555
H5 C10 1_555 1_555
C11 C10 1_555 1_555
C12 C7 1_555 1_555
C13 C11 1_555 1_555
C14 C13 1_555 1_555
C15 C14 1_555 1_555
H6 C15 1_555 1_555
C16 Rb1 1_555 1_555
C17 C16 1_555 1_555
H7 C17 1_555 1_555
C18 C13 1_555 1_555
C19 C1 1_555 1_555
H8 C19 1_555 1_555
H9 C19 1_555 1_555
H10 C19 1_555 1_555
C20 C3 1_555 1_555
H11 C20 1_555 1_555
H12 C20 1_555 1_555
H13 C20 1_555 1_555
C21 C5 1_555 1_555
H14 C21 1_555 1_555
H15 C21 1_555 1_555
H16 C21 1_555 1_555
C22 C14 1_555 1_555
H17 C22 1_555 1_555
H18 C22 1_555 1_555
H19 C22 1_555 1_555
C23 C16 1_555 1_555
H20 C23 1_555 1_555
H21 C23 1_555 1_555
H22 C23 1_555 1_555
C24 C18 1_555 1_555
H23 C24 1_555 1_555
H24 C24 1_555 1_555
H25 C24 1_555 1_555
C25 Rb1 1_555 1_555
H26 C25 1_555 1_555
C26 N2 1_555 1_555
H27 C26 1_555 1_555
C27 N1 1_555 1_555
H28 C27 1_555 1_555
C28 N2 1_555 1_555
H29 C28 1_555 1_555
H30 C28 1_555 1_555
H31 C28 1_555 1_555
H32 P1 1_555 1_555
Rb1A P1 1_555 1_555
P1A Rb1 1_555 1_555
C16A C15 1_555 1_555
N1A Rb1A 1_555 1_555
C25A Rb1A 1_555 1_555
C1A Rb1A 1_555 1_555
C2A Rb1A 1_555 1_555
C3A Rb1A 1_555 1_555
H1A C2A 1_555 1_555
C4A C3A 1_555 1_555
H2A C4A 1_555 1_555
C5A C4A 1_555 1_555
C6A C1A 1_555 1_555
C19A C1A 1_555 1_555
H8A C19A 1_555 1_555
H9A C19A 1_555 1_555
H10A C19A 1_555 1_555
C7A C6A 1_555 1_555
C8A C7A 1_555 1_555
H3A C8A 1_555 1_555
C9A C8A 1_555 1_555
H4A C9A 1_555 1_555
C10A C9A 1_555 1_555
H5A C10A 1_555 1_555
C11A C10A 1_555 1_555
C12A P1A 1_555 1_555
H32A P1A 1_555 1_555
C13A C11A 1_555 1_555
C14A C13A 1_555 1_555
C15A C16 1_555 1_555
H6A C15A 1_555 1_555
C18A C17 1_555 1_555
C24A C18A 1_555 1_555
H23A C24A 1_555 1_555
H24A C24A 1_555 1_555
H25A C24A 1_555 1_555
C22A C14A 1_555 1_555
H17A C22A 1_555 1_555
H18A C22A 1_555 1_555
H19A C22A 1_555 1_555
C21A C5A 1_555 1_555
H14A C21A 1_555 1_555
H15A C21A 1_555 1_555
H16A C21A 1_555 1_555
C20A C3A 1_555 1_555
H11A C20A 1_555 1_555
H12A C20A 1_555 1_555
H13A C20A 1_555 1_555
N2A C25A 1_555 1_555
C26A N2A 1_555 1_555
H27A C26A 1_555 1_555
C27A N1A 1_555 1_555
H28A C27A 1_555 1_555
C28A N2A 1_555 1_555
H29A C28A 1_555 1_555
H30A C28A 1_555 1_555
H31A C28A 1_555 1_555
H26A C25A 1_555 1_555
C17A C18 1_555 1_555
H7A C17A 1_555 1_555
C23A C16A 1_555 1_555
H20A C23A 1_555 1_555
H21A C23A 1_555 1_555
H22A C23A 1_555 1_555
N1 C25 1_555 1_555
C1 C2 1_555 1_555
C2 C3 1_555 1_555
C5 C6 1_555 1_555
C11 C12 1_555 1_555
C26 C27 1_555 1_555
Rb1A P1A 1_555 1_555
Rb1A C16A 1_555 1_555
C16A C17A 1_555 1_555
N1A C25A 1_555 1_555
C1A C2A 1_555 1_555
C2A C3A 1_555 1_555
C5A C6A 1_555 1_555
C7A C12A 1_555 1_555
C11A C12A 1_555 1_555
C13A C18A 1_555 1_555
C14A C15A 1_555 1_555
C26A C27A 1_555 1_555

#END
