
#######################################################################
#
#                 Cambridge Crystallographic Data Centre
#                                CCDC 
#
#######################################################################
#
# If this CIF has been generated from an entry in the Cambridge 
# Structural Database, then it will include bibliographic, chemical, 
# crystal, experimental, refinement or atomic coordinate data resulting 
# from the CCDC's data processing and validation procedures.
#
#######################################################################

data_UMOHEJ
_chemical_name_common            'AL-37350A methanol solvate'
_chemical_formula_moiety         'C14 H19 N2 O1 1+,Cl1 1-,0.5(C1 H4 O1)'
_chemical_name_systematic        
'(S)-(+)-1-(2-Aminopropyl)-8,9-dihydropyrano(3,2-e)indole hydrochloride methanol solvate'
_chemical_properties_biological  '5HT!2$ receptor agonist'
_symmetry_cell_setting           orthorhombic
_symmetry_space_group_name_H-M   'P 21 21 21'
_symmetry_Int_Tables_number      19
_space_group_name_Hall           'P 2ac 2ab'
loop_
_symmetry_equiv_pos_site_id
_symmetry_equiv_pos_as_xyz
1 x,y,z
2 1/2-x,-y,1/2+z
3 1/2+x,1/2-y,-z
4 -x,1/2+y,1/2-z
_cell_length_a                   9.0858(1)
_cell_length_b                   11.0766(1)
_cell_length_c                   28.7536(3)
_cell_angle_alpha                90
_cell_angle_beta                 90
_cell_angle_gamma                90
_cell_volume                     2893.76
_exptl_crystal_colour            'pale violet'
_exptl_crystal_description       prism
_chemical_melting_point          '275-277 deg.C'
_cell_formula_units_Z            8
_exptl_crystal_recrystallization_method methanol
loop_
_atom_site_label
_atom_site_type_symbol
_atom_site_fract_x
_atom_site_fract_y
_atom_site_fract_z
Cl1 Cl 0.2917(1) 0.3508(1) 0.4880(1)
Cl2 Cl 0.6449(1) 0.7349(1) 0.4953(1)
N1 N 0.6376(2) 0.2832(1) 0.4235(1)
C1 C 0.6311(2) 0.4064(2) 0.4242(1)
C2 C 0.5555(2) 0.4499(1) 0.3864(1)
C3 C 0.5110(2) 0.3446(1) 0.3600(1)
C4 C 0.4324(2) 0.3282(1) 0.3177(1)
C5 C 0.3725(2) 0.4323(1) 0.2896(1)
C6 C 0.2628(2) 0.3897(2) 0.2527(1)
C7 C 0.3220(2) 0.2794(2) 0.2291(1)
O1 O 0.3469(1) 0.1802(1) 0.2608(1)
C8 C 0.4156(2) 0.2098(1) 0.3023(1)
C9 C 0.4697(2) 0.1099(1) 0.3273(1)
C10 C 0.5451(2) 0.1246(2) 0.3685(1)
C11 C 0.5649(2) 0.2427(2) 0.3845(1)
C12 C 0.5294(2) 0.5816(1) 0.3772(1)
C13 C 0.3823(2) 0.6301(1) 0.3955(1)
N2 N 0.3724(2) 0.6086(1) 0.4468(1)
C14 C 0.3658(2) 0.7648(2) 0.3863(1)
H1 H 0.6737 0.4568 0.4478
H2 H 0.4523 0.4741 0.2747
H3 H 0.3241 0.4880 0.3101
H4 H 0.2444 0.4527 0.2305
H5 H 0.1715 0.3694 0.2675
H6 H 0.4135 0.3004 0.2145
H7 H 0.2549 0.2542 0.2052
H8 H 0.4530 0.0299 0.3155
H9 H 0.5832 0.0568 0.3854
H10 H 0.5336 0.5948 0.3442
H11 H 0.6077 0.6272 0.3912
H12 H 0.3032 0.5881 0.3804
H13 H 0.2728 0.7924 0.3981
H14 H 0.4440 0.8071 0.4017
H15 H 0.3708 0.7799 0.3535
H31 H 0.6650(30) 0.2410(20) 0.4471(8)
H32 H 0.4580(20) 0.6450(20) 0.4630(7)
H33 H 0.2910(20) 0.6440(20) 0.4595(7)
H35 H 0.3610(20) 0.5290(20) 0.4535(7)
O2 O 0.7838(2) 0.5034(1) 0.5329(1)
C29 C 0.9240(2) 0.4828(2) 0.5125(1)
H39 H 0.7520(30) 0.5680(20) 0.5262(9)
H40 H 0.9330(30) 0.5170(30) 0.4790(11)
H41 H 1.0050(40) 0.5310(40) 0.5299(13)
H42 H 0.9480(30) 0.3940(30) 0.5113(10)
N3 N 0.3653(2) 0.6579(1) 0.5824(1)
C15 C 0.3824(2) 0.5356(2) 0.5855(1)
C16 C 0.4589(2) 0.5061(1) 0.6253(1)
C17 C 0.4908(2) 0.6190(1) 0.6485(1)
C18 C 0.5633(2) 0.6512(1) 0.6903(1)
C19 C 0.6265(2) 0.5582(1) 0.7232(1)
C20 C 0.6777(2) 0.6163(2) 0.7690(1)
C21 C 0.7461(2) 0.7373(2) 0.7598(1)
O3 O 0.6441(1) 0.8177(1) 0.7397(1)
C22 C 0.5747(2) 0.7736(2) 0.7001(1)
C23 C 0.5156(2) 0.8636(1) 0.6711(1)
C24 C 0.4430(2) 0.8340(1) 0.6307(1)
C25 C 0.4309(2) 0.7112(1) 0.6200(1)
C26 C 0.4860(2) 0.3775(1) 0.6404(1)
C27 C 0.5417(2) 0.2933(1) 0.6022(1)
N4 N 0.6975(2) 0.3250(1) 0.5902(1)
C28 C 0.5383(2) 0.1612(2) 0.6165(1)
H16 H 0.3460 0.4782 0.5633
H17 H 0.7091 0.5195 0.7086
H18 H 0.5536 0.4976 0.7294
H19 H 0.7475 0.5644 0.7841
H20 H 0.5947 0.6263 0.7893
H21 H 0.8281 0.7270 0.7391
H22 H 0.7823 0.7709 0.7884
H23 H 0.5261 0.9469 0.6797
H24 H 0.4030 0.8950 0.6106
H25 H 0.3957 0.3452 0.6525
H26 H 0.5565 0.3777 0.6653
H27 H 0.4803 0.3033 0.5753
H28 H 0.5742 0.1125 0.5913
H29 H 0.6001 0.1499 0.6432
H30 H 0.4394 0.1377 0.6239
H34 H 0.7360(30) 0.2680(20) 0.5677(9)
H36 H 0.3170(30) 0.6950(20) 0.5610(9)
H37 H 0.7100(30) 0.4040(20) 0.5748(8)
H38 H 0.7600(30) 0.3230(20) 0.6174(9)
loop_
_geom_bond_atom_site_label_1
_geom_bond_atom_site_label_2
_geom_bond_site_symmetry_1
_geom_bond_site_symmetry_2
N1 C1 1_555 1_555
C1 C2 1_555 1_555
C2 C3 1_555 1_555
C3 C4 1_555 1_555
C4 C5 1_555 1_555
C5 C6 1_555 1_555
C6 C7 1_555 1_555
C7 O1 1_555 1_555
O1 C8 1_555 1_555
C8 C4 1_555 1_555
C9 C8 1_555 1_555
C10 C9 1_555 1_555
C11 N1 1_555 1_555
C12 C2 1_555 1_555
C13 C12 1_555 1_555
N2 C13 1_555 1_555
C14 C13 1_555 1_555
O2 C29 1_555 1_555
N3 C15 1_555 1_555
C15 C16 1_555 1_555
C16 C17 1_555 1_555
C17 C18 1_555 1_555
C18 C19 1_555 1_555
C19 C20 1_555 1_555
C20 C21 1_555 1_555
C21 O3 1_555 1_555
O3 C22 1_555 1_555
C22 C18 1_555 1_555
C23 C22 1_555 1_555
C24 C23 1_555 1_555
C25 N3 1_555 1_555
C26 C16 1_555 1_555
C27 C26 1_555 1_555
N4 C27 1_555 1_555
C28 C27 1_555 1_555
C29 H40 1_555 1_555
H1 C1 1_555 1_555
H2 C5 1_555 1_555
H3 C5 1_555 1_555
H4 C6 1_555 1_555
H5 C6 1_555 1_555
H6 C7 1_555 1_555
H7 C7 1_555 1_555
H8 C9 1_555 1_555
H9 C10 1_555 1_555
H10 C12 1_555 1_555
H11 C12 1_555 1_555
H12 C13 1_555 1_555
H13 C14 1_555 1_555
H14 C14 1_555 1_555
H15 C14 1_555 1_555
H16 C15 1_555 1_555
H17 C19 1_555 1_555
H18 C19 1_555 1_555
H19 C20 1_555 1_555
H20 C20 1_555 1_555
H21 C21 1_555 1_555
H22 C21 1_555 1_555
H23 C23 1_555 1_555
H24 C24 1_555 1_555
H25 C26 1_555 1_555
H26 C26 1_555 1_555
H27 C27 1_555 1_555
H28 C28 1_555 1_555
H29 C28 1_555 1_555
H30 C28 1_555 1_555
H31 N1 1_555 1_555
H32 N2 1_555 1_555
H33 N2 1_555 1_555
H34 N4 1_555 1_555
H35 N2 1_555 1_555
H36 N3 1_555 1_555
H37 N4 1_555 1_555
H38 N4 1_555 1_555
H39 O2 1_555 1_555
H41 C29 1_555 1_555
H42 C29 1_555 1_555
C3 C11 1_555 1_555
C10 C11 1_555 1_555
C17 C25 1_555 1_555
C24 C25 1_555 1_555

#END
