
#######################################################################
#
#                 Cambridge Crystallographic Data Centre
#                                CCDC 
#
#######################################################################
#
# If this CIF has been generated from an entry in the Cambridge 
# Structural Database, then it will include bibliographic, chemical, 
# crystal, experimental, refinement or atomic coordinate data resulting 
# from the CCDC's data processing and validation procedures.
#
#######################################################################

data_UMOJUD
_chemical_formula_moiety         'C23 H30 Cl1 N1 O2 S1 Si2'
_chemical_name_systematic        
7-chloro-2-((4-methylphenyl)sulfonyl)-5-(trimethylsilyl)-4-((trimethylsilyl)ethynyl)isoindoline
_symmetry_cell_setting           triclinic
_symmetry_space_group_name_H-M   'P -1'
_symmetry_Int_Tables_number      2
_space_group_name_Hall           '-P 1'
loop_
_symmetry_equiv_pos_site_id
_symmetry_equiv_pos_as_xyz
1 x,y,z
2 -x,-y,-z
_cell_length_a                   11.592(2)
_cell_length_b                   11.7363(13)
_cell_length_c                   11.7880(13)
_cell_angle_alpha                118.7280(10)
_cell_angle_beta                 104.041(2)
_cell_angle_gamma                100.602(2)
_cell_volume                     1276.3
_cell_formula_units_Z            2
loop_
_atom_site_label
_atom_site_type_symbol
_atom_site_fract_x
_atom_site_fract_y
_atom_site_fract_z
Cl1 Cl -0.21757(3) 0.22292(3) 0.35973(3)
S1 S -0.13237(3) 0.81990(3) 0.68741(4)
Si1 Si 0.33782(4) 0.80621(4) 1.25406(4)
Si2 Si 0.17533(4) 0.30367(4) 0.80317(4)
O1 O -0.19173(10) 0.78611(11) 0.54802(11)
O2 O -0.02870(10) 0.94750(10) 0.79233(11)
N1 N -0.07935(11) 0.69655(12) 0.67151(12)
C1 C 0.23966(18) 0.89981(18) 1.33569(19)
H1 H 0.2181 0.9523 1.2970
H2 H 0.2865 0.9616 1.4350
H3 H 0.1633 0.8342 1.3175
C2 C 0.48587(18) 0.9297(2) 1.28560(19)
H4 H 0.5372 0.8794 1.2457
H5 H 0.5323 0.9947 1.3846
H6 H 0.4648 0.9790 1.2428
C3 C 0.3736(2) 0.6942(2) 1.31759(19)
H7 H 0.2955 0.6286 1.2961
H8 H 0.4204 0.7509 1.4171
H9 H 0.4233 0.6454 1.2724
C4 C 0.24252(14) 0.69229(14) 1.06403(15)
C5 C 0.17186(13) 0.61240(14) 0.94291(14)
C6 C 0.08401(12) 0.51657(13) 0.79983(13)
C7 C 0.07243(13) 0.37508(14) 0.72372(14)
C8 C 0.14340(19) 0.32652(17) 0.95899(16)
H10 H 0.2071 0.3101 1.0123
H11 H 0.0611 0.2617 0.9286
H12 H 0.1455 0.4195 1.0163
C9 C 0.34442(15) 0.39573(17) 0.8480(2)
H13 H 0.3977 0.3600 0.8878
H14 H 0.3670 0.4933 0.9146
H15 H 0.3558 0.3814 0.7647
C10 C 0.13448(15) 0.11539(14) 0.67367(16)
H16 H 0.1479 0.1025 0.5917
H17 H 0.0469 0.0664 0.6482
H18 H 0.1875 0.0800 0.7143
C11 C -0.01987(13) 0.28757(14) 0.58673(14)
H19 H -0.0283 0.1946 0.5346
C12 C -0.09900(13) 0.33658(14) 0.52708(14)
C13 C -0.08481(13) 0.47550(14) 0.60050(14)
C14 C -0.15732(13) 0.55114(14) 0.55788(14)
H20 H -0.1610 0.5327 0.4673
H21 H -0.2430 0.5270 0.5554
C15 C 0.00410(13) 0.70944(14) 0.79755(14)
H22 H -0.0319 0.7342 0.8686
H23 H 0.0885 0.7771 0.8373
C16 C 0.00609(12) 0.56411(13) 0.73577(14)
C17 C -0.25251(13) 0.81161(14) 0.75381(14)
C18 C -0.37696(15) 0.72454(16) 0.66092(16)
H24 H -0.3972 0.6731 0.5648
C19 C -0.47024(15) 0.71597(17) 0.71432(17)
H25 H -0.5534 0.6574 0.6529
C20 C -0.44190(15) 0.79332(17) 0.85801(17)
C21 C -0.31708(16) 0.88003(17) 0.94793(16)
H26 H -0.2970 0.9327 1.0440
C22 C -0.22183(14) 0.88983(15) 0.89759(15)
H27 H -0.1386 0.9479 0.9591
C23 C -0.54466(18) 0.7821(2) 0.9140(2)
H28 H -0.6227 0.7119 0.8381
H29 H -0.5566 0.8697 0.9589
H30 H -0.5200 0.7574 0.9806
loop_
_geom_bond_atom_site_label_1
_geom_bond_atom_site_label_2
_geom_bond_site_symmetry_1
_geom_bond_site_symmetry_2
Cl1 C12 1_555 1_555
S1 O1 1_555 1_555
Si1 C1 1_555 1_555
Si2 C7 1_555 1_555
O2 S1 1_555 1_555
N1 S1 1_555 1_555
C1 H1 1_555 1_555
H2 C1 1_555 1_555
H3 C1 1_555 1_555
C2 Si1 1_555 1_555
H4 C2 1_555 1_555
H5 C2 1_555 1_555
H6 C2 1_555 1_555
C3 Si1 1_555 1_555
H7 C3 1_555 1_555
H8 C3 1_555 1_555
H9 C3 1_555 1_555
C4 Si1 1_555 1_555
C5 C4 1_555 1_555
C6 C5 1_555 1_555
C7 C6 1_555 1_555
C8 Si2 1_555 1_555
H10 C8 1_555 1_555
H11 C8 1_555 1_555
H12 C8 1_555 1_555
C9 Si2 1_555 1_555
H13 C9 1_555 1_555
H14 C9 1_555 1_555
H15 C9 1_555 1_555
C10 Si2 1_555 1_555
H16 C10 1_555 1_555
H17 C10 1_555 1_555
H18 C10 1_555 1_555
C11 C7 1_555 1_555
H19 C11 1_555 1_555
C12 C11 1_555 1_555
C13 C12 1_555 1_555
C14 N1 1_555 1_555
H20 C14 1_555 1_555
H21 C14 1_555 1_555
C15 N1 1_555 1_555
H22 C15 1_555 1_555
H23 C15 1_555 1_555
C16 C6 1_555 1_555
C17 S1 1_555 1_555
C18 C17 1_555 1_555
H24 C18 1_555 1_555
C19 C18 1_555 1_555
H25 C19 1_555 1_555
C20 C19 1_555 1_555
C21 C20 1_555 1_555
H26 C21 1_555 1_555
C22 C17 1_555 1_555
H27 C22 1_555 1_555
C23 C20 1_555 1_555
H28 C23 1_555 1_555
H29 C23 1_555 1_555
H30 C23 1_555 1_555
C13 C14 1_555 1_555
C13 C16 1_555 1_555
C15 C16 1_555 1_555
C21 C22 1_555 1_555

#END
