
#######################################################################
#
#                 Cambridge Crystallographic Data Centre
#                                CCDC 
#
#######################################################################
#
# If this CIF has been generated from an entry in the Cambridge 
# Structural Database, then it will include bibliographic, chemical, 
# crystal, experimental, refinement or atomic coordinate data resulting 
# from the CCDC's data processing and validation procedures.
#
#######################################################################

data_UMOLUF
_chemical_formula_moiety         'C22 H15 N1 O2'
_chemical_name_systematic        
4-(biphenyl-4-ylmethylene)-3-phenyl-1,2-oxazol-5(4H)-one
_symmetry_cell_setting           monoclinic
_symmetry_space_group_name_H-M   'P 21/c'
_symmetry_Int_Tables_number      14
_space_group_name_Hall           '-P 2ybc'
loop_
_symmetry_equiv_pos_site_id
_symmetry_equiv_pos_as_xyz
1 x,y,z
2 -x,1/2+y,1/2-z
3 -x,-y,-z
4 x,1/2-y,1/2+z
_cell_length_a                   24.695(7)
_cell_length_b                   5.6676(15)
_cell_length_c                   11.644(3)
_cell_angle_alpha                90
_cell_angle_beta                 96.552(4)
_cell_angle_gamma                90
_cell_volume                     1619.07
_exptl_crystal_colour            yellow
_exptl_crystal_description       Prism
_cell_formula_units_Z            4
loop_
_atom_site_label
_atom_site_type_symbol
_atom_site_fract_x
_atom_site_fract_y
_atom_site_fract_z
O1 O 0.33238(4) -0.0412(2) 0.51109(9)
O2 O 0.26810(5) 0.2061(2) 0.55909(10)
N1 N 0.37012(5) -0.0579(2) 0.42506(11)
C1 C 0.16728(6) 0.9559(3) 0.33431(13)
C2 C 0.17858(8) 0.7900(4) 0.42194(18)
H1 H 0.1570 0.7899 0.4845
C3 C 0.21954(8) 0.6265(4) 0.42176(16)
H2 H 0.2254 0.5157 0.4831
C4 C 0.25270(6) 0.6212(3) 0.33271(12)
C5 C 0.24198(6) 0.7880(3) 0.24516(14)
H3 H 0.2638 0.7894 0.1830
C6 C 0.20057(7) 0.9511(3) 0.24622(14)
H4 H 0.1947 1.0627 0.1852
C7 C 0.29733(6) 0.4601(3) 0.32454(12)
H5 H 0.3164 0.4896 0.2597
C8 C 0.30107(6) 0.1602(3) 0.49321(13)
C9 C 0.31787(6) 0.2750(3) 0.38998(12)
C10 C 0.36137(6) 0.1246(3) 0.35899(12)
C11 C 0.39522(6) 0.1618(3) 0.26311(12)
C12 C 0.39685(6) -0.0083(3) 0.17701(13)
H6 H 0.3757 -0.1480 0.1788
C13 C 0.42920(6) 0.0263(3) 0.08893(13)
H7 H 0.4299 -0.0888 0.0298
C14 C 0.46053(6) 0.2282(3) 0.08680(13)
H8 H 0.4831 0.2500 0.0268
C15 C 0.45924(6) 0.3986(3) 0.17161(13)
H9 H 0.4809 0.5367 0.1700
C16 C 0.42603(6) 0.3667(3) 0.25909(12)
H10 H 0.4244 0.4851 0.3163
C17 C 0.12166(12) 1.1271(5) 0.3358(3)
C18 C 0.12041(15) 1.3336(6) 0.2685(3)
H11 H 0.1495 1.3661 0.2240
C19 C 0.07709(17) 1.4908(7) 0.2665(4)
H12 H 0.0756 1.6240 0.2167
C20 C 0.0364(4) 1.4554(16) 0.3358(7)
H13 H 0.0073 1.5651 0.3356
C21 C 0.03835(15) 1.2578(8) 0.4058(4)
H14 H 0.0103 1.2313 0.4537
C22 C 0.08107(9) 1.0975(4) 0.40660(19)
H15 H 0.0823 0.9652 0.4569
C23? C 0.12301(9) 1.1317(4) 0.33599(19)
C24? C 0.10375(9) 1.2615(4) 0.23681(19)
H16? H 0.1186 1.2342 0.1662
C25? C 0.0630(2) 1.4297(10) 0.2415(4)
H17? H 0.0518 1.5231 0.1753
C26? C 0.0389(5) 1.462(2) 0.3410(9)
H18? H 0.0104 1.5738 0.3431
C27? C 0.0566(3) 1.3299(12) 0.4377(5)
H19? H 0.0407 1.3539 0.5074
C28? C 0.0975(2) 1.1621(9) 0.4342(4)
H20? H 0.1080 1.0674 0.5003
loop_
_geom_bond_atom_site_label_1
_geom_bond_atom_site_label_2
_geom_bond_site_symmetry_1
_geom_bond_site_symmetry_2
O1 N1 1_555 1_555
O2 C8 1_555 1_555
N1 C10 1_555 1_555
C1 C2 1_555 1_555
C2 H1 1_555 1_555
C3 C2 1_555 1_555
H2 C3 1_555 1_555
C4 C3 1_555 1_555
C5 C4 1_555 1_555
H3 C5 1_555 1_555
C6 C1 1_555 1_555
H4 C6 1_555 1_555
C7 C4 1_555 1_555
H5 C7 1_555 1_555
C8 O1 1_555 1_555
C9 C7 1_555 1_555
C10 C9 1_555 1_555
C11 C10 1_555 1_555
C12 C11 1_555 1_555
H6 C12 1_555 1_555
C13 C12 1_555 1_555
H7 C13 1_555 1_555
C14 C13 1_555 1_555
H8 C14 1_555 1_555
C15 C14 1_555 1_555
H9 C15 1_555 1_555
C16 C11 1_555 1_555
H10 C16 1_555 1_555
C17 C1 1_555 1_555
C18 C17 1_555 1_555
H11 C18 1_555 1_555
C19 C18 1_555 1_555
H12 C19 1_555 1_555
C20 C19 1_555 1_555
H13 C20 1_555 1_555
C21 C20 1_555 1_555
H14 C21 1_555 1_555
C22 C17 1_555 1_555
H15 C22 1_555 1_555
C5 C6 1_555 1_555
C8 C9 1_555 1_555
C15 C16 1_555 1_555
C21 C22 1_555 1_555

#END
