
#######################################################################
#
#                 Cambridge Crystallographic Data Centre
#                                CCDC 
#
#######################################################################
#
# If this CIF has been generated from an entry in the Cambridge 
# Structural Database, then it will include bibliographic, chemical, 
# crystal, experimental, refinement or atomic coordinate data resulting 
# from the CCDC's data processing and validation procedures.
#
#######################################################################

data_UMOMEQ
_chemical_formula_moiety         'C15 H16 N2 O2'
_chemical_name_systematic        
3-methyl-4-(4-(pyrrolidin-1-yl)benzylidene)-1,2-oxazol-5(4H)-one
_symmetry_cell_setting           monoclinic
_symmetry_space_group_name_H-M   'P 21/c'
_symmetry_Int_Tables_number      14
_space_group_name_Hall           '-P 2ybc'
loop_
_symmetry_equiv_pos_site_id
_symmetry_equiv_pos_as_xyz
1 x,y,z
2 -x,1/2+y,1/2-z
3 -x,-y,-z
4 x,1/2-y,1/2+z
_cell_length_a                   11.971(5)
_cell_length_b                   6.692(3)
_cell_length_c                   17.466(8)
_cell_angle_alpha                90
_cell_angle_beta                 108.810(8)
_cell_angle_gamma                90
_cell_volume                     1324.47
_exptl_crystal_colour            orange
_exptl_crystal_description       block
_cell_formula_units_Z            4
loop_
_atom_site_label
_atom_site_type_symbol
_atom_site_fract_x
_atom_site_fract_y
_atom_site_fract_z
C1 C 0.2130(2) 0.7474(4) 0.17935(15)
H1 H 0.1671 0.7000 0.2124
H2 H 0.2675 0.6434 0.1757
C2 C 0.1340(3) 0.8089(5) 0.09648(17)
H3 H 0.1731 0.7884 0.0564
H4 H 0.0612 0.7327 0.0809
C3 C 0.1101(3) 1.0236(5) 0.10401(18)
H5 H 0.0445 1.0413 0.1245
H6 H 0.0918 1.0901 0.0521
C4 C 0.2236(2) 1.1063(4) 0.16346(14)
H7 H 0.2753 1.1586 0.1354
H8 H 0.2070 1.2112 0.1966
C5 C 0.3691(2) 0.9412(3) 0.28152(13)
C6 C 0.4106(2) 0.7709(3) 0.32993(14)
H9 H 0.3717 0.6499 0.3144
C7 C 0.5051(2) 0.7775(3) 0.39832(13)
H10 H 0.5293 0.6613 0.4283
C8 C 0.56818(19) 0.9576(3) 0.42521(12)
C9 C 0.5247(2) 1.1282(3) 0.37815(12)
H11 H 0.5619 1.2500 0.3951
C10 C 0.4301(2) 1.1236(3) 0.30864(14)
H12 H 0.4056 1.2402 0.2790
C11 C 0.66841(19) 0.9781(3) 0.49544(12)
H13 H 0.6941 1.1097 0.5051
C12 C 0.73596(19) 0.8481(3) 0.55231(12)
C13 C 0.7288(2) 0.6327(4) 0.56216(15)
C14 C 0.8340(2) 0.9055(3) 0.62115(13)
C15 C 0.8873(2) 1.1093(4) 0.63962(15)
H14 H 0.9485 1.1074 0.6911
H15 H 0.8275 1.2033 0.6412
H16 H 0.9200 1.1481 0.5984
N1 N 0.27598(18) 0.9322(3) 0.21238(12)
N2 N 0.8801(2) 0.7610(3) 0.66985(13)
O1 O 0.66853(17) 0.4998(3) 0.52199(11)
O2 O 0.81310(17) 0.5843(3) 0.63422(11)
loop_
_geom_bond_atom_site_label_1
_geom_bond_atom_site_label_2
_geom_bond_site_symmetry_1
_geom_bond_site_symmetry_2
C1 H1 1_555 1_555
H2 C1 1_555 1_555
C2 C1 1_555 1_555
H3 C2 1_555 1_555
H4 C2 1_555 1_555
C3 C2 1_555 1_555
H5 C3 1_555 1_555
H6 C3 1_555 1_555
C4 C3 1_555 1_555
H7 C4 1_555 1_555
H8 C4 1_555 1_555
C5 C6 1_555 1_555
C6 H9 1_555 1_555
C7 C6 1_555 1_555
H10 C7 1_555 1_555
C8 C7 1_555 1_555
C9 C8 1_555 1_555
H11 C9 1_555 1_555
C10 C5 1_555 1_555
H12 C10 1_555 1_555
C11 C8 1_555 1_555
H13 C11 1_555 1_555
C12 C11 1_555 1_555
C13 C12 1_555 1_555
C14 C12 1_555 1_555
C15 C14 1_555 1_555
H14 C15 1_555 1_555
H15 C15 1_555 1_555
H16 C15 1_555 1_555
N1 C1 1_555 1_555
N2 C14 1_555 1_555
O1 C13 1_555 1_555
O2 C13 1_555 1_555
C4 N1 1_555 1_555
C5 N1 1_555 1_555
C9 C10 1_555 1_555
N2 O2 1_555 1_555

#END
