
#######################################################################
#
#                 Cambridge Crystallographic Data Centre
#                                CCDC 
#
#######################################################################
#
# If this CIF has been generated from an entry in the Cambridge 
# Structural Database, then it will include bibliographic, chemical, 
# crystal, experimental, refinement or atomic coordinate data resulting 
# from the CCDC's data processing and validation procedures.
#
#######################################################################

data_UMOMIU
_chemical_formula_moiety         'C18 H13 N1 O2'
_chemical_name_systematic        
4-(9H-fluoren-2-ylmethylene)-3-methyl-1,2-oxazol-5(4H)-one
_symmetry_cell_setting           triclinic
_symmetry_space_group_name_H-M   'P -1'
_symmetry_Int_Tables_number      2
_space_group_name_Hall           '-P 1'
loop_
_symmetry_equiv_pos_site_id
_symmetry_equiv_pos_as_xyz
1 x,y,z
2 -x,-y,-z
_cell_length_a                   10.6405(18)
_cell_length_b                   12.712(2)
_cell_length_c                   16.534(3)
_cell_angle_alpha                107.075(4)
_cell_angle_beta                 90.263(4)
_cell_angle_gamma                105.029(4)
_cell_volume                     2056.81
_exptl_crystal_colour            orange
_exptl_crystal_description       slice
_cell_formula_units_Z            6
loop_
_atom_site_label
_atom_site_type_symbol
_atom_site_fract_x
_atom_site_fract_y
_atom_site_fract_z
O1 O -0.2108(4) 0.3492(3) 0.6024(3)
O2 O -0.1387(4) 0.2554(3) 0.4850(3)
N1 N -0.1898(4) 0.3726(4) 0.6926(3)
C1 C 0.3932(5) -0.0832(4) 0.3518(4)
H1 H 0.4300 -0.0950 0.3984
C2 C 0.4290(6) -0.1257(5) 0.2703(6)
H2 H 0.4904 -0.1674 0.2615
C3 C 0.3742(7) -0.1061(5) 0.2030(5)
H3 H 0.4005 -0.1340 0.1491
C4 C 0.2831(6) -0.0476(4) 0.2123(4)
H4 H 0.2459 -0.0363 0.1655
C5 C 0.2467(5) -0.0052(4) 0.2919(4)
C6 C 0.3000(5) -0.0225(4) 0.3607(4)
C7 C 0.2410(4) 0.0344(3) 0.4369(3)
C8 C 0.1539(4) 0.0829(3) 0.4108(3)
C9 C 0.1464(5) 0.0619(4) 0.3180(3)
H5 H 0.1699 0.1330 0.3038
H6 H 0.0598 0.0173 0.2915
C10 C 0.0816(4) 0.1440(3) 0.4702(3)
H7 H 0.0220 0.1767 0.4527
C11 C 0.1031(4) 0.1531(3) 0.5550(3)
C12 C 0.1937(4) 0.1014(3) 0.5784(3)
H8 H 0.2082 0.1081 0.6354
C13 C 0.2611(5) 0.0416(4) 0.5201(4)
H9 H 0.3191 0.0067 0.5369
C14 C 0.0387(4) 0.2134(3) 0.6231(3)
H10 H 0.0684 0.2141 0.6763
C15 C -0.0544(4) 0.2686(3) 0.6270(3)
C16 C -0.1319(5) 0.2854(4) 0.5618(4)
C17 C -0.1017(4) 0.3252(4) 0.7045(3)
C18 C -0.0597(5) 0.3336(4) 0.7915(3)
H11 H -0.1033 0.3808 0.8311
H12 H 0.0331 0.3670 0.8020
H13 H -0.0812 0.2586 0.7981
O3 O 0.5593(4) 0.1482(3) 0.1306(2)
O4 O 0.4169(4) 0.2395(3) 0.1916(2)
N2 N 0.6616(4) 0.1063(3) 0.1561(3)
C19 C 0.1630(5) 0.5198(4) 0.5848(4)
H14 H 0.1285 0.5237 0.5343
C20 C 0.1175(5) 0.5692(4) 0.6642(5)
H15 H 0.0524 0.6065 0.6674
C21 C 0.1739(6) 0.5596(4) 0.7366(4)
H16 H 0.1469 0.5921 0.7894
C22 C 0.2672(5) 0.5040(4) 0.7319(3)
H17 H 0.3025 0.4976 0.7812
C23 C 0.3085(5) 0.4589(4) 0.6585(4)
C24 C 0.2605(5) 0.4659(3) 0.5856(3)
C25 C 0.3257(4) 0.4062(3) 0.5116(3)
C26 C 0.4126(5) 0.3646(4) 0.5483(3)
C27 C 0.4139(5) 0.3898(4) 0.6392(3)
H18 H 0.4990 0.4358 0.6674
H19 H 0.3884 0.3205 0.6557
C28 C 0.4934(4) 0.3034(3) 0.4955(3)
H20 H 0.5527 0.2751 0.5182
C29 C 0.4793(4) 0.2887(3) 0.4099(3)
C30 C 0.3893(4) 0.3343(3) 0.3775(3)
H21 H 0.3813 0.3236 0.3194
C31 C 0.3136(5) 0.3938(4) 0.4286(4)
H22 H 0.2562 0.4244 0.4063
C32 C 0.5628(4) 0.2274(3) 0.3576(3)
H23 H 0.6218 0.2091 0.3892
C33 C 0.5734(4) 0.1914(3) 0.2739(3)
C34 C 0.6677(4) 0.1314(3) 0.2371(3)
C35 C 0.7635(5) 0.0983(4) 0.2811(3)
H24 H 0.8158 0.0625 0.2406
H25 H 0.7188 0.0455 0.3097
H26 H 0.8186 0.1650 0.3219
C36 C 0.5051(5) 0.1998(4) 0.2006(3)
O5 O 0.8937(3) 0.8673(2) 0.16520(19)
O6 O 0.7391(3) 0.7344(3) 0.1954(2)
N3 N 0.9119(4) 0.9308(3) 0.1038(2)
C37 C 0.1145(4) 0.2979(3) 0.1581(3)
H27 H 0.1427 0.2806 0.2047
C38 C -0.0083(5) 0.2419(4) 0.1167(3)
H28 H -0.0626 0.1857 0.1359
C39 C -0.0527(4) 0.2663(4) 0.0485(3)
H29 H -0.1365 0.2277 0.0224
C40 C 0.0269(4) 0.3485(3) 0.0181(3)
H30 H -0.0021 0.3659 -0.0283
C41 C 0.1525(4) 0.4051(3) 0.0590(3)
C42 C 0.1943(4) 0.3805(3) 0.1284(3)
C43 C 0.3304(4) 0.4536(3) 0.1613(3)
H31 H 0.3331 0.5015 0.2194
H32 H 0.3908 0.4074 0.1585
C44 C 0.3604(4) 0.5240(3) 0.1014(2)
C45 C 0.2550(4) 0.4952(3) 0.0412(2)
C46 C 0.2617(4) 0.5487(3) -0.0203(3)
H33 H 0.1920 0.5285 -0.0610
C47 C 0.3730(4) 0.6324(3) -0.0208(3)
H34 H 0.3770 0.6697 -0.0618
C48 C 0.4805(4) 0.6632(3) 0.0386(2)
C49 C 0.4736(4) 0.6071(3) 0.1006(2)
H35 H 0.5440 0.6255 0.1405
C50 C 0.5913(4) 0.7527(3) 0.0317(2)
H36 H 0.5787 0.7804 -0.0130
C51 C 0.7095(4) 0.8053(3) 0.0758(2)
C52 C 0.8068(4) 0.8946(3) 0.0548(3)
C53 C 0.7932(4) 0.9445(3) -0.0143(3)
H37 H 0.7252 0.9825 -0.0037
H38 H 0.7714 0.8846 -0.0676
H39 H 0.8741 0.9985 -0.0164
C54 C 0.7719(4) 0.7929(4) 0.1494(3)
loop_
_geom_bond_atom_site_label_1
_geom_bond_atom_site_label_2
_geom_bond_site_symmetry_1
_geom_bond_site_symmetry_2
O1 N1 1_555 1_555
O2 C16 1_555 1_555
N1 C17 1_555 1_555
C1 H1 1_555 1_555
C2 C1 1_555 1_555
H2 C2 1_555 1_555
C3 C2 1_555 1_555
H3 C3 1_555 1_555
C4 C3 1_555 1_555
H4 C4 1_555 1_555
C5 C4 1_555 1_555
C6 C1 1_555 1_555
C7 C6 1_555 1_555
C8 C7 1_555 1_555
C9 C5 1_555 1_555
H5 C9 1_555 1_555
H6 C9 1_555 1_555
C10 C8 1_555 1_555
H7 C10 1_555 1_555
C11 C10 1_555 1_555
C12 C11 1_555 1_555
H8 C12 1_555 1_555
C13 C7 1_555 1_555
H9 C13 1_555 1_555
C14 C11 1_555 1_555
H10 C14 1_555 1_555
C15 C14 1_555 1_555
C16 O1 1_555 1_555
C17 C15 1_555 1_555
C18 C17 1_555 1_555
H11 C18 1_555 1_555
H12 C18 1_555 1_555
H13 C18 1_555 1_555
O3 N2 1_555 1_555
O4 C36 1_555 1_555
N2 C34 1_555 1_555
C19 H14 1_555 1_555
C20 C19 1_555 1_555
H15 C20 1_555 1_555
C21 C20 1_555 1_555
H16 C21 1_555 1_555
C22 C21 1_555 1_555
H17 C22 1_555 1_555
C23 C22 1_555 1_555
C24 C19 1_555 1_555
C25 C24 1_555 1_555
C26 C25 1_555 1_555
C27 C23 1_555 1_555
H18 C27 1_555 1_555
H19 C27 1_555 1_555
C28 C26 1_555 1_555
H20 C28 1_555 1_555
C29 C28 1_555 1_555
C30 C29 1_555 1_555
H21 C30 1_555 1_555
C31 C25 1_555 1_555
H22 C31 1_555 1_555
C32 C29 1_555 1_555
H23 C32 1_555 1_555
C33 C32 1_555 1_555
C34 C33 1_555 1_555
C35 C34 1_555 1_555
H24 C35 1_555 1_555
H25 C35 1_555 1_555
H26 C35 1_555 1_555
C36 O3 1_555 1_555
O5 N3 1_555 1_555
O6 C54 1_555 1_555
N3 C52 1_555 1_555
C37 H27 1_555 1_555
C38 C37 1_555 1_555
H28 C38 1_555 1_555
C39 C38 1_555 1_555
H29 C39 1_555 1_555
C40 C39 1_555 1_555
H30 C40 1_555 1_555
C41 C40 1_555 1_555
C42 C37 1_555 1_555
C43 C42 1_555 1_555
H31 C43 1_555 1_555
H32 C43 1_555 1_555
C44 C43 1_555 1_555
C45 C41 1_555 1_555
C46 C45 1_555 1_555
H33 C46 1_555 1_555
C47 C46 1_555 1_555
H34 C47 1_555 1_555
C48 C47 1_555 1_555
C49 C44 1_555 1_555
H35 C49 1_555 1_555
C50 C48 1_555 1_555
H36 C50 1_555 1_555
C51 C50 1_555 1_555
C52 C51 1_555 1_555
C53 C52 1_555 1_555
H37 C53 1_555 1_555
H38 C53 1_555 1_555
H39 C53 1_555 1_555
C54 O5 1_555 1_555
C5 C6 1_555 1_555
C8 C9 1_555 1_555
C12 C13 1_555 1_555
C15 C16 1_555 1_555
C23 C24 1_555 1_555
C26 C27 1_555 1_555
C30 C31 1_555 1_555
C33 C36 1_555 1_555
C41 C42 1_555 1_555
C44 C45 1_555 1_555
C48 C49 1_555 1_555
C51 C54 1_555 1_555

#END
