
#######################################################################
#
#                 Cambridge Crystallographic Data Centre
#                                CCDC 
#
#######################################################################
#
# If this CIF has been generated from an entry in the Cambridge 
# Structural Database, then it will include bibliographic, chemical, 
# crystal, experimental, refinement or atomic coordinate data resulting 
# from the CCDC's data processing and validation procedures.
#
#######################################################################

data_UMONIV
_chemical_formula_moiety         'C8 H3 Cl2 N1 O2'
_chemical_name_systematic        4,6-dichloro-1H-indole-2,3-dione
_symmetry_cell_setting           orthorhombic
_symmetry_space_group_name_H-M   'P b c a'
_symmetry_Int_Tables_number      61
_space_group_name_Hall           '-P 2ac 2ab'
loop_
_symmetry_equiv_pos_site_id
_symmetry_equiv_pos_as_xyz
1 x,y,z
2 1/2-x,-y,1/2+z
3 -x,1/2+y,1/2-z
4 1/2+x,1/2-y,-z
5 -x,-y,-z
6 1/2+x,y,1/2-z
7 x,1/2-y,1/2+z
8 1/2-x,1/2+y,z
_cell_length_a                   8.6253(19)
_cell_length_b                   7.1250(16)
_cell_length_c                   26.289(6)
_cell_angle_alpha                90
_cell_angle_beta                 90
_cell_angle_gamma                90
_cell_volume                     1615.6
_exptl_crystal_colour            orange
_exptl_crystal_description       BLOCK
_cell_formula_units_Z            8
loop_
_atom_site_label
_atom_site_type_symbol
_atom_site_fract_x
_atom_site_fract_y
_atom_site_fract_z
Cl1 Cl 0.29514(7) 0.91432(9) 0.57109(2)
Cl2 Cl 0.90946(7) 0.85524(8) 0.54527(2)
O1 O 0.4268(2) 0.5417(3) 0.76169(6)
O2 O 0.2373(2) 0.7287(3) 0.68422(6)
N1 N 0.6227(2) 0.6103(3) 0.70490(7)
H1 H 0.706(2) 0.586(4) 0.7219(10)
C1 C 0.6327(3) 0.6988(3) 0.65726(8)
C2 C 0.4730(3) 0.8391(3) 0.59277(9)
C3 C 0.4861(3) 0.7546(3) 0.64011(8)
C4 C 0.7662(3) 0.7288(3) 0.62975(8)
H2 H 0.8654 0.6946 0.6424
C5 C 0.7471(3) 0.8124(3) 0.58219(8)
C6 C 0.6037(3) 0.8662(3) 0.56284(9)
H3 H 0.5954 0.9202 0.5299
C7 C 0.3748(3) 0.7047(4) 0.68032(9)
C8 C 0.4750(3) 0.6071(4) 0.72214(9)
loop_
_geom_bond_atom_site_label_1
_geom_bond_atom_site_label_2
_geom_bond_site_symmetry_1
_geom_bond_site_symmetry_2
Cl1 C2 1_555 1_555
Cl2 C5 1_555 1_555
O1 C8 1_555 1_555
O2 C7 1_555 1_555
N1 H1 1_555 1_555
C1 N1 1_555 1_555
C2 C3 1_555 1_555
C3 C1 1_555 1_555
C4 C1 1_555 1_555
H2 C4 1_555 1_555
C5 C4 1_555 1_555
C6 C2 1_555 1_555
H3 C6 1_555 1_555
C7 C3 1_555 1_555
C8 N1 1_555 1_555
C5 C6 1_555 1_555
C7 C8 1_555 1_555

#END
