
#######################################################################
#
#                 Cambridge Crystallographic Data Centre
#                                CCDC 
#
#######################################################################
#
# If this CIF has been generated from an entry in the Cambridge 
# Structural Database, then it will include bibliographic, chemical, 
# crystal, experimental, refinement or atomic coordinate data resulting 
# from the CCDC's data processing and validation procedures.
#
#######################################################################

data_UMOQIX
_chemical_formula_moiety         'C23 H16 N2'
_chemical_name_systematic        5-(9-Anthracenyl)-dipyrromethene
_symmetry_cell_setting           monoclinic
_symmetry_space_group_name_H-M   'P 21/c'
_symmetry_Int_Tables_number      14
_space_group_name_Hall           '-P 2ybc'
loop_
_symmetry_equiv_pos_site_id
_symmetry_equiv_pos_as_xyz
1 x,y,z
2 -x,1/2+y,1/2-z
3 -x,-y,-z
4 x,1/2-y,1/2+z
_cell_length_a                   12.273(7)
_cell_length_b                   8.155(5)
_cell_length_c                   16.787(10)
_cell_angle_alpha                90
_cell_angle_beta                 103.554(8)
_cell_angle_gamma                90
_cell_volume                     1633.36
_exptl_crystal_colour            brown
_exptl_crystal_description       prism
_cell_formula_units_Z            4
loop_
_atom_site_label
_atom_site_type_symbol
_atom_site_fract_x
_atom_site_fract_y
_atom_site_fract_z
N1 N 0.20717(16) 0.9547(3) -0.00035(13)
H1 H 0.2308 0.9218 -0.0433
N2 N 0.31133(16) 0.6849(3) -0.04589(12)
C1 C 0.1580(2) 1.0948(3) 0.00836(16)
H3 H 0.1421 1.1775 -0.0326
C2 C 0.1309(2) 1.1084(3) 0.08760(16)
H4 H 0.0954 1.1982 0.1072
C3 C 0.1663(2) 0.9673(3) 0.12813(16)
H5 H 0.1607 0.9390 0.1819
C4 C 0.21408(19) 0.8682(3) 0.07348(14)
C5 C 0.25606(18) 0.7115(3) 0.08629(14)
C6 C 0.30104(18) 0.6210(3) 0.02823(14)
C7 C 0.33655(19) 0.4584(3) 0.03029(16)
H6 H 0.3385 0.3827 0.0736
C8 C 0.3690(2) 0.4264(3) -0.04315(16)
H7 H 0.3973 0.3257 -0.0584
C9 C 0.3521(2) 0.5688(3) -0.08916(16)
H8 H 0.3665 0.5830 -0.1419
C10 C 0.25188(19) 0.6235(3) 0.16433(15)
C11 C 0.4542(2) 0.6829(3) 0.22407(16)
H9 H 0.4604 0.7379 0.1755
C12 C 0.5458(2) 0.6717(3) 0.28866(16)
H10 H 0.6150 0.7181 0.2839
C13 C 0.5393(2) 0.5921(3) 0.36247(15)
H11 H 0.6033 0.5876 0.4070
C14 C 0.4417(2) 0.5224(3) 0.36948(15)
H12 H 0.4383 0.4691 0.4192
C15 C 0.3432(2) 0.5274(3) 0.30346(15)
C16 C 0.2427(2) 0.4532(3) 0.30837(15)
H13 H 0.2393 0.3957 0.3570
C17 C 0.1471(2) 0.4603(3) 0.24448(15)
C18 C 0.0452(2) 0.3791(3) 0.24940(15)
H14 H 0.0425 0.3176 0.2970
C19 C -0.0481(2) 0.3893(3) 0.18631(16)
H15 H -0.1147 0.3336 0.1902
C20 C -0.0465(2) 0.4819(3) 0.11541(15)
H16 H -0.1127 0.4909 0.0729
C21 C 0.04921(19) 0.5583(3) 0.10742(15)
H17 H 0.0493 0.6179 0.0588
C22 C 0.14994(19) 0.5501(3) 0.17134(15)
C23 C 0.3489(2) 0.6125(3) 0.22906(14)
H2? H 0.2940 0.7859 -0.0626
loop_
_geom_bond_atom_site_label_1
_geom_bond_atom_site_label_2
_geom_bond_site_symmetry_1
_geom_bond_site_symmetry_2
N1 H1 1_555 1_555
N2 C6 1_555 1_555
C1 N1 1_555 1_555
H3 C1 1_555 1_555
C2 C1 1_555 1_555
H4 C2 1_555 1_555
C3 C2 1_555 1_555
H5 C3 1_555 1_555
C4 N1 1_555 1_555
C5 C4 1_555 1_555
C6 C5 1_555 1_555
C7 C6 1_555 1_555
H6 C7 1_555 1_555
C8 C7 1_555 1_555
H7 C8 1_555 1_555
C9 N2 1_555 1_555
H8 C9 1_555 1_555
C10 C5 1_555 1_555
C11 H9 1_555 1_555
C12 C11 1_555 1_555
H10 C12 1_555 1_555
C13 C12 1_555 1_555
H11 C13 1_555 1_555
C14 C13 1_555 1_555
H12 C14 1_555 1_555
C15 C14 1_555 1_555
C16 C15 1_555 1_555
H13 C16 1_555 1_555
C17 C16 1_555 1_555
C18 C17 1_555 1_555
H14 C18 1_555 1_555
C19 C18 1_555 1_555
H15 C19 1_555 1_555
C20 C19 1_555 1_555
H16 C20 1_555 1_555
C21 C20 1_555 1_555
H17 C21 1_555 1_555
C22 C10 1_555 1_555
C23 C10 1_555 1_555
C3 C4 1_555 1_555
C8 C9 1_555 1_555
C11 C23 1_555 1_555
C15 C23 1_555 1_555
C17 C22 1_555 1_555
C21 C22 1_555 1_555

#END
