
#######################################################################
#
#                 Cambridge Crystallographic Data Centre
#                                CCDC 
#
#######################################################################
#
# If this CIF has been generated from an entry in the Cambridge 
# Structural Database, then it will include bibliographic, chemical, 
# crystal, experimental, refinement or atomic coordinate data resulting 
# from the CCDC's data processing and validation procedures.
#
#######################################################################

data_UMUKIX
_chemical_formula_moiety         'C20 H23 Cl1 N2'
_chemical_name_systematic        
2-(4-Chlorobenzyl)-5-phenyl-2,7-diazabicyclo[3.3.1]nonane
_symmetry_cell_setting           triclinic
_symmetry_space_group_name_H-M   'P -1'
_symmetry_Int_Tables_number      2
_space_group_name_Hall           '-P 1'
loop_
_symmetry_equiv_pos_site_id
_symmetry_equiv_pos_as_xyz
1 x,y,z
2 -x,-y,-z
_cell_length_a                   6.0592(2)
_cell_length_b                   9.4343(3)
_cell_length_c                   14.8724(5)
_cell_angle_alpha                103.031(1)
_cell_angle_beta                 92.865(1)
_cell_angle_gamma                95.327(1)
_cell_volume                     822.493
_exptl_crystal_colour            colorless
_exptl_crystal_description       plate
_cell_formula_units_Z            2
loop_
_atom_site_label
_atom_site_type_symbol
_atom_site_fract_x
_atom_site_fract_y
_atom_site_fract_z
Cl1 Cl 1.31197(8) 0.89783(5) 0.39388(3)
N1 N 0.8108(2) 0.62396(14) 0.72967(9)
C1 C 0.7545(3) 0.77418(16) 0.76405(10)
H1 H 0.6000 0.7807 0.7416
H2 H 0.8541 0.8424 0.7387
N2 N 0.3500(2) 0.6221(2) 0.80013(10)
H3 H 0.205(4) 0.609(3) 0.7901(18)
C2 C 0.7764(3) 0.82087(16) 0.86949(10)
H4 H 0.7081 0.9133 0.8889
H5 H 0.9362 0.8412 0.8904
C3 C 0.6680(2) 0.70747(16) 0.91894(10)
C4 C 0.7642(3) 0.56321(17) 0.88020(11)
H6 H 0.9280 0.5767 0.8919
H7 H 0.7038 0.4869 0.9111
C5 C 0.7015(3) 0.51576(17) 0.77593(11)
H8 H 0.7618 0.4203 0.7523
C6 C 0.4461(3) 0.4887(2) 0.76138(12)
H9 H 0.4009 0.4562 0.6944
H10 H 0.3910 0.4105 0.7918
C7 C 0.4129(3) 0.6802(2) 0.89860(11)
H11 H 0.3514 0.6101 0.9338
H12 H 0.3475 0.7732 0.9199
C8 C 0.7638(3) 0.57860(18) 0.62925(10)
H13 H 0.6049 0.5865 0.6145
H14 H 0.7887 0.4744 0.6085
C9 C 0.9027(3) 0.66668(16) 0.57523(10)
C10 C 1.1244(3) 0.72049(18) 0.60235(11)
H15 H 1.1906 0.7061 0.6584
C11 C 1.2494(3) 0.79506(18) 0.54804(11)
H16 H 1.3998 0.8320 0.5669
C12 C 1.1514(3) 0.81481(18) 0.46595(11)
C13 C 0.9322(3) 0.76361(19) 0.43782(11)
H17 H 0.8665 0.7779 0.3816
C14 C 0.8095(3) 0.69073(18) 0.49345(11)
H18 H 0.6580 0.6565 0.4751
C15 C 0.7241(2) 0.76561(16) 1.02301(10)
C16 C 0.5888(4) 0.8525(3) 1.07779(15)
H19 H 0.4505 0.8695 1.0514
C17 C 0.6492(5) 0.9163(3) 1.17093(16)
H20 H 0.5528 0.9770 1.2063
C18 C 0.8437(3) 0.89301(18) 1.21188(11)
H21 H 0.8851 0.9373 1.2751
C19 C 0.9782(3) 0.8043(3) 1.15974(13)
H22 H 1.1140 0.7856 1.1873
C20 C 0.9188(3) 0.7408(2) 1.06652(12)
H23 H 1.0148 0.6788 1.0320
loop_
_geom_bond_atom_site_label_1
_geom_bond_atom_site_label_2
_geom_bond_site_symmetry_1
_geom_bond_site_symmetry_2
Cl1 C12 1_555 1_555
N1 C1 1_555 1_555
C1 H1 1_555 1_555
H2 C1 1_555 1_555
N2 H3 1_555 1_555
C2 C1 1_555 1_555
H4 C2 1_555 1_555
H5 C2 1_555 1_555
C3 C2 1_555 1_555
C4 C3 1_555 1_555
H6 C4 1_555 1_555
H7 C4 1_555 1_555
C5 N1 1_555 1_555
H8 C5 1_555 1_555
C6 N2 1_555 1_555
H9 C6 1_555 1_555
H10 C6 1_555 1_555
C7 N2 1_555 1_555
H11 C7 1_555 1_555
H12 C7 1_555 1_555
C8 N1 1_555 1_555
H13 C8 1_555 1_555
H14 C8 1_555 1_555
C9 C8 1_555 1_555
C10 C9 1_555 1_555
H15 C10 1_555 1_555
C11 C10 1_555 1_555
H16 C11 1_555 1_555
C12 C11 1_555 1_555
C13 C12 1_555 1_555
H17 C13 1_555 1_555
C14 C9 1_555 1_555
H18 C14 1_555 1_555
C15 C3 1_555 1_555
C16 C15 1_555 1_555
H19 C16 1_555 1_555
C17 C16 1_555 1_555
H20 C17 1_555 1_555
C18 C17 1_555 1_555
H21 C18 1_555 1_555
C19 C18 1_555 1_555
H22 C19 1_555 1_555
C20 C15 1_555 1_555
H23 C20 1_555 1_555
C3 C7 1_555 1_555
C4 C5 1_555 1_555
C5 C6 1_555 1_555
C13 C14 1_555 1_555
C19 C20 1_555 1_555

#END
