
#######################################################################
#
#                 Cambridge Crystallographic Data Centre
#                                CCDC 
#
#######################################################################
#
# If this CIF has been generated from an entry in the Cambridge 
# Structural Database, then it will include bibliographic, chemical, 
# crystal, experimental, refinement or atomic coordinate data resulting 
# from the CCDC's data processing and validation procedures.
#
#######################################################################

data_UMULOE
_chemical_formula_moiety         'C25 H19 N1 O3'
_chemical_name_systematic        
18-Ethyl-20-phenyl-2,17,21-trioxa-19-azapentacyclo-[16.2.1.0^3,16^.0^4,9^.0^10,15^]henicosa-3,5,7,9,11,13,15,19-octaene
_symmetry_cell_setting           orthorhombic
_symmetry_space_group_name_H-M   'P 21 21 21'
_symmetry_Int_Tables_number      19
_space_group_name_Hall           'P 2ac 2ab'
loop_
_symmetry_equiv_pos_site_id
_symmetry_equiv_pos_as_xyz
1 x,y,z
2 1/2-x,-y,1/2+z
3 -x,1/2+y,1/2-z
4 1/2+x,1/2-y,-z
_cell_length_a                   12.7197(7)
_cell_length_b                   14.9537(8)
_cell_length_c                   19.9989(11)
_cell_angle_alpha                90
_cell_angle_beta                 90
_cell_angle_gamma                90
_cell_volume                     3803.92
_exptl_crystal_colour            yellow
_exptl_crystal_description       block
_cell_formula_units_Z            8
loop_
_atom_site_label
_atom_site_type_symbol
_atom_site_fract_x
_atom_site_fract_y
_atom_site_fract_z
O1 O 0.46344(15) 0.30899(12) 0.07201(10)
O2 O 0.65180(14) 0.25767(13) 0.15822(9)
O3 O 0.53356(16) 0.37301(12) 0.16911(10)
N1 N 0.49276(18) 0.23685(15) 0.21726(11)
C1 C 0.5316(2) 0.23639(16) 0.06261(13)
C2 C 0.5046(2) 0.18338(17) 0.00497(12)
C3 C 0.4095(2) 0.1983(2) -0.02974(14)
H1 H 0.3649 0.2441 -0.0159
C4 C 0.3821(3) 0.1470(2) -0.08307(16)
H2 H 0.3194 0.1579 -0.1056
C5 C 0.4473(3) 0.0786(2) -0.10385(14)
H3 H 0.4278 0.0434 -0.1401
C6 C 0.5406(2) 0.06188(19) -0.07172(13)
H4 H 0.5837 0.0157 -0.0866
C7 C 0.5718(2) 0.11405(17) -0.01632(11)
C8 C 0.6691(2) 0.09866(16) 0.01961(11)
C9 C 0.7441(2) 0.03508(19) -0.00068(14)
H5 H 0.7321 0.0025 -0.0396
C10 C 0.8330(3) 0.0198(2) 0.03464(15)
H6 H 0.8819 -0.0216 0.0193
C11 C 0.8511(2) 0.06592(19) 0.09366(15)
H7 H 0.9113 0.0541 0.1185
C12 C 0.7809(2) 0.12869(18) 0.11565(13)
H8 H 0.7941 0.1596 0.1551
C13 C 0.6890(2) 0.14676(16) 0.07903(12)
C14 C 0.6171(2) 0.21636(16) 0.10034(12)
C15 C 0.5793(2) 0.29828(17) 0.20268(14)
C16 C 0.4137(2) 0.26249(16) 0.18296(12)
C17 C 0.4432(2) 0.33973(18) 0.13741(14)
H9 H 0.3874 0.3850 0.1371
C18 C 0.3090(2) 0.22177(17) 0.18516(13)
C19 C 0.2872(2) 0.15818(19) 0.23387(14)
H10 H 0.3398 0.1402 0.2633
C20 C 0.1877(3) 0.1215(2) 0.23879(16)
H11 H 0.1730 0.0793 0.2717
C21 C 0.1105(3) 0.1478(2) 0.19482(17)
H12 H 0.0435 0.1233 0.1983
C22 C 0.1307(3) 0.2092(2) 0.14619(17)
H13 H 0.0779 0.2262 0.1166
C23 C 0.2303(2) 0.2464(2) 0.14082(15)
H14 H 0.2443 0.2880 0.1074
C24 C 0.6388(3) 0.3254(2) 0.26490(14)
H15 H 0.5895 0.3513 0.2964
H16 H 0.6680 0.2721 0.2854
C25 C 0.7259(3) 0.3907(3) 0.25308(19)
H17 H 0.7597 0.4044 0.2948
H18 H 0.6977 0.4446 0.2340
H19 H 0.7763 0.3652 0.2228
O4 O 0.55848(13) 0.75255(11) 0.00034(8)
O5 O 0.36183(13) 0.76205(12) -0.08739(9)
N2 N 0.51241(16) 0.77808(13) -0.15356(10)
O6 O 0.49529(13) 0.65688(11) -0.08218(8)
C26 C 0.48021(19) 0.81694(16) 0.00123(11)
C27 C 0.49487(19) 0.88067(16) 0.05508(11)
C28 C 0.5845(2) 0.87608(18) 0.09634(12)
H20 H 0.6348 0.8321 0.0886
C29 C 0.5986(2) 0.93542(19) 0.14764(14)
H21 H 0.6574 0.9307 0.1751
C30 C 0.5254(2) 1.00276(19) 0.15889(14)
H22 H 0.5358 1.0440 0.1931
C31 C 0.4384(2) 1.00798(17) 0.11948(13)
H23 H 0.3898 1.0532 0.1275
C32 C 0.4197(2) 0.94740(16) 0.06715(12)
C33 C 0.3269(2) 0.95276(17) 0.02500(13)
C34 C 0.2475(2) 1.01719(19) 0.03416(16)
H24 H 0.2524 1.0568 0.0699
C35 C 0.1633(3) 1.0231(2) -0.00803(18)
H25 H 0.1118 1.0661 -0.0007
C36 C 0.1544(2) 0.9647(2) -0.06187(17)
H26 H 0.0981 0.9700 -0.0913
C37 C 0.2288(2) 0.89912(19) -0.07182(14)
H27 H 0.2215 0.8595 -0.1073
C38 C 0.31628(19) 0.89150(17) -0.02845(12)
C39 C 0.39304(19) 0.82157(16) -0.03851(12)
C40 C 0.4372(2) 0.71451(16) -0.12546(13)
C41 C 0.59479(18) 0.77379(15) -0.11747(11)
C42 C 0.58113(19) 0.70720(15) -0.06041(12)
H28 H 0.6437 0.6695 -0.0556
C43 C 0.69020(18) 0.82684(15) -0.12870(11)
C44 C 0.6951(2) 0.88616(18) -0.18257(13)
H29 H 0.6362 0.8949 -0.2093
C45 C 0.7860(2) 0.9315(2) -0.19639(15)
H30 H 0.7882 0.9711 -0.2322
C46 C 0.8748(2) 0.91867(19) -0.15742(15)
H31 H 0.9368 0.9487 -0.1676
C47 C 0.8710(2) 0.86162(17) -0.10375(14)
H32 H 0.9302 0.8535 -0.0771
C48 C 0.7790(2) 0.81621(18) -0.08936(13)
H33 H 0.7766 0.7780 -0.0527
C49 C 0.3785(2) 0.65985(19) -0.17640(14)
H34 H 0.3329 0.6990 -0.2020
H35 H 0.3344 0.6168 -0.1534
C50 C 0.4511(3) 0.6103(2) -0.22416(16)
H36 H 0.4098 0.5761 -0.2552
H37 H 0.4959 0.5708 -0.1992
H38 H 0.4934 0.6526 -0.2482
loop_
_geom_bond_atom_site_label_1
_geom_bond_atom_site_label_2
_geom_bond_site_symmetry_1
_geom_bond_site_symmetry_2
O1 C1 1_555 1_555
O2 C14 1_555 1_555
O3 C15 1_555 1_555
N1 C15 1_555 1_555
C1 C2 1_555 1_555
C2 C3 1_555 1_555
C3 H1 1_555 1_555
C4 C3 1_555 1_555
H2 C4 1_555 1_555
C5 C4 1_555 1_555
H3 C5 1_555 1_555
C6 C5 1_555 1_555
H4 C6 1_555 1_555
C7 C2 1_555 1_555
C8 C7 1_555 1_555
C9 C8 1_555 1_555
H5 C9 1_555 1_555
C10 C9 1_555 1_555
H6 C10 1_555 1_555
C11 C10 1_555 1_555
H7 C11 1_555 1_555
C12 C11 1_555 1_555
H8 C12 1_555 1_555
C13 C8 1_555 1_555
C14 C1 1_555 1_555
C15 O2 1_555 1_555
C16 N1 1_555 1_555
C17 O1 1_555 1_555
H9 C17 1_555 1_555
C18 C16 1_555 1_555
C19 C18 1_555 1_555
H10 C19 1_555 1_555
C20 C19 1_555 1_555
H11 C20 1_555 1_555
C21 C20 1_555 1_555
H12 C21 1_555 1_555
C22 C21 1_555 1_555
H13 C22 1_555 1_555
C23 C18 1_555 1_555
H14 C23 1_555 1_555
C24 C15 1_555 1_555
H15 C24 1_555 1_555
H16 C24 1_555 1_555
C25 C24 1_555 1_555
H17 C25 1_555 1_555
H18 C25 1_555 1_555
H19 C25 1_555 1_555
O4 C26 1_555 1_555
O5 C39 1_555 1_555
N2 C40 1_555 1_555
O6 C40 1_555 1_555
C26 C27 1_555 1_555
C27 C28 1_555 1_555
C28 H20 1_555 1_555
C29 C28 1_555 1_555
H21 C29 1_555 1_555
C30 C29 1_555 1_555
H22 C30 1_555 1_555
C31 C30 1_555 1_555
H23 C31 1_555 1_555
C32 C27 1_555 1_555
C33 C32 1_555 1_555
C34 C33 1_555 1_555
H24 C34 1_555 1_555
C35 C34 1_555 1_555
H25 C35 1_555 1_555
C36 C35 1_555 1_555
H26 C36 1_555 1_555
C37 C36 1_555 1_555
H27 C37 1_555 1_555
C38 C33 1_555 1_555
C39 C26 1_555 1_555
C40 O5 1_555 1_555
C41 N2 1_555 1_555
C42 O4 1_555 1_555
H28 C42 1_555 1_555
C43 C41 1_555 1_555
C44 C43 1_555 1_555
H29 C44 1_555 1_555
C45 C44 1_555 1_555
H30 C45 1_555 1_555
C46 C45 1_555 1_555
H31 C46 1_555 1_555
C47 C46 1_555 1_555
H32 C47 1_555 1_555
C48 C43 1_555 1_555
H33 C48 1_555 1_555
C49 C40 1_555 1_555
H34 C49 1_555 1_555
H35 C49 1_555 1_555
C50 C49 1_555 1_555
H36 C50 1_555 1_555
H37 C50 1_555 1_555
H38 C50 1_555 1_555
O3 C17 1_555 1_555
C6 C7 1_555 1_555
C12 C13 1_555 1_555
C13 C14 1_555 1_555
C16 C17 1_555 1_555
C22 C23 1_555 1_555
O6 C42 1_555 1_555
C31 C32 1_555 1_555
C37 C38 1_555 1_555
C38 C39 1_555 1_555
C41 C42 1_555 1_555
C47 C48 1_555 1_555

#END
