
#######################################################################
#
#                 Cambridge Crystallographic Data Centre
#                                CCDC 
#
#######################################################################
#
# If this CIF has been generated from an entry in the Cambridge 
# Structural Database, then it will include bibliographic, chemical, 
# crystal, experimental, refinement or atomic coordinate data resulting 
# from the CCDC's data processing and validation procedures.
#
#######################################################################

data_UMULAR
_chemical_formula_moiety         'C17 H13 N1 O2 S1'
_chemical_name_systematic        
4-(4-(methylsulfanyl)benzylidene)-3-phenyl-1,2-oxazol-5(4H)-one
_symmetry_cell_setting           monoclinic
_symmetry_space_group_name_H-M   'C c'
_symmetry_Int_Tables_number      9
_space_group_name_Hall           'C -2yc'
loop_
_symmetry_equiv_pos_site_id
_symmetry_equiv_pos_as_xyz
1 x,y,z
2 x,-y,1/2+z
3 1/2+x,1/2+y,z
4 1/2+x,1/2-y,1/2+z
_cell_length_a                   20.924(6)
_cell_length_b                   5.5952(16)
_cell_length_c                   11.691(3)
_cell_angle_alpha                90
_cell_angle_beta                 90.568(4)
_cell_angle_gamma                90
_cell_volume                     1368.64
_exptl_crystal_colour            yellow
_cell_formula_units_Z            4
loop_
_atom_site_label
_atom_site_type_symbol
_atom_site_fract_x
_atom_site_fract_y
_atom_site_fract_z
N1 N 0.58622(7) 1.2968(2) 0.49030(12)
S1 S 0.29170(2) 0.04468(7) 0.51060(3)
O1 O 0.54263(6) 1.2748(2) 0.39443(9)
O2 O 0.46814(6) 1.0196(2) 0.33082(10)
C1 C 0.35397(7) 0.2506(3) 0.53255(13)
C2 C 0.36479(7) 0.4171(3) 0.44429(13)
H1 H 0.3393 0.4114 0.3767
C3 C 0.41213(7) 0.5886(3) 0.45490(13)
H2 H 0.4184 0.7006 0.3950
C4 C 0.45112(7) 0.5989(3) 0.55381(12)
C5 C 0.44002(7) 0.4304(3) 0.64054(13)
H3 H 0.4659 0.4344 0.7078
C6 C 0.39249(7) 0.2583(3) 0.63095(13)
H4 H 0.3862 0.1464 0.6909
C7 C 0.50262(7) 0.7685(3) 0.57341(12)
H5 H 0.5248 0.7422 0.6436
C8 C 0.50661(8) 1.0694(3) 0.40444(13)
C9 C 0.52602(7) 0.9562(3) 0.51338(12)
C10 C 0.57651(7) 1.1129(3) 0.55569(13)
C11 C 0.61601(7) 1.0822(3) 0.66045(13)
C12 C 0.61676(7) 1.2596(3) 0.74432(14)
H6 H 0.5914 1.3991 0.7347
C13 C 0.65461(7) 1.2327(3) 0.84202(14)
H7 H 0.6549 1.3534 0.8991
C14 C 0.69184(8) 1.0297(3) 0.85598(14)
H8 H 0.7179 1.0119 0.9224
C15 C 0.69105(8) 0.8521(3) 0.77288(14)
H9 H 0.7165 0.7129 0.7829
C16 C 0.65312(7) 0.8767(3) 0.67498(14)
H10 H 0.6525 0.7547 0.6185
C17 C 0.29473(8) -0.1446(3) 0.63508(16)
H11 H 0.3367 -0.2219 0.6402
H12 H 0.2614 -0.2669 0.6291
H13 H 0.2878 -0.0479 0.7038
loop_
_geom_bond_atom_site_label_1
_geom_bond_atom_site_label_2
_geom_bond_site_symmetry_1
_geom_bond_site_symmetry_2
N1 O1 1_555 1_555
S1 C1 1_555 1_555
O1 C8 1_555 1_555
O2 C8 1_555 1_555
C1 C2 1_555 1_555
C2 H1 1_555 1_555
C3 C2 1_555 1_555
H2 C3 1_555 1_555
C4 C3 1_555 1_555
C5 C4 1_555 1_555
H3 C5 1_555 1_555
C6 C1 1_555 1_555
H4 C6 1_555 1_555
C7 C4 1_555 1_555
H5 C7 1_555 1_555
C8 C9 1_555 1_555
C9 C7 1_555 1_555
C10 N1 1_555 1_555
C11 C10 1_555 1_555
C12 C11 1_555 1_555
H6 C12 1_555 1_555
C13 C12 1_555 1_555
H7 C13 1_555 1_555
C14 C13 1_555 1_555
H8 C14 1_555 1_555
C15 C14 1_555 1_555
H9 C15 1_555 1_555
C16 C11 1_555 1_555
H10 C16 1_555 1_555
C17 S1 1_555 1_555
H11 C17 1_555 1_555
H12 C17 1_555 1_555
H13 C17 1_555 1_555
C5 C6 1_555 1_555
C9 C10 1_555 1_555
C15 C16 1_555 1_555

#END
