
#######################################################################
#
#                 Cambridge Crystallographic Data Centre
#                                CCDC 
#
#######################################################################
#
# If this CIF has been generated from an entry in the Cambridge 
# Structural Database, then it will include bibliographic, chemical, 
# crystal, experimental, refinement or atomic coordinate data resulting 
# from the CCDC's data processing and validation procedures.
#
#######################################################################

data_UMULUK
_chemical_formula_moiety         'C43 H27 N1 O5,0.5(C3 H6 O1)'
_chemical_name_systematic        
'34,35-Diphenyl-2,17,31,36,37-pentaoxa-33-azanonacyclo-[16.12.6.1^32,35^.0^1,18^.0^3,16^.0^4,9^.0^10,15^.0^19,24^.0^25,30^]-heptatriaconta-3,5,7,9,11,13,15,19,21,23,25,27,29,33-tetradecaene acetone solvate'
_symmetry_cell_setting           triclinic
_symmetry_space_group_name_H-M   'P -1'
_symmetry_Int_Tables_number      2
_space_group_name_Hall           '-P 1'
loop_
_symmetry_equiv_pos_site_id
_symmetry_equiv_pos_as_xyz
1 x,y,z
2 -x,-y,-z
_cell_length_a                   9.7928(4)
_cell_length_b                   18.9560(9)
_cell_length_c                   19.1443(9)
_cell_angle_alpha                105.263(1)
_cell_angle_beta                 95.153(1)
_cell_angle_gamma                103.847(1)
_cell_volume                     3284.21
_exptl_crystal_colour            colorless
_exptl_crystal_description       block
_cell_formula_units_Z            4
loop_
_atom_site_label
_atom_site_type_symbol
_atom_site_fract_x
_atom_site_fract_y
_atom_site_fract_z
O1 O 0.54146(10) 0.11017(6) 0.15121(6)
O2 O 0.77610(10) 0.16659(6) 0.14263(6)
O3 O 0.49532(9) 0.21937(6) 0.12773(5)
O4 O 0.62513(9) 0.25618(6) 0.24090(5)
O5 O 0.88620(9) 0.29019(6) 0.19005(5)
N1 N 0.61049(12) 0.08979(7) 0.03655(7)
C1 C 0.30907(15) 0.14864(9) -0.03579(9)
H1 H 0.2809 0.1699 0.0082
C2 C 0.24045(16) 0.15072(10) -0.10171(9)
H2 H 0.1669 0.1740 -0.1016
C3 C 0.28083(18) 0.11850(10) -0.16730(9)
H3 H 0.2332 0.1192 -0.2113
C4 C 0.39226(19) 0.08515(10) -0.16770(9)
H4 H 0.4198 0.0638 -0.2119
C5 C 0.46244(16) 0.08370(9) -0.10240(9)
H5 H 0.5382 0.0620 -0.1027
C6 C 0.42053(14) 0.11441(8) -0.03606(8)
C7 C 0.49547(13) 0.11066(8) 0.03233(8)
C8 C 0.45463(13) 0.13775(8) 0.10821(8)
C9 C 0.30129(13) 0.10895(8) 0.11660(8)
C10 C 0.23446(16) 0.15415(10) 0.16271(10)
H6 H 0.2831 0.2042 0.1885
C11 C 0.09413(17) 0.12438(11) 0.17030(12)
H7 H 0.0488 0.1547 0.2011
C12 C 0.02186(16) 0.05014(10) 0.13246(10)
H8 H -0.0718 0.0305 0.1379
C13 C 0.08828(15) 0.00490(9) 0.08650(9)
H9 H 0.0394 -0.0452 0.0610
C14 C 0.22805(14) 0.03412(9) 0.07839(8)
H10 H 0.2728 0.0036 0.0474
C15 C 0.65860(14) 0.10223(9) 0.11393(8)
H11 H 0.6862 0.0575 0.1199
C16 C 0.76428(13) 0.23941(9) 0.13992(8)
C17 C 0.78228(14) 0.25355(9) 0.06669(8)
C18 C 0.85113(15) 0.21029(10) 0.01879(9)
H12 H 0.8824 0.1719 0.0312
C19 C 0.87297(17) 0.22453(12) -0.04731(9)
H13 H 0.9181 0.1954 -0.0795
C20 C 0.82761(18) 0.28202(12) -0.06524(9)
H14 H 0.8408 0.2910 -0.1099
C21 C 0.76254(17) 0.32639(11) -0.01701(9)
H15 H 0.7339 0.3655 -0.0294
C22 C 0.73936(14) 0.31325(9) 0.04990(8)
C23 C 0.67958(14) 0.36368(9) 0.10476(8)
C24 C 0.66813(16) 0.43426(10) 0.09964(10)
H16 H 0.6936 0.4496 0.0592
C25 C 0.61951(18) 0.48168(10) 0.15382(10)
H17 H 0.6098 0.5278 0.1488
C26 C 0.58540(16) 0.46087(10) 0.21515(10)
H18 H 0.5558 0.4937 0.2522
C27 C 0.59516(14) 0.39110(9) 0.22164(9)
H19 H 0.5722 0.3771 0.2631
C28 C 0.63924(13) 0.34215(8) 0.16624(8)
C29 C 0.63110(13) 0.26201(9) 0.16864(8)
C30 C 0.75367(13) 0.27349(8) 0.28597(8)
C31 C 0.74522(13) 0.27179(8) 0.35939(8)
C32 C 0.61247(14) 0.25776(8) 0.38413(8)
H20 H 0.5290 0.2493 0.3521
C33 C 0.60585(15) 0.25653(9) 0.45488(8)
H21 H 0.5181 0.2472 0.4708
C34 C 0.73125(16) 0.26938(9) 0.50352(9)
H22 H 0.7264 0.2684 0.5516
C35 C 0.86158(15) 0.28348(9) 0.48034(8)
H23 H 0.9439 0.2922 0.5133
C36 C 0.87311(13) 0.28494(8) 0.40816(8)
C37 C 1.00917(13) 0.30034(8) 0.38188(8)
C38 C 1.14074(15) 0.31285(9) 0.42686(9)
H24 H 1.1416 0.3109 0.4749
C39 C 1.26722(15) 0.32783(10) 0.40047(9)
H25 H 1.3526 0.3359 0.4308
C40 C 1.26882(15) 0.33104(9) 0.32886(9)
H26 H 1.3552 0.3416 0.3119
C41 C 1.14342(14) 0.31863(9) 0.28289(8)
H27 H 1.1450 0.3203 0.2349
C42 C 1.01227(13) 0.30328(8) 0.30903(8)
C43 C 0.87995(13) 0.28902(8) 0.26184(8)
O6 O 1.08107(10) 0.85852(6) 0.40836(5)
O7 O 0.87781(10) 0.78060(6) 0.43381(5)
O8 O 0.93674(10) 0.83155(6) 0.29422(5)
O9 O 0.73468(9) 0.67398(6) 0.35477(6)
O10 O 0.98988(10) 0.72247(6) 0.30243(6)
N2 N 0.90890(12) 0.91231(7) 0.45645(7)
C44 C 0.90642(16) 1.02130(9) 0.32311(9)
H28 H 0.9801 1.0100 0.2988
C45 C 0.83722(17) 1.07176(10) 0.30542(10)
H29 H 0.8654 1.0946 0.2697
C46 C 0.72670(17) 1.08823(10) 0.34072(11)
H30 H 0.6796 1.1214 0.3282
C47 C 0.68628(17) 1.05549(10) 0.39448(10)
H31 H 0.6122 1.0669 0.4184
C48 C 0.75487(16) 1.00576(10) 0.41316(9)
H32 H 0.7273 0.9842 0.4499
C49 C 0.86556(14) 0.98757(8) 0.37723(8)
C50 C 0.93279(13) 0.93333(8) 0.39944(8)
C51 C 1.02763(13) 0.88953(8) 0.35639(8)
C52 C 1.14663(14) 0.93637(9) 0.32878(8)
C53 C 1.16997(15) 0.91323(10) 0.25722(9)
H33 H 1.1172 0.8662 0.2259
C54 C 1.27298(16) 0.96086(12) 0.23234(10)
H34 H 1.2896 0.9451 0.1844
C55 C 1.35018(17) 1.03073(12) 0.27785(11)
H35 H 1.4172 1.0627 0.2604
C56 C 1.32814(17) 1.05347(11) 0.34948(11)
H36 H 1.3815 1.1005 0.3806
C57 C 1.22654(15) 1.00633(9) 0.37542(9)
H37 H 1.2122 1.0217 0.4239
C58 C 0.97849(14) 0.85284(9) 0.45602(8)
H38 H 1.0278 0.8617 0.5057
C59 C 0.79181(13) 0.75233(8) 0.36271(8)
C60 C 0.66310(13) 0.78266(8) 0.35606(8)
C61 C 0.61267(15) 0.81661(9) 0.41814(9)
H39 H 0.6591 0.8218 0.4645
C62 C 0.49263(16) 0.84291(10) 0.41104(10)
H40 H 0.4585 0.8655 0.4526
C63 C 0.42443(16) 0.83524(10) 0.34194(10)
H41 H 0.3460 0.8542 0.3371
C64 C 0.47173(15) 0.79971(10) 0.28023(10)
H42 H 0.4245 0.7948 0.2341
C65 C 0.59006(14) 0.77074(9) 0.28571(8)
C66 C 0.63690(15) 0.72771(9) 0.22051(9)
C67 C 0.54785(17) 0.69370(10) 0.15244(9)
H43 H 0.4543 0.6969 0.1478
C68 C 0.59619(19) 0.65557(11) 0.09219(10)
H44 H 0.5357 0.6343 0.0473
C69 C 0.7337(2) 0.64873(10) 0.09803(10)
H45 H 0.7660 0.6229 0.0573
C70 C 0.82381(17) 0.68083(9) 0.16558(9)
H46 H 0.9165 0.6764 0.1699
C71 C 0.77591(14) 0.71915(8) 0.22593(8)
C72 C 0.87673(13) 0.75754(8) 0.29847(8)
C73 C 0.95988(14) 0.65850(8) 0.32566(8)
C74 C 1.06801(14) 0.61879(8) 0.32476(8)
C75 C 1.19512(15) 0.64340(9) 0.29796(9)
H47 H 1.2080 0.6846 0.2792
C76 C 1.30009(16) 0.60645(10) 0.29957(10)
H48 H 1.3843 0.6231 0.2825
C77 C 1.27967(17) 0.54387(10) 0.32701(11)
H49 H 1.3503 0.5187 0.3275
C78 C 1.15644(16) 0.51917(10) 0.35318(10)
H50 H 1.1450 0.4775 0.3713
C79 C 1.04694(14) 0.55589(9) 0.35312(8)
C80 C 0.91664(14) 0.53201(8) 0.38219(8)
C81 C 0.89214(16) 0.47315(9) 0.41510(9)
H51 H 0.9606 0.4470 0.4179
C82 C 0.76877(17) 0.45317(9) 0.44332(9)
H52 H 0.7555 0.4144 0.4654
C83 C 0.66380(17) 0.49102(9) 0.43880(9)
H53 H 0.5797 0.4765 0.4568
C84 C 0.68417(15) 0.54977(9) 0.40783(8)
H54 H 0.6144 0.5752 0.4054
C85 C 0.81126(14) 0.57135(8) 0.37981(8)
C86 C 0.83781(13) 0.63486(8) 0.35134(8)
O11 O 0.2479(2) 0.50320(13) 0.05636(12)
C87 C 0.1679(3) 0.47497(16) 0.09181(13)
C88 C 0.0482(3) 0.5060(2) 0.11612(19)
H55 H 0.0782 0.5605 0.1290
H56 H 0.0211 0.4908 0.1580
H57 H -0.0317 0.4868 0.0770
C89 C 0.1884(4) 0.40725(19) 0.11175(17)
H58 H 0.2650 0.3920 0.0897
H59 H 0.1024 0.3664 0.0943
H60 H 0.2112 0.4196 0.1641
loop_
_geom_bond_atom_site_label_1
_geom_bond_atom_site_label_2
_geom_bond_site_symmetry_1
_geom_bond_site_symmetry_2
O1 C8 1_555 1_555
O2 C15 1_555 1_555
O3 C8 1_555 1_555
O4 C29 1_555 1_555
O5 C16 1_555 1_555
N1 C7 1_555 1_555
C1 H1 1_555 1_555
C2 C1 1_555 1_555
H2 C2 1_555 1_555
C3 C2 1_555 1_555
H3 C3 1_555 1_555
C4 C3 1_555 1_555
H4 C4 1_555 1_555
C5 C4 1_555 1_555
H5 C5 1_555 1_555
C6 C1 1_555 1_555
C7 C6 1_555 1_555
C8 C7 1_555 1_555
C9 C8 1_555 1_555
C10 C9 1_555 1_555
H6 C10 1_555 1_555
C11 C10 1_555 1_555
H7 C11 1_555 1_555
C12 C11 1_555 1_555
H8 C12 1_555 1_555
C13 C12 1_555 1_555
H9 C13 1_555 1_555
C14 C9 1_555 1_555
H10 C14 1_555 1_555
C15 O1 1_555 1_555
H11 C15 1_555 1_555
C16 O2 1_555 1_555
C17 C16 1_555 1_555
C18 C17 1_555 1_555
H12 C18 1_555 1_555
C19 C18 1_555 1_555
H13 C19 1_555 1_555
C20 C19 1_555 1_555
H14 C20 1_555 1_555
C21 C20 1_555 1_555
H15 C21 1_555 1_555
C22 C17 1_555 1_555
C23 C22 1_555 1_555
C24 C23 1_555 1_555
H16 C24 1_555 1_555
C25 C24 1_555 1_555
H17 C25 1_555 1_555
C26 C25 1_555 1_555
H18 C26 1_555 1_555
C27 C26 1_555 1_555
H19 C27 1_555 1_555
C28 C23 1_555 1_555
C29 O3 1_555 1_555
C30 O4 1_555 1_555
C31 C30 1_555 1_555
C32 C31 1_555 1_555
H20 C32 1_555 1_555
C33 C32 1_555 1_555
H21 C33 1_555 1_555
C34 C33 1_555 1_555
H22 C34 1_555 1_555
C35 C34 1_555 1_555
H23 C35 1_555 1_555
C36 C31 1_555 1_555
C37 C36 1_555 1_555
C38 C37 1_555 1_555
H24 C38 1_555 1_555
C39 C38 1_555 1_555
H25 C39 1_555 1_555
C40 C39 1_555 1_555
H26 C40 1_555 1_555
C41 C40 1_555 1_555
H27 C41 1_555 1_555
C42 C37 1_555 1_555
C43 O5 1_555 1_555
O6 C51 1_555 1_555
O7 C58 1_555 1_555
O8 C51 1_555 1_555
O9 C59 1_555 1_555
O10 C72 1_555 1_555
N2 C50 1_555 1_555
C44 H28 1_555 1_555
C45 C44 1_555 1_555
H29 C45 1_555 1_555
C46 C45 1_555 1_555
H30 C46 1_555 1_555
C47 C46 1_555 1_555
H31 C47 1_555 1_555
C48 C47 1_555 1_555
H32 C48 1_555 1_555
C49 C44 1_555 1_555
C50 C49 1_555 1_555
C51 C50 1_555 1_555
C52 C51 1_555 1_555
C53 C52 1_555 1_555
H33 C53 1_555 1_555
C54 C53 1_555 1_555
H34 C54 1_555 1_555
C55 C54 1_555 1_555
H35 C55 1_555 1_555
C56 C55 1_555 1_555
H36 C56 1_555 1_555
C57 C52 1_555 1_555
H37 C57 1_555 1_555
C58 O6 1_555 1_555
H38 C58 1_555 1_555
C59 O7 1_555 1_555
C60 C59 1_555 1_555
C61 C60 1_555 1_555
H39 C61 1_555 1_555
C62 C61 1_555 1_555
H40 C62 1_555 1_555
C63 C62 1_555 1_555
H41 C63 1_555 1_555
C64 C63 1_555 1_555
H42 C64 1_555 1_555
C65 C60 1_555 1_555
C66 C65 1_555 1_555
C67 C66 1_555 1_555
H43 C67 1_555 1_555
C68 C67 1_555 1_555
H44 C68 1_555 1_555
C69 C68 1_555 1_555
H45 C69 1_555 1_555
C70 C69 1_555 1_555
H46 C70 1_555 1_555
C71 C66 1_555 1_555
C72 O8 1_555 1_555
C73 O10 1_555 1_555
C74 C73 1_555 1_555
C75 C74 1_555 1_555
H47 C75 1_555 1_555
C76 C75 1_555 1_555
H48 C76 1_555 1_555
C77 C76 1_555 1_555
H49 C77 1_555 1_555
C78 C77 1_555 1_555
H50 C78 1_555 1_555
C79 C74 1_555 1_555
C80 C79 1_555 1_555
C81 C80 1_555 1_555
H51 C81 1_555 1_555
C82 C81 1_555 1_555
H52 C82 1_555 1_555
C83 C82 1_555 1_555
H53 C83 1_555 1_555
C84 C83 1_555 1_555
H54 C84 1_555 1_555
C85 C80 1_555 1_555
C86 O9 1_555 1_555
O11 C87 1_555 1_555
C87 C88 1_555 1_555
C88 H55 1_555 1_555
H56 C88 1_555 1_555
H57 C88 1_555 1_555
C89 C87 1_555 1_555
H58 C89 1_555 1_555
H59 C89 1_555 1_555
H60 C89 1_555 1_555
N1 C15 1_555 1_555
C5 C6 1_555 1_555
C13 C14 1_555 1_555
C16 C29 1_555 1_555
C21 C22 1_555 1_555
C27 C28 1_555 1_555
C28 C29 1_555 1_555
C30 C43 1_555 1_555
C35 C36 1_555 1_555
C41 C42 1_555 1_555
C42 C43 1_555 1_555
N2 C58 1_555 1_555
C48 C49 1_555 1_555
C56 C57 1_555 1_555
C59 C72 1_555 1_555
C64 C65 1_555 1_555
C70 C71 1_555 1_555
C71 C72 1_555 1_555
C73 C86 1_555 1_555
C78 C79 1_555 1_555
C84 C85 1_555 1_555
C85 C86 1_555 1_555

#END
