
#######################################################################
#
#                 Cambridge Crystallographic Data Centre
#                                CCDC 
#
#######################################################################
#
# If this CIF has been generated from an entry in the Cambridge 
# Structural Database, then it will include bibliographic, chemical, 
# crystal, experimental, refinement or atomic coordinate data resulting 
# from the CCDC's data processing and validation procedures.
#
#######################################################################

data_UMUSEB
_chemical_formula_moiety         'C25 H16 Cl1 N1 O2'
_chemical_name_systematic        
4-Chloro-6-(phenylethynyl)-8,13-dihydro-1H-quinolino-[8,1-cd][2,5]benzoxazocin-1-one
_symmetry_cell_setting           triclinic
_symmetry_space_group_name_H-M   'P -1'
_symmetry_Int_Tables_number      2
_space_group_name_Hall           '-P 1'
loop_
_symmetry_equiv_pos_site_id
_symmetry_equiv_pos_as_xyz
1 x,y,z
2 -x,-y,-z
_cell_length_a                   9.1980(7)
_cell_length_b                   10.0460(8)
_cell_length_c                   10.9903(9)
_cell_angle_alpha                70.913(3)
_cell_angle_beta                 87.778(3)
_cell_angle_gamma                79.707(2)
_cell_volume                     944.051
_exptl_crystal_colour            yellow
_exptl_crystal_description       rectangular
_chemical_melting_point          202-204deg.C
_cell_formula_units_Z            2
loop_
_atom_site_label
_atom_site_type_symbol
_atom_site_fract_x
_atom_site_fract_y
_atom_site_fract_z
Cl1 Cl 0.19432(11) 0.26489(8) 0.89065(9)
O1 O -0.1599(3) 0.9213(3) 0.6827(3)
O2 O 0.19757(19) 0.76426(19) 1.05090(16)
N1 N 0.0244(2) 0.7981(2) 0.8292(2)
C1 C 0.8045(4) 0.3634(6) 1.5420(4)
H1 H 0.8748 0.3361 1.6082
C2 C 0.7607(4) 0.2619(4) 1.5010(3)
H2 H 0.8014 0.1659 1.5392
C3 C 0.6569(3) 0.3012(3) 1.4041(3)
H3 H 0.6280 0.2323 1.3753
C4 C 0.5949(3) 0.4443(3) 1.3488(3)
C5 C 0.6398(4) 0.5451(4) 1.3913(3)
H4 H 0.5979 0.6411 1.3554
C6 C 0.7459(5) 0.5043(5) 1.4864(4)
H5 H 0.7781 0.5730 1.5133
C7 C 0.4860(3) 0.4824(3) 1.2488(3)
C8 C 0.3975(3) 0.5109(3) 1.1645(3)
C9 C 0.3001(3) 0.5280(3) 1.0590(3)
C10 C 0.2963(3) 0.4087(3) 1.0229(3)
H6 H 0.3591 0.3229 1.0630
C11 C 0.2007(3) 0.4182(3) 0.9290(3)
C12 C 0.1078(3) 0.5468(3) 0.8634(2)
C13 C 0.1135(3) 0.6692(3) 0.8962(2)
C14 C 0.2082(3) 0.6560(3) 0.9990(2)
C15 C 0.0037(4) 0.5571(4) 0.7670(3)
H7 H -0.0015 0.4771 0.7435
C16 C -0.0861(4) 0.6792(4) 0.7102(3)
H8 H -0.1560 0.6814 0.6504
C17 C -0.0797(3) 0.8072(4) 0.7374(3)
C18 C 0.0466(3) 0.9360(3) 0.8394(3)
H9 H 0.0359 0.9333 0.9283
H10 H -0.0285 1.0121 0.7879
C19 C 0.3102(3) 0.8515(3) 1.0173(3)
H11 H 0.4050 0.7918 1.0491
H12 H 0.2911 0.9231 1.0602
C20 C 0.3196(3) 0.9253(3) 0.8754(3)
C21 C 0.4544(3) 0.9574(3) 0.8252(3)
H13 H 0.5372 0.9305 0.8795
C22 C 0.4674(4) 1.0286(3) 0.6963(4)
H14 H 0.5586 1.0497 0.6642
C23 C 0.3473(4) 1.0683(3) 0.6152(3)
H15 H 0.3563 1.1154 0.5278
C24 C 0.2139(3) 1.0380(3) 0.6638(3)
H16 H 0.1320 1.0655 0.6085
C25 C 0.1971(3) 0.9669(3) 0.7941(3)
loop_
_geom_bond_atom_site_label_1
_geom_bond_atom_site_label_2
_geom_bond_site_symmetry_1
_geom_bond_site_symmetry_2
Cl1 C11 1_555 1_555
O1 C17 1_555 1_555
O2 C14 1_555 1_555
N1 C13 1_555 1_555
C1 H1 1_555 1_555
C2 C1 1_555 1_555
H2 C2 1_555 1_555
C3 C2 1_555 1_555
H3 C3 1_555 1_555
C4 C3 1_555 1_555
C5 C4 1_555 1_555
H4 C5 1_555 1_555
C6 C1 1_555 1_555
H5 C6 1_555 1_555
C7 C4 1_555 1_555
C8 C7 1_555 1_555
C9 C8 1_555 1_555
C10 C9 1_555 1_555
H6 C10 1_555 1_555
C11 C10 1_555 1_555
C12 C11 1_555 1_555
C13 C12 1_555 1_555
C14 C9 1_555 1_555
C15 C12 1_555 1_555
H7 C15 1_555 1_555
C16 C15 1_555 1_555
H8 C16 1_555 1_555
C17 N1 1_555 1_555
C18 N1 1_555 1_555
H9 C18 1_555 1_555
H10 C18 1_555 1_555
C19 O2 1_555 1_555
H11 C19 1_555 1_555
H12 C19 1_555 1_555
C20 C19 1_555 1_555
C21 C20 1_555 1_555
H13 C21 1_555 1_555
C22 C21 1_555 1_555
H14 C22 1_555 1_555
C23 C22 1_555 1_555
H15 C23 1_555 1_555
C24 C23 1_555 1_555
H16 C24 1_555 1_555
C25 C18 1_555 1_555
C5 C6 1_555 1_555
C13 C14 1_555 1_555
C16 C17 1_555 1_555
C20 C25 1_555 1_555
C24 C25 1_555 1_555

#END
