
#######################################################################
#
#                 Cambridge Crystallographic Data Centre
#                                CCDC 
#
#######################################################################
#
# If this CIF has been generated from an entry in the Cambridge 
# Structural Database, then it will include bibliographic, chemical, 
# crystal, experimental, refinement or atomic coordinate data resulting 
# from the CCDC's data processing and validation procedures.
#
#######################################################################

data_UNAGEW
_chemical_formula_moiety         'C25 H31 Cl2 N1 O6 S2'
_chemical_name_systematic        
'Di-t-butyl 3-((2,6-dichlorophenyl)sulfanyl)-N-((4-methylphenyl)sulfonyl)aspartate'
_symmetry_cell_setting           triclinic
_symmetry_space_group_name_H-M   'P -1'
_symmetry_Int_Tables_number      2
_space_group_name_Hall           '-P 1'
loop_
_symmetry_equiv_pos_site_id
_symmetry_equiv_pos_as_xyz
1 x,y,z
2 -x,-y,-z
_cell_length_a                   9.3366(10)
_cell_length_b                   10.2792(11)
_cell_length_c                   16.2940(17)
_cell_angle_alpha                105.126(2)
_cell_angle_beta                 101.706(2)
_cell_angle_gamma                99.829(2)
_cell_volume                     1436.23
_exptl_crystal_colour            colorless
_exptl_crystal_description       block
_cell_formula_units_Z            2
loop_
_atom_site_label
_atom_site_type_symbol
_atom_site_fract_x
_atom_site_fract_y
_atom_site_fract_z
C1 C 0.3437(9) -0.0628(8) 0.2254(10)
H1 H 0.3651 -0.1300 0.1791
H2 H 0.2376 -0.0677 0.2121
H3 H 0.3746 -0.0819 0.2801
C2 C 0.3869(11) 0.1032(13) 0.1419(5)
H4 H 0.4401 0.1934 0.1445
H5 H 0.2805 0.0957 0.1246
H6 H 0.4135 0.0335 0.0997
C3 C 0.4160(11) 0.1977(11) 0.3055(5)
H7 H 0.4612 0.1871 0.3611
H8 H 0.3116 0.1963 0.3010
H9 H 0.4665 0.2844 0.3015
S1 S 0.86361(9) -0.02522(7) 0.16261(5)
S2 S 0.98223(8) 0.27286(7) 0.47425(4)
Cl1 Cl 1.00952(11) -0.14342(11) 0.31682(6)
Cl2 Cl 0.55171(13) -0.21435(12) 0.03181(7)
O1 O 1.0039(2) 0.2477(2) 0.16502(13)
O2 O 1.0326(3) 0.4431(2) 0.27497(16)
O3 O 0.5835(2) 0.0599(3) 0.24628(18)
O4 O 0.6879(3) 0.2479(3) 0.21477(19)
O5 O 0.8970(2) 0.1345(2) 0.45631(14)
O6 O 0.9521(3) 0.3840(2) 0.53697(14)
N1 N 0.9530(3) 0.3121(2) 0.38273(15)
H10 H 0.974(4) 0.396(4) 0.392(2)
C4 C 0.9759(3) 0.2242(3) 0.30213(18)
H11 H 1.0659 0.1896 0.3178
C5 C 1.0059(3) 0.3203(3) 0.24620(19)
C6 C 1.0207(4) 0.3198(3) 0.0979(2)
C7 C 1.0027(6) 0.1986(5) 0.0169(3)
H12 H 1.0784 0.1486 0.0286
H13 H 1.0135 0.2326 -0.0316
H14 H 0.9047 0.1380 0.0024
C8 C 0.8969(5) 0.3954(5) 0.0851(3)
H15 H 0.8026 0.3364 0.0811
H16 H 0.8911 0.4202 0.0318
H17 H 0.9182 0.4779 0.1341
C9 C 1.1766(5) 0.4135(5) 0.1250(3)
H18 H 1.1838 0.4924 0.1739
H19 H 1.1954 0.4441 0.0765
H20 H 1.2497 0.3635 0.1417
C10 C 0.8394(3) 0.0997(3) 0.25956(18)
H21 H 0.8300 0.0512 0.3033
C11 C 0.6954(3) 0.1466(3) 0.23723(19)
C12 C 0.4295(4) 0.0825(4) 0.2331(3)
C13 C 0.7748(3) -0.1818(3) 0.17658(19)
C14 C 0.8393(4) -0.2340(3) 0.2427(2)
C15 C 0.7710(5) -0.3587(4) 0.2516(3)
H22 H 0.8157 -0.3901 0.2968
C16 C 0.6372(6) -0.4353(4) 0.1934(3)
H23 H 0.5912 -0.5190 0.1990
C17 C 0.5709(5) -0.3897(4) 0.1271(3)
H24 H 0.4800 -0.4422 0.0877
C18 C 0.6395(4) -0.2648(3) 0.1187(2)
C19 C 1.1739(3) 0.2741(3) 0.50768(18)
C20 C 1.2152(4) 0.1538(3) 0.5139(2)
H25 H 1.1426 0.0712 0.4975
C21 C 1.3648(4) 0.1569(4) 0.5444(3)
H26 H 1.3920 0.0755 0.5487
C22 C 1.4762(4) 0.2783(4) 0.5688(2)
C23 C 1.4317(4) 0.3972(4) 0.5624(2)
H27 H 1.5044 0.4800 0.5790
C24 C 1.2825(4) 0.3971(3) 0.5320(2)
H28 H 1.2552 0.4786 0.5280
C25 C 1.6400(5) 0.2817(6) 0.6032(4)
H29 H 1.7018 0.3565 0.5920
H30 H 1.6604 0.1955 0.5740
H31 H 1.6622 0.2952 0.6654
C26? C 0.3444(11) -0.0182(13) 0.2702(10)
C27? C 0.3519(12) 0.0740(13) 0.1410(4)
C28? C 0.4498(14) 0.2321(8) 0.2953(7)
H32? H 0.3557 -0.1100 0.2446
H33? H 0.2396 -0.0175 0.2566
H34? H 0.3841 0.0092 0.3330
H35? H 0.4245 0.1098 0.1134
H36? H 0.2773 0.1277 0.1427
H37? H 0.3042 -0.0210 0.1079
H38? H 0.4972 0.2375 0.3546
H39? H 0.3530 0.2533 0.2930
H40? H 0.5115 0.2975 0.2767
loop_
_geom_bond_atom_site_label_1
_geom_bond_atom_site_label_2
_geom_bond_site_symmetry_1
_geom_bond_site_symmetry_2
C1 H1 1_555 1_555
H2 C1 1_555 1_555
H3 C1 1_555 1_555
C2 H4 1_555 1_555
H5 C2 1_555 1_555
H6 C2 1_555 1_555
C3 H7 1_555 1_555
H8 C3 1_555 1_555
H9 C3 1_555 1_555
S1 C10 1_555 1_555
S2 O5 1_555 1_555
Cl1 C14 1_555 1_555
Cl2 C18 1_555 1_555
O1 C5 1_555 1_555
O2 C5 1_555 1_555
O3 C11 1_555 1_555
O4 C11 1_555 1_555
O6 S2 1_555 1_555
N1 S2 1_555 1_555
H10 N1 1_555 1_555
C4 N1 1_555 1_555
H11 C4 1_555 1_555
C5 C4 1_555 1_555
C6 O1 1_555 1_555
C7 C6 1_555 1_555
H12 C7 1_555 1_555
H13 C7 1_555 1_555
H14 C7 1_555 1_555
C8 C6 1_555 1_555
H15 C8 1_555 1_555
H16 C8 1_555 1_555
H17 C8 1_555 1_555
C9 C6 1_555 1_555
H18 C9 1_555 1_555
H19 C9 1_555 1_555
H20 C9 1_555 1_555
C10 C4 1_555 1_555
H21 C10 1_555 1_555
C11 C10 1_555 1_555
C12 C1 1_555 1_555
C13 S1 1_555 1_555
C14 C13 1_555 1_555
C15 C14 1_555 1_555
H22 C15 1_555 1_555
C16 C15 1_555 1_555
H23 C16 1_555 1_555
C17 C16 1_555 1_555
H24 C17 1_555 1_555
C18 C13 1_555 1_555
C19 S2 1_555 1_555
C20 C19 1_555 1_555
H25 C20 1_555 1_555
C21 C20 1_555 1_555
H26 C21 1_555 1_555
C22 C21 1_555 1_555
C23 C22 1_555 1_555
H27 C23 1_555 1_555
C24 C19 1_555 1_555
H28 C24 1_555 1_555
C25 C22 1_555 1_555
H29 C25 1_555 1_555
H30 C25 1_555 1_555
H31 C25 1_555 1_555
C2 C12 1_555 1_555
C3 C12 1_555 1_555
O3 C12 1_555 1_555
C17 C18 1_555 1_555
C23 C24 1_555 1_555

#END
