
#######################################################################
#
#                 Cambridge Crystallographic Data Centre
#                                CCDC 
#
#######################################################################
#
# If this CIF has been generated from an entry in the Cambridge 
# Structural Database, then it will include bibliographic, chemical, 
# crystal, experimental, refinement or atomic coordinate data resulting 
# from the CCDC's data processing and validation procedures.
#
#######################################################################

data_UNAHUN
_chemical_formula_moiety         'C18 H13 Cl4 N1 O3'
_chemical_name_systematic        
3,5-bis(2,4-dichlorophenyl)-4-nitrocyclohexanone
_symmetry_cell_setting           monoclinic
_symmetry_space_group_name_H-M   'P 21'
_symmetry_Int_Tables_number      4
_space_group_name_Hall           'P 2yb'
loop_
_symmetry_equiv_pos_site_id
_symmetry_equiv_pos_as_xyz
1 x,y,z
2 -x,1/2+y,-z
_cell_length_a                   11.575(3)
_cell_length_b                   7.6295(19)
_cell_length_c                   21.699(6)
_cell_angle_alpha                90
_cell_angle_beta                 97.671(6)
_cell_angle_gamma                90
_cell_volume                     1899.12
_exptl_crystal_colour            colorless
_exptl_crystal_description       block
_cell_formula_units_Z            4
loop_
_atom_site_label
_atom_site_type_symbol
_atom_site_fract_x
_atom_site_fract_y
_atom_site_fract_z
Cl1 Cl 0.1647(8) 0.4148(17) 0.2275(4)
Cl2 Cl 0.4166(11) 0.432(2) 0.0386(6)
Cl3 Cl 0.2438(10) 0.0399(19) 0.4180(5)
Cl4 Cl -0.1376(9) 0.4068(19) 0.4373(4)
O1 O 0.588(3) 0.310(5) 0.3729(16)
O2 O 0.514(2) 0.133(4) 0.3097(13)
O3 O 0.466(2) 0.825(4) 0.4298(13)
N1 N 0.501(3) 0.247(5) 0.3438(17)
C1 C 0.397(3) 0.344(5) 0.3490(17)
C2 C 0.381(3) 0.521(5) 0.3132(16)
C3 C 0.477(3) 0.660(5) 0.3388(17)
C4 C 0.468(4) 0.674(7) 0.411(2)
C5 C 0.442(3) 0.519(6) 0.4483(19)
C6 C 0.382(2) 0.367(5) 0.4194(14)
C7 C 0.399(2) 0.482(4) 0.2453(14)
C8 C 0.302(2) 0.441(5) 0.2008(14)
C9 C 0.310(2) 0.430(5) 0.1371(15)
C10 C 0.406(3) 0.441(5) 0.1162(16)
C11 C 0.508(3) 0.480(6) 0.1558(19)
C12 C 0.500(3) 0.491(6) 0.219(2)
C13 C 0.255(2) 0.381(5) 0.4219(14)
C14 C 0.174(3) 0.243(5) 0.4205(17)
C15 C 0.048(3) 0.237(5) 0.4259(19)
C16 C 0.015(2) 0.399(5) 0.4317(13)
C17 C 0.082(2) 0.550(4) 0.4294(15)
C18 C 0.192(3) 0.547(5) 0.4235(17)
Cl5 Cl -0.1861(11) 0.280(2) 0.2218(6)
Cl6 Cl -0.2184(9) -0.1324(18) 0.4165(5)
Cl7 Cl 0.1799(9) -0.0788(19) 0.2593(4)
Cl8 Cl 0.5307(13) 0.023(2) 0.1225(7)
O4 O -0.110(2) 0.051(4) 0.0324(12)
O5 O 0.036(2) 0.207(4) 0.0817(13)
O6 O -0.185(2) -0.505(4) 0.0953(12)
N2 N -0.036(2) 0.098(4) 0.0736(14)
C19 C -0.0523(19) -0.013(3) 0.1354(9)
C20 C -0.179(3) -0.049(6) 0.1445(18)
C21 C -0.237(3) -0.192(5) 0.1007(16)
C22 C -0.152(4) -0.351(7) 0.096(2)
C23 C -0.020(2) -0.320(4) 0.0904(15)
C24 C 0.025(2) -0.173(3) 0.1384(11)
C25 C -0.190(2) -0.070(5) 0.2103(14)
C26 C -0.192(3) 0.062(6) 0.249(2)
C27 C -0.204(2) 0.051(4) 0.3126(14)
C28 C -0.207(2) -0.107(5) 0.3362(13)
C29 C -0.197(3) -0.270(5) 0.3030(19)
C30 C -0.172(3) -0.237(6) 0.240(2)
C31 C 0.154(3) -0.133(5) 0.1333(16)
C32 C 0.233(3) -0.078(6) 0.1870(17)
C33 C 0.349(3) -0.034(6) 0.182(2)
C34 C 0.379(4) -0.050(7) 0.127(2)
C35 C 0.311(3) -0.102(7) 0.0698(19)
C36 C 0.196(3) -0.140(6) 0.0759(18)
loop_
_geom_bond_atom_site_label_1
_geom_bond_atom_site_label_2
_geom_bond_site_symmetry_1
_geom_bond_site_symmetry_2
Cl1 C8 1_555 1_555
Cl2 C10 1_555 1_555
Cl3 C14 1_555 1_555
Cl4 C16 1_555 1_555
Cl5 C26 1_555 1_555
Cl6 C28 1_555 1_555
Cl7 C32 1_555 1_555
Cl8 C34 1_555 1_555
O1 N1 1_555 1_555
O2 N1 1_555 1_555
O3 C4 1_555 1_555
O4 N2 1_555 1_555
O5 N2 1_555 1_555
O6 C22 1_555 1_555
N1 C1 1_555 1_555
N2 C19 1_555 1_555
C1 C2 1_555 1_555
C2 C3 1_555 1_555
C3 C4 1_555 1_555
C4 C5 1_555 1_555
C5 C6 1_555 1_555
C6 C1 1_555 1_555
C7 C2 1_555 1_555
C8 C7 1_555 1_555
C9 C8 1_555 1_555
C10 C9 1_555 1_555
C11 C10 1_555 1_555
C12 C7 1_555 1_555
C13 C6 1_555 1_555
C14 C13 1_555 1_555
C15 C14 1_555 1_555
C16 C15 1_555 1_555
C17 C16 1_555 1_555
C18 C13 1_555 1_555
C19 C20 1_555 1_555
C20 C21 1_555 1_555
C21 C22 1_555 1_555
C22 C23 1_555 1_555
C23 C24 1_555 1_555
C24 C19 1_555 1_555
C25 C20 1_555 1_555
C26 C25 1_555 1_555
C27 C26 1_555 1_555
C28 C27 1_555 1_555
C29 C28 1_555 1_555
C30 C25 1_555 1_555
C31 C24 1_555 1_555
C32 C31 1_555 1_555
C33 C32 1_555 1_555
C34 C33 1_555 1_555
C35 C34 1_555 1_555
C36 C31 1_555 1_555
C11 C12 1_555 1_555
C17 C18 1_555 1_555
C29 C30 1_555 1_555
C35 C36 1_555 1_555

#END
