
#######################################################################
#
#                 Cambridge Crystallographic Data Centre
#                                CCDC 
#
#######################################################################
#
# If this CIF has been generated from an entry in the Cambridge 
# Structural Database, then it will include bibliographic, chemical, 
# crystal, experimental, refinement or atomic coordinate data resulting 
# from the CCDC's data processing and validation procedures.
#
#######################################################################

data_UNAJOK
_chemical_formula_moiety         'C12 H13 N1 O3'
_chemical_name_systematic        
'1-(4-methylphenyl)-5-oxopyrrolidine-3-carboxylic acid'
_symmetry_cell_setting           monoclinic
_symmetry_space_group_name_H-M   'P 21/n'
_symmetry_Int_Tables_number      14
_space_group_name_Hall           '-P 2yn'
loop_
_symmetry_equiv_pos_site_id
_symmetry_equiv_pos_as_xyz
1 x,y,z
2 1/2-x,1/2+y,1/2-z
3 -x,-y,-z
4 1/2+x,1/2-y,1/2+z
_cell_length_a                   6.5289(15)
_cell_length_b                   12.282(3)
_cell_length_c                   13.026(6)
_cell_angle_alpha                90
_cell_angle_beta                 90.00
_cell_angle_gamma                90
_cell_volume                     1044.53
_exptl_crystal_description       block
_cell_formula_units_Z            4
loop_
_atom_site_label
_atom_site_type_symbol
_atom_site_fract_x
_atom_site_fract_y
_atom_site_fract_z
N1 N 0.2180(5) 0.7090(2) 0.6363(3)
O1 O 0.1017(4) 0.8703(2) 0.7003(3)
O2 O -0.3194(6) 0.5145(2) 0.7624(3)
H1 H -0.4053 0.4678 0.7493
C1 C 0.3940(6) 0.7413(3) 0.5810(4)
C2 C 0.4703(7) 0.8455(3) 0.5862(4)
H2 H 0.4050 0.8975 0.6265
C3 C 0.4965(7) 0.6685(4) 0.5199(4)
H3 H 0.4465 0.5979 0.5138
C4 C 0.1523(6) 0.5958(3) 0.6342(4)
H4 H 0.2659 0.5469 0.6475
H5 H 0.0909 0.5773 0.5686
C5 C 0.7486(6) 0.7994(4) 0.4718(4)
C6 C 0.0867(6) 0.7718(3) 0.6890(4)
C7 C -0.0834(6) 0.7040(3) 0.7312(4)
H6 H -0.1097 0.7217 0.8026
H7 H -0.2083 0.7141 0.6920
C8 C 0.6423(7) 0.8724(4) 0.5321(4)
H8 H 0.6901 0.9436 0.5361
O3 O -0.1392(5) 0.4308(3) 0.6468(4)
C9 C -0.1663(7) 0.5043(4) 0.7008(5)
C10 C 0.6703(7) 0.6969(4) 0.4676(5)
H9 H 0.7367 0.6447 0.4281
C11 C 0.9372(7) 0.8319(4) 0.4146(5)
H10 H 1.0505 0.8364 0.4614
H11 H 0.9160 0.9016 0.3830
H12 H 0.9664 0.7787 0.3626
C12 C -0.0056(8) 0.5917(4) 0.7207(6)
H13 H 0.066(8) 0.573(4) 0.784(4)
loop_
_geom_bond_atom_site_label_1
_geom_bond_atom_site_label_2
_geom_bond_site_symmetry_1
_geom_bond_site_symmetry_2
N1 C1 1_555 1_555
O1 C6 1_555 1_555
O2 H1 1_555 1_555
C1 C2 1_555 1_555
C2 H2 1_555 1_555
C3 C1 1_555 1_555
H3 C3 1_555 1_555
C4 N1 1_555 1_555
H4 C4 1_555 1_555
H5 C4 1_555 1_555
C5 C8 1_555 1_555
C6 N1 1_555 1_555
C7 C6 1_555 1_555
H6 C7 1_555 1_555
H7 C7 1_555 1_555
C8 C2 1_555 1_555
H8 C8 1_555 1_555
O3 C9 1_555 1_555
C9 O2 1_555 1_555
C10 C3 1_555 1_555
H9 C10 1_555 1_555
C11 C5 1_555 1_555
H10 C11 1_555 1_555
H11 C11 1_555 1_555
H12 C11 1_555 1_555
C12 C4 1_555 1_555
H13 C12 1_555 1_555
C5 C10 1_555 1_555
C7 C12 1_555 1_555
C9 C12 1_555 1_555

#END
