
#######################################################################
#
#                 Cambridge Crystallographic Data Centre
#                                CCDC 
#
#######################################################################
#
# If this CIF has been generated from an entry in the Cambridge 
# Structural Database, then it will include bibliographic, chemical, 
# crystal, experimental, refinement or atomic coordinate data resulting 
# from the CCDC's data processing and validation procedures.
#
#######################################################################

data_UNAKAW
_chemical_formula_moiety         'C24 H21 Cl1 N2 O3'
_chemical_name_systematic        
'Ethyl 10-chloro-4-methyl-7-oxo-6-phenyl-1,2-dihydro-6H,7H-benzo[b]imidazo[1,2,3-ij][1,8]naphthyridine-5-carboxylate'
_symmetry_cell_setting           monoclinic
_symmetry_space_group_name_H-M   'P 21/n'
_symmetry_Int_Tables_number      14
_space_group_name_Hall           '-P 2yn'
loop_
_symmetry_equiv_pos_site_id
_symmetry_equiv_pos_as_xyz
1 x,y,z
2 1/2-x,1/2+y,1/2-z
3 -x,-y,-z
4 1/2+x,1/2-y,1/2+z
_cell_length_a                   15.082(7)
_cell_length_b                   9.455(4)
_cell_length_c                   28.430(13)
_cell_angle_alpha                90
_cell_angle_beta                 96.237(10)
_cell_angle_gamma                90
_cell_volume                     4030.13
_exptl_crystal_colour            brown
_exptl_crystal_description       prism
_cell_formula_units_Z            8
loop_
_atom_site_label
_atom_site_type_symbol
_atom_site_fract_x
_atom_site_fract_y
_atom_site_fract_z
Cl1 Cl -0.09930(9) 1.21624(13) 0.15269(4)
O1 O 0.07996(17) 0.7337(3) 0.01942(9)
O2 O 0.4443(2) 0.4179(4) 0.10772(13)
O3 O 0.3703(2) 0.4543(3) 0.03718(12)
C1 C 0.2160(3) 0.9321(5) 0.19494(13)
H1 H 0.1782 0.9200 0.2202
H2 H 0.2356 1.0297 0.1945
C2 C 0.2951(3) 0.8315(5) 0.20100(15)
H3 H 0.3503 0.8824 0.2096
H4 H 0.2876 0.7608 0.2250
C5 C -0.0367(3) 1.0921(4) 0.12547(16)
C6 C 0.0405(3) 1.0434(4) 0.14910(14)
H9 H 0.0599 1.0763 0.1793
C7 C 0.0897(3) 0.9439(4) 0.12732(14)
C8 C 0.0596(3) 0.8910(4) 0.08222(13)
C9 C -0.0186(3) 0.9467(4) 0.05974(14)
H10 H -0.0390 0.9142 0.0296
C10 C -0.0673(3) 1.0477(4) 0.08005(15)
H11 H -0.1190 1.0851 0.0640
N1 N 0.1688(2) 0.8915(3) 0.14922(11)
C11 C 0.2176(3) 0.8003(4) 0.12615(15)
C12 C 0.1945(2) 0.7466(4) 0.08240(14)
C13 C 0.1108(3) 0.7840(4) 0.05831(14)
N2 N 0.2942(2) 0.7666(4) 0.15394(11)
C14 C 0.3465(3) 0.6560(5) 0.14152(16)
C15 C 0.3323(3) 0.6006(4) 0.09748(16)
C16 C 0.2617(3) 0.6575(4) 0.05994(14)
H12 H 0.2303 0.5770 0.0441
C17 C 0.4145(3) 0.6070(5) 0.18059(17)
H13 H 0.4613 0.6758 0.1856
H14 H 0.4390 0.5181 0.1720
H15 H 0.3866 0.5956 0.2091
C18 C 0.3020(3) 0.7447(4) 0.02289(15)
C19 C 0.3569(3) 0.8561(5) 0.03655(17)
H16 H 0.3705 0.8750 0.0686
C20 C 0.3922(4) 0.9404(5) 0.0040(3)
H17 H 0.4295 1.0156 0.0137
C21 C 0.3717(5) 0.9120(8) -0.0430(3)
H18 H 0.3948 0.9686 -0.0655
C22 C 0.3181(4) 0.8024(9) -0.0571(2)
H19 H 0.3047 0.7833 -0.0892
C23 C 0.2831(3) 0.7184(6) -0.02401(18)
H20 H 0.2462 0.6430 -0.0340
C24 C 0.3883(3) 0.4841(5) 0.08357(19)
C25 C 0.4240(3) 0.3454(5) 0.0192(2)
H21 H 0.4131 0.2553 0.0339
H22 H 0.4868 0.3681 0.0258
C26 C 0.3983(4) 0.3381(5) -0.0325(2)
H23 H 0.3379 0.3052 -0.0386
H24 H 0.4373 0.2739 -0.0465
H25 H 0.4030 0.4304 -0.0461
Cl2 Cl -0.20695(8) 0.86717(13) 0.96986(4)
O4 O -0.18232(18) 0.4525(3) 0.78089(9)
O5 O 0.0407(2) 0.0450(3) 0.75021(11)
O6 O 0.1827(2) 0.1020(4) 0.76754(12)
C3 C 0.0618(3) 0.5048(4) 0.93827(13)
H5 H 0.0389 0.4715 0.9669
H6 H 0.0881 0.5976 0.9441
C4 C 0.1285(3) 0.4018(5) 0.92174(14)
H7 H 0.1867 0.4457 0.9218
H8 H 0.1342 0.3188 0.9419
C27 C -0.1809(3) 0.7545(4) 0.92526(15)
C28 C -0.1030(3) 0.6776(4) 0.93111(15)
H26 H -0.0634 0.6864 0.9584
C29 C -0.0852(3) 0.5862(4) 0.89497(14)
C30 C -0.1448(3) 0.5725(4) 0.85345(14)
C31 C -0.2213(3) 0.6551(5) 0.84936(16)
H27 H -0.2611 0.6487 0.8221
C32 C -0.2395(3) 0.7456(5) 0.88454(17)
H28 H -0.2909 0.8007 0.8811
N3 N -0.0083(2) 0.5081(3) 0.89863(11)
C33 C 0.0117(3) 0.4248(4) 0.86278(14)
C34 C -0.0424(3) 0.4034(4) 0.82187(13)
C35 C -0.1264(3) 0.4729(4) 0.81593(14)
N4 N 0.0924(2) 0.3645(3) 0.87415(11)
C36 C 0.1230(3) 0.2606(4) 0.84477(15)
C37 C 0.0751(3) 0.2327(4) 0.80323(15)
C38 C -0.0102(3) 0.3106(4) 0.78458(13)
H29 H -0.0564 0.2396 0.7758
C39 C 0.2071(3) 0.1891(4) 0.86471(14)
H30 H 0.2171 0.1073 0.8460
H31 H 0.2019 0.1608 0.8967
H32 H 0.2562 0.2534 0.8642
C40 C 0.0051(3) 0.3936(4) 0.74007(14)
C41 C -0.0217(3) 0.3424(5) 0.69536(15)
H33 H -0.0511 0.2560 0.6922
C42 C -0.0061(4) 0.4155(6) 0.65537(17)
H34 H -0.0246 0.3789 0.6255
C43 C 0.0371(4) 0.5430(6) 0.65992(18)
H35 H 0.0470 0.5944 0.6331
C44 C 0.0657(3) 0.5946(5) 0.70368(18)
H36 H 0.0971 0.6794 0.7067
C45 C 0.0482(3) 0.5221(5) 0.74318(15)
H37 H 0.0658 0.5604 0.7729
C46 C 0.0969(4) 0.1170(5) 0.77166(16)
C47 C 0.2043(4) -0.0078(7) 0.7344(2)
H38 H 0.1631 -0.0863 0.7353
H39 H 0.2642 -0.0427 0.7433
C48 C 0.1977(5) 0.0534(8) 0.6849(3)
H40 H 0.1382 0.0875 0.6762
H41 H 0.2114 -0.0187 0.6630
H42 H 0.2391 0.1301 0.6841
loop_
_geom_bond_atom_site_label_1
_geom_bond_atom_site_label_2
_geom_bond_site_symmetry_1
_geom_bond_site_symmetry_2
Cl1 C5 1_555 1_555
Cl2 C27 1_555 1_555
O1 C13 1_555 1_555
O2 C24 1_555 1_555
O3 C24 1_555 1_555
O4 C35 1_555 1_555
O5 C46 1_555 1_555
O6 C46 1_555 1_555
C1 H1 1_555 1_555
H2 C1 1_555 1_555
C2 C1 1_555 1_555
H3 C2 1_555 1_555
H4 C2 1_555 1_555
C3 H5 1_555 1_555
H6 C3 1_555 1_555
C4 C3 1_555 1_555
H7 C4 1_555 1_555
H8 C4 1_555 1_555
C5 C6 1_555 1_555
C6 H9 1_555 1_555
C7 C6 1_555 1_555
C8 C7 1_555 1_555
C9 C8 1_555 1_555
H10 C9 1_555 1_555
C10 C5 1_555 1_555
H11 C10 1_555 1_555
N1 C1 1_555 1_555
C11 N1 1_555 1_555
C12 C11 1_555 1_555
C13 C8 1_555 1_555
N2 C2 1_555 1_555
C14 N2 1_555 1_555
C15 C14 1_555 1_555
C16 C12 1_555 1_555
H12 C16 1_555 1_555
C17 C14 1_555 1_555
H13 C17 1_555 1_555
H14 C17 1_555 1_555
H15 C17 1_555 1_555
C18 C16 1_555 1_555
C19 C18 1_555 1_555
H16 C19 1_555 1_555
C20 C19 1_555 1_555
H17 C20 1_555 1_555
C21 C20 1_555 1_555
H18 C21 1_555 1_555
C22 C21 1_555 1_555
H19 C22 1_555 1_555
C23 C18 1_555 1_555
H20 C23 1_555 1_555
C24 C15 1_555 1_555
C25 O3 1_555 1_555
H21 C25 1_555 1_555
H22 C25 1_555 1_555
C26 C25 1_555 1_555
H23 C26 1_555 1_555
H24 C26 1_555 1_555
H25 C26 1_555 1_555
C27 C28 1_555 1_555
C28 H26 1_555 1_555
C29 C28 1_555 1_555
C30 C29 1_555 1_555
C31 C30 1_555 1_555
H27 C31 1_555 1_555
C32 C27 1_555 1_555
H28 C32 1_555 1_555
N3 C3 1_555 1_555
C33 N3 1_555 1_555
C34 C33 1_555 1_555
C35 C30 1_555 1_555
N4 C4 1_555 1_555
C36 N4 1_555 1_555
C37 C36 1_555 1_555
C38 C34 1_555 1_555
H29 C38 1_555 1_555
C39 C36 1_555 1_555
H30 C39 1_555 1_555
H31 C39 1_555 1_555
H32 C39 1_555 1_555
C40 C38 1_555 1_555
C41 C40 1_555 1_555
H33 C41 1_555 1_555
C42 C41 1_555 1_555
H34 C42 1_555 1_555
C43 C42 1_555 1_555
H35 C43 1_555 1_555
C44 C43 1_555 1_555
H36 C44 1_555 1_555
C45 C40 1_555 1_555
H37 C45 1_555 1_555
C46 C37 1_555 1_555
C47 O6 1_555 1_555
H38 C47 1_555 1_555
H39 C47 1_555 1_555
C48 C47 1_555 1_555
H40 C48 1_555 1_555
H41 C48 1_555 1_555
H42 C48 1_555 1_555
C7 N1 1_555 1_555
C9 C10 1_555 1_555
C11 N2 1_555 1_555
C12 C13 1_555 1_555
C15 C16 1_555 1_555
C22 C23 1_555 1_555
C29 N3 1_555 1_555
C31 C32 1_555 1_555
C33 N4 1_555 1_555
C34 C35 1_555 1_555
C37 C38 1_555 1_555
C44 C45 1_555 1_555

#END
