
#######################################################################
#
#                 Cambridge Crystallographic Data Centre
#                                CCDC 
#
#######################################################################
#
# If this CIF has been generated from an entry in the Cambridge 
# Structural Database, then it will include bibliographic, chemical, 
# crystal, experimental, refinement or atomic coordinate data resulting 
# from the CCDC's data processing and validation procedures.
#
#######################################################################

data_UNALAX
_chemical_formula_moiety         'C17 H20 N2 O2'
_chemical_name_systematic        
'Methyl 6-(2-methylprop-1-en-1-yl)-3,4,5,6-tetrahydro-1H-azepino[5,4,3-cd]indole-4-carboxylate'
_symmetry_cell_setting           orthorhombic
_symmetry_space_group_name_H-M   'P 21 21 21'
_symmetry_Int_Tables_number      19
_space_group_name_Hall           'P 2ac 2ab'
loop_
_symmetry_equiv_pos_site_id
_symmetry_equiv_pos_as_xyz
1 x,y,z
2 1/2-x,-y,1/2+z
3 -x,1/2+y,1/2-z
4 1/2+x,1/2-y,-z
_cell_length_a                   9.0258(18)
_cell_length_b                   9.687(2)
_cell_length_c                   17.717(5)
_cell_angle_alpha                90
_cell_angle_beta                 90
_cell_angle_gamma                90
_cell_volume                     1549.05
_exptl_crystal_colour            yellow
_exptl_crystal_description       prism
_cell_formula_units_Z            4
loop_
_atom_site_label
_atom_site_type_symbol
_atom_site_fract_x
_atom_site_fract_y
_atom_site_fract_z
O1 O -0.1343(2) 0.6628(2) 0.80049(13)
O2 O -0.0146(3) 0.4711(2) 0.8197(2)
N1 N 0.1721(2) 0.53848(19) 0.69969(11)
H1 H 0.1108 0.4655 0.6965
N2 N 0.5641(2) 0.8859(2) 0.74332(13)
H2 H 0.6375 0.9396 0.7531
C1 C 0.0998(3) 0.6472(3) 0.74480(15)
H3 H 0.0562 0.7163 0.7111
C2 C 0.2131(3) 0.7162(3) 0.79630(15)
H4 H 0.1650 0.7917 0.8227
H5 H 0.2450 0.6498 0.8339
C3 C 0.3475(3) 0.7714(2) 0.75643(15)
C4 C 0.4115(3) 0.7345(2) 0.68460(13)
C5 C 0.3665(3) 0.6507(3) 0.62295(14)
C6 C 0.2148(3) 0.5832(3) 0.62200(13)
H6 H 0.1428 0.6525 0.6053
C7 C 0.2033(3) 0.4616(3) 0.56991(14)
H7 H 0.2882 0.4090 0.5621
C8 C 0.0806(3) 0.4235(3) 0.53406(15)
C9 C -0.0639(3) 0.4993(3) 0.53737(18)
H8 H -0.0583 0.5705 0.5749
H9 H -0.1417 0.4359 0.5503
H10 H -0.0844 0.5399 0.4890
C10 C 0.0781(4) 0.2952(3) 0.48474(18)
H11 H 0.1741 0.2525 0.4853
H12 H 0.0530 0.3206 0.4339
H13 H 0.0057 0.2316 0.5038
C11 C 0.4614(3) 0.6415(3) 0.56172(15)
H14 H 0.4336 0.5884 0.5203
C12 C 0.5992(3) 0.7104(3) 0.56035(16)
H15 H 0.6613 0.6983 0.5190
C13 C 0.6437(3) 0.7942(3) 0.61787(16)
H16 H 0.7337 0.8408 0.6162
C14 C 0.5479(3) 0.8068(3) 0.67936(15)
C15 C 0.4436(3) 0.8649(3) 0.78887(16)
H17 H 0.4287 0.9076 0.8352
C16 C -0.0197(3) 0.5837(3) 0.79252(18)
C17 C -0.2584(3) 0.6076(4) 0.8438(2)
H18 H -0.3333 0.6772 0.8490
H19 H -0.2244 0.5800 0.8929
H20 H -0.2990 0.5291 0.8180
loop_
_geom_bond_atom_site_label_1
_geom_bond_atom_site_label_2
_geom_bond_site_symmetry_1
_geom_bond_site_symmetry_2
O1 C16 1_555 1_555
O2 C16 1_555 1_555
N1 H1 1_555 1_555
N2 H2 1_555 1_555
C1 N1 1_555 1_555
H3 C1 1_555 1_555
C2 C1 1_555 1_555
H4 C2 1_555 1_555
H5 C2 1_555 1_555
C3 C2 1_555 1_555
C4 C3 1_555 1_555
C5 C4 1_555 1_555
C6 N1 1_555 1_555
H6 C6 1_555 1_555
C7 C6 1_555 1_555
H7 C7 1_555 1_555
C8 C7 1_555 1_555
C9 C8 1_555 1_555
H8 C9 1_555 1_555
H9 C9 1_555 1_555
H10 C9 1_555 1_555
C10 C8 1_555 1_555
H11 C10 1_555 1_555
H12 C10 1_555 1_555
H13 C10 1_555 1_555
C11 C5 1_555 1_555
H14 C11 1_555 1_555
C12 C11 1_555 1_555
H15 C12 1_555 1_555
C13 C12 1_555 1_555
H16 C13 1_555 1_555
C14 N2 1_555 1_555
C15 N2 1_555 1_555
H17 C15 1_555 1_555
C16 C1 1_555 1_555
C17 O1 1_555 1_555
H18 C17 1_555 1_555
H19 C17 1_555 1_555
H20 C17 1_555 1_555
C3 C15 1_555 1_555
C4 C14 1_555 1_555
C5 C6 1_555 1_555
C13 C14 1_555 1_555

#END
