
#######################################################################
#
#                 Cambridge Crystallographic Data Centre
#                                CCDC 
#
#######################################################################
#
# If this CIF has been generated from an entry in the Cambridge 
# Structural Database, then it will include bibliographic, chemical, 
# crystal, experimental, refinement or atomic coordinate data resulting 
# from the CCDC's data processing and validation procedures.
#
#######################################################################

data_UNASEI
_chemical_formula_moiety         'C42 H28'
_chemical_name_systematic        1-(4-(Triphenylvinyl)phenyl)pyrene
_symmetry_cell_setting           monoclinic
_symmetry_space_group_name_H-M   'I 2/a'
_symmetry_Int_Tables_number      15
_space_group_name_Hall           '-I 2ya'
loop_
_symmetry_equiv_pos_site_id
_symmetry_equiv_pos_as_xyz
1 x,y,z
2 1/2-x,y,-z
3 1/2+x,1/2+y,1/2+z
4 -x,1/2+y,1/2-z
5 -x,-y,-z
6 1/2+x,-y,z
7 1/2-x,1/2-y,1/2-z
8 x,1/2-y,1/2+z
_cell_length_a                   16.7865(17)
_cell_length_b                   9.2933(6)
_cell_length_c                   36.414(5)
_cell_angle_alpha                90
_cell_angle_beta                 91.020(12)
_cell_angle_gamma                90
_cell_volume                     5679.76
_exptl_crystal_colour            colorless
_exptl_crystal_description       plate
_cell_formula_units_Z            8
loop_
_atom_site_label
_atom_site_type_symbol
_atom_site_fract_x
_atom_site_fract_y
_atom_site_fract_z
C1 C 0.55485(17) 0.1310(3) 0.16920(9)
C2 C 0.53633(18) 0.0098(3) 0.19070(9)
H1 H 0.5119 -0.0714 0.1793
C3 C 0.55265(18) 0.0066(3) 0.22729(9)
H2 H 0.5391 -0.0773 0.2407
C4 C 0.58871(17) 0.1216(3) 0.24620(9)
C5 C 0.61072(17) 0.2397(3) 0.22415(9)
H3 H 0.6373 0.3189 0.2354
C6 C 0.59513(17) 0.2436(3) 0.18758(9)
H4 H 0.6119 0.3248 0.1739
C7 C 0.52820(19) 0.1440(3) 0.13106(8)
C8 C 0.59144(18) 0.1578(3) 0.10264(9)
C9 C 0.65399(19) 0.0586(3) 0.10176(10)
H5 H 0.6570 -0.0161 0.1195
C10 C 0.7113(2) 0.0688(4) 0.07519(10)
H6 H 0.7527 -0.0008 0.0744
C11 C 0.7092(2) 0.1783(4) 0.04986(10)
H7 H 0.7487 0.1841 0.0316
C12 C 0.6490(2) 0.2803(4) 0.05110(10)
H8 H 0.6480 0.3574 0.0340
C13 C 0.59079(19) 0.2696(3) 0.07715(9)
H9 H 0.5496 0.3396 0.0777
C14 C 0.4500(2) 0.1401(3) 0.12142(9)
C15 C 0.42052(18) 0.1338(3) 0.08326(9)
C16 C 0.43946(19) 0.0208(3) 0.05967(9)
H10 H 0.4735 -0.0539 0.0684
C17 C 0.4103(2) 0.0148(4) 0.02443(10)
H11 H 0.4233 -0.0647 0.0093
C18 C 0.3621(2) 0.1235(4) 0.01067(10)
H12 H 0.3419 0.1200 -0.0139
C19 C 0.3438(2) 0.2375(4) 0.03343(10)
H13 H 0.3122 0.3144 0.0241
C20 C 0.37022(19) 0.2417(3) 0.06885(9)
H14 H 0.3544 0.3189 0.0842
C21 C 0.38852(18) 0.1334(3) 0.15059(9)
C22 C 0.33536(18) 0.0191(3) 0.15200(9)
H15 H 0.3364 -0.0527 0.1334
C23 C 0.28096(19) 0.0077(4) 0.17992(9)
H16 H 0.2462 -0.0728 0.1808
C24 C 0.27693(19) 0.1129(4) 0.20656(9)
H17 H 0.2398 0.1054 0.2259
C25 C 0.32826(18) 0.2300(3) 0.20463(9)
H18 H 0.3257 0.3038 0.2226
C26 C 0.38280(18) 0.2401(3) 0.17692(9)
H19 H 0.4170 0.3214 0.1759
C27 C 0.60031(18) 0.1220(3) 0.28584(9)
C28 C 0.53445(18) 0.1245(3) 0.31003(9)
C29 C 0.45379(18) 0.1290(3) 0.29643(9)
H20 H 0.4435 0.1252 0.2707
C30 C 0.39215(19) 0.1385(3) 0.31983(10)
H21 H 0.3393 0.1424 0.3101
C31 C 0.4041(2) 0.1428(3) 0.35800(10)
C32 C 0.4829(2) 0.1370(3) 0.37311(10)
C33 C 0.5486(2) 0.1277(3) 0.34800(9)
C34 C 0.6280(2) 0.1246(3) 0.36312(10)
C35 C 0.6914(2) 0.1225(4) 0.33866(10)
H22 H 0.7446 0.1215 0.3479
C36 C 0.67722(19) 0.1220(3) 0.30153(10)
H23 H 0.7215 0.1217 0.2857
C37 C 0.3415(2) 0.1563(3) 0.38330(12)
H24 H 0.2881 0.1604 0.3743
C38 C 0.3558(3) 0.1634(4) 0.41993(13)
H25 H 0.3122 0.1734 0.4360
C39 C 0.4328(3) 0.1566(4) 0.43469(12)
H26 H 0.4414 0.1612 0.4605
C40 C 0.4977(3) 0.1428(4) 0.41113(11)
C41 C 0.5780(3) 0.1373(4) 0.42500(11)
H27 H 0.5880 0.1396 0.4507
C42 C 0.6395(2) 0.1288(4) 0.40162(11)
H28 H 0.6923 0.1256 0.4114
loop_
_geom_bond_atom_site_label_1
_geom_bond_atom_site_label_2
_geom_bond_site_symmetry_1
_geom_bond_site_symmetry_2
C1 C2 1_555 1_555
C2 H1 1_555 1_555
C3 C2 1_555 1_555
H2 C3 1_555 1_555
C4 C3 1_555 1_555
C5 C4 1_555 1_555
H3 C5 1_555 1_555
C6 C1 1_555 1_555
H4 C6 1_555 1_555
C7 C1 1_555 1_555
C8 C7 1_555 1_555
C9 C8 1_555 1_555
H5 C9 1_555 1_555
C10 C9 1_555 1_555
H6 C10 1_555 1_555
C11 C10 1_555 1_555
H7 C11 1_555 1_555
C12 C11 1_555 1_555
H8 C12 1_555 1_555
C13 C8 1_555 1_555
H9 C13 1_555 1_555
C14 C7 1_555 1_555
C15 C14 1_555 1_555
C16 C15 1_555 1_555
H10 C16 1_555 1_555
C17 C16 1_555 1_555
H11 C17 1_555 1_555
C18 C17 1_555 1_555
H12 C18 1_555 1_555
C19 C18 1_555 1_555
H13 C19 1_555 1_555
C20 C15 1_555 1_555
H14 C20 1_555 1_555
C21 C14 1_555 1_555
C22 C21 1_555 1_555
H15 C22 1_555 1_555
C23 C22 1_555 1_555
H16 C23 1_555 1_555
C24 C23 1_555 1_555
H17 C24 1_555 1_555
C25 C24 1_555 1_555
H18 C25 1_555 1_555
C26 C21 1_555 1_555
H19 C26 1_555 1_555
C27 C4 1_555 1_555
C28 C27 1_555 1_555
C29 C28 1_555 1_555
H20 C29 1_555 1_555
C30 C29 1_555 1_555
H21 C30 1_555 1_555
C31 C30 1_555 1_555
C32 C31 1_555 1_555
C33 C28 1_555 1_555
C34 C33 1_555 1_555
C35 C34 1_555 1_555
H22 C35 1_555 1_555
C36 C27 1_555 1_555
H23 C36 1_555 1_555
C37 C31 1_555 1_555
H24 C37 1_555 1_555
C38 C37 1_555 1_555
H25 C38 1_555 1_555
C39 C38 1_555 1_555
H26 C39 1_555 1_555
C40 C32 1_555 1_555
C41 C40 1_555 1_555
H27 C41 1_555 1_555
C42 C34 1_555 1_555
H28 C42 1_555 1_555
C5 C6 1_555 1_555
C12 C13 1_555 1_555
C19 C20 1_555 1_555
C25 C26 1_555 1_555
C32 C33 1_555 1_555
C35 C36 1_555 1_555
C39 C40 1_555 1_555
C41 C42 1_555 1_555

#END
