
#######################################################################
#
#                 Cambridge Crystallographic Data Centre
#                                CCDC 
#
#######################################################################
#
# If this CIF has been generated from an entry in the Cambridge 
# Structural Database, then it will include bibliographic, chemical, 
# crystal, experimental, refinement or atomic coordinate data resulting 
# from the CCDC's data processing and validation procedures.
#
#######################################################################

data_UNASUY
_chemical_formula_moiety         'C36 H26'
_chemical_name_systematic        1-(4-(Triphenylvinyl)phenyl)naphthalene
_symmetry_cell_setting           monoclinic
_symmetry_space_group_name_H-M   'P 21/n'
_symmetry_Int_Tables_number      14
_space_group_name_Hall           '-P 2yn'
loop_
_symmetry_equiv_pos_site_id
_symmetry_equiv_pos_as_xyz
1 x,y,z
2 1/2-x,1/2+y,1/2-z
3 -x,-y,-z
4 1/2+x,1/2-y,1/2+z
_cell_length_a                   9.1633(8)
_cell_length_b                   28.882(3)
_cell_length_c                   19.778(2)
_cell_angle_alpha                90
_cell_angle_beta                 101.303(10)
_cell_angle_gamma                90
_cell_volume                     5132.81
_exptl_crystal_colour            colorless
_exptl_crystal_description       bar
_cell_formula_units_Z            8
loop_
_atom_site_label
_atom_site_type_symbol
_atom_site_fract_x
_atom_site_fract_y
_atom_site_fract_z
C1 C 0.3198(5) 0.51060(15) 0.2733(2)
C2 C 0.4430(5) 0.50414(15) 0.3268(2)
H1 H 0.5270 0.5239 0.3296
C3 C 0.4454(5) 0.46989(14) 0.3754(2)
H2 H 0.5314 0.4661 0.4106
C4 C 0.3245(5) 0.44073(15) 0.3738(2)
C5 C 0.1988(5) 0.44756(16) 0.3208(2)
H3 H 0.1132 0.4287 0.3189
C6 C 0.1992(5) 0.48139(16) 0.2717(2)
H4 H 0.1144 0.4848 0.2358
C7 C 0.3192(5) 0.54693(14) 0.2200(2)
C8 C 0.3536(5) 0.59457(15) 0.2472(2)
C9 C 0.4687(5) 0.62050(14) 0.2303(3)
H5 H 0.5304 0.6071 0.2022
C10 C 0.4953(5) 0.66507(16) 0.2531(3)
H6 H 0.5744 0.6821 0.2404
C11 C 0.4091(6) 0.68528(17) 0.2940(3)
H7 H 0.4277 0.7162 0.3095
C12 C 0.2947(6) 0.66024(18) 0.3125(3)
H8 H 0.2343 0.6741 0.3409
C13 C 0.2677(5) 0.61554(17) 0.2904(2)
H9 H 0.1900 0.5985 0.3044
C14 C 0.2858(4) 0.53864(14) 0.1515(2)
C15 C 0.2708(5) 0.57585(14) 0.0988(2)
C16 C 0.1721(5) 0.61223(15) 0.0993(2)
H10 H 0.1134 0.6133 0.1339
C17 C 0.1580(6) 0.64684(17) 0.0506(3)
H11 H 0.0915 0.6719 0.0521
C18 C 0.2403(8) 0.6449(2) -0.0002(3)
H12 H 0.2306 0.6687 -0.0339
C19 C 0.3374(7) 0.6086(2) -0.0028(3)
H13 H 0.3947 0.6074 -0.0380
C20 C 0.3501(6) 0.57371(17) 0.0466(2)
H14 H 0.4142 0.5482 0.0442
C21 C 0.2572(5) 0.49119(13) 0.1237(2)
C22 C 0.3618(5) 0.45561(15) 0.1371(2)
H15 H 0.4565 0.4615 0.1651
C23 C 0.3293(6) 0.41167(15) 0.1099(3)
H16 H 0.4020 0.3879 0.1192
C24 C 0.1899(6) 0.40236(17) 0.0690(3)
H17 H 0.1669 0.3721 0.0510
C25 C 0.0870(6) 0.43706(15) 0.0550(3)
H18 H -0.0079 0.4311 0.0271
C26 C 0.1214(5) 0.48056(14) 0.0814(2)
H19 H 0.0494 0.5044 0.0703
C27 C 0.3252(5) 0.40412(16) 0.4263(2)
C28 C 0.2930(4) 0.35666(16) 0.4101(2)
C29 C 0.2615(5) 0.33962(18) 0.3409(3)
H20 H 0.2618 0.3605 0.3039
C30 C 0.2311(5) 0.29402(18) 0.3270(3)
H21 H 0.2124 0.2839 0.2804
C31 C 0.2268(6) 0.2617(2) 0.3792(3)
H22 H 0.2025 0.2302 0.3691
C32 C 0.2596(6) 0.27799(19) 0.4470(3)
H23 H 0.2588 0.2567 0.4836
C33 C 0.2937(5) 0.32428(16) 0.4630(3)
C34 C 0.3293(6) 0.33832(19) 0.5322(3)
H24 H 0.3297 0.3163 0.5679
C35 C 0.3640(5) 0.38448(18) 0.5490(3)
H25 H 0.3903 0.3938 0.5959
C36 C 0.3595(5) 0.41694(18) 0.4958(2)
H26 H 0.3805 0.4485 0.5073
C37 C 0.2546(9) 0.7586(3) 0.6142(4)
C38 C 0.1476(14) 0.7915(3) 0.5866(6)
H27 H 0.0581 0.7804 0.5586
C39 C 0.1609(10) 0.8399(3) 0.5968(4)
H28 H 0.0857 0.8604 0.5744
C40 C 0.2881(9) 0.8567(3) 0.6409(4)
C41 C 0.3984(11) 0.8251(3) 0.6692(5)
H29 H 0.4863 0.8363 0.6984
C42 C 0.3839(11) 0.7777(3) 0.6560(6)
H30 H 0.4631 0.7576 0.6756
C49 C 0.2377(7) 0.7096(2) 0.5994(3)
C50 C 0.2007(7) 0.6910(2) 0.5318(3)
C53 C 0.2554(6) 0.67798(18) 0.6584(3)
C54 C 0.1790(6) 0.6913(2) 0.7070(3)
H35 H 0.1120 0.7166 0.6980
C55 C 0.1973(9) 0.6679(3) 0.7711(4)
H36 H 0.1396 0.6754 0.8046
C56 C 0.3061(10) 0.6331(4) 0.7818(4)
H37 H 0.3258 0.6173 0.8248
C57 C 0.3791(8) 0.6221(2) 0.7359(4)
H38 H 0.4514 0.5982 0.7457
C58 C 0.3580(6) 0.64293(17) 0.6736(3)
H39 H 0.4140 0.6334 0.6404
C59 C 0.188(2) 0.7211(7) 0.4716(10)
C60 C 0.3072(10) 0.7486(3) 0.4586(4)
H40 H 0.4005 0.7472 0.4896
C61 C 0.2914(13) 0.7771(3) 0.4028(6)
H41 H 0.3706 0.7958 0.3936
C62 C 0.1441(16) 0.7769(3) 0.3580(6)
H42 H 0.1290 0.7975 0.3199
C63 C 0.0324(13) 0.7513(3) 0.3655(6)
H43 H -0.0581 0.7507 0.3325
C64 C 0.0544(15) 0.7240(4) 0.4272(6)
H44 H -0.0276 0.7071 0.4375
C71 C 0.1812(5) 0.63952(15) 0.5239(2)
C72 C 0.0810(5) 0.61373(18) 0.5504(3)
H50 H 0.0223 0.6284 0.5788
C73 C 0.0633(7) 0.5688(2) 0.5376(4)
H51 H -0.0064 0.5515 0.5572
C74 C 0.1456(7) 0.54737(18) 0.4962(4)
H52 H 0.1341 0.5150 0.4882
C75 C 0.2469(6) 0.57214(19) 0.4654(3)
H53 H 0.3022 0.5575 0.4356
C76 C 0.2628(5) 0.61933(16) 0.4806(2)
H54 H 0.3303 0.6375 0.4610
C77 C 0.2949(8) 0.9078(3) 0.6557(4)
C78 C 0.3237(7) 0.9230(3) 0.7234(5)
C79 C 0.3554(9) 0.8974(3) 0.7810(4)
H55 H 0.3619 0.8645 0.7802
C80 C 0.3769(14) 0.9214(4) 0.8393(6)
H56 H 0.4089 0.9025 0.8787
C81 C 0.3648(12) 0.9645(3) 0.8552(6)
H57 H 0.3735 0.9763 0.9007
C82 C 0.3383(10) 0.9895(3) 0.7980(5)
H58 H 0.3343 1.0220 0.8052
C83 C 0.3151(12) 0.9760(4) 0.7282(5)
C84 C 0.2850(12) 1.0062(4) 0.6755(6)
H59 H 0.2796 1.0388 0.6812
C85 C 0.2636(14) 0.9850(3) 0.6145(6)
H60 H 0.2449 1.0047 0.5752
C86 C 0.2653(11) 0.9379(3) 0.6010(5)
H61 H 0.2463 0.9267 0.5549
C43? C 0.2600(13) 0.7636(4) 0.5918(6)
C44? C 0.1548(17) 0.7991(4) 0.5792(7)
H31? H 0.0682 0.7981 0.5438
C45? C 0.1913(13) 0.8364(4) 0.6244(5)
H32? H 0.1187 0.8603 0.6208
C46? C 0.3231(11) 0.8434(3) 0.6752(5)
C47? C 0.4202(15) 0.8067(4) 0.6836(7)
H33? H 0.5089 0.8083 0.7177
C48? C 0.3905(17) 0.7670(5) 0.6427(8)
H34? H 0.4593 0.7420 0.6493
C51? C 0.2189(15) 0.7186(5) 0.5470(8)
C52? C 0.2208(15) 0.6797(4) 0.5735(7)
C65? C 0.172(2) 0.7253(6) 0.4682(8)
C66? C 0.2378(17) 0.7583(4) 0.4411(7)
H45? H 0.3194 0.7711 0.4727
C67? C 0.217(2) 0.7788(4) 0.3777(8)
H46? H 0.2867 0.7975 0.3606
C68? C 0.0672(18) 0.7667(5) 0.3408(8)
H47? H 0.0294 0.7820 0.2984
C69? C -0.0234(17) 0.7338(5) 0.3645(7)
H48? H -0.1182 0.7263 0.3376
C70? C 0.0261(17) 0.7123(5) 0.4271(8)
H49? H -0.0331 0.6895 0.4435
C87? C 0.3437(10) 0.8843(3) 0.7181(5)
C88? C 0.3199(8) 0.9322(3) 0.6960(6)
C89? C 0.2893(14) 0.9422(5) 0.6255(7)
H62? H 0.2871 0.9164 0.5955
C90? C 0.2611(18) 0.9862(4) 0.5926(8)
H63? H 0.2394 0.9912 0.5442
C91? C 0.2707(16) 1.0214(5) 0.6439(7)
H64? H 0.2608 1.0528 0.6294
C92? C 0.2951(15) 1.0114(5) 0.7174(7)
H65? H 0.2904 1.0361 0.7485
C93? C 0.3262(15) 0.9649(4) 0.7450(7)
C94? C 0.3646(15) 0.9523(4) 0.8138(6)
H66? H 0.3792 0.9775 0.8453
C95? C 0.3860(19) 0.9073(4) 0.8454(8)
H67? H 0.4012 0.9002 0.8931
C96? C 0.3794(13) 0.8764(4) 0.7900(5)
H68? H 0.4025 0.8452 0.8030
loop_
_geom_bond_atom_site_label_1
_geom_bond_atom_site_label_2
_geom_bond_site_symmetry_1
_geom_bond_site_symmetry_2
C1 C2 1_555 1_555
C2 H1 1_555 1_555
C3 C2 1_555 1_555
H2 C3 1_555 1_555
C4 C3 1_555 1_555
C5 C4 1_555 1_555
H3 C5 1_555 1_555
C6 C1 1_555 1_555
H4 C6 1_555 1_555
C7 C1 1_555 1_555
C8 C7 1_555 1_555
C9 C8 1_555 1_555
H5 C9 1_555 1_555
C10 C9 1_555 1_555
H6 C10 1_555 1_555
C11 C10 1_555 1_555
H7 C11 1_555 1_555
C12 C11 1_555 1_555
H8 C12 1_555 1_555
C13 C8 1_555 1_555
H9 C13 1_555 1_555
C14 C7 1_555 1_555
C15 C14 1_555 1_555
C16 C15 1_555 1_555
H10 C16 1_555 1_555
C17 C16 1_555 1_555
H11 C17 1_555 1_555
C18 C17 1_555 1_555
H12 C18 1_555 1_555
C19 C18 1_555 1_555
H13 C19 1_555 1_555
C20 C15 1_555 1_555
H14 C20 1_555 1_555
C21 C14 1_555 1_555
C22 C21 1_555 1_555
H15 C22 1_555 1_555
C23 C22 1_555 1_555
H16 C23 1_555 1_555
C24 C23 1_555 1_555
H17 C24 1_555 1_555
C25 C24 1_555 1_555
H18 C25 1_555 1_555
C26 C21 1_555 1_555
H19 C26 1_555 1_555
C27 C4 1_555 1_555
C28 C27 1_555 1_555
C29 C28 1_555 1_555
H20 C29 1_555 1_555
C30 C29 1_555 1_555
H21 C30 1_555 1_555
C31 C30 1_555 1_555
H22 C31 1_555 1_555
C32 C31 1_555 1_555
H23 C32 1_555 1_555
C33 C28 1_555 1_555
C34 C33 1_555 1_555
H24 C34 1_555 1_555
C35 C34 1_555 1_555
H25 C35 1_555 1_555
C36 C27 1_555 1_555
H26 C36 1_555 1_555
C37 C38 1_555 1_555
C38 H27 1_555 1_555
C39 C38 1_555 1_555
H28 C39 1_555 1_555
C40 C39 1_555 1_555
C41 C40 1_555 1_555
H29 C41 1_555 1_555
C42 C37 1_555 1_555
H30 C42 1_555 1_555
C49 C37 1_555 1_555
C50 C49 1_555 1_555
C53 C49 1_555 1_555
C54 C53 1_555 1_555
H35 C54 1_555 1_555
C55 C54 1_555 1_555
H36 C55 1_555 1_555
C56 C55 1_555 1_555
H37 C56 1_555 1_555
C57 C56 1_555 1_555
H38 C57 1_555 1_555
C58 C53 1_555 1_555
H39 C58 1_555 1_555
C59 C50 1_555 1_555
C60 C59 1_555 1_555
H40 C60 1_555 1_555
C61 C60 1_555 1_555
H41 C61 1_555 1_555
C62 C61 1_555 1_555
H42 C62 1_555 1_555
C63 C62 1_555 1_555
H43 C63 1_555 1_555
C64 C59 1_555 1_555
H44 C64 1_555 1_555
C71 C50 1_555 1_555
C72 C71 1_555 1_555
H50 C72 1_555 1_555
C73 C72 1_555 1_555
H51 C73 1_555 1_555
C74 C73 1_555 1_555
H52 C74 1_555 1_555
C75 C74 1_555 1_555
H53 C75 1_555 1_555
C76 C71 1_555 1_555
H54 C76 1_555 1_555
C77 C40 1_555 1_555
C78 C77 1_555 1_555
C79 C78 1_555 1_555
H55 C79 1_555 1_555
C80 C79 1_555 1_555
H56 C80 1_555 1_555
C81 C80 1_555 1_555
H57 C81 1_555 1_555
C82 C81 1_555 1_555
H58 C82 1_555 1_555
C83 C78 1_555 1_555
C84 C83 1_555 1_555
H59 C84 1_555 1_555
C85 C84 1_555 1_555
H60 C85 1_555 1_555
C86 C77 1_555 1_555
H61 C86 1_555 1_555
C5 C6 1_555 1_555
C12 C13 1_555 1_555
C19 C20 1_555 1_555
C25 C26 1_555 1_555
C32 C33 1_555 1_555
C35 C36 1_555 1_555
C41 C42 1_555 1_555
C57 C58 1_555 1_555
C63 C64 1_555 1_555
C75 C76 1_555 1_555
C82 C83 1_555 1_555
C85 C86 1_555 1_555

#END
