
#######################################################################
#
#                 Cambridge Crystallographic Data Centre
#                                CCDC 
#
#######################################################################
#
# If this CIF has been generated from an entry in the Cambridge 
# Structural Database, then it will include bibliographic, chemical, 
# crystal, experimental, refinement or atomic coordinate data resulting 
# from the CCDC's data processing and validation procedures.
#
#######################################################################

data_UNASOS
_chemical_formula_moiety         'C40 H28'
_chemical_name_systematic        9-(4-(Triphenylvinyl)phenyl)phenanthrene
_symmetry_cell_setting           monoclinic
_symmetry_space_group_name_H-M   'P 21/c'
_symmetry_Int_Tables_number      14
_space_group_name_Hall           '-P 2ybc'
loop_
_symmetry_equiv_pos_site_id
_symmetry_equiv_pos_as_xyz
1 x,y,z
2 -x,1/2+y,1/2-z
3 -x,-y,-z
4 x,1/2-y,1/2+z
_cell_length_a                   17.2911(10)
_cell_length_b                   9.0613(5)
_cell_length_c                   18.1015(10)
_cell_angle_alpha                90
_cell_angle_beta                 94.720(6)
_cell_angle_gamma                90
_cell_volume                     2826.52
_exptl_crystal_colour            colorless
_exptl_crystal_description       plate
_cell_formula_units_Z            4
loop_
_atom_site_label
_atom_site_type_symbol
_atom_site_fract_x
_atom_site_fract_y
_atom_site_fract_z
C1 C 0.3272(2) 0.1515(3) 0.2072(2)
C2 C 0.3747(2) 0.2668(3) 0.2324(2)
H1 H 0.3534 0.3466 0.2581
C3 C 0.4525(2) 0.2676(3) 0.2208(2)
H2 H 0.4837 0.3489 0.2380
C4 C 0.4865(2) 0.1515(3) 0.1844(2)
C5 C 0.4373(2) 0.0398(3) 0.1550(2)
H3 H 0.4580 -0.0380 0.1276
C6 C 0.3590(2) 0.0406(3) 0.1653(2)
H4 H 0.3264 -0.0349 0.1437
C7 C 0.2446(2) 0.1408(4) 0.2246(2)
C8 C 0.1860(2) 0.1441(4) 0.1601(2)
C9 C 0.1911(2) 0.2510(4) 0.1055(2)
H5 H 0.2343 0.3161 0.1081
C10 C 0.1338(3) 0.2639(5) 0.0470(3)
H6 H 0.1368 0.3397 0.0111
C11 C 0.0737(3) 0.1669(5) 0.0418(3)
H7 H 0.0347 0.1752 0.0019
C12 C 0.0684(3) 0.0578(5) 0.0932(3)
H8 H 0.0260 -0.0093 0.0887
C13 C 0.1248(2) 0.0448(4) 0.1519(2)
H9 H 0.1215 -0.0328 0.1868
C14 C 0.2265(2) 0.1335(4) 0.2971(2)
C15 C 0.1444(2) 0.1320(4) 0.3164(2)
C16 C 0.0868(6) 0.2173(10) 0.2960(6)
H10 H 0.0983 0.2969 0.2646
C17 C 0.0094(6) 0.2086(11) 0.3140(6)
H11 H -0.0288 0.2786 0.2969
C18 C -0.0068(7) 0.0902(11) 0.3584(6)
H12 H -0.0582 0.0791 0.3724
C19 C 0.0496(6) -0.0154(10) 0.3841(6)
H13 H 0.0368 -0.0950 0.4150
C20 C 0.1241(8) 0.0017(13) 0.3626(7)
H14 H 0.1627 -0.0695 0.3771
C21 C 0.2861(2) 0.1282(4) 0.3601(2)
C22 C 0.2842(2) 0.2323(4) 0.4166(2)
H15 H 0.2435 0.3028 0.4156
C23 C 0.3425(3) 0.2325(5) 0.4746(2)
H16 H 0.3414 0.3032 0.5133
C24 C 0.4009(3) 0.1314(4) 0.4759(3)
H17 H 0.4410 0.1334 0.5151
C25 C 0.4028(3) 0.0265(5) 0.4212(3)
H18 H 0.4434 -0.0443 0.4231
C26 C 0.3454(2) 0.0246(4) 0.3638(2)
H19 H 0.3464 -0.0486 0.3263
C27 C 0.5715(2) 0.1460(4) 0.1780(2)
C28 C 0.6242(2) 0.1468(4) 0.2437(2)
C29 C 0.5980(3) 0.1425(4) 0.3166(2)
H20 H 0.5439 0.1439 0.3227
C30 C 0.6497(3) 0.1364(4) 0.3772(2)
H21 H 0.6310 0.1320 0.4251
C31 C 0.7283(3) 0.1365(4) 0.3710(2)
H22 H 0.7634 0.1354 0.4142
C32 C 0.7557(3) 0.1382(4) 0.3030(3)
H23 H 0.8102 0.1371 0.2996
C33 C 0.7056(2) 0.1416(4) 0.2362(2)
C34 C 0.7347(2) 0.1327(4) 0.1629(2)
C35 C 0.8141(3) 0.1264(4) 0.1522(3)
H24 H 0.8516 0.1311 0.1936
C36 C 0.8375(3) 0.1131(5) 0.0811(3)
H25 H 0.8913 0.1079 0.0743
C37 C 0.7839(3) 0.1073(5) 0.0195(3)
H26 H 0.8008 0.0980 -0.0289
C38 C 0.7067(3) 0.1152(4) 0.0296(3)
H27 H 0.6698 0.1122 -0.0122
C39 C 0.6810(2) 0.1279(4) 0.1014(2)
C40 C 0.6000(2) 0.1339(3) 0.1102(2)
H28 H 0.5645 0.1294 0.0673
C41? C 0.0956(6) 0.2607(10) 0.2848(5)
C42? C 0.0227(6) 0.2677(11) 0.3027(6)
C43? C -0.0096(7) 0.1584(11) 0.3448(7)
C44? C 0.0370(7) 0.0455(11) 0.3766(7)
C45? C 0.1170(7) 0.0391(12) 0.3626(7)
H29? H 0.1163 0.3327 0.2538
H30? H -0.0083 0.3496 0.2863
H31? H -0.0634 0.1607 0.3519
H32? H 0.0156 -0.0264 0.4073
H33? H 0.1501 -0.0327 0.3869
loop_
_geom_bond_atom_site_label_1
_geom_bond_atom_site_label_2
_geom_bond_site_symmetry_1
_geom_bond_site_symmetry_2
C1 C2 1_555 1_555
C2 H1 1_555 1_555
C3 C2 1_555 1_555
H2 C3 1_555 1_555
C4 C3 1_555 1_555
C5 C4 1_555 1_555
H3 C5 1_555 1_555
C6 C1 1_555 1_555
H4 C6 1_555 1_555
C7 C1 1_555 1_555
C8 C7 1_555 1_555
C9 C8 1_555 1_555
H5 C9 1_555 1_555
C10 C9 1_555 1_555
H6 C10 1_555 1_555
C11 C10 1_555 1_555
H7 C11 1_555 1_555
C12 C11 1_555 1_555
H8 C12 1_555 1_555
C13 C8 1_555 1_555
H9 C13 1_555 1_555
C14 C7 1_555 1_555
C15 C14 1_555 1_555
C16 C15 1_555 1_555
H10 C16 1_555 1_555
C17 C16 1_555 1_555
H11 C17 1_555 1_555
C18 C17 1_555 1_555
H12 C18 1_555 1_555
C19 C18 1_555 1_555
H13 C19 1_555 1_555
C20 C15 1_555 1_555
H14 C20 1_555 1_555
C21 C14 1_555 1_555
C22 C21 1_555 1_555
H15 C22 1_555 1_555
C23 C22 1_555 1_555
H16 C23 1_555 1_555
C24 C23 1_555 1_555
H17 C24 1_555 1_555
C25 C24 1_555 1_555
H18 C25 1_555 1_555
C26 C21 1_555 1_555
H19 C26 1_555 1_555
C27 C4 1_555 1_555
C28 C27 1_555 1_555
C29 C28 1_555 1_555
H20 C29 1_555 1_555
C30 C29 1_555 1_555
H21 C30 1_555 1_555
C31 C30 1_555 1_555
H22 C31 1_555 1_555
C32 C31 1_555 1_555
H23 C32 1_555 1_555
C33 C28 1_555 1_555
C34 C33 1_555 1_555
C35 C34 1_555 1_555
H24 C35 1_555 1_555
C36 C35 1_555 1_555
H25 C36 1_555 1_555
C37 C36 1_555 1_555
H26 C37 1_555 1_555
C38 C37 1_555 1_555
H27 C38 1_555 1_555
C39 C34 1_555 1_555
C40 C27 1_555 1_555
H28 C40 1_555 1_555
C5 C6 1_555 1_555
C12 C13 1_555 1_555
C19 C20 1_555 1_555
C25 C26 1_555 1_555
C32 C33 1_555 1_555
C38 C39 1_555 1_555
C39 C40 1_555 1_555

#END
