
#######################################################################
#
#                 Cambridge Crystallographic Data Centre
#                                CCDC 
#
#######################################################################
#
# If this CIF has been generated from an entry in the Cambridge 
# Structural Database, then it will include bibliographic, chemical, 
# crystal, experimental, refinement or atomic coordinate data resulting 
# from the CCDC's data processing and validation procedures.
#
#######################################################################

data_UNAXAK
_chemical_formula_moiety         'C6 H9 N3,C5 H6 O4'
_chemical_name_systematic        
'2-methylenesuccinic acid 4,6-dimethylpyrimidin-2-amine'
_symmetry_cell_setting           monoclinic
_symmetry_space_group_name_H-M   'P 21/n'
_symmetry_Int_Tables_number      14
_space_group_name_Hall           '-P 2yn'
loop_
_symmetry_equiv_pos_site_id
_symmetry_equiv_pos_as_xyz
1 x,y,z
2 1/2-x,1/2+y,1/2-z
3 -x,-y,-z
4 1/2+x,1/2-y,1/2+z
_cell_length_a                   5.3172(19)
_cell_length_b                   14.423(5)
_cell_length_c                   17.089(6)
_cell_angle_alpha                90
_cell_angle_beta                 84.036(7)
_cell_angle_gamma                90
_cell_volume                     1303.46
_exptl_crystal_colour            colorless
_exptl_crystal_description       prism
_cell_formula_units_Z            4
loop_
_atom_site_label
_atom_site_type_symbol
_atom_site_fract_x
_atom_site_fract_y
_atom_site_fract_z
O1 O 0.5829(4) -0.17057(16) 0.70277(13)
O2 O 0.6817(5) -0.13154(16) 0.57770(13)
H1 H 0.5612 -0.1651 0.5712
O3 O 0.8110(5) 0.02567(15) 0.86953(13)
H2 H 0.7073 0.0633 0.8891
O4 O 0.6069(5) 0.04875(16) 0.76492(13)
C1 C 1.0876(7) -0.0343(2) 0.6144(2)
H3 H 1.079(7) -0.045(2) 0.558(2)
H4 H 1.232(7) 0.012(2) 0.623(2)
C2 C 0.9282(5) -0.07001(18) 0.67145(17)
C3 C 0.9578(6) -0.05627(19) 0.75592(17)
H5 H 1.1285 -0.0350 0.7609
H6 H 0.9362 -0.1155 0.7827
C4 C 0.7746(6) 0.01185(19) 0.79601(17)
C5 C 0.7142(6) -0.12889(19) 0.65329(17)
C6 C 0.7409(7) 0.0933(2) 1.0565(2)
H7 H 0.8159 0.0554 1.0142
H8 H 0.6621 0.0544 1.0976
H9 H 0.8694 0.1303 1.0768
C7 C 0.0652(8) 0.3380(2) 1.0929(2)
H10 H -0.0461 0.3690 1.0607
H11 H 0.1701 0.3829 1.1153
H12 H -0.0329 0.3051 1.1343
H13 H 0.404(7) 0.156(2) 0.8145(19)
H14 H 0.174(7) 0.230(2) 0.8340(17)
N1 N 0.1916(4) 0.26426(14) 0.96747(13)
C8 C 0.3376(6) 0.20401(17) 0.92340(17)
N2 N 0.5126(5) 0.14879(14) 0.95100(14)
C9 C 0.5474(6) 0.15508(18) 1.02699(17)
C10 C 0.2289(6) 0.27065(18) 1.04349(16)
N3 N 0.3067(6) 0.1988(2) 0.84682(15)
C11 C 0.4083(6) 0.2170(2) 1.07506(16)
H15 H 0.4347 0.2227 1.1278
loop_
_geom_bond_atom_site_label_1
_geom_bond_atom_site_label_2
_geom_bond_site_symmetry_1
_geom_bond_site_symmetry_2
O1 C5 1_555 1_555
O2 H1 1_555 1_555
O3 H2 1_555 1_555
O4 C4 1_555 1_555
C1 H3 1_555 1_555
H4 C1 1_555 1_555
C2 C1 1_555 1_555
C3 C2 1_555 1_555
H5 C3 1_555 1_555
H6 C3 1_555 1_555
C4 O3 1_555 1_555
C5 O2 1_555 1_555
C6 H7 1_555 1_555
H8 C6 1_555 1_555
H9 C6 1_555 1_555
C7 H10 1_555 1_555
H11 C7 1_555 1_555
H12 C7 1_555 1_555
H13 N3 1_555 1_555
H14 N3 1_555 1_555
N1 C8 1_555 1_555
C8 N2 1_555 1_555
N2 C9 1_555 1_555
C9 C6 1_555 1_555
C10 C7 1_555 1_555
N3 C8 1_555 1_555
C11 C9 1_555 1_555
H15 C11 1_555 1_555
C2 C5 1_555 1_555
C3 C4 1_555 1_555
N1 C10 1_555 1_555
C10 C11 1_555 1_555

#END
