
#######################################################################
#
#                 Cambridge Crystallographic Data Centre
#                                CCDC 
#
#######################################################################
#
# If this CIF has been generated from an entry in the Cambridge 
# Structural Database, then it will include bibliographic, chemical, 
# crystal, experimental, refinement or atomic coordinate data resulting 
# from the CCDC's data processing and validation procedures.
#
#######################################################################

data_UNAXEO
_chemical_formula_moiety         'C6 H2 N3 O7 1-,C2 H4 N3 1+'
_chemical_name_systematic        
'1H-1,2,3-triazol-3-ium 2,4,6-trinitrophenolate'
_symmetry_cell_setting           monoclinic
_symmetry_space_group_name_H-M   'P 21/n'
_symmetry_Int_Tables_number      14
_space_group_name_Hall           '-P 2yn'
loop_
_symmetry_equiv_pos_site_id
_symmetry_equiv_pos_as_xyz
1 x,y,z
2 1/2-x,1/2+y,1/2-z
3 -x,-y,-z
4 1/2+x,1/2-y,1/2+z
_cell_length_a                   12.815(14)
_cell_length_b                   4.788(5)
_cell_length_c                   18.288(19)
_cell_angle_alpha                90
_cell_angle_beta                 104.465(16)
_cell_angle_gamma                90
_cell_volume                     1086.55
_exptl_crystal_colour            yellow
_exptl_crystal_description       prism
_cell_formula_units_Z            4
loop_
_atom_site_label
_atom_site_type_symbol
_atom_site_fract_x
_atom_site_fract_y
_atom_site_fract_z
O1 O 0.7474(3) 0.2684(7) 0.58497(19)
C1 C 0.7167(4) 0.3434(10) 0.4526(3)
C2 C 0.8224(4) 0.0981(11) 0.3849(3)
N1 N 0.8852(4) -0.1976(8) 0.5750(2)
C3 C 0.8379(4) -0.0145(10) 0.5137(3)
O2 O 0.8623(4) -0.1778(9) 0.6350(2)
N2 N 0.8584(4) 0.0605(11) 0.3173(3)
C4 C 0.7649(4) 0.2067(10) 0.5229(3)
O3 O 0.9494(4) -0.3758(9) 0.5649(2)
C5 C 0.8655(4) -0.0621(11) 0.4473(3)
H1 H 0.9139 -0.2041 0.4444
O4 O 0.9187(4) -0.1351(11) 0.3156(2)
O5 O 0.8291(4) 0.2248(10) 0.2659(2)
N3 N 0.6364(4) 0.5559(10) 0.4489(2)
O6 O 0.5933(5) 0.6526(12) 0.3883(3)
C6 C 0.7466(4) 0.2955(11) 0.3867(3)
H2 H 0.7152 0.3973 0.3435
O7 O 0.6138(5) 0.6381(13) 0.5040(2)
N4 N 0.3752(4) 0.2484(10) 0.2390(2)
H3 H 0.3672 0.2486 0.1908
N5 N 0.3589(4) 0.3501(10) 0.3439(2)
H4 H 0.3393 0.4323 0.3801
N6 N 0.3267(4) 0.4245(10) 0.2731(3)
C7 C 0.4379(5) 0.0687(12) 0.2844(3)
H5 H 0.4808 -0.0703 0.2716
C8 C 0.4255(5) 0.1326(12) 0.3536(3)
H6 H 0.4571 0.0428 0.3988
loop_
_geom_bond_atom_site_label_1
_geom_bond_atom_site_label_2
_geom_bond_site_symmetry_1
_geom_bond_site_symmetry_2
O1 C4 1_555 1_555
C1 C4 1_555 1_555
C2 N2 1_555 1_555
N1 C3 1_555 1_555
C3 C4 1_555 1_555
O2 N1 1_555 1_555
N2 O4 1_555 1_555
O3 N1 1_555 1_555
C5 C2 1_555 1_555
H1 C5 1_555 1_555
O5 N2 1_555 1_555
N3 C1 1_555 1_555
O6 N3 1_555 1_555
C6 C1 1_555 1_555
H2 C6 1_555 1_555
O7 N3 1_555 1_555
N4 H3 1_555 1_555
N5 H4 1_555 1_555
N6 N4 1_555 1_555
C7 N4 1_555 1_555
H5 C7 1_555 1_555
C8 N5 1_555 1_555
H6 C8 1_555 1_555
C2 C6 1_555 1_555
C3 C5 1_555 1_555
N5 N6 1_555 1_555
C7 C8 1_555 1_555

#END
