
#######################################################################
#
#                 Cambridge Crystallographic Data Centre
#                                CCDC 
#
#######################################################################
#
# If this CIF has been generated from an entry in the Cambridge 
# Structural Database, then it will include bibliographic, chemical, 
# crystal, experimental, refinement or atomic coordinate data resulting 
# from the CCDC's data processing and validation procedures.
#
#######################################################################

data_UNDEAC12
_chemical_formula_moiety         'C11 H20 O4'
_chemical_name_systematic        'undecanedioic acid'
_symmetry_cell_setting           monoclinic
_symmetry_space_group_name_H-M   'P 21/c'
_symmetry_Int_Tables_number      14
_space_group_name_Hall           '-P 2ybc'
loop_
_symmetry_equiv_pos_site_id
_symmetry_equiv_pos_as_xyz
1 x,y,z
2 -x,1/2+y,1/2-z
3 -x,-y,-z
4 x,1/2-y,1/2+z
_cell_length_a                   5.5078(11)
_cell_length_b                   9.4058(18)
_cell_length_c                   22.554(5)
_cell_angle_alpha                90
_cell_angle_beta                 94.018(5)
_cell_angle_gamma                90
_cell_volume                     1165.54
_exptl_crystal_colour            colorless
_exptl_crystal_description       Prism
_cell_formula_units_Z            4
loop_
_atom_site_label
_atom_site_type_symbol
_atom_site_fract_x
_atom_site_fract_y
_atom_site_fract_z
O1 O 1.87708(14) 0.67337(8) 0.01469(3)
H1 H 1.9816 0.6286 -0.0033
O2 O 1.78552(14) 0.45544(8) 0.04487(3)
O3 O 0.09170(14) 0.48226(9) 0.42362(3)
H2 H -0.0048 0.4519 0.4479
O4 O 0.24669(13) 0.59671(9) 0.50386(3)
C1 C 1.75352(17) 0.58349(11) 0.04603(4)
C2 C 1.57479(18) 0.65603(11) 0.08284(4)
H3 H 1.4628 0.7132 0.0561
H4 H 1.6648 0.7226 0.1104
C3 C 1.42340(18) 0.55750(11) 0.11916(4)
H5 H 1.5330 0.4938 0.1436
H6 H 1.3180 0.4977 0.0920
C4 C 1.26530(18) 0.64184(11) 0.15968(4)
H7 H 1.3723 0.7017 0.1865
H8 H 1.1582 0.7061 0.1349
C5 C 1.10766(18) 0.54986(12) 0.19729(5)
H9 H 1.2132 0.4819 0.2206
H10 H 0.9932 0.4941 0.1706
C6 C 0.96279(18) 0.63686(12) 0.23975(4)
H11 H 1.0781 0.6925 0.2662
H12 H 0.8589 0.7052 0.2162
C7 C 0.80184(18) 0.54865(12) 0.27807(4)
H13 H 0.6781 0.4983 0.2519
H14 H 0.9032 0.4760 0.2998
C8 C 0.67337(18) 0.63800(12) 0.32274(4)
H15 H 0.5747 0.7117 0.3010
H16 H 0.7976 0.6872 0.3492
C9 C 0.50809(18) 0.55194(11) 0.36091(4)
H17 H 0.3669 0.5161 0.3357
H18 H 0.5988 0.4689 0.3779
C10 C 0.4179(2) 0.64190(12) 0.41108(5)
H19 H 0.5613 0.6752 0.4362
H20 H 0.3359 0.7270 0.3933
C11 C 0.24620(17) 0.57053(11) 0.45056(4)
loop_
_geom_bond_atom_site_label_1
_geom_bond_atom_site_label_2
_geom_bond_site_symmetry_1
_geom_bond_site_symmetry_2
O1 H1 1_555 1_555
O2 C1 1_555 1_555
O3 H2 1_555 1_555
O4 C11 1_555 1_555
C1 O1 1_555 1_555
C2 C1 1_555 1_555
H3 C2 1_555 1_555
H4 C2 1_555 1_555
C3 C2 1_555 1_555
H5 C3 1_555 1_555
H6 C3 1_555 1_555
C4 C3 1_555 1_555
H7 C4 1_555 1_555
H8 C4 1_555 1_555
C5 C4 1_555 1_555
H9 C5 1_555 1_555
H10 C5 1_555 1_555
C6 C5 1_555 1_555
H11 C6 1_555 1_555
H12 C6 1_555 1_555
C7 C6 1_555 1_555
H13 C7 1_555 1_555
H14 C7 1_555 1_555
C8 C7 1_555 1_555
H15 C8 1_555 1_555
H16 C8 1_555 1_555
C9 C8 1_555 1_555
H17 C9 1_555 1_555
H18 C9 1_555 1_555
C10 C9 1_555 1_555
H19 C10 1_555 1_555
H20 C10 1_555 1_555
C11 O3 1_555 1_555
C10 C11 1_555 1_555

#END
