
#######################################################################
#
#                 Cambridge Crystallographic Data Centre
#                                CCDC 
#
#######################################################################
#
# If this CIF has been generated from an entry in the Cambridge 
# Structural Database, then it will include bibliographic, chemical, 
# crystal, experimental, refinement or atomic coordinate data resulting 
# from the CCDC's data processing and validation procedures.
#
#######################################################################

data_UNEBEV
_chemical_formula_moiety         'C22 H21 N5 O2 S1'
_chemical_name_systematic        
7-(Diethylamino)-3-(((3-phenyl-5-sulfanyl-4H-1,2,4-triazol-4-yl)imino)methyl)-2H-chromen-2-one
_symmetry_cell_setting           monoclinic
_symmetry_space_group_name_H-M   'P 21/c'
_symmetry_Int_Tables_number      14
_space_group_name_Hall           '-P 2ybc'
loop_
_symmetry_equiv_pos_site_id
_symmetry_equiv_pos_as_xyz
1 x,y,z
2 -x,1/2+y,1/2-z
3 -x,-y,-z
4 x,1/2-y,1/2+z
_cell_length_a                   9.57100(10)
_cell_length_b                   15.5340(8)
_cell_length_c                   16.3360(6)
_cell_angle_alpha                90
_cell_angle_beta                 122.090(2)
_cell_angle_gamma                90
_cell_volume                     2057.69
_exptl_crystal_colour            orange
_exptl_crystal_description       stick
_chemical_melting_point          186-187deg.C
_cell_formula_units_Z            4
loop_
_atom_site_label
_atom_site_type_symbol
_atom_site_fract_x
_atom_site_fract_y
_atom_site_fract_z
C1 C 0.9211(6) 0.8556(3) 1.1217(3)
N1 N 0.8435(5) 0.9247(2) 1.0598(3)
C2 C 0.7767(6) 0.9778(3) 1.0993(3)
C3 C 0.8572(7) 0.8273(3) 0.7908(4)
C4 C 0.8376(6) 0.9018(3) 0.8375(3)
C5 C 0.8072(6) 0.9803(3) 0.7937(3)
H1 H 0.7961 1.0282 0.8240
C6 C 0.7923(6) 0.9903(3) 0.7044(3)
C7 C 0.7645(7) 1.0693(3) 0.6541(4)
H2 H 0.7500 1.1192 0.6802
C8 C 0.7584(7) 1.0745(4) 0.5690(4)
H3 H 0.7417 1.1276 0.5388
C9 C 0.7773(6) 0.9994(3) 0.5258(4)
C10 C 0.7998(7) 0.9201(3) 0.5729(4)
H4 H 0.8090 0.8694 0.5458
C11 C 0.8081(6) 0.9182(3) 0.6593(3)
C12 C 0.7839(8) 0.9272(4) 0.3925(4)
H5 H 0.8647 0.8872 0.4393
H6 H 0.8190 0.9435 0.3488
C13 C 0.6192(9) 0.8821(5) 0.3355(5)
H7 H 0.5793 0.8697 0.3772
H8 H 0.6317 0.8294 0.3094
H9 H 0.5418 0.9187 0.2837
C14 C 0.7713(7) 1.0880(4) 0.3973(4)
H10 H 0.8273 1.0827 0.3625
H11 H 0.8289 1.1313 0.4470
C15 C 0.5993(9) 1.1176(5) 0.3291(5)
H12 H 0.5446 1.0779 0.2761
H13 H 0.6012 1.1737 0.3050
H14 H 0.5412 1.1202 0.3622
C16 C 0.6955(6) 1.0610(3) 1.0637(3)
C17 C 0.6612(17) 1.1071(6) 1.1203(7)
H15 H 0.6956 1.0870 1.1818
C18 C 0.5753(16) 1.1845(6) 1.0888(7)
H16 H 0.5492 1.2134 1.1289
C19 C 0.5305(8) 1.2173(4) 1.0058(5)
H17 H 0.4775 1.2704 0.9867
C20 C 0.5625(15) 1.1733(6) 0.9498(6)
H18 H 0.5257 1.1940 0.8882
C21 C 0.6496(14) 1.0966(5) 0.9791(5)
H19 H 0.6766 1.0695 0.9386
N2 N 0.8856(6) 0.8680(3) 1.1899(3)
N3 N 0.8000(6) 0.9420(3) 1.1782(3)
N4 N 0.8362(5) 0.9466(3) 0.9751(3)
C22 C 0.8498(7) 0.8856(3) 0.9288(3)
H20 H 0.8678 0.8299 0.9533
N5 N 0.7808(6) 1.0047(3) 0.4438(3)
O1 O 0.8358(5) 0.8387(2) 0.7023(2)
O2 O 0.8886(6) 0.7545(2) 0.8231(3)
S1 S 1.0451(2) 0.77966(10) 1.12209(11)
H21 H 0.9695 0.7360 1.0510
loop_
_geom_bond_atom_site_label_1
_geom_bond_atom_site_label_2
_geom_bond_site_symmetry_1
_geom_bond_site_symmetry_2
C1 N1 1_555 1_555
N1 C2 1_555 1_555
C2 C16 1_555 1_555
C3 C4 1_555 1_555
C4 C5 1_555 1_555
C5 H1 1_555 1_555
C6 C5 1_555 1_555
C7 C6 1_555 1_555
H2 C7 1_555 1_555
C8 C7 1_555 1_555
H3 C8 1_555 1_555
C9 C8 1_555 1_555
C10 C9 1_555 1_555
H4 C10 1_555 1_555
C11 C6 1_555 1_555
C12 H5 1_555 1_555
H6 C12 1_555 1_555
C13 C12 1_555 1_555
H7 C13 1_555 1_555
H8 C13 1_555 1_555
H9 C13 1_555 1_555
C14 H10 1_555 1_555
H11 C14 1_555 1_555
C15 C14 1_555 1_555
H12 C15 1_555 1_555
H13 C15 1_555 1_555
H14 C15 1_555 1_555
C16 C17 1_555 1_555
C17 H15 1_555 1_555
C18 C17 1_555 1_555
H16 C18 1_555 1_555
C19 C18 1_555 1_555
H17 C19 1_555 1_555
C20 C19 1_555 1_555
H18 C20 1_555 1_555
C21 C16 1_555 1_555
H19 C21 1_555 1_555
N2 C1 1_555 1_555
N3 C2 1_555 1_555
N4 N1 1_555 1_555
C22 C4 1_555 1_555
H20 C22 1_555 1_555
N5 C9 1_555 1_555
O1 C3 1_555 1_555
O2 C3 1_555 1_555
S1 C1 1_555 1_555
H21 S1 1_555 1_555
C10 C11 1_555 1_555
C11 O1 1_555 1_555
C12 N5 1_555 1_555
C14 N5 1_555 1_555
C20 C21 1_555 1_555
N2 N3 1_555 1_555
N4 C22 1_555 1_555

#END
