
#######################################################################
#
#                 Cambridge Crystallographic Data Centre
#                                CCDC 
#
#######################################################################
#
# If this CIF has been generated from an entry in the Cambridge 
# Structural Database, then it will include bibliographic, chemical, 
# crystal, experimental, refinement or atomic coordinate data resulting 
# from the CCDC's data processing and validation procedures.
#
#######################################################################

data_UNEBUL
_chemical_formula_moiety         'C21 H15 Br1 N3'
_chemical_name_systematic        
1-(4-Bromophenyl)-3-(3-vinylphenyl)-1,2,4-benzotriazin-4(1H)-yl
_symmetry_cell_setting           monoclinic
_symmetry_space_group_name_H-M   'P 21/n'
_symmetry_Int_Tables_number      14
_space_group_name_Hall           '-P 2yn'
loop_
_symmetry_equiv_pos_site_id
_symmetry_equiv_pos_as_xyz
1 x,y,z
2 1/2-x,1/2+y,1/2-z
3 -x,-y,-z
4 1/2+x,1/2-y,1/2+z
_cell_length_a                   16.5376(18)
_cell_length_b                   13.7569(15)
_cell_length_c                   22.820(3)
_cell_angle_alpha                90
_cell_angle_beta                 93.7888(18)
_cell_angle_gamma                90
_cell_volume                     5180.34
_exptl_crystal_colour            brown
_exptl_crystal_description       prism
_chemical_melting_point          114-115deg.C
_cell_formula_units_Z            12
_exptl_crystal_recrystallization_method dichloromethane/methanol
loop_
_atom_site_label
_atom_site_type_symbol
_atom_site_fract_x
_atom_site_fract_y
_atom_site_fract_z
Br1 Br 0.85634(3) -0.13312(4) 0.14844(3)
N1 N 0.50387(17) -0.0485(2) 0.18826(12)
N2 N 0.46898(17) 0.0121(2) 0.14630(12)
N3 N 0.34400(17) 0.0056(2) 0.19367(12)
C1 C 0.3913(2) 0.0344(2) 0.15202(15)
C2 C 0.3792(2) -0.0585(2) 0.23380(15)
C3 C 0.3323(2) -0.0962(3) 0.27773(16)
H1 H 0.2782 -0.0744 0.2805
C4 C 0.3644(2) -0.1642(3) 0.31653(17)
H2 H 0.3323 -0.1894 0.3460
C5 C 0.4433(2) -0.1963(3) 0.31320(17)
H3 H 0.4643 -0.2445 0.3399
C6 C 0.4916(2) -0.1594(3) 0.27167(16)
H4 H 0.5459 -0.1813 0.2699
C7 C 0.4601(2) -0.0895(2) 0.23213(15)
C8 C 0.5868(2) -0.0700(2) 0.18034(15)
C9 C 0.6096(2) -0.0928(2) 0.12452(16)
H5 H 0.5699 -0.0955 0.0925
C10 C 0.6898(2) -0.1116(3) 0.11527(17)
H6 H 0.7053 -0.1278 0.0771
C11 C 0.7464(2) -0.1067(3) 0.16136(18)
C12 C 0.7260(2) -0.0819(3) 0.21704(17)
H7 H 0.7664 -0.0774 0.2485
C13 C 0.6456(2) -0.0637(3) 0.22614(16)
H8 H 0.6306 -0.0466 0.2643
C14 C 0.3547(2) 0.1014(2) 0.10629(15)
C15 C 0.2715(2) 0.1144(3) 0.10188(16)
H9 H 0.2393 0.0804 0.1282
C16 C 0.2335(2) 0.1757(3) 0.06004(16)
C17 C 0.2821(3) 0.2258(3) 0.02275(16)
H10 H 0.2578 0.2688 -0.0058
C18 C 0.3648(3) 0.2138(3) 0.02681(17)
H11 H 0.3971 0.2490 0.0012
C19 C 0.4017(2) 0.1508(3) 0.06795(16)
H12 H 0.4587 0.1417 0.0698
C20 C 0.1436(3) 0.1837(3) 0.05612(19)
H13 H 0.1165 0.1431 0.0823
C21 C 0.0992(4) 0.2356(5) 0.0237(3)
H14 H 0.1221 0.2780 -0.0036
H15 H 0.0421 0.2332 0.0260
Br2 Br -0.35746(2) 0.70859(4) 0.37702(2)
N4 N -0.00829(17) 0.8047(2) 0.33416(12)
N5 N 0.02533(17) 0.8720(2) 0.37307(12)
N6 N 0.15451(17) 0.8481(2) 0.33323(13)
C22 C 0.1045(2) 0.8886(2) 0.36992(15)
C23 C 0.1184(2) 0.7873(2) 0.29167(15)
C24 C 0.1652(2) 0.7472(3) 0.24814(16)
H16 H 0.2216 0.7609 0.2488
C25 C 0.1302(2) 0.6888(3) 0.20501(16)
H17 H 0.1627 0.6615 0.1764
C26 C 0.0483(2) 0.6693(3) 0.20265(17)
H18 H 0.0248 0.6292 0.1722
C27 C 0.0000(2) 0.7077(3) 0.24425(16)
H19 H -0.0567 0.6953 0.2419
C28 C 0.0352(2) 0.7645(2) 0.28966(15)
C29 C -0.0906(2) 0.7825(2) 0.34265(15)
C30 C -0.1444(2) 0.8563(3) 0.35338(15)
H20 H -0.1267 0.9220 0.3540
C31 C -0.2236(2) 0.8347(3) 0.36320(15)
H21 H -0.2607 0.8854 0.3704
C32 C -0.2489(2) 0.7393(3) 0.36262(14)
C33 C -0.1955(2) 0.6648(3) 0.35295(16)
H22 H -0.2132 0.5991 0.3530
C34 C -0.1163(2) 0.6870(3) 0.34327(16)
H23 H -0.0790 0.6362 0.3369
C35 C 0.1393(2) 0.9620(3) 0.41268(15)
C36 C 0.2215(2) 0.9828(3) 0.41524(16)
H24 H 0.2556 0.9480 0.3907
C37 C 0.2553(3) 1.0536(3) 0.45304(18)
C38 C 0.2037(3) 1.1041(3) 0.48828(17)
H25 H 0.2250 1.1543 0.5134
C39 C 0.1231(3) 1.0824(3) 0.48715(17)
H26 H 0.0892 1.1165 0.5122
C40 C 0.0898(2) 1.0106(3) 0.44964(16)
H27 H 0.0338 0.9952 0.4495
C41 C 0.3418(3) 1.0782(5) 0.4575(2)
H28 H 0.3559 1.1350 0.4796
C42 C 0.3965(5) 1.0372(6) 0.4376(3)
H29 H 0.3869 0.9798 0.4151
H30 H 0.4500 1.0616 0.4441
Br3 Br -0.35732(2) 0.07608(3) 0.38185(2)
N7 N -0.00768(17) 0.1627(2) 0.33273(12)
N8 N 0.03074(17) 0.2235(2) 0.37296(12)
N9 N 0.15530(18) 0.1990(2) 0.32724(13)
C43 C 0.1098(2) 0.2384(2) 0.36745(15)
C44 C 0.1170(2) 0.1325(2) 0.28992(15)
C45 C 0.1621(2) 0.0829(3) 0.24947(16)
H31 H 0.2178 0.0977 0.2469
C46 C 0.1261(2) 0.0126(3) 0.21336(16)
H32 H 0.1572 -0.0212 0.1863
C47 C 0.0450(2) -0.0088(3) 0.21648(17)
H33 H 0.0208 -0.0575 0.1915
C48 C -0.0018(2) 0.0393(3) 0.25533(16)
H34 H -0.0576 0.0240 0.2571
C49 C 0.0341(2) 0.1111(2) 0.29212(15)
C50 C -0.0908(2) 0.1452(2) 0.34352(15)
C51 C -0.1101(2) 0.1199(2) 0.39967(15)
H35 H -0.0686 0.1160 0.4304
C52 C -0.1895(2) 0.1003(2) 0.41098(16)
H36 H -0.2028 0.0823 0.4494
C53 C -0.2490(2) 0.1071(2) 0.36608(16)
C54 C -0.2309(2) 0.1350(3) 0.31007(16)
H37 H -0.2727 0.1414 0.2797
C55 C -0.1518(2) 0.1535(3) 0.29894(16)
H38 H -0.1387 0.1719 0.2606
C56 C 0.1501(2) 0.3035(2) 0.41216(16)
C57 C 0.2322(2) 0.3226(3) 0.41111(16)
H39 H 0.2615 0.2962 0.3804
C58 C 0.2728(2) 0.3800(3) 0.45427(18)
C59 C 0.2280(3) 0.4189(3) 0.49859(18)
H40 H 0.2543 0.4579 0.5285
C60 C 0.1463(3) 0.4013(3) 0.49923(17)
H41 H 0.1164 0.4293 0.5291
C61 C 0.1072(2) 0.3433(3) 0.45685(16)
H42 H 0.0509 0.3306 0.4582
C62 C 0.3598(3) 0.3999(4) 0.4557(2)
H43 H 0.3797 0.4444 0.4851
C63 C 0.4088(4) 0.3682(5) 0.4254(3)
H44 H 0.3931 0.3233 0.3951
H45 H 0.4639 0.3877 0.4313
loop_
_geom_bond_atom_site_label_1
_geom_bond_atom_site_label_2
_geom_bond_site_symmetry_1
_geom_bond_site_symmetry_2
Br1 C11 1_555 1_555
N1 N2 1_555 1_555
N2 C1 1_555 1_555
N3 C1 1_555 1_555
C1 C14 1_555 1_555
C2 N3 1_555 1_555
C3 C2 1_555 1_555
H1 C3 1_555 1_555
C4 C3 1_555 1_555
H2 C4 1_555 1_555
C5 C4 1_555 1_555
H3 C5 1_555 1_555
C6 C5 1_555 1_555
H4 C6 1_555 1_555
C7 N1 1_555 1_555
C8 N1 1_555 1_555
C9 C8 1_555 1_555
H5 C9 1_555 1_555
C10 C9 1_555 1_555
H6 C10 1_555 1_555
C11 C10 1_555 1_555
C12 C11 1_555 1_555
H7 C12 1_555 1_555
C13 C8 1_555 1_555
H8 C13 1_555 1_555
C14 C15 1_555 1_555
C15 H9 1_555 1_555
C16 C15 1_555 1_555
C17 C16 1_555 1_555
H10 C17 1_555 1_555
C18 C17 1_555 1_555
H11 C18 1_555 1_555
C19 C14 1_555 1_555
H12 C19 1_555 1_555
C20 C16 1_555 1_555
H13 C20 1_555 1_555
C21 C20 1_555 1_555
H14 C21 1_555 1_555
H15 C21 1_555 1_555
Br2 C32 1_555 1_555
N4 N5 1_555 1_555
N5 C22 1_555 1_555
N6 C22 1_555 1_555
C22 C35 1_555 1_555
C23 N6 1_555 1_555
C24 C23 1_555 1_555
H16 C24 1_555 1_555
C25 C24 1_555 1_555
H17 C25 1_555 1_555
C26 C25 1_555 1_555
H18 C26 1_555 1_555
C27 C26 1_555 1_555
H19 C27 1_555 1_555
C28 N4 1_555 1_555
C29 N4 1_555 1_555
C30 C29 1_555 1_555
H20 C30 1_555 1_555
C31 C30 1_555 1_555
H21 C31 1_555 1_555
C32 C31 1_555 1_555
C33 C32 1_555 1_555
H22 C33 1_555 1_555
C34 C29 1_555 1_555
H23 C34 1_555 1_555
C35 C36 1_555 1_555
C36 H24 1_555 1_555
C37 C36 1_555 1_555
C38 C37 1_555 1_555
H25 C38 1_555 1_555
C39 C38 1_555 1_555
H26 C39 1_555 1_555
C40 C35 1_555 1_555
H27 C40 1_555 1_555
C41 C37 1_555 1_555
H28 C41 1_555 1_555
C42 C41 1_555 1_555
H29 C42 1_555 1_555
H30 C42 1_555 1_555
Br3 C53 1_555 1_555
N7 N8 1_555 1_555
N8 C43 1_555 1_555
N9 C43 1_555 1_555
C43 C56 1_555 1_555
C44 N9 1_555 1_555
C45 C44 1_555 1_555
H31 C45 1_555 1_555
C46 C45 1_555 1_555
H32 C46 1_555 1_555
C47 C46 1_555 1_555
H33 C47 1_555 1_555
C48 C47 1_555 1_555
H34 C48 1_555 1_555
C49 N7 1_555 1_555
C50 N7 1_555 1_555
C51 C50 1_555 1_555
H35 C51 1_555 1_555
C52 C51 1_555 1_555
H36 C52 1_555 1_555
C53 C52 1_555 1_555
C54 C53 1_555 1_555
H37 C54 1_555 1_555
C55 C50 1_555 1_555
H38 C55 1_555 1_555
C56 C57 1_555 1_555
C57 H39 1_555 1_555
C58 C57 1_555 1_555
C59 C58 1_555 1_555
H40 C59 1_555 1_555
C60 C59 1_555 1_555
H41 C60 1_555 1_555
C61 C56 1_555 1_555
H42 C61 1_555 1_555
C62 C58 1_555 1_555
H43 C62 1_555 1_555
C63 C62 1_555 1_555
H44 C63 1_555 1_555
H45 C63 1_555 1_555
C2 C7 1_555 1_555
C6 C7 1_555 1_555
C12 C13 1_555 1_555
C18 C19 1_555 1_555
C23 C28 1_555 1_555
C27 C28 1_555 1_555
C33 C34 1_555 1_555
C39 C40 1_555 1_555
C44 C49 1_555 1_555
C48 C49 1_555 1_555
C54 C55 1_555 1_555
C60 C61 1_555 1_555

#END
