
#######################################################################
#
#                 Cambridge Crystallographic Data Centre
#                                CCDC 
#
#######################################################################
#
# If this CIF has been generated from an entry in the Cambridge 
# Structural Database, then it will include bibliographic, chemical, 
# crystal, experimental, refinement or atomic coordinate data resulting 
# from the CCDC's data processing and validation procedures.
#
#######################################################################

data_UNEDIB
_chemical_formula_moiety         'C25 H22 N2 O3 S1'
_chemical_name_systematic        
N-(2-Hydroxy-4-methyl-2-phenyl-3,4-dihydrocyclopenta[b]indol-1(2H)-ylidene)-4-methylbenzenesulfonamide
_symmetry_cell_setting           monoclinic
_symmetry_space_group_name_H-M   'P 21/n'
_symmetry_Int_Tables_number      14
_space_group_name_Hall           '-P 2yn'
loop_
_symmetry_equiv_pos_site_id
_symmetry_equiv_pos_as_xyz
1 x,y,z
2 1/2-x,1/2+y,1/2-z
3 -x,-y,-z
4 1/2+x,1/2-y,1/2+z
_cell_length_a                   12.0185(4)
_cell_length_b                   12.5790(5)
_cell_length_c                   14.3185(5)
_cell_angle_alpha                90
_cell_angle_beta                 98.130(3)
_cell_angle_gamma                90
_cell_volume                     2142.93
_exptl_crystal_colour            yellow
_exptl_crystal_description       block
_chemical_melting_point          219-220deg.C
_cell_formula_units_Z            4
_exptl_crystal_recrystallization_method 'ethyl acetate'
loop_
_atom_site_label
_atom_site_type_symbol
_atom_site_fract_x
_atom_site_fract_y
_atom_site_fract_z
S1 S 0.30691(4) 0.74131(4) 0.05354(4)
O1 O 0.42367(12) 0.41867(12) 0.03267(9)
H1 H 0.4725 0.3733 0.0449
O2 O 0.21104(12) 0.74290(11) -0.01806(11)
O3 O 0.29494(12) 0.78936(12) 0.14244(11)
N1 N 0.07489(13) 0.38878(13) 0.13716(11)
N2 N 0.35930(13) 0.62346(13) 0.07032(12)
C1 C 0.03361(17) 0.67053(17) 0.11152(14)
H2 H 0.0779 0.7301 0.1054
C2 C -0.08007(18) 0.6811(2) 0.11511(16)
H3 H -0.1119 0.7486 0.1108
C3 C -0.14764(18) 0.5944(2) 0.12486(16)
H4 H -0.2241 0.6044 0.1261
C4 C -0.10356(17) 0.4932(2) 0.13278(15)
H5 H -0.1487 0.4344 0.1395
C5 C 0.01071(15) 0.48242(17) 0.13026(13)
C6 C 0.08086(15) 0.56954(16) 0.11721(13)
C7 C 0.19137(15) 0.52398(15) 0.11467(13)
C8 C 0.18034(15) 0.41540(16) 0.12730(13)
C9 C 0.28240(16) 0.35187(15) 0.12269(15)
H6 H 0.2731 0.3050 0.0684
H7 H 0.3021 0.3100 0.1795
C10 C 0.30309(15) 0.54358(15) 0.09678(13)
C11 C 0.37125(15) 0.43810(15) 0.11357(13)
C12 C 0.45534(16) 0.45454(15) 0.20235(13)
C13 C 0.5639(2) 0.4848(2) 0.19857(17)
H8 H 0.5900 0.4886 0.1405
C14 C 0.6354(2) 0.5097(3) 0.2799(2)
H9 H 0.7090 0.5298 0.2756
C15 C 0.6007(2) 0.5053(2) 0.36519(19)
H10 H 0.6485 0.5247 0.4194
C16 C 0.4930(2) 0.4716(2) 0.37032(17)
H11 H 0.4684 0.4656 0.4288
C17 C 0.42106(18) 0.44679(19) 0.28967(15)
H12 H 0.3483 0.4244 0.2944
C18 C 0.03353(19) 0.28139(18) 0.14837(17)
H13 H 0.0011 0.2541 0.0880
H14 H -0.0225 0.2827 0.1899
H15 H 0.0947 0.2366 0.1746
C19 C 0.41807(16) 0.80319(15) 0.00680(14)
C20 C 0.41222(19) 0.81618(18) -0.08881(16)
H16 H 0.3482 0.7951 -0.1288
C21 C 0.5014(2) 0.86055(19) -0.12553(17)
H17 H 0.4967 0.8690 -0.1905
C22 C 0.59668(19) 0.89249(16) -0.06885(17)
C23 C 0.60100(19) 0.8796(2) 0.02682(17)
H18 H 0.6649 0.9012 0.0667
C24 C 0.51255(18) 0.83526(19) 0.06515(16)
H19 H 0.5170 0.8272 0.1301
C25 C 0.6947(2) 0.9391(2) -0.1104(2)
H20 H 0.6951 0.9115 -0.1729
H21 H 0.7636 0.9203 -0.0715
H22 H 0.6876 1.0151 -0.1131
loop_
_geom_bond_atom_site_label_1
_geom_bond_atom_site_label_2
_geom_bond_site_symmetry_1
_geom_bond_site_symmetry_2
S1 O2 1_555 1_555
O1 H1 1_555 1_555
O3 S1 1_555 1_555
N1 C5 1_555 1_555
N2 S1 1_555 1_555
C1 H2 1_555 1_555
C2 C1 1_555 1_555
H3 C2 1_555 1_555
C3 C2 1_555 1_555
H4 C3 1_555 1_555
C4 C3 1_555 1_555
H5 C4 1_555 1_555
C5 C4 1_555 1_555
C6 C1 1_555 1_555
C7 C6 1_555 1_555
C8 N1 1_555 1_555
C9 C8 1_555 1_555
H6 C9 1_555 1_555
H7 C9 1_555 1_555
C10 N2 1_555 1_555
C11 O1 1_555 1_555
C12 C11 1_555 1_555
C13 C12 1_555 1_555
H8 C13 1_555 1_555
C14 C13 1_555 1_555
H9 C14 1_555 1_555
C15 C14 1_555 1_555
H10 C15 1_555 1_555
C16 C15 1_555 1_555
H11 C16 1_555 1_555
C17 C12 1_555 1_555
H12 C17 1_555 1_555
C18 N1 1_555 1_555
H13 C18 1_555 1_555
H14 C18 1_555 1_555
H15 C18 1_555 1_555
C19 S1 1_555 1_555
C20 C19 1_555 1_555
H16 C20 1_555 1_555
C21 C20 1_555 1_555
H17 C21 1_555 1_555
C22 C21 1_555 1_555
C23 C22 1_555 1_555
H18 C23 1_555 1_555
C24 C19 1_555 1_555
H19 C24 1_555 1_555
C25 C22 1_555 1_555
H20 C25 1_555 1_555
H21 C25 1_555 1_555
H22 C25 1_555 1_555
C5 C6 1_555 1_555
C7 C8 1_555 1_555
C7 C10 1_555 1_555
C9 C11 1_555 1_555
C10 C11 1_555 1_555
C16 C17 1_555 1_555
C23 C24 1_555 1_555

#END
