
#######################################################################
#
#                 Cambridge Crystallographic Data Centre
#                                CCDC 
#
#######################################################################
#
# If this CIF has been generated from an entry in the Cambridge 
# Structural Database, then it will include bibliographic, chemical, 
# crystal, experimental, refinement or atomic coordinate data resulting 
# from the CCDC's data processing and validation procedures.
#
#######################################################################

data_UNEHEB
_chemical_formula_moiety         'C29 H25 N1 O2'
_chemical_name_systematic        
4-(3,3-Diphenyl-3H-benzo[f]chromen-6-yl)morpholine
_symmetry_cell_setting           monoclinic
_symmetry_space_group_name_H-M   'P 21/c'
_symmetry_Int_Tables_number      14
_space_group_name_Hall           '-P 2ybc'
loop_
_symmetry_equiv_pos_site_id
_symmetry_equiv_pos_as_xyz
1 x,y,z
2 -x,1/2+y,1/2-z
3 -x,-y,-z
4 x,1/2-y,1/2+z
_cell_length_a                   16.110(5)
_cell_length_b                   6.511(2)
_cell_length_c                   23.934(6)
_cell_angle_alpha                90
_cell_angle_beta                 119.984(15)
_cell_angle_gamma                90
_cell_volume                     2174.5
_exptl_crystal_colour            colorless
_exptl_crystal_description       parallelepiped
_cell_formula_units_Z            4
loop_
_atom_site_label
_atom_site_type_symbol
_atom_site_fract_x
_atom_site_fract_y
_atom_site_fract_z
N1 N 0.34470(15) 0.0300(3) 0.04445(10)
O1 O 0.22786(12) 0.2705(3) 0.18024(8)
O2 O 0.28228(17) -0.2093(4) -0.06862(12)
C1 C 0.19834(18) 0.4472(4) 0.20341(12)
C2 C 0.2821(2) 0.5897(4) 0.23960(14)
C3 C 0.3527(2) 0.5951(4) 0.22797(13)
C4 C 0.35489(17) 0.4613(4) 0.18063(11)
C5 C 0.42277(17) 0.4706(4) 0.15937(11)
C6 C 0.4935(2) 0.6260(5) 0.17985(15)
C7 C 0.5606(2) 0.6277(6) 0.16198(16)
C8 C 0.5641(2) 0.4702(6) 0.12364(15)
C9 C 0.4963(2) 0.3215(5) 0.10149(14)
C10 C 0.42276(18) 0.3197(4) 0.11637(12)
C11 C 0.34908(18) 0.1657(4) 0.09163(12)
C12 C 0.28732(19) 0.1567(4) 0.11398(12)
C13 C 0.29067(17) 0.3009(4) 0.15857(12)
C14 C 0.11460(19) 0.5454(4) 0.14416(12)
C15 C 0.0347(2) 0.4286(5) 0.10636(14)
C16 C -0.0428(2) 0.5117(7) 0.05207(15)
C17 C -0.0407(3) 0.7159(7) 0.03751(19)
C18 C 0.0374(3) 0.8327(6) 0.07493(18)
C19 C 0.1147(3) 0.7490(5) 0.12806(16)
C20 C 0.16574(17) 0.3621(4) 0.24798(12)
C21 C 0.1153(2) 0.4883(6) 0.26666(14)
C22 C 0.0865(2) 0.4249(8) 0.30861(16)
C23 C 0.1067(3) 0.2268(8) 0.33198(18)
C24 C 0.1560(3) 0.1010(7) 0.31396(16)
C25 C 0.1857(2) 0.1630(5) 0.27172(14)
C26 C 0.2879(3) -0.1547(4) 0.03329(18)
C27 C 0.3064(3) -0.2990(6) -0.0085(2)
C28 C 0.3325(3) -0.0237(6) -0.05963(18)
C29 C 0.3165(2) 0.1245(5) -0.01805(14)
H1 H 0.2782(18) 0.663(4) 0.2713(12)
H2 H 0.4089(19) 0.676(4) 0.2543(13)
H3 H 0.4901(18) 0.729(4) 0.2071(13)
H4 H 0.613(2) 0.735(5) 0.1765(15)
H5 H 0.614(2) 0.475(4) 0.1117(12)
H6 H 0.505(2) 0.214(5) 0.0766(14)
H7 H 0.2339(18) 0.059(4) 0.1003(11)
H8 H 0.0334(19) 0.271(5) 0.1164(13)
H9 H -0.099(2) 0.430(5) 0.0275(16)
H10 H -0.089(3) 0.772(6) -0.0007(19)
H11 H 0.044(2) 0.993(6) 0.0670(16)
H12 H 0.166(2) 0.821(4) 0.1514(14)
H13 H 0.0997(19) 0.634(4) 0.2491(13)
H14 H 0.045(3) 0.512(6) 0.3212(17)
H15 H 0.084(2) 0.189(5) 0.3595(15)
H16 H 0.171(2) -0.034(5) 0.3282(14)
H17 H 0.2258(18) 0.082(4) 0.2567(12)
H18 H 0.309(2) -0.222(5) 0.0760(15)
H19 H 0.214(2) -0.127(4) 0.0105(13)
H20 H 0.265(3) -0.429(6) -0.0182(18)
H21 H 0.380(2) -0.323(5) 0.0155(16)
H22 H 0.320(2) 0.032(5) -0.1013(16)
H23 H 0.409(2) -0.047(4) -0.0398(13)
H24 H 0.3553(17) 0.262(4) -0.0111(12)
H25 H 0.245(2) 0.165(4) -0.0400(12)
loop_
_geom_bond_atom_site_label_1
_geom_bond_atom_site_label_2
_geom_bond_site_symmetry_1
_geom_bond_site_symmetry_2
N1 C11 1_555 1_555
O1 C1 1_555 1_555
O2 C27 1_555 1_555
C1 C2 1_555 1_555
C2 C3 1_555 1_555
C3 C4 1_555 1_555
C4 C5 1_555 1_555
C5 C6 1_555 1_555
C6 C7 1_555 1_555
C7 C8 1_555 1_555
C8 C9 1_555 1_555
C9 C10 1_555 1_555
C10 C5 1_555 1_555
C11 C10 1_555 1_555
C12 C11 1_555 1_555
C13 O1 1_555 1_555
C14 C1 1_555 1_555
C15 C14 1_555 1_555
C16 C15 1_555 1_555
C17 C16 1_555 1_555
C18 C17 1_555 1_555
C19 C14 1_555 1_555
C20 C1 1_555 1_555
C21 C20 1_555 1_555
C22 C21 1_555 1_555
C23 C22 1_555 1_555
C24 C23 1_555 1_555
C25 C20 1_555 1_555
C26 N1 1_555 1_555
C27 C26 1_555 1_555
C28 O2 1_555 1_555
C29 N1 1_555 1_555
H1 C2 1_555 1_555
H2 C3 1_555 1_555
H3 C6 1_555 1_555
H4 C7 1_555 1_555
H5 C8 1_555 1_555
H6 C9 1_555 1_555
H7 C12 1_555 1_555
H8 C15 1_555 1_555
H9 C16 1_555 1_555
H10 C17 1_555 1_555
H11 C18 1_555 1_555
H12 C19 1_555 1_555
H13 C21 1_555 1_555
H14 C22 1_555 1_555
H15 C23 1_555 1_555
H16 C24 1_555 1_555
H17 C25 1_555 1_555
H18 C26 1_555 1_555
H19 C26 1_555 1_555
H20 C27 1_555 1_555
H21 C27 1_555 1_555
H22 C28 1_555 1_555
H23 C28 1_555 1_555
H24 C29 1_555 1_555
H25 C29 1_555 1_555
C4 C13 1_555 1_555
C12 C13 1_555 1_555
C18 C19 1_555 1_555
C24 C25 1_555 1_555
C28 C29 1_555 1_555

#END
