
#######################################################################
#
#                 Cambridge Crystallographic Data Centre
#                                CCDC 
#
#######################################################################
#
# If this CIF has been generated from an entry in the Cambridge 
# Structural Database, then it will include bibliographic, chemical, 
# crystal, experimental, refinement or atomic coordinate data resulting 
# from the CCDC's data processing and validation procedures.
#
#######################################################################

data_UNEJAA
_chemical_formula_moiety         'C52 H38 N6 O12,2.25(C3 H7 N1 O1)'
_chemical_name_systematic        
'1,8,16,23,31,38-hexaazatetradecacyclo[41.7.1.1^8,11^.1^10,14^.1^13,16^.1^23,26^.1^25,29^.1^28,31^.1^38,46^.0^2,7^.0^17,22^.0^32,37^.0^40,45^.0^44,49^]octapentaconta-10(57),11,13,25(54),26,28,40,42,44,46,48-undecaene-9,15,24,30,39,50,51,52,53,55,56,58-dodecone N,N-dimethylformamide solvate'
_symmetry_cell_setting           monoclinic
_symmetry_space_group_name_H-M   'P 21'
_symmetry_Int_Tables_number      4
_space_group_name_Hall           'P 2yb'
loop_
_symmetry_equiv_pos_site_id
_symmetry_equiv_pos_as_xyz
1 x,y,z
2 -x,1/2+y,-z
_cell_length_a                   18.6699(9)
_cell_length_b                   18.7951(9)
_cell_length_c                   33.5586(16)
_cell_angle_alpha                90
_cell_angle_beta                 94.656(2)
_cell_angle_gamma                90
_cell_volume                     11736.9
_exptl_crystal_colour            colorless
_exptl_crystal_description       needle
_cell_formula_units_Z            8
loop_
_atom_site_label
_atom_site_type_symbol
_atom_site_fract_x
_atom_site_fract_y
_atom_site_fract_z
O1 O 0.5117(2) 0.4688(3) 0.19757(13)
O2 O 0.5841(3) 0.3025(4) 0.35065(14)
O3 O 0.7988(3) 0.2392(3) 0.30401(14)
O4 O 0.7170(2) 0.3816(2) 0.14972(12)
O5 O 0.6509(3) 0.4058(3) 0.42927(16)
O6 O 0.7703(3) 0.7003(3) 0.40743(15)
O7 O 0.9730(3) 0.6030(2) 0.36238(15)
O8 O 0.8571(3) 0.3084(3) 0.38759(16)
O9 O 0.7203(2) 0.7872(2) 0.32510(14)
O10 O 0.5739(2) 0.6175(2) 0.15210(14)
O11 O 0.7960(2) 0.5360(2) 0.12807(13)
O12 O 0.9461(2) 0.7278(3) 0.29412(14)
N1 N 0.6112(3) 0.4373(3) 0.16469(14)
N2 N 0.6970(3) 0.2628(3) 0.33665(15)
N3 N 0.7459(3) 0.3389(3) 0.40813(17)
N4 N 0.8780(3) 0.6687(3) 0.38284(16)
N5 N 0.8340(2) 0.7527(3) 0.31199(15)
N6 N 0.6843(3) 0.5682(3) 0.14314(14)
C1 C 0.5677(3) 0.4364(4) 0.19608(17)
C2 C 0.6047(3) 0.3893(3) 0.22803(18)
C3 C 0.5840(4) 0.3704(4) 0.26591(18)
H1 H 0.5398 0.3848 0.2755
C4 C 0.6336(3) 0.3290(4) 0.28793(17)
C5 C 0.6306(4) 0.2971(5) 0.3284(2)
C6 C 0.7398(4) 0.2653(3) 0.30498(19)
C7 C 0.6993(3) 0.3073(3) 0.27375(18)
C8 C 0.7186(3) 0.3267(3) 0.23626(17)
H2 H 0.7631 0.3132 0.2266
C9 C 0.6681(3) 0.3672(3) 0.21391(17)
C10 C 0.6713(3) 0.3948(3) 0.17253(18)
C11 C 0.7184(4) 0.2229(4) 0.37418(18)
H3 H 0.7703 0.2100 0.3737
C12 C 0.6761(5) 0.1542(4) 0.3765(2)
H4 H 0.6812 0.1255 0.3522
H5 H 0.6245 0.1652 0.3779
C13 C 0.7037(6) 0.1112(4) 0.4138(2)
H6 H 0.7545 0.0974 0.4118
H7 H 0.6749 0.0672 0.4157
C14 C 0.6974(6) 0.1578(5) 0.4517(2)
H8 H 0.6461 0.1684 0.4547
H9 H 0.7168 0.1313 0.4757
C15 C 0.7393(5) 0.2282(4) 0.4483(2)
H10 H 0.7341 0.2576 0.4724
H11 H 0.7910 0.2177 0.4469
C16 C 0.7109(4) 0.2691(4) 0.41112(19)
H12 H 0.6585 0.2778 0.4132
C17 C 0.7084(4) 0.4027(4) 0.4169(2)
C18 C 0.7597(4) 0.4623(4) 0.40783(18)
C19 C 0.7497(4) 0.5345(4) 0.41155(19)
H13 H 0.7078 0.5547 0.4212
C20 C 0.8065(4) 0.5750(3) 0.39993(18)
C21 C 0.8129(4) 0.6537(3) 0.3973(2)
C22 C 0.9152(4) 0.6058(3) 0.37573(19)
C23 C 0.8686(3) 0.5455(3) 0.38664(18)
C24 C 0.8781(4) 0.4741(4) 0.3843(2)
H14 H 0.9209 0.4539 0.3758
C25 C 0.8210(3) 0.4317(4) 0.39526(18)
C26 C 0.8130(4) 0.3527(4) 0.3958(2)
C27 C 0.9088(3) 0.7387(3) 0.37749(19)
H15 H 0.9557 0.7321 0.3655
C28 C 0.9239(4) 0.7783(4) 0.4178(2)
H16 H 0.8780 0.7864 0.4300
H17 H 0.9550 0.7485 0.4364
C29 C 0.9602(4) 0.8487(4) 0.4119(2)
H18 H 1.0083 0.8399 0.4024
H19 H 0.9671 0.8735 0.4379
C30 C 0.9175(4) 0.8968(4) 0.3819(2)
H20 H 0.8724 0.9121 0.3930
H21 H 0.9459 0.9398 0.3768
C31 C 0.8998(4) 0.8568(3) 0.3427(2)
H22 H 0.8687 0.8869 0.3243
H23 H 0.9447 0.8471 0.3300
C32 C 0.8618(4) 0.7871(3) 0.34965(19)
H24 H 0.8188 0.7993 0.3642
C33 C 0.7592(3) 0.7569(3) 0.30278(19)
C34 C 0.7287(3) 0.7229(3) 0.26571(19)
C35 C 0.6556(3) 0.7223(3) 0.25667(19)
H25 H 0.6252 0.7456 0.2739
C36 C 0.6261(4) 0.6882(3) 0.2228(2)
H26 H 0.5756 0.6892 0.2163
C37 C 0.6710(3) 0.6522(3) 0.19794(19)
C38 C 0.6374(3) 0.6131(3) 0.16304(18)
C39 C 0.7594(3) 0.5702(3) 0.14950(17)
C40 C 0.7907(3) 0.6151(3) 0.18204(19)
C41 C 0.8643(3) 0.6185(3) 0.1904(2)
H27 H 0.8950 0.5961 0.1730
C42 C 0.8939(3) 0.6546(3) 0.22402(19)
H28 H 0.9446 0.6564 0.2296
C43 C 0.8488(3) 0.6879(3) 0.24948(19)
C44 C 0.8819(3) 0.7230(3) 0.28652(18)
C45 C 0.7752(3) 0.6880(3) 0.24065(18)
C46 C 0.7440(3) 0.6517(3) 0.20646(18)
C47 C 0.6526(3) 0.5182(3) 0.11163(17)
H29 H 0.6920 0.4850 0.1054
C48 C 0.6293(4) 0.5554(4) 0.07352(19)
H30 H 0.6693 0.5849 0.0651
H31 H 0.5885 0.5874 0.0779
C49 C 0.6066(4) 0.5021(4) 0.04061(19)
H32 H 0.6487 0.4737 0.0341
H33 H 0.5882 0.5279 0.0162
C50 C 0.5474(4) 0.4518(4) 0.05413(19)
H34 H 0.5030 0.4795 0.0570
H35 H 0.5365 0.4151 0.0334
C51 C 0.5703(4) 0.4159(4) 0.09353(19)
H36 H 0.6115 0.3840 0.0900
H37 H 0.5302 0.3865 0.1020
C52 C 0.5920(3) 0.4717(3) 0.12642(16)
H38 H 0.5495 0.5030 0.1295
O13 O -0.0137(2) 0.3763(2) 0.93356(14)
O14 O 0.0466(2) 0.6928(2) 0.92887(12)
O15 O 0.2688(2) 0.6521(2) 0.99287(13)
O16 O 0.2147(2) 0.3382(2) 0.99048(14)
O17 O 0.1323(2) 0.7641(2) 0.83940(14)
O18 O 0.2964(2) 0.5966(3) 0.72338(12)
O19 O 0.4837(2) 0.5694(3) 0.81885(13)
O20 O 0.3263(2) 0.7573(2) 0.93144(13)
O21 O 0.2411(2) 0.4360(2) 0.71984(14)
O22 O 0.0692(2) 0.2689(3) 0.87245(14)
O23 O 0.2877(2) 0.2164(2) 0.93602(14)
O24 O 0.4577(2) 0.3960(3) 0.78863(14)
N7 N 0.0981(3) 0.3375(2) 0.95941(15)
N8 N 0.1603(2) 0.6918(2) 0.96153(14)
N9 N 0.2161(2) 0.7616(2) 0.89408(14)
N10 N 0.3961(3) 0.5678(3) 0.76589(14)
N11 N 0.3502(2) 0.4212(2) 0.75483(14)
N12 N 0.1768(3) 0.2487(3) 0.90722(15)
C53 C 0.0468(3) 0.3885(3) 0.94632(18)
C54 C 0.0820(3) 0.4601(3) 0.95211(17)
C55 C 0.0569(3) 0.5267(3) 0.94220(18)
H39 H 0.0101 0.5346 0.9298
C56 C 0.1052(3) 0.5825(3) 0.95162(18)
C57 C 0.0969(3) 0.6605(3) 0.94485(16)
C58 C 0.2102(3) 0.6400(3) 0.97692(17)
C59 C 0.1737(3) 0.5696(3) 0.97067(18)
C60 C 0.1997(3) 0.5025(3) 0.98107(18)
H40 H 0.2459 0.4944 0.9942
C61 C 0.1513(3) 0.4483(3) 0.97032(17)
C62 C 0.1615(3) 0.3691(3) 0.97542(17)
C63 C 0.1774(3) 0.7677(3) 0.96360(16)
H41 H 0.2272 0.7736 0.9765
C64 C 0.1256(3) 0.8080(3) 0.98823(17)
H42 H 0.0766 0.8060 0.9747
H43 H 0.1245 0.7853 1.0148
C65 C 0.1492(3) 0.8848(3) 0.99328(18)
H44 H 0.1969 0.8866 1.0085
H45 H 0.1146 0.9107 1.0088
C66 C 0.1536(3) 0.9212(3) 0.95296(17)
H46 H 0.1047 0.9261 0.9395
H47 H 0.1738 0.9696 0.9572
C67 C 0.2001(3) 0.8796(3) 0.92628(19)
H48 H 0.2505 0.8801 0.9380
H49 H 0.1986 0.9025 0.8997
C68 C 0.1739(3) 0.8019(3) 0.92156(16)
H50 H 0.1226 0.8024 0.9104
C69 C 0.1903(3) 0.7460(3) 0.85532(18)
C70 C 0.2485(3) 0.7052(3) 0.83729(17)
C71 C 0.2494(3) 0.6755(3) 0.79951(18)
H51 H 0.2099 0.6797 0.7799
C72 C 0.3116(3) 0.6396(3) 0.79220(19)
C73 C 0.3302(3) 0.6006(3) 0.75536(18)
C74 C 0.4256(3) 0.5868(3) 0.80390(18)
C75 C 0.3708(3) 0.6348(3) 0.82124(19)
C76 C 0.3700(3) 0.6677(3) 0.85799(19)
H52 H 0.4104 0.6660 0.8771
C77 C 0.3088(3) 0.7026(3) 0.86549(19)
C78 C 0.2883(3) 0.7429(3) 0.90188(19)
C79 C 0.4337(3) 0.5205(3) 0.73987(17)
H53 H 0.4757 0.4995 0.7561
C80 C 0.4622(4) 0.5601(4) 0.7046(2)
H54 H 0.4214 0.5804 0.6877
H55 H 0.4932 0.6000 0.7149
C81 C 0.5047(4) 0.5118(5) 0.6798(2)
H56 H 0.5470 0.4932 0.6963
H57 H 0.5221 0.5388 0.6572
C82 C 0.4575(4) 0.4502(4) 0.6640(2)
H58 H 0.4864 0.4175 0.6485
H59 H 0.4177 0.4689 0.6457
C83 C 0.4262(4) 0.4086(4) 0.6982(2)
H60 H 0.3932 0.3711 0.6870
H61 H 0.4655 0.3854 0.7150
C84 C 0.3860(3) 0.4592(3) 0.72338(18)
H62 H 0.3470 0.4809 0.7051
C85 C 0.2757(3) 0.4133(3) 0.74991(19)
C86 C 0.2390(3) 0.3766(3) 0.78220(19)
C87 C 0.1663(4) 0.3701(4) 0.7786(2)
H63 H 0.1390 0.3879 0.7556
C88 C 0.1316(4) 0.3364(3) 0.8095(2)
H64 H 0.0806 0.3335 0.8081
C89 C 0.1732(3) 0.3076(3) 0.84207(19)
C90 C 0.1334(3) 0.2743(3) 0.87435(18)
C91 C 0.2531(3) 0.2462(3) 0.90897(19)
C92 C 0.2884(3) 0.2812(3) 0.8765(2)
C93 C 0.3621(4) 0.2844(3) 0.8784(2)
H65 H 0.3896 0.2619 0.9000
C94 C 0.3973(4) 0.3201(3) 0.8491(2)
H66 H 0.4483 0.3232 0.8507
C95 C 0.3552(4) 0.3513(3) 0.81730(19)
C96 C 0.3927(3) 0.3894(3) 0.78640(18)
C97 C 0.2821(4) 0.3471(3) 0.81380(19)
C98 C 0.2465(3) 0.3126(3) 0.8454(2)
C99 C 0.1446(3) 0.2167(3) 0.94185(18)
H67 H 0.1834 0.2134 0.9641
C100 C 0.1171(4) 0.1415(3) 0.9332(2)
H68 H 0.1547 0.1128 0.9217
H69 H 0.0744 0.1430 0.9137
C101 C 0.0972(3) 0.1079(3) 0.9725(2)
H70 H 0.0779 0.0595 0.9671
H71 H 0.1409 0.1037 0.9911
C102 C 0.0413(4) 0.1524(3) 0.9919(2)
H72 H 0.0326 0.1317 1.0182
H73 H -0.0045 0.1515 0.9748
C103 C 0.0671(4) 0.2297(3) 0.9975(2)
H74 H 0.0294 0.2585 1.0090
H75 H 0.1109 0.2312 1.0162
C104 C 0.0831(3) 0.2601(3) 0.95723(18)
H76 H 0.0396 0.2529 0.9383
O25 O 0.2769(3) 0.9003(2) 0.34423(13)
O26 O 0.2654(3) 1.0385(2) 0.18309(14)
O27 O 0.4222(2) 0.8728(3) 0.14132(13)
O28 O 0.4506(3) 0.7476(3) 0.30688(14)
O29 O 0.1374(3) 0.9321(2) 0.13105(16)
O30 O 0.0347(2) 0.6287(2) 0.13825(16)
O31 O 0.2247(3) 0.5570(2) 0.07045(14)
O32 O 0.3197(3) 0.8585(2) 0.05760(13)
O33 O 0.0221(2) 0.5375(3) 0.21293(16)
O34 O 0.2231(2) 0.7136(2) 0.36992(14)
O35 O 0.4227(2) 0.5968(2) 0.33658(14)
O36 O 0.2309(2) 0.4666(2) 0.16314(13)
N13 N 0.3634(3) 0.8145(3) 0.33507(14)
N14 N 0.3424(3) 0.9640(3) 0.15227(14)
N15 N 0.2348(3) 0.9142(3) 0.09302(15)
N16 N 0.1258(3) 0.5742(3) 0.10663(16)
N17 N 0.1264(3) 0.5076(2) 0.18518(16)
N18 N 0.3264(3) 0.6664(3) 0.34913(16)
C105 C 0.3194(3) 0.8709(3) 0.32322(18)
C106 C 0.3326(3) 0.8879(3) 0.28180(18)
C107 C 0.3025(4) 0.9413(3) 0.25636(19)
H77 H 0.2687 0.9749 0.2646
C108 C 0.3260(3) 0.9408(3) 0.21860(18)
C109 C 0.3051(4) 0.9879(3) 0.18372(19)
C110 C 0.3852(3) 0.9047(3) 0.16355(18)
C111 C 0.3756(3) 0.8909(3) 0.20623(18)
C112 C 0.4059(3) 0.8399(3) 0.23203(18)
H78 H 0.4404 0.8067 0.2240
C113 C 0.3834(3) 0.8401(3) 0.26950(18)
C114 C 0.4060(4) 0.7942(3) 0.30538(18)
C115 C 0.3366(3) 0.9939(3) 0.11135(17)
H79 H 0.3681 0.9646 0.0950
C116 C 0.3643(4) 1.0701(3) 0.11112(18)
H80 H 0.4147 1.0716 0.1228
H81 H 0.3350 1.1005 0.1276
C117 C 0.3602(4) 1.0984(4) 0.06788(19)
H82 H 0.3764 1.1486 0.0680
H83 H 0.3926 1.0703 0.0521
C118 C 0.2844(4) 1.0935(4) 0.0488(2)
H84 H 0.2833 1.1103 0.0208
H85 H 0.2529 1.1252 0.0633
C119 C 0.2556(4) 1.0180(3) 0.04945(19)
H86 H 0.2833 0.9875 0.0323
H87 H 0.2047 1.0176 0.0384
C120 C 0.2608(4) 0.9877(3) 0.0923(2)
H88 H 0.2291 1.0172 0.1084
C121 C 0.1747(3) 0.8929(3) 0.1122(2)
C122 C 0.1663(3) 0.8146(3) 0.10661(18)
C123 C 0.1157(3) 0.7690(3) 0.11879(19)
H89 H 0.0757 0.7843 0.1324
C124 C 0.1280(3) 0.6971(3) 0.10946(19)
C125 C 0.0874(3) 0.6317(3) 0.1203(2)
C126 C 0.1836(3) 0.5960(3) 0.08676(18)
C127 C 0.1854(3) 0.6754(3) 0.08915(19)
C128 C 0.2368(3) 0.7222(3) 0.07574(19)
H90 H 0.2761 0.7071 0.0615
C129 C 0.2248(3) 0.7922(3) 0.08532(18)
C130 C 0.2684(4) 0.8561(3) 0.07639(18)
C131 C 0.1090(3) 0.4987(3) 0.1102(2)
H91 H 0.1545 0.4720 0.1070
C132 C 0.0542(4) 0.4736(4) 0.0767(2)
H92 H 0.0702 0.4876 0.0504
H93 H 0.0070 0.4961 0.0798
C133 C 0.0471(4) 0.3924(4) 0.0788(3)
H94 H 0.0111 0.3761 0.0575
H95 H 0.0937 0.3702 0.0741
C134 C 0.0244(4) 0.3681(4) 0.1192(3)
H96 H 0.0229 0.3155 0.1199
H97 H -0.0245 0.3862 0.1228
C135 C 0.0769(4) 0.3954(3) 0.1531(3)
H98 H 0.1245 0.3730 0.1513
H99 H 0.0593 0.3823 0.1792
C136 C 0.0842(3) 0.4774(3) 0.1504(2)
H100 H 0.0345 0.4969 0.1511
C137 C 0.0873(3) 0.5389(3) 0.2159(2)
C138 C 0.1313(3) 0.5706(3) 0.25024(19)
C139 C 0.0954(3) 0.6060(3) 0.2794(2)
H101 H 0.0444 0.6071 0.2777
C140 C 0.1356(3) 0.6399(3) 0.31115(19)
H102 H 0.1116 0.6660 0.3303
C141 C 0.2093(3) 0.6356(3) 0.31472(19)
C142 C 0.2520(3) 0.6746(3) 0.34662(18)
C143 C 0.3610(3) 0.6163(3) 0.32682(18)
C144 C 0.3203(3) 0.5872(3) 0.2907(2)
C145 C 0.3545(4) 0.5502(3) 0.2623(2)
H103 H 0.4051 0.5444 0.2655
C146 C 0.3165(3) 0.5216(3) 0.2293(2)
H104 H 0.3411 0.4966 0.2099
C147 C 0.2432(3) 0.5291(3) 0.22408(19)
C148 C 0.2011(3) 0.4991(3) 0.18922(19)
C149 C 0.2051(3) 0.5654(3) 0.25282(18)
C150 C 0.2455(3) 0.5963(3) 0.28665(19)
C151 C 0.3729(3) 0.7058(3) 0.37969(17)
H105 H 0.4239 0.6958 0.3744
C152 C 0.3632(4) 0.6811(4) 0.42242(19)
H106 H 0.3141 0.6928 0.4295
H107 H 0.3695 0.6289 0.4243
C153 C 0.4184(5) 0.7179(5) 0.4513(2)
H108 H 0.4673 0.7026 0.4455
H109 H 0.4108 0.7033 0.4790
C154 C 0.4133(5) 0.7993(4) 0.4481(2)
H110 H 0.4525 0.8212 0.4656
H111 H 0.3670 0.8154 0.4574
C155 C 0.4187(4) 0.8236(4) 0.4047(2)
H112 H 0.4119 0.8758 0.4029
H113 H 0.4671 0.8123 0.3965
C156 C 0.3622(4) 0.7869(3) 0.37682(17)
H114 H 0.3141 0.7982 0.3863
O37 O 0.6669(3) 0.5125(3) 0.57271(15)
O38 O 0.5815(3) 0.6981(3) 0.70710(15)
O39 O 0.8020(3) 0.6643(3) 0.77416(14)
O40 O 0.8896(2) 0.4778(3) 0.63721(14)
O41 O 0.5775(3) 0.8871(3) 0.70401(15)
O42 O 0.7394(3) 1.0303(3) 0.57793(18)
O43 O 0.9520(3) 0.9549(2) 0.64226(15)
O44 O 0.7901(3) 0.8312(3) 0.77491(14)
O45 O 0.7629(4) 0.9148(5) 0.4974(2)
O46 O 0.7642(3) 0.5502(4) 0.50044(15)
O47 O 0.9815(3) 0.5522(3) 0.57424(15)
O48 O 0.9917(3) 0.9163(3) 0.55510(16)
N19 N 0.7851(3) 0.4899(3) 0.59562(15)
N20 N 0.6859(3) 0.6930(3) 0.74812(15)
N21 N 0.6741(3) 0.8451(3) 0.74467(16)
N22 N 0.8547(3) 1.0012(3) 0.60236(16)
N23 N 0.8732(3) 0.9190(3) 0.53065(17)
N24 N 0.8716(3) 0.5462(3) 0.53809(15)
C157 C 0.7174(3) 0.5199(3) 0.59713(19)
C158 C 0.7198(3) 0.5622(3) 0.6358(2)
C159 C 0.6674(4) 0.6034(4) 0.6507(2)
H115 H 0.6218 0.6114 0.6367
C160 C 0.6868(4) 0.6321(3) 0.68778(19)
C161 C 0.6426(4) 0.6786(4) 0.7137(2)
C162 C 0.7541(3) 0.6609(3) 0.7479(2)
C163 C 0.7541(4) 0.6212(3) 0.7084(2)
C164 C 0.8077(4) 0.5788(3) 0.6932(2)
H116 H 0.8532 0.5707 0.7073
C165 C 0.7884(3) 0.5497(3) 0.65596(19)
C166 C 0.8309(3) 0.5021(3) 0.63070(19)
C167 C 0.6630(4) 0.7319(3) 0.78269(19)
H117 H 0.7065 0.7396 0.8016
C168 C 0.6086(4) 0.6897(3) 0.8050(2)
H118 H 0.5640 0.6830 0.7874
H119 H 0.6286 0.6422 0.8121
C169 C 0.5910(4) 0.7280(4) 0.8428(2)
H120 H 0.6343 0.7294 0.8618
H121 H 0.5532 0.7013 0.8555
C170 C 0.5651(4) 0.8034(4) 0.8339(2)
H122 H 0.5591 0.8283 0.8594
H123 H 0.5176 0.8016 0.8185
C171 C 0.6177(4) 0.8452(3) 0.8100(2)
H124 H 0.5975 0.8927 0.8030
H125 H 0.6637 0.8520 0.8264
C172 C 0.6308(4) 0.8047(3) 0.77240(19)
H126 H 0.5827 0.7961 0.7579
C173 C 0.6408(4) 0.8804(3) 0.71183(19)
C174 C 0.7017(4) 0.9100(3) 0.6891(2)
C175 C 0.6985(4) 0.9483(4) 0.6543(2)
H127 H 0.6543 0.9624 0.6405
C176 C 0.7641(4) 0.9647(3) 0.6408(2)
C177 C 0.7817(4) 1.0024(3) 0.6035(2)
C178 C 0.8893(4) 0.9656(3) 0.6362(2)
C179 C 0.8302(4) 0.9442(3) 0.6615(2)
C180 C 0.8328(4) 0.9087(4) 0.6973(2)
H128 H 0.8772 0.8970 0.7118
C181 C 0.7674(3) 0.8908(3) 0.7113(2)
C182 C 0.7487(4) 0.8525(3) 0.7479(2)
C183 C 0.8944(4) 1.0311(3) 0.5703(2)
H129 H 0.9464 1.0199 0.5766
C184 C 0.8864(4) 1.1132(4) 0.5687(3)
H130 H 0.8350 1.1263 0.5644
H131 H 0.9060 1.1343 0.5944
C185 C 0.9279(5) 1.1421(5) 0.5341(4)
H132 H 0.9212 1.1943 0.5321
H133 H 0.9799 1.1326 0.5399
C186 C 0.9020(5) 1.1076(5) 0.4942(3)
H134 H 0.8506 1.1191 0.4877
H135 H 0.9296 1.1271 0.4728
C187 C 0.9114(5) 1.0276(5) 0.4962(3)
H136 H 0.9631 1.0157 0.5006
H137 H 0.8925 1.0060 0.4705
C188 C 0.8711(4) 0.9975(4) 0.5304(2)
H138 H 0.8195 1.0109 0.5243
C189 C 0.8147(4) 0.8810(5) 0.5132(2)
C190 C 0.8180(4) 0.8038(5) 0.5137(2)
C191 C 0.7575(5) 0.7699(6) 0.4949(3)
H139 H 0.7187 0.7963 0.4822
C192 C 0.7566(5) 0.6963(6) 0.4956(3)
H140 H 0.7175 0.6704 0.4828
C193 C 0.8174(4) 0.6596(4) 0.5164(2)
C194 C 0.8147(3) 0.5828(4) 0.51682(17)
C195 C 0.9305(3) 0.5843(4) 0.55623(19)
C196 C 0.9279(4) 0.6611(4) 0.5530(2)
C197 C 0.9884(4) 0.6975(5) 0.5729(2)
H141 H 1.0264 0.6722 0.5871
C198 C 0.9891(4) 0.7724(4) 0.5705(3)
H142 H 1.0276 0.7989 0.5834
C199 C 0.9325(4) 0.8070(4) 0.5488(2)
C200 C 0.9362(4) 0.8837(4) 0.54511(19)
C201 C 0.8737(4) 0.7720(5) 0.5318(2)
C202 C 0.8728(4) 0.6953(5) 0.5332(2)
C203 C 0.8686(3) 0.4696(4) 0.54306(19)
H143 H 0.9111 0.4558 0.5615
C204 C 0.8739(4) 0.4273(4) 0.5037(2)
H144 H 0.8314 0.4377 0.4850
H145 H 0.9173 0.4423 0.4909
C205 C 0.8776(4) 0.3479(4) 0.5124(2)
H146 H 0.9238 0.3371 0.5278
H147 H 0.8765 0.3217 0.4868
C206 C 0.8152(4) 0.3214(4) 0.5363(3)
H148 H 0.7691 0.3257 0.5197
H149 H 0.8225 0.2706 0.5434
C207 C 0.8126(4) 0.3655(3) 0.5740(2)
H150 H 0.8580 0.3599 0.5910
H151 H 0.7726 0.3490 0.5893
C208 C 0.8014(3) 0.4440(3) 0.56227(18)
H152 H 0.7599 0.4466 0.5415
O49 O 0.7440(3) 0.5992(3) 0.32029(14)
N25 N 0.6222(3) 0.5902(4) 0.3156(2)
C209 C 0.6886(4) 0.5753(5) 0.3062(3)
H153 H 0.6922 0.5412 0.2855
C210 C 0.6104(4) 0.6389(4) 0.3495(3)
H154 H 0.5946 0.6112 0.3719
H155 H 0.5734 0.6739 0.3409
H156 H 0.6553 0.6635 0.3579
C211 C 0.5585(5) 0.5621(6) 0.2915(3)
H157 H 0.5734 0.5417 0.2666
H158 H 0.5243 0.6009 0.2852
H159 H 0.5355 0.5253 0.3067
O50 O 0.2437(4) 0.6559(4) 0.1717(2)
N26 N 0.3644(4) 0.6458(4) 0.1752(3)
C212 C 0.3704(7) 0.6030(9) 0.1401(3)
H160 H 0.3238 0.5809 0.1322
H161 H 0.4066 0.5659 0.1459
H162 H 0.3848 0.6331 0.1183
C213 C 0.3011(5) 0.6706(6) 0.1874(3)
H163 H 0.3031 0.7015 0.2098
C214 C 0.4331(5) 0.6630(7) 0.1974(3)
H164 H 0.4643 0.6210 0.1984
H165 H 0.4246 0.6775 0.2247
H166 H 0.4564 0.7020 0.1840
O51 O 0.2858(5) 0.4350(6) 0.9124(3)
N27 N 0.4114(4) 0.4443(4) 0.9222(2)
C215 C 0.4780(6) 0.4201(8) 0.9434(4)
H167 H 0.5077 0.3963 0.9246
H168 H 0.4671 0.3868 0.9645
H169 H 0.5042 0.4611 0.9553
C216 C 0.4174(5) 0.4778(6) 0.8860(3)
H170 H 0.4407 0.5241 0.8905
H171 H 0.3694 0.4846 0.8724
H172 H 0.4463 0.4484 0.8693
C217 C 0.3488(7) 0.4343(11) 0.9357(4)
H173 H 0.3471 0.4260 0.9635
O53 O 0.1277(3) 0.6004(3) 0.85958(17)
N28 N 0.0158(4) 0.5629(3) 0.8351(2)
C218 C 0.0642(4) 0.6127(4) 0.8475(2)
H178 H 0.0487 0.6608 0.8469
C219 C -0.0581(4) 0.5828(5) 0.8212(3)
H179 H -0.0906 0.5692 0.8414
H180 H -0.0722 0.5582 0.7961
H181 H -0.0607 0.6344 0.8169
C220 C 0.0317(5) 0.4879(5) 0.8331(4)
H182 H 0.0829 0.4802 0.8406
H183 H 0.0198 0.4708 0.8058
H184 H 0.0031 0.4619 0.8515
O54 O -0.0209(5) 0.5435(10) 0.7257(3)
N29 N 0.0829(4) 0.5600(5) 0.6983(3)
C221 C 0.0132(7) 0.5461(14) 0.6960(5)
H185 H -0.0112 0.5379 0.6705
C222 C 0.1228(6) 0.5663(7) 0.7380(4)
H186 H 0.0887 0.5687 0.7587
H187 H 0.1522 0.6095 0.7389
H188 H 0.1540 0.5247 0.7427
C223 C 0.1208(6) 0.5695(6) 0.6640(4)
H189 H 0.0875 0.5654 0.6400
H190 H 0.1582 0.5330 0.6634
H191 H 0.1431 0.6167 0.6648
O55 O 0.7526(3) 0.4920(3) 0.22964(16)
N30 N 0.8685(3) 0.4573(3) 0.24629(17)
C224 C 0.9285(5) 0.4557(6) 0.2771(3)
H192 H 0.9718 0.4742 0.2660
H193 H 0.9370 0.4067 0.2861
H194 H 0.9170 0.4853 0.2997
C225 C 0.8072(4) 0.4885(4) 0.2533(2)
H195 H 0.8048 0.5101 0.2787
C226 C 0.8790(4) 0.4265(4) 0.2078(2)
H196 H 0.9239 0.4444 0.1984
H197 H 0.8387 0.4395 0.1887
H198 H 0.8815 0.3746 0.2103
O56 O 0.4052(7) 0.2652(9) 0.5695(6)
N31 N 0.3536(3) 0.3683(4) 0.5804(2)
C227 C 0.3710(6) 0.2985(6) 0.5878(3)
H199 H 0.3523 0.2768 0.6104
C228 C 0.3891(6) 0.4101(6) 0.5538(3)
H200 H 0.4063 0.3798 0.5328
H201 H 0.4301 0.4339 0.5682
H202 H 0.3559 0.4459 0.5417
C229 C 0.2927(5) 0.4006(6) 0.5988(3)
H203 H 0.2492 0.3964 0.5806
H204 H 0.3028 0.4510 0.6043
H205 H 0.2854 0.3760 0.6239
O58 O 0.8602(5) 0.7449(4) 0.6976(3)
N32 N 0.9773(4) 0.7492(4) 0.7159(3)
C230 C 0.9100(5) 0.7437(6) 0.7222(4)
H210 H 0.8993 0.7381 0.7492
C231 C 1.0319(7) 0.7419(8) 0.7489(4)
H211 H 1.0093 0.7273 0.7730
H212 H 1.0563 0.7877 0.7538
H213 H 1.0671 0.7060 0.7423
C232 C 1.0045(11) 0.7580(9) 0.6761(5)
H214 H 1.0089 0.7112 0.6636
H215 H 1.0516 0.7811 0.6789
H216 H 0.9709 0.7875 0.6593
O59 O 0.7601(3) 0.2635(3) 0.73221(19)
N33 N 0.8739(4) 0.3002(6) 0.7429(3)
C233 C 0.8146(4) 0.2674(6) 0.7545(3)
H217 H 0.8156 0.2470 0.7805
C234 C 0.8816(7) 0.3320(7) 0.7064(5)
H218 H 0.8427 0.3162 0.6871
H219 H 0.9280 0.3185 0.6970
H220 H 0.8795 0.3838 0.7094
C235 C 0.9401(7) 0.2920(12) 0.7738(5)
H221 H 0.9454 0.3349 0.7903
H222 H 0.9834 0.2850 0.7597
H223 H 0.9331 0.2507 0.7909
O52? O 0.3560(6) 0.4937(7) 0.8611(4)
H174? H 0.4635 0.4900 0.8780
H175? H 0.3111 0.4514 0.9160
H176? H 0.3464 0.4605 0.9608
H177? H 0.3418 0.3834 0.9405
O57? O 0.4347(10) 0.3779(15) 0.5323(9)
H206? H 0.4157 0.2959 0.6052
H207? H 0.3774 0.2741 0.5625
H208? H 0.3322 0.2755 0.6011
H209? H 0.3806 0.4598 0.5514
loop_
_geom_bond_atom_site_label_1
_geom_bond_atom_site_label_2
_geom_bond_site_symmetry_1
_geom_bond_site_symmetry_2
O1 C1 1_555 1_555
O2 C5 1_555 1_555
O3 C6 1_555 1_555
O4 C10 1_555 1_555
O5 C17 1_555 1_555
O6 C21 1_555 1_555
O7 C22 1_555 1_555
O8 C26 1_555 1_555
O9 C33 1_555 1_555
O10 C38 1_555 1_555
O11 C39 1_555 1_555
O12 C44 1_555 1_555
N1 C1 1_555 1_555
N2 C5 1_555 1_555
N3 C16 1_555 1_555
N4 C21 1_555 1_555
N5 C32 1_555 1_555
N6 C38 1_555 1_555
C1 C2 1_555 1_555
C2 C3 1_555 1_555
C3 H1 1_555 1_555
C4 C3 1_555 1_555
C5 C4 1_555 1_555
C6 N2 1_555 1_555
C7 C4 1_555 1_555
C8 C7 1_555 1_555
H2 C8 1_555 1_555
C9 C2 1_555 1_555
C10 N1 1_555 1_555
C11 N2 1_555 1_555
H3 C11 1_555 1_555
C12 C11 1_555 1_555
H4 C12 1_555 1_555
H5 C12 1_555 1_555
C13 C12 1_555 1_555
H6 C13 1_555 1_555
H7 C13 1_555 1_555
C14 C13 1_555 1_555
H8 C14 1_555 1_555
H9 C14 1_555 1_555
C15 C14 1_555 1_555
H10 C15 1_555 1_555
H11 C15 1_555 1_555
C16 C11 1_555 1_555
H12 C16 1_555 1_555
C17 N3 1_555 1_555
C18 C17 1_555 1_555
C19 C18 1_555 1_555
H13 C19 1_555 1_555
C20 C19 1_555 1_555
C21 C20 1_555 1_555
C22 N4 1_555 1_555
C23 C20 1_555 1_555
C24 C23 1_555 1_555
H14 C24 1_555 1_555
C25 C18 1_555 1_555
C26 N3 1_555 1_555
C27 N4 1_555 1_555
H15 C27 1_555 1_555
C28 C27 1_555 1_555
H16 C28 1_555 1_555
H17 C28 1_555 1_555
C29 C28 1_555 1_555
H18 C29 1_555 1_555
H19 C29 1_555 1_555
C30 C29 1_555 1_555
H20 C30 1_555 1_555
H21 C30 1_555 1_555
C31 C30 1_555 1_555
H22 C31 1_555 1_555
H23 C31 1_555 1_555
C32 C27 1_555 1_555
H24 C32 1_555 1_555
C33 N5 1_555 1_555
C34 C33 1_555 1_555
C35 C34 1_555 1_555
H25 C35 1_555 1_555
C36 C35 1_555 1_555
H26 C36 1_555 1_555
C37 C36 1_555 1_555
C38 C37 1_555 1_555
C39 N6 1_555 1_555
C40 C39 1_555 1_555
C41 C40 1_555 1_555
H27 C41 1_555 1_555
C42 C41 1_555 1_555
H28 C42 1_555 1_555
C43 C42 1_555 1_555
C44 N5 1_555 1_555
C45 C34 1_555 1_555
C46 C37 1_555 1_555
C47 N6 1_555 1_555
H29 C47 1_555 1_555
C48 C47 1_555 1_555
H30 C48 1_555 1_555
H31 C48 1_555 1_555
C49 C48 1_555 1_555
H32 C49 1_555 1_555
H33 C49 1_555 1_555
C50 C49 1_555 1_555
H34 C50 1_555 1_555
H35 C50 1_555 1_555
C51 C50 1_555 1_555
H36 C51 1_555 1_555
H37 C51 1_555 1_555
C52 N1 1_555 1_555
H38 C52 1_555 1_555
O13 C53 1_555 1_555
O14 C57 1_555 1_555
O15 C58 1_555 1_555
O16 C62 1_555 1_555
O17 C69 1_555 1_555
O18 C73 1_555 1_555
O19 C74 1_555 1_555
O20 C78 1_555 1_555
O21 C85 1_555 1_555
O22 C90 1_555 1_555
O23 C91 1_555 1_555
O24 C96 1_555 1_555
N7 C53 1_555 1_555
N8 C57 1_555 1_555
N9 C68 1_555 1_555
N10 C73 1_555 1_555
N11 C84 1_555 1_555
N12 C90 1_555 1_555
C53 C54 1_555 1_555
C54 C55 1_555 1_555
C55 H39 1_555 1_555
C56 C55 1_555 1_555
C57 C56 1_555 1_555
C58 N8 1_555 1_555
C59 C56 1_555 1_555
C60 C59 1_555 1_555
H40 C60 1_555 1_555
C61 C54 1_555 1_555
C62 N7 1_555 1_555
C63 N8 1_555 1_555
H41 C63 1_555 1_555
C64 C63 1_555 1_555
H42 C64 1_555 1_555
H43 C64 1_555 1_555
C65 C64 1_555 1_555
H44 C65 1_555 1_555
H45 C65 1_555 1_555
C66 C65 1_555 1_555
H46 C66 1_555 1_555
H47 C66 1_555 1_555
C67 C66 1_555 1_555
H48 C67 1_555 1_555
H49 C67 1_555 1_555
C68 C63 1_555 1_555
H50 C68 1_555 1_555
C69 N9 1_555 1_555
C70 C69 1_555 1_555
C71 C70 1_555 1_555
H51 C71 1_555 1_555
C72 C71 1_555 1_555
C73 C72 1_555 1_555
C74 N10 1_555 1_555
C75 C72 1_555 1_555
C76 C75 1_555 1_555
H52 C76 1_555 1_555
C77 C70 1_555 1_555
C78 N9 1_555 1_555
C79 N10 1_555 1_555
H53 C79 1_555 1_555
C80 C79 1_555 1_555
H54 C80 1_555 1_555
H55 C80 1_555 1_555
C81 C80 1_555 1_555
H56 C81 1_555 1_555
H57 C81 1_555 1_555
C82 C81 1_555 1_555
H58 C82 1_555 1_555
H59 C82 1_555 1_555
C83 C82 1_555 1_555
H60 C83 1_555 1_555
H61 C83 1_555 1_555
C84 C79 1_555 1_555
H62 C84 1_555 1_555
C85 N11 1_555 1_555
C86 C85 1_555 1_555
C87 C86 1_555 1_555
H63 C87 1_555 1_555
C88 C87 1_555 1_555
H64 C88 1_555 1_555
C89 C88 1_555 1_555
C90 C89 1_555 1_555
C91 N12 1_555 1_555
C92 C91 1_555 1_555
C93 C92 1_555 1_555
H65 C93 1_555 1_555
C94 C93 1_555 1_555
H66 C94 1_555 1_555
C95 C94 1_555 1_555
C96 N11 1_555 1_555
C97 C86 1_555 1_555
C98 C89 1_555 1_555
C99 N12 1_555 1_555
H67 C99 1_555 1_555
C100 C99 1_555 1_555
H68 C100 1_555 1_555
H69 C100 1_555 1_555
C101 C100 1_555 1_555
H70 C101 1_555 1_555
H71 C101 1_555 1_555
C102 C101 1_555 1_555
H72 C102 1_555 1_555
H73 C102 1_555 1_555
C103 C102 1_555 1_555
H74 C103 1_555 1_555
H75 C103 1_555 1_555
C104 N7 1_555 1_555
H76 C104 1_555 1_555
O25 C105 1_555 1_555
O26 C109 1_555 1_555
O27 C110 1_555 1_555
O28 C114 1_555 1_555
O29 C121 1_555 1_555
O30 C125 1_555 1_555
O31 C126 1_555 1_555
O32 C130 1_555 1_555
O33 C137 1_555 1_555
O34 C142 1_555 1_555
O35 C143 1_555 1_555
O36 C148 1_555 1_555
N13 C105 1_555 1_555
N14 C109 1_555 1_555
N15 C120 1_555 1_555
N16 C125 1_555 1_555
N17 C136 1_555 1_555
N18 C142 1_555 1_555
C105 C106 1_555 1_555
C106 C107 1_555 1_555
C107 H77 1_555 1_555
C108 C107 1_555 1_555
C109 C108 1_555 1_555
C110 N14 1_555 1_555
C111 C108 1_555 1_555
C112 C111 1_555 1_555
H78 C112 1_555 1_555
C113 C106 1_555 1_555
C114 N13 1_555 1_555
C115 N14 1_555 1_555
H79 C115 1_555 1_555
C116 C115 1_555 1_555
H80 C116 1_555 1_555
H81 C116 1_555 1_555
C117 C116 1_555 1_555
H82 C117 1_555 1_555
H83 C117 1_555 1_555
C118 C117 1_555 1_555
H84 C118 1_555 1_555
H85 C118 1_555 1_555
C119 C118 1_555 1_555
H86 C119 1_555 1_555
H87 C119 1_555 1_555
C120 C115 1_555 1_555
H88 C120 1_555 1_555
C121 N15 1_555 1_555
C122 C121 1_555 1_555
C123 C122 1_555 1_555
H89 C123 1_555 1_555
C124 C123 1_555 1_555
C125 C124 1_555 1_555
C126 N16 1_555 1_555
C127 C124 1_555 1_555
C128 C127 1_555 1_555
H90 C128 1_555 1_555
C129 C122 1_555 1_555
C130 N15 1_555 1_555
C131 N16 1_555 1_555
H91 C131 1_555 1_555
C132 C131 1_555 1_555
H92 C132 1_555 1_555
H93 C132 1_555 1_555
C133 C132 1_555 1_555
H94 C133 1_555 1_555
H95 C133 1_555 1_555
C134 C133 1_555 1_555
H96 C134 1_555 1_555
H97 C134 1_555 1_555
C135 C134 1_555 1_555
H98 C135 1_555 1_555
H99 C135 1_555 1_555
C136 C131 1_555 1_555
H100 C136 1_555 1_555
C137 N17 1_555 1_555
C138 C137 1_555 1_555
C139 C138 1_555 1_555
H101 C139 1_555 1_555
C140 C139 1_555 1_555
H102 C140 1_555 1_555
C141 C140 1_555 1_555
C142 C141 1_555 1_555
C143 N18 1_555 1_555
C144 C143 1_555 1_555
C145 C144 1_555 1_555
H103 C145 1_555 1_555
C146 C145 1_555 1_555
H104 C146 1_555 1_555
C147 C146 1_555 1_555
C148 N17 1_555 1_555
C149 C138 1_555 1_555
C150 C141 1_555 1_555
C151 N18 1_555 1_555
H105 C151 1_555 1_555
C152 C151 1_555 1_555
H106 C152 1_555 1_555
H107 C152 1_555 1_555
C153 C152 1_555 1_555
H108 C153 1_555 1_555
H109 C153 1_555 1_555
C154 C153 1_555 1_555
H110 C154 1_555 1_555
H111 C154 1_555 1_555
C155 C154 1_555 1_555
H112 C155 1_555 1_555
H113 C155 1_555 1_555
C156 N13 1_555 1_555
H114 C156 1_555 1_555
O37 C157 1_555 1_555
O38 C161 1_555 1_555
O39 C162 1_555 1_555
O40 C166 1_555 1_555
O41 C173 1_555 1_555
O42 C177 1_555 1_555
O43 C178 1_555 1_555
O44 C182 1_555 1_555
O45 C189 1_555 1_555
O46 C194 1_555 1_555
O47 C195 1_555 1_555
O48 C200 1_555 1_555
N19 C157 1_555 1_555
N20 C161 1_555 1_555
N21 C172 1_555 1_555
N22 C177 1_555 1_555
N23 C188 1_555 1_555
N24 C194 1_555 1_555
C157 C158 1_555 1_555
C158 C159 1_555 1_555
C159 H115 1_555 1_555
C160 C159 1_555 1_555
C161 C160 1_555 1_555
C162 N20 1_555 1_555
C163 C160 1_555 1_555
C164 C163 1_555 1_555
H116 C164 1_555 1_555
C165 C158 1_555 1_555
C166 N19 1_555 1_555
C167 N20 1_555 1_555
H117 C167 1_555 1_555
C168 C167 1_555 1_555
H118 C168 1_555 1_555
H119 C168 1_555 1_555
C169 C168 1_555 1_555
H120 C169 1_555 1_555
H121 C169 1_555 1_555
C170 C169 1_555 1_555
H122 C170 1_555 1_555
H123 C170 1_555 1_555
C171 C170 1_555 1_555
H124 C171 1_555 1_555
H125 C171 1_555 1_555
C172 C167 1_555 1_555
H126 C172 1_555 1_555
C173 N21 1_555 1_555
C174 C173 1_555 1_555
C175 C174 1_555 1_555
H127 C175 1_555 1_555
C176 C175 1_555 1_555
C177 C176 1_555 1_555
C178 N22 1_555 1_555
C179 C176 1_555 1_555
C180 C179 1_555 1_555
H128 C180 1_555 1_555
C181 C174 1_555 1_555
C182 N21 1_555 1_555
C183 N22 1_555 1_555
H129 C183 1_555 1_555
C184 C183 1_555 1_555
H130 C184 1_555 1_555
H131 C184 1_555 1_555
C185 C184 1_555 1_555
H132 C185 1_555 1_555
H133 C185 1_555 1_555
C186 C185 1_555 1_555
H134 C186 1_555 1_555
H135 C186 1_555 1_555
C187 C186 1_555 1_555
H136 C187 1_555 1_555
H137 C187 1_555 1_555
C188 C183 1_555 1_555
H138 C188 1_555 1_555
C189 N23 1_555 1_555
C190 C189 1_555 1_555
C191 C190 1_555 1_555
H139 C191 1_555 1_555
C192 C191 1_555 1_555
H140 C192 1_555 1_555
C193 C192 1_555 1_555
C194 C193 1_555 1_555
C195 N24 1_555 1_555
C196 C195 1_555 1_555
C197 C196 1_555 1_555
H141 C197 1_555 1_555
C198 C197 1_555 1_555
H142 C198 1_555 1_555
C199 C198 1_555 1_555
C200 N23 1_555 1_555
C201 C190 1_555 1_555
C202 C193 1_555 1_555
C203 N24 1_555 1_555
H143 C203 1_555 1_555
C204 C203 1_555 1_555
H144 C204 1_555 1_555
H145 C204 1_555 1_555
C205 C204 1_555 1_555
H146 C205 1_555 1_555
H147 C205 1_555 1_555
C206 C205 1_555 1_555
H148 C206 1_555 1_555
H149 C206 1_555 1_555
C207 C206 1_555 1_555
H150 C207 1_555 1_555
H151 C207 1_555 1_555
C208 N19 1_555 1_555
H152 C208 1_555 1_555
O49 C209 1_555 1_555
N25 C209 1_555 1_555
C209 H153 1_555 1_555
C210 N25 1_555 1_555
H154 C210 1_555 1_555
H155 C210 1_555 1_555
H156 C210 1_555 1_555
C211 N25 1_555 1_555
H157 C211 1_555 1_555
H158 C211 1_555 1_555
H159 C211 1_555 1_555
O50 C213 1_555 1_555
N26 C212 1_555 1_555
C212 H160 1_555 1_555
H161 C212 1_555 1_555
H162 C212 1_555 1_555
C213 N26 1_555 1_555
H163 C213 1_555 1_555
C214 N26 1_555 1_555
H164 C214 1_555 1_555
H165 C214 1_555 1_555
H166 C214 1_555 1_555
O51 C217 1_555 1_555
N27 C215 1_555 1_555
C215 H167 1_555 1_555
H168 C215 1_555 1_555
H169 C215 1_555 1_555
C216 N27 1_555 1_555
H170 C216 1_555 1_555
H171 C216 1_555 1_555
H172 C216 1_555 1_555
C217 N27 1_555 1_555
H173 C217 1_555 1_555
O53 C218 1_555 1_555
N28 C218 1_555 1_555
C218 H178 1_555 1_555
C219 N28 1_555 1_555
H179 C219 1_555 1_555
H180 C219 1_555 1_555
H181 C219 1_555 1_555
C220 N28 1_555 1_555
H182 C220 1_555 1_555
H183 C220 1_555 1_555
H184 C220 1_555 1_555
O54 C221 1_555 1_555
N29 C221 1_555 1_555
C221 H185 1_555 1_555
C222 N29 1_555 1_555
H186 C222 1_555 1_555
H187 C222 1_555 1_555
H188 C222 1_555 1_555
C223 N29 1_555 1_555
H189 C223 1_555 1_555
H190 C223 1_555 1_555
H191 C223 1_555 1_555
O55 C225 1_555 1_555
N30 C224 1_555 1_555
C224 H192 1_555 1_555
H193 C224 1_555 1_555
H194 C224 1_555 1_555
C225 N30 1_555 1_555
H195 C225 1_555 1_555
C226 N30 1_555 1_555
H196 C226 1_555 1_555
H197 C226 1_555 1_555
H198 C226 1_555 1_555
O56 C227 1_555 1_555
N31 C227 1_555 1_555
C227 H199 1_555 1_555
C228 N31 1_555 1_555
H200 C228 1_555 1_555
H201 C228 1_555 1_555
H202 C228 1_555 1_555
C229 N31 1_555 1_555
H203 C229 1_555 1_555
H204 C229 1_555 1_555
H205 C229 1_555 1_555
O58 C230 1_555 1_555
N32 C230 1_555 1_555
C230 H210 1_555 1_555
C231 N32 1_555 1_555
H211 C231 1_555 1_555
H212 C231 1_555 1_555
H213 C231 1_555 1_555
C232 N32 1_555 1_555
H214 C232 1_555 1_555
H215 C232 1_555 1_555
H216 C232 1_555 1_555
O59 C233 1_555 1_555
N33 C233 1_555 1_555
C233 H217 1_555 1_555
C234 N33 1_555 1_555
H218 C234 1_555 1_555
H219 C234 1_555 1_555
H220 C234 1_555 1_555
C235 N33 1_555 1_555
H221 C235 1_555 1_555
H222 C235 1_555 1_555
H223 C235 1_555 1_555
C6 C7 1_555 1_555
C8 C9 1_555 1_555
C9 C10 1_555 1_555
C15 C16 1_555 1_555
C22 C23 1_555 1_555
C24 C25 1_555 1_555
C25 C26 1_555 1_555
C31 C32 1_555 1_555
C40 C46 1_555 1_555
C43 C44 1_555 1_555
C43 C45 1_555 1_555
C45 C46 1_555 1_555
C47 C52 1_555 1_555
C51 C52 1_555 1_555
C58 C59 1_555 1_555
C60 C61 1_555 1_555
C61 C62 1_555 1_555
C67 C68 1_555 1_555
C74 C75 1_555 1_555
C76 C77 1_555 1_555
C77 C78 1_555 1_555
C83 C84 1_555 1_555
C92 C98 1_555 1_555
C95 C96 1_555 1_555
C95 C97 1_555 1_555
C97 C98 1_555 1_555
C99 C104 1_555 1_555
C103 C104 1_555 1_555
C110 C111 1_555 1_555
C112 C113 1_555 1_555
C113 C114 1_555 1_555
C119 C120 1_555 1_555
C126 C127 1_555 1_555
C128 C129 1_555 1_555
C129 C130 1_555 1_555
C135 C136 1_555 1_555
C144 C150 1_555 1_555
C147 C148 1_555 1_555
C147 C149 1_555 1_555
C149 C150 1_555 1_555
C151 C156 1_555 1_555
C155 C156 1_555 1_555
C162 C163 1_555 1_555
C164 C165 1_555 1_555
C165 C166 1_555 1_555
C171 C172 1_555 1_555
C178 C179 1_555 1_555
C180 C181 1_555 1_555
C181 C182 1_555 1_555
C187 C188 1_555 1_555
C196 C202 1_555 1_555
C199 C200 1_555 1_555
C199 C201 1_555 1_555
C201 C202 1_555 1_555
C203 C208 1_555 1_555
C207 C208 1_555 1_555

#END
