
#######################################################################
#
#                 Cambridge Crystallographic Data Centre
#                                CCDC 
#
#######################################################################
#
# If this CIF has been generated from an entry in the Cambridge 
# Structural Database, then it will include bibliographic, chemical, 
# crystal, experimental, refinement or atomic coordinate data resulting 
# from the CCDC's data processing and validation procedures.
#
#######################################################################

data_UNEKAB01
_chemical_formula_moiety         'C32 H32'
_chemical_name_systematic        2,3,6,7,10,11,14,15-octamethyltetraphenylene
_symmetry_cell_setting           monoclinic
_symmetry_space_group_name_H-M   'P 2/n'
_symmetry_Int_Tables_number      13
_space_group_name_Hall           '-P 2yac'
loop_
_symmetry_equiv_pos_site_id
_symmetry_equiv_pos_as_xyz
1 x,y,z
2 1/2-x,y,1/2-z
3 -x,-y,-z
4 1/2+x,-y,1/2+z
_cell_length_a                   10.692(5)
_cell_length_b                   9.406(5)
_cell_length_c                   11.906(6)
_cell_angle_alpha                90
_cell_angle_beta                 93.904(6)
_cell_angle_gamma                90
_cell_volume                     1194.6
_exptl_crystal_colour            colorless
_exptl_crystal_description       block
_cell_formula_units_Z            2
loop_
_atom_site_label
_atom_site_type_symbol
_atom_site_fract_x
_atom_site_fract_y
_atom_site_fract_z
C1 C 0.7660(3) -0.0812(3) 0.4350(2)
H1 H 0.7329 -0.1585 0.4766
H2 H 0.8394 -0.1125 0.4000
H3 H 0.7040 -0.0501 0.3782
C2 C 0.7997(2) 0.0396(2) 0.51362(19)
C3 C 0.7514(2) 0.0451(2) 0.61881(19)
H4 H 0.6994 -0.0281 0.6396
C4 C 0.77761(19) 0.1554(2) 0.69426(17)
C5 C 0.8574(2) 0.2631(2) 0.66401(19)
C6 C 0.9064(2) 0.2567(2) 0.5592(2)
H5 H 0.9604 0.3285 0.5391
C7 C 0.8782(2) 0.1481(2) 0.48337(19)
C8 C 0.9303(3) 0.1523(3) 0.3694(2)
H6 H 0.9856 0.2323 0.3654
H7 H 0.8627 0.1611 0.3124
H8 H 0.9758 0.0662 0.3576
C9 C 0.8981(2) 0.3815(2) 0.74132(18)
C10 C 1.0232(2) 0.3889(2) 0.78026(19)
H9 H 1.0767 0.3158 0.7617
C11 C 1.0719(2) 0.5003(2) 0.84550(19)
C12 C 0.9927(2) 0.6116(2) 0.86969(19)
C13 C 0.8682(2) 0.6041(2) 0.83127(18)
H10 H 0.8156 0.6788 0.8480
C14 C 0.8173(2) 0.4905(2) 0.76879(17)
C15 C 1.0418(3) 0.7369(3) 0.9362(2)
H11 H 0.9767 0.8068 0.9398
H12 H 1.1114 0.7775 0.9006
H13 H 1.0689 0.7070 1.0111
C16 C 1.2068(2) 0.4991(3) 0.8890(2)
H14 H 1.2445 0.4105 0.8697
H15 H 1.2121 0.5099 0.9693
H16 H 1.2503 0.5761 0.8558
C1A C 0.7340(3) -0.0812(3) 1.0650(2)
H1A H 0.7671 -0.1585 1.0234
H2A H 0.6606 -0.1125 1.1000
H3A H 0.7960 -0.0501 1.1218
C2A C 0.7003(2) 0.0396(2) 0.98638(19)
C3A C 0.7486(2) 0.0451(2) 0.88119(19)
H4A H 0.8006 -0.0281 0.8604
C4A C 0.72239(19) 0.1554(2) 0.80574(17)
C5A C 0.6426(2) 0.2631(2) 0.83599(19)
C6A C 0.5936(2) 0.2567(2) 0.9408(2)
H5A H 0.5396 0.3285 0.9609
C7A C 0.6218(2) 0.1481(2) 1.01663(19)
C8A C 0.5697(3) 0.1523(3) 1.1306(2)
H6A H 0.5144 0.2323 1.1346
H7A H 0.6373 0.1611 1.1876
H8A H 0.5242 0.0662 1.1424
C9A C 0.6019(2) 0.3815(2) 0.75868(18)
C10A C 0.4768(2) 0.3889(2) 0.71974(19)
H9A H 0.4233 0.3158 0.7383
C11A C 0.4281(2) 0.5003(2) 0.65450(19)
C12A C 0.5073(2) 0.6116(2) 0.63031(19)
C13A C 0.6318(2) 0.6041(2) 0.66873(18)
H10A H 0.6844 0.6788 0.6520
C14A C 0.6827(2) 0.4905(2) 0.73121(17)
C15A C 0.4582(3) 0.7369(3) 0.5638(2)
H11A H 0.5233 0.8068 0.5602
H12A H 0.3886 0.7775 0.5994
H13A H 0.4311 0.7070 0.4889
C16A C 0.2932(2) 0.4991(3) 0.6110(2)
H14A H 0.2555 0.4105 0.6303
H15A H 0.2879 0.5099 0.5307
H16A H 0.2497 0.5761 0.6442
loop_
_geom_bond_atom_site_label_1
_geom_bond_atom_site_label_2
_geom_bond_site_symmetry_1
_geom_bond_site_symmetry_2
C1 H1 1_555 1_555
H2 C1 1_555 1_555
H3 C1 1_555 1_555
C2 C1 1_555 1_555
C3 C2 1_555 1_555
H4 C3 1_555 1_555
C4 C3 1_555 1_555
C5 C4 1_555 1_555
C6 C5 1_555 1_555
H5 C6 1_555 1_555
C7 C2 1_555 1_555
C8 C7 1_555 1_555
H6 C8 1_555 1_555
H7 C8 1_555 1_555
H8 C8 1_555 1_555
C9 C5 1_555 1_555
C10 C9 1_555 1_555
H9 C10 1_555 1_555
C11 C10 1_555 1_555
C12 C11 1_555 1_555
C13 C12 1_555 1_555
H10 C13 1_555 1_555
C14 C9 1_555 1_555
C15 C12 1_555 1_555
H11 C15 1_555 1_555
H12 C15 1_555 1_555
H13 C15 1_555 1_555
C16 C11 1_555 1_555
H14 C16 1_555 1_555
H15 C16 1_555 1_555
H16 C16 1_555 1_555
C1A H1A 1_555 1_555
H2A C1A 1_555 1_555
H3A C1A 1_555 1_555
C2A C1A 1_555 1_555
C3A C2A 1_555 1_555
H4A C3A 1_555 1_555
C4A C4 1_555 1_555
C5A C4A 1_555 1_555
C6A C5A 1_555 1_555
H5A C6A 1_555 1_555
C7A C2A 1_555 1_555
C8A C7A 1_555 1_555
H6A C8A 1_555 1_555
H7A C8A 1_555 1_555
H8A C8A 1_555 1_555
C9A C5A 1_555 1_555
C10A C9A 1_555 1_555
H9A C10A 1_555 1_555
C11A C10A 1_555 1_555
C12A C11A 1_555 1_555
C13A C12A 1_555 1_555
H10A C13A 1_555 1_555
C14A C14 1_555 1_555
C15A C12A 1_555 1_555
H11A C15A 1_555 1_555
H12A C15A 1_555 1_555
H13A C15A 1_555 1_555
C16A C11A 1_555 1_555
H14A C16A 1_555 1_555
H15A C16A 1_555 1_555
H16A C16A 1_555 1_555
C6 C7 1_555 1_555
C13 C14 1_555 1_555
C3A C4A 1_555 1_555
C6A C7A 1_555 1_555
C9A C14A 1_555 1_555
C13A C14A 1_555 1_555

#END
