
#######################################################################
#
#                 Cambridge Crystallographic Data Centre
#                                CCDC 
#
#######################################################################
#
# If this CIF has been generated from an entry in the Cambridge 
# Structural Database, then it will include bibliographic, chemical, 
# crystal, experimental, refinement or atomic coordinate data resulting 
# from the CCDC's data processing and validation procedures.
#
#######################################################################

data_UNENEI
_chemical_formula_moiety         'C24 H22 N2 O2'
_chemical_name_systematic        
'ethyl (5,7-dimethyl-5,7-dihydroindolo[2,3-b]carbazol-6-yl)acetate'
_symmetry_cell_setting           monoclinic
_symmetry_space_group_name_H-M   'C 2/c'
_symmetry_Int_Tables_number      15
_space_group_name_Hall           '-C 2yn'
loop_
_symmetry_equiv_pos_site_id
_symmetry_equiv_pos_as_xyz
1 x,y,z
2 -x,y,1/2-z
3 1/2+x,1/2+y,z
4 1/2-x,1/2+y,1/2-z
5 -x,-y,-z
6 x,-y,1/2+z
7 1/2-x,1/2-y,-z
8 1/2+x,1/2-y,1/2+z
_cell_length_a                   17.8741(9)
_cell_length_b                   8.7101(5)
_cell_length_c                   25.3777(14)
_cell_angle_alpha                90
_cell_angle_beta                 104.618(2)
_cell_angle_gamma                90
_cell_volume                     3823.04
_exptl_crystal_colour            brown
_exptl_crystal_description       block
_cell_formula_units_Z            8
loop_
_atom_site_label
_atom_site_type_symbol
_atom_site_fract_x
_atom_site_fract_y
_atom_site_fract_z
C1 C 0.2293(2) 0.1553(5) 0.20600(14)
C2 C 0.2330(3) 0.0741(5) 0.25415(16)
H1 H 0.2769 0.0137 0.2707
C3 C 0.1713(3) 0.0850(5) 0.27632(16)
H2 H 0.1725 0.0314 0.3091
C4 C 0.1066(3) 0.1720(6) 0.25239(16)
H3 H 0.0649 0.1779 0.2692
C5 C 0.1024(2) 0.2506(5) 0.20409(14)
H4 H 0.0575 0.3078 0.1872
C6 C 0.1650(2) 0.2438(4) 0.18095(13)
C7 C 0.1818(2) 0.3129(4) 0.13344(13)
C8 C 0.1393(2) 0.4113(4) 0.09423(13)
H5 H 0.0888 0.4436 0.0951
C9 C 0.1732(2) 0.4611(4) 0.05361(13)
C10 C 0.1436(3) 0.5603(5) 0.00699(14)
C11 C 0.0737(3) 0.6366(5) -0.01358(15)
H6 H 0.0334 0.6324 0.0047
C12 C 0.0649(3) 0.7196(5) -0.06193(16)
H7 H 0.0176 0.7709 -0.0773
C13 C 0.1245(4) 0.7276(6) -0.08757(17)
H8 H 0.1172 0.7862 -0.1200
C14 C 0.1938(4) 0.6538(6) -0.06787(17)
H9 H 0.2341 0.6606 -0.0861
C15 C 0.2028(3) 0.5689(5) -0.02033(15)
C16 C 0.2478(2) 0.4117(5) 0.05222(14)
C17 C 0.2915(2) 0.3085(5) 0.09013(15)
C18 C 0.2566(2) 0.2628(5) 0.13169(14)
C19 C 0.3682(3) 0.2441(6) 0.08573(19)
H10 H 0.3724 0.1366 0.0988
H11 H 0.3689 0.2423 0.0469
C20 C 0.4380(3) 0.3321(7) 0.1173(2)
C21 C 0.5825(5) 0.2978(16) 0.1624(5)
H12 H 0.5768 0.3761 0.1894
H13 H 0.6060 0.2023 0.1803
C22 C 0.6098(9) 0.3419(15) 0.1300(4)
H14 H 0.6099 0.2605 0.1034
H15 H 0.6631 0.3736 0.1468
H16 H 0.5803 0.4301 0.1116
C23 C 0.3626(3) 0.1023(7) 0.1959(2)
H17 H 0.3697 0.0663 0.2334
H18 H 0.4009 0.1820 0.1948
H19 H 0.3693 0.0162 0.1727
C24 C 0.3376(3) 0.4767(6) -0.00970(19)
H20 H 0.3383 0.3856 -0.0322
H21 H 0.3810 0.4722 0.0228
H22 H 0.3421 0.5692 -0.0307
N1 N 0.2849(2) 0.1658(4) 0.17618(13)
N2 N 0.2654(2) 0.4815(4) 0.00671(13)
O1 O 0.4389(2) 0.4407(4) 0.14315(15)
O2 O 0.5014(3) 0.2697(9) 0.1114(4)
loop_
_geom_bond_atom_site_label_1
_geom_bond_atom_site_label_2
_geom_bond_site_symmetry_1
_geom_bond_site_symmetry_2
C1 C2 1_555 1_555
C2 H1 1_555 1_555
C3 C2 1_555 1_555
H2 C3 1_555 1_555
C4 C3 1_555 1_555
H3 C4 1_555 1_555
C5 C4 1_555 1_555
H4 C5 1_555 1_555
C6 C1 1_555 1_555
C7 C6 1_555 1_555
C8 C7 1_555 1_555
H5 C8 1_555 1_555
C9 C8 1_555 1_555
C10 C9 1_555 1_555
C11 C10 1_555 1_555
H6 C11 1_555 1_555
C12 C11 1_555 1_555
H7 C12 1_555 1_555
C13 C12 1_555 1_555
H8 C13 1_555 1_555
C14 C13 1_555 1_555
H9 C14 1_555 1_555
C15 C10 1_555 1_555
C16 C9 1_555 1_555
C17 C16 1_555 1_555
C18 C7 1_555 1_555
C19 C17 1_555 1_555
H10 C19 1_555 1_555
H11 C19 1_555 1_555
C20 C19 1_555 1_555
C21 H12 1_555 1_555
H13 C21 1_555 1_555
C22 C21 1_555 1_555
H14 C22 1_555 1_555
H15 C22 1_555 1_555
H16 C22 1_555 1_555
C23 H17 1_555 1_555
H18 C23 1_555 1_555
H19 C23 1_555 1_555
C24 H20 1_555 1_555
H21 C24 1_555 1_555
H22 C24 1_555 1_555
N1 C1 1_555 1_555
N2 C15 1_555 1_555
O1 C20 1_555 1_555
O2 C20 1_555 1_555
C5 C6 1_555 1_555
C14 C15 1_555 1_555
C16 N2 1_555 1_555
C17 C18 1_555 1_555
C18 N1 1_555 1_555
C21 O2 1_555 1_555
C23 N1 1_555 1_555
C24 N2 1_555 1_555

#END
