
#######################################################################
#
#                 Cambridge Crystallographic Data Centre
#                                CCDC 
#
#######################################################################
#
# If this CIF has been generated from an entry in the Cambridge 
# Structural Database, then it will include bibliographic, chemical, 
# crystal, experimental, refinement or atomic coordinate data resulting 
# from the CCDC's data processing and validation procedures.
#
#######################################################################

data_UNEPOT
_chemical_formula_moiety         'C17 H18 N6'
_chemical_name_systematic        
8-(3,5-Dimethyl-1H-pyrazol-1-yl)-2,4,10-trimethylpyrido[2',3':3,4]pyrazolo[1,5-a]pyrimidine
_symmetry_cell_setting           monoclinic
_symmetry_space_group_name_H-M   'P 21/c'
_symmetry_Int_Tables_number      14
_space_group_name_Hall           '-P 2ybc'
loop_
_symmetry_equiv_pos_site_id
_symmetry_equiv_pos_as_xyz
1 x,y,z
2 -x,1/2+y,1/2-z
3 -x,-y,-z
4 x,1/2-y,1/2+z
_cell_length_a                   8.0338(9)
_cell_length_b                   28.618(3)
_cell_length_c                   7.2688(8)
_cell_angle_alpha                90
_cell_angle_beta                 111.051(2)
_cell_angle_gamma                90
_cell_volume                     1559.65
_exptl_crystal_colour            colorless
_exptl_crystal_description       block
_cell_formula_units_Z            4
loop_
_atom_site_label
_atom_site_type_symbol
_atom_site_fract_x
_atom_site_fract_y
_atom_site_fract_z
N1 N 0.5427(3) 0.32938(9) 0.8151(4)
N2 N 0.4560(3) 0.25045(9) 0.8180(4)
N3 N 0.5446(3) 0.20986(8) 0.8182(4)
N4 N 0.8205(3) 0.17829(9) 0.8140(4)
N5 N 0.6400(4) 0.40535(9) 0.8004(4)
N6 N 0.7708(4) 0.43482(10) 0.7855(5)
C1 C 0.5791(4) 0.28331(11) 0.8172(4)
C2 C 0.7402(4) 0.26392(11) 0.8150(4)
C3 C 0.8775(4) 0.29414(11) 0.8120(5)
C4 C 0.8415(4) 0.34144(11) 0.8107(5)
H1 H 0.9274 0.3632 0.8103
C5 C 0.6752(4) 0.35645(11) 0.8099(5)
C6 C 0.7150(4) 0.21522(11) 0.8153(5)
C7 C 1.0502(4) 0.27622(12) 0.8070(5)
H2 H 1.1200 0.2637 0.9338
H3 H 1.1143 0.3013 0.7749
H4 H 1.0273 0.2521 0.7091
C8 C 0.2902(4) 0.16347(12) 0.8238(6)
H5 H 0.2617 0.1315 0.8392
H6 H 0.2069 0.1755 0.7024
H7 H 0.2833 0.1816 0.9320
C9 C 0.4732(4) 0.16630(11) 0.8205(5)
C10 C 0.5819(4) 0.12946(11) 0.8213(5)
H8 H 0.5410 0.0991 0.8237
C11 C 0.7535(4) 0.13648(11) 0.8187(5)
C12 C 0.8691(5) 0.09495(11) 0.8185(6)
H9 H 0.9750 0.1054 0.7987
H10 H 0.8044 0.0740 0.7140
H11 H 0.9016 0.0790 0.9426
C13 C 0.3278(5) 0.40955(14) 0.8119(6)
H12 H 0.2775 0.3879 0.7053
H13 H 0.2430 0.4338 0.8040
H14 H 0.3566 0.3934 0.9352
C14 C 0.4906(5) 0.43024(13) 0.7988(5)
C15 C 0.5317(6) 0.47562(13) 0.7803(6)
H15 H 0.4584 0.5012 0.7737
C16 C 0.7020(5) 0.47719(13) 0.7729(6)
C17 C 0.8099(6) 0.51879(14) 0.7509(8)
H16 H 0.9223 0.5082 0.7479
H17 H 0.8302 0.5396 0.8605
H18 H 0.7455 0.5349 0.6305
loop_
_geom_bond_atom_site_label_1
_geom_bond_atom_site_label_2
_geom_bond_site_symmetry_1
_geom_bond_site_symmetry_2
N1 C1 1_555 1_555
N2 N3 1_555 1_555
N3 C6 1_555 1_555
N4 C6 1_555 1_555
N5 N6 1_555 1_555
N6 C16 1_555 1_555
C1 N2 1_555 1_555
C2 C1 1_555 1_555
C3 C2 1_555 1_555
C4 C3 1_555 1_555
H1 C4 1_555 1_555
C5 N1 1_555 1_555
C6 C2 1_555 1_555
C7 C3 1_555 1_555
H2 C7 1_555 1_555
H3 C7 1_555 1_555
H4 C7 1_555 1_555
C8 H5 1_555 1_555
H6 C8 1_555 1_555
H7 C8 1_555 1_555
C9 N3 1_555 1_555
C10 C9 1_555 1_555
H8 C10 1_555 1_555
C11 N4 1_555 1_555
C12 C11 1_555 1_555
H9 C12 1_555 1_555
H10 C12 1_555 1_555
H11 C12 1_555 1_555
C13 H12 1_555 1_555
H13 C13 1_555 1_555
H14 C13 1_555 1_555
C14 N5 1_555 1_555
C15 C14 1_555 1_555
H15 C15 1_555 1_555
C16 C15 1_555 1_555
C17 C16 1_555 1_555
H16 C17 1_555 1_555
H17 C17 1_555 1_555
H18 C17 1_555 1_555
N5 C5 1_555 1_555
C4 C5 1_555 1_555
C8 C9 1_555 1_555
C10 C11 1_555 1_555
C13 C14 1_555 1_555

#END
