
#######################################################################
#
#                 Cambridge Crystallographic Data Centre
#                                CCDC 
#
#######################################################################
#
# If this CIF has been generated from an entry in the Cambridge 
# Structural Database, then it will include bibliographic, chemical, 
# crystal, experimental, refinement or atomic coordinate data resulting 
# from the CCDC's data processing and validation procedures.
#
#######################################################################

data_UNESAI
_chemical_formula_moiety         'C16 H13 Cl1 N4 O2,H1 Br1,H2 O1'
_chemical_name_systematic        
'(6-Chloro-4-((4-methylphenyl)amino)pyrido[3,2-d]pyrimidin-1-ium-1-yl)acetate hydrobromide monohydrate'
_symmetry_cell_setting           triclinic
_symmetry_space_group_name_H-M   'P -1'
_symmetry_Int_Tables_number      2
_space_group_name_Hall           '-P 1'
loop_
_symmetry_equiv_pos_site_id
_symmetry_equiv_pos_as_xyz
1 x,y,z
2 -x,-y,-z
_cell_length_a                   8.3121(8)
_cell_length_b                   9.3885(8)
_cell_length_c                   13.2903(12)
_cell_angle_alpha                106.788(2)
_cell_angle_beta                 95.204(3)
_cell_angle_gamma                110.871(2)
_cell_volume                     905.806
_exptl_crystal_colour            yellow
_exptl_crystal_description       chunk
_cell_formula_units_Z            2
loop_
_atom_site_label
_atom_site_type_symbol
_atom_site_fract_x
_atom_site_fract_y
_atom_site_fract_z
Br1 Br 0.17200(9) 0.19200(6) 0.90868(5)
H8 H 0.0984 0.2057 0.9650
Cl1 Cl 1.0313(2) 0.7822(2) 0.54314(13)
O1 O 0.3343(6) 0.7137(5) 0.9282(2)
O2 O 0.2801(6) 0.6393(5) 0.7502(3)
N1 N 0.4832(5) 0.4601(4) 0.7399(3)
N2 N 0.3863(5) 0.2257(4) 0.5844(3)
N3 N 0.7618(5) 0.5393(4) 0.5492(3)
N4 N 0.5331(5) 0.2259(4) 0.4439(3)
C1 C 0.8697(6) 0.6897(6) 0.6039(4)
C2 C 0.8620(7) 0.7793(6) 0.7061(4)
C3 C 0.7352(7) 0.7080(5) 0.7541(4)
C4 C 0.6166(6) 0.5466(5) 0.6984(3)
C5 C 0.3776(7) 0.3075(5) 0.6809(4)
C6 C 0.5144(6) 0.3010(5) 0.5402(3)
C7 C 0.6366(6) 0.4675(5) 0.5971(3)
C8 C 0.4362(6) 0.0634(5) 0.3711(3)
C9 C 0.2824(7) -0.0421(5) 0.3847(4)
C10 C 0.1944(7) -0.1963(6) 0.3073(4)
C11 C 0.2566(7) -0.2468(6) 0.2172(3)
C12 C 0.4112(7) -0.1392(6) 0.2051(4)
C13 C 0.5011(7) 0.0144(6) 0.2811(3)
C14 C 0.1524(8) -0.4123(6) 0.1327(4)
C15 C 0.4514(7) 0.5364(6) 0.8451(4)
C16 C 0.3443(7) 0.6392(6) 0.8372(2)
H1 H 0.9427 0.8861 0.7407
H2 H 0.7267 0.7644 0.8221
H3 H 0.2888 0.2533 0.7108
H4 H 0.2375 -0.0107 0.4450
H5 H 0.0906 -0.2673 0.3169
H6 H 0.4558 -0.1706 0.1447
H7 H 0.6056 0.0848 0.2717
H9 H 0.0935 -0.4875 0.1668
H10 H 0.2309 -0.4493 0.0946
H11 H 0.0666 -0.4054 0.0830
H12 H 0.5640 0.6061 0.8947
H13 H 0.3864 0.4520 0.8720
H16 H 0.6173 0.2844 0.4214
O3 O 0.1353(9) 0.8639(7) 0.9534(5)
H14 H 0.1838 0.8085 0.9103
H15 H 0.2178 0.9435 1.0033
loop_
_geom_bond_atom_site_label_1
_geom_bond_atom_site_label_2
_geom_bond_site_symmetry_1
_geom_bond_site_symmetry_2
Br1 H8 1_555 1_555
Cl1 C1 1_555 1_555
O1 C16 1_555 1_555
O2 C16 1_555 1_555
O3 H14 1_555 1_555
N1 C4 1_555 1_555
N2 C5 1_555 1_555
N3 C1 1_555 1_555
N4 C6 1_555 1_555
C1 C2 1_555 1_555
C2 C3 1_555 1_555
C3 C4 1_555 1_555
C4 C7 1_555 1_555
C5 N1 1_555 1_555
C6 N2 1_555 1_555
C7 N3 1_555 1_555
C8 N4 1_555 1_555
C9 C8 1_555 1_555
C10 C9 1_555 1_555
C11 C10 1_555 1_555
C12 C11 1_555 1_555
C13 C8 1_555 1_555
C14 C11 1_555 1_555
C15 N1 1_555 1_555
C16 C15 1_555 1_555
H1 C2 1_555 1_555
H2 C3 1_555 1_555
H3 C5 1_555 1_555
H4 C9 1_555 1_555
H5 C10 1_555 1_555
H6 C12 1_555 1_555
H7 C13 1_555 1_555
H9 C14 1_555 1_555
H10 C14 1_555 1_555
H11 C14 1_555 1_555
H12 C15 1_555 1_555
H13 C15 1_555 1_555
H15 O3 1_555 1_555
H16 N4 1_555 1_555
C6 C7 1_555 1_555
C12 C13 1_555 1_555

#END
