
#######################################################################
#
#                 Cambridge Crystallographic Data Centre
#                                CCDC 
#
#######################################################################
#
# If this CIF has been generated from an entry in the Cambridge 
# Structural Database, then it will include bibliographic, chemical, 
# crystal, experimental, refinement or atomic coordinate data resulting 
# from the CCDC's data processing and validation procedures.
#
#######################################################################

data_UNETUE
_chemical_formula_moiety         'C21 H18 Cl1 N1 O4'
_chemical_name_systematic        
'Methyl 3-(2-chlorophenyl)-2-((5-methyl-4-oxo-2-phenyl-4,5-dihydro-1,3-oxazol-5-yl)methyl)acrylate'
_symmetry_cell_setting           orthorhombic
_symmetry_space_group_name_H-M   'P 21 21 21'
_symmetry_Int_Tables_number      19
_space_group_name_Hall           'P 2ac 2ab'
loop_
_symmetry_equiv_pos_site_id
_symmetry_equiv_pos_as_xyz
1 x,y,z
2 1/2-x,-y,1/2+z
3 1/2+x,1/2-y,-z
4 -x,1/2+y,1/2-z
_cell_length_a                   7.1668(4)
_cell_length_b                   12.4455(8)
_cell_length_c                   21.2096(12)
_cell_angle_alpha                90
_cell_angle_beta                 90
_cell_angle_gamma                90
_cell_volume                     1891.78
_exptl_crystal_colour            colorless
_exptl_crystal_description       block
_cell_formula_units_Z            4
loop_
_atom_site_label
_atom_site_type_symbol
_atom_site_fract_x
_atom_site_fract_y
_atom_site_fract_z
Cl1 Cl 0.66797(14) 0.10948(7) 0.09796(4)
O1 O 0.2536(3) -0.08357(15) 0.19609(8)
O2 O 0.2458(4) 0.02756(19) 0.34645(11)
O3 O 0.7503(4) 0.09258(18) 0.31094(9)
O4 O 0.6783(4) -0.0439(2) 0.37458(10)
N1 N 0.2125(4) 0.07958(19) 0.24177(12)
C1 C 0.6668(4) -0.0300(2) 0.09317(14)
C2 C 0.6473(6) -0.0770(3) 0.03497(15)
H1 H 0.6330 -0.0349 -0.0009
C3 C 0.6493(8) -0.1876(3) 0.03044(16)
H2 H 0.6346 -0.2204 -0.0086
C4 C 0.6728(6) -0.2491(3) 0.08336(16)
H3 H 0.6772 -0.3236 0.0799
C5 C 0.6898(5) -0.2017(3) 0.14121(14)
H4 H 0.7051 -0.2446 0.1767
C6 C 0.6848(4) -0.0905(2) 0.14820(13)
C7 C 0.7061(4) -0.0381(2) 0.20981(13)
H5 H 0.7868 0.0204 0.2110
C8 C 0.6249(4) -0.0635(2) 0.26420(13)
C9 C 0.6842(5) -0.0053(3) 0.32263(14)
C10 C 0.8192(6) 0.1513(3) 0.36504(15)
H6 H 0.8595 0.2214 0.3520
H7 H 0.9224 0.1132 0.3833
H8 H 0.7214 0.1582 0.3957
C11 C 0.4753(4) -0.1465(3) 0.27469(14)
H9 H 0.4844 -0.1727 0.3177
H10 H 0.4979 -0.2068 0.2467
C12 C 0.2774(4) -0.1050(2) 0.26351(12)
C13 C 0.1308(5) -0.1837(3) 0.28541(16)
H11 H 0.0114 -0.1630 0.2688
H12 H 0.1257 -0.1836 0.3306
H13 H 0.1619 -0.2544 0.2707
C14 C 0.2448(5) 0.0067(3) 0.29069(16)
C15 C 0.2189(4) 0.0229(2) 0.19063(14)
C16 C 0.1896(4) 0.0621(2) 0.12658(15)
C17 C 0.1652(6) -0.0071(3) 0.07680(16)
H14 H 0.1679 -0.0810 0.0834
C18 C 0.1365(7) 0.0337(3) 0.01662(17)
H15 H 0.1183 -0.0127 -0.0172
C19 C 0.1353(7) 0.1435(4) 0.00714(19)
H16 H 0.1167 0.1706 -0.0332
C20 C 0.1610(6) 0.2127(3) 0.05613(18)
H17 H 0.1616 0.2865 0.0491
C21 C 0.1860(5) 0.1731(3) 0.11593(16)
H18 H 0.2007 0.2202 0.1496
loop_
_geom_bond_atom_site_label_1
_geom_bond_atom_site_label_2
_geom_bond_site_symmetry_1
_geom_bond_site_symmetry_2
Cl1 C1 1_555 1_555
O1 C12 1_555 1_555
O2 C14 1_555 1_555
O3 C9 1_555 1_555
O4 C9 1_555 1_555
N1 C14 1_555 1_555
C1 C2 1_555 1_555
C2 H1 1_555 1_555
C3 C2 1_555 1_555
H2 C3 1_555 1_555
C4 C3 1_555 1_555
H3 C4 1_555 1_555
C5 C4 1_555 1_555
H4 C5 1_555 1_555
C6 C1 1_555 1_555
C7 C6 1_555 1_555
H5 C7 1_555 1_555
C8 C7 1_555 1_555
C9 C8 1_555 1_555
C10 O3 1_555 1_555
H6 C10 1_555 1_555
H7 C10 1_555 1_555
H8 C10 1_555 1_555
C11 C8 1_555 1_555
H9 C11 1_555 1_555
H10 C11 1_555 1_555
C12 C11 1_555 1_555
C13 C12 1_555 1_555
H11 C13 1_555 1_555
H12 C13 1_555 1_555
H13 C13 1_555 1_555
C14 C12 1_555 1_555
C15 O1 1_555 1_555
C16 C15 1_555 1_555
C17 C16 1_555 1_555
H14 C17 1_555 1_555
C18 C17 1_555 1_555
H15 C18 1_555 1_555
C19 C18 1_555 1_555
H16 C19 1_555 1_555
C20 C19 1_555 1_555
H17 C20 1_555 1_555
C21 C16 1_555 1_555
H18 C21 1_555 1_555
N1 C15 1_555 1_555
C5 C6 1_555 1_555
C20 C21 1_555 1_555

#END
