
#######################################################################
#
#                 Cambridge Crystallographic Data Centre
#                                CCDC 
#
#######################################################################
#
# If this CIF has been generated from an entry in the Cambridge 
# Structural Database, then it will include bibliographic, chemical, 
# crystal, experimental, refinement or atomic coordinate data resulting 
# from the CCDC's data processing and validation procedures.
#
#######################################################################

data_UNEVAK01
_chemical_formula_moiety         'C15 H19 F3 O12 S1'
_chemical_name_systematic        
1,3,4,6-Tetra-O-acetyl-2-(trifluoromethylsulfonyl)-\b-D-mannopyranose
_symmetry_cell_setting           triclinic
_symmetry_space_group_name_H-M   'P 1'
_symmetry_Int_Tables_number      1
_space_group_name_Hall           'P 1'
loop_
_symmetry_equiv_pos_site_id
_symmetry_equiv_pos_as_xyz
1 x,y,z
_cell_length_a                   7.885(2)
_cell_length_b                   8.542(2)
_cell_length_c                   15.629(4)
_cell_angle_alpha                99.103(4)
_cell_angle_beta                 90.958(4)
_cell_angle_gamma                90.271(4)
_cell_volume                     1039.24
_exptl_crystal_colour            colorless
_exptl_crystal_description       block
_chemical_melting_point          '394-395 K'
_cell_formula_units_Z            2
_exptl_crystal_recrystallization_method 'ethyl acetate/petroleum ether'
loop_
_atom_site_label
_atom_site_type_symbol
_atom_site_fract_x
_atom_site_fract_y
_atom_site_fract_z
S1 S -0.02275(18) 0.39160(14) 0.59984(9)
F1 F -0.2372(11) 0.1807(9) 0.5496(6)
F2 F -0.0571(11) 0.1715(9) 0.4551(5)
F3 F -0.2327(16) 0.3640(14) 0.4687(8)
O1 O 0.3293(4) 0.2628(3) 0.77341(18)
O2 O 0.1262(4) 0.4414(3) 0.7840(2)
O3 O 0.0199(15) 0.4611(11) 0.9144(5)
O5 O 0.1010(4) 0.2671(3) 0.62718(19)
O6 O -0.1479(6) 0.4347(5) 0.6611(3)
O7 O 0.0638(16) 0.5204(12) 0.5858(7)
O9 O 0.0675(4) -0.0513(3) 0.59600(18)
O10 O -0.1597(5) -0.1509(5) 0.6510(3)
O11 O 0.3581(4) -0.1525(3) 0.68326(19)
O12 O 0.4592(6) -0.1711(5) 0.5502(2)
O13 O 0.6069(4) 0.1596(4) 0.8673(2)
O14 O 0.8653(5) 0.0630(4) 0.8535(2)
C1 C 0.1529(6) 0.2768(5) 0.7796(3)
H1 H 0.1131 0.2403 0.8322
C2 C 0.0628(5) 0.1897(4) 0.7007(3)
H2 H -0.0598 0.1909 0.7100
C3 C 0.1234(6) 0.0205(5) 0.6802(3)
H3 H 0.0768 -0.0399 0.7228
C4 C 0.3146(6) 0.0103(5) 0.6835(3)
H4 H 0.3645 0.0503 0.6341
C5 C 0.3806(6) 0.1027(5) 0.7684(3)
H5 H 0.3319 0.0581 0.8166
C6 C 0.5699(6) 0.1050(6) 0.7775(3)
H6 H 0.6152 -0.0004 0.7600
H7 H 0.6192 0.1760 0.7419
C7 C 0.7565(6) 0.1263(5) 0.8976(3)
C8 C 0.7708(7) 0.1779(8) 0.9924(3)
H8 H 0.8816 0.1528 1.0125
H9 H 0.6864 0.1242 1.0208
H10 H 0.7537 0.2903 1.0054
C9 C 0.0366(8) 0.5174(6) 0.8494(3)
C10 C 0.0188(7) 0.6868(5) 0.8422(4)
H11 H -0.0649 0.7337 0.8821
H12 H -0.0160 0.6968 0.7842
H13 H 0.1257 0.7400 0.8557
C11 C -0.1335(7) 0.2770(6) 0.5116(3)
C12 C -0.0774(7) -0.1369(5) 0.5893(3)
C13 C -0.1140(7) -0.2048(6) 0.4981(3)
H14 H -0.2319 -0.2336 0.4913
H15 H -0.0459 -0.2972 0.4820
H16 H -0.0882 -0.1277 0.4616
C14 C 0.4319(6) -0.2312(6) 0.6123(3)
C15 C 0.4722(8) -0.3947(6) 0.6236(4)
H17 H 0.4723 -0.4614 0.5681
H18 H 0.3884 -0.4327 0.6594
H19 H 0.5820 -0.3968 0.6508
S2 S 0.30286(17) 1.08151(14) 0.27349(9)
F7 F 0.4851(15) 0.9080(12) 0.3465(8)
F8 F 0.2613(13) 0.9564(11) 0.4163(7)
F9 F 0.4972(12) 1.1337(10) 0.4036(6)
O15 O -0.0337(4) 0.8573(3) 0.09217(18)
O16 O 0.1755(4) 1.0269(3) 0.0859(2)
O17 O 0.3477(16) 0.9738(15) -0.0237(9)
O19 O 0.1826(4) 0.9410(3) 0.24162(19)
O20 O 0.2047(6) 1.2164(4) 0.2950(3)
O21 O 0.4455(5) 1.0799(5) 0.2206(3)
O22 O 0.2162(4) 0.6368(3) 0.26959(18)
O23 O 0.4479(6) 0.5157(5) 0.2153(3)
O24 O -0.0754(4) 0.4915(3) 0.18026(19)
O25 O -0.1672(6) 0.5425(5) 0.3149(2)
O26 O -0.3150(4) 0.7048(4) -0.0025(2)
O27 O -0.5749(5) 0.6116(5) 0.0092(3)
C16 C 0.1418(6) 0.8664(5) 0.0881(3)
H20 H 0.1825 0.8001 0.0356
C17 C 0.2274(6) 0.8213(5) 0.1680(3)
H21 H 0.3507 0.8182 0.1611
C18 C 0.1624(6) 0.6630(5) 0.1861(3)
H22 H 0.2080 0.5789 0.1428
C19 C -0.0287(6) 0.6536(5) 0.1815(3)
H23 H -0.0787 0.7218 0.2309
C20 C -0.0891(6) 0.6993(5) 0.0971(3)
H24 H -0.0416 0.6261 0.0489
C21 C -0.2793(6) 0.6997(6) 0.0875(3)
H25 H -0.3278 0.6048 0.1043
H26 H -0.3263 0.7916 0.1236
C22 C -0.4661(6) 0.6519(6) -0.0341(3)
C23 C -0.4770(8) 0.6516(8) -0.1288(4)
H27 H -0.3842 0.5922 -0.1564
H28 H -0.4715 0.7586 -0.1403
H29 H -0.5823 0.6036 -0.1512
C24 C 0.2547(7) 1.0678(6) 0.0179(3)
C25 C 0.2774(8) 1.2410(5) 0.0276(4)
H30 H 0.3250 1.2682 -0.0243
H31 H 0.3526 1.2760 0.0759
H32 H 0.1695 1.2916 0.0375
C26 C 0.3761(7) 1.0261(6) 0.3745(4)
C27 C 0.3637(7) 0.5579(5) 0.2761(3)
C28 C 0.4025(8) 0.5389(6) 0.3675(3)
H33 H 0.4562 0.4385 0.3685
H34 H 0.2992 0.5431 0.3994
H35 H 0.4773 0.6228 0.3935
C29 C -0.1476(6) 0.4521(6) 0.2528(3)
C30 C -0.1937(8) 0.2835(6) 0.2386(4)
H36 H -0.1988 0.2465 0.2934
H37 H -0.1100 0.2244 0.2034
H38 H -0.3024 0.2692 0.2098
F4? F -0.2084(14) 0.1471(9) 0.5269(7)
F5? F -0.0168(11) 0.2427(12) 0.4501(5)
F6? F -0.2485(14) 0.3694(12) 0.4820(8)
F10? F 0.4747(16) 0.8990(12) 0.3704(8)
F11? F 0.2438(13) 1.0102(12) 0.4231(7)
F12? F 0.4299(13) 1.1494(11) 0.4317(6)
O4? O -0.0585(14) 0.4445(12) 0.8892(8)
O8? O 0.0854(18) 0.4832(14) 0.5478(8)
O18? O 0.2645(13) 0.9757(9) -0.0476(4)
loop_
_geom_bond_atom_site_label_1
_geom_bond_atom_site_label_2
_geom_bond_site_symmetry_1
_geom_bond_site_symmetry_2
S1 O5 1_555 1_555
S2 O19 1_555 1_555
F1 C11 1_555 1_555
F2 C11 1_555 1_555
F3 C11 1_555 1_555
F7 C26 1_555 1_555
F8 C26 1_555 1_555
F9 C26 1_555 1_555
O1 C1 1_555 1_555
O2 C1 1_555 1_555
O3 C9 1_555 1_555
O5 C2 1_555 1_555
O6 S1 1_555 1_555
O7 S1 1_555 1_555
O9 C3 1_555 1_555
O10 C12 1_555 1_555
O11 C4 1_555 1_555
O12 C14 1_555 1_555
O13 C6 1_555 1_555
O14 C7 1_555 1_555
O15 C16 1_555 1_555
O16 C16 1_555 1_555
O17 C24 1_555 1_555
O19 C17 1_555 1_555
O20 S2 1_555 1_555
O21 S2 1_555 1_555
O22 C18 1_555 1_555
O23 C27 1_555 1_555
O24 C19 1_555 1_555
O25 C29 1_555 1_555
O26 C21 1_555 1_555
O27 C22 1_555 1_555
C1 H1 1_555 1_555
C2 C1 1_555 1_555
H2 C2 1_555 1_555
C3 C2 1_555 1_555
H3 C3 1_555 1_555
C4 C3 1_555 1_555
H4 C4 1_555 1_555
C5 O1 1_555 1_555
H5 C5 1_555 1_555
C6 C5 1_555 1_555
H6 C6 1_555 1_555
H7 C6 1_555 1_555
C7 O13 1_555 1_555
C8 C7 1_555 1_555
H8 C8 1_555 1_555
H9 C8 1_555 1_555
H10 C8 1_555 1_555
C9 O2 1_555 1_555
C10 C9 1_555 1_555
H11 C10 1_555 1_555
H12 C10 1_555 1_555
H13 C10 1_555 1_555
C11 S1 1_555 1_555
C12 O9 1_555 1_555
C13 C12 1_555 1_555
H14 C13 1_555 1_555
H15 C13 1_555 1_555
H16 C13 1_555 1_555
C14 O11 1_555 1_555
C15 C14 1_555 1_555
H17 C15 1_555 1_555
H18 C15 1_555 1_555
H19 C15 1_555 1_555
C16 H20 1_555 1_555
C17 C16 1_555 1_555
H21 C17 1_555 1_555
C18 C17 1_555 1_555
H22 C18 1_555 1_555
C19 C18 1_555 1_555
H23 C19 1_555 1_555
C20 O15 1_555 1_555
H24 C20 1_555 1_555
C21 C20 1_555 1_555
H25 C21 1_555 1_555
H26 C21 1_555 1_555
C22 O26 1_555 1_555
C23 C22 1_555 1_555
H27 C23 1_555 1_555
H28 C23 1_555 1_555
H29 C23 1_555 1_555
C24 O16 1_555 1_555
C25 C24 1_555 1_555
H30 C25 1_555 1_555
H31 C25 1_555 1_555
H32 C25 1_555 1_555
C26 S2 1_555 1_555
C27 O22 1_555 1_555
C28 C27 1_555 1_555
H33 C28 1_555 1_555
H34 C28 1_555 1_555
H35 C28 1_555 1_555
C29 O24 1_555 1_555
C30 C29 1_555 1_555
H36 C30 1_555 1_555
H37 C30 1_555 1_555
H38 C30 1_555 1_555
C4 C5 1_555 1_555
C19 C20 1_555 1_555

#END
