
#######################################################################
#
#                 Cambridge Crystallographic Data Centre
#                                CCDC 
#
#######################################################################
#
# If this CIF has been generated from an entry in the Cambridge 
# Structural Database, then it will include bibliographic, chemical, 
# crystal, experimental, refinement or atomic coordinate data resulting 
# from the CCDC's data processing and validation procedures.
#
#######################################################################

data_UNIBAW
_chemical_formula_moiety         'C18 H18 Cl1 N2 O4 P1'
_chemical_name_systematic        
3,8-Dibenzyl-5-chloro-1,6-dioxa-4,9-diaza-5-phosphaspiro[4.4]nonane-2,7-dione
_symmetry_cell_setting           triclinic
_symmetry_space_group_name_H-M   'P 1'
_symmetry_Int_Tables_number      1
_space_group_name_Hall           'P 1'
loop_
_symmetry_equiv_pos_site_id
_symmetry_equiv_pos_as_xyz
1 x,y,z
_cell_length_a                   8.7196(3)
_cell_length_b                   12.0985(5)
_cell_length_c                   18.3711(6)
_cell_angle_alpha                99.330(3)
_cell_angle_beta                 95.904(3)
_cell_angle_gamma                90.344(3)
_cell_volume                     1901.75
_chemical_melting_point          '494-496 K'
_cell_formula_units_Z            4
_chemical_properties_physical    'Air-sensitive, Oxygen-sensitive'
loop_
_atom_site_label
_atom_site_type_symbol
_atom_site_fract_x
_atom_site_fract_y
_atom_site_fract_z
Cl1 Cl 0.79240(8) 0.91131(7) -0.09715(4)
P1 P 0.65970(6) 0.89805(5) -0.01359(3)
O1 O 0.7367(2) 0.77026(15) -0.00201(11)
O2 O 0.8705(3) 0.68315(17) 0.08028(14)
O3 O 0.57682(19) 1.02560(13) -0.02244(9)
O4 O 0.3563(2) 1.10288(14) -0.05607(10)
N1 N 0.7360(3) 0.95123(17) 0.06950(12)
H1 H 0.766(3) 1.0081(18) 0.0716(13)
N2 N 0.4911(2) 0.83663(17) -0.03903(11)
H2 H 0.4766 0.7672 -0.0359
C1 C 0.8171(3) 0.7678(2) 0.06252(18)
C2 C 0.8264(3) 0.8801(2) 0.11209(15)
H3 H 0.9337 0.9077 0.1218
C3 C 0.7614(4) 0.8697(2) 0.18569(17)
H4 H 0.6544 0.8446 0.1751
H5 H 0.8178 0.8130 0.2083
C4 C 0.7707(4) 0.9766(3) 0.23989(16)
C5 C 0.6574(4) 1.0547(3) 0.23664(19)
H6 H 0.5736 1.0416 0.2005
C6 C 0.6688(5) 1.1541(3) 0.2880(2)
H7 H 0.5909 1.2061 0.2866
C7 C 0.7935(6) 1.1757(4) 0.3406(2)
H8 H 0.8005 1.2427 0.3739
C8 C 0.9055(5) 1.1006(4) 0.3440(2)
H9 H 0.9901 1.1153 0.3796
C9 C 0.8944(4) 1.0004(4) 0.29401(18)
H10 H 0.9718 0.9483 0.2970
C10 C 0.4298(3) 1.0213(2) -0.04808(13)
C11 C 0.3683(3) 0.9012(2) -0.06660(13)
H11 H 0.3509 0.8801 -0.1206
C12 C 0.2162(3) 0.8854(2) -0.03360(14)
H12 H 0.1373 0.9283 -0.0568
H13 H 0.1845 0.8070 -0.0457
C13 C 0.2257(3) 0.9204(2) 0.04884(15)
C14 C 0.1794(3) 1.0258(2) 0.07934(17)
H14 H 0.1434 1.0757 0.0483
C15 C 0.1861(4) 1.0572(3) 0.15467(19)
H15 H 0.1533 1.1277 0.1744
C16 C 0.2419(4) 0.9841(3) 0.20186(19)
H16 H 0.2481 1.0062 0.2530
C17 C 0.2874(4) 0.8795(3) 0.17294(18)
H17 H 0.3242 0.8303 0.2043
C18 C 0.2785(3) 0.8471(3) 0.09690(17)
H18 H 0.3081 0.7756 0.0775
Cl2 Cl 0.53504(7) 0.63048(7) 0.80123(4)
P2 P 0.34123(7) 0.63676(5) 0.73025(4)
O5 O 0.3964(2) 0.76482(15) 0.71173(11)
O6 O 0.4793(3) 0.84818(17) 0.62321(14)
O7 O 0.27565(19) 0.50861(14) 0.74662(10)
O8 O 0.0865(2) 0.42614(15) 0.79130(10)
N3 N 0.3599(3) 0.58058(17) 0.64475(12)
H19 H 0.382(3) 0.504(2) 0.6373(16)
N4 N 0.1938(2) 0.69483(17) 0.76716(12)
H20 H 0.1789 0.7653 0.7683
C19 C 0.4404(3) 0.7656(2) 0.64504(18)
C20 C 0.4318(3) 0.6502(2) 0.59950(15)
H21 H 0.5358 0.6241 0.5913
C21 C 0.3355(4) 0.6530(2) 0.52442(16)
H22 H 0.2321 0.6766 0.5336
H23 H 0.3810 0.7083 0.4998
C22 C 0.3251(4) 0.5407(3) 0.47307(15)
C23 C 0.4384(4) 0.5139(3) 0.42468(16)
H24 H 0.5196 0.5637 0.4239
C24 C 0.4262(5) 0.4095(4) 0.37723(19)
H25 H 0.5003 0.3901 0.3447
C25 C 0.3064(5) 0.3365(4) 0.3786(2)
H26 H 0.2995 0.2679 0.3471
C26 C 0.1979(5) 0.3641(3) 0.4257(2)
H27 H 0.1162 0.3145 0.4262
C27 C 0.2081(4) 0.4640(3) 0.4721(2)
H28 H 0.1330 0.4810 0.5044
C28 C 0.1467(3) 0.5099(2) 0.77883(13)
C29 C 0.0889(3) 0.6280(2) 0.79772(13)
H29 H 0.1013 0.6497 0.8518
C30 C -0.0802(3) 0.6400(2) 0.77005(14)
H30 H -0.1429 0.5932 0.7941
H31 H -0.1090 0.7171 0.7847
C31 C -0.1163(3) 0.6082(2) 0.68651(16)
C32 C -0.0887(3) 0.6819(3) 0.63882(18)
H32 H -0.0481 0.7531 0.6583
C33 C -0.1200(4) 0.6524(3) 0.56341(19)
H33 H -0.1008 0.7037 0.5326
C34 C -0.1794(4) 0.5477(3) 0.53307(19)
H34 H -0.1983 0.5270 0.4819
C35 C -0.2101(4) 0.4748(3) 0.5791(2)
H35 H -0.2529 0.4044 0.5591
C36 C -0.1787(3) 0.5037(3) 0.65549(18)
H36 H -0.1998 0.4525 0.6860
Cl3 Cl 0.79247(8) 0.41101(7) -0.09720(4)
P3 P 0.65977(7) 0.39802(5) -0.01357(4)
O9 O 0.7363(2) 0.27039(15) -0.00206(11)
O10 O 0.8715(3) 0.18258(17) 0.08043(15)
O11 O 0.57663(19) 0.52573(14) -0.02264(9)
O12 O 0.3564(2) 0.60346(14) -0.05594(10)
N5 N 0.7354(3) 0.45162(17) 0.06932(13)
H37 H 0.759(3) 0.5197(11) 0.0744(14)
N6 N 0.4920(2) 0.33642(17) -0.03886(11)
H38 H 0.4775 0.2671 -0.0357
C37 C 0.8173(3) 0.2667(2) 0.06326(19)
C38 C 0.8261(3) 0.3799(2) 0.11231(15)
H39 H 0.9333 0.4075 0.1219
C39 C 0.7628(4) 0.3691(3) 0.18544(17)
H40 H 0.6562 0.3430 0.1751
H41 H 0.8207 0.3130 0.2081
C40 C 0.7710(3) 0.4778(3) 0.24020(16)
C41 C 0.6551(4) 0.5545(3) 0.23667(19)
H42 H 0.5713 0.5400 0.2006
C42 C 0.6646(5) 0.6531(3) 0.2872(2)
H43 H 0.5853 0.7040 0.2856
C43 C 0.7899(6) 0.6768(4) 0.3396(2)
H44 H 0.7975 0.7448 0.3719
C44 C 0.9042(5) 0.5991(4) 0.3439(2)
H45 H 0.9877 0.6136 0.3802
C45 C 0.8947(4) 0.4998(3) 0.29428(17)
H46 H 0.9718 0.4474 0.2973
C46 C 0.4292(3) 0.5215(2) -0.04842(13)
C47 C 0.3685(3) 0.4020(2) -0.06679(13)
H47 H 0.3510 0.3807 -0.1208
C48 C 0.2160(3) 0.3859(2) -0.03345(14)
H48 H 0.1371 0.4292 -0.0564
H49 H 0.1841 0.3076 -0.0459
C49 C 0.2249(3) 0.4199(2) 0.04915(15)
C50 C 0.1785(3) 0.5255(3) 0.07953(18)
H50 H 0.1415 0.5753 0.0486
C51 C 0.1873(4) 0.5569(3) 0.15555(19)
H51 H 0.1555 0.6278 0.1751
C52 C 0.2418(4) 0.4858(3) 0.20298(18)
H52 H 0.2490 0.5082 0.2541
C53 C 0.2855(4) 0.3804(3) 0.17261(18)
H53 H 0.3216 0.3310 0.2040
C54 C 0.2772(3) 0.3461(3) 0.09649(17)
H54 H 0.3064 0.2744 0.0772
Cl4 Cl 0.53484(7) 0.13044(7) 0.80132(4)
P4 P 0.34109(7) 0.13681(5) 0.73036(4)
O13 O 0.3965(2) 0.26457(15) 0.71192(11)
O14 O 0.4790(3) 0.34864(17) 0.62288(14)
O15 O 0.27554(19) 0.00859(14) 0.74675(10)
O16 O 0.0854(2) -0.07420(14) 0.79106(10)
N7 N 0.3600(3) 0.08125(17) 0.64482(12)
H55 H 0.373(4) 0.015(3) 0.6353(17)
N8 N 0.1943(2) 0.19507(17) 0.76746(12)
H56 H 0.1796 0.2656 0.7688
C55 C 0.4406(3) 0.2649(2) 0.64461(18)
C56 C 0.4309(3) 0.1483(2) 0.59864(15)
H57 H 0.5348 0.1217 0.5907
C57 C 0.3378(4) 0.1515(3) 0.52466(17)
H58 H 0.2343 0.1751 0.5335
H59 H 0.3840 0.2071 0.5005
C58 C 0.3279(4) 0.0417(3) 0.47362(15)
C59 C 0.4377(4) 0.0136(3) 0.42488(16)
H60 H 0.5181 0.0641 0.4242
C60 C 0.4312(5) -0.0867(4) 0.3776(2)
H61 H 0.5075 -0.1026 0.3459
C61 C 0.3203(5) -0.1606(4) 0.3761(2)
H62 H 0.3181 -0.2282 0.3436
C62 C 0.2066(5) -0.1376(3) 0.4230(2)
H63 H 0.1277 -0.1900 0.4220
C63 C 0.2093(4) -0.0336(3) 0.4730(2)
H64 H 0.1324 -0.0174 0.5044
C64 C 0.1464(3) 0.0094(2) 0.77852(13)
C65 C 0.0891(3) 0.1280(2) 0.79810(14)
H65 H 0.1011 0.1494 0.8522
C66 C -0.0802(3) 0.1394(2) 0.76959(15)
H66 H -0.1430 0.0929 0.7937
H67 H -0.1094 0.2165 0.7839
C67 C -0.1165(3) 0.1072(2) 0.68652(16)
C68 C -0.0891(3) 0.1826(3) 0.63891(18)
H68 H -0.0501 0.2542 0.6586
C69 C -0.1194(4) 0.1519(3) 0.56262(19)
H69 H -0.0993 0.2021 0.5312
C70 C -0.1796(4) 0.0465(4) 0.5337(2)
H70 H -0.1992 0.0254 0.4826
C71 C -0.2107(4) -0.0273(3) 0.5796(2)
H71 H -0.2535 -0.0977 0.5597
C72 C -0.1787(3) 0.0026(3) 0.65563(18)
H72 H -0.1992 -0.0484 0.6864
loop_
_geom_bond_atom_site_label_1
_geom_bond_atom_site_label_2
_geom_bond_site_symmetry_1
_geom_bond_site_symmetry_2
Cl1 P1 1_555 1_555
P1 O1 1_555 1_555
O1 C1 1_555 1_555
O2 C1 1_555 1_555
O3 P1 1_555 1_555
O4 C10 1_555 1_555
N1 P1 1_555 1_555
H1 N1 1_555 1_555
N2 P1 1_555 1_555
H2 N2 1_555 1_555
C1 C2 1_555 1_555
C2 N1 1_555 1_555
H3 C2 1_555 1_555
C3 C2 1_555 1_555
H4 C3 1_555 1_555
H5 C3 1_555 1_555
C4 C3 1_555 1_555
C5 C4 1_555 1_555
H6 C5 1_555 1_555
C6 C5 1_555 1_555
H7 C6 1_555 1_555
C7 C6 1_555 1_555
H8 C7 1_555 1_555
C8 C7 1_555 1_555
H9 C8 1_555 1_555
C9 C4 1_555 1_555
H10 C9 1_555 1_555
C10 O3 1_555 1_555
C11 N2 1_555 1_555
H11 C11 1_555 1_555
C12 C11 1_555 1_555
H12 C12 1_555 1_555
H13 C12 1_555 1_555
C13 C12 1_555 1_555
C14 C13 1_555 1_555
H14 C14 1_555 1_555
C15 C14 1_555 1_555
H15 C15 1_555 1_555
C16 C15 1_555 1_555
H16 C16 1_555 1_555
C17 C16 1_555 1_555
H17 C17 1_555 1_555
C18 C13 1_555 1_555
H18 C18 1_555 1_555
Cl2 P2 1_555 1_555
P2 O5 1_555 1_555
O5 C19 1_555 1_555
O6 C19 1_555 1_555
O7 P2 1_555 1_555
O8 C28 1_555 1_555
N3 P2 1_555 1_555
H19 N3 1_555 1_555
N4 P2 1_555 1_555
H20 N4 1_555 1_555
C19 C20 1_555 1_555
C20 N3 1_555 1_555
H21 C20 1_555 1_555
C21 C20 1_555 1_555
H22 C21 1_555 1_555
H23 C21 1_555 1_555
C22 C21 1_555 1_555
C23 C22 1_555 1_555
H24 C23 1_555 1_555
C24 C23 1_555 1_555
H25 C24 1_555 1_555
C25 C24 1_555 1_555
H26 C25 1_555 1_555
C26 C25 1_555 1_555
H27 C26 1_555 1_555
C27 C22 1_555 1_555
H28 C27 1_555 1_555
C28 O7 1_555 1_555
C29 N4 1_555 1_555
H29 C29 1_555 1_555
C30 C29 1_555 1_555
H30 C30 1_555 1_555
H31 C30 1_555 1_555
C31 C30 1_555 1_555
C32 C31 1_555 1_555
H32 C32 1_555 1_555
C33 C32 1_555 1_555
H33 C33 1_555 1_555
C34 C33 1_555 1_555
H34 C34 1_555 1_555
C35 C34 1_555 1_555
H35 C35 1_555 1_555
C36 C31 1_555 1_555
H36 C36 1_555 1_555
Cl3 P3 1_555 1_555
P3 O9 1_555 1_555
O9 C37 1_555 1_555
O10 C37 1_555 1_555
O11 P3 1_555 1_555
O12 C46 1_555 1_555
N5 P3 1_555 1_555
H37 N5 1_555 1_555
N6 P3 1_555 1_555
H38 N6 1_555 1_555
C37 C38 1_555 1_555
C38 N5 1_555 1_555
H39 C38 1_555 1_555
C39 C38 1_555 1_555
H40 C39 1_555 1_555
H41 C39 1_555 1_555
C40 C39 1_555 1_555
C41 C40 1_555 1_555
H42 C41 1_555 1_555
C42 C41 1_555 1_555
H43 C42 1_555 1_555
C43 C42 1_555 1_555
H44 C43 1_555 1_555
C44 C43 1_555 1_555
H45 C44 1_555 1_555
C45 C40 1_555 1_555
H46 C45 1_555 1_555
C46 O11 1_555 1_555
C47 N6 1_555 1_555
H47 C47 1_555 1_555
C48 C47 1_555 1_555
H48 C48 1_555 1_555
H49 C48 1_555 1_555
C49 C48 1_555 1_555
C50 C49 1_555 1_555
H50 C50 1_555 1_555
C51 C50 1_555 1_555
H51 C51 1_555 1_555
C52 C51 1_555 1_555
H52 C52 1_555 1_555
C53 C52 1_555 1_555
H53 C53 1_555 1_555
C54 C49 1_555 1_555
H54 C54 1_555 1_555
Cl4 P4 1_555 1_555
P4 O13 1_555 1_555
O13 C55 1_555 1_555
O14 C55 1_555 1_555
O15 P4 1_555 1_555
O16 C64 1_555 1_555
N7 P4 1_555 1_555
H55 N7 1_555 1_555
N8 P4 1_555 1_555
H56 N8 1_555 1_555
C55 C56 1_555 1_555
C56 N7 1_555 1_555
H57 C56 1_555 1_555
C57 C56 1_555 1_555
H58 C57 1_555 1_555
H59 C57 1_555 1_555
C58 C57 1_555 1_555
C59 C58 1_555 1_555
H60 C59 1_555 1_555
C60 C59 1_555 1_555
H61 C60 1_555 1_555
C61 C60 1_555 1_555
H62 C61 1_555 1_555
C62 C61 1_555 1_555
H63 C62 1_555 1_555
C63 C58 1_555 1_555
H64 C63 1_555 1_555
C64 O15 1_555 1_555
C65 N8 1_555 1_555
H65 C65 1_555 1_555
C66 C65 1_555 1_555
H66 C66 1_555 1_555
H67 C66 1_555 1_555
C67 C66 1_555 1_555
C68 C67 1_555 1_555
H68 C68 1_555 1_555
C69 C68 1_555 1_555
H69 C69 1_555 1_555
C70 C69 1_555 1_555
H70 C70 1_555 1_555
C71 C70 1_555 1_555
H71 C71 1_555 1_555
C72 C67 1_555 1_555
H72 C72 1_555 1_555
C8 C9 1_555 1_555
C10 C11 1_555 1_555
C17 C18 1_555 1_555
C26 C27 1_555 1_555
C28 C29 1_555 1_555
C35 C36 1_555 1_555
C44 C45 1_555 1_555
C46 C47 1_555 1_555
C53 C54 1_555 1_555
C62 C63 1_555 1_555
C64 C65 1_555 1_555
C71 C72 1_555 1_555

#END
