
#######################################################################
#
#                 Cambridge Crystallographic Data Centre
#                                CCDC 
#
#######################################################################
#
# If this CIF has been generated from an entry in the Cambridge 
# Structural Database, then it will include bibliographic, chemical, 
# crystal, experimental, refinement or atomic coordinate data resulting 
# from the CCDC's data processing and validation procedures.
#
#######################################################################

data_UNIBEA
_chemical_formula_moiety         'C23 H28 N3 O6 P1'
_chemical_name_systematic        
\D~p~-3,8-Dibenzyl-5-((diethylcarbamoyl)oxy)-1,6-dioxa-4,9-diaza-5-phosphaspiro[4.4]nonane-2,7-dione
_symmetry_cell_setting           monoclinic
_symmetry_space_group_name_H-M   'P 21'
_symmetry_Int_Tables_number      4
_space_group_name_Hall           'P 2yb'
loop_
_symmetry_equiv_pos_site_id
_symmetry_equiv_pos_as_xyz
1 x,y,z
2 -x,1/2+y,-z
_cell_length_a                   11.3068(3)
_cell_length_b                   8.2583(3)
_cell_length_c                   13.1949(4)
_cell_angle_alpha                90
_cell_angle_beta                 101.098(3)
_cell_angle_gamma                90
_cell_volume                     1209.03
_chemical_melting_point          '152-154 deg.C'
_cell_formula_units_Z            2
_chemical_properties_physical    Moisture-sensitive
loop_
_atom_site_label
_atom_site_type_symbol
_atom_site_fract_x
_atom_site_fract_y
_atom_site_fract_z
P1 P 0.24208(3) 0.37392(6) 0.45210(3)
O1 O 0.08730(9) 0.36544(18) 0.42992(10)
O2 O -0.07715(11) 0.51565(19) 0.39294(12)
O3 O 0.39857(10) 0.3852(2) 0.47855(10)
O4 O 0.56167(12) 0.2891(2) 0.58111(13)
O5 O 0.25140(14) 0.2700(2) 0.34953(12)
O6 O 0.11908(17) 0.4030(3) 0.22638(13)
N1 N 0.23482(14) 0.5700(2) 0.44574(16)
N2 N 0.24893(13) 0.2585(2) 0.55232(13)
N3 N 0.21557(19) 0.1783(3) 0.18819(15)
C1 C 0.03040(15) 0.5063(2) 0.41033(14)
C2 C 0.11782(16) 0.6473(3) 0.41915(17)
H1 H 0.1059 0.7171 0.4764
C3 C 0.10853(19) 0.7505(3) 0.3209(2)
H2 H 0.1753 0.8263 0.3312
H3 H 0.1178 0.6797 0.2643
C4 C -0.00735(18) 0.8450(3) 0.28933(15)
C5 C -0.0193(2) 0.9986(3) 0.32658(17)
H4 H 0.0435 1.0432 0.3743
C6 C -0.1231(2) 1.0877(3) 0.2943(2)
H5 H -0.1296 1.1916 0.3198
C7 C -0.2172(2) 1.0217(4) 0.2239(2)
H6 H -0.2873 1.0811 0.2019
C8 C -0.2067(2) 0.8677(4) 0.18630(17)
H7 H -0.2699 0.8231 0.1389
C9 C -0.1022(2) 0.7790(3) 0.21892(17)
H8 H -0.0957 0.6749 0.1936
C10 C 0.45384(16) 0.3012(3) 0.55872(15)
C11 C 0.36488(16) 0.2263(2) 0.61779(14)
H9 H 0.3692 0.2862 0.6825
C12 C 0.38674(18) 0.0462(3) 0.64376(15)
H10 H 0.3115 -0.0122 0.6236
H11 H 0.4433 0.0035 0.6038
C13 C 0.4356(2) 0.0168(3) 0.75707(17)
C14 C 0.3613(3) -0.0452(4) 0.8191(2)
H12 H 0.2814 -0.0699 0.7914
C15 C 0.4073(5) -0.0705(6) 0.9245(3)
H13 H 0.3586 -0.1133 0.9671
C16 C 0.5241(7) -0.0318(7) 0.9636(3)
H14 H 0.5538 -0.0455 1.0338
C17 C 0.5988(5) 0.0266(7) 0.9025(4)
H15 H 0.6791 0.0487 0.9305
C18 C 0.5550(3) 0.0526(4) 0.7993(3)
H16 H 0.6053 0.0942 0.7576
C19 C 0.18748(19) 0.2925(3) 0.24988(17)
C20 C 0.1594(3) 0.1880(4) 0.07795(19)
H17 H 0.2174 0.1540 0.0368
H18 H 0.1380 0.2997 0.0604
C21 C 0.0487(5) 0.0843(8) 0.0515(3)
H19 H 0.0152 0.0945 -0.0209
H20 H -0.0097 0.1189 0.0910
H21 H 0.0698 -0.0267 0.0673
C22 C 0.3040(3) 0.0505(3) 0.2214(2)
H22 H 0.2844 -0.0424 0.1764
H23 H 0.2985 0.0170 0.2908
C23 C 0.4315(3) 0.1021(5) 0.2204(3)
H24 H 0.4356 0.1481 0.1544
H25 H 0.4838 0.0097 0.2328
H26 H 0.4564 0.1814 0.2735
H27 H 0.184(2) 0.228(3) 0.5701(19)
H28 H 0.297(3) 0.624(4) 0.450(2)
loop_
_geom_bond_atom_site_label_1
_geom_bond_atom_site_label_2
_geom_bond_site_symmetry_1
_geom_bond_site_symmetry_2
P1 O1 1_555 1_555
O1 C1 1_555 1_555
O2 C1 1_555 1_555
O3 P1 1_555 1_555
O4 C10 1_555 1_555
O5 P1 1_555 1_555
O6 C19 1_555 1_555
N1 P1 1_555 1_555
N2 P1 1_555 1_555
N3 C19 1_555 1_555
C1 C2 1_555 1_555
C2 N1 1_555 1_555
H1 C2 1_555 1_555
C3 C2 1_555 1_555
H2 C3 1_555 1_555
H3 C3 1_555 1_555
C4 C3 1_555 1_555
C5 C4 1_555 1_555
H4 C5 1_555 1_555
C6 C5 1_555 1_555
H5 C6 1_555 1_555
C7 C6 1_555 1_555
H6 C7 1_555 1_555
C8 C7 1_555 1_555
H7 C8 1_555 1_555
C9 C4 1_555 1_555
H8 C9 1_555 1_555
C10 O3 1_555 1_555
C11 N2 1_555 1_555
H9 C11 1_555 1_555
C12 C11 1_555 1_555
H10 C12 1_555 1_555
H11 C12 1_555 1_555
C13 C12 1_555 1_555
C14 C13 1_555 1_555
H12 C14 1_555 1_555
C15 C14 1_555 1_555
H13 C15 1_555 1_555
C16 C15 1_555 1_555
H14 C16 1_555 1_555
C17 C16 1_555 1_555
H15 C17 1_555 1_555
C18 C13 1_555 1_555
H16 C18 1_555 1_555
C19 O5 1_555 1_555
C20 N3 1_555 1_555
H17 C20 1_555 1_555
H18 C20 1_555 1_555
C21 C20 1_555 1_555
H19 C21 1_555 1_555
H20 C21 1_555 1_555
H21 C21 1_555 1_555
C22 N3 1_555 1_555
H22 C22 1_555 1_555
H23 C22 1_555 1_555
C23 C22 1_555 1_555
H24 C23 1_555 1_555
H25 C23 1_555 1_555
H26 C23 1_555 1_555
H27 N2 1_555 1_555
H28 N1 1_555 1_555
C8 C9 1_555 1_555
C10 C11 1_555 1_555
C17 C18 1_555 1_555

#END
