
#######################################################################
#
#                 Cambridge Crystallographic Data Centre
#                                CCDC 
#
#######################################################################
#
# If this CIF has been generated from an entry in the Cambridge 
# Structural Database, then it will include bibliographic, chemical, 
# crystal, experimental, refinement or atomic coordinate data resulting 
# from the CCDC's data processing and validation procedures.
#
#######################################################################

data_UNIBID
_chemical_formula_moiety         'C18 H14 F3 N3 O4'
_chemical_name_systematic        
'cis-Methyl 2-(4-nitrophenyl)-4-(trifluoromethyl)-2,3-dihydro-1H-1,5-benzodiazepine-3-carboxylate'
_symmetry_cell_setting           triclinic
_symmetry_space_group_name_H-M   'P -1'
_symmetry_Int_Tables_number      2
_space_group_name_Hall           '-P 1'
loop_
_symmetry_equiv_pos_site_id
_symmetry_equiv_pos_as_xyz
1 x,y,z
2 -x,-y,-z
_cell_length_a                   8.825(6)
_cell_length_b                   9.598(7)
_cell_length_c                   12.295(9)
_cell_angle_alpha                88.156(10)
_cell_angle_beta                 70.934(9)
_cell_angle_gamma                63.004(8)
_cell_volume                     868.663
_exptl_crystal_colour            colorless
_exptl_crystal_description       block
_chemical_melting_point          '176.5-180.0 deg.C'
_cell_formula_units_Z            2
loop_
_atom_site_label
_atom_site_type_symbol
_atom_site_fract_x
_atom_site_fract_y
_atom_site_fract_z
N1 N 0.9195(3) 0.9064(3) 0.18419(19)
N2 N 0.4995(3) 1.0560(3) 0.2877(2)
C1 C 0.7906(4) 1.0663(3) 0.2044(2)
F1 F 1.0736(3) 0.5354(2) 0.0793(2)
C2 C 0.8946(3) 0.7862(3) 0.1865(2)
C3 C 0.5999(4) 1.1357(3) 0.2532(2)
C4 C 0.2728(4) 0.9059(3) 0.3284(2)
H1 H 0.2675 0.9691 0.2694
C5 C 0.4173(3) 0.8553(3) 0.3680(2)
C6 C 0.5007(4) 1.3006(3) 0.2656(2)
H2 H 0.3748 1.3485 0.2993
F2 F 1.2139(3) 0.6357(2) 0.1306(3)
C7 C 0.4245(4) 0.7590(4) 0.4546(2)
H3 H 0.5221 0.7224 0.4806
F3 F 1.0560(3) 0.5543(3) 0.2529(2)
C8 C 0.1484(4) 0.7688(4) 0.4613(2)
C9 C 0.1371(4) 0.8641(3) 0.3752(2)
H4 H 0.0398 0.8995 0.3491
C10 C 0.8701(4) 1.1651(4) 0.1696(3)
H5 H 0.9960 1.1201 0.1382
C11 C 0.5835(5) 1.3936(3) 0.2294(3)
H6 H 0.5139 1.5026 0.2383
C12 C 1.0617(4) 0.6290(3) 0.1622(3)
O1 O -0.1285(4) 0.7844(4) 0.4811(3)
C13 C 0.7694(5) 1.3255(4) 0.1801(3)
H7 H 0.8261 1.3878 0.1542
C14 C 0.2898(5) 0.7165(4) 0.5028(3)
H8 H 0.2941 0.6539 0.5621
N3 N 0.0005(5) 0.7303(4) 0.5128(3)
C15 C 0.5694(3) 0.8967(3) 0.3177(2)
H9 H 0.6220 0.8933 0.3773
O2 O 0.0086(6) 0.6507(7) 0.5889(4)
C16 C 0.7222(3) 0.7766(3) 0.2100(2)
C17 C 0.6715(3) 0.8001(3) 0.1013(2)
C18 C 0.5039(5) 0.7553(4) 0.0043(3)
H10 H 0.3954 0.8542 0.0200
H11 H 0.4785 0.6706 -0.0068
H12 H 0.5960 0.7541 -0.0646
O3 O 0.5672(3) 0.7356(2) 0.10198(17)
O4 O 0.7209(3) 0.8663(3) 0.02606(19)
H13 H 0.386(3) 1.120(3) 0.329(2)
H14 H 0.739(4) 0.675(2) 0.232(2)
loop_
_geom_bond_atom_site_label_1
_geom_bond_atom_site_label_2
_geom_bond_site_symmetry_1
_geom_bond_site_symmetry_2
N1 C1 1_555 1_555
N2 C3 1_555 1_555
C1 C3 1_555 1_555
F1 C12 1_555 1_555
C2 N1 1_555 1_555
C3 C6 1_555 1_555
C4 H1 1_555 1_555
C5 C4 1_555 1_555
C6 H2 1_555 1_555
F2 C12 1_555 1_555
C7 C5 1_555 1_555
H3 C7 1_555 1_555
F3 C12 1_555 1_555
C8 C9 1_555 1_555
C9 C4 1_555 1_555
H4 C9 1_555 1_555
C10 C1 1_555 1_555
H5 C10 1_555 1_555
C11 C6 1_555 1_555
H6 C11 1_555 1_555
C12 C2 1_555 1_555
O1 N3 1_555 1_555
C13 C10 1_555 1_555
H7 C13 1_555 1_555
C14 C7 1_555 1_555
H8 C14 1_555 1_555
N3 C8 1_555 1_555
C15 N2 1_555 1_555
H9 C15 1_555 1_555
O2 N3 1_555 1_555
C16 C2 1_555 1_555
C17 C16 1_555 1_555
C18 H10 1_555 1_555
H11 C18 1_555 1_555
H12 C18 1_555 1_555
O3 C17 1_555 1_555
O4 C17 1_555 1_555
H13 N2 1_555 1_555
H14 C16 1_555 1_555
C5 C15 1_555 1_555
C8 C14 1_555 1_555
C11 C13 1_555 1_555
C15 C16 1_555 1_555
C18 O3 1_555 1_555

#END
