
#######################################################################
#
#                 Cambridge Crystallographic Data Centre
#                                CCDC 
#
#######################################################################
#
# If this CIF has been generated from an entry in the Cambridge 
# Structural Database, then it will include bibliographic, chemical, 
# crystal, experimental, refinement or atomic coordinate data resulting 
# from the CCDC's data processing and validation procedures.
#
#######################################################################

data_UNICUP
_chemical_formula_moiety         'C11 H15 N1 O6'
_chemical_name_systematic        
'Methyl rac-(1R,2R,4R,5R,8R)-1-(methoxymethoxy)-7-oxo-3-oxa-6-azatricyclo(3.2.2.0^2,4^)nonane-8-carboxylate'
_symmetry_cell_setting           triclinic
_symmetry_space_group_name_H-M   'P -1'
_symmetry_Int_Tables_number      2
_space_group_name_Hall           '-P 1'
loop_
_symmetry_equiv_pos_site_id
_symmetry_equiv_pos_as_xyz
1 x,y,z
2 -x,-y,-z
_cell_length_a                   6.9317(12)
_cell_length_b                   9.5462(13)
_cell_length_c                   9.6249(15)
_cell_angle_alpha                105.880(12)
_cell_angle_beta                 91.403(13)
_cell_angle_gamma                104.468(12)
_cell_volume                     590.206
_exptl_crystal_colour            colorless
_exptl_crystal_description       prism
_chemical_melting_point          122deg.C
_cell_formula_units_Z            2
_exptl_crystal_recrystallization_method 'dichloromethane/diethyl ether'
loop_
_atom_site_label
_atom_site_type_symbol
_atom_site_fract_x
_atom_site_fract_y
_atom_site_fract_z
C1 C 0.1764(2) 0.21685(17) 0.76205(17)
C2 C 0.2559(2) 0.11697(19) 0.63140(17)
H1 H 0.145(3) 0.044(3) 0.581(2)
C3 C 0.4099(3) 0.0488(2) 0.6899(2)
H2 H 0.370(4) -0.071(3) 0.639(3)
H3 H 0.558(4) 0.096(3) 0.670(3)
C4 C 0.4011(3) 0.0796(2) 0.8538(2)
H4 H 0.484(4) 0.026(3) 0.896(3)
C5 C 0.4822(3) 0.2502(3) 0.91772(19)
H5 H 0.628(4) 0.298(3) 0.932(3)
O1 O 0.3579(2) 0.32649(17) 1.01186(13)
C6 C 0.3577(3) 0.3286(2) 0.86162(17)
H6 H 0.422(4) 0.425(3) 0.852(3)
C7 C 0.0728(2) 0.11104(19) 0.84885(17)
N1 N 0.1930(2) 0.03223(19) 0.88242(16)
H7 H 0.164(4) -0.015(3) 0.953(3)
O2 O -0.09956(17) 0.10026(15) 0.88199(14)
O3 O 0.04318(18) 0.27925(14) 0.70261(13)
C8 C -0.0200(3) 0.3967(2) 0.7997(3)
H8 H -0.155(4) 0.402(3) 0.748(3)
H9 H -0.024(4) 0.377(3) 0.896(3)
O4 O 0.1145(3) 0.53780(18) 0.8253(2)
C9 C 0.1383(7) 0.5866(5) 0.6989(6)
H10 H 0.271(9) 0.557(8) 0.627(7)
H11 H 0.197(9) 0.701(8) 0.735(8)
H12 H -0.024(10) 0.534(8) 0.644(8)
C10 C 0.3451(3) 0.21239(19) 0.53484(18)
O5 O 0.2260(2) 0.17755(17) 0.41316(14)
C11 C 0.2985(4) 0.2589(3) 0.3100(2)
H13 H 0.322(6) 0.372(5) 0.358(5)
H14 H 0.235(6) 0.249(4) 0.237(5)
H15 H 0.414(6) 0.228(5) 0.284(4)
O6 O 0.5036(2) 0.30610(19) 0.56274(17)
loop_
_geom_bond_atom_site_label_1
_geom_bond_atom_site_label_2
_geom_bond_site_symmetry_1
_geom_bond_site_symmetry_2
C1 C2 1_555 1_555
C2 H1 1_555 1_555
C3 C2 1_555 1_555
H2 C3 1_555 1_555
H3 C3 1_555 1_555
C4 C3 1_555 1_555
H4 C4 1_555 1_555
C5 C4 1_555 1_555
H5 C5 1_555 1_555
O1 C5 1_555 1_555
C6 C1 1_555 1_555
H6 C6 1_555 1_555
C7 C1 1_555 1_555
N1 C4 1_555 1_555
H7 N1 1_555 1_555
O2 C7 1_555 1_555
O3 C1 1_555 1_555
C8 O3 1_555 1_555
H8 C8 1_555 1_555
H9 C8 1_555 1_555
O4 C8 1_555 1_555
C9 O4 1_555 1_555
H10 C9 1_555 1_555
H11 C9 1_555 1_555
H12 C9 1_555 1_555
C10 C2 1_555 1_555
O5 C10 1_555 1_555
C11 O5 1_555 1_555
H13 C11 1_555 1_555
H14 C11 1_555 1_555
H15 C11 1_555 1_555
O6 C10 1_555 1_555
C5 C6 1_555 1_555
O1 C6 1_555 1_555
C7 N1 1_555 1_555

#END
