
#######################################################################
#
#                 Cambridge Crystallographic Data Centre
#                                CCDC 
#
#######################################################################
#
# If this CIF has been generated from an entry in the Cambridge 
# Structural Database, then it will include bibliographic, chemical, 
# crystal, experimental, refinement or atomic coordinate data resulting 
# from the CCDC's data processing and validation procedures.
#
#######################################################################

data_UNIFIG
_chemical_formula_moiety         'C23 H26 B1 F2 N3 O2'
_chemical_name_systematic        
2,8-Diethyl-5,5-difluoro-1,3,7,9-tetramethyl-10-(4-nitrophenyl)dipyrrolo(1,2-c:2,1-f)(1,3,2)diazaborinin-4-ium-5-uide
_symmetry_cell_setting           triclinic
_symmetry_space_group_name_H-M   'P -1'
_symmetry_Int_Tables_number      2
_space_group_name_Hall           '-P 1'
loop_
_symmetry_equiv_pos_site_id
_symmetry_equiv_pos_as_xyz
1 x,y,z
2 -x,-y,-z
_cell_length_a                   13.9886(4)
_cell_length_b                   17.0634(5)
_cell_length_c                   18.9111(6)
_cell_angle_alpha                71.360(2)
_cell_angle_beta                 72.540(2)
_cell_angle_gamma                88.770(2)
_cell_volume                     4066.25
_exptl_crystal_colour            'dark red'
_chemical_melting_point          193.5-196deg.C
_cell_formula_units_Z            6
_exptl_crystal_recrystallization_method chloroform/hexane
loop_
_atom_site_label
_atom_site_type_symbol
_atom_site_fract_x
_atom_site_fract_y
_atom_site_fract_z
C1 C 0.5409(4) 0.3115(3) 0.2992(3)
C2 C 0.5214(4) 0.2658(3) 0.2534(3)
N1 N 0.5437(3) 0.1827(2) 0.2696(3)
B1 B 0.5821(5) 0.1325(4) 0.3369(4)
N2 N 0.5994(3) 0.1915(2) 0.3795(3)
C3 C 0.5812(4) 0.2755(3) 0.3600(3)
C4 C 0.6170(5) 0.3100(3) 0.4077(4)
C5 C 0.6542(5) 0.2457(4) 0.4557(4)
C6 C 0.6413(4) 0.1738(3) 0.4372(4)
C7 C 0.4755(4) 0.2852(4) 0.1939(3)
C8 C 0.4731(4) 0.2147(4) 0.1728(3)
C9 C 0.5153(4) 0.1529(4) 0.2204(4)
C10 C 0.5288(5) 0.0651(4) 0.2216(4)
H1 H 0.5605 0.0375 0.2604
H2 H 0.5702 0.0649 0.1710
H3 H 0.4643 0.0366 0.2343
C11 C 0.4283(5) 0.2041(4) 0.1137(4)
H4 H 0.4656 0.1655 0.0899
H5 H 0.4348 0.2570 0.0726
C12 C 0.3193(7) 0.1724(6) 0.1491(5)
H6 H 0.2939 0.1665 0.1090
H7 H 0.2819 0.2109 0.1718
H8 H 0.3126 0.1194 0.1891
C13 C 0.4352(6) 0.3664(4) 0.1575(4)
H9 H 0.4453 0.4060 0.1816
H10 H 0.3647 0.3573 0.1656
H11 H 0.4702 0.3875 0.1022
F1 F 0.6726(2) 0.10057(19) 0.3077(2)
F2 F 0.5131(2) 0.06713(18) 0.38804(19)
C14 C 0.6678(5) 0.0882(3) 0.4751(4)
H12 H 0.6511 0.0510 0.4510
H13 H 0.6308 0.0695 0.5301
H14 H 0.7386 0.0895 0.4687
C15 C 0.7075(6) 0.2509(4) 0.5129(5)
H15 H 0.6937 0.1989 0.5561
H16 H 0.6815 0.2945 0.5342
C16 C 0.8207(6) 0.2686(6) 0.4743(6)
H17 H 0.8518 0.2713 0.5124
H18 H 0.8348 0.3206 0.4322
H19 H 0.8470 0.2251 0.4539
C17 C 0.6167(6) 0.3990(4) 0.4071(5)
H20 H 0.5861 0.4313 0.3693
H21 H 0.6846 0.4215 0.3935
H22 H 0.5793 0.4006 0.4582
C18 C 0.5176(4) 0.3993(3) 0.2807(3)
C19 C 0.5790(5) 0.4598(4) 0.2168(4)
H23 H 0.6366 0.4451 0.1854
C20 C 0.5575(6) 0.5418(4) 0.1977(5)
H24 H 0.5998 0.5819 0.1539
C21 C 0.4739(6) 0.5628(3) 0.2440(4)
C22 C 0.4114(5) 0.5047(4) 0.3091(4)
H25 H 0.3546 0.5201 0.3408
C23 C 0.4340(5) 0.4228(4) 0.3270(4)
H26 H 0.3919 0.3830 0.3712
N3 N 0.4497(7) 0.6492(4) 0.2242(5)
O1 O 0.3748(6) 0.6656(4) 0.2666(5)
O2 O 0.5058(6) 0.7000(4) 0.1675(5)
C24 C 0.1651(4) 0.5989(5) -0.0974(4)
C25 C 0.2139(5) 0.6274(4) -0.0551(4)
N4 N 0.2631(4) 0.5715(3) -0.0082(3)
B2 B 0.2623(6) 0.4780(5) 0.0052(5)
N5 N 0.2075(4) 0.4591(4) -0.0464(3)
C26 C 0.1626(5) 0.5171(5) -0.0947(4)
C27 C 0.1275(6) 0.4749(6) -0.1375(6)
C28 C 0.1490(7) 0.3943(5) -0.1124(6)
C29 C 0.1996(5) 0.3846(5) -0.0585(5)
C30 C 0.2282(5) 0.7075(5) -0.0485(4)
C31 C 0.2855(5) 0.6978(5) 0.0019(4)
C32 C 0.3055(5) 0.6138(4) 0.0256(4)
C33 C 0.3664(6) 0.5741(4) 0.0792(4)
H27 H 0.3687 0.5161 0.0850
H28 H 0.3358 0.5802 0.1297
H29 H 0.4335 0.6005 0.0572
C34 C 0.3194(7) 0.7645(5) 0.0285(5)
H30 H 0.3840 0.7525 0.0368
H31 H 0.3284 0.8176 -0.0129
C35 C 0.2457(10) 0.7708(7) 0.1031(7)
H32 H 0.2700 0.8146 0.1165
H33 H 0.2387 0.7192 0.1448
H34 H 0.1815 0.7827 0.0952
C36 C 0.1906(7) 0.7895(5) -0.0869(5)
H35 H 0.1530 0.7815 -0.1194
H36 H 0.2469 0.8294 -0.1186
H37 H 0.1482 0.8094 -0.0471
F3 F 0.2146(3) 0.4341(2) 0.0846(2)
F4 F 0.3603(3) 0.4558(2) -0.0137(2)
C37 C 0.2383(6) 0.3080(4) -0.0152(5)
H38 H 0.2682 0.3202 0.0200
H39 H 0.2878 0.2886 -0.0520
H40 H 0.1837 0.2659 0.0142
C38 C 0.1393(10) 0.3231(6) -0.1532(9)
H41 H 0.1433 0.3485 -0.2079
H42 H 0.1911 0.2847 -0.1494
C39 C 0.0454(16) 0.2842(11) -0.1089(12)
H43 H 0.0311 0.2416 -0.1283
H44 H -0.0040 0.3240 -0.1123
H45 H 0.0436 0.2597 -0.0552
C40 C 0.0758(9) 0.5135(6) -0.2017(7)
H46 H 0.0680 0.5710 -0.2074
H47 H 0.0109 0.4846 -0.1866
H48 H 0.1166 0.5087 -0.2507
C41 C 0.1168(5) 0.6616(4) -0.1504(4)
C42 C 0.0165(5) 0.6653(5) -0.1313(5)
H49 H -0.0244 0.6283 -0.0844
C43 C -0.0267(5) 0.7227(5) -0.1797(5)
H50 H -0.0960 0.7255 -0.1659
C44 C 0.0351(5) 0.7750(4) -0.2485(4)
C45 C 0.1347(5) 0.7725(4) -0.2702(4)
H51 H 0.1755 0.8088 -0.3175
C46 C 0.1753(5) 0.7141(5) -0.2202(4)
H52 H 0.2445 0.7107 -0.2347
N6 N -0.0090(6) 0.8383(4) -0.3003(4)
O3 O 0.0430(5) 0.8799(4) -0.3636(4)
O4 O -0.0981(5) 0.8451(4) -0.2774(4)
C47 C 0.2315(4) 0.2675(3) 0.4916(3)
C48 C 0.2901(5) 0.2632(3) 0.5401(4)
N7 N 0.3064(4) 0.3325(3) 0.5608(3)
B3 B 0.2595(7) 0.4146(5) 0.5381(5)
N8 N 0.1987(4) 0.4102(3) 0.4846(3)
C49 C 0.1871(4) 0.3416(4) 0.4627(3)
C50 C 0.1327(4) 0.3643(4) 0.4070(4)
C51 C 0.1103(5) 0.4453(4) 0.3990(4)
C52 C 0.1525(5) 0.4727(4) 0.4475(4)
C53 C 0.3434(5) 0.1987(4) 0.5759(4)
C54 C 0.3895(6) 0.2286(4) 0.6175(4)
C55 C 0.3663(6) 0.3113(4) 0.6063(4)
C56 C 0.4016(7) 0.3733(4) 0.6379(5)
H53 H 0.3728 0.4250 0.6213
H54 H 0.4736 0.3822 0.6182
H55 H 0.3806 0.3518 0.6942
C57 C 0.4549(8) 0.1851(5) 0.6644(6)
H56 H 0.4860 0.1419 0.6446
H57 H 0.5078 0.2241 0.6596
C58 C 0.3951(11) 0.1486(7) 0.7468(8)
H58 H 0.4374 0.1194 0.7765
H59 H 0.3422 0.1107 0.7513
H60 H 0.3664 0.1918 0.7668
C59 C 0.3506(6) 0.1113(4) 0.5707(5)
H61 H 0.3120 0.1045 0.5385
H62 H 0.3247 0.0714 0.6224
H63 H 0.4196 0.1030 0.5479
F5 F 0.3369(3) 0.4793(2) 0.4972(3)
F6 F 0.1999(4) 0.4314(3) 0.6038(2)
C60 C 0.1508(6) 0.5553(4) 0.4562(4)
H64 H 0.1843 0.5558 0.4936
H65 H 0.0824 0.5679 0.4743
H66 H 0.1846 0.5960 0.4065
C61 C 0.0583(6) 0.5002(5) 0.3442(5)
H67 H 0.0086 0.4664 0.3379
H68 H 0.0235 0.5401 0.3672
C62 C 0.1314(7) 0.5458(6) 0.2647(5)
H69 H 0.0958 0.5810 0.2322
H70 H 0.1639 0.5065 0.2407
H71 H 0.1810 0.5790 0.2707
C63 C 0.1026(6) 0.3119(4) 0.3643(5)
H72 H 0.1262 0.2577 0.3801
H73 H 0.1319 0.3379 0.3087
H74 H 0.0307 0.3069 0.3773
C64 C 0.2186(4) 0.1965(3) 0.4659(3)
C65 C 0.2904(5) 0.1842(4) 0.4035(4)
H75 H 0.3466 0.2220 0.3770
C66 C 0.2816(5) 0.1184(4) 0.3794(4)
H76 H 0.3314 0.1110 0.3372
C67 C 0.1998(5) 0.0640(3) 0.4177(4)
C68 C 0.1275(5) 0.0724(4) 0.4805(4)
H77 H 0.0723 0.0335 0.5071
C69 C 0.1368(5) 0.1390(4) 0.5045(4)
H78 H 0.0871 0.1454 0.5473
N9 N 0.1899(5) -0.0071(3) 0.3910(4)
O5 O 0.1149(5) -0.0548(3) 0.4255(4)
O6 O 0.2570(5) -0.0160(3) 0.3380(4)
loop_
_geom_bond_atom_site_label_1
_geom_bond_atom_site_label_2
_geom_bond_site_symmetry_1
_geom_bond_site_symmetry_2
C1 C2 1_555 1_555
C2 N1 1_555 1_555
N1 B1 1_555 1_555
B1 N2 1_555 1_555
N2 C3 1_555 1_555
C3 C1 1_555 1_555
C4 C3 1_555 1_555
C5 C4 1_555 1_555
C6 N2 1_555 1_555
C7 C2 1_555 1_555
C8 C7 1_555 1_555
C9 N1 1_555 1_555
C10 C9 1_555 1_555
H1 C10 1_555 1_555
H2 C10 1_555 1_555
H3 C10 1_555 1_555
C11 C8 1_555 1_555
H4 C11 1_555 1_555
H5 C11 1_555 1_555
C12 C11 1_555 1_555
H6 C12 1_555 1_555
H7 C12 1_555 1_555
H8 C12 1_555 1_555
C13 C7 1_555 1_555
H9 C13 1_555 1_555
H10 C13 1_555 1_555
H11 C13 1_555 1_555
F1 B1 1_555 1_555
F2 B1 1_555 1_555
C14 C6 1_555 1_555
H12 C14 1_555 1_555
H13 C14 1_555 1_555
H14 C14 1_555 1_555
C15 C5 1_555 1_555
H15 C15 1_555 1_555
H16 C15 1_555 1_555
C16 C15 1_555 1_555
H17 C16 1_555 1_555
H18 C16 1_555 1_555
H19 C16 1_555 1_555
C17 C4 1_555 1_555
H20 C17 1_555 1_555
H21 C17 1_555 1_555
H22 C17 1_555 1_555
C18 C1 1_555 1_555
C19 C18 1_555 1_555
H23 C19 1_555 1_555
C20 C19 1_555 1_555
H24 C20 1_555 1_555
C21 C20 1_555 1_555
C22 C21 1_555 1_555
H25 C22 1_555 1_555
C23 C18 1_555 1_555
H26 C23 1_555 1_555
N3 C21 1_555 1_555
O1 N3 1_555 1_555
O2 N3 1_555 1_555
C24 C25 1_555 1_555
C25 N4 1_555 1_555
N4 B2 1_555 1_555
B2 N5 1_555 1_555
N5 C26 1_555 1_555
C26 C24 1_555 1_555
C27 C26 1_555 1_555
C28 C27 1_555 1_555
C29 N5 1_555 1_555
C30 C25 1_555 1_555
C31 C30 1_555 1_555
C32 N4 1_555 1_555
C33 C32 1_555 1_555
H27 C33 1_555 1_555
H28 C33 1_555 1_555
H29 C33 1_555 1_555
C34 C31 1_555 1_555
H30 C34 1_555 1_555
H31 C34 1_555 1_555
C35 C34 1_555 1_555
H32 C35 1_555 1_555
H33 C35 1_555 1_555
H34 C35 1_555 1_555
C36 C30 1_555 1_555
H35 C36 1_555 1_555
H36 C36 1_555 1_555
H37 C36 1_555 1_555
F3 B2 1_555 1_555
F4 B2 1_555 1_555
C37 C29 1_555 1_555
H38 C37 1_555 1_555
H39 C37 1_555 1_555
H40 C37 1_555 1_555
C38 C28 1_555 1_555
H41 C38 1_555 1_555
H42 C38 1_555 1_555
C39 C38 1_555 1_555
H43 C39 1_555 1_555
H44 C39 1_555 1_555
H45 C39 1_555 1_555
C40 C27 1_555 1_555
H46 C40 1_555 1_555
H47 C40 1_555 1_555
H48 C40 1_555 1_555
C41 C24 1_555 1_555
C42 C41 1_555 1_555
H49 C42 1_555 1_555
C43 C42 1_555 1_555
H50 C43 1_555 1_555
C44 C43 1_555 1_555
C45 C44 1_555 1_555
H51 C45 1_555 1_555
C46 C41 1_555 1_555
H52 C46 1_555 1_555
N6 C44 1_555 1_555
O3 N6 1_555 1_555
O4 N6 1_555 1_555
C47 C48 1_555 1_555
C48 N7 1_555 1_555
N7 B3 1_555 1_555
B3 N8 1_555 1_555
N8 C49 1_555 1_555
C49 C47 1_555 1_555
C50 C49 1_555 1_555
C51 C50 1_555 1_555
C52 N8 1_555 1_555
C53 C48 1_555 1_555
C54 C53 1_555 1_555
C55 N7 1_555 1_555
C56 C55 1_555 1_555
H53 C56 1_555 1_555
H54 C56 1_555 1_555
H55 C56 1_555 1_555
C57 C54 1_555 1_555
H56 C57 1_555 1_555
H57 C57 1_555 1_555
C58 C57 1_555 1_555
H58 C58 1_555 1_555
H59 C58 1_555 1_555
H60 C58 1_555 1_555
C59 C53 1_555 1_555
H61 C59 1_555 1_555
H62 C59 1_555 1_555
H63 C59 1_555 1_555
F5 B3 1_555 1_555
F6 B3 1_555 1_555
C60 C52 1_555 1_555
H64 C60 1_555 1_555
H65 C60 1_555 1_555
H66 C60 1_555 1_555
C61 C51 1_555 1_555
H67 C61 1_555 1_555
H68 C61 1_555 1_555
C62 C61 1_555 1_555
H69 C62 1_555 1_555
H70 C62 1_555 1_555
H71 C62 1_555 1_555
C63 C50 1_555 1_555
H72 C63 1_555 1_555
H73 C63 1_555 1_555
H74 C63 1_555 1_555
C64 C47 1_555 1_555
C65 C64 1_555 1_555
H75 C65 1_555 1_555
C66 C65 1_555 1_555
H76 C66 1_555 1_555
C67 C66 1_555 1_555
C68 C67 1_555 1_555
H77 C68 1_555 1_555
C69 C64 1_555 1_555
H78 C69 1_555 1_555
N9 C67 1_555 1_555
O5 N9 1_555 1_555
O6 N9 1_555 1_555
C5 C6 1_555 1_555
C8 C9 1_555 1_555
C22 C23 1_555 1_555
C28 C29 1_555 1_555
C31 C32 1_555 1_555
C45 C46 1_555 1_555
C51 C52 1_555 1_555
C54 C55 1_555 1_555
C68 C69 1_555 1_555

#END
