
#######################################################################
#
#                 Cambridge Crystallographic Data Centre
#                                CCDC 
#
#######################################################################
#
# If this CIF has been generated from an entry in the Cambridge 
# Structural Database, then it will include bibliographic, chemical, 
# crystal, experimental, refinement or atomic coordinate data resulting 
# from the CCDC's data processing and validation procedures.
#
#######################################################################

data_UNIFOM
_chemical_name_common            
"2,8,14,20-Tetrahexyl-6,10:12,16:18,22:24,4-O,O'-tetrakis(4,5-dinitro-o-phenylene)calix(4)resorcinarene acetone clathrate"
_chemical_formula_moiety         'C76 H72 N8 O24,2(C3 H6 O1)'
_chemical_name_systematic        
"2,3:2',3':2'',3'':2''',3'''-(2-endo,8-endo,14-endo,20-endo-Tetrahexylpentacyclo(19.3.1.1^3,7^.1^9,13^.1^15,19^)octacosa-1(25),3,5,7(28),9,11,13(27),15,17,19(26),21,23-dodecaene-4,24:6,10:12,16:18,22-octayloctaoxy)tetrakis(4,5-dinitrobenzene) acetone clathrate"
_symmetry_cell_setting           monoclinic
_symmetry_space_group_name_H-M   'P 21/m'
_symmetry_Int_Tables_number      11
_space_group_name_Hall           '-P 2yb'
loop_
_symmetry_equiv_pos_site_id
_symmetry_equiv_pos_as_xyz
1 x,y,z
2 x,1/2-y,z
3 -x,-y,-z
4 -x,1/2+y,-z
_cell_length_a                   12.3125(3)
_cell_length_b                   27.0211(7)
_cell_length_c                   13.1175(4)
_cell_angle_alpha                90
_cell_angle_beta                 99.780(1)
_cell_angle_gamma                90
_cell_volume                     4300.73
_exptl_crystal_colour            orange
_cell_formula_units_Z            2
_chemical_properties_physical    'air- and temperature-sensitive'
loop_
_atom_site_label
_atom_site_type_symbol
_atom_site_fract_x
_atom_site_fract_y
_atom_site_fract_z
C1 C -0.0385(2) 0.34339(10) 0.7847(2)
C2 C -0.1145(3) 0.34588(10) 0.6934(2)
H1 H -0.1889 0.3488 0.6976
C3 C -0.0840(2) 0.34415(10) 0.5955(2)
C4 C 0.0279(3) 0.34073(10) 0.5922(2)
C5 C 0.1069(3) 0.33788(10) 0.6800(2)
H2 H 0.1812 0.3351 0.6758
C6 C 0.0719(3) 0.33925(10) 0.7747(2)
O1 O 0.15339(18) 0.33383(7) 0.86383(15)
C7 C 0.1726(3) 0.37546(12) 0.9249(2)
C8 C 0.1552(3) 0.37480(12) 1.0268(3)
O2 O 0.1122(2) 0.33689(8) 1.07660(17)
C9 C 0.0660(3) 0.29396(11) 1.0263(2)
C10 C -0.0212(3) 0.29525(11) 0.9453(2)
C11 C -0.0711(3) 0.34232(11) 0.8915(2)
H3 H -0.0361 0.3707 0.9304
C12 C 0.2159(3) 0.41724(13) 0.8850(3)
H4 H 0.2261 0.4180 0.8164
C13 C 0.2435(3) 0.45766(14) 0.9483(4)
C14 C 0.2287(4) 0.45634(15) 1.0500(4)
C15 C 0.1838(3) 0.41599(15) 1.0880(3)
H5 H 0.1721 0.4160 1.1562
N1 N 0.2509(6) 0.4998(2) 1.1170(6)
O3 O 0.2849(6) 0.4931(2) 1.2048(5)
O4 O 0.2271(8) 0.5396(2) 1.0806(7)
N2 N 0.2955(4) 0.49968(15) 0.9032(5)
O5 O 0.3782(4) 0.5163(2) 0.9592(5)
O6 O 0.2544(4) 0.51510(14) 0.8198(4)
C16 C -0.1955(3) 0.34521(12) 0.8929(2)
H6 H -0.2249 0.3749 0.8570
H7 H -0.2316 0.3170 0.8559
C17 C -0.2215(4) 0.34580(18) 1.0021(3)
H8 H -0.1903 0.3164 1.0384
H9 H -0.1865 0.3744 1.0384
C18 C -0.3440(4) 0.3475(2) 1.0053(4)
H10 H -0.3749 0.3769 0.9694
H11 H -0.3789 0.3190 0.9683
C19 C -0.3710(6) 0.3476(4) 1.1126(5)
H12 H -0.3338 0.3754 1.1504
H13 H -0.3424 0.3176 1.1476
C20 C -0.4949(10) 0.3512(9) 1.1161(9)
H14 H -0.5009 0.3513 1.1889
H15 H -0.5173 0.3839 1.0902
C21 C -0.5621(11) 0.3248(8) 1.0771(14)
H16 H -0.6333 0.3387 1.0795
H17 H -0.5553 0.2936 1.1129
H18 H -0.5539 0.3197 1.0064
C22 C 0.1097(4) 0.2500 1.0677(3)
H19 H 0.1680 0.2500 1.1229
C23 C -0.0616(4) 0.2500 0.9057(3)
H20 H -0.1189 0.2500 0.8495
O7 O 0.06465(17) 0.33745(7) 0.49633(15)
C24 C 0.0487(3) 0.37961(11) 0.4362(2)
C25 C -0.0156(3) 0.37705(11) 0.3383(2)
O8 O -0.0729(2) 0.33667(8) 0.29490(16)
C26 C -0.0960(3) 0.29411(11) 0.3497(2)
C27 C -0.1455(2) 0.29557(10) 0.4371(2)
C28 C -0.1671(3) 0.34277(11) 0.4950(2)
H21 H -0.1501 0.3708 0.4529
C29 C -0.0259(3) 0.41884(11) 0.2754(2)
H22 H -0.0681 0.4176 0.2096
C30 C 0.0265(3) 0.46200(11) 0.3109(3)
C31 C 0.0892(3) 0.46463(11) 0.4087(3)
C32 C 0.1005(3) 0.42330(11) 0.4717(2)
H23 H 0.1427 0.4248 0.5375
N3 N 0.1512(3) 0.50907(11) 0.4476(3)
O9 O 0.1535(3) 0.52105(11) 0.5363(3)
O10 O 0.2001(3) 0.53082(13) 0.3880(3)
N4 N 0.0034(3) 0.50628(11) 0.2457(3)
O11 O -0.0179(3) 0.54447(10) 0.2884(3)
O12 O 0.0032(3) 0.50167(11) 0.1541(2)
C33 C -0.2876(3) 0.34826(13) 0.5080(3)
H24 H -0.2945 0.3761 0.5531
H25 H -0.3106 0.3187 0.5406
C34 C -0.3632(3) 0.3563(2) 0.4038(4)
H26 H -0.3599 0.3273 0.3610
H27 H -0.3360 0.3842 0.3691
C35 C -0.4848(5) 0.3661(3) 0.4136(5)
H28 H -0.4873 0.3894 0.4693
H29 H -0.5224 0.3810 0.3500
C36 C -0.5397(7) 0.3233(4) 0.4327(9)
H30 H -0.5086 0.3111 0.5010
H31 H -0.5276 0.2983 0.3829
C37 C -0.6685(6) 0.3308(5) 0.4268(8)
H32 H -0.6966 0.3043 0.4649
H33 H -0.6809 0.3618 0.4606
C38 C -0.7262(7) 0.3316(6) 0.3291(7)
H34 H -0.8033 0.3354 0.3315
H35 H -0.7146 0.3011 0.2950
H36 H -0.7016 0.3587 0.2917
C39 C -0.1675(3) 0.2500 0.4789(3)
H37 H -0.1988 0.2500 0.5386
C40 C -0.0726(4) 0.2500 0.3051(3)
H38 H -0.0413 0.2500 0.2454
C9A C 0.0660(3) 0.20604(11) 1.0263(2)
O2A O 0.1122(2) 0.16311(8) 1.07660(17)
C8A C 0.1552(3) 0.12520(12) 1.0268(3)
C7A C 0.1726(3) 0.12454(12) 0.9249(2)
O1A O 0.15339(18) 0.16617(7) 0.86383(15)
C6A C 0.0719(3) 0.16075(10) 0.7747(2)
C1A C -0.0385(2) 0.15661(10) 0.7847(2)
C2A C -0.1145(3) 0.15412(10) 0.6934(2)
H1A H -0.1889 0.1512 0.6976
C3A C -0.0840(2) 0.15585(10) 0.5955(2)
C4A C 0.0279(3) 0.15927(10) 0.5922(2)
C5A C 0.1069(3) 0.16212(10) 0.6800(2)
H2A H 0.1812 0.1649 0.6758
O7A O 0.06465(17) 0.16255(7) 0.49633(15)
C24A C 0.0487(3) 0.12039(11) 0.4362(2)
C25A C -0.0156(3) 0.12295(11) 0.3383(2)
O8A O -0.0729(2) 0.16333(8) 0.29490(16)
C26A C -0.0960(3) 0.20589(11) 0.3497(2)
C27A C -0.1455(2) 0.20443(10) 0.4371(2)
C28A C -0.1671(3) 0.15723(11) 0.4950(2)
H21A H -0.1501 0.1292 0.4529
C33A C -0.2876(3) 0.15174(13) 0.5080(3)
H24A H -0.2945 0.1239 0.5531
H25A H -0.3106 0.1813 0.5406
C34A C -0.3632(3) 0.1437(2) 0.4038(4)
H26A H -0.3599 0.1727 0.3610
H27A H -0.3360 0.1158 0.3691
C35A C -0.4848(5) 0.1339(3) 0.4136(5)
H28A H -0.4873 0.1106 0.4693
H29A H -0.5224 0.1190 0.3500
C36A C -0.5397(7) 0.1767(4) 0.4327(9)
H30A H -0.5086 0.1889 0.5010
H31A H -0.5276 0.2017 0.3829
C37A C -0.6685(6) 0.1692(5) 0.4268(8)
H32A H -0.6966 0.1957 0.4649
H33A H -0.6809 0.1382 0.4606
C38A C -0.7262(7) 0.1684(6) 0.3291(7)
H34A H -0.8033 0.1646 0.3315
H35A H -0.7146 0.1989 0.2950
H36A H -0.7016 0.1413 0.2917
C29A C -0.0259(3) 0.08116(11) 0.2754(2)
H22A H -0.0681 0.0824 0.2096
C30A C 0.0265(3) 0.03800(11) 0.3109(3)
C31A C 0.0892(3) 0.03537(11) 0.4087(3)
C32A C 0.1005(3) 0.07670(11) 0.4717(2)
H23A H 0.1427 0.0752 0.5375
N3A N 0.1512(3) -0.00907(11) 0.4476(3)
O9A O 0.1535(3) -0.02105(11) 0.5363(3)
O10A O 0.2001(3) -0.03082(13) 0.3880(3)
N4A N 0.0034(3) -0.00628(11) 0.2457(3)
O11A O -0.0179(3) -0.04447(10) 0.2884(3)
O12A O 0.0032(3) -0.00167(11) 0.1541(2)
C11A C -0.0711(3) 0.15768(11) 0.8915(2)
C10A C -0.0212(3) 0.20475(11) 0.9453(2)
H3A H -0.0361 0.1293 0.9304
C16A C -0.1955(3) 0.15479(12) 0.8929(2)
H6A H -0.2249 0.1251 0.8570
H7A H -0.2316 0.1830 0.8559
C17A C -0.2215(4) 0.15420(18) 1.0021(3)
H8A H -0.1903 0.1836 1.0384
H9A H -0.1865 0.1256 1.0384
C18A C -0.3440(4) 0.1525(2) 1.0053(4)
H10A H -0.3749 0.1231 0.9694
H11A H -0.3789 0.1810 0.9683
C19A C -0.3710(6) 0.1524(4) 1.1126(5)
H12A H -0.3338 0.1246 1.1504
H13A H -0.3424 0.1824 1.1476
C20A C -0.4949(10) 0.1488(9) 1.1161(9)
H14A H -0.5009 0.1487 1.1889
H15A H -0.5173 0.1161 1.0902
C21A C -0.5621(11) 0.1752(8) 1.0771(14)
H16A H -0.6333 0.1613 1.0795
H17A H -0.5553 0.2064 1.1129
H18A H -0.5539 0.1803 1.0064
C12A C 0.2159(3) 0.08276(13) 0.8850(3)
H4A H 0.2261 0.0820 0.8164
C13A C 0.2435(3) 0.04234(14) 0.9483(4)
C14A C 0.2287(4) 0.04366(15) 1.0500(4)
C15A C 0.1838(3) 0.08401(15) 1.0880(3)
H5A H 0.1721 0.0840 1.1562
N1A N 0.2509(6) 0.0002(2) 1.1170(6)
O3A O 0.2849(6) 0.0069(2) 1.2048(5)
O4A O 0.2271(8) -0.0396(2) 1.0806(7)
N2A N 0.2955(4) 0.00032(15) 0.9032(5)
O5A O 0.3782(4) -0.0163(2) 0.9592(5)
O6A O 0.2544(4) -0.01510(14) 0.8198(4)
C41 C 0.4134(5) 0.4404(2) 0.6807(4)
O13 O 0.3294(3) 0.41690(17) 0.6620(3)
C42 C 0.4342(8) 0.4839(3) 0.6242(8)
H39 H 0.3708 0.4911 0.5729
H40 H 0.4968 0.4783 0.5909
H41 H 0.4489 0.5113 0.6710
C43 C 0.4962(8) 0.4294(5) 0.7695(10)
H42 H 0.4755 0.4002 0.8032
H43 H 0.5025 0.4568 0.8170
H44 H 0.5658 0.4241 0.7476
loop_
_geom_bond_atom_site_label_1
_geom_bond_atom_site_label_2
_geom_bond_site_symmetry_1
_geom_bond_site_symmetry_2
C1 C2 1_555 1_555
C2 H1 1_555 1_555
C3 C2 1_555 1_555
C4 C3 1_555 1_555
C5 C4 1_555 1_555
H2 C5 1_555 1_555
C6 C1 1_555 1_555
O1 C6 1_555 1_555
C7 O1 1_555 1_555
C8 C7 1_555 1_555
O2 C8 1_555 1_555
C9 O2 1_555 1_555
C10 C9 1_555 1_555
C11 C1 1_555 1_555
H3 C11 1_555 1_555
C12 C7 1_555 1_555
H4 C12 1_555 1_555
C13 C12 1_555 1_555
C14 C13 1_555 1_555
C15 C8 1_555 1_555
H5 C15 1_555 1_555
N1 C14 1_555 1_555
O3 N1 1_555 1_555
O4 N1 1_555 1_555
N2 C13 1_555 1_555
O5 N2 1_555 1_555
O6 N2 1_555 1_555
C16 C11 1_555 1_555
H6 C16 1_555 1_555
H7 C16 1_555 1_555
C17 C16 1_555 1_555
H8 C17 1_555 1_555
H9 C17 1_555 1_555
C18 C17 1_555 1_555
H10 C18 1_555 1_555
H11 C18 1_555 1_555
C19 C18 1_555 1_555
H12 C19 1_555 1_555
H13 C19 1_555 1_555
C20 C19 1_555 1_555
H14 C20 1_555 1_555
H15 C20 1_555 1_555
C21 C20 1_555 1_555
H16 C21 1_555 1_555
H17 C21 1_555 1_555
H18 C21 1_555 1_555
C22 C9 1_555 1_555
H19 C22 1_555 1_555
C23 C10 1_555 1_555
H20 C23 1_555 1_555
O7 C4 1_555 1_555
C24 O7 1_555 1_555
C25 C24 1_555 1_555
O8 C25 1_555 1_555
C26 O8 1_555 1_555
C27 C26 1_555 1_555
C28 C3 1_555 1_555
H21 C28 1_555 1_555
C29 C25 1_555 1_555
H22 C29 1_555 1_555
C30 C29 1_555 1_555
C31 C30 1_555 1_555
C32 C24 1_555 1_555
H23 C32 1_555 1_555
N3 C31 1_555 1_555
O9 N3 1_555 1_555
O10 N3 1_555 1_555
N4 C30 1_555 1_555
O11 N4 1_555 1_555
O12 N4 1_555 1_555
C33 C28 1_555 1_555
H24 C33 1_555 1_555
H25 C33 1_555 1_555
C34 C33 1_555 1_555
H26 C34 1_555 1_555
H27 C34 1_555 1_555
C35 C34 1_555 1_555
H28 C35 1_555 1_555
H29 C35 1_555 1_555
C36 C35 1_555 1_555
H30 C36 1_555 1_555
H31 C36 1_555 1_555
C37 C36 1_555 1_555
H32 C37 1_555 1_555
H33 C37 1_555 1_555
C38 C37 1_555 1_555
H34 C38 1_555 1_555
H35 C38 1_555 1_555
H36 C38 1_555 1_555
C39 C27 1_555 1_555
H37 C39 1_555 1_555
C40 C26 1_555 1_555
H38 C40 1_555 1_555
C41 O13 1_555 1_555
C42 C41 1_555 1_555
H39 C42 1_555 1_555
H40 C42 1_555 1_555
H41 C42 1_555 1_555
C43 C41 1_555 1_555
H42 C43 1_555 1_555
H43 C43 1_555 1_555
H44 C43 1_555 1_555
C9A C22 1_555 1_555
O2A C9A 1_555 1_555
C8A O2A 1_555 1_555
C7A C8A 1_555 1_555
O1A C7A 1_555 1_555
C6A O1A 1_555 1_555
C1A C6A 1_555 1_555
C2A C1A 1_555 1_555
H1A C2A 1_555 1_555
C3A C2A 1_555 1_555
C4A C3A 1_555 1_555
C5A C6A 1_555 1_555
H2A C5A 1_555 1_555
O7A C4A 1_555 1_555
C24A O7A 1_555 1_555
C25A C24A 1_555 1_555
O8A C25A 1_555 1_555
C26A C40 1_555 1_555
C27A C39 1_555 1_555
C28A C3A 1_555 1_555
H21A C28A 1_555 1_555
C33A C28A 1_555 1_555
H24A C33A 1_555 1_555
H25A C33A 1_555 1_555
C34A C33A 1_555 1_555
H26A C34A 1_555 1_555
H27A C34A 1_555 1_555
C35A C34A 1_555 1_555
H28A C35A 1_555 1_555
H29A C35A 1_555 1_555
C36A C35A 1_555 1_555
H30A C36A 1_555 1_555
H31A C36A 1_555 1_555
C37A C36A 1_555 1_555
H32A C37A 1_555 1_555
H33A C37A 1_555 1_555
C38A C37A 1_555 1_555
H34A C38A 1_555 1_555
H35A C38A 1_555 1_555
H36A C38A 1_555 1_555
C29A C25A 1_555 1_555
H22A C29A 1_555 1_555
C30A C29A 1_555 1_555
C31A C30A 1_555 1_555
C32A C24A 1_555 1_555
H23A C32A 1_555 1_555
N3A C31A 1_555 1_555
O9A N3A 1_555 1_555
O10A N3A 1_555 1_555
N4A C30A 1_555 1_555
O11A N4A 1_555 1_555
O12A N4A 1_555 1_555
C11A C1A 1_555 1_555
C10A C23 1_555 1_555
H3A C11A 1_555 1_555
C16A C11A 1_555 1_555
H6A C16A 1_555 1_555
H7A C16A 1_555 1_555
C17A C16A 1_555 1_555
H8A C17A 1_555 1_555
H9A C17A 1_555 1_555
C18A C17A 1_555 1_555
H10A C18A 1_555 1_555
H11A C18A 1_555 1_555
C19A C18A 1_555 1_555
H12A C19A 1_555 1_555
H13A C19A 1_555 1_555
C20A C19A 1_555 1_555
H14A C20A 1_555 1_555
H15A C20A 1_555 1_555
C21A C20A 1_555 1_555
H16A C21A 1_555 1_555
H17A C21A 1_555 1_555
H18A C21A 1_555 1_555
C12A C7A 1_555 1_555
H4A C12A 1_555 1_555
C13A C12A 1_555 1_555
C14A C13A 1_555 1_555
C15A C8A 1_555 1_555
H5A C15A 1_555 1_555
N1A C14A 1_555 1_555
O3A N1A 1_555 1_555
O4A N1A 1_555 1_555
N2A C13A 1_555 1_555
O5A N2A 1_555 1_555
O6A N2A 1_555 1_555
C5 C6 1_555 1_555
C10 C11 1_555 1_555
C14 C15 1_555 1_555
C27 C28 1_555 1_555
C31 C32 1_555 1_555
C9A C10A 1_555 1_555
C4A C5A 1_555 1_555
O8A C26A 1_555 1_555
C26A C27A 1_555 1_555
C27A C28A 1_555 1_555
C31A C32A 1_555 1_555
C11A C10A 1_555 1_555
C14A C15A 1_555 1_555

#END
