
#######################################################################
#
#                 Cambridge Crystallographic Data Centre
#                                CCDC 
#
#######################################################################
#
# If this CIF has been generated from an entry in the Cambridge 
# Structural Database, then it will include bibliographic, chemical, 
# crystal, experimental, refinement or atomic coordinate data resulting 
# from the CCDC's data processing and validation procedures.
#
#######################################################################

data_UNIHOP
_chemical_formula_moiety         'C43 H49 F4 N1 Si2'
_chemical_name_systematic        
8,9,10,11-Tetrafluoro-6,13-bis(tri-isopropylsilylethynyl)-1-azapentacene
_symmetry_cell_setting           triclinic
_symmetry_space_group_name_H-M   'P -1'
_symmetry_Int_Tables_number      2
_space_group_name_Hall           '-P 1'
loop_
_symmetry_equiv_pos_site_id
_symmetry_equiv_pos_as_xyz
1 x,y,z
2 -x,-y,-z
_cell_length_a                   7.6749(9)
_cell_length_b                   7.8320(10)
_cell_length_c                   17.134(2)
_cell_angle_alpha                77.434(5)
_cell_angle_beta                 88.437(5)
_cell_angle_gamma                84.073(5)
_cell_volume                     999.865
_exptl_crystal_colour            black
_exptl_crystal_description       block
_cell_formula_units_Z            1
loop_
_atom_site_label
_atom_site_type_symbol
_atom_site_fract_x
_atom_site_fract_y
_atom_site_fract_z
C1 C 0.4379(6) 0.4441(7) 0.0797(2)
C2 C 0.5439(6) 0.3258(7) 0.0430(2)
C3 C 0.3956(6) 0.6192(7) 0.0379(2)
C4 C 0.5893(6) 0.1513(8) 0.0829(3)
H1 H 0.5521 0.1143 0.1354
C5 C 0.2930(6) 0.7413(8) 0.0742(3)
H2 H 0.2516 0.7059 0.1261
C6 C 0.2540(5) 0.9130(8) 0.0330(2)
C7 C 0.6869(6) 0.0341(8) 0.0467(3)
C8 C 0.3727(6) 0.3862(6) 0.1591(2)
C9 C 0.1533(7) 1.0279(8) 0.0727(3)
C11 C 0.1202(7) 1.1837(8) 0.0329(3)
C12 C 0.3121(6) 0.3325(6) 0.2233(2)
C13 C 0.1708(6) 1.2485(6) -0.0523(2)
C14 C 0.3134(9) 0.3559(10) 0.3956(3)
H4 H 0.2790 0.4811 0.3742
C15 C -0.0250(8) 0.3215(11) 0.3146(3)
H5 H -0.0766 0.2785 0.3673
C16 C 0.2633(13) 0.0112(10) 0.3449(5)
H6 H 0.1963 -0.0160 0.3020
C17 C -0.1161(10) 0.2419(15) 0.2542(5)
H7 H -0.2406 0.2686 0.2578
H8 H -0.0879 0.1167 0.2659
H9 H -0.0769 0.2907 0.2011
C18 C 0.4972(12) 0.3521(16) 0.3983(6)
H10 H 0.5279 0.4259 0.4328
H11 H 0.5417 0.3942 0.3455
H12 H 0.5472 0.2337 0.4186
C19 C 0.2228(11) 0.3275(12) 0.4780(4)
H13 H 0.2450 0.2064 0.5050
H14 H 0.0988 0.3575 0.4712
H15 H 0.2679 0.4007 0.5093
C20 C 0.4310(17) -0.0680(14) 0.3276(7)
H16 H 0.4207 -0.1852 0.3210
H17 H 0.5094 -0.0723 0.3708
H18 H 0.4760 0.0000 0.2792
C21 C 0.1606(15) -0.0836(10) 0.4174(5)
H19 H 0.1786 -0.2083 0.4212
H20 H 0.0381 -0.0450 0.4108
H21 H 0.2014 -0.0566 0.4654
C22 C -0.0629(11) 0.5247(13) 0.2943(5)
H22 H -0.0132 0.5711 0.2430
H23 H -0.0116 0.5726 0.3343
H24 H -0.1871 0.5563 0.2930
F1 F 0.6635(7) -0.1747(6) 0.1603(3)
F2 F 0.1417(8) 1.4012(7) -0.0866(4)
F3 F 0.1070(7) 0.9655(7) 0.1421(2)
F4 F 0.0304(8) 1.2950(7) 0.0618(3)
N1 N 0.7304(7) -0.1394(8) 0.0870(3)
Si1 Si 0.21291(19) 0.2533(2) 0.32203(7)
C1A C 0.5621(6) 0.5559(7) -0.0797(2)
C2A C 0.4561(6) 0.6742(7) -0.0430(2)
C3A C 0.6044(6) 0.3808(7) -0.0379(2)
C4A C 0.4107(6) 0.8487(8) -0.0829(3)
H1A H 0.4479 0.8857 -0.1354
C5A C 0.7070(6) 0.2587(8) -0.0742(3)
H2A H 0.7484 0.2941 -0.1261
C6A C 0.7460(5) 0.0870(8) -0.0330(2)
C7A C 0.3131(6) 0.9659(8) -0.0467(3)
C8A C 0.6273(6) 0.6138(6) -0.1591(2)
C9A C 0.8467(7) -0.0279(8) -0.0727(3)
C11A C 0.8798(7) -0.1837(8) -0.0329(3)
C12A C 0.6879(6) 0.6675(6) -0.2233(2)
C13A C 0.8292(6) -0.2485(6) 0.0523(2)
C14A C 0.6866(9) 0.6441(10) -0.3956(3)
H4A H 0.7210 0.5189 -0.3742
C15A C 1.0250(8) 0.6785(11) -0.3146(3)
H5A H 1.0766 0.7215 -0.3673
C16A C 0.7367(13) 0.9888(10) -0.3449(5)
H6A H 0.8037 1.0160 -0.3020
C17A C 1.1161(10) 0.7581(15) -0.2542(5)
H7A H 1.2406 0.7314 -0.2578
H8A H 1.0879 0.8833 -0.2659
H9A H 1.0769 0.7093 -0.2011
C18A C 0.5028(12) 0.6479(16) -0.3983(6)
H10A H 0.4721 0.5741 -0.4328
H11A H 0.4583 0.6058 -0.3455
H12A H 0.4528 0.7663 -0.4186
C19A C 0.7772(11) 0.6725(12) -0.4780(4)
H13A H 0.7550 0.7936 -0.5050
H14A H 0.9012 0.6425 -0.4712
H15A H 0.7321 0.5993 -0.5093
C20A C 0.5690(17) 1.0680(14) -0.3276(7)
H16A H 0.5793 1.1852 -0.3210
H17A H 0.4906 1.0723 -0.3708
H18A H 0.5240 1.0000 -0.2792
C21A C 0.8394(15) 1.0836(10) -0.4174(5)
H19A H 0.8214 1.2083 -0.4212
H20A H 0.9619 1.0450 -0.4108
H21A H 0.7986 1.0566 -0.4654
C22A C 1.0629(11) 0.4753(13) -0.2943(5)
H22A H 1.0132 0.4289 -0.2430
H23A H 1.0116 0.4274 -0.3343
H24A H 1.1871 0.4437 -0.2930
F1A F 0.3365(7) 1.1747(6) -0.1603(3)
F2A F 0.8583(8) -0.4012(7) 0.0866(4)
F3A F 0.8930(7) 0.0345(7) -0.1421(2)
F4A F 0.9696(8) -0.2950(7) -0.0618(3)
N1A N 0.2696(7) 1.1394(8) -0.0870(3)
Si1A Si 0.78709(19) 0.7467(2) -0.32203(7)
H3? H 0.1143 0.9946 0.1252
C10? C 0.7304(7) -0.1394(8) 0.0870(3)
C23? C 0.1533(7) 1.0279(8) 0.0727(3)
C24? C 0.1202(7) 1.1837(8) 0.0329(3)
H25? H 0.0473 1.2703 0.0578
C25? C 0.8249(7) -0.2487(6) 0.0518(3)
H26? H 0.8505 -0.3820 0.0702
loop_
_geom_bond_atom_site_label_1
_geom_bond_atom_site_label_2
_geom_bond_site_symmetry_1
_geom_bond_site_symmetry_2
C1 C2 1_555 1_555
C2 C4 1_555 1_555
C3 C1 1_555 1_555
C4 H1 1_555 1_555
C5 C3 1_555 1_555
H2 C5 1_555 1_555
C6 C5 1_555 1_555
C7 C4 1_555 1_555
C8 C1 1_555 1_555
C9 C6 1_555 1_555
C11 C9 1_555 1_555
C12 C8 1_555 1_555
C13 C11 1_555 1_555
C14 H4 1_555 1_555
C15 H5 1_555 1_555
C16 H6 1_555 1_555
C17 C15 1_555 1_555
H7 C17 1_555 1_555
H8 C17 1_555 1_555
H9 C17 1_555 1_555
C18 C14 1_555 1_555
H10 C18 1_555 1_555
H11 C18 1_555 1_555
H12 C18 1_555 1_555
C19 C14 1_555 1_555
H13 C19 1_555 1_555
H14 C19 1_555 1_555
H15 C19 1_555 1_555
C20 C16 1_555 1_555
H16 C20 1_555 1_555
H17 C20 1_555 1_555
H18 C20 1_555 1_555
C21 C16 1_555 1_555
H19 C21 1_555 1_555
H20 C21 1_555 1_555
H21 C21 1_555 1_555
C22 C15 1_555 1_555
H22 C22 1_555 1_555
H23 C22 1_555 1_555
H24 C22 1_555 1_555
F1 N1 1_555 1_555
F2 C13 1_555 1_555
F3 C9 1_555 1_555
F4 C11 1_555 1_555
N1 C7 1_555 1_555
Si1 C12 1_555 1_555
C1A C2A 1_555 1_555
C2A C3 1_555 1_555
C3A C2 1_555 1_555
C4A C2A 1_555 1_555
H1A C4A 1_555 1_555
C5A C3A 1_555 1_555
H2A C5A 1_555 1_555
C6A C7 1_555 1_555
C7A C6 1_555 1_555
C8A C1A 1_555 1_555
C9A C6A 1_555 1_555
C11A C9A 1_555 1_555
C12A C8A 1_555 1_555
C13A N1 1_555 1_555
C14A H4A 1_555 1_555
C15A H5A 1_555 1_555
C16A H6A 1_555 1_555
C17A C15A 1_555 1_555
H7A C17A 1_555 1_555
H8A C17A 1_555 1_555
H9A C17A 1_555 1_555
C18A C14A 1_555 1_555
H10A C18A 1_555 1_555
H11A C18A 1_555 1_555
H12A C18A 1_555 1_555
C19A C14A 1_555 1_555
H13A C19A 1_555 1_555
H14A C19A 1_555 1_555
H15A C19A 1_555 1_555
C20A C16A 1_555 1_555
H16A C20A 1_555 1_555
H17A C20A 1_555 1_555
H18A C20A 1_555 1_555
C21A C16A 1_555 1_555
H19A C21A 1_555 1_555
H20A C21A 1_555 1_555
H21A C21A 1_555 1_555
C22A C15A 1_555 1_555
H22A C22A 1_555 1_555
H23A C22A 1_555 1_555
H24A C22A 1_555 1_555
F1A N1A 1_555 1_555
F2A C13A 1_555 1_555
F3A C9A 1_555 1_555
F4A C11A 1_555 1_555
N1A C13 1_555 1_555
Si1A C12A 1_555 1_555
C14 Si1 1_555 1_555
C15 Si1 1_555 1_555
C16 Si1 1_555 1_555
C1A C3A 1_555 1_555
C4A C7A 1_555 1_555
C5A C6A 1_555 1_555
C7A N1A 1_555 1_555
C11A C13A 1_555 1_555
C14A Si1A 1_555 1_555
C15A Si1A 1_555 1_555
C16A Si1A 1_555 1_555

#END
