
#######################################################################
#
#                 Cambridge Crystallographic Data Centre
#                                CCDC 
#
#######################################################################
#
# If this CIF has been generated from an entry in the Cambridge 
# Structural Database, then it will include bibliographic, chemical, 
# crystal, experimental, refinement or atomic coordinate data resulting 
# from the CCDC's data processing and validation procedures.
#
#######################################################################

data_UNILAF
_chemical_formula_moiety         'C19 H28 O3'
_chemical_name_systematic        
11-Isopropyl-3-methyl-14-methylene-4,16-dioxatetracyclo[7.6.1.0^3,5^.0^10,15^]hexadecan-8-one
_symmetry_cell_setting           monoclinic
_symmetry_space_group_name_H-M   'P 21/c'
_symmetry_Int_Tables_number      14
_space_group_name_Hall           '-P 2ybc'
loop_
_symmetry_equiv_pos_site_id
_symmetry_equiv_pos_as_xyz
1 x,y,z
2 -x,1/2+y,1/2-z
3 -x,-y,-z
4 x,1/2-y,1/2+z
_cell_length_a                   11.642(6)
_cell_length_b                   7.337(4)
_cell_length_c                   20.650(10)
_cell_angle_alpha                90
_cell_angle_beta                 104.046(7)
_cell_angle_gamma                90
_cell_volume                     1711.13
_exptl_crystal_colour            colorless
_exptl_crystal_description       needle
_cell_formula_units_Z            4
loop_
_atom_site_label
_atom_site_type_symbol
_atom_site_fract_x
_atom_site_fract_y
_atom_site_fract_z
O1 O 0.85186(14) -0.0770(2) 0.96291(7)
O2 O 0.74551(12) 0.19250(18) 0.78832(6)
O3 O 1.01329(14) 0.0429(3) 0.76051(9)
C1 C 0.9216(2) -0.0214(3) 0.91734(10)
H1 H 0.9966(15) -0.085(3) 0.9247(10)
C2 C 0.8151(2) -0.1333(3) 0.89338(10)
C3 C 0.6974(2) -0.0525(3) 0.85717(11)
H2 H 0.6751(19) 0.046(3) 0.8847(10)
H3 H 0.6350(17) -0.147(3) 0.8544(10)
C4 C 0.68284(18) 0.0218(3) 0.78670(10)
H4 H 0.5975(14) 0.051(3) 0.7687(9)
C5 C 0.72441(18) -0.0998(3) 0.73673(10)
H5 H 0.7960(15) -0.167(3) 0.7598(9)
C6 C 0.63063(19) -0.2278(3) 0.70002(11)
C7 C 0.5353(2) -0.1410(4) 0.64668(12)
H6 H 0.4864(19) -0.060(3) 0.6668(11)
H7 H 0.4830(18) -0.237(3) 0.6220(10)
C8 C 0.5899(2) -0.0305(4) 0.59961(11)
H8 H 0.5264(17) 0.028(3) 0.5650(10)
H9 H 0.6371(19) -0.115(3) 0.5781(11)
C9 C 0.67048(19) 0.1205(3) 0.63624(10)
H10 H 0.6216(17) 0.198(3) 0.6582(10)
C10 C 0.76896(18) 0.0400(3) 0.69268(10)
H11 H 0.8311(15) -0.013(3) 0.6750(9)
C11 C 0.82367(18) 0.1797(3) 0.74508(10)
H12 H 0.8274(17) 0.306(2) 0.7260(9)
C12 C 0.94930(19) 0.1353(3) 0.78484(10)
C13 C 0.9955(2) 0.2221(3) 0.85268(11)
H13 H 0.9902(19) 0.355(2) 0.8445(10)
H14 H 1.0814(14) 0.188(3) 0.8662(10)
C14 C 0.9318(2) 0.1791(3) 0.90744(11)
H15 H 0.9811(17) 0.229(3) 0.9489(9)
H16 H 0.8537(15) 0.233(3) 0.8986(10)
C15 C 0.8317(3) -0.3350(4) 0.88607(14)
H17 H 0.7638(19) -0.398(3) 0.8951(13)
H18 H 0.9036(18) -0.374(3) 0.9202(11)
H19 H 0.839(2) -0.370(4) 0.8415(9)
C16 C 0.6340(2) -0.4038(4) 0.71237(13)
H20 H 0.6974(18) -0.462(3) 0.7432(10)
H21 H 0.5737(18) -0.483(3) 0.6862(10)
C17 C 0.7208(2) 0.2423(3) 0.58908(11)
H22 H 0.7788(18) 0.321(3) 0.6178(10)
C18 C 0.6256(3) 0.3625(4) 0.54570(13)
H23 H 0.570(2) 0.288(4) 0.5129(12)
H24 H 0.666(2) 0.448(4) 0.5221(13)
H25 H 0.580(2) 0.433(4) 0.5716(13)
C19 C 0.7852(3) 0.1381(5) 0.54472(14)
H26 H 0.821(2) 0.221(3) 0.5181(13)
H27 H 0.724(2) 0.063(4) 0.5142(12)
H28 H 0.845(2) 0.053(3) 0.5708(13)
loop_
_geom_bond_atom_site_label_1
_geom_bond_atom_site_label_2
_geom_bond_site_symmetry_1
_geom_bond_site_symmetry_2
O1 C1 1_555 1_555
O2 C4 1_555 1_555
O3 C12 1_555 1_555
C1 H1 1_555 1_555
C2 O1 1_555 1_555
C3 C2 1_555 1_555
H2 C3 1_555 1_555
H3 C3 1_555 1_555
C4 C3 1_555 1_555
H4 C4 1_555 1_555
C5 C4 1_555 1_555
H5 C5 1_555 1_555
C6 C5 1_555 1_555
C7 C6 1_555 1_555
H6 C7 1_555 1_555
H7 C7 1_555 1_555
C8 C7 1_555 1_555
H8 C8 1_555 1_555
H9 C8 1_555 1_555
C9 C8 1_555 1_555
H10 C9 1_555 1_555
C10 C5 1_555 1_555
H11 C10 1_555 1_555
C11 O2 1_555 1_555
H12 C11 1_555 1_555
C12 C11 1_555 1_555
C13 C12 1_555 1_555
H13 C13 1_555 1_555
H14 C13 1_555 1_555
C14 C1 1_555 1_555
H15 C14 1_555 1_555
H16 C14 1_555 1_555
C15 C2 1_555 1_555
H17 C15 1_555 1_555
H18 C15 1_555 1_555
H19 C15 1_555 1_555
C16 C6 1_555 1_555
H20 C16 1_555 1_555
H21 C16 1_555 1_555
C17 C9 1_555 1_555
H22 C17 1_555 1_555
C18 C17 1_555 1_555
H23 C18 1_555 1_555
H24 C18 1_555 1_555
H25 C18 1_555 1_555
C19 C17 1_555 1_555
H26 C19 1_555 1_555
H27 C19 1_555 1_555
H28 C19 1_555 1_555
C1 C2 1_555 1_555
C9 C10 1_555 1_555
C10 C11 1_555 1_555
C13 C14 1_555 1_555

#END
