
#######################################################################
#
#                 Cambridge Crystallographic Data Centre
#                                CCDC 
#
#######################################################################
#
# If this CIF has been generated from an entry in the Cambridge 
# Structural Database, then it will include bibliographic, chemical, 
# crystal, experimental, refinement or atomic coordinate data resulting 
# from the CCDC's data processing and validation procedures.
#
#######################################################################

data_UNINAH
_chemical_formula_moiety         'C17 H30 N2 O6'
_chemical_name_systematic        
'bis(N-\a-Amido-D-leucine methyl ester)malonate'
_symmetry_cell_setting           monoclinic
_symmetry_space_group_name_H-M   'C 2'
_symmetry_Int_Tables_number      5
_space_group_name_Hall           'C 2y'
loop_
_symmetry_equiv_pos_site_id
_symmetry_equiv_pos_as_xyz
1 x,y,z
2 -x,y,-z
3 1/2+x,1/2+y,z
4 1/2-x,1/2+y,-z
_cell_length_a                   24.253(2)
_cell_length_b                   8.2616(6)
_cell_length_c                   9.7769(7)
_cell_angle_alpha                90
_cell_angle_beta                 90.930(7)
_cell_angle_gamma                90
_cell_volume                     1958.73
_exptl_crystal_colour            white
_exptl_crystal_description       needle
_cell_formula_units_Z            4
loop_
_atom_site_label
_atom_site_type_symbol
_atom_site_fract_x
_atom_site_fract_y
_atom_site_fract_z
C1 C 0.5000 0.3412(5) 0.5000
H1 H 0.5038 0.2726 0.4202
C2 C 0.45008(11) 0.4479(3) 0.4836(3)
C3 C 0.37433(11) 0.5803(4) 0.5980(3)
H2 H 0.3745 0.6471 0.5152
C4 C 0.32212(12) 0.4764(4) 0.5951(3)
C5 C 0.22549(14) 0.4880(6) 0.5779(4)
H3 H 0.2273 0.4003 0.5137
H4 H 0.1969 0.5618 0.5500
H5 H 0.2176 0.4462 0.6671
C11 C 0.37522(13) 0.6919(4) 0.7220(3)
H11 H 0.3743 0.6264 0.8043
H12 H 0.3422 0.7581 0.7198
C12 C 0.42615(14) 0.8039(5) 0.7297(4)
H13 H 0.4588 0.7339 0.7337
C13 C 0.4319(3) 0.9099(8) 0.6076(6)
H14 H 0.4300 0.8452 0.5261
H15 H 0.4668 0.9647 0.6123
H16 H 0.4027 0.9883 0.6056
C14 C 0.4253(2) 0.8995(8) 0.8631(5)
H17 H 0.3947 0.9730 0.8614
H18 H 0.4590 0.9595 0.8733
H19 H 0.4217 0.8261 0.9386
O1 O 0.43776(10) 0.5086(3) 0.3723(2)
O2 O 0.32032(12) 0.3329(3) 0.6040(4)
O3 O 0.27765(9) 0.5720(3) 0.5823(3)
N1 N 0.42197(10) 0.4765(3) 0.5971(2)
H29 H 0.4327 0.4315 0.6723
H1A H 0.4962 0.2726 0.5798
C2A C 0.54992(11) 0.4479(3) 0.5164(3)
C3A C 0.62567(11) 0.5803(4) 0.4020(3)
H2A H 0.6255 0.6471 0.4848
C4A C 0.67788(12) 0.4764(4) 0.4049(3)
C5A C 0.77451(14) 0.4880(6) 0.4221(4)
H3A H 0.7727 0.4003 0.4863
H4A H 0.8031 0.5618 0.4500
H5A H 0.7824 0.4462 0.3329
C11A C 0.62478(13) 0.6919(4) 0.2780(3)
H11A H 0.6257 0.6264 0.1957
H12A H 0.6578 0.7581 0.2802
C12A C 0.57385(14) 0.8039(5) 0.2703(4)
H13A H 0.5412 0.7339 0.2663
C13A C 0.5681(3) 0.9099(8) 0.3924(6)
H14A H 0.5700 0.8452 0.4739
H15A H 0.5332 0.9647 0.3877
H16A H 0.5973 0.9883 0.3944
C14A C 0.5747(2) 0.8995(8) 0.1369(5)
H17A H 0.6053 0.9730 0.1386
H18A H 0.5410 0.9595 0.1267
H19A H 0.5783 0.8261 0.0614
O1A O 0.56224(10) 0.5086(3) 0.6277(2)
O2A O 0.67968(12) 0.3329(3) 0.3960(4)
O3A O 0.72235(9) 0.5720(3) 0.4177(3)
N1A N 0.57803(10) 0.4765(3) 0.4029(2)
H29A H 0.5673 0.4315 0.3277
C6 C 0.5000 0.5170(6) 0.0000
H6 H 0.4966 0.5857 0.0799
C7 C 0.44971(12) 0.4096(4) -0.0152(3)
C8 C 0.38091(11) 0.2557(4) 0.1084(3)
H7 H 0.3695 0.2253 0.0153
C9 C 0.40411(14) 0.1074(4) 0.1806(3)
C10 C 0.3899(2) -0.1653(5) 0.2308(4)
H8 H 0.4129 -0.2251 0.1698
H9 H 0.3586 -0.2300 0.2544
H10 H 0.4106 -0.1384 0.3122
C15 C 0.33057(12) 0.3174(4) 0.1842(3)
H20 H 0.3048 0.2285 0.1935
H21 H 0.3422 0.3496 0.2756
C16 C 0.30038(14) 0.4589(4) 0.1174(3)
H22 H 0.3276 0.5436 0.0992
C17 C 0.2736(2) 0.4104(6) -0.0193(5)
H23 H 0.2472 0.3259 -0.0045
H24 H 0.3015 0.3723 -0.0801
H25 H 0.2554 0.5025 -0.0592
C18 C 0.25857(19) 0.5276(6) 0.2158(5)
H26 H 0.2337 0.4435 0.2430
H27 H 0.2381 0.6127 0.1715
H28 H 0.2774 0.5700 0.2951
O4 O 0.43593(11) 0.3542(4) -0.1266(2)
O5 O 0.44643(13) 0.1054(4) 0.2454(4)
O6 O 0.37144(10) -0.0195(3) 0.1647(2)
N2 N 0.42352(10) 0.3784(3) 0.1007(3)
H30 H 0.4322 0.4326 0.1731
H6A H 0.5034 0.5857 -0.0799
C7A C 0.55029(12) 0.4096(4) 0.0152(3)
C8A C 0.61909(11) 0.2557(4) -0.1084(3)
H7A H 0.6305 0.2253 -0.0153
C9A C 0.59589(14) 0.1074(4) -0.1806(3)
C10A C 0.6101(2) -0.1653(5) -0.2308(4)
H8A H 0.5871 -0.2251 -0.1698
H9A H 0.6414 -0.2300 -0.2544
H10A H 0.5894 -0.1384 -0.3122
C15A C 0.66943(12) 0.3174(4) -0.1842(3)
H20A H 0.6952 0.2285 -0.1935
H21A H 0.6578 0.3496 -0.2756
C16A C 0.69962(14) 0.4589(4) -0.1174(3)
H22A H 0.6724 0.5436 -0.0992
C17A C 0.7264(2) 0.4104(6) 0.0193(5)
H23A H 0.7528 0.3259 0.0045
H24A H 0.6985 0.3723 0.0801
H25A H 0.7446 0.5025 0.0592
C18A C 0.74143(19) 0.5276(6) -0.2158(5)
H26A H 0.7663 0.4435 -0.2430
H27A H 0.7619 0.6127 -0.1715
H28A H 0.7226 0.5700 -0.2951
O4A O 0.56407(11) 0.3542(4) 0.1266(2)
O5A O 0.55357(13) 0.1054(4) -0.2454(4)
O6A O 0.62856(10) -0.0195(3) -0.1647(2)
N2A N 0.57648(10) 0.3784(3) -0.1007(3)
H30A H 0.5678 0.4326 -0.1731
loop_
_geom_bond_atom_site_label_1
_geom_bond_atom_site_label_2
_geom_bond_site_symmetry_1
_geom_bond_site_symmetry_2
C1 H1 1_555 1_555
C2 C1 1_555 1_555
C3 H2 1_555 1_555
C4 C3 1_555 1_555
C5 H3 1_555 1_555
H4 C5 1_555 1_555
H5 C5 1_555 1_555
C6 H6 1_555 1_555
C7 C6 1_555 1_555
C8 H7 1_555 1_555
C9 C8 1_555 1_555
C10 H8 1_555 1_555
H9 C10 1_555 1_555
H10 C10 1_555 1_555
C11 C3 1_555 1_555
H11 C11 1_555 1_555
H12 C11 1_555 1_555
C12 C11 1_555 1_555
H13 C12 1_555 1_555
C13 C12 1_555 1_555
H14 C13 1_555 1_555
H15 C13 1_555 1_555
H16 C13 1_555 1_555
C14 C12 1_555 1_555
H17 C14 1_555 1_555
H18 C14 1_555 1_555
H19 C14 1_555 1_555
C15 C8 1_555 1_555
H20 C15 1_555 1_555
H21 C15 1_555 1_555
C16 C15 1_555 1_555
H22 C16 1_555 1_555
C17 C16 1_555 1_555
H23 C17 1_555 1_555
H24 C17 1_555 1_555
H25 C17 1_555 1_555
C18 C16 1_555 1_555
H26 C18 1_555 1_555
H27 C18 1_555 1_555
H28 C18 1_555 1_555
O1 C2 1_555 1_555
O2 C4 1_555 1_555
O3 C4 1_555 1_555
O4 C7 1_555 1_555
O5 C9 1_555 1_555
O6 C9 1_555 1_555
N1 C2 1_555 1_555
H29 N1 1_555 1_555
N2 C7 1_555 1_555
H30 N2 1_555 1_555
H1A C1 1_555 1_555
C2A C1 1_555 1_555
C3A H2A 1_555 1_555
C4A C3A 1_555 1_555
C5A H3A 1_555 1_555
H4A C5A 1_555 1_555
H5A C5A 1_555 1_555
H6A C6 1_555 1_555
C7A C6 1_555 1_555
C8A H7A 1_555 1_555
C9A C8A 1_555 1_555
C10A H8A 1_555 1_555
H9A C10A 1_555 1_555
H10A C10A 1_555 1_555
C11A C3A 1_555 1_555
H11A C11A 1_555 1_555
H12A C11A 1_555 1_555
C12A C11A 1_555 1_555
H13A C12A 1_555 1_555
C13A C12A 1_555 1_555
H14A C13A 1_555 1_555
H15A C13A 1_555 1_555
H16A C13A 1_555 1_555
C14A C12A 1_555 1_555
H17A C14A 1_555 1_555
H18A C14A 1_555 1_555
H19A C14A 1_555 1_555
C15A C8A 1_555 1_555
H20A C15A 1_555 1_555
H21A C15A 1_555 1_555
C16A C15A 1_555 1_555
H22A C16A 1_555 1_555
C17A C16A 1_555 1_555
H23A C17A 1_555 1_555
H24A C17A 1_555 1_555
H25A C17A 1_555 1_555
C18A C16A 1_555 1_555
H26A C18A 1_555 1_555
H27A C18A 1_555 1_555
H28A C18A 1_555 1_555
O1A C2A 1_555 1_555
O2A C4A 1_555 1_555
O3A C4A 1_555 1_555
O4A C7A 1_555 1_555
O5A C9A 1_555 1_555
O6A C9A 1_555 1_555
N1A C2A 1_555 1_555
H29A N1A 1_555 1_555
N2A C7A 1_555 1_555
H30A N2A 1_555 1_555
C3 N1 1_555 1_555
C5 O3 1_555 1_555
C8 N2 1_555 1_555
C10 O6 1_555 1_555
C3A N1A 1_555 1_555
C5A O3A 1_555 1_555
C8A N2A 1_555 1_555
C10A O6A 1_555 1_555

#END
