
#######################################################################
#
#                 Cambridge Crystallographic Data Centre
#                                CCDC 
#
#######################################################################
#
# If this CIF has been generated from an entry in the Cambridge 
# Structural Database, then it will include bibliographic, chemical, 
# crystal, experimental, refinement or atomic coordinate data resulting 
# from the CCDC's data processing and validation procedures.
#
#######################################################################

data_UNOBEE
_chemical_formula_moiety         'C24 H21 N3'
_chemical_name_systematic        
5,5-Dimethyl-2,3-diphenyl-5,6-dihydroimidazo(1,2-c)quinazoline
_symmetry_cell_setting           monoclinic
_symmetry_space_group_name_H-M   'P 21/c'
_symmetry_Int_Tables_number      14
_space_group_name_Hall           '-P 2ybc'
loop_
_symmetry_equiv_pos_site_id
_symmetry_equiv_pos_as_xyz
1 x,y,z
2 x,1/2-y,1/2+z
3 -x,-y,-z
4 -x,1/2+y,1/2-z
_cell_length_a                   8.1400(10)
_cell_length_b                   18.522(2)
_cell_length_c                   12.963(2)
_cell_angle_alpha                90
_cell_angle_beta                 94.320(10)
_cell_angle_gamma                90
_cell_volume                     1948.87
_exptl_crystal_colour            colorless
_exptl_crystal_description       block
_chemical_melting_point          '513-514 K'
_cell_formula_units_Z            4
_exptl_crystal_recrystallization_method ethanol
loop_
_atom_site_label
_atom_site_type_symbol
_atom_site_fract_x
_atom_site_fract_y
_atom_site_fract_z
N1 N 0.68676(18) 0.76901(9) 0.40199(11)
N2 N 0.54749(16) 0.69878(7) 0.51846(9)
N3 N 0.65752(17) 0.67007(8) 0.67590(10)
C1 C 0.7906(2) 0.76864(10) 0.57961(12)
C2 C 0.9028(2) 0.79347(11) 0.65836(14)
H1 H 0.8999 0.7750 0.7249
C3 C 1.0181(2) 0.84522(12) 0.63814(16)
H2 H 1.0919 0.8621 0.6909
C4 C 1.0228(2) 0.87178(12) 0.53895(16)
H3 H 1.1017 0.9060 0.5252
C5 C 0.9128(2) 0.84847(11) 0.45992(15)
H4 H 0.9178 0.8670 0.3936
C6 C 0.7943(2) 0.79720(10) 0.47953(12)
C7 C 0.5231(2) 0.74503(10) 0.42435(12)
C8 C 0.6704(2) 0.71227(9) 0.59429(12)
C9 C 0.5176(2) 0.62920(9) 0.65247(12)
C10 C 0.4463(2) 0.64635(9) 0.55663(12)
C11 C 0.4641(2) 0.57520(10) 0.72717(12)
C12 C 0.5793(3) 0.53855(11) 0.79079(13)
H5 H 0.6908 0.5478 0.7865
C13 C 0.5298(4) 0.48780(13) 0.86136(17)
H6 H 0.6086 0.4627 0.9028
C14 C 0.3653(4) 0.47466(13) 0.87008(17)
H7 H 0.3329 0.4406 0.9172
C15 C 0.2498(3) 0.51163(13) 0.80955(15)
H8 H 0.1384 0.5035 0.8163
C16 C 0.2983(3) 0.56143(11) 0.73785(14)
H9 H 0.2187 0.5860 0.6963
C17 C 0.2937(2) 0.61819(9) 0.50113(11)
C18 C 0.1465(2) 0.65463(10) 0.50433(14)
H10 H 0.1431 0.6977 0.5411
C19 C 0.0042(2) 0.62802(12) 0.45367(15)
H11 H -0.0938 0.6536 0.4553
C20 C 0.0066(3) 0.56452(13) 0.40133(15)
H12 H -0.0897 0.5466 0.3675
C21 C 0.1511(3) 0.52687(12) 0.39850(14)
H13 H 0.1524 0.4831 0.3634
C22 C 0.2945(2) 0.55355(10) 0.44741(13)
H14 H 0.3924 0.5280 0.4444
C23 C 0.4534(3) 0.70291(14) 0.33102(14)
H15 H 0.4585 0.7319 0.2700
H16 H 0.3408 0.6904 0.3398
H17 H 0.5166 0.6596 0.3241
C24 C 0.4117(2) 0.80771(12) 0.45096(17)
H18 H 0.4606 0.8329 0.5103
H19 H 0.3059 0.7893 0.4660
H20 H 0.3988 0.8403 0.3933
H21 H 0.685(2) 0.7914(10) 0.3418(14)
loop_
_geom_bond_atom_site_label_1
_geom_bond_atom_site_label_2
_geom_bond_site_symmetry_1
_geom_bond_site_symmetry_2
N1 C6 1_555 1_555
N2 C7 1_555 1_555
N3 C8 1_555 1_555
C1 C2 1_555 1_555
C2 H1 1_555 1_555
C3 C2 1_555 1_555
H2 C3 1_555 1_555
C4 C3 1_555 1_555
H3 C4 1_555 1_555
C5 C4 1_555 1_555
H4 C5 1_555 1_555
C6 C1 1_555 1_555
C7 N1 1_555 1_555
C8 N2 1_555 1_555
C9 N3 1_555 1_555
C10 N2 1_555 1_555
C11 C9 1_555 1_555
C12 C11 1_555 1_555
H5 C12 1_555 1_555
C13 C12 1_555 1_555
H6 C13 1_555 1_555
C14 C13 1_555 1_555
H7 C14 1_555 1_555
C15 C14 1_555 1_555
H8 C15 1_555 1_555
C16 C11 1_555 1_555
H9 C16 1_555 1_555
C17 C10 1_555 1_555
C18 C17 1_555 1_555
H10 C18 1_555 1_555
C19 C18 1_555 1_555
H11 C19 1_555 1_555
C20 C19 1_555 1_555
H12 C20 1_555 1_555
C21 C20 1_555 1_555
H13 C21 1_555 1_555
C22 C17 1_555 1_555
H14 C22 1_555 1_555
C23 C7 1_555 1_555
H15 C23 1_555 1_555
H16 C23 1_555 1_555
H17 C23 1_555 1_555
C24 C7 1_555 1_555
H18 C24 1_555 1_555
H19 C24 1_555 1_555
H20 C24 1_555 1_555
H21 N1 1_555 1_555
C1 C8 1_555 1_555
C5 C6 1_555 1_555
C9 C10 1_555 1_555
C15 C16 1_555 1_555
C21 C22 1_555 1_555

#END
