
#######################################################################
#
#                 Cambridge Crystallographic Data Centre
#                                CCDC 
#
#######################################################################
#
# If this CIF has been generated from an entry in the Cambridge 
# Structural Database, then it will include bibliographic, chemical, 
# crystal, experimental, refinement or atomic coordinate data resulting 
# from the CCDC's data processing and validation procedures.
#
#######################################################################

data_UNODIK
_chemical_formula_moiety         'C17 H28 N1 O1 1+,Cl1 1-'
_chemical_name_systematic        
'2-t-Butyl-4-methyl-6-(1-piperidiniomethyl)phenol chloride'
_symmetry_cell_setting           orthorhombic
_symmetry_space_group_name_H-M   'P 21 21 21'
_symmetry_Int_Tables_number      19
_space_group_name_Hall           'P 2ac 2ab'
loop_
_symmetry_equiv_pos_site_id
_symmetry_equiv_pos_as_xyz
1 x,y,z
2 1/2-x,-y,1/2+z
3 -x,1/2+y,1/2-z
4 1/2+x,1/2-y,-z
_cell_length_a                   5.882(2)
_cell_length_b                   12.187(5)
_cell_length_c                   24.553(10)
_cell_angle_alpha                90
_cell_angle_beta                 90
_cell_angle_gamma                90
_cell_volume                     1760.06
_exptl_crystal_colour            colorless
_exptl_crystal_description       block
_cell_formula_units_Z            4
_exptl_crystal_recrystallization_method methanol
loop_
_atom_site_label
_atom_site_type_symbol
_atom_site_fract_x
_atom_site_fract_y
_atom_site_fract_z
Cl1 Cl 0.67538(12) 0.38671(5) 0.76206(3)
N1 N 0.0416(3) 0.10464(15) 0.73289(8)
H1 H 0.1204 0.0405 0.7311
O1 O 0.1507(3) -0.04949(14) 0.62543(7)
H2 H 0.1922 -0.0712 0.6554
C1 C 0.2624(4) 0.0475(2) 0.61293(10)
C2 C 0.1876(5) 0.1429(2) 0.63841(10)
C3 C 0.2985(5) 0.2407(2) 0.62721(12)
H3 H 0.2494 0.3047 0.6441
C4 C 0.4796(5) 0.2453(2) 0.59167(12)
C5 C 0.5403(5) 0.1493(2) 0.56519(11)
H4 H 0.6569 0.1524 0.5397
C6 C 0.4373(4) 0.0489(2) 0.57453(10)
C7 C -0.0151(5) 0.1392(2) 0.67555(11)
H5 H -0.1259 0.0885 0.6606
H6 H -0.0846 0.2114 0.6765
C8 C 0.1879(5) 0.18707(18) 0.76109(10)
H7 H 0.1092 0.2569 0.7627
H8 H 0.3273 0.1974 0.7406
C9 C 0.2442(5) 0.1498(3) 0.81782(11)
H9 H 0.3374 0.2049 0.8356
H10 H 0.3312 0.0823 0.8161
C10 C 0.0319(7) 0.1310(3) 0.85084(13)
H11 H 0.0720 0.1042 0.8868
H12 H -0.0500 0.1996 0.8551
C11 C -0.1158(6) 0.0486(3) 0.82230(14)
H13 H -0.2560 0.0394 0.8426
H14 H -0.0385 -0.0217 0.8214
C12 C -0.1715(4) 0.0839(2) 0.76430(13)
H15 H -0.2594 0.0270 0.7465
H16 H -0.2628 0.1502 0.7651
C13 C 0.6082(8) 0.3504(2) 0.58199(16)
H17 H 0.5045 0.4064 0.5701
H18 H 0.7215 0.3387 0.5545
H19 H 0.6804 0.3731 0.6152
C14 C 0.5142(5) -0.0558(2) 0.54409(11)
C15 C 0.6119(5) -0.1378(2) 0.58547(12)
H20 H 0.6568 -0.2037 0.5669
H21 H 0.4983 -0.1549 0.6122
H22 H 0.7418 -0.1060 0.6031
C16 C 0.3126(5) -0.1083(2) 0.51392(11)
H23 H 0.2502 -0.0564 0.4886
H24 H 0.1979 -0.1291 0.5398
H25 H 0.3638 -0.1721 0.4946
C17 C 0.6975(6) -0.0308(3) 0.50233(13)
H26 H 0.7412 -0.0974 0.4842
H27 H 0.8273 0.0003 0.5203
H28 H 0.6398 0.0204 0.4761
loop_
_geom_bond_atom_site_label_1
_geom_bond_atom_site_label_2
_geom_bond_site_symmetry_1
_geom_bond_site_symmetry_2
N1 H1 1_555 1_555
O1 H2 1_555 1_555
C1 O1 1_555 1_555
C2 C1 1_555 1_555
C3 C2 1_555 1_555
H3 C3 1_555 1_555
C4 C3 1_555 1_555
C5 C4 1_555 1_555
H4 C5 1_555 1_555
C6 C1 1_555 1_555
C7 N1 1_555 1_555
H5 C7 1_555 1_555
H6 C7 1_555 1_555
C8 N1 1_555 1_555
H7 C8 1_555 1_555
H8 C8 1_555 1_555
C9 C8 1_555 1_555
H9 C9 1_555 1_555
H10 C9 1_555 1_555
C10 C9 1_555 1_555
H11 C10 1_555 1_555
H12 C10 1_555 1_555
C11 C10 1_555 1_555
H13 C11 1_555 1_555
H14 C11 1_555 1_555
C12 N1 1_555 1_555
H15 C12 1_555 1_555
H16 C12 1_555 1_555
C13 C4 1_555 1_555
H17 C13 1_555 1_555
H18 C13 1_555 1_555
H19 C13 1_555 1_555
C14 C6 1_555 1_555
C15 C14 1_555 1_555
H20 C15 1_555 1_555
H21 C15 1_555 1_555
H22 C15 1_555 1_555
C16 C14 1_555 1_555
H23 C16 1_555 1_555
H24 C16 1_555 1_555
H25 C16 1_555 1_555
C17 C14 1_555 1_555
H26 C17 1_555 1_555
H27 C17 1_555 1_555
H28 C17 1_555 1_555
C2 C7 1_555 1_555
C5 C6 1_555 1_555
C11 C12 1_555 1_555

#END
