
#######################################################################
#
#                 Cambridge Crystallographic Data Centre
#                                CCDC 
#
#######################################################################
#
# If this CIF has been generated from an entry in the Cambridge 
# Structural Database, then it will include bibliographic, chemical, 
# crystal, experimental, refinement or atomic coordinate data resulting 
# from the CCDC's data processing and validation procedures.
#
#######################################################################

data_UNOGUB
_chemical_formula_moiety         'C16 H18 N2 O2'
_chemical_name_systematic        
N,N-dimethyl-2-(3-oxocyclopentyl)-1H-indole-1-carboxamide
_symmetry_cell_setting           triclinic
_symmetry_space_group_name_H-M   'P -1'
_symmetry_Int_Tables_number      2
_space_group_name_Hall           '-P 1'
loop_
_symmetry_equiv_pos_site_id
_symmetry_equiv_pos_as_xyz
1 x,y,z
2 -x,-y,-z
_cell_length_a                   9.293(7)
_cell_length_b                   9.394(7)
_cell_length_c                   9.908(7)
_cell_angle_alpha                100.73
_cell_angle_beta                 114.079(10)
_cell_angle_gamma                108.951(9)
_cell_volume                     694.159
_exptl_crystal_colour            colorless
_exptl_crystal_description       Prism
_cell_formula_units_Z            2
loop_
_atom_site_label
_atom_site_type_symbol
_atom_site_fract_x
_atom_site_fract_y
_atom_site_fract_z
O1 O 0.99357(11) 0.93034(10) 0.79715(10)
N1 N 1.08281(12) 0.79045(11) 0.65725(12)
N2 N 1.04312(14) 0.72299(12) 0.85923(13)
C1 C 1.25212(15) 0.81204(14) 0.69145(15)
C2 C 1.39161(17) 0.82728(16) 0.82944(16)
H1 H 1.3816 0.8225 0.9203
C3 C 1.54618(17) 0.84973(17) 0.82846(18)
H2 H 1.6444 0.8610 0.9210
C4 C 1.56087(19) 0.85610(17) 0.6951(2)
H3 H 1.6680 0.8700 0.6977
C5 C 1.42233(19) 0.84249(16) 0.55951(19)
H4 H 1.4336 0.8468 0.4691
C6 C 1.26464(17) 0.82216(14) 0.55614(16)
C7 C 1.10099(17) 0.80916(14) 0.44140(15)
H5 H 1.0719 0.8117 0.3384
C8 C 0.99383(16) 0.79254(14) 0.50439(14)
C9 C 1.03427(16) 0.82021(14) 0.77565(15)
C10 C 1.02432(18) 0.75984(16) 0.99943(16)
H6 H 1.0328 0.8690 1.0281
H7 H 1.1181 0.7541 1.0884
H8 H 0.9095 0.6810 0.9758
C11 C 1.03325(19) 0.56325(15) 0.80250(17)
H9 H 1.0465 0.5499 0.7084
H10 H 0.9189 0.4796 0.7747
H11 H 1.1277 0.5530 0.8864
O2 O 0.3934(3) 0.6198(4) 0.0852(4)
C12 C 0.8031(10) 0.7542(16) 0.4415(11)
H12 H 0.7970 0.8413 0.5111
C13 C 0.7072(9) 0.7453(11) 0.2690(9)
H13 H 0.7242 0.8543 0.2667
H14 H 0.7514 0.6991 0.2055
C14 C 0.5145(6) 0.6360(6) 0.2050(7)
C15 C 0.4973(8) 0.5530(7) 0.3176(6)
H15 H 0.4222 0.4349 0.2597
H16 H 0.4453 0.5970 0.3740
C16 C 0.6858(11) 0.5888(9) 0.4345(11)
H17 H 0.7155 0.5034 0.3961
H18 H 0.7010 0.5956 0.5408
O3? O 0.3572(3) 0.5062(3) 0.2535(3)
C17? C 0.8099(10) 0.7742(17) 0.4228(12)
H19? H 0.8066 0.8709 0.4814
C18? C 0.7388(9) 0.7571(12) 0.2485(9)
H20? H 0.7583 0.6748 0.1897
H21? H 0.7926 0.8616 0.2385
C19? C 0.5425(6) 0.7023(5) 0.1910(6)
H22? H 0.5192 0.7964 0.2171
H23? H 0.4701 0.6416 0.0746
C20? C 0.5030(7) 0.5943(6) 0.2799(6)
C21? C 0.6755(11) 0.6210(9) 0.4161(10)
H24? H 0.7015 0.5279 0.3936
H25? H 0.6737 0.6388 0.5170
loop_
_geom_bond_atom_site_label_1
_geom_bond_atom_site_label_2
_geom_bond_site_symmetry_1
_geom_bond_site_symmetry_2
O1 C9 1_555 1_555
N1 C1 1_555 1_555
N2 C9 1_555 1_555
C1 C2 1_555 1_555
C2 H1 1_555 1_555
C3 C2 1_555 1_555
H2 C3 1_555 1_555
C4 C3 1_555 1_555
H3 C4 1_555 1_555
C5 C4 1_555 1_555
H4 C5 1_555 1_555
C6 C1 1_555 1_555
C7 C6 1_555 1_555
H5 C7 1_555 1_555
C8 N1 1_555 1_555
C9 N1 1_555 1_555
C10 N2 1_555 1_555
H6 C10 1_555 1_555
H7 C10 1_555 1_555
H8 C10 1_555 1_555
C11 N2 1_555 1_555
H9 C11 1_555 1_555
H10 C11 1_555 1_555
H11 C11 1_555 1_555
O2 C14 1_555 1_555
C12 C8 1_555 1_555
H12 C12 1_555 1_555
C13 C12 1_555 1_555
H13 C13 1_555 1_555
H14 C13 1_555 1_555
C14 C13 1_555 1_555
C15 C14 1_555 1_555
H15 C15 1_555 1_555
H16 C15 1_555 1_555
C16 C12 1_555 1_555
H17 C16 1_555 1_555
H18 C16 1_555 1_555
C5 C6 1_555 1_555
C7 C8 1_555 1_555
C15 C16 1_555 1_555

#END
