
#######################################################################
#
#                 Cambridge Crystallographic Data Centre
#                                CCDC 
#
#######################################################################
#
# If this CIF has been generated from an entry in the Cambridge 
# Structural Database, then it will include bibliographic, chemical, 
# crystal, experimental, refinement or atomic coordinate data resulting 
# from the CCDC's data processing and validation procedures.
#
#######################################################################

data_UNOHAI
_chemical_formula_moiety         'C14 H18 O2'
_chemical_name_systematic        
3-methyl-10-methylenetricyclo[7.2.1.0^1,6^]dodecane-2,8-dione
_symmetry_cell_setting           monoclinic
_symmetry_space_group_name_H-M   'P 21/c'
_symmetry_Int_Tables_number      14
_space_group_name_Hall           '-P 2ybc'
loop_
_symmetry_equiv_pos_site_id
_symmetry_equiv_pos_as_xyz
1 x,y,z
2 -x,1/2+y,1/2-z
3 -x,-y,-z
4 x,1/2-y,1/2+z
_cell_length_a                   12.6360(2)
_cell_length_b                   7.01370(10)
_cell_length_c                   14.3915(10)
_cell_angle_alpha                90
_cell_angle_beta                 114.714(8)
_cell_angle_gamma                90
_cell_volume                     1158.62
_exptl_crystal_colour            colorless
_exptl_crystal_description       block
_cell_formula_units_Z            4
loop_
_atom_site_label
_atom_site_type_symbol
_atom_site_fract_x
_atom_site_fract_y
_atom_site_fract_z
O1 O 0.36115(12) 0.6972(2) -0.15875(11)
O2 O 0.10979(9) 0.97352(18) 0.12412(9)
C1 C 0.31321(13) 0.7073(2) -0.10149(13)
C2 C 0.37455(14) 0.6670(3) 0.01122(13)
H1 H 0.4580 0.6709 0.0313
H2 H 0.3548 0.5389 0.0240
C3 C 0.34379(12) 0.8081(2) 0.07853(11)
H3 H 0.3589 0.7437 0.1433
C4 C 0.42050(13) 0.9853(3) 0.10335(13)
H4 H 0.5017 0.9474 0.1366
H5 H 0.4087 1.0503 0.0403
C5 C 0.39353(14) 1.1215(3) 0.17260(13)
H6 H 0.4397 1.2363 0.1817
H7 H 0.4165 1.0627 0.2392
C6 C 0.26434(13) 1.1769(2) 0.13096(12)
H8 H 0.2468 1.2558 0.0701
C7 C 0.23903(17) 1.2967(3) 0.20756(13)
H9 H 0.1578 1.3294 0.1791
H10 H 0.2849 1.4111 0.2225
H11 H 0.2584 1.2251 0.2694
C8 C 0.18765(12) 1.0011(2) 0.09742(10)
C9 C 0.21243(11) 0.8617(2) 0.02808(10)
C10 C 0.13371(13) 0.6847(2) 0.00278(11)
H12 H 0.1675 0.5874 0.0548
H13 H 0.0572 0.7175 -0.0016
C11 C 0.12577(12) 0.6156(2) -0.09941(11)
C12 C 0.07510(15) 0.4584(3) -0.14791(14)
H14 H 0.0391 0.3765 -0.1191
H15 H 0.0753 0.4293 -0.2109
C13 C 0.18632(13) 0.7613(2) -0.13843(11)
H16 H 0.1477 0.7774 -0.2128
C14 C 0.18081(13) 0.9431(2) -0.08021(11)
H17 H 0.1035 0.9988 -0.1089
H18 H 0.2370 1.0376 -0.0799
loop_
_geom_bond_atom_site_label_1
_geom_bond_atom_site_label_2
_geom_bond_site_symmetry_1
_geom_bond_site_symmetry_2
O1 C1 1_555 1_555
O2 C8 1_555 1_555
C1 C2 1_555 1_555
C2 H1 1_555 1_555
H2 C2 1_555 1_555
C3 C2 1_555 1_555
H3 C3 1_555 1_555
C4 C3 1_555 1_555
H4 C4 1_555 1_555
H5 C4 1_555 1_555
C5 C4 1_555 1_555
H6 C5 1_555 1_555
H7 C5 1_555 1_555
C6 C5 1_555 1_555
H8 C6 1_555 1_555
C7 C6 1_555 1_555
H9 C7 1_555 1_555
H10 C7 1_555 1_555
H11 C7 1_555 1_555
C8 C6 1_555 1_555
C9 C3 1_555 1_555
C10 C9 1_555 1_555
H12 C10 1_555 1_555
H13 C10 1_555 1_555
C11 C10 1_555 1_555
C12 C11 1_555 1_555
H14 C12 1_555 1_555
H15 C12 1_555 1_555
C13 C1 1_555 1_555
H16 C13 1_555 1_555
C14 C9 1_555 1_555
H17 C14 1_555 1_555
H18 C14 1_555 1_555
C8 C9 1_555 1_555
C11 C13 1_555 1_555
C13 C14 1_555 1_555

#END
