
#######################################################################
#
#                 Cambridge Crystallographic Data Centre
#                                CCDC 
#
#######################################################################
#
# If this CIF has been generated from an entry in the Cambridge 
# Structural Database, then it will include bibliographic, chemical, 
# crystal, experimental, refinement or atomic coordinate data resulting 
# from the CCDC's data processing and validation procedures.
#
#######################################################################

data_UNOJAK
_chemical_formula_moiety         'C17 H19 N1 O4'
_chemical_name_systematic        
2-Methoxy-3a,4,5,7,12b,12c-hexahydro-1H-[1,3]dioxolo[4,5-j]pyrrolo[3,2,1-de]phenanthridin-1-ol
_symmetry_cell_setting           orthorhombic
_symmetry_space_group_name_H-M   'P 21 21 21'
_symmetry_Int_Tables_number      19
_space_group_name_Hall           'P 2ac 2ab'
loop_
_symmetry_equiv_pos_site_id
_symmetry_equiv_pos_as_xyz
1 x,y,z
2 1/2-x,-y,1/2+z
3 1/2+x,1/2-y,-z
4 -x,1/2+y,1/2-z
_cell_length_a                   9.1314(13)
_cell_length_b                   12.4725(18)
_cell_length_c                   12.8711(18)
_cell_angle_alpha                90
_cell_angle_beta                 90
_cell_angle_gamma                90
_cell_volume                     1465.91
_exptl_crystal_colour            colorless
_exptl_crystal_description       block
_cell_formula_units_Z            4
loop_
_atom_site_label
_atom_site_type_symbol
_atom_site_fract_x
_atom_site_fract_y
_atom_site_fract_z
N1 N 0.26084(19) 0.86274(13) 0.82217(14)
O1 O 0.20526(15) 0.89179(12) 1.03957(13)
H1 H 0.1719 0.8799 0.9816
O2 O 0.32184(19) 0.70137(11) 1.15994(12)
O3 O 0.5692(2) 1.25836(13) 1.04740(15)
O4 O 0.4325(2) 1.32939(12) 0.91192(14)
C1 C 0.3497(2) 0.84824(16) 1.04682(17)
H2 H 0.3945 0.8770 1.1102
C2 C 0.3443(2) 0.72876(16) 1.05760(18)
C3 C 0.3565(2) 0.66250(17) 0.97793(17)
H3 H 0.3508 0.5892 0.9906
C4 C 0.2469(3) 0.67736(19) 0.7958(2)
H4 H 0.2722 0.6247 0.7434
H5 H 0.1645 0.6506 0.8357
C5 C 0.2093(3) 0.78404(17) 0.74568(19)
H6 H 0.2597 0.7926 0.6799
H7 H 0.1047 0.7906 0.7343
C6 C 0.2790(3) 0.97103(17) 0.7808(2)
H8 H 0.1834 1.0017 0.7667
H9 H 0.3324 0.9676 0.7158
C7 C 0.3512(2) 1.15514(18) 0.84154(18)
H10 H 0.2971 1.1845 0.7873
C8 C 0.4249(3) 1.21836(17) 0.91064(19)
C9 C 0.5061(2) 1.17659(18) 0.99002(18)
C10 C 0.5181(2) 1.06880(17) 1.00585(18)
H11 H 0.5737 1.0414 1.0603
C11 C 0.5114(4) 1.3541(2) 1.0041(2)
H12 H 0.5905 1.4033 0.9883
H13 H 0.4468 1.3884 1.0539
C12 C 0.3160(3) 0.59024(16) 1.1853(2)
H14 H 0.2379 0.5568 1.1474
H15 H 0.2991 0.5821 1.2585
H16 H 0.4073 0.5569 1.1672
C13 C 0.3790(3) 0.69960(17) 0.86757(19)
H17 H 0.4647 0.6625 0.8391
C14 C 0.3609(2) 1.04304(16) 0.85623(17)
C15 C 0.4429(2) 1.00044(15) 0.93642(18)
C16 C 0.4476(2) 0.88051(15) 0.95522(16)
H18 H 0.5486 0.8607 0.9722
C17 C 0.4036(2) 0.82061(17) 0.85713(17)
H19 H 0.4769 0.8338 0.8030
loop_
_geom_bond_atom_site_label_1
_geom_bond_atom_site_label_2
_geom_bond_site_symmetry_1
_geom_bond_site_symmetry_2
N1 C5 1_555 1_555
O1 H1 1_555 1_555
O2 C2 1_555 1_555
O3 C9 1_555 1_555
O4 C8 1_555 1_555
C1 O1 1_555 1_555
H2 C1 1_555 1_555
C2 C1 1_555 1_555
C3 C2 1_555 1_555
H3 C3 1_555 1_555
C4 H4 1_555 1_555
H5 C4 1_555 1_555
C5 C4 1_555 1_555
H6 C5 1_555 1_555
H7 C5 1_555 1_555
C6 N1 1_555 1_555
H8 C6 1_555 1_555
H9 C6 1_555 1_555
C7 H10 1_555 1_555
C8 C7 1_555 1_555
C9 C8 1_555 1_555
C10 C9 1_555 1_555
H11 C10 1_555 1_555
C11 O3 1_555 1_555
H12 C11 1_555 1_555
H13 C11 1_555 1_555
C12 O2 1_555 1_555
H14 C12 1_555 1_555
H15 C12 1_555 1_555
H16 C12 1_555 1_555
C13 C3 1_555 1_555
H17 C13 1_555 1_555
C14 C6 1_555 1_555
C15 C10 1_555 1_555
C16 C1 1_555 1_555
H18 C16 1_555 1_555
C17 N1 1_555 1_555
H19 C17 1_555 1_555
O4 C11 1_555 1_555
C4 C13 1_555 1_555
C7 C14 1_555 1_555
C13 C17 1_555 1_555
C14 C15 1_555 1_555
C15 C16 1_555 1_555
C16 C17 1_555 1_555

#END
