
#######################################################################
#
#                 Cambridge Crystallographic Data Centre
#                                CCDC 
#
#######################################################################
#
# If this CIF has been generated from an entry in the Cambridge 
# Structural Database, then it will include bibliographic, chemical, 
# crystal, experimental, refinement or atomic coordinate data resulting 
# from the CCDC's data processing and validation procedures.
#
#######################################################################

data_UNOLUE
_chemical_name_common            'Triphenylphenacylphosphonium picrate'
_chemical_formula_moiety         'C26 H22 O1 P1 1+,C6 H2 N3 O7 1-'
_chemical_name_systematic        
'(Benzoylmethyl)triphenylphosphonium 2,4,6-trinitrophenolate'
_symmetry_cell_setting           monoclinic
_symmetry_space_group_name_H-M   'P 21/n'
_symmetry_Int_Tables_number      14
_space_group_name_Hall           '-P 2yn'
loop_
_symmetry_equiv_pos_site_id
_symmetry_equiv_pos_as_xyz
1 x,y,z
2 1/2+x,1/2-y,1/2+z
3 -x,-y,-z
4 1/2-x,1/2+y,1/2-z
_cell_length_a                   7.5305(10)
_cell_length_b                   25.241(3)
_cell_length_c                   14.490(2)
_cell_angle_alpha                90
_cell_angle_beta                 98.639(3)
_cell_angle_gamma                90
_cell_volume                     2722.97
_exptl_crystal_colour            yellow
_exptl_crystal_description       block
_chemical_melting_point          '438 K'
_cell_formula_units_Z            4
_exptl_crystal_recrystallization_method methanol
loop_
_atom_site_label
_atom_site_type_symbol
_atom_site_fract_x
_atom_site_fract_y
_atom_site_fract_z
P1 P 0.52034(5) 0.102380(15) 0.76007(3)
C1 C 0.08942(19) 0.20645(6) 0.73270(11)
C2 C 0.0682(2) 0.22353(6) 0.64007(12)
H1 H 0.151(3) 0.2141(7) 0.6021(14)
C3 C -0.0822(2) 0.25280(6) 0.60356(13)
H2 H -0.096(3) 0.2638(8) 0.5412(15)
C4 C -0.2110(2) 0.26529(6) 0.65973(13)
H3 H -0.314(3) 0.2858(8) 0.6372(14)
C5 C -0.1895(2) 0.24917(6) 0.75220(12)
H4 H -0.276(3) 0.2594(7) 0.7902(14)
C6 C -0.0400(2) 0.21971(6) 0.78908(12)
H5 H -0.025(2) 0.2085(7) 0.8553(14)
C7 C 0.2445(2) 0.17382(6) 0.77654(11)
C8 C 0.3900(2) 0.16032(6) 0.71781(11)
H6 H 0.337(3) 0.1526(7) 0.6537(14)
H7 H 0.471(3) 0.1911(8) 0.7191(13)
C9 C 0.6843(2) 0.11641(6) 0.86002(11)
C10 C 0.6620(2) 0.15736(6) 0.92195(11)
H8 H 0.561(3) 0.1798(8) 0.9130(14)
C11 C 0.7921(2) 0.16572(7) 0.99943(12)
H9 H 0.776(3) 0.1940(8) 1.0427(14)
C12 C 0.9417(2) 0.13314(6) 1.01527(12)
H10 H 1.030(3) 0.1385(8) 1.0712(14)
C13 C 0.9646(2) 0.09258(6) 0.95362(12)
H11 H 1.067(3) 0.0712(8) 0.9649(14)
C14 C 0.8369(2) 0.08415(6) 0.87578(11)
H12 H 0.848(2) 0.0557(7) 0.8337(14)
C15 C 0.63673(19) 0.08167(6) 0.66636(10)
C16 C 0.7428(2) 0.11898(6) 0.62795(11)
H13 H 0.751(3) 0.1544(8) 0.6505(14)
C17 C 0.8365(2) 0.10407(7) 0.55682(12)
H14 H 0.910(3) 0.1288(8) 0.5307(14)
C18 C 0.8243(2) 0.05260(7) 0.52302(12)
H15 H 0.893(3) 0.0435(8) 0.4723(15)
C19 C 0.7215(2) 0.01547(7) 0.56129(12)
H16 H 0.716(3) -0.0206(8) 0.5394(15)
C20 C 0.6281(2) 0.02991(6) 0.63347(12)
H17 H 0.559(3) 0.0039(8) 0.6602(14)
C21 C 0.3684(2) 0.05125(6) 0.78350(11)
C22 C 0.2346(2) 0.03448(7) 0.71195(12)
H18 H 0.222(3) 0.0516(8) 0.6531(15)
C23 C 0.1169(2) -0.00512(7) 0.73029(12)
H19 H 0.029(3) -0.0173(8) 0.6848(15)
C24 C 0.1317(2) -0.02765(6) 0.81802(12)
H20 H 0.051(3) -0.0547(8) 0.8281(14)
C25 C 0.2626(2) -0.01017(7) 0.88924(12)
H21 H 0.267(3) -0.0246(8) 0.9508(15)
C26 C 0.3824(2) 0.02928(6) 0.87205(11)
H22 H 0.471(3) 0.0410(7) 0.9206(14)
O1 O 0.25670(15) 0.15825(5) 0.85674(8)
C27 C 0.3476(2) 0.11213(6) 0.30720(11)
C28 C 0.4499(2) 0.10853(6) 0.22923(11)
C29 C 0.6099(2) 0.13330(6) 0.22468(11)
H23 H 0.665(2) 0.1305(7) 0.1692(14)
C30 C 0.6905(2) 0.16245(6) 0.30162(11)
C31 C 0.6074(2) 0.16827(6) 0.38019(11)
H24 H 0.659(2) 0.1902(7) 0.4328(14)
C32 C 0.4461(2) 0.14352(6) 0.38320(11)
O2 O 0.19519(15) 0.09429(5) 0.30665(9)
O3 O 0.28364(16) 0.03962(5) 0.15524(9)
O4 O 0.40096(18) 0.09632(5) 0.06955(9)
O5 O 0.91637(16) 0.18980(5) 0.22236(9)
O6 O 0.92900(17) 0.21412(5) 0.36651(9)
O7 O 0.39437(17) 0.19695(5) 0.50513(9)
O8 O 0.26730(17) 0.11982(5) 0.49346(9)
N1 N 0.37238(17) 0.07965(5) 0.14580(10)
N2 N 0.85588(18) 0.18992(5) 0.29675(10)
N3 N 0.36339(18) 0.15392(5) 0.46523(10)
loop_
_geom_bond_atom_site_label_1
_geom_bond_atom_site_label_2
_geom_bond_site_symmetry_1
_geom_bond_site_symmetry_2
P1 C8 1_555 1_555
C1 C2 1_555 1_555
C2 H1 1_555 1_555
C3 C2 1_555 1_555
H2 C3 1_555 1_555
C4 C3 1_555 1_555
H3 C4 1_555 1_555
C5 C4 1_555 1_555
H4 C5 1_555 1_555
C6 C1 1_555 1_555
H5 C6 1_555 1_555
C7 C1 1_555 1_555
C8 C7 1_555 1_555
H6 C8 1_555 1_555
H7 C8 1_555 1_555
C9 P1 1_555 1_555
C10 C9 1_555 1_555
H8 C10 1_555 1_555
C11 C10 1_555 1_555
H9 C11 1_555 1_555
C12 C11 1_555 1_555
H10 C12 1_555 1_555
C13 C12 1_555 1_555
H11 C13 1_555 1_555
C14 C9 1_555 1_555
H12 C14 1_555 1_555
C15 P1 1_555 1_555
C16 C15 1_555 1_555
H13 C16 1_555 1_555
C17 C16 1_555 1_555
H14 C17 1_555 1_555
C18 C17 1_555 1_555
H15 C18 1_555 1_555
C19 C18 1_555 1_555
H16 C19 1_555 1_555
C20 C15 1_555 1_555
H17 C20 1_555 1_555
C21 P1 1_555 1_555
C22 C21 1_555 1_555
H18 C22 1_555 1_555
C23 C22 1_555 1_555
H19 C23 1_555 1_555
C24 C23 1_555 1_555
H20 C24 1_555 1_555
C25 C24 1_555 1_555
H21 C25 1_555 1_555
C26 C21 1_555 1_555
H22 C26 1_555 1_555
C27 C28 1_555 1_555
C28 C29 1_555 1_555
C29 H23 1_555 1_555
C30 C29 1_555 1_555
C31 C30 1_555 1_555
H24 C31 1_555 1_555
C32 C27 1_555 1_555
O1 C7 1_555 1_555
O2 C27 1_555 1_555
O3 N1 1_555 1_555
O4 N1 1_555 1_555
O5 N2 1_555 1_555
O6 N2 1_555 1_555
O7 N3 1_555 1_555
O8 N3 1_555 1_555
N1 C28 1_555 1_555
N2 C30 1_555 1_555
N3 C32 1_555 1_555
C5 C6 1_555 1_555
C13 C14 1_555 1_555
C19 C20 1_555 1_555
C25 C26 1_555 1_555
C31 C32 1_555 1_555

#END
