
#######################################################################
#
#                 Cambridge Crystallographic Data Centre
#                                CCDC 
#
#######################################################################
#
# If this CIF has been generated from an entry in the Cambridge 
# Structural Database, then it will include bibliographic, chemical, 
# crystal, experimental, refinement or atomic coordinate data resulting 
# from the CCDC's data processing and validation procedures.
#
#######################################################################

data_UNOROG
_chemical_name_common            Taxapentaoxiane
_chemical_formula_moiety         'C26 H42 O8'
_chemical_name_systematic        
10-hydroxy-2,5,13-tris(methoxymethoxy)taxa-4(20),11-dien-9-one
_symmetry_cell_setting           triclinic
_symmetry_space_group_name_H-M   'P -1'
_symmetry_Int_Tables_number      2
_space_group_name_Hall           '-P 1'
loop_
_symmetry_equiv_pos_site_id
_symmetry_equiv_pos_as_xyz
1 x,y,z
2 -x,-y,-z
_cell_length_a                   7.8148(4)
_cell_length_b                   12.3768(7)
_cell_length_c                   12.9582(7)
_cell_angle_alpha                98.600(2)
_cell_angle_beta                 91.741(2)
_cell_angle_gamma                95.824(2)
_cell_volume                     1231.53
_exptl_crystal_colour            colorless
_exptl_crystal_description       block
_cell_formula_units_Z            2
_exptl_crystal_recrystallization_method 'ethyl acetate /Hexanes'
loop_
_atom_site_label
_atom_site_type_symbol
_atom_site_fract_x
_atom_site_fract_y
_atom_site_fract_z
O1 O -0.10014(15) 0.22318(10) 0.48191(9)
O2 O 0.18983(14) 0.24590(9) 0.44027(8)
O3 O 0.44493(14) 0.07070(9) 0.29102(8)
O4 O 0.30859(18) -0.09968(10) 0.31654(10)
O5 O 0.08750(13) 0.25777(9) 0.04519(8)
O6 O 0.15557(14) 0.31315(9) -0.11560(8)
O7 O 0.67397(16) 0.56270(10) 0.26792(10)
H1 H 0.727(3) 0.5649(19) 0.200(2)
O8 O 0.69430(15) 0.43569(9) 0.09080(9)
C1 C -0.1473(2) 0.11827(15) 0.42171(15)
H2 H -0.0756 0.1091 0.3609
H3 H -0.2687 0.1123 0.3981
H4 H -0.1303 0.0610 0.4646
C2 C 0.0722(2) 0.23684(15) 0.51899(13)
H5 H 0.0947 0.1734 0.5538
H6 H 0.0913 0.3038 0.5721
C3 C 0.19468(19) 0.34697(12) 0.39744(12)
H7 H 0.1478 0.4038 0.4489
C4 C 0.07924(19) 0.32727(13) 0.29491(12)
H8 H 0.0655 0.2475 0.2682
H9 H -0.0363 0.3487 0.3124
C5 C 0.14445(19) 0.38887(13) 0.20581(12)
H10 H 0.0419 0.4162 0.1743
C6 C 0.22393(19) 0.31522(12) 0.11687(11)
H11 H 0.2938 0.3658 0.0771
C7 C 0.34880(18) 0.23717(12) 0.15418(11)
H12 H 0.3579 0.2572 0.2320
C8 C 0.3019(2) 0.11281(13) 0.13469(12)
C9 C 0.4363(2) 0.04943(13) 0.17755(12)
H13 H 0.4042 -0.0309 0.1539
C10 C 0.3073(2) 0.01454(15) 0.33564(14)
H14 H 0.3132 0.0393 0.4120
H15 H 0.1974 0.0337 0.3070
C11 C 0.4554(3) -0.13453(16) 0.36399(16)
H16 H 0.5601 -0.1001 0.3373
H17 H 0.4519 -0.2146 0.3475
H18 H 0.4557 -0.1128 0.4399
C12 C 0.6175(2) 0.08095(13) 0.14487(13)
H19 H 0.6247 0.0565 0.0690
H20 H 0.7003 0.0433 0.1822
C13 C 0.66548(19) 0.20471(13) 0.16934(12)
H21 H 0.7814 0.2233 0.1440
H22 H 0.6701 0.2278 0.2460
C14 C 0.53460(19) 0.26820(13) 0.11776(12)
C15 C 0.1545(2) 0.05628(14) 0.09635(13)
H23 H 0.1369 -0.0208 0.0966
H24 H 0.0666 0.0929 0.0687
C16 C 0.0422(2) 0.31791(14) -0.03354(12)
H25 H -0.0752 0.2892 -0.0622
H26 H 0.0395 0.3957 -0.0022
C17 C 0.1418(3) 0.20724(16) -0.17826(14)
H27 H 0.1700 0.1524 -0.1349
H28 H 0.2221 0.2082 -0.2348
H29 H 0.0239 0.1883 -0.2080
C18 C 0.2708(2) 0.49176(13) 0.25045(12)
C19 C 0.41805(19) 0.44781(12) 0.30614(12)
C20 C 0.38163(19) 0.38497(12) 0.38066(11)
C21 C 0.5120(2) 0.34272(14) 0.44772(12)
H30 H 0.5221 0.2654 0.4211
H31 H 0.4750 0.3494 0.5198
H32 H 0.6239 0.3859 0.4460
C22 C 0.5960(2) 0.45430(13) 0.26292(12)
H33 H 0.6692 0.4181 0.3093
C23 C 0.60565(19) 0.39045(13) 0.15025(12)
C24 C 0.1734(2) 0.56986(14) 0.32597(13)
H34 H 0.1272 0.5310 0.3814
H35 H 0.0785 0.5944 0.2874
H36 H 0.2526 0.6337 0.3571
C25 C 0.3262(2) 0.55931(13) 0.16407(13)
H37 H 0.3881 0.6298 0.1959
H38 H 0.2239 0.5725 0.1241
H39 H 0.4016 0.5186 0.1173
C26 C 0.5347(2) 0.24061(13) -0.00195(12)
H40 H 0.6536 0.2452 -0.0242
H41 H 0.4719 0.2930 -0.0335
H42 H 0.4785 0.1660 -0.0244
loop_
_geom_bond_atom_site_label_1
_geom_bond_atom_site_label_2
_geom_bond_site_symmetry_1
_geom_bond_site_symmetry_2
O1 C1 1_555 1_555
O2 C2 1_555 1_555
O3 C9 1_555 1_555
O4 C10 1_555 1_555
O5 C6 1_555 1_555
O6 C16 1_555 1_555
O7 H1 1_555 1_555
O8 C23 1_555 1_555
C1 H2 1_555 1_555
H3 C1 1_555 1_555
H4 C1 1_555 1_555
C2 O1 1_555 1_555
H5 C2 1_555 1_555
H6 C2 1_555 1_555
C3 O2 1_555 1_555
H7 C3 1_555 1_555
C4 C3 1_555 1_555
H8 C4 1_555 1_555
H9 C4 1_555 1_555
C5 C4 1_555 1_555
H10 C5 1_555 1_555
C6 C5 1_555 1_555
H11 C6 1_555 1_555
C7 C6 1_555 1_555
H12 C7 1_555 1_555
C8 C7 1_555 1_555
C9 C8 1_555 1_555
H13 C9 1_555 1_555
C10 O3 1_555 1_555
H14 C10 1_555 1_555
H15 C10 1_555 1_555
C11 O4 1_555 1_555
H16 C11 1_555 1_555
H17 C11 1_555 1_555
H18 C11 1_555 1_555
C12 C9 1_555 1_555
H19 C12 1_555 1_555
H20 C12 1_555 1_555
C13 C12 1_555 1_555
H21 C13 1_555 1_555
H22 C13 1_555 1_555
C14 C7 1_555 1_555
C15 C8 1_555 1_555
H23 C15 1_555 1_555
H24 C15 1_555 1_555
C16 O5 1_555 1_555
H25 C16 1_555 1_555
H26 C16 1_555 1_555
C17 O6 1_555 1_555
H27 C17 1_555 1_555
H28 C17 1_555 1_555
H29 C17 1_555 1_555
C18 C5 1_555 1_555
C19 C18 1_555 1_555
C20 C3 1_555 1_555
C21 C20 1_555 1_555
H30 C21 1_555 1_555
H31 C21 1_555 1_555
H32 C21 1_555 1_555
C22 O7 1_555 1_555
H33 C22 1_555 1_555
C23 C14 1_555 1_555
C24 C18 1_555 1_555
H34 C24 1_555 1_555
H35 C24 1_555 1_555
H36 C24 1_555 1_555
C25 C18 1_555 1_555
H37 C25 1_555 1_555
H38 C25 1_555 1_555
H39 C25 1_555 1_555
C26 C14 1_555 1_555
H40 C26 1_555 1_555
H41 C26 1_555 1_555
H42 C26 1_555 1_555
C13 C14 1_555 1_555
C19 C20 1_555 1_555
C19 C22 1_555 1_555
C22 C23 1_555 1_555

#END
