
#######################################################################
#
#                 Cambridge Crystallographic Data Centre
#                                CCDC 
#
#######################################################################
#
# If this CIF has been generated from an entry in the Cambridge 
# Structural Database, then it will include bibliographic, chemical, 
# crystal, experimental, refinement or atomic coordinate data resulting 
# from the CCDC's data processing and validation procedures.
#
#######################################################################

data_UNOXOM
_chemical_formula_moiety         'C30 H28 O4'
_chemical_name_systematic        
(3-(cyclopropylethynyl)-2-(3,4-dimethoxyphenyl)-5-phenyltetrahydrofuran-3-yl)(phenyl)methanone
_symmetry_cell_setting           monoclinic
_symmetry_space_group_name_H-M   'P 21/c'
_symmetry_Int_Tables_number      14
_space_group_name_Hall           '-P 2ybc'
loop_
_symmetry_equiv_pos_site_id
_symmetry_equiv_pos_as_xyz
1 x,y,z
2 -x,1/2+y,1/2-z
3 -x,-y,-z
4 x,1/2-y,1/2+z
_cell_length_a                   8.3707(17)
_cell_length_b                   9.5663(19)
_cell_length_c                   30.466(6)
_cell_angle_alpha                90
_cell_angle_beta                 92.00(3)
_cell_angle_gamma                90
_cell_volume                     2438.13
_exptl_crystal_colour            colorless
_exptl_crystal_description       prism
_cell_formula_units_Z            4
loop_
_atom_site_label
_atom_site_type_symbol
_atom_site_fract_x
_atom_site_fract_y
_atom_site_fract_z
O1 O -0.1184(3) 0.6397(3) 0.34275(7)
O2 O 0.2176(3) 1.0468(2) 0.27883(8)
O3 O 0.4965(3) 0.9390(3) 0.26964(8)
O4 O 0.1771(4) 0.5012(3) 0.44780(11)
C1 C -0.2768(5) 0.3849(4) 0.32988(12)
H1 H -0.1956 0.4127 0.3117
C2 C -0.3586(6) 0.2626(5) 0.32121(12)
H2 H -0.3309 0.2081 0.2974
C3 C -0.4788(6) 0.2201(5) 0.34673(14)
H3 H -0.5331 0.1372 0.3406
C4 C -0.5192(5) 0.3021(5) 0.38197(15)
H4 H -0.6030 0.2755 0.3994
C5 C -0.4355(5) 0.4231(4) 0.39132(13)
H5 H -0.4612 0.4765 0.4156
C6 C -0.3144(4) 0.4658(3) 0.36508(10)
C7 C -0.2266(4) 0.6003(4) 0.37645(11)
H6 H -0.3054 0.6751 0.3795
C8 C -0.1243(4) 0.5907(4) 0.41929(10)
H7 H -0.0989 0.4942 0.4264
H8 H -0.1793 0.6322 0.4436
C9 C 0.0278(4) 0.6737(3) 0.40919(10)
C10 C 0.0398(4) 0.6274(4) 0.35972(10)
H9 H 0.0688 0.5282 0.3594
C11 C 0.1563(4) 0.7050(3) 0.33223(10)
C12 C 0.3026(4) 0.6479(4) 0.32497(11)
H10 H 0.3242 0.5572 0.3344
C13 C 0.4191(4) 0.7217(4) 0.30402(10)
H11 H 0.5177 0.6804 0.2995
C14 C 0.3898(4) 0.8564(3) 0.28982(10)
C15 C 0.2377(4) 0.9144(3) 0.29519(10)
C16 C 0.1213(4) 0.8389(3) 0.31634(10)
H12 H 0.0205 0.8773 0.3199
C17 C 0.0634(5) 1.1050(5) 0.27975(19)
H13 H 0.0646 1.1973 0.2674
H14 H 0.0302 1.1098 0.3096
H15 H -0.0100 1.0475 0.2629
C18 C 0.6522(5) 0.8822(5) 0.26401(16)
H16 H 0.7171 0.9496 0.2496
H17 H 0.6438 0.7990 0.2465
H18 H 0.7003 0.8599 0.2922
C19 C 0.1741(4) 0.6220(4) 0.43626(11)
C20 C 0.3127(4) 0.7130(3) 0.44760(10)
C21 C 0.4114(4) 0.6745(4) 0.48313(12)
H19 H 0.3849 0.5970 0.4998
C22 C 0.5461(5) 0.7481(5) 0.49404(13)
H20 H 0.6099 0.7210 0.5181
C23 C 0.5878(5) 0.8608(5) 0.46991(14)
H21 H 0.6797 0.9110 0.4777
C24 C 0.4945(5) 0.9013(4) 0.43397(13)
H22 H 0.5242 0.9780 0.4174
C25 C 0.3569(4) 0.8281(4) 0.42260(11)
H23 H 0.2938 0.8554 0.3984
C26 C -0.0037(4) 0.8233(4) 0.41295(11)
C27 C -0.0397(5) 0.9422(4) 0.41544(13)
C28 C -0.0751(6) 1.0885(5) 0.41665(16)
H24 H -0.1843 1.1142 0.4072
C29 C 0.0471(13) 1.1928(10) 0.4081(4)
H25 H 0.0132 1.2779 0.3932
H26 H 0.1520 1.1593 0.4005
C30 C -0.0035(19) 1.1726(11) 0.4563(3)
H27 H 0.0702 1.1251 0.4766
H28 H -0.0691 1.2442 0.4692
H29? H -0.1291 1.1253 0.3900
C31? C 0.0623(12) 1.1779(15) 0.4348(6)
H30? H 0.0880 1.2629 0.4192
H31? H 0.1527 1.1309 0.4491
C32? C -0.1010(19) 1.1694(14) 0.4566(4)
H32? H -0.1062 1.1186 0.4841
H33? H -0.1706 1.2503 0.4542
loop_
_geom_bond_atom_site_label_1
_geom_bond_atom_site_label_2
_geom_bond_site_symmetry_1
_geom_bond_site_symmetry_2
O1 C7 1_555 1_555
O2 C15 1_555 1_555
O3 C14 1_555 1_555
O4 C19 1_555 1_555
C1 H1 1_555 1_555
C2 C1 1_555 1_555
H2 C2 1_555 1_555
C3 C2 1_555 1_555
H3 C3 1_555 1_555
C4 C3 1_555 1_555
H4 C4 1_555 1_555
C5 C4 1_555 1_555
H5 C5 1_555 1_555
C6 C1 1_555 1_555
C7 C6 1_555 1_555
H6 C7 1_555 1_555
C8 C7 1_555 1_555
H7 C8 1_555 1_555
H8 C8 1_555 1_555
C9 C8 1_555 1_555
C10 O1 1_555 1_555
H9 C10 1_555 1_555
C11 C10 1_555 1_555
C12 C11 1_555 1_555
H10 C12 1_555 1_555
C13 C12 1_555 1_555
H11 C13 1_555 1_555
C14 C13 1_555 1_555
C15 C14 1_555 1_555
C16 C11 1_555 1_555
H12 C16 1_555 1_555
C17 O2 1_555 1_555
H13 C17 1_555 1_555
H14 C17 1_555 1_555
H15 C17 1_555 1_555
C18 O3 1_555 1_555
H16 C18 1_555 1_555
H17 C18 1_555 1_555
H18 C18 1_555 1_555
C19 C9 1_555 1_555
C20 C19 1_555 1_555
C21 C20 1_555 1_555
H19 C21 1_555 1_555
C22 C21 1_555 1_555
H20 C22 1_555 1_555
C23 C22 1_555 1_555
H21 C23 1_555 1_555
C24 C23 1_555 1_555
H22 C24 1_555 1_555
C25 C20 1_555 1_555
H23 C25 1_555 1_555
C26 C9 1_555 1_555
C27 C26 1_555 1_555
C28 C27 1_555 1_555
H24 C28 1_555 1_555
C29 C28 1_555 1_555
H25 C29 1_555 1_555
H26 C29 1_555 1_555
C30 C28 1_555 1_555
H27 C30 1_555 1_555
H28 C30 1_555 1_555
C5 C6 1_555 1_555
C9 C10 1_555 1_555
C15 C16 1_555 1_555
C24 C25 1_555 1_555
C29 C30 1_555 1_555

#END
