
#######################################################################
#
#                 Cambridge Crystallographic Data Centre
#                                CCDC 
#
#######################################################################
#
# If this CIF has been generated from an entry in the Cambridge 
# Structural Database, then it will include bibliographic, chemical, 
# crystal, experimental, refinement or atomic coordinate data resulting 
# from the CCDC's data processing and validation procedures.
#
#######################################################################

data_UNOYED
_chemical_formula_moiety         'C36 H32 O4'
_chemical_name_systematic        
(4-(cyclopropyl(phenyl)methylene)-6,7-dimethoxy-2-phenyl-2,3,4,8b-tetrahydro-3aH-indeno[1,2-b]furan-3a-yl)(phenyl)methanone
_symmetry_cell_setting           orthorhombic
_symmetry_space_group_name_H-M   'P n a 21'
_symmetry_Int_Tables_number      33
_space_group_name_Hall           'P 2c -2n'
loop_
_symmetry_equiv_pos_site_id
_symmetry_equiv_pos_as_xyz
1 x,y,z
2 -x,-y,1/2+z
3 1/2+x,1/2-y,z
4 1/2-x,1/2+y,1/2+z
_cell_length_a                   21.5979(12)
_cell_length_b                   9.9676(7)
_cell_length_c                   25.7433(10)
_cell_angle_alpha                90
_cell_angle_beta                 90
_cell_angle_gamma                90
_cell_volume                     5542
_exptl_crystal_colour            colorless
_exptl_crystal_description       Prism
_cell_formula_units_Z            8
loop_
_atom_site_label
_atom_site_type_symbol
_atom_site_fract_x
_atom_site_fract_y
_atom_site_fract_z
O1 O 0.33368(4) 0.57626(9) 0.26642(3)
O2 O 0.18173(5) 0.67515(11) 0.21153(4)
O3 O 0.51994(4) 0.40076(11) 0.08859(4)
O4 O 0.55390(4) 0.52283(11) 0.17148(4)
C1 C 0.32113(7) 0.26582(14) 0.33380(5)
H1 H 0.3452 0.2142 0.3103
C2 C 0.30847(9) 0.21575(16) 0.38308(6)
H2 H 0.3241 0.1305 0.3932
C3 C 0.27329(9) 0.28995(18) 0.41721(6)
H3 H 0.2642 0.2555 0.4508
C4 C 0.25126(8) 0.41476(17) 0.40259(6)
H4 H 0.2273 0.4662 0.4263
C5 C 0.26404(6) 0.46500(15) 0.35358(5)
H5 H 0.2489 0.5508 0.3438
C6 C 0.29900(6) 0.39004(13) 0.31861(5)
C7 C 0.31150(6) 0.44034(13) 0.26448(5)
H6 H 0.3434 0.3821 0.2476
C8 C 0.25457(5) 0.45114(13) 0.22899(5)
H7 H 0.2179 0.4820 0.2487
H8 H 0.2450 0.3636 0.2127
C9 C 0.27360(5) 0.55564(12) 0.18753(4)
C10 C 0.29746(5) 0.49258(11) 0.13684(4)
C11 C 0.36586(5) 0.49630(12) 0.13894(4)
C12 C 0.41048(5) 0.43732(13) 0.10624(5)
H9 H 0.3980 0.3886 0.0763
C13 C 0.47258(6) 0.45092(13) 0.11810(5)
C14 C 0.49169(5) 0.52036(13) 0.16330(5)
C15 C 0.44803(5) 0.58016(13) 0.19500(5)
H10 H 0.4603 0.6289 0.2250
C16 C 0.38553(5) 0.56753(12) 0.18203(5)
C17 C 0.33242(5) 0.62163(12) 0.21382(4)
H11 H 0.3305 0.7218 0.2120
C18 C 0.22308(5) 0.66232(13) 0.17999(5)
C19 C 0.22492(6) 0.75294(12) 0.13348(5)
C20 C 0.27924(6) 0.78960(14) 0.10778(5)
H12 H 0.3180 0.7567 0.1196
C21 C 0.27668(7) 0.87387(15) 0.06509(6)
H13 H 0.3138 0.8995 0.0480
C22 C 0.22002(8) 0.92113(15) 0.04715(6)
H14 H 0.2184 0.9780 0.0176
C23 C 0.16567(7) 0.88511(15) 0.07252(6)
H15 H 0.1269 0.9172 0.0603
C24 C 0.16842(6) 0.80224(14) 0.11560(5)
H16 H 0.1313 0.7787 0.1332
C25 C 0.26108(5) 0.44575(12) 0.09819(4)
C26 C 0.19241(5) 0.44465(13) 0.10156(5)
H17 H 0.1753 0.4697 0.1363
C27 C 0.15363(6) 0.34415(15) 0.07145(6)
H18 H 0.1756 0.2799 0.0486
H19 H 0.1161 0.3080 0.0885
C28 C 0.15318(6) 0.48844(16) 0.05576(5)
H20 H 0.1154 0.5412 0.0631
H21 H 0.1748 0.5131 0.0232
C29 C 0.28924(5) 0.40004(14) 0.04822(5)
C30 C 0.29832(6) 0.26466(15) 0.03738(5)
H22 H 0.2845 0.1986 0.0613
C31 C 0.32752(7) 0.22573(18) -0.00843(6)
H23 H 0.3336 0.1332 -0.0157
C32 C 0.34769(8) 0.3215(2) -0.04338(6)
H24 H 0.3682 0.2947 -0.0743
C33 C 0.33806(8) 0.4558(2) -0.03340(6)
H25 H 0.3515 0.5213 -0.0577
C34 C 0.30863(7) 0.49545(16) 0.01223(5)
H26 H 0.3018 0.5880 0.0188
C35 C 0.50263(6) 0.32717(17) 0.04324(5)
H27 H 0.4774 0.2497 0.0533
H28 H 0.5400 0.2961 0.0252
H29 H 0.4786 0.3852 0.0200
C36 C 0.57407(6) 0.57734(13) 0.22008(5)
H30 H 0.5640 0.6731 0.2215
H31 H 0.6189 0.5656 0.2235
H32 H 0.5531 0.5306 0.2486
O5 O 0.06188(4) 0.57609(9) 0.62621(3)
O6 O -0.09389(4) 0.63247(11) 0.69235(4)
O7 O 0.26362(4) 0.43496(11) 0.79575(4)
O8 O 0.28781(4) 0.57835(11) 0.71500(4)
C37 C 0.05794(8) 0.45746(17) 0.53078(6)
H33 H 0.0793 0.5396 0.5360
C38 C 0.05075(9) 0.4068(2) 0.48107(6)
H34 H 0.0681 0.4538 0.4525
C39 C 0.01880(10) 0.28933(19) 0.47250(6)
H35 H 0.0143 0.2553 0.4382
C40 C -0.00672(11) 0.22122(19) 0.51415(7)
H36 H -0.0292 0.1407 0.5085
C41 C 0.00058(9) 0.27046(16) 0.56409(6)
H37 H -0.0173 0.2236 0.5925
C42 C 0.03382(6) 0.38797(14) 0.57304(5)
C43 C 0.04479(6) 0.43743(13) 0.62759(5)
H38 H 0.0793 0.3846 0.6435
C44 C -0.01089(6) 0.43545(13) 0.66415(5)
H39 H -0.0171 0.3451 0.6793
H40 H -0.0491 0.4630 0.6458
C45 C 0.00695(5) 0.53853(12) 0.70657(4)
C46 C 0.03683(5) 0.47366(12) 0.75455(4)
C47 C 0.10425(5) 0.49568(11) 0.75074(4)
C48 C 0.15281(5) 0.44471(12) 0.78100(5)
H41 H 0.1443 0.3889 0.8100
C49 C 0.21346(5) 0.47656(13) 0.76815(5)
C50 C 0.22679(5) 0.55677(13) 0.72421(5)
C51 C 0.17857(6) 0.60753(12) 0.69459(5)
H42 H 0.1869 0.6626 0.6653
C52 C 0.11788(5) 0.57697(12) 0.70825(4)
C53 C 0.06067(5) 0.61909(12) 0.67923(4)
H43 H 0.0538 0.7181 0.6819
C54 C -0.04767(5) 0.63217(13) 0.71933(5)
C55 C -0.04483(6) 0.72408(12) 0.76525(5)
C56 C -0.10098(6) 0.76747(14) 0.78636(5)
H44 H -0.1389 0.7374 0.7718
C57 C -0.10165(7) 0.85427(15) 0.82854(6)
H45 H -0.1400 0.8824 0.8431
C58 C -0.04641(8) 0.89981(15) 0.84940(6)
H46 H -0.0469 0.9593 0.8782
C59 C 0.00971(7) 0.85879(14) 0.82832(5)
H47 H 0.0475 0.8915 0.8424
C60 C 0.01066(6) 0.77017(13) 0.78679(5)
H48 H 0.0491 0.7407 0.7730
C61 C 0.00521(5) 0.40977(12) 0.79224(4)
C62 C -0.06308(5) 0.39205(13) 0.78994(5)
H49 H -0.0825 0.4170 0.7560
C63 C -0.09523(6) 0.27957(16) 0.81883(5)
H50 H -0.1313 0.2365 0.8019
H51 H -0.0693 0.2185 0.8399
C64 C -0.10248(6) 0.42014(18) 0.83718(6)
H52 H -0.0810 0.4461 0.8697
H53 H -0.1430 0.4641 0.8316
C65 C 0.03737(5) 0.36028(13) 0.84001(4)
C66 C 0.05734(6) 0.22831(14) 0.84491(5)
H54 H 0.0480 0.1654 0.8183
C67 C 0.09085(7) 0.18722(16) 0.88832(6)
H55 H 0.1053 0.0975 0.8908
C68 C 0.10294(7) 0.27784(18) 0.92784(5)
H56 H 0.1258 0.2503 0.9575
C69 C 0.08182(7) 0.40787(18) 0.92412(5)
H57 H 0.0895 0.4691 0.9516
C70 C 0.04935(6) 0.45031(15) 0.88043(5)
H58 H 0.0353 0.5404 0.8781
C71 C 0.25075(6) 0.35494(18) 0.84040(6)
H59 H 0.2270 0.4079 0.8656
H60 H 0.2898 0.3259 0.8563
H61 H 0.2266 0.2761 0.8301
C72 C 0.30384(6) 0.62917(14) 0.66485(5)
H62 H 0.2843 0.5738 0.6380
H63 H 0.3489 0.6266 0.6606
H64 H 0.2893 0.7219 0.6616
loop_
_geom_bond_atom_site_label_1
_geom_bond_atom_site_label_2
_geom_bond_site_symmetry_1
_geom_bond_site_symmetry_2
O1 C7 1_555 1_555
O2 C18 1_555 1_555
O3 C13 1_555 1_555
O4 C14 1_555 1_555
C1 H1 1_555 1_555
C2 C1 1_555 1_555
H2 C2 1_555 1_555
C3 C2 1_555 1_555
H3 C3 1_555 1_555
C4 C3 1_555 1_555
H4 C4 1_555 1_555
C5 C4 1_555 1_555
H5 C5 1_555 1_555
C6 C1 1_555 1_555
C7 C6 1_555 1_555
H6 C7 1_555 1_555
C8 C7 1_555 1_555
H7 C8 1_555 1_555
H8 C8 1_555 1_555
C9 C8 1_555 1_555
C10 C9 1_555 1_555
C11 C10 1_555 1_555
C12 C11 1_555 1_555
H9 C12 1_555 1_555
C13 C12 1_555 1_555
C14 C13 1_555 1_555
C15 C14 1_555 1_555
H10 C15 1_555 1_555
C16 C11 1_555 1_555
C17 O1 1_555 1_555
H11 C17 1_555 1_555
C18 C9 1_555 1_555
C19 C18 1_555 1_555
C20 C19 1_555 1_555
H12 C20 1_555 1_555
C21 C20 1_555 1_555
H13 C21 1_555 1_555
C22 C21 1_555 1_555
H14 C22 1_555 1_555
C23 C22 1_555 1_555
H15 C23 1_555 1_555
C24 C19 1_555 1_555
H16 C24 1_555 1_555
C25 C10 1_555 1_555
C26 C25 1_555 1_555
H17 C26 1_555 1_555
C27 C26 1_555 1_555
H18 C27 1_555 1_555
H19 C27 1_555 1_555
C28 C26 1_555 1_555
H20 C28 1_555 1_555
H21 C28 1_555 1_555
C29 C25 1_555 1_555
C30 C29 1_555 1_555
H22 C30 1_555 1_555
C31 C30 1_555 1_555
H23 C31 1_555 1_555
C32 C31 1_555 1_555
H24 C32 1_555 1_555
C33 C32 1_555 1_555
H25 C33 1_555 1_555
C34 C29 1_555 1_555
H26 C34 1_555 1_555
C35 O3 1_555 1_555
H27 C35 1_555 1_555
H28 C35 1_555 1_555
H29 C35 1_555 1_555
C36 O4 1_555 1_555
H30 C36 1_555 1_555
H31 C36 1_555 1_555
H32 C36 1_555 1_555
O5 C43 1_555 1_555
O6 C54 1_555 1_555
O7 C49 1_555 1_555
O8 C50 1_555 1_555
C37 H33 1_555 1_555
C38 C37 1_555 1_555
H34 C38 1_555 1_555
C39 C38 1_555 1_555
H35 C39 1_555 1_555
C40 C39 1_555 1_555
H36 C40 1_555 1_555
C41 C40 1_555 1_555
H37 C41 1_555 1_555
C42 C37 1_555 1_555
C43 C42 1_555 1_555
H38 C43 1_555 1_555
C44 C43 1_555 1_555
H39 C44 1_555 1_555
H40 C44 1_555 1_555
C45 C44 1_555 1_555
C46 C45 1_555 1_555
C47 C46 1_555 1_555
C48 C47 1_555 1_555
H41 C48 1_555 1_555
C49 C48 1_555 1_555
C50 C49 1_555 1_555
C51 C50 1_555 1_555
H42 C51 1_555 1_555
C52 C47 1_555 1_555
C53 O5 1_555 1_555
H43 C53 1_555 1_555
C54 C45 1_555 1_555
C55 C54 1_555 1_555
C56 C55 1_555 1_555
H44 C56 1_555 1_555
C57 C56 1_555 1_555
H45 C57 1_555 1_555
C58 C57 1_555 1_555
H46 C58 1_555 1_555
C59 C58 1_555 1_555
H47 C59 1_555 1_555
C60 C55 1_555 1_555
H48 C60 1_555 1_555
C61 C46 1_555 1_555
C62 C61 1_555 1_555
H49 C62 1_555 1_555
C63 C62 1_555 1_555
H50 C63 1_555 1_555
H51 C63 1_555 1_555
C64 C62 1_555 1_555
H52 C64 1_555 1_555
H53 C64 1_555 1_555
C65 C61 1_555 1_555
C66 C65 1_555 1_555
H54 C66 1_555 1_555
C67 C66 1_555 1_555
H55 C67 1_555 1_555
C68 C67 1_555 1_555
H56 C68 1_555 1_555
C69 C68 1_555 1_555
H57 C69 1_555 1_555
C70 C65 1_555 1_555
H58 C70 1_555 1_555
C71 O7 1_555 1_555
H59 C71 1_555 1_555
H60 C71 1_555 1_555
H61 C71 1_555 1_555
C72 O8 1_555 1_555
H62 C72 1_555 1_555
H63 C72 1_555 1_555
H64 C72 1_555 1_555
C5 C6 1_555 1_555
C9 C17 1_555 1_555
C15 C16 1_555 1_555
C16 C17 1_555 1_555
C23 C24 1_555 1_555
C27 C28 1_555 1_555
C33 C34 1_555 1_555
C41 C42 1_555 1_555
C45 C53 1_555 1_555
C51 C52 1_555 1_555
C52 C53 1_555 1_555
C59 C60 1_555 1_555
C63 C64 1_555 1_555
C69 C70 1_555 1_555

#END
