
#######################################################################
#
#                 Cambridge Crystallographic Data Centre
#                                CCDC 
#
#######################################################################
#
# If this CIF has been generated from an entry in the Cambridge 
# Structural Database, then it will include bibliographic, chemical, 
# crystal, experimental, refinement or atomic coordinate data resulting 
# from the CCDC's data processing and validation procedures.
#
#######################################################################

data_UNUDUE
_chemical_formula_moiety         'C30 H34 Si2'
_chemical_name_systematic        
trimethyl((2-(2-naphthyl)-1-(trimethylsilyl)-1H-cyclopenta[a]naphthalen-3-yl)methyl)silane
_symmetry_cell_setting           triclinic
_symmetry_space_group_name_H-M   'P -1'
_symmetry_Int_Tables_number      2
_space_group_name_Hall           '-P 1'
loop_
_symmetry_equiv_pos_site_id
_symmetry_equiv_pos_as_xyz
1 x,y,z
2 -x,-y,-z
_cell_length_a                   11.0725(12)
_cell_length_b                   12.7749(13)
_cell_length_c                   18.5797(11)
_cell_angle_alpha                85.577(7)
_cell_angle_beta                 88.528(7)
_cell_angle_gamma                86.739(8)
_cell_volume                     2615.43
_exptl_crystal_colour            colorless
_exptl_crystal_description       needle
_cell_formula_units_Z            4
loop_
_atom_site_label
_atom_site_type_symbol
_atom_site_fract_x
_atom_site_fract_y
_atom_site_fract_z
Si1 Si 0.15634(14) 0.69849(10) 0.95254(7)
Si2 Si 0.38958(14) 0.30973(11) 0.85706(7)
C1 C 0.2583(5) 0.2668(4) 0.9141(3)
H1 H 0.2318 0.3224 0.9454
H2 H 0.2822 0.2026 0.9438
H3 H 0.1918 0.2527 0.8830
C2 C 0.3306(4) 0.5400(3) 0.8291(2)
C3 C -0.0422(4) 0.4343(3) 0.7973(2)
C4 C 0.2242(4) 0.5978(3) 0.8304(2)
C5 C 0.2403(4) 0.7014(3) 0.8614(2)
H4 H 0.2087 0.7615 0.8282
C6 C 0.3747(4) 0.7022(3) 0.8678(2)
C7 C 0.1066(4) 0.5668(3) 0.8062(2)
C8 C 0.0277(5) 0.6413(4) 0.7668(2)
H5 H 0.0512 0.7113 0.7560
C9 C 0.0692(4) 0.4672(3) 0.8211(2)
H6 H 0.1202 0.4178 0.8486
C10 C -0.1192(4) 0.5101(3) 0.7583(2)
C11 C 0.4248(4) 0.6035(3) 0.8531(2)
C12 C 0.5769(5) 0.7614(4) 0.8855(2)
C13 C 0.3585(5) 0.4358(3) 0.7989(2)
H7 H 0.4298 0.4444 0.7662
H8 H 0.2898 0.4236 0.7681
C14 C 0.4512(4) 0.7837(3) 0.8830(2)
C15 C 0.6245(5) 0.6585(4) 0.8734(2)
H9 H 0.7091 0.6427 0.8772
C16 C 0.1880(5) 0.8112(4) 1.0054(2)
H10 H 0.2756 0.8140 1.0107
H11 H 0.1489 0.8023 1.0533
H12 H 0.1563 0.8768 0.9801
C17 C -0.0796(5) 0.3312(3) 0.8108(2)
H13 H -0.0287 0.2804 0.8372
C18 C -0.2308(5) 0.4774(4) 0.7343(2)
H14 H -0.2840 0.5271 0.7086
C19 C -0.0804(5) 0.6130(3) 0.7446(2)
H15 H -0.1318 0.6642 0.7190
C20 C 0.5519(5) 0.5823(4) 0.8565(2)
H16 H 0.5861 0.5147 0.8469
C21 C 0.6541(5) 0.8420(4) 0.9003(2)
H17 H 0.7390 0.8272 0.9024
C22 C 0.4065(5) 0.8885(4) 0.8935(2)
H18 H 0.3224 0.9066 0.8896
C23 C -0.2628(5) 0.3769(4) 0.7473(2)
H19 H -0.3368 0.3561 0.7295
C24 C 0.1992(6) 0.5729(4) 1.0041(2)
H20 H 0.1556 0.5162 0.9857
H21 H 0.1782 0.5784 1.0552
H22 H 0.2865 0.5575 0.9986
C25 C -0.1865(5) 0.3028(4) 0.7871(2)
H23 H -0.2103 0.2328 0.7973
C26 C 0.4252(6) 0.2105(4) 0.7912(3)
H24 H 0.4652 0.1478 0.8157
H25 H 0.4790 0.2397 0.7530
H26 H 0.3501 0.1915 0.7699
C27 C 0.4827(5) 0.9625(4) 0.9090(3)
H27 H 0.4509 1.0309 0.9184
C28 C 0.6073(5) 0.9396(4) 0.9115(3)
H28 H 0.6596 0.9930 0.9211
C29 C -0.0081(5) 0.7087(5) 0.9380(3)
H29 H -0.0278 0.7681 0.9029
H30 H -0.0509 0.7198 0.9839
H31 H -0.0330 0.6436 0.9195
C30 C 0.5149(6) 0.3177(5) 0.9196(3)
H32 H 0.4942 0.3725 0.9526
H33 H 0.5887 0.3349 0.8919
H34 H 0.5284 0.2499 0.9474
Si3 Si 0.65418(14) 0.99279(10) 0.63758(7)
Si4 Si 0.90644(14) 0.74168(11) 0.43418(7)
C31 C 0.8428(4) 0.7686(3) 0.5866(2)
C32 C 1.0758(5) 0.9301(3) 0.7111(2)
C33 C 0.9333(5) 0.8280(3) 0.6199(2)
C34 C 0.7349(4) 0.7863(3) 0.6203(2)
C35 C 0.7455(4) 0.8688(3) 0.6740(2)
H35 H 0.7145 0.8433 0.7229
C36 C 0.8771(4) 0.8812(3) 0.6746(2)
C37 C 0.6201(4) 0.7364(3) 0.6114(2)
C38 C 1.1288(5) 0.8789(4) 0.6520(2)
H36 H 1.2134 0.8808 0.6425
C39 C 0.3952(5) 0.6440(3) 0.5969(2)
C40 C 0.9491(5) 0.9314(3) 0.7226(2)
C41 C 0.8771(5) 0.6919(3) 0.5312(2)
H37 H 0.8118 0.6420 0.5313
H38 H 0.9509 0.6508 0.5480
C42 C 0.2849(5) 0.5969(4) 0.5896(3)
H39 H 0.2347 0.5810 0.6308
C43 C 0.4342(5) 0.6699(4) 0.6652(2)
H40 H 0.3845 0.6560 0.7069
C44 C 0.4929(5) 0.9761(4) 0.6560(3)
H41 H 0.4643 0.9242 0.6251
H42 H 0.4475 1.0435 0.6460
H43 H 0.4807 0.9515 0.7068
C45 C 1.0586(5) 0.8268(3) 0.6085(2)
H44 H 1.0951 0.7897 0.5704
C46 C 0.6939(5) 1.1104(4) 0.6824(3)
H45 H 0.6724 1.1014 0.7339
H46 H 0.6493 1.1727 0.6604
H47 H 0.7810 1.1193 0.6766
C47 C 0.4705(5) 0.6646(4) 0.5363(2)
C48 C 0.5414(5) 0.7143(4) 0.6718(2)
H48 H 0.5647 0.7312 0.7182
C49 C 0.9744(6) 1.0207(4) 0.8314(3)
H49 H 0.9401 1.0505 0.8731
C50 C 1.1488(5) 0.9788(3) 0.7596(3)
H50 H 1.2336 0.9806 0.7509
C51 C 1.0977(5) 1.0227(4) 0.8185(3)
H51 H 1.1470 1.0547 0.8507
C52 C 0.5809(5) 0.7121(3) 0.5444(2)
H52 H 0.6300 0.7280 0.5027
C53 C 0.9003(5) 0.9770(3) 0.7856(2)
H53 H 0.8158 0.9769 0.7957
C54 C 0.4317(5) 0.6385(4) 0.4678(3)
H54 H 0.4811 0.6522 0.4260
C55 C 0.7660(6) 0.7919(6) 0.3877(3)
H55 H 0.7108 0.7349 0.3865
H56 H 0.7862 0.8186 0.3382
H57 H 0.7269 0.8489 0.4138
C56 C 0.3246(6) 0.5941(5) 0.4623(3)
H58 H 0.3000 0.5763 0.4163
C57 C 0.2501(6) 0.5741(4) 0.5220(3)
H59 H 0.1744 0.5445 0.5165
C58 C 0.6852(6) 1.0157(4) 0.5387(3)
H60 H 0.7726 1.0081 0.5291
H61 H 0.6551 1.0869 0.5221
H62 H 0.6442 0.9642 0.5130
C59 C 0.9740(6) 0.6296(5) 0.3870(3)
H63 H 1.0374 0.5928 0.4166
H64 H 1.0092 0.6556 0.3405
H65 H 0.9112 0.5811 0.3787
C60 C 1.0108(6) 0.8489(5) 0.4273(3)
H66 H 0.9775 0.9065 0.4550
H67 H 1.0214 0.8744 0.3766
H68 H 1.0893 0.8229 0.4468
loop_
_geom_bond_atom_site_label_1
_geom_bond_atom_site_label_2
_geom_bond_site_symmetry_1
_geom_bond_site_symmetry_2
Si1 C5 1_555 1_555
Si2 C1 1_555 1_555
C1 H1 1_555 1_555
H2 C1 1_555 1_555
H3 C1 1_555 1_555
C2 C4 1_555 1_555
C3 C9 1_555 1_555
C4 C5 1_555 1_555
C5 H4 1_555 1_555
C6 C5 1_555 1_555
C7 C4 1_555 1_555
C8 C7 1_555 1_555
H5 C8 1_555 1_555
C9 C7 1_555 1_555
H6 C9 1_555 1_555
C10 C3 1_555 1_555
C11 C2 1_555 1_555
C12 C14 1_555 1_555
C13 Si2 1_555 1_555
H7 C13 1_555 1_555
H8 C13 1_555 1_555
C14 C6 1_555 1_555
C15 C12 1_555 1_555
H9 C15 1_555 1_555
C16 Si1 1_555 1_555
H10 C16 1_555 1_555
H11 C16 1_555 1_555
H12 C16 1_555 1_555
C17 C3 1_555 1_555
H13 C17 1_555 1_555
C18 C10 1_555 1_555
H14 C18 1_555 1_555
C19 C8 1_555 1_555
H15 C19 1_555 1_555
C20 C11 1_555 1_555
H16 C20 1_555 1_555
C21 C12 1_555 1_555
H17 C21 1_555 1_555
C22 C14 1_555 1_555
H18 C22 1_555 1_555
C23 C18 1_555 1_555
H19 C23 1_555 1_555
C24 Si1 1_555 1_555
H20 C24 1_555 1_555
H21 C24 1_555 1_555
H22 C24 1_555 1_555
C25 C17 1_555 1_555
H23 C25 1_555 1_555
C26 Si2 1_555 1_555
H24 C26 1_555 1_555
H25 C26 1_555 1_555
H26 C26 1_555 1_555
C27 C22 1_555 1_555
H27 C27 1_555 1_555
C28 C21 1_555 1_555
H28 C28 1_555 1_555
C29 Si1 1_555 1_555
H29 C29 1_555 1_555
H30 C29 1_555 1_555
H31 C29 1_555 1_555
C30 Si2 1_555 1_555
H32 C30 1_555 1_555
H33 C30 1_555 1_555
H34 C30 1_555 1_555
Si3 C35 1_555 1_555
Si4 C41 1_555 1_555
C31 C33 1_555 1_555
C32 C38 1_555 1_555
C33 C36 1_555 1_555
C34 C31 1_555 1_555
C35 C34 1_555 1_555
H35 C35 1_555 1_555
C36 C35 1_555 1_555
C37 C34 1_555 1_555
C38 H36 1_555 1_555
C39 C42 1_555 1_555
C40 C32 1_555 1_555
C41 C31 1_555 1_555
H37 C41 1_555 1_555
H38 C41 1_555 1_555
C42 H39 1_555 1_555
C43 C39 1_555 1_555
H40 C43 1_555 1_555
C44 Si3 1_555 1_555
H41 C44 1_555 1_555
H42 C44 1_555 1_555
H43 C44 1_555 1_555
C45 C33 1_555 1_555
H44 C45 1_555 1_555
C46 Si3 1_555 1_555
H45 C46 1_555 1_555
H46 C46 1_555 1_555
H47 C46 1_555 1_555
C47 C39 1_555 1_555
C48 C37 1_555 1_555
H48 C48 1_555 1_555
C49 H49 1_555 1_555
C50 C32 1_555 1_555
H50 C50 1_555 1_555
C51 C49 1_555 1_555
H51 C51 1_555 1_555
C52 C37 1_555 1_555
H52 C52 1_555 1_555
C53 C40 1_555 1_555
H53 C53 1_555 1_555
C54 C47 1_555 1_555
H54 C54 1_555 1_555
C55 Si4 1_555 1_555
H55 C55 1_555 1_555
H56 C55 1_555 1_555
H57 C55 1_555 1_555
C56 C54 1_555 1_555
H58 C56 1_555 1_555
C57 C42 1_555 1_555
H59 C57 1_555 1_555
C58 Si3 1_555 1_555
H60 C58 1_555 1_555
H61 C58 1_555 1_555
H62 C58 1_555 1_555
C59 Si4 1_555 1_555
H63 C59 1_555 1_555
H64 C59 1_555 1_555
H65 C59 1_555 1_555
C60 Si4 1_555 1_555
H66 C60 1_555 1_555
H67 C60 1_555 1_555
H68 C60 1_555 1_555
C2 C13 1_555 1_555
C6 C11 1_555 1_555
C10 C19 1_555 1_555
C15 C20 1_555 1_555
C23 C25 1_555 1_555
C27 C28 1_555 1_555
C36 C40 1_555 1_555
C38 C45 1_555 1_555
C43 C48 1_555 1_555
C47 C52 1_555 1_555
C49 C53 1_555 1_555
C50 C51 1_555 1_555
C56 C57 1_555 1_555

#END
