
#######################################################################
#
#                 Cambridge Crystallographic Data Centre
#                                CCDC 
#
#######################################################################
#
# If this CIF has been generated from an entry in the Cambridge 
# Structural Database, then it will include bibliographic, chemical, 
# crystal, experimental, refinement or atomic coordinate data resulting 
# from the CCDC's data processing and validation procedures.
#
#######################################################################

data_UNUDUD02
_chemical_formula_moiety         'C23 H16 O2'
_chemical_name_systematic        
3-(9-anthryl)-1-(2-hydroxyphenyl)prop-2-en-1-one
_symmetry_cell_setting           monoclinic
_symmetry_space_group_name_H-M   'P 21/c'
_symmetry_Int_Tables_number      14
_space_group_name_Hall           '-P 2ybc'
loop_
_symmetry_equiv_pos_site_id
_symmetry_equiv_pos_as_xyz
1 x,y,z
2 -x,1/2+y,1/2-z
3 -x,-y,-z
4 x,1/2-y,1/2+z
_cell_length_a                   14.1054(5)
_cell_length_b                   13.9243(5)
_cell_length_c                   17.2620(6)
_cell_angle_alpha                90
_cell_angle_beta                 101.672(4)
_cell_angle_gamma                90
_cell_volume                     3320.28
_exptl_crystal_colour            orange
_exptl_crystal_description       Block
_cell_formula_units_Z            8
loop_
_atom_site_label
_atom_site_type_symbol
_atom_site_fract_x
_atom_site_fract_y
_atom_site_fract_z
C1 C 0.49872(13) 0.87851(11) 0.02717(10)
C2 C 0.59715(12) 0.88726(11) 0.02276(10)
C3 C 0.62537(13) 0.88180(12) -0.05142(11)
C4 C 0.42745(13) 0.86326(12) -0.04358(11)
O1 O 0.81453(10) 0.93987(10) 0.23099(8)
C5 C 0.55316(13) 0.86475(12) -0.12146(10)
O2 O 0.96248(10) 0.89067(11) 0.33633(8)
H1 H 0.9206 0.9270 0.3128
C6 C 0.45659(13) 0.85674(12) -0.11565(11)
H2 H 0.4100 0.8467 -0.1614
C7 C 0.95335(13) 0.80380(15) 0.30068(11)
C8 C 0.46560(15) 0.88257(13) 0.10001(12)
H3 H 0.5103 0.8918 0.1470
C9 C 0.32810(14) 0.85390(13) -0.03816(13)
H4 H 0.2815 0.8444 -0.0840
C10 C 0.88205(12) 0.78502(14) 0.23224(10)
C11 C 0.88003(13) 0.69286(14) 0.19948(11)
H5 H 0.8336 0.6788 0.1545
C12 C 1.01840(14) 0.73255(18) 0.33239(12)
H6 H 1.0655 0.7454 0.3772
C13 C 0.81370(13) 0.86092(15) 0.19809(11)
C14 C 0.37052(16) 0.87333(15) 0.10231(13)
H7 H 0.3510 0.8768 0.1506
C15 C 0.58229(16) 0.85622(15) -0.19541(11)
H8 H 0.5358 0.8436 -0.2407
C16 C 0.72259(14) 0.89452(13) -0.06122(12)
H9 H 0.7705 0.9088 -0.0173
C17 C 1.01395(15) 0.64346(18) 0.29839(14)
H10 H 1.0581 0.5964 0.3203
C18 C 0.74402(13) 0.84375(14) 0.12311(11)
H11 H 0.7532 0.7904 0.0931
C19 C 0.67014(13) 0.89988(13) 0.09691(11)
H12 H 0.6627 0.9529 0.1279
C20 C 0.74689(15) 0.88627(15) -0.13313(14)
H13 H 0.8111 0.8941 -0.1375
C21 C 0.30082(15) 0.85854(15) 0.03220(14)
H14 H 0.2358 0.8520 0.0346
C22 C 0.67578(17) 0.86596(17) -0.20127(13)
H15 H 0.6933 0.8593 -0.2501
C23 C 0.94434(15) 0.62268(15) 0.23158(13)
H16 H 0.9413 0.5619 0.2088
O3 O 1.23389(9) 0.71069(10) 0.25414(9)
C24 C 1.35146(12) 0.96189(13) 0.37841(10)
O4 O 1.12712(10) 0.62633(11) 0.13792(10)
H17 H 1.1673 0.6306 0.1793
C25 C 1.34307(14) 1.09225(13) 0.47184(11)
C26 C 1.30010(13) 1.01010(12) 0.42849(10)
C27 C 1.11718(12) 0.79593(14) 0.16323(10)
C28 C 1.19425(12) 0.78918(15) 0.23387(11)
C29 C 1.30964(13) 0.87824(13) 0.33183(11)
H18 H 1.3452 0.8216 0.3398
C30 C 1.43298(16) 1.12249(14) 0.46312(12)
H19 H 1.4598 1.1764 0.4910
C31 C 1.48534(13) 1.07584(15) 0.41452(12)
C32 C 1.44465(13) 0.99190(14) 0.37185(10)
C33 C 1.22782(14) 0.87491(14) 0.28042(11)
H20 H 1.1891 0.9296 0.2731
C34 C 1.20881(14) 0.97960(14) 0.44183(11)
H21 H 1.1793 0.9261 0.4150
C35 C 1.08919(13) 0.71329(16) 0.11741(12)
C36 C 1.29145(19) 1.13841(15) 0.52455(13)
H22 H 1.3188 1.1918 0.5530
C37 C 1.07005(14) 0.88264(15) 0.13848(12)
H23 H 1.0869 0.9378 0.1685
C38 C 1.16353(16) 1.02655(16) 0.49283(13)
H24 H 1.1038 1.0045 0.5003
C39 C 1.57890(16) 1.10642(18) 0.40568(15)
H25 H 1.6062 1.1606 0.4329
C40 C 0.99951(15) 0.88803(18) 0.07086(12)
H26 H 0.9684 0.9459 0.0555
C41 C 1.01922(15) 0.7203(2) 0.04812(13)
H27 H 1.0021 0.6663 0.0168
C42 C 1.50015(15) 0.94484(18) 0.32337(11)
H28 H 1.4747 0.8908 0.2949
C43 C 1.20476(19) 1.10706(17) 0.53420(14)
H29 H 1.1723 1.1390 0.5684
C44 C 0.97563(16) 0.8062(2) 0.02604(13)
H30 H 0.9287 0.8097 -0.0203
C45 C 1.58985(17) 0.9766(2) 0.31732(13)
H31 H 1.6252 0.9437 0.2857
C46 C 1.62882(17) 1.0592(2) 0.35903(17)
H32 H 1.6896 1.0813 0.3542
loop_
_geom_bond_atom_site_label_1
_geom_bond_atom_site_label_2
_geom_bond_site_symmetry_1
_geom_bond_site_symmetry_2
C1 C2 1_555 1_555
C2 C3 1_555 1_555
C3 C5 1_555 1_555
C4 C1 1_555 1_555
O1 C13 1_555 1_555
C5 C6 1_555 1_555
O2 H1 1_555 1_555
C6 C4 1_555 1_555
H2 C6 1_555 1_555
C7 O2 1_555 1_555
C8 C1 1_555 1_555
H3 C8 1_555 1_555
C9 C4 1_555 1_555
H4 C9 1_555 1_555
C10 C7 1_555 1_555
C11 C10 1_555 1_555
H5 C11 1_555 1_555
C12 C7 1_555 1_555
H6 C12 1_555 1_555
C13 C10 1_555 1_555
C14 C8 1_555 1_555
H7 C14 1_555 1_555
C15 C5 1_555 1_555
H8 C15 1_555 1_555
C16 C3 1_555 1_555
H9 C16 1_555 1_555
C17 C12 1_555 1_555
H10 C17 1_555 1_555
C18 C13 1_555 1_555
H11 C18 1_555 1_555
C19 C2 1_555 1_555
H12 C19 1_555 1_555
C20 C16 1_555 1_555
H13 C20 1_555 1_555
C21 C9 1_555 1_555
H14 C21 1_555 1_555
C22 C15 1_555 1_555
H15 C22 1_555 1_555
C23 C11 1_555 1_555
H16 C23 1_555 1_555
O3 C28 1_555 1_555
C24 C26 1_555 1_555
O4 H17 1_555 1_555
C25 C26 1_555 1_555
C26 C34 1_555 1_555
C27 C28 1_555 1_555
C28 C33 1_555 1_555
C29 C24 1_555 1_555
H18 C29 1_555 1_555
C30 C25 1_555 1_555
H19 C30 1_555 1_555
C31 C30 1_555 1_555
C32 C24 1_555 1_555
C33 C29 1_555 1_555
H20 C33 1_555 1_555
C34 H21 1_555 1_555
C35 O4 1_555 1_555
C36 C25 1_555 1_555
H22 C36 1_555 1_555
C37 C27 1_555 1_555
H23 C37 1_555 1_555
C38 C34 1_555 1_555
H24 C38 1_555 1_555
C39 C31 1_555 1_555
H25 C39 1_555 1_555
C40 C37 1_555 1_555
H26 C40 1_555 1_555
C41 C35 1_555 1_555
H27 C41 1_555 1_555
C42 C32 1_555 1_555
H28 C42 1_555 1_555
C43 C36 1_555 1_555
H29 C43 1_555 1_555
C44 C40 1_555 1_555
H30 C44 1_555 1_555
C45 C42 1_555 1_555
H31 C45 1_555 1_555
C46 C39 1_555 1_555
H32 C46 1_555 1_555
C14 C21 1_555 1_555
C17 C23 1_555 1_555
C18 C19 1_555 1_555
C20 C22 1_555 1_555
C27 C35 1_555 1_555
C31 C32 1_555 1_555
C38 C43 1_555 1_555
C41 C44 1_555 1_555
C45 C46 1_555 1_555

#END
