
#######################################################################
#
#                 Cambridge Crystallographic Data Centre
#                                CCDC 
#
#######################################################################
#
# If this CIF has been generated from an entry in the Cambridge 
# Structural Database, then it will include bibliographic, chemical, 
# crystal, experimental, refinement or atomic coordinate data resulting 
# from the CCDC's data processing and validation procedures.
#
#######################################################################

data_UNUDOY
_chemical_formula_moiety         'C44 H58 Li2 Si4'
_chemical_name_systematic        
bis(\m-trimethyl((2-phenyl-1-(trimethylsilyl)-inden-3-yl)methyl)silane)-di-lithium
_symmetry_cell_setting           monoclinic
_symmetry_space_group_name_H-M   'P 21/c'
_symmetry_Int_Tables_number      14
_space_group_name_Hall           '-P 2ybc'
loop_
_symmetry_equiv_pos_site_id
_symmetry_equiv_pos_as_xyz
1 x,y,z
2 -x,1/2+y,1/2-z
3 -x,-y,-z
4 x,1/2-y,1/2+z
_cell_length_a                   9.7464(5)
_cell_length_b                   26.0567(11)
_cell_length_c                   8.9188(5)
_cell_angle_alpha                90
_cell_angle_beta                 111.783(6)
_cell_angle_gamma                90
_cell_volume                     2103.28
_exptl_crystal_colour            'light yellow'
_cell_formula_units_Z            2
loop_
_atom_site_label
_atom_site_type_symbol
_atom_site_fract_x
_atom_site_fract_y
_atom_site_fract_z
C1 C 0.50496(16) 0.40509(6) 0.37770(19)
C2 C 0.40364(16) 0.42946(6) 0.43552(19)
C3 C 0.25632(17) 0.44647(6) 0.3557(2)
H1 H 0.2110 0.4464 0.2351
C4 C 0.17814(17) 0.46547(6) 0.4443(2)
H2 H 0.0741 0.4774 0.3876
C5 C 0.24420(18) 0.46898(7) 0.6147(2)
H3 H 0.1871 0.4844 0.6763
C6 C 0.38893(18) 0.45407(6) 0.6962(2)
H4 H 0.4378 0.4614 0.8143
C7 C 0.47289(17) 0.43329(6) 0.61052(19)
C8 C 0.61793(17) 0.41146(6) 0.66039(19)
C9 C 0.63081(16) 0.39279(6) 0.51461(19)
C10 C 0.47313(17) 0.39097(6) 0.20422(19)
H5 H 0.5676 0.3911 0.1866
H6 H 0.4097 0.4180 0.1345
C11 C 0.5154(2) 0.27363(7) 0.2131(2)
H7 H 0.5450 0.2711 0.3305
H8 H 0.6026 0.2804 0.1864
H9 H 0.4695 0.2413 0.1629
C12 C 0.3048(2) 0.32660(8) -0.0894(2)
H10 H 0.2512 0.2945 -0.1284
H11 H 0.3861 0.3294 -0.1284
H12 H 0.2372 0.3557 -0.1297
C13 C 0.2285(2) 0.31867(7) 0.2133(3)
H13 H 0.1887 0.2838 0.1895
H14 H 0.1499 0.3435 0.1608
H15 H 0.2671 0.3243 0.3303
C14 C 0.7331(2) 0.46093(7) 0.9982(2)
H16 H 0.7171 0.4936 0.9397
H17 H 0.8209 0.4636 1.0976
H18 H 0.6468 0.4530 1.0253
C15 C 0.7588(2) 0.34619(7) 0.9703(2)
H19 H 0.6575 0.3383 0.9607
H20 H 0.8225 0.3487 1.0847
H21 H 0.7951 0.3188 0.9192
C16 C 0.94968(19) 0.41937(8) 0.8649(2)
H22 H 0.9705 0.3933 0.7972
H23 H 1.0232 0.4170 0.9751
H24 H 0.9542 0.4535 0.8209
C17 C 0.75943(16) 0.36317(6) 0.50950(19)
C18 C 0.79390(17) 0.31573(6) 0.5866(2)
H25 H 0.7344 0.3026 0.6413
C19 C 0.91368(18) 0.28751(7) 0.5846(2)
H26 H 0.9357 0.2552 0.6375
C20 C 1.00107(18) 0.30640(7) 0.5057(2)
H27 H 1.0833 0.2871 0.5043
C21 C 0.96860(18) 0.35345(7) 0.4286(2)
H28 H 1.0287 0.3665 0.3744
C22 C 0.84840(18) 0.38152(7) 0.4304(2)
H29 H 0.8265 0.4137 0.3768
Li1 Li 0.6305(3) 0.47699(11) 0.5027(4)
Si1 Si 0.38039(5) 0.32705(2) 0.13584(6)
Si2 Si 0.76103(5) 0.40852(2) 0.86794(5)
C1B C 0.49504(16) 0.59491(6) 0.62230(19)
C2B C 0.59636(16) 0.57054(6) 0.56448(19)
C3B C 0.74368(17) 0.55353(6) 0.6443(2)
H1B H 0.7890 0.5536 0.7649
C4B C 0.82186(17) 0.53453(6) 0.5557(2)
H2B H 0.9259 0.5226 0.6124
C5B C 0.75580(18) 0.53102(7) 0.3853(2)
H3B H 0.8129 0.5156 0.3237
C6B C 0.61107(18) 0.54593(6) 0.3038(2)
H4B H 0.5622 0.5386 0.1857
C7B C 0.52711(17) 0.56671(6) 0.38948(19)
C8B C 0.38207(17) 0.58854(6) 0.33961(19)
C9B C 0.36919(16) 0.60721(6) 0.48539(19)
C10B C 0.52687(17) 0.60903(6) 0.79578(19)
H5B H 0.4324 0.6089 0.8134
H6B H 0.5903 0.5820 0.8655
C11B C 0.4846(2) 0.72637(7) 0.7869(2)
H7B H 0.4550 0.7289 0.6695
H8B H 0.3974 0.7196 0.8136
H9B H 0.5305 0.7587 0.8371
C12B C 0.6952(2) 0.67340(8) 1.0894(2)
H10B H 0.7488 0.7055 1.1284
H11B H 0.6139 0.6706 1.1284
H12B H 0.7628 0.6443 1.1297
C13B C 0.7715(2) 0.68133(7) 0.7867(3)
H13B H 0.8113 0.7162 0.8105
H14B H 0.8501 0.6565 0.8392
H15B H 0.7329 0.6757 0.6697
C14B C 0.2669(2) 0.53907(7) 0.0018(2)
H16B H 0.2829 0.5064 0.0603
H17B H 0.1791 0.5364 -0.0976
H18B H 0.3532 0.5470 -0.0253
C15B C 0.2412(2) 0.65381(7) 0.0297(2)
H19B H 0.3425 0.6617 0.0393
H20B H 0.1775 0.6513 -0.0847
H21B H 0.2049 0.6812 0.0808
C16B C 0.05032(19) 0.58063(8) 0.1351(2)
H22B H 0.0295 0.6067 0.2028
H23B H -0.0232 0.5830 0.0249
H24B H 0.0458 0.5465 0.1791
C17B C 0.24057(16) 0.63683(6) 0.49050(19)
C18B C 0.20610(17) 0.68427(6) 0.4134(2)
H25B H 0.2656 0.6974 0.3587
C19B C 0.08632(18) 0.71249(7) 0.4154(2)
H26B H 0.0643 0.7448 0.3625
C20B C -0.00107(18) 0.69360(7) 0.4943(2)
H27B H -0.0833 0.7129 0.4957
C21B C 0.03140(18) 0.64655(7) 0.5714(2)
H28B H -0.0287 0.6335 0.6256
C22B C 0.15160(18) 0.61848(7) 0.5696(2)
H29B H 0.1735 0.5863 0.6232
Li1B Li 0.3695(3) 0.52301(11) 0.4973(4)
Si1B Si 0.61961(5) 0.67295(2) 0.86416(6)
Si2B Si 0.23897(5) 0.59148(2) 0.13206(5)
loop_
_geom_bond_atom_site_label_1
_geom_bond_atom_site_label_2
_geom_bond_site_symmetry_1
_geom_bond_site_symmetry_2
C1 C2 1_555 1_555
C2 C3 1_555 1_555
C3 H1 1_555 1_555
C4 C3 1_555 1_555
H2 C4 1_555 1_555
C5 C4 1_555 1_555
H3 C5 1_555 1_555
C6 C5 1_555 1_555
H4 C6 1_555 1_555
C7 C2 1_555 1_555
C8 C7 1_555 1_555
C9 C1 1_555 1_555
C10 C1 1_555 1_555
H5 C10 1_555 1_555
H6 C10 1_555 1_555
C11 H7 1_555 1_555
H8 C11 1_555 1_555
H9 C11 1_555 1_555
C12 H10 1_555 1_555
H11 C12 1_555 1_555
H12 C12 1_555 1_555
C13 H13 1_555 1_555
H14 C13 1_555 1_555
H15 C13 1_555 1_555
C14 H16 1_555 1_555
H17 C14 1_555 1_555
H18 C14 1_555 1_555
C15 H19 1_555 1_555
H20 C15 1_555 1_555
H21 C15 1_555 1_555
C16 H22 1_555 1_555
H23 C16 1_555 1_555
H24 C16 1_555 1_555
C17 C9 1_555 1_555
C18 C17 1_555 1_555
H25 C18 1_555 1_555
C19 C18 1_555 1_555
H26 C19 1_555 1_555
C20 C19 1_555 1_555
H27 C20 1_555 1_555
C21 C20 1_555 1_555
H28 C21 1_555 1_555
C22 C17 1_555 1_555
H29 C22 1_555 1_555
Li1 C1 1_555 1_555
Si1 C10 1_555 1_555
Si2 C8 1_555 1_555
C1B C2B 1_555 1_555
C2B Li1 1_555 1_555
C3B Li1 1_555 1_555
H1B C3B 1_555 1_555
C4B Li1 1_555 1_555
H2B C4B 1_555 1_555
C5B Li1 1_555 1_555
H3B C5B 1_555 1_555
C6B Li1 1_555 1_555
H4B C6B 1_555 1_555
C7B Li1 1_555 1_555
C8B C7B 1_555 1_555
C9B C1B 1_555 1_555
C10B C1B 1_555 1_555
H5B C10B 1_555 1_555
H6B C10B 1_555 1_555
C11B H7B 1_555 1_555
H8B C11B 1_555 1_555
H9B C11B 1_555 1_555
C12B H10B 1_555 1_555
H11B C12B 1_555 1_555
H12B C12B 1_555 1_555
C13B H13B 1_555 1_555
H14B C13B 1_555 1_555
H15B C13B 1_555 1_555
C14B H16B 1_555 1_555
H17B C14B 1_555 1_555
H18B C14B 1_555 1_555
C15B H19B 1_555 1_555
H20B C15B 1_555 1_555
H21B C15B 1_555 1_555
C16B H22B 1_555 1_555
H23B C16B 1_555 1_555
H24B C16B 1_555 1_555
C17B C9B 1_555 1_555
C18B C17B 1_555 1_555
H25B C18B 1_555 1_555
C19B C18B 1_555 1_555
H26B C19B 1_555 1_555
C20B C19B 1_555 1_555
H27B C20B 1_555 1_555
C21B C20B 1_555 1_555
H28B C21B 1_555 1_555
C22B C17B 1_555 1_555
H29B C22B 1_555 1_555
Li1B C2 1_555 1_555
Si1B C10B 1_555 1_555
Si2B C8B 1_555 1_555
C2 Li1 1_555 1_555
C3 Li1B 1_555 1_555
C4 Li1B 1_555 1_555
C5 Li1B 1_555 1_555
C6 C7 1_555 1_555
C6 Li1B 1_555 1_555
C7 Li1 1_555 1_555
C7 Li1B 1_555 1_555
C8 C9 1_555 1_555
C8 Li1 1_555 1_555
C9 Li1 1_555 1_555
C11 Si1 1_555 1_555
C12 Si1 1_555 1_555
C13 Si1 1_555 1_555
C14 Si2 1_555 1_555
C15 Si2 1_555 1_555
C16 Si2 1_555 1_555
C21 C22 1_555 1_555
C1B Li1B 1_555 1_555
C2B C3B 1_555 1_555
C2B C7B 1_555 1_555
C2B Li1B 1_555 1_555
C3B C4B 1_555 1_555
C4B C5B 1_555 1_555
C5B C6B 1_555 1_555
C6B C7B 1_555 1_555
C7B Li1B 1_555 1_555
C8B C9B 1_555 1_555
C8B Li1B 1_555 1_555
C9B Li1B 1_555 1_555
C11B Si1B 1_555 1_555
C12B Si1B 1_555 1_555
C13B Si1B 1_555 1_555
C14B Si2B 1_555 1_555
C15B Si2B 1_555 1_555
C16B Si2B 1_555 1_555
C21B C22B 1_555 1_555

#END
