
#######################################################################
#
#                 Cambridge Crystallographic Data Centre
#                                CCDC 
#
#######################################################################
#
# If this CIF has been generated from an entry in the Cambridge 
# Structural Database, then it will include bibliographic, chemical, 
# crystal, experimental, refinement or atomic coordinate data resulting 
# from the CCDC's data processing and validation procedures.
#
#######################################################################

data_UNUGUG
_chemical_formula_moiety         'C20 H22 Br2 N2 O2,0.25(C1 H4 O1)'
_chemical_name_systematic        
'2-[6,8-Dibromo-3-(4-hydroxycyclohexyl)-1,2,3,4-tetrahydroquinazolin-2-yl]phenol methanol solvate'
_symmetry_cell_setting           triclinic
_symmetry_space_group_name_H-M   'P -1'
_symmetry_Int_Tables_number      2
_space_group_name_Hall           '-P 1'
loop_
_symmetry_equiv_pos_site_id
_symmetry_equiv_pos_as_xyz
1 x,y,z
2 -x,-y,-z
_cell_length_a                   11.733(2)
_cell_length_b                   16.831(3)
_cell_length_c                   21.721(4)
_cell_angle_alpha                94.69(3)
_cell_angle_beta                 96.88(3)
_cell_angle_gamma                99.44(3)
_cell_volume                     4178.28
_exptl_crystal_colour            colorless
_exptl_crystal_description       block
_cell_formula_units_Z            8
loop_
_atom_site_label
_atom_site_type_symbol
_atom_site_fract_x
_atom_site_fract_y
_atom_site_fract_z
Br1 Br 0.50780(11) 0.54851(6) 0.41605(5)
Br2 Br 0.75088(8) 0.28881(6) 0.44920(4)
O3 O 0.2270(5) 0.0715(4) 0.2618(3)
H3 H 0.2705 0.1041 0.2455
O4 O 0.6491(7) 0.1764(5) 0.0424(3)
H4 H 0.7056 0.1542 0.0391
N1 N 0.5676(6) 0.2056(4) 0.3396(3)
N2 N 0.4082(5) 0.1867(4) 0.2547(3)
C1 C 0.3768(7) 0.1178(4) 0.3488(4)
C2 C 0.2633(8) 0.0780(5) 0.3238(5)
C3 C 0.1865(8) 0.0458(4) 0.3639(5)
H7 H 0.1120 0.0187 0.3480
C4 C 0.2228(9) 0.0548(5) 0.4272(5)
H8 H 0.1713 0.0338 0.4536
C5 C 0.3321(9) 0.0935(5) 0.4524(4)
H9 H 0.3552 0.0990 0.4952
C6 C 0.4061(7) 0.1239(5) 0.4130(4)
H10 H 0.4805 0.1503 0.4301
C7 C 0.4654(7) 0.1496(5) 0.3066(4)
H11 H 0.4938 0.1027 0.2881
C8 C 0.4625(7) 0.3155(4) 0.3258(3)
C9 C 0.5528(6) 0.2828(4) 0.3580(4)
C10 C 0.6297(7) 0.3326(5) 0.4049(4)
C11 C 0.6164(8) 0.4108(5) 0.4212(4)
H12 H 0.6679 0.4428 0.4530
C12 C 0.5289(8) 0.4412(5) 0.3912(4)
C13 C 0.4520(7) 0.3943(5) 0.3435(4)
H13 H 0.3922 0.4163 0.3230
C14 C 0.3733(7) 0.2620(5) 0.2785(4)
H14 H 0.3024 0.2481 0.2971
H15 H 0.3553 0.2923 0.2437
C15 C 0.4654(8) 0.1917(5) 0.1979(4)
H16 H 0.4097 0.2119 0.1684
C16 C 0.4707(8) 0.1082(5) 0.1677(4)
H17 H 0.3942 0.0745 0.1631
H18 H 0.5243 0.0832 0.1940
C17 C 0.5117(9) 0.1145(6) 0.1033(4)
H19 H 0.5234 0.0615 0.0870
H20 H 0.4505 0.1301 0.0752
C18 C 0.6187(9) 0.1720(6) 0.1038(5)
H21 H 0.6809 0.1512 0.1283
C19 C 0.6130(8) 0.2539(5) 0.1356(4)
H22 H 0.5593 0.2794 0.1097
H23 H 0.6894 0.2877 0.1401
C20 C 0.5737(9) 0.2483(5) 0.1989(4)
H24 H 0.6343 0.2317 0.2268
H25 H 0.5634 0.3016 0.2155
H91 H 0.609(7) 0.178(5) 0.366(3)
Br3 Br 1.02222(11) 0.55820(6) 0.42630(5)
Br4 Br 1.26724(8) 0.29701(6) 0.44757(4)
O1 O 0.7323(5) 0.0798(3) 0.2677(3)
H1 H 0.7805 0.1076 0.2504
O2 O 1.1310(8) 0.2056(5) 0.0423(4)
H2 H 1.0954 0.2393 0.0275
N3 N 1.0712(6) 0.2146(4) 0.3426(3)
N4 N 0.9067(5) 0.1991(4) 0.2622(3)
C21 C 0.8835(7) 0.1260(4) 0.3539(4)
C22 C 0.7711(8) 0.0852(5) 0.3305(4)
C23 C 0.6981(8) 0.0501(5) 0.3688(5)
H26 H 0.6245 0.0221 0.3520
C24 C 0.7325(9) 0.0556(5) 0.4320(5)
H27 H 0.6813 0.0328 0.4579
C25 C 0.8405(9) 0.0942(5) 0.4566(4)
H28 H 0.8641 0.0971 0.4993
C26 C 0.9148(8) 0.1290(5) 0.4190(4)
H29 H 0.9887 0.1556 0.4367
C27 C 0.9673(7) 0.1606(4) 0.3101(4)
H30 H 0.9940 0.1147 0.2891
C28 C 0.9668(7) 0.3264(4) 0.3369(4)
C29 C 1.0599(6) 0.2932(4) 0.3632(4)
C30 C 1.1402(7) 0.3414(5) 0.4079(4)
C31 C 1.1315(7) 0.4202(5) 0.4270(4)
H31 H 1.1867 0.4515 0.4575
C32 C 1.0393(8) 0.4507(5) 0.3997(4)
C33 C 0.9581(8) 0.4048(5) 0.3554(4)
H32 H 0.8959 0.4268 0.3374
C34 C 0.8736(6) 0.2733(4) 0.2891(4)
H33 H 0.8043 0.2584 0.3088
H34 H 0.8531 0.3051 0.2555
C35 C 0.9587(8) 0.2094(5) 0.2050(4)
H35 H 0.9031 0.2337 0.1786
C36 C 0.9599(9) 0.1281(5) 0.1695(5)
H36 H 0.8844 0.0938 0.1677
H37 H 1.0177 0.1018 0.1916
C37 C 0.9880(11) 0.1373(7) 0.1029(5)
H38 H 0.9915 0.0845 0.0824
H39 H 0.9259 0.1584 0.0795
C38 C 1.0978(11) 0.1911(7) 0.1021(5)
H40 H 1.1585 0.1653 0.1232
C39 C 1.1043(9) 0.2720(7) 0.1394(5)
H41 H 1.0528 0.3029 0.1172
H42 H 1.1832 0.3021 0.1433
C40 C 1.0688(9) 0.2624(6) 0.2064(5)
H43 H 1.1290 0.2412 0.2313
H44 H 1.0642 0.3153 0.2263
H92 H 1.117(6) 0.184(4) 0.363(4)
Br5 Br 0.73267(9) 0.40022(6) 0.68344(5)
Br6 Br 1.12176(15) 0.56107(7) 0.85040(8)
O5 O 1.0710(5) 0.0754(4) 0.7097(3)
H5 H 1.0295 0.0842 0.7364
O6 O 0.7231(6) 0.0560(4) 0.9749(3)
H6 H 0.7517 0.0184 0.9883
N5 N 0.8385(6) 0.2493(4) 0.7178(3)
N6 N 0.9564(5) 0.1679(4) 0.7749(3)
C41 C 0.9815(6) 0.1804(4) 0.6651(3)
C42 C 1.0596(7) 0.1269(5) 0.6652(4)
C43 C 1.1287(7) 0.1243(5) 0.6175(4)
H45 H 1.1781 0.0864 0.6160
C44 C 1.1247(7) 0.1775(6) 0.5724(4)
H46 H 1.1722 0.1759 0.5411
C45 C 1.0516(9) 0.2321(5) 0.5737(4)
H47 H 1.0511 0.2690 0.5441
C46 C 0.9789(8) 0.2331(5) 0.6182(4)
H48 H 0.9268 0.2693 0.6175
C47 C 0.8971(6) 0.1786(4) 0.7138(4)
H49 H 0.8362 0.1309 0.7014
C48 C 1.0032(7) 0.3208(5) 0.7885(4)
C49 C 0.9029(8) 0.3203(5) 0.7471(4)
C50 C 0.8687(8) 0.3950(6) 0.7391(4)
C51 C 0.9346(10) 0.4662(5) 0.7697(5)
H50 H 0.9122 0.5158 0.7636
C52 C 1.0323(10) 0.4621(6) 0.8085(5)
C53 C 1.0690(8) 0.3894(6) 0.8191(4)
H51 H 1.1361 0.3879 0.8462
C54 C 1.0416(7) 0.2411(5) 0.7979(4)
H52 H 1.1106 0.2392 0.7777
H53 H 1.0643 0.2397 0.8422
C55 C 0.8793(7) 0.1335(5) 0.8192(4)
H54 H 0.8187 0.0928 0.7940
C56 C 0.9439(8) 0.0884(6) 0.8639(4)
H55 H 1.0060 0.1262 0.8897
H56 H 0.9794 0.0495 0.8408
C57 C 0.8643(9) 0.0435(6) 0.9062(5)
H57 H 0.8087 0.0003 0.8814
H58 H 0.9109 0.0195 0.9371
C58 C 0.8021(8) 0.0999(6) 0.9374(4)
H59 H 0.8590 0.1404 0.9650
C59 C 0.7345(8) 0.1427(6) 0.8917(5)
H60 H 0.6948 0.1799 0.9139
H61 H 0.6761 0.1035 0.8647
C60 C 0.8170(8) 0.1891(6) 0.8529(4)
H62 H 0.7730 0.2165 0.8232
H63 H 0.8730 0.2299 0.8799
H93 H 0.783(5) 0.245(5) 0.685(3)
Br7 Br 0.22232(9) 0.41215(6) 0.68357(5)
Br8 Br 0.59680(15) 0.58398(7) 0.85557(8)
O7 O 0.5483(6) 0.0782(4) 0.7181(3)
O8 O 0.2347(6) 0.0897(4) 0.9893(3)
N7 N 0.3360(6) 0.2657(4) 0.7195(3)
N8 N 0.4575(5) 0.1926(4) 0.7824(3)
C61 C 0.4694(6) 0.1857(5) 0.6699(4)
C62 C 0.5409(7) 0.1278(5) 0.6708(4)
C63 C 0.6068(7) 0.1153(5) 0.6243(4)
H64 H 0.6530 0.0754 0.6251
C64 C 0.6023(9) 0.1646(6) 0.5755(5)
H65 H 0.6441 0.1557 0.5425
C65 C 0.5389(8) 0.2247(6) 0.5752(4)
H66 H 0.5407 0.2589 0.5436
C66 C 0.4717(7) 0.2349(5) 0.6218(4)
H67 H 0.4268 0.2756 0.6211
C67 C 0.3914(7) 0.1941(5) 0.7208(4)
H68 H 0.3289 0.1466 0.7140
C68 C 0.5023(7) 0.3429(5) 0.7885(4)
C69 C 0.3967(7) 0.3390(5) 0.7479(4)
C70 C 0.3564(8) 0.4105(6) 0.7393(4)
C71 C 0.4159(9) 0.4848(6) 0.7707(5)
H69 H 0.3880 0.5324 0.7642
C72 C 0.5144(10) 0.4863(5) 0.8106(5)
C73 C 0.5602(8) 0.4159(6) 0.8211(4)
H70 H 0.6274 0.4179 0.8490
C74 C 0.5474(7) 0.2652(5) 0.7962(4)
H71 H 0.6064 0.2613 0.7689
H72 H 0.5846 0.2670 0.8387
C75 C 0.3780(7) 0.1742(5) 0.8313(4)
H73 H 0.3017 0.1864 0.8156
C76 C 0.3619(8) 0.0868(5) 0.8389(4)
H74 H 0.4371 0.0728 0.8528
H75 H 0.3323 0.0564 0.7987
C77 C 0.2793(8) 0.0624(5) 0.8848(4)
H76 H 0.2766 0.0055 0.8900
H77 H 0.2016 0.0697 0.8684
C78 C 0.3163(7) 0.1119(5) 0.9477(4)
H78 H 0.3919 0.1002 0.9653
C79 C 0.3307(9) 0.1990(5) 0.9392(4)
H79 H 0.3580 0.2305 0.9791
H80 H 0.2558 0.2121 0.9235
C80 C 0.4164(9) 0.2215(5) 0.8942(4)
H81 H 0.4237 0.2789 0.8898
H82 H 0.4924 0.2111 0.9109
H94 H 0.278(5) 0.269(5) 0.689(3)
H95 H 0.528(8) 0.100(5) 0.751(2)
H96 H 0.193(7) 0.117(5) 1.008(4)
O9 O 0.0335(12) 0.3116(7) 0.9790(6)
H83 H -0.0263 0.3256 0.9886
C81 C 0.1269(17) 0.3789(11) 0.9909(10)
H85 H 0.0960 0.4283 0.9913
H86 H 0.1763 0.3771 0.9588
H87 H 0.1715 0.3768 1.0306
O10 O 0.7990(12) 0.3078(8) 1.0151(6)
H84 H 0.7985 0.2663 0.9924
C82 C 0.7119(18) 0.3499(13) 0.9890(11)
H88 H 0.6939 0.3871 1.0208
H89 H 0.6428 0.3117 0.9723
H90 H 0.7404 0.3792 0.9562
loop_
_geom_bond_atom_site_label_1
_geom_bond_atom_site_label_2
_geom_bond_site_symmetry_1
_geom_bond_site_symmetry_2
Br1 C12 1_555 1_555
Br2 C10 1_555 1_555
Br3 C32 1_555 1_555
Br4 C30 1_555 1_555
Br5 C50 1_555 1_555
Br6 C52 1_555 1_555
Br7 C70 1_555 1_555
Br8 C72 1_555 1_555
O1 H1 1_555 1_555
O2 H2 1_555 1_555
O3 H3 1_555 1_555
O4 H4 1_555 1_555
O5 H5 1_555 1_555
O6 H6 1_555 1_555
O7 C62 1_555 1_555
O8 C78 1_555 1_555
N1 C7 1_555 1_555
N2 C7 1_555 1_555
N3 C27 1_555 1_555
N4 C27 1_555 1_555
N5 C47 1_555 1_555
N6 C47 1_555 1_555
N7 C67 1_555 1_555
N8 C67 1_555 1_555
C1 C2 1_555 1_555
C2 O3 1_555 1_555
C3 C2 1_555 1_555
H7 C3 1_555 1_555
C4 C3 1_555 1_555
H8 C4 1_555 1_555
C5 C4 1_555 1_555
H9 C5 1_555 1_555
C6 C1 1_555 1_555
H10 C6 1_555 1_555
C7 C1 1_555 1_555
H11 C7 1_555 1_555
C8 C9 1_555 1_555
C9 N1 1_555 1_555
C10 C9 1_555 1_555
C11 C10 1_555 1_555
H12 C11 1_555 1_555
C12 C11 1_555 1_555
C13 C8 1_555 1_555
H13 C13 1_555 1_555
C14 N2 1_555 1_555
H14 C14 1_555 1_555
H15 C14 1_555 1_555
C15 N2 1_555 1_555
H16 C15 1_555 1_555
C16 C15 1_555 1_555
H17 C16 1_555 1_555
H18 C16 1_555 1_555
C17 C16 1_555 1_555
H19 C17 1_555 1_555
H20 C17 1_555 1_555
C18 O4 1_555 1_555
H21 C18 1_555 1_555
C19 C18 1_555 1_555
H22 C19 1_555 1_555
H23 C19 1_555 1_555
C20 C15 1_555 1_555
H24 C20 1_555 1_555
H25 C20 1_555 1_555
C21 C22 1_555 1_555
C22 O1 1_555 1_555
C23 C22 1_555 1_555
H26 C23 1_555 1_555
C24 C23 1_555 1_555
H27 C24 1_555 1_555
C25 C24 1_555 1_555
H28 C25 1_555 1_555
C26 C21 1_555 1_555
H29 C26 1_555 1_555
C27 C21 1_555 1_555
H30 C27 1_555 1_555
C28 C29 1_555 1_555
C29 N3 1_555 1_555
C30 C29 1_555 1_555
C31 C30 1_555 1_555
H31 C31 1_555 1_555
C32 C31 1_555 1_555
C33 C28 1_555 1_555
H32 C33 1_555 1_555
C34 N4 1_555 1_555
H33 C34 1_555 1_555
H34 C34 1_555 1_555
C35 N4 1_555 1_555
H35 C35 1_555 1_555
C36 C35 1_555 1_555
H36 C36 1_555 1_555
H37 C36 1_555 1_555
C37 C36 1_555 1_555
H38 C37 1_555 1_555
H39 C37 1_555 1_555
C38 O2 1_555 1_555
H40 C38 1_555 1_555
C39 C38 1_555 1_555
H41 C39 1_555 1_555
H42 C39 1_555 1_555
C40 C35 1_555 1_555
H43 C40 1_555 1_555
H44 C40 1_555 1_555
C41 C42 1_555 1_555
C42 O5 1_555 1_555
C43 C42 1_555 1_555
H45 C43 1_555 1_555
C44 C43 1_555 1_555
H46 C44 1_555 1_555
C45 C44 1_555 1_555
H47 C45 1_555 1_555
C46 C41 1_555 1_555
H48 C46 1_555 1_555
C47 C41 1_555 1_555
H49 C47 1_555 1_555
C48 C49 1_555 1_555
C49 N5 1_555 1_555
C50 C49 1_555 1_555
C51 C50 1_555 1_555
H50 C51 1_555 1_555
C52 C51 1_555 1_555
C53 C48 1_555 1_555
H51 C53 1_555 1_555
C54 N6 1_555 1_555
H52 C54 1_555 1_555
H53 C54 1_555 1_555
C55 N6 1_555 1_555
H54 C55 1_555 1_555
C56 C55 1_555 1_555
H55 C56 1_555 1_555
H56 C56 1_555 1_555
C57 C56 1_555 1_555
H57 C57 1_555 1_555
H58 C57 1_555 1_555
C58 O6 1_555 1_555
H59 C58 1_555 1_555
C59 C58 1_555 1_555
H60 C59 1_555 1_555
H61 C59 1_555 1_555
C60 C55 1_555 1_555
H62 C60 1_555 1_555
H63 C60 1_555 1_555
C61 C62 1_555 1_555
C62 C63 1_555 1_555
C63 H64 1_555 1_555
C64 C63 1_555 1_555
H65 C64 1_555 1_555
C65 C64 1_555 1_555
H66 C65 1_555 1_555
C66 C61 1_555 1_555
H67 C66 1_555 1_555
C67 C61 1_555 1_555
H68 C67 1_555 1_555
C68 C69 1_555 1_555
C69 N7 1_555 1_555
C70 C69 1_555 1_555
C71 C70 1_555 1_555
H69 C71 1_555 1_555
C72 C71 1_555 1_555
C73 C68 1_555 1_555
H70 C73 1_555 1_555
C74 N8 1_555 1_555
H71 C74 1_555 1_555
H72 C74 1_555 1_555
C75 N8 1_555 1_555
H73 C75 1_555 1_555
C76 C75 1_555 1_555
H74 C76 1_555 1_555
H75 C76 1_555 1_555
C77 C76 1_555 1_555
H76 C77 1_555 1_555
H77 C77 1_555 1_555
C78 C77 1_555 1_555
H78 C78 1_555 1_555
C79 C78 1_555 1_555
H79 C79 1_555 1_555
H80 C79 1_555 1_555
C80 C75 1_555 1_555
H81 C80 1_555 1_555
H82 C80 1_555 1_555
O9 H83 1_555 1_555
O10 H84 1_555 1_555
C81 O9 1_555 1_555
H85 C81 1_555 1_555
H86 C81 1_555 1_555
H87 C81 1_555 1_555
C82 O10 1_555 1_555
H88 C82 1_555 1_555
H89 C82 1_555 1_555
H90 C82 1_555 1_555
H91 N1 1_555 1_555
H92 N3 1_555 1_555
H93 N5 1_555 1_555
H94 N7 1_555 1_555
H95 O7 1_555 1_555
H96 O8 1_555 1_555
C5 C6 1_555 1_555
C8 C14 1_555 1_555
C12 C13 1_555 1_555
C17 C18 1_555 1_555
C19 C20 1_555 1_555
C25 C26 1_555 1_555
C28 C34 1_555 1_555
C32 C33 1_555 1_555
C37 C38 1_555 1_555
C39 C40 1_555 1_555
C45 C46 1_555 1_555
C48 C54 1_555 1_555
C52 C53 1_555 1_555
C57 C58 1_555 1_555
C59 C60 1_555 1_555
C65 C66 1_555 1_555
C68 C74 1_555 1_555
C72 C73 1_555 1_555
C79 C80 1_555 1_555

#END
