
#######################################################################
#
#                 Cambridge Crystallographic Data Centre
#                                CCDC 
#
#######################################################################
#
# If this CIF has been generated from an entry in the Cambridge 
# Structural Database, then it will include bibliographic, chemical, 
# crystal, experimental, refinement or atomic coordinate data resulting 
# from the CCDC's data processing and validation procedures.
#
#######################################################################

data_UNUHOC
_chemical_formula_moiety         'C24 H20 N4 O2 S1'
_chemical_name_systematic        
'9H-fluoren-9-ylmethyl (1-(1H-benzotriazol-1-yl)-1-sulfanylidenepropan-2-yl)carbamate'
_symmetry_cell_setting           orthorhombic
_symmetry_space_group_name_H-M   'P 21 21 21'
_symmetry_Int_Tables_number      19
_space_group_name_Hall           'P 2ac 2ab'
loop_
_symmetry_equiv_pos_site_id
_symmetry_equiv_pos_as_xyz
1 x,y,z
2 1/2+x,1/2-y,-z
3 -x,1/2+y,1/2-z
4 1/2-x,-y,1/2+z
_cell_length_a                   4.9002(3)
_cell_length_b                   16.6369(9)
_cell_length_c                   25.4887(15)
_cell_angle_alpha                90
_cell_angle_beta                 90
_cell_angle_gamma                90
_cell_volume                     2077.94
_exptl_crystal_colour            'yellowish green'
_exptl_crystal_description       prism
_cell_formula_units_Z            4
loop_
_atom_site_label
_atom_site_type_symbol
_atom_site_fract_x
_atom_site_fract_y
_atom_site_fract_z
C1 C 1.0539(5) 0.76882(11) 0.15249(7)
C2 C 1.1347(5) 0.82417(13) 0.11470(8)
H1 H 1.2700 0.8121 0.0904
C3 C 1.0059(5) 0.89726(13) 0.11495(9)
H2 H 1.0553 0.9359 0.0904
C4 C 0.8029(5) 0.91462(13) 0.15119(9)
H3 H 0.7198 0.9648 0.1501
C5 C 0.7195(5) 0.86010(12) 0.18888(9)
H4 H 0.5839 0.8724 0.2131
C6 C 0.8497(4) 0.78592(11) 0.18853(7)
C7 C 0.6712(4) 0.69727(11) 0.26210(7)
C8 C 0.7309(4) 0.61360(11) 0.28453(7)
H5 H 0.9276 0.6040 0.2817
C9 C 0.5856(5) 0.54915(12) 0.25294(9)
H6 H 0.6421 0.4971 0.2649
H7 H 0.6309 0.5550 0.2165
H8 H 0.3919 0.5547 0.2574
C10 C 0.8500(4) 0.61378(11) 0.37656(8)
C11 C 0.9370(5) 0.62382(12) 0.46739(7)
H9 H 0.9981 0.6791 0.4702
H10 H 1.0945 0.5903 0.4602
C12 C 0.8033(4) 0.59779(11) 0.51829(7)
H11 H 0.6414 0.6305 0.5255
C13 C 1.0093(4) 0.60572(12) 0.56236(7)
C14 C 1.1444(5) 0.67310(13) 0.57986(8)
H12 H 1.1050 0.7234 0.5659
C15 C 1.3411(5) 0.66467(14) 0.61895(8)
H13 H 1.4360 0.7096 0.6307
C16 C 1.3967(5) 0.59027(14) 0.64048(8)
H14 H 1.5289 0.5857 0.6665
C17 C 1.2579(5) 0.52233(14) 0.62379(8)
H15 H 1.2941 0.4724 0.6387
C18 C 1.0636(5) 0.53006(12) 0.58438(7)
C19 C 0.8886(5) 0.47059(11) 0.55864(7)
C20 C 0.8589(5) 0.38846(12) 0.56752(8)
H16 H 0.9646 0.3625 0.5926
C21 C 0.6695(6) 0.34626(13) 0.53834(8)
H17 H 0.6463 0.2915 0.5443
C22 C 0.5134(5) 0.38421(13) 0.50031(8)
H18 H 0.3865 0.3548 0.4812
C23 C 0.5454(5) 0.46600(12) 0.49061(8)
H19 H 0.4425 0.4914 0.4648
C24 C 0.7327(4) 0.50876(12) 0.51999(8)
N1 N 0.8317(3) 0.71646(9) 0.21862(6)
N2 N 1.0211(4) 0.66060(10) 0.20019(6)
N3 N 1.1513(4) 0.69140(10) 0.16133(6)
N4 N 0.6580(4) 0.60992(10) 0.33947(6)
H20 H 0.4894 0.6052 0.3483
O1 O 1.0947(3) 0.61345(9) 0.36889(6)
O2 O 0.7390(3) 0.61635(8) 0.42516(5)
S1 S 0.44167(12) 0.75751(3) 0.28520(2)
loop_
_geom_bond_atom_site_label_1
_geom_bond_atom_site_label_2
_geom_bond_site_symmetry_1
_geom_bond_site_symmetry_2
C1 C2 1_555 1_555
C2 H1 1_555 1_555
C3 C2 1_555 1_555
H2 C3 1_555 1_555
C4 C3 1_555 1_555
H3 C4 1_555 1_555
C5 C4 1_555 1_555
H4 C5 1_555 1_555
C6 C1 1_555 1_555
C7 C8 1_555 1_555
C8 H5 1_555 1_555
C9 C8 1_555 1_555
H6 C9 1_555 1_555
H7 C9 1_555 1_555
H8 C9 1_555 1_555
C10 N4 1_555 1_555
C11 H9 1_555 1_555
H10 C11 1_555 1_555
C12 C11 1_555 1_555
H11 C12 1_555 1_555
C13 C12 1_555 1_555
C14 C13 1_555 1_555
H12 C14 1_555 1_555
C15 C14 1_555 1_555
H13 C15 1_555 1_555
C16 C15 1_555 1_555
H14 C16 1_555 1_555
C17 C16 1_555 1_555
H15 C17 1_555 1_555
C18 C13 1_555 1_555
C19 C18 1_555 1_555
C20 C19 1_555 1_555
H16 C20 1_555 1_555
C21 C20 1_555 1_555
H17 C21 1_555 1_555
C22 C21 1_555 1_555
H18 C22 1_555 1_555
C23 C22 1_555 1_555
H19 C23 1_555 1_555
C24 C12 1_555 1_555
N1 C6 1_555 1_555
N2 N1 1_555 1_555
N3 C1 1_555 1_555
N4 C8 1_555 1_555
H20 N4 1_555 1_555
O1 C10 1_555 1_555
O2 C10 1_555 1_555
S1 C7 1_555 1_555
C5 C6 1_555 1_555
C7 N1 1_555 1_555
C11 O2 1_555 1_555
C17 C18 1_555 1_555
C19 C24 1_555 1_555
C23 C24 1_555 1_555
N2 N3 1_555 1_555

#END
